drugbank_target|P00558 Phosphoglycerate kinase 1 (DB03909; DB04510; DB09130; DB11638)
 OpenBabel12092120533D

  0  0  0     0  0            999 V3000
M  V30 BEGIN CTAB
M  V30 COUNTS 6333 6382 0 0 0
M  V30 BEGIN ATOM
M  V30 1 H -0.908 1.98254 -0.117106 0
M  V30 2 N 0 1.576 0 0
M  V30 3 C 0.933 2.03868 1.02534 0
M  V30 4 C 1.911 0.928543 1.3348 0
M  V30 5 O 3.095 1.19667 1.45644 0
M  V30 6 C 0.222 2.43627 2.35294 0
M  V30 7 C -0.732 3.65373 2.2001 0
M  V30 8 S 0.101 5.13292 1.52614 0
M  V30 9 C 1.257 5.56322 2.86805 0
M  V30 10 H 1.49 2.90518 0.631377 0
M  V30 11 H -0.977 1.52953 0.210867 0
M  V30 12 H 0.981 2.67203 3.11629 0
M  V30 13 H -0.358 1.57376 2.7183 0
M  V30 14 H -1.165 3.90944 3.18086 0
M  V30 15 H -1.563 3.418 1.51819 0
M  V30 16 H 0.729 5.58782 3.83104 0
M  V30 17 H 1.672 6.56266 2.65933 0
M  V30 18 H 2.08 4.83886 2.90714 0
M  V30 19 N 1.4781 -0.272755 1.55222 0
M  V30 20 C 2.7031 -1.02683 1.80197 0
M  V30 21 C 3.1281 -1.79142 0.573551 0
M  V30 22 O 2.4861 -1.74917 -0.476849 0
M  V30 23 C 2.5341 -1.9609 3.02624 0
M  V30 24 O 1.6381 -3.04863 2.77727 0
M  V30 25 H 0.9791 -0.293557 0.595584 0
M  V30 26 H 3.5091 -0.30159 2.02365 0
M  V30 27 H 3.5191 -2.38039 3.31363 0
M  V30 28 H 2.1941 -1.39851 3.91682 0
M  V30 29 H 0.7711 -2.67228 2.60084 0
M  V30 30 N 2.9562 -1.48159 -0.537278 0
M  V30 31 C 3.8862 -1.65029 -1.6519 0
M  V30 32 C 4.8672 -0.499281 -1.62607 0
M  V30 33 O 6.0522 -0.730972 -1.79918 0
M  V30 34 C 3.1822 -1.68303 -3.03795 0
M  V30 35 C 2.1362 -2.8283 -3.21234 0
M  V30 36 C 1.4622 -2.71189 -4.60826 0
M  V30 37 C 2.7622 -4.24211 -3.04701 0
M  V30 38 H 4.4562 -2.58341 -1.51328 0
M  V30 39 H 2.0022 -1.24325 -0.726585 0
M  V30 40 H 3.9552 -1.78693 -3.81637 0
M  V30 41 H 2.6792 -0.715635 -3.18663 0
M  V30 42 H 1.3382 -2.71983 -2.45807 0
M  V30 43 H 0.9862 -1.72435 -4.7252 0
M  V30 44 H 0.6862 -3.48035 -4.7344 0
M  V30 45 H 2.2102 -2.83537 -5.40777 0
M  V30 46 H 3.6242 -4.3593 -3.72341 0
M  V30 47 H 2.0212 -5.01998 -3.28813 0
M  V30 48 H 3.0912 -4.41184 -2.01209 0
M  V30 49 N 4.4343 0.785586 -1.36625 0
M  V30 50 C 5.6593 1.57963 -1.34397 0
M  V30 51 C 6.0843 1.87964 0.071526 0
M  V30 52 O 5.4423 1.48182 1.0446 0
M  V30 53 C 5.4903 2.87511 -2.17646 0
M  V30 54 O 4.5943 3.81281 -1.57158 0
M  V30 55 H 3.9353 0.479014 -0.459828 0
M  V30 56 H 6.4653 0.973411 -1.79961 0
M  V30 57 H 6.4753 3.36745 -2.30362 0
M  V30 58 H 5.1503 2.65002 -3.20541 0
M  V30 59 H 3.7273 3.39885 -1.53403 0
M  V30 60 N 5.9124 1.20967 1.01018 0
M  V30 61 C 6.8604 0.961223 2.1181 0
M  V30 62 C 7.8544 -0.0897034 1.69162 0
M  V30 63 O 9.0604 0.0612271 1.79896 0
M  V30 64 H 5.4354 0.29355 0.692338 0
M  V30 65 H 7.4064 1.90178 2.29946 0
M  V30 66 C 6.1554 0.536854 3.4353 0
M  V30 67 H 5.4784 1.33713 3.76777 0
M  V30 68 H 6.9184 0.402286 4.22087 0
M  V30 69 C 5.3774 -0.751574 3.2841 0
M  V30 70 O 5.9074 -1.80841 3.58691 0
M  V30 71 N 4.1134 -0.716079 2.81639 0
M  V30 72 H 3.6604 0.144236 2.57196 0
M  V30 73 H 3.6184 -1.57847 2.71904 0
M  V30 74 N 7.3905 -1.2043 1.01659 0
M  V30 75 C 8.3375 -2.23215 0.586822 0
M  V30 76 C 9.3075 -1.61382 -0.393085 0
M  V30 77 O 10.4925 -1.88544 -0.292525 0
M  V30 78 C 7.6325 -3.45032 -0.0687464 0
M  V30 79 C 6.7455 -4.21296 0.955724 0
M  V30 80 C 5.8805 -5.30507 0.271208 0
M  V30 81 C 4.9195 -5.98515 1.28244 0
M  V30 82 N 4.0565 -6.99316 0.62459 0
M  V30 83 H 8.8965 -2.59336 1.46796 0
M  V30 84 H 6.4335 -1.27431 0.734836 0
M  V30 85 H 8.3915 -4.1459 -0.465965 0
M  V30 86 H 7.0215 -3.09604 -0.913529 0
M  V30 87 H 6.0735 -3.50803 1.4711 0
M  V30 88 H 7.3855 -4.6803 1.72479 0
M  V30 89 H 6.5395 -6.06428 -0.18151 0
M  V30 90 H 5.2785 -4.8481 -0.530163 0
M  V30 91 H 4.2835 -5.21355 1.74554 0
M  V30 92 H 5.5085 -6.46298 2.08509 0
M  V30 93 H 3.4545 -6.55812 -0.156914 0
M  V30 94 H 3.3715 -7.44178 1.33172 0
M  V30 95 H 4.6395 -7.79255 0.195462 0
M  V30 96 N 8.8686 -0.792821 -1.36206 0
M  V30 97 C 9.7986 -0.207853 -2.32573 0
M  V30 98 C 10.7796 0.659055 -1.56813 0
M  V30 99 O 11.9646 0.592176 -1.84951 0
M  V30 100 C 9.0946 0.655449 -3.41059 0
M  V30 101 C 8.0486 -0.111842 -4.27854 0
M  V30 102 C 7.3746 0.872274 -5.27537 0
M  V30 103 C 8.6746 -1.30299 -5.05786 0
M  V30 104 H 10.3686 -1.01294 -2.81744 0
M  V30 105 H 7.9146 -0.48854 -1.3546 0
M  V30 106 H 9.8676 1.07464 -4.07467 0
M  V30 107 H 8.5916 1.49328 -2.90463 0
M  V30 108 H 7.2506 -0.512053 -3.63006 0
M  V30 109 H 6.8986 1.70523 -4.73214 0
M  V30 110 H 6.5986 0.363291 -5.86476 0
M  V30 111 H 8.1226 1.28996 -5.96818 0
M  V30 112 H 9.5366 -0.959379 -5.65216 0
M  V30 113 H 7.9336 -1.7455 -5.74154 0
M  V30 114 H 9.0036 -2.09663 -4.37229 0
M  V30 115 N 10.3467 1.47872 -0.545128 0
M  V30 116 C 11.5747 2.06889 -0.021084 0
M  V30 117 C 11.9897 1.39955 1.2672 0
M  V30 118 O 11.3467 0.492036 1.75742 0
M  V30 119 C 11.3977 3.60996 0.190817 0
M  V30 120 O 11.1187 4.25419 -1.04644 0
M  V30 121 C 12.6197 4.36849 0.753521 0
M  V30 122 H 9.8397 0.669785 -0.0403635 0
M  V30 123 H 12.3837 1.90049 -0.755095 0
M  V30 124 H 10.5387 3.77391 0.87492 0
M  V30 125 H 10.9527 5.17785 -0.836611 0
M  V30 126 H 12.4267 5.45399 0.851139 0
M  V30 127 H 12.9037 4.02306 1.762 0
M  V30 128 H 13.5097 4.25169 0.105503 0
M  V30 129 N 11.8248 0.280983 1.55075 0
M  V30 130 C 12.7548 -0.597469 2.25727 0
M  V30 131 C 13.7358 -1.15417 1.24952 0
M  V30 132 O 14.9208 -1.18722 1.53684 0
M  V30 133 C 12.0508 -1.7789 2.98283 0
M  V30 134 C 11.0048 -1.35347 4.06036 0
M  V30 135 C 10.3308 -2.61846 4.66198 0
M  V30 136 C 11.6308 -0.499354 5.19907 0
M  V30 137 H 13.3248 -0.00824265 2.99399 0
M  V30 138 H 10.8708 -0.0025244 1.44 0
M  V30 139 H 12.8238 -2.39937 3.46422 0
M  V30 140 H 11.5478 -2.39405 2.22155 0
M  V30 141 H 10.2068 -0.756156 3.58717 0
M  V30 142 H 9.8548 -3.21632 3.86732 0
M  V30 143 H 9.5548 -2.3409 5.38958 0
M  V30 144 H 11.0788 -3.24732 5.1709 0
M  V30 145 H 12.4928 -1.02498 5.64063 0
M  V30 146 H 10.8898 -0.316424 5.99265 0
M  V30 147 H 11.9598 0.480459 4.82514 0
M  V30 148 N 13.3029 -1.57598 0.00835791 0
M  V30 149 C 14.5799 -1.82172 -0.712235 0
M  V30 150 C 14.9599 -0.887873 -1.9152 0
M  V30 151 O 14.3079 0.06146 -2.28417 0
M  V30 152 C 14.5179 -3.30875 -1.11008 0
M  V30 153 C 15.8659 -3.96826 -1.51044 0
M  V30 154 O 16.8899 -3.35248 -1.20364 0
M  V30 155 O 15.7489 -5.05318 -2.08125 0
M  V30 156 H 12.8429 -0.750435 -0.347529 0
M  V30 157 H 15.3889 -1.69665 0.0344523 0
M  V30 158 H 14.1609 -3.90481 -0.252982 0
M  V30 159 H 13.7839 -3.48412 -1.9156 0
M  V30 160 N 14.781 0.264519 -1.55364 0
M  V30 161 C 15.728 1.32717 -1.88825 0
M  V30 162 C 16.698 1.48675 -0.740605 0
M  V30 163 O 17.883 1.62945 -0.992657 0
M  V30 164 C 15.023 2.68089 -2.17307 0
M  V30 165 C 14.136 2.60284 -3.44785 0
M  V30 166 C 13.271 3.87892 -3.62924 0
M  V30 167 C 12.31 3.74631 -4.84064 0
M  V30 168 N 11.447 4.94092 -4.98816 0
M  V30 169 H 16.287 1.03481 -2.79456 0
M  V30 170 H 13.824 0.499757 -1.3835 0
M  V30 171 H 15.782 3.46864 -2.31821 0
M  V30 172 H 14.412 2.95509 -1.299 0
M  V30 173 H 13.464 1.73173 -3.38697 0
M  V30 174 H 14.776 2.46388 -4.33698 0
M  V30 175 H 13.93 4.75109 -3.77302 0
M  V30 176 H 12.669 4.04664 -2.7221 0
M  V30 177 H 11.674 2.85797 -4.69681 0
M  V30 178 H 12.899 3.5937 -5.76221 0
M  V30 179 H 10.845 5.11259 -4.11036 0
M  V30 180 H 10.762 4.8276 -5.81789 0
M  V30 181 H 12.03 5.82857 -5.17588 0
M  V30 182 N 16.2591 1.48442 0.529413 0
M  V30 183 C 17.1891 1.65902 1.64313 0
M  V30 184 C 18.1701 0.507897 1.6234 0
M  V30 185 O 19.3551 0.740503 1.79528 0
M  V30 186 C 16.4851 1.69911 3.02898 0
M  V30 187 C 15.4391 2.8453 3.19729 0
M  V30 188 C 14.7651 2.73629 4.59381 0
M  V30 189 C 16.0651 4.25821 3.02447 0
M  V30 190 H 17.7591 2.5914 1.49955 0
M  V30 191 H 15.3051 1.24709 0.719982 0
M  V30 192 H 17.2581 1.80715 3.80684 0
M  V30 193 H 15.9821 0.732524 3.18279 0
M  V30 194 H 14.6411 2.73283 2.44361 0
M  V30 195 H 14.2891 1.74938 4.71599 0
M  V30 196 H 13.9891 3.50541 4.71588 0
M  V30 197 H 15.5131 2.86401 5.39265 0
M  V30 198 H 16.9271 4.37898 3.70024 0
M  V30 199 H 15.3241 5.03735 3.26146 0
M  V30 200 H 16.3941 4.42244 1.98867 0
M  V30 201 N 17.7372 -0.778329 1.37039 0
M  V30 202 C 19.0142 -1.52551 1.22424 0
M  V30 203 C 19.3942 -2.10288 -0.184964 0
M  V30 204 O 18.7422 -1.94953 -1.19187 0
M  V30 205 C 18.9522 -2.61164 2.31504 0
M  V30 206 C 20.3002 -3.28746 2.68721 0
M  V30 207 O 21.3242 -2.71455 2.30631 0
M  V30 208 O 20.1832 -4.3231 3.3432 0
M  V30 209 H 17.2772 -0.675343 0.477326 0
M  V30 210 H 19.8232 -0.815859 1.48801 0
M  V30 211 H 18.5952 -2.16574 3.25901 0
M  V30 212 H 18.2182 -3.39737 2.06554 0
M  V30 213 N 19.2153 -1.21501 -1.00376 0
M  V30 214 C 20.4613 -1.03452 -1.74429 0
M  V30 215 C 20.7943 0.430764 -1.89362 0
M  V30 216 O 20.0693 1.31962 -1.42886 0
M  V30 217 C 20.3523 -1.73375 -3.15615 0
M  V30 218 C 20.2053 -3.27431 -3.08397 0
M  V30 219 C 21.5243 -1.47732 -4.14564 0
M  V30 220 H 18.6433 -0.377226 -0.633143 0
M  V30 221 H 21.2853 -1.49693 -1.17013 0
M  V30 222 H 19.4353 -1.34064 -3.64636 0
M  V30 223 H 21.1073 -3.76119 -2.67081 0
M  V30 224 H 19.3503 -3.5767 -2.45468 0
M  V30 225 H 20.0213 -3.71524 -4.08258 0
M  V30 226 H 22.4973 -1.8186 -3.74254 0
M  V30 227 H 21.3733 -1.99169 -5.11491 0
M  V30 228 H 21.6343 -0.407589 -4.40217 0
M  V30 229 N 20.6934 1.19889 -1.02296 0
M  V30 230 C 21.6404 2.22901 -0.598651 0
M  V30 231 C 22.6104 1.61588 0.384521 0
M  V30 232 O 23.7954 1.88697 0.282522 0
M  V30 233 C 20.9354 3.45063 0.0504476 0
M  V30 234 C 20.0484 4.20783 -0.978053 0
M  V30 235 C 19.1834 5.30356 -0.299338 0
M  V30 236 C 18.2224 5.97826 -1.31416 0
M  V30 237 N 17.3594 6.98975 -0.661667 0
M  V30 238 H 22.1994 2.58554 -1.48169 0
M  V30 239 H 19.7364 1.27039 -0.741584 0
M  V30 240 H 21.6944 4.14831 0.443971 0
M  V30 241 H 20.3244 3.10084 0.897097 0
M  V30 242 H 19.3764 3.50018 -1.48969 0
M  V30 243 H 20.6884 4.67109 -1.74958 0
M  V30 244 H 19.8424 6.06516 0.149347 0
M  V30 245 H 18.5814 4.85084 0.504445 0
M  V30 246 H 17.5864 5.20422 -1.77317 0
M  V30 247 H 18.8114 6.45183 -2.11933 0
M  V30 248 H 16.7574 6.55886 0.122132 0
M  V30 249 H 16.6744 7.43461 -1.37117 0
M  V30 250 H 17.9424 7.7914 -0.236785 0
M  V30 251 N 22.1715 0.800033 1.35784 0
M  V30 252 C 23.4195 0.376597 1.9856 0
M  V30 253 C 23.7405 -1.05812 1.63795 0
M  V30 254 O 23.0105 -1.73103 0.917171 0
M  V30 255 H 21.5905 0.136261 0.734467 0
M  V30 256 H 24.2525 1.02442 1.65806 0
M  V30 257 H 23.3485 0.477002 3.08433 0
M  V30 258 N 23.6496 -1.47581 0.552962 0
M  V30 259 C 24.5966 -2.29957 -0.197108 0
M  V30 260 C 25.5666 -1.38799 -0.912359 0
M  V30 261 O 26.7516 -1.67761 -0.908888 0
M  V30 262 C 23.8916 -3.22672 -1.22379 0
M  V30 263 C 23.0046 -4.28919 -0.515038 0
M  V30 264 C 22.1396 -5.0879 -1.52664 0
M  V30 265 C 21.1786 -6.06815 -0.802631 0
M  V30 266 N 20.3156 -6.7966 -1.76086 0
M  V30 267 H 25.1556 -2.93578 0.511486 0
M  V30 268 H 22.6926 -1.4471 0.264067 0
M  V30 269 H 24.6506 -3.74845 -1.83159 0
M  V30 270 H 23.2806 -2.60925 -1.90047 0
M  V30 271 H 22.3326 -3.79835 0.207192 0
M  V30 272 H 23.6446 -4.98773 0.0523425 0
M  V30 273 H 22.7986 -5.65091 -2.20809 0
M  V30 274 H 21.5376 -4.38828 -2.12794 0
M  V30 275 H 20.5426 -5.49695 -0.107238 0
M  V30 276 H 21.7676 -6.78784 -0.207135 0
M  V30 277 H 19.7136 -6.12432 -2.35081 0
M  V30 278 H 19.6306 -7.45669 -1.24552 0
M  V30 279 H 20.8986 -7.40538 -2.43359 0
M  V30 280 N 25.1277 -0.289203 -1.54924 0
M  V30 281 C 26.5437 0.0645403 -1.59469 0
M  V30 282 C 26.7437 1.53419 -1.30632 0
M  V30 283 O 25.7997 2.2852 -1.074 0
M  V30 284 C 27.1127 -0.32278 -2.98963 0
M  V30 285 C 28.6607 -0.270564 -3.11828 0
M  V30 286 C 29.1357 -0.632532 -4.53611 0
M  V30 287 N 30.6267 -0.584617 -4.59496 0
M  V30 288 C 31.3617 -0.837314 -5.67254 0
M  V30 289 N 30.8577 -1.15536 -6.83098 0
M  V30 290 N 32.6507 -0.765166 -5.56868 0
M  V30 291 H 24.8017 -1.24714 -1.71931 0
M  V30 292 H 27.0647 -0.504809 -0.802416 0
M  V30 293 H 26.7707 -1.34541 -3.24948 0
M  V30 294 H 26.6447 0.32944 -3.75759 0
M  V30 295 H 29.0317 0.742805 -2.85598 0
M  V30 296 H 29.1127 -0.957242 -2.37214 0
M  V30 297 H 28.7567 -1.64365 -4.80569 0
M  V30 298 H 28.6867 0.07609 -5.26545 0
M  V30 299 H 31.1777 -0.349248 -3.76283 0
M  V30 300 H 31.4907 -1.33447 -7.61191 0
M  V30 301 H 29.8357 -1.19328 -6.84679 0
M  V30 302 H 33.0267 -0.516432 -4.65243 0
M  V30 303 H 33.1997 -0.965477 -6.40767 0
M  V30 304 N 26.6058 1.57591 -0.0167156 0
M  V30 305 C 27.8518 1.91567 0.665582 0
M  V30 306 C 28.1848 0.892298 1.72487 0
M  V30 307 O 27.4598 -0.0867127 1.94307 0
M  V30 308 C 27.7428 3.36069 1.29342 0
M  V30 309 C 27.5958 4.49135 0.244541 0
M  V30 310 C 28.9148 3.803 2.21495 0
M  V30 311 H 26.0338 0.69666 0.240488 0
M  V30 312 H 28.6758 1.89866 -0.0714356 0
M  V30 313 H 26.8258 3.3765 1.92158 0
M  V30 314 H 28.4978 4.59689 -0.385228 0
M  V30 315 H 26.7408 4.3165 -0.431379 0
M  V30 316 H 27.4118 5.47242 0.723207 0
M  V30 317 H 29.8878 3.80377 1.68678 0
M  V30 318 H 28.7638 4.82127 2.62382 0
M  V30 319 H 29.0248 3.15104 3.101 0
M  V30 320 N 28.0839 -0.256276 1.55502 0
M  V30 321 C 29.3299 -0.987079 1.77157 0
M  V30 322 C 29.6629 -1.85327 0.580315 0
M  V30 323 O 28.9379 -1.89874 -0.421686 0
M  V30 324 C 29.2209 -1.85553 3.08613 0
M  V30 325 C 29.0739 -1.01816 4.38125 0
M  V30 326 C 30.3929 -2.8397 3.36228 0
M  V30 327 H 27.5119 -0.357428 0.644526 0
M  V30 328 H 30.1539 -0.258239 1.88237 0
M  V30 329 H 28.3039 -2.47695 2.99298 0
M  V30 330 H 29.9759 -0.416159 4.59419 0
M  V30 331 H 28.2189 -0.322178 4.32602 0
M  V30 332 H 28.8899 -1.65939 5.26468 0
M  V30 333 H 31.3659 -2.31964 3.45445 0
M  V30 334 H 30.2419 -3.41864 4.29442 0
M  V30 335 H 30.5029 -3.59955 2.56681 0
M  V30 336 N 29.562 -1.4872 -0.521534 0
M  V30 337 C 30.495 -1.58451 -1.64221 0
M  V30 338 C 31.473 -0.434513 -1.56687 0
M  V30 339 O 32.657 -0.647275 -1.77038 0
M  V30 340 C 29.784 -1.52037 -3.02659 0
M  V30 341 C 28.83 -2.71981 -3.28525 0
M  V30 342 S 29.663 -4.33869 -3.13876 0
M  V30 343 C 30.819 -4.30067 -4.54745 0
M  V30 344 H 31.052 -2.53256 -1.55719 0
M  V30 345 H 28.585 -1.37358 -0.705143 0
M  V30 346 H 30.543 -1.49023 -3.82495 0
M  V30 347 H 29.204 -0.585541 -3.08594 0
M  V30 348 H 28.397 -2.63656 -4.29536 0
M  V30 349 H 27.999 -2.72302 -2.56374 0
M  V30 350 H 30.291 -4.00521 -5.46433 0
M  V30 351 H 31.234 -5.31287 -4.68123 0
M  V30 352 H 31.642 -3.60419 -4.34463 0
M  V30 353 N 31.0401 0.771051 -1.3745 0
M  V30 354 C 32.4561 1.07171 -1.18265 0
M  V30 355 C 32.6561 2.01491 -0.019287 0
M  V30 356 O 31.7121 2.44244 0.640408 0
M  V30 357 C 33.0251 1.66854 -2.50161 0
M  V30 358 C 34.5731 1.79109 -2.56689 0
M  V30 359 C 35.0481 2.42205 -3.88717 0
M  V30 360 N 36.5391 2.49655 -3.90162 0
M  V30 361 C 37.2741 2.9933 -4.8907 0
M  V30 362 N 36.7701 3.49172 -5.98374 0
M  V30 363 N 38.5631 2.9821 -4.76474 0
M  V30 364 H 30.7141 0.144796 -2.11906 0
M  V30 365 H 32.9771 0.126863 -0.939473 0
M  V30 366 H 32.6831 1.05017 -3.35655 0
M  V30 367 H 32.5571 2.6614 -2.673 0
M  V30 368 H 34.9441 2.40077 -1.71601 0
M  V30 369 H 35.0251 0.785757 -2.43433 0
M  V30 370 H 34.6691 1.81875 -4.74219 0
M  V30 371 H 34.5991 3.43345 -3.99276 0
M  V30 372 H 37.0901 2.14383 -3.11205 0
M  V30 373 H 37.4031 3.8548 -6.69795 0
M  V30 374 H 35.7481 3.47275 -6.02018 0
M  V30 375 H 38.9391 2.58572 -3.90203 0
M  V30 376 H 39.1121 3.36613 -5.53711 0
M  V30 377 N 32.5182 1.22032 0.997298 0
M  V30 378 C 33.7642 1.04376 1.73878 0
M  V30 379 C 34.0972 -0.420716 1.89588 0
M  V30 380 O 33.3722 -1.31202 1.43583 0
M  V30 381 C 33.6552 1.75047 3.14691 0
M  V30 382 C 33.5082 3.29062 3.06656 0
M  V30 383 C 34.8272 1.49928 4.13775 0
M  V30 384 H 31.9462 0.380578 0.631133 0
M  V30 385 H 34.5882 1.50312 1.16217 0
M  V30 386 H 32.7382 1.35996 3.63919 0
M  V30 387 H 34.4102 3.7753 2.65083 0
M  V30 388 H 32.6532 3.58967 2.43568 0
M  V30 389 H 33.3242 3.73683 4.06282 0
M  V30 390 H 35.8002 1.83842 3.73285 0
M  V30 391 H 34.6762 2.01878 5.10428 0
M  V30 392 H 34.9372 0.430929 4.39995 0
M  V30 393 N 33.9963 -1.19345 1.0293 0
M  V30 394 C 35.2733 -1.84811 0.640642 0
M  V30 395 C 35.6533 -1.91855 -0.88062 0
M  V30 396 O 35.0013 -1.43587 -1.7775 0
M  V30 397 C 35.2113 -3.23755 1.30321 0
M  V30 398 C 36.5593 -3.99912 1.42673 0
M  V30 399 O 37.5833 -3.33155 1.26041 0
M  V30 400 O 36.4423 -5.19494 1.6967 0
M  V30 401 H 33.5363 -0.796443 0.222726 0
M  V30 402 H 36.0823 -1.26831 1.12748 0
M  V30 403 H 34.8543 -3.13466 2.34211 0
M  V30 404 H 34.4773 -3.89381 0.804261 0
M  V30 405 N 35.4744 -0.807222 -1.35358 0
M  V30 406 C 36.7214 -0.387888 -1.9875 0
M  V30 407 C 37.0494 1.04509 -1.64037 0
M  V30 408 O 36.3044 1.73986 -0.895946 0
M  V30 409 C 36.6034 -0.519036 -3.53611 0
M  V30 410 C 36.2694 -1.91542 -4.08194 0
M  V30 411 C 34.9314 -2.29745 -4.22813 0
M  V30 412 C 37.2834 -2.82896 -4.37744 0
M  V30 413 C 34.6114 -3.58668 -4.643 0
M  V30 414 C 36.9634 -4.11265 -4.8067 0
M  V30 415 C 35.6274 -4.49466 -4.93494 0
M  V30 416 H 34.8974 -0.141938 -0.727279 0
M  V30 417 H 37.5444 -1.02814 -1.6156 0
M  V30 418 H 35.8494 0.204658 -3.91265 0
M  V30 419 H 37.5464 -0.175345 -4.00616 0
M  V30 420 H 34.1364 -1.60862 -3.97268 0
M  V30 421 H 38.3204 -2.54629 -4.26002 0
M  V30 422 H 33.5764 -3.88113 -4.72418 0
M  V30 423 H 37.7504 -4.82153 -5.02496 0
M  V30 424 H 35.3774 -5.49418 -5.25399 0
M  V30 425 N 36.9525 1.47285 -0.560781 0
M  V30 426 C 37.9005 2.31756 0.197942 0
M  V30 427 C 38.8945 1.43146 0.905854 0
M  V30 428 O 40.1005 1.59891 0.826733 0
M  V30 429 H 36.4755 0.747438 0.0827049 0
M  V30 430 H 38.4465 2.9359 -0.533629 0
M  V30 431 C 37.1955 3.25874 1.21249 0
M  V30 432 H 36.5185 3.94023 0.67719 0
M  V30 433 H 37.9585 3.87803 1.71419 0
M  V30 434 C 36.4175 2.49651 2.26221 0
M  V30 435 O 36.9475 2.24355 3.33208 0
M  V30 436 N 35.1535 2.10597 2.00243 0
M  V30 437 H 34.7005 2.31369 1.13252 0
M  V30 438 H 34.6585 1.59913 2.70694 0
M  V30 439 N 38.4306 0.297415 1.54768 0
M  V30 440 C 39.6766 -0.313376 2.00364 0
M  V30 441 C 40.0096 -1.53815 1.18553 0
M  V30 442 O 39.2846 -1.92739 0.261103 0
M  V30 443 C 39.5676 -0.673525 3.53745 0
M  V30 444 C 39.4206 0.560133 4.46299 0
M  V30 445 C 40.7396 -1.50143 4.13697 0
M  V30 446 H 37.8586 -0.112428 0.728374 0
M  V30 447 H 40.5006 0.4088 1.8555 0
M  V30 448 H 38.6506 -1.28881 3.665 0
M  V30 449 H 40.3226 1.19863 4.45455 0
M  V30 450 H 38.5656 1.19405 4.17043 0
M  V30 451 H 39.2366 0.26405 5.51368 0
M  V30 452 H 41.7126 -0.981588 4.04356 0
M  V30 453 H 40.5886 -1.72221 5.21182 0
M  V30 454 H 40.8496 -2.48952 3.65343 0
M  V30 455 N 39.9087 -1.5758 0.0250728 0
M  V30 456 C 41.3197 -1.79476 -0.514323 0
M  V30 457 C 41.6707 -0.934956 -1.72491 0
M  V30 458 O 40.7957 -0.144245 -2.15919 0
M  V30 459 C 41.3907 -3.25503 -0.939842 0
M  V30 460 C 39.9497 -3.48408 -1.42438 0
M  V30 461 C 39.0967 -2.74583 -0.387201 0
M  V30 462 H 42.0477 -1.567 0.25113 0
M  V30 463 H 42.0687 -3.34992 -1.80445 0
M  V30 464 H 41.5807 -3.88056 -0.0585628 0
M  V30 465 H 39.6817 -2.91103 -2.32572 0
M  V30 466 H 39.7947 -4.57119 -1.43455 0
M  V30 467 H 38.1587 -2.39942 -0.854409 0
M  V30 468 H 38.9417 -3.39849 0.485543 0
M  V30 469 N 41.3868 0.248026 -1.55636 0
M  V30 470 C 42.3198 1.3334 -1.85191 0
M  V30 471 C 43.2978 1.46429 -0.706906 0
M  V30 472 O 44.4818 1.62662 -0.952544 0
M  V30 473 C 41.6088 2.70703 -2.03562 0
M  V30 474 C 40.6548 2.7477 -3.26196 0
M  V30 475 S 41.4878 2.31493 -4.82878 0
M  V30 476 C 42.6438 3.70783 -5.04253 0
M  V30 477 H 42.8768 1.08072 -2.76962 0
M  V30 478 H 40.4098 0.448952 -1.47729 0
M  V30 479 H 42.3678 3.49798 -2.1483 0
M  V30 480 H 41.0288 2.9321 -1.12635 0
M  V30 481 H 40.2218 3.75648 -3.36013 0
M  V30 482 H 39.8238 2.03719 -3.13647 0
M  V30 483 H 42.1158 4.6627 -4.91527 0
M  V30 484 H 43.0588 3.65901 -6.06236 0
M  V30 485 H 43.4668 3.63244 -4.32105 0
M  V30 486 N 42.8649 1.48995 0.513639 0
M  V30 487 C 43.8119 1.6473 1.61656 0
M  V30 488 C 44.7819 0.488984 1.58739 0
M  V30 489 O 45.9669 0.714478 1.76918 0
M  V30 490 C 43.1069 1.7082 2.99858 0
M  V30 491 C 42.2199 2.9787 3.12885 0
M  V30 492 C 41.3549 2.95017 4.41744 0
M  V30 493 C 40.3939 4.16702 4.48359 0
M  V30 494 N 39.5309 4.11832 5.68629 0
M  V30 495 H 44.3709 2.58909 1.47547 0
M  V30 496 H 41.9079 1.28382 0.71808 0
M  V30 497 H 43.8659 1.72331 3.79944 0
M  V30 498 H 42.4959 0.801181 3.12699 0
M  V30 499 H 41.5479 3.06029 2.25944 0
M  V30 500 H 42.8599 3.8786 3.13633 0
M  V30 501 H 42.0139 2.95021 5.30139 0
M  V30 502 H 40.7529 2.02784 4.43542 0
M  V30 503 H 39.7579 4.16955 3.58369 0
M  V30 504 H 40.9829 5.10113 4.48287 0
M  V30 505 H 38.9289 3.22428 5.71293 0
M  V30 506 H 38.8459 4.95543 5.7094 0
M  V30 507 H 40.1139 4.1592 6.59266 0
M  V30 508 N 44.343 -0.763751 1.37857 0
M  V30 509 C 45.291 -1.89864 1.34367 0
M  V30 510 C 46.285 -1.67816 0.231143 0
M  V30 511 O 47.491 -1.75508 0.399617 0
M  V30 512 H 43.866 -0.624501 0.41893 0
M  V30 513 H 45.837 -1.89925 2.30155 0
M  V30 514 C 44.586 -3.27227 1.1755 0
M  V30 515 H 43.909 -3.44773 2.02414 0
M  V30 516 H 45.349 -4.06911 1.1916 0
M  V30 517 C 43.808 -3.36692 -0.118311 0
M  V30 518 O 44.338 -3.86374 -1.09902 0
M  V30 519 N 42.544 -2.90092 -0.171717 0
M  V30 520 H 42.091 -2.49853 0.627012 0
M  V30 521 H 42.049 -2.96806 -1.03699 0
M  V30 522 N 45.8211 -1.22559 -0.990812 0
M  V30 523 C 46.7691 -0.994798 -2.10253 0
M  V30 524 C 47.7631 0.0627798 -1.69284 0
M  V30 525 O 48.9691 -0.0898392 -1.79776 0
M  V30 526 H 45.3441 -0.304527 -0.687581 0
M  V30 527 H 47.3151 -1.93812 -2.26891 0
M  V30 528 C 46.0641 -0.591439 -3.42633 0
M  V30 529 H 45.3871 -1.3969 -3.74602 0
M  V30 530 H 46.8271 -0.469385 -4.21394 0
M  V30 531 C 45.2861 0.699232 -3.29564 0
M  V30 532 O 45.8161 1.75112 -3.61523 0
M  V30 533 N 44.0221 0.671182 -2.82743 0
M  V30 534 H 43.5691 -0.185136 -2.56934 0
M  V30 535 H 43.5271 1.53502 -2.7438 0
M  V30 536 N 47.2992 1.18797 -1.03562 0
M  V30 537 C 48.2312 2.21731 -0.580337 0
M  V30 538 C 49.2442 1.59051 0.347349 0
M  V30 539 O 50.4332 1.77929 0.142669 0
M  V30 540 C 47.5332 3.38459 0.172805 0
M  V30 541 C 46.7062 4.3072 -0.761496 0
M  V30 542 C 45.7652 5.26174 -0.0525547 0
M  V30 543 O 44.7912 5.65108 -0.681333 0
M  V30 544 N 45.9932 5.67624 1.21586 0
M  V30 545 H 48.7582 2.61417 -1.46565 0
M  V30 546 H 46.3192 1.33531 -0.915476 0
M  V30 547 H 48.3112 3.99335 0.656793 0
M  V30 548 H 46.8812 2.97507 0.959602 0
M  V30 549 H 46.1012 3.67525 -1.42544 0
M  V30 550 H 47.3892 4.89267 -1.39626 0
M  V30 551 H 46.7872 5.38038 1.74732 0
M  V30 552 H 45.3442 6.30721 1.64421 0
M  V30 553 N 48.7773 0.814389 1.34928 0
M  V30 554 C 50.0263 0.394871 1.97797 0
M  V30 555 C 50.3393 -1.04555 1.65311 0
M  V30 556 O 51.5453 -1.56856 2.21604 0
M  V30 557 C 50.0013 0.655103 3.53888 0
M  V30 558 C 49.6093 2.10858 3.95276 0
M  V30 559 C 51.3533 0.301329 4.23429 0
M  V30 560 C 49.2603 2.31415 5.44244 0
M  V30 561 H 48.1903 0.143913 0.740139 0
M  V30 562 H 50.8413 0.999544 1.53888 0
M  V30 563 H 49.2233 -0.0196253 3.95995 0
M  V30 564 H 50.3973 2.82176 3.64298 0
M  V30 565 H 48.7123 2.42297 3.38646 0
M  V30 566 H 51.3093 0.432869 5.32945 0
M  V30 567 H 51.6523 -0.75331 4.09428 0
M  V30 568 H 52.1853 0.930288 3.86769 0
M  V30 569 H 48.9243 3.35353 5.63222 0
M  V30 570 H 48.4443 1.6463 5.76764 0
M  V30 571 H 50.1233 2.13352 6.10811 0
M  V30 572 N 50.2554 -1.46986 0.568584 0
M  V30 573 C 51.4834 -2.0683 0.0539956 0
M  V30 574 C 51.8984 -1.41953 -1.24478 0
M  V30 575 O 51.2554 -0.519933 -1.74937 0
M  V30 576 C 51.3064 -3.61254 -0.133362 0
M  V30 577 O 51.0274 -4.237 1.11399 0
M  V30 578 C 52.5284 -4.37992 -0.683927 0
M  V30 579 H 49.7484 -0.669058 0.0510141 0
M  V30 580 H 52.2924 -1.88824 0.785234 0
M  V30 581 H 50.4474 -3.78735 -0.81477 0
M  V30 582 H 50.8614 -5.16388 0.91888 0
M  V30 583 H 52.3354 -5.46684 -0.764263 0
M  V30 584 H 52.8124 -4.05058 -1.69778 0
M  V30 585 H 53.4184 -4.25283 -0.0378494 0
M  V30 586 N 51.7335 -0.305618 -1.54608 0
M  V30 587 C 52.6815 0.584119 -2.25146 0
M  V30 588 C 53.6755 1.13326 -1.25911 0
M  V30 589 O 54.8815 1.08337 -1.43747 0
M  V30 590 H 51.2565 0.206983 -0.722954 0
M  V30 591 H 53.2275 -0.033291 -2.98381 0
M  V30 592 C 51.9765 1.74225 -3.009 0
M  V30 593 H 51.2995 1.32892 -3.77067 0
M  V30 594 H 52.7395 2.34077 -3.53531 0
M  V30 595 C 51.1985 2.64914 -2.0814 0
M  V30 596 O 51.7285 3.66137 -1.65246 0
M  V30 597 N 49.9345 2.3275 -1.74 0
M  V30 598 H 49.4815 1.50479 -2.09078 0
M  V30 599 H 49.4395 2.93694 -1.12211 0
M  V30 600 N 53.2116 1.57565 -0.0334293 0
M  V30 601 C 54.1596 2.1164 0.96496 0
M  V30 602 C 55.1536 1.04398 1.33407 0
M  V30 603 O 56.3596 1.22828 1.3158 0
M  V30 604 H 52.7346 0.676222 0.32898 0
M  V30 605 H 54.7056 2.94455 0.483614 0
M  V30 606 C 53.4546 2.66207 2.23672 0
M  V30 607 H 52.7776 3.48378 1.96145 0
M  V30 608 H 54.2176 3.07685 2.9173 0
M  V30 609 C 52.6766 1.59151 2.96939 0
M  V30 610 O 53.2066 0.993858 3.89211 0
M  V30 611 N 51.4126 1.31093 2.59351 0
M  V30 612 H 50.9596 1.7988 1.84393 0
M  V30 613 H 50.9176 0.596889 3.08682 0
M  V30 614 N 54.6897 -0.239769 1.55765 0
M  V30 615 C 55.6217 -1.32001 1.87372 0
M  V30 616 C 56.6347 -1.43944 0.760522 0
M  V30 617 O 57.8237 -1.45167 1.0387 0
M  V30 618 C 54.9237 -2.69779 2.05115 0
M  V30 619 C 54.0967 -2.80014 3.36022 0
M  V30 620 C 53.1557 -3.98684 3.4342 0
M  V30 621 O 52.1817 -3.87877 4.16582 0
M  V30 622 N 53.3837 -5.12176 2.73232 0
M  V30 623 H 56.1487 -1.0522 2.80622 0
M  V30 624 H 53.7097 -0.429857 1.56089 0
M  V30 625 H 55.7017 -3.47517 2.07399 0
M  V30 626 H 54.2717 -2.89237 1.18577 0
M  V30 627 H 53.4917 -1.88896 3.45994 0
M  V30 628 H 54.7797 -2.83808 4.22292 0
M  V30 629 H 54.1777 -5.2385 2.13536 0
M  V30 630 H 52.7347 -5.88022 2.81199 0
M  V30 631 N 56.1678 -1.49265 -0.50573 0
M  V30 632 C 57.5838 -1.35923 -0.836486 0
M  V30 633 C 57.7838 -0.388704 -1.97715 0
M  V30 634 O 56.8398 0.181336 -2.51848 0
M  V30 635 C 58.1528 -2.76531 -1.18115 0
M  V30 636 C 59.7008 -2.85197 -1.28964 0
M  V30 637 C 60.1758 -4.26561 -1.66761 0
M  V30 638 N 61.6668 -4.2935 -1.73819 0
M  V30 639 C 62.4018 -5.35693 -2.045 0
M  V30 640 N 61.8978 -6.52287 -2.33438 0
M  V30 641 N 63.6908 -5.23105 -2.05711 0
M  V30 642 H 55.8418 -2.10965 0.246519 0
M  V30 643 H 58.1048 -0.9468 0.0476887 0
M  V30 644 H 57.8108 -3.49226 -0.416398 0
M  V30 645 H 57.6848 -3.11599 -2.1257 0
M  V30 646 H 60.0718 -2.12742 -2.04511 0
M  V30 647 H 60.1528 -2.53718 -0.325704 0
M  V30 648 H 59.7968 -4.99541 -0.917656 0
M  V30 649 H 59.7268 -4.55502 -2.64246 0
M  V30 650 H 62.2178 -3.4526 -1.53635 0
M  V30 651 H 62.5308 -7.29158 -2.56024 0
M  V30 652 H 60.8758 -6.55521 -2.30905 0
M  V30 653 H 64.0668 -4.31026 -1.82577 0
M  V30 654 H 64.2398 -6.06078 -2.29289 0
M  V30 655 N 57.6459 0.756429 -1.3826 0
M  V30 656 C 58.8949 1.51082 -1.3363 0
M  V30 657 C 59.2079 1.95467 0.0720068 0
M  V30 658 O 60.4139 2.7043 0.240834 0
M  V30 659 C 58.8699 2.72893 -2.34644 0
M  V30 660 C 58.4779 2.35544 -3.81081 0
M  V30 661 C 60.2219 3.50791 -2.39052 0
M  V30 662 C 58.1289 3.53948 -4.73787 0
M  V30 663 H 57.0589 0.56727 -0.49671 0
M  V30 664 H 59.7099 0.827147 -1.638 0
M  V30 665 H 58.0919 3.43227 -1.97513 0
M  V30 666 H 59.2659 1.72894 -4.27135 0
M  V30 667 H 57.5809 1.70786 -3.79764 0
M  V30 668 H 60.1779 4.38823 -3.05513 0
M  V30 669 H 60.5209 3.91745 -1.40861 0
M  V30 670 H 61.0539 2.87467 -2.74968 0
M  V30 671 H 57.7929 3.18064 -5.73163 0
M  V30 672 H 57.3129 4.15651 -4.32428 0
M  V30 673 H 58.9919 4.20566 -4.91663 0
M  V30 674 N 59.124 1.23083 0.984299 0
M  V30 675 C 60.071 1.00854 2.07598 0
M  V30 676 C 61.041 -0.0726709 1.65941 0
M  V30 677 O 62.226 0.0786535 1.90638 0
M  V30 678 C 59.366 0.601645 3.39815 0
M  V30 679 C 58.479 1.75456 3.94765 0
M  V30 680 C 57.614 1.29482 5.15177 0
M  V30 681 C 56.653 2.41873 5.62284 0
M  V30 682 N 55.79 1.96885 6.73929 0
M  V30 683 H 60.63 1.943 2.25946 0
M  V30 684 H 58.167 0.968001 1.10762 0
M  V30 685 H 60.125 0.346854 4.15756 0
M  V30 686 H 58.755 -0.295803 3.21442 0
M  V30 687 H 57.807 2.12346 3.15616 0
M  V30 688 H 59.119 2.59965 4.25699 0
M  V30 689 H 58.273 0.997923 5.98437 0
M  V30 690 H 57.012 0.420046 4.85888 0
M  V30 691 H 56.017 2.72342 4.77608 0
M  V30 692 H 57.242 3.29881 5.93595 0
M  V30 693 H 55.188 1.11782 6.46406 0
M  V30 694 H 55.105 2.74956 7.04227 0
M  V30 695 H 56.373 1.70289 7.60672 0
M  V30 696 N 60.6021 -1.18246 1.0419 0
M  V30 697 C 61.5651 -2.20128 0.638452 0
M  V30 698 C 62.5651 -1.57885 -0.304805 0
M  V30 699 O 63.7551 -1.73967 -0.0900369 0
M  V30 700 C 60.8871 -3.4084 -0.0637751 0
M  V30 701 H 62.0801 -2.57336 1.54007 0
M  V30 702 H 59.6331 -1.32152 0.834598 0
M  V30 703 H 60.3681 -3.09166 -0.979136 0
M  V30 704 H 60.1531 -3.8726 0.614198 0
M  V30 705 H 61.6431 -4.16274 -0.332512 0
M  V30 706 N 62.0802 -0.821533 -1.34494 0
M  V30 707 C 63.0432 -0.247847 -2.27856 0
M  V30 708 C 64.0432 0.573453 -1.50227 0
M  V30 709 O 65.2332 0.389759 -1.69784 0
M  V30 710 C 62.3652 0.652698 -3.34593 0
M  V30 711 H 63.5582 -1.07146 -2.80107 0
M  V30 712 H 61.1112 -0.593291 -1.44602 0
M  V30 713 H 61.8462 1.49943 -2.87555 0
M  V30 714 H 61.6312 0.065292 -3.92046 0
M  V30 715 H 63.1212 1.04793 -4.04238 0
M  V30 716 N 63.5583 1.46682 -0.576371 0
M  V30 717 C 64.8043 2.02712 -0.0596221 0
M  V30 718 C 65.1373 1.44765 1.29448 0
M  V30 719 O 64.4123 0.610355 1.84675 0
M  V30 720 C 64.6953 3.60098 0.0129503 0
M  V30 721 C 64.5483 4.28441 -1.3696 0
M  V30 722 C 65.8673 4.34224 0.71678 0
M  V30 723 H 62.9863 0.736637 -0.0231407 0
M  V30 724 H 65.6283 1.74898 -0.742351 0
M  V30 725 H 63.7783 3.83926 0.594378 0
M  V30 726 H 65.4503 4.15896 -1.9957 0
M  V30 727 H 63.6933 3.8805 -1.93907 0
M  V30 728 H 64.3643 5.3716 -1.27135 0
M  V30 729 H 66.8403 4.15503 0.222908 0
M  V30 730 H 65.7163 5.43936 0.73657 0
M  V30 731 H 65.9773 4.04823 1.77682 0
M  V30 732 N 65.0364 0.313813 1.54444 0
M  V30 733 C 66.4474 -0.176243 1.85866 0
M  V30 734 C 66.7984 -1.52405 1.23561 0
M  V30 735 O 65.9234 -2.09605 0.538016 0
M  V30 736 C 66.5184 -0.32657 3.37222 0
M  V30 737 C 65.0774 -0.760846 3.6863 0
M  V30 738 C 64.2244 0.123247 2.77026 0
M  V30 739 H 67.1754 0.534418 1.49431 0
M  V30 740 H 67.1964 -1.15908 3.62416 0
M  V30 741 H 66.7084 0.654531 3.82541 0
M  V30 742 H 64.8094 -1.75204 3.28838 0
M  V30 743 H 64.9224 -0.571353 4.75681 0
M  V30 744 H 63.2864 -0.399597 2.51546 0
M  V30 745 H 64.0694 1.10094 3.25168 0
M  V30 746 N 66.5145 -1.57545 0.0417849 0
M  V30 747 C 67.7395 -1.97035 -0.647455 0
M  V30 748 C 68.1645 -0.918775 -1.64135 0
M  V30 749 O 67.5225 0.119006 -1.80909 0
M  V30 750 C 67.5705 -3.35609 -1.31905 0
M  V30 751 O 66.6745 -3.3287 -2.43457 0
M  V30 752 H 66.0155 -0.64211 -0.169086 0
M  V30 753 H 68.5455 -2.04318 0.107399 0
M  V30 754 H 68.5555 -3.72126 -1.67291 0
M  V30 755 H 67.2305 -4.11685 -0.590586 0
M  V30 756 H 65.8075 -3.08087 -2.10088 0
M  V30 757 N 67.9926 0.231505 -1.5589 0
M  V30 758 C 69.2416 0.955346 -1.7764 0
M  V30 759 C 69.5546 1.85893 -0.608546 0
M  V30 760 O 70.7606 2.62067 -0.70943 0
M  V30 761 C 69.2166 1.74886 -3.14552 0
M  V30 762 C 68.8246 0.891915 -4.39032 0
M  V30 763 C 70.5686 2.46452 -3.45633 0
M  V30 764 C 68.4756 1.68221 -5.66971 0
M  V30 765 H 67.4056 0.360446 -0.662265 0
M  V30 766 H 70.0566 0.209516 -1.823 0
M  V30 767 H 68.4386 2.53723 -3.04041 0
M  V30 768 H 69.6126 0.144793 -4.60572 0
M  V30 769 H 67.9276 0.288863 -4.15397 0
M  V30 770 H 70.5246 3.06061 -4.38441 0
M  V30 771 H 70.8676 3.18841 -2.67668 0
M  V30 772 H 71.4006 1.74613 -3.57428 0
M  V30 773 H 68.1396 1.00178 -6.478 0
M  V30 774 H 67.6596 2.4042 -5.49507 0
M  V30 775 H 69.3386 2.24544 -6.06786 0
M  V30 776 N 69.4707 1.49531 0.497807 0
M  V30 777 C 70.4177 1.66436 1.59899 0
M  V30 778 C 71.3877 0.505793 1.58212 0
M  V30 779 O 72.5727 0.733202 1.7615 0
M  V30 780 C 69.7127 1.7399 2.98029 0
M  V30 781 C 68.8257 3.01172 3.09708 0
M  V30 782 C 67.9607 2.99686 4.38591 0
M  V30 783 C 66.9997 4.21434 4.43914 0
M  V30 784 N 66.1367 4.1784 5.64229 0
M  V30 785 H 70.9767 2.60459 1.44793 0
M  V30 786 H 68.5137 1.29137 0.704423 0
M  V30 787 H 70.4717 1.76352 3.78095 0
M  V30 788 H 69.1017 0.834301 3.11832 0
M  V30 789 H 68.1537 3.08408 2.22685 0
M  V30 790 H 69.4657 3.91165 3.09502 0
M  V30 791 H 68.6197 3.00628 5.2698 0
M  V30 792 H 67.3587 2.07477 4.41367 0
M  V30 793 H 66.3637 4.20733 3.53926 0
M  V30 794 H 67.5887 5.14839 4.42851 0
M  V30 795 H 65.5347 3.28469 5.67841 0
M  V30 796 H 65.4517 5.01571 5.65652 0
M  V30 797 H 66.7197 4.22889 6.54817 0
M  V30 798 N 70.9488 -0.749086 1.3866 0
M  V30 799 C 72.1958 -1.50833 1.35114 0
M  V30 800 C 72.5238 -1.94415 -0.0574049 0
M  V30 801 O 71.7788 -1.66065 -1.03541 0
M  V30 802 C 72.0778 -2.7712 2.25697 0
M  V30 803 C 71.7438 -2.52477 3.73585 0
M  V30 804 C 70.4058 -2.45466 4.13884 0
M  V30 805 C 72.7578 -2.31066 4.67181 0
M  V30 806 C 70.0858 -2.15064 5.45861 0
M  V30 807 C 72.4378 -2.02183 5.9942 0
M  V30 808 C 71.1018 -1.93631 6.38798 0
M  V30 809 H 70.3718 -0.551936 0.494416 0
M  V30 810 H 73.0188 -0.860979 1.71054 0
M  V30 811 H 71.3238 -3.46528 1.82827 0
M  V30 812 H 73.0208 -3.35096 2.20254 0
M  V30 813 H 69.6108 -2.58807 3.41638 0
M  V30 814 H 73.7948 -2.35459 4.3689 0
M  V30 815 H 69.0508 -2.06954 5.75308 0
M  V30 816 H 73.2248 -1.8462 6.71482 0
M  V30 817 H 70.8518 -1.69839 7.40985 0
M  V30 818 N 72.4269 -1.23603 -0.977757 0
M  V30 819 C 73.6669 -1.08148 -1.73446 0
M  V30 820 C 74.0309 0.374785 -1.88307 0
M  V30 821 O 75.2319 0.650588 -2.60808 0
M  V30 822 C 73.5029 -1.78991 -3.0935 0
M  V30 823 S 75.0619 -1.79141 -4.00567 0
M  V30 824 H 71.8799 -0.386987 -0.596458 0
M  V30 825 H 74.4819 -1.5678 -1.16792 0
M  V30 826 H 73.1859 -2.8408 -2.96187 0
M  V30 827 H 72.7169 -1.30651 -3.71071 0
M  V30 828 H 74.7319 -0.851892 -4.88833 0
M  V30 829 N 73.905 1.17692 -1.04816 0
M  V30 830 C 74.835 2.23777 -0.666791 0
M  V30 831 C 75.816 1.66796 0.33361 0
M  V30 832 O 77.001 1.93039 0.212042 0
M  V30 833 C 74.131 3.47281 -0.0367933 0
M  V30 834 C 73.085 4.17059 -0.961546 0
M  V30 835 C 72.411 5.34342 -0.195626 0
M  V30 836 C 73.711 4.69713 -2.28402 0
M  V30 837 H 75.405 2.55933 -1.55367 0
M  V30 838 H 72.951 1.23019 -0.748484 0
M  V30 839 H 74.904 4.20706 0.241775 0
M  V30 840 H 73.628 3.14381 0.885004 0
M  V30 841 H 72.287 3.45541 -1.22462 0
M  V30 842 H 71.935 4.97692 0.728816 0
M  V30 843 H 71.635 5.81966 -0.811775 0
M  V30 844 H 73.159 6.10553 0.0757473 0
M  V30 845 H 74.573 5.34794 -2.06563 0
M  V30 846 H 72.97 5.279 -2.8538 0
M  V30 847 H 74.04 3.86726 -2.92525 0
M  V30 848 N 75.3831 0.828654 1.34056 0
M  V30 849 C 76.6601 0.341809 1.9259 0
M  V30 850 C 77.0401 -1.17158 1.75605 0
M  V30 851 O 76.3881 -1.98132 1.13824 0
M  V30 852 C 76.5981 0.777453 3.4023 0
M  V30 853 C 77.9461 0.779579 4.17382 0
M  V30 854 O 78.9701 0.7204 3.48839 0
M  V30 855 O 77.8291 0.857996 5.39723 0
M  V30 856 H 74.9231 0.0946085 0.821571 0
M  V30 857 H 77.4691 0.913827 1.42994 0
M  V30 858 H 76.2411 1.8196 3.46419 0
M  V30 859 H 75.8641 0.181444 3.97186 0
M  V30 860 N 76.8612 -1.46375 0.584142 0
M  V30 861 C 77.8092 -2.32042 -0.161047 0
M  V30 862 C 78.8032 -1.44569 -0.882966 0
M  V30 863 O 80.0092 -1.61186 -0.801191 0
M  V30 864 H 76.3842 -0.748659 -0.0708033 0
M  V30 865 H 78.3552 -2.92704 0.580269 0
M  V30 866 C 77.1042 -3.27762 -1.1605 0
M  V30 867 H 76.4272 -3.95051 -0.614419 0
M  V30 868 H 77.8672 -3.90481 -1.65228 0
M  V30 869 C 76.3262 -2.53218 -2.22221 0
M  V30 870 O 76.8562 -2.29628 -3.29597 0
M  V30 871 N 75.0622 -2.13756 -1.96868 0
M  V30 872 H 74.6092 -2.33142 -1.09557 0
M  V30 873 H 74.5672 -1.642 -2.68115 0
M  V30 874 N 78.3393 -0.321999 -1.54275 0
M  V30 875 C 79.5873 0.280489 -2.00144 0
M  V30 876 C 79.9083 1.52777 -1.21178 0
M  V30 877 O 79.1783 1.9338 -0.313187 0
M  V30 878 H 77.7583 0.106632 -0.73935 0
M  V30 879 H 80.4203 -0.438184 -1.8991 0
M  V30 880 H 79.5163 0.537972 -3.07428 0
M  V30 881 N 79.8174 1.5752 -0.0501392 0
M  V30 882 C 80.7804 2.1037 0.909786 0
M  V30 883 C 81.7804 1.02308 1.24056 0
M  V30 884 O 82.9704 1.28385 1.17741 0
M  V30 885 C 80.1024 2.58708 2.21998 0
M  V30 886 H 81.2954 2.96479 0.451665 0
M  V30 887 H 78.8484 1.55038 0.198248 0
M  V30 888 H 79.5834 1.75989 2.72394 0
M  V30 889 H 79.3684 3.37675 1.99295 0
M  V30 890 H 80.8584 2.99747 2.9076 0
M  V30 891 N 81.2955 -0.223234 1.56011 0
M  V30 892 C 82.2425 -1.27664 1.92277 0
M  V30 893 C 83.2125 -1.46659 0.779763 0
M  V30 894 O 84.3975 -1.60256 1.03551 0
M  V30 895 C 81.5375 -2.62234 2.24338 0
M  V30 896 C 80.6505 -2.51051 3.51564 0
M  V30 897 C 79.7855 -3.78133 3.7308 0
M  V30 898 C 78.8245 -3.61665 4.93827 0
M  V30 899 N 77.9615 -4.80693 5.11741 0
M  V30 900 H 82.8015 -0.960358 2.82101 0
M  V30 901 H 80.3385 -0.462901 1.39627 0
M  V30 902 H 82.2965 -3.40596 2.40936 0
M  V30 903 H 80.9265 -2.91961 1.3769 0
M  V30 904 H 79.9785 -1.64132 3.43169 0
M  V30 905 H 81.2905 -2.34803 4.40079 0
M  V30 906 H 80.4445 -4.64938 3.89766 0
M  V30 907 H 79.1835 -3.97304 2.82844 0
M  V30 908 H 78.1885 -2.73244 4.77093 0
M  V30 909 H 79.4135 -3.43966 5.85546 0
M  V30 910 H 77.3595 -5.00181 4.24446 0
M  V30 911 H 77.2765 -4.67165 5.94384 0
M  V30 912 H 78.5445 -5.6893 5.3286 0
M  V30 913 N 82.7736 -1.49793 -0.48987 0
M  V30 914 C 83.9986 -1.63836 -1.27172 0
M  V30 915 C 84.4236 -0.31402 -1.8546 0
M  V30 916 O 83.7816 0.719803 -1.66399 0
M  V30 917 C 83.8296 -2.71797 -2.36978 0
M  V30 918 O 82.9336 -2.31744 -3.41128 0
M  V30 919 H 82.2746 -0.547997 -0.37496 0
M  V30 920 H 84.8046 -1.96053 -0.585191 0
M  V30 921 H 84.8146 -2.94305 -2.82575 0
M  V30 922 H 83.4896 -3.67923 -1.93921 0
M  V30 923 H 82.0666 -2.1961 -3.01373 0
M  V30 924 N 84.2517 0.741722 -1.39055 0
M  V30 925 C 85.4977 1.50336 -1.36113 0
M  V30 926 C 85.8307 1.94148 0.0450796 0
M  V30 927 O 85.1057 1.66301 1.00868 0
M  V30 928 C 85.3887 2.74773 -2.32749 0
M  V30 929 C 85.2417 2.37023 -3.82283 0
M  V30 930 C 86.5607 3.76846 -2.27322 0
M  V30 931 H 83.6797 0.545351 -0.495743 0
M  V30 932 H 86.3217 0.848624 -1.69995 0
M  V30 933 H 84.4717 3.30639 -2.03986 0
M  V30 934 H 86.1437 1.8684 -4.21768 0
M  V30 935 H 84.3867 1.69334 -3.99385 0
M  V30 936 H 85.0577 3.26104 -4.45376 0
M  V30 937 H 87.5337 3.30548 -2.5274 0
M  V30 938 H 86.4097 4.6159 -2.97028 0
M  V30 939 H 86.6707 4.23286 -1.27599 0
M  V30 940 N 85.7298 1.2412 0.971189 0
M  V30 941 C 86.9758 1.08041 1.71625 0
M  V30 942 C 87.3088 -0.380407 1.90438 0
M  V30 943 O 86.5838 -1.28127 1.46334 0
M  V30 944 C 86.8668 1.81682 3.10908 0
M  V30 945 C 86.7198 3.35493 2.99608 0
M  V30 946 C 88.0388 1.58671 4.10501 0
M  V30 947 H 85.1578 0.39388 0.622919 0
M  V30 948 H 87.7998 1.52743 1.13003 0
M  V30 949 H 85.9498 1.43684 3.60953 0
M  V30 950 H 87.6218 3.83068 2.57015 0
M  V30 951 H 85.8648 3.64052 2.35899 0
M  V30 952 H 86.5358 3.82217 3.98264 0
M  V30 953 H 89.0118 1.91719 3.69301 0
M  V30 954 H 87.8878 2.1266 5.06031 0
M  V30 955 H 88.1488 0.524161 4.38982 0
M  V30 956 N 87.2079 -1.17134 1.05439 0
M  V30 957 C 88.1379 -2.2342 0.678649 0
M  V30 958 C 89.1189 -1.66971 -0.32476 0
M  V30 959 O 90.3039 -1.93149 -0.201802 0
M  V30 960 C 87.4339 -3.47256 0.0552099 0
M  V30 961 C 86.3879 -4.16543 0.98365 0
M  V30 962 C 85.7139 -5.34231 0.223961 0
M  V30 963 C 87.0139 -4.68495 2.3089 0
M  V30 964 H 88.7079 -2.55105 1.56722 0
M  V30 965 H 86.2539 -1.2262 0.754998 0
M  V30 966 H 88.2069 -4.20828 -0.21946 0
M  V30 967 H 86.9309 -3.14846 -0.868319 0
M  V30 968 H 85.5899 -3.44887 1.24293 0
M  V30 969 H 85.2379 -4.98071 -0.702412 0
M  V30 970 H 84.9379 -5.81527 0.842627 0
M  V30 971 H 86.4619 -6.10585 -0.0433671 0
M  V30 972 H 87.8759 -5.33691 2.09396 0
M  V30 973 H 86.2729 -5.26379 2.88176 0
M  V30 974 H 87.3429 -3.85169 2.94572 0
M  V30 975 N 88.686 -0.835752 -1.33615 0
M  V30 976 C 89.619 -0.211815 -2.27215 0
M  V30 977 C 90.597 0.639249 -1.49507 0
M  V30 978 O 91.781 0.600193 -1.78689 0
M  V30 979 C 88.908 0.702893 -3.31326 0
M  V30 980 C 87.954 -0.0723049 -4.26439 0
M  V30 981 S 88.787 -1.42811 -5.16106 0
M  V30 982 C 89.943 -0.518613 -6.23748 0
M  V30 983 H 90.176 -1.00533 -2.79786 0
M  V30 984 H 87.709 -0.632336 -1.40858 0
M  V30 985 H 89.667 1.22505 -3.91794 0
M  V30 986 H 88.328 1.47004 -2.77576 0
M  V30 987 H 87.521 0.62359 -5.00127 0
M  V30 988 H 87.123 -0.525424 -3.70291 0
M  V30 989 H 89.415 0.284778 -6.76901 0
M  V30 990 H 90.358 -1.22556 -6.97413 0
M  V30 991 H 90.766 -0.101344 -5.64409 0
M  V30 992 N 90.1641 1.46063 -0.591896 0
M  V30 993 C 91.3891 2.07226 -0.0850314 0
M  V30 994 C 91.8141 1.43625 1.21463 0
M  V30 995 O 91.1721 0.523305 1.73583 0
M  V30 996 C 91.2201 3.60554 0.0576567 0
M  V30 997 O 90.3241 3.97128 1.11188 0
M  V30 998 H 89.6651 0.660615 -0.0669568 0
M  V30 999 H 92.1951 1.8756 -0.81745 0
M  V30 1000 H 92.2051 4.07165 0.2609 0
M  V30 1001 H 90.8801 4.06235 -0.891416 0
M  V30 1002 H 89.4571 3.62213 0.886356 0
M  V30 1003 N 91.6422 0.330177 1.54103 0
M  V30 1004 C 92.5922 -0.548456 2.21305 0
M  V30 1005 C 93.5762 -1.07651 1.19583 0
M  V30 1006 O 94.7682 -1.01243 1.45186 0
M  V30 1007 C 91.8972 -1.70559 2.97934 0
M  V30 1008 C 90.9832 -1.19212 4.07 0
M  V30 1009 N 91.3742 -0.398831 5.04225 0
M  V30 1010 C 89.6722 -1.47024 4.2107 0
M  V30 1011 C 90.3732 -0.121761 5.81573 0
M  V30 1012 N 89.3492 -0.709722 5.38947 0
M  V30 1013 H 93.1512 0.0648483 2.93828 0
M  V30 1014 H 90.6652 0.136363 1.61826 0
M  V30 1015 H 92.6622 -2.34688 3.44568 0
M  V30 1016 H 91.3222 -2.32231 2.26934 0
M  V30 1017 H 92.3332 -0.0410869 5.17884 0
M  V30 1018 H 89.0102 -2.09232 3.61287 0
M  V30 1019 H 90.4002 0.517298 6.69906 0
M  V30 1020 N 93.1203 -1.57491 0.0584922 0
M  V30 1021 C 94.0503 -2.14988 -0.911178 0
M  V30 1022 C 95.0313 -1.07343 -1.31952 0
M  V30 1023 O 96.2163 -1.35318 -1.39294 0
M  V30 1024 C 93.3463 -2.70078 -2.18347 0
M  V30 1025 C 92.3003 -3.82771 -1.91495 0
M  V30 1026 C 91.6263 -4.24408 -3.25241 0
M  V30 1027 C 92.9263 -5.07592 -1.23075 0
M  V30 1028 H 94.6203 -2.96263 -0.432246 0
M  V30 1029 H 92.1663 -1.42512 -0.206469 0
M  V30 1030 H 94.1193 -3.08943 -2.86587 0
M  V30 1031 H 92.8433 -1.86005 -2.68458 0
M  V30 1032 H 91.5023 -3.44389 -1.25664 0
M  V30 1033 H 91.1503 -3.37275 -3.73168 0
M  V30 1034 H 90.8503 -5.00366 -3.08071 0
M  V30 1035 H 92.3743 -4.65879 -3.94701 0
M  V30 1036 H 93.7883 -5.43857 -1.81362 0
M  V30 1037 H 92.1853 -5.88741 -1.16207 0
M  V30 1038 H 93.2553 -4.84454 -0.207847 0
M  V30 1039 N 94.5984 0.214957 -1.56127 0
M  V30 1040 C 95.8464 0.936518 -1.79091 0
M  V30 1041 C 96.1674 1.84606 -0.628148 0
M  V30 1042 O 95.4374 1.92664 0.35462 0
M  V30 1043 H 94.0174 0.3488 -0.660566 0
M  V30 1044 H 96.6794 0.22523 -1.93594 0
M  V30 1045 H 95.7754 1.53943 -2.71492 0
M  V30 1046 N 96.0765 1.50051 0.48192 0
M  V30 1047 C 97.4925 1.37237 0.814756 0
M  V30 1048 C 97.6925 0.420109 1.97072 0
M  V30 1049 O 96.7485 -0.141246 2.52105 0
M  V30 1050 C 98.0615 2.78375 1.13701 0
M  V30 1051 C 99.6095 2.87213 1.2441 0
M  V30 1052 C 100.084 4.29161 1.59954 0
M  V30 1053 N 101.575 4.32061 1.66967 0
M  V30 1054 C 102.31 5.38879 1.95952 0
M  V30 1055 N 101.806 6.55918 2.23031 0
M  V30 1056 N 103.599 5.26312 1.97363 0
M  V30 1057 H 95.7505 2.10546 -0.28005 0
M  V30 1058 H 98.0135 0.945921 -0.0627454 0
M  V30 1059 H 97.7195 3.49845 0.360787 0
M  V30 1060 H 97.5935 3.14941 2.07586 0
M  V30 1061 H 99.9805 2.15969 2.01101 0
M  V30 1062 H 100.061 2.54204 0.285299 0
M  V30 1063 H 99.7055 5.00938 0.838067 0
M  V30 1064 H 99.6355 4.59648 2.56966 0
M  V30 1065 H 102.126 3.47661 1.48123 0
M  V30 1066 H 102.439 7.33139 2.44391 0
M  V30 1067 H 100.784 6.59112 2.20447 0
M  V30 1068 H 103.975 4.33876 1.75697 0
M  V30 1069 H 104.148 6.09649 2.19618 0
M  V30 1070 N 97.5546 -0.734337 1.39446 0
M  V30 1071 C 98.9656 -1.31264 1.32766 0
M  V30 1072 C 99.3166 -1.96198 -0.00767497 0
M  V30 1073 O 98.4416 -1.96346 -0.909796 0
M  V30 1074 C 99.0366 -2.38682 2.4045 0
M  V30 1075 C 97.5956 -2.92184 2.37288 0
M  V30 1076 C 96.7426 -1.6576 2.22304 0
M  V30 1077 H 99.6936 -0.531799 1.49525 0
M  V30 1078 H 99.7146 -3.19087 2.07276 0
M  V30 1079 H 99.2266 -1.91392 3.37625 0
M  V30 1080 H 97.3276 -3.43752 1.43754 0
M  V30 1081 H 97.4406 -3.45253 3.3217 0
M  V30 1082 H 95.8046 -1.9012 1.69489 0
M  V30 1083 H 96.5876 -1.20521 3.21449 0
M  V30 1084 N 99.0327 -1.24633 -0.964593 0
M  V30 1085 C 100.31 -0.995809 -1.68354 0
M  V30 1086 C 100.69 0.480964 -2.05548 0
M  V30 1087 O 100.038 1.45599 -1.76105 0
M  V30 1088 C 100.248 -1.92177 -2.91323 0
M  V30 1089 C 101.596 -2.19446 -3.63495 0
M  V30 1090 O 102.62 -1.89855 -3.01386 0
M  V30 1091 O 101.479 -2.69714 -4.75307 0
M  V30 1092 H 98.5727 -0.376854 -0.736146 0
M  V30 1093 H 101.119 -1.35745 -1.0184 0
M  V30 1094 H 99.8907 -2.91938 -2.60553 0
M  V30 1095 H 99.5137 -1.56349 -3.65569 0
M  V30 1096 N 100.511 1.16574 -1.06058 0
M  V30 1097 C 101.759 1.86677 -0.77434 0
M  V30 1098 C 102.08 1.81959 0.701147 0
M  V30 1099 O 101.35 1.2515 1.50713 0
M  V30 1100 H 99.9298 0.691134 -0.283449 0
M  V30 1101 H 102.592 1.41378 -1.34158 0
M  V30 1102 H 101.688 2.92181 -1.09711 0
M  V30 1103 N 101.989 0.842826 1.3317 0
M  V30 1104 C 103.235 0.441099 1.97945 0
M  V30 1105 C 103.568 -0.998024 1.66593 0
M  V30 1106 O 102.843 -1.69839 0.947898 0
M  V30 1107 C 103.126 0.666841 3.53872 0
M  V30 1108 C 102.979 2.15352 3.94897 0
M  V30 1109 C 104.298 0.115544 4.39948 0
M  V30 1110 H 101.417 0.161739 0.719034 0
M  V30 1111 H 104.059 1.05907 1.57746 0
M  V30 1112 H 102.209 0.140828 3.88245 0
M  V30 1113 H 103.881 2.7447 3.70761 0
M  V30 1114 H 102.124 2.63653 3.44484 0
M  V30 1115 H 102.795 2.26221 5.03516 0
M  V30 1116 H 105.271 0.565213 4.12243 0
M  V30 1117 H 104.147 0.303152 5.48062 0
M  V30 1118 H 104.408 -0.980935 4.3108 0
M  V30 1119 N 103.467 -1.45747 0.599634 0
M  V30 1120 C 104.878 -1.85853 0.177681 0
M  V30 1121 C 105.229 -1.50102 -1.26348 0
M  V30 1122 O 104.354 -0.923905 -1.95686 0
M  V30 1123 C 104.949 -3.37326 0.315688 0
M  V30 1124 C 103.508 -3.76365 -0.0515144 0
M  V30 1125 C 102.655 -2.69722 0.643822 0
M  V30 1126 H 105.606 -1.36661 0.806814 0
M  V30 1127 H 105.627 -3.77778 -0.454321 0
M  V30 1128 H 105.139 -3.63315 1.36468 0
M  V30 1129 H 103.24 -3.55993 -1.09999 0
M  V30 1130 H 103.353 -4.77916 0.336594 0
M  V30 1131 H 101.717 -2.54567 0.0822881 0
M  V30 1132 H 102.5 -2.98549 1.6948 0
M  V30 1133 N 104.945 -0.338344 -1.53925 0
M  V30 1134 C 105.878 0.563758 -2.21127 0
M  V30 1135 C 106.856 1.10433 -1.19345 0
M  V30 1136 O 108.04 1.16557 -1.48144 0
M  V30 1137 C 105.167 1.77505 -2.88461 0
M  V30 1138 C 104.213 1.3644 -4.04087 0
M  V30 1139 S 105.046 0.388593 -5.34088 0
M  V30 1140 C 106.202 1.60683 -6.04923 0
M  V30 1141 H 106.435 -0.00704546 -2.97299 0
M  V30 1142 H 103.968 -0.122418 -1.53914 0
M  V30 1143 H 105.926 2.46999 -3.27875 0
M  V30 1144 H 104.587 2.31706 -2.12064 0
M  V30 1145 H 103.78 2.26739 -4.50117 0
M  V30 1146 H 103.382 0.748998 -3.66423 0
M  V30 1147 H 105.674 2.54209 -6.28 0
M  V30 1148 H 106.617 1.18842 -6.98056 0
M  V30 1149 H 107.025 1.80052 -5.35015 0
M  V30 1150 N 106.423 1.57458 -0.0668435 0
M  V30 1151 C 107.834 1.80776 0.466558 0
M  V30 1152 C 108.185 0.980361 1.69951 0
M  V30 1153 O 107.31 0.201441 2.1546 0
M  V30 1154 C 107.905 3.27881 0.85321 0
M  V30 1155 C 106.464 3.52062 1.3315 0
M  V30 1156 C 105.611 2.75513 0.314264 0
M  V30 1157 H 108.562 1.5598 -0.292588 0
M  V30 1158 H 108.583 3.39659 1.715 0
M  V30 1159 H 108.095 3.88075 -0.0443439 0
M  V30 1160 H 106.196 2.97167 2.24772 0
M  V30 1161 H 106.309 4.60762 1.31285 0
M  V30 1162 H 104.673 2.42123 0.790492 0
M  V30 1163 H 105.456 3.38442 -0.575477 0
M  V30 1164 N 107.901 -0.206675 1.56239 0
M  V30 1165 C 109.178 -0.954051 1.70755 0
M  V30 1166 C 109.558 -2.01841 0.618353 0
M  V30 1167 O 108.906 -2.25444 -0.372434 0
M  V30 1168 C 109.116 -1.551 3.12642 0
M  V30 1169 C 110.464 -2.03757 3.72516 0
M  V30 1170 O 111.488 -1.64965 3.15698 0
M  V30 1171 O 110.347 -2.75103 4.72208 0
M  V30 1172 H 107.441 -0.446636 0.696021 0
M  V30 1173 H 109.987 -0.197283 1.68549 0
M  V30 1174 H 108.759 -0.783212 3.83382 0
M  V30 1175 H 108.382 -2.37291 3.19028 0
M  V30 1176 N 109.379 -1.50304 -0.473955 0
M  V30 1177 C 110.326 -1.68959 -1.57231 0
M  V30 1178 C 111.296 -0.530899 -1.57387 0
M  V30 1179 O 112.481 -0.761133 -1.74961 0
M  V30 1180 C 109.621 -1.7871 -2.95223 0
M  V30 1181 C 108.734 -3.06061 -3.04878 0
M  V30 1182 C 107.869 -3.06626 -4.33767 0
M  V30 1183 C 106.908 -4.28443 -4.37154 0
M  V30 1184 N 106.045 -4.26763 -5.5751 0
M  V30 1185 H 110.885 -2.6273 -1.40631 0
M  V30 1186 H 108.422 -1.30241 -0.683789 0
M  V30 1187 H 110.38 -1.82344 -3.75242 0
M  V30 1188 H 109.01 -0.883806 -3.10465 0
M  V30 1189 H 108.062 -3.11911 -2.17751 0
M  V30 1190 H 109.374 -3.96039 -3.0324 0
M  V30 1191 H 108.528 -3.08973 -5.22131 0
M  V30 1192 H 107.267 -2.14473 -4.3801 0
M  V30 1193 H 106.272 -4.2631 -3.47188 0
M  V30 1194 H 107.497 -5.2182 -4.34605 0
M  V30 1195 H 105.443 -3.37462 -5.62544 0
M  V30 1196 H 105.36 -5.10507 -5.57601 0
M  V30 1197 H 106.628 -4.33253 -6.48006 0
M  V30 1198 N 110.857 0.726932 -1.39834 0
M  V30 1199 C 112.087 1.51393 -1.40583 0
M  V30 1200 C 112.495 1.892 -0.000740625 0
M  V30 1201 O 111.838 1.55189 0.982951 0
M  V30 1202 C 111.9 2.82588 -2.22226 0
M  V30 1203 C 111.564 2.67169 -3.70769 0
M  V30 1204 C 112.561 2.3518 -4.63666 0
M  V30 1205 C 110.246 2.83788 -4.14451 0
M  V30 1206 C 112.24 2.20002 -5.98229 0
M  V30 1207 C 109.927 2.68229 -5.49087 0
M  V30 1208 C 110.925 2.36382 -6.4079 0
M  V30 1209 O 110.613 2.2093 -7.72946 0
M  V30 1210 H 110.345 0.474168 -0.48181 0
M  V30 1211 H 112.899 0.905247 -1.84376 0
M  V30 1212 H 111.129 3.45746 -1.73195 0
M  V30 1213 H 112.818 3.44247 -2.15055 0
M  V30 1214 H 113.584 2.21984 -4.31217 0
M  V30 1215 H 109.463 3.07566 -3.43401 0
M  V30 1216 H 113.007 1.95067 -6.69772 0
M  V30 1217 H 108.904 2.81006 -5.81125 0
M  V30 1218 H 109.672 2.35937 -7.83757 0
M  V30 1219 N 112.336 1.25143 0.95797 0
M  V30 1220 C 113.561 1.12521 1.74223 0
M  V30 1221 C 113.986 -0.317402 1.85403 0
M  V30 1222 O 113.344 -1.2299 1.33204 0
M  V30 1223 C 113.392 1.78062 3.1357 0
M  V30 1224 O 112.496 1.058 3.98598 0
M  V30 1225 H 111.837 0.39304 0.535178 0
M  V30 1226 H 114.367 1.65641 1.201 0
M  V30 1227 H 114.377 1.84213 3.64046 0
M  V30 1228 H 113.052 2.83021 3.04749 0
M  V30 1229 H 111.629 1.07506 3.57067 0
M  V30 1230 N 113.814 -1.1601 1.06675 0
M  V30 1231 C 114.744 -2.22688 0.702307 0
M  V30 1232 C 115.725 -1.67306 -0.307032 0
M  V30 1233 O 116.91 -1.93352 -0.181305 0
M  V30 1234 C 114.04 -3.47178 0.092038 0
M  V30 1235 C 112.994 -4.15477 1.02777 0
M  V30 1236 C 112.32 -5.33963 0.28061 0
M  V30 1237 C 113.62 -4.66019 2.35846 0
M  V30 1238 H 115.314 -2.53429 1.59419 0
M  V30 1239 H 112.86 -1.21813 0.767961 0
M  V30 1240 H 114.813 -4.21037 -0.174814 0
M  V30 1241 H 113.537 -3.15749 -0.834877 0
M  V30 1242 H 112.196 -3.43549 1.27944 0
M  V30 1243 H 111.844 -4.98788 -0.649545 0
M  V30 1244 H 111.544 -5.806 0.904258 0
M  V30 1245 H 113.068 -6.10596 0.021396 0
M  V30 1246 H 114.482 -5.3144 2.15045 0
M  V30 1247 H 112.879 -5.23293 2.93743 0
M  V30 1248 H 113.949 -3.82023 2.98641 0
M  V30 1249 N 115.292 -0.849877 -1.32721 0
M  V30 1250 C 116.202 -0.293791 -2.32753 0
M  V30 1251 C 117.218 0.585906 -1.63839 0
M  V30 1252 O 118.394 0.487413 -1.95413 0
M  V30 1253 C 115.459 0.512752 -3.42887 0
M  V30 1254 C 114.52 -0.39252 -4.27502 0
M  V30 1255 C 113.753 0.375625 -5.32377 0
M  V30 1256 O 113.976 1.60613 -5.4732 0
M  V30 1257 O 112.91 -0.256094 -6.01355 0
M  V30 1258 H 116.736 -1.12242 -2.82197 0
M  V30 1259 H 114.321 -0.612685 -1.36259 0
M  V30 1260 H 116.203 0.970704 -4.10067 0
M  V30 1261 H 114.878 1.31826 -2.95641 0
M  V30 1262 H 113.785 -0.898547 -3.63149 0
M  V30 1263 H 115.118 -1.16309 -4.7826 0
M  V30 1264 N 116.77 1.45427 -0.607355 0
M  V30 1265 C 118.181 1.85756 -0.187535 0
M  V30 1266 C 118.532 1.5077 1.25551 0
M  V30 1267 O 117.657 0.93427 1.95193 0
M  V30 1268 C 118.252 3.37154 -0.333572 0
M  V30 1269 C 116.811 3.76387 0.0315542 0
M  V30 1270 C 115.958 2.69377 -0.658117 0
M  V30 1271 H 118.909 1.36231 -0.81405 0
M  V30 1272 H 118.93 3.78014 0.43428 0
M  V30 1273 H 118.442 3.62586 -1.38393 0
M  V30 1274 H 116.543 3.56571 1.0811 0
M  V30 1275 H 116.656 4.77731 -0.361935 0
M  V30 1276 H 115.02 2.5452 -0.0957873 0
M  V30 1277 H 115.803 2.97646 -1.7106 0
M  V30 1278 N 118.248 0.346503 1.53744 0
M  V30 1279 C 119.494 -0.249473 2.0126 0
M  V30 1280 C 119.827 -1.49965 1.23386 0
M  V30 1281 O 119.102 -1.91811 0.32229 0
M  V30 1282 C 119.385 -0.560643 3.55709 0
M  V30 1283 C 119.238 0.701836 4.44291 0
M  V30 1284 C 120.557 -1.36905 4.18264 0
M  V30 1285 H 117.676 -0.0891987 0.731582 0
M  V30 1286 H 120.318 0.467624 1.84156 0
M  V30 1287 H 118.468 -1.17156 3.70414 0
M  V30 1288 H 120.14 1.33974 4.41417 0
M  V30 1289 H 118.383 1.32612 4.13033 0
M  V30 1290 H 119.054 0.43933 5.50249 0
M  V30 1291 H 121.53 -0.852448 4.07275 0
M  V30 1292 H 120.406 -1.55553 5.26398 0
M  V30 1293 H 120.667 -2.37203 3.73078 0
M  V30 1294 N 119.726 -1.57421 0.075193 0
M  V30 1295 C 120.689 -2.11791 -0.876203 0
M  V30 1296 C 121.689 -1.04268 -1.22412 0
M  V30 1297 O 122.879 -1.30242 -1.15684 0
M  V30 1298 C 120.011 -2.62207 -2.17854 0
M  V30 1299 H 121.204 -2.9716 -0.40444 0
M  V30 1300 H 118.757 -1.55333 -0.173557 0
M  V30 1301 H 119.492 -1.803 -2.6956 0
M  V30 1302 H 119.277 -3.40802 -1.93897 0
M  V30 1303 H 120.767 -3.04335 -2.85955 0
M  V30 1304 N 121.204 0.198386 -1.56346 0
M  V30 1305 C 122.45 0.920648 -1.80698 0
M  V30 1306 C 122.783 1.83045 -0.648697 0
M  V30 1307 O 122.058 1.91308 0.350925 0
M  V30 1308 C 122.341 1.73971 -3.15287 0
M  V30 1309 C 122.194 0.85485 -4.41602 0
M  V30 1310 C 123.513 2.71296 -3.46535 0
M  V30 1311 H 120.632 0.333261 -0.657348 0
M  V30 1312 H 123.274 0.188198 -1.89066 0
M  V30 1313 H 121.424 2.36416 -3.08285 0
M  V30 1314 H 123.096 0.245362 -4.60647 0
M  V30 1315 H 121.339 0.161398 -4.335 0
M  V30 1316 H 122.01 1.46286 -5.32264 0
M  V30 1317 H 124.486 2.18983 -3.53816 0
M  V30 1318 H 123.362 3.2569 -4.41834 0
M  V30 1319 H 123.623 3.5018 -2.69864 0
M  V30 1320 N 122.682 1.50554 0.465978 0
M  V30 1321 C 123.592 1.72585 1.58907 0
M  V30 1322 C 124.608 0.60911 1.6299 0
M  V30 1323 O 125.784 0.88804 1.80765 0
M  V30 1324 C 122.849 1.81995 2.95091 0
M  V30 1325 C 121.91 3.05751 3.01355 0
M  V30 1326 C 121.143 3.14702 4.31043 0
M  V30 1327 O 121.366 2.30313 5.21835 0
M  V30 1328 O 120.3 4.07468 4.43005 0
M  V30 1329 H 124.126 2.67799 1.43239 0
M  V30 1330 H 121.711 1.34711 0.646013 0
M  V30 1331 H 123.593 1.90335 3.75966 0
M  V30 1332 H 122.268 0.899659 3.10947 0
M  V30 1333 H 121.175 3.02908 2.19539 0
M  V30 1334 H 122.508 3.97375 2.90437 0
M  V30 1335 N 124.16 -0.719506 1.40217 0
M  V30 1336 C 125.09 -1.8465 1.42922 0
M  V30 1337 C 126.071 -1.67599 0.29062 0
M  V30 1338 O 127.256 -1.87688 0.498677 0
M  V30 1339 C 124.386 -3.22565 1.28722 0
M  V30 1340 C 123.34 -3.54281 2.40144 0
M  V30 1341 C 122.666 -4.91298 2.11023 0
M  V30 1342 C 123.966 -3.55676 3.82481 0
M  V30 1343 H 125.66 -1.82644 2.37237 0
M  V30 1344 H 123.206 -0.877305 1.1419 0
M  V30 1345 H 125.159 -4.01095 1.29232 0
M  V30 1346 H 123.883 -3.25137 0.308811 0
M  V30 1347 H 122.542 -2.78088 2.38877 0
M  V30 1348 H 122.19 -4.90468 1.11582 0
M  V30 1349 H 121.89 -5.13485 2.8567 0
M  V30 1350 H 123.414 -5.72166 2.13209 0
M  V30 1351 H 124.828 -4.24254 3.85592 0
M  V30 1352 H 123.225 -3.89388 4.56614 0
M  V30 1353 H 124.295 -2.55144 4.12346 0
M  V30 1354 N 125.638 -1.25649 -0.95132 0
M  V30 1355 C 126.585 -1.06323 -2.04851 0
M  V30 1356 C 127.555 0.0286491 -1.66075 0
M  V30 1357 O 128.74 -0.12917 -1.90362 0
M  V30 1358 C 125.88 -0.691529 -3.381 0
M  V30 1359 C 124.993 -1.85861 -3.89974 0
M  V30 1360 C 124.128 -1.43096 -5.11563 0
M  V30 1361 C 123.167 -2.56696 -5.55674 0
M  V30 1362 N 122.304 -2.14684 -6.68472 0
M  V30 1363 H 127.144 -2.00222 -2.20715 0
M  V30 1364 H 124.681 -0.997027 -1.08156 0
M  V30 1365 H 126.639 -0.456963 -4.1469 0
M  V30 1366 H 125.269 0.210474 -3.22113 0
M  V30 1367 H 124.321 -2.20639 -3.09875 0
M  V30 1368 H 125.633 -2.71161 -4.18657 0
M  V30 1369 H 124.787 -1.15624 -5.9558 0
M  V30 1370 H 123.526 -0.548722 -4.84603 0
M  V30 1371 H 122.531 -2.84909 -4.7022 0
M  V30 1372 H 123.756 -3.45503 -5.8464 0
M  V30 1373 H 121.702 -1.28881 -6.43215 0
M  V30 1374 H 121.619 -2.9353 -6.96689 0
M  V30 1375 H 122.887 -1.90397 -7.5589 0
M  V30 1376 N 127.117 1.15442 -1.07289 0
M  V30 1377 C 128.342 1.90638 -0.816828 0
M  V30 1378 C 128.767 1.77445 0.624083 0
M  V30 1379 O 128.125 1.10671 1.43602 0
M  V30 1380 C 128.173 3.39008 -1.22906 0
M  V30 1381 O 127.277 4.10701 -0.373975 0
M  V30 1382 H 126.618 0.593555 -0.297638 0
M  V30 1383 H 129.148 1.46198 -1.43134 0
M  V30 1384 H 129.158 3.89801 -1.20497 0
M  V30 1385 H 127.833 3.47929 -2.27856 0
M  V30 1386 H 126.41 3.70046 -0.460499 0
M  V30 1387 N 128.595 0.856903 1.32268 0
M  V30 1388 C 129.525 0.31858 2.31316 0
M  V30 1389 C 130.506 -0.583487 1.59779 0
M  V30 1390 O 131.691 -0.503259 1.87566 0
M  V30 1391 C 128.821 -0.491979 3.43798 0
M  V30 1392 C 127.775 0.315849 4.26833 0
M  V30 1393 C 127.101 -0.619586 5.31098 0
M  V30 1394 C 128.401 1.54282 4.98993 0
M  V30 1395 H 130.095 1.14621 2.76591 0
M  V30 1396 H 127.641 0.552613 1.32974 0
M  V30 1397 H 129.594 -0.879012 4.1213 0
M  V30 1398 H 128.318 -1.35299 2.97257 0
M  V30 1399 H 126.977 0.684664 3.6015 0
M  V30 1400 H 126.625 -1.47751 4.8081 0
M  V30 1401 H 126.325 -0.0830621 5.87541 0
M  V30 1402 H 127.849 -1.00375 6.02293 0
M  V30 1403 H 129.263 1.22796 5.59995 0
M  V30 1404 H 127.66 2.01745 5.65172 0
M  V30 1405 H 128.73 2.30285 4.26728 0
M  V30 1406 N 130.073 -1.45103 0.615059 0
M  V30 1407 C 131.003 -2.33339 -0.0865619 0
M  V30 1408 C 131.984 -1.4727 -0.851209 0
M  V30 1409 O 133.169 -1.76026 -0.820281 0
M  V30 1410 C 130.299 -3.30095 -1.07956 0
M  V30 1411 C 129.253 -4.25858 -0.427628 0
M  V30 1412 C 128.579 -5.12361 -1.5294 0
M  V30 1413 C 129.879 -5.18165 0.655944 0
M  V30 1414 H 131.573 -2.92254 0.650224 0
M  V30 1415 H 129.119 -1.40532 0.314138 0
M  V30 1416 H 131.072 -3.90698 -1.57901 0
M  V30 1417 H 129.796 -2.69355 -1.84703 0
M  V30 1418 H 128.455 -3.66564 0.0510292 0
M  V30 1419 H 128.103 -4.47984 -2.28734 0
M  V30 1420 H 127.803 -5.77238 -1.09865 0
M  V30 1421 H 129.327 -5.75833 -2.03098 0
M  V30 1422 H 130.741 -5.72796 0.240257 0
M  V30 1423 H 129.138 -5.91559 1.00888 0
M  V30 1424 H 130.208 -4.60144 1.52957 0
M  V30 1425 N 131.551 -0.354651 -1.53558 0
M  V30 1426 C 132.799 0.237972 -2.00694 0
M  V30 1427 C 133.12 1.50173 -1.24391 0
M  V30 1428 O 132.39 1.92673 -0.354135 0
M  V30 1429 H 130.97 0.0909256 -0.741446 0
M  V30 1430 H 133.632 -0.478368 -1.88938 0
M  V30 1431 H 132.728 0.47264 -3.085 0
M  V30 1432 N 133.029 1.57378 -0.0835403 0
M  V30 1433 C 133.976 2.13384 0.879539 0
M  V30 1434 C 134.946 1.04936 1.28754 0
M  V30 1435 O 136.131 1.32662 1.37133 0
M  V30 1436 C 133.271 2.70932 2.13752 0
M  V30 1437 C 132.384 3.93575 1.7811 0
M  V30 1438 C 131.519 4.39326 2.98607 0
M  V30 1439 C 130.558 5.54587 2.59037 0
M  V30 1440 N 129.695 5.95243 3.72331 0
M  V30 1441 H 134.535 2.9537 0.395076 0
M  V30 1442 H 132.072 1.45953 0.183349 0
M  V30 1443 H 134.03 3.02411 2.87408 0
M  V30 1444 H 132.66 1.91693 2.59718 0
M  V30 1445 H 131.712 3.68483 0.94469 0
M  V30 1446 H 133.024 4.77258 1.45005 0
M  V30 1447 H 132.178 4.72528 3.80529 0
M  V30 1448 H 130.917 3.5452 3.34913 0
M  V30 1449 H 129.922 5.21024 1.75539 0
M  V30 1450 H 131.147 6.41133 2.23887 0
M  V30 1451 H 129.093 5.13385 4.08378 0
M  V30 1452 H 129.01 6.73694 3.43034 0
M  V30 1453 H 130.278 6.33072 4.54797 0
M  V30 1454 N 134.507 -0.190092 1.56449 0
M  V30 1455 C 135.784 -0.935886 1.71757 0
M  V30 1456 C 136.164 -2.01173 0.639726 0
M  V30 1457 O 135.512 -2.25827 -0.348502 0
M  V30 1458 C 135.722 -1.51775 3.1427 0
M  V30 1459 C 137.07 -1.99794 3.74656 0
M  V30 1460 O 138.094 -1.61607 3.1743 0
M  V30 1461 O 136.953 -2.70079 4.751 0
M  V30 1462 H 134.047 -0.439229 0.700719 0
M  V30 1463 H 136.593 -0.179395 1.68749 0
M  V30 1464 H 135.365 -0.742505 3.84191 0
M  V30 1465 H 134.988 -2.33894 3.21527 0
M  V30 1466 N 135.985 -1.50799 -0.457987 0
M  V30 1467 C 137.231 -1.62683 -1.21088 0
M  V30 1468 C 137.564 -0.332268 -1.91336 0
M  V30 1469 O 136.839 0.667043 -1.82704 0
M  V30 1470 C 137.122 -2.81615 -2.24422 0
M  V30 1471 C 136.975 -4.20989 -1.58392 0
M  V30 1472 C 138.294 -2.96085 -3.2561 0
M  V30 1473 H 135.413 -0.592087 -0.438864 0
M  V30 1474 H 138.055 -1.83225 -0.50286 0
M  V30 1475 H 136.205 -2.64231 -2.84806 0
M  V30 1476 H 137.877 -4.49994 -1.01504 0
M  V30 1477 H 136.12 -4.24641 -0.886704 0
M  V30 1478 H 136.791 -5.0016 -2.33547 0
M  V30 1479 H 139.267 -3.12042 -2.75262 0
M  V30 1480 H 138.143 -3.80902 -3.95228 0
M  V30 1481 H 138.404 -2.0726 -3.90507 0
M  V30 1482 N 137.463 0.71206 -1.40597 0
M  V30 1483 C 138.393 1.83889 -1.43899 0
M  V30 1484 C 139.374 1.67442 -0.299504 0
M  V30 1485 O 140.559 1.87421 -0.508624 0
M  V30 1486 C 137.689 3.21877 -1.30431 0
M  V30 1487 C 136.643 3.53002 -2.42019 0
M  V30 1488 C 135.969 4.90172 -2.13626 0
M  V30 1489 C 137.269 3.53643 -3.84362 0
M  V30 1490 H 138.963 1.81383 -2.38203 0
M  V30 1491 H 136.509 0.871237 -1.14654 0
M  V30 1492 H 138.462 4.00404 -1.31357 0
M  V30 1493 H 137.186 3.24968 -0.326049 0
M  V30 1494 H 135.845 2.76818 -2.40349 0
M  V30 1495 H 135.493 4.89869 -1.14182 0
M  V30 1496 H 135.193 5.11962 -2.88389 0
M  V30 1497 H 136.717 5.71028 -2.1624 0
M  V30 1498 H 138.131 4.22203 -3.87837 0
M  V30 1499 H 136.528 3.86961 -4.58673 0
M  V30 1500 H 137.598 2.52954 -4.13693 0
M  V30 1501 N 138.941 1.26152 0.944643 0
M  V30 1502 C 140.188 1.11492 1.69044 0
M  V30 1503 C 140.516 -0.342366 1.91463 0
M  V30 1504 O 139.771 -1.26812 1.49054 0
M  V30 1505 C 140.07 1.82541 3.07268 0
M  V30 1506 C 139.736 3.32445 3.04616 0
M  V30 1507 C 138.398 3.73337 3.036 0
M  V30 1508 C 140.75 4.28171 2.97185 0
M  V30 1509 C 138.078 5.08348 2.92915 0
M  V30 1510 C 140.43 5.63218 2.88041 0
M  V30 1511 C 139.094 6.03426 2.85366 0
M  V30 1512 H 138.364 0.407977 0.618576 0
M  V30 1513 H 141.011 1.56551 1.10291 0
M  V30 1514 H 139.316 1.29941 3.69625 0
M  V30 1515 H 141.013 1.68642 3.63815 0
M  V30 1516 H 137.603 2.99915 3.06185 0
M  V30 1517 H 141.787 3.97563 2.97081 0
M  V30 1518 H 137.043 5.38667 2.89219 0
M  V30 1519 H 141.217 6.37078 2.81254 0
M  V30 1520 H 138.844 7.07999 2.76842 0
M  V30 1521 N 140.419 -1.14872 1.07899 0
M  V30 1522 C 141.349 -2.2193 0.725887 0
M  V30 1523 C 142.33 -1.67622 -0.28927 0
M  V30 1524 O 143.515 -1.93533 -0.160787 0
M  V30 1525 C 140.645 -3.47061 0.128856 0
M  V30 1526 C 139.599 -4.14363 1.07178 0
M  V30 1527 C 138.925 -5.33636 0.337229 0
M  V30 1528 C 140.225 -4.63492 2.40775 0
M  V30 1529 H 141.919 -2.51724 1.62097 0
M  V30 1530 H 139.465 -1.20991 0.780838 0
M  V30 1531 H 141.418 -4.21199 -0.130147 0
M  V30 1532 H 140.142 -3.16617 -0.80134 0
M  V30 1533 H 138.801 -3.42173 1.3158 0
M  V30 1534 H 138.449 -4.99449 -0.596606 0
M  V30 1535 H 138.149 -5.79609 0.965788 0
M  V30 1536 H 139.673 -6.10539 0.0861567 0
M  V30 1537 H 141.087 -5.2913 2.20669 0
M  V30 1538 H 139.484 -5.20148 2.99276 0
M  V30 1539 H 140.554 -3.78834 3.02676 0
M  V30 1540 N 141.898 -0.863906 -1.31812 0
M  V30 1541 C 142.845 -0.313303 -2.28664 0
M  V30 1542 C 143.815 0.584868 -1.55462 0
M  V30 1543 O 145 0.517805 -1.83639 0
M  V30 1544 C 142.14 0.48441 -3.41683 0
M  V30 1545 C 141.253 -0.440594 -4.29747 0
M  V30 1546 C 140.388 0.370652 -5.29905 0
M  V30 1547 C 139.427 -0.551164 -6.09613 0
M  V30 1548 N 138.564 0.223462 -7.01744 0
M  V30 1549 H 143.404 -1.14444 -2.75148 0
M  V30 1550 H 140.941 -0.575769 -1.35364 0
M  V30 1551 H 142.899 0.962627 -4.05943 0
M  V30 1552 H 141.529 1.28029 -2.96325 0
M  V30 1553 H 140.581 -1.03724 -3.65986 0
M  V30 1554 H 141.893 -1.14767 -4.85417 0
M  V30 1555 H 141.047 0.911638 -5.99812 0
M  V30 1556 H 139.786 1.11105 -4.74876 0
M  V30 1557 H 138.791 -1.10396 -5.38603 0
M  V30 1558 H 140.016 -1.29032 -6.66729 0
M  V30 1559 H 137.962 0.946787 -6.49132 0
M  V30 1560 H 137.879 -0.424399 -7.54808 0
M  V30 1561 H 139.147 0.745876 -7.75923 0
M  V30 1562 N 143.376 1.44774 -0.622745 0
M  V30 1563 C 144.653 1.95522 -0.0551974 0
M  V30 1564 C 145.033 1.5649 1.41683 0
M  V30 1565 O 144.381 0.834848 2.12703 0
M  V30 1566 C 144.591 3.4796 -0.269242 0
M  V30 1567 C 145.939 4.24306 -0.158014 0
M  V30 1568 O 146.963 3.55637 -0.200162 0
M  V30 1569 O 145.822 5.46471 -0.0558693 0
M  V30 1570 H 142.916 0.826556 0.0271015 0
M  V30 1571 H 145.462 1.54866 -0.693864 0
M  V30 1572 H 144.234 3.6939 -1.29099 0
M  V30 1573 H 143.857 3.95543 0.403966 0
M  V30 1574 N 144.854 0.36279 1.53368 0
M  V30 1575 C 146.094 -0.227882 2.03126 0
M  V30 1576 C 146.458 -1.4622 1.24434 0
M  V30 1577 O 147.659 -2.12831 1.64184 0
M  V30 1578 C 145.93 -0.515427 3.53664 0
M  V30 1579 S 147.489 -1.08017 4.25297 0
M  V30 1580 H 144.307 -0.0665377 0.70788 0
M  V30 1581 H 146.909 0.50501 1.88865 0
M  V30 1582 H 145.613 0.390436 4.08539 0
M  V30 1583 H 145.144 -1.27747 3.72081 0
M  V30 1584 H 147.159 -2.36462 4.36234 0
M  V30 1585 N 146.332 -1.57332 0.0918853 0
M  V30 1586 C 147.578 -1.94524 -0.573425 0
M  V30 1587 C 147.911 -0.973578 -1.68033 0
M  V30 1588 O 147.186 -0.00609226 -1.94499 0
M  V30 1589 C 147.469 -3.41858 -1.13161 0
M  V30 1590 C 147.322 -4.4979 -0.0299747 0
M  V30 1591 C 148.641 -3.90435 -2.03098 0
M  V30 1592 H 145.76 -0.70734 -0.206975 0
M  V30 1593 H 148.402 -1.89309 0.161942 0
M  V30 1594 H 146.552 -3.46433 -1.7583 0
M  V30 1595 H 148.224 -4.57327 0.604112 0
M  V30 1596 H 146.467 -4.291 0.636833 0
M  V30 1597 H 147.138 -5.50069 -0.461287 0
M  V30 1598 H 149.614 -3.87992 -1.50338 0
M  V30 1599 H 148.49 -4.94097 -2.39081 0
M  V30 1600 H 148.751 -3.29541 -2.94712 0
M  V30 1601 N 147.81 0.181792 -1.56548 0
M  V30 1602 C 149.058 0.89832 -1.81038 0
M  V30 1603 C 149.379 1.83232 -0.667164 0
M  V30 1604 O 148.649 1.93372 0.313673 0
M  V30 1605 H 147.229 0.33471 -0.667816 0
M  V30 1606 H 149.891 0.184116 -1.94028 0
M  V30 1607 H 148.987 1.4815 -2.74696 0
M  V30 1608 N 149.288 1.51039 0.449983 0
M  V30 1609 C 150.699 1.557 1.03026 0
M  V30 1610 C 151.05 0.372939 1.92623 0
M  V30 1611 O 150.175 -0.511771 2.10261 0
M  V30 1612 C 150.77 2.82171 1.87523 0
M  V30 1613 C 149.329 2.89444 2.40622 0
M  V30 1614 C 148.476 2.50228 1.19504 0
M  V30 1615 H 151.427 1.56999 0.231745 0
M  V30 1616 H 151.448 2.65219 2.72835 0
M  V30 1617 H 150.96 3.68331 1.22286 0
M  V30 1618 H 149.061 2.07685 3.0935 0
M  V30 1619 H 149.174 3.92816 2.74285 0
M  V30 1620 H 147.538 2.03139 1.53644 0
M  V30 1621 H 148.321 3.38719 0.558972 0
M  V30 1622 N 150.766 -0.704594 1.40972 0
M  V30 1623 C 151.676 -1.84856 1.44448 0
M  V30 1624 C 152.692 -1.70726 0.335961 0
M  V30 1625 O 153.868 -1.92799 0.582276 0
M  V30 1626 C 150.933 -3.20758 1.31587 0
M  V30 1627 C 149.994 -3.47063 2.52677 0
M  V30 1628 C 149.227 -4.76481 2.4042 0
M  V30 1629 O 149.45 -5.52341 1.42391 0
M  V30 1630 O 148.384 -5.03367 3.30007 0
M  V30 1631 H 152.21 -1.8488 2.40942 0
M  V30 1632 H 149.795 -0.85647 1.22413 0
M  V30 1633 H 151.677 -4.01913 1.26665 0
M  V30 1634 H 150.352 -3.21438 0.382049 0
M  V30 1635 H 149.259 -2.65873 2.63177 0
M  V30 1636 H 150.592 -3.5119 3.44858 0
M  V30 1637 N 152.244 -1.26651 -0.937939 0
M  V30 1638 C 153.49 -1.12553 -1.687 0
M  V30 1639 C 153.823 0.329782 -1.91379 0
M  V30 1640 O 153.098 1.24202 -1.4968 0
M  V30 1641 C 153.381 -1.89862 -3.05981 0
M  V30 1642 C 153.234 -3.43318 -2.90607 0
M  V30 1643 C 154.553 -1.69499 -4.0615 0
M  V30 1644 H 151.672 -0.410257 -0.612257 0
M  V30 1645 H 154.314 -1.55685 -1.08913 0
M  V30 1646 H 152.464 -1.53204 -3.57017 0
M  V30 1647 H 154.136 -3.89747 -2.46769 0
M  V30 1648 H 152.379 -3.70179 -2.26164 0
M  V30 1649 H 153.05 -3.92642 -3.8799 0
M  V30 1650 H 155.526 -2.01442 -3.64088 0
M  V30 1651 H 154.402 -2.26002 -5.00214 0
M  V30 1652 H 154.663 -0.640365 -4.37438 0
M  V30 1653 N 153.722 1.14298 -1.08507 0
M  V30 1654 C 154.632 2.23027 -0.727753 0
M  V30 1655 C 155.648 1.71952 0.26619 0
M  V30 1656 O 156.824 2.011 0.109882 0
M  V30 1657 C 153.889 3.46403 -0.143541 0
M  V30 1658 C 152.95 4.12413 -1.19223 0
M  V30 1659 C 152.183 5.29899 -0.635798 0
M  V30 1660 O 152.406 5.67796 0.544393 0
M  V30 1661 O 151.34 5.85717 -1.38634 0
M  V30 1662 H 155.166 2.55945 -1.63481 0
M  V30 1663 H 152.751 1.22248 -0.858817 0
M  V30 1664 H 154.633 4.21018 0.179404 0
M  V30 1665 H 153.308 3.15206 0.736659 0
M  V30 1666 H 152.215 3.39667 -1.56772 0
M  V30 1667 H 153.548 4.47718 -2.04474 0
M  V30 1668 N 155.201 0.870884 1.31352 0
M  V30 1669 C 156.148 0.325425 2.28494 0
M  V30 1670 C 157.118 -0.576615 1.5577 0
M  V30 1671 O 158.303 -0.508059 1.83911 0
M  V30 1672 C 155.443 -0.466283 3.41935 0
M  V30 1673 C 154.556 0.463378 4.29508 0
M  V30 1674 C 153.691 -0.342544 5.30094 0
M  V30 1675 C 152.73 0.583486 6.09313 0
M  V30 1676 N 151.867 -0.186244 7.01853 0
M  V30 1677 H 156.707 1.15901 2.74538 0
M  V30 1678 H 154.244 0.58294 1.35056 0
M  V30 1679 H 156.202 -0.941085 4.06447 0
M  V30 1680 H 154.832 -1.26456 2.97 0
M  V30 1681 H 153.884 1.05663 3.65431 0
M  V30 1682 H 155.196 1.1734 4.84802 0
M  V30 1683 H 154.35 -0.879816 6.00287 0
M  V30 1684 H 153.089 -1.08585 4.75458 0
M  V30 1685 H 152.094 1.13251 5.3801 0
M  V30 1686 H 153.319 1.32566 6.66035 0
M  V30 1687 H 151.265 -0.912348 6.49625 0
M  V30 1688 H 151.182 0.464422 7.54572 0
M  V30 1689 H 152.45 -0.704716 7.76308 0
M  V30 1690 N 156.679 -1.44442 0.630414 0
M  V30 1691 C 157.642 -2.29107 -0.0652523 0
M  V30 1692 C 158.642 -1.41002 -0.772995 0
M  V30 1693 O 159.832 -1.62881 -0.617692 0
M  V30 1694 C 156.964 -3.22564 -1.10296 0
M  V30 1695 H 158.157 -2.92103 0.679401 0
M  V30 1696 H 155.71 -1.51343 0.390517 0
M  V30 1697 H 156.445 -2.64416 -1.87762 0
M  V30 1698 H 156.23 -3.87491 -0.59941 0
M  V30 1699 H 157.72 -3.86167 -1.5895 0
M  V30 1700 N 158.157 -0.370918 -1.53173 0
M  V30 1701 C 159.397 0.217106 -2.03244 0
M  V30 1702 C 159.761 1.45558 -1.25207 0
M  V30 1703 O 160.962 2.11957 -1.65311 0
M  V30 1704 C 159.233 0.496664 -3.53932 0
M  V30 1705 S 160.792 1.0576 -4.25864 0
M  V30 1706 H 157.61 0.0627827 -0.708223 0
M  V30 1707 H 160.212 -0.515019 -1.88594 0
M  V30 1708 H 158.916 -0.412096 -4.08326 0
M  V30 1709 H 158.447 1.25772 -3.72753 0
M  V30 1710 H 160.462 2.34145 -4.37482 0
M  V30 1711 N 159.635 1.57281 -0.100228 0
M  V30 1712 C 160.598 2.13158 0.842398 0
M  V30 1713 C 161.598 1.06202 1.20738 0
M  V30 1714 O 162.788 1.32066 1.13597 0
M  V30 1715 C 159.92 2.65639 2.13655 0
M  V30 1716 H 161.113 2.97766 0.357114 0
M  V30 1717 H 158.666 1.5559 0.148823 0
M  V30 1718 H 159.401 1.84566 2.66657 0
M  V30 1719 H 159.186 3.43844 1.88451 0
M  V30 1720 H 160.676 3.08846 2.81077 0
M  V30 1721 N 161.113 -0.173488 1.56642 0
M  V30 1722 C 162.061 -1.23417 1.97157 0
M  V30 1723 C 163.055 -1.45946 0.860013 0
M  V30 1724 O 164.261 -1.46551 1.04512 0
M  V30 1725 H 160.636 -0.414818 0.62724 0
M  V30 1726 H 162.607 -0.865582 2.8557 0
M  V30 1727 C 161.356 -2.5665 2.34576 0
M  V30 1728 H 160.679 -2.40137 3.19647 0
M  V30 1729 H 162.119 -3.2956 2.6677 0
M  V30 1730 C 160.578 -3.15245 1.18836 0
M  V30 1731 O 161.108 -3.98883 0.474869 0
M  V30 1732 N 159.314 -2.74303 0.959497 0
M  V30 1733 H 158.861 -2.0639 1.54146 0
M  V30 1734 H 158.819 -3.13844 0.186932 0
M  V30 1735 N 162.591 -1.51276 -0.441967 0
M  V30 1736 C 164.002 -1.56244 -1.02199 0
M  V30 1737 C 164.353 -0.383149 -1.92422 0
M  V30 1738 O 163.478 0.500613 -2.1053 0
M  V30 1739 C 164.073 -2.83162 -1.86024 0
M  V30 1740 C 162.632 -2.90716 -2.39084 0
M  V30 1741 C 161.779 -2.50858 -1.18175 0
M  V30 1742 H 164.73 -1.5712 -0.223416 0
M  V30 1743 H 164.751 -2.66663 -2.71425 0
M  V30 1744 H 164.263 -3.68974 -1.20331 0
M  V30 1745 H 162.364 -2.09323 -3.08244 0
M  V30 1746 H 162.477 -3.94266 -2.72198 0
M  V30 1747 H 160.841 -2.03951 -1.52565 0
M  V30 1748 H 161.624 -3.3901 -0.541001 0
M  V30 1749 N 164.069 0.697108 -1.41344 0
M  V30 1750 C 165.032 1.79281 -1.42797 0
M  V30 1751 C 166.032 1.57607 -0.318837 0
M  V30 1752 O 167.222 1.64309 -0.578642 0
M  V30 1753 C 164.354 3.17632 -1.23785 0
M  V30 1754 H 165.547 1.79385 -2.40335 0
M  V30 1755 H 163.1 0.904582 -1.27464 0
M  V30 1756 H 163.835 3.23167 -0.270814 0
M  V30 1757 H 163.62 3.34765 -2.04144 0
M  V30 1758 H 165.11 3.97617 -1.27633 0
M  V30 1759 N 165.547 1.27147 0.931209 0
M  V30 1760 C 166.51 1.09615 2.01289 0
M  V30 1761 C 167.51 0.0412581 1.60747 0
M  V30 1762 O 168.7 0.285545 1.71844 0
M  V30 1763 C 165.832 0.669447 3.34262 0
M  V30 1764 H 167.025 2.05662 2.18273 0
M  V30 1765 H 164.578 1.09885 1.11153 0
M  V30 1766 H 165.313 -0.292572 3.22978 0
M  V30 1767 H 165.098 1.43127 3.65044 0
M  V30 1768 H 166.588 0.568921 4.13706 0
M  V30 1769 N 167.025 -1.13721 1.09112 0
M  V30 1770 C 168.273 -1.84559 0.823562 0
M  V30 1771 C 168.594 -1.83754 -0.652658 0
M  V30 1772 O 167.864 -1.29102 -1.47342 0
M  V30 1773 H 166.444 -0.683376 0.301673 0
M  V30 1774 H 169.106 -1.37771 1.37859 0
M  V30 1775 H 168.202 -2.8917 1.17419 0
M  V30 1776 N 168.503 -0.877838 -1.30888 0
M  V30 1777 C 169.728 -0.506629 -2.01117 0
M  V30 1778 C 170.153 0.895564 -1.65412 0
M  V30 1779 O 169.511 1.5923 -0.866922 0
M  V30 1780 C 169.559 -0.680223 -3.54126 0
M  V30 1781 O 168.663 0.277033 -4.11468 0
M  V30 1782 H 168.004 -0.200518 -0.633 0
M  V30 1783 H 170.534 -1.18342 -1.66902 0
M  V30 1784 H 170.544 -0.5765 -4.03907 0
M  V30 1785 H 169.219 -1.70261 -3.79452 0
M  V30 1786 H 167.796 0.127606 -3.72682 0
M  V30 1787 N 169.982 1.44106 -0.638065 0
M  V30 1788 C 171.228 2.02277 -0.145546 0
M  V30 1789 C 171.561 1.50125 1.23191 0
M  V30 1790 O 170.836 0.688133 1.8192 0
M  V30 1791 C 171.119 3.59829 -0.139791 0
M  V30 1792 C 170.972 4.22247 -1.55008 0
M  V30 1793 C 172.291 4.36873 0.531966 0
M  V30 1794 H 169.41 0.734992 -0.0543632 0
M  V30 1795 H 172.052 1.71592 -0.815863 0
M  V30 1796 H 170.202 3.86102 0.431007 0
M  V30 1797 H 171.874 4.07057 -2.1703 0
M  V30 1798 H 170.117 3.79476 -2.10191 0
M  V30 1799 H 170.788 5.31284 -1.49804 0
M  V30 1800 H 173.264 4.16074 0.0464781 0
M  V30 1801 H 172.14 5.4657 0.505206 0
M  V30 1802 H 172.401 4.11995 1.60352 0
M  V30 1803 N 171.46 0.379036 1.52974 0
M  V30 1804 C 172.709 -0.207612 2.00629 0
M  V30 1805 C 173.022 -1.48758 1.27006 0
M  V30 1806 O 174.228 -2.15365 1.65318 0
M  V30 1807 C 172.684 -0.42053 3.57435 0
M  V30 1808 C 172.292 0.845587 4.39948 0
M  V30 1809 C 174.036 -0.964102 4.13407 0
M  V30 1810 C 171.943 0.601513 5.88333 0
M  V30 1811 H 170.873 -0.0813591 0.749598 0
M  V30 1812 H 173.524 0.499853 1.76561 0
M  V30 1813 H 171.906 -1.18959 3.7771 0
M  V30 1814 H 173.08 1.61848 4.31442 0
M  V30 1815 H 171.395 1.31336 3.95145 0
M  V30 1816 H 173.992 -1.16225 5.21916 0
M  V30 1817 H 174.335 -1.93019 3.68849 0
M  V30 1818 H 174.868 -0.25487 3.96983 0
M  V30 1819 H 171.607 1.53831 6.37194 0
M  V30 1820 H 171.127 -0.132628 5.99653 0
M  V30 1821 H 172.806 0.232134 6.46583 0
M  V30 1822 N 172.938 -1.57226 0.108567 0
M  V30 1823 C 173.868 -2.17778 -0.84232 0
M  V30 1824 C 174.849 -1.11487 -1.2847 0
M  V30 1825 O 176.034 -1.39681 -1.34918 0
M  V30 1826 C 173.164 -2.76888 -2.09644 0
M  V30 1827 C 172.118 -3.88669 -1.79221 0
M  V30 1828 C 171.444 -4.34541 -3.11574 0
M  V30 1829 C 172.744 -5.11251 -1.06864 0
M  V30 1830 H 174.438 -2.97489 -0.337774 0
M  V30 1831 H 171.984 -1.43097 -0.161025 0
M  V30 1832 H 173.937 -3.17904 -2.76614 0
M  V30 1833 H 172.661 -1.94451 -2.62405 0
M  V30 1834 H 171.32 -3.48213 -1.14644 0
M  V30 1835 H 170.968 -3.48977 -3.62249 0
M  V30 1836 H 170.668 -5.09914 -2.91996 0
M  V30 1837 H 172.192 -4.782 -3.7968 0
M  V30 1838 H 173.606 -5.49352 -1.63968 0
M  V30 1839 H 172.003 -5.9214 -0.974178 0
M  V30 1840 H 173.073 -4.8487 -0.0536168 0
M  V30 1841 N 174.416 0.165178 -1.56732 0
M  V30 1842 C 175.346 1.20651 -1.99914 0
M  V30 1843 C 176.327 1.45827 -0.875705 0
M  V30 1844 O 177.512 1.57057 -1.14223 0
M  V30 1845 C 174.642 2.54401 -2.36427 0
M  V30 1846 C 173.596 2.43782 -3.51787 0
M  V30 1847 C 172.922 3.82078 -3.7406 0
M  V30 1848 C 174.222 1.93732 -4.85041 0
M  V30 1849 H 175.916 0.847534 -2.87154 0
M  V30 1850 H 173.462 0.40625 -1.38151 0
M  V30 1851 H 175.415 3.27458 -2.65234 0
M  V30 1852 H 174.139 2.92098 -1.46103 0
M  V30 1853 H 172.798 1.73178 -3.23117 0
M  V30 1854 H 172.446 4.17179 -2.81017 0
M  V30 1855 H 172.146 3.7584 -4.51684 0
M  V30 1856 H 173.67 4.56712 -4.05274 0
M  V30 1857 H 175.084 2.56569 -5.12684 0
M  V30 1858 H 173.481 1.98428 -5.66345 0
M  V30 1859 H 174.551 0.891962 -4.76626 0
M  V30 1860 N 175.894 1.51508 0.433938 0
M  V30 1861 C 176.804 1.75917 1.5521 0
M  V30 1862 C 177.82 0.643545 1.61662 0
M  V30 1863 O 178.996 0.926183 1.7884 0
M  V30 1864 C 176.061 1.88213 2.91164 0
M  V30 1865 C 175.122 3.12074 2.94802 0
M  V30 1866 C 174.355 3.23774 4.24271 0
M  V30 1867 O 174.578 2.4133 5.16833 0
M  V30 1868 O 173.512 4.16774 4.34262 0
M  V30 1869 H 177.338 2.70777 1.37527 0
M  V30 1870 H 174.923 1.36051 0.617293 0
M  V30 1871 H 176.805 1.98267 3.71845 0
M  V30 1872 H 175.48 0.965413 3.08968 0
M  V30 1873 H 174.387 3.07497 2.13065 0
M  V30 1874 H 175.72 4.03446 2.81943 0
M  V30 1875 N 177.372 -0.689602 1.41712 0
M  V30 1876 C 178.32 -1.82475 1.44242 0
M  V30 1877 C 179.314 -1.66354 0.319774 0
M  V30 1878 O 180.52 -1.73143 0.492089 0
M  V30 1879 H 176.895 -0.601416 0.451445 0
M  V30 1880 H 178.866 -1.77458 2.39899 0
M  V30 1881 C 177.615 -3.20535 1.3473 0
M  V30 1882 H 176.938 -3.33559 2.20405 0
M  V30 1883 H 178.378 -4.00023 1.40562 0
M  V30 1884 C 176.837 -3.36846 0.0603281 0
M  V30 1885 O 177.367 -3.91656 -0.892663 0
M  V30 1886 N 175.573 -2.90595 -0.0177039 0
M  V30 1887 H 175.12 -2.46178 0.758572 0
M  V30 1888 H 175.078 -3.01886 -0.878201 0
M  V30 1889 N 178.85 -1.27639 -0.924453 0
M  V30 1890 C 179.78 -1.13166 -2.04244 0
M  V30 1891 C 180.761 -0.032256 -1.70069 0
M  V30 1892 O 181.946 -0.207328 -1.9309 0
M  V30 1893 C 179.076 -0.781496 -3.38393 0
M  V30 1894 C 178.03 -1.83449 -3.86692 0
M  V30 1895 C 177.356 -1.33822 -5.17683 0
M  V30 1896 C 178.656 -3.23917 -4.09726 0
M  V30 1897 H 180.35 -2.06689 -2.1661 0
M  V30 1898 H 177.896 -0.995136 -1.04082 0
M  V30 1899 H 179.849 -0.667057 -4.16087 0
M  V30 1900 H 178.573 0.189439 -3.2605 0
M  V30 1901 H 177.232 -1.93789 -3.11193 0
M  V30 1902 H 176.88 -0.35665 -5.01734 0
M  V30 1903 H 176.58 -2.04224 -5.50968 0
M  V30 1904 H 178.104 -1.23679 -5.97943 0
M  V30 1905 H 179.518 -3.16559 -4.77978 0
M  V30 1906 H 177.915 -3.92059 -4.54324 0
M  V30 1907 H 178.985 -3.68729 -3.14908 0
M  V30 1908 N 180.328 1.1314 -1.09713 0
M  V30 1909 C 181.744 1.36477 -0.827423 0
M  V30 1910 C 181.944 1.93654 0.556817 0
M  V30 1911 O 181 2.15791 1.31112 0
M  V30 1912 C 182.313 2.31334 -1.92106 0
M  V30 1913 C 183.861 2.44943 -1.94864 0
M  V30 1914 C 184.336 3.4311 -3.0338 0
M  V30 1915 N 185.827 3.50662 -3.02639 0
M  V30 1916 C 186.562 4.2651 -3.83246 0
M  V30 1917 N 186.058 5.05485 -4.73768 0
M  V30 1918 N 187.851 4.2184 -3.71493 0
M  V30 1919 H 180.002 0.743807 -1.9895 0
M  V30 1920 H 182.265 0.389823 -0.864143 0
M  V30 1921 H 181.971 1.96483 -2.91698 0
M  V30 1922 H 181.845 3.31381 -1.80184 0
M  V30 1923 H 184.232 2.79079 -0.959099 0
M  V30 1924 H 184.313 1.4481 -2.10864 0
M  V30 1925 H 183.957 3.09704 -4.02549 0
M  V30 1926 H 183.887 4.43055 -2.84622 0
M  V30 1927 H 186.378 2.94315 -2.37039 0
M  V30 1928 H 186.691 5.60675 -5.3185 0
M  V30 1929 H 185.036 5.04708 -4.77802 0
M  V30 1930 H 188.227 3.5922 -3.00131 0
M  V30 1931 H 188.4 4.80697 -4.3455 0
M  V30 1932 N 181.806 0.884767 1.30421 0
M  V30 1933 C 183.053 0.503105 1.96151 0
M  V30 1934 C 183.381 -0.947676 1.69851 0
M  V30 1935 O 182.636 -1.68467 0.995861 0
M  V30 1936 C 182.935 0.724318 3.49983 0
M  V30 1937 C 182.601 2.15015 3.96332 0
M  V30 1938 C 181.263 2.54005 4.08699 0
M  V30 1939 C 183.615 3.07936 4.20505 0
M  V30 1940 C 180.943 3.85128 4.42599 0
M  V30 1941 C 183.295 4.3859 4.55874 0
M  V30 1942 C 181.959 4.77474 4.66449 0
M  V30 1943 H 181.229 0.184099 0.717766 0
M  V30 1944 H 183.876 1.12058 1.55291 0
M  V30 1945 H 182.181 0.0238086 3.91793 0
M  V30 1946 H 183.878 0.408617 3.98913 0
M  V30 1947 H 180.468 1.8375 3.87213 0
M  V30 1948 H 184.652 2.79033 4.10431 0
M  V30 1949 H 179.908 4.14996 4.48986 0
M  V30 1950 H 184.082 5.10629 4.7353 0
M  V30 1951 H 181.709 5.79115 4.92473 0
M  V30 1952 N 183.284 -1.43765 0.645699 0
M  V30 1953 C 184.234 -2.27884 -0.0726442 0
M  V30 1954 C 185.218 -1.39483 -0.802086 0
M  V30 1955 O 186.41 -1.63174 -0.685791 0
M  V30 1956 C 183.539 -3.27055 -1.04356 0
M  V30 1957 C 182.625 -4.22944 -0.312985 0
M  V30 1958 N 183.016 -5.01391 0.666386 0
M  V30 1959 C 181.314 -4.42528 -0.55546 0
M  V30 1960 C 182.015 -5.71217 1.09935 0
M  V30 1961 N 180.991 -5.41856 0.435137 0
M  V30 1962 H 184.793 -2.85949 0.678988 0
M  V30 1963 H 182.307 -1.55378 0.472368 0
M  V30 1964 H 184.304 -3.86089 -1.57292 0
M  V30 1965 H 182.964 -2.70551 -1.79534 0
M  V30 1966 H 183.975 -5.07252 1.04481 0
M  V30 1967 H 180.652 -3.97104 -1.28899 0
M  V30 1968 H 182.042 -6.44202 1.90929 0
M  V30 1969 N 184.763 -0.387143 -1.52771 0
M  V30 1970 C 186.009 0.196025 -2.0185 0
M  V30 1971 C 186.342 1.46641 -1.27319 0
M  V30 1972 O 185.617 1.90889 -0.373032 0
M  V30 1973 C 185.9 0.466136 -3.5707 0
M  V30 1974 C 185.753 -0.819385 -4.42274 0
M  V30 1975 C 187.072 1.25768 -4.21747 0
M  V30 1976 H 184.191 0.0697708 -0.73369 0
M  V30 1977 H 186.833 -0.516286 -1.82851 0
M  V30 1978 H 184.983 1.07293 -3.7339 0
M  V30 1979 H 186.655 -1.4563 -4.37709 0
M  V30 1980 H 184.898 -1.43517 -4.09372 0
M  V30 1981 H 185.569 -0.585065 -5.48891 0
M  V30 1982 H 188.045 0.744167 -4.09391 0
M  V30 1983 H 186.921 1.41541 -5.30337 0
M  V30 1984 H 187.182 2.27228 -3.79236 0
M  V30 1985 N 186.241 1.57166 -0.116904 0
M  V30 1986 C 187.151 2.18745 0.847812 0
M  V30 1987 C 188.167 1.163 1.29423 0
M  V30 1988 O 189.343 1.48761 1.35765 0
M  V30 1989 C 186.408 2.77307 2.0809 0
M  V30 1990 C 185.469 3.94781 1.68661 0
M  V30 1991 C 184.702 4.50541 2.86091 0
M  V30 1992 O 184.925 4.05202 4.01456 0
M  V30 1993 O 183.859 5.41256 2.63298 0
M  V30 1994 H 187.685 3.01632 0.353778 0
M  V30 1995 H 185.27 1.49005 0.108599 0
M  V30 1996 H 187.152 3.14647 2.80313 0
M  V30 1997 H 185.827 1.97452 2.56504 0
M  V30 1998 H 184.734 3.62214 0.935518 0
M  V30 1999 H 186.067 4.76065 1.24991 0
M  V30 2000 N 187.719 -0.156864 1.56817 0
M  V30 2001 C 188.629 -1.2136 2.00771 0
M  V30 2002 C 189.645 -1.47598 0.921459 0
M  V30 2003 O 190.821 -1.59462 1.2302 0
M  V30 2004 C 187.886 -2.52943 2.37109 0
M  V30 2005 C 186.947 -2.34439 3.59634 0
M  V30 2006 C 186.18 -3.59748 3.94229 0
M  V30 2007 O 186.403 -4.65526 3.29609 0
M  V30 2008 O 185.337 -3.52998 4.8752 0
M  V30 2009 H 189.163 -0.870468 2.90958 0
M  V30 2010 H 186.748 -0.36484 1.44877 0
M  V30 2011 H 188.63 -3.30538 2.61386 0
M  V30 2012 H 187.305 -2.86806 1.5008 0
M  V30 2013 H 186.212 -1.54828 3.40557 0
M  V30 2014 H 187.545 -2.05496 4.4725 0
M  V30 2015 N 189.197 -1.51736 -0.425897 0
M  V30 2016 C 190.107 -1.76738 -1.54275 0
M  V30 2017 C 191.123 -0.65211 -1.61318 0
M  V30 2018 O 192.299 -0.935654 -1.78346 0
M  V30 2019 C 189.364 -1.89755 -2.90162 0
M  V30 2020 C 188.425 -3.13633 -2.93143 0
M  V30 2021 C 187.658 -3.2602 -4.22548 0
M  V30 2022 O 187.881 -2.44067 -5.15546 0
M  V30 2023 O 186.815 -4.19071 -4.32046 0
M  V30 2024 H 190.641 -2.71502 -1.36089 0
M  V30 2025 H 188.226 -1.36376 -0.610069 0
M  V30 2026 H 190.108 -2.00236 -3.70788 0
M  V30 2027 H 188.783 -0.981785 -3.08452 0
M  V30 2028 H 187.69 -3.08622 -2.11431 0
M  V30 2029 H 189.023 -4.04936 -2.798 0
M  V30 2030 N 190.675 0.682077 -1.42076 0
M  V30 2031 C 191.923 1.4393 -1.41876 0
M  V30 2032 C 192.244 1.94971 -0.0335599 0
M  V30 2033 O 191.514 1.72591 0.926773 0
M  V30 2034 H 190.094 0.534085 -0.522267 0
M  V30 2035 H 192.756 0.806427 -1.77434 0
M  V30 2036 H 191.852 2.29588 -2.11414 0
M  V30 2037 N 192.153 1.28127 0.917671 0
M  V30 2038 C 193.1 1.11717 2.0196 0
M  V30 2039 C 194.07 0.0153929 1.66093 0
M  V30 2040 O 195.255 0.179596 1.89953 0
M  V30 2041 C 192.395 0.780927 3.36148 0
M  V30 2042 C 191.508 1.96135 3.84909 0
M  V30 2043 C 190.643 1.56609 5.0759 0
M  V30 2044 C 189.682 2.71339 5.48673 0
M  V30 2045 N 188.819 2.32332 6.62545 0
M  V30 2046 H 193.659 2.06003 2.15329 0
M  V30 2047 H 191.196 1.02535 1.05475 0
M  V30 2048 H 193.154 0.56675 4.13333 0
M  V30 2049 H 191.784 -0.124998 3.22558 0
M  V30 2050 H 190.836 2.28777 3.03916 0
M  V30 2051 H 192.148 2.82165 4.1132 0
M  V30 2052 H 191.302 1.31374 5.92305 0
M  V30 2053 H 190.041 0.677014 4.82978 0
M  V30 2054 H 189.046 2.97276 4.62501 0
M  V30 2055 H 190.271 3.60882 5.75274 0
M  V30 2056 H 188.217 1.45889 6.39572 0
M  V30 2057 H 188.134 3.11899 6.88662 0
M  V30 2058 H 189.402 2.10371 7.50576 0
M  V30 2059 N 193.631 -1.12557 1.10312 0
M  V30 2060 C 194.879 -1.83675 0.843091 0
M  V30 2061 C 195.2 -1.84435 -0.633131 0
M  V30 2062 O 194.47 -1.30657 -1.45964 0
M  V30 2063 H 193.05 -0.680138 0.308904 0
M  V30 2064 H 195.712 -1.36301 1.39313 0
M  V30 2065 H 194.808 -2.87908 1.2048 0
M  V30 2066 N 195.109 -0.891671 -1.2995 0
M  V30 2067 C 196.056 -0.361736 -2.27948 0
M  V30 2068 C 197.026 0.551761 -1.56668 0
M  V30 2069 O 198.211 0.478736 -1.84696 0
M  V30 2070 C 195.351 0.411825 -3.42634 0
M  V30 2071 C 194.464 -0.531651 -4.28716 0
M  V30 2072 C 193.599 0.258167 -5.30572 0
M  V30 2073 C 192.638 -0.680349 -6.08307 0
M  V30 2074 N 191.775 0.0745613 -7.0206 0
M  V30 2075 H 196.615 -1.20254 -2.72659 0
M  V30 2076 H 194.152 -0.604352 -1.34112 0
M  V30 2077 H 196.11 0.876304 -4.07893 0
M  V30 2078 H 194.74 1.21715 -2.98974 0
M  V30 2079 H 193.792 -1.11463 -3.63703 0
M  V30 2080 H 195.104 -1.25038 -4.82874 0
M  V30 2081 H 194.258 0.784204 -6.0161 0
M  V30 2082 H 192.997 1.01008 -4.77126 0
M  V30 2083 H 192.002 -1.21796 -5.3614 0
M  V30 2084 H 193.227 -1.43145 -6.63842 0
M  V30 2085 H 191.173 0.808883 -6.50994 0
M  V30 2086 H 191.09 -0.584409 -7.53738 0
M  V30 2087 H 192.358 0.581123 -7.77331 0
M  V30 2088 N 196.587 1.43421 -0.653314 0
M  V30 2089 C 197.864 1.95361 -0.0966581 0
M  V30 2090 C 198.244 1.59461 1.38331 0
M  V30 2091 O 197.592 0.879777 2.10884 0
M  V30 2092 C 197.802 3.47311 -0.342988 0
M  V30 2093 C 199.15 4.23875 -0.24798 0
M  V30 2094 O 200.174 3.55133 -0.275553 0
M  V30 2095 O 199.033 5.4623 -0.171771 0
M  V30 2096 H 196.127 0.826945 0.00956291 0
M  V30 2097 H 198.673 1.5336 -0.726558 0
M  V30 2098 H 197.445 3.66569 -1.36906 0
M  V30 2099 H 197.068 3.9631 0.319975 0
M  V30 2100 N 198.065 0.39524 1.52563 0
M  V30 2101 C 199.028 -0.425001 2.25225 0
M  V30 2102 C 200.028 -0.985266 1.27079 0
M  V30 2103 O 201.218 -0.866332 1.5113 0
M  V30 2104 C 198.35 -1.59686 3.01186 0
M  V30 2105 H 199.543 0.211233 2.99155 0
M  V30 2106 H 197.096 0.147472 1.55603 0
M  V30 2107 H 197.831 -2.27035 2.31572 0
M  V30 2108 H 197.616 -1.20176 3.73229 0
M  V30 2109 H 199.106 -2.17743 3.5634 0
M  V30 2110 N 199.544 -1.57102 0.125237 0
M  V30 2111 C 200.769 -2.0019 -0.542101 0
M  V30 2112 C 201.194 -1.00449 -1.59034 0
M  V30 2113 O 200.552 0.0229423 -1.81285 0
M  V30 2114 C 200.6 -3.42129 -1.13929 0
M  V30 2115 O 199.704 -3.45307 -2.2547 0
M  V30 2116 H 199.045 -0.650171 -0.134812 0
M  V30 2117 H 201.575 -2.03461 0.215553 0
M  V30 2118 H 201.585 -3.80471 -1.4733 0
M  V30 2119 H 200.26 -4.14237 -0.371531 0
M  V30 2120 H 198.837 -3.1879 -1.93462 0
M  V30 2121 N 201.022 0.148545 -1.56898 0
M  V30 2122 C 202.27 0.859717 -1.82902 0
M  V30 2123 C 202.591 1.81775 -0.70588 0
M  V30 2124 O 201.861 1.93994 0.272586 0
M  V30 2125 H 200.441 0.320469 -0.674766 0
M  V30 2126 H 203.103 0.142918 -1.94375 0
M  V30 2127 H 202.199 1.4229 -2.77777 0
M  V30 2128 N 202.5 1.5196 0.417844 0
M  V30 2129 C 203.448 1.75278 1.52907 0
M  V30 2130 C 204.442 0.619611 1.57662 0
M  V30 2131 O 205.648 0.801457 1.61173 0
M  V30 2132 H 202.023 0.554141 0.508362 0
M  V30 2133 H 203.994 2.68389 1.30422 0
M  V30 2134 C 202.743 1.91262 2.90369 0
M  V30 2135 H 202.066 2.77872 2.8745 0
M  V30 2136 H 203.506 2.11581 3.67436 0
M  V30 2137 C 201.965 0.677431 3.30019 0
M  V30 2138 O 202.495 -0.158799 4.01386 0
M  V30 2139 N 200.701 0.515851 2.85985 0
M  V30 2140 H 200.248 1.19744 2.28077 0
M  V30 2141 H 200.206 -0.309315 3.12875 0
M  V30 2142 N 203.978 -0.674533 1.42435 0
M  V30 2143 C 204.925 -1.78807 1.45934 0
M  V30 2144 C 205.895 -1.63157 0.311271 0
M  V30 2145 O 207.08 -1.83707 0.515383 0
M  V30 2146 C 204.22 -3.16839 1.36773 0
M  V30 2147 C 203.333 -3.43774 2.61617 0
M  V30 2148 C 202.468 -4.71536 2.44597 0
M  V30 2149 C 201.507 -4.91505 3.64814 0
M  V30 2150 N 200.644 -6.10508 3.46734 0
M  V30 2151 H 205.484 -1.75151 2.41093 0
M  V30 2152 H 203.021 -0.85504 1.19697 0
M  V30 2153 H 204.979 -3.96606 1.29459 0
M  V30 2154 H 203.609 -3.19619 0.452089 0
M  V30 2155 H 202.661 -2.58259 2.79297 0
M  V30 2156 H 203.973 -3.54423 3.50978 0
M  V30 2157 H 203.127 -5.59393 2.3487 0
M  V30 2158 H 201.866 -4.6317 1.52726 0
M  V30 2159 H 200.871 -4.0209 3.74972 0
M  V30 2160 H 202.096 -5.01716 4.57665 0
M  V30 2161 H 200.042 -6.03315 2.5758 0
M  V30 2162 H 199.959 -6.2202 4.29682 0
M  V30 2163 H 201.227 -7.01044 3.40819 0
M  V30 2164 N 205.456 -1.28612 -0.910864 0
M  V30 2165 C 206.702 -1.16106 -1.66274 0
M  V30 2166 C 207.035 0.289113 -1.92036 0
M  V30 2167 O 206.31 1.21 -1.52281 0
M  V30 2168 C 206.593 -1.96309 -3.01885 0
M  V30 2169 C 206.446 -3.49405 -2.8326 0
M  V30 2170 C 207.765 -1.78076 -4.02463 0
M  V30 2171 H 204.884 -0.423152 -0.603417 0
M  V30 2172 H 207.526 -1.57961 -1.05586 0
M  V30 2173 H 205.676 -1.60742 -3.53687 0
M  V30 2174 H 207.348 -3.94894 -2.38446 0
M  V30 2175 H 205.591 -3.74893 -2.18261 0
M  V30 2176 H 206.262 -4.00784 -3.79574 0
M  V30 2177 H 208.738 -2.0912 -3.59733 0
M  V30 2178 H 207.614 -2.36561 -4.95308 0
M  V30 2179 H 207.875 -0.733008 -4.35981 0
M  V30 2180 N 206.934 1.1197 -1.10907 0
M  V30 2181 C 207.881 2.17846 -0.762345 0
M  V30 2182 C 208.851 1.63995 0.263599 0
M  V30 2183 O 210.036 1.90273 0.141773 0
M  V30 2184 C 207.176 3.44487 -0.205651 0
M  V30 2185 C 206.289 4.12369 -1.28748 0
M  V30 2186 C 205.424 5.26674 -0.691919 0
M  V30 2187 C 204.463 5.86431 -1.75399 0
M  V30 2188 N 203.6 6.92142 -1.17833 0
M  V30 2189 H 208.44 2.46851 -1.6694 0
M  V30 2190 H 205.977 1.21188 -0.833776 0
M  V30 2191 H 207.935 4.16981 0.135037 0
M  V30 2192 H 206.565 3.15884 0.664613 0
M  V30 2193 H 205.617 3.38003 -1.74522 0
M  V30 2194 H 206.929 4.52844 -2.09125 0
M  V30 2195 H 206.083 6.05953 -0.300963 0
M  V30 2196 H 204.822 4.8749 0.143232 0
M  V30 2197 H 203.827 5.05835 -2.15432 0
M  V30 2198 H 205.052 6.27685 -2.59208 0
M  V30 2199 H 202.998 6.54985 -0.364725 0
M  V30 2200 H 202.915 7.31242 -1.91887 0
M  V30 2201 H 204.183 7.75237 -0.81408 0
M  V30 2202 N 208.412 0.89855 1.29475 0
M  V30 2203 C 209.375 0.380272 2.26023 0
M  V30 2204 C 210.375 -0.484891 1.53315 0
M  V30 2205 O 211.565 -0.290108 1.71767 0
M  V30 2206 C 208.697 -0.45651 3.3783 0
M  V30 2207 H 209.89 1.23295 2.73383 0
M  V30 2208 H 207.443 0.676589 1.40897 0
M  V30 2209 H 208.178 -1.32922 2.95808 0
M  V30 2210 H 207.963 0.163393 3.91759 0
M  V30 2211 H 209.453 -0.810466 4.0966 0
M  V30 2212 N 209.89 -1.43072 0.660911 0
M  V30 2213 C 210.8 -2.34585 -0.0264163 0
M  V30 2214 C 211.816 -1.54316 -0.803898 0
M  V30 2215 O 212.992 -1.86939 -0.749391 0
M  V30 2216 C 210.057 -3.32689 -0.975639 0
M  V30 2217 C 209.118 -4.2886 -0.194236 0
M  V30 2218 C 208.351 -5.22278 -1.09825 0
M  V30 2219 O 208.574 -5.20299 -2.33763 0
M  V30 2220 O 207.508 -5.99228 -0.566513 0
M  V30 2221 H 211.334 -2.94869 0.727034 0
M  V30 2222 H 208.919 -1.43342 0.42111 0
M  V30 2223 H 210.801 -3.92995 -1.52094 0
M  V30 2224 H 209.476 -2.74898 -1.70918 0
M  V30 2225 H 208.383 -3.72011 0.394835 0
M  V30 2226 H 209.716 -4.89655 0.499899 0
M  V30 2227 N 211.368 -0.403325 -1.52352 0
M  V30 2228 C 212.779 0.0675782 -1.86578 0
M  V30 2229 C 213.13 1.44941 -1.32236 0
M  V30 2230 O 212.255 2.06112 -0.659307 0
M  V30 2231 C 212.85 0.129404 -3.38553 0
M  V30 2232 C 211.409 0.544629 -3.72439 0
M  V30 2233 C 210.556 -0.284551 -2.75836 0
M  V30 2234 H 213.507 -0.620631 -1.46061 0
M  V30 2235 H 213.528 0.94581 -3.68558 0
M  V30 2236 H 213.04 -0.87645 -3.78074 0
M  V30 2237 H 211.141 1.55734 -3.38493 0
M  V30 2238 H 211.254 0.293046 -4.78203 0
M  V30 2239 H 209.618 0.252258 -2.53448 0
M  V30 2240 H 210.401 -1.28865 -3.18196 0
M  V30 2241 N 212.846 1.57033 -0.133567 0
M  V30 2242 C 213.809 2.14897 0.796995 0
M  V30 2243 C 214.809 1.0874 1.18458 0
M  V30 2244 O 215.999 1.34446 1.1077 0
M  V30 2245 C 213.131 2.70112 2.07973 0
M  V30 2246 H 214.324 2.98457 0.293873 0
M  V30 2247 H 211.877 1.55871 0.115787 0
M  V30 2248 H 212.612 1.9018 2.62682 0
M  V30 2249 H 212.397 3.47764 1.81115 0
M  V30 2250 H 213.887 3.14738 2.74462 0
M  V30 2251 N 214.325 -0.140222 1.56975 0
M  V30 2252 C 215.272 -1.17292 1.98774 0
M  V30 2253 C 216.242 -1.4232 0.856408 0
M  V30 2254 O 217.427 -1.54541 1.119 0
M  V30 2255 C 214.567 -2.49973 2.37923 0
M  V30 2256 C 213.68 -2.32062 3.64378 0
M  V30 2257 C 212.815 -3.57825 3.926 0
M  V30 2258 C 211.854 -3.3498 5.12303 0
M  V30 2259 N 210.991 -4.52891 5.36502 0
M  V30 2260 H 215.831 -0.809472 2.86795 0
M  V30 2261 H 213.368 -0.388237 1.41884 0
M  V30 2262 H 215.326 -3.27346 2.58652 0
M  V30 2263 H 213.956 -2.84252 1.52972 0
M  V30 2264 H 213.008 -1.45711 3.51387 0
M  V30 2265 H 214.32 -2.11145 4.51906 0
M  V30 2266 H 213.474 -4.43624 4.13863 0
M  V30 2267 H 212.213 -3.81753 3.03506 0
M  V30 2268 H 211.218 -2.4757 4.90906 0
M  V30 2269 H 212.443 -3.12444 6.02956 0
M  V30 2270 H 210.389 -4.76979 4.50363 0
M  V30 2271 H 210.306 -4.35001 6.18312 0
M  V30 2272 H 211.574 -5.39884 5.62268 0
M  V30 2273 N 215.803 -1.52179 -0.40978 0
M  V30 2274 C 217.052 -1.65434 -1.15388 0
M  V30 2275 C 217.365 -0.390056 -1.91671 0
M  V30 2276 O 218.571 -0.402399 -2.68501 0
M  V30 2277 C 217.027 -2.92279 -2.10003 0
M  V30 2278 C 216.635 -4.25813 -1.39239 0
M  V30 2279 C 218.379 -3.14897 -2.84675 0
M  V30 2280 C 216.286 -5.43782 -2.32498 0
M  V30 2281 H 215.216 -0.616267 -0.434432 0
M  V30 2282 H 217.867 -1.78666 -0.418401 0
M  V30 2283 H 216.249 -2.72744 -2.871 0
M  V30 2284 H 217.423 -4.55828 -0.675099 0
M  V30 2285 H 215.738 -4.09292 -0.766097 0
M  V30 2286 H 218.335 -4.0021 -3.54593 0
M  V30 2287 H 218.678 -2.29103 -3.47588 0
M  V30 2288 H 219.211 -3.34901 -2.14677 0
M  V30 2289 H 215.95 -6.3192 -1.74233 0
M  V30 2290 H 215.47 -5.18106 -3.02201 0
M  V30 2291 H 217.149 -5.76834 -2.93038 0
M  V30 2292 N 217.281 0.66697 -1.42791 0
M  V30 2293 C 218.191 1.80962 -1.49299 0
M  V30 2294 C 219.207 1.69775 -0.381108 0
M  V30 2295 O 220.383 1.91188 -0.633188 0
M  V30 2296 C 217.448 3.17156 -1.40045 0
M  V30 2297 C 216.509 3.40242 -2.6179 0
M  V30 2298 C 215.742 4.69939 -2.52969 0
M  V30 2299 O 215.965 5.48372 -1.56985 0
M  V30 2300 O 214.899 4.94441 -3.43237 0
M  V30 2301 H 218.725 1.78427 -2.45759 0
M  V30 2302 H 216.31 0.823713 -1.24641 0
M  V30 2303 H 218.192 3.98413 -1.37276 0
M  V30 2304 H 216.867 3.20312 -0.467138 0
M  V30 2305 H 215.774 2.58802 -2.70134 0
M  V30 2306 H 217.107 3.41923 -3.54047 0
M  V30 2307 N 218.759 1.29093 0.90403 0
M  V30 2308 C 219.722 1.1386 1.98919 0
M  V30 2309 C 220.722 0.0753457 1.60623 0
M  V30 2310 O 221.912 0.321931 1.71199 0
M  V30 2311 C 219.044 0.740198 3.32767 0
M  V30 2312 H 220.237 2.10246 2.13861 0
M  V30 2313 H 217.79 1.12218 1.08797 0
M  V30 2314 H 218.525 -0.223997 3.23525 0
M  V30 2315 H 218.31 1.50838 3.61926 0
M  V30 2316 H 219.8 0.656546 4.12407 0
M  V30 2317 N 220.237 -1.11381 1.11499 0
M  V30 2318 C 221.484 -1.83132 0.864231 0
M  V30 2319 C 221.812 -1.84683 -0.610114 0
M  V30 2320 O 221.067 -1.29589 -1.46646 0
M  V30 2321 C 221.366 -3.30026 1.37177 0
M  V30 2322 C 221.032 -3.48634 2.85946 0
M  V30 2323 C 219.694 -3.53421 3.26569 0
M  V30 2324 C 222.046 -3.54837 3.81759 0
M  V30 2325 C 219.374 -3.61967 4.61733 0
M  V30 2326 C 221.726 -3.64915 5.1674 0
M  V30 2327 C 220.39 -3.67962 5.5692 0
M  V30 2328 H 219.66 -0.670127 0.316245 0
M  V30 2329 H 222.307 -1.31354 1.3935 0
M  V30 2330 H 220.612 -3.84304 0.762753 0
M  V30 2331 H 222.309 -3.84034 1.15408 0
M  V30 2332 H 218.899 -3.45579 2.53521 0
M  V30 2333 H 223.083 -3.50399 3.51474 0
M  V30 2334 H 218.339 -3.62603 4.92269 0
M  V30 2335 H 222.513 -3.68658 5.90816 0
M  V30 2336 H 220.14 -3.74336 6.61647 0
M  V30 2337 N 221.715 -0.905404 -1.28997 0
M  V30 2338 C 223.131 -0.60233 -1.47798 0
M  V30 2339 C 223.331 0.854645 -1.82478 0
M  V30 2340 O 222.387 1.63439 -1.92468 0
M  V30 2341 C 223.7 -1.53306 -2.58685 0
M  V30 2342 C 225.248 -1.53887 -2.72558 0
M  V30 2343 C 225.723 -2.45602 -3.86579 0
M  V30 2344 N 227.214 -2.43681 -3.93921 0
M  V30 2345 C 227.949 -3.11347 -4.81509 0
M  V30 2346 N 227.445 -3.88313 -5.73746 0
M  V30 2347 N 229.238 -3.00476 -4.75048 0
M  V30 2348 H 221.389 -1.84765 -1.04764 0
M  V30 2349 H 223.652 -0.792025 -0.520961 0
M  V30 2350 H 223.358 -2.57141 -2.39941 0
M  V30 2351 H 223.232 -1.25787 -3.55609 0
M  V30 2352 H 225.619 -0.507941 -2.90696 0
M  V30 2353 H 225.7 -1.85447 -1.76191 0
M  V30 2354 H 225.344 -3.48792 -3.69197 0
M  V30 2355 H 225.274 -2.11349 -4.82327 0
M  V30 2356 H 227.765 -1.87767 -3.27951 0
M  V30 2357 H 228.078 -4.36985 -6.37389 0
M  V30 2358 H 226.423 -3.92419 -5.73614 0
M  V30 2359 H 229.614 -2.39858 -4.01977 0
M  V30 2360 H 229.787 -3.53485 -5.43095 0
M  V30 2361 N 223.193 1.4272 -0.668489 0
M  V30 2362 C 224.156 2.292 0.00448567 0
M  V30 2363 C 225.156 1.43001 0.735339 0
M  V30 2364 O 226.346 1.64461 0.57429 0
M  V30 2365 C 223.478 3.25375 1.01705 0
M  V30 2366 H 224.671 2.90199 -0.756608 0
M  V30 2367 H 222.224 1.50254 -0.430506 0
M  V30 2368 H 222.959 2.69301 1.80686 0
M  V30 2369 H 222.744 3.88944 0.496463 0
M  V30 2370 H 224.234 3.90245 1.48655 0
M  V30 2371 N 224.671 0.411399 1.52136 0
M  V30 2372 C 225.896 -0.165538 2.06738 0
M  V30 2373 C 226.321 -1.379 1.27926 0
M  V30 2374 O 225.679 -1.78628 0.310114 0
M  V30 2375 C 225.727 -0.492124 3.57226 0
M  V30 2376 O 224.831 -1.58276 3.80818 0
M  V30 2377 H 224.172 -0.0132132 0.663869 0
M  V30 2378 H 226.702 0.585253 1.96051 0
M  V30 2379 H 226.712 -0.750104 4.01045 0
M  V30 2380 H 225.387 0.394922 4.14021 0
M  V30 2381 H 223.964 -1.31677 3.48877 0
M  V30 2382 N 226.149 -1.5696 0.141893 0
M  V30 2383 C 227.079 -2.19516 -0.795936 0
M  V30 2384 C 228.06 -1.14187 -1.26077 0
M  V30 2385 O 229.245 -1.42511 -1.31925 0
M  V30 2386 C 226.375 -2.81272 -2.03723 0
M  V30 2387 C 225.329 -3.92384 -1.70936 0
M  V30 2388 C 224.655 -4.41052 -3.02287 0
M  V30 2389 C 225.955 -5.13403 -0.959954 0
M  V30 2390 H 227.649 -2.98138 -0.274596 0
M  V30 2391 H 225.195 -1.43406 -0.130636 0
M  V30 2392 H 227.148 -3.237 -2.69808 0
M  V30 2393 H 225.872 -1.99973 -2.58221 0
M  V30 2394 H 224.531 -3.50566 -1.07232 0
M  V30 2395 H 224.179 -3.56582 -3.54765 0
M  V30 2396 H 223.879 -5.15993 -2.81114 0
M  V30 2397 H 225.403 -4.86146 -3.69451 0
M  V30 2398 H 226.817 -5.52706 -1.52279 0
M  V30 2399 H 225.214 -5.94073 -0.848357 0
M  V30 2400 H 226.284 -4.84875 0.0492434 0
M  V30 2401 N 227.627 0.131896 -1.57047 0
M  V30 2402 C 228.852 0.860418 -1.8871 0
M  V30 2403 C 229.277 1.73251 -0.73251 0
M  V30 2404 O 228.635 1.785 0.317429 0
M  V30 2405 C 228.683 1.68047 -3.19049 0
M  V30 2406 O 227.787 2.7862 -3.04047 0
M  V30 2407 H 227.128 0.238743 -0.619595 0
M  V30 2408 H 229.658 0.118169 -2.04258 0
M  V30 2409 H 229.668 2.07238 -3.51449 0
M  V30 2410 H 228.343 1.04018 -4.02682 0
M  V30 2411 H 226.92 2.42726 -2.83088 0
M  V30 2412 N 229.106 1.52395 0.401703 0
M  V30 2413 C 230.053 1.76268 1.48991 0
M  V30 2414 C 231.023 0.605386 1.54675 0
M  V30 2415 O 232.208 0.843742 1.7113 0
M  V30 2416 C 229.348 1.92592 2.86361 0
M  V30 2417 C 228.461 3.20259 2.89928 0
M  V30 2418 C 227.596 3.26972 4.18644 0
M  V30 2419 C 226.635 4.48812 4.16214 0
M  V30 2420 N 225.772 4.52877 5.36514 0
M  V30 2421 H 230.612 2.6914 1.27935 0
M  V30 2422 H 228.149 1.33355 0.620871 0
M  V30 2423 H 230.107 2.0004 3.66115 0
M  V30 2424 H 228.737 1.03093 3.05895 0
M  V30 2425 H 227.789 3.21945 2.02621 0
M  V30 2426 H 229.101 4.10056 2.83999 0
M  V30 2427 H 228.255 3.33533 5.06794 0
M  V30 2428 H 226.994 2.35126 4.27278 0
M  V30 2429 H 225.999 4.4239 3.26453 0
M  V30 2430 H 227.224 5.41961 4.09213 0
M  V30 2431 H 225.17 3.63917 5.45802 0
M  V30 2432 H 225.087 5.36529 5.32609 0
M  V30 2433 H 226.355 4.63676 6.26597 0
M  V30 2434 N 230.584 -0.659388 1.43143 0
M  V30 2435 C 231.514 -1.78422 1.50625 0
M  V30 2436 C 232.495 -1.66216 0.361443 0
M  V30 2437 O 233.68 -1.85404 0.577834 0
M  V30 2438 C 230.81 -3.16815 1.42287 0
M  V30 2439 C 229.764 -3.43777 2.54954 0
M  V30 2440 C 229.09 -4.81905 2.31671 0
M  V30 2441 C 230.39 -3.39134 3.97222 0
M  V30 2442 H 232.084 -1.72417 2.44771 0
M  V30 2443 H 229.63 -0.828084 1.17808 0
M  V30 2444 H 231.583 -3.95253 1.46127 0
M  V30 2445 H 230.307 -3.23534 0.446435 0
M  V30 2446 H 228.966 -2.67707 2.50457 0
M  V30 2447 H 228.614 -4.85294 1.32284 0
M  V30 2448 H 228.314 -5.00906 3.07192 0
M  V30 2449 H 229.838 -5.62609 2.37284 0
M  V30 2450 H 231.252 -4.07518 4.03239 0
M  V30 2451 H 229.649 -3.69671 4.72719 0
M  V30 2452 H 230.719 -2.37426 4.22797 0
M  V30 2453 N 232.062 -1.29571 -0.897171 0
M  V30 2454 C 233.31 -1.17456 -1.64464 0
M  V30 2455 C 233.631 0.273698 -1.9307 0
M  V30 2456 O 232.901 1.18684 -1.55855 0
M  V30 2457 H 231.481 -0.431706 -0.609622 0
M  V30 2458 H 234.143 -1.62531 -1.07562 0
M  V30 2459 H 233.239 -1.72648 -2.59998 0
M  V30 2460 N 233.54 1.10788 -1.12088 0
M  V30 2461 C 234.817 1.79136 -0.785476 0
M  V30 2462 C 235.197 1.98246 0.725377 0
M  V30 2463 O 234.545 1.57258 1.65778 0
M  V30 2464 C 234.755 3.12375 -1.55636 0
M  V30 2465 C 236.103 3.8731 -1.74001 0
M  V30 2466 O 237.127 3.22085 -1.52117 0
M  V30 2467 O 235.986 5.04369 -2.10415 0
M  V30 2468 H 233.08 0.776226 -0.285311 0
M  V30 2469 H 235.626 1.1747 -1.2247 0
M  V30 2470 H 234.398 2.93863 -2.5838 0
M  V30 2471 H 234.021 3.81758 -1.11114 0
M  V30 2472 N 235.018 0.912232 1.28515 0
M  V30 2473 C 236.264 0.545405 1.95328 0
M  V30 2474 C 236.597 -0.908313 1.71649 0
M  V30 2475 O 235.872 -1.64575 1.03659 0
M  V30 2476 C 236.155 0.853483 3.4984 0
M  V30 2477 C 236.008 2.35982 3.82926 0
M  V30 2478 C 237.327 0.348589 4.38717 0
M  V30 2479 H 234.446 0.199626 0.709449 0
M  V30 2480 H 237.088 1.1412 1.5191 0
M  V30 2481 H 235.238 0.34643 3.86952 0
M  V30 2482 H 236.91 2.93738 3.55691 0
M  V30 2483 H 235.153 2.81543 3.30024 0
M  V30 2484 H 235.824 2.52593 4.90816 0
M  V30 2485 H 238.3 0.78294 4.08668 0
M  V30 2486 H 237.176 0.593242 5.45685 0
M  V30 2487 H 237.437 -0.751049 4.35674 0
M  V30 2488 N 236.496 -1.42363 0.676048 0
M  V30 2489 C 237.726 -2.05561 0.206967 0
M  V30 2490 C 238.134 -1.50887 -1.14148 0
M  V30 2491 O 237.477 -0.643933 -1.72044 0
M  V30 2492 C 237.539 -3.5944 0.0659508 0
M  V30 2493 C 237.203 -4.36812 1.34331 0
M  V30 2494 C 238.2 -4.67383 2.27704 0
M  V30 2495 C 235.885 -4.76429 1.59125 0
M  V30 2496 C 237.879 -5.36509 3.44147 0
M  V30 2497 C 235.566 -5.45294 2.75857 0
M  V30 2498 C 236.564 -5.75259 3.68193 0
M  V30 2499 O 236.252 -6.42712 4.82883 0
M  V30 2500 H 235.984 -0.668872 0.0979084 0
M  V30 2501 H 238.538 -1.83467 0.923531 0
M  V30 2502 H 236.768 -3.80197 -0.706204 0
M  V30 2503 H 238.457 -4.0427 -0.363418 0
M  V30 2504 H 239.223 -4.37275 2.09799 0
M  V30 2505 H 235.102 -4.52498 0.881258 0
M  V30 2506 H 238.646 -5.59814 4.16238 0
M  V30 2507 H 234.543 -5.7482 2.93688 0
M  V30 2508 H 235.311 -6.61204 4.82444 0
M  V30 2509 N 237.974 -0.419461 -1.51915 0
M  V30 2510 C 239.22 0.153166 -2.02221 0
M  V30 2511 C 239.553 1.43907 -1.30401 0
M  V30 2512 O 238.828 1.90055 -0.413438 0
M  V30 2513 C 239.111 0.390291 -3.57979 0
M  V30 2514 C 238.964 -0.913014 -4.40436 0
M  V30 2515 C 240.283 1.16794 -4.2432 0
M  V30 2516 H 237.402 0.0541924 -0.735005 0
M  V30 2517 H 240.044 -0.554955 -1.81715 0
M  V30 2518 H 238.194 0.993491 -3.75582 0
M  V30 2519 H 239.866 -1.54882 -4.34522 0
M  V30 2520 H 238.109 -1.52168 -4.06236 0
M  V30 2521 H 238.78 -0.701361 -5.47526 0
M  V30 2522 H 241.256 0.657161 -4.10878 0
M  V30 2523 H 240.132 1.3026 -5.3322 0
M  V30 2524 H 240.393 2.19132 -3.83971 0
M  V30 2525 N 239.452 1.56882 -0.150215 0
M  V30 2526 C 240.4 2.18214 0.805313 0
M  V30 2527 C 241.394 1.14006 1.25296 0
M  V30 2528 O 242.6 1.3225 1.22107 0
M  V30 2529 H 238.975 0.698762 0.277913 0
M  V30 2530 H 240.946 2.97231 0.263862 0
M  V30 2531 C 239.695 2.82065 2.03309 0
M  V30 2532 H 239.018 3.61968 1.69763 0
M  V30 2533 H 240.458 3.28477 2.68103 0
M  V30 2534 C 238.917 1.80739 2.84315 0
M  V30 2535 O 239.447 1.27983 3.80767 0
M  V30 2536 N 237.653 1.4997 2.48913 0
M  V30 2537 H 237.2 1.93062 1.70542 0
M  V30 2538 H 237.158 0.824217 3.03404 0
M  V30 2539 N 240.93 -0.123565 1.57115 0
M  V30 2540 C 242.207 -0.862196 1.75572 0
M  V30 2541 C 242.587 -1.98279 0.724475 0
M  V30 2542 O 241.935 -2.27102 -0.252407 0
M  V30 2543 C 242.145 -1.38309 3.20424 0
M  V30 2544 C 243.493 -1.83724 3.82793 0
M  V30 2545 O 244.517 -1.47999 3.23998 0
M  V30 2546 O 243.376 -2.49685 4.86127 0
M  V30 2547 H 240.47 -0.409113 0.718718 0
M  V30 2548 H 243.016 -0.107661 1.69358 0
M  V30 2549 H 241.788 -0.578889 3.86994 0
M  V30 2550 H 241.411 -2.20046 3.31158 0
M  V30 2551 N 242.408 -1.52605 -0.393616 0
M  V30 2552 C 243.371 -1.76415 -1.46323 0
M  V30 2553 C 244.371 -0.634126 -1.47768 0
M  V30 2554 O 245.561 -0.902142 -1.4902 0
M  V30 2555 C 242.693 -1.8607 -2.85641 0
M  V30 2556 H 243.886 -2.71916 -1.26498 0
M  V30 2557 H 241.439 -1.43257 -0.625073 0
M  V30 2558 H 242.174 -0.925378 -3.10817 0
M  V30 2559 H 241.959 -2.68235 -2.85993 0
M  V30 2560 H 243.449 -2.06179 -3.63153 0
M  V30 2561 N 243.887 0.651787 -1.4349 0
M  V30 2562 C 245.134 1.41167 -1.45183 0
M  V30 2563 C 245.462 1.94349 -0.0766601 0
M  V30 2564 O 244.717 1.72804 0.918555 0
M  V30 2565 C 245.016 2.60914 -2.44251 0
M  V30 2566 C 244.682 2.26142 -3.9009 0
M  V30 2567 C 243.344 2.16371 -4.2981 0
M  V30 2568 C 245.696 1.98334 -4.81989 0
M  V30 2569 C 243.024 1.7695 -5.5938 0
M  V30 2570 C 245.376 1.6041 -6.11924 0
M  V30 2571 C 244.04 1.49166 -6.5062 0
M  V30 2572 H 243.31 0.516566 -0.531263 0
M  V30 2573 H 245.957 0.741099 -1.76579 0
M  V30 2574 H 244.262 3.3311 -2.06265 0
M  V30 2575 H 245.959 3.19127 -2.42815 0
M  V30 2576 H 242.549 2.34658 -3.58655 0
M  V30 2577 H 246.733 2.04803 -4.52072 0
M  V30 2578 H 241.989 1.66831 -5.88198 0
M  V30 2579 H 246.163 1.37925 -6.82605 0
M  V30 2580 H 243.79 1.1839 -7.50925 0
M  V30 2581 N 245.365 1.30045 0.890287 0
M  V30 2582 C 246.613 1.18327 1.63839 0
M  V30 2583 C 246.934 -0.263455 1.93212 0
M  V30 2584 O 246.204 -1.17856 1.56482 0
M  V30 2585 H 244.784 0.434933 0.607324 0
M  V30 2586 H 247.446 1.631 1.06698 0
M  V30 2587 H 246.542 1.74024 2.59079 0
M  V30 2588 N 246.843 -1.10192 1.12674 0
M  V30 2589 C 248.071 -1.85983 0.906527 0
M  V30 2590 C 248.486 -1.80783 -0.544333 0
M  V30 2591 O 247.843 -1.19834 -1.37645 0
M  V30 2592 C 247.894 -3.34281 1.37618 0
M  V30 2593 O 247.615 -3.39401 2.77017 0
M  V30 2594 C 249.116 -4.26938 1.19325 0
M  V30 2595 H 246.336 -0.587716 0.323775 0
M  V30 2596 H 248.88 -1.39284 1.49734 0
M  V30 2597 H 247.035 -3.78436 0.828539 0
M  V30 2598 H 247.449 -4.31838 2.97684 0
M  V30 2599 H 248.923 -5.29181 1.57071 0
M  V30 2600 H 249.4 -4.38995 0.134097 0
M  V30 2601 H 250.006 -3.8859 1.72852 0
M  V30 2602 N 248.321 -0.919034 -1.28029 0
M  V30 2603 C 249.284 -0.416182 -2.2539 0
M  V30 2604 C 250.284 0.460438 -1.54067 0
M  V30 2605 O 251.474 0.262744 -1.72207 0
M  V30 2606 C 248.606 0.402707 -3.38513 0
M  V30 2607 H 249.799 -1.27629 -2.71387 0
M  V30 2608 H 247.352 -0.698919 -1.39803 0
M  V30 2609 H 248.087 1.282 -2.97885 0
M  V30 2610 H 247.872 -0.225698 -3.9145 0
M  V30 2611 H 249.362 0.745191 -4.10897 0
M  V30 2612 N 249.799 1.42003 -0.683588 0
M  V30 2613 C 250.749 2.27997 0.0121992 0
M  V30 2614 C 251.733 1.4156 0.764822 0
M  V30 2615 O 252.925 1.64935 0.642287 0
M  V30 2616 C 250.054 3.29706 0.956482 0
M  V30 2617 C 249.14 4.23625 0.200739 0
M  V30 2618 N 249.531 4.99448 -0.799087 0
M  V30 2619 C 247.829 4.43845 0.437937 0
M  V30 2620 C 248.53 5.68102 -1.25041 0
M  V30 2621 N 247.506 5.40511 -0.578648 0
M  V30 2622 H 251.308 2.84048 -0.754564 0
M  V30 2623 H 248.822 1.54071 -0.513398 0
M  V30 2624 H 250.819 3.90124 1.47 0
M  V30 2625 H 249.479 2.75216 1.72297 0
M  V30 2626 H 250.49 5.04303 -1.17893 0
M  V30 2627 H 247.167 4.00382 1.18325 0
M  V30 2628 H 248.557 6.38913 -2.07942 0
M  V30 2629 N 251.277 0.427512 1.51691 0
M  V30 2630 C 252.693 0.0792977 1.59403 0
M  V30 2631 C 252.893 -1.41035 1.43914 0
M  V30 2632 O 251.949 -2.17922 1.27539 0
M  V30 2633 C 253.262 0.590636 2.94842 0
M  V30 2634 C 254.81 0.550215 3.08126 0
M  V30 2635 C 255.285 1.03836 4.46074 0
M  V30 2636 N 256.776 0.995943 4.52366 0
M  V30 2637 C 257.511 1.34463 5.57411 0
M  V30 2638 N 257.007 1.76569 6.69922 0
M  V30 2639 N 258.8 1.26343 5.47717 0
M  V30 2640 H 250.951 1.39687 1.60004 0
M  V30 2641 H 253.214 0.575003 0.753708 0
M  V30 2642 H 252.92 1.63251 3.11516 0
M  V30 2643 H 252.794 0.0102061 3.77199 0
M  V30 2644 H 255.181 -0.482654 2.91126 0
M  V30 2645 H 255.262 1.16693 2.27632 0
M  V30 2646 H 254.906 2.06965 4.63819 0
M  V30 2647 H 254.836 0.398286 5.25092 0
M  V30 2648 H 257.327 0.68661 3.7161 0
M  V30 2649 H 257.64 2.01438 7.46085 0
M  V30 2650 H 255.985 1.80488 6.71155 0
M  V30 2651 H 259.176 0.933209 4.58703 0
M  V30 2652 H 259.349 1.53846 6.29472 0
M  V30 2653 N 252.755 -1.56801 0.158532 0
M  V30 2654 C 253.718 -2.16138 -0.762705 0
M  V30 2655 C 254.718 -1.1061 -1.16713 0
M  V30 2656 O 255.908 -1.36191 -1.08617 0
M  V30 2657 C 253.04 -2.73386 -2.03649 0
M  V30 2658 H 254.233 -2.98886 -0.246354 0
M  V30 2659 H 251.786 -1.56035 -0.0909744 0
M  V30 2660 H 252.521 -1.94335 -2.59623 0
M  V30 2661 H 252.306 -3.50601 -1.75559 0
M  V30 2662 H 253.796 -3.19065 -2.6942 0
M  V30 2663 N 254.233 0.115231 -1.57178 0
M  V30 2664 C 255.183 1.14707 -1.97044 0
M  V30 2665 C 256.167 1.36866 -0.845957 0
M  V30 2666 O 257.359 1.37895 -1.10968 0
M  V30 2667 C 254.488 2.47266 -2.38148 0
M  V30 2668 C 253.574 2.28566 -3.57237 0
M  V30 2669 N 253.965 1.79685 -4.72807 0
M  V30 2670 C 252.263 2.59208 -3.62943 0
M  V30 2671 C 252.964 1.74781 -5.54821 0
M  V30 2672 N 251.94 2.19264 -4.97417 0
M  V30 2673 H 255.742 0.761754 -2.83857 0
M  V30 2674 H 253.256 0.322928 -1.59157 0
M  V30 2675 H 255.253 3.219 -2.64927 0
M  V30 2676 H 253.913 2.86552 -1.52702 0
M  V30 2677 H 254.924 1.49177 -4.9595 0
M  V30 2678 H 251.601 3.02154 -2.88113 0
M  V30 2679 H 252.991 1.38212 -6.57531 0
M  V30 2680 N 255.711 1.52812 0.385517 0
M  V30 2681 C 256.936 1.72207 1.15583 0
M  V30 2682 C 257.361 0.441034 1.82857 0
M  V30 2683 O 256.719 -0.603465 1.70962 0
M  V30 2684 C 256.767 2.87476 2.17692 0
M  V30 2685 O 255.871 2.54693 3.24354 0
M  V30 2686 H 255.212 0.572526 0.336319 0
M  V30 2687 H 257.742 1.99618 0.448744 0
M  V30 2688 H 257.752 3.13072 2.6163 0
M  V30 2689 H 256.427 3.80408 1.68115 0
M  V30 2690 H 255.004 2.3985 2.85529 0
M  V30 2691 N 257.189 -0.644168 1.43834 0
M  V30 2692 C 258.414 -1.43642 1.49605 0
M  V30 2693 C 258.839 -1.8773 0.117913 0
M  V30 2694 O 258.197 -1.57938 -0.890239 0
M  V30 2695 C 258.245 -2.6416 2.45463 0
M  V30 2696 O 257.349 -3.63538 1.94714 0
M  V30 2697 H 256.69 -0.430329 0.50568 0
M  V30 2698 H 259.22 -0.787448 1.8884 0
M  V30 2699 H 259.23 -3.11864 2.63068 0
M  V30 2700 H 257.905 -2.31414 3.45572 0
M  V30 2701 H 256.482 -3.2273 1.86814 0
M  V30 2702 N 258.668 -1.30515 -0.883378 0
M  V30 2703 C 259.601 -1.11359 -1.99184 0
M  V30 2704 C 260.579 -0.0207858 -1.62587 0
M  V30 2705 O 261.763 -0.174646 -1.87689 0
M  V30 2706 C 258.89 -0.69871 -3.31415 0
M  V30 2707 C 257.936 -1.79261 -3.86998 0
M  V30 2708 S 258.769 -3.39536 -4.14096 0
M  V30 2709 C 259.925 -2.99954 -5.49344 0
M  V30 2710 H 260.158 -2.052 -2.15128 0
M  V30 2711 H 257.691 -1.14847 -1.03196 0
M  V30 2712 H 259.649 -0.466075 -4.07846 0
M  V30 2713 H 258.31 0.220368 -3.13326 0
M  V30 2714 H 257.503 -1.45464 -4.82552 0
M  V30 2715 H 257.105 -1.97961 -3.17313 0
M  V30 2716 H 259.397 -2.48013 -6.30473 0
M  V30 2717 H 260.34 -3.9442 -5.8808 0
M  V30 2718 H 260.748 -2.37775 -5.1198 0
M  V30 2719 N 260.146 1.09593 -1.13257 0
M  V30 2720 C 261.392 1.82003 -0.89458 0
M  V30 2721 C 261.725 1.85402 0.577906 0
M  V30 2722 O 261 1.32099 1.42759 0
M  V30 2723 C 261.283 3.28237 -1.48096 0
M  V30 2724 C 261.136 3.3312 -3.02244 0
M  V30 2725 C 262.455 4.24871 -1.14774 0
M  V30 2726 H 259.574 0.66077 -0.326424 0
M  V30 2727 H 262.216 1.28389 -1.40058 0
M  V30 2728 H 260.366 3.74024 -1.05062 0
M  V30 2729 H 262.038 2.95748 -3.54021 0
M  V30 2730 H 260.281 2.72756 -3.37323 0
M  V30 2731 H 260.952 4.3613 -3.38371 0
M  V30 2732 H 263.428 3.87361 -1.51957 0
M  V30 2733 H 262.304 5.25532 -1.58452 0
M  V30 2734 H 262.565 4.42058 -0.0611849 0
M  V30 2735 N 261.624 0.925811 1.2754 0
M  V30 2736 C 262.872 0.564138 1.94067 0
M  V30 2737 C 263.193 -0.897188 1.73134 0
M  V30 2738 O 262.463 -1.63573 1.07799 0
M  V30 2739 H 261.043 0.205645 0.718136 0
M  V30 2740 H 263.705 1.1778 1.55287 0
M  V30 2741 H 262.801 0.76881 3.02483 0
M  V30 2742 N 263.102 -1.41638 0.69111 0
M  V30 2743 C 264.348 -2.01598 0.220519 0
M  V30 2744 C 264.681 -1.54594 -1.17535 0
M  V30 2745 O 263.956 -0.755177 -1.79241 0
M  V30 2746 C 264.239 -3.59062 0.273243 0
M  V30 2747 C 264.092 -4.16203 1.70573 0
M  V30 2748 C 265.411 -4.38546 -0.369457 0
M  V30 2749 H 262.53 -0.732468 0.0816045 0
M  V30 2750 H 265.172 -1.68445 0.878986 0
M  V30 2751 H 263.322 -3.87435 -0.287411 0
M  V30 2752 H 264.994 -3.98722 2.31989 0
M  V30 2753 H 263.237 -3.71414 2.2413 0
M  V30 2754 H 263.908 -5.25358 1.69419 0
M  V30 2755 H 266.384 -4.1596 0.107977 0
M  V30 2756 H 265.26 -5.48069 -0.302002 0
M  V30 2757 H 265.521 -4.17662 -1.44951 0
M  V30 2758 N 264.58 -0.43555 -1.51462 0
M  V30 2759 C 265.528 0.391205 -2.29287 0
M  V30 2760 C 266.522 1.02247 -1.35062 0
M  V30 2761 O 267.728 0.957646 -1.52411 0
M  V30 2762 H 264.103 0.144968 -0.737895 0
M  V30 2763 H 266.074 -0.286051 -2.97026 0
M  V30 2764 C 264.823 1.48096 -3.14583 0
M  V30 2765 H 264.146 1.00457 -3.86973 0
M  V30 2766 H 265.586 2.03273 -3.72097 0
M  V30 2767 C 264.045 2.46321 -2.29843 0
M  V30 2768 O 264.575 3.50815 -1.95682 0
M  V30 2769 N 262.781 2.17166 -1.931 0
M  V30 2770 H 262.328 1.32218 -2.21079 0
M  V30 2771 H 262.286 2.83127 -1.36698 0
M  V30 2772 N 266.058 1.56714 -0.166846 0
M  V30 2773 C 266.988 2.20754 0.760913 0
M  V30 2774 C 267.969 1.16178 1.24244 0
M  V30 2775 O 269.154 1.44592 1.29641 0
M  V30 2776 C 266.284 2.84478 1.99223 0
M  V30 2777 C 265.238 3.95053 1.64672 0
M  V30 2778 C 264.564 4.45805 2.95232 0
M  V30 2779 C 265.864 5.14865 0.878155 0
M  V30 2780 H 267.558 2.98537 0.22713 0
M  V30 2781 H 265.104 1.43596 0.107805 0
M  V30 2782 H 267.057 3.27951 2.64624 0
M  V30 2783 H 265.781 2.04056 2.55007 0
M  V30 2784 H 264.44 3.52228 1.01641 0
M  V30 2785 H 264.088 3.62181 3.49047 0
M  V30 2786 H 263.788 5.204 2.7287 0
M  V30 2787 H 265.312 4.91962 3.6167 0
M  V30 2788 H 266.726 5.55059 1.43466 0
M  V30 2789 H 265.123 5.95348 0.753738 0
M  V30 2790 H 266.193 4.84735 -0.126377 0
M  V30 2791 N 267.536 -0.106894 1.57237 0
M  V30 2792 C 268.947 -0.662723 1.74542 0
M  V30 2793 C 269.298 -1.7971 0.787319 0
M  V30 2794 O 268.423 -2.16368 -0.0369636 0
M  V30 2795 C 269.018 -1.20896 3.16496 0
M  V30 2796 C 267.577 -1.71096 3.35266 0
M  V30 2797 C 266.724 -0.615642 2.7038 0
M  V30 2798 H 269.675 0.119106 1.58252 0
M  V30 2799 H 269.696 -2.07847 3.18716 0
M  V30 2800 H 269.208 -0.383122 3.86204 0
M  V30 2801 H 267.309 -2.56119 2.70618 0
M  V30 2802 H 267.422 -1.81208 4.43509 0
M  V30 2803 H 265.786 -1.05222 2.31949 0
M  V30 2804 H 266.569 0.199419 3.4272 0
M  V30 2805 N 269.014 -1.53014 -0.377408 0
M  V30 2806 C 269.946 -1.74884 -1.48149 0
M  V30 2807 C 270.959 -0.629433 -1.5014 0
M  V30 2808 O 272.148 -0.905416 -1.53833 0
M  V30 2809 C 269.248 -1.80299 -2.86959 0
M  V30 2810 C 268.421 -3.09776 -3.08801 0
M  V30 2811 C 267.48 -3.06586 -4.27658 0
M  V30 2812 O 266.506 -3.80419 -4.23403 0
M  V30 2813 N 267.708 -2.26578 -5.34455 0
M  V30 2814 H 270.473 -2.70147 -1.29771 0
M  V30 2815 H 268.034 -1.51646 -0.56703 0
M  V30 2816 H 270.026 -1.75657 -3.64591 0
M  V30 2817 H 268.596 -0.92372 -2.98641 0
M  V30 2818 H 267.816 -3.27815 -2.18931 0
M  V30 2819 H 269.104 -3.95366 -3.20255 0
M  V30 2820 H 268.502 -1.66081 -5.40771 0
M  V30 2821 H 267.059 -2.27766 -6.10709 0
M  V30 2822 N 270.492 0.636531 -1.44174 0
M  V30 2823 C 271.439 1.74875 -1.50624 0
M  V30 2824 C 272.409 1.62275 -0.35442 0
M  V30 2825 O 273.594 1.82276 -0.563908 0
M  V30 2826 C 270.734 3.13102 -1.45125 0
M  V30 2827 C 269.847 3.36717 -2.7064 0
M  V30 2828 C 268.982 4.64885 -2.57013 0
M  V30 2829 C 268.021 4.8166 -3.77717 0
M  V30 2830 N 267.158 6.01101 -3.62798 0
M  V30 2831 H 271.998 1.68697 -2.45653 0
M  V30 2832 H 269.535 0.823004 -1.21922 0
M  V30 2833 H 271.493 3.93034 -1.39929 0
M  V30 2834 H 270.123 3.18308 -0.536671 0
M  V30 2835 H 269.175 2.50763 -2.86046 0
M  V30 2836 H 270.487 3.44993 -3.60252 0
M  V30 2837 H 269.641 5.52969 -2.49619 0
M  V30 2838 H 268.38 4.58957 -1.64953 0
M  V30 2839 H 267.385 3.92007 -3.85501 0
M  V30 2840 H 268.61 4.89406 -4.70807 0
M  V30 2841 H 266.556 5.96273 -2.73486 0
M  V30 2842 H 266.473 6.10409 -4.46023 0
M  V30 2843 H 267.741 6.91761 -3.59286 0
M  V30 2844 N 271.97 1.30982 0.876444 0
M  V30 2845 C 272.933 1.18054 1.96459 0
M  V30 2846 C 273.933 0.109399 1.60427 0
M  V30 2847 O 275.123 0.358173 1.70478 0
M  V30 2848 C 272.255 0.810616 3.31122 0
M  V30 2849 H 273.448 2.14735 2.09354 0
M  V30 2850 H 271.001 1.145 1.06392 0
M  V30 2851 H 271.736 -0.155322 3.23928 0
M  V30 2852 H 271.521 1.58481 3.58645 0
M  V30 2853 H 273.011 0.743876 4.10921 0
M  V30 2854 N 273.449 -1.08991 1.13837 0
M  V30 2855 C 274.697 -1.80899 0.901098 0
M  V30 2856 C 275.018 -1.86356 -0.574134 0
M  V30 2857 O 274.288 -1.35235 -1.41733 0
M  V30 2858 H 272.868 -0.669966 0.330386 0
M  V30 2859 H 275.53 -1.318 1.43578 0
M  V30 2860 H 274.626 -2.83929 1.29578 0
M  V30 2861 N 274.927 -0.932562 -1.27047 0
M  V30 2862 C 276.175 -0.574422 -1.93765 0
M  V30 2863 C 276.496 0.887993 -1.73608 0
M  V30 2864 O 275.766 1.62999 -1.08665 0
M  V30 2865 H 274.346 -0.209451 -0.717035 0
M  V30 2866 H 277.008 -1.18601 -1.5466 0
M  V30 2867 H 276.104 -0.784841 -3.02071 0
M  V30 2868 N 276.405 1.4127 -0.698611 0
M  V30 2869 C 277.652 2.0118 -0.230865 0
M  V30 2870 C 277.98 1.55338 1.17049 0
M  V30 2871 O 277.235 0.756775 1.80475 0
M  V30 2872 C 277.534 3.56592 -0.240192 0
M  V30 2873 C 277.2 4.21955 -1.58948 0
M  V30 2874 C 275.862 4.39524 -1.95887 0
M  V30 2875 C 278.214 4.58576 -2.47704 0
M  V30 2876 C 275.542 4.90992 -3.2116 0
M  V30 2877 C 277.894 5.11435 -3.72313 0
M  V30 2878 C 276.558 5.27215 -4.0939 0
M  V30 2879 H 275.828 0.736169 -0.0844796 0
M  V30 2880 H 278.475 1.69124 -0.8983 0
M  V30 2881 H 276.78 3.88456 0.510797 0
M  V30 2882 H 278.477 4.00758 0.139296 0
M  V30 2883 H 275.067 4.08657 -1.29219 0
M  V30 2884 H 279.251 4.44654 -2.20445 0
M  V30 2885 H 274.507 5.01393 -3.49878 0
M  V30 2886 H 278.681 5.38752 -4.4127 0
M  V30 2887 H 276.308 5.66859 -5.06533 0
M  V30 2888 N 277.883 0.443576 1.51229 0
M  V30 2889 C 278.813 -0.355142 2.30783 0
M  V30 2890 C 279.794 -1.0154 1.36468 0
M  V30 2891 O 280.979 -1.01785 1.65389 0
M  V30 2892 C 278.109 -1.45312 3.15439 0
M  V30 2893 C 277.063 -0.916002 4.18083 0
M  V30 2894 C 276.389 -2.1102 4.91299 0
M  V30 2895 C 277.689 0.0538602 5.22272 0
M  V30 2896 H 279.383 0.308767 2.97804 0
M  V30 2897 H 276.929 0.149937 1.43217 0
M  V30 2898 H 278.882 -2.01914 3.69876 0
M  V30 2899 H 277.606 -2.14541 2.46252 0
M  V30 2900 H 276.265 -0.372145 3.64706 0
M  V30 2901 H 275.913 -2.78882 4.18609 0
M  V30 2902 H 275.613 -1.75717 5.60712 0
M  V30 2903 H 277.137 -2.68164 5.48562 0
M  V30 2904 H 278.551 -0.422069 5.71744 0
M  V30 2905 H 276.948 0.319776 5.99247 0
M  V30 2906 H 278.018 0.98858 4.74716 0
M  V30 2907 N 279.361 -1.56624 0.175154 0
M  V30 2908 C 280.294 -2.14 -0.792412 0
M  V30 2909 C 281.272 -1.07114 -1.22333 0
M  V30 2910 O 282.456 -1.35112 -1.31442 0
M  V30 2911 C 279.583 -2.68268 -2.0676 0
M  V30 2912 C 278.629 -3.87562 -1.7804 0
M  V30 2913 S 279.462 -5.27074 -0.946222 0
M  V30 2914 C 280.618 -5.8475 -2.23199 0
M  V30 2915 H 280.851 -2.95736 -0.304588 0
M  V30 2916 H 278.384 -1.54349 -0.0395705 0
M  V30 2917 H 280.342 -3.00182 -2.80002 0
M  V30 2918 H 279.003 -1.86612 -2.52656 0
M  V30 2919 H 278.196 -4.23874 -2.72666 0
M  V30 2920 H 277.798 -3.56555 -1.12891 0
M  V30 2921 H 280.09 -5.97898 -3.18629 0
M  V30 2922 H 281.033 -6.81756 -1.91349 0
M  V30 2923 H 281.441 -5.13198 -2.35134 0
M  V30 2924 N 280.839 0.0985539 -1.57292 0
M  V30 2925 C 281.786 1.11981 -2.01814 0
M  V30 2926 C 282.756 1.39999 -0.89384 0
M  V30 2927 O 283.941 1.5152 -1.15958 0
M  V30 2928 C 281.081 2.43577 -2.44467 0
M  V30 2929 C 280.194 2.2232 -3.70402 0
M  V30 2930 C 279.329 3.4729 -4.01949 0
M  V30 2931 C 278.368 3.2128 -5.21005 0
M  V30 2932 N 277.505 4.38507 -5.48321 0
M  V30 2933 H 282.345 0.733149 -2.88841 0
M  V30 2934 H 279.882 0.350482 -1.42864 0
M  V30 2935 H 281.84 3.20373 -2.6724 0
M  V30 2936 H 280.47 2.80097 -1.60455 0
M  V30 2937 H 279.522 1.36343 -3.55126 0
M  V30 2938 H 280.834 1.99089 -4.57345 0
M  V30 2939 H 279.988 4.32495 -4.25479 0
M  V30 2940 H 278.727 3.73572 -3.13521 0
M  V30 2941 H 277.732 2.34468 -4.97298 0
M  V30 2942 H 278.957 2.96348 -6.11028 0
M  V30 2943 H 276.903 4.64871 -4.62851 0
M  V30 2944 H 276.82 4.18455 -6.29628 0
M  V30 2945 H 278.088 5.24787 -5.76385 0
M  V30 2946 N 282.317 1.53212 0.369288 0
M  V30 2947 C 283.264 1.79388 1.45219 0
M  V30 2948 C 284.234 0.638059 1.53356 0
M  V30 2949 O 285.419 0.879852 1.69302 0
M  V30 2950 C 282.559 1.98623 2.82211 0
M  V30 2951 C 281.672 3.26337 2.8307 0
M  V30 2952 C 280.807 3.35779 4.11614 0
M  V30 2953 C 279.846 4.5754 4.06601 0
M  V30 2954 N 278.983 4.64155 5.26787 0
M  V30 2955 H 283.823 2.71794 1.22198 0
M  V30 2956 H 281.36 1.34642 0.592444 0
M  V30 2957 H 283.318 2.07761 3.61789 0
M  V30 2958 H 281.948 1.09558 3.03639 0
M  V30 2959 H 281 3.26171 1.95747 0
M  V30 2960 H 282.312 4.15988 2.75237 0
M  V30 2961 H 281.466 3.44208 4.99606 0
M  V30 2962 H 280.205 2.44137 4.22195 0
M  V30 2963 H 279.21 4.49215 3.16996 0
M  V30 2964 H 280.435 5.50519 3.97625 0
M  V30 2965 H 278.381 3.75413 5.3796 0
M  V30 2966 H 278.298 5.47706 5.21109 0
M  V30 2967 H 279.566 4.76863 6.16621 0
M  V30 2968 N 283.795 -0.628877 1.44509 0
M  V30 2969 C 284.705 -1.7694 1.54044 0
M  V30 2970 C 285.721 -1.68705 0.425987 0
M  V30 2971 O 286.897 -1.89442 0.683656 0
M  V30 2972 C 283.962 -3.13332 1.48405 0
M  V30 2973 C 283.023 -3.33181 2.70719 0
M  V30 2974 C 282.256 -4.63067 2.6534 0
M  V30 2975 O 282.479 -5.44017 1.71469 0
M  V30 2976 O 281.413 -4.85167 3.56226 0
M  V30 2977 H 285.239 -1.71848 2.50403 0
M  V30 2978 H 282.824 -0.790378 1.26781 0
M  V30 2979 H 284.706 -3.94634 1.47791 0
M  V30 2980 H 283.381 -3.1896 0.551898 0
M  V30 2981 H 282.288 -2.51549 2.769 0
M  V30 2982 H 283.621 -3.32416 3.62988 0
M  V30 2983 N 285.273 -1.31445 -0.869486 0
M  V30 2984 C 286.203 -1.21727 -1.99261 0
M  V30 2985 C 287.184 -0.104359 -1.6978 0
M  V30 2986 O 288.369 -0.289038 -1.92037 0
M  V30 2987 C 285.499 -0.924317 -3.34774 0
M  V30 2988 C 284.453 -1.99685 -3.78563 0
M  V30 2989 C 283.779 -1.55658 -5.11541 0
M  V30 2990 C 285.079 -3.41003 -3.95619 0
M  V30 2991 H 286.773 -2.1569 -2.07649 0
M  V30 2992 H 284.319 -1.03839 -0.997675 0
M  V30 2993 H 286.272 -0.842934 -4.12883 0
M  V30 2994 H 284.996 0.0509793 -3.2656 0
M  V30 2995 H 283.655 -2.06813 -3.02694 0
M  V30 2996 H 283.303 -0.569132 -4.9977 0
M  V30 2997 H 283.003 -2.27409 -5.41811 0
M  V30 2998 H 284.527 -1.48928 -5.92159 0
M  V30 2999 H 285.941 -3.36547 -4.64122 0
M  V30 3000 H 284.338 -4.10975 -4.37286 0
M  V30 3001 H 285.408 -3.81754 -2.98985 0
M  V30 3002 N 286.751 1.08385 -1.14413 0
M  V30 3003 C 287.699 2.17406 -0.826888 0
M  V30 3004 C 288.693 1.6827 0.195312 0
M  V30 3005 O 289.899 1.79927 0.0513892 0
M  V30 3006 H 286.274 0.70934 -0.249681 0
M  V30 3007 H 288.245 2.41388 -1.75426 0
M  V30 3008 C 286.994 3.46215 -0.320979 0
M  V30 3009 H 286.317 3.84401 -1.0989 0
M  V30 3010 H 287.757 4.23777 -0.137549 0
M  V30 3011 C 286.216 3.23067 0.955472 0
M  V30 3012 O 286.746 3.4668 2.02918 0
M  V30 3013 N 284.952 2.7661 0.890798 0
M  V30 3014 H 284.499 2.57594 0.0168815 0
M  V30 3015 H 284.457 2.61501 1.74542 0
M  V30 3016 N 288.23 0.939286 1.26551 0
M  V30 3017 C 289.46 0.601663 1.97645 0
M  V30 3018 C 289.868 -0.827206 1.70159 0
M  V30 3019 O 289.211 -1.56291 0.965338 0
M  V30 3020 C 289.273 0.761725 3.51337 0
M  V30 3021 C 288.937 2.16487 4.0247 0
M  V30 3022 C 289.934 3.14016 4.14355 0
M  V30 3023 C 287.619 2.48494 4.36527 0
M  V30 3024 C 289.613 4.41654 4.59587 0
M  V30 3025 C 287.3 3.76364 4.81449 0
M  V30 3026 C 288.298 4.72758 4.92939 0
M  V30 3027 O 287.986 5.98352 5.36871 0
M  V30 3028 H 287.718 0.225758 0.637189 0
M  V30 3029 H 290.272 1.26178 1.62075 0
M  V30 3030 H 288.502 0.0444808 3.86674 0
M  V30 3031 H 290.191 0.427442 4.03643 0
M  V30 3032 H 290.957 2.90613 3.8829 0
M  V30 3033 H 286.836 1.74202 4.26819 0
M  V30 3034 H 290.38 5.16896 4.68471 0
M  V30 3035 H 286.277 3.99582 5.06956 0
M  V30 3036 H 287.045 6.01507 5.55096 0
M  V30 3037 N 289.708 -1.40897 0.706093 0
M  V30 3038 C 290.955 -2.01054 0.241531 0
M  V30 3039 C 291.283 -1.55956 -1.16223 0
M  V30 3040 O 290.538 -0.766336 -1.80072 0
M  V30 3041 C 290.837 -3.5646 0.259099 0
M  V30 3042 C 290.503 -4.21106 1.61184 0
M  V30 3043 C 289.165 -4.38479 1.98216 0
M  V30 3044 C 291.517 -4.57256 2.50132 0
M  V30 3045 C 288.845 -4.89282 3.2376 0
M  V30 3046 C 291.197 -5.09454 3.7502 0
M  V30 3047 C 289.861 -5.25037 4.12181 0
M  V30 3048 H 289.131 -0.73571 0.0883825 0
M  V30 3049 H 291.778 -1.68645 0.907257 0
M  V30 3050 H 290.083 -3.88721 -0.490189 0
M  V30 3051 H 291.78 -4.00826 -0.11804 0
M  V30 3052 H 288.37 -4.07966 1.31384 0
M  V30 3053 H 292.554 -4.43479 2.228 0
M  V30 3054 H 287.81 -4.99531 3.52532 0
M  V30 3055 H 291.984 -5.36404 4.44121 0
M  V30 3056 H 289.611 -5.64164 5.09532 0
M  V30 3057 N 291.186 -0.45159 -1.50991 0
M  V30 3058 C 292.149 0.341117 -2.26647 0
M  V30 3059 C 293.149 0.937422 -1.30649 0
M  V30 3060 O 294.339 0.809644 -1.54241 0
M  V30 3061 C 291.471 1.48398 -3.06905 0
M  V30 3062 H 292.664 -0.322117 -2.98165 0
M  V30 3063 H 290.217 -0.205122 -1.54948 0
M  V30 3064 H 290.952 2.18284 -2.39838 0
M  V30 3065 H 290.737 1.06241 -3.77432 0
M  V30 3066 H 292.227 2.04367 -3.64176 0
M  V30 3067 N 292.664 1.56529 -0.183458 0
M  V30 3068 C 293.611 2.18546 0.742055 0
M  V30 3069 C 294.581 1.12912 1.2182 0
M  V30 3070 O 295.766 1.41115 1.28418 0
M  V30 3071 C 292.906 2.83977 1.96089 0
M  V30 3072 C 292.019 4.04105 1.52719 0
M  V30 3073 C 291.154 4.57427 2.70063 0
M  V30 3074 C 290.193 5.69938 2.23243 0
M  V30 3075 N 289.33 6.17717 3.33722 0
M  V30 3076 H 294.17 2.97284 0.206432 0
M  V30 3077 H 291.707 1.46823 0.0901571 0
M  V30 3078 H 293.665 3.20077 2.67594 0
M  V30 3079 H 292.295 2.07822 2.47002 0
M  V30 3080 H 291.347 3.73745 0.708436 0
M  V30 3081 H 292.659 4.85513 1.1436 0
M  V30 3082 H 291.813 4.95772 3.49708 0
M  V30 3083 H 290.552 3.75101 3.11689 0
M  V30 3084 H 289.557 5.31133 1.42048 0
M  V30 3085 H 290.782 6.54073 1.82661 0
M  V30 3086 H 288.728 5.38317 3.74902 0
M  V30 3087 H 288.645 6.94146 2.99495 0
M  V30 3088 H 289.913 6.60713 4.13616 0
M  V30 3089 N 294.142 -0.090211 1.57342 0
M  V30 3090 C 295.105 -1.09335 2.01441 0
M  V30 3091 C 296.105 -1.32666 0.908641 0
M  V30 3092 O 297.295 -1.28697 1.174 0
M  V30 3093 C 294.427 -2.44136 2.3793 0
M  V30 3094 H 295.62 -0.713662 2.91285 0
M  V30 3095 H 293.173 -0.335404 1.52659 0
M  V30 3096 H 293.908 -2.86972 1.51055 0
M  V30 3097 H 293.693 -2.28548 3.18603 0
M  V30 3098 H 295.183 -3.16277 2.72688 0
M  V30 3099 N 295.62 -1.53406 -0.361157 0
M  V30 3100 C 296.55 -1.83136 -1.44857 0
M  V30 3101 C 297.531 -0.685174 -1.5569 0
M  V30 3102 O 298.716 -0.93544 -1.70186 0
M  V30 3103 C 295.846 -2.02522 -2.82138 0
M  V30 3104 C 294.8 -3.18302 -2.86126 0
M  V30 3105 C 294.126 -3.22989 -4.26125 0
M  V30 3106 C 295.426 -4.56796 -2.53248 0
M  V30 3107 H 297.12 -2.74201 -1.20226 0
M  V30 3108 H 294.666 -1.31938 -0.576922 0
M  V30 3109 H 296.619 -2.21904 -3.58241 0
M  V30 3110 H 295.343 -1.08172 -3.08166 0
M  V30 3111 H 294.002 -2.98747 -2.12475 0
M  V30 3112 H 293.65 -2.26267 -4.49235 0
M  V30 3113 H 293.35 -4.00781 -4.29708 0
M  V30 3114 H 294.874 -3.44559 -5.04094 0
M  V30 3115 H 296.288 -4.7631 -3.19064 0
M  V30 3116 H 294.685 -5.36862 -2.68141 0
M  V30 3117 H 295.755 -4.61606 -1.48484 0
M  V30 3118 N 297.098 0.621204 -1.44841 0
M  V30 3119 C 298.008 1.7612 -1.5498 0
M  V30 3120 C 299.024 1.68477 -0.434927 0
M  V30 3121 O 300.2 1.89076 -0.693693 0
M  V30 3122 C 297.265 3.1254 -1.50065 0
M  V30 3123 C 296.326 3.31741 -2.72482 0
M  V30 3124 C 295.559 4.61653 -2.67792 0
M  V30 3125 O 295.782 5.431 -1.74352 0
M  V30 3126 O 294.716 4.83271 -3.58794 0
M  V30 3127 H 298.542 1.70518 -2.51311 0
M  V30 3128 H 296.127 0.783643 -1.27198 0
M  V30 3129 H 298.009 3.93844 -1.49882 0
M  V30 3130 H 296.684 3.18663 -0.568806 0
M  V30 3131 H 295.591 2.50077 -2.7823 0
M  V30 3132 H 296.924 3.30486 -3.64746 0
M  V30 3133 N 298.576 1.31904 0.862503 0
M  V30 3134 C 299.801 1.25135 1.65397 0
M  V30 3135 C 300.226 -0.179 1.87246 0
M  V30 3136 O 299.584 -1.1277 1.4196 0
M  V30 3137 C 299.632 2.00832 2.99498 0
M  V30 3138 O 298.736 1.35075 3.89652 0
M  V30 3139 H 298.077 0.431655 0.504549 0
M  V30 3140 H 300.607 1.74094 1.07483 0
M  V30 3141 H 300.617 2.10709 3.49379 0
M  V30 3142 H 299.292 3.04847 2.82916 0
M  V30 3143 H 297.869 1.33696 3.48109 0
M  V30 3144 N 300.054 -1.07777 1.14986 0
M  V30 3145 C 301.465 -1.61766 0.932127 0
M  V30 3146 C 301.816 -1.88974 -0.527581 0
M  V30 3147 O 300.941 -1.65198 -1.39781 0
M  V30 3148 C 301.536 -2.93891 1.68563 0
M  V30 3149 C 300.095 -3.44639 1.5133 0
M  V30 3150 C 299.242 -2.18767 1.704 0
M  V30 3151 H 302.193 -0.909201 1.30074 0
M  V30 3152 H 302.214 -3.62623 1.15259 0
M  V30 3153 H 301.726 -2.74057 2.74799 0
M  V30 3154 H 299.827 -3.69564 0.474702 0
M  V30 3155 H 299.94 -4.20966 2.28746 0
M  V30 3156 H 298.304 -2.28253 1.13016 0
M  V30 3157 H 299.087 -2.01433 2.77992 0
M  V30 3158 N 301.532 -0.945985 -1.26051 0
M  V30 3159 C 302.442 -0.465633 -2.29933 0
M  V30 3160 C 303.458 0.462761 -1.67733 0
M  V30 3161 O 304.634 0.341118 -1.9849 0
M  V30 3162 C 301.699 0.256994 -3.45746 0
M  V30 3163 C 300.76 -0.708549 -4.23412 0
M  V30 3164 C 299.993 -0.0203135 -5.33696 0
M  V30 3165 O 300.216 1.19571 -5.57726 0
M  V30 3166 O 299.15 -0.701459 -5.97799 0
M  V30 3167 H 302.976 -1.32866 -2.73094 0
M  V30 3168 H 300.561 -0.712071 -1.31339 0
M  V30 3169 H 302.443 0.663852 -4.16138 0
M  V30 3170 H 301.118 1.09533 -3.04605 0
M  V30 3171 H 300.025 -1.16545 -3.55483 0
M  V30 3172 H 301.358 -1.51465 -4.68315 0
M  V30 3173 N 303.011 1.40521 -0.713556 0
M  V30 3174 C 304.427 1.54839 -0.386907 0
M  V30 3175 C 304.627 1.68532 1.1045 0
M  V30 3176 O 303.683 1.67377 1.89053 0
M  V30 3177 C 304.996 2.77792 -1.15118 0
M  V30 3178 C 306.544 2.91607 -1.13729 0
M  V30 3179 C 307.019 4.1747 -1.88368 0
M  V30 3180 N 308.51 4.24466 -1.85427 0
M  V30 3181 C 309.245 5.20755 -2.40004 0
M  V30 3182 N 308.741 6.22965 -3.03129 0
M  V30 3183 N 310.534 5.1282 -2.30158 0
M  V30 3184 H 302.685 1.29879 -1.68063 0
M  V30 3185 H 304.948 0.627896 -0.710247 0
M  V30 3186 H 304.654 2.73944 -2.20561 0
M  V30 3187 H 304.528 3.6984 -0.741477 0
M  V30 3188 H 306.915 2.94959 -0.0910608 0
M  V30 3189 H 306.996 2.00682 -1.5862 0
M  V30 3190 H 306.64 4.1488 -2.9298 0
M  V30 3191 H 306.57 5.074 -1.40898 0
M  V30 3192 H 309.061 3.51241 -1.3942 0
M  V30 3193 H 309.374 6.92859 -3.42295 0
M  V30 3194 H 307.719 6.23415 -3.07212 0
M  V30 3195 H 310.91 4.31899 -1.80501 0
M  V30 3196 H 311.083 5.87689 -2.72993 0
M  V30 3197 N 304.489 0.459591 1.5075 0
M  V30 3198 C 305.9 0.00171547 1.867 0
M  V30 3199 C 306.251 -1.39934 1.37525 0
M  V30 3200 O 305.376 -2.03523 0.735349 0
M  V30 3201 C 305.971 -0.00366298 3.388 0
M  V30 3202 C 304.53 -0.406026 3.74204 0
M  V30 3203 C 303.677 0.38673 2.7459 0
M  V30 3204 H 306.628 0.674413 1.43657 0
M  V30 3205 H 306.649 -0.808371 3.71814 0
M  V30 3206 H 306.161 1.01617 3.74561 0
M  V30 3207 H 304.262 -1.43063 3.4404 0
M  V30 3208 H 304.375 -0.115362 4.78961 0
M  V30 3209 H 302.739 -0.158019 2.54209 0
M  V30 3210 H 303.522 1.40585 3.13194 0
M  V30 3211 N 305.967 -1.56429 0.191757 0
M  V30 3212 C 307.214 -1.97485 -0.447891 0
M  V30 3213 C 307.542 -1.07852 -1.61859 0
M  V30 3214 O 306.797 -0.116903 -1.95351 0
M  V30 3215 C 307.096 -3.44449 -0.953384 0
M  V30 3216 C 306.762 -4.50781 0.103586 0
M  V30 3217 C 305.424 -4.79584 0.394023 0
M  V30 3218 C 307.776 -5.1471 0.819946 0
M  V30 3219 C 305.104 -5.69607 1.40585 0
M  V30 3220 C 307.456 -6.05827 1.8209 0
M  V30 3221 C 306.12 -6.32987 2.11857 0
M  V30 3222 H 305.39 -0.722648 -0.163895 0
M  V30 3223 H 308.037 -1.89322 0.28802 0
M  V30 3224 H 306.342 -3.49666 -1.76751 0
M  V30 3225 H 308.039 -3.73569 -1.45765 0
M  V30 3226 H 304.629 -4.28394 -0.132951 0
M  V30 3227 H 308.813 -4.92552 0.608789 0
M  V30 3228 H 304.069 -5.88926 1.64243 0
M  V30 3229 H 308.243 -6.54424 2.38123 0
M  V30 3230 H 305.87 -7.02544 2.90407 0
M  V30 3231 N 307.445 0.0818655 -1.57387 0
M  V30 3232 C 308.375 1.09885 -2.06028 0
M  V30 3233 C 309.356 1.4098 -0.951774 0
M  V30 3234 O 310.541 1.50781 -1.22387 0
M  V30 3235 C 307.671 2.4151 -2.4958 0
M  V30 3236 C 306.625 2.24792 -3.64215 0
M  V30 3237 C 305.951 3.61712 -3.93787 0
M  V30 3238 C 307.251 1.67749 -4.94629 0
M  V30 3239 H 308.945 0.694128 -2.91243 0
M  V30 3240 H 306.491 0.332448 -1.4011 0
M  V30 3241 H 308.444 3.12939 -2.82219 0
M  V30 3242 H 307.168 2.83943 -1.61381 0
M  V30 3243 H 305.827 1.55807 -3.31843 0
M  V30 3244 H 305.475 4.01697 -3.02735 0
M  V30 3245 H 305.175 3.51368 -4.70971 0
M  V30 3246 H 306.699 4.34587 -4.28913 0
M  V30 3247 H 308.113 2.29032 -5.25564 0
M  V30 3248 H 306.51 1.68128 -5.76067 0
M  V30 3249 H 307.58 0.638059 -4.80684 0
M  V30 3250 N 308.923 1.53595 0.353017 0
M  V30 3251 C 309.886 1.80232 1.41594 0
M  V30 3252 C 310.886 0.673081 1.46035 0
M  V30 3253 O 312.076 0.941335 1.46576 0
M  V30 3254 C 309.208 1.93578 2.80607 0
M  V30 3255 H 310.401 2.75174 1.19244 0
M  V30 3256 H 307.954 1.44864 0.586872 0
M  V30 3257 H 308.689 1.00746 3.08254 0
M  V30 3258 H 308.474 2.75724 2.78781 0
M  V30 3259 H 309.964 2.15735 3.57558 0
M  V30 3260 N 310.401 -0.613514 1.45168 0
M  V30 3261 C 311.65 -1.36874 1.4815 0
M  V30 3262 C 311.963 -1.952 0.124982 0
M  V30 3263 O 313.169 -2.71481 0.0324176 0
M  V30 3264 C 311.625 -2.47905 2.60904 0
M  V30 3265 C 311.233 -1.96016 4.02842 0
M  V30 3266 C 312.977 -3.24965 2.73126 0
M  V30 3267 C 310.884 -3.04494 5.06988 0
M  V30 3268 H 309.814 -0.514428 0.551253 0
M  V30 3269 H 312.465 -0.658182 1.7129 0
M  V30 3270 H 310.847 -3.21618 2.31037 0
M  V30 3271 H 312.021 -1.29051 4.4236 0
M  V30 3272 H 310.336 -1.31719 3.95018 0
M  V30 3273 H 312.933 -4.05865 3.48106 0
M  V30 3274 H 313.276 -3.75588 1.79553 0
M  V30 3275 H 313.809 -2.5835 3.0249 0
M  V30 3276 H 310.548 -2.58795 6.0225 0
M  V30 3277 H 310.068 -3.70044 4.72046 0
M  V30 3278 H 311.747 -3.68976 5.31475 0
M  V30 3279 N 311.879 -1.3236 -0.855495 0
M  V30 3280 C 312.809 -1.23833 -1.97958 0
M  V30 3281 C 313.79 -0.122361 -1.69659 0
M  V30 3282 O 314.975 -0.30939 -1.9172 0
M  V30 3283 C 312.105 -0.959772 -3.33775 0
M  V30 3284 C 311.059 -2.03689 -3.76424 0
M  V30 3285 C 310.385 -1.61075 -5.09862 0
M  V30 3286 C 311.685 -3.4518 -3.9198 0
M  V30 3287 H 313.379 -2.1788 -2.0535 0
M  V30 3288 H 310.925 -1.04891 -0.986605 0
M  V30 3289 H 312.878 -0.886678 -4.11966 0
M  V30 3290 H 311.602 0.0163404 -3.26596 0
M  V30 3291 H 310.261 -2.10012 -3.00484 0
M  V30 3292 H 309.909 -0.622107 -4.99138 0
M  V30 3293 H 309.609 -2.33143 -5.39368 0
M  V30 3294 H 311.133 -1.55201 -5.90546 0
M  V30 3295 H 312.547 -3.4145 -4.60526 0
M  V30 3296 H 310.944 -4.1559 -4.32903 0
M  V30 3297 H 312.014 -3.84903 -2.94919 0
M  V30 3298 N 313.357 1.07166 -1.15556 0
M  V30 3299 C 314.605 1.79443 -0.929764 0
M  V30 3300 C 314.926 1.87246 0.544414 0
M  V30 3301 O 314.196 1.37473 1.39564 0
M  V30 3302 H 312.776 0.664625 -0.341003 0
M  V30 3303 H 315.438 1.29499 -1.45657 0
M  V30 3304 H 314.534 2.81832 -1.34079 0
M  V30 3305 N 314.835 0.952656 1.25548 0
M  V30 3306 C 316.083 0.605176 1.92826 0
M  V30 3307 C 316.404 -0.860261 1.74999 0
M  V30 3308 O 315.674 -1.6125 1.11244 0
M  V30 3309 H 314.254 0.220832 0.713612 0
M  V30 3310 H 316.916 1.21047 1.52754 0
M  V30 3311 H 316.012 0.832798 3.00784 0
M  V30 3312 N 316.313 -1.40141 0.720998 0
M  V30 3313 C 317.276 -2.29058 0.0805834 0
M  V30 3314 C 318.276 -1.45632 -0.681758 0
M  V30 3315 O 319.466 -1.6648 -0.512856 0
M  V30 3316 C 316.598 -3.28925 -0.895593 0
M  V30 3317 H 317.791 -2.87191 0.863793 0
M  V30 3318 H 315.344 -1.48553 0.485975 0
M  V30 3319 H 316.079 -2.75822 -1.70566 0
M  V30 3320 H 315.864 -3.90519 -0.351766 0
M  V30 3321 H 317.354 -3.95494 -1.34069 0
M  V30 3322 N 317.792 -0.46758 -1.50504 0
M  V30 3323 C 318.739 0.328413 -2.28452 0
M  V30 3324 C 319.709 0.990313 -1.33349 0
M  V30 3325 O 320.894 1.00343 -1.62284 0
M  V30 3326 C 318.034 1.40648 -3.15138 0
M  V30 3327 C 317.147 0.759709 -4.25267 0
M  V30 3328 C 316.282 1.81537 -4.99217 0
M  V30 3329 C 315.321 1.14866 -6.01226 0
M  V30 3330 N 314.458 2.14702 -6.68467 0
M  V30 3331 H 319.298 -0.342603 -2.96024 0
M  V30 3332 H 316.835 -0.180801 -1.45985 0
M  V30 3333 H 318.793 2.04315 -3.63746 0
M  V30 3334 H 317.423 2.04671 -2.49619 0
M  V30 3335 H 316.475 0.0105671 -3.80399 0
M  V30 3336 H 317.787 0.233243 -4.98254 0
M  V30 3337 H 316.941 2.52793 -5.51526 0
M  V30 3338 H 315.68 2.37564 -4.25928 0
M  V30 3339 H 314.685 0.42171 -5.4818 0
M  V30 3340 H 315.91 0.595334 -6.76485 0
M  V30 3341 H 313.856 2.69752 -5.97972 0
M  V30 3342 H 313.773 1.6703 -7.37317 0
M  V30 3343 H 315.041 2.85348 -7.25394 0
M  V30 3344 N 319.27 1.56325 -0.20005 0
M  V30 3345 C 320.516 1.98012 0.438059 0
M  V30 3346 C 320.849 1.08702 1.60927 0
M  V30 3347 O 320.124 0.140064 1.93995 0
M  V30 3348 C 320.407 3.48841 0.893419 0
M  V30 3349 C 320.26 4.48928 -0.279947 0
M  V30 3350 C 321.579 4.03498 1.75719 0
M  V30 3351 H 318.698 0.719918 0.157757 0
M  V30 3352 H 321.34 1.87743 -0.291968 0
M  V30 3353 H 319.49 3.57723 1.51547 0
M  V30 3354 H 321.162 4.52079 -0.91772 0
M  V30 3355 H 319.405 4.23694 -0.930919 0
M  V30 3356 H 320.076 5.5194 0.0812601 0
M  V30 3357 H 322.552 3.97427 1.23253 0
M  V30 3358 H 321.428 5.09393 2.04476 0
M  V30 3359 H 321.689 3.4906 2.71311 0
M  V30 3360 N 320.748 -0.0735177 1.57428 0
M  V30 3361 C 321.711 -1.07192 2.02589 0
M  V30 3362 C 322.711 -1.31695 0.922661 0
M  V30 3363 O 323.901 -1.27445 1.18758 0
M  V30 3364 C 321.033 -2.41599 2.40506 0
M  V30 3365 H 322.226 -0.682727 2.92025 0
M  V30 3366 H 319.779 -0.319193 1.53006 0
M  V30 3367 H 320.514 -2.85354 1.5409 0
M  V30 3368 H 320.299 -2.25156 3.21009 0
M  V30 3369 H 321.789 -3.13367 2.76027 0
M  V30 3370 N 322.226 -1.5378 -0.344866 0
M  V30 3371 C 323.503 -1.61589 -1.10219 0
M  V30 3372 C 323.883 -0.436316 -2.06542 0
M  V30 3373 O 323.231 0.571543 -2.21237 0
M  V30 3374 C 323.441 -2.97602 -1.82301 0
M  V30 3375 C 324.789 -3.5291 -2.36093 0
M  V30 3376 O 325.813 -2.99768 -1.924 0
M  V30 3377 O 324.672 -4.45859 -3.16026 0
M  V30 3378 H 321.766 -0.653522 -0.506792 0
M  V30 3379 H 324.312 -1.66126 -0.346465 0
M  V30 3380 H 323.084 -3.74893 -1.12121 0
M  V30 3381 H 322.707 -2.9665 -2.64735 0
M  V30 3382 N 323.704 0.605807 -1.45491 0
M  V30 3383 C 324.651 1.7164 -1.54299 0
M  V30 3384 C 325.621 1.61486 -0.388761 0
M  V30 3385 O 326.806 1.81039 -0.602445 0
M  V30 3386 C 323.946 3.09953 -1.51734 0
M  V30 3387 C 323.059 3.309 -2.77721 0
M  V30 3388 C 322.194 4.59329 -2.66816 0
M  V30 3389 C 321.233 4.7354 -3.87848 0
M  V30 3390 N 320.37 5.9327 -3.75467 0
M  V30 3391 H 325.21 1.63449 -2.49176 0
M  V30 3392 H 322.747 0.796957 -1.23641 0
M  V30 3393 H 324.705 3.89977 -1.48235 0
M  V30 3394 H 323.335 3.17098 -0.604068 0
M  V30 3395 H 322.387 2.44639 -2.913 0
M  V30 3396 H 323.699 3.37274 -3.67488 0
M  V30 3397 H 322.853 5.4755 -2.61292 0
M  V30 3398 H 321.592 4.55355 -1.74651 0
M  V30 3399 H 320.597 3.83741 -3.93729 0
M  V30 3400 H 321.822 4.79309 -4.81082 0
M  V30 3401 H 319.768 5.90338 -2.86072 0
M  V30 3402 H 319.685 6.00811 -4.5887 0
M  V30 3403 H 320.953 6.83984 -3.73879 0
M  V30 3404 N 325.182 1.32811 0.848464 0
M  V30 3405 C 326.431 1.23075 1.59798 0
M  V30 3406 C 326.744 -0.204419 1.94529 0
M  V30 3407 O 327.95 -0.423701 2.68173 0
M  V30 3408 C 326.406 2.15594 2.88179 0
M  V30 3409 C 326.014 3.64228 2.60849 0
M  V30 3410 C 327.758 2.14709 3.66197 0
M  V30 3411 C 325.665 4.48689 3.85269 0
M  V30 3412 H 324.595 0.457091 0.599653 0
M  V30 3413 H 327.246 1.57813 0.936342 0
M  V30 3414 H 325.628 1.73778 3.55833 0
M  V30 3415 H 326.802 4.14424 2.01467 0
M  V30 3416 H 325.117 3.67306 1.96151 0
M  V30 3417 H 327.714 2.75046 4.58534 0
M  V30 3418 H 328.057 1.13966 4.00397 0
M  V30 3419 H 328.59 2.54837 3.05455 0
M  V30 3420 H 325.329 5.5027 3.56207 0
M  V30 3421 H 324.849 4.03241 4.44024 0
M  V30 3422 H 326.528 4.62006 4.52946 0
M  V30 3423 N 326.66 -1.06551 1.16123 0
M  V30 3424 C 327.592 -2.13908 0.823171 0
M  V30 3425 C 328.605 -1.61926 -0.16843 0
M  V30 3426 O 329.794 -1.78412 0.055962 0
M  V30 3427 C 326.894 -3.38283 0.204424 0
M  V30 3428 C 326.067 -4.19589 1.23548 0
M  V30 3429 C 325.126 -5.2233 0.637011 0
M  V30 3430 O 324.152 -5.54034 1.30516 0
M  V30 3431 N 325.354 -5.77621 -0.577474 0
M  V30 3432 H 328.119 -2.43508 1.74711 0
M  V30 3433 H 325.68 -1.2253 1.05821 0
M  V30 3434 H 327.672 -4.0416 -0.208909 0
M  V30 3435 H 326.242 -3.06329 -0.623012 0
M  V30 3436 H 325.462 -3.49406 1.82507 0
M  V30 3437 H 326.75 -4.70718 1.93137 0
M  V30 3438 H 326.148 -5.54125 -1.13853 0
M  V30 3439 H 324.705 -6.45087 -0.933053 0
M  V30 3440 N 328.138 -0.959301 -1.25041 0
M  V30 3441 C 329.068 -0.501388 -2.28053 0
M  V30 3442 C 330.049 0.454673 -1.63911 0
M  V30 3443 O 331.234 0.352618 -1.90972 0
M  V30 3444 C 328.364 0.217224 -3.4662 0
M  V30 3445 C 327.318 -0.654034 -4.22973 0
M  V30 3446 C 326.644 0.195589 -5.34342 0
M  V30 3447 C 327.944 -1.93447 -4.85155 0
M  V30 3448 H 329.638 -1.36238 -2.66608 0
M  V30 3449 H 327.184 -0.656534 -1.28163 0
M  V30 3450 H 329.137 0.548732 -4.17812 0
M  V30 3451 H 327.861 1.1125 -3.07068 0
M  V30 3452 H 326.52 -0.968693 -3.5357 0
M  V30 3453 H 326.168 1.09076 -4.91031 0
M  V30 3454 H 325.868 -0.384091 -5.86343 0
M  V30 3455 H 327.392 0.521958 -6.08365 0
M  V30 3456 H 328.806 -1.66908 -5.48466 0
M  V30 3457 H 327.203 -2.46018 -5.47353 0
M  V30 3458 H 328.273 -2.63466 -4.07079 0
M  V30 3459 N 329.616 1.39756 -0.72842 0
M  V30 3460 C 330.865 1.99879 -0.270407 0
M  V30 3461 C 331.178 1.58449 1.14688 0
M  V30 3462 O 332.384 2.11362 1.70407 0
M  V30 3463 C 330.84 3.57292 -0.43252 0
M  V30 3464 C 330.448 4.07688 -1.85727 0
M  V30 3465 C 332.192 4.24485 -0.0359507 0
M  V30 3466 C 330.099 5.5765 -1.96928 0
M  V30 3467 H 329.029 0.747689 -0.0973472 0
M  V30 3468 H 331.68 1.59837 -0.901355 0
M  V30 3469 H 330.062 3.95097 0.267219 0
M  V30 3470 H 331.236 3.81231 -2.58843 0
M  V30 3471 H 329.551 3.53135 -2.20646 0
M  V30 3472 H 332.148 5.34609 -0.0987484 0
M  V30 3473 H 332.491 4.03915 1.00787 0
M  V30 3474 H 333.024 3.9183 -0.686604 0
M  V30 3475 H 329.763 5.8309 -2.99476 0
M  V30 3476 H 329.283 5.8593 -1.28241 0
M  V30 3477 H 330.962 6.22957 -1.74737 0
M  V30 3478 N 331.094 0.475555 1.50254 0
M  V30 3479 C 332.042 -0.330276 2.30243 0
M  V30 3480 C 333.036 -0.986306 1.37726 0
M  V30 3481 O 334.242 -0.9169 1.54897 0
M  V30 3482 H 330.617 -0.125353 0.741479 0
M  V30 3483 H 332.588 0.364702 2.96163 0
M  V30 3484 C 331.337 -1.39704 3.18399 0
M  V30 3485 H 330.66 -0.901621 3.89501 0
M  V30 3486 H 332.1 -1.93336 3.77355 0
M  V30 3487 C 330.559 -2.4014 2.36293 0
M  V30 3488 O 331.089 -3.45504 2.04914 0
M  V30 3489 N 329.295 -2.1197 1.98789 0
M  V30 3490 H 328.842 -1.2631 2.24507 0
M  V30 3491 H 328.8 -2.79403 1.44157 0
M  V30 3492 N 332.573 -1.56217 0.208337 0
M  V30 3493 C 333.521 -2.21053 -0.723769 0
M  V30 3494 C 334.515 -1.18578 -1.20978 0
M  V30 3495 O 335.721 -1.36691 -1.17114 0
M  V30 3496 H 332.096 -0.708595 -0.251788 0
M  V30 3497 H 334.067 -2.98006 -0.153365 0
M  V30 3498 C 332.816 -2.89417 -1.927 0
M  V30 3499 H 332.139 -3.68019 -1.56212 0
M  V30 3500 H 333.579 -3.38201 -2.55727 0
M  V30 3501 C 332.038 -1.91166 -2.77411 0
M  V30 3502 O 332.568 -1.42026 -3.75754 0
M  V30 3503 N 330.774 -1.59105 -2.43175 0
M  V30 3504 H 330.321 -1.99259 -1.63259 0
M  V30 3505 H 330.279 -0.936255 -3.00136 0
M  V30 3506 N 334.051 0.0651679 -1.57465 0
M  V30 3507 C 334.984 1.10876 -1.99453 0
M  V30 3508 C 335.962 1.37205 -0.872555 0
M  V30 3509 O 337.146 1.50468 -1.13542 0
M  V30 3510 C 334.273 2.45167 -2.3369 0
M  V30 3511 C 333.319 2.3493 -3.55964 0
M  V30 3512 S 334.152 1.73708 -5.06543 0
M  V30 3513 C 335.308 3.09563 -5.43987 0
M  V30 3514 H 335.541 0.750967 -2.87659 0
M  V30 3515 H 333.074 0.273933 -1.51951 0
M  V30 3516 H 335.032 3.22412 -2.54088 0
M  V30 3517 H 333.693 2.78105 -1.46001 0
M  V30 3518 H 332.886 3.3398 -3.77457 0
M  V30 3519 H 332.488 1.65823 -3.3523 0
M  V30 3520 H 334.78 4.05882 -5.42463 0
M  V30 3521 H 335.723 2.92843 -6.44708 0
M  V30 3522 H 336.131 3.10474 -4.71451 0
M  V30 3523 N 335.529 1.53961 0.336706 0
M  V30 3524 C 336.459 1.85417 1.41925 0
M  V30 3525 C 337.44 0.709856 1.5458 0
M  V30 3526 O 338.625 0.962396 1.68676 0
M  V30 3527 C 335.755 2.06985 2.78881 0
M  V30 3528 C 334.709 3.22813 2.81026 0
M  V30 3529 C 334.035 3.29727 4.20932 0
M  V30 3530 C 335.335 4.60767 2.45949 0
M  V30 3531 H 337.029 2.76079 1.15848 0
M  V30 3532 H 334.575 1.32839 0.555859 0
M  V30 3533 H 336.528 2.27575 3.54665 0
M  V30 3534 H 335.252 1.13061 3.06406 0
M  V30 3535 H 333.911 3.0209 2.07695 0
M  V30 3536 H 333.559 2.33385 4.45579 0
M  V30 3537 H 333.259 4.07566 4.23277 0
M  V30 3538 H 334.783 3.52536 4.98549 0
M  V30 3539 H 336.197 4.81325 3.11446 0
M  V30 3540 H 334.594 5.4106 2.59566 0
M  V30 3541 H 335.664 4.6391 1.41122 0
M  V30 3542 N 337.007 -0.598083 1.45811 0
M  V30 3543 C 338.284 -1.35777 1.40797 0
M  V30 3544 C 338.664 -2.10935 0.083462 0
M  V30 3545 O 338.012 -2.08505 -0.934763 0
M  V30 3546 C 338.222 -2.29666 2.62783 0
M  V30 3547 C 339.57 -2.91977 3.08277 0
M  V30 3548 O 340.594 -2.39984 2.63223 0
M  V30 3549 O 339.453 -3.86376 3.86491 0
M  V30 3550 H 336.547 -0.609291 0.55919 0
M  V30 3551 H 339.093 -0.620379 1.57954 0
M  V30 3552 H 337.865 -1.73454 3.50756 0
M  V30 3553 H 337.488 -3.1077 2.48008 0
M  V30 3554 N 338.485 -1.33259 -0.841409 0
M  V30 3555 C 339.432 -1.23302 -1.95103 0
M  V30 3556 C 340.402 -0.112204 -1.65721 0
M  V30 3557 O 341.587 -0.290038 -1.88583 0
M  V30 3558 C 338.727 -0.975583 -3.31023 0
M  V30 3559 C 337.84 -2.18243 -3.72819 0
M  V30 3560 C 336.975 -1.85936 -4.97595 0
M  V30 3561 C 336.014 -3.02866 -5.3192 0
M  V30 3562 N 335.151 -2.70565 -6.47873 0
M  V30 3563 H 339.991 -2.18207 -2.02952 0
M  V30 3564 H 337.528 -1.0851 -0.993173 0
M  V30 3565 H 339.486 -0.80677 -4.09325 0
M  V30 3566 H 338.116 -0.0632755 -3.22738 0
M  V30 3567 H 337.168 -2.46107 -2.90061 0
M  V30 3568 H 338.48 -3.05666 -3.94169 0
M  V30 3569 H 337.634 -1.65684 -5.83638 0
M  V30 3570 H 336.373 -0.957452 -4.78209 0
M  V30 3571 H 335.378 -3.23736 -4.44382 0
M  V30 3572 H 336.603 -3.93809 -5.53255 0
M  V30 3573 H 334.549 -1.8293 -6.29978 0
M  V30 3574 H 334.466 -3.51519 -6.69306 0
M  V30 3575 H 335.734 -2.53774 -7.37034 0
M  V30 3576 N 339.963 1.05934 -1.16686 0
M  V30 3577 C 341.209 1.79065 -0.95203 0
M  V30 3578 C 341.542 1.87147 0.518629 0
M  V30 3579 O 340.817 1.36574 1.38484 0
M  V30 3580 C 341.1 3.23359 -1.58464 0
M  V30 3581 C 340.953 3.23336 -3.12689 0
M  V30 3582 C 342.272 4.21004 -1.28232 0
M  V30 3583 H 339.391 0.65005 -0.34728 0
M  V30 3584 H 342.033 1.23868 -1.44072 0
M  V30 3585 H 340.183 3.70493 -1.16908 0
M  V30 3586 H 341.855 2.84336 -3.6325 0
M  V30 3587 H 340.098 2.61886 -3.4583 0
M  V30 3588 H 340.769 4.25144 -3.52075 0
M  V30 3589 H 343.245 3.8233 -1.64203 0
M  V30 3590 H 342.121 5.20225 -1.75092 0
M  V30 3591 H 342.382 4.41639 -0.201791 0
M  V30 3592 N 341.441 0.965919 1.2453 0
M  V30 3593 C 342.389 0.486506 2.27455 0
M  V30 3594 C 343.383 -0.449041 1.6334 0
M  V30 3595 O 344.589 -0.324527 1.7705 0
M  V30 3596 H 340.964 0.138857 0.739069 0
M  V30 3597 H 342.935 1.3666 2.65267 0
M  V30 3598 C 341.684 -0.209481 3.47068 0
M  V30 3599 H 341.007 0.50129 3.96645 0
M  V30 3600 H 342.447 -0.508775 4.20936 0
M  V30 3601 C 340.906 -1.43586 3.0477 0
M  V30 3602 O 341.436 -2.53299 3.11773 0
M  V30 3603 N 339.642 -1.30126 2.59838 0
M  V30 3604 H 339.189 -0.408583 2.54339 0
M  V30 3605 H 339.147 -2.12294 2.31902 0
M  V30 3606 N 342.919 -1.39368 0.735821 0
M  V30 3607 C 343.829 -2.34395 0.0979693 0
M  V30 3608 C 344.845 -1.58361 -0.720968 0
M  V30 3609 O 346.021 -1.90648 -0.649245 0
M  V30 3610 C 343.086 -3.37393 -0.797916 0
M  V30 3611 C 342.147 -4.29287 0.0333662 0
M  V30 3612 C 341.38 -5.27365 -0.819854 0
M  V30 3613 O 341.603 -5.31959 -2.05855 0
M  V30 3614 O 340.537 -6.01389 -0.248079 0
M  V30 3615 H 344.363 -2.90601 0.882315 0
M  V30 3616 H 341.948 -1.40909 0.4965 0
M  V30 3617 H 343.83 -4.00505 -1.31048 0
M  V30 3618 H 342.505 -2.83571 -1.56106 0
M  V30 3619 H 341.412 -3.69395 0.591475 0
M  V30 3620 H 342.745 -4.86317 0.758752 0
M  V30 3621 N 344.397 -0.483516 -1.5 0
M  V30 3622 C 345.33 0.350427 -2.25493 0
M  V30 3623 C 346.308 0.985549 -1.29328 0
M  V30 3624 O 347.492 1.01906 -1.58579 0
M  V30 3625 C 344.619 1.49202 -3.04066 0
M  V30 3626 C 343.665 0.973036 -4.15252 0
M  V30 3627 S 344.498 -0.122237 -5.3536 0
M  V30 3628 C 345.654 1.02294 -6.17484 0
M  V30 3629 H 345.887 -0.290381 -2.95878 0
M  V30 3630 H 343.42 -0.268562 -1.52046 0
M  V30 3631 H 345.378 2.14623 -3.49925 0
M  V30 3632 H 344.039 2.10438 -2.33183 0
M  V30 3633 H 343.232 1.82804 -4.69679 0
M  V30 3634 H 342.834 0.396335 -3.71894 0
M  V30 3635 H 345.126 1.93195 -6.49371 0
M  V30 3636 H 346.069 0.517664 -7.06205 0
M  V30 3637 H 346.477 1.28238 -5.49741 0
M  V30 3638 N 345.875 1.56104 -0.216619 0
M  V30 3639 C 347.124 1.97348 0.416744 0
M  V30 3640 C 347.437 1.10715 1.6125 0
M  V30 3641 O 348.643 1.41836 2.31506 0
M  V30 3642 C 347.099 3.51059 0.792835 0
M  V30 3643 C 346.707 4.46387 -0.379828 0
M  V30 3644 C 348.451 4.01026 1.39208 0
M  V30 3645 C 346.358 5.91397 0.0184223 0
M  V30 3646 H 345.288 0.736942 0.159475 0
M  V30 3647 H 347.939 1.80827 -0.31205 0
M  V30 3648 H 346.321 3.63162 1.57891 0
M  V30 3649 H 347.495 4.46029 -1.15737 0
M  V30 3650 H 345.81 4.06734 -0.891979 0
M  V30 3651 H 348.407 5.0686 1.70286 0
M  V30 3652 H 348.75 3.46587 2.30614 0
M  V30 3653 H 349.283 3.92125 0.669537 0
M  V30 3654 H 346.022 6.49807 -0.862002 0
M  V30 3655 H 345.542 5.94961 0.760384 0
M  V30 3656 H 347.221 6.45455 0.446818 0
M  V30 3657 N 347.353 -0.0568162 1.57498 0
M  V30 3658 C 348.602 -0.752001 1.87157 0
M  V30 3659 C 348.915 -1.77978 0.811375 0
M  V30 3660 O 350.121 -2.52559 0.996293 0
M  V30 3661 C 348.577 -1.38844 3.3204 0
M  V30 3662 C 348.185 -0.398456 4.46225 0
M  V30 3663 C 349.929 -2.06512 3.70882 0
M  V30 3664 C 347.836 -1.04166 5.82154 0
M  V30 3665 H 346.766 -0.28461 0.698222 0
M  V30 3666 H 349.417 -0.00561272 1.83499 0
M  V30 3667 H 347.799 -2.1836 3.30356 0
M  V30 3668 H 348.973 0.367977 4.59328 0
M  V30 3669 H 347.288 0.174592 4.16034 0
M  V30 3670 H 349.885 -2.55437 4.6974 0
M  V30 3671 H 350.228 -2.87117 3.01445 0
M  V30 3672 H 350.761 -1.33808 3.7462 0
M  V30 3673 H 347.5 -0.275614 6.5492 0
M  V30 3674 H 347.02 -1.7786 5.72823 0
M  V30 3675 H 348.699 -1.55715 6.27982 0
M  V30 3676 N 348.832 -1.54138 -0.328536 0
M  V30 3677 C 350.08 -1.71765 -1.06496 0
M  V30 3678 C 350.401 -0.49149 -1.88704 0
M  V30 3679 O 349.671 0.494539 -1.89555 0
M  V30 3680 H 348.251 -0.633295 -0.396164 0
M  V30 3681 H 350.913 -1.91429 -0.366176 0
M  V30 3682 H 350.009 -2.5951 -1.73381 0
M  V30 3683 N 350.31 0.590341 -1.46126 0
M  V30 3684 C 351.558 1.34616 -1.50742 0
M  V30 3685 C 351.879 1.94363 -0.157486 0
M  V30 3686 O 351.149 1.78136 0.815136 0
M  V30 3687 H 349.729 0.499789 -0.555175 0
M  V30 3688 H 352.391 0.691953 -1.82203 0
M  V30 3689 H 351.487 2.15678 -2.25587 0
M  V30 3690 N 351.788 1.33704 0.83433 0
M  V30 3691 C 353.036 1.25169 1.58673 0
M  V30 3692 C 353.357 -0.18127 1.94156 0
M  V30 3693 O 352.627 -1.11113 1.6134 0
M  V30 3694 H 351.207 0.4603 0.58833 0
M  V30 3695 H 353.869 1.67478 0.996847 0
M  V30 3696 H 352.965 1.84856 2.51465 0
M  V30 3697 N 353.266 -1.05314 1.17247 0
M  V30 3698 C 354.199 -2.12512 0.831507 0
M  V30 3699 C 355.177 -1.61351 -0.201168 0
M  V30 3700 O 356.361 -1.88317 -0.0829831 0
M  V30 3701 C 353.488 -3.37848 0.24015 0
M  V30 3702 C 352.534 -4.07832 1.24801 0
M  V30 3703 S 353.367 -4.56537 2.79882 0
M  V30 3704 C 354.523 -5.85122 2.22223 0
M  V30 3705 H 354.756 -2.41106 1.7394 0
M  V30 3706 H 352.289 -1.17896 0.996988 0
M  V30 3707 H 354.247 -4.10391 -0.0945588 0
M  V30 3708 H 352.908 -3.07392 -0.645668 0
M  V30 3709 H 352.101 -4.97883 0.78287 0
M  V30 3710 H 351.703 -3.41348 1.52831 0
M  V30 3711 H 353.995 -6.58408 1.59703 0
M  V30 3712 H 354.938 -6.36381 3.10523 0
M  V30 3713 H 355.346 -5.39626 1.65722 0
M  V30 3714 N 354.744 -0.972509 -1.24016 0
M  V30 3715 C 355.707 -0.511403 -2.23422 0
M  V30 3716 C 356.707 0.394679 -1.55881 0
M  V30 3717 O 357.897 0.189469 -1.73167 0
M  V30 3718 C 355.029 0.258769 -3.39916 0
M  V30 3719 H 356.222 -1.39024 -2.6573 0
M  V30 3720 H 353.775 -0.757585 -1.36713 0
M  V30 3721 H 354.51 1.1545 -3.03054 0
M  V30 3722 H 354.295 -0.391522 -3.9014 0
M  V30 3723 H 355.785 0.570244 -4.13688 0
M  V30 3724 N 356.222 1.38976 -0.743202 0
M  V30 3725 C 357.469 2.00343 -0.294752 0
M  V30 3726 C 357.797 1.58983 1.12047 0
M  V30 3727 O 357.052 0.813809 1.77977 0
M  V30 3728 C 357.351 3.55647 -0.353517 0
M  V30 3729 C 357.017 4.16685 -1.72292 0
M  V30 3730 C 355.679 4.3307 -2.09771 0
M  V30 3731 C 358.031 4.50464 -2.62168 0
M  V30 3732 C 355.359 4.80526 -3.36618 0
M  V30 3733 C 357.711 4.99332 -3.88395 0
M  V30 3734 C 356.375 5.13924 -4.25956 0
M  V30 3735 H 355.645 0.733108 -0.107857 0
M  V30 3736 H 358.292 1.6618 -0.951651 0
M  V30 3737 H 356.597 3.89884 0.386954 0
M  V30 3738 H 358.294 4.00998 0.0117269 0
M  V30 3739 H 354.884 4.04339 -1.42155 0
M  V30 3740 H 359.068 4.37416 -2.3448 0
M  V30 3741 H 354.324 4.90008 -3.65653 0
M  V30 3742 H 358.498 5.2444 -4.58187 0
M  V30 3743 H 356.125 5.50457 -5.2431 0
M  V30 3744 N 357.7 0.491464 1.49741 0
M  V30 3745 C 358.928 -0.0535151 2.06831 0
M  V30 3746 C 359.343 -1.31683 1.35296 0
M  V30 3747 O 358.7 -1.77402 0.42836 0
M  V30 3748 C 358.751 -0.320835 3.60073 0
M  V30 3749 O 358.472 0.892394 4.28915 0
M  V30 3750 C 359.973 -0.910519 4.33848 0
M  V30 3751 H 357.193 0.0161909 0.670805 0
M  V30 3752 H 359.737 0.68609 1.92647 0
M  V30 3753 H 357.892 -1.0104 3.73991 0
M  V30 3754 H 358.306 0.649401 5.20464 0
M  V30 3755 H 359.78 -1.04721 5.41976 0
M  V30 3756 H 360.257 -1.90589 3.95692 0
M  V30 3757 H 360.863 -0.258712 4.24512 0
M  V30 3758 N 359.178 -1.55987 0.224894 0
M  V30 3759 C 360.425 -1.9839 -0.4059 0
M  V30 3760 C 360.753 -1.11261 -1.59535 0
M  V30 3761 O 360.008 -0.158314 -1.95059 0
M  V30 3762 C 360.307 -3.46394 -0.880106 0
M  V30 3763 C 359.973 -4.5046 0.19918 0
M  V30 3764 C 358.635 -4.7864 0.495661 0
M  V30 3765 C 360.987 -5.12855 0.928939 0
M  V30 3766 C 358.315 -5.66497 1.52636 0
M  V30 3767 C 360.667 -6.01828 1.949 0
M  V30 3768 C 359.331 -6.28351 2.25236 0
M  V30 3769 H 358.601 -0.725961 -0.148529 0
M  V30 3770 H 361.248 -1.88668 0.328113 0
M  V30 3771 H 359.553 -3.53337 -1.69294 0
M  V30 3772 H 361.25 -3.76577 -1.37808 0
M  V30 3773 H 357.84 -4.28579 -0.0420526 0
M  V30 3774 H 362.024 -4.9115 0.713129 0
M  V30 3775 H 357.28 -5.8531 1.76698 0
M  V30 3776 H 361.454 -6.49225 2.51951 0
M  V30 3777 H 359.081 -6.96226 3.05244 0
M  V30 3778 N 360.656 0.0484629 -1.57525 0
M  V30 3779 C 361.586 1.0549 -2.08313 0
M  V30 3780 C 362.567 1.38929 -0.981463 0
M  V30 3781 O 363.752 1.48151 -1.25558 0
M  V30 3782 C 360.882 2.36162 -2.54646 0
M  V30 3783 C 359.836 2.17016 -3.68901 0
M  V30 3784 C 359.162 3.53278 -4.01371 0
M  V30 3785 C 360.462 1.57219 -4.98076 0
M  V30 3786 H 362.156 0.632195 -2.92649 0
M  V30 3787 H 359.702 0.302654 -1.40784 0
M  V30 3788 H 361.655 3.06882 -2.88793 0
M  V30 3789 H 360.379 2.80456 -1.67368 0
M  V30 3790 H 359.038 1.48733 -3.35073 0
M  V30 3791 H 358.686 3.95185 -3.11188 0
M  V30 3792 H 358.386 3.41299 -4.78318 0
M  V30 3793 H 359.91 4.25391 -4.38035 0
M  V30 3794 H 361.324 2.17832 -5.30304 0
M  V30 3795 H 359.721 1.55871 -5.79503 0
M  V30 3796 H 360.791 0.535956 -4.81929 0
M  V30 3797 N 362.134 1.5431 0.320358 0
M  V30 3798 C 363.081 1.83918 1.39438 0
M  V30 3799 C 364.051 0.686525 1.51248 0
M  V30 3800 O 365.236 0.933269 1.66417 0
M  V30 3801 C 362.376 2.075 2.75749 0
M  V30 3802 C 361.489 3.35177 2.72544 0
M  V30 3803 C 360.624 3.48704 4.00723 0
M  V30 3804 C 359.663 4.70244 3.91838 0
M  V30 3805 N 358.8 4.80679 5.11754 0
M  V30 3806 H 363.64 2.75544 1.13489 0
M  V30 3807 H 361.177 1.36459 0.549309 0
M  V30 3808 H 363.135 2.19166 3.54996 0
M  V30 3809 H 361.765 1.19163 3 0
M  V30 3810 H 360.817 3.32233 1.85271 0
M  V30 3811 H 362.129 4.24534 2.61863 0
M  V30 3812 H 361.283 3.59928 4.88402 0
M  V30 3813 H 360.022 2.57445 4.14214 0
M  V30 3814 H 359.027 4.59072 3.02544 0
M  V30 3815 H 360.252 5.6289 3.7991 0
M  V30 3816 H 358.198 3.92337 5.25745 0
M  V30 3817 H 358.115 5.64007 5.0342 0
M  V30 3818 H 359.383 4.96239 6.01138 0
M  V30 3819 N 363.613 -0.582584 1.46437 0
M  V30 3820 C 364.859 -1.34278 1.51978 0
M  V30 3821 C 365.192 -1.93446 0.170973 0
M  V30 3822 O 364.467 -1.76481 -0.817608 0
M  V30 3823 C 364.75 -2.47203 2.61845 0
M  V30 3824 C 364.603 -1.93069 4.06257 0
M  V30 3825 C 365.922 -3.49247 2.67795 0
M  V30 3826 H 363.041 -0.486876 0.553282 0
M  V30 3827 H 365.683 -0.654437 1.78374 0
M  V30 3828 H 363.833 -3.0592 2.39469 0
M  V30 3829 H 365.505 -1.38808 4.3992 0
M  V30 3830 H 363.748 -1.23898 4.1573 0
M  V30 3831 H 364.419 -2.74586 4.7886 0
M  V30 3832 H 366.895 -3.00411 2.8791 0
M  V30 3833 H 365.771 -4.25719 3.46489 0
M  V30 3834 H 366.032 -4.06482 1.73852 0
M  V30 3835 N 365.091 -1.34144 -0.827227 0
M  V30 3836 C 366.021 -1.28005 -1.95287 0
M  V30 3837 C 367.002 -0.158321 -1.69362 0
M  V30 3838 O 368.187 -0.349987 -1.9102 0
M  V30 3839 C 365.317 -1.03036 -3.31664 0
M  V30 3840 C 364.271 -2.11628 -3.72019 0
M  V30 3841 C 363.597 -1.71854 -5.0633 0
M  V30 3842 C 364.897 -3.53417 -3.8457 0
M  V30 3843 H 366.591 -2.22187 -2.00682 0
M  V30 3844 H 364.137 -1.0696 -0.964135 0
M  V30 3845 H 366.09 -0.973863 -4.09993 0
M  V30 3846 H 364.814 -0.0529391 -3.26557 0
M  V30 3847 H 363.473 -2.16339 -2.95961 0
M  V30 3848 H 363.121 -0.727841 -4.97706 0
M  V30 3849 H 362.821 -2.44531 -5.34302 0
M  V30 3850 H 364.345 -1.67692 -5.87122 0
M  V30 3851 H 365.759 -3.51142 -4.5318 0
M  V30 3852 H 364.156 -4.24679 -4.2399 0
M  V30 3853 H 365.226 -3.91072 -2.86689 0
M  V30 3854 N 366.569 1.04691 -1.17803 0
M  V30 3855 C 367.517 2.14665 -0.895635 0
M  V30 3856 C 368.511 1.68806 0.141679 0
M  V30 3857 O 369.717 1.79999 -0.00587914 0
M  V30 3858 H 366.092 0.701038 -0.272121 0
M  V30 3859 H 368.063 2.35685 -1.83017 0
M  V30 3860 C 366.812 3.45019 -0.430962 0
M  V30 3861 H 366.135 3.8071 -1.22064 0
M  V30 3862 H 367.575 4.23125 -0.272301 0
M  V30 3863 C 366.034 3.25943 0.852207 0
M  V30 3864 O 366.564 3.5296 1.91786 0
M  V30 3865 N 364.77 2.79304 0.802346 0
M  V30 3866 H 364.317 2.57518 -0.0650788 0
M  V30 3867 H 364.275 2.66921 1.66134 0
M  V30 3868 N 368.047 0.979072 1.23499 0
M  V30 3869 C 368.995 0.510604 2.26926 0
M  V30 3870 C 369.989 -0.431691 1.63807 0
M  V30 3871 O 371.195 -0.30573 1.77385 0
M  V30 3872 H 367.57 0.146688 0.737554 0
M  V30 3873 H 369.541 1.39466 2.63803 0
M  V30 3874 C 368.29 -0.172658 3.47271 0
M  V30 3875 H 367.613 0.543331 3.96091 0
M  V30 3876 H 369.053 -0.464101 4.21452 0
M  V30 3877 C 367.512 -1.40345 3.06276 0
M  V30 3878 O 368.042 -2.49978 3.14442 0
M  V30 3879 N 366.248 -1.27362 2.61203 0
M  V30 3880 H 365.795 -0.381584 2.54758 0
M  V30 3881 H 365.753 -2.09822 2.34141 0
M  V30 3882 N 369.525 -1.3858 0.750561 0
M  V30 3883 C 370.458 -2.28095 0.0693139 0
M  V30 3884 C 371.436 -1.45217 -0.731491 0
M  V30 3885 O 372.62 -1.74587 -0.71076 0
M  V30 3886 C 369.747 -3.26282 -0.90871 0
M  V30 3887 C 368.793 -4.26056 -0.194507 0
M  V30 3888 S 369.626 -5.24026 1.10257 0
M  V30 3889 C 370.782 -6.2577 0.127542 0
M  V30 3890 H 371.015 -2.85526 0.8284 0
M  V30 3891 H 368.548 -1.44536 0.543014 0
M  V30 3892 H 370.506 -3.83367 -1.46766 0
M  V30 3893 H 369.167 -2.6784 -1.64075 0
M  V30 3894 H 368.36 -4.95249 -0.93512 0
M  V30 3895 H 367.962 -3.72852 0.292837 0
M  V30 3896 H 370.254 -6.73796 -0.707516 0
M  V30 3897 H 371.197 -7.03712 0.787044 0
M  V30 3898 H 371.605 -5.63938 -0.251803 0
M  V30 3899 N 371.003 -0.499398 -1.49478 0
M  V30 3900 C 371.913 0.284489 -2.32869 0
M  V30 3901 C 372.929 0.968885 -1.44529 0
M  V30 3902 O 374.105 0.95062 -1.77553 0
M  V30 3903 C 371.17 1.33594 -3.19928 0
M  V30 3904 C 370.231 0.665149 -4.24116 0
M  V30 3905 C 369.464 1.6665 -5.07014 0
M  V30 3906 O 369.687 2.89618 -4.91404 0
M  V30 3907 O 368.621 1.22271 -5.8935 0
M  V30 3908 H 372.447 -0.39802 -3.01081 0
M  V30 3909 H 370.032 -0.260758 -1.47107 0
M  V30 3910 H 371.914 1.94431 -3.73864 0
M  V30 3911 H 370.589 2.0014 -2.54412 0
M  V30 3912 H 369.496 0.0170769 -3.74096 0
M  V30 3913 H 370.829 0.0421555 -4.92182 0
M  V30 3914 N 372.481 1.55866 -0.233164 0
M  V30 3915 C 373.73 1.97779 0.39579 0
M  V30 3916 C 374.043 1.12419 1.60066 0
M  V30 3917 O 375.249 1.44283 2.29988 0
M  V30 3918 C 373.705 3.5188 0.755556 0
M  V30 3919 C 373.313 4.45959 -0.427152 0
M  V30 3920 C 375.057 4.02479 1.34946 0
M  V30 3921 C 372.964 5.91383 -0.0443043 0
M  V30 3922 H 371.894 0.738592 0.15165 0
M  V30 3923 H 374.545 1.80486 -0.331212 0
M  V30 3924 H 372.927 3.64816 1.5403 0
M  V30 3925 H 374.101 4.44776 -1.20462 0
M  V30 3926 H 372.416 4.05765 -0.935068 0
M  V30 3927 H 375.013 5.08637 1.649 0
M  V30 3928 H 375.356 3.49014 2.26925 0
M  V30 3929 H 375.889 3.92813 0.62791 0
M  V30 3930 H 372.628 6.48857 -0.930874 0
M  V30 3931 H 372.148 5.95734 0.697238 0
M  V30 3932 H 373.827 6.45893 0.378334 0
M  V30 3933 N 373.959 -0.0401083 1.57549 0
M  V30 3934 C 375.207 -0.731677 1.8839 0
M  V30 3935 C 375.528 -1.76481 0.829425 0
M  V30 3936 O 374.798 -1.95411 -0.1383 0
M  V30 3937 H 373.378 -0.273225 0.695239 0
M  V30 3938 H 376.04 -0.00867725 1.94898 0
M  V30 3939 H 375.136 -1.22816 2.86919 0
M  V30 3940 N 375.437 -1.54477 -0.31217 0
M  V30 3941 C 376.665 -1.77205 -1.068 0
M  V30 3942 C 377.08 -0.526114 -1.81321 0
M  V30 3943 O 376.437 0.503647 -1.75413 0
M  V30 3944 C 376.488 -2.97253 -2.05725 0
M  V30 3945 O 376.209 -4.1703 -1.34228 0
M  V30 3946 C 377.71 -3.32281 -2.93435 0
M  V30 3947 H 374.93 -0.591287 -0.317208 0
M  V30 3948 H 377.474 -2.01398 -0.354834 0
M  V30 3949 H 375.629 -2.753 -2.72559 0
M  V30 3950 H 376.043 -4.84636 -2.00571 0
M  V30 3951 H 377.517 -4.19551 -3.58721 0
M  V30 3952 H 377.994 -2.49945 -3.61143 0
M  V30 3953 H 378.6 -3.56353 -2.32147 0
M  V30 3954 N 376.915 0.57481 -1.46744 0
M  V30 3955 C 378.14 1.36341 -1.56288 0
M  V30 3956 C 378.565 1.86954 -0.207347 0
M  V30 3957 O 377.923 1.62006 0.813871 0
M  V30 3958 C 377.971 2.52147 -2.57787 0
M  V30 3959 O 377.075 3.53834 -2.11838 0
M  V30 3960 H 376.416 0.405713 -0.525636 0
M  V30 3961 H 378.946 0.696453 -1.92382 0
M  V30 3962 H 378.956 2.98958 -2.77648 0
M  V30 3963 H 377.631 2.14663 -3.5622 0
M  V30 3964 H 376.208 3.1345 -2.01999 0
M  V30 3965 N 378.394 1.34581 0.820102 0
M  V30 3966 C 379.324 1.29038 1.94606 0
M  V30 3967 C 380.305 0.1673 1.69275 0
M  V30 3968 O 381.49 0.360112 1.90832 0
M  V30 3969 C 378.62 1.04793 3.31113 0
M  V30 3970 C 377.574 2.13597 3.70891 0
M  V30 3971 C 376.9 1.74537 5.05412 0
M  V30 3972 C 378.2 3.55451 3.8269 0
M  V30 3973 H 379.894 2.23248 1.99501 0
M  V30 3974 H 377.44 1.0747 0.958449 0
M  V30 3975 H 379.393 0.995592 4.0947 0
M  V30 3976 H 378.117 0.0702565 3.26524 0
M  V30 3977 H 376.776 2.17905 2.9481 0
M  V30 3978 H 376.424 0.754226 4.97313 0
M  V30 3979 H 376.124 2.47361 5.32997 0
M  V30 3980 H 377.648 1.70803 5.86224 0
M  V30 3981 H 379.062 3.5354 4.51312 0
M  V30 3982 H 377.459 4.26922 4.21732 0
M  V30 3983 H 378.529 3.92587 2.84611 0
M  V30 3984 N 379.872 -1.04064 1.18357 0
M  V30 3985 C 381.119 -1.77265 0.978947 0
M  V30 3986 C 381.447 -1.88189 -0.491428 0
M  V30 3987 O 380.702 -1.38653 -1.38108 0
M  V30 3988 C 381.001 -3.20634 1.57888 0
M  V30 3989 C 380.667 -3.29743 3.07539 0
M  V30 3990 C 379.329 -3.31937 3.48384 0
M  V30 3991 C 381.681 -3.29841 4.03552 0
M  V30 3992 C 379.009 -3.3187 4.83818 0
M  V30 3993 C 381.361 -3.31313 5.38901 0
M  V30 3994 C 380.025 -3.31799 5.79194 0
M  V30 3995 H 379.295 -0.648659 0.358222 0
M  V30 3996 H 381.942 -1.22225 1.47422 0
M  V30 3997 H 380.247 -3.78675 1.00561 0
M  V30 3998 H 381.944 -3.75917 1.39598 0
M  V30 3999 H 378.534 -3.28757 2.74986 0
M  V30 4000 H 382.718 -3.27337 3.73047 0
M  V30 4001 H 377.974 -3.30562 5.14333 0
M  V30 4002 H 382.148 -3.30338 6.13066 0
M  V30 4003 H 379.775 -3.315 6.84114 0
M  V30 4004 N 381.35 -0.985608 -1.22978 0
M  V30 4005 C 382.627 -0.573599 -1.87001 0
M  V30 4006 C 383.007 0.949213 -1.88555 0
M  V30 4007 O 382.355 1.82811 -1.37086 0
M  V30 4008 C 382.565 -1.18564 -3.28243 0
M  V30 4009 C 383.913 -1.28163 -4.04796 0
M  V30 4010 O 384.937 -1.13949 -3.37482 0
M  V30 4011 O 383.796 -1.50832 -5.25273 0
M  V30 4012 H 380.89 -0.193868 -0.803955 0
M  V30 4013 H 383.436 -1.08102 -1.30813 0
M  V30 4014 H 382.208 -2.22758 -3.21706 0
M  V30 4015 H 381.831 -0.663363 -3.92027 0
M  V30 4016 N 382.828 1.3818 -0.7579 0
M  V30 4017 C 383.738 2.3421 -0.135247 0
M  V30 4018 C 384.754 1.59487 0.695683 0
M  V30 4019 O 385.93 1.91657 0.618832 0
M  V30 4020 C 382.995 3.3862 0.744139 0
M  V30 4021 C 382.056 4.2918 -0.101658 0
M  V30 4022 C 381.289 5.28603 0.735851 0
M  V30 4023 O 381.512 5.35166 1.97366 0
M  V30 4024 O 380.446 6.01707 0.152372 0
M  V30 4025 H 384.272 2.8916 -0.928436 0
M  V30 4026 H 381.857 1.40101 -0.518855 0
M  V30 4027 H 383.739 4.02539 1.2466 0
M  V30 4028 H 382.414 2.86019 1.51575 0
M  V30 4029 H 381.321 3.68407 -0.650167 0
M  V30 4030 H 382.654 4.85048 -0.836024 0
M  V30 4031 N 384.306 0.507319 1.49211 0
M  V30 4032 C 385.216 -0.272136 2.33016 0
M  V30 4033 C 386.232 -0.961206 1.45041 0
M  V30 4034 O 387.408 -0.941191 1.78055 0
M  V30 4035 C 384.473 -1.31895 3.20631 0
M  V30 4036 C 383.534 -0.642648 4.24463 0
M  V30 4037 C 382.767 -1.63959 5.07891 0
M  V30 4038 O 382.99 -2.87007 4.92933 0
M  V30 4039 O 381.924 -1.19143 5.8999 0
M  V30 4040 H 385.75 0.413982 3.00865 0
M  V30 4041 H 383.335 0.268556 1.46966 0
M  V30 4042 H 385.217 -1.92446 3.7489 0
M  V30 4043 H 383.892 -1.98788 2.5547 0
M  V30 4044 H 382.799 0.00276252 3.741 0
M  V30 4045 H 384.132 -0.0160534 4.92197 0
M  V30 4046 N 385.784 -1.5574 0.241426 0
M  V30 4047 C 387.032 -1.98417 -0.384075 0
M  V30 4048 C 387.353 -1.13078 -1.58866 0
M  V30 4049 O 386.623 -0.212312 -1.94746 0
M  V30 4050 H 385.203 -0.732813 -0.144894 0
M  V30 4051 H 387.865 -1.9193 0.338943 0
M  V30 4052 H 386.961 -3.04219 -0.696939 0
M  V30 4053 N 387.262 0.0317525 -1.57568 0
M  V30 4054 C 388.225 1.01783 -2.0536 0
M  V30 4055 C 389.225 1.29203 -0.957253 0
M  V30 4056 O 390.415 1.24251 -1.22095 0
M  V30 4057 C 387.547 2.35137 -2.46827 0
M  V30 4058 H 388.74 0.605062 -2.93733 0
M  V30 4059 H 386.293 0.278514 -1.53799 0
M  V30 4060 H 387.028 2.81168 -1.61602 0
M  V30 4061 H 386.813 2.16566 -3.26866 0
M  V30 4062 H 388.303 3.05938 -2.84239 0
M  V30 4063 N 388.74 1.54641 0.303973 0
M  V30 4064 C 389.687 1.85386 1.37479 0
M  V30 4065 C 390.657 0.702528 1.50512 0
M  V30 4066 O 391.842 0.950867 1.65418 0
M  V30 4067 C 388.982 2.10413 2.73533 0
M  V30 4068 C 388.095 3.38049 2.68974 0
M  V30 4069 C 387.23 3.52934 3.97002 0
M  V30 4070 C 386.269 4.74373 3.86829 0
M  V30 4071 N 385.406 4.8608 5.06627 0
M  V30 4072 H 390.246 2.76732 1.1056 0
M  V30 4073 H 387.783 1.37034 0.534805 0
M  V30 4074 H 389.741 2.22919 3.52652 0
M  V30 4075 H 388.371 1.22338 2.98719 0
M  V30 4076 H 387.423 3.3418 1.81736 0
M  V30 4077 H 388.735 4.27288 2.57346 0
M  V30 4078 H 387.889 3.65088 4.84557 0
M  V30 4079 H 386.628 2.61824 4.1146 0
M  V30 4080 H 385.633 4.62255 2.97658 0
M  V30 4081 H 386.858 5.66888 3.73918 0
M  V30 4082 H 384.804 3.97891 5.21554 0
M  V30 4083 H 384.721 5.69315 4.9741 0
M  V30 4084 H 385.989 5.02587 5.95841 0
M  V30 4085 N 390.218 -0.567019 1.47046 0
M  V30 4086 C 391.467 -1.32091 1.5243 0
M  V30 4087 C 391.78 -1.94704 0.187021 0
M  V30 4088 O 392.986 -2.7124 0.118771 0
M  V30 4089 C 391.442 -2.39479 2.68659 0
M  V30 4090 C 391.05 -1.831 4.08874 0
M  V30 4091 C 392.794 -3.16111 2.83327 0
M  V30 4092 C 390.701 -2.8821 5.16419 0
M  V30 4093 H 389.631 -0.496629 0.56734 0
M  V30 4094 H 392.282 -0.603354 1.73297 0
M  V30 4095 H 390.664 -3.14105 2.41152 0
M  V30 4096 H 391.838 -1.14913 4.46242 0
M  V30 4097 H 390.153 -1.19085 3.99008 0
M  V30 4098 H 392.75 -3.94585 3.60842 0
M  V30 4099 H 393.093 -3.69686 1.91411 0
M  V30 4100 H 393.626 -2.48595 3.10556 0
M  V30 4101 H 390.365 -2.39504 6.10179 0
M  V30 4102 H 389.885 -3.54839 4.8358 0
M  V30 4103 H 391.564 -3.51881 5.42945 0
M  V30 4104 N 391.696 -1.35014 -0.812953 0
M  V30 4105 C 392.942 -1.2812 -1.57204 0
M  V30 4106 C 393.275 0.145869 -1.93651 0
M  V30 4107 O 392.55 1.0937 -1.60836 0
M  V30 4108 C 392.833 -2.18162 -2.86492 0
M  V30 4109 C 392.686 -3.69454 -2.56561 0
M  V30 4110 C 394.005 -2.07439 -3.88145 0
M  V30 4111 H 391.124 -0.466746 -0.570366 0
M  V30 4112 H 393.766 -1.65357 -0.935783 0
M  V30 4113 H 391.916 -1.86535 -3.40789 0
M  V30 4114 H 393.588 -4.11493 -2.08497 0
M  V30 4115 H 391.831 -3.9005 -1.89851 0
M  V30 4116 H 392.502 -4.27835 -3.48799 0
M  V30 4117 H 394.978 -2.35228 -3.4323 0
M  V30 4118 H 393.854 -2.7265 -4.76396 0
M  V30 4119 H 394.115 -1.05439 -4.29343 0
M  V30 4120 N 393.175 1.03435 -1.18907 0
M  V30 4121 C 394.122 2.11591 -0.921837 0
M  V30 4122 C 395.092 1.65499 0.141226 0
M  V30 4123 O 396.277 1.908 0.000242829 0
M  V30 4124 C 393.417 3.42012 -0.460616 0
M  V30 4125 C 392.53 4.01682 -1.58982 0
M  V30 4126 C 391.665 5.20091 -1.08069 0
M  V30 4127 C 390.704 5.71805 -2.18416 0
M  V30 4128 N 389.841 6.81494 -1.68849 0
M  V30 4129 H 394.681 2.33787 -1.8479 0
M  V30 4130 H 392.218 1.1467 -0.921373 0
M  V30 4131 H 394.176 4.16834 -0.174642 0
M  V30 4132 H 392.806 3.19944 0.428467 0
M  V30 4133 H 391.858 3.24127 -1.99113 0
M  V30 4134 H 393.17 4.36084 -2.4214 0
M  V30 4135 H 392.324 6.02051 -0.749615 0
M  V30 4136 H 391.063 4.87209 -0.218771 0
M  V30 4137 H 390.068 4.88461 -2.5236 0
M  V30 4138 H 391.293 6.06728 -3.05054 0
M  V30 4139 H 389.239 6.50475 -0.849572 0
M  V30 4140 H 389.156 7.14994 -2.45601 0
M  V30 4141 H 390.424 7.67063 -1.38689 0
M  V30 4142 N 394.653 0.992116 1.22453 0
M  V30 4143 C 395.93 0.583508 1.86694 0
M  V30 4144 C 396.31 -0.9392 1.89056 0
M  V30 4145 O 395.658 -1.82081 1.38053 0
M  V30 4146 C 395.868 1.20304 3.2761 0
M  V30 4147 C 397.216 1.30308 4.0411 0
M  V30 4148 O 398.24 1.15737 3.36873 0
M  V30 4149 O 397.099 1.53615 5.24466 0
M  V30 4150 H 394.193 0.198129 0.802916 0
M  V30 4151 H 396.739 1.08794 1.30238 0
M  V30 4152 H 395.511 2.24461 3.2052 0
M  V30 4153 H 395.134 0.684144 3.9167 0
M  V30 4154 N 396.131 -1.37776 0.765217 0
M  V30 4155 C 397.061 -2.32945 0.160953 0
M  V30 4156 C 398.042 -1.55454 -0.690516 0
M  V30 4157 O 399.227 -1.83721 -0.629318 0
M  V30 4158 C 396.357 -3.39669 -0.724031 0
M  V30 4159 C 395.311 -4.27992 0.0256173 0
M  V30 4160 C 394.637 -5.25673 -0.978383 0
M  V30 4161 C 395.937 -5.08309 1.20082 0
M  V30 4162 H 397.631 -2.83728 0.955969 0
M  V30 4163 H 395.177 -1.36416 0.461149 0
M  V30 4164 H 397.13 -4.05219 -1.15652 0
M  V30 4165 H 395.854 -2.87396 -1.5515 0
M  V30 4166 H 394.513 -3.63964 0.438812 0
M  V30 4167 H 394.161 -4.69682 -1.80022 0
M  V30 4168 H 393.861 -5.85625 -0.481378 0
M  V30 4169 H 395.385 -5.94098 -1.40995 0
M  V30 4170 H 396.799 -5.67034 0.845307 0
M  V30 4171 H 395.196 -5.77554 1.62947 0
M  V30 4172 H 396.266 -4.41365 2.00811 0
M  V30 4173 N 397.609 -0.515225 -1.4894 0
M  V30 4174 C 398.542 0.302518 -2.26186 0
M  V30 4175 C 399.52 0.957895 -1.31389 0
M  V30 4176 O 400.704 0.985198 -1.60705 0
M  V30 4177 C 397.831 1.42719 -3.07163 0
M  V30 4178 C 396.877 0.884736 -4.17223 0
M  V30 4179 S 397.71 -0.235767 -5.34981 0
M  V30 4180 C 398.866 0.891731 -6.19515 0
M  V30 4181 H 399.099 -0.353076 -2.95196 0
M  V30 4182 H 396.632 -0.300753 -1.51443 0
M  V30 4183 H 398.59 2.07152 -3.54398 0
M  V30 4184 H 397.251 2.05445 -2.37595 0
M  V30 4185 H 396.444 1.72801 -4.73451 0
M  V30 4186 H 396.046 0.317362 -3.72651 0
M  V30 4187 H 398.338 1.79377 -6.53322 0
M  V30 4188 H 399.281 0.367751 -7.07144 0
M  V30 4189 H 399.689 1.16548 -5.52338 0
M  V30 4190 N 399.087 1.5561 -0.249682 0
M  V30 4191 C 400.312 2.03865 0.381305 0
M  V30 4192 C 400.737 1.12769 1.50548 0
M  V30 4193 O 400.095 0.121189 1.80895 0
M  V30 4194 C 400.143 3.50101 0.863816 0
M  V30 4195 O 399.247 3.62132 1.97318 0
M  V30 4196 H 398.588 0.658827 0.0827194 0
M  V30 4197 H 401.118 2.01105 -0.376552 0
M  V30 4198 H 401.128 3.90975 1.1663 0
M  V30 4199 H 399.803 4.1588 0.0411816 0
M  V30 4200 H 398.38 3.33155 1.67517 0
M  V30 4201 N 400.565 -0.0233959 1.57583 0
M  V30 4202 C 401.512 -1.02224 2.06927 0
M  V30 4203 C 402.482 -1.35575 0.959617 0
M  V30 4204 O 403.667 -1.45815 1.23055 0
M  V30 4205 C 400.807 -2.31636 2.5581 0
M  V30 4206 C 399.92 -2.04394 3.80588 0
M  V30 4207 C 399.055 -3.27717 4.18061 0
M  V30 4208 C 398.094 -2.96056 5.3574 0
M  V30 4209 N 397.231 -4.11847 5.68618 0
M  V30 4210 H 402.071 -0.594504 2.9201 0
M  V30 4211 H 399.608 -0.281921 1.44373 0
M  V30 4212 H 401.566 -3.07258 2.82221 0
M  V30 4213 H 400.196 -2.72122 1.73636 0
M  V30 4214 H 399.248 -1.19244 3.61227 0
M  V30 4215 H 400.56 -1.77042 4.66323 0
M  V30 4216 H 399.714 -4.11702 4.4563 0
M  V30 4217 H 398.453 -3.58188 3.30988 0
M  V30 4218 H 397.458 -2.10474 5.07918 0
M  V30 4219 H 398.683 -2.66857 6.24471 0
M  V30 4220 H 396.629 -4.42258 4.84504 0
M  V30 4221 H 396.546 -3.87938 6.48876 0
M  V30 4222 H 397.814 -4.96689 6.00766 0
M  V30 4223 N 402.043 -1.548 -0.295768 0
M  V30 4224 C 403.006 -1.85363 -1.34808 0
M  V30 4225 C 404.006 -0.726817 -1.43436 0
M  V30 4226 O 405.196 -0.995088 -1.42981 0
M  V30 4227 C 402.328 -2.03859 -2.73229 0
M  V30 4228 H 403.521 -2.7941 -1.08949 0
M  V30 4229 H 401.074 -1.46942 -0.532702 0
M  V30 4230 H 401.809 -1.12117 -3.04303 0
M  V30 4231 H 401.594 -2.8588 -2.68356 0
M  V30 4232 H 403.084 -2.28857 -3.49305 0
M  V30 4233 N 403.521 0.559213 -1.47345 0
M  V30 4234 C 404.431 1.69388 -1.62311 0
M  V30 4235 C 405.447 1.6648 -0.505993 0
M  V30 4236 O 406.623 1.85964 -0.773262 0
M  V30 4237 C 403.688 3.05894 -1.63185 0
M  V30 4238 C 402.749 3.19885 -2.86307 0
M  V30 4239 C 401.982 4.49879 -2.87131 0
M  V30 4240 O 402.205 5.35217 -1.97229 0
M  V30 4241 O 401.139 4.67618 -3.78968 0
M  V30 4242 H 404.965 1.59706 -2.58317 0
M  V30 4243 H 402.55 0.728989 -1.30407 0
M  V30 4244 H 404.432 3.87133 -1.66451 0
M  V30 4245 H 403.107 3.15964 -0.70345 0
M  V30 4246 H 402.014 2.38052 -2.88587 0
M  V30 4247 H 403.347 3.14718 -3.78435 0
M  V30 4248 N 404.999 1.35443 0.805782 0
M  V30 4249 C 405.946 1.28431 1.91766 0
M  V30 4250 C 406.916 0.156102 1.65365 0
M  V30 4251 O 408.101 0.339936 1.87747 0
M  V30 4252 C 405.241 1.06301 3.2832 0
M  V30 4253 C 404.354 2.2805 3.66902 0
M  V30 4254 C 403.489 1.99064 4.92491 0
M  V30 4255 C 402.528 3.16863 5.23703 0
M  V30 4256 N 401.665 2.87647 6.40471 0
M  V30 4257 H 406.505 2.23511 1.97096 0
M  V30 4258 H 404.042 1.11105 0.964054 0
M  V30 4259 H 406 0.915012 4.07042 0
M  V30 4260 H 404.63 0.148822 3.22457 0
M  V30 4261 H 403.682 2.53711 2.83434 0
M  V30 4262 H 404.994 3.1601 3.85927 0
M  V30 4263 H 404.148 1.81099 5.7904 0
M  V30 4264 H 402.887 1.0839 4.75503 0
M  V30 4265 H 401.892 3.35404 4.35642 0
M  V30 4266 H 403.117 4.08339 5.4262 0
M  V30 4267 H 401.063 1.99568 6.24907 0
M  V30 4268 H 400.98 3.69141 6.59751 0
M  V30 4269 H 402.248 2.73226 7.30047 0
M  V30 4270 N 406.477 -1.02803 1.19454 0
M  V30 4271 C 407.425 -2.13213 0.929673 0
M  V30 4272 C 408.419 -1.69011 -0.114806 0
M  V30 4273 O 409.625 -1.79967 0.0345147 0
M  V30 4274 H 406 -0.69662 0.28324 0
M  V30 4275 H 407.971 -2.32744 1.86743 0
M  V30 4276 C 406.72 -3.4429 0.485797 0
M  V30 4277 H 406.043 -3.7872 1.28105 0
M  V30 4278 H 407.483 -4.22638 0.339582 0
M  V30 4279 C 405.942 -3.27258 -0.800244 0
M  V30 4280 O 406.472 -3.55967 -1.86146 0
M  V30 4281 N 404.678 -2.80545 -0.75781 0
M  V30 4282 H 404.225 -2.57382 0.106039 0
M  V30 4283 H 404.183 -2.6953 -1.61867 0
M  V30 4284 N 407.956 -0.998596 -1.21925 0
M  V30 4285 C 409.204 -0.676325 -1.90448 0
M  V30 4286 C 409.525 0.794719 -1.78071 0
M  V30 4287 O 408.795 1.5701 -1.17152 0
M  V30 4288 H 407.375 -0.247165 -0.704925 0
M  V30 4289 H 410.037 -1.26633 -1.48156 0
M  V30 4290 H 409.133 -0.943858 -2.97486 0
M  V30 4291 N 409.434 1.37368 -0.772513 0
M  V30 4292 C 410.68 1.99969 -0.337681 0
M  V30 4293 C 411.013 1.61184 1.08321 0
M  V30 4294 O 410.288 0.858395 1.74533 0
M  V30 4295 C 410.571 3.56858 -0.482121 0
M  V30 4296 C 410.424 4.0555 -1.94549 0
M  V30 4297 C 411.743 4.39955 0.113143 0
M  V30 4298 H 408.862 0.726464 -0.124171 0
M  V30 4299 H 411.504 1.63034 -0.975699 0
M  V30 4300 H 409.654 3.88452 0.0610361 0
M  V30 4301 H 411.326 3.84518 -2.54841 0
M  V30 4302 H 409.569 3.57715 -2.45403 0
M  V30 4303 H 410.24 5.14587 -1.9976 0
M  V30 4304 H 412.716 4.14623 -0.35031 0
M  V30 4305 H 411.592 5.48897 -0.0180514 0
M  V30 4306 H 411.853 4.25403 1.20354 0
M  V30 4307 N 410.912 0.523116 1.48665 0
M  V30 4308 C 411.859 -0.243398 2.29513 0
M  V30 4309 C 412.829 -0.940139 1.36933 0
M  V30 4310 O 414.014 -0.942503 1.65896 0
M  V30 4311 C 411.154 -1.28855 3.20141 0
M  V30 4312 C 410.267 -0.60135 4.27794 0
M  V30 4313 C 409.402 -1.62884 5.05611 0
M  V30 4314 C 408.441 -0.924726 6.05075 0
M  V30 4315 N 407.578 -1.89744 6.75975 0
M  V30 4316 H 412.418 0.452234 2.94549 0
M  V30 4317 H 409.955 0.234858 1.45213 0
M  V30 4318 H 411.913 -1.90674 3.71079 0
M  V30 4319 H 410.543 -1.95266 2.57043 0
M  V30 4320 H 409.595 0.130623 3.80176 0
M  V30 4321 H 410.907 -0.0481585 4.98777 0
M  V30 4322 H 410.061 -2.32149 5.60528 0
M  V30 4323 H 408.8 -2.21592 4.34452 0
M  V30 4324 H 407.805 -0.217966 5.49368 0
M  V30 4325 H 409.03 -0.343851 6.78229 0
M  V30 4326 H 406.976 -2.47373 6.07571 0
M  V30 4327 H 406.893 -1.3955 7.43009 0
M  V30 4328 H 408.161 -2.58229 7.35485 0
M  V30 4329 N 412.39 -1.55475 0.257931 0
M  V30 4330 C 413.639 -1.98383 -0.364275 0
M  V30 4331 C 413.952 -1.14952 -1.58258 0
M  V30 4332 O 415.158 -1.47924 -2.27664 0
M  V30 4333 C 413.614 -3.53037 -0.699479 0
M  V30 4334 C 413.222 -4.45223 0.498046 0
M  V30 4335 C 414.966 -4.04575 -1.28526 0
M  V30 4336 C 412.873 -5.91238 0.138383 0
M  V30 4337 H 411.803 -0.740911 -0.13988 0
M  V30 4338 H 414.454 -1.79936 0.359883 0
M  V30 4339 H 412.836 -3.6722 -1.48207 0
M  V30 4340 H 414.01 -4.42803 1.27522 0
M  V30 4341 H 412.325 -4.04226 0.999503 0
M  V30 4342 H 414.922 -5.11196 -1.56788 0
M  V30 4343 H 415.265 -3.5258 -2.21344 0
M  V30 4344 H 415.798 -3.93762 -0.565337 0
M  V30 4345 H 412.537 -6.47294 1.03398 0
M  V30 4346 H 412.057 -5.96768 -0.602374 0
M  V30 4347 H 413.736 -6.46413 -0.27553 0
M  V30 4348 N 413.868 0.0150385 -1.57593 0
M  V30 4349 C 415.096 0.714395 -1.94175 0
M  V30 4350 C 415.511 1.68135 -0.858841 0
M  V30 4351 O 414.868 1.81766 0.163567 0
M  V30 4352 C 414.919 1.45933 -3.30735 0
M  V30 4353 O 414.64 0.531167 -4.34868 0
M  V30 4354 C 416.141 2.25456 -3.81686 0
M  V30 4355 H 413.361 0.199923 -0.640525 0
M  V30 4356 H 415.905 -0.0316096 -2.04476 0
M  V30 4357 H 414.06 2.15709 -3.21789 0
M  V30 4358 H 414.474 1.05509 -5.13778 0
M  V30 4359 H 415.948 2.731 -4.79709 0
M  V30 4360 H 416.425 3.07485 -3.13607 0
M  V30 4361 H 417.031 1.60727 -3.9376 0
M  V30 4362 N 415.346 1.54954 0.287554 0
M  V30 4363 C 416.276 1.89839 1.35954 0
M  V30 4364 C 417.257 0.758675 1.52244 0
M  V30 4365 O 418.442 1.01557 1.65529 0
M  V30 4366 C 415.572 2.15753 2.72154 0
M  V30 4367 C 414.526 3.3159 2.70614 0
M  V30 4368 C 413.852 3.42952 4.10229 0
M  V30 4369 C 415.152 4.68359 2.31165 0
M  V30 4370 H 416.846 2.79625 1.07007 0
M  V30 4371 H 414.392 1.3454 0.513316 0
M  V30 4372 H 416.345 2.38743 3.47246 0
M  V30 4373 H 415.069 1.22752 3.02654 0
M  V30 4374 H 413.728 3.08545 1.97979 0
M  V30 4375 H 413.376 2.47443 4.37928 0
M  V30 4376 H 413.076 4.20826 4.10097 0
M  V30 4377 H 414.6 3.68218 4.87081 0
M  V30 4378 H 416.014 4.9099 2.95976 0
M  V30 4379 H 414.411 5.49044 2.42221 0
M  V30 4380 H 415.481 4.68165 1.26291 0
M  V30 4381 N 416.824 -0.551391 1.4764 0
M  V30 4382 C 418.235 -1.13349 1.48354 0
M  V30 4383 C 418.586 -1.94709 0.241432 0
M  V30 4384 O 417.711 -2.06306 -0.653205 0
M  V30 4385 C 418.306 -2.0623 2.68802 0
M  V30 4386 C 416.865 -2.597 2.72457 0
M  V30 4387 C 416.012 -1.36201 2.41546 0
M  V30 4388 H 418.963 -0.337698 1.55065 0
M  V30 4389 H 418.984 -2.90196 2.46103 0
M  V30 4390 H 418.496 -1.46987 3.59188 0
M  V30 4391 H 416.597 -3.22724 1.86225 0
M  V30 4392 H 416.71 -3.00296 3.73308 0
M  V30 4393 H 415.074 -1.67068 1.9225 0
M  V30 4394 H 415.857 -0.787425 3.34147 0
M  V30 4395 N 418.302 -1.35869 -0.798587 0
M  V30 4396 C 419.548 -1.2978 -1.55836 0
M  V30 4397 C 419.881 0.125322 -1.93795 0
M  V30 4398 O 419.156 1.07658 -1.61987 0
M  V30 4399 C 419.439 -2.21188 -2.84162 0
M  V30 4400 C 419.292 -3.72155 -2.52628 0
M  V30 4401 C 420.611 -2.11545 -3.85923 0
M  V30 4402 H 417.73 -0.472769 -0.565383 0
M  V30 4403 H 420.372 -1.66341 -0.918192 0
M  V30 4404 H 418.522 -1.90139 -3.38791 0
M  V30 4405 H 420.194 -4.13682 -2.04121 0
M  V30 4406 H 418.437 -3.92042 -1.85704 0
M  V30 4407 H 419.108 -4.31511 -3.44242 0
M  V30 4408 H 421.584 -2.38855 -3.40716 0
M  V30 4409 H 420.46 -2.77688 -4.73477 0
M  V30 4410 H 420.721 -1.09987 -4.282 0
M  V30 4411 N 419.78 1.02168 -1.19998 0
M  V30 4412 C 421.057 1.72816 -0.916191 0
M  V30 4413 C 421.437 2.03081 0.576325 0
M  V30 4414 O 420.785 1.69122 1.53656 0
M  V30 4415 C 420.995 2.9997 -1.78378 0
M  V30 4416 C 422.343 3.73336 -2.02251 0
M  V30 4417 O 423.367 3.09914 -1.75589 0
M  V30 4418 O 422.226 4.87371 -2.47249 0
M  V30 4419 H 419.32 0.752924 -0.342103 0
M  V30 4420 H 421.866 1.08062 -1.30846 0
M  V30 4421 H 420.638 2.73888 -2.79466 0
M  V30 4422 H 420.261 3.72464 -1.39126 0
M  V30 4423 N 421.258 1.00505 1.21394 0
M  V30 4424 C 422.505 0.687774 1.90462 0
M  V30 4425 C 422.833 -0.78147 1.7811 0
M  V30 4426 O 422.088 -1.58208 1.1519 0
M  V30 4427 C 422.387 1.0546 3.41486 0
M  V30 4428 C 422.053 2.51812 3.74034 0
M  V30 4429 C 420.715 2.91804 3.82628 0
M  V30 4430 C 423.067 3.46614 3.8924 0
M  V30 4431 C 420.395 4.2556 4.03876 0
M  V30 4432 C 422.747 4.80044 4.11995 0
M  V30 4433 C 421.411 5.19759 4.18816 0
M  V30 4434 H 420.681 0.251674 0.696951 0
M  V30 4435 H 423.328 1.26349 1.43903 0
M  V30 4436 H 421.633 0.397133 3.89782 0
M  V30 4437 H 423.33 0.786976 3.93202 0
M  V30 4438 H 419.92 2.1982 3.67936 0
M  V30 4439 H 424.104 3.16883 3.81967 0
M  V30 4440 H 419.36 4.55901 4.07387 0
M  V30 4441 H 423.534 5.53439 4.22704 0
M  V30 4442 H 421.161 6.23418 4.35033 0
M  V30 4443 N 422.737 -1.36956 0.779787 0
M  V30 4444 C 423.983 -1.99787 0.348281 0
M  V30 4445 C 424.316 -1.61756 -1.07465 0
M  V30 4446 O 423.591 -0.867639 -1.74075 0
M  V30 4447 C 423.874 -3.56597 0.50104 0
M  V30 4448 C 423.727 -4.04513 1.96697 0
M  V30 4449 C 425.046 -4.40008 -0.0898097 0
M  V30 4450 H 422.165 -0.725796 0.128022 0
M  V30 4451 H 424.807 -1.62514 0.984331 0
M  V30 4452 H 422.957 -3.88479 -0.0404347 0
M  V30 4453 H 424.629 -3.83161 2.56876 0
M  V30 4454 H 422.872 -3.56408 2.47297 0
M  V30 4455 H 423.543 -5.1352 2.02486 0
M  V30 4456 H 426.019 -4.14431 0.372293 0
M  V30 4457 H 424.895 -5.4888 0.0471605 0
M  V30 4458 H 425.156 -4.26035 -1.18096 0
M  V30 4459 N 424.215 -0.530993 -1.48385 0
M  V30 4460 C 425.443 -0.00134122 -2.069 0
M  V30 4461 C 425.858 1.2805 -1.3874 0
M  V30 4462 O 425.215 1.76204 -0.475244 0
M  V30 4463 C 425.266 0.225256 -3.60798 0
M  V30 4464 O 424.987 -1.0058 -4.26398 0
M  V30 4465 C 426.488 0.795172 -4.3611 0
M  V30 4466 H 423.708 -0.0339704 -0.67014 0
M  V30 4467 H 426.252 -0.736926 -1.90761 0
M  V30 4468 H 424.407 0.910891 -3.76539 0
M  V30 4469 H 424.821 -0.787165 -5.1856 0
M  V30 4470 H 426.295 0.903143 -5.44562 0
M  V30 4471 H 426.772 1.80031 -4.00606 0
M  V30 4472 H 427.378 0.146069 -4.25049 0
M  V30 4473 N 425.693 1.55336 -0.266172 0
M  V30 4474 C 426.656 2.20878 0.612001 0
M  V30 4475 C 427.656 1.18388 1.08816 0
M  V30 4476 O 428.846 1.4335 0.989774 0
M  V30 4477 C 425.978 2.86765 1.84332 0
M  V30 4478 H 427.171 2.99873 0.0398718 0
M  V30 4479 H 424.724 1.56291 -0.0167309 0
M  V30 4480 H 425.459 2.11759 2.45619 0
M  V30 4481 H 425.244 3.61862 1.5099 0
M  V30 4482 H 426.734 3.36867 2.46801 0
M  V30 4483 N 427.171 -0.0066808 1.57599 0
M  V30 4484 C 428.448 -0.729586 1.81484 0
M  V30 4485 C 428.828 -1.92359 0.869558 0
M  V30 4486 O 428.176 -2.28348 -0.0832533 0
M  V30 4487 C 428.386 -1.1416 3.29801 0
M  V30 4488 C 429.734 -1.54823 3.95367 0
M  V30 4489 O 430.758 -1.23558 3.34084 0
M  V30 4490 O 429.617 -2.12937 5.03309 0
M  V30 4491 H 426.711 -0.354674 0.747085 0
M  V30 4492 H 429.257 0.0182609 1.6969 0
M  V30 4493 H 428.029 -0.290231 3.90222 0
M  V30 4494 H 427.652 -1.94876 3.46568 0
M  V30 4495 N 428.649 -1.55105 -0.279332 0
M  V30 4496 C 429.596 -1.8755 -1.34513 0
M  V30 4497 C 430.566 -0.726384 -1.49375 0
M  V30 4498 O 431.751 -0.977063 -1.63884 0
M  V30 4499 C 428.891 -2.14738 -2.70151 0
M  V30 4500 C 428.004 -3.42285 -2.63562 0
M  V30 4501 C 427.139 -3.59206 -3.91337 0
M  V30 4502 C 426.178 -4.80467 -3.79233 0
M  V30 4503 N 425.315 -4.94079 -4.98829 0
M  V30 4504 H 430.155 -2.78456 -1.06143 0
M  V30 4505 H 427.692 -1.37867 -0.512936 0
M  V30 4506 H 429.65 -2.28501 -3.49061 0
M  V30 4507 H 428.28 -1.27075 -2.96735 0
M  V30 4508 H 427.332 -3.37029 -1.76397 0
M  V30 4509 H 428.644 -4.31328 -2.50515 0
M  V30 4510 H 427.798 -3.72751 -4.78687 0
M  V30 4511 H 426.537 -2.68337 -4.07243 0
M  V30 4512 H 425.542 -4.66932 -2.90266 0
M  V30 4513 H 426.767 -5.72765 -3.64852 0
M  V30 4514 H 424.713 -4.06139 -5.15158 0
M  V30 4515 H 424.63 -5.77156 -4.8829 0
M  V30 4516 H 425.898 -5.12003 -5.8777 0
M  V30 4517 N 430.127 0.543554 -1.4793 0
M  V30 4518 C 431.374 1.30008 -1.55255 0
M  V30 4519 C 431.702 1.93245 -0.220612 0
M  V30 4520 O 430.957 1.79141 0.787843 0
M  V30 4521 C 431.256 2.42078 -2.62932 0
M  V30 4522 C 430.922 1.96583 -4.0579 0
M  V30 4523 C 429.584 1.83893 -4.44676 0
M  V30 4524 C 431.936 1.62034 -4.95373 0
M  V30 4525 C 429.264 1.34969 -5.70964 0
M  V30 4526 C 431.616 1.14577 -6.22137 0
M  V30 4527 C 430.28 1.00493 -6.59892 0
M  V30 4528 H 429.55 0.475735 -0.568117 0
M  V30 4529 H 432.197 0.608075 -1.81589 0
M  V30 4530 H 430.502 3.16892 -2.30406 0
M  V30 4531 H 432.199 3.00236 -2.65818 0
M  V30 4532 H 428.789 2.07407 -3.75074 0
M  V30 4533 H 432.973 1.70705 -4.66019 0
M  V30 4534 H 428.229 1.2274 -5.98953 0
M  V30 4535 H 432.403 0.869109 -6.90955 0
M  V30 4536 H 430.03 0.623624 -7.57638 0
M  V30 4537 N 431.605 1.3629 0.791371 0
M  V30 4538 C 432.882 1.20962 1.53712 0
M  V30 4539 C 433.262 -0.205021 2.10102 0
M  V30 4540 O 432.61 -1.21042 1.93807 0
M  V30 4541 C 432.82 2.29002 2.63361 0
M  V30 4542 C 434.168 2.65572 3.31295 0
M  V30 4543 O 435.192 2.2803 2.73643 0
M  V30 4544 O 434.051 3.3018 4.35481 0
M  V30 4545 H 431.145 0.47086 0.679867 0
M  V30 4546 H 433.691 1.48016 0.830021 0
M  V30 4547 H 432.463 3.2382 2.19674 0
M  V30 4548 H 432.086 2.03303 3.41692 0
M  V30 4549 N 433.083 -1.0153 1.20538 0
M  V30 4550 C 433.993 -2.13557 0.971113 0
M  V30 4551 C 435.009 -1.73845 -0.0734366 0
M  V30 4552 O 436.185 -2.01075 0.114299 0
M  V30 4553 C 433.25 -3.42661 0.527639 0
M  V30 4554 C 432.311 -3.96608 1.64319 0
M  V30 4555 C 431.544 -5.1955 1.22078 0
M  V30 4556 O 431.767 -5.70329 0.0900198 0
M  V30 4557 O 430.701 -5.66681 2.02871 0
M  V30 4558 H 434.527 -2.3619 1.90913 0
M  V30 4559 H 432.112 -1.11946 0.989362 0
M  V30 4560 H 433.994 -4.20404 0.289621 0
M  V30 4561 H 432.669 -3.21441 -0.381779 0
M  V30 4562 H 431.576 -3.20139 1.93551 0
M  V30 4563 H 432.909 -4.22219 2.52966 0
M  V30 4564 N 434.561 -1.01147 -1.20859 0
M  V30 4565 C 435.509 -0.57059 -2.25493 0
M  V30 4566 C 436.503 0.388109 -1.64894 0
M  V30 4567 O 437.709 0.258592 -1.78133 0
M  V30 4568 H 434.084 -0.166191 -0.733406 0
M  V30 4569 H 436.055 -1.46411 -2.60012 0
M  V30 4570 C 434.804 0.0805241 -3.47607 0
M  V30 4571 H 434.127 -0.648156 -3.94511 0
M  V30 4572 H 435.567 0.352197 -4.22535 0
M  V30 4573 C 434.026 1.32175 -3.09889 0
M  V30 4574 O 434.556 2.41553 -3.20959 0
M  V30 4575 N 432.762 1.20392 -2.64488 0
M  V30 4576 H 432.309 0.313905 -2.5568 0
M  V30 4577 H 432.267 2.03541 -2.39621 0
M  V30 4578 N 436.039 1.36541 -0.78704 0
M  V30 4579 C 437.002 2.28413 -0.189778 0
M  V30 4580 C 438.002 1.48719 0.611499 0
M  V30 4581 O 439.192 1.68737 0.432842 0
M  V30 4582 C 436.324 3.32824 0.737638 0
M  V30 4583 H 437.517 2.82743 -0.999831 0
M  V30 4584 H 435.07 1.46065 -0.556298 0
M  V30 4585 H 435.805 2.83646 1.57212 0
M  V30 4586 H 435.59 3.91752 0.165044 0
M  V30 4587 H 437.08 4.0144 1.15047 0
M  V30 4588 N 437.518 0.538854 1.48102 0
M  V30 4589 C 438.465 -0.219042 2.29758 0
M  V30 4590 C 439.435 -0.925562 1.37922 0
M  V30 4591 O 440.62 -0.924855 1.66886 0
M  V30 4592 C 437.76 -1.25452 3.2149 0
M  V30 4593 C 436.873 -0.555943 4.28408 0
M  V30 4594 C 436.008 -1.57512 5.0731 0
M  V30 4595 C 435.047 -0.860498 6.06021 0
M  V30 4596 N 434.184 -1.82564 6.77949 0
M  V30 4597 H 439.024 0.483449 2.94052 0
M  V30 4598 H 436.561 0.250247 1.44956 0
M  V30 4599 H 438.519 -1.86727 3.7308 0
M  V30 4600 H 437.149 -1.92528 2.591 0
M  V30 4601 H 436.201 0.170938 3.80016 0
M  V30 4602 H 437.513 0.00474616 4.988 0
M  V30 4603 H 436.667 -2.26191 5.62959 0
M  V30 4604 H 435.406 -2.16972 4.36778 0
M  V30 4605 H 434.411 -0.159686 5.49568 0
M  V30 4606 H 435.636 -0.271897 6.78555 0
M  V30 4607 H 433.582 -2.40915 6.10161 0
M  V30 4608 H 433.499 -1.31662 7.44447 0
M  V30 4609 H 434.767 -2.50414 7.38182 0
M  V30 4610 N 438.996 -1.55193 0.274407 0
M  V30 4611 C 440.224 -2.03987 -0.345943 0
M  V30 4612 C 440.639 -1.15279 -1.4952 0
M  V30 4613 O 439.996 -0.172759 -1.8168 0
M  V30 4614 C 440.047 -3.51898 -0.827631 0
M  V30 4615 O 439.768 -4.37231 0.275855 0
M  V30 4616 C 441.269 -4.16577 -1.51587 0
M  V30 4617 H 438.489 -0.666335 -0.0789892 0
M  V30 4618 H 441.033 -2.00423 0.406294 0
M  V30 4619 H 439.188 -3.55909 -1.52996 0
M  V30 4620 H 439.602 -5.24415 -0.0943638 0
M  V30 4621 H 441.076 -5.21678 -1.80433 0
M  V30 4622 H 441.553 -3.64707 -2.44716 0
M  V30 4623 H 442.159 -4.16568 -0.857409 0
M  V30 4624 N 440.474 -0.00167713 -1.576 0
M  V30 4625 C 441.722 0.681471 -1.90264 0
M  V30 4626 C 442.043 1.7422 -0.875924 0
M  V30 4627 O 441.313 1.95709 0.0864412 0
M  V30 4628 H 439.893 0.254696 -0.702239 0
M  V30 4629 H 442.555 -0.0429996 -1.94853 0
M  V30 4630 H 441.651 1.15166 -2.90075 0
M  V30 4631 N 441.952 1.55251 0.271103 0
M  V30 4632 C 442.884 1.84675 1.35749 0
M  V30 4633 C 443.897 0.731366 1.45447 0
M  V30 4634 O 445.086 1.00924 1.4723 0
M  V30 4635 C 442.186 1.99638 2.73857 0
M  V30 4636 C 441.359 3.30312 2.86727 0
M  V30 4637 C 440.418 3.35318 4.05522 0
M  V30 4638 O 439.444 4.08682 3.96191 0
M  V30 4639 N 440.646 2.62857 5.17577 0
M  V30 4640 H 443.411 2.78445 1.10853 0
M  V30 4641 H 440.972 1.55191 0.461218 0
M  V30 4642 H 442.964 2.00355 3.51625 0
M  V30 4643 H 441.534 1.12725 2.91568 0
M  V30 4644 H 440.754 3.42118 1.95829 0
M  V30 4645 H 442.042 4.16488 2.92258 0
M  V30 4646 H 441.44 2.02939 5.28046 0
M  V30 4647 H 439.997 2.69295 5.93568 0
M  V30 4648 N 443.43 -0.535701 1.48216 0
M  V30 4649 C 444.393 -1.623 1.61838 0
M  V30 4650 C 445.393 -1.53087 0.492024 0
M  V30 4651 O 446.583 -1.5686 0.757668 0
M  V30 4652 C 443.715 -3.01907 1.58319 0
M  V30 4653 H 444.908 -1.51564 2.58783 0
M  V30 4654 H 442.461 -0.757317 1.36727 0
M  V30 4655 H 443.196 -3.18155 0.628299 0
M  V30 4656 H 442.981 -3.10003 2.40085 0
M  V30 4657 H 444.471 -3.80969 1.71033 0
M  V30 4658 N 444.908 -1.36708 -0.784132 0
M  V30 4659 C 446.136 -1.34398 -1.57305 0
M  V30 4660 C 446.551 0.0735577 -1.88657 0
M  V30 4661 O 445.908 1.03193 -1.50524 0
M  V30 4662 C 445.959 -2.17053 -2.89085 0
M  V30 4663 O 445.68 -3.53281 -2.59083 0
M  V30 4664 C 447.181 -2.22583 -3.83369 0
M  V30 4665 H 444.401 -0.460819 -0.487736 0
M  V30 4666 H 446.945 -1.79879 -0.972819 0
M  V30 4667 H 445.1 -1.75113 -3.45564 0
M  V30 4668 H 445.514 -3.9647 -3.43383 0
M  V30 4669 H 446.988 -2.84763 -4.72878 0
M  V30 4670 H 447.465 -1.23075 -4.21603 0
M  V30 4671 H 448.071 -2.64781 -3.32823 0
M  V30 4672 N 446.386 1.0089 -1.21074 0
M  V30 4673 C 447.632 1.74866 -1.02712 0
M  V30 4674 C 447.965 1.89178 0.438787 0
M  V30 4675 O 447.24 1.42325 1.32567 0
M  V30 4676 C 447.523 3.16347 -1.72036 0
M  V30 4677 C 447.376 3.09782 -3.26121 0
M  V30 4678 C 448.695 4.15187 -1.45973 0
M  V30 4679 H 445.814 0.634736 -0.374539 0
M  V30 4680 H 448.456 1.17646 -1.49196 0
M  V30 4681 H 446.606 3.65201 -1.32517 0
M  V30 4682 H 448.278 2.68673 -3.74983 0
M  V30 4683 H 446.521 2.46982 -3.56626 0
M  V30 4684 H 447.192 4.09829 -3.6979 0
M  V30 4685 H 449.668 3.75022 -1.80272 0
M  V30 4686 H 448.544 5.12331 -1.96999 0
M  V30 4687 H 448.805 4.40386 -0.388924 0
M  V30 4688 N 447.864 1.01787 1.20321 0
M  V30 4689 C 448.827 0.593972 2.2137 0
M  V30 4690 C 449.827 -0.336553 1.57239 0
M  V30 4691 O 451.017 -0.125069 1.7375 0
M  V30 4692 C 448.149 -0.132433 3.40643 0
M  V30 4693 H 449.342 1.48791 2.60387 0
M  V30 4694 H 446.895 0.807803 1.33807 0
M  V30 4695 H 447.63 -1.04123 3.0713 0
M  V30 4696 H 447.415 0.53605 3.88418 0
M  V30 4697 H 448.905 -0.416314 4.1552 0
M  V30 4698 N 449.342 -1.36122 0.79427 0
M  V30 4699 C 450.567 -2.03891 0.379871 0
M  V30 4700 C 450.992 -1.59488 -0.997251 0
M  V30 4701 O 450.35 -0.765652 -1.64339 0
M  V30 4702 C 450.398 -3.57687 0.457442 0
M  V30 4703 O 449.502 -4.08931 -0.5338 0
M  V30 4704 H 448.843 -0.6443 0.160541 0
M  V30 4705 H 451.373 -1.73976 1.07673 0
M  V30 4706 H 451.383 -4.06721 0.322792 0
M  V30 4707 H 450.058 -3.89357 1.46199 0
M  V30 4708 H 448.635 -3.71154 -0.360409 0
M  V30 4709 N 450.82 -0.546701 -1.47814 0
M  V30 4710 C 452.068 -0.0187037 -2.02091 0
M  V30 4711 C 452.389 1.33168 -1.42447 0
M  V30 4712 O 451.659 1.86619 -0.595839 0
M  V30 4713 H 450.239 -0.00392531 -0.74699 0
M  V30 4714 H 452.901 -0.714327 -1.81338 0
M  V30 4715 H 451.997 0.0772219 -3.12004 0
M  V30 4716 N 452.299 1.55045 -0.282633 0
M  V30 4717 C 453.548 1.98938 0.332667 0
M  V30 4718 C 453.861 1.17455 1.56409 0
M  V30 4719 O 455.067 1.51527 2.25282 0
M  V30 4720 C 453.523 3.54105 0.643226 0
M  V30 4721 C 453.131 4.44374 -0.568814 0
M  V30 4722 C 454.875 4.06569 1.22074 0
M  V30 4723 C 452.782 5.90943 -0.232426 0
M  V30 4724 H 451.712 0.743043 0.128075 0
M  V30 4725 H 454.363 1.79341 -0.388464 0
M  V30 4726 H 452.745 3.69532 1.42346 0
M  V30 4727 H 453.919 4.40718 -1.34551 0
M  V30 4728 H 452.234 4.02585 -1.06369 0
M  V30 4729 H 454.831 5.13626 1.48635 0
M  V30 4730 H 455.174 3.56057 2.15707 0
M  V30 4731 H 455.707 3.94612 0.502621 0
M  V30 4732 H 452.446 6.45567 -1.13683 0
M  V30 4733 H 451.966 5.9765 0.507357 0
M  V30 4734 H 453.645 6.4677 0.172657 0
M  V30 4735 N 453.777 0.010035 1.57597 0
M  V30 4736 C 455.188 -0.531426 1.78977 0
M  V30 4737 C 455.539 -1.73375 0.918454 0
M  V30 4738 O 454.664 -2.16047 0.123635 0
M  V30 4739 C 455.259 -0.97086 3.24592 0
M  V30 4740 C 453.818 -1.45756 3.47033 0
M  V30 4741 C 452.965 -0.413384 2.74201 0
M  V30 4742 H 455.916 0.236166 1.56933 0
M  V30 4743 H 455.937 -1.83633 3.33255 0
M  V30 4744 H 455.449 -0.0955893 3.87982 0
M  V30 4745 H 453.55 -2.35339 2.88871 0
M  V30 4746 H 453.663 -1.4781 4.55729 0
M  V30 4747 H 452.027 -0.877266 2.39115 0
M  V30 4748 H 452.81 0.453092 3.40297 0
M  V30 4749 N 455.255 -1.55392 -0.262866 0
M  V30 4750 C 456.218 -1.88181 -1.30846 0
M  V30 4751 C 457.218 -0.757079 -1.41862 0
M  V30 4752 O 458.408 -1.02519 -1.40838 0
M  V30 4753 C 455.54 -2.09609 -2.68844 0
M  V30 4754 H 456.733 -2.81659 -1.02997 0
M  V30 4755 H 454.286 -1.48039 -0.501414 0
M  V30 4756 H 455.021 -1.18547 -3.01856 0
M  V30 4757 H 454.806 -2.91508 -2.62231 0
M  V30 4758 H 456.296 -2.36215 -3.44372 0
M  V30 4759 N 456.733 0.527833 -1.48498 0
M  V30 4760 C 457.981 1.28101 -1.56316 0
M  V30 4761 C 458.302 1.9352 -0.239781 0
M  V30 4762 O 457.572 1.81433 0.738849 0
M  V30 4763 H 456.152 0.475793 -0.575873 0
M  V30 4764 H 458.814 0.614052 -1.84974 0
M  V30 4765 H 457.91 2.05916 -2.34532 0
M  V30 4766 N 458.211 1.37122 0.776871 0
M  V30 4767 C 459.457 1.3325 1.53675 0
M  V30 4768 C 459.812 -0.0839891 1.92217 0
M  V30 4769 O 459.105 -1.04145 1.60824 0
M  V30 4770 C 459.299 2.20068 2.81611 0
M  V30 4771 C 459.128 3.70016 2.55574 0
M  V30 4772 C 457.898 4.39144 2.4996 0
M  V30 4773 C 460.096 4.62996 2.23917 0
M  V30 4774 N 458.078 5.74663 2.15953 0
M  V30 4775 C 459.449 5.86854 2.00005 0
M  V30 4776 C 461.504 4.51433 2.1003 0
M  V30 4777 C 460.207 7.00446 1.63609 0
M  V30 4778 C 462.233 5.64905 1.75033 0
M  V30 4779 C 461.595 6.8781 1.51977 0
M  V30 4780 H 457.694 0.542878 0.562856 0
M  V30 4781 H 460.278 1.72295 0.906784 0
M  V30 4782 H 458.449 1.83248 3.42454 0
M  V30 4783 H 460.181 2.07492 3.47461 0
M  V30 4784 H 456.936 3.92088 2.65639 0
M  V30 4785 H 457.36 6.46268 2.0166 0
M  V30 4786 H 462.002 3.56987 2.26539 0
M  V30 4787 H 459.72 7.94831 1.45837 0
M  V30 4788 H 463.306 5.57926 1.64952 0
M  V30 4789 H 462.186 7.74126 1.25296 0
M  V30 4790 N 459.689 -1.00246 1.21608 0
M  V30 4791 C 460.622 -2.08794 0.920892 0
M  V30 4792 C 461.6 -1.62059 -0.132552 0
M  V30 4793 O 462.784 -1.885 -0.0030366 0
M  V30 4794 C 459.911 -3.36525 0.383226 0
M  V30 4795 C 458.957 -4.02172 1.41987 0
M  V30 4796 S 459.79 -4.44256 2.98994 0
M  V30 4797 C 460.946 -5.7517 2.4684 0
M  V30 4798 H 461.179 -2.33511 1.8401 0
M  V30 4799 H 458.712 -1.13562 1.04609 0
M  V30 4800 H 460.67 -4.10423 0.0795871 0
M  V30 4801 H 459.331 -3.09854 -0.514711 0
M  V30 4802 H 458.524 -4.94114 0.993335 0
M  V30 4803 H 458.126 -3.34559 1.67171 0
M  V30 4804 H 460.418 -6.51042 1.87484 0
M  V30 4805 H 461.361 -6.22638 3.37235 0
M  V30 4806 H 461.769 -5.32112 1.88461 0
M  V30 4807 N 461.167 -1.02423 -1.1978 0
M  V30 4808 C 462.415 -0.716569 -1.8897 0
M  V30 4809 C 462.736 0.756769 -1.79716 0
M  V30 4810 O 462.006 1.5449 -1.20456 0
M  V30 4811 H 460.586 -0.262062 -0.699523 0
M  V30 4812 H 463.248 -1.29747 -1.45436 0
M  V30 4813 H 462.344 -1.00675 -2.95417 0
M  V30 4814 N 462.645 1.35699 -0.801477 0
M  V30 4815 C 463.575 2.32436 -0.222658 0
M  V30 4816 C 464.556 1.5723 0.649057 0
M  V30 4817 O 465.741 1.85324 0.580387 0
M  V30 4818 C 462.871 3.41469 0.633719 0
M  V30 4819 C 461.825 4.27774 -0.139083 0
M  V30 4820 C 461.151 5.28082 0.838666 0
M  V30 4821 C 462.451 5.04946 -1.33517 0
M  V30 4822 H 464.145 2.81094 -1.03086 0
M  V30 4823 H 461.691 1.35146 -0.497155 0
M  V30 4824 H 463.644 4.08143 1.04868 0
M  V30 4825 H 462.368 2.91408 1.47475 0
M  V30 4826 H 461.027 3.62673 -0.535156 0
M  V30 4827 H 460.675 4.7429 1.67506 0
M  V30 4828 H 460.375 5.86695 0.32594 0
M  V30 4829 H 461.899 5.97628 1.25194 0
M  V30 4830 H 463.313 5.64593 -0.995349 0
M  V30 4831 H 461.71 5.7303 -1.78202 0
M  V30 4832 H 462.78 4.35886 -2.12442 0
M  V30 4833 N 464.123 0.554532 1.47522 0
M  V30 4834 C 465.4 -0.0360704 1.95567 0
M  V30 4835 C 465.78 -1.48828 1.49711 0
M  V30 4836 O 465.128 -2.16366 0.734717 0
M  V30 4837 C 465.338 0.106631 3.48837 0
M  V30 4838 C 466.686 -0.0400899 4.24581 0
M  V30 4839 O 467.71 0.0340453 3.56184 0
M  V30 4840 O 466.569 -0.199111 5.46137 0
M  V30 4841 H 463.663 -0.0656294 0.824392 0
M  V30 4842 H 466.209 0.620867 1.57935 0
M  V30 4843 H 464.981 1.11727 3.7501 0
M  V30 4844 H 464.604 -0.58804 3.93227 0
M  V30 4845 N 465.601 -1.54893 0.290851 0
M  V30 4846 C 466.841 -2.01842 -0.322388 0
M  V30 4847 C 467.205 -1.17477 -1.51865 0
M  V30 4848 O 468.406 -1.54077 -2.20258 0
M  V30 4849 C 466.677 -3.50874 -0.679844 0
M  V30 4850 S 468.236 -4.19796 -1.27739 0
M  V30 4851 H 465.054 -0.704005 -0.0994866 0
M  V30 4852 H 467.656 -1.91015 0.416358 0
M  V30 4853 H 466.36 -4.09915 0.199435 0
M  V30 4854 H 465.891 -3.65717 -1.44964 0
M  V30 4855 H 467.906 -4.24729 -2.56554 0
M  V30 4856 N 467.08 -0.0183926 -1.57589 0
M  V30 4857 C 468.328 0.661253 -1.90976 0
M  V30 4858 C 468.649 1.73281 -0.894353 0
M  V30 4859 O 467.919 1.9579 0.0656788 0
M  V30 4860 H 466.499 0.247233 -0.704901 0
M  V30 4861 H 469.161 -0.0636639 -1.94796 0
M  V30 4862 H 468.257 1.12083 -2.9128 0
M  V30 4863 N 468.558 1.5553 0.254621 0
M  V30 4864 C 469.969 1.67518 0.824286 0
M  V30 4865 C 470.32 0.614429 1.86331 0
M  V30 4866 O 469.445 -0.240736 2.15057 0
M  V30 4867 C 470.04 3.03692 1.50189 0
M  V30 4868 C 468.599 3.17646 2.01935 0
M  V30 4869 C 467.746 2.63373 0.867746 0
M  V30 4870 H 470.697 1.58671 0.0305843 0
M  V30 4871 H 470.718 2.97706 2.36962 0
M  V30 4872 H 470.23 3.80874 0.745431 0
M  V30 4873 H 468.331 2.45273 2.80485 0
M  V30 4874 H 468.444 4.24455 2.22204 0
M  V30 4875 H 466.808 2.20999 1.26616 0
M  V30 4876 H 467.591 3.43074 0.124498 0
M  V30 4877 N 470.036 -0.519951 1.48776 0
M  V30 4878 C 470.946 -1.65025 1.66745 0
M  V30 4879 C 471.962 -1.6508 0.549954 0
M  V30 4880 O 473.138 -1.83848 0.822295 0
M  V30 4881 C 470.203 -3.0146 1.71238 0
M  V30 4882 C 469.264 -3.12182 2.94688 0
M  V30 4883 C 468.497 -4.42109 2.98958 0
M  V30 4884 O 468.72 -5.29799 2.1135 0
M  V30 4885 O 467.654 -4.57406 3.91233 0
M  V30 4886 H 471.48 -1.52801 2.62461 0
M  V30 4887 H 469.065 -0.694157 1.32294 0
M  V30 4888 H 470.947 -3.82584 1.76657 0
M  V30 4889 H 469.622 -3.13988 0.786975 0
M  V30 4890 H 468.529 -2.30316 2.94797 0
M  V30 4891 H 469.862 -3.04574 3.86646 0
M  V30 4892 N 471.514 -1.37532 -0.769588 0
M  V30 4893 C 472.739 -1.36231 -1.56384 0
M  V30 4894 C 473.164 0.0495849 -1.88035 0
M  V30 4895 O 472.522 1.02723 -1.49391 0
M  V30 4896 C 472.57 -2.20986 -2.84952 0
M  V30 4897 O 471.674 -1.61597 -3.79421 0
M  V30 4898 H 471.015 -0.465387 -0.473615 0
M  V30 4899 H 473.545 -1.81085 -0.952342 0
M  V30 4900 H 473.555 -2.34277 -3.34034 0
M  V30 4901 H 472.23 -3.23612 -2.61243 0
M  V30 4902 H 470.807 -1.57359 -3.38072 0
M  V30 4903 N 472.992 0.995999 -1.22138 0
M  V30 4904 C 474.217 1.77601 -1.0711 0
M  V30 4905 C 474.642 1.84339 0.374264 0
M  V30 4906 O 474 1.29359 1.27028 0
M  V30 4907 C 474.048 3.18897 -1.68336 0
M  V30 4908 O 473.152 4.01663 -0.934928 0
M  V30 4909 H 472.493 0.547011 -0.376397 0
M  V30 4910 H 475.023 1.25137 -1.6187 0
M  V30 4911 H 475.033 3.69539 -1.72931 0
M  V30 4912 H 473.708 3.13308 -2.73516 0
M  V30 4913 H 472.285 3.60204 -0.964751 0
M  V30 4914 N 474.47 1.03057 1.19235 0
M  V30 4915 C 475.417 0.612832 2.22515 0
M  V30 4916 C 476.387 -0.374224 1.61829 0
M  V30 4917 O 477.572 -0.270501 1.88873 0
M  V30 4918 C 474.712 -0.028475 3.45088 0
M  V30 4919 C 473.825 1.00483 4.20151 0
M  V30 4920 C 472.96 0.333102 5.30155 0
M  V30 4921 C 471.999 1.3522 5.96977 0
M  V30 4922 N 471.136 0.70616 6.9854 0
M  V30 4923 H 475.976 1.49812 2.57605 0
M  V30 4924 H 473.513 0.749658 1.26564 0
M  V30 4925 H 475.471 -0.417548 4.15105 0
M  V30 4926 H 474.101 -0.877334 3.10649 0
M  V30 4927 H 473.153 1.51194 3.49062 0
M  V30 4928 H 474.465 1.77929 4.65986 0
M  V30 4929 H 473.619 -0.110725 6.06599 0
M  V30 4930 H 472.358 -0.473547 4.85396 0
M  V30 4931 H 471.363 1.80627 5.19282 0
M  V30 4932 H 472.588 2.16037 6.4382 0
M  V30 4933 H 470.534 -0.0803667 6.55951 0
M  V30 4934 H 470.451 1.41848 7.42573 0
M  V30 4935 H 471.719 0.286391 7.78974 0
M  V30 4936 N 475.948 -1.35272 0.808662 0
M  V30 4937 C 476.895 -2.29764 0.218482 0
M  V30 4938 C 477.865 -1.52911 -0.648652 0
M  V30 4939 O 479.05 -1.81341 -0.593297 0
M  V30 4940 C 476.19 -3.39388 -0.625282 0
M  V30 4941 C 475.303 -4.31202 0.262516 0
M  V30 4942 C 474.438 -5.27919 -0.589451 0
M  V30 4943 C 473.477 -6.11371 0.298617 0
M  V30 4944 N 472.614 -7.0022 -0.513443 0
M  V30 4945 H 477.454 -2.79645 1.02968 0
M  V30 4946 H 474.991 -1.37629 0.519303 0
M  V30 4947 H 476.949 -4.01615 -1.12966 0
M  V30 4948 H 475.579 -2.90777 -1.40173 0
M  V30 4949 H 474.631 -3.69962 0.885013 0
M  V30 4950 H 475.943 -4.89748 0.945971 0
M  V30 4951 H 475.097 -5.95529 -1.15888 0
M  V30 4952 H 473.836 -4.69875 -1.30647 0
M  V30 4953 H 472.841 -5.42707 0.880301 0
M  V30 4954 H 474.066 -6.71494 1.01352 0
M  V30 4955 H 472.012 -6.44662 -1.21439 0
M  V30 4956 H 471.929 -7.55917 0.111922 0
M  V30 4957 H 473.197 -7.72175 -1.06608 0
M  V30 4958 N 477.426 -0.562348 -1.47226 0
M  V30 4959 C 478.656 -0.0451619 -2.06551 0
M  V30 4960 C 479.064 1.25626 -1.41473 0
M  V30 4961 O 478.407 1.76563 -0.507061 0
M  V30 4962 C 478.469 0.216068 -3.5885 0
M  V30 4963 C 478.133 -0.996691 -4.45999 0
M  V30 4964 C 479.13 -1.90358 -4.83797 0
M  V30 4965 C 476.815 -1.21281 -4.87438 0
M  V30 4966 C 478.809 -3.01023 -5.6184 0
M  V30 4967 C 476.496 -2.32255 -5.65244 0
M  V30 4968 C 477.494 -3.21956 -6.02356 0
M  V30 4969 O 477.182 -4.31005 -6.78594 0
M  V30 4970 H 476.914 -0.0451646 -0.67449 0
M  V30 4971 H 479.468 -0.776842 -1.90143 0
M  V30 4972 H 477.698 1.00212 -3.7349 0
M  V30 4973 H 479.387 0.679264 -4.00176 0
M  V30 4974 H 480.153 -1.74868 -4.52378 0
M  V30 4975 H 476.032 -0.523767 -4.58015 0
M  V30 4976 H 479.576 -3.71064 -5.90726 0
M  V30 4977 H 475.473 -2.47715 -5.96077 0
M  V30 4978 H 476.241 -4.29118 -6.96994 0
M  V30 4979 N 478.904 1.54736 -0.299062 0
M  V30 4980 C 479.867 2.22127 0.565012 0
M  V30 4981 C 480.867 1.20669 1.06281 0
M  V30 4982 O 482.057 1.45417 0.959145 0
M  V30 4983 C 479.189 2.90611 1.78208 0
M  V30 4984 H 480.382 2.99891 -0.0237448 0
M  V30 4985 H 477.935 1.5622 -0.0498788 0
M  V30 4986 H 478.67 2.16921 2.41072 0
M  V30 4987 H 478.455 3.64984 1.43281 0
M  V30 4988 H 479.945 3.42026 2.396 0
M  V30 4989 N 480.382 0.0267497 1.57577 0
M  V30 4990 C 481.292 -0.971633 2.13533 0
M  V30 4991 C 482.308 -1.35868 1.08701 0
M  V30 4992 O 483.484 -1.44058 1.40746 0
M  V30 4993 C 480.549 -2.23622 2.64941 0
M  V30 4994 C 479.61 -1.90982 3.8448 0
M  V30 4995 C 478.843 -3.11411 4.33427 0
M  V30 4996 O 479.066 -4.23992 3.81558 0
M  V30 4997 O 478 -2.93848 5.25297 0
M  V30 4998 H 481.826 -0.525853 2.99113 0
M  V30 4999 H 479.411 -0.193712 1.48139 0
M  V30 5000 H 481.293 -2.97864 2.98086 0
M  V30 5001 H 479.968 -2.67386 1.82446 0
M  V30 5002 H 478.875 -1.14132 3.56265 0
M  V30 5003 H 480.208 -1.52036 4.6813 0
M  V30 5004 N 481.861 -1.55662 -0.24637 0
M  V30 5005 C 482.824 -1.89558 -1.28842 0
M  V30 5006 C 483.824 -0.772082 -1.41052 0
M  V30 5007 O 485.014 -1.04007 -1.39743 0
M  V30 5008 C 482.146 -2.12449 -2.66605 0
M  V30 5009 H 483.339 -2.82735 -1.00004 0
M  V30 5010 H 480.892 -1.48562 -0.485684 0
M  V30 5011 H 481.627 -1.21742 -3.00582 0
M  V30 5012 H 481.412 -2.94273 -2.59125 0
M  V30 5013 H 482.902 -2.39854 -3.41847 0
M  V30 5014 N 483.339 0.512053 -1.4905 0
M  V30 5015 C 484.585 1.26874 -1.58212 0
M  V30 5016 C 484.918 1.9241 -0.263073 0
M  V30 5017 O 484.193 1.80181 0.732476 0
M  V30 5018 C 484.476 2.34428 -2.73341 0
M  V30 5019 C 484.329 1.73466 -4.15006 0
M  V30 5020 C 485.648 3.36073 -2.84154 0
M  V30 5021 H 482.767 0.459924 -0.575881 0
M  V30 5022 H 485.409 0.568587 -1.81293 0
M  V30 5023 H 483.559 2.94146 -2.53792 0
M  V30 5024 H 485.231 1.17661 -4.46042 0
M  V30 5025 H 483.474 1.03921 -4.21168 0
M  V30 5026 H 484.145 2.51426 -4.91415 0
M  V30 5027 H 486.621 2.86332 -3.01916 0
M  V30 5028 H 485.497 4.08703 -3.66406 0
M  V30 5029 H 485.758 3.97725 -1.93048 0
M  V30 5030 N 484.817 1.37938 0.762283 0
M  V30 5031 C 486.045 1.36883 1.55147 0
M  V30 5032 C 486.46 -0.0435348 1.8875 0
M  V30 5033 O 485.817 -1.00786 1.52146 0
M  V30 5034 C 485.868 2.21624 2.85596 0
M  V30 5035 O 485.589 3.57358 2.5343 0
M  V30 5036 C 487.09 2.28653 3.7978 0
M  V30 5037 H 484.31 0.468521 0.480343 0
M  V30 5038 H 486.854 1.81404 0.944079 0
M  V30 5039 H 485.009 1.80588 3.42734 0
M  V30 5040 H 485.423 4.01883 3.37032 0
M  V30 5041 H 486.897 2.9225 4.68288 0
M  V30 5042 H 487.374 1.29767 4.19592 0
M  V30 5043 H 487.98 2.70043 3.28568 0
M  V30 5044 N 486.295 -0.989507 1.22664 0
M  V30 5045 C 487.711 -1.25395 0.987331 0
M  V30 5046 C 487.911 -1.9899 -0.317056 0
M  V30 5047 O 486.967 -2.30141 -1.03882 0
M  V30 5048 C 488.28 -2.06242 2.18826 0
M  V30 5049 C 489.828 -2.19413 2.23219 0
M  V30 5050 C 490.303 -3.03648 3.42873 0
M  V30 5051 N 491.794 -3.11234 3.43056 0
M  V30 5052 C 492.529 -3.7671 4.32293 0
M  V30 5053 N 492.025 -4.44085 5.31752 0
M  V30 5054 N 493.818 -3.73505 4.2006 0
M  V30 5055 H 485.969 -0.496212 2.06522 0
M  V30 5056 H 488.232 -0.281784 0.905153 0
M  V30 5057 H 487.938 -1.59531 3.13437 0
M  V30 5058 H 487.812 -3.06996 2.19165 0
M  V30 5059 H 490.199 -2.65336 1.29154 0
M  V30 5060 H 490.28 -1.18078 2.26917 0
M  V30 5061 H 489.924 -2.58424 4.37241 0
M  V30 5062 H 489.854 -4.05132 3.36416 0
M  V30 5063 H 492.345 -2.63287 2.71088 0
M  V30 5064 H 492.658 -4.91797 5.96117 0
M  V30 5065 H 491.003 -4.42822 5.35662 0
M  V30 5066 H 494.194 -3.20033 3.41609 0
M  V30 5067 H 494.367 -4.24253 4.8981 0
M  V30 5068 N 487.773 -1.03688 -1.18687 0
M  V30 5069 C 488.736 -0.629115 -2.20397 0
M  V30 5070 C 489.736 0.311495 -1.57754 0
M  V30 5071 O 490.926 0.0974107 -1.73927 0
M  V30 5072 C 488.058 0.0782231 -3.4081 0
M  V30 5073 H 489.251 -1.52915 -2.57987 0
M  V30 5074 H 486.804 -0.828988 -1.32505 0
M  V30 5075 H 487.539 0.992233 -3.08748 0
M  V30 5076 H 487.324 -0.597776 -3.87517 0
M  V30 5077 H 488.814 0.350156 -4.16129 0
M  V30 5078 N 489.251 1.34841 -0.815825 0
M  V30 5079 C 490.198 2.29644 -0.230664 0
M  V30 5080 C 491.168 1.53253 0.640533 0
M  V30 5081 O 492.353 1.81653 0.583672 0
M  V30 5082 C 489.493 3.39715 0.607275 0
M  V30 5083 C 488.606 4.31056 -0.28538 0
M  V30 5084 C 487.741 5.28225 0.561446 0
M  V30 5085 C 486.78 6.11204 -0.331035 0
M  V30 5086 N 485.917 7.00483 0.476302 0
M  V30 5087 H 490.757 2.79095 -1.0445 0
M  V30 5088 H 488.294 1.37351 -0.526595 0
M  V30 5089 H 490.252 4.02208 1.10835 0
M  V30 5090 H 488.882 2.91517 1.38629 0
M  V30 5091 H 487.934 3.69487 -0.904621 0
M  V30 5092 H 489.246 4.89239 -0.97193 0
M  V30 5093 H 488.4 5.96135 1.12728 0
M  V30 5094 H 487.139 4.70562 1.28153 0
M  V30 5095 H 486.144 5.42232 -0.909069 0
M  V30 5096 H 487.369 6.70947 -1.04912 0
M  V30 5097 H 485.315 6.45296 1.18019 0
M  V30 5098 H 485.232 7.55847 -0.152008 0
M  V30 5099 H 486.5 7.7273 1.02512 0
M  V30 5100 N 490.729 0.570148 1.46925 0
M  V30 5101 C 491.661 -0.207909 2.28255 0
M  V30 5102 C 492.674 -0.867301 1.37774 0
M  V30 5103 O 493.863 -0.738976 1.62485 0
M  V30 5104 C 490.963 -1.31298 3.12433 0
M  V30 5105 C 490.136 -0.747915 4.30958 0
M  V30 5106 C 489.195 -1.7391 4.9663 0
M  V30 5107 O 488.221 -1.2801 5.54619 0
M  V30 5108 N 489.423 -3.07288 4.92498 0
M  V30 5109 H 492.188 0.489794 2.95671 0
M  V30 5110 H 489.749 0.407076 1.56699 0
M  V30 5111 H 491.741 -1.97507 3.53232 0
M  V30 5112 H 490.311 -1.91373 2.47175 0
M  V30 5113 H 489.531 0.0913066 3.94094 0
M  V30 5114 H 490.819 -0.349958 5.07595 0
M  V30 5115 H 490.217 -3.47213 4.46609 0
M  V30 5116 H 488.774 -3.69021 5.37277 0
M  V30 5117 N 492.207 -1.54576 0.307264 0
M  V30 5118 C 493.456 -1.99442 -0.300976 0
M  V30 5119 C 493.769 -1.19928 -1.5452 0
M  V30 5120 O 494.975 -1.55092 -2.22842 0
M  V30 5121 C 493.431 -3.55084 -0.586809 0
M  V30 5122 C 493.039 -4.43413 0.639438 0
M  V30 5123 C 494.783 -4.0846 -1.1559 0
M  V30 5124 C 492.69 -5.90499 0.326411 0
M  V30 5125 H 491.62 -0.744986 -0.116238 0
M  V30 5126 H 494.271 -1.787 0.416947 0
M  V30 5127 H 492.653 -3.71749 -1.36449 0
M  V30 5128 H 493.827 -4.38522 1.41545 0
M  V30 5129 H 492.142 -4.00842 1.1276 0
M  V30 5130 H 494.739 -5.15926 -1.40445 0
M  V30 5131 H 495.082 -3.59443 -2.10015 0
M  V30 5132 H 495.615 -3.95362 -0.439778 0
M  V30 5133 H 492.354 -6.43676 1.23939 0
M  V30 5134 H 491.874 -5.98382 -0.412212 0
M  V30 5135 H 493.553 -6.46962 -0.0697393 0
M  V30 5136 N 493.685 -0.035106 -1.57561 0
M  V30 5137 C 494.931 0.64318 -1.92331 0
M  V30 5138 C 495.264 1.71434 -0.912368 0
M  V30 5139 O 494.539 1.94395 0.0640303 0
M  V30 5140 C 494.822 1.25411 -3.37556 0
M  V30 5141 C 494.675 0.192109 -4.4939 0
M  V30 5142 C 495.994 2.17041 -3.82859 0
M  V30 5143 H 493.113 0.232341 -0.699419 0
M  V30 5144 H 495.755 -0.0935889 -1.89769 0
M  V30 5145 H 493.905 1.88205 -3.39869 0
M  V30 5146 H 495.577 -0.438849 -4.59208 0
M  V30 5147 H 493.82 -0.481725 -4.31117 0
M  V30 5148 H 494.491 0.659292 -5.48049 0
M  V30 5149 H 496.967 1.64228 -3.8232 0
M  V30 5150 H 495.843 2.56738 -4.85157 0
M  V30 5151 H 496.104 3.06401 -3.18702 0
M  V30 5152 N 495.163 1.55791 0.238111 0
M  V30 5153 C 496.409 1.79211 0.962035 0
M  V30 5154 C 496.764 0.605463 1.82625 0
M  V30 5155 O 496.057 -0.40104 1.87356 0
M  V30 5156 C 496.251 3.05869 1.84875 0
M  V30 5157 C 496.08 4.36739 1.07186 0
M  V30 5158 C 494.85 4.99346 0.773424 0
M  V30 5159 C 497.048 5.1237 0.445168 0
M  V30 5160 N 495.03 6.13894 -0.0266037 0
M  V30 5161 C 496.401 6.19613 -0.219023 0
M  V30 5162 C 498.456 4.96622 0.356522 0
M  V30 5163 C 497.159 7.1282 -0.963358 0
M  V30 5164 C 499.185 5.90214 -0.374304 0
M  V30 5165 C 498.547 6.96872 -1.0271 0
M  V30 5166 H 494.646 0.707627 0.332849 0
M  V30 5167 H 497.23 1.93284 0.234368 0
M  V30 5168 H 495.401 2.93108 2.54837 0
M  V30 5169 H 497.133 3.17547 2.5089 0
M  V30 5170 H 493.888 4.60948 1.08738 0
M  V30 5171 H 494.312 6.75727 -0.414968 0
M  V30 5172 H 498.954 4.14232 0.846878 0
M  V30 5173 H 496.672 7.94704 -1.46529 0
M  V30 5174 H 500.258 5.80106 -0.443678 0
M  V30 5175 H 499.138 7.68045 -1.58358 0
M  V30 5176 N 496.642 -0.504142 1.49319 0
M  V30 5177 C 497.59 -1.62689 1.66238 0
M  V30 5178 C 498.584 -1.6095 0.528349 0
M  V30 5179 O 499.79 -1.65496 0.707887 0
M  V30 5180 H 496.165 -0.539247 0.524134 0
M  V30 5181 H 498.136 -1.45571 2.60484 0
M  V30 5182 C 496.885 -3.00841 1.74328 0
M  V30 5183 H 496.208 -3.02884 2.60963 0
M  V30 5184 H 497.648 -3.78945 1.90202 0
M  V30 5185 C 496.107 -3.33355 0.487416 0
M  V30 5186 O 496.637 -3.99819 -0.388294 0
M  V30 5187 N 494.843 -2.88469 0.351306 0
M  V30 5188 H 494.39 -2.34557 1.06492 0
M  V30 5189 H 494.348 -3.10591 -0.487899 0
M  V30 5190 N 498.12 -1.38341 -0.754957 0
M  V30 5191 C 499.368 -1.34208 -1.51105 0
M  V30 5192 C 499.689 0.0677634 -1.94882 0
M  V30 5193 O 498.959 1.01517 -1.67544 0
M  V30 5194 H 497.539 -0.493819 -0.560493 0
M  V30 5195 H 500.201 -1.73005 -0.897507 0
M  V30 5196 H 499.297 -1.99203 -2.4026 0
M  V30 5197 N 499.598 0.982988 -1.23187 0
M  V30 5198 C 501.009 1.53847 -1.05773 0
M  V30 5199 C 501.36 1.92568 0.375744 0
M  V30 5200 O 500.485 1.75783 1.26211 0
M  V30 5201 C 501.08 2.79567 -1.91384 0
M  V30 5202 C 499.639 3.31524 -1.78238 0
M  V30 5203 C 498.786 2.04534 -1.87246 0
M  V30 5204 H 501.737 0.802962 -1.36888 0
M  V30 5205 H 501.758 3.52317 -1.43711 0
M  V30 5206 H 501.27 2.51353 -2.95708 0
M  V30 5207 H 499.371 3.64623 -0.766875 0
M  V30 5208 H 499.484 4.01457 -2.61475 0
M  V30 5209 H 497.848 2.1855 -1.30797 0
M  V30 5210 H 498.631 1.78706 -2.9312 0
M  V30 5211 N 501.076 1.04316 1.18135 0
M  V30 5212 C 502.322 0.749128 1.88457 0
M  V30 5213 C 502.655 -0.72149 1.803 0
M  V30 5214 O 501.93 -1.52676 1.205 0
M  V30 5215 C 502.213 1.21905 3.38838 0
M  V30 5216 C 502.066 2.75195 3.55792 0
M  V30 5217 C 503.385 0.811085 4.32561 0
M  V30 5218 H 500.504 0.273611 0.684329 0
M  V30 5219 H 503.146 1.29561 1.38975 0
M  V30 5220 H 501.296 0.754137 3.8111 0
M  V30 5221 H 502.968 3.29743 3.22595 0
M  V30 5222 H 501.211 3.14899 2.98364 0
M  V30 5223 H 501.882 3.03135 4.61317 0
M  V30 5224 H 504.358 1.21118 3.98082 0
M  V30 5225 H 503.234 1.16761 5.36338 0
M  V30 5226 H 503.495 -0.285596 4.41177 0
M  V30 5227 N 502.554 -1.34406 0.822964 0
M  V30 5228 C 503.802 -1.97892 0.410245 0
M  V30 5229 C 504.123 -1.65567 -1.03017 0
M  V30 5230 O 503.393 -0.94642 -1.71522 0
M  V30 5231 H 501.973 -0.732049 0.148707 0
M  V30 5232 H 504.635 -1.64043 1.05242 0
M  V30 5233 H 503.731 -3.07579 0.529284 0
M  V30 5234 N 504.032 -0.577932 -1.46621 0
M  V30 5235 C 505.278 -0.0617793 -2.02706 0
M  V30 5236 C 505.611 1.29294 -1.44903 0
M  V30 5237 O 504.886 1.8461 -0.61232 0
M  V30 5238 C 505.169 0.00911824 -3.60099 0
M  V30 5239 C 505.022 -1.37416 -4.28295 0
M  V30 5240 C 506.341 0.712159 -4.343 0
M  V30 5241 H 503.46 -0.0239246 -0.736612 0
M  V30 5242 H 506.102 -0.744211 -1.74818 0
M  V30 5243 H 504.252 0.590292 -3.83989 0
M  V30 5244 H 505.924 -2.00013 -4.15683 0
M  V30 5245 H 504.167 -1.94319 -3.87843 0
M  V30 5246 H 504.838 -1.27707 -5.37024 0
M  V30 5247 H 507.314 0.218486 -4.15526 0
M  V30 5248 H 506.19 0.730782 -5.44014 0
M  V30 5249 H 506.451 1.77251 -4.05012 0
M  V30 5250 N 505.51 1.54411 -0.315457 0
M  V30 5251 C 506.757 2.00419 0.289543 0
M  V30 5252 C 507.085 1.20373 1.52776 0
M  V30 5253 O 506.34 0.271769 1.93804 0
M  V30 5254 C 506.639 3.50936 0.676652 0
M  V30 5255 C 506.305 4.48532 -0.461472 0
M  V30 5256 C 504.967 4.74936 -0.773879 0
M  V30 5257 C 507.319 5.06567 -1.22637 0
M  V30 5258 C 504.647 5.56634 -1.85405 0
M  V30 5259 C 506.999 5.89441 -2.29657 0
M  V30 5260 C 505.663 6.1415 -2.61488 0
M  V30 5261 H 504.933 0.733386 0.105951 0
M  V30 5262 H 507.58 1.86434 -0.437554 0
M  V30 5263 H 505.885 3.62606 1.48405 0
M  V30 5264 H 507.582 3.83971 1.15618 0
M  V30 5265 H 504.172 4.28096 -0.207893 0
M  V30 5266 H 508.356 4.86157 -0.998271 0
M  V30 5267 H 503.612 5.74012 -2.10523 0
M  V30 5268 H 507.786 6.33432 -2.89374 0
M  V30 5269 H 505.413 6.77245 -3.45317 0
M  V30 5270 N 506.988 0.0434614 1.5754 0
M  V30 5271 C 507.898 -0.94893 2.14552 0
M  V30 5272 C 508.914 -1.34707 1.10136 0
M  V30 5273 O 510.09 -1.42557 1.42266 0
M  V30 5274 C 507.155 -2.208 2.67298 0
M  V30 5275 C 506.216 -1.86893 3.86484 0
M  V30 5276 C 505.449 -3.06797 4.36705 0
M  V30 5277 O 505.672 -4.19921 3.86034 0
M  V30 5278 O 504.606 -2.8826 5.28384 0
M  V30 5279 H 508.432 -0.494099 2.99654 0
M  V30 5280 H 506.017 -0.177989 1.48336 0
M  V30 5281 H 507.899 -2.94686 3.01228 0
M  V30 5282 H 506.574 -2.65436 1.85272 0
M  V30 5283 H 505.481 -1.10347 3.57455 0
M  V30 5284 H 506.814 -1.47062 4.69716 0
M  V30 5285 N 508.466 -1.55915 -0.229846 0
M  V30 5286 C 509.712 -1.79718 -0.952517 0
M  V30 5287 C 510.067 -0.61514 -1.82301 0
M  V30 5288 O 509.36 0.391098 -1.87566 0
M  V30 5289 C 509.554 -3.06845 -1.8325 0
M  V30 5290 C 509.383 -4.37302 -1.04868 0
M  V30 5291 C 508.153 -4.99749 -0.746932 0
M  V30 5292 C 510.351 -5.12599 -0.417989 0
M  V30 5293 N 508.333 -6.13871 0.0591596 0
M  V30 5294 C 509.704 -6.19488 0.251879 0
M  V30 5295 C 511.759 -4.96804 -0.33018 0
M  V30 5296 C 510.462 -7.12299 1.00115 0
M  V30 5297 C 512.488 -5.90007 0.4056 0
M  V30 5298 C 511.85 -6.96317 1.06404 0
M  V30 5299 H 507.949 -0.709382 -0.329091 0
M  V30 5300 H 510.533 -1.93406 -0.224114 0
M  V30 5301 H 508.704 -2.94456 -2.53279 0
M  V30 5302 H 510.436 -3.18874 -2.49202 0
M  V30 5303 H 507.191 -4.61518 -1.06292 0
M  V30 5304 H 507.615 -6.75497 0.450798 0
M  V30 5305 H 512.257 -4.14675 -0.824898 0
M  V30 5306 H 509.975 -7.93916 1.50741 0
M  V30 5307 H 513.561 -5.79862 0.474436 0
M  V30 5308 H 512.441 -7.67194 1.62429 0
M  V30 5309 N 509.944 0.496216 -1.49584 0
M  V30 5310 C 510.854 1.62352 -1.69349 0
M  V30 5311 C 511.87 1.64184 -0.576147 0
M  V30 5312 O 513.046 1.82517 -0.85144 0
M  V30 5313 C 510.111 2.98698 -1.76013 0
M  V30 5314 C 509.172 3.07454 -2.99617 0
M  V30 5315 C 508.405 4.37296 -3.05953 0
M  V30 5316 O 508.628 5.2637 -2.19752 0
M  V30 5317 O 507.562 4.51124 -3.9846 0
M  V30 5318 H 511.388 1.48606 -2.64859 0
M  V30 5319 H 508.973 0.673022 -1.33382 0
M  V30 5320 H 510.855 3.79725 -1.82721 0
M  V30 5321 H 509.53 3.12696 -0.836828 0
M  V30 5322 H 508.437 2.25597 -2.98424 0
M  V30 5323 H 509.77 2.98385 -3.91443 0
M  V30 5324 N 511.423 1.38739 0.74761 0
M  V30 5325 C 512.386 1.36241 1.84312 0
M  V30 5326 C 513.386 0.261811 1.58654 0
M  V30 5327 O 514.576 0.519031 1.66288 0
M  V30 5328 C 511.708 1.12253 3.21888 0
M  V30 5329 H 512.901 2.33712 1.87933 0
M  V30 5330 H 510.454 1.2412 0.949946 0
M  V30 5331 H 511.189 0.154133 3.23934 0
M  V30 5332 H 510.974 1.91943 3.41907 0
M  V30 5333 H 512.464 1.13215 4.0196 0
M  V30 5334 N 512.901 -0.976442 1.23707 0
M  V30 5335 C 514.148 -1.71827 1.07153 0
M  V30 5336 C 514.476 -1.9053 -0.390982 0
M  V30 5337 O 513.731 -1.45779 -1.30564 0
M  V30 5338 C 514.03 -3.11814 1.74662 0
M  V30 5339 C 513.696 -3.12978 3.24585 0
M  V30 5340 C 512.358 -3.13003 3.6549 0
M  V30 5341 C 514.71 -3.07986 4.20469 0
M  V30 5342 C 512.038 -3.05757 5.00729 0
M  V30 5343 C 514.39 -3.02282 5.55705 0
M  V30 5344 C 513.054 -3.00631 5.95968 0
M  V30 5345 H 512.324 -0.628758 0.392102 0
M  V30 5346 H 514.971 -1.14239 1.53693 0
M  V30 5347 H 513.276 -3.72812 1.20492 0
M  V30 5348 H 514.973 -3.67989 1.59328 0
M  V30 5349 H 511.563 -3.13718 2.92026 0
M  V30 5350 H 515.747 -3.07103 3.89874 0
M  V30 5351 H 511.003 -3.02834 5.31132 0
M  V30 5352 H 515.177 -2.97376 6.29714 0
M  V30 5353 H 512.804 -2.94771 7.00724 0
M  V30 5354 N 514.379 -1.04941 -1.1758 0
M  V30 5355 C 515.342 -0.652456 -2.19717 0
M  V30 5356 C 516.342 0.294745 -1.58076 0
M  V30 5357 O 517.532 0.0789579 -1.74021 0
M  V30 5358 C 514.664 0.0420712 -3.40874 0
M  V30 5359 H 515.857 -1.55642 -2.5635 0
M  V30 5360 H 513.41 -0.842995 -1.31618 0
M  V30 5361 H 514.145 0.95943 -3.09783 0
M  V30 5362 H 513.93 -0.638844 -3.86861 0
M  V30 5363 H 515.42 0.306 -4.16477 0
M  V30 5364 N 515.857 1.33968 -0.830081 0
M  V30 5365 C 517.273 1.51003 -0.516742 0
M  V30 5366 C 517.473 1.77286 0.957694 0
M  V30 5367 O 516.529 1.82797 1.74188 0
M  V30 5368 C 517.842 2.67036 -1.38247 0
M  V30 5369 C 519.39 2.80919 -1.38034 0
M  V30 5370 C 519.865 4.00004 -2.23071 0
M  V30 5371 N 521.356 4.07224 -2.20733 0
M  V30 5372 C 522.091 4.98541 -2.83275 0
M  V30 5373 N 521.587 5.95033 -3.54835 0
M  V30 5374 N 523.38 4.91469 -2.72791 0
M  V30 5375 H 515.531 1.15168 -1.78466 0
M  V30 5376 H 517.794 0.565443 -0.760906 0
M  V30 5377 H 517.5 2.54266 -2.42985 0
M  V30 5378 H 517.374 3.62226 -1.05225 0
M  V30 5379 H 519.761 2.93127 -0.340713 0
M  V30 5380 H 519.842 1.86517 -1.75057 0
M  V30 5381 H 519.486 3.88557 -3.27087 0
M  V30 5382 H 519.416 4.93634 -1.83394 0
M  V30 5383 H 521.907 3.38162 -1.68687 0
M  V30 5384 H 522.22 6.61357 -3.99784 0
M  V30 5385 H 520.565 5.95135 -3.58942 0
M  V30 5386 H 523.756 4.15048 -2.16456 0
M  V30 5387 H 523.929 5.62439 -3.21818 0
M  V30 5388 N 517.335 0.585699 1.46312 0
M  V30 5389 C 518.583 0.072278 2.01971 0
M  V30 5390 C 518.904 -1.29345 1.45928 0
M  V30 5391 O 518.174 -1.84973 0.645109 0
M  V30 5392 H 516.754 0.023729 0.746623 0
M  V30 5393 H 519.416 0.762155 1.7938 0
M  V30 5394 H 518.512 0.00552767 3.121 0
M  V30 5395 N 518.813 -1.54241 0.323641 0
M  V30 5396 C 520.041 -2.04985 -0.280871 0
M  V30 5397 C 520.456 -1.19978 -1.45777 0
M  V30 5398 O 519.813 -0.230471 -1.81039 0
M  V30 5399 C 519.864 -3.54353 -0.715258 0
M  V30 5400 O 519.585 -4.36132 0.414817 0
M  V30 5401 C 521.086 -4.21189 -1.38257 0
M  V30 5402 H 518.306 -0.66851 -0.0577502 0
M  V30 5403 H 520.85 -1.99029 0.469852 0
M  V30 5404 H 519.005 -3.60596 -1.41596 0
M  V30 5405 H 519.419 -5.2445 0.0725227 0
M  V30 5406 H 520.893 -5.27154 -1.63745 0
M  V30 5407 H 521.37 -3.72307 -2.32989 0
M  V30 5408 H 521.976 -4.19085 -0.724447 0
M  V30 5409 N 520.291 -0.0518155 -1.57515 0
M  V30 5410 C 521.238 0.922352 -2.11569 0
M  V30 5411 C 522.208 1.30842 -1.02321 0
M  V30 5412 O 523.393 1.39778 -1.29872 0
M  V30 5413 C 520.533 2.19167 -2.6657 0
M  V30 5414 C 519.646 1.86003 -3.89906 0
M  V30 5415 C 518.781 3.07398 -4.33221 0
M  V30 5416 C 517.82 2.70158 -5.49255 0
M  V30 5417 N 516.957 3.84248 -5.8762 0
M  V30 5418 H 521.797 0.454506 -2.94514 0
M  V30 5419 H 519.334 0.212718 -1.45554 0
M  V30 5420 H 521.292 2.93443 -2.96559 0
M  V30 5421 H 519.922 2.63528 -1.86421 0
M  V30 5422 H 518.974 1.01874 -3.66505 0
M  V30 5423 H 520.286 1.54592 -4.74239 0
M  V30 5424 H 519.44 3.89972 -4.64765 0
M  V30 5425 H 518.179 3.41988 -3.477 0
M  V30 5426 H 517.184 1.86001 -5.17382 0
M  V30 5427 H 518.409 2.36759 -6.36492 0
M  V30 5428 H 516.355 4.18638 -5.05053 0
M  V30 5429 H 516.272 3.56538 -6.66646 0
M  V30 5430 H 517.54 4.6746 -6.2378 0
M  V30 5431 N 521.769 1.56035 0.221574 0
M  V30 5432 C 522.732 1.91584 1.2581 0
M  V30 5433 C 523.732 0.794425 1.39805 0
M  V30 5434 O 524.922 1.06217 1.38071 0
M  V30 5435 C 522.054 2.16663 2.63192 0
M  V30 5436 H 523.247 2.8429 0.954935 0
M  V30 5437 H 520.8 1.49316 0.461988 0
M  V30 5438 H 521.535 1.26508 2.98607 0
M  V30 5439 H 521.32 2.98358 2.5441 0
M  V30 5440 H 522.81 2.45262 3.37988 0
M  V30 5441 N 523.247 -0.488276 1.49845 0
M  V30 5442 C 524.177 -1.59675 1.70371 0
M  V30 5443 C 525.158 -1.60878 0.552473 0
M  V30 5444 O 526.343 -1.77417 0.78973 0
M  V30 5445 C 523.473 -2.98098 1.782 0
M  V30 5446 C 522.427 -3.11761 2.93239 0
M  V30 5447 C 521.753 -4.51661 2.86193 0
M  V30 5448 C 523.053 -2.90589 4.33999 0
M  V30 5449 H 524.747 -1.42752 2.63177 0
M  V30 5450 H 522.293 -0.685317 1.26647 0
M  V30 5451 H 524.246 -3.75555 1.91144 0
M  V30 5452 H 522.97 -3.16138 0.820018 0
M  V30 5453 H 521.629 -2.36732 2.79917 0
M  V30 5454 H 521.277 -4.66595 1.87877 0
M  V30 5455 H 520.977 -4.61742 3.63412 0
M  V30 5456 H 522.501 -5.31162 3.01163 0
M  V30 5457 H 523.915 -3.57807 4.47936 0
M  V30 5458 H 522.312 -3.1213 5.12538 0
M  V30 5459 H 523.382 -1.86595 4.4756 0
M  V30 5460 N 524.725 -1.39134 -0.740242 0
M  V30 5461 C 525.658 -1.3182 -1.86276 0
M  V30 5462 C 526.636 -0.192794 -1.61453 0
M  V30 5463 O 527.82 -0.372365 -1.84786 0
M  V30 5464 C 524.947 -1.04564 -3.22155 0
M  V30 5465 C 523.993 -2.19224 -3.65846 0
M  V30 5466 S 524.826 -3.81466 -3.75824 0
M  V30 5467 C 525.982 -3.56425 -5.14502 0
M  V30 5468 H 526.215 -2.26822 -1.92195 0
M  V30 5469 H 523.748 -1.25127 -0.904576 0
M  V30 5470 H 525.706 -0.895228 -4.00619 0
M  V30 5471 H 524.367 -0.112578 -3.13898 0
M  V30 5472 H 523.56 -1.95732 -4.6444 0
M  V30 5473 H 523.162 -2.30441 -2.94572 0
M  V30 5474 H 525.454 -3.13366 -6.00673 0
M  V30 5475 H 526.397 -4.54462 -5.43019 0
M  V30 5476 H 526.805 -2.90641 -4.8393 0
M  V30 5477 N 526.204 0.969867 -1.24223 0
M  V30 5478 C 527.481 1.68774 -0.988664 0
M  V30 5479 C 527.861 2.05342 0.489673 0
M  V30 5480 O 527.209 1.75486 1.46345 0
M  V30 5481 C 527.419 2.92135 -1.90941 0
M  V30 5482 C 528.767 3.64422 -2.17903 0
M  V30 5483 O 529.791 3.02188 -1.88576 0
M  V30 5484 O 528.65 4.76446 -2.67697 0
M  V30 5485 H 525.744 0.737736 -0.37373 0
M  V30 5486 H 528.29 1.02415 -1.35312 0
M  V30 5487 H 527.062 2.61788 -2.90831 0
M  V30 5488 H 526.685 3.66228 -1.54798 0
M  V30 5489 N 527.682 1.05563 1.17022 0
M  V30 5490 C 528.592 0.670758 2.24807 0
M  V30 5491 C 529.608 -0.309865 1.71219 0
M  V30 5492 O 530.784 -0.161025 2.00755 0
M  V30 5493 C 527.849 0.055337 3.46656 0
M  V30 5494 C 526.91 1.08688 4.15314 0
M  V30 5495 C 526.143 0.500736 5.31346 0
M  V30 5496 O 526.366 -0.688718 5.66227 0
M  V30 5497 O 525.3 1.23683 5.89055 0
M  V30 5498 H 529.126 1.56914 2.60023 0
M  V30 5499 H 526.711 0.827428 1.24395 0
M  V30 5500 H 528.593 -0.286492 4.20425 0
M  V30 5501 H 527.268 -0.816638 3.13229 0
M  V30 5502 H 526.175 1.48077 3.43546 0
M  V30 5503 H 527.508 1.93014 4.52777 0
M  V30 5504 N 529.16 -1.33526 0.837174 0
M  V30 5505 C 530.406 -1.9813 0.432704 0
M  V30 5506 C 530.739 -1.66168 -1.00508 0
M  V30 5507 O 530.014 -0.94069 -1.70239 0
M  V30 5508 C 530.297 -3.54151 0.651834 0
M  V30 5509 C 530.15 -3.95806 2.13676 0
M  V30 5510 C 531.469 -4.39993 0.0968937 0
M  V30 5511 H 528.588 -0.719713 0.15869 0
M  V30 5512 H 531.23 -1.58193 1.05237 0
M  V30 5513 H 529.38 -3.88301 0.124369 0
M  V30 5514 H 531.052 -3.71921 2.72896 0
M  V30 5515 H 529.295 -3.45599 2.62191 0
M  V30 5516 H 529.966 -5.0447 2.24084 0
M  V30 5517 H 532.442 -4.12479 0.547733 0
M  V30 5518 H 531.318 -5.48186 0.279917 0
M  V30 5519 H 531.579 -4.3066 -0.9992 0
M  V30 5520 N 530.638 -0.59345 -1.46 0
M  V30 5521 C 531.884 -0.0832754 -2.02629 0
M  V30 5522 C 532.217 1.27749 -1.46266 0
M  V30 5523 O 531.492 1.8395 -0.631866 0
M  V30 5524 C 531.775 -0.0290756 -3.60088 0
M  V30 5525 C 531.628 -1.41951 -4.26814 0
M  V30 5526 C 532.947 0.666055 -4.35031 0
M  V30 5527 H 530.066 -0.031736 -0.736316 0
M  V30 5528 H 532.708 -0.762711 -1.74019 0
M  V30 5529 H 530.858 0.549532 -3.84594 0
M  V30 5530 H 532.53 -2.04411 -4.13538 0
M  V30 5531 H 530.773 -1.98422 -3.8576 0
M  V30 5532 H 531.444 -1.33395 -5.3564 0
M  V30 5533 H 533.92 0.174401 -4.15734 0
M  V30 5534 H 532.796 0.673041 -5.44758 0
M  V30 5535 H 533.057 1.72946 -4.06869 0
M  V30 5536 N 532.116 1.54067 -0.331816 0
M  V30 5537 C 533.063 2.24623 0.530372 0
M  V30 5538 C 534.033 1.24009 1.10503 0
M  V30 5539 O 535.218 1.52712 1.14384 0
M  V30 5540 C 532.358 3.01374 1.68129 0
M  V30 5541 C 531.471 4.16821 1.13507 0
M  V30 5542 C 530.606 4.81085 2.25234 0
M  V30 5543 C 529.645 5.88621 1.67903 0
M  V30 5544 N 528.782 6.46713 2.73326 0
M  V30 5545 H 533.622 2.97898 -0.0778607 0
M  V30 5546 H 531.159 1.47014 -0.0501965 0
M  V30 5547 H 533.117 3.44125 2.35868 0
M  V30 5548 H 531.747 2.30419 2.26069 0
M  V30 5549 H 530.799 3.78796 0.348979 0
M  V30 5550 H 532.111 4.94203 0.675633 0
M  V30 5551 H 531.265 5.26846 3.00862 0
M  V30 5552 H 530.004 4.03102 2.74518 0
M  V30 5553 H 529.009 5.42254 0.907773 0
M  V30 5554 H 530.234 6.68506 1.19487 0
M  V30 5555 H 528.18 5.71599 3.21886 0
M  V30 5556 H 528.097 7.19532 2.3197 0
M  V30 5557 H 529.365 6.97129 3.48758 0
M  V30 5558 N 533.594 0.0601682 1.57485 0
M  V30 5559 C 534.557 -0.896373 2.10945 0
M  V30 5560 C 535.557 -1.23402 1.03095 0
M  V30 5561 O 536.747 -1.16921 1.29132 0
M  V30 5562 C 533.879 -2.20346 2.60116 0
M  V30 5563 H 535.072 -0.432778 2.96761 0
M  V30 5564 H 532.625 -0.188372 1.55161 0
M  V30 5565 H 533.36 -2.71268 1.7772 0
M  V30 5566 H 533.145 -1.9714 3.38937 0
M  V30 5567 H 534.635 -2.88846 3.01592 0
M  V30 5568 N 535.072 -1.5615 -0.213296 0
M  V30 5569 C 536.3 -1.83638 -0.953139 0
M  V30 5570 C 536.715 -0.640362 -1.77609 0
M  V30 5571 O 536.072 0.391071 -1.78261 0
M  V30 5572 C 536.123 -3.09735 -1.86405 0
M  V30 5573 O 535.844 -4.24723 -1.07435 0
M  V30 5574 C 537.345 -3.5027 -2.71709 0
M  V30 5575 H 534.565 -0.610263 -0.278962 0
M  V30 5576 H 537.109 -2.03247 -0.226035 0
M  V30 5577 H 535.264 -2.92077 -2.545 0
M  V30 5578 H 535.678 -4.9641 -1.69343 0
M  V30 5579 H 537.152 -4.41515 -3.31313 0
M  V30 5580 H 537.629 -2.72406 -3.44516 0
M  V30 5581 H 538.235 -3.70396 -2.09015 0
M  V30 5582 N 536.55 0.480323 -1.50102 0
M  V30 5583 C 537.775 1.26126 -1.64642 0
M  V30 5584 C 538.2 1.85257 -0.325823 0
M  V30 5585 O 537.558 1.66854 0.709194 0
M  V30 5586 C 537.606 2.35243 -2.73301 0
M  V30 5587 O 536.71 3.39646 -2.33911 0
M  V30 5588 H 536.051 0.371463 -0.550374 0
M  V30 5589 H 538.581 0.572696 -1.96421 0
M  V30 5590 H 538.591 2.80695 -2.96098 0
M  V30 5591 H 537.266 1.91574 -3.6915 0
M  V30 5592 H 535.843 2.99969 -2.21525 0
M  V30 5593 N 538.028 1.39524 0.732853 0
M  V30 5594 C 539.444 1.21176 1.03868 0
M  V30 5595 C 539.644 0.0748448 2.01361 0
M  V30 5596 O 538.7 -0.57281 2.45917 0
M  V30 5597 C 540.013 2.54667 1.59892 0
M  V30 5598 C 541.561 2.6153 1.71962 0
M  V30 5599 C 542.036 3.95248 2.31394 0
M  V30 5600 N 543.527 3.96899 2.38801 0
M  V30 5601 C 544.262 4.97138 2.85729 0
M  V30 5602 N 543.758 6.07775 3.32537 0
M  V30 5603 N 545.551 4.84516 2.84957 0
M  V30 5604 H 537.702 2.12225 0.086304 0
M  V30 5605 H 539.965 0.942614 0.100907 0
M  V30 5606 H 539.671 3.38423 0.95721 0
M  V30 5607 H 539.545 2.74538 2.58668 0
M  V30 5608 H 541.932 1.78156 2.35254 0
M  V30 5609 H 542.013 2.45507 0.718327 0
M  V30 5610 H 541.657 4.79054 1.68729 0
M  V30 5611 H 541.587 4.08593 3.32204 0
M  V30 5612 H 544.078 3.16998 2.05719 0
M  V30 5613 H 544.391 6.8017 3.66862 0
M  V30 5614 H 542.736 6.11366 3.30541 0
M  V30 5615 H 545.927 3.97185 2.47713 0
M  V30 5616 H 546.1 5.62783 3.21215 0
M  V30 5617 N 539.506 -0.963266 1.24736 0
M  V30 5618 C 540.754 -1.70343 1.08755 0
M  V30 5619 C 541.075 -1.91387 -0.373619 0
M  V30 5620 O 540.345 -1.4948 -1.2662 0
M  V30 5621 H 538.925 -0.631224 0.399456 0
M  V30 5622 H 541.587 -1.15859 1.56725 0
M  V30 5623 H 540.683 -2.68616 1.58909 0
M  V30 5624 N 540.985 -1.06182 -1.16461 0
M  V30 5625 C 542.225 -0.787048 -1.8864 0
M  V30 5626 C 542.589 0.674093 -1.79778 0
M  V30 5627 O 543.79 1.06341 -2.46871 0
M  V30 5628 C 542.061 -1.2666 -3.34203 0
M  V30 5629 S 543.62 -1.12071 -4.24247 0
M  V30 5630 H 540.438 -0.285539 -0.651144 0
M  V30 5631 H 543.04 -1.35851 -1.40587 0
M  V30 5632 H 541.744 -2.32496 -3.38192 0
M  V30 5633 H 541.275 -0.689841 -3.87304 0
M  V30 5634 H 543.29 -0.0509341 -4.96174 0
M  V30 5635 N 542.463 1.3308 -0.844243 0
M  V30 5636 C 543.712 1.96868 -0.438833 0
M  V30 5637 C 544.025 1.67599 1.00846 0
M  V30 5638 O 545.231 2.25043 1.51881 0
M  V30 5639 C 543.687 3.5234 -0.73377 0
M  V30 5640 C 543.295 3.90481 -2.1961 0
M  V30 5641 C 545.039 4.22653 -0.395574 0
M  V30 5642 C 542.946 5.38954 -2.43481 0
M  V30 5643 H 541.876 0.736749 -0.160364 0
M  V30 5644 H 544.527 1.51623 -1.03358 0
M  V30 5645 H 542.909 3.95941 -0.068589 0
M  V30 5646 H 544.083 3.57922 -2.90221 0
M  V30 5647 H 542.398 3.33165 -2.4978 0
M  V30 5648 H 544.995 5.31848 -0.551477 0
M  V30 5649 H 545.338 4.11004 0.661921 0
M  V30 5650 H 545.871 3.84601 -1.01621 0
M  V30 5651 H 542.61 5.55612 -3.47816 0
M  V30 5652 H 542.13 5.72954 -1.77437 0
M  V30 5653 H 543.809 6.05907 -2.26905 0
M  V30 5654 N 543.941 0.601185 1.45683 0
M  V30 5655 C 545.169 0.100054 2.06658 0
M  V30 5656 C 545.584 -1.21285 1.44691 0
M  V30 5657 O 544.941 -1.73735 0.558772 0
M  V30 5658 C 544.992 -0.0528579 3.61461 0
M  V30 5659 O 544.713 1.20809 4.21114 0
M  V30 5660 C 546.214 -0.586193 4.39407 0
M  V30 5661 H 543.434 0.065905 0.667756 0
M  V30 5662 H 545.978 0.827101 1.87028 0
M  V30 5663 H 544.133 -0.730203 3.80456 0
M  V30 5664 H 544.547 1.03368 5.14213 0
M  V30 5665 H 546.021 -0.642297 5.4825 0
M  V30 5666 H 546.498 -1.60713 4.0874 0
M  V30 5667 H 547.104 0.0568935 4.25262 0
M  V30 5668 N 545.419 -1.53889 0.339982 0
M  V30 5669 C 546.668 -2.00035 -0.258604 0
M  V30 5670 C 546.981 -1.23179 -1.51942 0
M  V30 5671 O 548.187 -1.59784 -2.19503 0
M  V30 5672 C 546.643 -3.56249 -0.511359 0
M  V30 5673 C 546.251 -4.41957 0.733349 0
M  V30 5674 C 547.995 -4.1082 -1.069 0
M  V30 5675 C 545.902 -5.89673 0.451591 0
M  V30 5676 H 544.832 -0.747284 -0.10041 0
M  V30 5677 H 547.483 -1.77776 0.454758 0
M  V30 5678 H 545.865 -3.7456 -1.28533 0
M  V30 5679 H 547.039 -4.35421 1.50815 0
M  V30 5680 H 545.354 -3.9836 1.21237 0
M  V30 5681 H 547.951 -5.18789 -1.2947 0
M  V30 5682 H 548.294 -3.63817 -2.02343 0
M  V30 5683 H 548.827 -3.96205 -0.355817 0
M  V30 5684 H 545.566 -6.40903 1.37565 0
M  V30 5685 H 545.086 -5.99122 -0.285193 0
M  V30 5686 H 546.765 -6.46965 0.0675067 0
M  V30 5687 N 546.897 -0.0685191 -1.57451 0
M  V30 5688 C 548.146 0.600898 -1.92541 0
M  V30 5689 C 548.459 1.70967 -0.950239 0
M  V30 5690 O 549.665 2.43844 -1.19384 0
M  V30 5691 C 548.121 1.12019 -3.42023 0
M  V30 5692 C 547.729 0.0426028 -4.4798 0
M  V30 5693 C 549.473 1.76386 -3.86119 0
M  V30 5694 C 547.38 0.575759 -5.88591 0
M  V30 5695 H 546.31 0.228225 -0.71863 0
M  V30 5696 H 548.961 -0.140223 -1.82963 0
M  V30 5697 H 547.343 1.91418 -3.46663 0
M  V30 5698 H 548.517 -0.73182 -4.54952 0
M  V30 5699 H 546.832 -0.504642 -4.13331 0
M  V30 5700 H 549.429 2.17302 -4.88553 0
M  V30 5701 H 549.772 2.62255 -3.23308 0
M  V30 5702 H 550.305 1.03615 -3.84069 0
M  V30 5703 H 547.044 -0.245691 -6.55039 0
M  V30 5704 H 546.564 1.31778 -5.85145 0
M  V30 5705 H 548.243 1.0532 -6.3837 0
M  V30 5706 N 548.375 1.56261 0.205012 0
M  V30 5707 C 549.623 1.79684 0.925096 0
M  V30 5708 C 549.944 0.63989 1.84202 0
M  V30 5709 O 549.214 -0.342345 1.92885 0
M  V30 5710 H 547.794 0.662774 0.344587 0
M  V30 5711 H 550.456 1.93734 0.212899 0
M  V30 5712 H 549.552 2.72467 1.52211 0
M  V30 5713 N 549.853 -0.472356 1.50355 0
M  V30 5714 C 551.101 -1.22211 1.60962 0
M  V30 5715 C 551.422 -1.92497 0.311439 0
M  V30 5716 O 550.692 -1.8405 -0.671002 0
M  V30 5717 H 549.272 -0.454092 0.593135 0
M  V30 5718 H 551.934 -0.544977 1.87126 0
M  V30 5719 H 551.03 -1.9707 2.42012 0
M  V30 5720 N 551.331 -1.39911 -0.725443 0
M  V30 5721 C 552.579 -1.37382 -1.48224 0
M  V30 5722 C 552.9 0.0264107 -1.94982 0
M  V30 5723 O 552.17 0.979408 -1.6966 0
M  V30 5724 H 550.75 -0.505596 -0.549892 0
M  V30 5725 H 553.412 -1.7487 -0.860608 0
M  V30 5726 H 552.508 -2.04254 -2.3598 0
M  V30 5727 N 552.809 0.956637 -1.25245 0
M  V30 5728 C 554.086 1.67716 -1.00651 0
M  V30 5729 C 554.466 2.0585 0.467866 0
M  V30 5730 O 553.814 1.77029 1.44475 0
M  V30 5731 C 554.024 2.90093 -1.94028 0
M  V30 5732 C 555.372 3.6209 -2.21756 0
M  V30 5733 O 556.396 3.00171 -1.9177 0
M  V30 5734 O 555.255 4.7358 -2.72735 0
M  V30 5735 H 552.349 0.733731 -0.381533 0
M  V30 5736 H 554.895 1.00974 -1.3639 0
M  V30 5737 H 553.667 2.58689 -2.93591 0
M  V30 5738 H 553.29 3.64566 -1.58674 0
M  V30 5739 N 554.287 1.06798 1.15896 0
M  V30 5740 C 555.515 0.808694 1.90441 0
M  V30 5741 C 555.93 -0.637506 1.77711 0
M  V30 5742 O 555.287 -1.43684 1.12522 0
M  V30 5743 C 555.338 1.20068 3.40978 0
M  V30 5744 O 555.059 2.59013 3.53333 0
M  V30 5745 C 556.56 0.96987 4.3256 0
M  V30 5746 H 553.78 0.292809 0.603742 0
M  V30 5747 H 556.324 1.42296 1.46874 0
M  V30 5748 H 554.479 0.630842 3.82229 0
M  V30 5749 H 554.893 2.7485 4.46719 0
M  V30 5750 H 556.367 1.29371 5.36626 0
M  V30 5751 H 556.844 -0.0941209 4.39099 0
M  V30 5752 H 557.45 1.52433 3.97044 0
M  V30 5753 N 555.766 -1.3263 0.851289 0
M  V30 5754 C 556.729 -2.27247 0.298541 0
M  V30 5755 C 557.729 -1.51467 -0.539847 0
M  V30 5756 O 558.919 -1.7061 -0.351843 0
M  V30 5757 C 556.051 -3.35964 -0.578004 0
M  V30 5758 H 557.244 -2.7765 1.13359 0
M  V30 5759 H 554.797 -1.43245 0.625354 0
M  V30 5760 H 555.532 -2.90823 -1.435 0
M  V30 5761 H 555.317 -3.92094 0.0220539 0
M  V30 5762 H 556.807 -4.06472 -0.957626 0
M  V30 5763 N 557.244 -0.608902 -1.45362 0
M  V30 5764 C 558.472 -0.111013 -2.06602 0
M  V30 5765 C 558.887 1.20516 -1.45332 0
M  V30 5766 O 558.244 1.73437 -0.567978 0
M  V30 5767 C 558.295 0.033688 -3.61484 0
M  V30 5768 O 558.016 -1.23041 -4.20467 0
M  V30 5769 C 559.517 0.562882 -4.39712 0
M  V30 5770 H 556.737 -0.0694453 -0.667397 0
M  V30 5771 H 559.281 -0.837008 -1.86586 0
M  V30 5772 H 557.436 0.710016 -3.80838 0
M  V30 5773 H 557.85 -1.06094 -5.13658 0
M  V30 5774 H 559.324 0.613213 -5.48583 0
M  V30 5775 H 559.801 1.58543 -4.09586 0
M  V30 5776 H 560.407 -0.0794454 -4.25226 0
M  V30 5777 N 558.722 1.53707 -0.348139 0
M  V30 5778 C 559.962 2.02899 0.247254 0
M  V30 5779 C 560.326 1.23033 1.47401 0
M  V30 5780 O 561.527 1.62146 2.14388 0
M  V30 5781 C 559.798 3.53156 0.549151 0
M  V30 5782 S 561.357 4.24247 1.1207 0
M  V30 5783 H 558.175 0.707213 0.0732894 0
M  V30 5784 H 560.777 1.89338 -0.486965 0
M  V30 5785 H 559.481 4.08893 -0.351435 0
M  V30 5786 H 559.012 3.70845 1.31291 0
M  V30 5787 H 561.027 4.33958 2.40613 0
M  V30 5788 N 560.2 0.0768682 1.57412 0
M  V30 5789 C 561.44 -0.594676 1.95558 0
M  V30 5790 C 561.804 -1.66469 0.956658 0
M  V30 5791 O 563.005 -2.39215 1.22595 0
M  V30 5792 C 561.276 -1.15206 3.38323 0
M  V30 5793 S 562.835 -1.83803 3.9845 0
M  V30 5794 H 559.653 -0.194579 0.683857 0
M  V30 5795 H 562.255 0.151933 1.94909 0
M  V30 5796 H 560.959 -0.36153 4.08805 0
M  V30 5797 H 560.49 -1.93491 3.42527 0
M  V30 5798 H 562.505 -3.12087 3.85767 0
M  V30 5799 N 561.678 -1.56367 -0.196722 0
M  V30 5800 C 562.641 -1.93561 -1.22746 0
M  V30 5801 C 563.641 -0.816566 -1.38524 0
M  V30 5802 O 564.831 -1.084 -1.36363 0
M  V30 5803 C 561.963 -2.20823 -2.59712 0
M  V30 5804 H 563.156 -2.85774 -0.909586 0
M  V30 5805 H 560.709 -1.50032 -0.438174 0
M  V30 5806 H 561.444 -1.31243 -2.96557 0
M  V30 5807 H 561.229 -3.02368 -2.49632 0
M  V30 5808 H 562.719 -2.50608 -3.34044 0
M  V30 5809 N 563.156 0.464375 -1.50603 0
M  V30 5810 C 564.103 1.56152 -1.69956 0
M  V30 5811 C 565.073 1.57046 -0.54091 0
M  V30 5812 O 566.258 1.74473 -0.772258 0
M  V30 5813 C 563.398 2.94079 -1.80586 0
M  V30 5814 C 562.511 3.02923 -3.07996 0
M  V30 5815 C 561.646 4.31806 -3.09382 0
M  V30 5816 C 560.685 4.34417 -4.31218 0
M  V30 5817 N 559.822 5.54782 -4.30304 0
M  V30 5818 H 564.662 1.38955 -2.6362 0
M  V30 5819 H 562.199 0.675482 -1.30674 0
M  V30 5820 H 564.157 3.74073 -1.8473 0
M  V30 5821 H 562.787 3.09896 -0.903556 0
M  V30 5822 H 561.839 2.1576 -3.13292 0
M  V30 5823 H 563.151 3.00712 -3.97962 0
M  V30 5824 H 562.305 5.20153 -3.12292 0
M  V30 5825 H 561.044 4.36636 -2.17257 0
M  V30 5826 H 560.049 3.44467 -4.28512 0
M  V30 5827 H 561.274 4.31273 -5.24576 0
M  V30 5828 H 559.22 5.60384 -3.41037 0
M  V30 5829 H 559.137 5.54339 -5.14047 0
M  V30 5830 H 560.405 6.45235 -4.3737 0
M  V30 5831 N 564.634 1.40294 0.718013 0
M  V30 5832 C 565.88 1.39648 1.47885 0
M  V30 5833 C 566.235 -0.0023879 1.924 0
M  V30 5834 O 565.528 -0.972304 1.65096 0
M  V30 5835 C 565.722 2.31814 2.72024 0
M  V30 5836 C 565.551 3.80523 2.3965 0
M  V30 5837 C 564.321 4.49351 2.3111 0
M  V30 5838 C 566.519 4.72077 2.04079 0
M  V30 5839 N 564.501 5.83305 1.91385 0
M  V30 5840 C 565.872 5.94809 1.74935 0
M  V30 5841 C 567.927 4.59935 1.90694 0
M  V30 5842 C 566.63 7.06755 1.33753 0
M  V30 5843 C 568.656 5.7182 1.50915 0
M  V30 5844 C 568.018 6.93637 1.22668 0
M  V30 5845 H 564.117 0.566263 0.539324 0
M  V30 5846 H 566.701 1.75986 0.832891 0
M  V30 5847 H 564.872 1.97607 3.34374 0
M  V30 5848 H 566.604 2.22042 3.38348 0
M  V30 5849 H 563.359 4.03002 2.4877 0
M  V30 5850 H 563.783 6.54239 1.74068 0
M  V30 5851 H 568.425 3.66274 2.11194 0
M  V30 5852 H 566.143 8.00302 1.11995 0
M  V30 5853 H 569.729 5.64421 1.4114 0
M  V30 5854 H 568.609 7.78743 0.923502 0
M  V30 5855 N 566.112 -0.949982 1.2575 0
M  V30 5856 C 567.06 -2.06869 1.06339 0
M  V30 5857 C 568.054 -1.69399 -0.00708901 0
M  V30 5858 O 569.26 -1.79383 0.148897 0
M  V30 5859 H 565.635 -0.677197 0.326969 0
M  V30 5860 H 567.606 -2.20396 2.01167 0
M  V30 5861 C 566.355 -3.40503 0.703769 0
M  V30 5862 H 565.678 -3.69807 1.51931 0
M  V30 5863 H 567.118 -4.19623 0.607677 0
M  V30 5864 C 565.577 -3.31685 -0.5905 0
M  V30 5865 O 566.107 -3.67085 -1.63131 0
M  V30 5866 N 564.313 -2.84797 -0.577859 0
M  V30 5867 H 563.86 -2.56186 0.26951 0
M  V30 5868 H 563.818 -2.79279 -1.44398 0
M  V30 5869 N 567.59 -1.07411 -1.15328 0
M  V30 5870 C 568.818 -0.818782 -1.90009 0
M  V30 5871 C 569.233 0.628072 -1.78047 0
M  V30 5872 O 568.59 1.43085 -1.13282 0
M  V30 5873 C 568.641 -1.21874 -3.40337 0
M  V30 5874 O 568.362 -2.60883 -3.51954 0
M  V30 5875 C 569.863 -0.992796 -4.3204 0
M  V30 5876 H 567.083 -0.296007 -0.60218 0
M  V30 5877 H 569.627 -1.43073 -1.46117 0
M  V30 5878 H 567.782 -0.651103 -3.81889 0
M  V30 5879 H 568.196 -2.77216 -4.45255 0
M  V30 5880 H 569.67 -1.32215 -5.35932 0
M  V30 5881 H 570.147 0.0708331 -4.39143 0
M  V30 5882 H 570.753 -1.54537 -3.9623 0
M  V30 5883 N 569.068 1.32177 -0.85831 0
M  V30 5884 C 569.978 2.32561 -0.308606 0
M  V30 5885 C 570.994 1.64209 0.575462 0
M  V30 5886 O 572.17 1.95719 0.474961 0
M  V30 5887 C 569.235 3.43207 0.490909 0
M  V30 5888 C 568.296 4.27243 -0.419733 0
M  V30 5889 C 567.529 5.32605 0.341719 0
M  V30 5890 O 567.752 5.48332 1.57125 0
M  V30 5891 O 566.686 6.0118 -0.294379 0
M  V30 5892 H 570.512 2.81477 -1.14037 0
M  V30 5893 H 568.097 1.35866 -0.621349 0
M  V30 5894 H 569.979 4.10677 0.944574 0
M  V30 5895 H 568.654 2.96474 1.29941 0
M  V30 5896 H 567.561 3.62569 -0.921652 0
M  V30 5897 H 568.894 4.7751 -1.19352 0
M  V30 5898 N 570.547 0.616602 1.45037 0
M  V30 5899 C 571.824 0.0469086 1.95544 0
M  V30 5900 C 572.204 -1.42345 1.55888 0
M  V30 5901 O 571.552 -2.13055 0.825824 0
M  V30 5902 C 571.762 0.254489 3.48071 0
M  V30 5903 C 573.11 0.140025 4.24369 0
M  V30 5904 O 574.134 0.185084 3.55719 0
M  V30 5905 O 572.993 0.0327034 5.4649 0
M  V30 5906 H 570.087 -0.0306051 0.826433 0
M  V30 5907 H 572.633 0.687293 1.55159 0
M  V30 5908 H 571.405 1.27532 3.69934 0
M  V30 5909 H 571.028 -0.42073 3.95368 0
M  V30 5910 N 572.025 -1.5352 0.356285 0
M  V30 5911 C 572.972 -2.25439 -0.494569 0
M  V30 5912 C 573.942 -1.25752 -1.08516 0
M  V30 5913 O 575.127 -1.54513 -1.1194 0
M  V30 5914 C 572.267 -3.04011 -1.63313 0
M  V30 5915 C 571.38 -4.18574 -1.06862 0
M  V30 5916 C 570.515 -4.84607 -2.17552 0
M  V30 5917 C 569.554 -5.91218 -1.58518 0
M  V30 5918 N 568.691 -6.50979 -2.63003 0
M  V30 5919 H 573.531 -2.97737 0.125244 0
M  V30 5920 H 571.068 -1.46916 0.0735789 0
M  V30 5921 H 573.026 -3.47834 -2.30363 0
M  V30 5922 H 571.656 -2.33986 -2.22374 0
M  V30 5923 H 570.708 -3.79303 -0.288672 0
M  V30 5924 H 572.02 -4.95215 -0.596924 0
M  V30 5925 H 571.174 -5.31566 -2.92442 0
M  V30 5926 H 569.913 -4.07418 -2.6807 0
M  V30 5927 H 568.918 -5.4363 -0.821391 0
M  V30 5928 H 570.143 -6.70322 -1.08836 0
M  V30 5929 H 568.089 -5.76648 -3.12751 0
M  V30 5930 H 568.006 -7.23131 -2.20493 0
M  V30 5931 H 569.274 -7.02589 -3.37623 0
M  V30 5932 N 573.503 -0.0852151 -1.57369 0
M  V30 5933 C 574.749 0.581666 -1.94279 0
M  V30 5934 C 575.082 1.68444 -0.966446 0
M  V30 5935 O 574.357 1.945 0.00215277 0
M  V30 5936 C 574.64 1.14609 -3.41375 0
M  V30 5937 C 574.493 0.0490414 -4.49773 0
M  V30 5938 C 575.812 2.04751 -3.8957 0
M  V30 5939 H 572.931 0.209972 -0.706456 0
M  V30 5940 H 575.573 -0.153915 -1.89376 0
M  V30 5941 H 573.723 1.77297 -3.45685 0
M  V30 5942 H 575.395 -0.584721 -4.57579 0
M  V30 5943 H 573.638 -0.618638 -4.29366 0
M  V30 5944 H 574.309 0.484601 -5.49869 0
M  V30 5945 H 576.785 1.51981 -3.87351 0
M  V30 5946 H 575.661 2.41173 -4.93079 0
M  V30 5947 H 575.922 2.96107 -3.28288 0
M  V30 5948 N 574.981 1.5647 0.188427 0
M  V30 5949 C 576.206 1.85486 0.927891 0
M  V30 5950 C 576.631 0.669575 1.75779 0
M  V30 5951 O 575.989 -0.381573 1.77239 0
M  V30 5952 C 576.037 3.12784 1.7944 0
M  V30 5953 O 575.141 2.93805 2.894 0
M  V30 5954 H 574.482 0.610585 0.260925 0
M  V30 5955 H 577.012 2.037 0.191729 0
M  V30 5956 H 577.022 3.43749 2.19774 0
M  V30 5957 H 575.697 3.98671 1.18468 0
M  V30 5958 H 574.274 2.74153 2.52774 0
M  V30 5959 N 576.459 -0.456382 1.50847 0
M  V30 5960 C 577.409 -1.55045 1.67168 0
M  V30 5961 C 578.393 -1.52061 0.525958 0
M  V30 5962 O 579.585 -1.58836 0.781036 0
M  V30 5963 C 576.714 -2.93386 1.78268 0
M  V30 5964 C 575.8 -3.01198 2.98564 0
M  V30 5965 N 576.191 -2.78792 4.22029 0
M  V30 5966 C 574.489 -3.32346 2.97426 0
M  V30 5967 C 575.19 -2.91953 5.03128 0
M  V30 5968 N 574.166 -3.22797 4.37382 0
M  V30 5969 H 577.968 -1.36444 2.60308 0
M  V30 5970 H 575.482 -0.663375 1.48233 0
M  V30 5971 H 577.479 -3.72071 1.88067 0
M  V30 5972 H 576.139 -3.13022 0.862965 0
M  V30 5973 H 577.15 -2.54087 4.51287 0
M  V30 5974 H 573.827 -3.57877 2.15012 0
M  V30 5975 H 575.217 -2.78745 6.11351 0
M  V30 5976 N 577.937 -1.40673 -0.710563 0
M  V30 5977 C 579.183 -1.39428 -1.47267 0
M  V30 5978 C 579.516 0.00182129 -1.942 0
M  V30 5979 O 578.791 0.971387 -1.68506 0
M  V30 5980 C 579.074 -2.38812 -2.6952 0
M  V30 5981 C 578.927 -3.87467 -2.28449 0
M  V30 5982 C 580.246 -2.3566 -3.71689 0
M  V30 5983 H 577.365 -0.507768 -0.534173 0
M  V30 5984 H 580.007 -1.71843 -0.810547 0
M  V30 5985 H 578.157 -2.113 -3.26013 0
M  V30 5986 H 579.829 -4.25825 -1.77399 0
M  V30 5987 H 578.072 -4.03058 -1.60395 0
M  V30 5988 H 578.743 -4.5253 -3.16103 0
M  V30 5989 H 581.219 -2.6004 -3.24836 0
M  V30 5990 H 580.095 -3.07237 -4.54859 0
M  V30 5991 H 580.356 -1.36996 -4.20339 0
M  V30 5992 N 579.415 0.9433 -1.26252 0
M  V30 5993 C 580.64 1.72898 -1.14547 0
M  V30 5994 C 581.065 1.85761 0.295743 0
M  V30 5995 O 580.423 1.3463 1.21427 0
M  V30 5996 C 580.471 3.11471 -1.8171 0
M  V30 5997 O 579.575 3.97336 -1.10445 0
M  V30 5998 H 578.916 0.530555 -0.399259 0
M  V30 5999 H 581.446 1.18159 -1.67032 0
M  V30 6000 H 581.456 3.61872 -1.88449 0
M  V30 6001 H 580.131 3.01425 -2.86558 0
M  V30 6002 H 578.708 3.55788 -1.11666 0
M  V30 6003 N 580.893 1.08022 1.14757 0
M  V30 6004 C 582.121 0.828847 1.89572 0
M  V30 6005 C 582.536 -0.618621 1.78377 0
M  V30 6006 O 581.893 -1.42482 1.1404 0
M  V30 6007 C 581.944 1.23677 3.39685 0
M  V30 6008 O 581.665 2.62746 3.50566 0
M  V30 6009 C 583.166 1.01569 4.31507 0
M  V30 6010 H 580.386 0.299196 0.600602 0
M  V30 6011 H 582.93 1.43846 1.45357 0
M  V30 6012 H 581.085 0.671347 3.81539 0
M  V30 6013 H 581.499 2.79573 4.43778 0
M  V30 6014 H 582.973 1.35055 5.35223 0
M  V30 6015 H 583.45 -0.0475433 4.39174 0
M  V30 6016 H 584.056 1.56636 3.95405 0
M  V30 6017 N 582.371 -1.3172 0.865308 0
M  V30 6018 C 583.619 -1.96487 0.472995 0
M  V30 6019 C 583.94 -1.68761 -0.976975 0
M  V30 6020 O 583.21 -1.00051 -1.68424 0
M  V30 6021 H 581.79 -0.726947 0.171922 0
M  V30 6022 H 584.452 -1.60612 1.10407 0
M  V30 6023 H 583.548 -3.0574 0.62687 0
M  V30 6024 N 583.85 -0.624285 -1.44708 0
M  V30 6025 C 585.098 -0.125802 -2.01708 0
M  V30 6026 C 585.418 1.2543 -1.49306 0
M  V30 6027 O 584.689 1.83198 -0.693924 0
M  V30 6028 H 583.269 -0.0435161 -0.745731 0
M  V30 6029 H 585.931 -0.809446 -1.77296 0
M  V30 6030 H 585.027 -0.0882734 -3.11975 0
M  V30 6031 N 585.328 1.53329 -0.364422 0
M  V30 6032 C 586.576 2.00842 0.225189 0
M  V30 6033 C 586.897 1.25345 1.49378 0
M  V30 6034 O 586.167 0.366396 1.92443 0
M  V30 6035 H 584.747 0.742009 0.0862027 0
M  V30 6036 H 587.409 1.8863 -0.490389 0
M  V30 6037 H 586.505 3.08795 0.452987 0
M  V30 6038 N 586.806 0.0935595 1.57322 0
M  V30 6039 C 587.769 -0.851426 2.12799 0
M  V30 6040 C 588.769 -1.21187 1.0569 0
M  V30 6041 O 589.959 -1.14156 1.31583 0
M  V30 6042 C 587.091 -2.14779 2.64731 0
M  V30 6043 H 588.284 -0.369733 2.97612 0
M  V30 6044 H 585.837 -0.155417 1.55525 0
M  V30 6045 H 586.572 -2.67437 1.83434 0
M  V30 6046 H 586.357 -1.89907 3.43042 0
M  V30 6047 H 587.847 -2.82383 3.07651 0
M  V30 6048 N 588.284 -1.56567 -0.180126 0
M  V30 6049 C 589.509 -1.85975 -0.918041 0
M  V30 6050 C 589.934 -0.678888 -1.75422 0
M  V30 6051 O 589.292 0.372168 -1.77439 0
M  V30 6052 C 589.34 -3.13731 -1.77779 0
M  V30 6053 O 588.444 -2.95335 -2.87838 0
M  V30 6054 H 587.785 -0.61196 -0.257683 0
M  V30 6055 H 590.315 -2.03798 -0.180923 0
M  V30 6056 H 590.325 -3.4491 -2.17948 0
M  V30 6057 H 589 -3.99293 -1.16352 0
M  V30 6058 H 587.577 -2.7549 -2.51316 0
M  V30 6059 N 589.762 0.448376 -1.51087 0
M  V30 6060 C 590.692 1.55102 -1.74544 0
M  V30 6061 C 591.673 1.59357 -0.594932 0
M  V30 6062 O 592.858 1.75261 -0.836491 0
M  V30 6063 C 589.988 2.93268 -1.86041 0
M  V30 6064 C 588.942 3.03877 -3.01402 0
M  V30 6065 C 588.268 4.43914 -2.98068 0
M  V30 6066 C 589.568 2.7898 -4.41551 0
M  V30 6067 H 591.262 1.35724 -2.66869 0
M  V30 6068 H 588.808 0.651498 -1.28419 0
M  V30 6069 H 590.761 3.70356 -2.01034 0
M  V30 6070 H 589.485 3.13853 -0.903548 0
M  V30 6071 H 588.144 2.29227 -2.86096 0
M  V30 6072 H 587.792 4.6145 -2.00182 0
M  V30 6073 H 587.492 4.51944 -3.75527 0
M  V30 6074 H 589.016 5.22991 -3.1514 0
M  V30 6075 H 590.43 3.45805 -4.57265 0
M  V30 6076 H 588.827 2.98431 -5.20633 0
M  V30 6077 H 589.897 1.74663 -4.5235 0
M  V30 6078 N 591.24 1.41047 0.703093 0
M  V30 6079 C 592.15 1.44645 1.84703 0
M  V30 6080 C 593.166 0.337778 1.7069 0
M  V30 6081 O 594.342 0.584327 1.92737 0
M  V30 6082 C 591.407 1.31928 3.20618 0
M  V30 6083 C 590.468 2.53047 3.46794 0
M  V30 6084 C 589.701 2.40927 4.76224 0
M  V30 6085 O 589.924 1.42978 5.5219 0
M  V30 6086 O 588.858 3.30543 5.03016 0
M  V30 6087 H 592.684 2.41139 1.84624 0
M  V30 6088 H 590.269 1.22504 0.855167 0
M  V30 6089 H 592.151 1.27092 4.01778 0
M  V30 6090 H 590.826 0.385469 3.21397 0
M  V30 6091 H 589.733 2.6346 2.65593 0
M  V30 6092 H 591.066 3.45231 3.50822 0
M  V30 6093 N 592.718 -0.936591 1.26751 0
M  V30 6094 C 593.648 -2.05315 1.11212 0
M  V30 6095 C 594.629 -1.70092 0.0160262 0
M  V30 6096 O 595.814 -1.93279 0.188894 0
M  V30 6097 C 592.944 -3.39123 0.749171 0
M  V30 6098 C 591.898 -3.88425 1.79751 0
M  V30 6099 C 591.224 -5.18936 1.28876 0
M  V30 6100 C 592.524 -4.12798 3.19992 0
M  V30 6101 H 594.218 -2.18573 2.04613 0
M  V30 6102 H 591.764 -1.05027 0.985159 0
M  V30 6103 H 593.717 -4.16704 0.627323 0
M  V30 6104 H 592.441 -3.25855 -0.220543 0
M  V30 6105 H 591.1 -3.13028 1.90811 0
M  V30 6106 H 590.748 -5.02051 0.308757 0
M  V30 6107 H 590.448 -5.52892 1.98958 0
M  V30 6108 H 591.972 -5.99096 1.17967 0
M  V30 6109 H 593.386 -4.80977 3.11983 0
M  V30 6110 H 591.783 -4.58044 3.87705 0
M  V30 6111 H 592.853 -3.18412 3.65707 0
M  V30 6112 N 594.196 -1.08629 -1.14182 0
M  V30 6113 C 595.126 -0.740003 -2.21464 0
M  V30 6114 C 596.107 0.278591 -1.67803 0
M  V30 6115 O 597.292 0.148461 -1.93632 0
M  V30 6116 C 594.422 -0.150952 -3.46972 0
M  V30 6117 C 593.376 -1.09815 -4.13672 0
M  V30 6118 C 592.702 -0.3712 -5.3341 0
M  V30 6119 C 594.002 -2.43722 -4.61949 0
M  V30 6120 H 595.696 -1.63697 -2.50686 0
M  V30 6121 H 593.242 -0.788526 -1.20492 0
M  V30 6122 H 595.195 0.103325 -4.21273 0
M  V30 6123 H 593.919 0.781164 -3.1712 0
M  V30 6124 H 592.578 -1.33756 -3.41328 0
M  V30 6125 H 592.226 0.564792 -4.99819 0
M  V30 6126 H 591.926 -1.00267 -5.78982 0
M  V30 6127 H 593.45 -0.12503 -6.10472 0
M  V30 6128 H 594.864 -2.24034 -5.27714 0
M  V30 6129 H 593.261 -3.02582 -5.18232 0
M  V30 6130 H 594.331 -3.05082 -3.76899 0
M  V30 6131 N 595.674 1.31259 -0.872281 0
M  V30 6132 C 596.584 2.32221 -0.333255 0
M  V30 6133 C 597.6 1.6481 0.558013 0
M  V30 6134 O 598.776 1.96212 0.454175 0
M  V30 6135 C 595.841 3.43708 0.454479 0
M  V30 6136 C 594.902 4.26774 -0.465024 0
M  V30 6137 C 594.135 5.32937 0.28521 0
M  V30 6138 O 594.358 5.49968 1.513 0
M  V30 6139 O 593.292 6.00834 -0.358126 0
M  V30 6140 H 597.118 2.80252 -1.17016 0
M  V30 6141 H 594.703 1.352 -0.635724 0
M  V30 6142 H 596.585 4.11656 0.900963 0
M  V30 6143 H 595.26 2.97836 1.26789 0
M  V30 6144 H 594.167 3.61571 -0.960055 0
M  V30 6145 H 595.5 4.76217 -1.2441 0
M  V30 6146 N 597.152 0.631951 1.44375 0
M  V30 6147 C 598.4 0.136497 2.01639 0
M  V30 6148 C 598.721 -1.24637 1.49969 0
M  V30 6149 O 597.991 -1.82827 0.70363 0
M  V30 6150 H 596.571 0.0474703 0.74549 0
M  V30 6151 H 599.233 0.818837 1.76865 0
M  V30 6152 H 598.329 0.104817 3.11924 0
M  V30 6153 N 598.631 -1.53133 0.372548 0
M  V30 6154 C 599.578 -2.25951 -0.470631 0
M  V30 6155 C 600.548 -1.26895 -1.07176 0
M  V30 6156 O 601.733 -1.55691 -1.10294 0
M  V30 6157 C 598.873 -3.05726 -1.6008 0
M  V30 6158 C 597.986 -4.19684 -1.02416 0
M  V30 6159 C 597.121 -4.86888 -2.124 0
M  V30 6160 C 596.16 -5.92866 -1.52238 0
M  V30 6161 N 595.297 -6.53732 -2.56084 0
M  V30 6162 H 600.137 -2.97587 0.156816 0
M  V30 6163 H 597.674 -1.4683 0.0891571 0
M  V30 6164 H 599.632 -3.50258 -2.26661 0
M  V30 6165 H 598.262 -2.36331 -2.1988 0
M  V30 6166 H 597.314 -3.79588 -0.248426 0
M  V30 6167 H 598.626 -4.95821 -0.544366 0
M  V30 6168 H 597.78 -5.34638 -2.86787 0
M  V30 6169 H 596.519 -4.10239 -2.63734 0
M  V30 6170 H 595.524 -5.4447 -0.763685 0
M  V30 6171 H 596.749 -6.71439 -1.0172 0
M  V30 6172 H 594.695 -5.79932 -3.06618 0
M  V30 6173 H 594.612 -7.25429 -2.12811 0
M  V30 6174 H 595.88 -7.0613 -3.30152 0
M  V30 6175 N 600.109 -0.101901 -1.5727 0
M  V30 6176 C 601.355 0.561027 -1.94885 0
M  V30 6177 C 601.688 1.6741 -0.984258 0
M  V30 6178 O 600.963 1.94491 -0.0184767 0
M  V30 6179 C 601.246 1.10982 -3.42571 0
M  V30 6180 C 601.099 0.00133418 -4.498 0
M  V30 6181 C 602.418 2.00608 -3.9172 0
M  V30 6182 H 599.537 0.202467 -0.708644 0
M  V30 6183 H 602.179 -0.173992 -1.89202 0
M  V30 6184 H 600.329 1.73621 -3.47546 0
M  V30 6185 H 602.001 -0.63322 -4.56933 0
M  V30 6186 H 600.244 -0.664143 -4.28686 0
M  V30 6187 H 600.915 0.426253 -5.50352 0
M  V30 6188 H 603.391 1.47864 -3.88941 0
M  V30 6189 H 602.267 2.3593 -4.95609 0
M  V30 6190 H 602.528 2.92608 -3.3141 0
M  V30 6191 N 601.587 1.56661 0.17182 0
M  V30 6192 C 602.517 1.99401 1.21498 0
M  V30 6193 C 603.498 0.869516 1.46197 0
M  V30 6194 O 604.683 1.13556 1.57539 0
M  V30 6195 C 601.813 2.35346 2.55401 0
M  V30 6196 C 600.767 3.5075 2.45272 0
M  V30 6197 C 600.093 3.72437 3.8366 0
M  V30 6198 C 601.393 4.84216 1.95787 0
M  V30 6199 H 603.087 2.86792 0.859699 0
M  V30 6200 H 600.633 1.37977 0.412103 0
M  V30 6201 H 602.586 2.63843 3.2858 0
M  V30 6202 H 601.31 1.44864 2.92715 0
M  V30 6203 H 599.969 3.2238 1.74547 0
M  V30 6204 H 599.617 2.79246 4.18367 0
M  V30 6205 H 599.317 4.50087 3.77751 0
M  V30 6206 H 600.841 4.03334 4.58426 0
M  V30 6207 H 602.255 5.11592 2.5874 0
M  V30 6208 H 600.652 5.65498 2.00827 0
M  V30 6209 H 601.722 4.76243 0.912159 0
M  V30 6210 N 603.065 -0.440357 1.51323 0
M  V30 6211 C 604.476 -1.02032 1.56353 0
M  V30 6212 C 604.827 -1.92382 0.385197 0
M  V30 6213 O 603.952 -2.10583 -0.498373 0
M  V30 6214 C 604.547 -1.85723 2.83359 0
M  V30 6215 C 603.106 -2.38774 2.90971 0
M  V30 6216 C 602.253 -1.17908 2.50984 0
M  V30 6217 H 605.204 -0.221744 1.57143 0
M  V30 6218 H 605.225 -2.71141 2.66951 0
M  V30 6219 H 604.737 -1.19939 3.69102 0
M  V30 6220 H 602.838 -3.08021 2.09651 0
M  V30 6221 H 602.951 -2.71778 3.94555 0
M  V30 6222 H 601.315 -1.52347 2.04114 0
M  V30 6223 H 602.098 -0.537393 3.39068 0
M  V30 6224 N 604.543 -1.41418 -0.695603 0
M  V30 6225 C 605.791 -1.40496 -1.45277 0
M  V30 6226 C 606.112 -0.0149538 -1.94994 0
M  V30 6227 O 605.382 0.9432 -1.71699 0
M  V30 6228 H 603.962 -0.517147 -0.539044 0
M  V30 6229 H 606.624 -1.76656 -0.823321 0
M  V30 6230 H 605.72 -2.09214 -2.31595 0
M  V30 6231 N 606.021 0.929856 -1.27246 0
M  V30 6232 C 607.267 1.6798 -1.13625 0
M  V30 6233 C 607.6 1.91586 0.317589 0
M  V30 6234 O 606.875 1.50467 1.23247 0
M  V30 6235 C 607.158 3.04766 -1.91806 0
M  V30 6236 C 607.011 2.88415 -3.45162 0
M  V30 6237 C 608.33 4.05063 -1.72082 0
M  V30 6238 H 605.449 0.609632 -0.414147 0
M  V30 6239 H 608.091 1.0792 -1.56376 0
M  V30 6240 H 606.241 3.56034 -1.55474 0
M  V30 6241 H 607.913 2.44282 -3.91311 0
M  V30 6242 H 606.156 2.23802 -3.71611 0
M  V30 6243 H 606.827 3.85482 -3.95105 0
M  V30 6244 H 609.303 3.62798 -2.03757 0
M  V30 6245 H 608.179 4.98765 -2.29182 0
M  V30 6246 H 608.44 4.37021 -0.668206 0
M  V30 6247 N 607.499 1.09233 1.13605 0
M  V30 6248 C 608.776 0.739633 1.81077 0
M  V30 6249 C 609.156 -0.775595 1.96336 0
M  V30 6250 O 608.504 -1.69726 1.52988 0
M  V30 6251 C 608.714 1.47636 3.16235 0
M  V30 6252 C 610.062 1.64087 3.91613 0
M  V30 6253 O 611.086 1.43871 3.25852 0
M  V30 6254 O 609.945 1.97511 5.0956 0
M  V30 6255 H 607.039 0.265464 0.783236 0
M  V30 6256 H 609.585 1.19441 1.20549 0
M  V30 6257 H 608.357 2.50818 3.00344 0
M  V30 6258 H 607.98 1.01362 3.84462 0
M  V30 6259 N 608.977 -1.30795 0.87923 0
M  V30 6260 C 609.94 -2.26563 0.346676 0
M  V30 6261 C 610.94 -1.52578 -0.507597 0
M  V30 6262 O 612.13 -1.71318 -0.315575 0
M  V30 6263 C 609.262 -3.37115 -0.506611 0
M  V30 6264 H 610.455 -2.75183 1.19223 0
M  V30 6265 H 608.008 -1.41886 0.655598 0
M  V30 6266 H 608.743 -2.93802 -1.37299 0
M  V30 6267 H 608.528 -3.91959 0.105218 0
M  V30 6268 H 610.018 -4.08412 -0.871192 0
M  V30 6269 N 610.455 -0.639598 -1.44038 0
M  V30 6270 C 611.385 0.0469443 -2.33453 0
M  V30 6271 C 612.366 0.82609 -1.48694 0
M  V30 6272 O 613.551 0.790285 -1.77393 0
M  V30 6273 C 610.681 1.02338 -3.3188 0
M  V30 6274 C 609.635 0.355284 -4.26523 0
M  V30 6275 C 608.961 1.44221 -5.14883 0
M  V30 6276 C 610.261 -0.743798 -5.16977 0
M  V30 6277 H 611.955 -0.699735 -2.91108 0
M  V30 6278 H 609.501 -0.337946 -1.39978 0
M  V30 6279 H 611.454 1.51247 -3.93322 0
M  V30 6280 H 610.178 1.80105 -2.72451 0
M  V30 6281 H 608.837 -0.113239 -3.66425 0
M  V30 6282 H 608.485 2.21097 -4.51802 0
M  V30 6283 H 608.185 1.00052 -5.79019 0
M  V30 6284 H 609.709 1.93295 -5.79197 0
M  V30 6285 H 611.123 -0.337444 -5.72306 0
M  V30 6286 H 609.52 -1.10914 -5.89761 0
M  V30 6287 H 610.59 -1.60745 -4.57481 0
M  V30 6288 N 611.933 1.52934 -0.380664 0
M  V30 6289 C 613.158 2.06363 0.207157 0
M  V30 6290 C 613.583 1.25122 1.4045 0
M  V30 6291 O 612.941 0.274062 1.79217 0
M  V30 6292 C 612.989 3.56162 0.563996 0
M  V30 6293 O 612.093 3.77552 1.65917 0
M  V30 6294 H 611.434 0.663468 0.0265859 0
M  V30 6295 H 613.964 1.9719 -0.545635 0
M  V30 6296 H 613.974 3.99453 0.830752 0
M  V30 6297 H 612.649 4.14732 -0.311427 0
M  V30 6298 H 611.226 3.46154 1.3868 0
M  V30 6299 N 613.412 0.11024 1.57214 0
M  V30 6300 C 614.36 -0.860586 2.16094 0
M  V30 6301 C 615.354 -1.28156 1.1078 0
M  V30 6302 O 616.56 -1.25433 1.29099 0
M  V30 6303 H 612.935 -0.295606 0.691463 0
M  V30 6304 H 614.906 -0.33942 2.96463 0
M  V30 6305 C 613.655 -2.10421 2.768 0
M  V30 6306 H 612.978 -1.7892 3.5753 0
M  V30 6307 H 614.418 -2.76375 3.21547 0
M  V30 6308 C 612.877 -2.88823 1.73444 0
M  V30 6309 O 613.407 -3.839 1.18251 0
M  V30 6310 N 611.613 -2.52649 1.43586 0
M  V30 6311 H 611.16 -1.754 1.8866 0
M  V30 6312 H 611.118 -3.05403 0.746735 0
M  V30 6313 N 614.89 -1.56749 -0.16351 0
M  V30 6314 C 616.139 -1.81626 -0.877211 0
M  V30 6315 C 616.452 -0.688791 -1.83071 0
M  V30 6316 O 617.658 -0.822697 -2.58735 0
M  V30 6317 C 616.114 -3.21858 -1.61045 0
M  V30 6318 C 615.722 -4.42494 -0.700195 0
M  V30 6319 C 617.466 -3.56021 -2.31192 0
M  V30 6320 C 615.373 -5.73748 -1.43412 0
M  V30 6321 H 614.303 -0.67731 -0.331312 0
M  V30 6322 H 616.954 -1.83039 -0.13006 0
M  V30 6323 H 615.336 -3.14784 -2.40264 0
M  V30 6324 H 616.51 -4.60766 0.0555849 0
M  V30 6325 H 614.825 -4.1626 -0.10799 0
M  V30 6326 H 617.422 -4.51333 -2.8671 0
M  V30 6327 H 617.765 -2.81277 -3.06902 0
M  V30 6328 H 618.298 -3.64682 -1.58909 0
M  V30 6329 H 615.037 -6.51543 -0.719186 0
M  V30 6330 H 614.557 -5.5944 -2.16302 0
M  V30 6331 H 616.236 -6.15975 -1.9795 0
M  V30 6332 O 616.407 0.308401 -1.58528 0
M  V30 6333 H 617.098 0.955962 -1.68467 0
M  V30 END ATOM
M  V30 BEGIN BOND
M  V30 END BOND
M  V30 END CTAB
M  END
$$$$
