drugbank_target|P0CI79 Thymidylate synthase 1 (DB03761)
 OpenBabel12092120593D

  0  0  0     0  0            999 V3000
M  V30 BEGIN CTAB
M  V30 COUNTS 4564 4622 0 0 0
M  V30 BEGIN ATOM
M  V30 1 H -0.908 1.98254 -0.117106 0
M  V30 2 N 0 1.576 0 0
M  V30 3 C 0.933 2.03868 1.02534 0
M  V30 4 C 1.911 0.928543 1.3348 0
M  V30 5 O 3.095 1.19667 1.45644 0
M  V30 6 C 0.222 2.43627 2.35294 0
M  V30 7 C -0.732 3.65373 2.2001 0
M  V30 8 S 0.101 5.13292 1.52614 0
M  V30 9 C 1.257 5.56322 2.86805 0
M  V30 10 H 1.49 2.90518 0.631377 0
M  V30 11 H -0.977 1.52953 0.210867 0
M  V30 12 H 0.981 2.67203 3.11629 0
M  V30 13 H -0.358 1.57376 2.7183 0
M  V30 14 H -1.165 3.90944 3.18086 0
M  V30 15 H -1.563 3.418 1.51819 0
M  V30 16 H 0.729 5.58782 3.83104 0
M  V30 17 H 1.672 6.56266 2.65933 0
M  V30 18 H 2.08 4.83886 2.90714 0
M  V30 19 N 1.4781 -0.272755 1.55222 0
M  V30 20 C 2.7061 -1.02255 1.79865 0
M  V30 21 C 3.1211 -1.79924 0.572088 0
M  V30 22 O 2.4781 -1.76638 -0.458842 0
M  V30 23 C 2.5291 -1.98094 3.02392 0
M  V30 24 O 2.2501 -1.23572 4.20311 0
M  V30 25 C 3.7511 -2.84884 3.39641 0
M  V30 26 H 0.9711 -0.302057 0.599168 0
M  V30 27 H 3.5151 -0.303465 2.02236 0
M  V30 28 H 1.6701 -2.65465 2.82147 0
M  V30 29 H 2.0841 -1.88172 4.89583 0
M  V30 30 H 3.5581 -3.47927 4.28545 0
M  V30 31 H 4.0351 -3.54665 2.59055 0
M  V30 32 H 4.6411 -2.23003 3.62146 0
M  V30 33 N 2.9562 -1.48159 -0.537278 0
M  V30 34 C 3.8882 -1.58218 -1.65831 0
M  V30 35 C 4.9012 -0.466948 -1.5596 0
M  V30 36 O 6.0902 -0.73747 -1.62553 0
M  V30 37 C 3.1902 -1.48906 -3.04434 0
M  V30 38 C 2.3632 -2.75343 -3.3986 0
M  V30 39 C 1.4222 -2.59588 -4.57712 0
M  V30 40 O 0.4482 -3.33457 -4.61297 0
M  V30 41 N 1.6502 -1.68724 -5.55439 0
M  V30 42 H 4.4152 -2.54891 -1.57641 0
M  V30 43 H 1.9762 -1.4479 -0.724386 0
M  V30 44 H 3.9682 -1.36072 -3.81139 0
M  V30 45 H 2.5382 -0.602368 -3.06741 0
M  V30 46 H 1.7582 -3.02795 -2.52406 0
M  V30 47 H 3.0462 -3.5924 -3.60311 0
M  V30 48 H 2.4442 -1.07898 -5.55315 0
M  V30 49 H 1.0012 -1.61832 -6.3139 0
M  V30 50 N 4.4343 0.785586 -1.36625 0
M  V30 51 C 5.6813 1.54362 -1.31067 0
M  V30 52 C 6.0093 1.94195 0.10893 0
M  V30 53 O 5.2643 1.63262 1.07908 0
M  V30 54 C 5.5633 2.83007 -2.1827 0
M  V30 55 C 5.2293 2.62294 -3.6676 0
M  V30 56 C 3.8913 2.56353 -4.0723 0
M  V30 57 C 6.2433 2.43371 -4.6089 0
M  V30 58 C 3.5713 2.29461 -5.39967 0
M  V30 59 C 5.9233 2.18005 -5.93849 0
M  V30 60 C 4.5873 2.105 -6.3344 0
M  V30 61 H 3.8573 0.564851 -0.479609 0
M  V30 62 H 6.5043 0.906028 -1.68711 0
M  V30 63 H 4.8093 3.51253 -1.73576 0
M  V30 64 H 6.5063 3.40817 -2.11292 0
M  V30 65 H 3.0963 2.67774 -3.34656 0
M  V30 66 H 7.2803 2.46959 -4.30494 0
M  V30 67 H 2.5363 2.22135 -5.69619 0
M  V30 68 H 6.7103 2.02359 -6.66351 0
M  V30 69 H 4.3373 1.89425 -7.36222 0
M  V30 70 N 5.9124 1.20967 1.01018 0
M  V30 71 C 7.1894 0.93264 1.71934 0
M  V30 72 C 7.5694 -0.55692 2.03621 0
M  V30 73 O 6.9174 -1.52035 1.7058 0
M  V30 74 C 7.1274 1.81233 2.98254 0
M  V30 75 C 8.4754 2.05804 3.71389 0
M  V30 76 O 9.4994 1.78539 3.08225 0
M  V30 77 O 8.3584 2.51888 4.84989 0
M  V30 78 H 5.4524 0.349272 0.749625 0
M  V30 79 H 7.9984 1.31871 1.06808 0
M  V30 80 H 6.7704 2.82067 2.71208 0
M  V30 81 H 6.3934 1.42674 3.7112 0
M  V30 82 N 7.3905 -1.2043 1.01659 0
M  V30 83 C 8.3375 -2.23215 0.586822 0
M  V30 84 C 9.3075 -1.61382 -0.393085 0
M  V30 85 O 10.4925 -1.88544 -0.292525 0
M  V30 86 C 7.6325 -3.45032 -0.0687464 0
M  V30 87 C 6.7455 -4.21296 0.955724 0
M  V30 88 C 5.8805 -5.30507 0.271208 0
M  V30 89 C 4.9195 -5.98515 1.28244 0
M  V30 90 N 4.0565 -6.99316 0.62459 0
M  V30 91 H 8.8965 -2.59336 1.46796 0
M  V30 92 H 6.4335 -1.27431 0.734836 0
M  V30 93 H 8.3915 -4.1459 -0.465965 0
M  V30 94 H 7.0215 -3.09604 -0.913529 0
M  V30 95 H 6.0735 -3.50803 1.4711 0
M  V30 96 H 7.3855 -4.6803 1.72479 0
M  V30 97 H 6.5395 -6.06428 -0.18151 0
M  V30 98 H 5.2785 -4.8481 -0.530163 0
M  V30 99 H 4.2835 -5.21355 1.74554 0
M  V30 100 H 5.5085 -6.46298 2.08509 0
M  V30 101 H 3.4545 -6.55812 -0.156914 0
M  V30 102 H 3.3715 -7.44178 1.33172 0
M  V30 103 H 4.6395 -7.79255 0.195462 0
M  V30 104 N 8.8686 -0.792821 -1.36206 0
M  V30 105 C 9.8006 -0.151469 -2.28699 0
M  V30 106 C 10.8136 0.641262 -1.49638 0
M  V30 107 O 12.0026 0.475885 -1.72039 0
M  V30 108 C 9.1026 0.808424 -3.29117 0
M  V30 109 C 8.2756 0.0650202 -4.37352 0
M  V30 110 C 7.3346 0.941358 -5.17711 0
M  V30 111 O 6.3606 0.397352 -5.67811 0
M  V30 112 N 7.5626 2.2652 -5.3448 0
M  V30 113 H 10.3276 -0.945982 -2.84379 0
M  V30 114 H 7.8886 -0.647032 -1.48409 0
M  V30 115 H 9.8806 1.3986 -3.79765 0
M  V30 116 H 8.4506 1.5038 -2.74052 0
M  V30 117 H 7.6706 -0.706255 -3.87822 0
M  V30 118 H 8.9586 -0.447847 -5.06825 0
M  V30 119 H 8.3566 2.73128 -4.95396 0
M  V30 120 H 6.9136 2.80493 -5.88359 0
M  V30 121 N 10.3467 1.47872 -0.545128 0
M  V30 122 C 11.5767 2.06589 -0.0210534 0
M  V30 123 C 11.9847 1.39997 1.27269 0
M  V30 124 O 11.3277 0.486421 1.77143 0
M  V30 125 C 11.3897 3.58574 0.257933 0
M  V30 126 C 11.0537 4.47132 -0.944573 0
M  V30 127 C 12.0507 4.85986 -1.84699 0
M  V30 128 C 9.7357 4.88821 -1.15584 0
M  V30 129 C 11.7297 5.65314 -2.94446 0
M  V30 130 C 9.4167 5.67916 -2.25642 0
M  V30 131 C 10.4147 6.06073 -3.14905 0
M  V30 132 O 10.1027 6.83578 -4.23057 0
M  V30 133 H 9.8347 0.674971 -0.0372899 0
M  V30 134 H 12.3887 1.91037 -0.754599 0
M  V30 135 H 10.6187 3.72295 1.04564 0
M  V30 136 H 12.3077 3.99356 0.72592 0
M  V30 137 H 13.0737 4.54388 -1.69577 0
M  V30 138 H 8.9527 4.58595 -0.470279 0
M  V30 139 H 12.4967 5.95016 -3.64145 0
M  V30 140 H 8.3937 5.98927 -2.40742 0
M  V30 141 H 9.1617 7.01954 -4.20954 0
M  V30 142 N 11.8248 0.280983 1.55075 0
M  V30 143 C 12.7728 -0.619864 2.24188 0
M  V30 144 C 13.7668 -1.15315 1.24092 0
M  V30 145 O 14.9728 -1.1061 1.42005 0
M  V30 146 H 11.3478 -0.218459 0.719569 0
M  V30 147 H 13.3188 -0.0141831 2.98397 0
M  V30 148 C 12.0678 -1.7899 2.98091 0
M  V30 149 H 11.3908 -1.38874 3.74905 0
M  V30 150 H 12.8308 -2.39672 3.49762 0
M  V30 151 C 11.2898 -2.68192 2.03899 0
M  V30 152 O 11.8198 -3.6872 1.594 0
M  V30 153 N 10.0258 -2.35488 1.70275 0
M  V30 154 H 9.5728 -1.53787 2.06658 0
M  V30 155 H 9.5308 -2.95442 1.07524 0
M  V30 156 N 13.3029 -1.57598 0.00835791 0
M  V30 157 C 14.5279 -1.95617 -0.689103 0
M  V30 158 C 14.9529 -0.883753 -1.66046 0
M  V30 159 O 14.3109 0.157352 -1.80616 0
M  V30 160 C 14.3589 -3.32736 -1.38994 0
M  V30 161 O 13.4629 -3.27631 -2.50463 0
M  V30 162 H 12.8039 -0.638379 -0.182668 0
M  V30 163 H 15.3339 -2.045 0.064036 0
M  V30 164 H 15.3439 -3.68494 -1.75147 0
M  V30 165 H 14.0189 -4.1034 -0.677778 0
M  V30 166 H 12.5959 -3.03561 -2.16576 0
M  V30 167 N 14.781 0.264519 -1.55364 0
M  V30 168 C 16.03 0.992812 -1.75574 0
M  V30 169 C 16.343 1.87142 -0.568979 0
M  V30 170 O 17.549 2.63513 -0.653682 0
M  V30 171 C 16.005 1.81519 -3.10771 0
M  V30 172 C 15.613 0.984839 -4.37041 0
M  V30 173 C 17.357 2.53727 -3.40327 0
M  V30 174 C 15.264 1.80209 -5.63275 0
M  V30 175 H 14.194 0.374412 -0.65447 0
M  V30 176 H 16.845 0.248138 -1.81815 0
M  V30 177 H 15.227 2.60115 -2.98591 0
M  V30 178 H 16.401 0.242455 -4.60162 0
M  V30 179 H 14.716 0.37691 -4.14691 0
M  V30 180 H 17.313 3.15292 -4.3185 0
M  V30 181 H 17.656 3.24447 -2.60845 0
M  V30 182 H 18.189 1.82156 -3.53644 0
M  V30 183 H 14.928 1.13896 -6.45529 0
M  V30 184 H 14.448 2.52022 -5.44284 0
M  V30 185 H 16.127 2.37364 -6.01887 0
M  V30 186 N 16.2591 1.48442 0.529413 0
M  V30 187 C 17.5081 1.55742 1.28169 0
M  V30 188 C 17.8211 0.236511 1.94165 0
M  V30 189 O 19.0271 0.187761 2.7085 0
M  V30 190 C 17.4831 2.74667 2.32564 0
M  V30 191 C 17.0911 4.13402 1.72636 0
M  V30 192 C 18.8351 2.9128 3.08798 0
M  V30 193 C 16.7421 5.23587 2.74975 0
M  V30 194 H 15.6721 0.579796 0.48203 0
M  V30 195 H 18.3231 1.74776 0.559056 0
M  V30 196 H 16.7051 2.49067 3.07866 0
M  V30 197 H 17.8791 4.49022 1.03519 0
M  V30 198 H 16.1941 4.0191 1.08892 0
M  V30 199 H 18.7911 3.70767 3.85274 0
M  V30 200 H 19.1341 2.00757 3.64695 0
M  V30 201 H 19.6671 3.16782 2.40611 0
M  V30 202 H 16.4061 6.16076 2.23897 0
M  V30 203 H 15.9261 4.92454 3.42417 0
M  V30 204 H 17.6051 5.51724 3.37949 0
M  V30 205 N 17.7372 -0.778329 1.37039 0
M  V30 206 C 18.6842 -1.89139 1.32269 0
M  V30 207 C 19.6542 -1.65017 0.189387 0
M  V30 208 O 20.8392 -1.87024 0.377693 0
M  V30 209 C 17.9792 -3.26112 1.12894 0
M  V30 210 C 17.0922 -3.62233 2.35396 0
M  V30 211 C 16.2272 -4.8838 2.08946 0
M  V30 212 C 15.2662 -5.17212 3.2735 0
M  V30 213 N 14.4032 -6.34546 3.00492 0
M  V30 214 H 19.2432 -1.92552 2.27437 0
M  V30 215 H 16.7802 -0.941473 1.13025 0
M  V30 216 H 18.7382 -4.05116 0.996835 0
M  V30 217 H 17.3682 -3.22091 0.213758 0
M  V30 218 H 16.4202 -2.78265 2.5937 0
M  V30 219 H 17.7322 -3.79481 3.23721 0
M  V30 220 H 16.8862 -5.75274 1.92729 0
M  V30 221 H 15.6252 -4.73222 1.17949 0
M  V30 222 H 14.6302 -4.28796 3.44113 0
M  V30 223 H 15.8552 -5.34283 4.19188 0
M  V30 224 H 13.8012 -6.20759 2.12118 0
M  V30 225 H 13.7182 -6.52179 3.82358 0
M  V30 226 H 14.9862 -7.24394 2.87879 0
M  V30 227 N 19.2153 -1.21501 -1.00376 0
M  V30 228 C 20.4923 -0.941745 -1.71437 0
M  V30 229 C 20.8723 0.546114 -2.03914 0
M  V30 230 O 20.2203 1.51128 -1.71384 0
M  V30 231 C 20.4303 -1.82812 -2.97289 0
M  V30 232 C 21.7783 -2.07771 -3.70292 0
M  V30 233 O 22.8023 -1.80171 -3.07273 0
M  V30 234 O 21.6613 -2.54456 -4.83647 0
M  V30 235 H 18.7553 -0.353243 -0.747762 0
M  V30 236 H 21.3013 -1.32436 -1.06108 0
M  V30 237 H 20.0733 -2.83501 -2.69709 0
M  V30 238 H 19.6963 -1.4464 -3.70358 0
M  V30 239 N 20.6934 1.19889 -1.02296 0
M  V30 240 C 21.9424 1.88743 -0.711257 0
M  V30 241 C 22.2554 1.80112 0.762817 0
M  V30 242 O 23.4614 2.44161 1.18733 0
M  V30 243 C 21.9174 3.38525 -1.22185 0
M  V30 244 C 21.5254 3.55727 -2.72328 0
M  V30 245 C 23.2694 4.12893 -0.985864 0
M  V30 246 C 21.1764 4.99369 -3.16835 0
M  V30 247 H 20.1064 0.706885 -0.262353 0
M  V30 248 H 22.7574 1.35586 -1.23648 0
M  V30 249 H 21.1394 3.91044 -0.624571 0
M  V30 250 H 22.3134 3.13564 -3.3766 0
M  V30 251 H 20.6284 2.94739 -2.9414 0
M  V30 252 H 23.2254 5.18813 -1.29374 0
M  V30 253 H 23.5684 4.16228 0.0775055 0
M  V30 254 H 24.1014 3.66494 -1.54684 0
M  V30 255 H 20.8404 5.01193 -4.22476 0
M  V30 256 H 20.3604 5.42317 -2.56228 0
M  V30 257 H 22.0394 5.67988 -3.09837 0
M  V30 258 N 22.1715 0.800033 1.35784 0
M  V30 259 C 23.4205 0.37387 1.98205 0
M  V30 260 C 23.7335 -1.06302 1.64193 0
M  V30 261 O 24.9395 -1.59198 2.19928 0
M  V30 262 C 23.3955 0.617532 3.54562 0
M  V30 263 C 23.0035 2.06654 3.9749 0
M  V30 264 C 24.7475 0.256401 4.23725 0
M  V30 265 C 22.6545 2.2563 5.46667 0
M  V30 266 H 21.5845 0.136055 0.741623 0
M  V30 267 H 24.2355 0.983166 1.54939 0
M  V30 268 H 22.6175 -0.0616248 3.95952 0
M  V30 269 H 23.7915 2.78296 3.67271 0
M  V30 270 H 22.1065 2.38691 3.41197 0
M  V30 271 H 24.7035 0.376318 5.33374 0
M  V30 272 H 25.0465 -0.796692 4.08606 0
M  V30 273 H 25.5795 0.889214 3.87734 0
M  V30 274 H 22.3185 3.2936 5.66747 0
M  V30 275 H 21.8385 1.58504 5.78478 0
M  V30 276 H 23.5175 2.06861 6.1304 0
M  V30 277 N 23.6496 -1.47581 0.552962 0
M  V30 278 C 24.5976 -2.31648 -0.21023 0
M  V30 279 C 25.5916 -1.42663 -0.913432 0
M  V30 280 O 26.7976 -1.5945 -0.835201 0
M  V30 281 H 23.1726 -0.746989 -0.0866676 0
M  V30 282 H 25.1436 -2.93869 0.518051 0
M  V30 283 C 23.8926 -3.25226 -1.22976 0
M  V30 284 H 23.2156 -3.93658 -0.698077 0
M  V30 285 H 24.6556 -3.86889 -1.73473 0
M  V30 286 C 23.1146 -2.48448 -2.27542 0
M  V30 287 O 23.6446 -2.22585 -3.34393 0
M  V30 288 N 21.8506 -2.09532 -2.01357 0
M  V30 289 H 21.3976 -2.30765 -1.14478 0
M  V30 290 H 21.3556 -1.58476 -2.71538 0
M  V30 291 N 25.1277 -0.289203 -1.54924 0
M  V30 292 C 26.0757 0.607966 -2.24514 0
M  V30 293 C 27.0697 1.14655 -1.24702 0
M  V30 294 O 28.2757 1.09856 -1.4259 0
M  V30 295 H 24.6507 0.21464 -0.720718 0
M  V30 296 H 26.6217 -0.00164182 -2.984 0
M  V30 297 C 25.3707 1.77406 -2.99036 0
M  V30 298 H 24.6937 1.36884 -3.75637 0
M  V30 299 H 26.1337 2.37814 -3.51028 0
M  V30 300 C 24.5927 2.67107 -2.05318 0
M  V30 301 O 25.1227 3.6787 -1.61353 0
M  V30 302 N 23.3287 2.34582 -1.71521 0
M  V30 303 H 22.8757 1.52688 -2.07471 0
M  V30 304 H 22.8337 2.94867 -1.0909 0
M  V30 305 N 26.6058 1.57591 -0.0167156 0
M  V30 306 C 27.8538 1.90906 0.663285 0
M  V30 307 C 28.1748 0.892509 1.73376 0
M  V30 308 O 27.4448 -0.0677623 1.95783 0
M  V30 309 H 26.0248 0.704637 0.247983 0
M  V30 310 H 28.6868 1.94803 -0.0615909 0
M  V30 311 H 27.7828 2.9116 1.12393 0
M  V30 312 N 28.0839 -0.256276 1.55502 0
M  V30 313 C 29.3329 -0.983486 1.76098 0
M  V30 314 C 29.6459 -1.86837 0.578896 0
M  V30 315 O 30.8519 -2.63163 0.667648 0
M  V30 316 C 29.3079 -1.79868 3.1173 0
M  V30 317 C 28.9159 -0.961648 4.37557 0
M  V30 318 C 30.6599 -2.51919 3.41668 0
M  V30 319 C 28.5669 -1.77219 5.64223 0
M  V30 320 H 27.4969 -0.370936 0.656447 0
M  V30 321 H 30.1479 -0.238492 1.81944 0
M  V30 322 H 28.5299 -2.58527 2.99966 0
M  V30 323 H 29.7039 -0.218048 4.60284 0
M  V30 324 H 28.0189 -0.354913 4.14885 0
M  V30 325 H 30.6159 -3.12998 4.33516 0
M  V30 326 H 30.9589 -3.23059 2.62562 0
M  V30 327 H 31.4919 -1.80278 3.54605 0
M  V30 328 H 28.2309 -1.10471 6.46124 0
M  V30 329 H 27.7509 -2.49132 5.45613 0
M  V30 330 H 29.4299 -2.34169 6.03137 0
M  V30 331 N 29.562 -1.4872 -0.521534 0
M  V30 332 C 30.787 -1.61101 -1.30618 0
M  V30 333 C 31.212 -0.274611 -1.86085 0
M  V30 334 O 30.57 0.754937 -1.64834 0
M  V30 335 C 30.618 -2.66709 -2.4269 0
M  V30 336 O 29.722 -2.24456 -3.45967 0
M  V30 337 H 29.063 -0.539921 -0.386499 0
M  V30 338 H 31.593 -1.94767 -0.626645 0
M  V30 339 H 31.603 -2.88245 -2.88754 0
M  V30 340 H 30.278 -3.63727 -2.01682 0
M  V30 341 H 28.855 -2.13168 -3.05964 0
M  V30 342 N 31.0401 0.771051 -1.3745 0
M  V30 343 C 32.3171 1.519 -1.23231 0
M  V30 344 C 32.6971 2.10383 0.173809 0
M  V30 345 O 32.0451 1.95583 1.18151 0
M  V30 346 C 32.2551 2.59933 -2.32886 0
M  V30 347 C 33.6031 3.27316 -2.70461 0
M  V30 348 O 34.6271 2.70228 -2.32068 0
M  V30 349 O 33.4861 4.30531 -3.36608 0
M  V30 350 H 30.5801 0.672803 -0.480901 0
M  V30 351 H 33.1261 0.807957 -1.49232 0
M  V30 352 H 31.8981 2.14842 -3.27045 0
M  V30 353 H 31.5211 3.38637 -2.08353 0
M  V30 354 N 32.5182 1.22032 0.997298 0
M  V30 355 C 33.4282 1.00271 2.12092 0
M  V30 356 C 34.4442 -0.047621 1.73935 0
M  V30 357 O 35.6202 0.144136 2.00884 0
M  V30 358 C 32.6852 0.578449 3.4184 0
M  V30 359 C 31.7462 1.70189 3.94125 0
M  V30 360 C 30.9792 1.29778 5.17681 0
M  V30 361 O 31.2022 0.174676 5.70132 0
M  V30 362 O 30.1362 2.11261 5.63607 0
M  V30 363 H 33.9622 1.94398 2.3333 0
M  V30 364 H 31.5472 1.00587 1.10465 0
M  V30 365 H 33.4292 0.351998 4.19927 0
M  V30 366 H 32.1042 -0.334019 3.21972 0
M  V30 367 H 31.0112 1.98282 3.1723 0
M  V30 368 H 32.3442 2.59206 4.18417 0
M  V30 369 N 33.9963 -1.19345 1.0293 0
M  V30 370 C 34.9063 -2.26245 0.620515 0
M  V30 371 C 35.9223 -1.70486 -0.347928 0
M  V30 372 O 37.0983 -2.00347 -0.205704 0
M  V30 373 C 34.1633 -3.46693 -0.0218957 0
M  V30 374 C 33.2243 -4.17632 0.994102 0
M  V30 375 C 32.4573 -5.32329 0.382253 0
M  V30 376 O 32.6803 -5.64552 -0.814676 0
M  V30 377 O 31.6143 -5.91664 1.10531 0
M  V30 378 H 35.4403 -2.63453 1.51083 0
M  V30 379 H 33.0253 -1.26207 0.799513 0
M  V30 380 H 34.9073 -4.19683 -0.380072 0
M  V30 381 H 33.5823 -3.11333 -0.886209 0
M  V30 382 H 32.4893 -3.4676 1.40387 0
M  V30 383 H 33.8223 -4.56964 1.8288 0
M  V30 384 N 35.4744 -0.807222 -1.35358 0
M  V30 385 C 36.7214 -0.387888 -1.9875 0
M  V30 386 C 37.0494 1.04509 -1.64037 0
M  V30 387 O 36.3044 1.73986 -0.895946 0
M  V30 388 C 36.6034 -0.519036 -3.53611 0
M  V30 389 C 36.2694 -1.91542 -4.08194 0
M  V30 390 C 34.9314 -2.29745 -4.22813 0
M  V30 391 C 37.2834 -2.82896 -4.37744 0
M  V30 392 C 34.6114 -3.58668 -4.643 0
M  V30 393 C 36.9634 -4.11265 -4.8067 0
M  V30 394 C 35.6274 -4.49466 -4.93494 0
M  V30 395 H 34.8974 -0.141938 -0.727279 0
M  V30 396 H 37.5444 -1.02814 -1.6156 0
M  V30 397 H 35.8494 0.204658 -3.91265 0
M  V30 398 H 37.5464 -0.175345 -4.00616 0
M  V30 399 H 34.1364 -1.60862 -3.97268 0
M  V30 400 H 38.3204 -2.54629 -4.26002 0
M  V30 401 H 33.5764 -3.88113 -4.72418 0
M  V30 402 H 37.7504 -4.82153 -5.02496 0
M  V30 403 H 35.3774 -5.49418 -5.25399 0
M  V30 404 N 36.9525 1.47285 -0.560781 0
M  V30 405 C 38.2295 1.9558 0.0277798 0
M  V30 406 C 38.6095 1.5034 1.48192 0
M  V30 407 O 37.9575 0.743882 2.16052 0
M  V30 408 C 38.1675 3.48789 -0.121418 0
M  V30 409 C 39.5155 4.24594 0.0220912 0
M  V30 410 O 40.5395 3.56166 -0.0491439 0
M  V30 411 O 39.3985 5.46217 0.175958 0
M  V30 412 H 36.4925 0.824663 0.0621342 0
M  V30 413 H 39.0385 1.5767 -0.627556 0
M  V30 414 H 37.8105 3.74533 -1.13316 0
M  V30 415 H 37.4335 3.93473 0.571366 0
M  V30 416 N 38.4306 0.297415 1.54768 0
M  V30 417 C 39.6766 -0.313376 2.00364 0
M  V30 418 C 40.0096 -1.53815 1.18553 0
M  V30 419 O 39.2846 -1.92739 0.261103 0
M  V30 420 C 39.5676 -0.673525 3.53745 0
M  V30 421 C 39.4206 0.560133 4.46299 0
M  V30 422 C 40.7396 -1.50143 4.13697 0
M  V30 423 H 37.8586 -0.112428 0.728374 0
M  V30 424 H 40.5006 0.4088 1.8555 0
M  V30 425 H 38.6506 -1.28881 3.665 0
M  V30 426 H 40.3226 1.19863 4.45455 0
M  V30 427 H 38.5656 1.19405 4.17043 0
M  V30 428 H 39.2366 0.26405 5.51368 0
M  V30 429 H 41.7126 -0.981588 4.04356 0
M  V30 430 H 40.5886 -1.72221 5.21182 0
M  V30 431 H 40.8496 -2.48952 3.65343 0
M  V30 432 N 39.9087 -1.5758 0.0250728 0
M  V30 433 C 41.3247 -1.56124 -0.331282 0
M  V30 434 C 41.5247 -1.03029 -1.73169 0
M  V30 435 O 40.5807 -0.675215 -2.43305 0
M  V30 436 C 41.8937 -3.00139 -0.183584 0
M  V30 437 C 43.4417 -3.11946 -0.256654 0
M  V30 438 C 43.9167 -4.57793 -0.137792 0
M  V30 439 N 45.4077 -4.6279 -0.194904 0
M  V30 440 C 46.1427 -5.7326 -0.126655 0
M  V30 441 N 45.6387 -6.928 -0.00755288 0
M  V30 442 N 47.4317 -5.61811 -0.180348 0
M  V30 443 H 39.5827 -1.90424 0.94087 0
M  V30 444 H 41.8457 -0.875761 0.362968 0
M  V30 445 H 41.5517 -3.4292 0.780927 0
M  V30 446 H 41.4257 -3.64899 -0.955448 0
M  V30 447 H 43.8127 -2.69079 -1.21162 0
M  V30 448 H 43.8937 -2.49915 0.545517 0
M  V30 449 H 43.5377 -5.01339 0.813739 0
M  V30 450 H 43.4677 -5.17798 -0.958775 0
M  V30 451 H 45.9587 -3.76807 -0.287267 0
M  V30 452 H 46.2717 -7.72791 0.0379428 0
M  V30 453 H 44.6167 -6.94995 0.0271731 0
M  V30 454 H 47.8077 -4.6731 -0.271767 0
M  V30 455 H 47.9807 -6.47882 -0.123697 0
M  V30 456 N 41.3868 0.248026 -1.55636 0
M  V30 457 C 42.6148 0.993808 -1.81469 0
M  V30 458 C 43.0298 1.78991 -0.60064 0
M  V30 459 O 42.3868 1.77345 0.430682 0
M  V30 460 C 42.4378 1.93258 -3.05506 0
M  V30 461 O 42.1588 1.16869 -4.22224 0
M  V30 462 C 43.6598 2.79444 -3.4413 0
M  V30 463 H 40.8798 0.292486 -0.603898 0
M  V30 464 H 43.4238 0.271253 -2.02693 0
M  V30 465 H 41.5788 2.60943 -2.86335 0
M  V30 466 H 41.9928 1.80359 -4.92515 0
M  V30 467 H 43.4668 3.41066 -4.34026 0
M  V30 468 H 43.9438 3.50499 -2.64665 0
M  V30 469 H 44.5498 2.17214 -3.65648 0
M  V30 470 N 42.8649 1.48995 0.513639 0
M  V30 471 C 43.8119 1.6473 1.61656 0
M  V30 472 C 44.7819 0.488984 1.58739 0
M  V30 473 O 45.9669 0.714478 1.76918 0
M  V30 474 C 43.1069 1.7082 2.99858 0
M  V30 475 C 42.2199 2.9787 3.12885 0
M  V30 476 C 41.3549 2.95017 4.41744 0
M  V30 477 C 40.3939 4.16702 4.48359 0
M  V30 478 N 39.5309 4.11832 5.68629 0
M  V30 479 H 44.3709 2.58909 1.47547 0
M  V30 480 H 41.9079 1.28382 0.71808 0
M  V30 481 H 43.8659 1.72331 3.79944 0
M  V30 482 H 42.4959 0.801181 3.12699 0
M  V30 483 H 41.5479 3.06029 2.25944 0
M  V30 484 H 42.8599 3.8786 3.13633 0
M  V30 485 H 42.0139 2.95021 5.30139 0
M  V30 486 H 40.7529 2.02784 4.43542 0
M  V30 487 H 39.7579 4.16955 3.58369 0
M  V30 488 H 40.9829 5.10113 4.48287 0
M  V30 489 H 38.9289 3.22428 5.71293 0
M  V30 490 H 38.8459 4.95543 5.7094 0
M  V30 491 H 40.1139 4.1592 6.59266 0
M  V30 492 N 44.343 -0.763751 1.37857 0
M  V30 493 C 45.589 -1.52396 1.3471 0
M  V30 494 C 45.944 -1.92288 -0.0656435 0
M  V30 495 O 45.237 -1.6181 -1.02606 0
M  V30 496 C 45.431 -2.79499 2.22745 0
M  V30 497 C 45.26 -2.52031 3.72438 0
M  V30 498 C 44.03 -2.45759 4.4151 0
M  V30 499 C 46.228 -2.19489 4.65112 0
M  V30 500 N 44.21 -2.1046 5.76697 0
M  V30 501 C 45.581 -1.94396 5.88736 0
M  V30 502 C 47.636 -2.05712 4.53417 0
M  V30 503 C 46.339 -1.56917 7.01975 0
M  V30 504 C 48.365 -1.69634 5.66549 0
M  V30 505 C 47.727 -1.45407 6.89229 0
M  V30 506 H 43.826 -0.55765 0.548225 0
M  V30 507 H 46.41 -0.890302 1.73152 0
M  V30 508 H 44.581 -3.4069 1.86507 0
M  V30 509 H 46.313 -3.45465 2.10798 0
M  V30 510 H 43.068 -2.61885 3.94605 0
M  V30 511 H 43.492 -1.95484 6.48163 0
M  V30 512 H 48.134 -2.23123 3.59133 0
M  V30 513 H 45.852 -1.38246 7.96187 0
M  V30 514 H 49.438 -1.59621 5.59475 0
M  V30 515 H 48.318 -1.17904 7.75286 0
M  V30 516 N 45.8211 -1.22559 -0.990812 0
M  V30 517 C 47.0981 -0.959875 -1.70428 0
M  V30 518 C 47.4781 0.524455 -2.04481 0
M  V30 519 O 46.8261 1.49302 -1.72977 0
M  V30 520 C 47.0361 -1.85955 -2.95333 0
M  V30 521 C 48.3841 -2.11687 -3.68068 0
M  V30 522 O 49.4081 -1.8342 -3.05345 0
M  V30 523 O 48.2671 -2.59572 -4.80921 0
M  V30 524 H 45.3611 -0.361154 -0.743974 0
M  V30 525 H 47.9071 -1.33554 -1.04697 0
M  V30 526 H 46.6791 -2.86346 -2.66687 0
M  V30 527 H 46.3021 -1.4856 -3.68803 0
M  V30 528 N 47.2992 1.18797 -1.03562 0
M  V30 529 C 48.5242 1.9314 -0.755764 0
M  V30 530 C 48.9492 1.7537 0.68022 0
M  V30 531 O 48.3072 1.06046 1.47051 0
M  V30 532 C 48.3552 3.42747 -1.12058 0
M  V30 533 O 47.4592 4.11683 -0.243124 0
M  V30 534 H 46.8002 0.602724 -0.278604 0
M  V30 535 H 49.3302 1.50678 -1.3841 0
M  V30 536 H 49.3402 3.93437 -1.08035 0
M  V30 537 H 48.0152 3.55002 -2.16672 0
M  V30 538 H 46.5922 3.71323 -0.342539 0
M  V30 539 N 48.7773 0.814389 1.34928 0
M  V30 540 C 50.0543 0.321363 1.92942 0
M  V30 541 C 50.4343 -1.19014 1.74353 0
M  V30 542 O 49.7823 -1.99328 1.11716 0
M  V30 543 C 49.9923 0.741323 3.41036 0
M  V30 544 C 51.3403 0.735266 4.18185 0
M  V30 545 O 52.3643 0.68336 3.49584 0
M  V30 546 O 51.2233 0.800703 5.40602 0
M  V30 547 H 48.3173 0.0858893 0.822528 0
M  V30 548 H 50.8633 0.898609 1.43955 0
M  V30 549 H 49.6353 1.78276 3.4833 0
M  V30 550 H 49.2583 0.139307 3.97356 0
M  V30 551 N 50.2554 -1.46986 0.568584 0
M  V30 552 C 51.5034 -2.02041 0.0487022 0
M  V30 553 C 51.8244 -1.44408 -1.31039 0
M  V30 554 O 51.0944 -0.623477 -1.85714 0
M  V30 555 H 49.6744 -0.746849 0.015014 0
M  V30 556 H 52.3364 -1.80257 0.741168 0
M  V30 557 H 51.4324 -3.12085 -0.0308961 0
M  V30 558 N 51.7335 -0.305618 -1.54608 0
M  V30 559 C 52.9615 0.304775 -2.04643 0
M  V30 560 C 53.3765 1.47167 -1.18268 0
M  V30 561 O 52.7335 1.81296 -0.209328 0
M  V30 562 C 52.7845 0.756564 -3.53495 0
M  V30 563 O 52.5055 -0.36389 -4.36586 0
M  V30 564 C 54.0065 1.43163 -4.19546 0
M  V30 565 H 51.2265 0.0655481 -0.667791 0
M  V30 566 H 53.7705 -0.446592 -1.99564 0
M  V30 567 H 51.9255 1.45794 -3.58919 0
M  V30 568 H 52.3395 -0.0113121 -5.24499 0
M  V30 569 H 53.8135 1.69886 -5.25207 0
M  V30 570 H 54.2905 2.37318 -3.69563 0
M  V30 571 H 54.8965 0.773307 -4.18211 0
M  V30 572 N 53.2116 1.57565 -0.0334293 0
M  V30 573 C 54.6226 1.79746 0.504798 0
M  V30 574 C 54.9736 0.944091 1.71992 0
M  V30 575 O 54.0986 0.155694 2.15839 0
M  V30 576 C 54.6936 3.25997 0.922567 0
M  V30 577 C 53.2526 3.49159 1.40588 0
M  V30 578 C 52.3996 2.74785 0.372633 0
M  V30 579 H 55.3506 1.56565 -0.259436 0
M  V30 580 H 55.3716 3.35945 1.78666 0
M  V30 581 H 54.8836 3.88081 0.0379825 0
M  V30 582 H 52.9846 2.92332 2.31025 0
M  V30 583 H 53.0976 4.57873 1.41028 0
M  V30 584 H 51.4616 2.40391 0.841672 0
M  V30 585 H 52.2446 3.39587 -0.503559 0
M  V30 586 N 54.6897 -0.239769 1.55765 0
M  V30 587 C 55.6527 -1.28038 1.90103 0
M  V30 588 C 56.6527 -1.40723 0.778055 0
M  V30 589 O 57.8427 -1.39301 1.04599 0
M  V30 590 C 54.9747 -2.65702 2.13577 0
M  V30 591 H 56.1677 -0.988048 2.83157 0
M  V30 592 H 53.7207 -0.479382 1.48767 0
M  V30 593 H 54.4557 -3.00063 1.23015 0
M  V30 594 H 54.2407 -2.57875 2.95369 0
M  V30 595 H 55.7307 -3.40828 2.41301 0
M  V30 596 N 56.1678 -1.49265 -0.50573 0
M  V30 597 C 57.1178 -1.6198 -1.60457 0
M  V30 598 C 58.1018 -0.47568 -1.53708 0
M  V30 599 O 59.2938 -0.728392 -1.61318 0
M  V30 600 C 56.4228 -1.68526 -2.99089 0
M  V30 601 C 55.5088 -2.885 -3.10852 0
M  V30 602 N 55.8998 -4.12635 -2.92517 0
M  V30 603 C 54.1978 -2.86338 -3.41945 0
M  V30 604 C 54.8988 -4.93258 -3.08337 0
M  V30 605 N 53.8748 -4.26533 -3.37003 0
M  V30 606 H 57.6768 -2.55681 -1.44928 0
M  V30 607 H 55.1908 -1.45972 -0.711752 0
M  V30 608 H 57.1878 -1.75732 -3.78053 0
M  V30 609 H 55.8478 -0.759584 -3.1569 0
M  V30 610 H 56.8588 -4.42689 -2.68787 0
M  V30 611 H 53.5358 -2.03129 -3.64753 0
M  V30 612 H 54.9258 -6.01856 -2.98695 0
M  V30 613 N 57.6459 0.756429 -1.3826 0
M  V30 614 C 58.8739 1.54565 -1.3754 0
M  V30 615 C 59.2889 1.88767 0.0355331 0
M  V30 616 O 58.6459 1.52572 1.0014 0
M  V30 617 C 58.6969 2.84654 -2.22833 0
M  V30 618 O 58.4179 2.51912 -3.5843 0
M  V30 619 C 59.9189 3.78807 -2.30261 0
M  V30 620 H 57.1389 0.478353 -0.470553 0
M  V30 621 H 59.6829 0.936381 -1.81803 0
M  V30 622 H 57.8379 3.41965 -1.8204 0
M  V30 623 H 58.2519 3.35325 -4.03308 0
M  V30 624 H 59.7259 4.67045 -2.94233 0
M  V30 625 H 60.2029 4.19038 -1.31545 0
M  V30 626 H 60.8089 3.2742 -2.71433 0
M  V30 627 N 59.124 1.23083 0.984299 0
M  V30 628 C 60.054 1.03292 2.09411 0
M  V30 629 C 61.035 -0.048923 1.7003 0
M  V30 630 O 62.22 0.114967 1.93859 0
M  V30 631 C 59.35 0.619155 3.41736 0
M  V30 632 C 58.304 1.64791 3.95004 0
M  V30 633 C 57.63 1.0897 5.23478 0
M  V30 634 C 58.93 3.03999 4.24714 0
M  V30 635 H 60.624 1.96119 2.26225 0
M  V30 636 H 58.17 0.944344 1.08711 0
M  V30 637 H 60.123 0.467777 4.18796 0
M  V30 638 H 58.847 -0.344786 3.24775 0
M  V30 639 H 57.506 1.78721 3.20085 0
M  V30 640 H 57.154 0.11686 5.02864 0
M  V30 641 H 56.854 1.77704 5.60085 0
M  V30 642 H 58.378 0.950093 6.03163 0
M  V30 643 H 59.792 2.93393 4.92538 0
M  V30 644 H 58.189 3.69936 4.72512 0
M  V30 645 H 59.259 3.53285 3.32142 0
M  V30 646 N 60.6021 -1.18246 1.0419 0
M  V30 647 C 61.8271 -1.92736 0.765996 0
M  V30 648 C 62.2521 -1.75728 -0.67091 0
M  V30 649 O 61.6101 -1.06825 -1.46486 0
M  V30 650 C 61.6581 -3.42148 1.13875 0
M  V30 651 O 60.7621 -4.11548 0.264954 0
M  V30 652 H 60.1031 -0.601238 0.281797 0
M  V30 653 H 62.6331 -1.49942 1.39207 0
M  V30 654 H 62.6431 -3.92858 1.1012 0
M  V30 655 H 61.3181 -3.53848 2.18551 0
M  V30 656 H 59.8951 -3.71137 0.362226 0
M  V30 657 N 62.0802 -0.821533 -1.34494 0
M  V30 658 C 63.3262 -0.409552 -1.98622 0
M  V30 659 C 63.6592 1.0244 -1.64984 0
M  V30 660 O 62.9342 1.71325 -0.920758 0
M  V30 661 C 63.2172 -0.610458 -3.54888 0
M  V30 662 C 63.0702 -2.09043 -3.98273 0
M  V30 663 C 64.3892 -0.0455379 -4.40076 0
M  V30 664 H 61.5082 -0.15028 -0.721516 0
M  V30 665 H 64.1502 -1.03384 -1.59411 0
M  V30 666 H 62.3002 -0.079044 -3.8842 0
M  V30 667 H 63.9722 -2.68537 -3.75081 0
M  V30 668 H 62.2152 -2.58139 -3.48635 0
M  V30 669 H 62.8862 -2.18182 -5.07051 0
M  V30 670 H 65.3622 -0.499557 -4.1309 0
M  V30 671 H 64.2382 -0.215922 -5.48475 0
M  V30 672 H 64.4992 1.04939 -4.29465 0
M  V30 673 N 63.5583 1.46682 -0.576371 0
M  V30 674 C 64.8073 2.01619 -0.0572825 0
M  V30 675 C 65.1203 1.45417 1.30818 0
M  V30 676 O 66.3263 1.92133 1.91825 0
M  V30 677 C 64.7823 3.59863 -0.0518371 0
M  V30 678 C 64.3903 4.25059 -1.41523 0
M  V30 679 C 66.1343 4.2248 0.413639 0
M  V30 680 C 64.0413 5.75364 -1.36785 0
M  V30 681 H 62.9713 0.753794 -0.0176448 0
M  V30 682 H 65.6223 1.68481 -0.727076 0
M  V30 683 H 64.0043 3.90048 0.683994 0
M  V30 684 H 65.1783 4.06491 -2.17029 0
M  V30 685 H 63.4933 3.7451 -1.8202 0
M  V30 686 H 66.0903 5.3265 0.467779 0
M  V30 687 H 66.4333 3.90976 1.42982 0
M  V30 688 H 66.9663 3.96897 -0.267929 0
M  V30 689 H 63.7053 6.11518 -2.36063 0
M  V30 690 H 63.2253 5.96214 -0.654895 0
M  V30 691 H 64.9043 6.37955 -1.07805 0
M  V30 692 N 65.0364 0.313813 1.54444 0
M  V30 693 C 66.2614 -0.296681 2.05267 0
M  V30 694 C 66.6864 -1.45757 1.18897 0
M  V30 695 O 66.0444 -1.80239 0.195886 0
M  V30 696 C 66.0924 -0.71831 3.53373 0
M  V30 697 O 65.1964 -1.82175 3.69981 0
M  V30 698 H 64.5374 -0.0554061 0.661684 0
M  V30 699 H 67.0674 0.459387 1.99376 0
M  V30 700 H 67.0774 -1.00364 3.95463 0
M  V30 701 H 65.7524 0.130821 4.15694 0
M  V30 702 H 64.3294 -1.53598 3.39797 0
M  V30 703 N 66.5145 -1.57545 0.0417849 0
M  V30 704 C 67.4615 -2.10977 -0.935805 0
M  V30 705 C 68.4315 -1.01486 -1.31491 0
M  V30 706 O 69.6165 -1.2898 -1.40602 0
M  V30 707 C 66.7565 -2.65169 -2.2086 0
M  V30 708 C 65.8695 -3.88714 -1.88482 0
M  V30 709 C 65.0045 -4.31254 -3.1015 0
M  V30 710 C 64.0435 -5.47524 -2.7365 0
M  V30 711 N 63.1805 -5.85162 -3.87982 0
M  V30 712 H 68.0205 -2.94218 -0.473249 0
M  V30 713 H 65.5575 -1.45415 -0.221981 0
M  V30 714 H 67.5155 -2.94685 -2.95325 0
M  V30 715 H 66.1455 -1.8474 -2.64709 0
M  V30 716 H 65.1975 -3.65849 -1.04205 0
M  V30 717 H 66.5095 -4.73245 -1.57608 0
M  V30 718 H 65.6635 -4.62273 -3.92923 0
M  V30 719 H 64.4025 -3.45516 -3.44195 0
M  V30 720 H 63.4075 -5.16187 -1.89291 0
M  V30 721 H 64.6325 -6.34971 -2.40807 0
M  V30 722 H 62.5785 -5.02377 -4.21846 0
M  V30 723 H 62.4955 -6.64362 -3.60775 0
M  V30 724 H 63.7635 -6.20791 -4.71422 0
M  V30 725 N 67.9926 0.231505 -1.5589 0
M  V30 726 C 68.9246 1.31006 -1.8807 0
M  V30 727 C 69.9376 1.43539 -0.768145 0
M  V30 728 O 71.1266 1.44614 -1.04638 0
M  V30 729 C 68.2266 2.68688 -2.06543 0
M  V30 730 C 67.3996 2.78228 -3.37502 0
M  V30 731 C 66.4586 3.96857 -3.4553 0
M  V30 732 O 65.4846 3.85662 -4.18633 0
M  V30 733 N 66.6866 5.1072 -2.75944 0
M  V30 734 H 69.4516 1.03731 -2.81176 0
M  V30 735 H 67.0126 0.421573 -1.56315 0
M  V30 736 H 69.0046 3.46412 -2.09239 0
M  V30 737 H 67.5746 2.88605 -1.20109 0
M  V30 738 H 66.7946 1.87059 -3.46991 0
M  V30 739 H 68.0826 2.81564 -4.23791 0
M  V30 740 H 67.4806 5.2271 -2.16311 0
M  V30 741 H 66.0376 5.86523 -2.84314 0
M  V30 742 N 69.4707 1.49531 0.497807 0
M  V30 743 C 70.4037 1.61043 1.6168 0
M  V30 744 C 71.3817 0.459386 1.55976 0
M  V30 745 O 72.5657 0.675358 1.75986 0
M  V30 746 C 69.6927 1.56833 3.00202 0
M  V30 747 C 68.7387 2.77173 3.24156 0
M  V30 748 S 69.5717 4.38808 3.06933 0
M  V30 749 C 70.7277 4.37248 4.47845 0
M  V30 750 H 70.9607 2.55702 1.51671 0
M  V30 751 H 68.4937 1.38462 0.683201 0
M  V30 752 H 70.4517 1.55089 3.80076 0
M  V30 753 H 69.1127 0.634561 3.07623 0
M  V30 754 H 68.3057 2.70456 4.25288 0
M  V30 755 H 67.9077 2.76346 2.5201 0
M  V30 756 H 70.1997 4.09164 5.39992 0
M  V30 757 H 71.1427 5.38668 4.59612 0
M  V30 758 H 71.5507 3.67286 4.28674 0
M  V30 759 N 70.9488 -0.749086 1.3866 0
M  V30 760 C 72.3648 -1.05276 1.19955 0
M  V30 761 C 72.5648 -2.01435 0.05134 0
M  V30 762 O 71.6208 -2.45232 -0.60147 0
M  V30 763 C 72.9338 -1.62853 2.52783 0
M  V30 764 C 74.4818 -1.75002 2.59506 0
M  V30 765 C 74.9568 -2.35991 3.92521 0
M  V30 766 N 76.4478 -2.43416 3.94085 0
M  V30 767 C 77.1828 -2.91511 4.9377 0
M  V30 768 N 76.6788 -3.39608 6.03853 0
M  V30 769 N 78.4718 -2.90592 4.81157 0
M  V30 770 H 70.6228 -0.111066 2.12109 0
M  V30 771 H 72.8858 -0.111901 0.941373 0
M  V30 772 H 72.5918 -0.99664 3.37283 0
M  V30 773 H 72.4658 -2.61854 2.715 0
M  V30 774 H 74.8528 -2.37317 1.75398 0
M  V30 775 H 74.9338 -0.74693 2.44652 0
M  V30 776 H 74.5778 -1.74308 4.77053 0
M  V30 777 H 74.5078 -3.3695 4.04688 0
M  V30 778 H 76.9988 -2.09405 3.14576 0
M  V30 779 H 77.3118 -3.74775 6.75843 0
M  V30 780 H 75.6568 -3.37653 6.07466 0
M  V30 781 H 78.8478 -2.52332 3.94267 0
M  V30 782 H 79.0208 -3.27762 5.58996 0
M  V30 783 N 72.4269 -1.23603 -0.977757 0
M  V30 784 C 73.6739 -1.06971 -1.71941 0
M  V30 785 C 74.0019 0.393009 -1.90488 0
M  V30 786 O 73.2569 1.30719 -1.4564 0
M  V30 787 C 73.5559 -1.7433 -3.11999 0
M  V30 788 C 73.2219 -3.24252 -3.13323 0
M  V30 789 C 71.8839 -3.65156 -3.13392 0
M  V30 790 C 74.2359 -4.20141 -3.08433 0
M  V30 791 C 71.5639 -5.00403 -3.0629 0
M  V30 792 C 73.9159 -5.55384 -3.02873 0
M  V30 793 C 72.5799 -5.95647 -3.01265 0
M  V30 794 H 71.8499 -0.391433 -0.629175 0
M  V30 795 H 74.4969 -1.53572 -1.14403 0
M  V30 796 H 72.8019 -1.20096 -3.7294 0
M  V30 797 H 74.4989 -1.58936 -3.68158 0
M  V30 798 H 71.0889 -2.91692 -3.14029 0
M  V30 799 H 75.2729 -3.89547 -3.07517 0
M  V30 800 H 70.5289 -5.3081 -3.03399 0
M  V30 801 H 74.7029 -6.29398 -2.98046 0
M  V30 802 H 72.3299 -7.0041 -2.95516 0
M  V30 803 N 73.905 1.17692 -1.04816 0
M  V30 804 C 75.182 1.83768 -0.669963 0
M  V30 805 C 75.562 1.93232 0.849986 0
M  V30 806 O 74.91 1.46397 1.75443 0
M  V30 807 C 75.12 3.21641 -1.35455 0
M  V30 808 C 76.468 3.97592 -1.49017 0
M  V30 809 O 77.492 3.31107 -1.31326 0
M  V30 810 O 76.351 5.16729 -1.77914 0
M  V30 811 H 73.445 0.792799 -0.235368 0
M  V30 812 H 75.991 1.25021 -1.14751 0
M  V30 813 H 74.763 3.097 -2.39168 0
M  V30 814 H 74.386 3.88052 -0.866107 0
M  V30 815 N 75.3831 0.828654 1.34056 0
M  V30 816 C 76.3311 0.242973 2.31327 0
M  V30 817 C 77.3251 -0.61944 1.57668 0
M  V30 818 O 78.5311 -0.51014 1.7262 0
M  V30 819 H 74.9061 0.059834 0.749616 0
M  V30 820 H 76.8771 1.07809 2.78244 0
M  V30 821 C 75.6261 -0.575733 3.429 0
M  V30 822 H 74.9491 0.0785582 3.99723 0
M  V30 823 H 76.3891 -0.951547 4.13185 0
M  V30 824 C 74.8481 -1.75044 2.87856 0
M  V30 825 O 75.3781 -2.84882 2.83205 0
M  V30 826 N 73.5841 -1.56903 2.44602 0
M  V30 827 H 73.1311 -0.675547 2.48584 0
M  V30 828 H 73.0891 -2.35652 2.08124 0
M  V30 829 N 76.8612 -1.46375 0.584142 0
M  V30 830 C 78.0862 -2.07268 0.0740405 0
M  V30 831 C 78.5112 -1.42979 -1.22223 0
M  V30 832 O 77.8692 -0.514092 -1.73859 0
M  V30 833 C 77.9172 -3.60518 -0.0767769 0
M  V30 834 O 77.0212 -3.96533 -1.13292 0
M  V30 835 H 76.3622 -0.660961 0.0634524 0
M  V30 836 H 78.8922 -1.87991 0.807492 0
M  V30 837 H 78.9022 -4.07021 -0.282489 0
M  V30 838 H 77.5772 -4.06702 0.86986 0
M  V30 839 H 76.1542 -3.61738 -0.905553 0
M  V30 840 N 78.3393 -0.321999 -1.54275 0
M  V30 841 C 79.2493 0.553631 -2.27974 0
M  V30 842 C 80.2653 1.13054 -1.32268 0
M  V30 843 O 81.4413 1.15084 -1.6528 0
M  V30 844 C 78.5063 1.69927 -3.02201 0
M  V30 845 C 77.5673 1.15433 -4.1349 0
M  V30 846 C 76.8003 2.24537 -4.84168 0
M  V30 847 O 77.0233 3.44852 -4.5435 0
M  V30 848 O 75.9573 1.90044 -5.7111 0
M  V30 849 H 79.7833 -0.0448345 -3.03667 0
M  V30 850 H 77.3683 -0.0877418 -1.49142 0
M  V30 851 H 79.2503 2.3663 -3.48689 0
M  V30 852 H 77.9253 2.28395 -2.29385 0
M  V30 853 H 76.8323 0.452436 -3.71354 0
M  V30 854 H 78.1653 0.614805 -4.88345 0
M  V30 855 N 79.8174 1.5752 -0.0501392 0
M  V30 856 C 81.0634 1.92936 0.624798 0
M  V30 857 C 81.3964 0.928685 1.70555 0
M  V30 858 O 80.6714 -0.0454779 1.94447 0
M  V30 859 C 80.9544 3.38737 1.22185 0
M  V30 860 C 80.8074 4.49552 0.149218 0
M  V30 861 C 82.1264 3.84913 2.13378 0
M  V30 862 H 79.2454 0.701604 0.225657 0
M  V30 863 H 81.8874 1.89671 -0.111693 0
M  V30 864 H 80.0374 3.4165 1.84953 0
M  V30 865 H 81.7094 4.58768 -0.482648 0
M  V30 866 H 79.9524 4.30638 -0.522841 0
M  V30 867 H 80.6234 5.48653 0.606966 0
M  V30 868 H 83.0994 3.8387 1.60572 0
M  V30 869 H 81.9754 4.87584 2.52097 0
M  V30 870 H 82.2364 3.21611 3.03346 0
M  V30 871 N 81.2955 -0.223234 1.56011 0
M  V30 872 C 82.7065 -0.790368 1.69145 0
M  V30 873 C 83.0575 -1.85055 0.651845 0
M  V30 874 O 82.1825 -2.15498 -0.197359 0
M  V30 875 C 82.7775 -1.4404 3.06656 0
M  V30 876 C 81.3365 -1.95494 3.2165 0
M  V30 877 C 80.4835 -0.814506 2.65068 0
M  V30 878 H 83.4345 0.00139011 1.587 0
M  V30 879 H 83.4555 -2.30916 3.0242 0
M  V30 880 H 82.9675 -0.668543 3.82298 0
M  V30 881 H 81.0685 -2.75487 2.50874 0
M  V30 882 H 81.1815 -2.13607 4.28846 0
M  V30 883 H 79.5455 -1.22137 2.23505 0
M  V30 884 H 80.3285 -0.0553515 3.43255 0
M  V30 885 N 82.7736 -1.49793 -0.48987 0
M  V30 886 C 84.0226 -1.59085 -1.23995 0
M  V30 887 C 84.3356 -0.287907 -1.9347 0
M  V30 888 O 85.5416 -0.259506 -2.70257 0
M  V30 889 C 83.9976 -2.80736 -2.252 0
M  V30 890 C 83.6056 -4.17833 -1.61614 0
M  V30 891 C 85.3496 -2.99364 -3.00967 0
M  V30 892 C 83.2566 -5.30693 -2.60996 0
M  V30 893 H 82.1866 -0.592372 -0.466488 0
M  V30 894 H 84.8376 -1.76197 -0.51252 0
M  V30 895 H 83.2196 -2.57142 -3.01154 0
M  V30 896 H 84.3936 -4.51608 -0.915774 0
M  V30 897 H 82.7086 -4.04656 -0.981977 0
M  V30 898 H 85.3056 -3.80851 -3.75308 0
M  V30 899 H 85.6486 -2.10356 -3.59244 0
M  V30 900 H 86.1816 -3.2305 -2.32128 0
M  V30 901 H 82.9206 -6.21796 -2.07485 0
M  V30 902 H 82.4406 -5.01359 -3.2924 0
M  V30 903 H 84.1196 -5.6049 -3.23202 0
M  V30 904 N 84.2517 0.741722 -1.39055 0
M  V30 905 C 85.1817 1.869 -1.39966 0
M  V30 906 C 86.1627 1.6804 -0.26392 0
M  V30 907 O 87.3477 1.88458 -0.468755 0
M  V30 908 C 84.4777 3.24572 -1.23574 0
M  V30 909 C 83.4317 3.58056 -2.34477 0
M  V30 910 C 82.7577 4.94593 -2.0318 0
M  V30 911 C 84.0577 3.61716 -3.76774 0
M  V30 912 H 85.7517 1.86395 -2.34302 0
M  V30 913 H 83.2977 0.895361 -1.1278 0
M  V30 914 H 85.2507 4.031 -1.22834 0
M  V30 915 H 83.9747 3.25587 -0.257045 0
M  V30 916 H 82.6337 2.81854 -2.34423 0
M  V30 917 H 82.2817 4.92181 -1.03765 0
M  V30 918 H 81.9817 5.17964 -2.77465 0
M  V30 919 H 83.5057 5.75486 -2.04079 0
M  V30 920 H 84.9197 4.30335 -3.78794 0
M  V30 921 H 83.3167 3.96603 -4.50362 0
M  V30 922 H 84.3867 2.61672 -4.08235 0
M  V30 923 N 85.7298 1.2412 0.971189 0
M  V30 924 C 86.9578 1.10575 1.74874 0
M  V30 925 C 87.3728 -0.342017 1.85676 0
M  V30 926 O 86.7298 -1.23617 1.34258 0
M  V30 927 C 86.7808 1.73579 3.171 0
M  V30 928 O 86.5018 3.12695 3.06844 0
M  V30 929 C 88.0028 1.65598 4.11208 0
M  V30 930 H 85.2228 0.386504 0.548503 0
M  V30 931 H 87.7668 1.64156 1.21955 0
M  V30 932 H 85.9218 1.24009 3.67016 0
M  V30 933 H 86.3358 3.43412 3.96445 0
M  V30 934 H 87.8098 2.1437 5.08674 0
M  V30 935 H 88.2868 0.616532 4.34851 0
M  V30 936 H 88.8928 2.14578 3.67201 0
M  V30 937 N 87.2079 -1.17134 1.05439 0
M  V30 938 C 88.4359 -1.91372 0.786414 0
M  V30 939 C 88.8509 -1.76955 -0.658202 0
M  V30 940 O 88.2079 -1.10838 -1.44987 0
M  V30 941 C 88.2589 -3.42356 1.1608 0
M  V30 942 O 87.9799 -3.56332 2.54871 0
M  V30 943 C 89.4809 -4.33663 0.919322 0
M  V30 944 H 86.7009 -0.607118 0.285743 0
M  V30 945 H 89.2449 -1.48525 1.40572 0
M  V30 946 H 87.3999 -3.82939 0.586191 0
M  V30 947 H 87.8139 -4.49896 2.69618 0
M  V30 948 H 89.2879 -5.38099 1.231 0
M  V30 949 H 89.7649 -4.38959 -0.145359 0
M  V30 950 H 90.3709 -3.98796 1.47789 0
M  V30 951 N 88.686 -0.835752 -1.33615 0
M  V30 952 C 89.633 -0.26473 -2.29277 0
M  V30 953 C 90.603 0.617712 -1.54187 0
M  V30 954 O 91.788 0.556641 -1.825 0
M  V30 955 C 88.928 0.556777 -3.40579 0
M  V30 956 C 88.041 -0.349339 -4.30585 0
M  V30 957 C 87.176 0.482969 -5.29 0
M  V30 958 C 86.215 -0.421732 -6.10645 0
M  V30 959 N 85.352 0.372262 -7.01112 0
M  V30 960 H 90.192 -1.08582 -2.77514 0
M  V30 961 H 87.729 -0.546927 -1.36554 0
M  V30 962 H 89.687 1.04852 -4.03809 0
M  V30 963 H 88.317 1.34286 -2.93542 0
M  V30 964 H 87.369 -0.959372 -3.68104 0
M  V30 965 H 88.681 -1.04445 -4.87742 0
M  V30 966 H 87.835 1.03866 -5.97743 0
M  V30 967 H 86.574 1.21153 -4.72412 0
M  V30 968 H 85.579 -0.989464 -5.40823 0
M  V30 969 H 86.804 -1.14861 -6.69316 0
M  V30 970 H 84.75 1.08426 -6.46977 0
M  V30 971 H 84.667 -0.264198 -7.55538 0
M  V30 972 H 85.935 0.910293 -7.74167 0
M  V30 973 N 90.1641 1.46063 -0.591896 0
M  V30 974 C 91.1111 2.30399 0.136069 0
M  V30 975 C 92.0811 1.41169 0.875238 0
M  V30 976 O 93.2661 1.70112 0.86409 0
M  V30 977 C 90.4061 3.25804 1.13781 0
M  V30 978 C 89.5191 4.30134 0.401137 0
M  V30 979 C 88.6541 5.12659 1.39121 0
M  V30 980 C 87.6931 6.0873 0.641462 0
M  V30 981 N 86.8301 6.8409 1.58004 0
M  V30 982 H 91.6701 2.92118 -0.589144 0
M  V30 983 H 89.2071 1.43959 -0.302342 0
M  V30 984 H 91.1651 3.79569 1.73156 0
M  V30 985 H 89.7951 2.65872 1.83062 0
M  V30 986 H 88.8471 3.79152 -0.307826 0
M  V30 987 H 90.1591 4.98458 -0.184565 0
M  V30 988 H 89.3131 5.70747 2.05749 0
M  V30 989 H 88.0521 4.44316 2.01084 0
M  V30 990 H 87.0571 5.49786 -0.0385419 0
M  V30 991 H 88.2821 6.79095 0.0270945 0
M  V30 992 H 86.2281 6.18449 2.18761 0
M  V30 993 H 86.1451 7.48709 1.04738 0
M  V30 994 H 87.4131 7.4673 2.23639 0
M  V30 995 N 91.6422 0.330177 1.54103 0
M  V30 996 C 92.8882 -0.270806 2.00984 0
M  V30 997 C 93.2212 -1.51265 1.21789 0
M  V30 998 O 92.4962 -1.92142 0.301927 0
M  V30 999 C 92.7792 -0.598339 3.55094 0
M  V30 1000 C 92.6322 0.654674 4.4501 0
M  V30 1001 C 93.9512 -1.41334 4.16789 0
M  V30 1002 H 91.0702 -0.0969531 0.730595 0
M  V30 1003 H 93.7122 0.448066 1.84641 0
M  V30 1004 H 91.8622 -1.21078 3.69151 0
M  V30 1005 H 93.5342 1.29285 4.42813 0
M  V30 1006 H 91.7772 1.28224 4.14416 0
M  V30 1007 H 92.4482 0.380944 5.50684 0
M  V30 1008 H 94.9242 -0.895597 4.06347 0
M  V30 1009 H 93.8002 -1.61127 5.24718 0
M  V30 1010 H 94.0612 -2.41146 3.70541 0
M  V30 1011 N 93.1203 -1.57491 0.0584922 0
M  V30 1012 C 94.0833 -2.1085 -0.898617 0
M  V30 1013 C 95.0833 -1.02964 -1.23511 0
M  V30 1014 O 96.2733 -1.29007 -1.17059 0
M  V30 1015 C 93.4053 -2.59881 -2.20623 0
M  V30 1016 H 94.5983 -2.96715 -0.435936 0
M  V30 1017 H 92.1513 -1.55141 -0.190023 0
M  V30 1018 H 92.8863 -1.77431 -2.71457 0
M  V30 1019 H 92.6713 -3.38727 -1.97501 0
M  V30 1020 H 94.1613 -3.01285 -2.89166 0
M  V30 1021 N 94.5984 0.214957 -1.56127 0
M  V30 1022 C 95.8444 0.935325 -1.80619 0
M  V30 1023 C 96.1994 1.81706 -0.632507 0
M  V30 1024 O 95.4924 1.87931 0.373182 0
M  V30 1025 C 95.6864 1.80314 -3.0858 0
M  V30 1026 C 95.5154 1.00691 -4.38282 0
M  V30 1027 C 94.2854 0.699211 -5.00439 0
M  V30 1028 C 96.4834 0.369057 -5.12974 0
M  V30 1029 N 94.4654 -0.117734 -6.13787 0
M  V30 1030 C 95.8364 -0.310981 -6.1922 0
M  V30 1031 C 97.8914 0.282759 -4.97096 0
M  V30 1032 C 96.5944 -1.06907 -7.11311 0
M  V30 1033 C 98.6204 -0.461881 -5.89594 0
M  V30 1034 C 97.9824 -1.13044 -6.9527 0
M  V30 1035 H 94.0814 0.322307 -0.71249 0
M  V30 1036 H 96.6654 0.205649 -1.93611 0
M  V30 1037 H 94.8364 2.50458 -2.96859 0
M  V30 1038 H 96.5684 2.46148 -3.21237 0
M  V30 1039 H 93.3234 1.01884 -4.62511 0
M  V30 1040 H 93.7474 -0.515235 -6.75037 0
M  V30 1041 H 98.3894 0.785292 -4.15443 0
M  V30 1042 H 96.1074 -1.5831 -7.92442 0
M  V30 1043 H 99.6934 -0.529746 -5.79383 0
M  V30 1044 H 98.5734 -1.69742 -7.65609 0
M  V30 1045 N 96.0765 1.50051 0.48192 0
M  V30 1046 C 97.0235 1.68122 1.58125 0
M  V30 1047 C 97.9935 0.522545 1.57666 0
M  V30 1048 O 99.1785 0.751844 1.75362 0
M  V30 1049 C 96.3185 1.77142 2.96167 0
M  V30 1050 C 95.4315 3.0444 3.06497 0
M  V30 1051 C 94.5665 3.04321 4.35387 0
M  V30 1052 C 93.6055 4.26118 4.3942 0
M  V30 1053 N 92.7425 4.238 5.59766 0
M  V30 1054 H 97.5825 2.6198 1.42022 0
M  V30 1055 H 95.1195 1.29877 0.690687 0
M  V30 1056 H 97.0775 1.80352 3.76203 0
M  V30 1057 H 95.7075 0.867329 3.1093 0
M  V30 1058 H 94.7595 3.10752 2.19402 0
M  V30 1059 H 96.0715 3.94426 3.05336 0
M  V30 1060 H 95.2255 3.062 5.23762 0
M  V30 1061 H 93.9645 2.12147 4.39141 0
M  V30 1062 H 92.9695 4.24463 3.49444 0
M  V30 1063 H 94.1945 5.19507 4.37366 0
M  V30 1064 H 92.1405 3.34474 5.64326 0
M  V30 1065 H 92.0575 5.07542 5.60301 0
M  V30 1066 H 93.3255 4.2981 6.50295 0
M  V30 1067 N 97.5546 -0.734337 1.39446 0
M  V30 1068 C 98.7826 -1.52358 1.39981 0
M  V30 1069 C 99.1976 -1.88799 -0.0054975 0
M  V30 1070 O 98.5546 -1.54146 -0.976998 0
M  V30 1071 C 98.6056 -2.81072 2.27333 0
M  V30 1072 O 98.3266 -2.46178 3.62392 0
M  V30 1073 C 99.8276 -3.75096 2.36259 0
M  V30 1074 H 97.0476 -0.470806 0.478103 0
M  V30 1075 H 99.5916 -0.907339 1.83269 0
M  V30 1076 H 97.7466 -3.39026 1.87457 0
M  V30 1077 H 98.1606 -3.28866 4.08592 0
M  V30 1078 H 99.6346 -4.62305 3.01626 0
M  V30 1079 H 100.112 -4.16892 1.38194 0
M  V30 1080 H 100.718 -3.23061 2.76608 0
M  V30 1081 N 99.0327 -1.24633 -0.964593 0
M  V30 1082 C 99.9957 -1.0424 -2.04124 0
M  V30 1083 C 100.996 0.00137563 -1.608 0
M  V30 1084 O 102.186 -0.239883 -1.7254 0
M  V30 1085 C 99.3177 -0.580588 -3.3592 0
M  V30 1086 H 100.511 -1.99803 -2.23649 0
M  V30 1087 H 98.0637 -1.06899 -1.14027 0
M  V30 1088 H 98.7987 0.3781 -3.22088 0
M  V30 1089 H 98.5837 -1.33398 -3.6871 0
M  V30 1090 H 100.074 -0.459034 -4.15069 0
M  V30 1091 N 100.511 1.16574 -1.06058 0
M  V30 1092 C 101.76 1.86385 -0.770944 0
M  V30 1093 C 102.073 1.82448 0.705129 0
M  V30 1094 O 103.279 2.47815 1.10905 0
M  V30 1095 C 101.735 3.34466 -1.32893 0
M  V30 1096 C 101.343 3.46883 -2.83507 0
M  V30 1097 C 103.087 4.09548 -1.11672 0
M  V30 1098 C 100.994 4.89036 -3.32562 0
M  V30 1099 H 99.9238 0.698181 -0.284709 0
M  V30 1100 H 102.575 1.31583 -1.27899 0
M  V30 1101 H 100.957 3.88859 -0.748662 0
M  V30 1102 H 102.131 3.02663 -3.47465 0
M  V30 1103 H 100.446 2.85232 -3.03368 0
M  V30 1104 H 103.043 5.14434 -1.45814 0
M  V30 1105 H 103.386 4.16264 -0.0549535 0
M  V30 1106 H 103.919 3.61387 -1.66265 0
M  V30 1107 H 100.658 4.87499 -4.38207 0
M  V30 1108 H 100.178 5.3389 -2.73351 0
M  V30 1109 H 101.857 5.57843 -3.2775 0
M  V30 1110 N 101.989 0.842826 1.3317 0
M  V30 1111 C 102.936 0.276885 2.29133 0
M  V30 1112 C 103.906 -0.609527 1.54512 0
M  V30 1113 O 105.091 -0.546955 1.82792 0
M  V30 1114 C 102.231 -0.538707 3.40869 0
M  V30 1115 C 101.344 0.372169 4.30394 0
M  V30 1116 C 100.479 -0.454908 5.29249 0
M  V30 1117 C 99.5179 0.45411 6.10413 0
M  V30 1118 N 98.6549 -0.335075 7.013 0
M  V30 1119 H 103.495 1.10052 2.76934 0
M  V30 1120 H 101.032 0.554161 1.36262 0
M  V30 1121 H 102.99 -1.02709 4.0436 0
M  V30 1122 H 101.62 -1.32727 2.9425 0
M  V30 1123 H 100.672 0.97888 3.6759 0
M  V30 1124 H 101.984 1.0703 4.87182 0
M  V30 1125 H 101.138 -1.00695 5.98285 0
M  V30 1126 H 99.8769 -1.18646 4.73048 0
M  V30 1127 H 98.8819 1.01813 5.40291 0
M  V30 1128 H 100.107 1.18409 6.68697 0
M  V30 1129 H 98.0529 -1.04994 6.47543 0
M  V30 1130 H 97.9699 0.304262 7.55387 0
M  V30 1131 H 99.2379 -0.869224 7.74638 0
M  V30 1132 N 103.467 -1.45747 0.599634 0
M  V30 1133 C 104.377 -2.34262 -0.125888 0
M  V30 1134 C 105.393 -1.50768 -0.868625 0
M  V30 1135 O 106.569 -1.83592 -0.828003 0
M  V30 1136 C 103.634 -3.28252 -1.11587 0
M  V30 1137 C 102.695 -4.27651 -0.375956 0
M  V30 1138 C 101.928 -5.1715 -1.31877 0
M  V30 1139 O 102.151 -5.09916 -2.55621 0
M  V30 1140 O 101.085 -5.96286 -0.820157 0
M  V30 1141 H 104.911 -2.97688 0.601315 0
M  V30 1142 H 102.496 -1.44999 0.359934 0
M  V30 1143 H 104.378 -3.86191 -1.68626 0
M  V30 1144 H 103.053 -2.67401 -1.82424 0
M  V30 1145 H 101.96 -3.7335 0.236698 0
M  V30 1146 H 103.293 -4.91334 0.29177 0
M  V30 1147 N 104.945 -0.338344 -1.53925 0
M  V30 1148 C 105.875 0.51328 -2.27789 0
M  V30 1149 C 106.856 1.107 -1.29149 0
M  V30 1150 O 108.041 1.12937 -1.57984 0
M  V30 1151 C 105.171 1.66697 -3.04679 0
M  V30 1152 C 104.125 1.20183 -4.1078 0
M  V30 1153 C 103.451 2.44363 -4.75595 0
M  V30 1154 C 104.751 0.30605 -5.21403 0
M  V30 1155 H 106.445 -0.102883 -2.99223 0
M  V30 1156 H 103.991 -0.0509219 -1.4391 0
M  V30 1157 H 105.944 2.26915 -3.55088 0
M  V30 1158 H 104.668 2.30995 -2.30887 0
M  V30 1159 H 103.327 0.622499 -3.61276 0
M  V30 1160 H 102.975 3.07057 -3.98403 0
M  V30 1161 H 102.675 2.13925 -5.47275 0
M  V30 1162 H 104.199 3.05317 -5.28786 0
M  V30 1163 H 105.613 0.814929 -5.67478 0
M  V30 1164 H 104.01 0.0937929 -6.00027 0
M  V30 1165 H 105.08 -0.65921 -4.80398 0
M  V30 1166 N 106.423 1.57458 -0.0668435 0
M  V30 1167 C 107.353 2.15468 0.899764 0
M  V30 1168 C 108.334 1.08042 1.31381 0
M  V30 1169 O 109.519 1.36054 1.38574 0
M  V30 1170 C 106.649 2.71232 2.16911 0
M  V30 1171 C 105.603 3.83781 1.89463 0
M  V30 1172 C 104.929 4.26127 3.22986 0
M  V30 1173 C 106.229 5.08238 1.20381 0
M  V30 1174 H 107.923 2.96488 0.416529 0
M  V30 1175 H 105.469 1.4262 0.198908 0
M  V30 1176 H 107.422 3.10458 2.84945 0
M  V30 1177 H 106.146 1.87426 2.67468 0
M  V30 1178 H 104.805 3.45051 1.23836 0
M  V30 1179 H 104.453 3.39249 3.71374 0
M  V30 1180 H 104.153 5.01993 3.05413 0
M  V30 1181 H 105.677 4.67966 3.92225 0
M  V30 1182 H 107.091 5.44811 1.78475 0
M  V30 1183 H 105.488 5.89349 1.13083 0
M  V30 1184 H 106.558 4.84558 0.182153 0
M  V30 1185 N 107.901 -0.206675 1.56239 0
M  V30 1186 C 109.147 -0.925733 1.81113 0
M  V30 1187 C 109.502 -1.81368 0.642135 0
M  V30 1188 O 108.795 -1.88126 -0.363211 0
M  V30 1189 C 108.989 -1.78675 3.09532 0
M  V30 1190 C 108.818 -0.98365 4.3881 0
M  V30 1191 C 107.588 -0.672661 5.00803 0
M  V30 1192 C 109.786 -0.341847 5.13163 0
M  V30 1193 N 107.768 0.150283 6.13716 0
M  V30 1194 C 109.139 0.343815 6.19046 0
M  V30 1195 C 111.194 -0.256392 4.97239 0
M  V30 1196 C 109.897 1.10678 7.10734 0
M  V30 1197 C 111.923 0.493142 5.8934 0
M  V30 1198 C 111.285 1.16729 6.94661 0
M  V30 1199 H 107.384 -0.318524 0.714189 0
M  V30 1200 H 109.968 -0.195378 1.93717 0
M  V30 1201 H 108.139 -2.4888 2.98183 0
M  V30 1202 H 109.871 -2.44441 3.22538 0
M  V30 1203 H 106.626 -0.994294 4.63045 0
M  V30 1204 H 107.05 0.551026 6.74754 0
M  V30 1205 H 111.692 -0.763249 4.15854 0
M  V30 1206 H 109.41 1.6251 7.91591 0
M  V30 1207 H 112.996 0.560465 5.79094 0
M  V30 1208 H 111.876 1.738 7.64698 0
M  V30 1209 N 109.379 -1.50304 -0.473955 0
M  V30 1210 C 110.628 -1.60392 -1.22301 0
M  V30 1211 C 110.941 -0.308411 -1.93153 0
M  V30 1212 O 112.147 -0.288156 -2.69966 0
M  V30 1213 C 110.603 -2.83109 -2.2221 0
M  V30 1214 C 110.211 -4.19524 -1.57173 0
M  V30 1215 C 111.955 -3.0254 -2.97775 0
M  V30 1216 C 109.862 -5.33431 -2.55353 0
M  V30 1217 H 108.792 -0.597286 -0.460179 0
M  V30 1218 H 111.443 -1.76731 -0.493803 0
M  V30 1219 H 109.825 -2.60322 -2.9841 0
M  V30 1220 H 110.999 -4.52554 -0.867824 0
M  V30 1221 H 109.314 -4.05674 -0.939002 0
M  V30 1222 H 111.911 -3.84811 -3.71248 0
M  V30 1223 H 112.254 -2.14154 -3.56992 0
M  V30 1224 H 112.787 -3.25494 -2.28688 0
M  V30 1225 H 109.526 -6.23962 -2.00878 0
M  V30 1226 H 109.046 -5.04823 -3.23904 0
M  V30 1227 H 110.725 -5.63887 -3.17239 0
M  V30 1228 N 110.857 0.726932 -1.39834 0
M  V30 1229 C 112.103 1.48771 -1.38704 0
M  V30 1230 C 112.458 1.92394 0.0146387 0
M  V30 1231 O 111.751 1.64474 0.982797 0
M  V30 1232 C 111.945 2.73495 -2.30077 0
M  V30 1233 C 111.774 2.42068 -3.78989 0
M  V30 1234 C 110.544 2.33966 -4.4787 0
M  V30 1235 C 112.742 2.0708 -4.70768 0
M  V30 1236 N 110.724 1.95095 -5.82075 0
M  V30 1237 C 112.095 1.78719 -5.93683 0
M  V30 1238 C 114.15 1.93618 -4.58712 0
M  V30 1239 C 112.853 1.3825 -7.05889 0
M  V30 1240 C 114.879 1.54553 -5.70848 0
M  V30 1241 C 114.241 1.27082 -6.92842 0
M  V30 1242 H 110.34 0.542919 -0.562817 0
M  V30 1243 H 112.924 0.84408 -1.75452 0
M  V30 1244 H 111.095 3.35625 -1.95474 0
M  V30 1245 H 112.827 3.39755 -2.19883 0
M  V30 1246 H 109.582 2.51331 -4.0141 0
M  V30 1247 H 110.006 1.7823 -6.53118 0
M  V30 1248 H 114.648 2.13522 -3.64922 0
M  V30 1249 H 112.366 1.17088 -7.99572 0
M  V30 1250 H 115.952 1.44731 -5.6351 0
M  V30 1251 H 114.832 0.973069 -7.78139 0
M  V30 1252 N 112.336 1.25143 0.95797 0
M  V30 1253 C 113.268 1.01023 2.05735 0
M  V30 1254 C 114.281 -0.0236902 1.62783 0
M  V30 1255 O 115.47 0.21448 1.77207 0
M  V30 1256 C 112.57 0.504595 3.35122 0
M  V30 1257 C 111.743 1.6039 4.06932 0
M  V30 1258 C 110.802 1.09922 5.14591 0
M  V30 1259 O 109.828 1.79293 5.40225 0
M  V30 1260 N 111.03 -0.0612545 5.80468 0
M  V30 1261 H 113.795 1.95683 2.26998 0
M  V30 1262 H 111.356 1.16303 1.12629 0
M  V30 1263 H 113.348 0.151516 4.04416 0
M  V30 1264 H 111.918 -0.347989 3.10657 0
M  V30 1265 H 111.138 2.12872 3.31782 0
M  V30 1266 H 112.426 2.34252 4.51667 0
M  V30 1267 H 111.824 -0.640985 5.62057 0
M  V30 1268 H 110.381 -0.355395 6.5083 0
M  V30 1269 N 113.814 -1.1601 1.06675 0
M  V30 1270 C 114.744 -2.22688 0.702307 0
M  V30 1271 C 115.725 -1.67306 -0.307032 0
M  V30 1272 O 116.91 -1.93352 -0.181305 0
M  V30 1273 C 114.04 -3.47178 0.092038 0
M  V30 1274 C 112.994 -4.15477 1.02777 0
M  V30 1275 C 112.32 -5.33963 0.28061 0
M  V30 1276 C 113.62 -4.66019 2.35846 0
M  V30 1277 H 115.314 -2.53429 1.59419 0
M  V30 1278 H 112.86 -1.21813 0.767961 0
M  V30 1279 H 114.813 -4.21037 -0.174814 0
M  V30 1280 H 113.537 -3.15749 -0.834877 0
M  V30 1281 H 112.196 -3.43549 1.27944 0
M  V30 1282 H 111.844 -4.98788 -0.649545 0
M  V30 1283 H 111.544 -5.806 0.904258 0
M  V30 1284 H 113.068 -6.10596 0.021396 0
M  V30 1285 H 114.482 -5.3144 2.15045 0
M  V30 1286 H 112.879 -5.23293 2.93743 0
M  V30 1287 H 113.949 -3.82023 2.98641 0
M  V30 1288 N 115.292 -0.849877 -1.32721 0
M  V30 1289 C 116.239 -0.289033 -2.28983 0
M  V30 1290 C 117.209 0.601324 -1.54833 0
M  V30 1291 O 118.394 0.537253 -1.8308 0
M  V30 1292 C 115.534 0.520623 -3.4115 0
M  V30 1293 C 114.647 -0.394989 -4.3019 0
M  V30 1294 C 113.782 0.426834 -5.29482 0
M  V30 1295 C 112.821 -0.486476 -6.10164 0
M  V30 1296 N 111.958 0.297879 -7.01468 0
M  V30 1297 H 116.798 -1.11519 -2.76347 0
M  V30 1298 H 114.335 -0.56138 -1.35967 0
M  V30 1299 H 116.293 1.00563 -4.04899 0
M  V30 1300 H 114.923 1.31165 -2.9495 0
M  V30 1301 H 113.975 -0.99836 -3.67065 0
M  V30 1302 H 115.287 -1.09612 -4.86607 0
M  V30 1303 H 114.441 0.975205 -5.98811 0
M  V30 1304 H 113.18 1.16136 -4.73671 0
M  V30 1305 H 112.185 -1.04677 -5.39743 0
M  V30 1306 H 113.41 -1.21953 -6.6806 0
M  V30 1307 H 111.356 1.01558 -6.48091 0
M  V30 1308 H 111.273 -0.344318 -7.55216 0
M  V30 1309 H 112.541 0.828131 -7.75089 0
M  V30 1310 N 116.77 1.45427 -0.607355 0
M  V30 1311 C 117.995 2.07124 -0.107006 0
M  V30 1312 C 118.42 1.44906 1.19933 0
M  V30 1313 O 117.778 0.541687 1.73019 0
M  V30 1314 C 117.826 3.60595 0.0194119 0
M  V30 1315 O 116.93 3.98285 1.0697 0
M  V30 1316 H 116.271 0.659868 -0.0739597 0
M  V30 1317 H 118.801 1.86683 -0.837297 0
M  V30 1318 H 118.811 4.07419 0.2177 0
M  V30 1319 H 117.486 4.05266 -0.934453 0
M  V30 1320 H 116.063 3.63133 0.847889 0
M  V30 1321 N 118.248 0.346503 1.53744 0
M  V30 1322 C 119.196 -0.52422 2.26616 0
M  V30 1323 C 120.19 -1.09948 1.28871 0
M  V30 1324 O 121.396 -1.04488 1.46568 0
M  V30 1325 H 117.771 -0.187743 0.728187 0
M  V30 1326 H 119.742 0.11239 2.98188 0
M  V30 1327 C 118.491 -1.66186 3.05414 0
M  V30 1328 H 117.814 -1.22848 3.80458 0
M  V30 1329 H 119.254 -2.24622 3.59612 0
M  V30 1330 C 117.713 -2.59302 2.1509 0
M  V30 1331 O 118.243 -3.61628 1.74895 0
M  V30 1332 N 116.449 -2.28055 1.8011 0
M  V30 1333 H 115.996 -1.44883 2.12994 0
M  V30 1334 H 115.954 -2.90615 1.19958 0
M  V30 1335 N 119.726 -1.57421 0.075193 0
M  V30 1336 C 121.003 -1.85029 -0.634329 0
M  V30 1337 C 121.383 -0.968305 -1.87582 0
M  V30 1338 O 120.731 -0.0354749 -2.28472 0
M  V30 1339 C 120.941 -3.35286 -0.968742 0
M  V30 1340 C 122.289 -4.02875 -1.34077 0
M  V30 1341 O 123.313 -3.40051 -1.06037 0
M  V30 1342 O 122.172 -5.13691 -1.86506 0
M  V30 1343 H 119.266 -0.7645 -0.315387 0
M  V30 1344 H 121.812 -1.69366 0.106382 0
M  V30 1345 H 120.584 -3.91203 -0.0871376 0
M  V30 1346 H 120.207 -3.56223 -1.7661 0
M  V30 1347 N 121.204 0.198386 -1.56346 0
M  V30 1348 C 122.45 0.920648 -1.80698 0
M  V30 1349 C 122.783 1.83045 -0.648697 0
M  V30 1350 O 122.058 1.91308 0.350925 0
M  V30 1351 C 122.341 1.73971 -3.15287 0
M  V30 1352 C 122.194 0.85485 -4.41602 0
M  V30 1353 C 123.513 2.71296 -3.46535 0
M  V30 1354 H 120.632 0.333261 -0.657348 0
M  V30 1355 H 123.274 0.188198 -1.89066 0
M  V30 1356 H 121.424 2.36416 -3.08285 0
M  V30 1357 H 123.096 0.245362 -4.60647 0
M  V30 1358 H 121.339 0.161398 -4.335 0
M  V30 1359 H 122.01 1.46286 -5.32264 0
M  V30 1360 H 124.486 2.18983 -3.53816 0
M  V30 1361 H 123.362 3.2569 -4.41834 0
M  V30 1362 H 123.623 3.5018 -2.69864 0
M  V30 1363 N 122.682 1.50554 0.465978 0
M  V30 1364 C 123.63 1.70324 1.58406 0
M  V30 1365 C 124.624 0.569139 1.59553 0
M  V30 1366 O 125.83 0.749776 1.63641 0
M  V30 1367 H 122.205 0.537688 0.525734 0
M  V30 1368 H 124.176 2.64104 1.38894 0
M  V30 1369 C 122.925 1.81928 2.96307 0
M  V30 1370 H 122.248 2.68586 2.96144 0
M  V30 1371 H 123.688 1.99784 3.73982 0
M  V30 1372 C 122.147 0.572095 3.32007 0
M  V30 1373 O 122.677 -0.286416 4.00678 0
M  V30 1374 N 120.883 0.424606 2.87481 0
M  V30 1375 H 120.43 1.12427 2.31771 0
M  V30 1376 H 120.388 -0.408697 3.11732 0
M  V30 1377 N 124.16 -0.719506 1.40217 0
M  V30 1378 C 125.437 -1.47221 1.28784 0
M  V30 1379 C 125.817 -2.10883 -0.0956067 0
M  V30 1380 O 125.165 -1.99833 -1.10811 0
M  V30 1381 C 125.375 -2.5111 2.42373 0
M  V30 1382 C 126.723 -3.17053 2.82423 0
M  V30 1383 O 127.747 -2.61429 2.41937 0
M  V30 1384 O 126.606 -4.17742 3.52355 0
M  V30 1385 H 123.7 -0.654491 0.50554 0
M  V30 1386 H 126.246 -0.752014 1.52128 0
M  V30 1387 H 125.018 -2.02556 3.34793 0
M  V30 1388 H 124.641 -3.3067 2.20778 0
M  V30 1389 N 125.638 -1.25649 -0.95132 0
M  V30 1390 C 126.568 -1.08808 -2.06599 0
M  V30 1391 C 127.549 0.00382547 -1.701 0
M  V30 1392 O 128.734 -0.166325 -1.93486 0
M  V30 1393 C 125.864 -0.709542 -3.39975 0
M  V30 1394 C 124.818 -1.75206 -3.90496 0
M  V30 1395 C 124.144 -1.22811 -5.20405 0
M  V30 1396 C 125.444 -3.15153 -4.16504 0
M  V30 1397 H 127.138 -2.02048 -2.20946 0
M  V30 1398 H 124.684 -0.972835 -1.06169 0
M  V30 1399 H 126.637 -0.578649 -4.17408 0
M  V30 1400 H 125.361 0.258556 -3.25575 0
M  V30 1401 H 124.02 -1.87145 -3.15234 0
M  V30 1402 H 123.668 -0.250145 -5.02378 0
M  V30 1403 H 123.368 -1.92492 -5.55176 0
M  V30 1404 H 124.892 -1.10968 -6.00432 0
M  V30 1405 H 126.306 -3.06349 -4.84586 0
M  V30 1406 H 124.703 -3.82333 -4.62538 0
M  V30 1407 H 125.773 -3.61966 -3.22658 0
M  V30 1408 N 127.117 1.15442 -1.07289 0
M  V30 1409 C 128.065 2.22225 -0.686952 0
M  V30 1410 C 129.059 1.66688 0.30193 0
M  V30 1411 O 130.265 1.79236 0.165712 0
M  V30 1412 H 126.64 0.723783 -0.204064 0
M  V30 1413 H 128.611 2.52056 -1.5972 0
M  V30 1414 C 127.36 3.47556 -0.100149 0
M  V30 1415 H 126.683 3.90612 -0.852211 0
M  V30 1416 H 128.123 4.23794 0.132235 0
M  V30 1417 C 126.582 3.16337 1.159 0
M  V30 1418 O 127.112 3.33074 2.24555 0
M  V30 1419 N 125.318 2.70385 1.06491 0
M  V30 1420 H 124.865 2.56966 0.180668 0
M  V30 1421 H 124.823 2.49871 1.90819 0
M  V30 1422 N 128.595 0.856903 1.32268 0
M  V30 1423 C 129.528 0.247937 2.26849 0
M  V30 1424 C 130.506 -0.615382 1.50505 0
M  V30 1425 O 131.69 -0.571689 1.79622 0
M  V30 1426 C 128.817 -0.650093 3.32403 0
M  V30 1427 C 127.863 0.140138 4.2627 0
M  V30 1428 S 128.696 1.51004 5.13769 0
M  V30 1429 C 129.852 0.61778 6.22844 0
M  V30 1430 H 130.085 1.04971 2.78152 0
M  V30 1431 H 127.618 0.654665 1.39834 0
M  V30 1432 H 129.576 -1.16256 3.93694 0
M  V30 1433 H 128.237 -1.4257 2.7988 0
M  V30 1434 H 127.43 -0.543945 5.01056 0
M  V30 1435 H 127.032 0.584267 3.69408 0
M  V30 1436 H 129.324 -0.177053 6.77269 0
M  V30 1437 H 130.267 1.33636 6.95375 0
M  V30 1438 H 130.675 0.191124 5.64176 0
M  V30 1439 N 130.073 -1.45103 0.615059 0
M  V30 1440 C 131.006 -2.27717 -0.148408 0
M  V30 1441 C 131.984 -1.37584 -0.866572 0
M  V30 1442 O 133.168 -1.67017 -0.87393 0
M  V30 1443 C 130.295 -3.16136 -1.21557 0
M  V30 1444 C 129.341 -4.22263 -0.599712 0
M  V30 1445 S 130.174 -5.3215 0.598081 0
M  V30 1446 C 131.33 -6.24137 -0.469484 0
M  V30 1447 H 131.563 -2.92121 0.552483 0
M  V30 1448 H 129.096 -1.49054 0.402778 0
M  V30 1449 H 131.054 -3.67633 -1.82638 0
M  V30 1450 H 129.715 -2.50982 -1.88857 0
M  V30 1451 H 128.908 -4.84081 -1.4029 0
M  V30 1452 H 128.51 -3.73945 -0.063876 0
M  V30 1453 H 130.802 -6.63984 -1.34652 0
M  V30 1454 H 131.745 -7.0801 0.112725 0
M  V30 1455 H 132.153 -5.58971 -0.788168 0
M  V30 1456 N 131.551 -0.354651 -1.53558 0
M  V30 1457 C 132.799 0.237972 -2.00694 0
M  V30 1458 C 133.12 1.50173 -1.24391 0
M  V30 1459 O 132.39 1.92673 -0.354135 0
M  V30 1460 H 130.97 0.0909256 -0.741446 0
M  V30 1461 H 133.632 -0.478368 -1.88938 0
M  V30 1462 H 132.728 0.47264 -3.085 0
M  V30 1463 N 133.029 1.57378 -0.0835403 0
M  V30 1464 C 134.275 1.94217 0.583733 0
M  V30 1465 C 134.608 0.964653 1.68547 0
M  V30 1466 O 133.883 -0.00422258 1.945 0
M  V30 1467 C 134.166 3.41253 1.14972 0
M  V30 1468 C 134.019 4.49768 0.0538277 0
M  V30 1469 C 135.338 3.89352 2.05166 0
M  V30 1470 H 132.457 0.706233 0.210724 0
M  V30 1471 H 135.099 1.89392 -0.1519 0
M  V30 1472 H 133.249 3.45496 1.77665 0
M  V30 1473 H 134.921 4.57641 -0.579851 0
M  V30 1474 H 133.164 4.29432 -0.614068 0
M  V30 1475 H 133.835 5.49817 0.490452 0
M  V30 1476 H 136.311 3.87189 1.52393 0
M  V30 1477 H 135.187 4.92822 2.41698 0
M  V30 1478 H 135.448 3.27973 2.96456 0
M  V30 1479 N 134.507 -0.190092 1.56449 0
M  V30 1480 C 135.457 -1.23977 1.91347 0
M  V30 1481 C 136.441 -1.40747 0.779693 0
M  V30 1482 O 137.633 -1.43033 1.04262 0
M  V30 1483 C 134.762 -2.58347 2.26079 0
M  V30 1484 C 133.848 -2.4535 3.45925 0
M  V30 1485 N 134.239 -2.02039 4.63696 0
M  V30 1486 C 132.537 -2.76229 3.50162 0
M  V30 1487 C 133.238 -2.01053 5.4585 0
M  V30 1488 N 132.214 -2.42747 4.8639 0
M  V30 1489 H 136.016 -0.896318 2.79899 0
M  V30 1490 H 133.53 -0.398496 1.57435 0
M  V30 1491 H 135.527 -3.34173 2.49267 0
M  V30 1492 H 134.187 -2.93512 1.38856 0
M  V30 1493 H 135.198 -1.7267 4.88268 0
M  V30 1494 H 131.875 -3.15556 2.73369 0
M  V30 1495 H 133.265 -1.69426 6.50188 0
M  V30 1496 N 135.985 -1.50799 -0.457987 0
M  V30 1497 C 137.234 -1.6168 -1.20593 0
M  V30 1498 C 137.547 -0.32888 -1.92815 0
M  V30 1499 O 138.753 -0.316773 -2.69646 0
M  V30 1500 C 137.209 -2.8545 -2.19195 0
M  V30 1501 C 136.817 -4.21168 -1.52715 0
M  V30 1502 C 138.561 -3.05681 -2.94549 0
M  V30 1503 C 136.468 -5.3611 -2.4968 0
M  V30 1504 H 135.398 -0.602134 -0.453818 0
M  V30 1505 H 138.049 -1.77245 -0.475031 0
M  V30 1506 H 136.431 -2.63472 -2.95632 0
M  V30 1507 H 137.605 -4.53449 -0.819775 0
M  V30 1508 H 135.92 -4.06648 -0.895922 0
M  V30 1509 H 138.517 -3.88727 -3.67145 0
M  V30 1510 H 138.86 -2.17929 -3.54701 0
M  V30 1511 H 139.393 -3.27901 -2.25223 0
M  V30 1512 H 136.132 -6.26057 -1.94249 0
M  V30 1513 H 135.652 -5.0823 -3.18532 0
M  V30 1514 H 137.331 -5.6722 -3.11241 0
M  V30 1515 N 137.463 0.71206 -1.40597 0
M  V30 1516 C 138.709 1.47292 -1.40274 0
M  V30 1517 C 139.064 1.92399 -0.00576812 0
M  V30 1518 O 138.357 1.65507 0.965297 0
M  V30 1519 C 138.551 2.71039 -2.32965 0
M  V30 1520 C 138.38 2.38035 -3.81536 0
M  V30 1521 C 137.15 2.29203 -4.50327 0
M  V30 1522 C 139.348 2.02076 -4.72938 0
M  V30 1523 N 137.33 1.88911 -5.84111 0
M  V30 1524 C 138.701 1.72412 -5.95545 0
M  V30 1525 C 140.756 1.88742 -4.60739 0
M  V30 1526 C 139.459 1.30756 -7.07316 0
M  V30 1527 C 141.485 1.4849 -5.72455 0
M  V30 1528 C 140.847 1.19726 -6.94151 0
M  V30 1529 H 136.946 0.536919 -0.568544 0
M  V30 1530 H 139.53 0.825424 -1.76337 0
M  V30 1531 H 137.701 3.33533 -1.99023 0
M  V30 1532 H 139.433 3.37404 -2.23474 0
M  V30 1533 H 136.188 2.47059 -4.04053 0
M  V30 1534 H 136.612 1.71293 -6.54972 0
M  V30 1535 H 141.254 2.0964 -3.67166 0
M  V30 1536 H 138.972 1.08601 -8.00769 0
M  V30 1537 H 142.558 1.38747 -5.65014 0
M  V30 1538 H 141.438 0.890482 -7.79128 0
M  V30 1539 N 138.941 1.26152 0.944643 0
M  V30 1540 C 140.218 1.02247 1.66748 0
M  V30 1541 C 140.598 -0.448202 2.06287 0
M  V30 1542 O 139.946 -1.42779 1.78399 0
M  V30 1543 C 140.156 1.96788 2.88228 0
M  V30 1544 C 141.504 2.25201 3.59958 0
M  V30 1545 O 142.528 1.94626 2.98327 0
M  V30 1546 O 141.387 2.77242 4.70956 0
M  V30 1547 H 138.481 0.388517 0.730057 0
M  V30 1548 H 141.027 1.37348 0.99668 0
M  V30 1549 H 139.799 2.96047 2.55875 0
M  V30 1550 H 139.422 1.62145 3.63035 0
M  V30 1551 N 140.419 -1.14872 1.07899 0
M  V30 1552 C 141.351 -2.19425 0.662231 0
M  V30 1553 C 142.364 -1.60231 -0.288079 0
M  V30 1554 O 143.553 -1.78336 -0.076534 0
M  V30 1555 C 140.653 -3.38867 -0.0470695 0
M  V30 1556 C 139.826 -4.27597 0.920831 0
M  V30 1557 C 138.885 -5.25616 0.247805 0
M  V30 1558 O 137.911 -5.62189 0.890599 0
M  V30 1559 N 139.113 -5.71746 -1.00435 0
M  V30 1560 H 141.878 -2.55797 1.56166 0
M  V30 1561 H 139.439 -1.30042 0.964404 0
M  V30 1562 H 141.431 -4.01497 -0.50813 0
M  V30 1563 H 140.001 -3.00864 -0.848523 0
M  V30 1564 H 139.221 -3.61982 1.56087 0
M  V30 1565 H 140.509 -4.83748 1.57688 0
M  V30 1566 H 139.907 -5.44153 -1.54642 0
M  V30 1567 H 138.464 -6.36389 -1.40899 0
M  V30 1568 N 141.898 -0.863906 -1.31812 0
M  V30 1569 C 143.144 -0.481841 -1.9761 0
M  V30 1570 C 143.499 0.954048 -1.6708 0
M  V30 1571 O 142.792 1.66182 -0.953624 0
M  V30 1572 C 142.986 -0.668547 -3.51091 0
M  V30 1573 C 142.815 -2.12103 -3.96538 0
M  V30 1574 C 141.585 -2.76141 -4.23171 0
M  V30 1575 C 143.783 -3.09265 -4.10925 0
M  V30 1576 N 141.765 -4.12205 -4.54929 0
M  V30 1577 C 143.136 -4.30341 -4.46326 0
M  V30 1578 C 145.191 -3.05337 -3.93286 0
M  V30 1579 C 143.894 -5.48 -4.65928 0
M  V30 1580 C 145.92 -4.22248 -4.14078 0
M  V30 1581 C 145.282 -5.42085 -4.49804 0
M  V30 1582 H 141.381 -0.225238 -0.74886 0
M  V30 1583 H 143.965 -1.11723 -1.59455 0
M  V30 1584 H 142.136 -0.0627898 -3.88349 0
M  V30 1585 H 143.868 -0.255467 -4.03893 0
M  V30 1586 H 140.623 -2.27125 -4.15585 0
M  V30 1587 H 141.047 -4.82416 -4.74978 0
M  V30 1588 H 145.689 -2.138 -3.64759 0
M  V30 1589 H 143.407 -6.40059 -4.93305 0
M  V30 1590 H 146.993 -4.20654 -4.01922 0
M  V30 1591 H 145.873 -6.31044 -4.65567 0
M  V30 1592 N 143.376 1.44774 -0.622745 0
M  V30 1593 C 144.323 2.30635 0.0871679 0
M  V30 1594 C 145.293 1.42994 0.845097 0
M  V30 1595 O 146.478 1.71907 0.827812 0
M  V30 1596 C 143.618 3.28144 1.06844 0
M  V30 1597 C 142.731 4.30888 0.309809 0
M  V30 1598 C 141.866 5.15494 1.28215 0
M  V30 1599 C 140.905 6.09953 0.512198 0
M  V30 1600 N 140.042 6.87287 1.43458 0
M  V30 1601 H 144.882 2.90803 -0.650974 0
M  V30 1602 H 142.419 1.43286 -0.33281 0
M  V30 1603 H 144.377 3.83157 1.65066 0
M  V30 1604 H 143.007 2.69695 1.77382 0
M  V30 1605 H 142.059 3.78414 -0.388181 0
M  V30 1606 H 143.371 4.97955 -0.290254 0
M  V30 1607 H 142.525 5.74983 1.93596 0
M  V30 1608 H 141.264 4.48481 1.91614 0
M  V30 1609 H 140.269 5.49581 -0.155151 0
M  V30 1610 H 141.494 6.78999 -0.116958 0
M  V30 1611 H 139.44 6.2295 2.05594 0
M  V30 1612 H 139.357 7.50763 0.888335 0
M  V30 1613 H 140.625 7.51306 2.07749 0
M  V30 1614 N 144.854 0.36279 1.53368 0
M  V30 1615 C 145.786 -0.519668 2.23231 0
M  V30 1616 C 146.799 -1.04844 1.24546 0
M  V30 1617 O 147.988 -0.955296 1.50786 0
M  V30 1618 C 145.088 -1.72995 2.9142 0
M  V30 1619 C 144.261 -1.33316 4.16588 0
M  V30 1620 C 143.32 -2.40521 4.68013 0
M  V30 1621 O 142.346 -2.03027 5.3176 0
M  V30 1622 N 143.548 -3.72065 4.45587 0
M  V30 1623 H 146.313 0.078751 2.99597 0
M  V30 1624 H 143.874 0.187833 1.60807 0
M  V30 1625 H 145.866 -2.44184 3.22733 0
M  V30 1626 H 144.436 -2.2353 2.18525 0
M  V30 1627 H 143.656 -0.451236 3.91609 0
M  V30 1628 H 144.944 -1.04432 4.97967 0
M  V30 1629 H 144.342 -4.05304 3.94646 0
M  V30 1630 H 142.899 -4.39366 4.81457 0
M  V30 1631 N 146.332 -1.57332 0.0918853 0
M  V30 1632 C 147.242 -2.17368 -0.882505 0
M  V30 1633 C 148.258 -1.14226 -1.31257 0
M  V30 1634 O 149.434 -1.46582 -1.38115 0
M  V30 1635 C 146.499 -2.73962 -2.12476 0
M  V30 1636 C 145.56 -3.92048 -1.7492 0
M  V30 1637 C 144.793 -4.45933 -2.93223 0
M  V30 1638 O 145.016 -3.98764 -4.07852 0
M  V30 1639 O 143.95 -5.36999 -2.71875 0
M  V30 1640 H 147.776 -3.01031 -0.40172 0
M  V30 1641 H 145.361 -1.48813 -0.132291 0
M  V30 1642 H 147.243 -3.10147 -2.85283 0
M  V30 1643 H 145.918 -1.93347 -2.59613 0
M  V30 1644 H 144.825 -3.6068 -0.993025 0
M  V30 1645 H 146.158 -4.74017 -1.32548 0
M  V30 1646 N 147.81 0.181792 -1.56548 0
M  V30 1647 C 149.087 0.926765 -1.72251 0
M  V30 1648 C 149.467 2.00831 -0.650386 0
M  V30 1649 O 148.815 2.26008 0.336521 0
M  V30 1650 C 149.025 1.50106 -3.1507 0
M  V30 1651 C 150.373 1.97805 -3.75711 0
M  V30 1652 O 151.397 1.59922 -3.18282 0
M  V30 1653 O 150.256 2.67555 -4.76525 0
M  V30 1654 H 147.35 0.435506 -0.703039 0
M  V30 1655 H 149.896 0.170443 -1.68842 0
M  V30 1656 H 148.668 0.72212 -3.84579 0
M  V30 1657 H 148.291 2.32186 -3.22763 0
M  V30 1658 N 149.288 1.51039 0.449983 0
M  V30 1659 C 150.536 1.62759 1.19808 0
M  V30 1660 C 150.857 0.339981 1.92013 0
M  V30 1661 O 150.127 -0.643606 1.85026 0
M  V30 1662 H 148.707 0.599811 0.445237 0
M  V30 1663 H 151.369 1.87914 0.517138 0
M  V30 1664 H 150.465 2.44911 1.93455 0
M  V30 1665 N 150.766 -0.704594 1.40972 0
M  V30 1666 C 151.994 -1.49354 1.43182 0
M  V30 1667 C 152.409 -1.88768 0.0345508 0
M  V30 1668 O 151.766 -1.56184 -0.944081 0
M  V30 1669 C 151.817 -2.76187 2.33244 0
M  V30 1670 O 151.538 -2.38436 3.67532 0
M  V30 1671 C 153.039 -3.7 2.44162 0
M  V30 1672 H 150.259 -0.460559 0.487982 0
M  V30 1673 H 152.803 -0.868261 1.85153 0
M  V30 1674 H 150.958 -3.34974 1.94606 0
M  V30 1675 H 151.372 -3.20126 4.15475 0
M  V30 1676 H 152.846 -4.55803 3.11364 0
M  V30 1677 H 153.323 -4.13867 1.47006 0
M  V30 1678 H 153.929 -3.17121 2.83398 0
M  V30 1679 N 152.244 -1.26651 -0.937939 0
M  V30 1680 C 153.493 -1.11775 -1.67897 0
M  V30 1681 C 153.806 0.33794 -1.92659 0
M  V30 1682 O 155.012 0.607434 -2.64618 0
M  V30 1683 C 153.468 -1.9523 -3.02346 0
M  V30 1684 C 153.076 -3.45393 -2.8532 0
M  V30 1685 C 154.82 -1.88972 -3.80118 0
M  V30 1686 C 152.727 -4.21083 -4.15263 0
M  V30 1687 H 151.657 -0.414696 -0.629717 0
M  V30 1688 H 154.308 -1.50988 -1.04283 0
M  V30 1689 H 152.69 -1.48853 -3.66959 0
M  V30 1690 H 153.864 -3.99561 -2.29537 0
M  V30 1691 H 152.179 -3.52921 -2.20988 0
M  V30 1692 H 154.776 -2.42805 -4.76392 0
M  V30 1693 H 155.119 -0.86113 -4.07296 0
M  V30 1694 H 155.652 -2.33189 -3.22285 0
M  V30 1695 H 152.391 -5.24425 -3.93267 0
M  V30 1696 H 151.911 -3.71695 -4.70747 0
M  V30 1697 H 153.59 -4.29706 -4.83696 0
M  V30 1698 N 153.722 1.14298 -1.08507 0
M  V30 1699 C 154.97 1.84993 -0.813763 0
M  V30 1700 C 155.291 1.83405 0.662393 0
M  V30 1701 O 154.561 1.28319 1.48024 0
M  V30 1702 H 153.141 0.684966 -0.298045 0
M  V30 1703 H 155.803 1.385 -1.37126 0
M  V30 1704 H 154.899 2.89788 -1.15884 0
M  V30 1705 N 155.201 0.870884 1.31352 0
M  V30 1706 C 156.151 0.298889 2.26032 0
M  V30 1707 C 157.135 -0.564595 1.50669 0
M  V30 1708 O 158.327 -0.411323 1.72154 0
M  V30 1709 C 155.456 -0.497842 3.39671 0
M  V30 1710 C 154.542 0.378937 4.22404 0
M  V30 1711 N 154.933 1.47284 4.83881 0
M  V30 1712 C 153.231 0.171535 4.4567 0
M  V30 1713 C 153.932 2.01359 5.45738 0
M  V30 1714 N 152.908 1.31047 5.27568 0
M  V30 1715 H 156.71 1.13494 2.71102 0
M  V30 1716 H 154.224 0.718745 1.45629 0
M  V30 1717 H 156.221 -0.924155 4.06528 0
M  V30 1718 H 154.881 -1.33149 2.96144 0
M  V30 1719 H 155.892 1.85575 4.8351 0
M  V30 1720 H 152.569 -0.626091 4.12779 0
M  V30 1721 H 153.959 2.93143 6.0458 0
M  V30 1722 N 156.679 -1.44442 0.630414 0
M  V30 1723 C 157.642 -2.29107 -0.0652523 0
M  V30 1724 C 158.642 -1.41002 -0.772995 0
M  V30 1725 O 159.832 -1.62881 -0.617692 0
M  V30 1726 C 156.964 -3.22564 -1.10296 0
M  V30 1727 H 158.157 -2.92103 0.679401 0
M  V30 1728 H 155.71 -1.51343 0.390517 0
M  V30 1729 H 156.445 -2.64416 -1.87762 0
M  V30 1730 H 156.23 -3.87491 -0.59941 0
M  V30 1731 H 157.72 -3.86167 -1.5895 0
M  V30 1732 N 158.157 -0.370918 -1.53173 0
M  V30 1733 C 159.387 0.217389 -2.05453 0
M  V30 1734 C 159.795 1.42568 -1.24382 0
M  V30 1735 O 159.138 1.81571 -0.278839 0
M  V30 1736 C 159.2 0.669827 -3.53205 0
M  V30 1737 C 158.864 -0.4225 -4.55043 0
M  V30 1738 C 159.861 -1.27407 -5.04047 0
M  V30 1739 C 157.546 -0.58427 -4.9889 0
M  V30 1740 C 159.54 -2.27271 -5.95505 0
M  V30 1741 C 157.227 -1.58627 -5.90153 0
M  V30 1742 C 158.225 -2.42892 -6.38351 0
M  V30 1743 O 157.913 -3.41382 -7.27814 0
M  V30 1744 H 157.645 0.0408171 -0.674767 0
M  V30 1745 H 160.199 -0.5292 -1.98466 0
M  V30 1746 H 158.429 1.4681 -3.57748 0
M  V30 1747 H 160.118 1.18173 -3.88317 0
M  V30 1748 H 160.884 -1.16031 -4.70916 0
M  V30 1749 H 156.763 0.061851 -4.60959 0
M  V30 1750 H 160.307 -2.93079 -6.33049 0
M  V30 1751 H 156.204 -1.70048 -6.22699 0
M  V30 1752 H 156.972 -3.37173 -7.45826 0
M  V30 1753 N 159.635 1.57281 -0.100228 0
M  V30 1754 C 160.883 1.94153 0.561157 0
M  V30 1755 C 161.204 0.983157 1.68401 0
M  V30 1756 O 160.474 0.0361132 1.95867 0
M  V30 1757 H 159.054 0.716791 0.210283 0
M  V30 1758 H 161.716 1.94202 -0.164765 0
M  V30 1759 H 160.812 2.96709 0.968008 0
M  V30 1760 N 161.113 -0.173488 1.56642 0
M  V30 1761 C 162.36 -0.890465 1.81871 0
M  V30 1762 C 162.688 -1.82339 0.67696 0
M  V30 1763 O 161.943 -1.92795 -0.335926 0
M  V30 1764 C 162.242 -1.72069 3.13252 0
M  V30 1765 C 161.908 -0.936878 4.41059 0
M  V30 1766 C 160.57 -0.720545 4.75775 0
M  V30 1767 C 162.922 -0.386919 5.19762 0
M  V30 1768 C 160.25 0.0568829 5.86672 0
M  V30 1769 C 162.602 0.37741 6.31473 0
M  V30 1770 C 161.266 0.604563 6.64757 0
M  V30 1771 H 160.536 -0.325844 0.665512 0
M  V30 1772 H 163.183 -0.155527 1.90867 0
M  V30 1773 H 161.488 -2.52496 2.99588 0
M  V30 1774 H 163.185 -2.27844 3.29982 0
M  V30 1775 H 159.775 -1.11553 4.13828 0
M  V30 1776 H 163.959 -0.541398 4.93338 0
M  V30 1777 H 159.215 0.242635 6.10918 0
M  V30 1778 H 163.389 0.810825 6.91664 0
M  V30 1779 H 161.016 1.20885 7.50527 0
M  V30 1780 N 162.591 -1.51276 -0.441967 0
M  V30 1781 C 163.523 -1.68444 -1.55433 0
M  V30 1782 C 164.536 -0.565187 -1.52674 0
M  V30 1783 O 165.725 -0.839356 -1.57534 0
M  V30 1784 C 162.825 -1.67966 -2.94348 0
M  V30 1785 C 161.998 -2.964 -3.21661 0
M  V30 1786 C 161.057 -2.88171 -4.40277 0
M  V30 1787 O 160.083 -3.62119 -4.39157 0
M  V30 1788 N 161.285 -2.03706 -5.43584 0
M  V30 1789 H 164.05 -2.644 -1.41112 0
M  V30 1790 H 161.611 -1.49104 -0.630838 0
M  V30 1791 H 163.603 -1.60035 -3.71713 0
M  V30 1792 H 162.173 -0.796225 -3.0229 0
M  V30 1793 H 161.393 -3.18234 -2.32638 0
M  V30 1794 H 162.681 -3.81427 -3.36736 0
M  V30 1795 H 162.079 -1.42995 -5.47329 0
M  V30 1796 H 160.636 -2.01658 -6.1982 0
M  V30 1797 N 164.069 0.697108 -1.41344 0
M  V30 1798 C 164.999 1.82353 -1.45841 0
M  V30 1799 C 165.98 1.67115 -0.317247 0
M  V30 1800 O 167.165 1.86871 -0.528474 0
M  V30 1801 C 164.295 3.20476 -1.33838 0
M  V30 1802 C 163.249 3.50415 -2.4575 0
M  V30 1803 C 162.575 4.87878 -2.18813 0
M  V30 1804 C 163.875 3.49546 -3.88091 0
M  V30 1805 H 165.569 1.78846 -2.40113 0
M  V30 1806 H 163.115 0.859028 -1.15571 0
M  V30 1807 H 165.068 3.98988 -1.35596 0
M  V30 1808 H 163.792 3.24604 -0.360498 0
M  V30 1809 H 162.451 2.74253 -2.43271 0
M  V30 1810 H 162.099 4.8863 -1.19371 0
M  V30 1811 H 161.799 5.08875 -2.93803 0
M  V30 1812 H 163.323 5.68702 -2.22284 0
M  V30 1813 H 164.737 4.18066 -3.92293 0
M  V30 1814 H 163.134 3.82075 -4.62751 0
M  V30 1815 H 164.204 2.48552 -4.16353 0
M  V30 1816 N 165.547 1.27147 0.931209 0
M  V30 1817 C 166.795 1.13055 1.6752 0
M  V30 1818 C 167.116 -0.324791 1.92276 0
M  V30 1819 O 166.386 -1.22775 1.52654 0
M  V30 1820 H 164.966 0.415391 0.620854 0
M  V30 1821 H 167.628 1.59623 1.11833 0
M  V30 1822 H 166.724 1.65694 2.64485 0
M  V30 1823 N 167.025 -1.13721 1.09112 0
M  V30 1824 C 167.972 -2.19031 0.727591 0
M  V30 1825 C 168.942 -1.63555 -0.289656 0
M  V30 1826 O 170.127 -1.90023 -0.172026 0
M  V30 1827 C 167.267 -3.4477 0.15082 0
M  V30 1828 C 166.38 -4.14365 1.22172 0
M  V30 1829 C 165.515 -5.27709 0.608042 0
M  V30 1830 C 164.554 -5.89147 1.66047 0
M  V30 1831 N 163.691 -6.93929 1.06806 0
M  V30 1832 H 168.531 -2.49475 1.62991 0
M  V30 1833 H 166.068 -1.22499 0.81439 0
M  V30 1834 H 168.026 -4.16714 -0.201358 0
M  V30 1835 H 166.656 -3.14787 -0.714783 0
M  V30 1836 H 165.708 -3.40737 1.69122 0
M  V30 1837 H 167.02 -4.56114 2.01895 0
M  V30 1838 H 166.174 -6.06355 0.204523 0
M  V30 1839 H 164.913 -4.872 -0.220769 0
M  V30 1840 H 163.918 -5.09198 2.07357 0
M  V30 1841 H 165.143 -6.31729 2.49189 0
M  V30 1842 H 163.089 -6.55483 0.260476 0
M  V30 1843 H 163.006 -7.34202 1.8023 0
M  V30 1844 H 164.274 -7.76434 0.690644 0
M  V30 1845 N 168.503 -0.877838 -1.30888 0
M  V30 1846 C 169.45 -0.337538 -2.28318 0
M  V30 1847 C 170.42 0.568346 -1.56074 0
M  V30 1848 O 171.605 0.498298 -1.84178 0
M  V30 1849 C 168.745 0.448142 -3.42178 0
M  V30 1850 C 167.858 -0.48615 -4.29256 0
M  V30 1851 C 166.993 0.314427 -5.30269 0
M  V30 1852 C 166.032 -0.615791 -6.08995 0
M  V30 1853 N 165.169 0.14902 -7.01942 0
M  V30 1854 H 170.009 -1.17356 -2.73919 0
M  V30 1855 H 167.546 -0.590094 -1.34745 0
M  V30 1856 H 169.504 0.919517 -4.06941 0
M  V30 1857 H 168.134 1.24879 -2.97666 0
M  V30 1858 H 167.186 -1.076 -3.64865 0
M  V30 1859 H 168.498 -1.19909 -4.84173 0
M  V30 1860 H 167.652 0.847969 -6.00745 0
M  V30 1861 H 166.391 1.06062 -4.76027 0
M  V30 1862 H 165.396 -1.16102 -5.37401 0
M  V30 1863 H 166.621 -1.36097 -6.65323 0
M  V30 1864 H 164.567 0.877884 -6.50099 0
M  V30 1865 H 164.484 -0.504433 -7.54315 0
M  V30 1866 H 165.752 0.663537 -7.76671 0
M  V30 1867 N 169.982 1.44106 -0.638065 0
M  V30 1868 C 170.93 2.3248 0.0748149 0
M  V30 1869 C 171.924 1.47746 0.828702 0
M  V30 1870 O 173.13 1.64049 0.740816 0
M  V30 1871 H 169.505 0.750771 0.0429686 0
M  V30 1872 H 171.476 2.90348 -0.688504 0
M  V30 1873 C 170.225 3.31843 1.03805 0
M  V30 1874 H 169.548 3.97059 0.467375 0
M  V30 1875 H 170.988 3.96345 1.50622 0
M  V30 1876 C 169.447 2.61291 2.1267 0
M  V30 1877 O 169.977 2.41702 3.20847 0
M  V30 1878 N 168.183 2.20915 1.88798 0
M  V30 1879 H 167.73 2.37047 1.00829 0
M  V30 1880 H 167.688 1.74038 2.61836 0
M  V30 1881 N 171.46 0.379036 1.52974 0
M  V30 1882 C 172.876 0.0285448 1.59574 0
M  V30 1883 C 173.076 -1.45542 1.39355 0
M  V30 1884 O 172.132 -2.2187 1.20541 0
M  V30 1885 C 173.445 0.496535 2.96572 0
M  V30 1886 C 174.993 0.451909 3.0972 0
M  V30 1887 C 175.468 0.895924 4.49152 0
M  V30 1888 N 176.959 0.851522 4.55306 0
M  V30 1889 C 177.694 1.16661 5.61407 0
M  V30 1890 N 177.19 1.55166 6.752 0
M  V30 1891 N 178.983 1.08853 5.51459 0
M  V30 1892 H 171.134 1.34525 1.64367 0
M  V30 1893 H 173.397 0.550733 0.771619 0
M  V30 1894 H 173.103 1.53258 3.16552 0
M  V30 1895 H 172.977 -0.109802 3.7704 0
M  V30 1896 H 175.364 -0.575029 2.89443 0
M  V30 1897 H 175.445 1.09392 2.3123 0
M  V30 1898 H 175.089 1.92104 4.70168 0
M  V30 1899 H 175.019 0.23103 5.26093 0
M  V30 1900 H 177.51 0.568038 3.73606 0
M  V30 1901 H 177.823 1.776 7.52116 0
M  V30 1902 H 176.168 1.59044 6.76557 0
M  V30 1903 H 179.359 0.786803 4.6144 0
M  V30 1904 H 179.532 1.33742 6.34048 0
M  V30 1905 N 172.938 -1.57226 0.108567 0
M  V30 1906 C 174.163 -1.99604 -0.563303 0
M  V30 1907 C 174.588 -0.987563 -1.6009 0
M  V30 1908 O 173.946 0.0421687 -1.81251 0
M  V30 1909 C 173.994 -3.40902 -1.17552 0
M  V30 1910 O 173.098 -3.42896 -2.2912 0
M  V30 1911 H 172.439 -0.648704 -0.1417 0
M  V30 1912 H 174.969 -2.03679 0.193961 0
M  V30 1913 H 174.979 -3.78886 -1.51357 0
M  V30 1914 H 173.654 -4.1382 -0.415445 0
M  V30 1915 H 172.231 -3.1672 -1.96832 0
M  V30 1916 N 174.416 0.165178 -1.56732 0
M  V30 1917 C 175.346 1.20651 -1.99914 0
M  V30 1918 C 176.327 1.45827 -0.875705 0
M  V30 1919 O 177.512 1.57057 -1.14223 0
M  V30 1920 C 174.642 2.54401 -2.36427 0
M  V30 1921 C 173.596 2.43782 -3.51787 0
M  V30 1922 C 172.922 3.82078 -3.7406 0
M  V30 1923 C 174.222 1.93732 -4.85041 0
M  V30 1924 H 175.916 0.847534 -2.87154 0
M  V30 1925 H 173.462 0.40625 -1.38151 0
M  V30 1926 H 175.415 3.27458 -2.65234 0
M  V30 1927 H 174.139 2.92098 -1.46103 0
M  V30 1928 H 172.798 1.73178 -3.23117 0
M  V30 1929 H 172.446 4.17179 -2.81017 0
M  V30 1930 H 172.146 3.7584 -4.51684 0
M  V30 1931 H 173.67 4.56712 -4.05274 0
M  V30 1932 H 175.084 2.56569 -5.12684 0
M  V30 1933 H 173.481 1.98428 -5.66345 0
M  V30 1934 H 174.551 0.891962 -4.76626 0
M  V30 1935 N 175.894 1.51508 0.433938 0
M  V30 1936 C 176.842 1.73646 1.54757 0
M  V30 1937 C 177.836 0.602854 1.5831 0
M  V30 1938 O 179.042 0.784318 1.62014 0
M  V30 1939 H 175.417 0.548718 0.51421 0
M  V30 1940 H 177.388 2.66991 1.33261 0
M  V30 1941 C 176.137 1.88172 2.92381 0
M  V30 1942 H 175.46 2.74808 2.90381 0
M  V30 1943 H 176.9 2.07672 3.6966 0
M  V30 1944 C 175.359 0.64239 3.30719 0
M  V30 1945 O 175.889 -0.201362 4.01195 0
M  V30 1946 N 174.095 0.485489 2.86516 0
M  V30 1947 H 173.642 1.17318 2.29334 0
M  V30 1948 H 173.6 -0.342482 3.12529 0
M  V30 1949 N 177.372 -0.689602 1.41712 0
M  V30 1950 C 178.62 -1.4468 1.4111 0
M  V30 1951 C 178.941 -1.94986 0.0232196 0
M  V30 1952 O 178.211 -1.72097 -0.935913 0
M  V30 1953 H 176.791 -0.536847 0.519427 0
M  V30 1954 H 179.453 -0.815825 1.77004 0
M  V30 1955 H 178.549 -2.30706 2.10193 0
M  V30 1956 N 178.85 -1.27639 -0.924453 0
M  V30 1957 C 179.76 -1.12466 -2.05885 0
M  V30 1958 C 180.776 -0.053869 -1.73917 0
M  V30 1959 O 181.952 -0.261012 -1.99702 0
M  V30 1960 C 179.017 -0.776768 -3.37886 0
M  V30 1961 C 178.078 -1.92878 -3.83532 0
M  V30 1962 C 177.311 -1.59739 -5.09234 0
M  V30 1963 O 177.534 -0.506782 -5.68144 0
M  V30 1964 O 176.468 -2.43761 -5.50331 0
M  V30 1965 H 180.294 -2.07671 -2.21599 0
M  V30 1966 H 177.879 -1.06857 -1.04413 0
M  V30 1967 H 179.761 -0.596229 -4.17161 0
M  V30 1968 H 178.436 0.145732 -3.23372 0
M  V30 1969 H 177.343 -2.1644 -3.0513 0
M  V30 1970 H 178.676 -2.8316 -4.02593 0
M  V30 1971 N 180.328 1.1314 -1.09713 0
M  V30 1972 C 181.275 2.18642 -0.739196 0
M  V30 1973 C 182.245 1.63706 0.280978 0
M  V30 1974 O 183.43 1.90111 0.161946 0
M  V30 1975 C 180.57 3.44685 -0.169102 0
M  V30 1976 C 179.683 4.13711 -1.24367 0
M  V30 1977 C 178.818 5.27379 -0.636019 0
M  V30 1978 C 177.857 5.88259 -1.69169 0
M  V30 1979 N 176.994 6.93352 -1.10485 0
M  V30 1980 H 181.834 2.48607 -1.64312 0
M  V30 1981 H 179.371 1.22066 -0.820875 0
M  V30 1982 H 181.329 4.16815 0.179256 0
M  V30 1983 H 179.959 3.15161 0.698079 0
M  V30 1984 H 179.011 3.39835 -1.70927 0
M  V30 1985 H 180.323 4.55037 -2.04311 0
M  V30 1986 H 179.477 6.06238 -0.236677 0
M  V30 1987 H 178.216 4.8731 0.194928 0
M  V30 1988 H 177.221 5.08092 -2.10055 0
M  V30 1989 H 178.446 6.30399 -2.52536 0
M  V30 1990 H 176.392 6.55335 -0.295234 0
M  V30 1991 H 176.309 7.33236 -1.84121 0
M  V30 1992 H 177.577 7.76057 -0.73181 0
M  V30 1993 N 181.806 0.884767 1.30421 0
M  V30 1994 C 183.052 0.503851 1.96441 0
M  V30 1995 C 183.385 -0.944518 1.69684 0
M  V30 1996 O 182.66 -1.66737 1.00145 0
M  V30 1997 C 182.943 0.779085 3.51571 0
M  V30 1998 C 182.796 2.27807 3.87846 0
M  V30 1999 C 184.115 0.255452 4.39358 0
M  V30 2000 H 181.234 0.184533 0.713524 0
M  V30 2001 H 183.876 1.10872 1.54297 0
M  V30 2002 H 182.026 0.264274 3.876 0
M  V30 2003 H 183.698 2.86127 3.61841 0
M  V30 2004 H 181.941 2.74479 3.35922 0
M  V30 2005 H 182.612 2.42125 4.96064 0
M  V30 2006 H 185.088 0.696079 4.10236 0
M  V30 2007 H 183.964 0.477361 5.4682 0
M  V30 2008 H 184.225 -0.843293 4.33983 0
M  V30 2009 N 183.284 -1.43765 0.645699 0
M  V30 2010 C 184.561 -1.9541 0.0862963 0
M  V30 2011 C 184.941 -1.58725 -1.39175 0
M  V30 2012 O 184.289 -0.868581 -2.11348 0
M  V30 2013 C 184.499 -3.47488 0.324565 0
M  V30 2014 C 185.847 -4.24001 0.225497 0
M  V30 2015 O 186.871 -3.55274 0.256715 0
M  V30 2016 O 185.73 -5.46313 0.142801 0
M  V30 2017 H 182.824 -0.826882 -0.0139483 0
M  V30 2018 H 185.37 -1.53743 0.718415 0
M  V30 2019 H 184.142 -3.67289 1.3496 0
M  V30 2020 H 183.765 -3.96135 -0.340987 0
M  V30 2021 N 184.763 -0.387143 -1.52771 0
M  V30 2022 C 185.695 0.484089 -2.2403 0
M  V30 2023 C 186.708 1.02849 -1.26198 0
M  V30 2024 O 187.897 0.931186 -1.52286 0
M  V30 2025 C 184.997 1.68337 -2.94136 0
M  V30 2026 C 184.17 1.26672 -4.18656 0
M  V30 2027 C 183.229 2.33045 -4.7178 0
M  V30 2028 O 182.255 1.94541 -5.34923 0
M  V30 2029 N 183.457 3.64929 -4.5145 0
M  V30 2030 H 186.222 -0.126404 -2.99433 0
M  V30 2031 H 183.783 -0.213392 -1.60488 0
M  V30 2032 H 185.775 2.39019 -3.26577 0
M  V30 2033 H 184.345 2.20025 -2.22053 0
M  V30 2034 H 183.565 0.388878 -3.92277 0
M  V30 2035 H 184.853 0.964964 -4.99566 0
M  V30 2036 H 184.251 3.98974 -4.01044 0
M  V30 2037 H 182.808 4.31651 -4.88386 0
M  V30 2038 N 186.241 1.57166 -0.116904 0
M  V30 2039 C 187.487 1.95412 0.542405 0
M  V30 2040 C 187.82 1.00019 1.66463 0
M  V30 2041 O 187.095 0.0370346 1.94465 0
M  V30 2042 C 187.378 3.43615 1.07708 0
M  V30 2043 C 187.231 4.49781 -0.0415868 0
M  V30 2044 C 188.55 3.93616 1.96861 0
M  V30 2045 H 185.669 0.710543 0.195696 0
M  V30 2046 H 188.311 1.89027 -0.192038 0
M  V30 2047 H 186.461 3.49187 1.70296 0
M  V30 2048 H 188.133 4.56308 -0.676793 0
M  V30 2049 H 186.376 4.28033 -0.705019 0
M  V30 2050 H 187.047 5.50733 0.373717 0
M  V30 2051 H 189.523 3.90335 1.44146 0
M  V30 2052 H 188.399 4.97838 2.3119 0
M  V30 2053 H 188.66 3.34188 2.89432 0
M  V30 2054 N 187.719 -0.156864 1.56817 0
M  V30 2055 C 188.996 -0.899244 1.73704 0
M  V30 2056 C 189.376 -1.99771 0.682254 0
M  V30 2057 O 188.724 -2.26515 -0.300522 0
M  V30 2058 C 188.934 -1.45075 3.17418 0
M  V30 2059 C 190.282 -1.91802 3.7881 0
M  V30 2060 O 191.306 -1.54838 3.20786 0
M  V30 2061 O 190.165 -2.5994 4.80722 0
M  V30 2062 H 187.259 -0.424267 0.709878 0
M  V30 2063 H 189.805 -0.143561 1.69092 0
M  V30 2064 H 188.577 -0.660846 3.85679 0
M  V30 2065 H 188.2 -2.27021 3.26416 0
M  V30 2066 N 189.197 -1.51736 -0.425897 0
M  V30 2067 C 190.427 -1.68549 -1.19476 0
M  V30 2068 C 190.835 -0.387288 -1.85194 0
M  V30 2069 O 190.178 0.645142 -1.71999 0
M  V30 2070 C 190.24 -2.75275 -2.31223 0
M  V30 2071 C 189.904 -4.17534 -1.8578 0
M  V30 2072 C 190.901 -5.01936 -1.35485 0
M  V30 2073 C 188.586 -4.6369 -1.93123 0
M  V30 2074 C 190.58 -6.30559 -0.931347 0
M  V30 2075 C 188.267 -5.92307 -1.50384 0
M  V30 2076 C 189.265 -6.75569 -1.00473 0
M  V30 2077 O 188.953 -8.0178 -0.583452 0
M  V30 2078 H 188.685 -0.568525 -0.365725 0
M  V30 2079 H 191.239 -1.98982 -0.509444 0
M  V30 2080 H 189.469 -2.40182 -3.03067 0
M  V30 2081 H 191.158 -2.80853 -2.93047 0
M  V30 2082 H 191.924 -4.67475 -1.29197 0
M  V30 2083 H 187.803 -3.98997 -2.30916 0
M  V30 2084 H 191.347 -6.95498 -0.541084 0
M  V30 2085 H 187.244 -6.2628 -1.56346 0
M  V30 2086 H 188.012 -8.1543 -0.708275 0
M  V30 2087 N 190.675 0.682077 -1.42076 0
M  V30 2088 C 191.605 1.80796 -1.47767 0
M  V30 2089 C 192.586 1.6677 -0.334954 0
M  V30 2090 O 193.771 1.863 -0.548264 0
M  V30 2091 C 190.901 3.19038 -1.37229 0
M  V30 2092 C 189.855 3.47789 -2.49453 0
M  V30 2093 C 189.181 4.8553 -2.23975 0
M  V30 2094 C 190.481 3.45411 -3.91776 0
M  V30 2095 H 192.175 1.7629 -2.41997 0
M  V30 2096 H 189.721 0.846721 -1.16476 0
M  V30 2097 H 191.674 3.97528 -1.39821 0
M  V30 2098 H 190.398 3.24204 -0.394907 0
M  V30 2099 H 189.057 2.71657 -2.46166 0
M  V30 2100 H 188.705 4.87337 -1.24547 0
M  V30 2101 H 188.405 5.0573 -2.99184 0
M  V30 2102 H 189.929 5.66312 -2.28304 0
M  V30 2103 H 191.343 4.13882 -3.96705 0
M  V30 2104 H 189.74 3.77145 -4.66778 0
M  V30 2105 H 190.81 2.44122 -4.18966 0
M  V30 2106 N 192.153 1.28127 0.917671 0
M  V30 2107 C 193.083 1.14248 2.03641 0
M  V30 2108 C 194.064 0.0412748 1.7005 0
M  V30 2109 O 195.249 0.217566 1.92977 0
M  V30 2110 C 192.379 0.799431 3.37974 0
M  V30 2111 C 191.333 1.85497 3.85713 0
M  V30 2112 C 190.659 1.36565 5.16966 0
M  V30 2113 C 191.959 3.26085 4.08002 0
M  V30 2114 H 193.653 2.07835 2.15511 0
M  V30 2115 H 191.199 1.00064 1.03553 0
M  V30 2116 H 193.152 0.689114 4.15727 0
M  V30 2117 H 191.876 -0.172145 3.26146 0
M  V30 2118 H 190.535 1.95437 3.10161 0
M  V30 2119 H 190.183 0.383253 5.01538 0
M  V30 2120 H 189.883 2.07143 5.49878 0
M  V30 2121 H 191.407 1.26848 5.97279 0
M  V30 2122 H 192.821 3.19089 4.76293 0
M  V30 2123 H 191.218 3.94462 4.52238 0
M  V30 2124 H 192.288 3.70394 3.12948 0
M  V30 2125 N 193.631 -1.12557 1.10312 0
M  V30 2126 C 194.581 -2.16331 0.720076 0
M  V30 2127 C 195.565 -1.58616 -0.270115 0
M  V30 2128 O 196.757 -1.76823 -0.0790507 0
M  V30 2129 C 193.886 -3.42963 0.152113 0
M  V30 2130 C 192.972 -4.07663 1.16927 0
M  V30 2131 N 193.363 -4.47392 2.35953 0
M  V30 2132 C 191.661 -4.34425 1.0095 0
M  V30 2133 C 192.362 -4.97932 3.0073 0
M  V30 2134 N 191.338 -4.93358 2.28252 0
M  V30 2135 H 195.14 -2.44813 1.62616 0
M  V30 2136 H 192.654 -1.29449 0.980654 0
M  V30 2137 H 194.651 -4.16664 -0.14037 0
M  V30 2138 H 193.311 -3.1595 -0.748701 0
M  V30 2139 H 194.322 -4.39802 2.73486 0
M  V30 2140 H 190.999 -4.17177 0.164134 0
M  V30 2141 H 192.389 -5.38397 4.01969 0
M  V30 2142 N 195.109 -0.891671 -1.2995 0
M  V30 2143 C 196.041 -0.320695 -2.26945 0
M  V30 2144 C 197.054 0.528497 -1.53983 0
M  V30 2145 O 198.243 0.346959 -1.75096 0
M  V30 2146 C 195.343 0.562066 -3.34207 0
M  V30 2147 C 194.516 -0.259576 -4.36629 0
M  V30 2148 C 193.575 0.554739 -5.23268 0
M  V30 2149 O 192.601 -0.0249311 -5.69195 0
M  V30 2150 N 193.803 1.8625 -5.4981 0
M  V30 2151 H 196.568 -1.15432 -2.76578 0
M  V30 2152 H 194.129 -0.755336 -1.432 0
M  V30 2153 H 196.121 1.11304 -3.89093 0
M  V30 2154 H 194.691 1.29637 -2.84452 0
M  V30 2155 H 193.911 -0.991986 -3.81514 0
M  V30 2156 H 195.199 -0.822564 -5.02107 0
M  V30 2157 H 194.597 2.35628 -5.14292 0
M  V30 2158 H 193.154 2.36078 -6.07545 0
M  V30 2159 N 196.587 1.43421 -0.653314 0
M  V30 2160 C 197.517 2.33487 0.0246656 0
M  V30 2161 C 198.498 1.49475 0.811863 0
M  V30 2162 O 199.683 1.78139 0.773322 0
M  V30 2163 C 196.813 3.32841 0.99166 0
M  V30 2164 C 195.767 4.26842 0.314568 0
M  V30 2165 C 195.093 5.16236 1.39302 0
M  V30 2166 C 196.393 5.16243 -0.793095 0
M  V30 2167 H 198.087 2.90427 -0.727481 0
M  V30 2168 H 195.633 1.39649 -0.351287 0
M  V30 2169 H 197.586 3.94747 1.47487 0
M  V30 2170 H 196.31 2.74158 1.77497 0
M  V30 2171 H 194.969 3.663 -0.148199 0
M  V30 2172 H 194.617 4.53891 2.16776 0
M  V30 2173 H 194.317 5.79948 0.945223 0
M  V30 2174 H 195.841 5.81015 1.87759 0
M  V30 2175 H 197.255 5.71958 -0.392039 0
M  V30 2176 H 195.652 5.88676 -1.16536 0
M  V30 2177 H 196.722 4.55927 -1.65103 0
M  V30 2178 N 198.065 0.39524 1.52563 0
M  V30 2179 C 199.012 -0.437036 2.26624 0
M  V30 2180 C 199.982 -1.05281 1.28472 0
M  V30 2181 O 201.167 -1.07971 1.57311 0
M  V30 2182 C 198.307 -1.55524 3.08069 0
M  V30 2183 C 197.42 -0.961745 4.21158 0
M  V30 2184 C 196.555 -2.05149 4.89987 0
M  V30 2185 C 195.594 -1.4342 5.95061 0
M  V30 2186 N 194.731 -2.46351 6.57462 0
M  V30 2187 H 199.571 0.200976 2.97322 0
M  V30 2188 H 197.108 0.110944 1.46681 0
M  V30 2189 H 199.066 -2.21437 3.53584 0
M  V30 2190 H 197.696 -2.16348 2.3957 0
M  V30 2191 H 196.748 -0.192048 3.79915 0
M  V30 2192 H 198.06 -0.470701 4.96574 0
M  V30 2193 H 197.214 -2.78819 5.38837 0
M  V30 2194 H 195.953 -2.57615 4.14109 0
M  V30 2195 H 194.958 -0.682774 5.45544 0
M  V30 2196 H 196.183 -0.917416 6.72875 0
M  V30 2197 H 194.129 -2.97975 5.8442 0
M  V30 2198 H 194.046 -2.02019 7.28508 0
M  V30 2199 H 195.314 -3.19633 7.10954 0
M  V30 2200 N 199.544 -1.57102 0.125237 0
M  V30 2201 C 200.492 -2.16905 -0.839927 0
M  V30 2202 C 201.486 -1.11998 -1.27094 0
M  V30 2203 O 202.692 -1.3029 -1.24195 0
M  V30 2204 H 199.067 -0.694252 -0.288995 0
M  V30 2205 H 201.038 -2.96774 -0.311115 0
M  V30 2206 C 199.787 -2.78795 -2.07771 0
M  V30 2207 H 199.11 -3.59221 -1.755 0
M  V30 2208 H 200.55 -3.2417 -2.73295 0
M  V30 2209 C 199.009 -1.76193 -2.87155 0
M  V30 2210 O 199.539 -1.21909 -3.82755 0
M  V30 2211 N 197.745 -1.45991 -2.51267 0
M  V30 2212 H 197.292 -1.90325 -1.73592 0
M  V30 2213 H 197.25 -0.775844 -3.04677 0
M  V30 2214 N 201.022 0.148545 -1.56898 0
M  V30 2215 C 201.97 1.20265 -1.99096 0
M  V30 2216 C 202.964 1.44559 -0.883123 0
M  V30 2217 O 204.17 1.4487 -1.0683 0
M  V30 2218 H 200.545 0.404786 -0.63376 0
M  V30 2219 H 202.516 0.82004 -2.86911 0
M  V30 2220 C 201.265 2.52886 -2.3863 0
M  V30 2221 H 200.588 2.35021 -3.23427 0
M  V30 2222 H 202.028 3.25274 -2.7198 0
M  V30 2223 C 200.487 3.13315 -1.23837 0
M  V30 2224 O 201.017 3.98077 -0.538268 0
M  V30 2225 N 199.223 2.72742 -1.00301 0
M  V30 2226 H 198.77 2.03912 -1.5741 0
M  V30 2227 H 198.728 3.13507 -0.236838 0
M  V30 2228 N 202.5 1.5196 0.417844 0
M  V30 2229 C 203.911 1.57851 0.997 0
M  V30 2230 C 204.262 0.413714 1.91789 0
M  V30 2231 O 203.387 -0.467057 2.113 0
M  V30 2232 C 203.982 2.86085 1.81496 0
M  V30 2233 C 202.541 2.94483 2.34428 0
M  V30 2234 C 201.688 2.52707 1.14169 0
M  V30 2235 H 204.639 1.57455 0.198392 0
M  V30 2236 H 204.66 2.70947 2.67148 0
M  V30 2237 H 204.172 3.70842 1.14446 0
M  V30 2238 H 202.273 2.142 3.04875 0
M  V30 2239 H 202.386 3.98546 2.65891 0
M  V30 2240 H 200.75 2.06353 1.49301 0
M  V30 2241 H 201.533 3.39828 0.486999 0
M  V30 2242 N 203.978 -0.674533 1.42435 0
M  V30 2243 C 205.203 -1.46784 1.46524 0
M  V30 2244 C 205.628 -1.87938 0.078066 0
M  V30 2245 O 204.986 -1.56014 -0.92354 0
M  V30 2246 C 205.034 -2.69307 2.39805 0
M  V30 2247 O 204.138 -3.67587 1.86959 0
M  V30 2248 H 203.479 -0.440959 0.496439 0
M  V30 2249 H 206.009 -0.827326 1.87127 0
M  V30 2250 H 206.019 -3.17374 2.56393 0
M  V30 2251 H 204.694 -2.38692 3.40586 0
M  V30 2252 H 203.271 -3.2662 1.79927 0
M  V30 2253 N 205.456 -1.28612 -0.910864 0
M  V30 2254 C 206.681 -1.1891 -1.69927 0
M  V30 2255 C 207.106 0.248372 -1.86453 0
M  V30 2256 O 206.464 1.17961 -1.37676 0
M  V30 2257 C 206.512 -1.89578 -3.06745 0
M  V30 2258 O 205.616 -1.20521 -3.94396 0
M  V30 2259 H 204.957 -0.412632 -0.520222 0
M  V30 2260 H 207.487 -1.69985 -1.1387 0
M  V30 2261 H 207.497 -1.97597 -3.56958 0
M  V30 2262 H 206.172 -2.94136 -2.94035 0
M  V30 2263 H 204.749 -1.20684 -3.52831 0
M  V30 2264 N 206.934 1.1197 -1.10907 0
M  V30 2265 C 208.35 1.35591 -0.841852 0
M  V30 2266 C 208.55 1.94233 0.536246 0
M  V30 2267 O 207.606 2.1717 1.28816 0
M  V30 2268 C 208.919 2.29284 -1.94549 0
M  V30 2269 C 210.467 2.42862 -1.97451 0
M  V30 2270 C 210.942 3.39873 -3.07002 0
M  V30 2271 N 212.433 3.47433 -3.06341 0
M  V30 2272 C 213.168 4.22421 -3.87748 0
M  V30 2273 N 212.664 5.00432 -4.79103 0
M  V30 2274 N 214.457 4.17876 -3.75946 0
M  V30 2275 H 206.608 0.722664 -1.99728 0
M  V30 2276 H 208.871 0.380635 -0.868229 0
M  V30 2277 H 208.577 1.93378 -2.93765 0
M  V30 2278 H 208.451 3.29452 -1.83688 0
M  V30 2279 H 210.838 2.78046 -0.988645 0
M  V30 2280 H 210.919 1.42566 -2.12388 0
M  V30 2281 H 210.563 3.05417 -4.05811 0
M  V30 2282 H 210.493 4.40011 -2.89306 0
M  V30 2283 H 212.984 2.91784 -2.40147 0
M  V30 2284 H 213.297 5.55002 -5.37766 0
M  V30 2285 H 211.642 4.99612 -4.83128 0
M  V30 2286 H 214.833 3.56016 -3.03924 0
M  V30 2287 H 215.006 4.76061 -4.39624 0
M  V30 2288 N 208.412 0.89855 1.29475 0
M  V30 2289 C 209.828 0.594483 1.48115 0
M  V30 2290 C 210.028 -0.86431 1.82022 0
M  V30 2291 O 209.084 -1.64457 1.91599 0
M  V30 2292 C 210.397 1.51932 2.59494 0
M  V30 2293 C 211.945 1.5244 2.7337 0
M  V30 2294 C 212.42 2.43548 3.87877 0
M  V30 2295 N 213.911 2.41589 3.95208 0
M  V30 2296 C 214.646 3.08789 4.83153 0
M  V30 2297 N 214.142 3.85265 5.75798 0
M  V30 2298 N 215.935 2.97952 4.76635 0
M  V30 2299 H 208.086 1.84207 1.05742 0
M  V30 2300 H 210.349 0.789251 0.525154 0
M  V30 2301 H 210.055 2.55865 2.41301 0
M  V30 2302 H 209.929 1.23899 3.56271 0
M  V30 2303 H 212.316 0.492518 2.90961 0
M  V30 2304 H 212.397 1.8451 1.77172 0
M  V30 2305 H 212.041 3.46829 3.71041 0
M  V30 2306 H 211.971 2.08788 4.83441 0
M  V30 2307 H 214.462 1.86025 3.28943 0
M  V30 2308 H 214.775 4.33598 6.39697 0
M  V30 2309 H 213.12 3.89371 5.75687 0
M  V30 2310 H 216.311 2.37723 4.03244 0
M  V30 2311 H 216.484 3.50599 5.44962 0
M  V30 2312 N 209.89 -1.43072 0.660911 0
M  V30 2313 C 210.84 -2.27948 -0.04847 0
M  V30 2314 C 211.824 -1.40325 -0.787246 0
M  V30 2315 O 213.016 -1.63893 -0.668446 0
M  V30 2316 C 210.145 -3.28143 -1.00881 0
M  V30 2317 C 209.231 -4.23252 -0.268108 0
M  V30 2318 N 209.622 -5.00656 0.719528 0
M  V30 2319 C 207.92 -4.43092 -0.508493 0
M  V30 2320 C 208.621 -5.70019 1.15988 0
M  V30 2321 N 207.597 -5.41364 0.492584 0
M  V30 2322 H 211.399 -2.85213 0.709279 0
M  V30 2323 H 208.913 -1.54869 0.488822 0
M  V30 2324 H 210.91 -3.87736 -1.53188 0
M  V30 2325 H 209.57 -2.7244 -1.76654 0
M  V30 2326 H 210.581 -5.06115 1.09855 0
M  V30 2327 H 207.258 -3.98449 -1.24679 0
M  V30 2328 H 208.648 -6.4214 1.97751 0
M  V30 2329 N 211.368 -0.403325 -1.52352 0
M  V30 2330 C 212.617 0.175668 -2.00934 0
M  V30 2331 C 212.93 1.46718 -1.29356 0
M  V30 2332 O 214.136 2.12708 -1.68724 0
M  V30 2333 C 212.592 0.363612 -3.58058 0
M  V30 2334 C 212.2 -0.915472 -4.38547 0
M  V30 2335 C 213.944 0.89821 -4.14888 0
M  V30 2336 C 211.851 -0.695035 -5.87302 0
M  V30 2337 H 210.781 0.0694234 -0.750797 0
M  V30 2338 H 213.432 -0.527879 -1.75743 0
M  V30 2339 H 211.814 1.12935 -3.79555 0
M  V30 2340 H 212.988 -1.68691 -4.28812 0
M  V30 2341 H 211.303 -1.37606 -3.93006 0
M  V30 2342 H 213.9 1.07907 -5.23699 0
M  V30 2343 H 214.243 1.87126 -3.71873 0
M  V30 2344 H 214.776 0.191681 -3.97338 0
M  V30 2345 H 211.515 -1.63948 -6.34666 0
M  V30 2346 H 211.035 0.0372116 -5.99788 0
M  V30 2347 H 212.714 -0.33497 -6.46132 0
M  V30 2348 N 212.846 1.57033 -0.133567 0
M  V30 2349 C 214.074 2.00044 0.528195 0
M  V30 2350 C 214.489 1.01349 1.59291 0
M  V30 2351 O 213.846 0.00848369 1.82498 0
M  V30 2352 C 213.897 3.43018 1.1411 0
M  V30 2353 O 213.618 4.37939 0.11892 0
M  V30 2354 C 215.119 4.01237 1.88477 0
M  V30 2355 H 212.339 0.656517 0.138661 0
M  V30 2356 H 214.883 2.03267 -0.224196 0
M  V30 2357 H 213.038 3.40688 1.84418 0
M  V30 2358 H 213.452 5.21436 0.56613 0
M  V30 2359 H 214.926 5.03314 2.26669 0
M  V30 2360 H 215.403 3.41193 2.76558 0
M  V30 2361 H 216.009 4.07156 1.22898 0
M  V30 2362 N 214.325 -0.140222 1.56975 0
M  V30 2363 C 215.258 -1.20266 1.93936 0
M  V30 2364 C 216.236 -1.41212 0.806099 0
M  V30 2365 O 217.42 -1.55713 1.06234 0
M  V30 2366 C 214.547 -2.56037 2.21726 0
M  V30 2367 C 213.593 -2.51646 3.44349 0
M  V30 2368 S 214.426 -1.97678 4.97678 0
M  V30 2369 C 215.582 -3.35165 5.28597 0
M  V30 2370 H 215.815 -0.887358 2.83749 0
M  V30 2371 H 213.348 -0.346119 1.50471 0
M  V30 2372 H 215.306 -3.34167 2.38416 0
M  V30 2373 H 213.967 -2.84755 1.32566 0
M  V30 2374 H 213.16 -3.51608 3.61092 0
M  V30 2375 H 212.762 -1.81628 3.26936 0
M  V30 2376 H 215.054 -4.31302 5.2248 0
M  V30 2377 H 215.997 -3.23269 6.30002 0
M  V30 2378 H 216.405 -3.32614 4.56101 0
M  V30 2379 N 215.803 -1.52179 -0.40978 0
M  V30 2380 C 216.733 -1.78435 -1.5061 0
M  V30 2381 C 217.714 -0.635295 -1.57791 0
M  V30 2382 O 218.899 -0.880823 -1.73076 0
M  V30 2383 C 216.029 -1.93444 -2.88439 0
M  V30 2384 C 214.983 -3.09038 -2.96108 0
M  V30 2385 C 214.309 -3.09268 -4.36185 0
M  V30 2386 C 215.609 -4.48508 -2.67652 0
M  V30 2387 H 217.303 -2.70237 -1.28889 0
M  V30 2388 H 214.849 -1.30036 -0.618605 0
M  V30 2389 H 216.802 -2.10394 -3.65119 0
M  V30 2390 H 215.526 -0.983129 -3.11452 0
M  V30 2391 H 214.185 -2.91837 -2.21872 0
M  V30 2392 H 213.833 -2.11861 -4.56206 0
M  V30 2393 H 213.533 -3.86907 -4.42241 0
M  V30 2394 H 215.057 -3.28348 -5.14801 0
M  V30 2395 H 216.471 -4.65918 -3.34056 0
M  V30 2396 H 214.868 -5.28059 -2.85085 0
M  V30 2397 H 215.938 -4.56649 -1.63095 0
M  V30 2398 N 217.281 0.66697 -1.42791 0
M  V30 2399 C 218.527 1.42754 -1.44889 0
M  V30 2400 C 218.882 1.92283 -0.0669755 0
M  V30 2401 O 218.175 1.68494 0.912154 0
M  V30 2402 C 218.369 2.6349 -2.4147 0
M  V30 2403 C 218.198 2.25776 -3.88915 0
M  V30 2404 C 216.968 2.1476 -4.57391 0
M  V30 2405 C 219.166 1.86927 -4.79127 0
M  V30 2406 N 217.148 1.70232 -5.89826 0
M  V30 2407 C 218.519 1.53378 -6.00729 0
M  V30 2408 C 220.574 1.73989 -4.66511 0
M  V30 2409 C 219.277 1.08187 -7.11117 0
M  V30 2410 C 221.303 1.30203 -5.76889 0
M  V30 2411 C 220.665 0.975818 -6.97608 0
M  V30 2412 H 216.764 0.518559 -0.585338 0
M  V30 2413 H 219.348 0.768906 -1.78874 0
M  V30 2414 H 217.519 3.27033 -2.09533 0
M  V30 2415 H 219.251 3.30123 -2.34096 0
M  V30 2416 H 216.006 2.3408 -4.11708 0
M  V30 2417 H 216.43 1.50369 -6.6009 0
M  V30 2418 H 221.072 1.97853 -3.7365 0
M  V30 2419 H 218.79 0.830701 -8.03819 0
M  V30 2420 H 222.376 1.20701 -5.69142 0
M  V30 2421 H 221.256 0.642157 -7.81566 0
M  V30 2422 N 218.759 1.29093 0.90403 0
M  V30 2423 C 219.707 1.13727 2.02901 0
M  V30 2424 C 220.701 0.0539853 1.69314 0
M  V30 2425 O 221.907 0.213469 1.7873 0
M  V30 2426 H 218.282 0.35117 0.664969 0
M  V30 2427 H 220.253 2.08982 2.13001 0
M  V30 2428 C 219.002 0.826066 3.37745 0
M  V30 2429 H 218.325 1.65164 3.64089 0
M  V30 2430 H 219.765 0.758559 4.17159 0
M  V30 2431 C 218.224 -0.470541 3.33598 0
M  V30 2432 O 218.754 -1.49792 3.72727 0
M  V30 2433 N 216.96 -0.474812 2.86695 0
M  V30 2434 H 216.507 0.361692 2.55048 0
M  V30 2435 H 216.465 -1.34236 2.84303 0
M  V30 2436 N 220.237 -1.11381 1.11499 0
M  V30 2437 C 221.648 -1.6465 0.880191 0
M  V30 2438 C 221.999 -1.87199 -0.587434 0
M  V30 2439 O 221.124 -1.60667 -1.44966 0
M  V30 2440 C 221.719 -2.99105 1.59128 0
M  V30 2441 C 220.278 -3.49279 1.40289 0
M  V30 2442 C 219.425 -2.24077 1.63354 0
M  V30 2443 H 222.376 -0.950123 1.27116 0
M  V30 2444 H 222.397 -3.66107 1.03664 0
M  V30 2445 H 221.909 -2.82661 2.65941 0
M  V30 2446 H 220.01 -3.70887 0.356888 0
M  V30 2447 H 220.123 -4.2803 2.15238 0
M  V30 2448 H 218.487 -2.31733 1.05698 0
M  V30 2449 H 219.27 -2.10175 2.71443 0
M  V30 2450 N 221.715 -0.905404 -1.28997 0
M  V30 2451 C 222.992 -0.453513 -1.9027 0
M  V30 2452 C 223.372 1.06721 -1.82137 0
M  V30 2453 O 222.72 1.91159 -1.25182 0
M  V30 2454 C 222.93 -0.974494 -3.35119 0
M  V30 2455 C 224.278 -1.0216 -4.12127 0
M  V30 2456 O 225.302 -0.922557 -3.44046 0
M  V30 2457 O 224.161 -1.17121 -5.33802 0
M  V30 2458 H 221.255 -0.142347 -0.814657 0
M  V30 2459 H 223.801 -0.995642 -1.37423 0
M  V30 2460 H 222.573 -2.01848 -3.35221 0
M  V30 2461 H 222.196 -0.412706 -3.95452 0
M  V30 2462 N 223.193 1.4272 -0.668489 0
M  V30 2463 C 224.103 2.34596 0.0139753 0
M  V30 2464 C 225.119 1.5474 0.795703 0
M  V30 2465 O 226.295 1.87334 0.739466 0
M  V30 2466 C 223.36 3.33202 0.957982 0
M  V30 2467 C 222.421 4.28957 0.17149 0
M  V30 2468 C 221.654 5.22853 1.07053 0
M  V30 2469 O 221.877 5.21531 2.31001 0
M  V30 2470 O 220.811 5.9952 0.534727 0
M  V30 2471 H 224.637 2.9448 -0.742661 0
M  V30 2472 H 222.222 1.43117 -0.428705 0
M  V30 2473 H 224.104 3.93796 1.50008 0
M  V30 2474 H 222.779 2.758 1.69458 0
M  V30 2475 H 221.686 3.71796 -0.414558 0
M  V30 2476 H 223.019 4.89383 -0.52586 0
M  V30 2477 N 224.671 0.411399 1.52136 0
M  V30 2478 C 225.601 -0.404015 2.29978 0
M  V30 2479 C 226.582 -1.04412 1.34284 0
M  V30 2480 O 227.767 -1.0527 1.63192 0
M  V30 2481 C 224.897 -1.5197 3.12286 0
M  V30 2482 C 223.851 -1.00448 4.16046 0
M  V30 2483 C 223.177 -2.21393 4.86712 0
M  V30 2484 C 224.477 -0.0569336 5.22269 0
M  V30 2485 H 226.171 0.245529 2.98392 0
M  V30 2486 H 223.717 0.119525 1.43503 0
M  V30 2487 H 225.67 -2.09715 3.6551 0
M  V30 2488 H 224.394 -2.19716 2.41646 0
M  V30 2489 H 223.053 -0.449421 3.63835 0
M  V30 2490 H 222.701 -2.87699 4.12599 0
M  V30 2491 H 222.401 -1.87571 5.56858 0
M  V30 2492 H 223.925 -2.7974 5.4275 0
M  V30 2493 H 225.339 -0.54325 5.7072 0
M  V30 2494 H 223.736 0.192594 5.99791 0
M  V30 2495 H 224.806 0.887663 4.76706 0
M  V30 2496 N 226.149 -1.5696 0.141893 0
M  V30 2497 C 227.426 -1.87553 -0.555281 0
M  V30 2498 C 227.806 -1.04699 -1.83306 0
M  V30 2499 O 227.154 -0.132346 -2.28116 0
M  V30 2500 C 227.364 -3.39093 -0.825664 0
M  V30 2501 C 228.712 -4.08199 -1.16869 0
M  V30 2502 O 229.736 -3.44242 -0.915185 0
M  V30 2503 O 228.595 -5.21139 -1.6455 0
M  V30 2504 H 225.689 -0.777188 -0.282679 0
M  V30 2505 H 228.235 -1.68763 0.17812 0
M  V30 2506 H 227.007 -3.91221 0.0788633 0
M  V30 2507 H 226.63 -3.63393 -1.61343 0
M  V30 2508 N 227.627 0.131896 -1.57047 0
M  V30 2509 C 228.59 1.14638 -1.98471 0
M  V30 2510 C 229.59 1.35029 -0.873148 0
M  V30 2511 O 230.78 1.31764 -1.13946 0
M  V30 2512 C 227.912 2.50358 -2.31373 0
M  V30 2513 H 229.105 0.79064 -2.8929 0
M  V30 2514 H 226.658 0.375761 -1.51716 0
M  V30 2515 H 227.393 2.90876 -1.43393 0
M  V30 2516 H 227.178 2.36915 -3.12432 0
M  V30 2517 H 228.668 3.23395 -2.64207 0
M  V30 2518 N 229.106 1.52395 0.401703 0
M  V30 2519 C 230.039 1.70999 1.51111 0
M  V30 2520 C 231.017 0.55765 1.52738 0
M  V30 2521 O 232.201 0.785912 1.71335 0
M  V30 2522 C 229.328 1.75607 2.8962 0
M  V30 2523 C 228.374 2.97227 3.05873 0
M  V30 2524 S 229.207 4.57439 2.78405 0
M  V30 2525 C 230.363 4.64844 4.19131 0
M  V30 2526 H 230.596 2.6483 1.35102 0
M  V30 2527 H 228.129 1.42527 0.593762 0
M  V30 2528 H 230.087 1.78947 3.69443 0
M  V30 2529 H 228.748 0.828914 3.02965 0
M  V30 2530 H 227.941 2.96955 4.07227 0
M  V30 2531 H 227.543 2.91813 2.33925 0
M  V30 2532 H 229.835 4.42677 5.12877 0
M  V30 2533 H 230.778 5.66807 4.24424 0
M  V30 2534 H 231.186 3.93804 4.04448 0
M  V30 2535 N 230.584 -0.659388 1.43143 0
M  V30 2536 C 231.547 -1.75432 1.47501 0
M  V30 2537 C 232.547 -1.56707 0.360512 0
M  V30 2538 O 233.737 -1.62717 0.622002 0
M  V30 2539 C 230.869 -3.14239 1.32162 0
M  V30 2540 H 232.062 -1.7295 2.45006 0
M  V30 2541 H 229.615 -0.870469 1.29817 0
M  V30 2542 H 230.35 -3.22336 0.356401 0
M  V30 2543 H 230.135 -3.29235 2.12948 0
M  V30 2544 H 231.625 -3.94094 1.3813 0
M  V30 2545 N 232.062 -1.29571 -0.897171 0
M  V30 2546 C 232.992 -1.17473 -2.01798 0
M  V30 2547 C 233.973 -0.068323 -1.69963 0
M  V30 2548 O 235.158 -0.248239 -1.92607 0
M  V30 2549 C 232.288 -0.853099 -3.36659 0
M  V30 2550 C 231.242 -1.9161 -3.82713 0
M  V30 2551 C 230.568 -1.44773 -5.14728 0
M  V30 2552 C 231.868 -3.32535 -4.02763 0
M  V30 2553 H 233.562 -2.11237 -2.12177 0
M  V30 2554 H 231.108 -1.01699 -1.01948 0
M  V30 2555 H 233.061 -0.755165 -4.14578 0
M  V30 2556 H 231.785 0.120236 -3.26379 0
M  V30 2557 H 230.444 -2.00346 -3.07013 0
M  V30 2558 H 230.092 -0.462995 -5.00865 0
M  V30 2559 H 229.792 -2.15865 -5.46513 0
M  V30 2560 H 231.316 -1.36334 -5.95185 0
M  V30 2561 H 232.73 -3.26626 -4.71156 0
M  V30 2562 H 231.127 -4.01607 -4.45905 0
M  V30 2563 H 232.197 -3.75326 -3.07016 0
M  V30 2564 N 233.54 1.10788 -1.12088 0
M  V30 2565 C 234.768 1.86461 -0.896651 0
M  V30 2566 C 235.183 1.80492 0.553912 0
M  V30 2567 O 234.54 1.19102 1.38278 0
M  V30 2568 C 234.591 3.35006 -1.35843 0
M  V30 2569 O 234.312 3.40866 -2.75213 0
M  V30 2570 C 235.813 4.27565 -1.1706 0
M  V30 2571 H 233.033 0.589425 -0.320654 0
M  V30 2572 H 235.577 1.40076 -1.48993 0
M  V30 2573 H 233.732 3.7887 -0.808458 0
M  V30 2574 H 234.146 4.33411 -2.9539 0
M  V30 2575 H 235.62 5.30007 -1.54263 0
M  V30 2576 H 236.097 4.3906 -0.110814 0
M  V30 2577 H 236.703 3.89501 -1.70789 0
M  V30 2578 N 235.018 0.912232 1.28515 0
M  V30 2579 C 236.429 0.591352 1.77087 0
M  V30 2580 C 236.78 -0.8933 1.74684 0
M  V30 2581 O 235.905 -1.69876 1.34056 0
M  V30 2582 C 236.5 1.06668 3.2157 0
M  V30 2583 C 235.059 0.79675 3.67871 0
M  V30 2584 C 234.206 1.23427 2.48316 0
M  V30 2585 H 237.157 1.09365 1.15 0
M  V30 2586 H 237.178 0.407455 3.78312 0
M  V30 2587 H 236.69 2.14726 3.23287 0
M  V30 2588 H 234.791 -0.270679 3.71616 0
M  V30 2589 H 234.904 1.40343 4.58084 0
M  V30 2590 H 233.268 0.653036 2.46186 0
M  V30 2591 H 234.051 2.32316 2.52753 0
M  V30 2592 N 236.496 -1.42363 0.676048 0
M  V30 2593 C 237.736 -2.03392 0.20273 0
M  V30 2594 C 238.1 -1.52306 -1.16906 0
M  V30 2595 O 239.301 -2.05129 -1.73711 0
M  V30 2596 C 237.572 -3.56614 0.236947 0
M  V30 2597 S 239.131 -4.38489 -0.165186 0
M  V30 2598 H 235.949 -0.70611 0.0832418 0
M  V30 2599 H 238.551 -1.74093 0.88948 0
M  V30 2600 H 237.255 -3.91293 1.23767 0
M  V30 2601 H 236.786 -3.90587 -0.469596 0
M  V30 2602 H 238.801 -4.76093 -1.39822 0
M  V30 2603 N 237.974 -0.419461 -1.51915 0
M  V30 2604 C 239.22 0.153166 -2.02221 0
M  V30 2605 C 239.553 1.43907 -1.30401 0
M  V30 2606 O 238.828 1.90055 -0.413438 0
M  V30 2607 C 239.111 0.390291 -3.57979 0
M  V30 2608 C 238.964 -0.913014 -4.40436 0
M  V30 2609 C 240.283 1.16794 -4.2432 0
M  V30 2610 H 237.402 0.0541924 -0.735005 0
M  V30 2611 H 240.044 -0.554955 -1.81715 0
M  V30 2612 H 238.194 0.993491 -3.75582 0
M  V30 2613 H 239.866 -1.54882 -4.34522 0
M  V30 2614 H 238.109 -1.52168 -4.06236 0
M  V30 2615 H 238.78 -0.701361 -5.47526 0
M  V30 2616 H 241.256 0.657161 -4.10878 0
M  V30 2617 H 240.132 1.3026 -5.3322 0
M  V30 2618 H 240.393 2.19132 -3.83971 0
M  V30 2619 N 239.452 1.56882 -0.150215 0
M  V30 2620 C 240.682 2.00302 0.506213 0
M  V30 2621 C 241.09 1.02934 1.58749 0
M  V30 2622 O 240.433 0.0188384 1.8369 0
M  V30 2623 C 240.495 3.40156 1.16337 0
M  V30 2624 C 240.159 4.56439 0.226311 0
M  V30 2625 C 241.156 5.17012 -0.547265 0
M  V30 2626 C 238.841 5.02136 0.128279 0
M  V30 2627 C 240.835 6.21693 -1.40629 0
M  V30 2628 C 238.522 6.06672 -0.734345 0
M  V30 2629 C 239.52 6.6632 -1.50023 0
M  V30 2630 O 239.208 7.68831 -2.34848 0
M  V30 2631 H 238.94 0.662182 0.135984 0
M  V30 2632 H 241.494 2.03961 -0.242746 0
M  V30 2633 H 239.724 3.33346 1.96004 0
M  V30 2634 H 241.413 3.67663 1.71985 0
M  V30 2635 H 242.179 4.82603 -0.48158 0
M  V30 2636 H 238.058 4.55435 0.714157 0
M  V30 2637 H 241.602 6.68179 -2.00455 0
M  V30 2638 H 237.499 6.40507 -0.801309 0
M  V30 2639 H 238.267 7.86065 -2.28131 0
M  V30 2640 N 240.93 -0.123565 1.57115 0
M  V30 2641 C 241.84 -1.17074 2.033 0
M  V30 2642 C 242.856 -1.4561 0.952559 0
M  V30 2643 O 244.032 -1.56817 1.26374 0
M  V30 2644 C 241.097 -2.47857 2.42421 0
M  V30 2645 C 240.158 -2.26758 3.64526 0
M  V30 2646 C 239.391 -3.51305 4.01771 0
M  V30 2647 O 239.614 -4.5843 3.39409 0
M  V30 2648 O 238.548 -3.42578 4.94898 0
M  V30 2649 H 242.374 -0.808555 2.92739 0
M  V30 2650 H 239.959 -0.334027 1.45618 0
M  V30 2651 H 241.841 -3.2492 2.68338 0
M  V30 2652 H 240.516 -2.83558 1.5613 0
M  V30 2653 H 239.423 -1.47569 3.43765 0
M  V30 2654 H 240.756 -1.95963 4.51508 0
M  V30 2655 N 242.408 -1.52605 -0.393616 0
M  V30 2656 C 243.636 -1.71294 -1.16043 0
M  V30 2657 C 244.051 -0.429259 -1.83855 0
M  V30 2658 O 243.408 0.595921 -1.72496 0
M  V30 2659 C 243.459 -2.8593 -2.21193 0
M  V30 2660 O 243.18 -4.09329 -1.56146 0
M  V30 2661 C 244.681 -3.16259 -3.10636 0
M  V30 2662 H 241.901 -0.573641 -0.348104 0
M  V30 2663 H 244.445 -1.99234 -0.461092 0
M  V30 2664 H 242.6 -2.60465 -2.86769 0
M  V30 2665 H 243.014 -4.73323 -2.25978 0
M  V30 2666 H 244.488 -3.99946 -3.80456 0
M  V30 2667 H 244.965 -2.3045 -3.73884 0
M  V30 2668 H 245.571 -3.43547 -2.50711 0
M  V30 2669 N 243.887 0.651787 -1.4349 0
M  V30 2670 C 244.819 1.77725 -1.44729 0
M  V30 2671 C 245.832 1.59141 -0.343231 0
M  V30 2672 O 247.021 1.67835 -0.607751 0
M  V30 2673 C 244.121 3.15172 -1.24579 0
M  V30 2674 C 243.294 3.60402 -2.47849 0
M  V30 2675 C 242.353 4.76656 -2.22902 0
M  V30 2676 O 241.379 4.86022 -2.96263 0
M  V30 2677 N 242.581 5.66958 -1.24656 0
M  V30 2678 H 245.346 1.77141 -2.41746 0
M  V30 2679 H 242.907 0.835678 -1.38665 0
M  V30 2680 H 244.899 3.90634 -1.0577 0
M  V30 2681 H 243.469 3.1052 -0.360015 0
M  V30 2682 H 242.689 2.75369 -2.82073 0
M  V30 2683 H 243.977 3.87368 -3.29884 0
M  V30 2684 H 243.375 5.62065 -0.640265 0
M  V30 2685 H 241.932 6.42135 -1.1183 0
M  V30 2686 N 245.365 1.30045 0.890287 0
M  V30 2687 C 246.611 1.19747 1.64415 0
M  V30 2688 C 246.966 -0.246591 1.90813 0
M  V30 2689 O 246.259 -1.174 1.51419 0
M  V30 2690 C 246.453 1.95409 2.99249 0
M  V30 2691 C 246.282 3.47025 2.86013 0
M  V30 2692 C 245.052 4.1638 2.86279 0
M  V30 2693 C 247.25 4.42353 2.62351 0
M  V30 2694 N 245.232 5.54293 2.63879 0
M  V30 2695 C 246.603 5.67792 2.49022 0
M  V30 2696 C 248.658 4.32009 2.47533 0
M  V30 2697 C 247.361 6.8406 2.22383 0
M  V30 2698 C 249.387 5.48038 2.22279 0
M  V30 2699 C 248.749 6.72455 2.09722 0
M  V30 2700 H 244.848 0.493223 0.60684 0
M  V30 2701 H 247.432 1.6399 1.04954 0
M  V30 2702 H 245.603 1.53565 3.56752 0
M  V30 2703 H 247.335 1.77298 3.63796 0
M  V30 2704 H 244.09 3.68164 2.97913 0
M  V30 2705 H 244.514 6.26852 2.55706 0
M  V30 2706 H 249.156 3.36503 2.55979 0
M  V30 2707 H 246.874 7.79612 2.12675 0
M  V30 2708 H 250.46 5.41939 2.11643 0
M  V30 2709 H 249.34 7.60722 1.90453 0
M  V30 2710 N 246.843 -1.10192 1.12674 0
M  V30 2711 C 248.073 -1.85713 0.905213 0
M  V30 2712 C 248.481 -1.81056 -0.549108 0
M  V30 2713 O 247.824 -1.19927 -1.39151 0
M  V30 2714 C 247.886 -3.34972 1.30516 0
M  V30 2715 C 247.55 -3.63385 2.77129 0
M  V30 2716 C 248.547 -3.59772 3.75313 0
M  V30 2717 C 246.232 -3.91981 3.14096 0
M  V30 2718 C 248.226 -3.84354 5.08479 0
M  V30 2719 C 245.913 -4.16218 4.47443 0
M  V30 2720 C 246.911 -4.12395 5.44444 0
M  V30 2721 O 246.599 -4.36014 6.75387 0
M  V30 2722 H 246.331 -0.593719 0.323223 0
M  V30 2723 H 248.885 -1.40198 1.50112 0
M  V30 2724 H 247.115 -3.81156 0.652463 0
M  V30 2725 H 248.804 -3.91886 1.05736 0
M  V30 2726 H 249.57 -3.37716 3.48099 0
M  V30 2727 H 245.449 -3.94085 2.39202 0
M  V30 2728 H 248.993 -3.81285 5.84181 0
M  V30 2729 H 244.89 -4.37754 4.74386 0
M  V30 2730 H 245.658 -4.53516 6.8137 0
M  V30 2731 N 248.321 -0.919034 -1.28029 0
M  V30 2732 C 249.567 -0.555757 -1.95036 0
M  V30 2733 C 249.9 0.899198 -1.72128 0
M  V30 2734 O 249.175 1.64023 -1.04531 0
M  V30 2735 C 249.458 -0.872024 -3.49382 0
M  V30 2736 C 249.311 -2.3801 -3.81669 0
M  V30 2737 C 250.63 -0.37185 -4.38526 0
M  V30 2738 H 247.749 -0.203386 -0.708381 0
M  V30 2739 H 250.391 -1.14924 -1.51303 0
M  V30 2740 H 248.541 -0.366946 -3.86763 0
M  V30 2741 H 250.213 -2.9562 -3.54128 0
M  V30 2742 H 248.456 -2.83289 -3.28526 0
M  V30 2743 H 249.127 -2.55192 -4.8947 0
M  V30 2744 H 251.603 -0.804602 -4.08247 0
M  V30 2745 H 250.479 -0.622173 -5.45362 0
M  V30 2746 H 250.74 0.727934 -4.36066 0
M  V30 2747 N 249.799 1.42003 -0.683588 0
M  V30 2748 C 250.746 2.30798 -0.0107309 0
M  V30 2749 C 251.716 1.4645 0.783688 0
M  V30 2750 O 252.901 1.75263 0.754156 0
M  V30 2751 C 250.041 3.3238 0.928306 0
M  V30 2752 C 249.154 4.31814 0.126776 0
M  V30 2753 C 248.289 5.20468 1.06236 0
M  V30 2754 C 247.328 6.11577 0.253035 0
M  V30 2755 N 246.465 6.92754 1.14179 0
M  V30 2756 H 251.305 2.8778 -0.773727 0
M  V30 2757 H 248.842 1.41745 -0.393283 0
M  V30 2758 H 250.8 3.89813 1.48666 0
M  V30 2759 H 249.43 2.76976 1.65783 0
M  V30 2760 H 248.482 3.76427 -0.54833 0
M  V30 2761 H 249.794 4.96276 -0.501192 0
M  V30 2762 H 248.948 5.82677 1.69035 0
M  V30 2763 H 247.687 4.56204 1.7242 0
M  V30 2764 H 246.692 5.48428 -0.388108 0
M  V30 2765 H 247.917 6.77892 -0.404839 0
M  V30 2766 H 245.863 6.3111 1.78987 0
M  V30 2767 H 245.78 7.53855 0.569111 0
M  V30 2768 H 247.048 7.59441 1.75697 0
M  V30 2769 N 251.277 0.427512 1.51691 0
M  V30 2770 C 252.227 -0.406604 2.24345 0
M  V30 2771 C 253.211 -0.998276 1.26187 0
M  V30 2772 O 254.403 -0.918045 1.51331 0
M  V30 2773 C 251.532 -1.51266 3.08177 0
M  V30 2774 C 250.618 -0.930868 4.13758 0
M  V30 2775 N 251.009 -0.0773552 5.05741 0
M  V30 2776 C 249.307 -1.19948 4.29568 0
M  V30 2777 C 250.008 0.248344 5.8117 0
M  V30 2778 N 248.984 -0.365535 5.4237 0
M  V30 2779 H 252.786 0.251581 2.92821 0
M  V30 2780 H 250.3 0.239003 1.60632 0
M  V30 2781 H 252.297 -2.123 3.58796 0
M  V30 2782 H 250.957 -2.17328 2.41244 0
M  V30 2783 H 251.968 0.288351 5.17097 0
M  V30 2784 H 248.645 -1.85832 3.73862 0
M  V30 2785 H 250.035 0.942286 6.6526 0
M  V30 2786 N 252.755 -1.56801 0.158532 0
M  V30 2787 C 254.003 -1.96102 -0.488712 0
M  V30 2788 C 254.324 -1.04498 -1.64636 0
M  V30 2789 O 253.594 -0.108783 -1.95598 0
M  V30 2790 H 252.174 -0.724102 -0.183535 0
M  V30 2791 H 254.836 -1.93457 0.236728 0
M  V30 2792 H 253.932 -3.00097 -0.857219 0
M  V30 2793 N 254.233 0.115231 -1.57178 0
M  V30 2794 C 255.18 1.14115 -2.00615 0
M  V30 2795 C 256.15 1.40939 -0.878941 0
M  V30 2796 O 257.335 1.52741 -1.14345 0
M  V30 2797 C 254.475 2.46156 -2.4187 0
M  V30 2798 C 253.588 2.26236 -3.68024 0
M  V30 2799 C 252.723 3.51534 -3.98243 0
M  V30 2800 C 251.762 3.26787 -5.17568 0
M  V30 2801 N 250.899 4.44298 -5.43639 0
M  V30 2802 H 255.739 0.763743 -2.88047 0
M  V30 2803 H 253.276 0.365615 -1.42484 0
M  V30 2804 H 255.234 3.23189 -2.63827 0
M  V30 2805 H 253.864 2.81783 -1.57475 0
M  V30 2806 H 252.916 1.40102 -3.5366 0
M  V30 2807 H 254.228 2.03929 -4.55208 0
M  V30 2808 H 253.382 4.36984 -4.20868 0
M  V30 2809 H 252.121 3.76876 -3.09541 0
M  V30 2810 H 251.126 2.39729 -4.94783 0
M  V30 2811 H 252.351 3.02812 -6.0785 0
M  V30 2812 H 250.297 4.69754 -4.57895 0
M  V30 2813 H 250.214 4.25109 -6.25154 0
M  V30 2814 H 251.482 5.3087 -5.70786 0
M  V30 2815 N 255.711 1.52812 0.385517 0
M  V30 2816 C 256.641 1.80808 1.47752 0
M  V30 2817 C 257.622 0.660318 1.5676 0
M  V30 2818 O 258.807 0.908246 1.71652 0
M  V30 2819 C 255.937 1.98008 2.85324 0
M  V30 2820 C 254.891 3.13709 2.91154 0
M  V30 2821 C 254.217 3.16169 4.31209 0
M  V30 2822 C 255.517 4.52709 2.60483 0
M  V30 2823 H 257.211 2.72253 1.24573 0
M  V30 2824 H 254.757 1.31003 0.597839 0
M  V30 2825 H 256.71 2.16176 3.61726 0
M  V30 2826 H 255.434 1.03255 3.09848 0
M  V30 2827 H 254.093 2.95329 2.17201 0
M  V30 2828 H 253.741 2.19092 4.52778 0
M  V30 2829 H 253.441 3.93894 4.36029 0
M  V30 2830 H 254.965 3.36496 5.09512 0
M  V30 2831 H 256.379 4.71173 3.26602 0
M  V30 2832 H 254.776 5.32528 2.76648 0
M  V30 2833 H 255.846 4.59186 1.55809 0
M  V30 2834 N 257.189 -0.644168 1.43834 0
M  V30 2835 C 258.139 -1.7501 1.46135 0
M  V30 2836 C 259.123 -1.57507 0.328685 0
M  V30 2837 O 260.315 -1.67465 0.5731 0
M  V30 2838 C 257.444 -3.13641 1.39585 0
M  V30 2839 C 256.53 -3.3666 2.57916 0
M  V30 2840 N 256.921 -3.30107 3.83227 0
M  V30 2841 C 255.219 -3.67411 2.52834 0
M  V30 2842 C 255.92 -3.53456 4.61999 0
M  V30 2843 N 254.896 -3.75705 3.9287 0
M  V30 2844 H 258.698 -1.68382 2.40883 0
M  V30 2845 H 256.212 -0.846169 1.38614 0
M  V30 2846 H 258.209 -3.92933 1.39317 0
M  V30 2847 H 256.869 -3.21444 0.45865 0
M  V30 2848 H 257.88 -3.09316 4.15384 0
M  V30 2849 H 254.557 -3.82275 1.67845 0
M  V30 2850 H 255.947 -3.54093 5.71024 0
M  V30 2851 N 258.668 -1.30515 -0.883378 0
M  V30 2852 C 259.598 -1.19607 -2.00541 0
M  V30 2853 C 260.579 -0.086346 -1.69881 0
M  V30 2854 O 261.764 -0.268654 -1.92333 0
M  V30 2855 C 258.894 -0.888758 -3.35736 0
M  V30 2856 C 257.848 -1.95659 -3.8066 0
M  V30 2857 C 257.174 -1.50224 -5.13164 0
M  V30 2858 C 258.474 -3.36788 -3.99213 0
M  V30 2859 H 260.168 -2.13476 -2.09925 0
M  V30 2860 H 257.714 -1.02775 -1.00863 0
M  V30 2861 H 259.667 -0.799094 -4.13754 0
M  V30 2862 H 258.391 0.0856125 -3.26488 0
M  V30 2863 H 257.05 -2.03591 -3.04871 0
M  V30 2864 H 256.698 -0.516092 -5.00345 0
M  V30 2865 H 256.398 -2.2165 -5.44192 0
M  V30 2866 H 257.922 -1.42639 -5.93706 0
M  V30 2867 H 259.336 -3.31605 -4.67665 0
M  V30 2868 H 257.733 -4.06314 -4.41621 0
M  V30 2869 H 258.803 -3.78561 -3.03017 0
M  V30 2870 N 260.146 1.09593 -1.13257 0
M  V30 2871 C 261.056 2.19739 -0.821691 0
M  V30 2872 C 262.072 1.72926 0.19302 0
M  V30 2873 O 263.248 2.01385 0.0244895 0
M  V30 2874 C 260.313 3.45482 -0.290333 0
M  V30 2875 C 259.374 4.06985 -1.36607 0
M  V30 2876 C 258.607 5.26726 -0.859975 0
M  V30 2877 O 258.83 5.69594 0.303082 0
M  V30 2878 O 257.764 5.7931 -1.63351 0
M  V30 2879 H 261.59 2.48781 -1.74189 0
M  V30 2880 H 259.175 1.18496 -0.909894 0
M  V30 2881 H 261.057 4.214 0.000674022 0
M  V30 2882 H 259.732 3.18047 0.602306 0
M  V30 2883 H 258.639 3.32712 -1.71037 0
M  V30 2884 H 259.972 4.38643 -2.23279 0
M  V30 2885 N 261.624 0.925811 1.2754 0
M  V30 2886 C 262.87 0.566092 1.94739 0
M  V30 2887 C 263.203 -0.890057 1.72603 0
M  V30 2888 O 262.478 -1.63467 1.05399 0
M  V30 2889 C 262.761 0.89054 3.48915 0
M  V30 2890 C 262.614 2.4003 3.80402 0
M  V30 2891 C 263.933 0.395101 4.38323 0
M  V30 2892 H 261.052 0.20714 0.707292 0
M  V30 2893 H 263.694 1.15725 1.50691 0
M  V30 2894 H 261.844 0.387452 3.86563 0
M  V30 2895 H 263.516 2.97494 3.52555 0
M  V30 2896 H 261.759 2.85028 3.2702 0
M  V30 2897 H 262.43 2.57785 4.8811 0
M  V30 2898 H 264.906 0.826241 4.07814 0
M  V30 2899 H 263.782 0.651086 5.45025 0
M  V30 2900 H 264.043 -0.704798 4.36446 0
M  V30 2901 N 263.102 -1.41638 0.69111 0
M  V30 2902 C 264.518 -1.55435 0.362224 0
M  V30 2903 C 264.718 -1.66754 -1.13117 0
M  V30 2904 O 263.774 -1.64348 -1.91692 0
M  V30 2905 C 265.087 -2.79588 1.10684 0
M  V30 2906 C 266.635 -2.9338 1.09075 0
M  V30 2907 C 267.11 -4.20414 1.81703 0
M  V30 2908 N 268.601 -4.27362 1.7865 0
M  V30 2909 C 269.336 -5.24507 2.31689 0
M  V30 2910 N 268.832 -6.27708 2.93179 0
M  V30 2911 N 270.625 -5.16416 2.2197 0
M  V30 2912 H 262.776 -1.32536 1.65976 0
M  V30 2913 H 265.039 -0.639115 0.700168 0
M  V30 2914 H 264.745 -2.77419 2.16175 0
M  V30 2915 H 264.619 -3.70973 0.682545 0
M  V30 2916 H 267.006 -2.95067 0.0441238 0
M  V30 2917 H 267.087 -2.0318 1.55407 0
M  V30 2918 H 266.731 -4.19488 2.86343 0
M  V30 2919 H 266.661 -5.09578 1.32808 0
M  V30 2920 H 269.152 -3.53415 1.33815 0
M  V30 2921 H 269.465 -6.98217 3.31229 0
M  V30 2922 H 267.81 -6.28223 2.97255 0
M  V30 2923 H 271.001 -4.34716 1.73607 0
M  V30 2924 H 271.174 -5.91958 2.63609 0
M  V30 2925 N 264.58 -0.43555 -1.51462 0
M  V30 2926 C 265.543 0.365137 -2.26273 0
M  V30 2927 C 266.543 0.951227 -1.29647 0
M  V30 2928 O 267.733 0.825958 -1.53374 0
M  V30 2929 C 264.865 1.51645 -3.05314 0
M  V30 2930 H 266.058 -0.290474 -2.9849 0
M  V30 2931 H 263.611 -0.188676 -1.55157 0
M  V30 2932 H 264.346 2.20816 -2.3751 0
M  V30 2933 H 264.131 1.10238 -3.76284 0
M  V30 2934 H 265.621 2.08218 -3.61987 0
M  V30 2935 N 266.058 1.56714 -0.166846 0
M  V30 2936 C 267.474 1.58473 0.189372 0
M  V30 2937 C 267.674 1.18201 1.63189 0
M  V30 2938 O 266.73 0.891528 2.36237 0
M  V30 2939 C 268.043 3.00573 -0.0873872 0
M  V30 2940 C 269.591 3.1299 -0.0252443 0
M  V30 2941 C 270.066 4.57174 -0.274934 0
M  V30 2942 N 271.557 4.62665 -0.222553 0
M  V30 2943 C 272.292 5.72072 -0.389985 0
M  V30 2944 N 271.788 6.90054 -0.616229 0
M  V30 2945 N 273.581 5.61153 -0.326202 0
M  V30 2946 H 265.732 1.8118 -1.10849 0
M  V30 2947 H 267.995 0.839525 -0.440342 0
M  V30 2948 H 267.701 3.34497 -1.0865 0
M  V30 2949 H 267.575 3.72019 0.623037 0
M  V30 2950 H 269.962 2.78895 0.96444 0
M  V30 2951 H 270.043 2.43989 -0.768309 0
M  V30 2952 H 269.687 4.91976 -1.26181 0
M  V30 2953 H 269.617 5.24328 0.48869 0
M  V30 2954 H 272.108 3.77863 -0.0531512 0
M  V30 2955 H 272.421 7.69311 -0.733559 0
M  V30 2956 H 270.766 6.91927 -0.652791 0
M  V30 2957 H 273.957 4.67859 -0.150072 0
M  V30 2958 H 274.13 6.46364 -0.460116 0
M  V30 2959 N 267.536 -0.106894 1.57237 0
M  V30 2960 C 268.761 -0.830287 1.90055 0
M  V30 2961 C 269.186 -1.72064 0.75998 0
M  V30 2962 O 268.544 -1.78982 -0.288991 0
M  V30 2963 C 268.592 -1.6295 3.21683 0
M  V30 2964 O 267.696 -2.73748 3.08441 0
M  V30 2965 H 267.037 -0.228855 0.623315 0
M  V30 2966 H 269.567 -0.085658 2.04421 0
M  V30 2967 H 269.577 -2.01621 3.54701 0
M  V30 2968 H 268.252 -0.975989 4.04286 0
M  V30 2969 H 266.829 -2.38192 2.86913 0
M  V30 2970 N 269.014 -1.53014 -0.377408 0
M  V30 2971 C 269.962 -1.7927 -1.48206 0
M  V30 2972 C 270.956 -0.661195 -1.55963 0
M  V30 2973 O 272.162 -0.843908 -1.58991 0
M  V30 2974 H 268.537 -0.567425 -0.493491 0
M  V30 2975 H 270.508 -2.71753 -1.2326 0
M  V30 2976 C 269.257 -1.98894 -2.85196 0
M  V30 2977 H 268.58 -2.85395 -2.79981 0
M  V30 2978 H 270.02 -2.21249 -3.61698 0
M  V30 2979 C 268.479 -0.764691 -3.28107 0
M  V30 2980 O 269.009 0.0523226 -4.01666 0
M  V30 2981 N 267.215 -0.591493 -2.84517 0
M  V30 2982 H 266.762 -1.25749 -2.24822 0
M  V30 2983 H 266.72 0.226253 -3.13585 0
M  V30 2984 N 270.492 0.636531 -1.44174 0
M  V30 2985 C 271.769 1.39463 -1.37148 0
M  V30 2986 C 272.149 2.11082 -0.027507 0
M  V30 2987 O 271.497 2.05954 0.989716 0
M  V30 2988 C 271.707 2.36552 -2.56601 0
M  V30 2989 C 273.055 3.00048 -3.00427 0
M  V30 2990 O 274.079 2.46878 -2.56767 0
M  V30 2991 O 272.938 3.96488 -3.76111 0
M  V30 2992 H 270.032 0.623903 -0.542839 0
M  V30 2993 H 272.578 0.662039 -1.56253 0
M  V30 2994 H 271.35 1.82692 -3.46034 0
M  V30 2995 H 270.973 3.17236 -2.39681 0
M  V30 2996 N 271.97 1.30982 0.876444 0
M  V30 2997 C 272.903 1.12414 1.98591 0
M  V30 2998 C 273.881 0.0294078 1.62573 0
M  V30 2999 O 275.065 0.184598 1.87594 0
M  V30 3000 C 272.192 0.716276 3.3104 0
M  V30 3001 C 271.238 1.81311 3.86042 0
M  V30 3002 S 272.071 3.41727 4.1229 0
M  V30 3003 C 273.227 3.02863 5.47745 0
M  V30 3004 H 273.46 2.06338 2.14037 0
M  V30 3005 H 270.993 1.15393 1.02586 0
M  V30 3006 H 272.951 0.487697 4.07593 0
M  V30 3007 H 271.612 -0.203749 3.13438 0
M  V30 3008 H 270.805 1.48021 4.81774 0
M  V30 3009 H 270.407 1.99641 3.16259 0
M  V30 3010 H 272.699 2.51353 6.29148 0
M  V30 3011 H 273.642 3.97533 5.8598 0
M  V30 3012 H 274.05 2.40487 5.10711 0
M  V30 3013 N 273.449 -1.08991 1.13837 0
M  V30 3014 C 274.412 -2.13925 0.822715 0
M  V30 3015 C 275.412 -1.599 -0.1699 0
M  V30 3016 O 276.602 -1.74104 0.0577251 0
M  V30 3017 C 273.734 -3.40155 0.225318 0
M  V30 3018 H 274.927 -2.43358 1.75262 0
M  V30 3019 H 272.48 -1.24603 0.943594 0
M  V30 3020 H 273.215 -3.16352 -0.713594 0
M  V30 3021 H 273 -3.80661 0.940193 0
M  V30 3022 H 274.49 -4.17594 0.0214784 0
M  V30 3023 N 274.927 -0.932562 -1.27047 0
M  V30 3024 C 275.857 -0.452902 -2.29066 0
M  V30 3025 C 276.838 0.489338 -1.62909 0
M  V30 3026 O 278.023 0.393046 -1.90181 0
M  V30 3027 C 275.153 0.290698 -3.46081 0
M  V30 3028 C 274.107 -0.564168 -4.24265 0
M  V30 3029 C 273.433 0.308886 -5.33807 0
M  V30 3030 C 274.733 -1.83112 -4.89149 0
M  V30 3031 H 276.427 -1.30552 -2.69437 0
M  V30 3032 H 273.973 -0.629201 -1.29526 0
M  V30 3033 H 275.926 0.637233 -4.16554 0
M  V30 3034 H 274.65 1.17738 -3.0464 0
M  V30 3035 H 273.309 -0.893477 -3.55545 0
M  V30 3036 H 272.957 1.19467 -4.88607 0
M  V30 3037 H 272.657 -0.259633 -5.87026 0
M  V30 3038 H 274.181 0.650884 -6.07121 0
M  V30 3039 H 275.595 -1.55236 -5.51883 0
M  V30 3040 H 273.992 -2.34353 -5.52448 0
M  V30 3041 H 275.062 -2.54772 -4.12576 0
M  V30 3042 N 276.405 1.4127 -0.698611 0
M  V30 3043 C 277.653 2.00782 -0.230409 0
M  V30 3044 C 277.974 1.5562 1.17505 0
M  V30 3045 O 277.244 0.78815 1.79346 0
M  V30 3046 H 275.824 0.742464 -0.0821944 0
M  V30 3047 H 278.486 1.72852 -0.90045 0
M  V30 3048 H 277.582 3.11095 -0.25021 0
M  V30 3049 N 277.883 0.443576 1.51229 0
M  V30 3050 C 278.831 -0.37904 2.29491 0
M  V30 3051 C 279.825 -1.0153 1.35603 0
M  V30 3052 O 281.031 -0.94955 1.52917 0
M  V30 3053 H 277.406 -0.141053 0.738653 0
M  V30 3054 H 279.377 0.301799 2.9687 0
M  V30 3055 C 278.126 -1.46426 3.15364 0
M  V30 3056 H 277.449 -0.984037 3.87501 0
M  V30 3057 H 278.889 -2.01297 3.7317 0
M  V30 3058 C 277.348 -2.45099 2.31146 0
M  V30 3059 O 277.878 -3.49773 1.9754 0
M  V30 3060 N 276.084 -2.16139 1.94249 0
M  V30 3061 H 275.631 -1.31044 2.21777 0
M  V30 3062 H 275.589 -2.82398 1.38198 0
M  V30 3063 N 279.361 -1.56624 0.175154 0
M  V30 3064 C 280.772 -1.83561 -0.340916 0
M  V30 3065 C 281.123 -1.09511 -1.62794 0
M  V30 3066 O 280.248 -0.349389 -2.13561 0
M  V30 3067 C 280.843 -3.32979 -0.625313 0
M  V30 3068 C 279.402 -3.60399 -1.08581 0
M  V30 3069 C 278.549 -2.77024 -0.123722 0
M  V30 3070 H 281.5 -1.53593 0.399344 0
M  V30 3071 H 281.521 -3.50666 -1.47694 0
M  V30 3072 H 281.033 -3.86847 0.311575 0
M  V30 3073 H 279.134 -3.11945 -2.03767 0
M  V30 3074 H 279.247 -4.68711 -0.992317 0
M  V30 3075 H 277.611 -2.46993 -0.621821 0
M  V30 3076 H 278.394 -3.33674 0.807256 0
M  V30 3077 N 280.839 0.0985539 -1.57292 0
M  V30 3078 C 282.086 0.802678 -1.85912 0
M  V30 3079 C 282.414 1.78901 -0.763186 0
M  V30 3080 O 281.669 1.94178 0.243559 0
M  V30 3081 C 281.968 1.56927 -3.21105 0
M  V30 3082 C 281.634 0.725376 -4.45027 0
M  V30 3083 C 280.296 0.492726 -4.78671 0
M  V30 3084 C 282.648 0.138493 -5.21016 0
M  V30 3085 C 279.976 -0.336727 -5.85733 0
M  V30 3086 C 282.328 -0.678264 -6.28953 0
M  V30 3087 C 280.992 -0.921039 -6.61115 0
M  V30 3088 H 280.262 0.293721 -0.680301 0
M  V30 3089 H 282.909 0.0642841 -1.91392 0
M  V30 3090 H 281.214 2.37914 -3.11294 0
M  V30 3091 H 282.911 2.11841 -3.40477 0
M  V30 3092 H 279.501 0.916815 -4.18679 0
M  V30 3093 H 283.685 0.305404 -4.95359 0
M  V30 3094 H 278.941 -0.533836 -6.09065 0
M  V30 3095 H 283.115 -1.1399 -6.87007 0
M  V30 3096 H 280.742 -1.56556 -7.43905 0
M  V30 3097 N 282.317 1.53212 0.369288 0
M  V30 3098 C 283.265 1.80054 1.47253 0
M  V30 3099 C 284.259 0.669456 1.55611 0
M  V30 3100 O 285.465 0.852328 1.58541 0
M  V30 3101 H 281.84 0.570034 0.490475 0
M  V30 3102 H 283.811 2.72403 1.21817 0
M  V30 3103 C 282.56 2.00403 2.84137 0
M  V30 3104 H 281.883 2.86876 2.78464 0
M  V30 3105 H 283.323 2.23164 3.60519 0
M  V30 3106 C 281.782 0.782081 3.27697 0
M  V30 3107 O 282.312 -0.0310205 4.01688 0
M  V30 3108 N 280.518 0.606573 2.84199 0
M  V30 3109 H 280.065 1.26939 2.24152 0
M  V30 3110 H 280.023 -0.20962 3.137 0
M  V30 3111 N 283.795 -0.628877 1.44509 0
M  V30 3112 C 285.041 -1.39045 1.47629 0
M  V30 3113 C 285.374 -1.93892 0.109343 0
M  V30 3114 O 284.649 -1.7379 -0.87334 0
M  V30 3115 C 284.932 -2.55408 2.53848 0
M  V30 3116 C 284.785 -2.05896 3.99909 0
M  V30 3117 C 286.104 -3.5759 2.56549 0
M  V30 3118 H 283.223 -0.504232 0.537512 0
M  V30 3119 H 285.865 -0.710854 1.76201 0
M  V30 3120 H 284.015 -3.13384 2.29615 0
M  V30 3121 H 285.687 -1.52734 4.35282 0
M  V30 3122 H 283.93 -1.37061 4.11578 0
M  V30 3123 H 284.601 -2.89681 4.69882 0
M  V30 3124 H 287.077 -3.09419 2.78207 0
M  V30 3125 H 285.953 -4.36527 3.32769 0
M  V30 3126 H 286.214 -4.11808 1.60832 0
M  V30 3127 N 285.273 -1.31445 -0.869486 0
M  V30 3128 C 286.52 -1.21158 -1.62256 0
M  V30 3129 C 286.848 0.230155 -1.93133 0
M  V30 3130 O 286.103 1.17906 -1.56194 0
M  V30 3131 C 286.402 -2.00145 -2.96102 0
M  V30 3132 C 286.068 -3.4964 -2.84715 0
M  V30 3133 C 284.73 -3.90403 -2.81317 0
M  V30 3134 C 287.082 -4.44769 -2.71716 0
M  V30 3135 C 284.41 -5.24561 -2.62778 0
M  V30 3136 C 286.762 -5.79054 -2.54714 0
M  V30 3137 C 285.426 -6.19037 -2.49699 0
M  V30 3138 H 284.696 -0.443348 -0.593737 0
M  V30 3139 H 287.343 -1.62715 -1.00976 0
M  V30 3140 H 285.648 -1.5127 -3.6142 0
M  V30 3141 H 287.345 -1.89566 -3.53363 0
M  V30 3142 H 283.935 -3.17256 -2.88178 0
M  V30 3143 H 288.119 -4.14208 -2.73397 0
M  V30 3144 H 283.375 -5.54613 -2.57321 0
M  V30 3145 H 287.549 -6.52393 -2.43632 0
M  V30 3146 H 285.176 -7.22935 -2.35093 0
M  V30 3147 N 286.751 1.08385 -1.14413 0
M  V30 3148 C 287.683 2.1519 -0.789036 0
M  V30 3149 C 288.696 1.61638 0.19417 0
M  V30 3150 O 289.885 1.78479 -0.0275711 0
M  V30 3151 C 286.985 3.38565 -0.15058 0
M  V30 3152 C 286.158 4.21501 -1.16857 0
M  V30 3153 C 285.217 5.23277 -0.553832 0
M  V30 3154 O 284.243 5.56041 -1.21686 0
M  V30 3155 N 285.445 5.76629 0.669296 0
M  V30 3156 H 288.21 2.46257 -1.70814 0
M  V30 3157 H 285.771 1.24198 -1.03858 0
M  V30 3158 H 287.763 4.03777 0.273181 0
M  V30 3159 H 286.333 3.05299 0.671667 0
M  V30 3160 H 285.553 3.52265 -1.76926 0
M  V30 3161 H 286.841 4.73731 -1.85624 0
M  V30 3162 H 286.239 5.52243 1.22654 0
M  V30 3163 H 284.796 6.43521 1.03556 0
M  V30 3164 N 288.23 0.939286 1.26551 0
M  V30 3165 C 289.46 0.601663 1.97645 0
M  V30 3166 C 289.868 -0.827206 1.70159 0
M  V30 3167 O 289.211 -1.56291 0.965338 0
M  V30 3168 C 289.273 0.761725 3.51337 0
M  V30 3169 C 288.937 2.16487 4.0247 0
M  V30 3170 C 289.934 3.14016 4.14355 0
M  V30 3171 C 287.619 2.48494 4.36527 0
M  V30 3172 C 289.613 4.41654 4.59587 0
M  V30 3173 C 287.3 3.76364 4.81449 0
M  V30 3174 C 288.298 4.72758 4.92939 0
M  V30 3175 O 287.986 5.98352 5.36871 0
M  V30 3176 H 287.718 0.225758 0.637189 0
M  V30 3177 H 290.272 1.26178 1.62075 0
M  V30 3178 H 288.502 0.0444808 3.86674 0
M  V30 3179 H 290.191 0.427442 4.03643 0
M  V30 3180 H 290.957 2.90613 3.8829 0
M  V30 3181 H 286.836 1.74202 4.26819 0
M  V30 3182 H 290.38 5.16896 4.68471 0
M  V30 3183 H 286.277 3.99582 5.06956 0
M  V30 3184 H 287.045 6.01507 5.55096 0
M  V30 3185 N 289.708 -1.40897 0.706093 0
M  V30 3186 C 290.656 -2.32572 0.0361893 0
M  V30 3187 C 291.65 -1.51532 -0.757266 0
M  V30 3188 O 292.856 -1.67396 -0.661703 0
M  V30 3189 H 289.231 -0.751966 -0.00709935 0
M  V30 3190 H 291.202 -2.86733 0.826249 0
M  V30 3191 C 289.951 -3.36418 -0.87854 0
M  V30 3192 H 289.274 -3.98836 -0.277401 0
M  V30 3193 H 290.714 -4.0308 -1.3154 0
M  V30 3194 C 289.173 -2.71141 -1.99961 0
M  V30 3195 O 289.703 -2.56735 -3.0895 0
M  V30 3196 N 287.909 -2.29671 -1.78043 0
M  V30 3197 H 287.456 -2.41588 -0.894042 0
M  V30 3198 H 287.414 -1.86332 -2.53235 0
M  V30 3199 N 291.186 -0.45159 -1.50991 0
M  V30 3200 C 292.432 0.110237 -2.025 0
M  V30 3201 C 292.765 1.41109 -1.33424 0
M  V30 3202 O 292.04 1.89135 -0.453659 0
M  V30 3203 C 292.323 0.314271 -3.58726 0
M  V30 3204 C 292.176 -1.00623 -4.38401 0
M  V30 3205 C 293.495 1.07767 -4.26702 0
M  V30 3206 H 290.614 0.0385897 -0.735989 0
M  V30 3207 H 293.256 -0.593374 -1.80497 0
M  V30 3208 H 291.406 0.913601 -3.77605 0
M  V30 3209 H 293.078 -1.64064 -4.31139 0
M  V30 3210 H 291.321 -1.6075 -4.02917 0
M  V30 3211 H 291.992 -0.817341 -5.45915 0
M  V30 3212 H 294.468 0.56986 -4.12179 0
M  V30 3213 H 293.344 1.18921 -5.35863 0
M  V30 3214 H 293.605 2.10939 -3.88532 0
M  V30 3215 N 292.664 1.56529 -0.183458 0
M  V30 3216 C 293.594 2.21549 0.737456 0
M  V30 3217 C 294.575 1.17489 1.23005 0
M  V30 3218 O 295.76 1.45959 1.281 0
M  V30 3219 C 292.89 2.86575 1.96194 0
M  V30 3220 C 291.844 3.96778 1.60473 0
M  V30 3221 C 291.17 4.48911 2.90487 0
M  V30 3222 C 292.47 5.15767 0.823497 0
M  V30 3223 H 294.164 2.98761 0.195453 0
M  V30 3224 H 291.71 1.43702 0.0925686 0
M  V30 3225 H 293.663 3.30739 2.61131 0
M  V30 3226 H 292.387 2.06749 2.52828 0
M  V30 3227 H 291.046 3.53286 0.978997 0
M  V30 3228 H 290.694 3.65862 3.45186 0
M  V30 3229 H 290.394 5.23265 2.67335 0
M  V30 3230 H 291.918 4.95771 3.56432 0
M  V30 3231 H 293.332 5.56549 1.37571 0
M  V30 3232 H 291.729 5.96114 0.690551 0
M  V30 3233 H 292.799 4.84574 -0.177782 0
M  V30 3234 N 294.142 -0.090211 1.57342 0
M  V30 3235 C 295.074 -1.13541 1.99101 0
M  V30 3236 C 296.087 -1.3604 0.894258 0
M  V30 3237 O 297.276 -1.34606 1.17233 0
M  V30 3238 C 294.376 -2.49001 2.29895 0
M  V30 3239 C 293.549 -2.46712 3.61182 0
M  V30 3240 C 292.608 -3.64136 3.79857 0
M  V30 3241 O 291.634 -3.46405 4.51655 0
M  V30 3242 N 292.836 -4.83802 3.20806 0
M  V30 3243 H 295.601 -0.779942 2.89373 0
M  V30 3244 H 293.162 -0.279125 1.59476 0
M  V30 3245 H 295.154 -3.26166 2.39578 0
M  V30 3246 H 293.724 -2.76619 1.45605 0
M  V30 3247 H 292.944 -1.55058 3.62423 0
M  V30 3248 H 294.232 -2.42265 4.4742 0
M  V30 3249 H 293.63 -5.01112 2.62494 0
M  V30 3250 H 292.187 -5.58543 3.35966 0
M  V30 3251 N 295.62 -1.53406 -0.361157 0
M  V30 3252 C 297.036 -1.43277 -0.703124 0
M  V30 3253 C 297.236 -0.575384 -1.9311 0
M  V30 3254 O 296.292 -0.0595362 -2.5243 0
M  V30 3255 C 297.605 -2.8653 -0.9122 0
M  V30 3256 C 299.153 -2.96191 -1.01193 0
M  V30 3257 C 299.628 -4.40514 -1.25345 0
M  V30 3258 N 301.119 -4.43962 -1.32105 0
M  V30 3259 C 301.854 -5.52746 -1.5251 0
M  V30 3260 N 301.35 -6.71567 -1.70203 0
M  V30 3261 N 303.143 -5.40331 -1.54916 0
M  V30 3262 H 295.294 -2.07654 0.446475 0
M  V30 3263 H 297.557 -0.937944 0.137715 0
M  V30 3264 H 297.263 -3.51605 -0.0816414 0
M  V30 3265 H 297.137 -3.30441 -1.81903 0
M  V30 3266 H 299.524 -2.31266 -1.83303 0
M  V30 3267 H 299.605 -2.55667 -0.0823929 0
M  V30 3268 H 299.249 -5.06014 -0.437346 0
M  V30 3269 H 299.179 -4.78614 -2.19627 0
M  V30 3270 H 301.67 -3.58332 -1.20028 0
M  V30 3271 H 301.983 -7.50241 -1.85359 0
M  V30 3272 H 300.328 -6.74545 -1.67373 0
M  V30 3273 H 303.519 -4.46465 -1.40663 0
M  V30 3274 H 303.692 -6.25173 -1.70477 0
M  V30 3275 N 297.098 0.621204 -1.44841 0
M  V30 3276 C 298.031 1.7459 -1.46947 0
M  V30 3277 C 299.009 1.59273 -0.327238 0
M  V30 3278 O 300.193 1.81021 -0.525706 0
M  V30 3279 C 297.32 3.12274 -1.31159 0
M  V30 3280 C 296.366 3.46216 -2.49072 0
M  V30 3281 S 297.199 3.4258 -4.11581 0
M  V30 3282 C 298.355 4.82867 -3.98233 0
M  V30 3283 H 298.588 1.72538 -2.42111 0
M  V30 3284 H 296.121 0.796683 -1.32259 0
M  V30 3285 H 298.079 3.91722 -1.22737 0
M  V30 3286 H 296.74 3.11855 -0.374885 0
M  V30 3287 H 295.933 4.4643 -2.33915 0
M  V30 3288 H 295.535 2.74253 -2.54286 0
M  V30 3289 H 297.827 5.7234 -3.62537 0
M  V30 3290 H 298.77 5.0308 -4.98313 0
M  V30 3291 H 299.178 4.57908 -3.30121 0
M  V30 3292 N 298.576 1.31904 0.862503 0
M  V30 3293 C 299.825 1.21373 1.61094 0
M  V30 3294 C 300.138 -0.22504 1.94301 0
M  V30 3295 O 301.344 -0.452121 2.67709 0
M  V30 3296 C 299.8 2.12525 2.9045 0
M  V30 3297 C 299.408 3.61441 2.64697 0
M  V30 3298 C 301.152 2.10813 3.68454 0
M  V30 3299 C 299.059 4.44578 3.90006 0
M  V30 3300 H 297.989 0.450705 0.604468 0
M  V30 3301 H 300.64 1.56811 0.953027 0
M  V30 3302 H 299.022 1.69994 3.57656 0
M  V30 3303 H 300.196 4.12264 2.05851 0
M  V30 3304 H 298.511 3.65205 2.00036 0
M  V30 3305 H 301.108 2.70167 4.61426 0
M  V30 3306 H 301.451 1.09713 4.01583 0
M  V30 3307 H 301.984 2.51583 3.08141 0
M  V30 3308 H 298.723 5.46461 3.62023 0
M  V30 3309 H 298.243 3.98508 4.48276 0
M  V30 3310 H 299.922 4.57176 4.5782 0
M  V30 3311 N 300.054 -1.07777 1.14986 0
M  V30 3312 C 301.017 -2.13041 0.845358 0
M  V30 3313 C 302.017 -1.60071 -0.152931 0
M  V30 3314 O 303.207 -1.74033 0.0761879 0
M  V30 3315 C 300.339 -3.39896 0.261383 0
M  V30 3316 H 301.532 -2.41485 1.77834 0
M  V30 3317 H 299.085 -1.23595 0.956757 0
M  V30 3318 H 299.82 -3.17091 -0.68 0
M  V30 3319 H 299.605 -3.79642 0.980514 0
M  V30 3320 H 301.095 -4.17548 0.0657687 0
M  V30 3321 N 301.532 -0.945985 -1.26051 0
M  V30 3322 C 302.464 -0.416662 -2.25381 0
M  V30 3323 C 303.477 0.462712 -1.56086 0
M  V30 3324 O 304.666 0.272383 -1.7641 0
M  V30 3325 C 301.766 0.419812 -3.3629 0
M  V30 3326 C 300.939 -0.444531 -4.35135 0
M  V30 3327 C 299.998 0.332305 -5.2515 0
M  V30 3328 O 299.024 -0.266324 -5.68577 0
M  V30 3329 N 300.226 1.62763 -5.57215 0
M  V30 3330 H 302.991 -1.27059 -2.71433 0
M  V30 3331 H 300.552 -0.815392 -1.39868 0
M  V30 3332 H 302.544 0.947013 -3.93464 0
M  V30 3333 H 301.114 1.17456 -2.89694 0
M  V30 3334 H 300.334 -1.15291 -3.76964 0
M  V30 3335 H 301.622 -1.03478 -4.98166 0
M  V30 3336 H 301.02 2.13603 -5.23823 0
M  V30 3337 H 299.577 2.10097 -6.17011 0
M  V30 3338 N 303.011 1.40521 -0.713556 0
M  V30 3339 C 304.257 2.01221 -0.252564 0
M  V30 3340 C 304.59 1.56444 1.1506 0
M  V30 3341 O 303.865 0.783597 1.78017 0
M  V30 3342 C 304.148 3.58582 -0.330332 0
M  V30 3343 C 304.001 4.13437 -1.77173 0
M  V30 3344 C 305.32 4.39079 0.299641 0
M  V30 3345 H 302.439 0.731077 -0.0932471 0
M  V30 3346 H 305.081 1.67026 -0.905673 0
M  V30 3347 H 303.231 3.87844 0.225737 0
M  V30 3348 H 304.903 3.9498 -2.38303 0
M  V30 3349 H 303.146 3.67801 -2.3001 0
M  V30 3350 H 303.817 5.22597 -1.77755 0
M  V30 3351 H 306.293 4.15735 -0.174139 0
M  V30 3352 H 305.169 5.4848 0.214771 0
M  V30 3353 H 305.43 4.19915 1.38288 0
M  V30 3354 N 304.489 0.459591 1.5075 0
M  V30 3355 C 305.717 -0.0973749 2.06671 0
M  V30 3356 C 306.132 -1.34524 1.32472 0
M  V30 3357 O 305.489 -1.7827 0.390634 0
M  V30 3358 C 305.54 -0.39714 3.59312 0
M  V30 3359 O 305.261 0.801214 4.30711 0
M  V30 3360 C 306.762 -1.00234 4.31819 0
M  V30 3361 H 303.982 0.00195854 0.670997 0
M  V30 3362 H 306.526 0.645072 1.94059 0
M  V30 3363 H 304.681 -1.08951 3.71764 0
M  V30 3364 H 305.095 0.538857 5.21725 0
M  V30 3365 H 306.569 -1.16193 5.39632 0
M  V30 3366 H 307.046 -1.98939 3.91561 0
M  V30 3367 H 307.652 -0.348699 4.23868 0
M  V30 3368 N 305.967 -1.56429 0.191757 0
M  V30 3369 C 307.215 -1.97095 -0.447006 0
M  V30 3370 C 307.536 -1.07967 -1.62383 0
M  V30 3371 O 306.806 -0.150248 -1.95323 0
M  V30 3372 H 305.386 -0.727832 -0.168135 0
M  V30 3373 H 308.048 -1.92911 0.27771 0
M  V30 3374 H 307.144 -3.01848 -0.793371 0
M  V30 3375 N 307.445 0.0818655 -1.57387 0
M  V30 3376 C 308.675 0.794954 -1.90694 0
M  V30 3377 C 309.083 1.72147 -0.784982 0
M  V30 3378 O 308.426 1.81974 0.251196 0
M  V30 3379 C 308.488 1.65042 -3.19376 0
M  V30 3380 C 308.152 0.894337 -4.48164 0
M  V30 3381 C 309.149 0.21813 -5.19442 0
M  V30 3382 C 306.834 0.864495 -4.94805 0
M  V30 3383 C 308.828 -0.477802 -6.35607 0
M  V30 3384 C 306.515 0.164785 -6.10878 0
M  V30 3385 C 307.513 -0.505173 -6.81129 0
M  V30 3386 O 307.201 -1.19363 -7.94989 0
M  V30 3387 H 306.933 0.231779 -0.635023 0
M  V30 3388 H 309.487 0.059493 -2.05314 0
M  V30 3389 H 307.717 2.42844 -3.00938 0
M  V30 3390 H 309.406 2.24127 -3.38411 0
M  V30 3391 H 310.172 0.232558 -4.84442 0
M  V30 3392 H 306.051 1.37542 -4.40004 0
M  V30 3393 H 309.595 -1.00129 -6.90377 0
M  V30 3394 H 305.492 0.148249 -6.4533 0
M  V30 3395 H 306.26 -1.10188 -8.11049 0
M  V30 3396 N 308.923 1.53595 0.353017 0
M  V30 3397 C 309.833 1.83897 1.45667 0
M  V30 3398 C 310.849 0.728334 1.58023 0
M  V30 3399 O 312.025 1.01968 1.73679 0
M  V30 3400 C 309.09 2.03383 2.80778 0
M  V30 3401 C 308.151 3.27262 2.77845 0
M  V30 3402 C 307.384 3.45809 4.06512 0
M  V30 3403 O 307.607 2.68387 5.03314 0
M  V30 3404 O 306.541 4.39207 4.11559 0
M  V30 3405 H 310.367 2.77686 1.2298 0
M  V30 3406 H 307.952 1.39132 0.544308 0
M  V30 3407 H 309.834 2.17698 3.60812 0
M  V30 3408 H 308.509 1.12783 3.03417 0
M  V30 3409 H 307.416 3.18359 1.96465 0
M  V30 3410 H 308.749 4.17824 2.60161 0
M  V30 3411 N 310.401 -0.613514 1.45168 0
M  V30 3412 C 311.331 -1.7354 1.56225 0
M  V30 3413 C 312.312 -1.64981 0.41414 0
M  V30 3414 O 313.497 -1.83472 0.636526 0
M  V30 3415 C 310.627 -3.12128 1.52295 0
M  V30 3416 C 309.581 -3.35491 2.65762 0
M  V30 3417 C 308.907 -4.74291 2.46885 0
M  V30 3418 C 310.207 -3.26325 4.0781 0
M  V30 3419 H 311.901 -1.64543 2.50132 0
M  V30 3420 H 309.447 -0.790185 1.20383 0
M  V30 3421 H 311.4 -3.90404 1.58628 0
M  V30 3422 H 310.124 -3.2195 0.549139 0
M  V30 3423 H 308.783 -2.59603 2.58847 0
M  V30 3424 H 308.431 -4.80839 1.47657 0
M  V30 3425 H 308.131 -4.9088 3.22972 0
M  V30 3426 H 309.655 -5.54775 2.55063 0
M  V30 3427 H 311.069 -3.94483 4.16 0
M  V30 3428 H 309.466 -3.54445 4.8424 0
M  V30 3429 H 310.536 -2.23855 4.30136 0
M  V30 3430 N 311.879 -1.3236 -0.855495 0
M  V30 3431 C 313.127 -1.22629 -1.60644 0
M  V30 3432 C 313.448 0.212136 -1.93843 0
M  V30 3433 O 312.718 1.13666 -1.59552 0
M  V30 3434 H 311.298 -0.450882 -0.595579 0
M  V30 3435 H 313.96 -1.65871 -1.02337 0
M  V30 3436 H 313.056 -1.80832 -2.54374 0
M  V30 3437 N 313.357 1.07166 -1.15556 0
M  V30 3438 C 314.267 2.17947 -0.868116 0
M  V30 3439 C 315.283 1.73297 0.156297 0
M  V30 3440 O 316.459 2.01392 -0.0182327 0
M  V30 3441 C 313.524 3.44789 -0.36355 0
M  V30 3442 C 312.585 4.03996 -1.45209 0
M  V30 3443 C 311.818 5.24783 -0.971508 0
M  V30 3444 O 312.041 5.70109 0.182194 0
M  V30 3445 O 310.975 5.75715 -1.75603 0
M  V30 3446 H 314.801 2.4503 -1.79427 0
M  V30 3447 H 312.386 1.16539 -0.934824 0
M  V30 3448 H 314.268 4.21307 -0.0887113 0
M  V30 3449 H 312.943 3.19253 0.534708 0
M  V30 3450 H 311.85 3.29009 -1.78056 0
M  V30 3451 H 313.183 4.33808 -2.32533 0
M  V30 3452 N 314.835 0.952656 1.25548 0
M  V30 3453 C 316.065 0.622592 1.96996 0
M  V30 3454 C 316.473 -0.809112 1.71026 0
M  V30 3455 O 315.816 -1.55258 0.981861 0
M  V30 3456 C 315.878 0.798946 3.5051 0
M  V30 3457 C 315.542 2.20744 4.00151 0
M  V30 3458 C 316.539 3.18394 4.11001 0
M  V30 3459 C 314.224 2.5311 4.33867 0
M  V30 3460 C 316.218 4.46504 4.54877 0
M  V30 3461 C 313.905 3.8145 4.7743 0
M  V30 3462 C 314.903 4.77959 4.87897 0
M  V30 3463 O 314.591 6.04012 5.30494 0
M  V30 3464 H 314.323 0.232503 0.634758 0
M  V30 3465 H 316.877 1.2789 1.60728 0
M  V30 3466 H 315.107 0.0854903 3.86605 0
M  V30 3467 H 316.796 0.47023 4.03167 0
M  V30 3468 H 317.562 2.94715 3.85186 0
M  V30 3469 H 313.441 1.78719 4.24948 0
M  V30 3470 H 316.985 5.21835 4.62962 0
M  V30 3471 H 312.882 4.04936 5.0269 0
M  V30 3472 H 313.65 6.0736 5.48685 0
M  V30 3473 N 316.313 -1.40141 0.720998 0
M  V30 3474 C 317.562 -2.0002 0.259804 0
M  V30 3475 C 317.875 -1.57839 -1.15526 0
M  V30 3476 O 319.081 -2.10455 -1.71525 0
M  V30 3477 C 317.537 -3.57516 0.413566 0
M  V30 3478 C 317.145 -4.08667 1.83562 0
M  V30 3479 C 318.889 -4.24498 0.0134387 0
M  V30 3480 C 316.796 -5.58686 1.93968 0
M  V30 3481 H 315.726 -0.748195 0.0933806 0
M  V30 3482 H 318.377 -1.60313 0.892866 0
M  V30 3483 H 316.759 -3.9495 -0.288169 0
M  V30 3484 H 317.933 -3.82598 2.56817 0
M  V30 3485 H 316.248 -3.543 2.1877 0
M  V30 3486 H 318.845 -5.34654 0.0703954 0
M  V30 3487 H 319.188 -4.03375 -1.02927 0
M  V30 3488 H 319.721 -3.92188 0.665815 0
M  V30 3489 H 316.46 -5.8467 2.96379 0
M  V30 3490 H 315.98 -5.86602 1.25131 0
M  V30 3491 H 317.659 -6.23875 1.71431 0
M  V30 3492 N 317.792 -0.46758 -1.50504 0
M  V30 3493 C 319.039 0.0886219 -2.02306 0
M  V30 3494 C 319.367 1.40037 -1.34981 0
M  V30 3495 O 318.622 1.90136 -0.463318 0
M  V30 3496 C 318.921 0.323995 -3.55928 0
M  V30 3497 C 318.587 -0.905618 -4.41712 0
M  V30 3498 C 317.249 -1.24275 -4.64875 0
M  V30 3499 C 319.601 -1.72448 -4.91845 0
M  V30 3500 C 316.929 -2.39888 -5.35417 0
M  V30 3501 C 319.281 -2.87185 -5.63656 0
M  V30 3502 C 317.945 -3.21317 -5.85074 0
M  V30 3503 H 317.215 0.0324291 -0.74029 0
M  V30 3504 H 319.862 -0.620945 -1.81153 0
M  V30 3505 H 318.167 1.11577 -3.75577 0
M  V30 3506 H 319.864 0.76826 -3.93572 0
M  V30 3507 H 316.454 -0.632956 -4.239 0
M  V30 3508 H 320.638 -1.4772 -4.73806 0
M  V30 3509 H 315.894 -2.66611 -5.50208 0
M  V30 3510 H 320.068 -3.50985 -6.01484 0
M  V30 3511 H 317.695 -4.1101 -6.39511 0
M  V30 3512 N 319.27 1.56325 -0.20005 0
M  V30 3513 C 320.218 2.20666 0.735482 0
M  V30 3514 C 321.212 1.17934 1.21605 0
M  V30 3515 O 322.418 1.36068 1.17837 0
M  V30 3516 H 318.793 0.70725 0.255542 0
M  V30 3517 H 320.764 2.9792 0.169166 0
M  V30 3518 C 319.513 2.88391 1.94232 0
M  V30 3519 H 318.836 3.67185 1.58161 0
M  V30 3520 H 320.276 3.3684 2.57517 0
M  V30 3521 C 318.735 1.89692 2.78421 0
M  V30 3522 O 319.265 1.40032 3.76502 0
M  V30 3523 N 317.471 1.57813 2.44015 0
M  V30 3524 H 317.018 1.9839 1.64314 0
M  V30 3525 H 316.976 0.920325 3.00628 0
M  V30 3526 N 320.748 -0.0735177 1.57428 0
M  V30 3527 C 321.997 -0.771809 1.86349 0
M  V30 3528 C 322.31 -1.78828 0.792452 0
M  V30 3529 O 323.516 -2.53602 0.96945 0
M  V30 3530 C 321.972 -1.42358 3.30548 0
M  V30 3531 C 321.58 -0.445761 4.45777 0
M  V30 3532 C 323.324 -2.10434 3.6867 0
M  V30 3533 C 321.231 -1.10335 5.81016 0
M  V30 3534 H 320.161 -0.291999 0.695164 0
M  V30 3535 H 322.812 -0.0250749 1.83483 0
M  V30 3536 H 321.194 -2.21852 3.28021 0
M  V30 3537 H 322.368 0.319239 4.59693 0
M  V30 3538 H 320.683 0.130457 4.16196 0
M  V30 3539 H 323.28 -2.60405 4.67004 0
M  V30 3540 H 323.623 -2.90298 2.98383 0
M  V30 3541 H 324.156 -1.37773 3.7318 0
M  V30 3542 H 320.895 -0.345061 6.54591 0
M  V30 3543 H 320.415 -1.83925 5.70904 0
M  V30 3544 H 322.094 -1.62367 6.26295 0
M  V30 3545 N 322.226 -1.5378 -0.344866 0
M  V30 3546 C 323.474 -1.70625 -1.08311 0
M  V30 3547 C 323.795 -0.471447 -1.89215 0
M  V30 3548 O 323.065 0.514616 -1.8902 0
M  V30 3549 H 321.645 -0.629058 -0.402859 0
M  V30 3550 H 324.307 -1.9103 -0.386459 0
M  V30 3551 H 323.403 -2.57656 -1.76124 0
M  V30 3552 N 323.704 0.605807 -1.45491 0
M  V30 3553 C 324.981 1.36522 -1.40075 0
M  V30 3554 C 325.361 2.10976 -0.0722744 0
M  V30 3555 O 324.709 2.08007 0.945808 0
M  V30 3556 C 324.919 2.31056 -2.61561 0
M  V30 3557 C 326.267 2.93608 -3.06724 0
M  V30 3558 O 327.291 2.41376 -2.61946 0
M  V30 3559 O 326.15 3.88421 -3.84437 0
M  V30 3560 H 323.244 0.612248 -0.555951 0
M  V30 3561 H 325.79 0.628747 -1.57623 0
M  V30 3562 H 324.562 1.75311 -3.49831 0
M  V30 3563 H 324.185 3.12081 -2.46356 0
M  V30 3564 N 325.182 1.32811 0.848464 0
M  V30 3565 C 326.422 1.25046 1.61687 0
M  V30 3566 C 326.786 -0.183464 1.91121 0
M  V30 3567 O 327.987 -0.384937 2.66029 0
M  V30 3568 C 326.258 2.09201 2.89775 0
M  V30 3569 S 327.817 2.18526 3.80515 0
M  V30 3570 H 324.635 0.445023 0.554505 0
M  V30 3571 H 327.237 1.67733 1.00429 0
M  V30 3572 H 325.941 3.12433 2.66108 0
M  V30 3573 H 325.472 1.67315 3.56047 0
M  V30 3574 H 327.487 1.3393 4.77784 0
M  V30 3575 N 326.66 -1.06551 1.16123 0
M  V30 3576 C 327.61 -2.12209 0.833736 0
M  V30 3577 C 328.594 -1.59825 -0.185656 0
M  V30 3578 O 329.786 -1.76994 0.0147906 0
M  V30 3579 C 326.915 -3.41674 0.333697 0
M  V30 3580 C 326.001 -4.00892 1.38372 0
M  V30 3581 N 326.392 -4.34256 2.59337 0
M  V30 3582 C 324.69 -4.28463 1.23836 0
M  V30 3583 C 325.391 -4.81291 3.26701 0
M  V30 3584 N 324.367 -4.80565 2.54083 0
M  V30 3585 H 328.169 -2.35849 1.75364 0
M  V30 3586 H 325.683 -1.24068 1.04789 0
M  V30 3587 H 327.68 -4.16822 0.0806918 0
M  V30 3588 H 326.34 -3.19475 -0.58017 0
M  V30 3589 H 327.351 -4.24687 2.96415 0
M  V30 3590 H 324.028 -4.15721 0.38504 0
M  V30 3591 H 325.418 -5.16332 4.29943 0
M  V30 3592 N 328.138 -0.959301 -1.25041 0
M  V30 3593 C 329.384 -0.617525 -1.9317 0
M  V30 3594 C 329.717 0.843981 -1.74902 0
M  V30 3595 O 328.992 1.60615 -1.09696 0
M  V30 3596 C 329.275 -0.982736 -3.46431 0
M  V30 3597 C 329.128 -2.50032 -3.73904 0
M  V30 3598 C 330.447 -0.511176 -4.37121 0
M  V30 3599 H 327.566 -0.22582 -0.701552 0
M  V30 3600 H 330.208 -1.19679 -1.4757 0
M  V30 3601 H 328.358 -0.489806 -3.854 0
M  V30 3602 H 330.03 -3.06737 -3.44544 0
M  V30 3603 H 328.273 -2.93598 -3.19348 0
M  V30 3604 H 328.944 -2.70635 -4.81103 0
M  V30 3605 H 331.42 -0.934075 -4.0548 0
M  V30 3606 H 330.296 -0.795361 -5.43107 0
M  V30 3607 H 330.557 0.588834 -4.38161 0
M  V30 3608 N 329.616 1.39756 -0.72842 0
M  V30 3609 C 330.846 2.04651 -0.283117 0
M  V30 3610 C 331.254 1.5502 1.08469 0
M  V30 3611 O 330.597 0.707343 1.69536 0
M  V30 3612 C 330.659 3.58947 -0.199309 0
M  V30 3613 C 330.323 4.31525 -1.5045 0
M  V30 3614 C 331.32 4.5861 -2.44894 0
M  V30 3615 C 329.005 4.70195 -1.76698 0
M  V30 3616 C 330.999 5.23366 -3.63822 0
M  V30 3617 C 328.686 5.3468 -2.95906 0
M  V30 3618 C 329.684 5.61198 -3.89289 0
M  V30 3619 O 329.372 6.24347 -5.06404 0
M  V30 3620 H 329.104 0.664777 -0.122666 0
M  V30 3621 H 331.658 1.79913 -0.990987 0
M  V30 3622 H 329.888 3.82556 0.56461 0
M  V30 3623 H 331.577 4.0534 0.213125 0
M  V30 3624 H 332.343 4.29187 -2.25883 0
M  V30 3625 H 328.222 4.48916 -1.04859 0
M  V30 3626 H 331.766 5.4398 -4.36728 0
M  V30 3627 H 327.663 5.63524 -3.14819 0
M  V30 3628 H 328.431 6.42842 -5.06652 0
M  V30 3629 N 331.094 0.475555 1.50254 0
M  V30 3630 C 332.322 -0.0754493 2.06762 0
M  V30 3631 C 332.737 -1.33111 1.33891 0
M  V30 3632 O 332.094 -1.77846 0.40952 0
M  V30 3633 C 332.145 -0.359008 3.59713 0
M  V30 3634 O 331.866 0.846851 4.29837 0
M  V30 3635 C 333.367 -0.956484 4.32858 0
M  V30 3636 H 330.587 0.00907525 0.670939 0
M  V30 3637 H 333.131 0.665618 1.93364 0
M  V30 3638 H 331.286 -1.05001 3.72899 0
M  V30 3639 H 331.7 0.594162 5.21124 0
M  V30 3640 H 333.174 -1.10463 5.40834 0
M  V30 3641 H 333.651 -1.94775 3.93649 0
M  V30 3642 H 334.257 -0.303723 4.24214 0
M  V30 3643 N 332.573 -1.56217 0.208337 0
M  V30 3644 C 333.989 -1.58919 -0.14729 0
M  V30 3645 C 334.189 -1.22486 -1.59998 0
M  V30 3646 O 333.245 -0.953849 -2.3379 0
M  V30 3647 C 334.558 -3.00236 0.167048 0
M  V30 3648 C 336.106 -3.12813 0.108219 0
M  V30 3649 C 336.581 -4.56284 0.396049 0
M  V30 3650 N 338.072 -4.61912 0.345142 0
M  V30 3651 C 338.807 -5.70837 0.541523 0
M  V30 3652 N 338.303 -6.88178 0.798968 0
M  V30 3653 N 340.096 -5.60091 0.474867 0
M  V30 3654 H 332.247 -1.78177 1.15614 0
M  V30 3655 H 334.51 -0.827555 0.462446 0
M  V30 3656 H 334.216 -3.31499 1.1748 0
M  V30 3657 H 334.09 -3.7354 -0.524184 0
M  V30 3658 H 336.477 -2.81354 -0.890157 0
M  V30 3659 H 336.558 -2.41866 0.832729 0
M  V30 3660 H 336.202 -4.88458 1.3918 0
M  V30 3661 H 336.132 -5.25439 -0.349502 0
M  V30 3662 H 338.623 -3.77589 0.153316 0
M  V30 3663 H 338.936 -7.67095 0.93727 0
M  V30 3664 H 337.281 -6.89953 0.836013 0
M  V30 3665 H 340.472 -4.67297 0.274064 0
M  V30 3666 H 340.645 -6.44917 0.631326 0
M  V30 3667 N 334.051 0.0651679 -1.57465 0
M  V30 3668 C 335.001 1.0838 -2.00594 0
M  V30 3669 C 335.985 1.34106 -0.889071 0
M  V30 3670 O 337.177 1.34295 -1.15299 0
M  V30 3671 C 334.306 2.39565 -2.45894 0
M  V30 3672 C 333.392 2.17085 -3.64328 0
M  V30 3673 N 333.783 1.64553 -4.78285 0
M  V30 3674 C 332.081 2.4753 -3.71006 0
M  V30 3675 C 332.782 1.57042 -5.60101 0
M  V30 3676 N 331.758 2.03328 -5.04141 0
M  V30 3677 H 335.56 0.671062 -2.86136 0
M  V30 3678 H 333.074 0.27213 -1.60104 0
M  V30 3679 H 335.071 3.13308 -2.75034 0
M  V30 3680 H 333.731 2.81549 -1.61741 0
M  V30 3681 H 334.742 1.33323 -5.00445 0
M  V30 3682 H 331.419 2.92835 -2.9758 0
M  V30 3683 H 332.809 1.17223 -6.61595 0
M  V30 3684 N 335.529 1.53961 0.336706 0
M  V30 3685 C 336.778 1.70751 1.07363 0
M  V30 3686 C 337.091 0.481061 1.89592 0
M  V30 3687 O 338.297 0.530046 2.66276 0
M  V30 3688 C 336.753 3.01965 1.95818 0
M  V30 3689 C 336.361 4.31971 1.18764 0
M  V30 3690 C 338.105 3.28121 2.69327 0
M  V30 3691 C 336.012 5.54255 2.06289 0
M  V30 3692 H 334.942 0.636292 0.404535 0
M  V30 3693 H 337.593 1.80459 0.332681 0
M  V30 3694 H 335.975 2.86132 2.7376 0
M  V30 3695 H 337.149 4.5853 0.456849 0
M  V30 3696 H 335.464 4.12481 0.569946 0
M  V30 3697 H 338.061 4.16673 3.35094 0
M  V30 3698 H 338.404 2.45426 3.36261 0
M  V30 3699 H 338.937 3.44762 1.98454 0
M  V30 3700 H 335.676 6.39513 1.43885 0
M  V30 3701 H 335.196 5.31935 2.77138 0
M  V30 3702 H 336.875 5.90159 2.65182 0
M  V30 3703 N 337.007 -0.598083 1.45811 0
M  V30 3704 C 338.284 -1.35777 1.40797 0
M  V30 3705 C 338.664 -2.10935 0.083462 0
M  V30 3706 O 338.012 -2.08505 -0.934763 0
M  V30 3707 C 338.222 -2.29666 2.62783 0
M  V30 3708 C 339.57 -2.91977 3.08277 0
M  V30 3709 O 340.594 -2.39984 2.63223 0
M  V30 3710 O 339.453 -3.86376 3.86491 0
M  V30 3711 H 336.547 -0.609291 0.55919 0
M  V30 3712 H 339.093 -0.620379 1.57954 0
M  V30 3713 H 337.865 -1.73454 3.50756 0
M  V30 3714 H 337.488 -3.1077 2.48008 0
M  V30 3715 N 338.485 -1.33259 -0.841409 0
M  V30 3716 C 339.433 -1.23279 -1.97244 0
M  V30 3717 C 340.427 -0.134706 -1.68864 0
M  V30 3718 O 341.633 -0.298501 -1.77508 0
M  V30 3719 H 338.008 -0.382497 -0.647457 0
M  V30 3720 H 339.979 -2.18906 -2.02787 0
M  V30 3721 C 338.728 -0.986268 -3.33419 0
M  V30 3722 H 338.051 -1.82347 -3.55794 0
M  V30 3723 H 339.491 -0.956728 -4.13065 0
M  V30 3724 C 337.95 0.310842 -3.35463 0
M  V30 3725 O 338.48 1.31838 -3.79449 0
M  V30 3726 N 336.686 0.337485 -2.88634 0
M  V30 3727 H 336.233 -0.482967 -2.53032 0
M  V30 3728 H 336.191 1.20518 -2.90384 0
M  V30 3729 N 339.963 1.05934 -1.16686 0
M  V30 3730 C 340.893 2.1546 -0.899949 0
M  V30 3731 C 341.874 1.69391 0.155154 0
M  V30 3732 O 343.059 1.94199 0.00648693 0
M  V30 3733 C 340.189 3.44939 -0.404241 0
M  V30 3734 C 339.143 4.04536 -1.39767 0
M  V30 3735 C 338.469 5.29268 -0.760216 0
M  V30 3736 C 339.769 4.42893 -2.76845 0
M  V30 3737 H 341.463 2.38046 -1.81588 0
M  V30 3738 H 339.009 1.14404 -0.874514 0
M  V30 3739 H 340.962 4.20901 -0.204971 0
M  V30 3740 H 339.686 3.21983 0.547206 0
M  V30 3741 H 338.345 3.30635 -1.58355 0
M  V30 3742 H 337.993 5.02611 0.197831 0
M  V30 3743 H 337.693 5.70101 -1.42332 0
M  V30 3744 H 339.217 6.07924 -0.57105 0
M  V30 3745 H 340.631 5.09921 -2.62019 0
M  V30 3746 H 339.028 4.94721 -3.39663 0
M  V30 3747 H 340.098 3.53584 -3.31823 0
M  V30 3748 N 341.441 0.965919 1.2453 0
M  V30 3749 C 342.388 0.49402 2.25451 0
M  V30 3750 C 343.358 -0.45948 1.59618 0
M  V30 3751 O 344.543 -0.370238 1.87173 0
M  V30 3752 C 341.683 -0.211359 3.44452 0
M  V30 3753 C 340.796 0.7807 4.24887 0
M  V30 3754 C 339.931 0.0516105 5.31175 0
M  V30 3755 C 338.97 1.03385 6.03306 0
M  V30 3756 N 338.107 0.334887 7.01301 0
M  V30 3757 H 342.947 1.35946 2.65184 0
M  V30 3758 H 340.484 0.681515 1.3036 0
M  V30 3759 H 342.442 -0.637 4.12308 0
M  V30 3760 H 341.072 -1.04077 3.05562 0
M  V30 3761 H 340.124 1.32479 3.56586 0
M  V30 3762 H 341.436 1.52978 4.74762 0
M  V30 3763 H 340.59 -0.432114 6.05159 0
M  V30 3764 H 339.329 -0.730179 4.82203 0
M  V30 3765 H 338.334 1.52847 5.28127 0
M  V30 3766 H 339.559 1.81606 6.54367 0
M  V30 3767 H 337.505 -0.427959 6.54603 0
M  V30 3768 H 337.422 1.02287 7.49048 0
M  V30 3769 H 338.69 -0.126928 7.79397 0
M  V30 3770 N 342.919 -1.39368 0.735821 0
M  V30 3771 C 344.168 -1.99733 0.281004 0
M  V30 3772 C 344.481 -1.59055 -1.13846 0
M  V30 3773 O 345.687 -2.12262 -1.69284 0
M  V30 3774 C 344.143 -3.57057 0.451462 0
M  V30 3775 C 343.751 -4.06697 1.87886 0
M  V30 3776 C 345.495 -4.2446 0.0584616 0
M  V30 3777 C 343.402 -5.56598 1.99883 0
M  V30 3778 H 342.332 -0.747163 0.101311 0
M  V30 3779 H 344.983 -1.59357 0.909819 0
M  V30 3780 H 343.365 -3.95234 -0.246263 0
M  V30 3781 H 344.539 -3.79853 2.60861 0
M  V30 3782 H 342.854 -3.5196 2.22515 0
M  V30 3783 H 345.451 -5.34549 0.127099 0
M  V30 3784 H 345.794 -4.04444 -0.986433 0
M  V30 3785 H 346.327 -3.9146 0.707374 0
M  V30 3786 H 343.066 -5.81494 3.02564 0
M  V30 3787 H 342.586 -5.85242 1.31346 0
M  V30 3788 H 344.265 -6.22022 1.78039 0
M  V30 3789 N 344.397 -0.483516 -1.5 0
M  V30 3790 C 345.329 0.340634 -2.26655 0
M  V30 3791 C 346.342 0.946152 -1.32483 0
M  V30 3792 O 347.531 0.832453 -1.579 0
M  V30 3793 C 344.631 1.4929 -3.04246 0
M  V30 3794 C 343.804 0.997903 -4.25865 0
M  V30 3795 C 342.863 2.02569 -4.85646 0
M  V30 3796 O 341.889 1.60128 -5.46212 0
M  V30 3797 N 343.091 3.3548 -4.73744 0
M  V30 3798 H 345.856 -0.316577 -2.98023 0
M  V30 3799 H 343.417 -0.315024 -1.58806 0
M  V30 3800 H 345.409 2.17766 -3.41116 0
M  V30 3801 H 343.979 2.05458 -2.35597 0
M  V30 3802 H 343.199 0.138617 -3.93956 0
M  V30 3803 H 344.487 0.645305 -5.04691 0
M  V30 3804 H 343.885 3.72661 -4.25605 0
M  V30 3805 H 342.442 3.99718 -5.14848 0
M  V30 3806 N 345.875 1.56104 -0.216619 0
M  V30 3807 C 346.808 2.16026 0.735395 0
M  V30 3808 C 347.786 1.1032 1.1945 0
M  V30 3809 O 348.97 1.38549 1.27814 0
M  V30 3810 C 346.097 2.73656 1.99575 0
M  V30 3811 C 345.143 3.92146 1.67702 0
M  V30 3812 S 345.976 5.29397 0.806145 0
M  V30 3813 C 347.132 5.90463 2.07617 0
M  V30 3814 H 347.365 2.96439 0.226072 0
M  V30 3815 H 344.898 1.544 -0.00136639 0
M  V30 3816 H 346.856 3.075 2.71945 0
M  V30 3817 H 345.517 1.93245 2.47619 0
M  V30 3818 H 344.71 4.30954 2.61332 0
M  V30 3819 H 344.312 3.59423 1.03398 0
M  V30 3820 H 346.604 6.06136 3.02664 0
M  V30 3821 H 347.547 6.86589 1.73207 0
M  V30 3822 H 347.955 5.19252 2.21445 0
M  V30 3823 N 347.353 -0.0568162 1.57498 0
M  V30 3824 C 348.263 -1.08346 2.08083 0
M  V30 3825 C 349.279 -1.41439 1.01346 0
M  V30 3826 O 350.455 -1.51316 1.32912 0
M  V30 3827 C 347.52 -2.37352 2.52715 0
M  V30 3828 C 346.581 -2.11093 3.73816 0
M  V30 3829 C 345.814 -3.33949 4.1631 0
M  V30 3830 O 346.037 -4.43622 3.58547 0
M  V30 3831 O 344.971 -3.21279 5.08983 0
M  V30 3832 H 348.797 -0.683667 2.95905 0
M  V30 3833 H 346.382 -0.271965 1.46904 0
M  V30 3834 H 348.264 -3.13246 2.81877 0
M  V30 3835 H 346.939 -2.76681 1.68016 0
M  V30 3836 H 345.846 -1.32856 3.49714 0
M  V30 3837 H 347.179 -1.76637 4.59413 0
M  V30 3838 N 348.832 -1.54138 -0.328536 0
M  V30 3839 C 350.248 -1.44736 -0.672574 0
M  V30 3840 C 350.448 -0.616217 -1.91846 0
M  V30 3841 O 349.504 -0.113067 -2.52247 0
M  V30 3842 C 350.817 -2.884 -0.851217 0
M  V30 3843 C 352.365 -2.98271 -0.948877 0
M  V30 3844 C 352.84 -4.43074 -1.15973 0
M  V30 3845 N 354.331 -4.46665 -1.22658 0
M  V30 3846 C 355.066 -5.55857 -1.40751 0
M  V30 3847 N 354.562 -6.75026 -1.5592 0
M  V30 3848 N 356.355 -5.43495 -1.4342 0
M  V30 3849 H 348.506 -2.06661 0.490421 0
M  V30 3850 H 350.769 -0.934812 0.157579 0
M  V30 3851 H 350.475 -3.51699 -0.00704236 0
M  V30 3852 H 350.349 -3.34225 -1.74853 0
M  V30 3853 H 352.736 -2.35102 -1.78356 0
M  V30 3854 H 352.817 -2.55785 -0.0281435 0
M  V30 3855 H 352.461 -5.06827 -0.329915 0
M  V30 3856 H 352.391 -4.83165 -2.09426 0
M  V30 3857 H 354.882 -3.60797 -1.124 0
M  V30 3858 H 355.195 -7.54004 -1.69404 0
M  V30 3859 H 353.54 -6.77944 -1.53027 0
M  V30 3860 H 356.731 -4.49349 -1.31162 0
M  V30 3861 H 356.904 -6.28649 -1.57178 0
M  V30 3862 N 350.31 0.590341 -1.46126 0
M  V30 3863 C 351.22 1.72793 -1.58681 0
M  V30 3864 C 352.236 1.67516 -0.470566 0
M  V30 3865 O 353.412 1.87562 -0.733642 0
M  V30 3866 C 350.477 3.09287 -1.5666 0
M  V30 3867 C 349.538 3.25886 -2.79458 0
M  V30 3868 C 348.771 4.55869 -2.77524 0
M  V30 3869 O 348.994 5.3928 -1.85832 0
M  V30 3870 O 347.928 4.75552 -3.68964 0
M  V30 3871 H 351.754 1.65149 -2.54872 0
M  V30 3872 H 349.339 0.756486 -1.28832 0
M  V30 3873 H 351.221 3.90577 -1.58202 0
M  V30 3874 H 349.896 3.17385 -0.636271 0
M  V30 3875 H 348.803 2.44119 -2.83472 0
M  V30 3876 H 350.136 3.22675 -3.71674 0
M  V30 3877 N 351.788 1.33704 0.83433 0
M  V30 3878 C 352.72 1.20172 1.9517 0
M  V30 3879 C 353.733 0.131572 1.62267 0
M  V30 3880 O 354.922 0.382406 1.74356 0
M  V30 3881 C 352.022 0.821716 3.28787 0
M  V30 3882 C 351.195 1.98446 3.89792 0
M  V30 3883 C 350.254 1.58469 5.01771 0
M  V30 3884 O 349.28 2.29968 5.20676 0
M  V30 3885 N 350.482 0.492291 5.78409 0
M  V30 3886 H 353.247 2.16429 2.07313 0
M  V30 3887 H 350.808 1.26509 1.0103 0
M  V30 3888 H 352.8 0.536291 4.01131 0
M  V30 3889 H 351.37 -0.0503058 3.1256 0
M  V30 3890 H 350.59 2.43526 3.09982 0
M  V30 3891 H 351.878 2.76236 4.27283 0
M  V30 3892 H 351.276 -0.102349 5.65607 0
M  V30 3893 H 349.833 0.266555 6.51255 0
M  V30 3894 N 353.266 -1.05314 1.17247 0
M  V30 3895 C 354.513 -1.78293 0.960091 0
M  V30 3896 C 354.841 -1.87658 -0.51136 0
M  V30 3897 O 354.096 -1.3718 -1.39571 0
M  V30 3898 C 354.395 -3.2229 1.54479 0
M  V30 3899 C 354.061 -3.32987 3.04024 0
M  V30 3900 C 352.723 -3.35613 3.44844 0
M  V30 3901 C 355.075 -3.34102 4.00031 0
M  V30 3902 C 352.403 -3.36982 4.8027 0
M  V30 3903 C 354.755 -3.3701 5.35357 0
M  V30 3904 C 353.419 -3.37923 5.75642 0
M  V30 3905 H 352.689 -0.652422 0.351322 0
M  V30 3906 H 355.336 -1.23782 1.46117 0
M  V30 3907 H 353.641 -3.7972 0.965391 0
M  V30 3908 H 355.338 -3.77376 1.35603 0
M  V30 3909 H 351.928 -3.31655 2.71483 0
M  V30 3910 H 356.112 -3.31276 3.69554 0
M  V30 3911 H 351.368 -3.35999 5.10798 0
M  V30 3912 H 355.542 -3.36822 6.09528 0
M  V30 3913 H 353.169 -3.38738 6.80559 0
M  V30 3914 N 354.744 -0.972509 -1.24016 0
M  V30 3915 C 355.654 -0.5143 -2.28893 0
M  V30 3916 C 356.67 0.427078 -1.68677 0
M  V30 3917 O 357.846 0.298939 -1.99169 0
M  V30 3918 C 354.911 0.183598 -3.46214 0
M  V30 3919 C 353.972 -0.798202 -4.21814 0
M  V30 3920 C 353.205 -0.133514 -5.33533 0
M  V30 3921 O 353.428 1.07714 -5.60137 0
M  V30 3922 O 352.362 -0.828103 -5.96176 0
M  V30 3923 H 356.188 -1.38629 -2.70214 0
M  V30 3924 H 353.773 -0.739769 -1.29799 0
M  V30 3925 H 355.655 0.575433 -4.17453 0
M  V30 3926 H 354.33 1.03048 -3.0686 0
M  V30 3927 H 353.237 -1.24059 -3.52931 0
M  V30 3928 H 354.57 -1.61364 -4.64997 0
M  V30 3929 N 356.222 1.38976 -0.743202 0
M  V30 3930 C 357.185 2.28901 -0.117014 0
M  V30 3931 C 358.185 1.46698 0.658503 0
M  V30 3932 O 359.375 1.67274 0.486305 0
M  V30 3933 C 356.507 3.30309 0.84315 0
M  V30 3934 H 357.7 2.8578 -0.909373 0
M  V30 3935 H 355.253 1.47761 -0.509547 0
M  V30 3936 H 355.988 2.785 1.66157 0
M  V30 3937 H 355.773 3.91029 0.289594 0
M  V30 3938 H 357.263 3.97577 1.2776 0
M  V30 3939 N 357.7 0.491464 1.49741 0
M  V30 3940 C 359.111 0.0413169 1.86654 0
M  V30 3941 C 359.462 -1.36985 1.40462 0
M  V30 3942 O 358.587 -2.01917 0.778354 0
M  V30 3943 C 359.182 0.0682023 3.38731 0
M  V30 3944 C 357.741 -0.32656 3.74981 0
M  V30 3945 C 356.888 0.444888 2.73708 0
M  V30 3946 H 359.839 0.704733 1.42194 0
M  V30 3947 H 359.86 -0.729322 3.73445 0
M  V30 3948 H 359.372 1.09539 3.72321 0
M  V30 3949 H 357.473 -1.35734 3.46997 0
M  V30 3950 H 357.586 -0.013741 4.79098 0
M  V30 3951 H 355.95 -0.104062 2.54487 0
M  V30 3952 H 356.733 1.47197 3.10142 0
M  V30 3953 N 359.178 -1.55987 0.224894 0
M  V30 3954 C 360.088 -2.24066 -0.69511 0
M  V30 3955 C 361.104 -1.24939 -1.21104 0
M  V30 3956 O 362.28 -1.5776 -1.25195 0
M  V30 3957 C 359.345 -2.90983 -1.88493 0
M  V30 3958 C 358.406 -4.05462 -1.41064 0
M  V30 3959 C 357.639 -4.69179 -2.54375 0
M  V30 3960 O 357.862 -4.31895 -3.72589 0
M  V30 3961 O 356.796 -5.58108 -2.25386 0
M  V30 3962 H 360.622 -3.03353 -0.145149 0
M  V30 3963 H 358.207 -1.49399 -0.00569476 0
M  V30 3964 H 360.089 -3.33209 -2.57972 0
M  V30 3965 H 358.764 -2.14653 -2.42293 0
M  V30 3966 H 357.671 -3.67798 -0.683774 0
M  V30 3967 H 359.004 -4.83545 -0.918985 0
M  V30 3968 N 360.656 0.0484629 -1.57525 0
M  V30 3969 C 361.586 1.0549 -2.08313 0
M  V30 3970 C 362.567 1.38929 -0.981463 0
M  V30 3971 O 363.752 1.48151 -1.25558 0
M  V30 3972 C 360.882 2.36162 -2.54646 0
M  V30 3973 C 359.836 2.17016 -3.68901 0
M  V30 3974 C 359.162 3.53278 -4.01371 0
M  V30 3975 C 360.462 1.57219 -4.98076 0
M  V30 3976 H 362.156 0.632195 -2.92649 0
M  V30 3977 H 359.702 0.302654 -1.40784 0
M  V30 3978 H 361.655 3.06882 -2.88793 0
M  V30 3979 H 360.379 2.80456 -1.67368 0
M  V30 3980 H 359.038 1.48733 -3.35073 0
M  V30 3981 H 358.686 3.95185 -3.11188 0
M  V30 3982 H 358.386 3.41299 -4.78318 0
M  V30 3983 H 359.91 4.25391 -4.38035 0
M  V30 3984 H 361.324 2.17832 -5.30304 0
M  V30 3985 H 359.721 1.55871 -5.79503 0
M  V30 3986 H 360.791 0.535956 -4.81929 0
M  V30 3987 N 362.134 1.5431 0.320358 0
M  V30 3988 C 363.38 1.73859 1.05568 0
M  V30 3989 C 363.735 0.507807 1.85578 0
M  V30 3990 O 363.028 -0.499789 1.84967 0
M  V30 3991 C 363.222 2.95639 2.00828 0
M  V30 3992 C 363.051 4.30444 1.30186 0
M  V30 3993 C 361.821 4.94544 1.03703 0
M  V30 3994 C 364.019 5.0929 0.716138 0
M  V30 3995 N 362.001 6.13172 0.298846 0
M  V30 3996 C 363.372 6.19903 0.109729 0
M  V30 3997 C 365.427 4.94034 0.619269 0
M  V30 3998 C 364.13 7.16924 -0.584153 0
M  V30 3999 C 366.156 5.91369 -0.0609184 0
M  V30 4000 C 365.518 7.01336 -0.656258 0
M  V30 4001 H 361.617 0.688988 0.36989 0
M  V30 4002 H 364.201 1.9177 0.336494 0
M  V30 4003 H 362.372 2.79188 2.70016 0
M  V30 4004 H 364.104 3.03802 2.6737 0
M  V30 4005 H 360.859 4.54536 1.33019 0
M  V30 4006 H 361.283 6.76977 -0.0561964 0
M  V30 4007 H 365.925 4.0916 1.06526 0
M  V30 4008 H 363.643 8.01354 -1.04197 0
M  V30 4009 H 367.229 5.81642 -0.135552 0
M  V30 4010 H 366.109 7.75359 -1.17423 0
M  V30 4011 N 363.613 -0.582584 1.46437 0
M  V30 4012 C 364.862 -1.337 1.5102 0
M  V30 4013 C 365.175 -1.94891 0.166359 0
M  V30 4014 O 366.381 -2.71351 0.0899954 0
M  V30 4015 C 364.837 -2.42315 2.66104 0
M  V30 4016 C 364.445 -1.87427 4.06909 0
M  V30 4017 C 366.189 -3.19099 2.79958 0
M  V30 4018 C 364.096 -2.93672 5.13333 0
M  V30 4019 H 363.026 -0.502619 0.562041 0
M  V30 4020 H 365.677 -0.621701 1.72647 0
M  V30 4021 H 364.059 -3.16645 2.37807 0
M  V30 4022 H 365.233 -1.19639 4.44998 0
M  V30 4023 H 363.548 -1.2331 3.97723 0
M  V30 4024 H 366.145 -3.9839 3.56636 0
M  V30 4025 H 366.488 -3.71695 1.87479 0
M  V30 4026 H 367.021 -2.51875 3.07902 0
M  V30 4027 H 363.76 -2.45962 6.07604 0
M  V30 4028 H 363.28 -3.59948 4.79789 0
M  V30 4029 H 364.959 -3.5762 5.39182 0
M  V30 4030 N 365.091 -1.34144 -0.827227 0
M  V30 4031 C 366.039 -1.25364 -1.95925 0
M  V30 4032 C 367.033 -0.152608 -1.68711 0
M  V30 4033 O 368.239 -0.317311 -1.77181 0
M  V30 4034 H 364.614 -0.389342 -0.643364 0
M  V30 4035 H 366.585 -2.21045 -2.00454 0
M  V30 4036 C 365.334 -1.02158 -3.32354 0
M  V30 4037 H 364.657 -1.86111 -3.5384 0
M  V30 4038 H 366.097 -1.00048 -4.12027 0
M  V30 4039 C 364.556 0.275244 -3.35774 0
M  V30 4040 O 365.086 1.27806 -3.80826 0
M  V30 4041 N 363.292 0.306853 -2.88975 0
M  V30 4042 H 362.839 -0.509777 -2.52506 0
M  V30 4043 H 362.797 1.17432 -2.91646 0
M  V30 4044 N 366.569 1.04691 -1.17803 0
M  V30 4045 C 367.98 1.59238 -0.974689 0
M  V30 4046 C 368.331 1.90306 0.477292 0
M  V30 4047 O 367.456 1.68846 1.35352 0
M  V30 4048 C 368.051 2.89318 -1.76296 0
M  V30 4049 C 366.61 3.40506 -1.60414 0
M  V30 4050 C 365.757 2.14172 -1.76141 0
M  V30 4051 H 368.708 0.874395 -1.32439 0
M  V30 4052 H 368.729 3.5944 -1.24833 0
M  V30 4053 H 368.241 2.66675 -2.81968 0
M  V30 4054 H 366.342 3.68175 -0.572519 0
M  V30 4055 H 366.455 4.14753 -2.39827 0
M  V30 4056 H 364.819 2.25176 -1.19028 0
M  V30 4057 H 365.602 1.93992 -2.83235 0
M  V30 4058 N 368.047 0.979072 1.23499 0
M  V30 4059 C 368.957 0.526431 2.28617 0
M  V30 4060 C 369.973 -0.418126 1.68901 0
M  V30 4061 O 371.149 -0.288372 1.99325 0
M  V30 4062 C 368.214 -0.165235 3.46306 0
M  V30 4063 C 367.275 0.82056 4.21385 0
M  V30 4064 C 366.508 0.161807 5.33455 0
M  V30 4065 O 366.731 -1.04742 5.60701 0
M  V30 4066 O 365.665 0.859708 5.95729 0
M  V30 4067 H 369.491 1.4006 2.69475 0
M  V30 4068 H 367.076 0.746643 1.29405 0
M  V30 4069 H 368.958 -0.553287 4.17752 0
M  V30 4070 H 367.633 -1.01419 3.07402 0
M  V30 4071 H 366.54 1.25929 3.52268 0
M  V30 4072 H 367.873 1.63828 4.64135 0
M  V30 4073 N 369.525 -1.3858 0.750561 0
M  V30 4074 C 370.771 -2.00481 0.305825 0
M  V30 4075 C 371.104 -1.5944 -1.10872 0
M  V30 4076 O 370.379 -0.83052 -1.75877 0
M  V30 4077 C 370.662 -3.5758 0.425287 0
M  V30 4078 C 370.515 -4.08594 1.88072 0
M  V30 4079 C 371.834 -4.39719 -0.183122 0
M  V30 4080 H 368.953 -0.728348 0.112598 0
M  V30 4081 H 371.595 -1.64566 0.949638 0
M  V30 4082 H 369.745 -3.88306 -0.122828 0
M  V30 4083 H 371.417 -3.88523 2.48691 0
M  V30 4084 H 369.66 -3.61574 2.39681 0
M  V30 4085 H 370.331 -5.177 1.91548 0
M  V30 4086 H 372.807 -4.15128 0.284303 0
M  V30 4087 H 371.683 -5.48856 -0.0692757 0
M  V30 4088 H 371.944 -4.23434 -1.27106 0
M  V30 4089 N 371.003 -0.499398 -1.49478 0
M  V30 4090 C 371.95 0.279881 -2.29097 0
M  V30 4091 C 372.92 0.961805 -1.3542 0
M  V30 4092 O 374.105 0.968777 -1.64376 0
M  V30 4093 C 371.245 1.33932 -3.18051 0
M  V30 4094 C 370.358 0.669333 -4.26783 0
M  V30 4095 C 369.493 1.70907 -5.02955 0
M  V30 4096 C 368.532 1.02087 -6.03527 0
M  V30 4097 N 367.669 2.00474 -6.7287 0
M  V30 4098 H 372.509 -0.405317 -2.95231 0
M  V30 4099 H 370.046 -0.211726 -1.45568 0
M  V30 4100 H 372.004 1.96553 -3.67998 0
M  V30 4101 H 370.634 1.9933 -2.53904 0
M  V30 4102 H 369.686 -0.0701234 -3.80335 0
M  V30 4103 H 370.998 0.127503 -4.98637 0
M  V30 4104 H 370.152 2.41037 -5.56764 0
M  V30 4105 H 368.891 2.28476 -4.30871 0
M  V30 4106 H 367.896 0.305338 -5.48951 0
M  V30 4107 H 369.121 0.451708 -6.77596 0
M  V30 4108 H 367.067 2.57007 -6.03559 0
M  V30 4109 H 366.984 1.51353 -7.40694 0
M  V30 4110 H 368.252 2.69897 -7.31284 0
M  V30 4111 N 372.481 1.55866 -0.233164 0
M  V30 4112 C 373.758 1.90471 0.444988 0
M  V30 4113 C 374.138 1.15209 1.7689 0
M  V30 4114 O 373.486 0.265119 2.26957 0
M  V30 4115 C 373.696 3.4333 0.626559 0
M  V30 4116 C 375.044 4.14319 0.92871 0
M  V30 4117 O 376.068 3.48993 0.712926 0
M  V30 4118 O 374.927 5.29846 1.33887 0
M  V30 4119 H 372.021 0.792347 0.236885 0
M  V30 4120 H 374.567 1.67437 -0.276211 0
M  V30 4121 H 373.339 3.90095 -0.306822 0
M  V30 4122 H 372.962 3.72181 1.39881 0
M  V30 4123 N 373.959 -0.0401083 1.57549 0
M  V30 4124 C 375.206 -0.733125 1.88763 0
M  V30 4125 C 375.534 -1.75946 0.829058 0
M  V30 4126 O 374.789 -1.94949 -0.171323 0
M  V30 4127 C 375.088 -1.44902 3.26708 0
M  V30 4128 C 374.754 -0.559707 4.47413 0
M  V30 4129 C 373.416 -0.314731 4.8017 0
M  V30 4130 C 375.768 0.0549743 5.21171 0
M  V30 4131 C 373.096 0.553886 5.8408 0
M  V30 4132 C 375.448 0.911229 6.26003 0
M  V30 4133 C 374.112 1.16577 6.57241 0
M  V30 4134 H 373.382 -0.268269 0.690733 0
M  V30 4135 H 376.029 0.00679408 1.91499 0
M  V30 4136 H 374.334 -2.26197 3.1991 0
M  V30 4137 H 376.031 -1.99058 3.48105 0
M  V30 4138 H 372.621 -0.760793 4.21794 0
M  V30 4139 H 376.805 -0.121344 4.96152 0
M  V30 4140 H 372.061 0.759518 6.06664 0
M  V30 4141 H 376.235 1.3941 6.82303 0
M  V30 4142 H 373.862 1.84058 7.37582 0
M  V30 4143 N 375.437 -1.54477 -0.31217 0
M  V30 4144 C 376.667 -1.76948 -1.06645 0
M  V30 4145 C 377.075 -0.523593 -1.81811 0
M  V30 4146 O 376.418 0.51578 -1.76311 0
M  V30 4147 C 376.48 -2.91668 -2.10166 0
M  V30 4148 C 376.144 -4.30165 -1.54296 0
M  V30 4149 C 377.141 -5.10603 -0.978793 0
M  V30 4150 C 374.826 -4.76738 -1.58196 0
M  V30 4151 C 376.82 -6.3573 -0.461048 0
M  V30 4152 C 374.507 -6.01831 -1.06034 0
M  V30 4153 C 375.505 -6.81161 -0.500844 0
M  V30 4154 O 375.193 -8.03899 0.0128958 0
M  V30 4155 H 374.925 -0.594088 -0.322546 0
M  V30 4156 H 377.479 -2.02213 -0.360441 0
M  V30 4157 H 375.709 -2.62001 -2.84416 0
M  V30 4158 H 377.398 -3.01817 -2.71406 0
M  V30 4159 H 378.164 -4.75771 -0.941651 0
M  V30 4160 H 374.043 -4.15027 -2.00683 0
M  V30 4161 H 377.587 -6.97596 -0.0236894 0
M  V30 4162 H 373.484 -6.36152 -1.09459 0
M  V30 4163 H 374.252 -8.18437 -0.101457 0
M  V30 4164 N 376.915 0.57481 -1.46744 0
M  V30 4165 C 378.192 1.3352 -1.4294 0
M  V30 4166 C 378.572 2.10775 -0.117009 0
M  V30 4167 O 377.92 2.09966 0.901474 0
M  V30 4168 C 378.13 2.25456 -2.66403 0
M  V30 4169 C 379.478 2.87035 -3.12883 0
M  V30 4170 O 380.502 2.35766 -2.67007 0
M  V30 4171 O 379.361 3.80179 -3.92589 0
M  V30 4172 H 376.455 0.600318 -0.568812 0
M  V30 4173 H 379.001 0.595171 -1.58921 0
M  V30 4174 H 377.773 1.67851 -3.53471 0
M  V30 4175 H 377.396 3.06785 -2.52921 0
M  V30 4176 N 378.394 1.34581 0.820102 0
M  V30 4177 C 379.641 1.27096 1.57648 0
M  V30 4178 C 379.969 -0.158317 1.93855 0
M  V30 4179 O 379.224 -1.12028 1.60463 0
M  V30 4180 C 379.523 2.10997 2.8847 0
M  V30 4181 C 379.189 3.59966 2.71543 0
M  V30 4182 C 377.851 4.00575 2.66634 0
M  V30 4183 C 380.203 4.54548 2.55021 0
M  V30 4184 C 377.531 5.33953 2.43128 0
M  V30 4185 C 379.883 5.88109 2.33047 0
M  V30 4186 C 378.547 6.27878 2.26552 0
M  V30 4187 H 377.817 0.465078 0.576874 0
M  V30 4188 H 380.464 1.6635 0.948671 0
M  V30 4189 H 378.769 1.6458 3.55557 0
M  V30 4190 H 380.466 2.0255 3.46084 0
M  V30 4191 H 377.056 3.27733 2.76205 0
M  V30 4192 H 381.24 4.24069 2.57835 0
M  V30 4193 H 376.496 5.63781 2.3656 0
M  V30 4194 H 380.67 6.60985 2.19251 0
M  V30 4195 H 378.297 7.31162 2.081 0
M  V30 4196 N 379.872 -1.04064 1.18357 0
M  V30 4197 C 381.1 -1.80916 1.00384 0
M  V30 4198 C 381.515 -1.83414 -0.447738 0
M  V30 4199 O 380.872 -1.26962 -1.31099 0
M  V30 4200 C 380.923 -3.26516 1.55144 0
M  V30 4201 O 380.644 -3.2424 2.94618 0
M  V30 4202 C 382.145 -4.20013 1.41789 0
M  V30 4203 H 379.365 -0.569728 0.354474 0
M  V30 4204 H 381.909 -1.31151 1.56906 0
M  V30 4205 H 380.064 -3.73512 1.02798 0
M  V30 4206 H 380.478 -4.15452 3.20156 0
M  V30 4207 H 381.952 -5.20111 1.84901 0
M  V30 4208 H 382.429 -4.37667 0.36661 0
M  V30 4209 H 383.035 -3.78881 1.93207 0
M  V30 4210 N 381.35 -0.985608 -1.22978 0
M  V30 4211 C 382.599 -0.652881 -1.90841 0
M  V30 4212 C 382.912 0.817842 -1.77681 0
M  V30 4213 O 384.118 1.26185 -2.40395 0
M  V30 4214 C 382.574 -1.11717 -3.42122 0
M  V30 4215 C 382.182 -2.6126 -3.63933 0
M  V30 4216 C 383.926 -0.85843 -4.1573 0
M  V30 4217 C 381.833 -3.0133 -5.08876 0
M  V30 4218 H 380.763 -0.240491 -0.714619 0
M  V30 4219 H 383.414 -1.1942 -1.39324 0
M  V30 4220 H 381.796 -0.504027 -3.92779 0
M  V30 4221 H 382.97 -3.27858 -3.23799 0
M  V30 4222 H 381.285 -2.84937 -3.03644 0
M  V30 4223 H 383.882 -1.13359 -5.22546 0
M  V30 4224 H 384.225 0.205461 -4.15793 0
M  V30 4225 H 384.758 -1.43341 -3.71077 0
M  V30 4226 H 381.497 -4.06864 -5.13947 0
M  V30 4227 H 381.017 -2.3943 -5.49939 0
M  V30 4228 H 382.696 -2.92224 -5.77247 0
M  V30 4229 N 382.828 1.3818 -0.7579 0
M  V30 4230 C 384.105 1.94106 -0.241306 0
M  V30 4231 C 384.485 1.69282 1.26122 0
M  V30 4232 O 383.833 1.03378 2.03777 0
M  V30 4233 C 384.043 3.43809 -0.59967 0
M  V30 4234 C 385.391 4.20868 -0.561717 0
M  V30 4235 O 386.415 3.5211 -0.538222 0
M  V30 4236 O 385.274 5.43451 -0.576478 0
M  V30 4237 H 382.368 0.825376 -0.0518042 0
M  V30 4238 H 384.914 1.47548 -0.838315 0
M  V30 4239 H 383.686 3.55403 -1.6372 0
M  V30 4240 H 383.309 3.97592 0.0251197 0
M  V30 4241 N 384.306 0.507319 1.49211 0
M  V30 4242 C 385.583 -0.0982702 1.95353 0
M  V30 4243 C 385.963 -1.53516 1.449 0
M  V30 4244 O 385.311 -2.18594 0.66551 0
M  V30 4245 C 385.521 -0.00440283 3.49 0
M  V30 4246 C 386.869 -0.175147 4.24239 0
M  V30 4247 O 387.893 -0.0792891 3.56112 0
M  V30 4248 O 386.752 -0.37276 5.45227 0
M  V30 4249 H 383.846 -0.0918236 0.821887 0
M  V30 4250 H 386.392 0.570307 1.5983 0
M  V30 4251 H 385.164 0.997402 3.78375 0
M  V30 4252 H 384.787 -0.712845 3.91158 0
M  V30 4253 N 385.784 -1.5574 0.241426 0
M  V30 4254 C 387.031 -1.9881 -0.384836 0
M  V30 4255 C 387.359 -1.12947 -1.58346 0
M  V30 4256 O 386.614 -0.178993 -1.9488 0
M  V30 4257 C 386.913 -3.47308 -0.843317 0
M  V30 4258 C 386.579 -4.50223 0.246946 0
M  V30 4259 C 385.241 -4.78088 0.546399 0
M  V30 4260 C 387.593 -5.11841 0.983282 0
M  V30 4261 C 384.921 -5.64846 1.58636 0
M  V30 4262 C 387.273 -5.99727 2.01272 0
M  V30 4263 C 385.937 -6.25927 2.31888 0
M  V30 4264 H 385.207 -0.727496 -0.140821 0
M  V30 4265 H 387.854 -1.8831 0.348106 0
M  V30 4266 H 386.159 -3.55112 -1.65537 0
M  V30 4267 H 387.856 -3.78017 -1.33806 0
M  V30 4268 H 384.446 -4.286 0.00340639 0
M  V30 4269 H 388.63 -4.90366 0.765182 0
M  V30 4270 H 383.886 -5.83403 1.82896 0
M  V30 4271 H 388.06 -6.46517 2.58823 0
M  V30 4272 H 385.687 -6.92949 3.12611 0
M  V30 4273 N 387.262 0.0317525 -1.57568 0
M  V30 4274 C 388.209 1.0332 -2.06382 0
M  V30 4275 C 389.179 1.36082 -0.952414 0
M  V30 4276 O 390.364 1.46466 -1.2228 0
M  V30 4277 C 387.504 2.32989 -2.54578 0
M  V30 4278 C 386.617 2.0641 -3.79498 0
M  V30 4279 C 385.752 3.2993 -4.16317 0
M  V30 4280 C 384.791 2.98893 -5.34162 0
M  V30 4281 N 383.928 4.14857 -5.66426 0
M  V30 4282 H 388.768 0.609982 -2.9169 0
M  V30 4283 H 386.305 0.289573 -1.44222 0
M  V30 4284 H 388.263 3.0875 -2.80587 0
M  V30 4285 H 386.893 2.73039 -1.7219 0
M  V30 4286 H 385.945 1.21158 -3.6059 0
M  V30 4287 H 387.257 1.79513 -4.65378 0
M  V30 4288 H 386.411 4.1406 -4.4344 0
M  V30 4289 H 385.15 3.59938 -3.29083 0
M  V30 4290 H 384.155 2.13164 -5.06795 0
M  V30 4291 H 385.38 2.70165 -6.23047 0
M  V30 4292 H 383.326 4.44821 -4.82151 0
M  V30 4293 H 383.243 3.91374 -6.4681 0
M  V30 4294 H 384.511 4.99868 -5.98124 0
M  V30 4295 N 388.74 1.54641 0.303973 0
M  V30 4296 C 389.67 1.88386 1.3796 0
M  V30 4297 C 390.651 0.742485 1.5304 0
M  V30 4298 O 391.836 0.997959 1.66597 0
M  V30 4299 C 388.966 2.12854 2.74427 0
M  V30 4300 C 387.92 3.28702 2.74115 0
M  V30 4301 C 387.246 3.38582 4.13844 0
M  V30 4302 C 388.546 4.65881 2.3612 0
M  V30 4303 H 390.24 2.78474 1.09966 0
M  V30 4304 H 387.786 1.33988 0.527556 0
M  V30 4305 H 389.739 2.35047 3.49758 0
M  V30 4306 H 388.463 1.19535 3.03939 0
M  V30 4307 H 387.122 3.06428 2.0124 0
M  V30 4308 H 386.77 2.42784 4.40528 0
M  V30 4309 H 386.47 4.16453 4.14537 0
M  V30 4310 H 387.994 3.63031 4.90959 0
M  V30 4311 H 389.408 4.87823 3.01167 0
M  V30 4312 H 387.805 5.46444 2.48031 0
M  V30 4313 H 388.875 4.66799 1.3125 0
M  V30 4314 N 390.218 -0.567019 1.47046 0
M  V30 4315 C 391.467 -1.32091 1.5243 0
M  V30 4316 C 391.78 -1.94704 0.187021 0
M  V30 4317 O 392.986 -2.7124 0.118771 0
M  V30 4318 C 391.442 -2.39479 2.68659 0
M  V30 4319 C 391.05 -1.831 4.08874 0
M  V30 4320 C 392.794 -3.16111 2.83327 0
M  V30 4321 C 390.701 -2.8821 5.16419 0
M  V30 4322 H 389.631 -0.496629 0.56734 0
M  V30 4323 H 392.282 -0.603354 1.73297 0
M  V30 4324 H 390.664 -3.14105 2.41152 0
M  V30 4325 H 391.838 -1.14913 4.46242 0
M  V30 4326 H 390.153 -1.19085 3.99008 0
M  V30 4327 H 392.75 -3.94585 3.60842 0
M  V30 4328 H 393.093 -3.69686 1.91411 0
M  V30 4329 H 393.626 -2.48595 3.10556 0
M  V30 4330 H 390.365 -2.39504 6.10179 0
M  V30 4331 H 389.885 -3.54839 4.8358 0
M  V30 4332 H 391.564 -3.51881 5.42945 0
M  V30 4333 N 391.696 -1.35014 -0.812953 0
M  V30 4334 C 392.644 -1.27435 -1.94585 0
M  V30 4335 C 393.638 -0.170494 -1.6854 0
M  V30 4336 O 394.844 -0.336085 -1.76835 0
M  V30 4337 H 391.219 -0.396144 -0.639198 0
M  V30 4338 H 393.19 -2.23158 -1.98098 0
M  V30 4339 C 391.939 -1.05677 -3.31252 0
M  V30 4340 H 391.262 -1.89853 -3.51846 0
M  V30 4341 H 392.702 -1.04413 -4.10943 0
M  V30 4342 C 391.161 0.239615 -3.36047 0
M  V30 4343 O 391.691 1.23759 -3.8216 0
M  V30 4344 N 389.897 0.276186 -2.89285 0
M  V30 4345 H 389.444 -0.53653 -2.51951 0
M  V30 4346 H 389.402 1.14332 -2.92875 0
M  V30 4347 N 393.175 1.03435 -1.18907 0
M  V30 4348 C 394.405 1.8012 -1.01195 0
M  V30 4349 C 394.813 1.8395 0.442613 0
M  V30 4350 O 394.156 1.27836 1.31923 0
M  V30 4351 C 394.218 3.26792 -1.49823 0
M  V30 4352 C 393.882 3.46609 -2.97844 0
M  V30 4353 C 394.879 3.37278 -3.95651 0
M  V30 4354 C 392.564 3.73001 -3.36416 0
M  V30 4355 C 394.558 3.54054 -5.30023 0
M  V30 4356 C 392.245 3.89423 -4.70949 0
M  V30 4357 C 393.243 3.79951 -5.67562 0
M  V30 4358 O 392.931 3.95895 -6.99659 0
M  V30 4359 H 392.663 0.573865 -0.357289 0
M  V30 4360 H 395.217 1.31207 -1.58031 0
M  V30 4361 H 393.447 3.76703 -0.873578 0
M  V30 4362 H 395.136 3.85055 -1.28404 0
M  V30 4363 H 395.902 3.16846 -3.67197 0
M  V30 4364 H 391.781 3.79469 -2.61772 0
M  V30 4365 H 395.325 3.46577 -6.05417 0
M  V30 4366 H 391.222 4.09351 -4.99101 0
M  V30 4367 H 391.99 4.13019 -7.06653 0
M  V30 4368 N 394.653 0.992116 1.22453 0
M  V30 4369 C 395.6 0.541731 2.24352 0
M  V30 4370 C 396.57 -0.425519 1.60557 0
M  V30 4371 O 397.755 -0.330453 1.87917 0
M  V30 4372 C 394.895 -0.138248 3.44823 0
M  V30 4373 C 394.008 0.870649 4.23136 0
M  V30 4374 C 393.143 0.164269 5.30946 0
M  V30 4375 C 392.182 1.16159 6.00977 0
M  V30 4376 N 391.319 0.483568 7.00433 0
M  V30 4377 H 396.159 1.41541 2.62241 0
M  V30 4378 H 393.696 0.709013 1.28885 0
M  V30 4379 H 395.654 -0.5494 4.13567 0
M  V30 4380 H 394.284 -0.975721 3.077 0
M  V30 4381 H 393.336 1.40013 3.53696 0
M  V30 4382 H 394.648 1.63014 4.7141 0
M  V30 4383 H 393.802 -0.303653 6.0594 0
M  V30 4384 H 392.541 -0.627733 4.83643 0
M  V30 4385 H 391.546 1.64015 5.24766 0
M  V30 4386 H 392.771 1.95445 6.50368 0
M  V30 4387 H 390.717 -0.289012 6.55363 0
M  V30 4388 H 390.634 1.18152 7.4671 0
M  V30 4389 H 391.902 0.0384219 7.79491 0
M  V30 4390 N 396.131 -1.37776 0.765217 0
M  V30 4391 C 397.081 -2.2768 0.12075 0
M  V30 4392 C 398.065 -1.45778 -0.680988 0
M  V30 4393 O 399.257 -1.684 -0.545033 0
M  V30 4394 C 396.386 -3.34722 -0.762626 0
M  V30 4395 C 395.472 -4.24074 0.0465881 0
M  V30 4396 N 395.863 -4.93939 1.08892 0
M  V30 4397 C 394.161 -4.45643 -0.178418 0
M  V30 4398 C 394.862 -5.59845 1.57951 0
M  V30 4399 N 393.838 -5.36218 0.892797 0
M  V30 4400 H 397.64 -2.79166 0.918889 0
M  V30 4401 H 395.154 -1.50816 0.602353 0
M  V30 4402 H 397.151 -3.98031 -1.24005 0
M  V30 4403 H 395.811 -2.84793 -1.55959 0
M  V30 4404 H 396.822 -4.96572 1.47095 0
M  V30 4405 H 393.499 -4.06599 -0.9478 0
M  V30 4406 H 394.889 -6.25703 2.44838 0
M  V30 4407 N 397.609 -0.515225 -1.4894 0
M  V30 4408 C 398.857 0.0241671 -2.02086 0
M  V30 4409 C 399.178 1.3616 -1.3959 0
M  V30 4410 O 398.448 1.87841 -0.556121 0
M  V30 4411 H 397.028 0.0119203 -0.746905 0
M  V30 4412 H 399.69 -0.675702 -1.82812 0
M  V30 4413 H 398.786 0.143385 -3.1177 0
M  V30 4414 N 399.087 1.5561 -0.249682 0
M  V30 4415 C 400.364 1.90932 0.424761 0
M  V30 4416 C 400.744 1.17078 1.75658 0
M  V30 4417 O 400.092 0.289176 2.26663 0
M  V30 4418 C 400.302 3.43975 0.590109 0
M  V30 4419 C 401.65 4.15281 0.884714 0
M  V30 4420 O 402.674 3.49729 0.67587 0
M  V30 4421 O 401.533 5.31236 1.28259 0
M  V30 4422 H 398.627 0.794815 0.228468 0
M  V30 4423 H 401.173 1.67135 -0.293954 0
M  V30 4424 H 399.945 3.89748 -0.34818 0
M  V30 4425 H 399.568 3.73644 1.35926 0
M  V30 4426 N 400.565 -0.0233959 1.57583 0
M  V30 4427 C 401.512 -1.02224 2.06927 0
M  V30 4428 C 402.482 -1.35575 0.959617 0
M  V30 4429 O 403.667 -1.45815 1.23055 0
M  V30 4430 C 400.807 -2.31636 2.5581 0
M  V30 4431 C 399.92 -2.04394 3.80588 0
M  V30 4432 C 399.055 -3.27717 4.18061 0
M  V30 4433 C 398.094 -2.96056 5.3574 0
M  V30 4434 N 397.231 -4.11847 5.68618 0
M  V30 4435 H 402.071 -0.594504 2.9201 0
M  V30 4436 H 399.608 -0.281921 1.44373 0
M  V30 4437 H 401.566 -3.07258 2.82221 0
M  V30 4438 H 400.196 -2.72122 1.73636 0
M  V30 4439 H 399.248 -1.19244 3.61227 0
M  V30 4440 H 400.56 -1.77042 4.66323 0
M  V30 4441 H 399.714 -4.11702 4.4563 0
M  V30 4442 H 398.453 -3.58188 3.30988 0
M  V30 4443 H 397.458 -2.10474 5.07918 0
M  V30 4444 H 398.683 -2.66857 6.24471 0
M  V30 4445 H 396.629 -4.42258 4.84504 0
M  V30 4446 H 396.546 -3.87938 6.48876 0
M  V30 4447 H 397.814 -4.96689 6.00766 0
M  V30 4448 N 402.043 -1.548 -0.295768 0
M  V30 4449 C 402.973 -1.89115 -1.36959 0
M  V30 4450 C 403.954 -0.75059 -1.52644 0
M  V30 4451 O 405.139 -1.00678 -1.66065 0
M  V30 4452 C 402.269 -2.14307 -2.73295 0
M  V30 4453 C 401.223 -3.30151 -2.72368 0
M  V30 4454 C 400.549 -3.40772 -4.12042 0
M  V30 4455 C 401.849 -4.67126 -2.33646 0
M  V30 4456 H 403.543 -2.79053 -1.08488 0
M  V30 4457 H 401.089 -1.34266 -0.520443 0
M  V30 4458 H 403.042 -2.36898 -3.48507 0
M  V30 4459 H 401.766 -1.21145 -3.03301 0
M  V30 4460 H 400.425 -3.0749 -1.99613 0
M  V30 4461 H 400.073 -2.45117 -4.39234 0
M  V30 4462 H 399.773 -4.18645 -4.12322 0
M  V30 4463 H 401.297 -3.6563 -4.89027 0
M  V30 4464 H 402.711 -4.89414 -2.98575 0
M  V30 4465 H 401.108 -5.47751 -2.45129 0
M  V30 4466 H 402.178 -4.67489 -1.28772 0
M  V30 4467 N 403.521 0.559213 -1.47345 0
M  V30 4468 C 404.451 1.67622 -1.62558 0
M  V30 4469 C 405.432 1.63331 -0.475087 0
M  V30 4470 O 406.617 1.80983 -0.704182 0
M  V30 4471 C 403.747 3.0626 -1.63774 0
M  V30 4472 C 402.701 3.25397 -2.7803 0
M  V30 4473 C 402.027 4.64801 -2.64318 0
M  V30 4474 C 403.327 3.10965 -4.19641 0
M  V30 4475 H 405.021 1.55146 -2.56067 0
M  V30 4476 H 402.567 0.744961 -1.23233 0
M  V30 4477 H 404.52 3.84247 -1.73008 0
M  V30 4478 H 403.244 3.1969 -0.66825 0
M  V30 4479 H 401.903 2.49817 -2.68304 0
M  V30 4480 H 401.551 4.75028 -1.65401 0
M  V30 4481 H 401.251 4.78555 -3.40968 0
M  V30 4482 H 402.775 5.44926 -2.75478 0
M  V30 4483 H 404.189 3.78772 -4.30354 0
M  V30 4484 H 402.586 3.36229 -4.97062 0
M  V30 4485 H 403.656 2.07736 -4.38148 0
M  V30 4486 N 404.999 1.35443 0.805782 0
M  V30 4487 C 406.246 1.28761 1.56291 0
M  V30 4488 C 406.574 -0.137747 1.94012 0
M  V30 4489 O 405.829 -1.1032 1.61642 0
M  V30 4490 C 406.128 2.14045 2.86216 0
M  V30 4491 C 405.794 3.62826 2.67709 0
M  V30 4492 C 404.456 4.0338 2.6237 0
M  V30 4493 C 406.808 4.57227 2.50186 0
M  V30 4494 C 404.136 5.36501 2.37451 0
M  V30 4495 C 406.488 5.90547 2.26797 0
M  V30 4496 C 405.152 6.30245 2.1988 0
M  V30 4497 H 404.422 0.471171 0.571908 0
M  V30 4498 H 407.069 1.67347 0.930974 0
M  V30 4499 H 405.374 1.68342 3.53791 0
M  V30 4500 H 407.071 2.0621 3.43917 0
M  V30 4501 H 403.661 3.30644 2.72713 0
M  V30 4502 H 407.845 4.2678 2.53323 0
M  V30 4503 H 403.101 5.66259 2.30567 0
M  V30 4504 H 407.275 6.63274 2.12228 0
M  V30 4505 H 404.902 7.33328 2.00333 0
M  V30 4506 N 406.477 -1.02803 1.19454 0
M  V30 4507 C 407.387 -2.14575 0.948408 0
M  V30 4508 C 408.403 -1.73757 -0.091871 0
M  V30 4509 O 409.579 -2.01185 0.0929654 0
M  V30 4510 C 406.644 -3.43202 0.491265 0
M  V30 4511 C 405.705 -3.98328 1.60103 0
M  V30 4512 C 404.938 -5.20816 1.16561 0
M  V30 4513 O 405.161 -5.70392 0.0295238 0
M  V30 4514 O 404.095 -5.68801 1.96849 0
M  V30 4515 H 407.921 -2.38202 1.88397 0
M  V30 4516 H 405.506 -1.12989 0.977433 0
M  V30 4517 H 407.388 -4.20687 0.245015 0
M  V30 4518 H 406.063 -3.21018 -0.415851 0
M  V30 4519 H 404.97 -3.22174 1.90144 0
M  V30 4520 H 406.303 -4.24879 2.48473 0
M  V30 4521 N 407.956 -0.998596 -1.21925 0
M  V30 4522 C 409.202 -0.678667 -1.91107 0
M  V30 4523 C 409.535 0.78791 -1.77498 0
M  V30 4524 O 408.81 1.57043 -1.1475 0
M  V30 4525 C 409.093 -1.09245 -3.43129 0
M  V30 4526 C 408.946 -2.61801 -3.6576 0
M  V30 4527 C 410.265 -0.649984 -4.35274 0
M  V30 4528 H 407.384 -0.248025 -0.694012 0
M  V30 4529 H 410.026 -1.24314 -1.43688 0
M  V30 4530 H 408.176 -0.612171 -3.83647 0
M  V30 4531 H 409.848 -3.17543 -3.34611 0
M  V30 4532 H 408.091 -3.03609 -3.09845 0
M  V30 4533 H 408.762 -2.85804 -4.7225 0
M  V30 4534 H 411.238 -1.0626 -4.02303 0
M  V30 4535 H 410.114 -0.967743 -5.40302 0
M  V30 4536 H 410.375 0.449139 -4.39813 0
M  V30 4537 N 409.434 1.37368 -0.772513 0
M  V30 4538 C 410.397 2.28601 -0.165541 0
M  V30 4539 C 411.397 1.48062 0.627238 0
M  V30 4540 O 412.587 1.68268 0.450715 0
M  V30 4541 C 409.719 3.32023 0.772897 0
M  V30 4542 H 410.912 2.83787 -0.969787 0
M  V30 4543 H 408.465 1.46647 -0.540775 0
M  V30 4544 H 409.2 2.81962 1.60212 0
M  V30 4545 H 408.985 3.91555 0.206585 0
M  V30 4546 H 410.475 4.00197 1.19298 0
M  V30 4547 N 410.912 0.523116 1.48665 0
M  V30 4548 C 412.158 -0.0134963 2.02796 0
M  V30 4549 C 412.491 -1.34582 1.40004 0
M  V30 4550 O 411.766 -1.86756 0.543381 0
M  V30 4551 C 412.049 -0.14276 3.59817 0
M  V30 4552 C 411.902 1.21425 4.331 0
M  V30 4553 C 413.221 -0.872856 4.31357 0
M  V30 4554 H 410.34 -0.00343074 0.736992 0
M  V30 4555 H 412.982 0.678816 1.7746 0
M  V30 4556 H 411.132 -0.732401 3.81534 0
M  V30 4557 H 412.804 1.84447 4.2282 0
M  V30 4558 H 411.047 1.79791 3.94788 0
M  V30 4559 H 411.718 1.07687 5.41394 0
M  V30 4560 H 414.194 -0.372555 4.14429 0
M  V30 4561 H 413.07 -0.932185 5.40927 0
M  V30 4562 H 413.331 -1.92161 3.98154 0
M  V30 4563 O 412.429 -1.56474 0.399779 0
M  V30 4564 H 413.12 -1.93172 -0.142934 0
M  V30 END ATOM
M  V30 BEGIN BOND
M  V30 END BOND
M  V30 END CTAB
M  END
$$$$
