drugbank_target|P0A434 Parathion hydrolase (DB02127; DB02138; DB03347)
 OpenBabel12092120453D

  0  0  0     0  0            999 V3000
M  V30 BEGIN CTAB
M  V30 COUNTS 5537 5585 0 0 0
M  V30 BEGIN ATOM
M  V30 1 H -0.908 1.98254 -0.117106 0
M  V30 2 N 0 1.576 0 0
M  V30 3 C 0.933 2.03868 1.02534 0
M  V30 4 C 1.911 0.928543 1.3348 0
M  V30 5 O 3.095 1.19667 1.45644 0
M  V30 6 C 0.222 2.43627 2.35294 0
M  V30 7 C -0.732 3.65373 2.2001 0
M  V30 8 S 0.101 5.13292 1.52614 0
M  V30 9 C 1.257 5.56322 2.86805 0
M  V30 10 H 1.49 2.90518 0.631377 0
M  V30 11 H -0.977 1.52953 0.210867 0
M  V30 12 H 0.981 2.67203 3.11629 0
M  V30 13 H -0.358 1.57376 2.7183 0
M  V30 14 H -1.165 3.90944 3.18086 0
M  V30 15 H -1.563 3.418 1.51819 0
M  V30 16 H 0.729 5.58782 3.83104 0
M  V30 17 H 1.672 6.56266 2.65933 0
M  V30 18 H 2.08 4.83886 2.90714 0
M  V30 19 N 1.4781 -0.272755 1.55222 0
M  V30 20 C 2.4101 -1.35946 1.8453 0
M  V30 21 C 3.4231 -1.45525 0.729818 0
M  V30 22 O 4.6121 -1.47337 1.00767 0
M  V30 23 C 1.7121 -2.74069 1.99347 0
M  V30 24 C 0.8851 -2.87079 3.30007 0
M  V30 25 C -0.0559 -4.05879 3.34886 0
M  V30 26 O -1.0299 -3.96626 4.08261 0
M  V30 27 N 0.1721 -5.17857 2.62307 0
M  V30 28 H 2.9371 -1.11149 2.78327 0
M  V30 29 H 0.4981 -0.462869 1.55142 0
M  V30 30 H 2.4901 -3.51838 1.99981 0
M  V30 31 H 1.0601 -2.91688 1.12415 0
M  V30 32 H 0.2801 -1.96193 3.41909 0
M  V30 33 H 1.5681 -2.92701 4.16177 0
M  V30 34 H 0.9661 -5.28261 2.02377 0
M  V30 35 H -0.4769 -5.93855 2.68663 0
M  V30 36 N 2.9562 -1.48159 -0.537278 0
M  V30 37 C 4.1842 -1.59454 -1.31841 0
M  V30 38 C 4.5992 -0.252065 -1.8711 0
M  V30 39 O 3.9562 0.757621 -1.66031 0
M  V30 40 C 4.0072 -2.63546 -2.47439 0
M  V30 41 O 3.7282 -3.92583 -1.94449 0
M  V30 42 C 5.2292 -2.85212 -3.39366 0
M  V30 43 H 2.4492 -0.53785 -0.401196 0
M  V30 44 H 4.9932 -1.93932 -0.648891 0
M  V30 45 H 3.1482 -2.31946 -3.1029 0
M  V30 46 H 3.5622 -4.49629 -2.70063 0
M  V30 47 H 5.0362 -3.61863 -4.16844 0
M  V30 48 H 5.5132 -1.93765 -3.94147 0
M  V30 49 H 6.1192 -3.18086 -2.82314 0
M  V30 50 N 4.4343 0.785586 -1.36625 0
M  V30 51 C 5.8503 1.08419 -1.17122 0
M  V30 52 C 6.0503 2.015 0.00208491 0
M  V30 53 O 5.1063 2.43551 0.666278 0
M  V30 54 C 6.4193 1.69498 -2.48377 0
M  V30 55 C 7.9673 1.81821 -2.54775 0
M  V30 56 C 8.4423 2.46315 -3.86126 0
M  V30 57 N 9.9333 2.53779 -3.87492 0
M  V30 58 C 10.6683 3.045 -4.85868 0
M  V30 59 N 10.1643 3.55499 -5.94637 0
M  V30 60 N 11.9573 3.03247 -4.73284 0
M  V30 61 H 4.1083 0.167264 -2.1174 0
M  V30 62 H 6.3713 0.13682 -0.938075 0
M  V30 63 H 6.0773 1.08571 -3.34522 0
M  V30 64 H 5.9513 2.6896 -2.64462 0
M  V30 65 H 8.3383 2.41884 -1.69045 0
M  V30 66 H 8.4193 0.811532 -2.42586 0
M  V30 67 H 8.0633 1.86895 -4.72263 0
M  V30 68 H 7.9933 3.47561 -3.95612 0
M  V30 69 H 10.4843 2.17672 -3.08913 0
M  V30 70 H 10.7973 3.92562 -6.65669 0
M  V30 71 H 9.1423 3.5364 -5.98301 0
M  V30 72 H 12.3333 2.62696 -3.87438 0
M  V30 73 H 12.5063 3.42467 -5.50109 0
M  V30 74 N 5.9124 1.20967 1.01018 0
M  V30 75 C 7.3284 0.965905 1.27053 0
M  V30 76 C 7.5284 -0.350785 1.98423 0
M  V30 77 O 6.5844 -1.07773 2.28344 0
M  V30 78 C 7.8974 2.15294 2.09926 0
M  V30 79 C 9.4454 2.19463 2.23171 0
M  V30 80 C 9.9204 3.3767 3.09424 0
M  V30 81 N 11.4114 3.37724 3.17012 0
M  V30 82 C 12.1464 4.25837 3.83993 0
M  V30 83 N 11.6424 5.24138 4.53047 0
M  V30 84 N 13.4354 4.1366 3.80581 0
M  V30 85 H 5.5864 2.0565 0.531194 0
M  V30 86 H 7.8494 0.90024 0.297106 0
M  V30 87 H 7.5554 3.10684 1.64828 0
M  V30 88 H 7.4294 2.13923 3.10672 0
M  V30 89 H 9.8164 1.24632 2.6749 0
M  V30 90 H 9.8974 2.2488 1.21912 0
M  V30 91 H 9.5414 4.32791 2.65808 0
M  V30 92 H 9.4714 3.29491 4.10784 0
M  V30 93 H 11.9624 2.6658 2.6785 0
M  V30 94 H 12.2754 5.87684 5.01844 0
M  V30 95 H 10.6204 5.28068 4.5185 0
M  V30 96 H 13.8114 3.36127 3.25785 0
M  V30 97 H 13.9844 4.82538 4.32505 0
M  V30 98 N 7.3905 -1.2043 1.01659 0
M  V30 99 C 8.6365 -1.90079 0.706963 0
M  V30 100 C 8.9695 -1.78648 -0.761474 0
M  V30 101 O 8.2445 -1.17069 -1.55323 0
M  V30 102 C 8.5275 -3.41469 1.14327 0
M  V30 103 C 8.3805 -3.61833 2.67201 0
M  V30 104 C 9.6995 -4.34261 0.714529 0
M  V30 105 H 6.8185 -0.690254 0.2583 0
M  V30 106 H 9.4605 -1.41826 1.26433 0
M  V30 107 H 7.6105 -3.82696 0.669056 0
M  V30 108 H 9.2825 -3.2986 3.22475 0
M  V30 109 H 7.5255 -3.05304 3.08175 0
M  V30 110 H 8.1965 -4.67955 2.92783 0
M  V30 111 H 10.6725 -4.00682 1.12221 0
M  V30 112 H 9.5485 -5.38806 1.04784 0
M  V30 113 H 9.8095 -4.40431 -0.383799 0
M  V30 114 N 8.8686 -0.792821 -1.36206 0
M  V30 115 C 10.1146 -0.36733 -1.99446 0
M  V30 116 C 10.4476 1.05917 -1.62774 0
M  V30 117 O 9.7226 1.7324 -0.88421 0
M  V30 118 C 10.0056 -0.535044 -3.56103 0
M  V30 119 C 9.8586 -2.00548 -4.02617 0
M  V30 120 C 11.1776 0.0478191 -4.40074 0
M  V30 121 H 8.2966 -0.134941 -0.724541 0
M  V30 122 H 10.9386 -0.999794 -1.61568 0
M  V30 123 H 9.0886 0.00336329 -3.885 0
M  V30 124 H 10.7606 -2.60521 -3.80692 0
M  V30 125 H 9.0036 -2.50686 -3.54032 0
M  V30 126 H 9.6746 -2.07377 -5.11565 0
M  V30 127 H 12.1506 -0.411822 -4.14057 0
M  V30 128 H 11.0266 -0.0995336 -5.4881 0
M  V30 129 H 11.2876 1.14025 -4.27142 0
M  V30 130 N 10.3467 1.47872 -0.545128 0
M  V30 131 C 11.2767 2.32661 0.197793 0
M  V30 132 C 12.2577 1.43041 0.920504 0
M  V30 133 O 13.4427 1.71912 0.90333 0
M  V30 134 C 10.5727 3.24569 1.23582 0
M  V30 135 C 9.5267 4.23333 0.630323 0
M  V30 136 C 8.8527 5.0448 1.77211 0
M  V30 137 C 10.1527 5.20704 -0.407974 0
M  V30 138 H 11.8467 2.95024 -0.510045 0
M  V30 139 H 9.3927 1.4187 -0.246731 0
M  V30 140 H 11.3457 3.8272 1.76362 0
M  V30 141 H 10.0697 2.60236 1.97344 0
M  V30 142 H 8.7287 3.6639 0.123922 0
M  V30 143 H 8.3767 4.36561 2.49847 0
M  V30 144 H 8.0767 5.71339 1.37281 0
M  V30 145 H 9.6007 5.65487 2.3034 0
M  V30 146 H 11.0147 5.7329 0.033305 0
M  V30 147 H 9.4117 5.95699 -0.725486 0
M  V30 148 H 10.4817 4.66917 -1.30828 0
M  V30 149 N 11.8248 0.280983 1.55075 0
M  V30 150 C 12.7718 -0.603937 2.22758 0
M  V30 151 C 13.7418 -1.1452 1.20309 0
M  V30 152 O 14.9268 -1.19343 1.48869 0
M  V30 153 C 12.0668 -1.77947 2.95684 0
M  V30 154 C 11.1798 -1.2715 4.12864 0
M  V30 155 C 10.3148 -2.4093 4.7342 0
M  V30 156 C 9.3538 -1.87165 5.82783 0
M  V30 157 N 8.4908 -2.94441 6.37377 0
M  V30 158 H 13.3308 -0.020124 2.97993 0
M  V30 159 H 10.8678 0.00183425 1.471 0
M  V30 160 H 12.8258 -2.47055 3.36184 0
M  V30 161 H 11.4558 -2.33522 2.22861 0
M  V30 162 H 10.5078 -0.473331 3.77444 0
M  V30 163 H 11.8198 -0.837751 4.91715 0
M  V30 164 H 10.9738 -3.18021 5.1667 0
M  V30 165 H 9.7128 -2.87623 3.93859 0
M  V30 166 H 8.7178 -1.08556 5.38976 0
M  V30 167 H 9.9428 -1.41401 6.64216 0
M  V30 168 H 7.8888 -3.40505 5.60707 0
M  V30 169 H 7.8058 -2.55501 7.11516 0
M  V30 170 H 9.0738 -3.71489 6.85285 0
M  V30 171 N 13.3029 -1.57598 0.00835791 0
M  V30 172 C 14.5279 -1.95617 -0.689103 0
M  V30 173 C 14.9529 -0.883753 -1.66046 0
M  V30 174 O 14.3109 0.157352 -1.80616 0
M  V30 175 C 14.3589 -3.32736 -1.38994 0
M  V30 176 O 13.4629 -3.27631 -2.50463 0
M  V30 177 H 12.8039 -0.638379 -0.182668 0
M  V30 178 H 15.3339 -2.045 0.064036 0
M  V30 179 H 15.3439 -3.68494 -1.75147 0
M  V30 180 H 14.0189 -4.1034 -0.677778 0
M  V30 181 H 12.5959 -3.03561 -2.16576 0
M  V30 182 N 14.781 0.264519 -1.55364 0
M  V30 183 C 15.744 1.31046 -1.88042 0
M  V30 184 C 16.744 1.41943 -0.755569 0
M  V30 185 O 17.934 1.40947 -1.02369 0
M  V30 186 C 15.066 2.69067 -2.09323 0
M  V30 187 H 16.259 1.03297 -2.81549 0
M  V30 188 H 13.812 0.502989 -1.47986 0
M  V30 189 H 14.547 3.01982 -1.18226 0
M  V30 190 H 14.332 2.62542 -2.91229 0
M  V30 191 H 15.822 3.44623 -2.35848 0
M  V30 192 N 16.2591 1.48442 0.529413 0
M  V30 193 C 17.2221 1.62524 1.61612 0
M  V30 194 C 18.2221 0.498509 1.52877 0
M  V30 195 O 19.4121 0.76431 1.56537 0
M  V30 196 C 16.5441 1.59597 3.01233 0
M  V30 197 H 17.7371 2.59423 1.50465 0
M  V30 198 H 15.2901 1.37047 0.751514 0
M  V30 199 H 16.0251 0.641781 3.17886 0
M  V30 200 H 15.8101 2.41397 3.08982 0
M  V30 201 H 17.3001 1.72646 3.80241 0
M  V30 202 N 17.7372 -0.778329 1.37039 0
M  V30 203 C 18.7002 -1.87301 1.32102 0
M  V30 204 C 19.7002 -1.59198 0.226405 0
M  V30 205 O 20.8902 -1.67403 0.481861 0
M  V30 206 C 18.0222 -3.24309 1.05055 0
M  V30 207 H 19.2152 -1.93093 2.29467 0
M  V30 208 H 16.7682 -0.977358 1.21973 0
M  V30 209 H 17.5032 -3.24196 0.0819373 0
M  V30 210 H 17.2882 -3.46098 1.84279 0
M  V30 211 H 18.7782 -4.04382 1.04234 0
M  V30 212 N 19.2153 -1.21501 -1.00376 0
M  V30 213 C 20.1783 -0.976927 -2.07337 0
M  V30 214 C 21.1783 0.0525322 -1.60714 0
M  V30 215 O 22.3683 -0.184869 -1.73216 0
M  V30 216 C 19.5003 -0.473423 -3.37597 0
M  V30 217 H 20.6933 -1.92587 -2.29892 0
M  V30 218 H 18.2463 -1.03217 -1.17371 0
M  V30 219 H 18.9813 0.480379 -3.20722 0
M  V30 220 H 18.7663 -1.216 -3.72768 0
M  V30 221 H 20.2563 -0.32675 -4.1632 0
M  V30 222 N 20.6934 1.19889 -1.02296 0
M  V30 223 C 21.9414 1.89046 -0.714558 0
M  V30 224 C 22.2624 1.79636 0.758681 0
M  V30 225 O 21.5324 1.20292 1.54618 0
M  V30 226 H 20.1124 0.699802 -0.261317 0
M  V30 227 H 22.7744 1.45574 -1.29592 0
M  V30 228 H 21.8704 2.95524 -1.0036 0
M  V30 229 N 22.1715 0.800033 1.35784 0
M  V30 230 C 23.3995 0.389606 2.03199 0
M  V30 231 C 23.8145 -0.997375 1.60306 0
M  V30 232 O 23.1715 -1.64154 0.797481 0
M  V30 233 C 23.2225 0.455855 3.58614 0
M  V30 234 O 22.9435 1.78815 3.99946 0
M  V30 235 C 24.4445 0.0374032 4.43284 0
M  V30 236 H 21.6645 0.159132 0.651857 0
M  V30 237 H 24.2085 1.08183 1.73541 0
M  V30 238 H 22.3635 -0.188057 3.86943 0
M  V30 239 H 22.7775 1.74636 4.94573 0
M  V30 240 H 24.2515 0.134882 5.51835 0
M  V30 241 H 24.7285 -1.01651 4.27275 0
M  V30 242 H 25.3345 0.654215 4.20238 0
M  V30 243 N 23.6496 -1.47581 0.552962 0
M  V30 244 C 24.5796 -2.32762 -0.185451 0
M  V30 245 C 25.5606 -1.43527 -0.912905 0
M  V30 246 O 26.7456 -1.72388 -0.894201 0
M  V30 247 C 23.8756 -3.25219 -1.21859 0
M  V30 248 C 22.8296 -4.23661 -0.607864 0
M  V30 249 C 22.1556 -5.05413 -1.74533 0
M  V30 250 C 23.4556 -5.20481 0.435582 0
M  V30 251 H 25.1496 -2.94749 0.525684 0
M  V30 252 H 22.6956 -1.41738 0.254251 0
M  V30 253 H 24.6486 -3.8365 -1.7433 0
M  V30 254 H 23.3726 -2.61279 -1.95961 0
M  V30 255 H 22.0316 -3.66451 -0.104489 0
M  V30 256 H 21.6796 -4.3788 -2.47529 0
M  V30 257 H 21.3796 -5.72059 -1.34249 0
M  V30 258 H 22.9036 -5.66701 -2.27338 0
M  V30 259 H 24.3176 -5.733 -0.00290157 0
M  V30 260 H 22.7146 -5.95305 0.757067 0
M  V30 261 H 23.7846 -4.66217 1.33303 0
M  V30 262 N 25.1277 -0.289203 -1.54924 0
M  V30 263 C 26.0577 0.58549 -2.2604 0
M  V30 264 C 27.0387 1.14753 -1.25562 0
M  V30 265 O 28.2237 1.17906 -1.54311 0
M  V30 266 C 25.3537 1.76305 -2.99222 0
M  V30 267 C 24.3077 1.33191 -4.06748 0
M  V30 268 C 23.6337 2.5937 -4.6758 0
M  V30 269 C 24.9337 0.471775 -5.20165 0
M  V30 270 H 26.6277 -0.00763532 -2.99399 0
M  V30 271 H 24.1737 -0.00511229 -1.43999 0
M  V30 272 H 26.1267 2.38097 -3.47689 0
M  V30 273 H 24.8507 2.38223 -2.23422 0
M  V30 274 H 23.5097 0.737121 -3.59113 0
M  V30 275 H 23.1577 3.19576 -3.88433 0
M  V30 276 H 22.8577 2.31228 -5.40192 0
M  V30 277 H 24.3817 3.21985 -5.18804 0
M  V30 278 H 25.7957 0.995056 -5.64599 0
M  V30 279 H 24.1927 0.284639 -5.99425 0
M  V30 280 H 25.2627 -0.506041 -4.82252 0
M  V30 281 N 26.6058 1.57591 -0.0167156 0
M  V30 282 C 27.8538 1.90906 0.663285 0
M  V30 283 C 28.1748 0.892509 1.73376 0
M  V30 284 O 27.4448 -0.0677623 1.95783 0
M  V30 285 H 26.0248 0.704637 0.247983 0
M  V30 286 H 28.6868 1.94803 -0.0615909 0
M  V30 287 H 27.7828 2.9116 1.12393 0
M  V30 288 N 28.0839 -0.256276 1.55502 0
M  V30 289 C 29.3319 -0.983672 1.76545 0
M  V30 290 C 29.6529 -1.86206 0.578982 0
M  V30 291 O 28.9229 -1.91656 -0.405577 0
M  V30 292 H 27.5029 -0.366191 0.651086 0
M  V30 293 H 30.1649 -0.276479 1.92929 0
M  V30 294 H 29.2609 -1.61087 2.67315 0
M  V30 295 N 29.562 -1.4872 -0.521534 0
M  V30 296 C 30.492 -1.66771 -1.63431 0
M  V30 297 C 31.473 -0.516499 -1.62069 0
M  V30 298 O 32.658 -0.750013 -1.79132 0
M  V30 299 C 29.788 -1.71515 -3.01993 0
M  V30 300 C 28.742 -2.86222 -3.18216 0
M  V30 301 C 28.068 -2.76061 -4.57924 0
M  V30 302 C 29.368 -4.27419 -3.00184 0
M  V30 303 H 31.062 -2.59932 -1.48579 0
M  V30 304 H 28.608 -1.25089 -0.713358 0
M  V30 305 H 30.561 -1.82731 -3.7972 0
M  V30 306 H 29.285 -0.749393 -3.17886 0
M  V30 307 H 27.944 -2.74575 -2.42908 0
M  V30 308 H 27.592 -1.77437 -4.70665 0
M  V30 309 H 27.292 -3.53037 -4.69722 0
M  V30 310 H 28.816 -2.89256 -5.37739 0
M  V30 311 H 30.23 -4.39855 -3.67697 0
M  V30 312 H 28.627 -5.05458 -3.2347 0
M  V30 313 H 29.697 -4.43293 -1.96518 0
M  V30 314 N 31.0401 0.771051 -1.3745 0
M  V30 315 C 32.0031 1.86598 -1.33093 0
M  V30 316 C 33.0031 1.59076 -0.234845 0
M  V30 317 O 34.1931 1.67145 -0.490732 0
M  V30 318 C 31.3251 3.23747 -1.06773 0
M  V30 319 H 32.5181 1.91873 -2.30488 0
M  V30 320 H 30.0711 0.970876 -1.2249 0
M  V30 321 H 30.8061 3.24148 -0.099129 0
M  V30 322 H 30.5911 3.45115 -1.86112 0
M  V30 323 H 32.0811 4.03824 -1.06377 0
M  V30 324 N 32.5182 1.22032 0.997298 0
M  V30 325 C 33.7662 1.04016 1.73278 0
M  V30 326 C 34.0872 -0.426255 1.90284 0
M  V30 327 O 33.3572 -1.30694 1.45931 0
M  V30 328 H 31.9372 0.381897 0.642 0
M  V30 329 H 34.5992 1.5347 1.20137 0
M  V30 330 H 33.6952 1.51441 2.72896 0
M  V30 331 N 33.9963 -1.19345 1.0293 0
M  V30 332 C 35.2363 -1.90738 0.734727 0
M  V30 333 C 35.6003 -1.7785 -0.723414 0
M  V30 334 O 36.8013 -2.43844 -1.13108 0
M  V30 335 C 35.0723 -3.37569 1.17396 0
M  V30 336 S 36.6313 -4.27176 1.00329 0
M  V30 337 H 33.4493 -0.658771 0.267474 0
M  V30 338 H 36.0513 -1.4428 1.31922 0
M  V30 339 H 34.7553 -3.44475 2.23081 0
M  V30 340 H 34.2863 -3.8906 0.582772 0
M  V30 341 H 36.3013 -4.96126 -0.0859152 0
M  V30 342 N 35.4744 -0.807222 -1.35358 0
M  V30 343 C 36.4374 -0.223665 -2.28106 0
M  V30 344 C 37.4374 0.589354 -1.4961 0
M  V30 345 O 38.6274 0.407745 -1.69361 0
M  V30 346 C 35.7594 0.688149 -3.33882 0
M  V30 347 H 36.9524 -1.04169 -2.81227 0
M  V30 348 H 34.5054 -0.577921 -1.45223 0
M  V30 349 H 35.2404 1.52984 -2.85948 0
M  V30 350 H 35.0254 0.10687 -3.91954 0
M  V30 351 H 36.5154 1.09075 -4.03104 0
M  V30 352 N 36.9525 1.47285 -0.560781 0
M  V30 353 C 38.1775 2.07359 -0.0410566 0
M  V30 354 C 38.6025 1.41017 1.24483 0
M  V30 355 O 37.9605 0.486368 1.74654 0
M  V30 356 C 38.0085 3.6035 0.134123 0
M  V30 357 O 37.1125 3.94681 1.19587 0
M  V30 358 H 36.4535 0.661887 -0.0529291 0
M  V30 359 H 38.9835 1.89252 -0.777482 0
M  V30 360 H 38.9935 4.0652 0.347207 0
M  V30 361 H 37.6685 4.08034 -0.805047 0
M  V30 362 H 36.2455 3.60251 0.962987 0
M  V30 363 N 38.4306 0.297415 1.54768 0
M  V30 364 C 39.6766 -0.313376 2.00364 0
M  V30 365 C 40.0096 -1.53815 1.18553 0
M  V30 366 O 39.2846 -1.92739 0.261103 0
M  V30 367 C 39.5676 -0.673525 3.53745 0
M  V30 368 C 39.4206 0.560133 4.46299 0
M  V30 369 C 40.7396 -1.50143 4.13697 0
M  V30 370 H 37.8586 -0.112428 0.728374 0
M  V30 371 H 40.5006 0.4088 1.8555 0
M  V30 372 H 38.6506 -1.28881 3.665 0
M  V30 373 H 40.3226 1.19863 4.45455 0
M  V30 374 H 38.5656 1.19405 4.17043 0
M  V30 375 H 39.2366 0.26405 5.51368 0
M  V30 376 H 41.7126 -0.981588 4.04356 0
M  V30 377 H 40.5886 -1.72221 5.21182 0
M  V30 378 H 40.8496 -2.48952 3.65343 0
M  V30 379 N 39.9087 -1.5758 0.0250728 0
M  V30 380 C 40.8717 -2.08896 -0.943139 0
M  V30 381 C 41.8717 -1.00321 -1.25668 0
M  V30 382 O 43.0617 -1.26495 -1.19769 0
M  V30 383 C 40.1937 -2.55143 -2.26086 0
M  V30 384 H 41.3867 -2.95723 -0.498775 0
M  V30 385 H 38.9397 -1.54703 -0.222888 0
M  V30 386 H 39.6747 -1.71633 -2.75159 0
M  V30 387 H 39.4597 -3.34461 -2.04641 0
M  V30 388 H 40.9497 -2.95083 -2.95492 0
M  V30 389 N 41.3868 0.248026 -1.55636 0
M  V30 390 C 42.6348 0.974295 -1.77065 0
M  V30 391 C 42.9558 1.85897 -0.588849 0
M  V30 392 O 42.2258 1.91868 0.395407 0
M  V30 393 H 40.8058 0.362733 -0.653019 0
M  V30 394 H 43.4678 0.266244 -1.93073 0
M  V30 395 H 42.5638 1.59667 -2.68166 0
M  V30 396 N 42.8649 1.48995 0.513639 0
M  V30 397 C 44.0899 1.61792 1.29762 0
M  V30 398 C 44.5149 0.284475 1.85936 0
M  V30 399 O 43.8729 -0.746185 1.65232 0
M  V30 400 C 43.9209 2.67993 2.41272 0
M  V30 401 O 43.0249 2.26287 3.44772 0
M  V30 402 H 42.3659 0.541963 0.38363 0
M  V30 403 H 44.8959 1.95097 0.616307 0
M  V30 404 H 44.9059 2.89772 2.87221 0
M  V30 405 H 43.5809 3.64791 1.9975 0
M  V30 406 H 42.1579 2.14788 3.04829 0
M  V30 407 N 44.343 -0.763751 1.37857 0
M  V30 408 C 45.592 -1.51789 1.32827 0
M  V30 409 C 45.905 -1.95426 -0.0823719 0
M  V30 410 O 47.111 -2.70298 -0.255172 0
M  V30 411 C 45.567 -2.74133 2.33193 0
M  V30 412 C 45.175 -2.37562 3.79827 0
M  V30 413 C 46.919 -3.52054 2.37188 0
M  V30 414 C 44.826 -3.56456 4.71904 0
M  V30 415 H 43.756 -0.569896 0.493695 0
M  V30 416 H 46.407 -0.835822 1.63359 0
M  V30 417 H 44.789 -3.4427 1.9569 0
M  V30 418 H 45.963 -1.75157 4.26212 0
M  V30 419 H 44.278 -1.72798 3.78853 0
M  V30 420 H 46.875 -4.40437 3.03182 0
M  V30 421 H 47.218 -3.92486 1.38782 0
M  V30 422 H 47.751 -2.88921 2.7344 0
M  V30 423 H 44.49 -3.21099 5.71468 0
M  V30 424 H 44.01 -4.17938 4.30218 0
M  V30 425 H 45.689 -4.23168 4.89426 0
M  V30 426 N 45.8211 -1.22559 -0.990812 0
M  V30 427 C 47.0691 -1.04933 -1.72724 0
M  V30 428 C 47.3901 0.416158 -1.90508 0
M  V30 429 O 46.6601 1.29918 -1.46622 0
M  V30 430 H 45.2401 -0.385296 -0.639965 0
M  V30 431 H 47.9021 -1.54105 -1.19322 0
M  V30 432 H 46.9981 -1.52886 -2.72089 0
M  V30 433 N 47.2992 1.18797 -1.03562 0
M  V30 434 C 48.5272 1.92599 -0.755869 0
M  V30 435 C 48.9422 1.75886 0.686271 0
M  V30 436 O 48.2992 1.08517 1.46732 0
M  V30 437 C 48.3502 3.44159 -1.10619 0
M  V30 438 O 48.0712 3.60341 -2.4917 0
M  V30 439 C 49.5722 4.3507 -0.850214 0
M  V30 440 H 46.7922 0.611587 -0.276048 0
M  V30 441 H 49.3362 1.50742 -1.38192 0
M  V30 442 H 47.4912 3.83823 -0.525194 0
M  V30 443 H 47.9052 4.54128 -2.62427 0
M  V30 444 H 49.3792 5.39989 -1.14523 0
M  V30 445 H 49.8562 4.38673 0.215176 0
M  V30 446 H 50.4622 4.01097 -1.41426 0
M  V30 447 N 48.7773 0.814389 1.34928 0
M  V30 448 C 50.0253 0.397636 1.9815 0
M  V30 449 C 50.3463 -1.04069 1.64908 0
M  V30 450 O 49.6163 -1.72121 0.93548 0
M  V30 451 H 48.1963 0.144043 0.732981 0
M  V30 452 H 50.8583 1.04195 1.6471 0
M  V30 453 H 49.9543 0.509688 3.0791 0
M  V30 454 N 50.2554 -1.46986 0.568584 0
M  V30 455 C 51.5324 -1.95592 -0.0174074 0
M  V30 456 C 51.9124 -1.51124 -1.47393 0
M  V30 457 O 51.2604 -0.755329 -2.15655 0
M  V30 458 C 51.4704 -3.48719 0.139913 0
M  V30 459 C 52.8184 -4.246 0.000426376 0
M  V30 460 O 53.8424 -3.56135 0.0680316 0
M  V30 461 O 52.7014 -5.46302 -0.146988 0
M  V30 462 H 49.7954 -0.82498 -0.0577599 0
M  V30 463 H 52.3414 -1.57335 0.635909 0
M  V30 464 H 51.1134 -3.73927 1.15301 0
M  V30 465 H 50.7364 -3.93771 -0.550491 0
M  V30 466 N 51.7335 -0.305618 -1.54608 0
M  V30 467 C 53.1495 0.0476228 -1.59529 0
M  V30 468 C 53.3495 1.52025 -1.32252 0
M  V30 469 O 52.4055 2.27368 -1.09818 0
M  V30 470 C 53.7185 -0.354471 -2.98603 0
M  V30 471 C 55.2665 -0.303622 -3.11524 0
M  V30 472 C 55.7415 -0.680608 -4.52915 0
M  V30 473 N 57.2325 -0.63332 -4.5885 0
M  V30 474 C 57.9675 -0.897432 -5.66334 0
M  V30 475 N 57.4635 -1.22775 -6.81834 0
M  V30 476 N 59.2565 -0.824186 -5.56025 0
M  V30 477 H 51.4075 -1.2653 -1.70599 0
M  V30 478 H 53.6705 -0.513291 -0.797017 0
M  V30 479 H 53.3765 -1.3798 -3.23503 0
M  V30 480 H 53.2505 0.289568 -3.76087 0
M  V30 481 H 55.6375 0.712472 -2.8637 0
M  V30 482 H 55.7185 -0.982348 -2.36185 0
M  V30 483 H 55.3625 -1.69453 -4.78799 0
M  V30 484 H 55.2925 0.0202385 -5.26596 0
M  V30 485 H 57.7835 -0.389138 -3.75891 0
M  V30 486 H 58.0965 -1.41513 -7.59733 0
M  V30 487 H 56.4415 -1.26583 -6.83375 0
M  V30 488 H 59.6325 -0.565748 -4.64669 0
M  V30 489 H 59.8055 -1.03338 -6.39707 0
M  V30 490 N 53.2116 1.57565 -0.0334293 0
M  V30 491 C 54.4606 1.91155 0.643639 0
M  V30 492 C 54.7736 0.91192 1.73042 0
M  V30 493 O 55.9796 1.13923 2.46442 0
M  V30 494 C 54.4356 3.39443 1.1961 0
M  V30 495 C 54.0436 4.47774 0.142381 0
M  V30 496 C 55.7876 3.82094 1.84944 0
M  V30 497 C 53.6946 5.87162 0.706727 0
M  V30 498 H 52.6246 0.713368 0.244176 0
M  V30 499 H 55.2756 1.8323 -0.0994323 0
M  V30 500 H 53.6576 3.42313 1.99092 0
M  V30 501 H 54.8316 4.56469 -0.630296 0
M  V30 502 H 53.1466 4.14352 -0.412446 0
M  V30 503 H 55.7436 4.83591 2.2813 0
M  V30 504 H 56.0866 3.17386 2.69392 0
M  V30 505 H 56.6196 3.81665 1.12145 0
M  V30 506 H 53.3586 6.55424 -0.0997178 0
M  V30 507 H 52.8786 5.82064 1.44779 0
M  V30 508 H 54.5576 6.35866 1.19514 0
M  V30 509 N 54.6897 -0.239769 1.55765 0
M  V30 510 C 55.6377 -1.31668 1.91745 0
M  V30 511 C 56.6317 -1.49462 0.797338 0
M  V30 512 O 57.8377 -1.50852 0.982021 0
M  V30 513 H 54.2127 -0.441048 0.609082 0
M  V30 514 H 56.1837 -0.985923 2.81642 0
M  V30 515 C 54.9327 -2.66368 2.2348 0
M  V30 516 H 54.2557 -2.53478 3.09175 0
M  V30 517 H 55.6957 -3.40578 2.52553 0
M  V30 518 C 54.1547 -3.20002 1.05359 0
M  V30 519 O 54.6847 -4.00538 0.305261 0
M  V30 520 N 52.8907 -2.78126 0.842292 0
M  V30 521 H 52.4377 -2.12742 1.45253 0
M  V30 522 H 52.3957 -3.14354 0.053652 0
M  V30 523 N 56.1678 -1.49265 -0.50573 0
M  V30 524 C 57.3958 -1.62215 -1.28429 0
M  V30 525 C 57.8108 -0.291697 -1.86533 0
M  V30 526 O 57.1678 0.722233 -1.67601 0
M  V30 527 C 57.2188 -2.68735 -2.41793 0
M  V30 528 O 56.9398 -3.96619 -1.86078 0
M  V30 529 C 58.4408 -2.92346 -3.3324 0
M  V30 530 H 55.6608 -0.546239 -0.389697 0
M  V30 531 H 58.2048 -1.95265 -0.607609 0
M  V30 532 H 56.3598 -2.38476 -3.053 0
M  V30 533 H 56.7738 -4.55256 -2.60465 0
M  V30 534 H 58.2478 -3.70623 -4.09075 0
M  V30 535 H 58.7248 -2.02081 -3.89948 0
M  V30 536 H 59.3308 -3.24003 -2.75503 0
M  V30 537 N 57.6459 0.756429 -1.3826 0
M  V30 538 C 58.8919 1.51772 -1.34511 0
M  V30 539 C 59.2249 1.94089 0.0656691 0
M  V30 540 O 58.4999 1.65221 1.02626 0
M  V30 541 C 58.7829 2.77226 -2.29821 0
M  V30 542 C 58.6359 2.41065 -3.79747 0
M  V30 543 C 59.9549 3.79236 -2.23312 0
M  V30 544 H 57.0739 0.550578 -0.489931 0
M  V30 545 H 59.7159 0.866607 -1.69086 0
M  V30 546 H 57.8659 3.32784 -2.00467 0
M  V30 547 H 59.5379 1.91303 -4.19763 0
M  V30 548 H 57.7809 1.7356 -3.97567 0
M  V30 549 H 58.4519 3.3081 -4.41892 0
M  V30 550 H 60.9279 3.3321 -2.49219 0
M  V30 551 H 59.8039 4.64714 -2.92116 0
M  V30 552 H 60.0649 4.24615 -1.23102 0
M  V30 553 N 59.124 1.23083 0.984299 0
M  V30 554 C 60.54 0.992637 1.24975 0
M  V30 555 C 60.74 -0.308618 1.99123 0
M  V30 556 O 59.796 -1.02905 2.30579 0
M  V30 557 C 61.109 2.19698 2.05312 0
M  V30 558 C 62.657 2.24147 2.18465 0
M  V30 559 C 63.132 3.44157 3.02192 0
M  V30 560 N 64.623 3.44372 3.09777 0
M  V30 561 C 65.358 4.33886 3.74874 0
M  V30 562 N 64.854 5.3363 4.41827 0
M  V30 563 N 66.647 4.21639 3.71721 0
M  V30 564 H 58.798 2.06731 0.487453 0
M  V30 565 H 61.061 0.906339 0.277944 0
M  V30 566 H 60.767 3.1411 1.58201 0
M  V30 567 H 60.641 2.20465 3.06064 0
M  V30 568 H 63.028 1.30277 2.64786 0
M  V30 569 H 63.109 2.27415 1.17115 0
M  V30 570 H 62.753 4.38332 2.56568 0
M  V30 571 H 62.683 3.3813 4.03702 0
M  V30 572 H 65.174 2.72201 2.62135 0
M  V30 573 H 65.487 5.98196 4.89266 0
M  V30 574 H 63.832 5.37534 4.40548 0
M  V30 575 H 67.023 3.42962 3.18582 0
M  V30 576 H 67.196 4.91604 4.22173 0
M  V30 577 N 60.6021 -1.18246 1.0419 0
M  V30 578 C 61.8501 -1.87886 0.744543 0
M  V30 579 C 62.1711 -1.8082 -0.730006 0
M  V30 580 O 61.4411 -1.22736 -1.52685 0
M  V30 581 H 60.0211 -0.695556 0.272417 0
M  V30 582 H 62.6831 -1.43494 1.31892 0
M  V30 583 H 61.7791 -2.9389 1.05049 0
M  V30 584 N 62.0802 -0.821533 -1.34494 0
M  V30 585 C 63.4912 -0.467956 -1.8074 0
M  V30 586 C 63.8422 1.01151 -1.68116 0
M  V30 587 O 62.9672 1.78707 -1.22036 0
M  V30 588 C 63.5622 -0.842627 -3.28154 0
M  V30 589 C 62.1212 -0.541439 -3.72485 0
M  V30 590 C 61.2682 -1.06028 -2.56229 0
M  V30 591 H 64.2192 -1.01183 -1.22261 0
M  V30 592 H 64.2402 -0.145876 -3.8022 0
M  V30 593 H 63.7522 -1.91945 -3.37311 0
M  V30 594 H 61.8532 0.526034 -3.68868 0
M  V30 595 H 61.9662 -1.08453 -4.66663 0
M  V30 596 H 60.3302 -0.481892 -2.501 0
M  V30 597 H 61.1132 -2.14352 -2.68157 0
M  V30 598 N 63.5583 1.46682 -0.576371 0
M  V30 599 C 64.8073 2.01619 -0.0572825 0
M  V30 600 C 65.1203 1.45417 1.30818 0
M  V30 601 O 66.3263 1.92133 1.91825 0
M  V30 602 C 64.7823 3.59863 -0.0518371 0
M  V30 603 C 64.3903 4.25059 -1.41523 0
M  V30 604 C 66.1343 4.2248 0.413639 0
M  V30 605 C 64.0413 5.75364 -1.36785 0
M  V30 606 H 62.9713 0.753794 -0.0176448 0
M  V30 607 H 65.6223 1.68481 -0.727076 0
M  V30 608 H 64.0043 3.90048 0.683994 0
M  V30 609 H 65.1783 4.06491 -2.17029 0
M  V30 610 H 63.4933 3.7451 -1.8202 0
M  V30 611 H 66.0903 5.3265 0.467779 0
M  V30 612 H 66.4333 3.90976 1.42982 0
M  V30 613 H 66.9663 3.96897 -0.267929 0
M  V30 614 H 63.7053 6.11518 -2.36063 0
M  V30 615 H 63.2253 5.96214 -0.654895 0
M  V30 616 H 64.9043 6.37955 -1.07805 0
M  V30 617 N 65.0364 0.313813 1.54444 0
M  V30 618 C 66.2644 -0.293918 2.04802 0
M  V30 619 C 66.6794 -1.46537 1.19047 0
M  V30 620 O 66.0364 -1.81182 0.218939 0
M  V30 621 C 66.0874 -0.737806 3.53891 0
M  V30 622 O 65.8084 0.387038 4.36387 0
M  V30 623 C 67.3094 -1.40936 4.203 0
M  V30 624 H 64.5294 -0.0620057 0.668129 0
M  V30 625 H 67.0734 0.457169 1.99324 0
M  V30 626 H 65.2284 -1.43889 3.59687 0
M  V30 627 H 65.6424 0.0391274 5.24485 0
M  V30 628 H 67.1164 -1.67099 5.26101 0
M  V30 629 H 67.5934 -2.35355 3.70816 0
M  V30 630 H 68.1994 -0.751117 4.18615 0
M  V30 631 N 66.5145 -1.57545 0.0417849 0
M  V30 632 C 67.7635 -1.91494 -0.633492 0
M  V30 633 C 68.0765 -0.921084 -1.72556 0
M  V30 634 O 69.2825 -1.15228 -2.45835 0
M  V30 635 C 67.7385 -3.40072 -1.17808 0
M  V30 636 C 67.3465 -4.47843 -0.118633 0
M  V30 637 C 69.0905 -3.8307 -1.82915 0
M  V30 638 C 66.9975 -5.87529 -0.675578 0
M  V30 639 H 65.9275 -0.714653 -0.24039 0
M  V30 640 H 68.5785 -1.83175 0.109148 0
M  V30 641 H 66.9605 -3.43364 -1.97274 0
M  V30 642 H 68.1345 -4.56128 0.654494 0
M  V30 643 H 66.4495 -4.14128 0.434414 0
M  V30 644 H 69.0465 -4.84794 -2.25563 0
M  V30 645 H 69.3895 -3.1881 -2.67705 0
M  V30 646 H 69.9225 -3.82255 -1.10119 0
M  V30 647 H 66.6615 -6.55362 0.134475 0
M  V30 648 H 66.1815 -5.82824 -1.4169 0
M  V30 649 H 67.8605 -6.36491 -1.1614 0
M  V30 650 N 67.9926 0.231505 -1.5589 0
M  V30 651 C 69.2176 0.978689 -1.82856 0
M  V30 652 C 69.6426 1.77559 -0.620846 0
M  V30 653 O 69.0006 1.76119 0.430305 0
M  V30 654 C 69.0486 1.87997 -3.07716 0
M  V30 655 O 68.1526 2.97393 -2.85712 0
M  V30 656 H 67.4936 0.277663 -0.603158 0
M  V30 657 H 70.0236 0.24783 -2.03093 0
M  V30 658 H 70.0336 2.2917 -3.37558 0
M  V30 659 H 68.7086 1.29417 -3.95252 0
M  V30 660 H 67.2856 2.60238 -2.67078 0
M  V30 661 N 69.4707 1.49531 0.497807 0
M  V30 662 C 70.3807 1.69176 1.62532 0
M  V30 663 C 71.3967 0.5744 1.64246 0
M  V30 664 O 72.5727 0.849497 1.82608 0
M  V30 665 C 69.6377 1.75695 2.98885 0
M  V30 666 C 68.6987 2.9929 3.07773 0
M  V30 667 C 67.9317 3.05488 4.37622 0
M  V30 668 O 68.1547 2.19192 5.26603 0
M  V30 669 O 67.0887 3.9798 4.51548 0
M  V30 670 H 70.9147 2.647 1.48887 0
M  V30 671 H 68.4997 1.3331 0.674441 0
M  V30 672 H 70.3817 1.82317 3.79919 0
M  V30 673 H 69.0567 0.8335 3.12785 0
M  V30 674 H 67.9637 2.98183 2.25915 0
M  V30 675 H 69.2967 3.91125 2.98801 0
M  V30 676 N 70.9488 -0.749086 1.3866 0
M  V30 677 C 71.9118 -1.84457 1.36045 0
M  V30 678 C 72.9118 -1.58682 0.260122 0
M  V30 679 O 74.1018 -1.66343 0.517261 0
M  V30 680 C 71.2338 -3.22008 1.11911 0
M  V30 681 H 72.4268 -1.88182 2.33512 0
M  V30 682 H 69.9798 -0.951266 1.24019 0
M  V30 683 H 70.7148 -3.2395 0.150686 0
M  V30 684 H 70.4998 -3.42111 1.91579 0
M  V30 685 H 71.9898 -4.0208 1.12788 0
M  V30 686 N 72.4269 -1.23603 -0.977757 0
M  V30 687 C 73.6749 -1.06759 -1.71601 0
M  V30 688 C 73.9959 0.395929 -1.90938 0
M  V30 689 O 73.2659 1.28356 -1.47992 0
M  V30 690 H 71.8459 -0.392062 -0.635843 0
M  V30 691 H 74.5079 -1.55362 -1.1768 0
M  V30 692 H 73.6039 -1.55763 -2.70452 0
M  V30 693 N 73.905 1.17692 -1.04816 0
M  V30 694 C 75.152 1.87859 -0.75599 0
M  V30 695 C 75.48 1.80812 0.716752 0
M  V30 696 O 74.735 1.20819 1.53952 0
M  V30 697 C 75.034 3.37462 -1.17703 0
M  V30 698 C 74.7 3.64713 -2.65133 0
M  V30 699 C 73.362 3.71859 -3.05408 0
M  V30 700 C 75.714 3.76492 -3.60421 0
M  V30 701 C 73.042 3.88271 -4.39843 0
M  V30 702 C 75.394 3.94421 -4.94585 0
M  V30 703 C 74.058 3.99806 -5.3452 0
M  V30 704 H 73.328 0.687425 -0.276636 0
M  V30 705 H 75.975 1.39255 -1.31455 0
M  V30 706 H 74.28 3.88097 -0.537395 0
M  V30 707 H 75.977 3.90109 -0.928218 0
M  V30 708 H 72.567 3.59772 -2.32942 0
M  V30 709 H 76.751 3.70295 -3.30447 0
M  V30 710 H 72.007 3.90687 -4.70291 0
M  V30 711 H 76.181 4.02477 -5.68318 0
M  V30 712 H 73.808 4.12276 -6.38696 0
M  V30 713 N 75.3831 0.828654 1.34056 0
M  V30 714 C 76.6111 0.43262 2.02326 0
M  V30 715 C 77.0261 -0.963147 1.62385 0
M  V30 716 O 76.3831 -1.62425 0.832121 0
M  V30 717 C 76.4341 0.53182 3.57567 0
M  V30 718 O 76.1551 1.87258 3.96063 0
M  V30 719 C 77.6561 0.131422 4.43105 0
M  V30 720 H 74.8761 0.172923 0.648335 0
M  V30 721 H 77.4201 1.1184 1.71208 0
M  V30 722 H 75.5751 -0.105938 3.87255 0
M  V30 723 H 75.9891 1.85087 4.90758 0
M  V30 724 H 77.4631 0.251904 5.51425 0
M  V30 725 H 77.9401 -0.925645 4.29335 0
M  V30 726 H 78.5461 0.743207 4.18756 0
M  V30 727 N 76.8612 -1.46375 0.584142 0
M  V30 728 C 77.7912 -2.33103 -0.136037 0
M  V30 729 C 78.7722 -1.45431 -0.882255 0
M  V30 730 O 79.9572 -1.74246 -0.857434 0
M  V30 731 C 77.0872 -3.27731 -1.14933 0
M  V30 732 C 76.0412 -4.24855 -0.517862 0
M  V30 733 C 75.3672 -5.09001 -1.63773 0
M  V30 734 C 76.6672 -5.19439 0.545886 0
M  V30 735 H 78.3612 -2.93568 0.588086 0
M  V30 736 H 75.9072 -1.41166 0.284259 0
M  V30 737 H 77.8602 -3.87261 -1.66153 0
M  V30 738 H 76.5842 -2.65377 -1.90375 0
M  V30 739 H 75.2432 -3.6659 -0.0267361 0
M  V30 740 H 74.8912 -4.43031 -2.38185 0
M  V30 741 H 74.5912 -5.74777 -1.22085 0
M  V30 742 H 76.1152 -5.71396 -2.15266 0
M  V30 743 H 77.5292 -5.73177 0.118704 0
M  V30 744 H 75.9262 -5.93566 0.88317 0
M  V30 745 H 76.9962 -4.63285 1.43162 0
M  V30 746 N 78.3393 -0.321999 -1.54275 0
M  V30 747 C 79.5673 0.283052 -2.04955 0
M  V30 748 C 79.9823 1.45904 -1.19823 0
M  V30 749 O 79.3393 1.81063 -0.228545 0
M  V30 750 C 79.3903 0.719028 -3.54277 0
M  V30 751 O 79.1113 -0.410175 -4.36176 0
M  V30 752 C 80.6123 1.38705 -4.21041 0
M  V30 753 H 77.8323 0.0584616 -0.668448 0
M  V30 754 H 80.3763 -0.467734 -1.99079 0
M  V30 755 H 78.5313 1.41979 -3.60445 0
M  V30 756 H 78.9453 -0.0669416 -5.24457 0
M  V30 757 H 80.4193 1.64306 -5.2698 0
M  V30 758 H 80.8963 2.33385 -3.72059 0
M  V30 759 H 81.5023 0.728906 -4.19007 0
M  V30 760 N 79.8174 1.5752 -0.0501392 0
M  V30 761 C 80.7674 2.07981 0.934231 0
M  V30 762 C 81.7514 0.984745 1.27246 0
M  V30 763 O 82.9434 1.24809 1.25506 0
M  V30 764 C 80.0724 2.62751 2.20945 0
M  V30 765 C 79.1584 3.79225 1.89865 0
M  V30 766 N 79.5494 4.89036 1.29142 0
M  V30 767 C 77.8474 3.88111 2.19741 0
M  V30 768 C 78.5484 5.70084 1.15669 0
M  V30 769 N 77.5244 5.17659 1.65923 0
M  V30 770 H 81.3264 2.90277 0.460053 0
M  V30 771 H 78.8404 1.61665 0.15434 0
M  V30 772 H 80.8374 2.97205 2.9236 0
M  V30 773 H 79.4974 1.81894 2.6897 0
M  V30 774 H 80.5084 5.08854 0.963756 0
M  V30 775 H 77.1854 3.18194 2.70293 0
M  V30 776 H 78.5754 6.68395 0.685356 0
M  V30 777 N 81.2955 -0.223234 1.56011 0
M  V30 778 C 82.2055 -1.29766 1.95443 0
M  V30 779 C 83.2215 -1.51373 0.858028 0
M  V30 780 O 84.3975 -1.64536 1.16146 0
M  V30 781 C 81.4625 -2.62772 2.26167 0
M  V30 782 C 80.5235 -2.49482 3.49367 0
M  V30 783 C 79.7565 -3.76145 3.78616 0
M  V30 784 O 79.9795 -4.79087 3.09568 0
M  V30 785 O 78.9135 -3.73358 4.72109 0
M  V30 786 H 82.7395 -0.99309 2.87004 0
M  V30 787 H 80.3245 -0.425958 1.43199 0
M  V30 788 H 82.2065 -3.41327 2.47131 0
M  V30 789 H 80.8815 -2.92913 1.37781 0
M  V30 790 H 79.7885 -1.69133 3.33684 0
M  V30 791 H 81.1215 -2.2428 4.38131 0
M  V30 792 N 82.7736 -1.49793 -0.48987 0
M  V30 793 C 83.7236 -1.63673 -1.5873 0
M  V30 794 C 84.7076 -0.491956 -1.53195 0
M  V30 795 O 85.8996 -0.745461 -1.60536 0
M  V30 796 C 83.0286 -1.71689 -2.97284 0
M  V30 797 C 82.1146 -2.91781 -3.07774 0
M  V30 798 N 82.5056 -4.15714 -2.88124 0
M  V30 799 C 80.8036 -2.89949 -3.38889 0
M  V30 800 C 81.5046 -4.965 -3.03088 0
M  V30 801 N 80.4806 -4.30083 -3.3246 0
M  V30 802 H 84.2826 -2.57204 -1.42208 0
M  V30 803 H 81.7966 -1.46719 -0.69623 0
M  V30 804 H 83.7936 -1.79732 -3.76168 0
M  V30 805 H 82.4536 -0.793024 -3.14867 0
M  V30 806 H 83.4646 -4.45515 -2.64077 0
M  V30 807 H 80.1416 -2.06987 -3.62578 0
M  V30 808 H 81.5316 -6.04991 -2.92294 0
M  V30 809 N 84.2517 0.741722 -1.39055 0
M  V30 810 C 85.5007 1.49656 -1.35225 0
M  V30 811 C 85.8137 1.95533 0.0512708 0
M  V30 812 O 87.0197 2.7067 0.212138 0
M  V30 813 C 85.4757 2.70389 -2.37525 0
M  V30 814 C 85.0837 2.31489 -3.83558 0
M  V30 815 C 86.8277 3.48236 -2.42759 0
M  V30 816 C 84.7347 3.48903 -4.77515 0
M  V30 817 H 83.6647 0.56197 -0.502699 0
M  V30 818 H 86.3157 0.809727 -1.64668 0
M  V30 819 H 84.6977 3.41113 -2.01142 0
M  V30 820 H 85.8717 1.68354 -4.28945 0
M  V30 821 H 84.1867 1.66749 -3.81554 0
M  V30 822 H 86.7837 4.35558 -3.1015 0
M  V30 823 H 87.1267 3.90229 -1.45008 0
M  V30 824 H 87.6597 2.84535 -2.78002 0
M  V30 825 H 84.3987 3.11966 -5.76504 0
M  V30 826 H 83.9187 4.11041 -4.36813 0
M  V30 827 H 85.5977 4.15328 -4.96096 0
M  V30 828 N 85.7298 1.2412 0.971189 0
M  V30 829 C 86.9698 1.09066 1.7287 0
M  V30 830 C 87.3338 -0.364794 1.88503 0
M  V30 831 O 88.5348 -0.636748 2.61149 0
M  V30 832 C 86.8058 1.80629 3.08396 0
M  V30 833 S 88.3648 1.81263 3.99611 0
M  V30 834 H 85.1828 0.390145 0.594397 0
M  V30 835 H 87.7848 1.57397 1.15959 0
M  V30 836 H 86.4888 2.85647 2.94676 0
M  V30 837 H 86.0198 1.32617 3.70373 0
M  V30 838 H 88.0348 0.877804 4.88374 0
M  V30 839 N 87.2079 -1.17134 1.05439 0
M  V30 840 C 88.4559 -1.87085 0.764429 0
M  V30 841 C 88.7769 -1.81584 -0.710787 0
M  V30 842 O 88.0469 -1.24349 -1.51374 0
M  V30 843 H 86.6269 -0.692627 0.279779 0
M  V30 844 H 89.2889 -1.42087 1.33406 0
M  V30 845 H 88.3849 -2.92759 1.0816 0
M  V30 846 N 88.686 -0.835752 -1.33615 0
M  V30 847 C 89.911 -0.442389 -2.02627 0
M  V30 848 C 90.336 0.947735 -1.62479 0
M  V30 849 O 89.694 1.61907 -0.815826 0
M  V30 850 C 89.742 -0.567216 -3.56111 0
M  V30 851 O 88.846 0.407799 -4.10379 0
M  V30 852 H 88.187 -0.180278 -0.639059 0
M  V30 853 H 90.717 -1.12972 -1.70583 0
M  V30 854 H 90.727 -0.447708 -4.05536 0
M  V30 855 H 89.402 -1.58103 -3.84677 0
M  V30 856 H 87.979 0.246107 -3.72087 0
M  V30 857 N 90.1641 1.46063 -0.591896 0
M  V30 858 C 91.3891 2.07226 -0.0850314 0
M  V30 859 C 91.8141 1.43625 1.21463 0
M  V30 860 O 91.1721 0.523305 1.73583 0
M  V30 861 C 91.2201 3.60554 0.0576567 0
M  V30 862 O 90.3241 3.97128 1.11188 0
M  V30 863 H 89.6651 0.660615 -0.0669568 0
M  V30 864 H 92.1951 1.8756 -0.81745 0
M  V30 865 H 92.2051 4.07165 0.2609 0
M  V30 866 H 90.8801 4.06235 -0.891416 0
M  V30 867 H 89.4571 3.62213 0.886356 0
M  V30 868 N 91.6422 0.330177 1.54103 0
M  V30 869 C 92.6052 -0.520144 2.2322 0
M  V30 870 C 93.6052 -1.03828 1.22786 0
M  V30 871 O 94.7952 -0.929652 1.4732 0
M  V30 872 C 91.9272 -1.72317 2.94142 0
M  V30 873 H 93.1202 0.0841605 2.99782 0
M  V30 874 H 90.6732 0.0813433 1.56088 0
M  V30 875 H 91.4082 -2.36653 2.21734 0
M  V30 876 H 91.1932 -1.35898 3.67796 0
M  V30 877 H 92.6832 -2.3266 3.46784 0
M  V30 878 N 93.1203 -1.57491 0.0584922 0
M  V30 879 C 94.3683 -1.92597 -0.612436 0
M  V30 880 C 94.6893 -0.938162 -1.70949 0
M  V30 881 O 93.9593 0.0158301 -1.95894 0
M  V30 882 H 92.5393 -0.710964 -0.229214 0
M  V30 883 H 95.2013 -1.94571 0.113218 0
M  V30 884 H 94.2973 -2.94038 -1.04633 0
M  V30 885 N 94.5984 0.214957 -1.56127 0
M  V30 886 C 95.8454 0.938372 -1.79446 0
M  V30 887 C 96.1734 1.8407 -0.628378 0
M  V30 888 O 95.4284 1.91837 0.386925 0
M  V30 889 C 95.7274 1.80314 -3.0858 0
M  V30 890 C 95.3934 1.05349 -4.3842 0
M  V30 891 C 94.0554 0.846435 -4.73697 0
M  V30 892 C 96.4074 0.524588 -5.18553 0
M  V30 893 C 93.7354 0.098683 -5.86617 0
M  V30 894 C 96.0874 -0.209853 -6.32252 0
M  V30 895 C 94.7514 -0.428102 -6.66126 0
M  V30 896 H 94.0214 0.343375 -0.656639 0
M  V30 897 H 96.6684 0.206077 -1.90388 0
M  V30 898 H 94.9734 2.6035 -2.92789 0
M  V30 899 H 96.6704 2.36513 -3.23825 0
M  V30 900 H 93.2604 1.22486 -4.10725 0
M  V30 901 H 97.4444 0.672008 -4.91729 0
M  V30 902 H 92.7004 -0.0805753 -6.11347 0
M  V30 903 H 96.8744 -0.627157 -6.9357 0
M  V30 904 H 94.5014 -1.00944 -7.53468 0
M  V30 905 N 96.0765 1.50051 0.48192 0
M  V30 906 C 97.0065 1.71046 1.58951 0
M  V30 907 C 97.9875 0.559288 1.60642 0
M  V30 908 O 99.1725 0.797243 1.77081 0
M  V30 909 C 96.3025 1.79462 2.97339 0
M  V30 910 C 95.2565 2.94558 3.10515 0
M  V30 911 C 94.5825 2.88105 4.50444 0
M  V30 912 C 95.8825 4.35227 2.88747 0
M  V30 913 H 97.5765 2.6378 1.41635 0
M  V30 914 H 95.1225 1.26936 0.679942 0
M  V30 915 H 97.0755 1.92734 3.74742 0
M  V30 916 H 95.7995 0.833412 3.15788 0
M  V30 917 H 94.4585 2.80918 2.35543 0
M  V30 918 H 94.1065 1.89853 4.65795 0
M  V30 919 H 93.8065 3.65366 4.60197 0
M  V30 920 H 95.3305 3.03412 5.29881 0
M  V30 921 H 96.7445 4.49449 3.55905 0
M  V30 922 H 95.1415 5.13856 3.09955 0
M  V30 923 H 96.2115 4.48347 1.84696 0
M  V30 924 N 97.5546 -0.734337 1.39446 0
M  V30 925 C 98.9706 -1.03997 1.21065 0
M  V30 926 C 99.1706 -2.01369 0.0727019 0
M  V30 927 O 98.2266 -2.45856 -0.575426 0
M  V30 928 C 99.5396 -1.60163 2.54496 0
M  V30 929 C 101.088 -1.7224 2.61347 0
M  V30 930 C 101.563 -2.31814 3.95002 0
M  V30 931 N 103.054 -2.39223 3.96644 0
M  V30 932 C 103.789 -2.86258 4.96834 0
M  V30 933 N 103.285 -3.33184 6.07421 0
M  V30 934 N 105.078 -2.85473 4.84213 0
M  V30 935 H 97.2286 -0.0885624 2.12215 0
M  V30 936 H 99.4916 -0.10191 0.942506 0
M  V30 937 H 99.1976 -0.960811 3.38321 0
M  V30 938 H 99.0716 -2.5896 2.74262 0
M  V30 939 H 101.459 -2.35443 1.77906 0
M  V30 940 H 101.54 -0.720939 2.4543 0
M  V30 941 H 101.184 -1.69238 4.78875 0
M  V30 942 H 101.114 -3.32638 4.08239 0
M  V30 943 H 103.605 -2.06057 3.16779 0
M  V30 944 H 103.918 -3.67586 6.7978 0
M  V30 945 H 102.263 -3.31191 6.11013 0
M  V30 946 H 105.454 -2.48136 3.96921 0
M  V30 947 H 105.627 -3.21814 5.62441 0
M  V30 948 N 99.0327 -1.24633 -0.964593 0
M  V30 949 C 99.9957 -1.0424 -2.04124 0
M  V30 950 C 100.996 0.00137563 -1.608 0
M  V30 951 O 102.186 -0.239883 -1.7254 0
M  V30 952 C 99.3177 -0.580588 -3.3592 0
M  V30 953 H 100.511 -1.99803 -2.23649 0
M  V30 954 H 98.0637 -1.06899 -1.14027 0
M  V30 955 H 98.7987 0.3781 -3.22088 0
M  V30 956 H 98.5837 -1.33398 -3.6871 0
M  V30 957 H 100.074 -0.459034 -4.15069 0
M  V30 958 N 100.511 1.16574 -1.06058 0
M  V30 959 C 101.757 1.87565 -0.78683 0
M  V30 960 C 102.112 1.80012 0.679214 0
M  V30 961 O 101.405 1.20327 1.49104 0
M  V30 962 C 101.599 3.36195 -1.21275 0
M  V30 963 C 101.428 3.58216 -2.71866 0
M  V30 964 C 100.198 3.7444 -3.39298 0
M  V30 965 C 102.396 3.57134 -3.70081 0
M  V30 966 N 100.378 3.84389 -4.78663 0
M  V30 967 C 101.749 3.73038 -4.9522 0
M  V30 968 C 103.804 3.40332 -3.63426 0
M  V30 969 C 102.507 3.73879 -6.14497 0
M  V30 970 C 104.533 3.42466 -4.82153 0
M  V30 971 C 103.895 3.58887 -6.06118 0
M  V30 972 H 99.9938 0.704081 -0.340284 0
M  V30 973 H 102.578 1.39885 -1.35426 0
M  V30 974 H 100.749 3.82522 -0.673179 0
M  V30 975 H 102.481 3.94839 -0.887917 0
M  V30 976 H 99.2358 3.74662 -2.89699 0
M  V30 977 H 99.6598 3.93138 -5.51155 0
M  V30 978 H 104.302 3.26566 -2.68541 0
M  V30 979 H 102.02 3.86427 -7.09718 0
M  V30 980 H 105.606 3.30712 -4.78666 0
M  V30 981 H 104.486 3.60454 -6.9645 0
M  V30 982 N 101.989 0.842826 1.3317 0
M  V30 983 C 103.4 0.496651 1.79973 0
M  V30 984 C 103.751 -0.984641 1.69703 0
M  V30 985 O 102.876 -1.76743 1.24863 0
M  V30 986 C 103.471 0.894727 3.26772 0
M  V30 987 C 102.03 0.600629 3.71577 0
M  V30 988 C 101.177 1.10091 2.5451 0
M  V30 989 H 104.128 1.03116 1.20635 0
M  V30 990 H 104.149 0.206347 3.7994 0
M  V30 991 H 103.661 1.97287 3.34215 0
M  V30 992 H 101.762 -0.467284 3.69658 0
M  V30 993 H 101.875 1.15863 4.64879 0
M  V30 994 H 100.239 0.52162 2.49301 0
M  V30 995 H 101.022 2.18591 2.64713 0
M  V30 996 N 103.467 -1.45747 0.599634 0
M  V30 997 C 104.377 -2.34262 -0.125888 0
M  V30 998 C 105.393 -1.50768 -0.868625 0
M  V30 999 O 106.569 -1.83592 -0.828003 0
M  V30 1000 C 103.634 -3.28252 -1.11587 0
M  V30 1001 C 102.695 -4.27651 -0.375956 0
M  V30 1002 C 101.928 -5.1715 -1.31877 0
M  V30 1003 O 102.151 -5.09916 -2.55621 0
M  V30 1004 O 101.085 -5.96286 -0.820157 0
M  V30 1005 H 104.911 -2.97688 0.601315 0
M  V30 1006 H 102.496 -1.44999 0.359934 0
M  V30 1007 H 104.378 -3.86191 -1.68626 0
M  V30 1008 H 103.053 -2.67401 -1.82424 0
M  V30 1009 H 101.96 -3.7335 0.236698 0
M  V30 1010 H 103.293 -4.91334 0.29177 0
M  V30 1011 N 104.945 -0.338344 -1.53925 0
M  V30 1012 C 106.192 0.259758 -2.00827 0
M  V30 1013 C 106.52 1.50973 -1.22628 0
M  V30 1014 O 105.775 1.93379 -0.300509 0
M  V30 1015 C 106.074 0.62448 -3.51902 0
M  V30 1016 C 105.74 -0.528006 -4.47798 0
M  V30 1017 C 104.402 -0.844298 -4.73735 0
M  V30 1018 C 106.754 -1.30143 -5.0469 0
M  V30 1019 C 104.082 -1.93648 -5.53821 0
M  V30 1020 C 106.434 -2.38382 -5.85967 0
M  V30 1021 C 105.098 -2.70576 -6.10201 0
M  V30 1022 H 104.368 0.0950523 -0.734878 0
M  V30 1023 H 107.015 -0.465182 -1.85764 0
M  V30 1024 H 105.32 1.43006 -3.64769 0
M  V30 1025 H 107.017 1.09905 -3.85645 0
M  V30 1026 H 103.607 -0.271421 -4.2774 0
M  V30 1027 H 107.791 -1.07033 -4.84621 0
M  V30 1028 H 103.047 -2.19021 -5.70824 0
M  V30 1029 H 107.221 -2.98746 -6.29066 0
M  V30 1030 H 104.848 -3.55333 -6.72044 0
M  V30 1031 N 106.423 1.57458 -0.0668435 0
M  V30 1032 C 107.67 1.93301 0.603406 0
M  V30 1033 C 107.998 0.946486 1.69917 0
M  V30 1034 O 107.253 -0.0387021 1.95662 0
M  V30 1035 C 107.552 3.35784 1.22409 0
M  V30 1036 C 107.218 4.50179 0.254955 0
M  V30 1037 C 105.88 4.81199 -0.0116746 0
M  V30 1038 C 108.232 5.19598 -0.408338 0
M  V30 1039 C 105.56 5.78978 -0.94877 0
M  V30 1040 C 107.912 6.18381 -1.33372 0
M  V30 1041 C 106.576 6.47821 -1.60887 0
M  V30 1042 H 105.846 0.707338 0.220802 0
M  V30 1043 H 108.493 1.91012 -0.136665 0
M  V30 1044 H 106.798 3.34515 2.03978 0
M  V30 1045 H 108.495 3.60804 1.74989 0
M  V30 1046 H 105.085 4.25983 0.472954 0
M  V30 1047 H 109.269 4.95832 -0.215456 0
M  V30 1048 H 104.525 6.00115 -1.16925 0
M  V30 1049 H 108.699 6.71277 -1.85367 0
M  V30 1050 H 106.326 7.23399 -2.33661 0
M  V30 1051 N 107.901 -0.206675 1.56239 0
M  V30 1052 C 109.149 -0.927007 1.79586 0
M  V30 1053 C 109.47 -1.8427 0.637929 0
M  V30 1054 O 108.74 -1.92849 -0.344398 0
M  V30 1055 H 107.32 -0.345292 0.662407 0
M  V30 1056 H 109.982 -0.21496 1.93711 0
M  V30 1057 H 109.078 -1.52501 2.72305 0
M  V30 1058 N 109.379 -1.50304 -0.473955 0
M  V30 1059 C 110.604 -1.65175 -1.25427 0
M  V30 1060 C 111.029 -0.333673 -1.85117 0
M  V30 1061 O 110.387 0.702114 -1.67153 0
M  V30 1062 C 110.435 -2.74295 -2.34082 0
M  V30 1063 O 109.539 -2.35349 -3.38651 0
M  V30 1064 H 108.88 -0.551944 -0.369126 0
M  V30 1065 H 111.41 -1.96662 -0.564364 0
M  V30 1066 H 111.42 -2.97285 -2.79438 0
M  V30 1067 H 110.095 -3.69959 -1.90008 0
M  V30 1068 H 108.672 -2.22794 -2.99027 0
M  V30 1069 N 110.857 0.726932 -1.39834 0
M  V30 1070 C 112.273 1.03354 -1.21615 0
M  V30 1071 C 112.473 2.01327 -0.08338 0
M  V30 1072 O 111.529 2.46158 0.56238 0
M  V30 1073 C 112.842 1.58811 -2.55342 0
M  V30 1074 C 114.39 1.70851 -2.62257 0
M  V30 1075 C 114.865 2.29716 -3.96225 0
M  V30 1076 N 116.356 2.37116 -3.97907 0
M  V30 1077 C 117.091 2.83619 -4.98345 0
M  V30 1078 N 116.587 3.29958 -6.09179 0
M  V30 1079 N 118.38 2.82901 -4.8572 0
M  V30 1080 H 110.531 0.0773069 -2.12259 0
M  V30 1081 H 112.794 0.0969102 -0.943034 0
M  V30 1082 H 112.5 0.942855 -3.38826 0
M  V30 1083 H 112.374 2.57502 -2.75632 0
M  V30 1084 H 114.761 2.34497 -1.79152 0
M  V30 1085 H 114.842 0.707913 -2.45809 0
M  V30 1086 H 114.486 1.66696 -4.79765 0
M  V30 1087 H 114.416 3.30469 -4.09997 0
M  V30 1088 H 116.907 2.04374 -3.17868 0
M  V30 1089 H 117.22 3.63976 -6.8172 0
M  V30 1090 H 115.565 3.27946 -6.12761 0
M  V30 1091 H 118.756 2.46027 -3.98231 0
M  V30 1092 H 118.929 3.18827 -5.6414 0
M  V30 1093 N 112.336 1.25143 0.95797 0
M  V30 1094 C 113.283 1.05235 2.05412 0
M  V30 1095 C 114.253 -0.0374561 1.66058 0
M  V30 1096 O 115.438 0.119073 1.90428 0
M  V30 1097 C 112.578 0.673589 3.38462 0
M  V30 1098 C 111.691 1.8379 3.90954 0
M  V30 1099 C 110.826 1.40381 5.12315 0
M  V30 1100 C 109.865 2.53746 5.57027 0
M  V30 1101 N 109.002 2.11136 6.69601 0
M  V30 1102 H 113.842 1.99048 2.21774 0
M  V30 1103 H 111.379 0.991277 1.08683 0
M  V30 1104 H 113.337 0.434964 4.14926 0
M  V30 1105 H 111.967 -0.227554 3.21997 0
M  V30 1106 H 111.019 2.18992 3.11041 0
M  V30 1107 H 112.331 2.68937 4.20089 0
M  V30 1108 H 111.485 1.12464 5.96185 0
M  V30 1109 H 110.224 0.523015 4.84887 0
M  V30 1110 H 109.229 2.82412 4.71724 0
M  V30 1111 H 110.454 3.42398 5.86464 0
M  V30 1112 H 108.4 1.25468 6.4389 0
M  V30 1113 H 108.317 2.89832 6.98236 0
M  V30 1114 H 109.585 1.86385 7.56889 0
M  V30 1115 N 113.814 -1.1601 1.06675 0
M  V30 1116 C 114.777 -2.18724 0.685001 0
M  V30 1117 C 115.777 -1.58496 -0.271246 0
M  V30 1118 O 116.967 -1.74119 -0.0531156 0
M  V30 1119 C 114.099 -3.40899 0.00853648 0
M  V30 1120 H 115.292 -2.54011 1.59431 0
M  V30 1121 H 112.845 -1.30352 0.862441 0
M  V30 1122 H 113.58 -3.11173 -0.913337 0
M  V30 1123 H 113.365 -3.8587 0.696204 0
M  V30 1124 H 114.855 -4.16886 -0.24414 0
M  V30 1125 N 115.292 -0.849877 -1.32721 0
M  V30 1126 C 116.222 -0.306308 -2.31482 0
M  V30 1127 C 117.203 0.591952 -1.59468 0
M  V30 1128 O 118.388 0.513199 -1.87296 0
M  V30 1129 C 115.518 0.510204 -3.43532 0
M  V30 1130 C 114.472 -0.293209 -4.26994 0
M  V30 1131 C 113.798 0.647743 -5.30762 0
M  V30 1132 C 115.098 -1.51634 -4.99804 0
M  V30 1133 H 116.792 -1.13153 -2.77195 0
M  V30 1134 H 114.338 -0.545553 -1.33266 0
M  V30 1135 H 116.291 0.900856 -4.11658 0
M  V30 1136 H 115.015 1.36874 -2.96535 0
M  V30 1137 H 113.674 -0.665555 -3.60508 0
M  V30 1138 H 113.322 1.50299 -4.8002 0
M  V30 1139 H 113.022 0.11422 -5.87489 0
M  V30 1140 H 114.546 1.03567 -6.01753 0
M  V30 1141 H 115.96 -1.19824 -5.60638 0
M  V30 1142 H 114.357 -1.98745 -5.66234 0
M  V30 1143 H 115.427 -2.28018 -4.27943 0
M  V30 1144 N 116.77 1.45427 -0.607355 0
M  V30 1145 C 117.733 2.28974 0.101693 0
M  V30 1146 C 118.733 1.39754 0.795329 0
M  V30 1147 O 119.923 1.61878 0.643527 0
M  V30 1148 C 117.055 3.20768 1.15414 0
M  V30 1149 H 118.248 2.93147 -0.632844 0
M  V30 1150 H 115.801 1.51945 -0.366391 0
M  V30 1151 H 116.536 2.61395 1.91945 0
M  V30 1152 H 116.321 3.86489 0.66098 0
M  V30 1153 H 117.811 3.83589 1.65073 0
M  V30 1154 N 118.248 0.346503 1.53744 0
M  V30 1155 C 119.158 -0.517293 2.28826 0
M  V30 1156 C 120.174 -1.10935 1.3405 0
M  V30 1157 O 121.35 -1.1244 1.6709 0
M  V30 1158 C 118.415 -1.65098 3.04866 0
M  V30 1159 C 117.476 -1.0884 4.15274 0
M  V30 1160 C 116.709 -2.16806 4.87679 0
M  V30 1161 O 116.932 -3.3758 4.59778 0
M  V30 1162 O 115.866 -1.80934 5.74061 0
M  V30 1163 H 119.692 0.0931396 3.03557 0
M  V30 1164 H 117.277 0.111458 1.48984 0
M  V30 1165 H 119.159 -2.31053 3.5241 0
M  V30 1166 H 117.834 -2.24717 2.32989 0
M  V30 1167 H 116.741 -0.3933 3.72027 0
M  V30 1168 H 118.074 -0.537036 4.89261 0
M  V30 1169 N 119.726 -1.57421 0.075193 0
M  V30 1170 C 120.673 -2.12915 -0.890843 0
M  V30 1171 C 121.643 -1.04252 -1.29309 0
M  V30 1172 O 122.828 -1.31933 -1.37834 0
M  V30 1173 C 119.968 -2.69795 -2.15186 0
M  V30 1174 C 119.081 -3.92624 -1.80194 0
M  V30 1175 C 118.216 -4.37736 -3.00933 0
M  V30 1176 C 117.255 -5.53205 -2.61974 0
M  V30 1177 N 116.392 -5.9326 -3.75483 0
M  V30 1178 H 121.232 -2.95156 -0.410735 0
M  V30 1179 H 118.769 -1.45854 -0.191086 0
M  V30 1180 H 120.727 -3.00883 -2.89008 0
M  V30 1181 H 119.357 -1.90313 -2.60731 0
M  V30 1182 H 118.409 -3.67977 -0.964218 0
M  V30 1183 H 119.721 -4.76482 -1.47534 0
M  V30 1184 H 118.875 -4.70503 -3.8303 0
M  V30 1185 H 117.614 -3.52739 -3.36789 0
M  V30 1186 H 116.619 -5.20086 -1.783 0
M  V30 1187 H 117.844 -6.39936 -2.27284 0
M  V30 1188 H 115.79 -5.11212 -4.11094 0
M  V30 1189 H 115.707 -6.71865 -3.46602 0
M  V30 1190 H 116.975 -6.30651 -4.58148 0
M  V30 1191 N 121.204 0.198386 -1.56346 0
M  V30 1192 C 122.167 1.22952 -1.93431 0
M  V30 1193 C 123.167 1.38611 -0.815092 0
M  V30 1194 O 124.357 1.36479 -1.08255 0
M  V30 1195 C 121.489 2.59946 -2.20546 0
M  V30 1196 H 122.682 0.912626 -2.85677 0
M  V30 1197 H 120.235 0.43977 -1.49986 0
M  V30 1198 H 120.97 2.96696 -1.30927 0
M  V30 1199 H 120.755 2.49953 -3.02102 0
M  V30 1200 H 122.245 3.3431 -2.50253 0
M  V30 1201 N 122.682 1.50554 0.465978 0
M  V30 1202 C 123.928 1.62038 1.21949 0
M  V30 1203 C 124.261 0.322116 1.9151 0
M  V30 1204 O 123.536 -0.676723 1.82348 0
M  V30 1205 C 123.819 2.80421 2.25912 0
M  V30 1206 C 123.672 4.20144 1.60622 0
M  V30 1207 C 124.991 2.94354 3.27176 0
M  V30 1208 H 122.11 0.589752 0.441998 0
M  V30 1209 H 124.752 1.82956 0.51257 0
M  V30 1210 H 122.902 2.62717 2.86203 0
M  V30 1211 H 124.574 4.49449 1.03889 0
M  V30 1212 H 122.817 4.24165 0.909211 0
M  V30 1213 H 123.488 4.98914 2.36196 0
M  V30 1214 H 125.964 3.10578 2.76913 0
M  V30 1215 H 124.84 3.788 3.97242 0
M  V30 1216 H 125.101 2.05186 3.916 0
M  V30 1217 N 124.16 -0.719506 1.40217 0
M  V30 1218 C 125.576 -1.02707 1.22161 0
M  V30 1219 C 125.776 -2.0128 0.0940557 0
M  V30 1220 O 124.832 -2.46452 -0.549318 0
M  V30 1221 C 126.145 -1.57454 2.56181 0
M  V30 1222 C 127.693 -1.69458 2.63159 0
M  V30 1223 C 128.168 -2.27611 3.97438 0
M  V30 1224 N 129.659 -2.35002 3.99159 0
M  V30 1225 C 130.394 -2.80972 4.99842 0
M  V30 1226 N 129.89 -3.26723 6.10921 0
M  V30 1227 N 131.683 -2.80321 4.87213 0
M  V30 1228 H 123.834 -0.0660492 2.12297 0
M  V30 1229 H 126.097 -0.0919077 0.943534 0
M  V30 1230 H 125.803 -0.924873 3.39321 0
M  V30 1231 H 125.677 -2.56036 2.76993 0
M  V30 1232 H 128.064 -2.33543 1.80393 0
M  V30 1233 H 128.145 -0.694867 2.46181 0
M  V30 1234 H 127.789 -1.6415 4.80643 0
M  V30 1235 H 127.719 -3.2829 4.11744 0
M  V30 1236 H 130.21 -2.02685 3.18947 0
M  V30 1237 H 130.523 -3.60355 6.8364 0
M  V30 1238 H 128.868 -3.24692 6.14492 0
M  V30 1239 H 132.059 -2.43912 3.9953 0
M  V30 1240 H 132.232 -3.15831 5.65822 0
M  V30 1241 N 125.638 -1.25649 -0.95132 0
M  V30 1242 C 126.886 -1.10375 -1.69298 0
M  V30 1243 C 127.207 0.355339 -1.91735 0
M  V30 1244 O 126.477 1.25188 -1.50681 0
M  V30 1245 H 125.057 -0.405461 -0.627384 0
M  V30 1246 H 127.719 -1.57823 -1.14358 0
M  V30 1247 H 126.815 -1.61465 -2.67087 0
M  V30 1248 N 127.117 1.15442 -1.07289 0
M  V30 1249 C 128.047 2.22312 -0.714107 0
M  V30 1250 C 129.028 1.67467 0.298155 0
M  V30 1251 O 130.213 1.93445 0.171048 0
M  V30 1252 C 127.343 3.47124 -0.110448 0
M  V30 1253 C 126.297 4.14926 -1.04979 0
M  V30 1254 C 125.623 5.33807 -0.308924 0
M  V30 1255 C 126.923 4.64762 -2.38314 0
M  V30 1256 H 128.617 2.5258 -1.6076 0
M  V30 1257 H 126.163 1.21404 -0.77441 0
M  V30 1258 H 128.116 4.21124 0.152482 0
M  V30 1259 H 126.84 3.16187 0.81812 0
M  V30 1260 H 125.499 3.42866 -1.29764 0
M  V30 1261 H 125.147 4.99126 0.623084 0
M  V30 1262 H 124.847 5.80113 -0.935036 0
M  V30 1263 H 126.371 6.10576 -0.0537771 0
M  V30 1264 H 127.785 5.30292 -2.1786 0
M  V30 1265 H 126.182 5.21728 -2.96514 0
M  V30 1266 H 127.252 3.80434 -3.00663 0
M  V30 1267 N 128.595 0.856903 1.32268 0
M  V30 1268 C 130.011 0.547061 1.49931 0
M  V30 1269 C 130.211 -0.921781 1.7918 0
M  V30 1270 O 129.267 -1.70469 1.8627 0
M  V30 1271 C 130.58 1.43599 2.64196 0
M  V30 1272 C 132.128 1.43665 2.78081 0
M  V30 1273 C 132.603 2.31085 3.95428 0
M  V30 1274 N 134.094 2.28893 4.02694 0
M  V30 1275 C 134.829 2.93262 4.92732 0
M  V30 1276 N 134.325 3.66751 5.87763 0
M  V30 1277 N 136.118 2.82638 4.85873 0
M  V30 1278 H 128.269 1.8075 1.11549 0
M  V30 1279 H 130.532 0.772144 0.549997 0
M  V30 1280 H 130.238 2.48058 2.49319 0
M  V30 1281 H 130.112 1.12502 3.60032 0
M  V30 1282 H 132.499 0.399701 2.92381 0
M  V30 1283 H 132.58 1.7878 1.82952 0
M  V30 1284 H 132.224 3.34849 3.81888 0
M  V30 1285 H 132.154 1.93302 4.89839 0
M  V30 1286 H 134.645 1.75466 3.34694 0
M  V30 1287 H 134.958 4.13027 6.53168 0
M  V30 1288 H 133.303 3.70859 5.87783 0
M  V30 1289 H 136.494 2.24774 4.10602 0
M  V30 1290 H 136.667 3.33084 5.55841 0
M  V30 1291 N 130.073 -1.45103 0.615059 0
M  V30 1292 C 131.489 -1.57137 0.279322 0
M  V30 1293 C 131.689 -1.60523 -1.21797 0
M  V30 1294 O 130.745 -1.53956 -2.00134 0
M  V30 1295 C 132.058 -2.85062 0.957083 0
M  V30 1296 C 133.606 -2.98749 0.933706 0
M  V30 1297 C 134.081 -4.29455 1.59162 0
M  V30 1298 N 135.572 -4.36231 1.55746 0
M  V30 1299 C 136.307 -5.36051 2.0356 0
M  V30 1300 N 135.803 -6.42367 2.59494 0
M  V30 1301 N 137.596 -5.27456 1.94284 0
M  V30 1302 H 129.747 -1.41148 1.58717 0
M  V30 1303 H 132.01 -0.675331 0.665306 0
M  V30 1304 H 131.716 -2.88488 2.01166 0
M  V30 1305 H 131.59 -3.7407 0.48494 0
M  V30 1306 H 133.977 -2.94886 -0.112347 0
M  V30 1307 H 134.058 -2.11132 1.44419 0
M  V30 1308 H 133.702 -4.34077 2.63704 0
M  V30 1309 H 133.632 -5.15901 1.0561 0
M  V30 1310 H 136.123 -3.60011 1.14893 0
M  V30 1311 H 136.436 -7.14793 2.93752 0
M  V30 1312 H 134.781 -6.43097 2.63537 0
M  V30 1313 H 137.972 -4.43308 1.5032 0
M  V30 1314 H 138.145 -6.05099 2.3186 0
M  V30 1315 N 131.551 -0.354651 -1.53558 0
M  V30 1316 C 132.514 0.484566 -2.24019 0
M  V30 1317 C 133.514 1.01861 -1.24422 0
M  V30 1318 O 134.704 0.906097 -1.4878 0
M  V30 1319 C 131.836 1.67615 -2.96847 0
M  V30 1320 H 133.029 -0.131843 -2.9961 0
M  V30 1321 H 130.582 -0.106165 -1.55939 0
M  V30 1322 H 131.317 2.33095 -2.25471 0
M  V30 1323 H 131.102 1.30029 -3.69912 0
M  V30 1324 H 132.592 2.27114 -3.50441 0
M  V30 1325 N 133.029 1.57378 -0.0835403 0
M  V30 1326 C 134.445 1.57246 0.273109 0
M  V30 1327 C 134.645 1.09385 1.69225 0
M  V30 1328 O 133.701 0.765051 2.40631 0
M  V30 1329 C 135.014 3.00614 0.0720628 0
M  V30 1330 C 136.562 3.12684 0.1407 0
M  V30 1331 C 137.037 4.57989 -0.0322094 0
M  V30 1332 N 138.528 4.63194 0.0230085 0
M  V30 1333 C 139.263 5.73335 -0.0861941 0
M  V30 1334 N 138.759 6.9235 -0.24958 0
M  V30 1335 N 140.552 5.62093 -0.0282886 0
M  V30 1336 H 132.703 1.86801 -1.0109 0
M  V30 1337 H 134.966 0.861687 -0.395222 0
M  V30 1338 H 134.672 3.39786 -0.907662 0
M  V30 1339 H 134.546 3.68193 0.81936 0
M  V30 1340 H 136.933 2.73391 1.11092 0
M  V30 1341 H 137.014 2.47719 -0.637896 0
M  V30 1342 H 136.658 4.97973 -0.999247 0
M  V30 1343 H 136.588 5.21 0.765937 0
M  V30 1344 H 139.079 3.77613 0.14722 0
M  V30 1345 H 139.392 7.72117 -0.324733 0
M  V30 1346 H 137.737 6.94415 -0.285097 0
M  V30 1347 H 140.928 4.67997 0.0981408 0
M  V30 1348 H 141.101 6.47895 -0.116845 0
M  V30 1349 N 134.507 -0.190092 1.56449 0
M  V30 1350 C 135.47 -1.21925 1.9408 0
M  V30 1351 C 136.47 -1.38176 0.822431 0
M  V30 1352 O 137.66 -1.35903 1.08977 0
M  V30 1353 C 134.792 -2.58773 2.21922 0
M  V30 1354 H 135.985 -0.897464 2.86157 0
M  V30 1355 H 133.538 -0.43181 1.50217 0
M  V30 1356 H 134.273 -2.95998 1.32499 0
M  V30 1357 H 134.058 -2.48348 3.03424 0
M  V30 1358 H 135.548 -3.32978 2.52022 0
M  V30 1359 N 135.985 -1.50799 -0.457987 0
M  V30 1360 C 136.948 -1.7005 -1.53674 0
M  V30 1361 C 137.948 -0.570881 -1.50325 0
M  V30 1362 O 139.138 -0.838126 -1.52712 0
M  V30 1363 C 136.27 -1.73788 -2.93276 0
M  V30 1364 H 137.463 -2.66306 -1.37917 0
M  V30 1365 H 135.016 -1.40477 -0.685271 0
M  V30 1366 H 135.751 -0.792717 -3.14462 0
M  V30 1367 H 135.536 -2.55864 -2.97113 0
M  V30 1368 H 137.026 -1.90591 -3.71571 0
M  V30 1369 N 137.463 0.71206 -1.40597 0
M  V30 1370 C 138.711 1.46907 -1.38791 0
M  V30 1371 C 139.032 1.94998 0.00780391 0
M  V30 1372 O 138.302 1.70587 0.963174 0
M  V30 1373 H 136.882 0.545043 -0.51082 0
M  V30 1374 H 139.544 0.843882 -1.75683 0
M  V30 1375 H 138.64 2.34021 -2.06496 0
M  V30 1376 N 138.941 1.26152 0.944643 0
M  V30 1377 C 140.187 1.11657 1.69294 0
M  V30 1378 C 140.52 -0.339926 1.91202 0
M  V30 1379 O 139.795 -1.24994 1.49019 0
M  V30 1380 C 140.078 1.88236 3.06984 0
M  V30 1381 C 139.931 3.41772 2.92424 0
M  V30 1382 C 141.25 1.67343 4.07043 0
M  V30 1383 H 138.369 0.407004 0.614424 0
M  V30 1384 H 141.011 1.55106 1.09737 0
M  V30 1385 H 139.161 1.51308 3.57824 0
M  V30 1386 H 140.833 3.88433 2.48832 0
M  V30 1387 H 139.076 3.68974 2.28124 0
M  V30 1388 H 139.747 3.90579 3.90067 0
M  V30 1389 H 142.223 1.99509 3.65151 0
M  V30 1390 H 141.099 2.23346 5.01406 0
M  V30 1391 H 141.36 0.617158 4.37771 0
M  V30 1392 N 140.419 -1.14872 1.07899 0
M  V30 1393 C 141.835 -1.37776 0.805606 0
M  V30 1394 C 142.035 -1.92743 -0.587555 0
M  V30 1395 O 141.091 -2.13678 -1.34528 0
M  V30 1396 C 142.404 -2.34361 1.88402 0
M  V30 1397 C 143.952 -2.48012 1.90942 0
M  V30 1398 C 144.427 -3.47893 2.97883 0
M  V30 1399 N 145.918 -3.55433 2.97021 0
M  V30 1400 C 146.653 -4.32553 3.76412 0
M  V30 1401 N 146.149 -5.12959 4.65666 0
M  V30 1402 N 147.942 -4.27697 3.64735 0
M  V30 1403 H 140.093 -0.775365 1.97742 0
M  V30 1404 H 142.356 -0.403521 0.857831 0
M  V30 1405 H 142.062 -2.01098 2.88535 0
M  V30 1406 H 141.936 -3.34206 1.74889 0
M  V30 1407 H 144.323 -2.8057 0.914579 0
M  V30 1408 H 144.404 -1.48147 2.08534 0
M  V30 1409 H 144.048 -3.16069 3.97571 0
M  V30 1410 H 143.978 -4.47527 2.77538 0
M  V30 1411 H 146.469 -2.98048 2.32326 0
M  V30 1412 H 146.782 -5.69065 5.22862 0
M  V30 1413 H 145.127 -5.12245 4.69712 0
M  V30 1414 H 148.318 -3.63949 2.94378 0
M  V30 1415 H 148.491 -4.8755 4.26848 0
M  V30 1416 N 141.898 -0.863906 -1.31812 0
M  V30 1417 C 143.126 -0.486111 -2.01108 0
M  V30 1418 C 143.541 0.919755 -1.64882 0
M  V30 1419 O 142.898 1.60162 -0.874893 0
M  V30 1420 C 142.949 -0.626435 -3.56031 0
M  V30 1421 O 142.67 -1.97693 -3.90959 0
M  V30 1422 C 144.171 -0.248857 -4.42601 0
M  V30 1423 H 141.391 -0.190052 -0.643523 0
M  V30 1424 H 143.935 -1.1634 -1.68182 0
M  V30 1425 H 142.09 0.00322717 -3.874 0
M  V30 1426 H 142.504 -1.98034 -4.85678 0
M  V30 1427 H 143.978 -0.398016 -5.50563 0
M  V30 1428 H 144.455 0.811489 -4.31638 0
M  V30 1429 H 145.061 -0.853971 -4.16638 0
M  V30 1430 N 143.376 1.44774 -0.622745 0
M  V30 1431 C 144.625 2.01334 -0.121397 0
M  V30 1432 C 144.938 1.49505 1.26125 0
M  V30 1433 O 146.144 1.98139 1.85616 0
M  V30 1434 C 144.6 3.59516 -0.166298 0
M  V30 1435 C 144.208 4.20342 -1.54974 0
M  V30 1436 C 145.952 4.23582 0.279021 0
M  V30 1437 C 143.859 5.70721 -1.55021 0
M  V30 1438 H 142.789 0.752851 -0.0416172 0
M  V30 1439 H 145.44 1.66083 -0.780309 0
M  V30 1440 H 143.822 3.92027 0.559557 0
M  V30 1441 H 144.996 3.99381 -2.29851 0
M  V30 1442 H 143.311 3.68529 -1.93843 0
M  V30 1443 H 145.908 5.33868 0.298083 0
M  V30 1444 H 146.251 3.95327 1.30471 0
M  V30 1445 H 146.784 3.95843 -0.394063 0
M  V30 1446 H 143.523 6.03698 -2.55399 0
M  V30 1447 H 143.043 5.93829 -0.844245 0
M  V30 1448 H 144.722 6.34203 -1.28047 0
M  V30 1449 N 144.854 0.36279 1.53368 0
M  V30 1450 C 146.1 -0.228113 2.01513 0
M  V30 1451 C 146.433 -1.48648 1.2497 0
M  V30 1452 O 145.708 -1.91459 0.342616 0
M  V30 1453 C 145.991 -0.522884 3.56284 0
M  V30 1454 C 145.844 0.74892 4.43521 0
M  V30 1455 C 147.163 -1.32461 4.19693 0
M  V30 1456 H 144.282 -0.0814343 0.732487 0
M  V30 1457 H 146.924 0.48713 1.83649 0
M  V30 1458 H 145.074 -1.1322 3.71636 0
M  V30 1459 H 146.746 1.38648 4.39971 0
M  V30 1460 H 144.989 1.36986 4.11603 0
M  V30 1461 H 145.66 0.497667 5.49752 0
M  V30 1462 H 148.136 -0.809203 4.08156 0
M  V30 1463 H 147.012 -1.49961 5.28018 0
M  V30 1464 H 147.273 -2.33232 3.75573 0
M  V30 1465 N 146.332 -1.57332 0.0918853 0
M  V30 1466 C 147.609 -1.85691 -0.614668 0
M  V30 1467 C 147.989 -0.988146 -1.86545 0
M  V30 1468 O 147.337 -0.0597055 -2.28422 0
M  V30 1469 C 147.547 -3.36294 -0.933126 0
M  V30 1470 C 148.895 -4.04275 -1.29796 0
M  V30 1471 O 149.919 -3.41157 -1.02424 0
M  V30 1472 O 148.778 -5.1564 -1.81047 0
M  V30 1473 H 145.872 -0.767802 -0.307261 0
M  V30 1474 H 148.418 -1.69244 0.12434 0
M  V30 1475 H 147.19 -3.91273 -0.0456404 0
M  V30 1476 H 146.813 -3.58076 -1.72822 0
M  V30 1477 N 147.81 0.181792 -1.56548 0
M  V30 1478 C 149.056 0.901431 -1.81665 0
M  V30 1479 C 149.389 1.82347 -0.668075 0
M  V30 1480 O 148.664 1.91669 0.330615 0
M  V30 1481 C 148.947 1.70618 -3.17115 0
M  V30 1482 C 148.8 0.807964 -4.42484 0
M  V30 1483 C 150.119 2.67605 -3.49393 0
M  V30 1484 H 147.238 0.32627 -0.660846 0
M  V30 1485 H 149.88 0.168134 -1.89255 0
M  V30 1486 H 148.03 2.33133 -3.10775 0
M  V30 1487 H 149.702 0.19649 -4.60881 0
M  V30 1488 H 147.945 0.115411 -4.33646 0
M  V30 1489 H 148.616 1.40632 -5.33785 0
M  V30 1490 H 151.092 2.15218 -3.56118 0
M  V30 1491 H 149.968 3.20985 -4.45264 0
M  V30 1492 H 150.229 3.47298 -2.73563 0
M  V30 1493 N 149.288 1.51039 0.449983 0
M  V30 1494 C 150.513 1.6715 1.22783 0
M  V30 1495 C 150.938 0.363081 1.84563 0
M  V30 1496 O 150.296 -0.675433 1.68249 0
M  V30 1497 C 150.344 2.77985 2.29689 0
M  V30 1498 O 149.448 2.40707 3.34864 0
M  V30 1499 H 148.789 0.557746 0.360299 0
M  V30 1500 H 151.319 1.97535 0.533005 0
M  V30 1501 H 151.329 3.01693 2.74673 0
M  V30 1502 H 150.004 3.72935 1.84098 0
M  V30 1503 H 148.581 2.27523 2.95445 0
M  V30 1504 N 150.766 -0.704594 1.40972 0
M  V30 1505 C 151.994 -1.49354 1.43182 0
M  V30 1506 C 152.409 -1.88768 0.0345508 0
M  V30 1507 O 151.766 -1.56184 -0.944081 0
M  V30 1508 C 151.817 -2.76187 2.33244 0
M  V30 1509 O 151.538 -2.38436 3.67532 0
M  V30 1510 C 153.039 -3.7 2.44162 0
M  V30 1511 H 150.259 -0.460559 0.487982 0
M  V30 1512 H 152.803 -0.868261 1.85153 0
M  V30 1513 H 150.958 -3.34974 1.94606 0
M  V30 1514 H 151.372 -3.20126 4.15475 0
M  V30 1515 H 152.846 -4.55803 3.11364 0
M  V30 1516 H 153.323 -4.13867 1.47006 0
M  V30 1517 H 153.929 -3.17121 2.83398 0
M  V30 1518 N 152.244 -1.26651 -0.937939 0
M  V30 1519 C 153.491 -1.12387 -1.6845 0
M  V30 1520 C 153.819 0.332208 -1.91642 0
M  V30 1521 O 153.074 1.2602 -1.49725 0
M  V30 1522 C 153.373 -1.84168 -3.06295 0
M  V30 1523 C 153.039 -3.34056 -3.02849 0
M  V30 1524 C 151.701 -3.74942 -3.01616 0
M  V30 1525 C 154.053 -4.29741 -2.9491 0
M  V30 1526 C 151.381 -5.09894 -2.90215 0
M  V30 1527 C 153.733 -5.64738 -2.8505 0
M  V30 1528 C 152.397 -6.0493 -2.82162 0
M  V30 1529 H 151.667 -0.411252 -0.616403 0
M  V30 1530 H 154.314 -1.57134 -1.09459 0
M  V30 1531 H 152.619 -1.319 -3.6893 0
M  V30 1532 H 154.316 -1.70569 -3.62915 0
M  V30 1533 H 150.906 -3.01534 -3.0459 0
M  V30 1534 H 155.09 -3.99133 -2.94969 0
M  V30 1535 H 150.346 -5.40194 -2.86358 0
M  V30 1536 H 154.52 -6.38561 -2.77872 0
M  V30 1537 H 152.147 -7.09457 -2.73084 0
M  V30 1538 N 153.722 1.14298 -1.08507 0
M  V30 1539 C 154.999 1.81544 -0.728088 0
M  V30 1540 C 155.379 1.95838 0.78808 0
M  V30 1541 O 154.727 1.51904 1.70697 0
M  V30 1542 C 154.937 3.17169 -1.45619 0
M  V30 1543 C 156.285 3.9265 -1.61591 0
M  V30 1544 O 157.309 3.26762 -1.41793 0
M  V30 1545 O 156.168 5.10807 -1.94263 0
M  V30 1546 H 153.262 0.78491 -0.260471 0
M  V30 1547 H 155.808 1.21307 -1.18671 0
M  V30 1548 H 154.58 3.01934 -2.489 0
M  V30 1549 H 154.203 3.851 -0.989124 0
M  V30 1550 N 155.201 0.870884 1.31352 0
M  V30 1551 C 156.45 0.478408 1.95944 0
M  V30 1552 C 156.763 -0.974493 1.69597 0
M  V30 1553 O 157.969 -1.47316 2.28058 0
M  V30 1554 C 156.425 0.804609 3.50791 0
M  V30 1555 C 156.033 2.27433 3.85977 0
M  V30 1556 C 157.777 0.480648 4.2177 0
M  V30 1557 C 155.684 2.5429 5.33939 0
M  V30 1558 H 154.614 0.175175 0.733369 0
M  V30 1559 H 157.265 1.06391 1.4951 0
M  V30 1560 H 155.647 0.148347 3.95722 0
M  V30 1561 H 156.821 2.97373 3.52002 0
M  V30 1562 H 155.136 2.56442 3.28065 0
M  V30 1563 H 157.733 0.658519 5.30629 0
M  V30 1564 H 158.076 -0.578979 4.12254 0
M  V30 1565 H 158.609 1.09349 3.82476 0
M  V30 1566 H 155.348 3.58939 5.48491 0
M  V30 1567 H 154.868 1.88945 5.69263 0
M  V30 1568 H 156.547 2.39066 6.01212 0
M  V30 1569 N 156.679 -1.44442 0.630414 0
M  V30 1570 C 157.927 -2.01653 0.134351 0
M  V30 1571 C 158.248 -1.49836 -1.24796 0
M  V30 1572 O 157.518 -0.701684 -1.82902 0
M  V30 1573 H 156.098 -0.74554 0.0466769 0
M  V30 1574 H 158.76 -1.76952 0.816955 0
M  V30 1575 H 157.856 -3.11935 0.101498 0
M  V30 1576 N 158.157 -0.370918 -1.53173 0
M  V30 1577 C 159.573 -0.0200818 -1.59587 0
M  V30 1578 C 159.773 1.46279 -1.38581 0
M  V30 1579 O 158.829 2.22506 -1.19363 0
M  V30 1580 C 160.142 -0.4808 -2.96831 0
M  V30 1581 C 161.69 -0.435477 -3.09956 0
M  V30 1582 C 162.165 -0.872092 -4.4962 0
M  V30 1583 N 163.656 -0.827364 -4.55751 0
M  V30 1584 C 164.391 -1.13683 -5.62018 0
M  V30 1585 N 163.887 -1.51584 -6.76014 0
M  V30 1586 N 165.68 -1.05927 -5.52029 0
M  V30 1587 H 157.831 -1.33652 -1.65079 0
M  V30 1588 H 160.094 -0.546634 -0.774529 0
M  V30 1589 H 159.8 -1.51577 -3.1736 0
M  V30 1590 H 159.674 0.129796 -3.76977 0
M  V30 1591 H 162.061 0.590371 -2.89134 0
M  V30 1592 H 162.142 -1.08164 -2.31806 0
M  V30 1593 H 161.786 -1.89608 -4.71181 0
M  V30 1594 H 161.716 -0.203127 -5.26208 0
M  V30 1595 H 164.207 -0.548216 -3.73902 0
M  V30 1596 H 164.52 -1.73609 -7.53047 0
M  V30 1597 H 162.865 -1.55454 -6.77391 0
M  V30 1598 H 166.056 -0.762321 -4.61851 0
M  V30 1599 H 166.229 -1.30378 -6.34749 0
M  V30 1600 N 159.635 1.57281 -0.100228 0
M  V30 1601 C 160.912 1.86014 0.604812 0
M  V30 1602 C 161.292 0.998025 1.86018 0
M  V30 1603 O 160.64 0.0718184 2.28387 0
M  V30 1604 C 160.85 3.36784 0.915278 0
M  V30 1605 C 162.198 4.04957 1.27651 0
M  V30 1606 O 163.222 3.41695 1.00613 0
M  V30 1607 O 162.081 5.16593 1.7831 0
M  V30 1608 H 159.175 0.76942 0.303185 0
M  V30 1609 H 161.721 1.69176 -0.133313 0
M  V30 1610 H 160.493 3.91292 0.0248896 0
M  V30 1611 H 160.116 3.58987 1.70921 0
M  V30 1612 N 161.113 -0.173488 1.56642 0
M  V30 1613 C 162.359 -0.891784 1.8214 0
M  V30 1614 C 162.692 -1.8199 0.677736 0
M  V30 1615 O 161.967 -1.91842 -0.320446 0
M  V30 1616 C 162.25 -1.68933 3.18015 0
M  V30 1617 C 162.103 -0.784487 4.42906 0
M  V30 1618 C 163.422 -2.65748 3.50808 0
M  V30 1619 H 160.541 -0.322761 0.662567 0
M  V30 1620 H 163.183 -0.158095 1.89341 0
M  V30 1621 H 161.333 -2.31482 3.12007 0
M  V30 1622 H 163.005 -0.172046 4.60979 0
M  V30 1623 H 161.248 -0.0924117 4.33702 0
M  V30 1624 H 161.919 -1.37799 5.34524 0
M  V30 1625 H 164.395 -2.13327 3.57255 0
M  V30 1626 H 163.271 -3.18619 4.4696 0
M  V30 1627 H 163.532 -3.45842 2.75401 0
M  V30 1628 N 162.591 -1.51276 -0.441967 0
M  V30 1629 C 163.816 -1.67799 -1.21895 0
M  V30 1630 C 164.241 -0.372864 -1.84367 0
M  V30 1631 O 163.599 0.666501 -1.68604 0
M  V30 1632 C 163.647 -2.79199 -2.28211 0
M  V30 1633 O 162.751 -2.42479 -3.33583 0
M  V30 1634 H 162.092 -0.559649 -0.357336 0
M  V30 1635 H 164.622 -1.97815 -0.522522 0
M  V30 1636 H 164.632 -3.03146 -2.73069 0
M  V30 1637 H 163.307 -3.73906 -1.82118 0
M  V30 1638 H 161.884 -2.29087 -2.94234 0
M  V30 1639 N 164.069 0.697108 -1.41344 0
M  V30 1640 C 164.999 1.82353 -1.45841 0
M  V30 1641 C 165.98 1.67115 -0.317247 0
M  V30 1642 O 167.165 1.86871 -0.528474 0
M  V30 1643 C 164.295 3.20476 -1.33838 0
M  V30 1644 C 163.249 3.50415 -2.4575 0
M  V30 1645 C 162.575 4.87878 -2.18813 0
M  V30 1646 C 163.875 3.49546 -3.88091 0
M  V30 1647 H 165.569 1.78846 -2.40113 0
M  V30 1648 H 163.115 0.859028 -1.15571 0
M  V30 1649 H 165.068 3.98988 -1.35596 0
M  V30 1650 H 163.792 3.24604 -0.360498 0
M  V30 1651 H 162.451 2.74253 -2.43271 0
M  V30 1652 H 162.099 4.8863 -1.19371 0
M  V30 1653 H 161.799 5.08875 -2.93803 0
M  V30 1654 H 163.323 5.68702 -2.22284 0
M  V30 1655 H 164.737 4.18066 -3.92293 0
M  V30 1656 H 163.134 3.82075 -4.62751 0
M  V30 1657 H 164.204 2.48552 -4.16353 0
M  V30 1658 N 165.547 1.27147 0.931209 0
M  V30 1659 C 166.477 1.12081 2.04842 0
M  V30 1660 C 167.458 0.0232364 1.70084 0
M  V30 1661 O 168.643 0.197085 1.93197 0
M  V30 1662 C 165.773 0.76354 3.38803 0
M  V30 1663 C 164.727 1.81396 3.87659 0
M  V30 1664 C 164.053 1.31075 5.18385 0
M  V30 1665 C 165.353 3.21739 4.11438 0
M  V30 1666 H 167.047 2.05537 2.17703 0
M  V30 1667 H 164.593 0.989603 1.04608 0
M  V30 1668 H 166.546 0.644982 4.16435 0
M  V30 1669 H 165.27 -0.206727 3.25945 0
M  V30 1670 H 163.929 1.92136 3.12217 0
M  V30 1671 H 163.577 0.330037 5.01916 0
M  V30 1672 H 163.277 2.013 5.52044 0
M  V30 1673 H 164.801 1.20506 5.98591 0
M  V30 1674 H 166.215 3.14019 4.79651 0
M  V30 1675 H 164.612 3.89644 4.56397 0
M  V30 1676 H 165.682 3.67054 3.16859 0
M  V30 1677 N 167.025 -1.13721 1.09112 0
M  V30 1678 C 167.988 -2.17222 0.731241 0
M  V30 1679 C 168.988 -1.59035 -0.237566 0
M  V30 1680 O 170.178 -1.74192 -0.0161704 0
M  V30 1681 C 167.31 -3.40804 0.0808443 0
M  V30 1682 H 168.503 -2.50573 1.64783 0
M  V30 1683 H 166.056 -1.28493 0.889897 0
M  V30 1684 H 166.791 -3.1304 -0.847127 0
M  V30 1685 H 166.576 -3.84306 0.777896 0
M  V30 1686 H 168.066 -4.1731 -0.155657 0
M  V30 1687 N 168.503 -0.877838 -1.30888 0
M  V30 1688 C 169.413 -0.343096 -2.32078 0
M  V30 1689 C 170.429 0.551022 -1.65045 0
M  V30 1690 O 171.605 0.445854 -1.96403 0
M  V30 1691 C 168.67 0.439905 -3.43898 0
M  V30 1692 C 167.731 -0.483111 -4.26573 0
M  V30 1693 C 166.964 0.262616 -5.33053 0
M  V30 1694 O 167.187 1.48967 -5.50604 0
M  V30 1695 O 166.121 -0.383593 -6.00676 0
M  V30 1696 H 169.947 -1.18203 -2.79753 0
M  V30 1697 H 167.532 -0.64145 -1.34929 0
M  V30 1698 H 169.414 0.883504 -4.12034 0
M  V30 1699 H 168.089 1.25526 -2.98371 0
M  V30 1700 H 166.996 -0.975374 -3.61161 0
M  V30 1701 H 168.329 -1.26427 -4.75686 0
M  V30 1702 N 169.982 1.44106 -0.638065 0
M  V30 1703 C 171.228 2.02277 -0.145546 0
M  V30 1704 C 171.561 1.50125 1.23191 0
M  V30 1705 O 170.836 0.688133 1.8192 0
M  V30 1706 C 171.119 3.59829 -0.139791 0
M  V30 1707 C 170.972 4.22247 -1.55008 0
M  V30 1708 C 172.291 4.36873 0.531966 0
M  V30 1709 H 169.41 0.734992 -0.0543632 0
M  V30 1710 H 172.052 1.71592 -0.815863 0
M  V30 1711 H 170.202 3.86102 0.431007 0
M  V30 1712 H 171.874 4.07057 -2.1703 0
M  V30 1713 H 170.117 3.79476 -2.10191 0
M  V30 1714 H 170.788 5.31284 -1.49804 0
M  V30 1715 H 173.264 4.16074 0.0464781 0
M  V30 1716 H 172.14 5.4657 0.505206 0
M  V30 1717 H 172.401 4.11995 1.60352 0
M  V30 1718 N 171.46 0.379036 1.52974 0
M  V30 1719 C 172.685 -0.209353 2.06341 0
M  V30 1720 C 173.11 -1.40583 1.24972 0
M  V30 1721 O 172.468 -1.79246 0.272155 0
M  V30 1722 C 172.516 -0.567786 3.56102 0
M  V30 1723 O 171.62 -1.66318 3.77375 0
M  V30 1724 H 170.961 -0.0272919 0.663439 0
M  V30 1725 H 173.491 0.543536 1.97248 0
M  V30 1726 H 173.501 -0.835003 3.99364 0
M  V30 1727 H 172.176 0.307013 4.14765 0
M  V30 1728 H 170.753 -1.39048 3.46006 0
M  V30 1729 N 172.938 -1.57226 0.108567 0
M  V30 1730 C 174.354 -1.5766 -0.248058 0
M  V30 1731 C 174.554 -1.12063 -1.67464 0
M  V30 1732 O 173.61 -0.803236 -2.39383 0
M  V30 1733 C 174.923 -3.0069 -0.0242287 0
M  V30 1734 C 176.471 -3.12868 -0.0909372 0
M  V30 1735 C 176.946 -4.57879 0.105067 0
M  V30 1736 N 178.437 -4.63172 0.0506846 0
M  V30 1737 C 179.172 -5.73126 0.177396 0
M  V30 1738 N 178.668 -6.91866 0.359696 0
M  V30 1739 N 180.461 -5.61977 0.117709 0
M  V30 1740 H 172.612 -1.85169 1.04049 0
M  V30 1741 H 174.875 -0.85529 0.40888 0
M  V30 1742 H 174.581 -3.38299 0.961604 0
M  V30 1743 H 174.455 -3.6945 -0.76068 0
M  V30 1744 H 176.842 -2.75124 -1.06729 0
M  V30 1745 H 176.923 -2.46672 0.677225 0
M  V30 1746 H 176.567 -4.96321 1.07834 0
M  V30 1747 H 176.497 -5.22153 -0.682954 0
M  V30 1748 H 178.988 -3.778 -0.0871266 0
M  V30 1749 H 179.301 -7.71503 0.447529 0
M  V30 1750 H 177.646 -6.93874 0.395536 0
M  V30 1751 H 180.837 -4.68094 -0.0236741 0
M  V30 1752 H 181.01 -6.47627 0.219905 0
M  V30 1753 N 174.416 0.165178 -1.56732 0
M  V30 1754 C 175.379 1.18822 -1.95995 0
M  V30 1755 C 176.379 1.3685 -0.84431 0
M  V30 1756 O 177.569 1.34152 -1.11126 0
M  V30 1757 C 174.701 2.5521 -2.26011 0
M  V30 1758 H 175.894 0.851825 -2.87548 0
M  V30 1759 H 173.447 0.407857 -1.50885 0
M  V30 1760 H 174.182 2.93852 -1.37191 0
M  V30 1761 H 173.967 2.43489 -3.07336 0
M  V30 1762 H 175.457 3.28927 -2.57288 0
M  V30 1763 N 175.894 1.51508 0.433938 0
M  V30 1764 C 176.857 1.72473 1.50949 0
M  V30 1765 C 177.857 0.594725 1.49398 0
M  V30 1766 O 179.047 0.862315 1.5136 0
M  V30 1767 C 176.179 1.78431 2.90474 0
M  V30 1768 H 177.372 2.68467 1.33662 0
M  V30 1769 H 174.925 1.41549 0.662836 0
M  V30 1770 H 175.66 0.842645 3.13161 0
M  V30 1771 H 175.445 2.60558 2.93005 0
M  V30 1772 H 176.935 1.96479 3.68491 0
M  V30 1773 N 177.372 -0.689602 1.41712 0
M  V30 1774 C 178.649 -1.44457 1.31877 0
M  V30 1775 C 179.029 -2.11039 -0.0508537 0
M  V30 1776 O 178.377 -2.02138 -1.06547 0
M  V30 1777 C 178.587 -2.45913 2.47645 0
M  V30 1778 C 179.935 -3.10991 2.89084 0
M  V30 1779 O 180.959 -2.56238 2.47428 0
M  V30 1780 O 179.818 -4.10174 3.61137 0
M  V30 1781 H 176.912 -0.64362 0.519309 0
M  V30 1782 H 179.458 -0.719576 1.53689 0
M  V30 1783 H 178.23 -1.95409 3.39015 0
M  V30 1784 H 177.853 -3.25913 2.27742 0
M  V30 1785 N 178.85 -1.27639 -0.924453 0
M  V30 1786 C 180.096 -1.14336 -1.67497 0
M  V30 1787 C 180.429 0.309465 -1.91718 0
M  V30 1788 O 179.704 1.22608 -1.50989 0
M  V30 1789 C 179.987 -1.93096 -3.0395 0
M  V30 1790 C 179.84 -3.46381 -2.8695 0
M  V30 1791 C 181.159 -1.73798 -4.0433 0
M  V30 1792 H 178.278 -0.416728 -0.607871 0
M  V30 1793 H 180.92 -1.56832 -1.07256 0
M  V30 1794 H 179.07 -1.56982 -3.55372 0
M  V30 1795 H 180.742 -3.92343 -2.42621 0
M  V30 1796 H 178.985 -3.72557 -2.22225 0
M  V30 1797 H 179.656 -3.96735 -3.83804 0
M  V30 1798 H 182.132 -2.05293 -3.61931 0
M  V30 1799 H 181.008 -2.31294 -4.97789 0
M  V30 1800 H 181.269 -0.686725 -4.36734 0
M  V30 1801 N 180.328 1.1314 -1.09713 0
M  V30 1802 C 181.278 2.16709 -0.708593 0
M  V30 1803 C 182.262 1.58471 0.278523 0
M  V30 1804 O 183.454 1.76779 0.088427 0
M  V30 1805 C 180.583 3.43039 -0.133923 0
M  V30 1806 C 179.669 4.08277 -1.14763 0
M  V30 1807 N 180.06 4.48637 -2.33577 0
M  V30 1808 C 178.358 4.34954 -0.986446 0
M  V30 1809 C 179.059 4.9952 -2.98085 0
M  V30 1810 N 178.035 4.94561 -2.25632 0
M  V30 1811 H 181.837 2.45672 -1.61315 0
M  V30 1812 H 179.351 1.29967 -0.973775 0
M  V30 1813 H 181.348 4.16583 0.162465 0
M  V30 1814 H 180.008 3.15549 0.765447 0
M  V30 1815 H 181.019 4.41246 -2.7115 0
M  V30 1816 H 177.696 4.17258 -0.142008 0
M  V30 1817 H 179.086 5.40521 -3.99108 0
M  V30 1818 N 181.806 0.884767 1.30421 0
M  V30 1819 C 183.055 0.499164 1.95426 0
M  V30 1820 C 183.368 -0.95645 1.70621 0
M  V30 1821 O 184.574 -1.44889 2.29607 0
M  V30 1822 C 183.03 0.84177 3.49917 0
M  V30 1823 C 182.638 2.31514 3.83543 0
M  V30 1824 C 184.382 0.525355 4.21237 0
M  V30 1825 C 182.289 2.59939 5.31212 0
M  V30 1826 H 181.219 0.182944 0.73147 0
M  V30 1827 H 183.87 1.07971 1.48373 0
M  V30 1828 H 182.252 0.190311 3.95542 0
M  V30 1829 H 183.426 3.0109 3.48829 0
M  V30 1830 H 181.741 2.59907 3.25326 0
M  V30 1831 H 184.338 0.714762 5.29901 0
M  V30 1832 H 184.681 -0.535222 4.12845 0
M  V30 1833 H 185.214 1.134 3.81294 0
M  V30 1834 H 181.953 3.64736 5.44654 0
M  V30 1835 H 181.473 1.94972 5.67227 0
M  V30 1836 H 183.152 2.45429 5.98643 0
M  V30 1837 N 183.284 -1.43765 0.645699 0
M  V30 1838 C 184.53 -2.02197 0.156271 0
M  V30 1839 C 184.863 -1.50776 -1.22393 0
M  V30 1840 O 184.138 -0.697771 -1.81553 0
M  V30 1841 C 184.421 -3.59749 0.158872 0
M  V30 1842 C 184.274 -4.21419 1.57245 0
M  V30 1843 C 185.593 -4.37149 -0.50879 0
M  V30 1844 H 182.712 -0.734694 0.0582602 0
M  V30 1845 H 185.354 -1.71157 0.824951 0
M  V30 1846 H 183.504 -3.86325 -0.410525 0
M  V30 1847 H 185.176 -4.059 2.19186 0
M  V30 1848 H 183.419 -3.78356 2.122 0
M  V30 1849 H 184.09 -5.30482 1.52619 0
M  V30 1850 H 186.566 -4.16093 -0.024412 0
M  V30 1851 H 185.442 -5.4683 -0.476213 0
M  V30 1852 H 185.703 -4.12839 -1.58165 0
M  V30 1853 N 184.763 -0.387143 -1.52771 0
M  V30 1854 C 185.726 0.436939 -2.24997 0
M  V30 1855 C 186.726 0.991991 -1.26555 0
M  V30 1856 O 187.916 0.874335 -1.50669 0
M  V30 1857 C 185.048 1.61281 -3.00335 0
M  V30 1858 H 186.241 -0.195365 -2.99263 0
M  V30 1859 H 183.794 -0.139218 -1.55679 0
M  V30 1860 H 184.529 2.2826 -2.30364 0
M  V30 1861 H 184.314 1.22154 -3.72587 0
M  V30 1862 H 185.804 2.19629 -3.5518 0
M  V30 1863 N 186.241 1.57166 -0.116904 0
M  V30 1864 C 187.204 2.14039 0.819742 0
M  V30 1865 C 188.204 1.07477 1.19605 0
M  V30 1866 O 189.394 1.33263 1.1219 0
M  V30 1867 C 186.526 2.67891 2.10826 0
M  V30 1868 H 187.719 2.98128 0.325511 0
M  V30 1869 H 185.272 1.55739 0.132312 0
M  V30 1870 H 186.007 1.87384 2.64685 0
M  V30 1871 H 185.792 3.45823 1.84793 0
M  V30 1872 H 187.282 3.11809 2.77785 0
M  V30 1873 N 187.719 -0.156864 1.56817 0
M  V30 1874 C 188.947 -0.886316 1.86955 0
M  V30 1875 C 189.362 -1.75185 0.703975 0
M  V30 1876 O 188.719 -1.79555 -0.326552 0
M  V30 1877 C 188.77 -1.75117 3.16253 0
M  V30 1878 O 188.491 -0.920537 4.2832 0
M  V30 1879 C 189.992 -2.58905 3.59837 0
M  V30 1880 H 187.212 -0.25678 0.619923 0
M  V30 1881 H 189.756 -0.152615 2.0393 0
M  V30 1882 H 187.911 -2.43805 3.01062 0
M  V30 1883 H 188.325 -1.51337 5.02192 0
M  V30 1884 H 189.799 -3.1518 4.53172 0
M  V30 1885 H 190.276 -3.34472 2.84649 0
M  V30 1886 H 190.882 -1.95526 3.7769 0
M  V30 1887 N 189.197 -1.51736 -0.425897 0
M  V30 1888 C 190.445 -1.64644 -1.17204 0
M  V30 1889 C 190.766 -0.370486 -1.91448 0
M  V30 1890 O 190.036 0.614088 -1.86026 0
M  V30 1891 H 188.616 -0.606819 -0.435638 0
M  V30 1892 H 191.278 -1.88713 -0.487177 0
M  V30 1893 H 190.374 -2.47958 -1.89534 0
M  V30 1894 N 190.675 0.682077 -1.42076 0
M  V30 1895 C 191.605 1.80796 -1.47767 0
M  V30 1896 C 192.586 1.6677 -0.334954 0
M  V30 1897 O 193.771 1.863 -0.548264 0
M  V30 1898 C 190.901 3.19038 -1.37229 0
M  V30 1899 C 189.855 3.47789 -2.49453 0
M  V30 1900 C 189.181 4.8553 -2.23975 0
M  V30 1901 C 190.481 3.45411 -3.91776 0
M  V30 1902 H 192.175 1.7629 -2.41997 0
M  V30 1903 H 189.721 0.846721 -1.16476 0
M  V30 1904 H 191.674 3.97528 -1.39821 0
M  V30 1905 H 190.398 3.24204 -0.394907 0
M  V30 1906 H 189.057 2.71657 -2.46166 0
M  V30 1907 H 188.705 4.87337 -1.24547 0
M  V30 1908 H 188.405 5.0573 -2.99184 0
M  V30 1909 H 189.929 5.66312 -2.28304 0
M  V30 1910 H 191.343 4.13882 -3.96705 0
M  V30 1911 H 189.74 3.77145 -4.66778 0
M  V30 1912 H 190.81 2.44122 -4.18966 0
M  V30 1913 N 192.153 1.28127 0.917671 0
M  V30 1914 C 193.399 1.16232 1.66918 0
M  V30 1915 C 193.754 -0.28701 1.90247 0
M  V30 1916 O 193.047 -1.20586 1.48895 0
M  V30 1917 C 193.241 1.89018 3.03327 0
M  V30 1918 C 193.07 3.4088 2.9331 0
M  V30 1919 C 191.84 4.10214 2.95047 0
M  V30 1920 C 194.038 4.36689 2.71675 0
M  V30 1921 N 192.02 5.48571 2.75577 0
M  V30 1922 C 193.391 5.62382 2.6101 0
M  V30 1923 C 195.446 4.26661 2.56641 0
M  V30 1924 C 194.149 6.79189 2.36843 0
M  V30 1925 C 196.175 5.432 2.33853 0
M  V30 1926 C 195.537 6.67855 2.23939 0
M  V30 1927 H 191.636 0.48024 0.617166 0
M  V30 1928 H 194.22 1.61727 1.08409 0
M  V30 1929 H 192.391 1.45963 3.59929 0
M  V30 1930 H 194.123 1.69541 3.67475 0
M  V30 1931 H 190.878 3.61762 3.05655 0
M  V30 1932 H 191.302 6.21287 2.68945 0
M  V30 1933 H 195.944 3.30998 2.63059 0
M  V30 1934 H 193.662 7.74926 2.29164 0
M  V30 1935 H 197.248 5.37328 2.23091 0
M  V30 1936 H 196.128 7.56511 2.06546 0
M  V30 1937 N 193.631 -1.12557 1.10312 0
M  V30 1938 C 194.878 -1.84038 0.844759 0
M  V30 1939 C 195.206 -1.84026 -0.629668 0
M  V30 1940 O 194.461 -1.28026 -1.48013 0
M  V30 1941 C 194.76 -3.31462 1.33669 0
M  V30 1942 C 194.426 -3.51647 2.82232 0
M  V30 1943 C 193.088 -3.56864 3.22802 0
M  V30 1944 C 195.44 -3.58867 3.77974 0
M  V30 1945 C 192.768 -3.66844 4.57867 0
M  V30 1946 C 195.12 -3.70375 5.1284 0
M  V30 1947 C 193.784 -3.73848 5.52986 0
M  V30 1948 H 193.054 -0.673444 0.309119 0
M  V30 1949 H 195.701 -1.32824 1.37949 0
M  V30 1950 H 194.006 -3.85091 0.721949 0
M  V30 1951 H 195.703 -3.85236 1.11329 0
M  V30 1952 H 192.293 -3.48249 2.49842 0
M  V30 1953 H 196.477 -3.54107 3.47738 0
M  V30 1954 H 191.733 -3.67804 4.88396 0
M  V30 1955 H 195.907 -3.74904 5.86873 0
M  V30 1956 H 193.534 -3.81333 6.57639 0
M  V30 1957 N 195.109 -0.891671 -1.2995 0
M  V30 1958 C 196.386 -0.433307 -1.9074 0
M  V30 1959 C 196.766 1.08646 -1.80995 0
M  V30 1960 O 196.114 1.92476 -1.23147 0
M  V30 1961 C 196.324 -0.938895 -3.36134 0
M  V30 1962 C 197.672 -0.977829 -4.13187 0
M  V30 1963 O 198.696 -0.886015 -3.45005 0
M  V30 1964 O 197.555 -1.11453 -5.35015 0
M  V30 1965 H 194.649 -0.133699 -0.816121 0
M  V30 1966 H 197.195 -0.981011 -1.38471 0
M  V30 1967 H 195.967 -1.98281 -3.37343 0
M  V30 1968 H 195.59 -0.37074 -3.95868 0
M  V30 1969 N 196.587 1.43421 -0.653314 0
M  V30 1970 C 197.998 1.85065 -0.246537 0
M  V30 1971 C 198.349 1.54688 1.2069 0
M  V30 1972 O 197.474 0.995896 1.92122 0
M  V30 1973 C 198.069 3.35922 -0.440666 0
M  V30 1974 C 196.628 3.76297 -0.0882064 0
M  V30 1975 C 195.775 2.67147 -0.743484 0
M  V30 1976 H 198.726 1.33572 -0.856979 0
M  V30 1977 H 198.747 3.79204 0.313798 0
M  V30 1978 H 198.259 3.58 -1.49858 0
M  V30 1979 H 196.36 3.5983 0.96711 0
M  V30 1980 H 196.473 4.76338 -0.513738 0
M  V30 1981 H 194.837 2.54086 -0.176712 0
M  V30 1982 H 195.62 2.92053 -1.80443 0
M  V30 1983 N 198.065 0.39524 1.52563 0
M  V30 1984 C 199.476 -0.0774719 1.86539 0
M  V30 1985 C 199.827 -1.45641 1.31466 0
M  V30 1986 O 198.952 -2.06459 0.648367 0
M  V30 1987 C 199.547 -0.147356 3.38479 0
M  V30 1988 C 198.106 -0.564373 3.72145 0
M  V30 1989 C 197.253 0.269919 2.75983 0
M  V30 1990 H 200.204 0.612876 1.46388 0
M  V30 1991 H 200.225 -0.965343 3.68051 0
M  V30 1992 H 199.737 0.856387 3.78534 0
M  V30 1993 H 197.838 -1.57527 3.37663 0
M  V30 1994 H 197.951 -0.318402 4.78041 0
M  V30 1995 H 196.315 -0.265696 2.5331 0
M  V30 1996 H 197.098 1.27175 3.18875 0
M  V30 1997 N 199.544 -1.57102 0.125237 0
M  V30 1998 C 200.474 -2.18659 -0.819174 0
M  V30 1999 C 201.455 -1.12843 -1.27281 0
M  V30 2000 O 202.64 -1.41104 -1.33429 0
M  V30 2001 C 199.77 -2.79096 -2.06695 0
M  V30 2002 C 198.724 -3.90548 -1.75088 0
M  V30 2003 C 198.05 -4.37821 -3.06948 0
M  V30 2004 C 199.35 -5.12356 -1.01435 0
M  V30 2005 H 201.044 -2.9783 -0.306202 0
M  V30 2006 H 198.59 -1.4326 -0.145839 0
M  V30 2007 H 200.543 -3.2082 -2.73226 0
M  V30 2008 H 199.267 -1.97223 -2.60328 0
M  V30 2009 H 197.926 -3.49409 -1.10944 0
M  V30 2010 H 197.574 -3.52799 -3.58527 0
M  V30 2011 H 197.274 -5.12982 -2.86571 0
M  V30 2012 H 198.798 -4.822 -3.74587 0
M  V30 2013 H 200.212 -5.5106 -1.58132 0
M  V30 2014 H 198.609 -5.9314 -0.911319 0
M  V30 2015 H 199.679 -4.849 -0.00218681 0
M  V30 2016 N 201.022 0.148545 -1.56898 0
M  V30 2017 C 202.247 0.880385 -1.87787 0
M  V30 2018 C 202.672 1.74018 -0.714093 0
M  V30 2019 O 202.03 1.78153 0.336343 0
M  V30 2020 C 202.078 1.71422 -3.17249 0
M  V30 2021 O 201.182 2.8183 -3.01074 0
M  V30 2022 H 200.523 0.245301 -0.617028 0
M  V30 2023 H 203.053 0.139826 -2.04122 0
M  V30 2024 H 203.063 2.10954 -3.49231 0
M  V30 2025 H 201.738 1.08284 -4.01556 0
M  V30 2026 H 200.315 2.45715 -2.80497 0
M  V30 2027 N 202.5 1.5196 0.417844 0
M  V30 2028 C 203.433 1.69387 1.52916 0
M  V30 2029 C 204.411 0.541419 1.53321 0
M  V30 2030 O 205.595 0.767695 1.72159 0
M  V30 2031 C 202.722 1.72525 2.91467 0
M  V30 2032 C 201.768 2.93967 3.09008 0
M  V30 2033 S 202.601 4.54461 2.83242 0
M  V30 2034 C 203.757 4.60372 4.24038 0
M  V30 2035 H 203.99 2.63382 1.37903 0
M  V30 2036 H 201.523 1.41889 0.608845 0
M  V30 2037 H 203.481 1.75018 3.7132 0
M  V30 2038 H 202.142 0.796733 3.03827 0
M  V30 2039 H 201.335 2.92619 4.10353 0
M  V30 2040 H 200.937 2.89316 2.37007 0
M  V30 2041 H 203.229 4.37213 5.17544 0
M  V30 2042 H 204.172 5.62273 4.30412 0
M  V30 2043 H 204.58 3.89492 4.08602 0
M  V30 2044 N 203.978 -0.674533 1.42435 0
M  V30 2045 C 205.394 -0.98769 1.25367 0
M  V30 2046 C 205.594 -2.00879 0.158044 0
M  V30 2047 O 204.65 -2.48075 -0.470633 0
M  V30 2048 C 205.963 -1.49224 2.6106 0
M  V30 2049 C 207.511 -1.61 2.68417 0
M  V30 2050 C 207.986 -2.14852 4.04478 0
M  V30 2051 N 209.477 -2.22185 4.06434 0
M  V30 2052 C 210.212 -2.64928 5.08528 0
M  V30 2053 N 209.708 -3.07121 6.21006 0
M  V30 2054 N 211.501 -2.64679 4.95885 0
M  V30 2055 H 203.652 0.00152503 2.124 0
M  V30 2056 H 205.915 -0.0618434 0.945981 0
M  V30 2057 H 205.621 -0.816453 3.42092 0
M  V30 2058 H 205.495 -2.47094 2.84999 0
M  V30 2059 H 207.882 -2.27686 1.87732 0
M  V30 2060 H 207.963 -0.616195 2.48267 0
M  V30 2061 H 207.607 -1.48775 4.85622 0
M  V30 2062 H 207.537 -3.15024 4.2198 0
M  V30 2063 H 210.028 -1.92435 3.25234 0
M  V30 2064 H 210.341 -3.38423 6.94759 0
M  V30 2065 H 208.686 -3.04978 6.24511 0
M  V30 2066 H 211.877 -2.31078 4.07088 0
M  V30 2067 H 212.05 -2.9767 5.75584 0
M  V30 2068 N 205.456 -1.28612 -0.910864 0
M  V30 2069 C 206.386 -1.15326 -2.03032 0
M  V30 2070 C 207.367 -0.0502924 -1.70026 0
M  V30 2071 O 208.552 -0.227797 -1.92859 0
M  V30 2072 C 205.682 -0.817343 -3.37545 0
M  V30 2073 C 204.636 -1.8754 -3.84724 0
M  V30 2074 C 203.962 -1.39305 -5.16235 0
M  V30 2075 C 205.262 -3.28244 -4.06267 0
M  V30 2076 H 206.956 -2.08975 -2.14406 0
M  V30 2077 H 204.502 -1.00612 -1.03021 0
M  V30 2078 H 206.455 -0.711151 -4.15356 0
M  V30 2079 H 205.179 0.154846 -3.26233 0
M  V30 2080 H 203.838 -1.97079 -3.09121 0
M  V30 2081 H 203.486 -0.409846 -5.01328 0
M  V30 2082 H 203.186 -2.10057 -5.48771 0
M  V30 2083 H 204.71 -1.30014 -5.96598 0
M  V30 2084 H 206.124 -3.21611 -4.74594 0
M  V30 2085 H 204.521 -3.96855 -4.5014 0
M  V30 2086 H 205.591 -3.72048 -3.10979 0
M  V30 2087 N 206.934 1.1197 -1.10907 0
M  V30 2088 C 208.35 1.35591 -0.841852 0
M  V30 2089 C 208.55 1.94233 0.536246 0
M  V30 2090 O 207.606 2.1717 1.28816 0
M  V30 2091 C 208.919 2.29284 -1.94549 0
M  V30 2092 C 210.467 2.42862 -1.97451 0
M  V30 2093 C 210.942 3.39873 -3.07002 0
M  V30 2094 N 212.433 3.47433 -3.06341 0
M  V30 2095 C 213.168 4.22421 -3.87748 0
M  V30 2096 N 212.664 5.00432 -4.79103 0
M  V30 2097 N 214.457 4.17876 -3.75946 0
M  V30 2098 H 206.608 0.722664 -1.99728 0
M  V30 2099 H 208.871 0.380635 -0.868229 0
M  V30 2100 H 208.577 1.93378 -2.93765 0
M  V30 2101 H 208.451 3.29452 -1.83688 0
M  V30 2102 H 210.838 2.78046 -0.988645 0
M  V30 2103 H 210.919 1.42566 -2.12388 0
M  V30 2104 H 210.563 3.05417 -4.05811 0
M  V30 2105 H 210.493 4.40011 -2.89306 0
M  V30 2106 H 212.984 2.91784 -2.40147 0
M  V30 2107 H 213.297 5.55002 -5.37766 0
M  V30 2108 H 211.642 4.99612 -4.83128 0
M  V30 2109 H 214.833 3.56016 -3.03924 0
M  V30 2110 H 215.006 4.76061 -4.39624 0
M  V30 2111 N 208.412 0.89855 1.29475 0
M  V30 2112 C 209.637 0.538561 2.00285 0
M  V30 2113 C 210.062 -0.869135 1.66816 0
M  V30 2114 O 209.42 -1.57831 0.892145 0
M  V30 2115 C 209.468 0.736475 3.52999 0
M  V30 2116 O 208.572 -0.211537 4.11857 0
M  V30 2117 H 207.913 0.210563 0.62973 0
M  V30 2118 H 210.443 1.20982 1.64998 0
M  V30 2119 H 210.453 0.640685 4.02938 0
M  V30 2120 H 209.128 1.76276 3.76696 0
M  V30 2121 H 207.705 -0.0682991 3.72837 0
M  V30 2122 N 209.89 -1.43072 0.660911 0
M  V30 2123 C 211.136 -2.0202 0.177708 0
M  V30 2124 C 211.469 -1.52066 -1.20787 0
M  V30 2125 O 210.744 -0.716987 -1.80802 0
M  V30 2126 C 211.027 -3.59561 0.197019 0
M  V30 2127 C 210.88 -4.19727 1.61706 0
M  V30 2128 C 212.199 -4.37664 -0.462396 0
M  V30 2129 H 209.318 -0.734034 0.0660494 0
M  V30 2130 H 211.96 -1.70272 0.843058 0
M  V30 2131 H 210.11 -3.86739 -0.369527 0
M  V30 2132 H 211.782 -4.03553 2.23479 0
M  V30 2133 H 210.025 -3.76084 2.16201 0
M  V30 2134 H 210.696 -5.28834 1.58237 0
M  V30 2135 H 213.172 -4.16095 0.0197215 0
M  V30 2136 H 212.048 -5.47305 -0.418188 0
M  V30 2137 H 212.309 -4.14493 -1.53778 0
M  V30 2138 N 211.368 -0.403325 -1.52352 0
M  V30 2139 C 212.278 0.432009 -2.30588 0
M  V30 2140 C 213.294 1.05884 -1.38075 0
M  V30 2141 O 214.47 1.06161 -1.71148 0
M  V30 2142 C 211.535 1.53669 -3.10784 0
M  V30 2143 C 210.596 0.933525 -4.19027 0
M  V30 2144 C 209.829 1.98557 -4.9539 0
M  V30 2145 O 210.052 3.20283 -4.71991 0
M  V30 2146 O 208.986 1.59504 -5.80381 0
M  V30 2147 H 212.812 -0.205739 -3.03002 0
M  V30 2148 H 210.397 -0.166675 -1.48467 0
M  V30 2149 H 212.279 2.17814 -3.60742 0
M  V30 2150 H 210.954 2.15915 -2.41169 0
M  V30 2151 H 209.861 0.254954 -3.7323 0
M  V30 2152 H 211.194 0.35508 -4.90918 0
M  V30 2153 N 212.846 1.57033 -0.133567 0
M  V30 2154 C 213.756 2.19632 0.824564 0
M  V30 2155 C 214.772 1.17666 1.28182 0
M  V30 2156 O 215.948 1.50193 1.3418 0
M  V30 2157 C 213.013 2.79499 2.05137 0
M  V30 2158 C 212.074 3.96548 1.64464 0
M  V30 2159 C 211.307 4.5355 2.81297 0
M  V30 2160 O 211.53 4.09438 3.97136 0
M  V30 2161 O 210.464 5.44018 2.57542 0
M  V30 2162 H 214.29 3.01991 0.321766 0
M  V30 2163 H 211.875 1.49112 0.0927889 0
M  V30 2164 H 213.757 3.17602 2.7696 0
M  V30 2165 H 212.432 2.00162 2.54395 0
M  V30 2166 H 211.339 3.63186 0.897048 0
M  V30 2167 H 212.672 4.77364 1.19934 0
M  V30 2168 N 214.325 -0.140222 1.56975 0
M  V30 2169 C 215.255 -1.17456 2.01808 0
M  V30 2170 C 216.236 -1.44415 0.898794 0
M  V30 2171 O 217.421 -1.5522 1.16707 0
M  V30 2172 C 214.551 -2.50607 2.40444 0
M  V30 2173 C 213.505 -2.38155 3.55621 0
M  V30 2174 C 212.831 -3.76078 3.80091 0
M  V30 2175 C 214.131 -1.85991 4.88062 0
M  V30 2176 H 215.825 -0.801743 2.88466 0
M  V30 2177 H 213.371 -0.38422 1.38779 0
M  V30 2178 H 215.324 -3.23197 2.7041 0
M  V30 2179 H 214.048 -2.89737 1.50732 0
M  V30 2180 H 212.707 -1.68016 3.25832 0
M  V30 2181 H 212.355 -4.12656 2.87618 0
M  V30 2182 H 212.055 -3.68606 4.57606 0
M  V30 2183 H 213.579 -4.50206 4.12488 0
M  V30 2184 H 214.993 -2.4838 5.16701 0
M  V30 2185 H 213.39 -1.89393 5.6943 0
M  V30 2186 H 214.46 -0.816023 4.77984 0
M  V30 2187 N 215.803 -1.52179 -0.40978 0
M  V30 2188 C 217.031 -1.70054 -1.17853 0
M  V30 2189 C 217.446 -0.409735 -1.843 0
M  V30 2190 O 216.803 0.614183 -1.71855 0
M  V30 2191 C 216.854 -2.83568 -2.24213 0
M  V30 2192 O 216.575 -4.0765 -1.60478 0
M  V30 2193 C 218.076 -3.12947 -3.13973 0
M  V30 2194 H 215.296 -0.569917 -0.354169 0
M  V30 2195 H 217.84 -1.98734 -0.482198 0
M  V30 2196 H 215.995 -2.57409 -2.89516 0
M  V30 2197 H 216.409 -4.70899 -2.30986 0
M  V30 2198 H 217.883 -3.95889 -3.84677 0
M  V30 2199 H 218.36 -2.26472 -3.76307 0
M  V30 2200 H 218.966 -3.40868 -2.5434 0
M  V30 2201 N 217.281 0.66697 -1.42791 0
M  V30 2202 C 218.213 1.7925 -1.42836 0
M  V30 2203 C 219.226 1.59496 -0.326333 0
M  V30 2204 O 220.415 1.6847 -0.589916 0
M  V30 2205 C 217.515 3.16476 -1.21229 0
M  V30 2206 C 216.688 3.63011 -2.44013 0
M  V30 2207 C 215.747 4.78993 -2.17834 0
M  V30 2208 O 214.773 4.89137 -2.91091 0
M  V30 2209 N 215.975 5.68248 -1.18635 0
M  V30 2210 H 218.74 1.79695 -2.39854 0
M  V30 2211 H 216.301 0.850338 -1.37771 0
M  V30 2212 H 218.293 3.91734 -1.01621 0
M  V30 2213 H 216.863 3.10884 -0.32706 0
M  V30 2214 H 216.083 2.78346 -2.79137 0
M  V30 2215 H 217.371 3.90845 -3.25757 0
M  V30 2216 H 216.769 5.62712 -0.580615 0
M  V30 2217 H 215.326 6.43285 -1.05013 0
M  V30 2218 N 218.759 1.29093 0.90403 0
M  V30 2219 C 220.006 1.16813 1.65411 0
M  V30 2220 C 220.334 -0.28128 1.92455 0
M  V30 2221 O 219.589 -1.22006 1.53013 0
M  V30 2222 C 219.888 1.92224 3.01305 0
M  V30 2223 C 219.554 3.41968 2.93885 0
M  V30 2224 C 218.216 3.82807 2.91569 0
M  V30 2225 C 220.568 4.37409 2.83413 0
M  V30 2226 C 217.896 5.1741 2.76594 0
M  V30 2227 C 220.248 5.72097 2.69977 0
M  V30 2228 C 218.912 6.12199 2.66024 0
M  V30 2229 H 218.182 0.42745 0.605283 0
M  V30 2230 H 220.829 1.59981 1.05254 0
M  V30 2231 H 219.134 1.41635 3.65304 0
M  V30 2232 H 220.831 1.80131 3.58265 0
M  V30 2233 H 217.421 3.09504 2.96488 0
M  V30 2234 H 221.605 4.06813 2.84283 0
M  V30 2235 H 216.861 5.47596 2.71935 0
M  V30 2236 H 221.035 6.45704 2.60844 0
M  V30 2237 H 218.662 7.16448 2.54178 0
M  V30 2238 N 220.237 -1.11381 1.11499 0
M  V30 2239 C 221.484 -1.83132 0.864231 0
M  V30 2240 C 221.812 -1.84683 -0.610114 0
M  V30 2241 O 221.067 -1.29589 -1.46646 0
M  V30 2242 C 221.366 -3.30026 1.37177 0
M  V30 2243 C 221.032 -3.48634 2.85946 0
M  V30 2244 C 219.694 -3.53421 3.26569 0
M  V30 2245 C 222.046 -3.54837 3.81759 0
M  V30 2246 C 219.374 -3.61967 4.61733 0
M  V30 2247 C 221.726 -3.64915 5.1674 0
M  V30 2248 C 220.39 -3.67962 5.5692 0
M  V30 2249 H 219.66 -0.670127 0.316245 0
M  V30 2250 H 222.307 -1.31354 1.3935 0
M  V30 2251 H 220.612 -3.84304 0.762753 0
M  V30 2252 H 222.309 -3.84034 1.15408 0
M  V30 2253 H 218.899 -3.45579 2.53521 0
M  V30 2254 H 223.083 -3.50399 3.51474 0
M  V30 2255 H 218.339 -3.62603 4.92269 0
M  V30 2256 H 222.513 -3.68658 5.90816 0
M  V30 2257 H 220.14 -3.74336 6.61647 0
M  V30 2258 N 221.715 -0.905404 -1.28997 0
M  V30 2259 C 222.645 -0.404212 -2.29975 0
M  V30 2260 C 223.626 0.523784 -1.61835 0
M  V30 2261 O 224.811 0.433298 -1.89304 0
M  V30 2262 C 221.941 0.364042 -3.45387 0
M  V30 2263 C 220.895 -0.474048 -4.25367 0
M  V30 2264 C 220.221 0.422045 -5.33032 0
M  V30 2265 C 221.521 -1.72696 -4.92923 0
M  V30 2266 H 223.215 -1.24807 -2.72146 0
M  V30 2267 H 220.761 -0.601585 -1.30832 0
M  V30 2268 H 222.714 0.725447 -4.15109 0
M  V30 2269 H 221.438 1.24174 -3.02074 0
M  V30 2270 H 220.097 -0.81786 -3.57361 0
M  V30 2271 H 219.745 1.29804 -4.85963 0
M  V30 2272 H 219.445 -0.135057 -5.87445 0
M  V30 2273 H 220.969 0.779517 -6.05604 0
M  V30 2274 H 222.383 -1.43495 -5.55051 0
M  V30 2275 H 220.78 -2.22582 -5.57295 0
M  V30 2276 H 221.85 -2.45964 -4.17887 0
M  V30 2277 N 223.193 1.4272 -0.668489 0
M  V30 2278 C 224.609 1.55992 -0.33745 0
M  V30 2279 C 224.809 1.64933 1.15756 0
M  V30 2280 O 223.865 1.61278 1.94282 0
M  V30 2281 C 225.178 2.81314 -1.06222 0
M  V30 2282 C 226.726 2.95078 -1.04394 0
M  V30 2283 C 227.201 4.23252 -1.74991 0
M  V30 2284 N 228.692 4.3015 -1.71829 0
M  V30 2285 C 229.427 5.28127 -2.23315 0
M  V30 2286 N 228.923 6.32293 -2.83156 0
M  V30 2287 N 230.716 5.19882 -2.13726 0
M  V30 2288 H 222.867 1.3516 -1.63846 0
M  V30 2289 H 225.13 0.650174 -0.689912 0
M  V30 2290 H 224.836 2.80823 -2.11734 0
M  V30 2291 H 224.71 3.72012 -0.62344 0
M  V30 2292 H 227.097 2.951 0.0028244 0
M  V30 2293 H 227.178 2.05627 -1.52155 0
M  V30 2294 H 226.822 4.2399 -2.79633 0
M  V30 2295 H 226.752 5.11626 -1.24685 0
M  V30 2296 H 229.243 3.55499 -1.28175 0
M  V30 2297 H 229.556 7.03398 -3.20079 0
M  V30 2298 H 227.901 6.32873 -2.87223 0
M  V30 2299 H 231.092 4.37423 -1.66669 0
M  V30 2300 H 231.265 5.96077 -2.54158 0
M  V30 2301 N 224.671 0.411399 1.52136 0
M  V30 2302 C 225.581 -0.419774 2.30814 0
M  V30 2303 C 226.597 -1.0515 1.38634 0
M  V30 2304 O 227.773 -1.05252 1.71709 0
M  V30 2305 C 224.838 -1.52019 3.11594 0
M  V30 2306 C 223.899 -0.91129 4.19516 0
M  V30 2307 C 223.132 -1.95927 4.96436 0
M  V30 2308 O 223.355 -3.17775 4.73683 0
M  V30 2309 O 222.289 -1.56423 5.81219 0
M  V30 2310 H 226.115 0.221805 3.02889 0
M  V30 2311 H 223.7 0.174547 1.48377 0
M  V30 2312 H 225.582 -2.15898 3.61892 0
M  V30 2313 H 224.257 -2.14633 2.42311 0
M  V30 2314 H 223.164 -0.235157 3.7336 0
M  V30 2315 H 224.497 -0.32904 4.91099 0
M  V30 2316 N 226.149 -1.5696 0.141893 0
M  V30 2317 C 227.398 -1.95135 -0.510427 0
M  V30 2318 C 227.711 -1.02896 -1.66348 0
M  V30 2319 O 228.917 -1.30629 -2.38009 0
M  V30 2320 C 227.373 -3.46876 -0.959427 0
M  V30 2321 C 226.981 -4.47691 0.166419 0
M  V30 2322 C 228.725 -3.93927 -1.58183 0
M  V30 2323 C 226.632 -5.90636 -0.300565 0
M  V30 2324 H 225.562 -0.728494 -0.194454 0
M  V30 2325 H 228.213 -1.8211 0.22542 0
M  V30 2326 H 226.595 -3.55215 -1.75038 0
M  V30 2327 H 227.769 -4.51043 0.94325 0
M  V30 2328 H 226.084 -4.10527 0.696905 0
M  V30 2329 H 228.681 -4.98158 -1.94275 0
M  V30 2330 H 229.024 -3.3519 -2.46888 0
M  V30 2331 H 229.557 -3.88484 -0.855863 0
M  V30 2332 H 226.296 -6.5318 0.550989 0
M  V30 2333 H 225.816 -5.90655 -1.04338 0
M  V30 2334 H 227.495 -6.42588 -0.754265 0
M  V30 2335 N 227.627 0.131896 -1.57047 0
M  V30 2336 C 228.559 1.1878 -1.9602 0
M  V30 2337 C 229.572 1.38363 -0.857875 0
M  V30 2338 O 230.761 1.37666 -1.13623 0
M  V30 2339 C 227.861 2.55008 -2.23213 0
M  V30 2340 C 227.034 2.56201 -3.54513 0
M  V30 2341 C 226.093 3.7408 -3.70069 0
M  V30 2342 O 225.119 3.58258 -4.42312 0
M  V30 2343 N 226.321 4.92137 -3.07866 0
M  V30 2344 H 229.086 0.85639 -2.87204 0
M  V30 2345 H 226.647 0.321309 -1.5868 0
M  V30 2346 H 228.639 3.32404 -2.30846 0
M  V30 2347 H 227.209 2.80382 -1.3822 0
M  V30 2348 H 226.429 1.64613 -3.58185 0
M  V30 2349 H 227.717 2.54043 -4.4084 0
M  V30 2350 H 227.115 5.07895 -2.49116 0
M  V30 2351 H 225.672 5.67254 -3.21039 0
M  V30 2352 N 229.106 1.52395 0.401703 0
M  V30 2353 C 230.336 1.70429 1.1678 0
M  V30 2354 C 230.744 0.416702 1.84554 0
M  V30 2355 O 230.087 -0.617697 1.73003 0
M  V30 2356 C 230.149 2.78919 2.26814 0
M  V30 2357 C 229.813 4.20437 1.79113 0
M  V30 2358 C 230.81 5.04028 1.27482 0
M  V30 2359 C 228.495 4.66704 1.85722 0
M  V30 2360 C 230.489 6.31961 0.830913 0
M  V30 2361 C 228.176 5.94625 1.40942 0
M  V30 2362 C 229.174 6.77082 0.897128 0
M  V30 2363 O 228.862 8.02607 0.455822 0
M  V30 2364 H 228.594 0.574272 0.356634 0
M  V30 2365 H 231.148 1.99767 0.477724 0
M  V30 2366 H 229.378 2.44973 2.99207 0
M  V30 2367 H 231.067 2.8548 2.88541 0
M  V30 2368 H 231.833 4.69471 1.21744 0
M  V30 2369 H 227.712 4.0262 2.24539 0
M  V30 2370 H 231.256 6.96271 0.430368 0
M  V30 2371 H 227.153 6.28688 1.46362 0
M  V30 2372 H 227.921 8.16453 0.578457 0
M  V30 2373 N 230.584 -0.659388 1.43143 0
M  V30 2374 C 231.832 -1.41654 1.44147 0
M  V30 2375 C 232.153 -1.94893 0.0645739 0
M  V30 2376 O 231.423 -1.74044 -0.899198 0
M  V30 2377 H 230.003 -0.525708 0.530697 0
M  V30 2378 H 232.665 -0.778097 1.78694 0
M  V30 2379 H 231.761 -2.26195 2.1504 0
M  V30 2380 N 232.062 -1.29571 -0.897171 0
M  V30 2381 C 233.311 -1.1706 -1.64256 0
M  V30 2382 C 233.624 0.276476 -1.93636 0
M  V30 2383 O 234.83 0.52294 -2.66416 0
M  V30 2384 C 233.286 -2.0475 -2.95982 0
M  V30 2385 C 232.894 -3.54295 -2.74187 0
M  V30 2386 C 234.638 -2.0097 -3.73914 0
M  V30 2387 C 232.545 -4.34081 -4.01656 0
M  V30 2388 H 231.475 -0.43452 -0.616205 0
M  V30 2389 H 234.126 -1.54229 -0.994268 0
M  V30 2390 H 232.508 -1.60452 -3.62038 0
M  V30 2391 H 233.682 -4.06662 -2.1671 0
M  V30 2392 H 231.997 -3.59773 -2.09648 0
M  V30 2393 H 234.594 -2.57838 -4.68427 0
M  V30 2394 H 234.937 -0.990273 -4.0435 0
M  V30 2395 H 235.47 -2.43325 -3.14703 0
M  V30 2396 H 232.209 -5.36671 -3.76384 0
M  V30 2397 H 231.729 -3.86483 -4.58684 0
M  V30 2398 H 233.408 -4.44877 -4.69781 0
M  V30 2399 N 233.54 1.10788 -1.12088 0
M  V30 2400 C 234.45 2.20599 -0.798338 0
M  V30 2401 C 235.466 1.72712 0.21135 0
M  V30 2402 O 236.642 2.01348 0.0458477 0
M  V30 2403 C 233.707 3.45771 -0.253674 0
M  V30 2404 C 232.768 4.08411 -1.32283 0
M  V30 2405 C 232.001 5.27608 -0.80406 0
M  V30 2406 O 232.224 5.69241 0.363478 0
M  V30 2407 O 231.158 5.8101 -1.57198 0
M  V30 2408 H 234.984 2.50614 -1.7154 0
M  V30 2409 H 232.569 1.19454 -0.897275 0
M  V30 2410 H 234.451 4.21376 0.0453691 0
M  V30 2411 H 233.126 3.1739 0.636005 0
M  V30 2412 H 232.033 3.34507 -1.67499 0
M  V30 2413 H 233.366 4.40986 -2.18614 0
M  V30 2414 N 235.018 0.912232 1.28515 0
M  V30 2415 C 236.295 0.463597 1.90027 0
M  V30 2416 C 236.675 -1.05753 1.82701 0
M  V30 2417 O 236.023 -1.90492 1.26194 0
M  V30 2418 C 236.233 0.992253 3.34597 0
M  V30 2419 C 237.581 1.04344 4.11579 0
M  V30 2420 O 238.605 0.94079 3.43551 0
M  V30 2421 O 237.464 1.1995 5.33174 0
M  V30 2422 H 234.558 0.146666 0.813891 0
M  V30 2423 H 237.104 1.00292 1.36893 0
M  V30 2424 H 235.876 2.03623 3.34146 0
M  V30 2425 H 235.499 0.433672 3.95228 0
M  V30 2426 N 236.496 -1.42363 0.676048 0
M  V30 2427 C 237.724 -2.05859 0.207268 0
M  V30 2428 C 238.139 -1.50796 -1.13605 0
M  V30 2429 O 237.496 -0.648265 -1.70598 0
M  V30 2430 C 237.547 -3.61248 0.134975 0
M  V30 2431 O 237.268 -4.1427 1.42521 0
M  V30 2432 C 238.769 -4.41859 -0.357151 0
M  V30 2433 H 235.989 -0.663431 0.100503 0
M  V30 2434 H 238.533 -1.82479 0.923136 0
M  V30 2435 H 236.688 -3.83735 -0.531588 0
M  V30 2436 H 237.102 -5.0815 1.29939 0
M  V30 2437 H 238.576 -5.50847 -0.356641 0
M  V30 2438 H 239.053 -4.16536 -1.39264 0
M  V30 2439 H 239.659 -4.24392 0.27772 0
M  V30 2440 N 237.974 -0.419461 -1.51915 0
M  V30 2441 C 239.222 0.152637 -2.01523 0
M  V30 2442 C 239.543 1.44762 -1.30649 0
M  V30 2443 O 238.813 1.90997 -0.435535 0
M  V30 2444 H 237.393 0.0593966 -0.744635 0
M  V30 2445 H 240.055 -0.558073 -1.86739 0
M  V30 2446 H 239.151 0.341369 -3.10227 0
M  V30 2447 N 239.452 1.56882 -0.150215 0
M  V30 2448 C 240.701 1.95403 0.500071 0
M  V30 2449 C 241.014 1.03777 1.658 0
M  V30 2450 O 242.22 1.31889 2.37313 0
M  V30 2451 C 240.676 3.4738 0.941018 0
M  V30 2452 C 240.284 4.47596 -0.190158 0
M  V30 2453 C 242.028 3.9476 1.56091 0
M  V30 2454 C 239.935 5.90787 0.269237 0
M  V30 2455 H 238.865 0.729515 0.190588 0
M  V30 2456 H 241.516 1.81988 -0.235074 0
M  V30 2457 H 239.898 3.56138 1.73152 0
M  V30 2458 H 241.072 4.50536 -0.967157 0
M  V30 2459 H 239.387 4.10151 -0.718666 0
M  V30 2460 H 241.984 4.99181 1.9163 0
M  V30 2461 H 242.327 3.36494 2.45107 0
M  V30 2462 H 242.86 3.88932 0.835249 0
M  V30 2463 H 239.599 6.52879 -0.585621 0
M  V30 2464 H 239.119 5.912 1.01204 0
M  V30 2465 H 240.798 6.42979 0.720176 0
M  V30 2466 N 240.93 -0.123565 1.57115 0
M  V30 2467 C 242.346 -0.476961 1.52306 0
M  V30 2468 C 242.546 -1.82109 0.86248 0
M  V30 2469 O 241.602 -2.48586 0.442884 0
M  V30 2470 C 242.915 -0.465661 2.97073 0
M  V30 2471 C 244.463 -0.549534 3.08138 0
M  V30 2472 C 244.938 -0.568669 4.54456 0
M  V30 2473 N 246.429 -0.630237 4.58892 0
M  V30 2474 C 247.164 -0.666415 5.69514 0
M  V30 2475 N 246.66 -0.660514 6.89644 0
M  V30 2476 N 248.453 -0.709077 5.5761 0
M  V30 2477 H 240.604 0.757198 1.98445 0
M  V30 2478 H 242.867 0.278808 0.906074 0
M  V30 2479 H 242.573 0.454232 3.48754 0
M  V30 2480 H 242.447 -1.29513 3.54269 0
M  V30 2481 H 244.834 -1.45985 2.56461 0
M  V30 2482 H 244.915 0.307532 2.53945 0
M  V30 2483 H 244.559 0.337581 5.06777 0
M  V30 2484 H 244.489 -1.44256 5.06456 0
M  V30 2485 H 246.98 -0.641146 3.72421 0
M  V30 2486 H 247.293 -0.690616 7.69708 0
M  V30 2487 H 245.638 -0.628012 6.92157 0
M  V30 2488 H 248.829 -0.711019 4.62668 0
M  V30 2489 H 249.002 -0.733804 6.43832 0
M  V30 2490 N 242.408 -1.52605 -0.393616 0
M  V30 2491 C 243.371 -1.76415 -1.46323 0
M  V30 2492 C 244.371 -0.634126 -1.47768 0
M  V30 2493 O 245.561 -0.902142 -1.4902 0
M  V30 2494 C 242.693 -1.8607 -2.85641 0
M  V30 2495 H 243.886 -2.71916 -1.26498 0
M  V30 2496 H 241.439 -1.43257 -0.625073 0
M  V30 2497 H 242.174 -0.925378 -3.10817 0
M  V30 2498 H 241.959 -2.68235 -2.85993 0
M  V30 2499 H 243.449 -2.06179 -3.63153 0
M  V30 2500 N 243.887 0.651787 -1.4349 0
M  V30 2501 C 245.135 1.40888 -1.44897 0
M  V30 2502 C 245.456 1.94856 -0.0749086 0
M  V30 2503 O 244.726 1.74518 0.889956 0
M  V30 2504 H 243.306 0.522887 -0.533478 0
M  V30 2505 H 245.968 0.768609 -1.79104 0
M  V30 2506 H 245.064 2.25052 -2.16236 0
M  V30 2507 N 245.365 1.30045 0.890287 0
M  V30 2508 C 246.614 1.17929 1.63633 0
M  V30 2509 C 246.927 -0.266204 1.9378 0
M  V30 2510 O 248.133 -0.508804 2.6669 0
M  V30 2511 C 246.589 2.06317 2.94892 0
M  V30 2512 C 246.197 3.55745 2.72305 0
M  V30 2513 C 247.941 2.0295 3.72843 0
M  V30 2514 C 245.848 4.36205 3.99348 0
M  V30 2515 H 244.778 0.437782 0.613892 0
M  V30 2516 H 247.429 1.54754 0.986075 0
M  V30 2517 H 245.811 1.6237 3.61182 0
M  V30 2518 H 246.985 4.07805 2.1455 0
M  V30 2519 H 245.3 3.6088 2.07737 0
M  V30 2520 H 247.897 2.60319 4.67053 0
M  V30 2521 H 248.24 1.0117 4.0382 0
M  V30 2522 H 248.773 2.4499 3.13408 0
M  V30 2523 H 245.512 5.38659 3.73533 0
M  V30 2524 H 245.032 3.8891 4.56628 0
M  V30 2525 H 246.711 4.47362 4.67415 0
M  V30 2526 N 246.843 -1.10192 1.12674 0
M  V30 2527 C 248.092 -1.81573 0.8783 0
M  V30 2528 C 248.405 -1.86249 -0.597557 0
M  V30 2529 O 249.611 -2.5386 -0.962681 0
M  V30 2530 C 248.067 -3.26149 1.52167 0
M  V30 2531 C 247.675 -3.29763 3.03249 0
M  V30 2532 C 249.419 -4.0234 1.3536 0
M  V30 2533 C 247.326 -4.68815 3.60508 0
M  V30 2534 H 246.256 -0.680394 0.324931 0
M  V30 2535 H 248.907 -1.23902 1.35353 0
M  V30 2536 H 247.289 -3.83832 0.974104 0
M  V30 2537 H 248.463 -2.8189 3.6452 0
M  V30 2538 H 246.778 -2.67059 3.19481 0
M  V30 2539 H 249.375 -5.05058 1.75559 0
M  V30 2540 H 249.718 -4.15235 0.297554 0
M  V30 2541 H 250.251 -3.51079 1.87052 0
M  V30 2542 H 246.99 -4.61121 4.65884 0
M  V30 2543 H 246.51 -5.17045 3.04014 0
M  V30 2544 H 248.189 -5.37785 3.59717 0
M  V30 2545 N 248.321 -0.919034 -1.28029 0
M  V30 2546 C 249.268 -0.410005 -2.27129 0
M  V30 2547 C 250.238 0.518405 -1.57803 0
M  V30 2548 O 251.423 0.439451 -1.8567 0
M  V30 2549 C 248.563 0.339054 -3.4343 0
M  V30 2550 C 247.676 -0.622468 -4.27492 0
M  V30 2551 C 246.811 0.145567 -5.31001 0
M  V30 2552 C 245.85 -0.809226 -6.06727 0
M  V30 2553 N 244.987 -0.0743728 -7.02061 0
M  V30 2554 H 249.827 -1.26011 -2.70047 0
M  V30 2555 H 247.364 -0.632663 -1.328 0
M  V30 2556 H 249.322 0.789586 -4.0966 0
M  V30 2557 H 247.952 1.15346 -3.01488 0
M  V30 2558 H 247.004 -1.19153 -3.61257 0
M  V30 2559 H 248.316 -1.35252 -4.80113 0
M  V30 2560 H 247.47 0.656417 -6.03139 0
M  V30 2561 H 246.209 0.908643 -4.79161 0
M  V30 2562 H 245.214 -1.3314 -5.33436 0
M  V30 2563 H 246.439 -1.57194 -6.60656 0
M  V30 2564 H 244.385 0.670616 -6.52563 0
M  V30 2565 H 244.302 -0.744157 -7.52329 0
M  V30 2566 H 245.57 0.416109 -7.78389 0
M  V30 2567 N 249.799 1.42003 -0.683588 0
M  V30 2568 C 251.045 2.01712 -0.209825 0
M  V30 2569 C 251.378 1.53968 1.18353 0
M  V30 2570 O 250.653 0.745661 1.79639 0
M  V30 2571 C 250.936 3.59202 -0.254197 0
M  V30 2572 C 250.789 4.17102 -1.68363 0
M  V30 2573 C 252.108 4.38344 0.392709 0
M  V30 2574 H 249.227 0.732891 -0.0777189 0
M  V30 2575 H 251.869 1.68909 -0.87004 0
M  V30 2576 H 250.019 3.87278 0.307954 0
M  V30 2577 H 251.691 3.99946 -2.29871 0
M  V30 2578 H 249.934 3.72597 -2.22157 0
M  V30 2579 H 250.605 5.26249 -1.6663 0
M  V30 2580 H 253.081 4.16011 -0.0859162 0
M  V30 2581 H 251.957 5.47901 0.331063 0
M  V30 2582 H 252.218 4.16887 1.47164 0
M  V30 2583 N 251.277 0.427512 1.51691 0
M  V30 2584 C 252.24 -0.377132 2.26076 0
M  V30 2585 C 253.24 -0.958089 1.29141 0
M  V30 2586 O 254.43 -0.83408 1.52934 0
M  V30 2587 C 251.562 -1.53262 3.04506 0
M  V30 2588 H 252.755 0.27464 2.9864 0
M  V30 2589 H 250.308 0.180445 1.55255 0
M  V30 2590 H 251.043 -2.22072 2.36335 0
M  V30 2591 H 250.828 -1.12232 3.75694 0
M  V30 2592 H 252.318 -2.10135 3.60878 0
M  V30 2593 N 252.755 -1.56801 0.158532 0
M  V30 2594 C 253.983 -2.00859 -0.496303 0
M  V30 2595 C 254.398 -1.03871 -1.57659 0
M  V30 2596 O 253.755 -0.0375165 -1.82461 0
M  V30 2597 C 253.806 -3.4479 -1.08638 0
M  V30 2598 O 253.527 -4.38072 -0.0492322 0
M  V30 2599 C 255.028 -4.04185 -1.8207 0
M  V30 2600 H 252.248 -0.65864 -0.128199 0
M  V30 2601 H 254.792 -2.02885 0.256506 0
M  V30 2602 H 252.947 -3.43579 -1.78975 0
M  V30 2603 H 253.361 -5.2227 -0.483102 0
M  V30 2604 H 254.835 -5.06857 -2.18633 0
M  V30 2605 H 255.312 -3.45549 -2.71095 0
M  V30 2606 H 255.918 -4.0906 -1.16405 0
M  V30 2607 N 254.233 0.115231 -1.57178 0
M  V30 2608 C 255.461 0.836437 -1.89239 0
M  V30 2609 C 255.876 1.73256 -0.750175 0
M  V30 2610 O 255.233 1.80357 0.278832 0
M  V30 2611 C 255.284 1.66671 -3.20785 0
M  V30 2612 O 255.005 0.806652 -4.3061 0
M  V30 2613 C 256.506 2.49274 -3.66575 0
M  V30 2614 H 253.726 0.240253 -0.626514 0
M  V30 2615 H 256.27 0.0984932 -2.04263 0
M  V30 2616 H 254.425 2.35737 -3.0742 0
M  V30 2617 H 254.839 1.37969 -5.06028 0
M  V30 2618 H 256.313 3.03055 -4.6137 0
M  V30 2619 H 256.79 3.26807 -2.93417 0
M  V30 2620 H 257.396 1.85443 -3.82741 0
M  V30 2621 N 255.711 1.52812 0.385517 0
M  V30 2622 C 256.959 1.67694 1.12797 0
M  V30 2623 C 257.28 0.421115 1.90399 0
M  V30 2624 O 256.55 -0.564551 1.87589 0
M  V30 2625 H 255.13 0.618155 0.419396 0
M  V30 2626 H 257.792 1.89938 0.436972 0
M  V30 2627 H 256.888 2.52896 1.82894 0
M  V30 2628 N 257.189 -0.644168 1.43834 0
M  V30 2629 C 258.136 -1.75671 1.49694 0
M  V30 2630 C 259.106 -1.6246 0.345809 0
M  V30 2631 O 260.291 -1.82573 0.554234 0
M  V30 2632 C 257.431 -3.13867 1.43463 0
M  V30 2633 C 256.544 -3.38147 2.6885 0
M  V30 2634 C 255.679 -4.66241 2.54544 0
M  V30 2635 C 254.718 -4.83657 3.75157 0
M  V30 2636 N 253.855 -6.03016 3.59605 0
M  V30 2637 H 258.695 -1.69998 2.44754 0
M  V30 2638 H 256.232 -0.829458 1.21484 0
M  V30 2639 H 258.19 -3.9377 1.37843 0
M  V30 2640 H 256.82 -3.18588 0.519783 0
M  V30 2641 H 255.872 -2.52276 2.84712 0
M  V30 2642 H 257.184 -3.46899 3.58417 0
M  V30 2643 H 256.338 -5.54285 2.46683 0
M  V30 2644 H 255.077 -4.59826 1.62516 0
M  V30 2645 H 254.082 -3.94046 3.83416 0
M  V30 2646 H 255.307 -4.91896 4.68204 0
M  V30 2647 H 253.253 -5.97715 2.7032 0
M  V30 2648 H 253.17 -6.12766 4.42779 0
M  V30 2649 H 254.438 -6.93657 3.55613 0
M  V30 2650 N 258.668 -1.30515 -0.883378 0
M  V30 2651 C 259.631 -1.1701 -1.97082 0
M  V30 2652 C 260.631 -0.10089 -1.60483 0
M  V30 2653 O 261.821 -0.349127 -1.70666 0
M  V30 2654 C 258.953 -0.793045 -3.31547 0
M  V30 2655 H 260.146 -2.13622 -2.10489 0
M  V30 2656 H 257.699 -1.13935 -1.06998 0
M  V30 2657 H 258.434 0.172499 -3.23841 0
M  V30 2658 H 258.219 -1.56576 -3.5948 0
M  V30 2659 H 259.709 -0.722073 -4.1131 0
M  V30 2660 N 260.146 1.09593 -1.13257 0
M  V30 2661 C 261.374 1.855 -0.916378 0
M  V30 2662 C 261.789 1.81069 0.534738 0
M  V30 2663 O 261.146 1.20562 1.37007 0
M  V30 2664 C 261.197 3.33546 -1.39388 0
M  V30 2665 O 260.918 3.37927 -2.78813 0
M  V30 2666 C 262.419 4.26299 -1.21588 0
M  V30 2667 H 259.639 0.585991 -0.326887 0
M  V30 2668 H 262.183 1.38488 -1.5047 0
M  V30 2669 H 260.338 3.77992 -0.848597 0
M  V30 2670 H 260.752 4.30254 -2.9997 0
M  V30 2671 H 262.226 5.28341 -1.59876 0
M  V30 2672 H 262.703 4.38918 -0.157376 0
M  V30 2673 H 263.309 3.87668 -1.7491 0
M  V30 2674 N 261.624 0.925811 1.2754 0
M  V30 2675 C 263.035 0.610102 1.7645 0
M  V30 2676 C 263.386 -0.874723 1.75622 0
M  V30 2677 O 262.511 -1.68444 1.35851 0
M  V30 2678 C 263.106 1.10073 3.20421 0
M  V30 2679 C 261.665 0.835723 3.67005 0
M  V30 2680 C 260.812 1.26054 2.46993 0
M  V30 2681 H 263.763 1.10579 1.13833 0
M  V30 2682 H 263.784 0.447557 3.77859 0
M  V30 2683 H 263.296 2.18143 3.20991 0
M  V30 2684 H 261.397 -0.231249 3.71882 0
M  V30 2685 H 261.51 1.45193 4.56569 0
M  V30 2686 H 259.874 0.679111 2.45479 0
M  V30 2687 H 260.657 2.34984 2.50275 0
M  V30 2688 N 263.102 -1.41638 0.69111 0
M  V30 2689 C 264.349 -2.01299 0.220193 0
M  V30 2690 C 264.677 -1.54715 -1.17871 0
M  V30 2691 O 263.932 -0.747193 -1.80874 0
M  V30 2692 C 264.231 -3.56714 0.221277 0
M  V30 2693 C 263.897 -4.22792 1.56709 0
M  V30 2694 C 262.559 -4.40557 1.93554 0
M  V30 2695 C 264.911 -4.59883 2.45268 0
M  V30 2696 C 262.239 -4.92688 3.18552 0
M  V30 2697 C 264.591 -5.13403 3.69595 0
M  V30 2698 C 263.255 -5.29379 4.06589 0
M  V30 2699 H 262.525 -0.736606 0.0805743 0
M  V30 2700 H 265.172 -1.69598 0.889319 0
M  V30 2701 H 263.477 -3.8818 -0.531391 0
M  V30 2702 H 265.174 -4.00678 -0.160547 0
M  V30 2703 H 261.764 -4.09336 1.2705 0
M  V30 2704 H 265.948 -4.45817 2.18084 0
M  V30 2705 H 261.204 -5.03242 3.47214 0
M  V30 2706 H 265.378 -5.41084 4.38407 0
M  V30 2707 H 263.005 -5.69537 5.03519 0
M  V30 2708 N 264.58 -0.43555 -1.51462 0
M  V30 2709 C 265.512 0.41257 -2.25456 0
M  V30 2710 C 266.525 0.987822 -1.29406 0
M  V30 2711 O 267.714 0.882266 -1.55172 0
M  V30 2712 C 264.814 1.58894 -2.99342 0
M  V30 2713 C 263.987 1.13288 -4.22474 0
M  V30 2714 C 263.046 2.17917 -4.78956 0
M  V30 2715 O 262.072 1.77425 -5.40841 0
M  V30 2716 N 263.274 3.50382 -4.62832 0
M  V30 2717 H 266.039 -0.221603 -2.9888 0
M  V30 2718 H 263.6 -0.264342 -1.59727 0
M  V30 2719 H 265.592 2.28508 -3.34015 0
M  V30 2720 H 264.162 2.12849 -2.28941 0
M  V30 2721 H 263.382 0.263881 -3.93316 0
M  V30 2722 H 264.67 0.805542 -5.02383 0
M  V30 2723 H 264.068 3.86013 -4.13534 0
M  V30 2724 H 262.625 4.15895 -5.01871 0
M  V30 2725 N 266.058 1.56714 -0.166846 0
M  V30 2726 C 266.968 2.21331 0.777791 0
M  V30 2727 C 267.984 1.20358 1.25658 0
M  V30 2728 O 269.16 1.53005 1.30964 0
M  V30 2729 C 266.225 2.83787 1.99163 0
M  V30 2730 C 265.286 3.99947 1.56016 0
M  V30 2731 C 264.519 4.59415 2.71613 0
M  V30 2732 O 264.742 4.17769 3.88362 0
M  V30 2733 O 263.676 5.49359 2.45945 0
M  V30 2734 H 267.502 3.02605 0.257636 0
M  V30 2735 H 265.087 1.49275 0.0611393 0
M  V30 2736 H 266.969 3.23405 2.70161 0
M  V30 2737 H 265.644 2.05513 2.50092 0
M  V30 2738 H 264.551 3.65007 0.819809 0
M  V30 2739 H 265.884 4.79801 1.09782 0
M  V30 2740 N 267.536 -0.106894 1.57237 0
M  V30 2741 C 268.466 -1.13148 2.04254 0
M  V30 2742 C 269.447 -1.42476 0.929224 0
M  V30 2743 O 270.632 -1.52709 1.19973 0
M  V30 2744 C 267.762 -2.4545 2.45706 0
M  V30 2745 C 266.716 -2.30558 3.60592 0
M  V30 2746 C 266.042 -3.67931 3.87983 0
M  V30 2747 C 267.342 -1.75597 4.91897 0
M  V30 2748 H 269.036 -0.740374 2.90101 0
M  V30 2749 H 266.582 -0.354696 1.39563 0
M  V30 2750 H 268.535 -3.17389 2.77205 0
M  V30 2751 H 267.259 -2.86475 1.56843 0
M  V30 2752 H 265.918 -1.61067 3.29322 0
M  V30 2753 H 265.566 -4.06462 2.96306 0
M  V30 2754 H 265.266 -3.58817 4.65322 0
M  V30 2755 H 266.79 -4.41356 4.21945 0
M  V30 2756 H 268.204 -2.37364 5.21854 0
M  V30 2757 H 266.601 -1.77272 5.73319 0
M  V30 2758 H 267.671 -0.714451 4.79608 0
M  V30 2759 N 269.014 -1.53014 -0.377408 0
M  V30 2760 C 270.26 -1.68872 -1.12294 0
M  V30 2761 C 270.593 -0.433224 -1.89306 0
M  V30 2762 O 269.868 0.569258 -1.85983 0
M  V30 2763 C 270.151 -2.93115 -2.09179 0
M  V30 2764 C 270.004 -4.28794 -1.35853 0
M  V30 2765 C 271.323 -3.12928 -3.09458 0
M  V30 2766 H 268.442 -0.614518 -0.406862 0
M  V30 2767 H 271.084 -1.85633 -0.40503 0
M  V30 2768 H 269.234 -2.78956 -2.70399 0
M  V30 2769 H 270.906 -4.54742 -0.775082 0
M  V30 2770 H 269.149 -4.28744 -0.660364 0
M  V30 2771 H 269.82 -5.11837 -2.06706 0
M  V30 2772 H 272.296 -3.26194 -2.58334 0
M  V30 2773 H 271.172 -4.01316 -3.74482 0
M  V30 2774 H 271.433 -2.27669 -3.78971 0
M  V30 2775 N 270.492 0.636531 -1.44174 0
M  V30 2776 C 271.422 1.76003 -1.53444 0
M  V30 2777 C 272.403 1.65619 -0.387841 0
M  V30 2778 O 273.588 1.84461 -0.607257 0
M  V30 2779 C 270.718 3.14511 -1.4731 0
M  V30 2780 C 269.672 3.39677 -2.60391 0
M  V30 2781 C 268.998 4.78159 -2.39308 0
M  V30 2782 C 270.298 3.32772 -4.02567 0
M  V30 2783 H 271.992 1.68501 -2.47483 0
M  V30 2784 H 269.538 0.809237 -1.19111 0
M  V30 2785 H 271.491 3.92878 -1.52397 0
M  V30 2786 H 270.215 3.22783 -0.49785 0
M  V30 2787 H 268.874 2.63688 -2.54684 0
M  V30 2788 H 268.522 4.83128 -1.39988 0
M  V30 2789 H 268.222 4.95956 -3.15122 0
M  V30 2790 H 269.746 5.58762 -2.46205 0
M  V30 2791 H 271.16 4.01051 -4.09672 0
M  V30 2792 H 269.557 3.62104 -4.7854 0
M  V30 2793 H 270.627 2.30669 -4.2652 0
M  V30 2794 N 271.97 1.30982 0.876444 0
M  V30 2795 C 272.917 1.18085 1.98304 0
M  V30 2796 C 273.887 0.0682263 1.6596 0
M  V30 2797 O 275.072 0.239937 1.89285 0
M  V30 2798 C 272.212 0.887475 3.33493 0
M  V30 2799 C 271.325 2.08281 3.78475 0
M  V30 2800 C 270.46 1.72678 5.0235 0
M  V30 2801 C 269.499 2.88657 5.39762 0
M  V30 2802 N 268.636 2.53292 6.54819 0
M  V30 2803 H 273.476 2.1275 2.08666 0
M  V30 2804 H 271.013 1.05839 1.02159 0
M  V30 2805 H 272.971 0.697961 4.1132 0
M  V30 2806 H 271.601 -0.022315 3.22792 0
M  V30 2807 H 270.653 2.3833 2.96484 0
M  V30 2808 H 271.965 2.95108 4.02135 0
M  V30 2809 H 271.119 1.50151 5.87826 0
M  V30 2810 H 269.858 0.830327 4.8058 0
M  V30 2811 H 268.863 3.1184 4.52809 0
M  V30 2812 H 270.088 3.79002 5.63502 0
M  V30 2813 H 268.034 1.66163 6.34607 0
M  V30 2814 H 267.951 3.3365 6.7839 0
M  V30 2815 H 269.219 2.34143 7.43503 0
M  V30 2816 N 273.449 -1.08991 1.13837 0
M  V30 2817 C 274.412 -2.13925 0.822715 0
M  V30 2818 C 275.412 -1.599 -0.1699 0
M  V30 2819 O 276.602 -1.74104 0.0577251 0
M  V30 2820 C 273.734 -3.40155 0.225318 0
M  V30 2821 H 274.927 -2.43358 1.75262 0
M  V30 2822 H 272.48 -1.24603 0.943594 0
M  V30 2823 H 273.215 -3.16352 -0.713594 0
M  V30 2824 H 273 -3.80661 0.940193 0
M  V30 2825 H 274.49 -4.17594 0.0214784 0
M  V30 2826 N 274.927 -0.932562 -1.27047 0
M  V30 2827 C 275.89 -0.440064 -2.24936 0
M  V30 2828 C 276.89 0.444071 -1.54547 0
M  V30 2829 O 278.08 0.244465 -1.72476 0
M  V30 2830 C 275.212 0.36678 -3.38921 0
M  V30 2831 H 276.405 -1.305 -2.70018 0
M  V30 2832 H 273.958 -0.713707 -1.39054 0
M  V30 2833 H 274.693 1.25033 -2.99228 0
M  V30 2834 H 274.478 -0.267204 -3.91188 0
M  V30 2835 H 275.968 0.701567 -4.11665 0
M  V30 2836 N 276.405 1.4127 -0.698611 0
M  V30 2837 C 277.368 2.29158 -0.044132 0
M  V30 2838 C 278.368 1.44529 0.704841 0
M  V30 2839 O 279.558 1.65643 0.539276 0
M  V30 2840 C 276.69 3.27459 0.947809 0
M  V30 2841 H 277.883 2.88529 -0.817994 0
M  V30 2842 H 275.436 1.49307 -0.46228 0
M  V30 2843 H 276.171 2.73073 1.74933 0
M  V30 2844 H 275.956 3.8991 0.41385 0
M  V30 2845 H 277.446 3.93311 1.40344 0
M  V30 2846 N 277.883 0.443576 1.51229 0
M  V30 2847 C 279.299 0.0962001 1.5931 0
M  V30 2848 C 279.499 -1.39501 1.45402 0
M  V30 2849 O 278.555 -2.16557 1.29843 0
M  V30 2850 C 279.868 0.621875 2.94199 0
M  V30 2851 C 281.416 0.582865 3.07525 0
M  V30 2852 C 281.891 1.08562 4.44948 0
M  V30 2853 N 283.382 1.04387 4.51284 0
M  V30 2854 C 284.117 1.40368 5.55954 0
M  V30 2855 N 283.613 1.83664 6.68011 0
M  V30 2856 N 285.406 1.32145 5.46346 0
M  V30 2857 H 277.557 1.41376 1.58514 0
M  V30 2858 H 279.82 0.582965 0.747567 0
M  V30 2859 H 279.526 1.66546 3.09767 0
M  V30 2860 H 279.4 0.0502125 3.77167 0
M  V30 2861 H 281.787 -0.451749 2.91622 0
M  V30 2862 H 281.868 1.191 2.26382 0
M  V30 2863 H 281.512 2.11873 4.61598 0
M  V30 2864 H 281.442 0.453956 5.2464 0
M  V30 2865 H 283.933 0.725986 3.70861 0
M  V30 2866 H 284.246 2.0934 7.43906 0
M  V30 2867 H 282.591 1.87596 6.69203 0
M  V30 2868 H 285.782 0.981808 4.57688 0
M  V30 2869 H 285.955 1.60514 6.27805 0
M  V30 2870 N 279.361 -1.56624 0.175154 0
M  V30 2871 C 280.324 -2.16934 -0.739738 0
M  V30 2872 C 281.324 -1.11842 -1.15533 0
M  V30 2873 O 282.514 -1.37335 -1.07167 0
M  V30 2874 C 279.646 -2.75531 -2.00738 0
M  V30 2875 H 280.839 -2.99131 -0.214639 0
M  V30 2876 H 278.392 -1.56123 -0.0744197 0
M  V30 2877 H 279.127 -1.97078 -2.57548 0
M  V30 2878 H 278.912 -3.52444 -1.71831 0
M  V30 2879 H 280.402 -3.21904 -2.66021 0
M  V30 2880 N 280.839 0.0985539 -1.57292 0
M  V30 2881 C 282.064 0.820196 -1.90493 0
M  V30 2882 C 282.489 1.71658 -0.769094 0
M  V30 2883 O 281.847 1.79133 0.279495 0
M  V30 2884 C 281.895 1.61242 -3.22542 0
M  V30 2885 O 280.999 2.72108 -3.09888 0
M  V30 2886 H 280.34 0.225547 -0.62452 0
M  V30 2887 H 282.87 0.0748159 -2.04463 0
M  V30 2888 H 282.88 1.99737 -3.55766 0
M  V30 2889 H 281.555 0.954535 -4.04798 0
M  V30 2890 H 280.132 2.36667 -2.88172 0
M  V30 2891 N 282.317 1.53212 0.369288 0
M  V30 2892 C 283.247 1.82365 1.45826 0
M  V30 2893 C 284.228 0.676907 1.56051 0
M  V30 2894 O 285.413 0.926401 1.70679 0
M  V30 2895 C 282.543 2.01023 2.83208 0
M  V30 2896 C 281.497 3.1678 2.8781 0
M  V30 2897 C 280.823 3.20724 4.27832 0
M  V30 2898 C 282.123 4.55447 2.55667 0
M  V30 2899 H 283.817 2.73559 1.21678 0
M  V30 2900 H 281.363 1.3163 0.583911 0
M  V30 2901 H 283.316 2.20001 3.59413 0
M  V30 2902 H 282.04 1.06536 3.08736 0
M  V30 2903 H 280.699 2.97616 2.14056 0
M  V30 2904 H 280.347 2.23882 4.50429 0
M  V30 2905 H 280.047 3.98496 4.31827 0
M  V30 2906 H 281.571 3.41881 5.05915 0
M  V30 2907 H 282.985 4.74611 3.21586 0
M  V30 2908 H 281.382 5.35432 2.70984 0
M  V30 2909 H 282.452 4.60812 1.5093 0
M  V30 2910 N 283.795 -0.628877 1.44509 0
M  V30 2911 C 284.758 -1.72263 1.51188 0
M  V30 2912 C 285.758 -1.55907 0.39367 0
M  V30 2913 O 286.948 -1.61361 0.656377 0
M  V30 2914 C 284.08 -3.11365 1.38798 0
M  V30 2915 H 285.273 -1.67714 2.4862 0
M  V30 2916 H 282.826 -0.842737 1.31634 0
M  V30 2917 H 283.561 -3.21507 0.424693 0
M  V30 2918 H 283.346 -3.24644 2.19884 0
M  V30 2919 H 284.836 -3.91075 1.46458 0
M  V30 2920 N 285.273 -1.31445 -0.869486 0
M  V30 2921 C 286.501 -1.24122 -1.65534 0
M  V30 2922 C 286.916 0.193387 -1.87807 0
M  V30 2923 O 286.273 1.12557 -1.43656 0
M  V30 2924 C 286.324 -1.98229 -3.02304 0
M  V30 2925 O 286.045 -3.3609 -2.81026 0
M  V30 2926 C 287.546 -1.97751 -3.96749 0
M  V30 2927 H 284.766 -0.428868 -0.516055 0
M  V30 2928 H 287.31 -1.73328 -1.08525 0
M  V30 2929 H 285.465 -1.52782 -3.56001 0
M  V30 2930 H 285.879 -3.7383 -3.67902 0
M  V30 2931 H 287.353 -2.54114 -4.90031 0
M  V30 2932 H 287.83 -0.960137 -4.28577 0
M  V30 2933 H 288.436 -2.43079 -3.48988 0
M  V30 2934 N 286.751 1.08385 -1.14413 0
M  V30 2935 C 287.999 1.80419 -0.910679 0
M  V30 2936 C 288.32 1.86658 0.564243 0
M  V30 2937 O 287.59 1.35985 1.41014 0
M  V30 2938 H 286.17 0.668204 -0.333934 0
M  V30 2939 H 288.832 1.31037 -1.44275 0
M  V30 2940 H 287.928 2.83238 -1.31082 0
M  V30 2941 N 288.23 0.939286 1.26551 0
M  V30 2942 C 289.476 0.586715 1.94128 0
M  V30 2943 C 289.809 -0.8717 1.73537 0
M  V30 2944 O 289.084 -1.62339 1.07127 0
M  V30 2945 C 289.367 0.927497 3.4795 0
M  V30 2946 C 289.22 2.44052 3.77834 0
M  V30 2947 C 290.539 0.441569 4.37879 0
M  V30 2948 H 287.658 0.21463 0.705055 0
M  V30 2949 H 290.3 1.17316 1.49455 0
M  V30 2950 H 288.45 0.428431 3.8613 0
M  V30 2951 H 290.122 3.01216 3.4938 0
M  V30 2952 H 288.365 2.8848 3.23978 0
M  V30 2953 H 289.036 2.62947 4.85348 0
M  V30 2954 H 291.512 0.869448 4.06915 0
M  V30 2955 H 290.388 0.708856 5.44304 0
M  V30 2956 H 290.649 -0.658467 4.37169 0
M  V30 2957 N 289.708 -1.40897 0.706093 0
M  V30 2958 C 291.119 -1.84023 0.315052 0
M  V30 2959 C 291.47 -1.5906 -1.14866 0
M  V30 2960 O 290.595 -1.06651 -1.88293 0
M  V30 2961 C 291.19 -3.34055 0.565038 0
M  V30 2962 C 289.749 -3.7571 0.227806 0
M  V30 2963 C 288.896 -2.64204 0.842122 0
M  V30 2964 H 291.847 -1.303 0.905963 0
M  V30 2965 H 291.868 -3.80107 -0.172843 0
M  V30 2966 H 291.38 -3.52192 1.63042 0
M  V30 2967 H 289.481 -3.63172 -0.832895 0
M  V30 2968 H 289.594 -4.74103 0.690174 0
M  V30 2969 H 287.958 -2.53255 0.270893 0
M  V30 2970 H 288.741 -2.85155 1.91158 0
M  V30 2971 N 291.186 -0.45159 -1.50991 0
M  V30 2972 C 292.432 0.110237 -2.025 0
M  V30 2973 C 292.765 1.41109 -1.33424 0
M  V30 2974 O 292.04 1.89135 -0.453659 0
M  V30 2975 C 292.323 0.314271 -3.58726 0
M  V30 2976 C 292.176 -1.00623 -4.38401 0
M  V30 2977 C 293.495 1.07767 -4.26702 0
M  V30 2978 H 290.614 0.0385897 -0.735989 0
M  V30 2979 H 293.256 -0.593374 -1.80497 0
M  V30 2980 H 291.406 0.913601 -3.77605 0
M  V30 2981 H 293.078 -1.64064 -4.31139 0
M  V30 2982 H 291.321 -1.6075 -4.02917 0
M  V30 2983 H 291.992 -0.817341 -5.45915 0
M  V30 2984 H 294.468 0.56986 -4.12179 0
M  V30 2985 H 293.344 1.18921 -5.35863 0
M  V30 2986 H 293.605 2.10939 -3.88532 0
M  V30 2987 N 292.664 1.56529 -0.183458 0
M  V30 2988 C 293.892 2.01623 0.464285 0
M  V30 2989 C 294.307 1.06366 1.55986 0
M  V30 2990 O 293.664 0.0665398 1.82379 0
M  V30 2991 C 293.715 3.46475 1.03139 0
M  V30 2992 O 293.436 4.38095 -0.0204675 0
M  V30 2993 C 294.937 4.0703 1.75617 0
M  V30 2994 H 292.157 0.660596 0.117704 0
M  V30 2995 H 294.701 2.02451 -0.288751 0
M  V30 2996 H 292.856 3.46383 1.73486 0
M  V30 2997 H 293.27 5.22973 0.399952 0
M  V30 2998 H 294.744 5.10271 2.10542 0
M  V30 2999 H 295.221 3.49819 2.65563 0
M  V30 3000 H 295.827 4.1086 1.09882 0
M  V30 3001 N 294.142 -0.090211 1.57342 0
M  V30 3002 C 295.37 -0.806224 1.90546 0
M  V30 3003 C 295.785 -1.72041 0.777644 0
M  V30 3004 O 295.142 -1.80778 -0.250103 0
M  V30 3005 C 295.193 -1.61546 3.23396 0
M  V30 3006 O 294.914 -0.738043 4.31839 0
M  V30 3007 C 296.415 -2.4341 3.70495 0
M  V30 3008 H 293.635 -0.230256 0.630257 0
M  V30 3009 H 296.179 -0.0659843 2.04394 0
M  V30 3010 H 294.334 -2.30816 3.11131 0
M  V30 3011 H 294.748 -1.29901 5.08159 0
M  V30 3012 H 296.222 -2.95676 4.66133 0
M  V30 3013 H 296.699 -3.22098 2.98579 0
M  V30 3014 H 297.305 -1.79331 3.85643 0
M  V30 3015 N 295.62 -1.53406 -0.361157 0
M  V30 3016 C 296.57 -1.76536 -1.44287 0
M  V30 3017 C 297.554 -0.620019 -1.48474 0
M  V30 3018 O 298.746 -0.878834 -1.53641 0
M  V30 3019 C 295.875 -1.96266 -2.81664 0
M  V30 3020 C 294.961 -3.16815 -2.81938 0
M  V30 3021 N 295.352 -4.38637 -2.51855 0
M  V30 3022 C 293.65 -3.17627 -3.13096 0
M  V30 3023 C 294.351 -5.20401 -2.59919 0
M  V30 3024 N 293.327 -4.56712 -2.94814 0
M  V30 3025 H 297.129 -2.68331 -1.19899 0
M  V30 3026 H 294.643 -1.52091 -0.56938 0
M  V30 3027 H 296.64 -2.10966 -3.59582 0
M  V30 3028 H 295.3 -1.05702 -3.07013 0
M  V30 3029 H 296.311 -4.66293 -2.25369 0
M  V30 3030 H 292.988 -2.36971 -3.43731 0
M  V30 3031 H 294.378 -6.27586 -2.39969 0
M  V30 3032 N 297.098 0.621204 -1.44841 0
M  V30 3033 C 298.326 1.40752 -1.51646 0
M  V30 3034 C 298.741 1.88246 -0.144549 0
M  V30 3035 O 298.098 1.61422 0.851416 0
M  V30 3036 C 298.149 2.62119 -2.4895 0
M  V30 3037 O 297.87 2.16602 -3.80808 0
M  V30 3038 C 299.371 3.55135 -2.65319 0
M  V30 3039 H 296.591 0.431325 -0.514004 0
M  V30 3040 H 299.135 0.758835 -1.899 0
M  V30 3041 H 297.29 3.23058 -2.13805 0
M  V30 3042 H 297.704 2.95358 -4.33433 0
M  V30 3043 H 299.178 4.36874 -3.37409 0
M  V30 3044 H 299.655 4.04592 -1.70886 0
M  V30 3045 H 300.261 3.00058 -3.01405 0
M  V30 3046 N 298.576 1.31904 0.862503 0
M  V30 3047 C 299.539 1.20131 1.95195 0
M  V30 3048 C 300.539 0.126409 1.60302 0
M  V30 3049 O 301.729 0.376234 1.70089 0
M  V30 3050 C 298.861 0.845691 3.30244 0
M  V30 3051 H 300.054 2.16943 2.07064 0
M  V30 3052 H 297.607 1.15622 1.05172 0
M  V30 3053 H 298.342 -0.120957 3.24074 0
M  V30 3054 H 298.127 1.62276 3.56944 0
M  V30 3055 H 299.617 0.787418 4.10109 0
M  V30 3056 N 300.054 -1.07777 1.14986 0
M  V30 3057 C 301.017 -2.13041 0.845358 0
M  V30 3058 C 302.017 -1.60071 -0.152931 0
M  V30 3059 O 303.207 -1.74033 0.0761879 0
M  V30 3060 C 300.339 -3.39896 0.261383 0
M  V30 3061 H 301.532 -2.41485 1.77834 0
M  V30 3062 H 299.085 -1.23595 0.956757 0
M  V30 3063 H 299.82 -3.17091 -0.68 0
M  V30 3064 H 299.605 -3.79642 0.980514 0
M  V30 3065 H 301.095 -4.17548 0.0657687 0
M  V30 3066 N 301.532 -0.945985 -1.26051 0
M  V30 3067 C 302.757 -0.612525 -1.98149 0
M  V30 3068 C 303.182 0.806623 -1.69927 0
M  V30 3069 O 302.54 1.54411 -0.950108 0
M  V30 3070 C 302.588 -0.866981 -3.50023 0
M  V30 3071 O 301.692 0.0585333 -4.12358 0
M  V30 3072 H 301.033 -0.23379 -0.621481 0
M  V30 3073 H 303.563 -1.27023 -1.60395 0
M  V30 3074 H 303.573 -0.789792 -4.00283 0
M  V30 3075 H 302.248 -1.90135 -3.69894 0
M  V30 3076 H 300.825 -0.0701241 -3.72834 0
M  V30 3077 N 303.011 1.40521 -0.713556 0
M  V30 3078 C 303.943 2.29191 -0.0203126 0
M  V30 3079 C 304.956 1.45723 0.725864 0
M  V30 3080 O 306.145 1.69033 0.573581 0
M  V30 3081 C 303.245 3.2395 0.995486 0
M  V30 3082 C 302.418 4.36262 0.315256 0
M  V30 3083 C 301.477 5.11474 1.23616 0
M  V30 3084 O 300.503 5.64606 0.721719 0
M  V30 3085 N 301.705 5.20638 2.56743 0
M  V30 3086 H 304.47 2.89327 -0.781652 0
M  V30 3087 H 302.031 1.51869 -0.561022 0
M  V30 3088 H 304.023 3.71137 1.61368 0
M  V30 3089 H 302.593 2.64995 1.6582 0
M  V30 3090 H 301.813 3.91228 -0.483106 0
M  V30 3091 H 303.101 5.08558 -0.157004 0
M  V30 3092 H 302.499 4.7895 3.01037 0
M  V30 3093 H 301.056 5.71339 3.13712 0
M  V30 3094 N 304.489 0.459591 1.5075 0
M  V30 3095 C 305.905 0.113092 1.59199 0
M  V30 3096 C 306.105 -1.37951 1.46874 0
M  V30 3097 O 305.161 -2.15168 1.32132 0
M  V30 3098 C 306.474 0.653043 2.93523 0
M  V30 3099 C 308.022 0.615449 3.0689 0
M  V30 3100 C 308.497 1.13275 4.43771 0
M  V30 3101 N 309.988 1.09167 4.50152 0
M  V30 3102 C 310.723 1.46256 5.54434 0
M  V30 3103 N 310.219 1.90739 6.66026 0
M  V30 3104 N 312.012 1.37932 5.44914 0
M  V30 3105 H 304.163 1.43049 1.57005 0
M  V30 3106 H 306.426 0.590861 0.741341 0
M  V30 3107 H 306.132 1.69822 3.07983 0
M  V30 3108 H 306.006 0.0902132 3.77092 0
M  V30 3109 H 308.393 -0.420793 2.92084 0
M  V30 3110 H 308.474 1.21495 2.25106 0
M  V30 3111 H 308.118 2.16757 4.59324 0
M  V30 3112 H 308.048 0.509576 5.24129 0
M  V30 3113 H 310.539 0.76528 3.7007 0
M  V30 3114 H 310.852 2.17218 7.41644 0
M  V30 3115 H 309.197 1.94683 6.67176 0
M  V30 3116 H 312.388 1.0303 4.56621 0
M  V30 3117 H 312.561 1.67164 6.26067 0
M  V30 3118 N 305.967 -1.56429 0.191757 0
M  V30 3119 C 307.244 -1.89224 -0.495332 0
M  V30 3120 C 307.624 -1.10478 -1.79883 0
M  V30 3121 O 306.972 -0.204852 -2.2758 0
M  V30 3122 C 307.182 -3.41548 -0.717367 0
M  V30 3123 C 308.53 -4.11711 -1.03823 0
M  V30 3124 O 309.554 -3.4698 -0.805204 0
M  V30 3125 O 308.413 -5.2611 -1.47887 0
M  V30 3126 H 305.507 -0.785788 -0.25781 0
M  V30 3127 H 308.053 -1.68111 0.231721 0
M  V30 3128 H 306.825 -3.90772 0.203287 0
M  V30 3129 H 306.448 -3.68342 -1.497 0
M  V30 3130 N 307.445 0.0818655 -1.57387 0
M  V30 3131 C 308.693 0.781368 -1.86384 0
M  V30 3132 C 309.014 1.78618 -0.782342 0
M  V30 3133 O 308.284 1.94976 0.190061 0
M  V30 3134 H 306.864 0.291562 -0.687751 0
M  V30 3135 H 309.526 0.060348 -1.94807 0
M  V30 3136 H 308.622 1.3038 -2.83562 0
M  V30 3137 N 308.923 1.53595 0.353017 0
M  V30 3138 C 309.833 1.83897 1.45667 0
M  V30 3139 C 310.849 0.728334 1.58023 0
M  V30 3140 O 312.025 1.01968 1.73679 0
M  V30 3141 C 309.09 2.03383 2.80778 0
M  V30 3142 C 308.151 3.27262 2.77845 0
M  V30 3143 C 307.384 3.45809 4.06512 0
M  V30 3144 O 307.607 2.68387 5.03314 0
M  V30 3145 O 306.541 4.39207 4.11559 0
M  V30 3146 H 310.367 2.77686 1.2298 0
M  V30 3147 H 307.952 1.39132 0.544308 0
M  V30 3148 H 309.834 2.17698 3.60812 0
M  V30 3149 H 308.509 1.12783 3.03417 0
M  V30 3150 H 307.416 3.18359 1.96465 0
M  V30 3151 H 308.749 4.17824 2.60161 0
M  V30 3152 N 310.401 -0.613514 1.45168 0
M  V30 3153 C 311.333 -1.73825 1.4939 0
M  V30 3154 C 312.346 -1.58175 0.385304 0
M  V30 3155 O 313.535 -1.66165 0.652036 0
M  V30 3156 C 310.635 -3.11758 1.32891 0
M  V30 3157 C 309.808 -3.53704 2.57317 0
M  V30 3158 C 308.867 -4.70579 2.35462 0
M  V30 3159 O 307.893 -4.77996 3.09044 0
M  V30 3160 N 309.095 -5.63454 1.39644 0
M  V30 3161 H 311.86 -1.70669 2.46358 0
M  V30 3162 H 309.421 -0.79862 1.40832 0
M  V30 3163 H 311.413 -3.87692 1.1609 0
M  V30 3164 H 309.983 -3.09456 0.442218 0
M  V30 3165 H 309.203 -2.67794 2.89275 0
M  V30 3166 H 310.491 -3.78486 3.40038 0
M  V30 3167 H 309.889 -5.6017 0.789062 0
M  V30 3168 H 308.446 -6.38944 1.28816 0
M  V30 3169 N 311.879 -1.3236 -0.855495 0
M  V30 3170 C 312.811 -1.17052 -1.97057 0
M  V30 3171 C 313.824 -0.10574 -1.62456 0
M  V30 3172 O 315.013 -0.354619 -1.74942 0
M  V30 3173 C 312.113 -0.769305 -3.30053 0
M  V30 3174 C 311.286 -1.9222 -3.929 0
M  V30 3175 C 310.345 -1.50466 -5.04228 0
M  V30 3176 O 309.371 -2.21655 -5.24269 0
M  V30 3177 N 310.573 -0.400209 -5.79119 0
M  V30 3178 H 313.338 -2.13103 -2.1073 0
M  V30 3179 H 310.899 -1.24885 -1.0303 0
M  V30 3180 H 312.891 -0.472407 -4.01933 0
M  V30 3181 H 311.461 0.100025 -3.1244 0
M  V30 3182 H 310.681 -2.38563 -3.13817 0
M  V30 3183 H 311.969 -2.69403 -4.31624 0
M  V30 3184 H 311.367 0.192319 -5.65373 0
M  V30 3185 H 309.924 -0.162912 -6.51596 0
M  V30 3186 N 313.357 1.07166 -1.15556 0
M  V30 3187 C 314.32 2.12589 -0.856644 0
M  V30 3188 C 315.32 1.6015 0.14444 0
M  V30 3189 O 316.51 1.7399 -0.0854163 0
M  V30 3190 C 313.642 3.39753 -0.279405 0
M  V30 3191 H 314.835 2.40539 -1.79112 0
M  V30 3192 H 312.388 1.23086 -0.963298 0
M  V30 3193 H 313.123 3.17447 0.663174 0
M  V30 3194 H 312.908 3.79117 -1.00063 0
M  V30 3195 H 314.398 4.17507 -0.0879113 0
M  V30 3196 N 314.835 0.952656 1.25548 0
M  V30 3197 C 315.798 0.475794 2.24207 0
M  V30 3198 C 316.798 -0.419428 1.55234 0
M  V30 3199 O 317.988 -0.216994 1.72843 0
M  V30 3200 C 315.12 -0.312814 3.39462 0
M  V30 3201 H 316.313 1.34779 2.67908 0
M  V30 3202 H 313.866 0.735739 1.37901 0
M  V30 3203 H 314.601 -1.20257 3.01179 0
M  V30 3204 H 314.386 0.329404 3.90714 0
M  V30 3205 H 315.876 -0.635986 4.12729 0
M  V30 3206 N 316.313 -1.40141 0.720998 0
M  V30 3207 C 317.562 -2.0002 0.259804 0
M  V30 3208 C 317.875 -1.57839 -1.15526 0
M  V30 3209 O 319.081 -2.10455 -1.71525 0
M  V30 3210 C 317.537 -3.57516 0.413566 0
M  V30 3211 C 317.145 -4.08667 1.83562 0
M  V30 3212 C 318.889 -4.24498 0.0134387 0
M  V30 3213 C 316.796 -5.58686 1.93968 0
M  V30 3214 H 315.726 -0.748195 0.0933806 0
M  V30 3215 H 318.377 -1.60313 0.892866 0
M  V30 3216 H 316.759 -3.9495 -0.288169 0
M  V30 3217 H 317.933 -3.82598 2.56817 0
M  V30 3218 H 316.248 -3.543 2.1877 0
M  V30 3219 H 318.845 -5.34654 0.0703954 0
M  V30 3220 H 319.188 -4.03375 -1.02927 0
M  V30 3221 H 319.721 -3.92188 0.665815 0
M  V30 3222 H 316.46 -5.8467 2.96379 0
M  V30 3223 H 315.98 -5.86602 1.25131 0
M  V30 3224 H 317.659 -6.23875 1.71431 0
M  V30 3225 N 317.792 -0.46758 -1.50504 0
M  V30 3226 C 319.039 0.0886219 -2.02306 0
M  V30 3227 C 319.367 1.40037 -1.34981 0
M  V30 3228 O 318.622 1.90136 -0.463318 0
M  V30 3229 C 318.921 0.323995 -3.55928 0
M  V30 3230 C 318.587 -0.905618 -4.41712 0
M  V30 3231 C 317.249 -1.24275 -4.64875 0
M  V30 3232 C 319.601 -1.72448 -4.91845 0
M  V30 3233 C 316.929 -2.39888 -5.35417 0
M  V30 3234 C 319.281 -2.87185 -5.63656 0
M  V30 3235 C 317.945 -3.21317 -5.85074 0
M  V30 3236 H 317.215 0.0324291 -0.74029 0
M  V30 3237 H 319.862 -0.620945 -1.81153 0
M  V30 3238 H 318.167 1.11577 -3.75577 0
M  V30 3239 H 319.864 0.76826 -3.93572 0
M  V30 3240 H 316.454 -0.632956 -4.239 0
M  V30 3241 H 320.638 -1.4772 -4.73806 0
M  V30 3242 H 315.894 -2.66611 -5.50208 0
M  V30 3243 H 320.068 -3.50985 -6.01484 0
M  V30 3244 H 317.695 -4.1101 -6.39511 0
M  V30 3245 N 319.27 1.56325 -0.20005 0
M  V30 3246 C 320.18 2.22931 0.730668 0
M  V30 3247 C 321.196 1.22997 1.23076 0
M  V30 3248 O 322.372 1.55748 1.27689 0
M  V30 3249 C 319.437 2.87948 1.93098 0
M  V30 3250 C 318.498 4.03166 1.47497 0
M  V30 3251 C 317.731 4.65073 2.61807 0
M  V30 3252 O 317.954 4.25913 3.79413 0
M  V30 3253 O 316.888 5.54452 2.34237 0
M  V30 3254 H 320.714 3.03084 0.193391 0
M  V30 3255 H 318.299 1.49371 0.0294621 0
M  V30 3256 H 320.181 3.29063 2.6324 0
M  V30 3257 H 318.856 2.10771 2.45677 0
M  V30 3258 H 317.763 3.66664 0.742201 0
M  V30 3259 H 319.096 4.82022 0.995796 0
M  V30 3260 N 320.748 -0.0735177 1.57428 0
M  V30 3261 C 321.973 -0.789787 1.91774 0
M  V30 3262 C 322.398 -1.70413 0.796306 0
M  V30 3263 O 321.756 -1.79555 -0.250961 0
M  V30 3264 C 321.804 -1.5609 3.25067 0
M  V30 3265 O 320.908 -2.67144 3.14178 0
M  V30 3266 H 320.249 -0.215582 0.628029 0
M  V30 3267 H 322.779 -0.0422781 2.04556 0
M  V30 3268 H 322.789 -1.94052 3.58898 0
M  V30 3269 H 321.464 -0.890015 4.06265 0
M  V30 3270 H 320.041 -2.32052 2.91901 0
M  V30 3271 N 322.226 -1.5378 -0.344866 0
M  V30 3272 C 323.136 -1.84667 -1.4469 0
M  V30 3273 C 324.152 -0.736704 -1.57635 0
M  V30 3274 O 325.328 -1.02888 -1.73136 0
M  V30 3275 C 322.393 -2.04869 -2.79696 0
M  V30 3276 C 321.454 -3.28731 -2.76106 0
M  V30 3277 C 320.687 -3.4796 -4.04673 0
M  V30 3278 O 320.91 -2.71052 -5.01883 0
M  V30 3279 O 319.844 -4.41383 -4.09224 0
M  V30 3280 H 323.67 -2.78334 -1.21506 0
M  V30 3281 H 321.255 -1.39418 -0.536921 0
M  V30 3282 H 323.137 -2.19609 -3.59652 0
M  V30 3283 H 321.812 -1.14391 -3.02814 0
M  V30 3284 H 320.719 -3.19396 -1.94774 0
M  V30 3285 H 322.052 -4.19198 -2.57941 0
M  V30 3286 N 323.704 0.605807 -1.45491 0
M  V30 3287 C 324.952 1.36207 -1.49305 0
M  V30 3288 C 325.273 1.94519 -0.136863 0
M  V30 3289 O 324.543 1.77261 0.833983 0
M  V30 3290 H 323.123 0.50565 -0.549843 0
M  V30 3291 H 325.785 0.711239 -1.81459 0
M  V30 3292 H 324.881 2.18058 -2.23287 0
M  V30 3293 N 325.182 1.32811 0.848464 0
M  V30 3294 C 326.112 1.24882 1.97299 0
M  V30 3295 C 327.093 0.131357 1.69592 0
M  V30 3296 O 328.278 0.319553 1.91553 0
M  V30 3297 C 325.408 0.97746 3.33261 0
M  V30 3298 C 324.362 2.05682 3.75338 0
M  V30 3299 C 323.688 1.63777 5.09 0
M  V30 3300 C 324.988 3.47254 3.90144 0
M  V30 3301 H 326.682 2.18966 2.04191 0
M  V30 3302 H 324.228 1.05413 0.981029 0
M  V30 3303 H 326.181 0.908513 4.1149 0
M  V30 3304 H 324.905 0.000980011 3.266 0
M  V30 3305 H 323.564 2.11603 2.99366 0
M  V30 3306 H 323.212 0.648569 4.98801 0
M  V30 3307 H 322.912 2.36 5.38124 0
M  V30 3308 H 324.436 1.5833 5.89715 0
M  V30 3309 H 325.85 3.43888 4.58709 0
M  V30 3310 H 324.247 4.1788 4.30693 0
M  V30 3311 H 325.317 3.86462 2.92874 0
M  V30 3312 N 326.66 -1.06551 1.16123 0
M  V30 3313 C 327.885 -1.83544 0.965735 0
M  V30 3314 C 328.31 -1.81843 -0.481102 0
M  V30 3315 O 327.668 -1.21732 -1.34354 0
M  V30 3316 C 327.716 -3.28169 1.49457 0
M  V30 3317 O 326.82 -4.0643 0.699157 0
M  V30 3318 H 326.161 -0.568026 0.343864 0
M  V30 3319 H 328.691 -1.34362 1.54299 0
M  V30 3320 H 328.701 -3.78992 1.51092 0
M  V30 3321 H 327.376 -3.28722 2.54784 0
M  V30 3322 H 325.953 -3.65216 0.7531 0
M  V30 3323 N 328.138 -0.959301 -1.25041 0
M  V30 3324 C 329.549 -0.65667 -1.74771 0
M  V30 3325 C 329.9 0.827852 -1.77879 0
M  V30 3326 O 329.025 1.64783 -1.40269 0
M  V30 3327 C 329.62 -1.1853 -3.1739 0
M  V30 3328 C 328.179 -0.932734 -3.6466 0
M  V30 3329 C 327.326 -1.32558 -2.43564 0
M  V30 3330 H 330.277 -1.13558 -1.10862 0
M  V30 3331 H 330.298 -0.547582 -3.76539 0
M  V30 3332 H 329.81 -2.26576 -3.15095 0
M  V30 3333 H 327.911 0.13257 -3.72364 0
M  V30 3334 H 328.024 -1.57248 -4.52559 0
M  V30 3335 H 326.388 -0.743956 -2.43593 0
M  V30 3336 H 327.171 -2.41537 -2.43957 0
M  V30 3337 N 329.616 1.39756 -0.72842 0
M  V30 3338 C 330.841 2.05472 -0.282159 0
M  V30 3339 C 331.266 1.54549 1.07221 0
M  V30 3340 O 330.624 0.686372 1.67805 0
M  V30 3341 C 330.672 3.59462 -0.286264 0
M  V30 3342 O 329.776 4.05918 0.728298 0
M  V30 3343 H 329.117 0.651226 -0.129618 0
M  V30 3344 H 331.647 1.78915 -0.992499 0
M  V30 3345 H 331.657 4.07798 -0.128373 0
M  V30 3346 H 330.332 3.95889 -1.27456 0
M  V30 3347 H 328.909 3.69012 0.537081 0
M  V30 3348 N 331.094 0.475555 1.50254 0
M  V30 3349 C 332.51 0.12997 1.5907 0
M  V30 3350 C 332.71 -1.36385 1.48328 0
M  V30 3351 O 331.766 -2.13754 1.34407 0
M  V30 3352 C 333.079 0.684139 2.92814 0
M  V30 3353 C 334.627 0.647965 3.0622 0
M  V30 3354 C 335.102 1.17975 4.42545 0
M  V30 3355 N 336.593 1.13936 4.48969 0
M  V30 3356 C 337.328 1.52129 5.52851 0
M  V30 3357 N 336.824 1.97793 6.63965 0
M  V30 3358 N 338.617 1.43704 5.4342 0
M  V30 3359 H 330.768 1.44706 1.55479 0
M  V30 3360 H 333.031 0.598691 0.735033 0
M  V30 3361 H 332.737 1.73079 3.06164 0
M  V30 3362 H 332.611 0.130204 3.76975 0
M  V30 3363 H 334.998 -0.38979 2.92514 0
M  V30 3364 H 335.079 1.23876 2.23805 0
M  V30 3365 H 334.723 2.21616 4.57 0
M  V30 3366 H 334.653 0.565138 5.23559 0
M  V30 3367 H 337.144 0.804488 3.69238 0
M  V30 3368 H 337.457 2.25072 7.39299 0
M  V30 3369 H 335.802 2.01749 6.65073 0
M  V30 3370 H 338.993 1.07867 4.55502 0
M  V30 3371 H 339.166 1.73794 6.24259 0
M  V30 3372 N 332.573 -1.56217 0.208337 0
M  V30 3373 C 333.819 -1.98242 -0.427552 0
M  V30 3374 C 334.152 -1.09554 -1.60348 0
M  V30 3375 O 333.427 -0.15035 -1.93918 0
M  V30 3376 C 333.71 -3.4931 -0.874907 0
M  V30 3377 C 333.563 -4.48773 0.303751 0
M  V30 3378 C 334.882 -4.04424 -1.73577 0
M  V30 3379 H 332.001 -0.720744 -0.153936 0
M  V30 3380 H 334.643 -1.87586 0.30192 0
M  V30 3381 H 332.793 -3.58522 -1.49648 0
M  V30 3382 H 334.465 -4.51586 0.941682 0
M  V30 3383 H 332.708 -4.23194 0.953375 0
M  V30 3384 H 333.379 -5.51976 -0.0519883 0
M  V30 3385 H 335.855 -3.98075 -1.21143 0
M  V30 3386 H 334.731 -5.1047 -2.01771 0
M  V30 3387 H 334.992 -3.50494 -2.69456 0
M  V30 3388 N 334.051 0.0651679 -1.57465 0
M  V30 3389 C 335.291 0.768329 -1.8941 0
M  V30 3390 C 335.655 1.74406 -0.802894 0
M  V30 3391 O 336.856 2.49281 -1.0056 0
M  V30 3392 C 335.127 1.45199 -3.26576 0
M  V30 3393 S 336.686 2.1893 -3.80283 0
M  V30 3394 H 333.504 0.255359 -0.663561 0
M  V30 3395 H 336.106 0.024167 -1.95485 0
M  V30 3396 H 334.81 0.728123 -4.03889 0
M  V30 3397 H 334.341 2.23545 -3.23715 0
M  V30 3398 H 336.356 3.45551 -3.56102 0
M  V30 3399 N 335.529 1.53961 0.336706 0
M  V30 3400 C 336.778 1.70751 1.07363 0
M  V30 3401 C 337.091 0.481061 1.89592 0
M  V30 3402 O 338.297 0.530046 2.66276 0
M  V30 3403 C 336.753 3.01965 1.95818 0
M  V30 3404 C 336.361 4.31971 1.18764 0
M  V30 3405 C 338.105 3.28121 2.69327 0
M  V30 3406 C 336.012 5.54255 2.06289 0
M  V30 3407 H 334.942 0.636292 0.404535 0
M  V30 3408 H 337.593 1.80459 0.332681 0
M  V30 3409 H 335.975 2.86132 2.7376 0
M  V30 3410 H 337.149 4.5853 0.456849 0
M  V30 3411 H 335.464 4.12481 0.569946 0
M  V30 3412 H 338.061 4.16673 3.35094 0
M  V30 3413 H 338.404 2.45426 3.36261 0
M  V30 3414 H 338.937 3.44762 1.98454 0
M  V30 3415 H 335.676 6.39513 1.43885 0
M  V30 3416 H 335.196 5.31935 2.77138 0
M  V30 3417 H 336.875 5.90159 2.65182 0
M  V30 3418 N 337.007 -0.598083 1.45811 0
M  V30 3419 C 338.255 -1.35413 1.50026 0
M  V30 3420 C 338.576 -1.94444 0.147177 0
M  V30 3421 O 337.846 -1.77701 -0.824571 0
M  V30 3422 H 336.426 -0.502727 0.552517 0
M  V30 3423 H 339.088 -0.701606 1.81834 0
M  V30 3424 H 338.184 -2.16871 2.2444 0
M  V30 3425 N 338.485 -1.33259 -0.841409 0
M  V30 3426 C 339.435 -1.19872 -1.93945 0
M  V30 3427 C 340.419 -0.102269 -1.60575 0
M  V30 3428 O 341.611 -0.330114 -1.73894 0
M  V30 3429 C 338.74 -0.937517 -3.30251 0
M  V30 3430 C 337.826 -2.07629 -3.69799 0
M  V30 3431 N 338.217 -3.32604 -3.81062 0
M  V30 3432 C 336.515 -1.98242 -3.9952 0
M  V30 3433 C 337.216 -4.07275 -4.15333 0
M  V30 3434 N 336.192 -3.35691 -4.27566 0
M  V30 3435 H 339.994 -2.14604 -2.00805 0
M  V30 3436 H 337.508 -1.2523 -1.03398 0
M  V30 3437 H 339.505 -0.822545 -4.08705 0
M  V30 3438 H 338.165 0.00128798 -3.247 0
M  V30 3439 H 339.176 -3.67382 -3.65035 0
M  V30 3440 H 335.853 -1.12005 -4.02195 0
M  V30 3441 H 337.243 -5.1511 -4.31406 0
M  V30 3442 N 339.963 1.05934 -1.16686 0
M  V30 3443 C 341.188 1.83029 -0.975455 0
M  V30 3444 C 341.613 1.82096 0.471452 0
M  V30 3445 O 340.971 1.22443 1.33706 0
M  V30 3446 C 341.019 3.27372 -1.51195 0
M  V30 3447 O 340.123 4.06054 -0.720701 0
M  V30 3448 H 339.464 0.566194 -0.346872 0
M  V30 3449 H 341.994 1.33541 -1.55009 0
M  V30 3450 H 342.004 3.78186 -1.53099 0
M  V30 3451 H 340.679 3.27366 -2.56523 0
M  V30 3452 H 339.256 3.64812 -0.772458 0
M  V30 3453 N 341.441 0.965919 1.2453 0
M  V30 3454 C 342.718 0.543777 1.87889 0
M  V30 3455 C 343.098 -0.97909 1.87021 0
M  V30 3456 O 342.446 -1.84969 1.3416 0
M  V30 3457 C 342.656 1.13327 3.30088 0
M  V30 3458 C 344.004 1.21707 4.06783 0
M  V30 3459 O 345.028 1.08566 3.39252 0
M  V30 3460 O 343.887 1.42456 5.27606 0
M  V30 3461 H 340.981 0.181054 0.806938 0
M  V30 3462 H 343.527 1.06007 1.32516 0
M  V30 3463 H 342.299 2.17612 3.25209 0
M  V30 3464 H 341.922 0.600911 3.93033 0
M  V30 3465 N 342.919 -1.39368 0.735821 0
M  V30 3466 C 344.196 -1.94465 0.210395 0
M  V30 3467 C 344.576 -1.67254 -1.28799 0
M  V30 3468 O 343.924 -1.00123 -2.05396 0
M  V30 3469 C 344.134 -3.4472 0.544897 0
M  V30 3470 C 345.482 -4.21708 0.494689 0
M  V30 3471 O 346.506 -3.52922 0.482136 0
M  V30 3472 O 345.365 -5.44299 0.489947 0
M  V30 3473 H 342.459 -0.826096 0.0386666 0
M  V30 3474 H 345.005 -1.48863 0.814735 0
M  V30 3475 H 343.777 -3.57963 1.58045 0
M  V30 3476 H 343.4 -3.97502 -0.08837 0
M  V30 3477 N 344.397 -0.483516 -1.5 0
M  V30 3478 C 345.625 0.0644831 -2.06799 0
M  V30 3479 C 346.04 1.32399 -1.34596 0
M  V30 3480 O 345.397 1.77626 -0.418946 0
M  V30 3481 C 345.448 0.339927 -3.59898 0
M  V30 3482 O 345.169 -0.869635 -4.29382 0
M  V30 3483 C 346.67 0.933515 -4.33359 0
M  V30 3484 H 343.89 -0.0126333 -0.670881 0
M  V30 3485 H 346.434 -0.675864 -1.93009 0
M  V30 3486 H 344.589 1.03022 -3.7345 0
M  V30 3487 H 345.003 -0.62179 -5.20801 0
M  V30 3488 H 346.477 1.07593 -5.41413 0
M  V30 3489 H 346.954 1.92685 -3.94676 0
M  V30 3490 H 347.56 0.281221 -4.24369 0
M  V30 3491 N 345.875 1.56104 -0.216619 0
M  V30 3492 C 347.152 1.89988 0.465165 0
M  V30 3493 C 347.532 1.13326 1.78102 0
M  V30 3494 O 346.88 0.241033 2.27225 0
M  V30 3495 C 347.09 3.42646 0.662939 0
M  V30 3496 C 348.438 4.13311 0.972602 0
M  V30 3497 O 349.462 3.48217 0.749901 0
M  V30 3498 O 348.321 5.28396 1.39499 0
M  V30 3499 H 345.415 0.78979 0.245276 0
M  V30 3500 H 347.961 1.67721 -0.258436 0
M  V30 3501 H 346.733 3.90399 -0.26543 0
M  V30 3502 H 346.356 3.70677 1.43821 0
M  V30 3503 N 347.353 -0.0568162 1.57498 0
M  V30 3504 C 348.63 -0.786954 1.79071 0
M  V30 3505 C 349.01 -1.95028 0.80792 0
M  V30 3506 O 348.358 -2.27968 -0.155858 0
M  V30 3507 C 348.568 -1.24594 3.26002 0
M  V30 3508 C 349.916 -1.67323 3.90241 0
M  V30 3509 O 350.94 -1.34124 3.29984 0
M  V30 3510 O 349.799 -2.28842 4.9628 0
M  V30 3511 H 346.893 -0.378262 0.735423 0
M  V30 3512 H 349.439 -0.035734 1.69662 0
M  V30 3513 H 348.211 -0.41423 3.89101 0
M  V30 3514 H 347.834 -2.05803 3.40192 0
M  V30 3515 N 348.832 -1.54138 -0.328536 0
M  V30 3516 C 349.762 -1.86167 -1.40939 0
M  V30 3517 C 350.743 -0.718044 -1.54202 0
M  V30 3518 O 351.928 -0.971328 -1.68163 0
M  V30 3519 C 349.058 -2.08461 -2.77779 0
M  V30 3520 C 348.012 -3.24299 -2.7931 0
M  V30 3521 C 347.338 -3.31955 -4.19178 0
M  V30 3522 C 348.638 -4.62065 -2.43502 0
M  V30 3523 H 350.332 -2.76689 -1.14383 0
M  V30 3524 H 347.878 -1.33132 -0.548806 0
M  V30 3525 H 349.831 -2.29453 -3.53454 0
M  V30 3526 H 348.555 -1.14684 -3.05802 0
M  V30 3527 H 347.214 -3.03187 -2.0609 0
M  V30 3528 H 346.862 -2.35745 -4.44335 0
M  V30 3529 H 346.562 -4.09805 -4.2111 0
M  V30 3530 H 348.086 -3.55175 -4.96672 0
M  V30 3531 H 349.5 -4.8297 -3.08889 0
M  V30 3532 H 347.897 -5.42429 -2.56693 0
M  V30 3533 H 348.967 -4.64652 -1.38659 0
M  V30 3534 N 350.31 0.590341 -1.46126 0
M  V30 3535 C 351.535 1.37991 -1.54833 0
M  V30 3536 C 351.96 1.87163 -0.187506 0
M  V30 3537 O 351.318 1.61133 0.831008 0
M  V30 3538 C 351.366 2.54867 -2.55098 0
M  V30 3539 O 350.47 3.56061 -2.08073 0
M  V30 3540 H 349.811 0.411265 -0.521303 0
M  V30 3541 H 352.341 0.716819 -1.91632 0
M  V30 3542 H 352.351 3.01886 -2.74461 0
M  V30 3543 H 351.026 2.18429 -3.53923 0
M  V30 3544 H 349.603 3.15574 -1.98664 0
M  V30 3545 N 351.788 1.33704 0.83433 0
M  V30 3546 C 353.018 1.28281 1.6195 0
M  V30 3547 C 353.426 -0.147603 1.88623 0
M  V30 3548 O 352.769 -1.1016 1.47005 0
M  V30 3549 C 352.831 1.99386 2.99141 0
M  V30 3550 C 352.495 3.48681 2.95416 0
M  V30 3551 C 353.492 4.438 2.70809 0
M  V30 3552 C 351.177 3.90925 3.15409 0
M  V30 3553 C 353.171 5.79138 2.66229 0
M  V30 3554 C 350.858 5.26366 3.10454 0
M  V30 3555 C 351.856 6.20284 2.85895 0
M  V30 3556 O 351.544 7.53245 2.80852 0
M  V30 3557 H 351.276 0.44315 0.510484 0
M  V30 3558 H 353.83 1.76711 1.04702 0
M  V30 3559 H 352.06 1.45554 3.58261 0
M  V30 3560 H 353.749 1.87403 3.60049 0
M  V30 3561 H 354.515 4.12485 2.5511 0
M  V30 3562 H 350.394 3.18229 3.33543 0
M  V30 3563 H 353.938 6.52416 2.4698 0
M  V30 3564 H 349.835 5.57304 3.25703 0
M  V30 3565 H 350.603 7.62846 2.96661 0
M  V30 3566 N 353.266 -1.05314 1.17247 0
M  V30 3567 C 354.196 -2.1498 0.911362 0
M  V30 3568 C 355.177 -1.69471 -0.146169 0
M  V30 3569 O 356.362 -1.942 0.003812 0
M  V30 3570 C 353.492 -3.4472 0.422528 0
M  V30 3571 C 352.446 -4.03789 1.4191 0
M  V30 3572 C 351.772 -5.28858 0.788274 0
M  V30 3573 C 353.072 -4.41418 2.7919 0
M  V30 3574 H 354.766 -2.3708 1.82848 0
M  V30 3575 H 352.312 -1.13938 0.880569 0
M  V30 3576 H 354.265 -4.20787 0.227289 0
M  V30 3577 H 352.989 -3.22269 -0.530123 0
M  V30 3578 H 351.648 -3.2979 1.60106 0
M  V30 3579 H 351.296 -5.02709 -0.171173 0
M  V30 3580 H 350.996 -5.69338 1.45353 0
M  V30 3581 H 352.52 -6.07612 0.603282 0
M  V30 3582 H 353.934 -5.08524 2.64719 0
M  V30 3583 H 352.331 -4.92913 3.42282 0
M  V30 3584 H 353.401 -3.51819 3.33693 0
M  V30 3585 N 354.744 -0.972509 -1.24016 0
M  V30 3586 C 355.972 -0.654803 -1.96265 0
M  V30 3587 C 356.387 0.776708 -1.72083 0
M  V30 3588 O 355.744 1.52171 -1.00748 0
M  V30 3589 C 355.795 -0.92592 -3.49441 0
M  V30 3590 O 355.516 -2.30116 -3.72798 0
M  V30 3591 C 357.017 -0.623068 -4.38899 0
M  V30 3592 H 354.237 -0.243907 -0.6251 0
M  V30 3593 H 356.781 -1.30175 -1.57717 0
M  V30 3594 H 354.936 -0.325108 -3.86033 0
M  V30 3595 H 355.35 -2.38483 -4.67147 0
M  V30 3596 H 356.824 -0.863189 -5.45209 0
M  V30 3597 H 357.301 0.442754 -4.36963 0
M  V30 3598 H 357.907 -1.204 -4.07902 0
M  V30 3599 N 356.222 1.38976 -0.743202 0
M  V30 3600 C 357.185 2.28901 -0.117014 0
M  V30 3601 C 358.185 1.46698 0.658503 0
M  V30 3602 O 359.375 1.67274 0.486305 0
M  V30 3603 C 356.507 3.30309 0.84315 0
M  V30 3604 H 357.7 2.8578 -0.909373 0
M  V30 3605 H 355.253 1.47761 -0.509547 0
M  V30 3606 H 355.988 2.785 1.66157 0
M  V30 3607 H 355.773 3.91029 0.289594 0
M  V30 3608 H 357.263 3.97577 1.2776 0
M  V30 3609 N 357.7 0.491464 1.49741 0
M  V30 3610 C 358.63 -0.28154 2.31796 0
M  V30 3611 C 359.611 -0.971473 1.3963 0
M  V30 3612 O 360.796 -0.964719 1.68543 0
M  V30 3613 C 357.926 -1.35203 3.19902 0
M  V30 3614 C 356.88 -0.782529 4.20786 0
M  V30 3615 C 356.206 -1.95283 4.97764 0
M  V30 3616 C 357.506 0.21999 5.21837 0
M  V30 3617 H 359.2 0.403355 2.96671 0
M  V30 3618 H 356.746 0.195425 1.42668 0
M  V30 3619 H 358.699 -1.90045 3.76113 0
M  V30 3620 H 357.423 -2.06598 2.52953 0
M  V30 3621 H 356.082 -0.255928 3.65706 0
M  V30 3622 H 355.73 -2.65423 4.2727 0
M  V30 3623 H 355.43 -1.57789 5.66018 0
M  V30 3624 H 356.954 -2.50577 5.56816 0
M  V30 3625 H 358.368 -0.23996 5.72798 0
M  V30 3626 H 356.765 0.51026 5.97927 0
M  V30 3627 H 357.835 1.13911 4.7133 0
M  V30 3628 N 359.178 -1.55987 0.224894 0
M  V30 3629 C 360.141 -2.19178 -0.670348 0
M  V30 3630 C 361.141 -1.15461 -1.11917 0
M  V30 3631 O 362.331 -1.40675 -1.02743 0
M  V30 3632 C 359.463 -2.81777 -1.9187 0
M  V30 3633 H 360.656 -2.99662 -0.119364 0
M  V30 3634 H 358.209 -1.5628 -0.0247128 0
M  V30 3635 H 358.944 -2.05172 -2.51147 0
M  V30 3636 H 358.729 -3.57732 -1.60531 0
M  V30 3637 H 360.219 -3.30205 -2.55645 0
M  V30 3638 N 360.656 0.0484629 -1.57525 0
M  V30 3639 C 361.619 1.03956 -2.04269 0
M  V30 3640 C 362.619 1.30211 -0.943496 0
M  V30 3641 O 363.809 1.25539 -1.20771 0
M  V30 3642 C 360.941 2.37742 -2.44319 0
M  V30 3643 H 362.134 0.636182 -2.93075 0
M  V30 3644 H 359.687 0.294811 -1.53494 0
M  V30 3645 H 360.422 2.82866 -1.5861 0
M  V30 3646 H 360.207 2.20021 -3.24551 0
M  V30 3647 H 361.697 3.08936 -2.80978 0
M  V30 3648 N 362.134 1.5431 0.320358 0
M  V30 3649 C 363.55 1.45091 0.664889 0
M  V30 3650 C 363.75 0.626382 1.91517 0
M  V30 3651 O 362.806 0.126443 2.52183 0
M  V30 3652 C 364.119 2.88848 0.83591 0
M  V30 3653 C 365.667 2.9877 0.933046 0
M  V30 3654 C 366.142 4.43683 1.13621 0
M  V30 3655 N 367.633 4.47309 1.20287 0
M  V30 3656 C 368.368 5.56595 1.37801 0
M  V30 3657 N 367.864 6.75844 1.52338 0
M  V30 3658 N 369.657 5.44248 1.40535 0
M  V30 3659 H 361.808 2.06398 -0.501374 0
M  V30 3660 H 364.071 0.933963 -0.162534 0
M  V30 3661 H 363.777 3.51698 -0.0116092 0
M  V30 3662 H 363.651 3.35148 1.73078 0
M  V30 3663 H 366.038 2.36045 1.77107 0
M  V30 3664 H 366.119 2.55796 0.0145782 0
M  V30 3665 H 365.763 5.06995 0.303032 0
M  V30 3666 H 365.693 4.84269 2.0686 0
M  V30 3667 H 368.184 3.61388 1.10485 0
M  V30 3668 H 368.497 7.54892 1.65403 0
M  V30 3669 H 366.842 6.78746 1.4943 0
M  V30 3670 H 370.033 4.50038 1.28777 0
M  V30 3671 H 370.206 6.29473 1.53842 0
M  V30 3672 N 363.613 -0.582584 1.46437 0
M  V30 3673 C 364.861 -1.33814 1.51453 0
M  V30 3674 C 365.182 -1.94277 0.167792 0
M  V30 3675 O 364.452 -1.78566 -0.805677 0
M  V30 3676 H 363.032 -0.496838 0.557818 0
M  V30 3677 H 365.694 -0.682281 1.82568 0
M  V30 3678 H 364.79 -2.14479 2.26728 0
M  V30 3679 N 365.091 -1.34144 -0.827227 0
M  V30 3680 C 366.321 -1.29138 -1.61267 0
M  V30 3681 C 366.729 0.137597 -1.88699 0
M  V30 3682 O 366.072 1.09379 -1.47587 0
M  V30 3683 C 366.134 -2.0097 -2.9808 0
M  V30 3684 C 365.798 -3.50242 -2.93563 0
M  V30 3685 C 366.795 -4.4523 -2.68452 0
M  V30 3686 C 364.48 -3.92592 -3.13331 0
M  V30 3687 C 366.474 -5.80542 -2.63154 0
M  V30 3688 C 364.161 -5.28005 -3.07658 0
M  V30 3689 C 365.159 -6.21792 -2.82602 0
M  V30 3690 O 364.847 -7.54723 -2.76853 0
M  V30 3691 H 364.579 -0.445851 -0.508127 0
M  V30 3692 H 367.133 -1.77263 -1.03763 0
M  V30 3693 H 365.363 -1.47451 -3.57484 0
M  V30 3694 H 367.052 -1.89309 -3.5905 0
M  V30 3695 H 367.818 -4.13832 -2.52919 0
M  V30 3696 H 363.697 -3.19994 -3.31851 0
M  V30 3697 H 367.241 -6.53717 -2.43516 0
M  V30 3698 H 363.138 -5.59023 -3.22743 0
M  V30 3699 H 363.906 -7.64409 -2.92611 0
M  V30 3700 N 366.569 1.04691 -1.17803 0
M  V30 3701 C 367.499 2.14494 -0.92275 0
M  V30 3702 C 368.48 1.69546 0.137179 0
M  V30 3703 O 369.665 1.94195 -0.0141108 0
M  V30 3704 C 366.795 3.44491 -0.440803 0
M  V30 3705 C 365.749 4.03031 -1.4405 0
M  V30 3706 C 365.075 5.28432 -0.81631 0
M  V30 3707 C 366.375 4.39932 -2.81527 0
M  V30 3708 H 368.069 2.36107 -1.84103 0
M  V30 3709 H 365.615 1.1347 -0.886599 0
M  V30 3710 H 367.568 4.2066 -0.249602 0
M  V30 3711 H 366.292 3.22546 0.513025 0
M  V30 3712 H 364.951 3.28937 -1.61853 0
M  V30 3713 H 364.599 5.02792 0.144511 0
M  V30 3714 H 364.299 5.68559 -1.48371 0
M  V30 3715 H 365.823 6.07284 -0.635496 0
M  V30 3716 H 367.237 5.07113 -2.67412 0
M  V30 3717 H 365.634 4.9109 -3.44892 0
M  V30 3718 H 366.704 3.50045 -3.35554 0
M  V30 3719 N 368.047 0.979072 1.23499 0
M  V30 3720 C 369.296 0.642751 1.91185 0
M  V30 3721 C 369.609 -0.827253 1.77245 0
M  V30 3722 O 370.815 -1.27458 2.39722 0
M  V30 3723 C 369.271 1.09901 3.42709 0
M  V30 3724 C 368.879 2.59327 3.65313 0
M  V30 3725 C 370.623 0.836371 4.16179 0
M  V30 3726 C 368.53 2.98627 5.10467 0
M  V30 3727 H 367.46 0.236698 0.715884 0
M  V30 3728 H 370.111 1.1868 1.39955 0
M  V30 3729 H 368.493 0.48319 3.93041 0
M  V30 3730 H 369.667 3.26136 3.25533 0
M  V30 3731 H 367.982 2.83323 3.05151 0
M  V30 3732 H 370.579 1.10586 5.23139 0
M  V30 3733 H 370.922 -0.227509 4.15678 0
M  V30 3734 H 371.455 1.41371 3.71832 0
M  V30 3735 H 368.194 4.04133 5.16098 0
M  V30 3736 H 367.714 2.3651 5.51201 0
M  V30 3737 H 369.393 2.89159 5.78788 0
M  V30 3738 N 369.525 -1.3858 0.750561 0
M  V30 3739 C 370.773 -1.99789 0.30477 0
M  V30 3740 C 371.094 -1.59874 -1.11649 0
M  V30 3741 O 370.364 -0.85417 -1.76297 0
M  V30 3742 H 368.944 -0.738902 0.109694 0
M  V30 3743 H 371.606 -1.69391 0.963983 0
M  V30 3744 H 370.702 -3.09952 0.365499 0
M  V30 3745 N 371.003 -0.499398 -1.49478 0
M  V30 3746 C 371.933 0.269244 -2.31943 0
M  V30 3747 C 372.914 0.964054 -1.40143 0
M  V30 3748 O 374.099 0.955767 -1.69052 0
M  V30 3749 C 371.229 1.33504 -3.20615 0
M  V30 3750 C 370.183 0.760202 -4.21195 0
M  V30 3751 C 369.509 1.9264 -4.98792 0
M  V30 3752 C 370.809 -0.247661 -5.21712 0
M  V30 3753 H 372.503 -0.419082 -2.96452 0
M  V30 3754 H 370.049 -0.202988 -1.42562 0
M  V30 3755 H 372.002 1.88048 -3.77115 0
M  V30 3756 H 370.726 2.05253 -2.54045 0
M  V30 3757 H 369.385 0.23653 -3.65836 0
M  V30 3758 H 369.033 2.63154 -4.28671 0
M  V30 3759 H 368.733 1.54785 -5.66847 0
M  V30 3760 H 370.257 2.4762 -5.58137 0
M  V30 3761 H 371.671 0.209579 -5.72917 0
M  V30 3762 H 370.068 -0.541962 -5.97648 0
M  V30 3763 H 371.138 -1.16409 -4.7072 0
M  V30 3764 N 372.481 1.55866 -0.233164 0
M  V30 3765 C 373.758 1.90471 0.444988 0
M  V30 3766 C 374.138 1.15209 1.7689 0
M  V30 3767 O 373.486 0.265119 2.26957 0
M  V30 3768 C 373.696 3.4333 0.626559 0
M  V30 3769 C 375.044 4.14319 0.92871 0
M  V30 3770 O 376.068 3.48993 0.712926 0
M  V30 3771 O 374.927 5.29846 1.33887 0
M  V30 3772 H 372.021 0.792347 0.236885 0
M  V30 3773 H 374.567 1.67437 -0.276211 0
M  V30 3774 H 373.339 3.90095 -0.306822 0
M  V30 3775 H 372.962 3.72181 1.39881 0
M  V30 3776 N 373.959 -0.0401083 1.57549 0
M  V30 3777 C 374.909 -1.05175 2.02292 0
M  V30 3778 C 375.893 -1.32674 0.910294 0
M  V30 3779 O 377.085 -1.32444 1.17421 0
M  V30 3780 C 374.214 -2.35622 2.49674 0
M  V30 3781 C 373.3 -2.11261 3.67736 0
M  V30 3782 N 373.691 -1.56923 4.80842 0
M  V30 3783 C 371.989 -2.41596 3.74897 0
M  V30 3784 C 372.69 -1.48111 5.62528 0
M  V30 3785 N 371.666 -1.95282 5.07312 0
M  V30 3786 H 375.468 -0.625455 2.87168 0
M  V30 3787 H 372.982 -0.246624 1.60516 0
M  V30 3788 H 374.979 -3.08893 2.79983 0
M  V30 3789 H 373.639 -2.7894 1.662 0
M  V30 3790 H 374.65 -1.25345 5.02503 0
M  V30 3791 H 371.327 -2.88064 3.02201 0
M  V30 3792 H 372.717 -1.06683 6.63377 0
M  V30 3793 N 375.437 -1.54477 -0.31217 0
M  V30 3794 C 376.686 -1.72438 -1.04633 0
M  V30 3795 C 376.999 -0.511163 -1.88803 0
M  V30 3796 O 378.205 -0.572341 -2.65399 0
M  V30 3797 C 376.661 -3.05043 -1.9099 0
M  V30 3798 C 376.269 -4.33806 -1.11877 0
M  V30 3799 C 378.013 -3.32364 -2.64073 0
M  V30 3800 C 375.92 -5.57467 -1.97445 0
M  V30 3801 H 374.85 -0.642647 -0.394361 0
M  V30 3802 H 377.501 -1.80966 -0.303929 0
M  V30 3803 H 375.883 -2.90451 -2.69173 0
M  V30 3804 H 377.057 -4.59199 -0.383843 0
M  V30 3805 H 375.372 -4.13336 -0.504252 0
M  V30 3806 H 377.969 -4.21951 -3.28423 0
M  V30 3807 H 378.312 -2.50745 -3.32314 0
M  V30 3808 H 378.845 -3.47875 -1.92944 0
M  V30 3809 H 375.584 -6.41722 -1.33692 0
M  V30 3810 H 375.104 -5.36277 -2.6864 0
M  V30 3811 H 376.783 -5.94303 -2.5576 0
M  V30 3812 N 376.915 0.57481 -1.46744 0
M  V30 3813 C 378.326 1.15695 -1.46532 0
M  V30 3814 C 378.677 1.95068 -0.210425 0
M  V30 3815 O 377.802 2.05241 0.685944 0
M  V30 3816 C 378.397 2.1048 -2.65487 0
M  V30 3817 C 376.956 2.64002 -2.68291 0
M  V30 3818 C 376.103 1.40026 -2.39349 0
M  V30 3819 H 379.054 0.362325 -1.54509 0
M  V30 3820 H 379.075 2.94074 -2.41455 0
M  V30 3821 H 378.587 1.52683 -3.56805 0
M  V30 3822 H 376.688 3.25646 -1.81067 0
M  V30 3823 H 376.801 3.06197 -3.68483 0
M  V30 3824 H 375.165 1.70106 -1.89568 0
M  V30 3825 H 375.948 0.840485 -3.32852 0
M  V30 3826 N 378.394 1.34581 0.820102 0
M  V30 3827 C 379.344 1.22943 1.92013 0
M  V30 3828 C 380.328 0.127802 1.60392 0
M  V30 3829 O 381.52 0.357737 1.73347 0
M  V30 3830 C 378.649 0.989938 3.28717 0
M  V30 3831 C 377.735 2.13486 3.66449 0
M  V30 3832 N 378.126 3.38625 3.75722 0
M  V30 3833 C 376.424 2.04573 3.96315 0
M  V30 3834 C 377.125 4.13832 4.08801 0
M  V30 3835 N 376.101 3.42451 4.22171 0
M  V30 3836 H 379.903 2.17771 1.97365 0
M  V30 3837 H 377.417 1.2686 1.01392 0
M  V30 3838 H 379.414 0.887462 4.07345 0
M  V30 3839 H 378.074 0.0503691 3.24661 0
M  V30 3840 H 379.085 3.73143 3.59144 0
M  V30 3841 H 375.762 1.1839 4.00362 0
M  V30 3842 H 377.152 5.21909 4.23156 0
M  V30 3843 N 379.872 -1.04064 1.18357 0
M  V30 3844 C 381.097 -1.81454 1.00445 0
M  V30 3845 C 381.522 -1.82823 -0.442423 0
M  V30 3846 O 380.88 -1.24555 -1.31741 0
M  V30 3847 C 380.928 -3.24925 1.56384 0
M  V30 3848 O 380.032 -4.04856 0.785209 0
M  V30 3849 H 379.373 -0.560604 0.355835 0
M  V30 3850 H 381.903 -1.31059 1.57114 0
M  V30 3851 H 381.913 -3.75702 1.59097 0
M  V30 3852 H 380.588 -3.23244 2.61699 0
M  V30 3853 H 379.165 -3.63537 0.830399 0
M  V30 3854 N 381.35 -0.985608 -1.22978 0
M  V30 3855 C 382.313 -0.535071 -2.22867 0
M  V30 3856 C 383.313 0.378123 -1.56291 0
M  V30 3857 O 384.503 0.171092 -1.73358 0
M  V30 3858 C 381.635 0.222702 -3.40172 0
M  V30 3859 H 382.828 -1.41835 -2.6424 0
M  V30 3860 H 380.381 -0.772042 -1.35901 0
M  V30 3861 H 381.116 1.12229 -3.04262 0
M  V30 3862 H 380.901 -0.43288 -3.89703 0
M  V30 3863 H 382.391 0.526335 -4.1427 0
M  V30 3864 N 382.828 1.3818 -0.7579 0
M  V30 3865 C 384.077 1.99261 -0.312744 0
M  V30 3866 C 384.39 1.60846 1.11301 0
M  V30 3867 O 385.596 2.14929 1.65885 0
M  V30 3868 C 384.052 3.56294 -0.50821 0
M  V30 3869 C 383.66 4.03657 -1.94333 0
M  V30 3870 C 385.404 4.24313 -0.125982 0
M  V30 3871 C 383.311 5.53347 -2.08712 0
M  V30 3872 H 382.241 0.745456 -0.113185 0
M  V30 3873 H 384.892 1.57889 -0.935056 0
M  V30 3874 H 383.274 3.95575 0.183353 0
M  V30 3875 H 384.448 3.75655 -2.66871 0
M  V30 3876 H 382.763 3.48376 -2.28086 0
M  V30 3877 H 385.36 5.34279 -0.212125 0
M  V30 3878 H 385.703 4.05962 0.921964 0
M  V30 3879 H 386.236 3.90285 -0.769563 0
M  V30 3880 H 382.975 5.76607 -3.11777 0
M  V30 3881 H 382.495 5.83078 -1.4064 0
M  V30 3882 H 384.174 6.19111 -1.87912 0
M  V30 3883 N 384.306 0.507319 1.49211 0
M  V30 3884 C 385.554 -0.0348839 2.0207 0
M  V30 3885 C 385.875 -1.36898 1.38866 0
M  V30 3886 O 385.145 -1.88133 0.546151 0
M  V30 3887 H 383.725 -0.0158812 0.746831 0
M  V30 3888 H 386.387 0.665998 1.83168 0
M  V30 3889 H 385.483 -0.159917 3.1169 0
M  V30 3890 N 385.784 -1.5574 0.241426 0
M  V30 3891 C 386.714 -2.24133 -0.654722 0
M  V30 3892 C 387.695 -1.21974 -1.1856 0
M  V30 3893 O 388.88 -1.50612 -1.22595 0
M  V30 3894 C 386.01 -2.93659 -1.85423 0
M  V30 3895 C 384.964 -4.0246 -1.45636 0
M  V30 3896 C 384.29 -4.59383 -2.73626 0
M  V30 3897 C 385.59 -5.18468 -0.631506 0
M  V30 3898 H 387.284 -2.99281 -0.0844353 0
M  V30 3899 H 384.83 -1.43947 -0.0391707 0
M  V30 3900 H 386.783 -3.40203 -2.48676 0
M  V30 3901 H 385.507 -2.15991 -2.44981 0
M  V30 3902 H 384.166 -3.56676 -0.847202 0
M  V30 3903 H 383.814 -3.78422 -3.3137 0
M  V30 3904 H 383.514 -5.32826 -2.4773 0
M  V30 3905 H 385.038 -5.08658 -3.37786 0
M  V30 3906 H 386.452 -5.61272 -1.1682 0
M  V30 3907 H 384.849 -5.98266 -0.468831 0
M  V30 3908 H 385.919 -4.8358 0.357506 0
M  V30 3909 N 387.262 0.0317525 -1.57568 0
M  V30 3910 C 388.172 1.05021 -2.0978 0
M  V30 3911 C 389.188 1.39809 -1.03583 0
M  V30 3912 O 390.364 1.49182 -1.35302 0
M  V30 3913 C 387.429 2.33301 -2.56459 0
M  V30 3914 C 386.49 2.0512 -3.77127 0
M  V30 3915 C 385.723 3.27283 -4.2157 0
M  V30 3916 O 385.946 4.37861 -3.65559 0
M  V30 3917 O 384.88 3.13141 -5.14029 0
M  V30 3918 H 388.706 0.636505 -2.96955 0
M  V30 3919 H 386.291 0.248559 -1.47318 0
M  V30 3920 H 388.173 3.08722 -2.86825 0
M  V30 3921 H 386.848 2.73973 -1.72397 0
M  V30 3922 H 385.755 1.27276 -3.51784 0
M  V30 3923 H 387.088 1.69305 -4.62165 0
M  V30 3924 N 388.74 1.54641 0.303973 0
M  V30 3925 C 390.017 1.64455 1.05896 0
M  V30 3926 C 390.397 0.490923 2.05312 0
M  V30 3927 O 389.745 -0.512685 2.22674 0
M  V30 3928 C 389.955 3.02331 1.74347 0
M  V30 3929 C 391.303 3.59045 2.26653 0
M  V30 3930 O 392.327 3.04764 1.84384 0
M  V30 3931 O 391.186 4.54081 3.04093 0
M  V30 3932 H 388.28 0.666729 0.489287 0
M  V30 3933 H 390.826 1.66986 0.302298 0
M  V30 3934 H 389.598 3.77734 1.02142 0
M  V30 3935 H 389.221 3.03565 2.56777 0
M  V30 3936 N 390.218 -0.567019 1.47046 0
M  V30 3937 C 391.166 -1.69593 1.59188 0
M  V30 3938 C 392.16 -1.63046 0.459609 0
M  V30 3939 O 393.366 -1.6835 0.637058 0
M  V30 3940 H 389.741 -0.560993 0.500791 0
M  V30 3941 H 391.712 -1.56488 2.54075 0
M  V30 3942 C 390.461 -3.07964 1.61411 0
M  V30 3943 H 389.784 -3.13679 2.47881 0
M  V30 3944 H 391.224 -3.86671 1.73958 0
M  V30 3945 C 389.683 -3.35123 0.34559 0
M  V30 3946 O 390.213 -3.97812 -0.557521 0
M  V30 3947 N 388.419 -2.89699 0.22864 0
M  V30 3948 H 387.966 -2.38863 0.964479 0
M  V30 3949 H 387.924 -3.08242 -0.619192 0
M  V30 3950 N 391.696 -1.35014 -0.812953 0
M  V30 3951 C 392.659 -1.27292 -1.90602 0
M  V30 3952 C 393.659 -0.185817 -1.59723 0
M  V30 3953 O 394.849 -0.439102 -1.68575 0
M  V30 3954 C 391.981 -0.967676 -3.26877 0
M  V30 3955 H 393.174 -2.24479 -1.9887 0
M  V30 3956 H 390.727 -1.19446 -1.00808 0
M  V30 3957 H 391.462 0.0005954 -3.243 0
M  V30 3958 H 391.247 -1.75412 -3.50675 0
M  V30 3959 H 392.737 -0.939085 -4.06904 0
M  V30 3960 N 393.175 1.03435 -1.18907 0
M  V30 3961 C 394.4 1.80919 -1.01406 0
M  V30 3962 C 394.825 1.83055 0.432721 0
M  V30 3963 O 394.183 1.25252 1.31079 0
M  V30 3964 C 394.231 3.24091 -1.58105 0
M  V30 3965 O 393.335 4.04434 -0.806669 0
M  V30 3966 H 392.676 0.558709 -0.358803 0
M  V30 3967 H 395.206 1.30223 -1.57807 0
M  V30 3968 H 395.216 3.74853 -1.61087 0
M  V30 3969 H 393.891 3.21851 -2.6341 0
M  V30 3970 H 392.468 3.63091 -0.849666 0
M  V30 3971 N 394.653 0.992116 1.22453 0
M  V30 3972 C 395.616 0.546883 2.2258 0
M  V30 3973 C 396.616 -0.369829 1.56489 0
M  V30 3974 O 397.806 -0.161896 1.73446 0
M  V30 3975 C 394.938 -0.204659 3.40285 0
M  V30 3976 H 396.131 1.43234 2.63484 0
M  V30 3977 H 393.684 0.779239 1.3549 0
M  V30 3978 H 394.419 -1.10614 3.04853 0
M  V30 3979 H 394.204 0.45354 3.89468 0
M  V30 3980 H 395.694 -0.504358 4.14543 0
M  V30 3981 N 396.131 -1.37776 0.765217 0
M  V30 3982 C 397.356 -2.04651 0.336537 0
M  V30 3983 C 397.781 -1.57337 -1.03086 0
M  V30 3984 O 397.139 -0.730621 -1.65927 0
M  V30 3985 C 397.187 -3.58577 0.381468 0
M  V30 3986 O 396.291 -4.07706 -0.62042 0
M  V30 3987 H 395.632 -0.64756 0.146838 0
M  V30 3988 H 398.162 -1.76221 1.03959 0
M  V30 3989 H 398.172 -4.07314 0.236448 0
M  V30 3990 H 396.847 -3.9237 1.37907 0
M  V30 3991 H 395.424 -3.70306 -0.439056 0
M  V30 3992 N 397.609 -0.515225 -1.4894 0
M  V30 3993 C 398.572 0.244681 -2.2789 0
M  V30 3994 C 399.572 0.881166 -1.34507 0
M  V30 3995 O 400.762 0.743497 -1.57537 0
M  V30 3996 C 397.894 1.35247 -3.12923 0
M  V30 3997 H 399.087 -0.448289 -2.96531 0
M  V30 3998 H 396.64 -0.270656 -1.53939 0
M  V30 3999 H 397.375 2.07916 -2.48881 0
M  V30 4000 H 397.16 0.901374 -3.81599 0
M  V30 4001 H 398.65 1.88737 -3.72516 0
M  V30 4002 N 399.087 1.5561 -0.249682 0
M  V30 4003 C 400.017 2.24477 0.642826 0
M  V30 4004 C 400.998 1.22601 1.17911 0
M  V30 4005 O 402.183 1.5126 1.21795 0
M  V30 4006 C 399.313 2.94638 1.83863 0
M  V30 4007 C 398.267 4.03227 1.435 0
M  V30 4008 C 397.593 4.60828 2.71186 0
M  V30 4009 C 398.893 5.18796 0.604002 0
M  V30 4010 H 400.587 2.99321 0.0685625 0
M  V30 4011 H 398.133 1.43965 0.0315363 0
M  V30 4012 H 400.086 3.41517 2.46868 0
M  V30 4013 H 398.81 2.17287 2.43832 0
M  V30 4014 H 397.469 3.57121 0.828275 0
M  V30 4015 H 397.117 3.80174 3.29358 0
M  V30 4016 H 396.817 5.34132 2.44901 0
M  V30 4017 H 398.341 5.10442 3.35084 0
M  V30 4018 H 399.755 5.61883 1.13842 0
M  V30 4019 H 398.152 5.98506 0.437097 0
M  V30 4020 H 399.222 4.83384 -0.383147 0
M  V30 4021 N 400.565 -0.0233959 1.57583 0
M  V30 4022 C 401.495 -1.02162 2.09965 0
M  V30 4023 C 402.476 -1.3735 1.00344 0
M  V30 4024 O 403.661 -1.46135 1.27899 0
M  V30 4025 C 400.791 -2.32081 2.58371 0
M  V30 4026 C 399.745 -2.1112 3.72307 0
M  V30 4027 C 399.071 -3.46848 4.06941 0
M  V30 4028 C 400.371 -1.49276 5.00514 0
M  V30 4029 H 402.065 -0.585557 2.93618 0
M  V30 4030 H 399.611 -0.280218 1.41247 0
M  V30 4031 H 401.564 -3.02249 2.93639 0
M  V30 4032 H 400.288 -2.77758 1.71808 0
M  V30 4033 H 398.947 -1.43384 3.37397 0
M  V30 4034 H 398.595 -3.90184 3.17436 0
M  V30 4035 H 398.295 -3.33646 4.83688 0
M  V30 4036 H 399.819 -4.18369 4.44747 0
M  V30 4037 H 401.233 -2.09368 5.33702 0
M  V30 4038 H 399.63 -1.46632 5.8191 0
M  V30 4039 H 400.7 -0.459217 4.82721 0
M  V30 4040 N 402.043 -1.548 -0.295768 0
M  V30 4041 C 403.291 -1.73985 -1.02828 0
M  V30 4042 C 403.612 -0.531406 -1.87619 0
M  V30 4043 O 402.882 0.454221 -1.90561 0
M  V30 4044 H 401.462 -0.641556 -0.382642 0
M  V30 4045 H 404.124 -1.92163 -0.325489 0
M  V30 4046 H 403.22 -2.63129 -1.67838 0
M  V30 4047 N 403.521 0.559213 -1.47345 0
M  V30 4048 C 404.77 1.31281 -1.53128 0
M  V30 4049 C 405.083 1.94602 -0.197344 0
M  V30 4050 O 406.289 2.71173 -0.133154 0
M  V30 4051 C 404.745 2.38051 -2.69925 0
M  V30 4052 C 404.353 1.8093 -4.0984 0
M  V30 4053 C 406.097 3.14604 -2.84999 0
M  V30 4054 C 404.004 2.85468 -5.1794 0
M  V30 4055 H 402.934 0.493614 -0.569966 0
M  V30 4056 H 405.585 0.594155 -1.73615 0
M  V30 4057 H 403.967 3.12822 -2.42814 0
M  V30 4058 H 405.141 1.12544 -4.46845 0
M  V30 4059 H 403.456 1.16967 -3.99634 0
M  V30 4060 H 406.053 3.92666 -3.62929 0
M  V30 4061 H 406.396 3.68665 -1.93369 0
M  V30 4062 H 406.929 2.46945 -3.1187 0
M  V30 4063 H 403.668 2.36264 -6.1144 0
M  V30 4064 H 403.188 3.52269 -4.85455 0
M  V30 4065 H 404.867 3.48996 -5.44803 0
M  V30 4066 N 404.999 1.35443 0.805782 0
M  V30 4067 C 406.415 1.15499 1.10146 0
M  V30 4068 C 406.615 -0.0319975 2.01475 0
M  V30 4069 O 405.671 -0.70236 2.42535 0
M  V30 4070 C 406.984 2.45833 1.73166 0
M  V30 4071 C 408.532 2.52047 1.85583 0
M  V30 4072 C 409.007 3.82427 2.52019 0
M  V30 4073 N 410.498 3.83682 2.59504 0
M  V30 4074 C 411.233 4.81294 3.11679 0
M  V30 4075 N 410.729 5.89294 3.64287 0
M  V30 4076 N 412.522 4.6873 3.1024 0
M  V30 4077 H 404.673 2.11469 0.198678 0
M  V30 4078 H 406.936 0.93594 0.150731 0
M  V30 4079 H 406.642 3.32874 1.13526 0
M  V30 4080 H 406.516 2.6044 2.72857 0
M  V30 4081 H 408.903 1.65435 2.44367 0
M  V30 4082 H 408.984 2.41354 0.847455 0
M  V30 4083 H 408.628 4.69437 1.93885 0
M  V30 4084 H 408.558 3.90409 3.53395 0
M  V30 4085 H 411.049 3.05648 2.22234 0
M  V30 4086 H 411.362 6.59768 4.02401 0
M  V30 4087 H 409.707 5.92985 3.62483 0
M  V30 4088 H 412.898 3.83496 2.68419 0
M  V30 4089 H 413.071 5.44965 3.50596 0
M  V30 4090 N 406.477 -1.02803 1.19454 0
M  V30 4091 C 407.702 -1.80378 1.02364 0
M  V30 4092 C 408.127 -1.83282 -0.423007 0
M  V30 4093 O 407.485 -1.25945 -1.30413 0
M  V30 4094 C 407.533 -3.23248 1.59821 0
M  V30 4095 O 406.637 -4.04 0.828105 0
M  V30 4096 H 405.978 -0.556799 0.361761 0
M  V30 4097 H 408.508 -1.29385 1.58495 0
M  V30 4098 H 408.518 -3.73994 1.63073 0
M  V30 4099 H 407.193 -3.2045 2.65113 0
M  V30 4100 H 405.77 -3.62635 0.86891 0
M  V30 4101 N 407.956 -0.998596 -1.21925 0
M  V30 4102 C 409.202 -0.688337 -1.91399 0
M  V30 4103 C 409.557 0.771805 -1.76241 0
M  V30 4104 O 408.85 1.55153 -1.1242 0
M  V30 4105 C 409.044 -1.03648 -3.42041 0
M  V30 4106 C 408.873 -2.52892 -3.71855 0
M  V30 4107 C 407.643 -3.19389 -3.91559 0
M  V30 4108 C 409.841 -3.5103 -3.75875 0
M  V30 4109 N 407.823 -4.5805 -4.08734 0
M  V30 4110 C 409.194 -4.75174 -3.98259 0
M  V30 4111 C 411.249 -3.45257 -3.58751 0
M  V30 4112 C 409.952 -5.94247 -4.05294 0
M  V30 4113 C 411.978 -4.63712 -3.67049 0
M  V30 4114 C 411.34 -5.86658 -3.89887 0
M  V30 4115 H 407.439 -0.303251 -0.720807 0
M  V30 4116 H 410.023 -1.27977 -1.46731 0
M  V30 4117 H 408.194 -0.473569 -3.85502 0
M  V30 4118 H 409.926 -0.681619 -3.98919 0
M  V30 4119 H 406.681 -2.69846 -3.89205 0
M  V30 4120 H 407.105 -5.29989 -4.21237 0
M  V30 4121 H 411.747 -2.51215 -3.40075 0
M  V30 4122 H 409.465 -6.88687 -4.22772 0
M  V30 4123 H 413.051 -4.6084 -3.5513 0
M  V30 4124 H 411.931 -6.76786 -3.96144 0
M  V30 4125 N 409.434 1.37368 -0.772513 0
M  V30 4126 C 410.366 2.28899 -0.117502 0
M  V30 4127 C 411.379 1.4867 0.663405 0
M  V30 4128 O 412.568 1.71314 0.501372 0
M  V30 4129 C 409.668 3.2788 0.857192 0
M  V30 4130 C 408.841 4.37207 0.129938 0
M  V30 4131 C 407.9 5.16257 1.01811 0
M  V30 4132 O 406.926 5.67159 0.481601 0
M  V30 4133 N 408.128 5.31058 2.3443 0
M  V30 4134 H 410.893 2.85752 -0.903662 0
M  V30 4135 H 408.454 1.49353 -0.62493 0
M  V30 4136 H 410.446 3.77647 1.45482 0
M  V30 4137 H 409.016 2.7179 1.54432 0
M  V30 4138 H 408.236 3.88827 -0.648605 0
M  V30 4139 H 409.524 5.07434 -0.372559 0
M  V30 4140 H 408.922 4.91287 2.80452 0
M  V30 4141 H 407.479 5.84131 2.89197 0
M  V30 4142 N 410.912 0.523116 1.48665 0
M  V30 4143 C 412.14 -0.0096312 2.06898 0
M  V30 4144 C 412.555 -1.28784 1.38059 0
M  V30 4145 O 411.912 -1.76453 0.465893 0
M  V30 4146 C 411.963 -0.244386 3.60673 0
M  V30 4147 O 411.684 0.983172 4.26925 0
M  V30 4148 C 413.185 -0.818289 4.35682 0
M  V30 4149 H 410.405 0.0304161 0.67031 0
M  V30 4150 H 412.949 0.726799 1.91149 0
M  V30 4151 H 411.104 -0.930847 3.76051 0
M  V30 4152 H 411.518 0.759653 5.1897 0
M  V30 4153 H 412.992 -0.93201 5.44075 0
M  V30 4154 H 413.469 -1.82153 3.99646 0
M  V30 4155 H 414.075 -0.168609 4.24966 0
M  V30 4156 N 412.39 -1.55475 0.257931 0
M  V30 4157 C 413.806 -1.59307 -0.0966563 0
M  V30 4158 C 414.006 -1.27514 -1.5602 0
M  V30 4159 O 413.062 -1.02774 -2.30637 0
M  V30 4160 C 414.375 -2.99552 0.262481 0
M  V30 4161 C 415.923 -3.1231 0.207683 0
M  V30 4162 C 416.398 -4.54793 0.541012 0
M  V30 4163 N 417.889 -4.6058 0.491921 0
M  V30 4164 C 418.624 -5.68825 0.722857 0
M  V30 4165 N 418.12 -6.85287 1.0175 0
M  V30 4166 N 419.913 -5.58296 0.652815 0
M  V30 4167 H 412.064 -1.74409 1.21224 0
M  V30 4168 H 414.327 -0.812424 0.48854 0
M  V30 4169 H 414.033 -3.27593 1.27967 0
M  V30 4170 H 413.907 -3.75019 -0.40508 0
M  V30 4171 H 416.294 -2.84044 -0.800195 0
M  V30 4172 H 416.375 -2.39095 0.909255 0
M  V30 4173 H 416.019 -4.83783 1.5465 0
M  V30 4174 H 415.949 -5.26285 -0.18216 0
M  V30 4175 H 418.44 -3.7691 0.273366 0
M  V30 4176 H 418.753 -7.63725 1.18084 0
M  V30 4177 H 417.098 -6.86945 1.05509 0
M  V30 4178 H 420.289 -4.66189 0.422592 0
M  V30 4179 H 420.462 -6.42582 0.836182 0
M  V30 4180 N 413.868 0.0150385 -1.57593 0
M  V30 4181 C 414.831 0.995996 -2.06428 0
M  V30 4182 C 415.831 1.2818 -0.970903 0
M  V30 4183 O 417.021 1.22949 -1.23406 0
M  V30 4184 C 414.153 2.32506 -2.49307 0
M  V30 4185 H 415.346 0.573873 -2.94358 0
M  V30 4186 H 412.899 0.262186 -1.54085 0
M  V30 4187 H 413.634 2.79438 -1.64575 0
M  V30 4188 H 413.419 2.13087 -3.29145 0
M  V30 4189 H 414.909 3.02906 -2.87468 0
M  V30 4190 N 415.346 1.54954 0.287554 0
M  V30 4191 C 416.276 1.89839 1.35954 0
M  V30 4192 C 417.257 0.758675 1.52244 0
M  V30 4193 O 418.442 1.01557 1.65529 0
M  V30 4194 C 415.572 2.15753 2.72154 0
M  V30 4195 C 414.526 3.3159 2.70614 0
M  V30 4196 C 413.852 3.42952 4.10229 0
M  V30 4197 C 415.152 4.68359 2.31165 0
M  V30 4198 H 416.846 2.79625 1.07007 0
M  V30 4199 H 414.392 1.3454 0.513316 0
M  V30 4200 H 416.345 2.38743 3.47246 0
M  V30 4201 H 415.069 1.22752 3.02654 0
M  V30 4202 H 413.728 3.08545 1.97979 0
M  V30 4203 H 413.376 2.47443 4.37928 0
M  V30 4204 H 413.076 4.20826 4.10097 0
M  V30 4205 H 414.6 3.68218 4.87081 0
M  V30 4206 H 416.014 4.9099 2.95976 0
M  V30 4207 H 414.411 5.49044 2.42221 0
M  V30 4208 H 415.481 4.68165 1.26291 0
M  V30 4209 N 416.824 -0.551391 1.4764 0
M  V30 4210 C 417.754 -1.66757 1.63445 0
M  V30 4211 C 418.735 -1.63077 0.483742 0
M  V30 4212 O 419.92 -1.80607 0.71377 0
M  V30 4213 C 417.05 -3.05387 1.65396 0
M  V30 4214 C 416.004 -3.23918 2.79752 0
M  V30 4215 C 415.33 -4.63393 2.66779 0
M  V30 4216 C 416.63 -3.08735 4.21284 0
M  V30 4217 H 418.324 -1.53786 2.56886 0
M  V30 4218 H 415.87 -0.738415 1.23626 0
M  V30 4219 H 417.823 -3.83325 1.75043 0
M  V30 4220 H 416.547 -3.19332 0.685195 0
M  V30 4221 H 415.206 -2.48391 2.69625 0
M  V30 4222 H 414.854 -4.74144 1.67918 0
M  V30 4223 H 414.554 -4.7674 3.43501 0
M  V30 4224 H 416.078 -5.43458 2.78364 0
M  V30 4225 H 417.492 -3.76484 4.32357 0
M  V30 4226 H 415.889 -3.33588 4.98838 0
M  V30 4227 H 416.959 -2.0541 4.39243 0
M  V30 4228 N 418.302 -1.35869 -0.798587 0
M  V30 4229 C 419.551 -1.28921 -1.5512 0
M  V30 4230 C 419.864 0.13208 -1.95154 0
M  V30 4231 O 421.07 0.323879 -2.69561 0
M  V30 4232 C 419.526 -2.26141 -2.79979 0
M  V30 4233 C 419.134 -3.73658 -2.47151 0
M  V30 4234 C 420.878 -2.28152 -3.57976 0
M  V30 4235 C 418.785 -4.62679 -3.6835 0
M  V30 4236 H 417.715 -0.479031 -0.582276 0
M  V30 4237 H 420.366 -1.61179 -0.877125 0
M  V30 4238 H 418.748 -1.86865 -3.49138 0
M  V30 4239 H 419.922 -4.21616 -1.85947 0
M  V30 4240 H 418.237 -3.74333 -1.82383 0
M  V30 4241 H 420.834 -2.91875 -4.4801 0
M  V30 4242 H 421.177 -1.28748 -3.95891 0
M  V30 4243 H 421.71 -2.65998 -2.95787 0
M  V30 4244 H 418.449 -5.63111 -3.35538 0
M  V30 4245 H 417.969 -4.19442 -4.28752 0
M  V30 4246 H 419.648 -4.78498 -4.35487 0
M  V30 4247 N 419.78 1.02168 -1.19998 0
M  V30 4248 C 420.727 2.10601 -0.944228 0
M  V30 4249 C 421.697 1.65639 0.123664 0
M  V30 4250 O 422.882 1.9079 -0.0199941 0
M  V30 4251 C 420.022 3.41504 -0.496865 0
M  V30 4252 C 419.135 3.99973 -1.63234 0
M  V30 4253 C 418.27 5.18915 -1.13579 0
M  V30 4254 C 417.309 5.69456 -2.24468 0
M  V30 4255 N 416.446 6.79665 -1.76068 0
M  V30 4256 H 421.286 2.31814 -1.8726 0
M  V30 4257 H 418.823 1.13686 -0.933483 0
M  V30 4258 H 420.781 4.16626 -0.218843 0
M  V30 4259 H 419.411 3.2038 0.394508 0
M  V30 4260 H 418.463 3.21997 -2.0254 0
M  V30 4261 H 419.775 4.33492 -2.46752 0
M  V30 4262 H 418.929 6.01222 -0.813429 0
M  V30 4263 H 417.668 4.8695 -0.270434 0
M  V30 4264 H 416.673 4.85757 -2.57526 0
M  V30 4265 H 417.898 6.03459 -3.11472 0
M  V30 4266 H 415.844 6.49538 -0.918516 0
M  V30 4267 H 415.761 7.12349 -2.5317 0
M  V30 4268 H 417.029 7.65549 -1.46817 0
M  V30 4269 N 421.258 1.00505 1.21394 0
M  V30 4270 C 422.221 0.570459 2.21987 0
M  V30 4271 C 423.221 -0.353211 1.56873 0
M  V30 4272 O 424.411 -0.14349 1.73608 0
M  V30 4273 C 421.543 -0.168555 3.40483 0
M  V30 4274 H 422.736 1.46021 2.6195 0
M  V30 4275 H 420.289 0.793565 1.34656 0
M  V30 4276 H 421.024 -1.07374 3.06009 0
M  V30 4277 H 420.809 0.494823 3.88965 0
M  V30 4278 H 422.299 -0.460362 4.15055 0
M  V30 4279 N 422.737 -1.36956 0.779787 0
M  V30 4280 C 423.667 -2.32761 0.185651 0
M  V30 4281 C 424.648 -1.56177 -0.673989 0
M  V30 4282 O 425.833 -1.84378 -0.609797 0
M  V30 4283 C 422.963 -3.40418 -0.687964 0
M  V30 4284 C 421.917 -4.27941 0.0710102 0
M  V30 4285 C 421.243 -5.26681 -0.922573 0
M  V30 4286 C 422.543 -5.07006 1.25467 0
M  V30 4287 H 424.237 -2.82698 0.986008 0
M  V30 4288 H 421.783 -1.3592 0.475592 0
M  V30 4289 H 423.736 -4.06423 -1.11348 0
M  V30 4290 H 422.46 -2.89025 -1.52093 0
M  V30 4291 H 421.119 -3.63478 0.47739 0
M  V30 4292 H 420.767 -4.71565 -1.7503 0
M  V30 4293 H 420.467 -5.86103 -0.419237 0
M  V30 4294 H 421.991 -5.9556 -1.34686 0
M  V30 4295 H 423.405 -5.66105 0.905401 0
M  V30 4296 H 421.802 -5.75793 1.69063 0
M  V30 4297 H 422.872 -4.3921 2.05481 0
M  V30 4298 N 424.215 -0.530993 -1.48385 0
M  V30 4299 C 425.464 0.00474348 -2.01699 0
M  V30 4300 C 425.777 1.35227 -1.41325 0
M  V30 4301 O 426.983 1.97643 -1.86144 0
M  V30 4302 C 425.439 0.0588473 -3.59852 0
M  V30 4303 C 425.047 -1.28385 -4.2921 0
M  V30 4304 C 426.791 0.543358 -4.21008 0
M  V30 4305 C 424.698 -1.19028 -5.79298 0
M  V30 4306 H 423.628 0.00554317 -0.75398 0
M  V30 4307 H 426.279 -0.674924 -1.70637 0
M  V30 4308 H 424.661 0.803612 -3.8776 0
M  V30 4309 H 425.835 -2.04426 -4.12973 0
M  V30 4310 H 424.15 -1.70418 -3.7993 0
M  V30 4311 H 426.747 0.631351 -5.3096 0
M  V30 4312 H 427.09 1.54937 -3.86394 0
M  V30 4313 H 427.623 -0.145754 -3.97533 0
M  V30 4314 H 424.362 -2.17147 -6.18488 0
M  V30 4315 H 423.882 -0.471246 -5.97946 0
M  V30 4316 H 425.561 -0.881365 -6.40969 0
M  V30 4317 N 425.693 1.55336 -0.266172 0
M  V30 4318 C 426.97 1.91372 0.404486 0
M  V30 4319 C 427.35 1.18935 1.74407 0
M  V30 4320 O 426.698 0.3132 2.26343 0
M  V30 4321 C 426.908 3.44581 0.553593 0
M  V30 4322 C 428.256 4.16196 0.840618 0
M  V30 4323 O 429.28 3.50426 0.638739 0
M  V30 4324 O 428.139 5.32567 1.22618 0
M  V30 4325 H 425.233 0.797194 0.220025 0
M  V30 4326 H 427.779 1.66813 -0.311664 0
M  V30 4327 H 426.551 3.89357 -0.389498 0
M  V30 4328 H 426.174 3.75065 1.31955 0
M  V30 4329 N 427.171 -0.0066808 1.57599 0
M  V30 4330 C 428.103 -1.02827 2.04839 0
M  V30 4331 C 429.116 -1.31108 0.965113 0
M  V30 4332 O 430.305 -1.28202 1.24203 0
M  V30 4333 C 427.405 -2.36464 2.42771 0
M  V30 4334 C 426.578 -2.27219 3.73751 0
M  V30 4335 C 425.637 -3.43489 3.98625 0
M  V30 4336 O 424.663 -3.21976 4.69382 0
M  V30 4337 N 425.865 -4.66116 3.46 0
M  V30 4338 H 428.63 -0.625455 2.93101 0
M  V30 4339 H 426.191 -0.194198 1.60731 0
M  V30 4340 H 428.183 -3.13008 2.56531 0
M  V30 4341 H 426.753 -2.68512 1.60063 0
M  V30 4342 H 425.973 -1.35629 3.70133 0
M  V30 4343 H 427.261 -2.18208 4.59633 0
M  V30 4344 H 426.659 -4.86493 2.88688 0
M  V30 4345 H 425.216 -5.39949 3.65101 0
M  V30 4346 N 428.649 -1.55105 -0.279332 0
M  V30 4347 C 429.897 -1.75066 -1.00977 0
M  V30 4348 C 430.218 -0.551276 -1.87045 0
M  V30 4349 O 429.488 0.433984 -1.91032 0
M  V30 4350 H 428.068 -0.645578 -0.375816 0
M  V30 4351 H 430.73 -1.92497 -0.305089 0
M  V30 4352 H 429.826 -2.64894 -1.65038 0
M  V30 4353 N 430.127 0.543554 -1.4793 0
M  V30 4354 C 431.357 1.32324 -1.58663 0
M  V30 4355 C 431.765 1.8766 -0.240896 0
M  V30 4356 O 431.108 1.66411 0.778011 0
M  V30 4357 C 431.17 2.52094 -2.56299 0
M  V30 4358 C 430.834 2.17944 -4.01683 0
M  V30 4359 C 431.831 1.74422 -4.89768 0
M  V30 4360 C 429.516 2.28884 -4.47121 0
M  V30 4361 C 431.51 1.42287 -6.21316 0
M  V30 4362 C 429.197 1.96361 -5.78693 0
M  V30 4363 C 430.195 1.53132 -6.65612 0
M  V30 4364 O 429.883 1.21029 -7.94737 0
M  V30 4365 H 429.615 0.409174 -0.538101 0
M  V30 4366 H 432.169 0.663887 -1.94375 0
M  V30 4367 H 430.399 3.20965 -2.15681 0
M  V30 4368 H 432.088 3.14165 -2.57012 0
M  V30 4369 H 432.854 1.65452 -4.55907 0
M  V30 4370 H 428.733 2.61488 -3.79664 0
M  V30 4371 H 432.277 1.08472 -6.89115 0
M  V30 4372 H 428.174 2.04967 -6.12094 0
M  V30 4373 H 428.942 1.34543 -8.07366 0
M  V30 4374 N 431.605 1.3629 0.791371 0
M  V30 4375 C 432.538 1.24816 1.9104 0
M  V30 4376 C 433.516 0.132739 1.62057 0
M  V30 4377 O 434.7 0.303527 1.8604 0
M  V30 4378 C 431.827 0.925355 3.25814 0
M  V30 4379 C 430.873 2.05495 3.7373 0
M  V30 4380 S 431.706 3.67255 3.89723 0
M  V30 4381 C 432.862 3.37084 5.27376 0
M  V30 4382 H 433.095 2.19533 2.00481 0
M  V30 4383 H 430.628 1.21684 0.950393 0
M  V30 4384 H 432.586 0.745924 4.03666 0
M  V30 4385 H 431.247 -0.00400098 3.141 0
M  V30 4386 H 430.44 1.7836 4.71385 0
M  V30 4387 H 430.042 2.1935 3.02922 0
M  V30 4388 H 432.334 2.90856 6.1189 0
M  V30 4389 H 433.277 4.33995 5.59512 0
M  V30 4390 H 433.685 2.7248 4.94383 0
M  V30 4391 N 433.083 -1.0153 1.20538 0
M  V30 4392 C 434.03 -2.10098 0.955383 0
M  V30 4393 C 435 -1.65702 -0.114878 0
M  V30 4394 O 436.185 -1.90776 0.0301118 0
M  V30 4395 C 433.325 -3.41236 0.514969 0
M  V30 4396 C 432.438 -3.99102 1.65353 0
M  V30 4397 C 431.573 -5.18306 1.16329 0
M  V30 4398 C 430.612 -5.68258 2.27485 0
M  V30 4399 N 429.749 -6.78722 1.7967 0
M  V30 4400 H 434.589 -2.30818 1.88486 0
M  V30 4401 H 432.126 -1.13189 0.939499 0
M  V30 4402 H 434.084 -4.16504 0.240935 0
M  V30 4403 H 432.714 -3.20585 -0.377512 0
M  V30 4404 H 431.766 -3.20918 2.04245 0
M  V30 4405 H 433.078 -4.32177 2.49047 0
M  V30 4406 H 432.232 -6.00782 0.845302 0
M  V30 4407 H 430.971 -4.86799 0.296254 0
M  V30 4408 H 429.976 -4.84385 2.60099 0
M  V30 4409 H 431.201 -6.01798 3.14667 0
M  V30 4410 H 429.147 -6.49042 0.95295 0
M  V30 4411 H 429.064 -7.10996 2.56944 0
M  V30 4412 H 430.332 -7.64759 1.50875 0
M  V30 4413 N 434.561 -1.01147 -1.20859 0
M  V30 4414 C 435.493 -0.535546 -2.22855 0
M  V30 4415 C 436.506 0.379323 -1.58319 0
M  V30 4416 O 437.695 0.178489 -1.77605 0
M  V30 4417 C 434.795 0.240962 -3.38042 0
M  V30 4418 C 433.968 -0.674562 -4.32167 0
M  V30 4419 C 433.027 0.053467 -5.26173 0
M  V30 4420 O 432.053 -0.567339 -5.66366 0
M  V30 4421 N 433.255 1.32997 -5.65059 0
M  V30 4422 H 436.02 -1.41268 -2.64317 0
M  V30 4423 H 433.581 -0.888386 -1.35349 0
M  V30 4424 H 435.573 0.737115 -3.97931 0
M  V30 4425 H 434.143 1.01935 -2.95513 0
M  V30 4426 H 433.363 -1.35111 -3.70322 0
M  V30 4427 H 434.651 -1.2974 -4.91981 0
M  V30 4428 H 434.049 1.85536 -5.34409 0
M  V30 4429 H 432.606 1.77095 -6.2728 0
M  V30 4430 N 436.039 1.36541 -0.78704 0
M  V30 4431 C 437.288 1.98552 -0.35494 0
M  V30 4432 C 437.601 1.63171 1.07864 0
M  V30 4433 O 438.807 2.18399 1.61289 0
M  V30 4434 C 437.263 3.55136 -0.583671 0
M  V30 4435 C 436.871 3.99444 -2.02851 0
M  V30 4436 C 438.615 4.2395 -0.215957 0
M  V30 4437 C 436.522 5.48796 -2.20403 0
M  V30 4438 H 435.452 0.742888 -0.128972 0
M  V30 4439 H 438.103 1.5587 -0.968337 0
M  V30 4440 H 436.485 3.95875 0.0994046 0
M  V30 4441 H 437.659 3.6991 -2.74779 0
M  V30 4442 H 435.974 3.43459 -2.35425 0
M  V30 4443 H 438.571 5.33709 -0.325405 0
M  V30 4444 H 438.914 4.07827 0.835646 0
M  V30 4445 H 439.447 3.88565 -0.852175 0
M  V30 4446 H 436.186 5.69864 -3.23937 0
M  V30 4447 H 435.706 5.79964 -1.52977 0
M  V30 4448 H 437.385 6.14986 -2.01002 0
M  V30 4449 N 437.518 0.538854 1.48102 0
M  V30 4450 C 438.448 -0.207654 2.32575 0
M  V30 4451 C 439.429 -0.926559 1.4265 0
M  V30 4452 O 440.614 -0.91061 1.71527 0
M  V30 4453 C 437.744 -1.24957 3.24042 0
M  V30 4454 C 436.698 -0.648263 4.23062 0
M  V30 4455 C 436.024 -1.79348 5.03725 0
M  V30 4456 C 437.324 0.385897 5.20872 0
M  V30 4457 H 439.018 0.497534 2.95237 0
M  V30 4458 H 436.564 0.240715 1.41974 0
M  V30 4459 H 438.517 -1.77983 3.81969 0
M  V30 4460 H 437.241 -1.98446 2.59397 0
M  V30 4461 H 435.9 -0.139452 3.66335 0
M  V30 4462 H 435.548 -2.51696 4.35498 0
M  V30 4463 H 435.248 -1.39702 5.70751 0
M  V30 4464 H 436.772 -2.32735 5.64506 0
M  V30 4465 H 438.186 -0.057607 5.73271 0
M  V30 4466 H 436.583 0.700227 5.96001 0
M  V30 4467 H 437.653 1.28848 4.67468 0
M  V30 4468 N 438.996 -1.55193 0.274407 0
M  V30 4469 C 440.242 -1.99877 -0.343086 0
M  V30 4470 C 440.575 -1.16256 -1.55558 0
M  V30 4471 O 439.85 -0.232462 -1.93106 0
M  V30 4472 C 440.133 -3.52706 -0.725965 0
M  V30 4473 C 439.986 -4.47081 0.493818 0
M  V30 4474 C 441.305 -4.11422 -1.56268 0
M  V30 4475 H 438.424 -0.726625 -0.123229 0
M  V30 4476 H 441.066 -1.86136 0.38121 0
M  V30 4477 H 439.216 -3.64546 -1.34307 0
M  V30 4478 H 440.888 -4.47186 1.13237 0
M  V30 4479 H 439.131 -4.1877 1.13201 0
M  V30 4480 H 439.802 -5.51699 0.18217 0
M  V30 4481 H 442.278 -4.02855 -1.04151 0
M  V30 4482 H 441.154 -5.18568 -1.79939 0
M  V30 4483 H 441.415 -3.61607 -2.54348 0
M  V30 4484 N 440.474 -0.00167713 -1.576 0
M  V30 4485 C 441.699 0.69739 -1.95323 0
M  V30 4486 C 442.124 1.6642 -0.876706 0
M  V30 4487 O 441.482 1.80548 0.165007 0
M  V30 4488 C 441.53 1.40403 -3.32144 0
M  V30 4489 O 440.634 2.5185 -3.26566 0
M  V30 4490 H 439.975 0.185373 -0.637599 0
M  V30 4491 H 442.505 -0.0553665 -2.04525 0
M  V30 4492 H 442.515 1.76707 -3.67748 0
M  V30 4493 H 441.19 0.695167 -4.10049 0
M  V30 4494 H 439.767 2.17861 -3.0264 0
M  V30 4495 N 441.952 1.55251 0.271103 0
M  V30 4496 C 442.9 1.89054 1.35504 0
M  V30 4497 C 443.894 0.767064 1.51038 0
M  V30 4498 O 445.1 0.951429 1.528 0
M  V30 4499 H 441.475 0.600072 0.45323 0
M  V30 4500 H 443.446 2.79598 1.04247 0
M  V30 4501 C 442.195 2.18068 2.70817 0
M  V30 4502 H 441.518 3.04005 2.59656 0
M  V30 4503 H 442.958 2.4564 3.45597 0
M  V30 4504 C 441.417 0.988901 3.2206 0
M  V30 4505 O 441.947 0.224501 4.01072 0
M  V30 4506 N 440.153 0.786085 2.79766 0
M  V30 4507 H 439.7 1.40937 2.15626 0
M  V30 4508 H 439.658 -0.00969349 3.14399 0
M  V30 4509 N 443.43 -0.535701 1.48216 0
M  V30 4510 C 444.707 -1.29683 1.46429 0
M  V30 4511 C 445.087 -2.10391 0.172852 0
M  V30 4512 O 444.435 -2.12282 -0.845488 0
M  V30 4513 C 444.645 -2.18313 2.72287 0
M  V30 4514 C 445.993 -2.78639 3.20383 0
M  V30 4515 O 447.017 -2.28604 2.73164 0
M  V30 4516 O 445.876 -3.69636 4.02531 0
M  V30 4517 H 442.97 -0.585026 0.584529 0
M  V30 4518 H 445.516 -0.552827 1.60443 0
M  V30 4519 H 444.288 -1.58421 3.57797 0
M  V30 4520 H 443.911 -2.99971 2.60966 0
M  V30 4521 N 444.908 -1.36708 -0.784132 0
M  V30 4522 C 446.154 -1.32433 -1.54379 0
M  V30 4523 C 446.509 0.0941816 -1.92169 0
M  V30 4524 O 445.802 1.04997 -1.60269 0
M  V30 4525 C 445.996 -2.18571 -2.82774 0
M  V30 4526 C 445.825 -3.68656 -2.57533 0
M  V30 4527 C 444.595 -4.37813 -2.52286 0
M  V30 4528 C 446.793 -4.61802 -2.2637 0
M  V30 4529 N 444.775 -5.7351 -2.18997 0
M  V30 4530 C 446.146 -5.85785 -2.03115 0
M  V30 4531 C 448.201 -4.50313 -2.12421 0
M  V30 4532 C 446.904 -6.99569 -1.67321 0
M  V30 4533 C 448.93 -5.63969 -1.78026 0
M  V30 4534 C 448.292 -6.86994 -1.55622 0
M  V30 4535 H 444.391 -0.539886 -0.565727 0
M  V30 4536 H 446.975 -1.71812 -0.915908 0
M  V30 4537 H 445.146 -1.81429 -3.43421 0
M  V30 4538 H 446.878 -2.05646 -3.48557 0
M  V30 4539 H 443.633 -3.90674 -2.67714 0
M  V30 4540 H 444.057 -6.45189 -2.05084 0
M  V30 4541 H 448.699 -3.55781 -2.28429 0
M  V30 4542 H 446.417 -7.94047 -1.5005 0
M  V30 4543 H 450.003 -5.57044 -1.67909 0
M  V30 4544 H 448.883 -7.7345 -1.294 0
M  V30 4545 N 446.386 1.0089 -1.21074 0
M  V30 4546 C 447.316 2.1145 -0.990523 0
M  V30 4547 C 448.297 1.69897 0.0831699 0
M  V30 4548 O 449.482 1.94052 -0.0758853 0
M  V30 4549 C 446.612 3.42914 -0.550177 0
M  V30 4550 C 445.566 3.98244 -1.56799 0
M  V30 4551 C 444.892 5.25568 -0.984013 0
M  V30 4552 C 446.192 4.30752 -2.95381 0
M  V30 4553 H 447.886 2.3013 -1.91521 0
M  V30 4554 H 445.432 1.10592 -0.92225 0
M  V30 4555 H 447.385 4.19653 -0.383305 0
M  V30 4556 H 446.109 3.24014 0.41015 0
M  V30 4557 H 444.768 3.23621 -1.72236 0
M  V30 4558 H 444.416 5.02998 -0.0155216 0
M  V30 4559 H 444.116 5.63551 -1.66384 0
M  V30 4560 H 445.64 6.04955 -0.828378 0
M  V30 4561 H 447.054 4.98349 -2.8341 0
M  V30 4562 H 445.451 4.79869 -3.60341 0
M  V30 4563 H 446.521 3.39192 -3.46521 0
M  V30 4564 N 447.864 1.01787 1.20321 0
M  V30 4565 C 449.111 0.707936 1.89722 0
M  V30 4566 C 449.439 -0.762535 1.78929 0
M  V30 4567 O 448.694 -1.56977 1.16861 0
M  V30 4568 C 448.993 1.09076 3.40349 0
M  V30 4569 C 448.659 2.55765 3.71342 0
M  V30 4570 C 447.321 2.95845 3.79511 0
M  V30 4571 C 449.673 3.50723 3.85542 0
M  V30 4572 C 447.001 4.2982 3.99339 0
M  V30 4573 C 449.353 4.84387 4.06881 0
M  V30 4574 C 448.017 5.24172 4.1328 0
M  V30 4575 H 447.287 0.259052 0.694243 0
M  V30 4576 H 449.934 1.27868 1.42555 0
M  V30 4577 H 448.239 0.438453 3.89339 0
M  V30 4578 H 449.936 0.828636 3.92345 0
M  V30 4579 H 446.526 2.2371 3.65584 0
M  V30 4580 H 450.71 3.20916 3.78585 0
M  V30 4581 H 445.966 4.60196 4.02529 0
M  V30 4582 H 450.14 5.57891 4.1681 0
M  V30 4583 H 447.767 6.27997 4.28396 0
M  V30 4584 N 449.342 -1.36122 0.79427 0
M  V30 4585 C 450.59 -1.98718 0.368177 0
M  V30 4586 C 450.911 -1.63345 -1.06506 0
M  V30 4587 O 450.181 -0.909825 -1.73491 0
M  V30 4588 H 448.761 -0.735038 0.133146 0
M  V30 4589 H 451.423 -1.66239 1.01739 0
M  V30 4590 H 450.519 -3.08633 0.463923 0
M  V30 4591 N 450.82 -0.546701 -1.47814 0
M  V30 4592 C 452.067 -0.0187407 -2.02491 0
M  V30 4593 C 452.395 1.32685 -1.42215 0
M  V30 4594 O 451.65 1.87413 -0.563454 0
M  V30 4595 C 451.949 0.134869 -3.57145 0
M  V30 4596 C 451.615 -1.13849 -4.3629 0
M  V30 4597 C 450.277 -1.48743 -4.57634 0
M  V30 4598 C 452.629 -1.98277 -4.82012 0
M  V30 4599 C 449.957 -2.67932 -5.21948 0
M  V30 4600 C 452.309 -3.16659 -5.4764 0
M  V30 4601 C 450.973 -3.51879 -5.67219 0
M  V30 4602 H 450.243 -0.0068577 -0.740968 0
M  V30 4603 H 452.89 -0.716097 -1.77607 0
M  V30 4604 H 451.195 0.915118 -3.80963 0
M  V30 4605 H 452.892 0.558556 -3.97091 0
M  V30 4606 H 449.482 -0.856767 -4.19949 0
M  V30 4607 H 453.666 -1.72628 -4.6531 0
M  V30 4608 H 448.922 -2.95401 -5.35302 0
M  V30 4609 H 453.096 -3.82374 -5.82033 0
M  V30 4610 H 450.723 -4.44331 -6.16825 0
M  V30 4611 N 452.299 1.55045 -0.282633 0
M  V30 4612 C 453.524 2.04628 0.337977 0
M  V30 4613 C 453.949 1.15937 1.48123 0
M  V30 4614 O 453.307 0.159532 1.80597 0
M  V30 4615 C 453.355 3.51854 0.78936 0
M  V30 4616 O 452.459 3.66236 1.89592 0
M  V30 4617 H 451.8 0.660434 0.0687261 0
M  V30 4618 H 454.33 2.00261 -0.419124 0
M  V30 4619 H 454.34 3.93361 1.08311 0
M  V30 4620 H 453.015 4.15873 -0.0470419 0
M  V30 4621 H 451.592 3.36633 1.60413 0
M  V30 4622 N 453.777 0.010035 1.57597 0
M  V30 4623 C 455.002 -0.687021 1.95691 0
M  V30 4624 C 455.427 -1.65952 0.885519 0
M  V30 4625 O 454.785 -1.80633 -0.15543 0
M  V30 4626 C 454.833 -1.3864 3.32884 0
M  V30 4627 O 453.937 -2.50115 3.27897 0
M  V30 4628 H 453.278 -0.181989 0.638573 0
M  V30 4629 H 455.808 0.0662122 2.04493 0
M  V30 4630 H 455.818 -1.74754 3.6868 0
M  V30 4631 H 454.493 -0.673411 4.10412 0
M  V30 4632 H 453.07 -2.16253 3.03791 0
M  V30 4633 N 455.255 -1.55392 -0.262866 0
M  V30 4634 C 456.485 -1.80251 -1.00961 0
M  V30 4635 C 456.893 -0.58117 -1.80053 0
M  V30 4636 O 456.236 0.459427 -1.77862 0
M  V30 4637 C 456.298 -2.98207 -2.00781 0
M  V30 4638 C 455.962 -4.34856 -1.40533 0
M  V30 4639 C 456.959 -5.13459 -0.815853 0
M  V30 4640 C 454.644 -4.8153 -1.42948 0
M  V30 4641 C 456.638 -6.36875 -0.258562 0
M  V30 4642 C 454.325 -6.04899 -0.868334 0
M  V30 4643 C 455.323 -6.8241 -0.283884 0
M  V30 4644 O 455.011 -8.03451 0.268644 0
M  V30 4645 H 454.743 -0.604049 -0.303482 0
M  V30 4646 H 457.297 -2.03257 -0.295926 0
M  V30 4647 H 455.527 -2.70917 -2.75936 0
M  V30 4648 H 457.216 -3.10299 -2.61667 0
M  V30 4649 H 457.982 -4.78526 -0.789812 0
M  V30 4650 H 453.861 -4.21201 -1.87378 0
M  V30 4651 H 457.405 -6.97318 0.198257 0
M  V30 4652 H 453.302 -6.39312 -0.891649 0
M  V30 4653 H 454.07 -8.18346 0.158974 0
M  V30 4654 N 456.733 0.527833 -1.48498 0
M  V30 4655 C 457.979 1.28545 -1.56857 0
M  V30 4656 C 458.312 1.92678 -0.242651 0
M  V30 4657 O 457.587 1.79394 0.751545 0
M  V30 4658 C 457.87 2.37314 -2.70839 0
M  V30 4659 C 457.723 1.77858 -4.13142 0
M  V30 4660 C 459.042 3.39068 -2.80573 0
M  V30 4661 H 456.161 0.466006 -0.570971 0
M  V30 4662 H 458.803 0.587784 -1.8068 0
M  V30 4663 H 456.953 2.96821 -2.50658 0
M  V30 4664 H 458.625 1.22385 -4.44769 0
M  V30 4665 H 456.868 1.08383 -4.20042 0
M  V30 4666 H 457.539 2.56624 -4.88721 0
M  V30 4667 H 460.015 2.89518 -2.98862 0
M  V30 4668 H 458.891 4.12566 -3.6205 0
M  V30 4669 H 459.152 3.9975 -1.88818 0
M  V30 4670 N 458.211 1.37122 0.776871 0
M  V30 4671 C 459.439 1.3523 1.5659 0
M  V30 4672 C 459.854 -0.0635518 1.88693 0
M  V30 4673 O 459.211 -1.02394 1.51069 0
M  V30 4674 C 459.262 2.18583 2.8793 0
M  V30 4675 O 458.983 3.5465 2.57206 0
M  V30 4676 C 460.484 2.24612 3.82183 0
M  V30 4677 H 457.704 0.4634 0.485285 0
M  V30 4678 H 460.248 1.80392 0.963266 0
M  V30 4679 H 458.403 1.76943 3.4463 0
M  V30 4680 H 458.817 3.98286 3.41275 0
M  V30 4681 H 460.291 2.87267 4.71361 0
M  V30 4682 H 460.768 1.25309 4.20944 0
M  V30 4683 H 461.374 2.66543 3.31414 0
M  V30 4684 N 459.689 -1.00246 1.21608 0
M  V30 4685 C 460.637 -2.11193 0.97469 0
M  V30 4686 C 461.631 -1.69216 -0.0789303 0
M  V30 4687 O 462.837 -1.79853 0.0726806 0
M  V30 4688 H 459.212 -0.690455 0.297953 0
M  V30 4689 H 461.183 -2.2873 1.91638 0
M  V30 4690 C 459.932 -3.43182 0.558717 0
M  V30 4691 H 459.255 -3.75918 1.3611 0
M  V30 4692 H 460.695 -4.21823 0.429154 0
M  V30 4693 C 459.154 -3.28882 -0.730648 0
M  V30 4694 O 459.684 -3.59835 -1.78554 0
M  V30 4695 N 457.89 -2.8209 -0.698131 0
M  V30 4696 H 457.437 -2.57099 0.16061 0
M  V30 4697 H 457.395 -2.72903 -1.56113 0
M  V30 4698 N 461.167 -1.02423 -1.1978 0
M  V30 4699 C 462.416 -0.713265 -1.88667 0
M  V30 4700 C 462.729 0.7609 -1.80193 0
M  V30 4701 O 463.935 1.18473 -2.44288 0
M  V30 4702 C 462.391 -1.22545 -3.38394 0
M  V30 4703 C 461.999 -2.72706 -3.55437 0
M  V30 4704 C 463.743 -0.990257 -4.12788 0
M  V30 4705 C 461.65 -3.17367 -4.99031 0
M  V30 4706 H 460.58 -0.263105 -0.706606 0
M  V30 4707 H 463.231 -1.23792 -1.35454 0
M  V30 4708 H 461.613 -0.628732 -3.90977 0
M  V30 4709 H 462.787 -3.37993 -3.13205 0
M  V30 4710 H 461.102 -2.94453 -2.94425 0
M  V30 4711 H 463.699 -1.29926 -5.18675 0
M  V30 4712 H 464.042 0.0730761 -4.16236 0
M  V30 4713 H 464.575 -1.55074 -3.66329 0
M  V30 4714 H 461.314 -4.23009 -5.00743 0
M  V30 4715 H 460.834 -2.56805 -5.42044 0
M  V30 4716 H 462.513 -3.10441 -5.67658 0
M  V30 4717 N 462.645 1.35699 -0.801477 0
M  V30 4718 C 463.578 2.2768 -0.153922 0
M  V30 4719 C 464.556 1.47832 0.67709 0
M  V30 4720 O 465.74 1.77104 0.645474 0
M  V30 4721 C 462.867 3.2943 0.786986 0
M  V30 4722 C 461.913 4.26485 0.0362447 0
M  V30 4723 S 462.746 5.19573 -1.2963 0
M  V30 4724 C 463.902 6.24866 -0.359705 0
M  V30 4725 H 464.135 2.82254 -0.9338 0
M  V30 4726 H 461.668 1.42421 -0.596283 0
M  V30 4727 H 463.626 3.8855 1.32436 0
M  V30 4728 H 462.287 2.73745 1.54021 0
M  V30 4729 H 461.48 4.98378 0.750668 0
M  V30 4730 H 461.082 3.71508 -0.431017 0
M  V30 4731 H 463.374 6.75957 0.456954 0
M  V30 4732 H 464.317 7.00307 -1.04768 0
M  V30 4733 H 464.725 5.64484 0.0423274 0
M  V30 4734 N 464.123 0.554532 1.47522 0
M  V30 4735 C 465.4 -0.0360704 1.95567 0
M  V30 4736 C 465.78 -1.48828 1.49711 0
M  V30 4737 O 465.128 -2.16366 0.734717 0
M  V30 4738 C 465.338 0.106631 3.48837 0
M  V30 4739 C 466.686 -0.0400899 4.24581 0
M  V30 4740 O 467.71 0.0340453 3.56184 0
M  V30 4741 O 466.569 -0.199111 5.46137 0
M  V30 4742 H 463.663 -0.0656294 0.824392 0
M  V30 4743 H 466.209 0.620867 1.57935 0
M  V30 4744 H 464.981 1.11727 3.7501 0
M  V30 4745 H 464.604 -0.58804 3.93227 0
M  V30 4746 N 465.601 -1.54893 0.290851 0
M  V30 4747 C 466.847 -2.0023 -0.321867 0
M  V30 4748 C 467.18 -1.179 -1.54316 0
M  V30 4749 O 466.455 -0.25293 -1.92848 0
M  V30 4750 C 466.738 -3.53456 -0.688515 0
M  V30 4751 C 466.591 -4.46532 0.541209 0
M  V30 4752 C 467.91 -4.13057 -1.51895 0
M  V30 4753 H 465.029 -0.727891 -0.115515 0
M  V30 4754 H 467.671 -1.85722 0.400931 0
M  V30 4755 H 465.821 -3.6595 -1.30433 0
M  V30 4756 H 467.493 -4.4596 1.17973 0
M  V30 4757 H 465.736 -4.17545 1.17636 0
M  V30 4758 H 466.407 -5.51475 0.240675 0
M  V30 4759 H 468.883 -4.03937 -0.99872 0
M  V30 4760 H 467.759 -5.20448 -1.74429 0
M  V30 4761 H 468.02 -3.64284 -2.50498 0
M  V30 4762 N 467.08 -0.0183926 -1.57589 0
M  V30 4763 C 468.013 1.00148 -2.0505 0
M  V30 4764 C 468.991 1.32387 -0.944058 0
M  V30 4765 O 470.175 1.44237 -1.21358 0
M  V30 4766 C 467.302 2.32435 -2.46357 0
M  V30 4767 C 466.348 2.15731 -3.67916 0
M  V30 4768 S 467.181 1.46613 -5.15039 0
M  V30 4769 C 468.337 2.80293 -5.59631 0
M  V30 4770 H 468.57 0.597429 -2.91235 0
M  V30 4771 H 466.103 0.193002 -1.53189 0
M  V30 4772 H 468.061 3.0849 -2.70822 0
M  V30 4773 H 466.722 2.69975 -1.60537 0
M  V30 4774 H 465.915 3.13502 -3.9463 0
M  V30 4775 H 465.517 1.4782 -3.43548 0
M  V30 4776 H 467.809 3.76557 -5.63215 0
M  V30 4777 H 468.752 2.58256 -6.59325 0
M  V30 4778 H 469.16 2.85047 -4.87246 0
M  V30 4779 N 468.558 1.5553 0.254621 0
M  V30 4780 C 469.835 1.6774 1.00611 0
M  V30 4781 C 470.215 0.555993 2.03647 0
M  V30 4782 O 469.563 -0.441583 2.24193 0
M  V30 4783 C 469.773 3.07725 1.6464 0
M  V30 4784 C 471.121 3.66074 2.15116 0
M  V30 4785 O 472.145 3.10476 1.74595 0
M  V30 4786 O 471.004 4.63526 2.89493 0
M  V30 4787 H 468.098 0.681958 0.467828 0
M  V30 4788 H 470.644 1.67863 0.24902 0
M  V30 4789 H 469.416 3.80792 0.900734 0
M  V30 4790 H 469.039 3.1158 2.46989 0
M  V30 4791 N 470.036 -0.519951 1.48776 0
M  V30 4792 C 471.452 -0.849418 1.35119 0
M  V30 4793 C 471.652 -1.98077 0.36982 0
M  V30 4794 O 470.708 -2.51664 -0.205359 0
M  V30 4795 C 472.021 -1.20748 2.75391 0
M  V30 4796 C 473.569 -1.31679 2.83954 0
M  V30 4797 C 474.044 -1.70824 4.24951 0
M  V30 4798 N 475.535 -1.77908 4.27672 0
M  V30 4799 C 476.27 -2.09603 5.33717 0
M  V30 4800 N 475.766 -2.39652 6.5003 0
M  V30 4801 N 477.559 -2.10694 5.21119 0
M  V30 4802 H 469.71 0.226377 2.1119 0
M  V30 4803 H 471.973 0.0386519 0.947212 0
M  V30 4804 H 471.679 -0.449703 3.48813 0
M  V30 4805 H 471.553 -2.15534 3.09556 0
M  V30 4806 H 473.94 -2.06532 2.10781 0
M  V30 4807 H 474.021 -0.3499 2.53396 0
M  V30 4808 H 473.665 -0.965282 4.98643 0
M  V30 4809 H 473.595 -2.6858 4.52959 0
M  V30 4810 H 476.086 -1.56923 3.43779 0
M  V30 4811 H 476.399 -2.6297 7.26682 0
M  V30 4812 H 474.744 -2.37149 6.53288 0
M  V30 4813 H 477.935 -1.86682 4.29264 0
M  V30 4814 H 478.108 -2.35062 6.03863 0
M  V30 4815 N 471.514 -1.37532 -0.769588 0
M  V30 4816 C 472.76 -1.33057 -1.53048 0
M  V30 4817 C 473.093 0.0841865 -1.94017 0
M  V30 4818 O 472.368 1.04198 -1.64235 0
M  V30 4819 C 472.651 -2.27166 -2.79406 0
M  V30 4820 C 472.504 -3.77429 -2.44677 0
M  V30 4821 C 473.823 -2.19683 -3.81349 0
M  V30 4822 H 470.942 -0.484655 -0.555228 0
M  V30 4823 H 473.584 -1.68251 -0.882702 0
M  V30 4824 H 471.734 -1.97283 -3.34682 0
M  V30 4825 H 473.406 -4.17918 -1.953 0
M  V30 4826 H 471.649 -3.95892 -1.77346 0
M  V30 4827 H 472.32 -4.38716 -3.35011 0
M  V30 4828 H 474.796 -2.46029 -3.35573 0
M  V30 4829 H 473.672 -2.87668 -4.67481 0
M  V30 4830 H 473.933 -1.19045 -4.25771 0
M  V30 4831 N 472.992 0.995999 -1.22138 0
M  V30 4832 C 473.94 2.10673 -0.985876 0
M  V30 4833 C 474.934 1.69255 0.0699553 0
M  V30 4834 O 476.14 1.79812 -0.0822176 0
M  V30 4835 H 472.515 0.688865 -0.30161 0
M  V30 4836 H 474.486 2.27711 -1.92848 0
M  V30 4837 C 473.235 3.42881 -0.576909 0
M  V30 4838 H 472.558 3.75191 -1.38101 0
M  V30 4839 H 473.998 4.21589 -0.451518 0
M  V30 4840 C 472.457 3.29265 0.713196 0
M  V30 4841 O 472.987 3.60777 1.76643 0
M  V30 4842 N 471.193 2.82456 0.683162 0
M  V30 4843 H 470.74 2.5701 -0.174242 0
M  V30 4844 H 470.698 2.73727 1.54663 0
M  V30 4845 N 474.47 1.03057 1.19235 0
M  V30 4846 C 475.881 0.757449 1.70645 0
M  V30 4847 C 476.232 -0.722735 1.82403 0
M  V30 4848 O 475.357 -1.56325 1.49638 0
M  V30 4849 C 475.952 1.36833 3.09939 0
M  V30 4850 C 474.511 1.14375 3.58602 0
M  V30 4851 C 473.658 1.46533 2.35422 0
M  V30 4852 H 476.609 1.19828 1.04052 0
M  V30 4853 H 476.63 0.766184 3.72706 0
M  V30 4854 H 476.142 2.44562 3.01349 0
M  V30 4855 H 474.243 0.0847542 3.72504 0
M  V30 4856 H 474.356 1.83366 4.42622 0
M  V30 4857 H 472.72 0.884712 2.38841 0
M  V30 4858 H 473.503 2.55349 2.2946 0
M  V30 4859 N 475.948 -1.35272 0.808662 0
M  V30 4860 C 477.225 -1.93077 0.313181 0
M  V30 4861 C 477.605 -1.73847 -1.19752 0
M  V30 4862 O 476.953 -1.1087 -1.998 0
M  V30 4863 C 477.163 -3.41347 0.726859 0
M  V30 4864 C 478.511 -4.18493 0.717532 0
M  V30 4865 O 479.535 -3.4987 0.668535 0
M  V30 4866 O 478.394 -5.40937 0.777779 0
M  V30 4867 H 475.488 -0.822885 0.0824018 0
M  V30 4868 H 478.034 -1.44335 0.892499 0
M  V30 4869 H 476.806 -3.49082 1.76797 0
M  V30 4870 H 476.429 -3.97411 0.122461 0
M  V30 4871 N 477.426 -0.562348 -1.47226 0
M  V30 4872 C 478.674 -0.0401371 -2.0206 0
M  V30 4873 C 478.995 1.3165 -1.43852 0
M  V30 4874 O 478.265 1.85976 -0.615599 0
M  V30 4875 H 476.845 -0.0118479 -0.746906 0
M  V30 4876 H 479.507 -0.73352 -1.8057 0
M  V30 4877 H 478.603 0.0441254 -3.12069 0
M  V30 4878 N 478.904 1.54736 -0.299062 0
M  V30 4879 C 479.837 2.1962 0.619851 0
M  V30 4880 C 480.815 1.16496 1.13434 0
M  V30 4881 O 481.999 1.4513 1.2029 0
M  V30 4882 C 479.126 2.8385 1.84788 0
M  V30 4883 C 478.172 4.00484 1.46679 0
M  V30 4884 S 479.005 5.32926 0.524389 0
M  V30 4885 C 480.161 6.00638 1.76026 0
M  V30 4886 H 480.394 2.97221 0.0686177 0
M  V30 4887 H 477.927 1.54176 -0.0832085 0
M  V30 4888 H 479.885 3.21483 2.55263 0
M  V30 4889 H 478.546 2.06099 2.37028 0
M  V30 4890 H 477.739 4.44201 2.38121 0
M  V30 4891 H 477.341 3.64398 0.842008 0
M  V30 4892 H 479.633 6.21327 2.70109 0
M  V30 4893 H 480.576 6.94805 1.36569 0
M  V30 4894 H 480.984 5.3026 1.93609 0
M  V30 4895 N 480.382 0.0267497 1.57577 0
M  V30 4896 C 481.345 -0.940916 2.08996 0
M  V30 4897 C 482.345 -1.25561 1.00455 0
M  V30 4898 O 483.535 -1.19634 1.26623 0
M  V30 4899 C 480.667 -2.25814 2.55384 0
M  V30 4900 H 481.86 -0.495628 2.95776 0
M  V30 4901 H 479.413 -0.221241 1.54726 0
M  V30 4902 H 480.148 -2.74976 1.71926 0
M  V30 4903 H 479.933 -2.04285 3.34679 0
M  V30 4904 H 481.423 -2.95178 2.95398 0
M  V30 4905 N 481.861 -1.55662 -0.24637 0
M  V30 4906 C 483.108 -1.77519 -0.974335 0
M  V30 4907 C 483.436 -0.591165 -1.85298 0
M  V30 4908 O 482.691 0.425497 -1.91018 0
M  V30 4909 C 482.99 -3.04885 -1.86494 0
M  V30 4910 C 482.656 -4.36209 -1.14161 0
M  V30 4911 C 481.318 -4.71896 -0.941701 0
M  V30 4912 C 483.67 -5.17391 -0.628957 0
M  V30 4913 C 480.998 -5.86299 -0.216852 0
M  V30 4914 C 483.35 -6.32546 0.0824273 0
M  V30 4915 C 482.014 -6.66853 0.293807 0
M  V30 4916 H 481.284 -0.649588 -0.356535 0
M  V30 4917 H 483.931 -1.89934 -0.244394 0
M  V30 4918 H 482.236 -2.87484 -2.66196 0
M  V30 4919 H 483.933 -3.18994 -2.42989 0
M  V30 4920 H 480.523 -4.08174 -1.30736 0
M  V30 4921 H 484.707 -4.90276 -0.770943 0
M  V30 4922 H 479.963 -6.11385 -0.0426124 0
M  V30 4923 H 484.137 -6.94693 0.487292 0
M  V30 4924 H 481.764 -7.55349 0.857428 0
M  V30 4925 N 483.339 0.512053 -1.4905 0
M  V30 4926 C 484.588 1.26343 -1.57227 0
M  V30 4927 C 484.901 1.93876 -0.259155 0
M  V30 4928 O 486.107 2.70612 -0.219358 0
M  V30 4929 C 484.563 2.29343 -2.77362 0
M  V30 4930 C 484.171 1.67799 -4.15388 0
M  V30 4931 C 485.915 3.05378 -2.94864 0
M  V30 4932 C 483.822 2.68845 -5.2676 0
M  V30 4933 H 482.752 0.475231 -0.585382 0
M  V30 4934 H 485.403 0.53862 -1.75417 0
M  V30 4935 H 483.785 3.04938 -2.52643 0
M  V30 4936 H 484.959 0.982715 -4.50199 0
M  V30 4937 H 483.274 1.04194 -4.03153 0
M  V30 4938 H 485.871 3.80921 -3.75238 0
M  V30 4939 H 486.214 3.62327 -2.05 0
M  V30 4940 H 486.747 2.36898 -3.19569 0
M  V30 4941 H 483.486 2.16692 -6.18647 0
M  V30 4942 H 483.006 3.36647 -4.96416 0
M  V30 4943 H 484.685 3.31487 -5.5563 0
M  V30 4944 N 484.817 1.37938 0.762283 0
M  V30 4945 C 486.228 1.30094 1.33912 0
M  V30 4946 C 486.579 -0.0472026 1.96143 0
M  V30 4947 O 485.704 -0.94917 1.94473 0
M  V30 4948 C 486.299 2.35592 2.43478 0
M  V30 4949 C 484.858 2.31353 2.96905 0
M  V30 4950 C 484.005 2.18919 1.70205 0
M  V30 4951 H 486.956 1.48423 0.561816 0
M  V30 4952 H 486.977 2.00806 3.23199 0
M  V30 4953 H 486.489 3.33701 1.98155 0
M  V30 4954 H 484.59 1.36799 3.46579 0
M  V30 4955 H 484.703 3.25147 3.51875 0
M  V30 4956 H 483.067 1.65624 1.93496 0
M  V30 4957 H 483.85 3.18956 1.26973 0
M  V30 4958 N 486.295 -0.989507 1.22664 0
M  V30 4959 C 487.225 -2.09847 1.02404 0
M  V30 4960 C 488.206 -1.70007 -0.0561303 0
M  V30 4961 O 489.391 -1.93906 0.106748 0
M  V30 4962 C 486.521 -3.41996 0.604663 0
M  V30 4963 C 485.475 -3.95699 1.63115 0
M  V30 4964 C 484.801 -5.23936 1.0675 0
M  V30 4965 C 486.101 -4.25999 3.02196 0
M  V30 4966 H 487.795 -2.27054 1.95158 0
M  V30 4967 H 485.341 -1.09111 0.939727 0
M  V30 4968 H 487.294 -4.1899 0.45002 0
M  V30 4969 H 486.018 -3.24626 -0.35855 0
M  V30 4970 H 484.677 -3.2084 1.77362 0
M  V30 4971 H 484.325 -5.02909 0.0955422 0
M  V30 4972 H 484.025 -5.60833 1.75328 0
M  V30 4973 H 485.549 -6.0356 0.924516 0
M  V30 4974 H 486.963 -4.93777 2.91303 0
M  V30 4975 H 485.36 -4.74076 3.67929 0
M  V30 4976 H 486.43 -3.33636 3.51873 0
M  V30 4977 N 487.773 -1.03688 -1.18687 0
M  V30 4978 C 489.189 -0.755413 -1.4059 0
M  V30 4979 C 489.389 0.656659 -1.905 0
M  V30 4980 O 488.445 1.42144 -2.08689 0
M  V30 4981 C 489.758 -1.7983 -2.41001 0
M  V30 4982 C 491.306 -1.81877 -2.54735 0
M  V30 4983 C 491.781 -2.85148 -3.58406 0
M  V30 4984 N 493.272 -2.84015 -3.6591 0
M  V30 4985 C 494.007 -3.60573 -4.45841 0
M  V30 4986 N 493.503 -4.46871 -5.29413 0
M  V30 4987 N 495.296 -3.49079 -4.40568 0
M  V30 4988 H 487.447 -1.94818 -0.846148 0
M  V30 4989 H 489.71 -0.842727 -0.434184 0
M  V30 4990 H 489.416 -2.81097 -2.1137 0
M  V30 4991 H 489.29 -1.62727 -3.40294 0
M  V30 4992 H 491.677 -0.812836 -2.83685 0
M  V30 4993 H 491.758 -2.03057 -1.55568 0
M  V30 4994 H 491.402 -3.85918 -3.30197 0
M  V30 4995 H 491.332 -2.61224 -4.57241 0
M  V30 4996 H 493.823 -2.21431 -3.0623 0
M  V30 4997 H 494.136 -5.02007 -5.87545 0
M  V30 4998 H 492.481 -4.5094 -5.28846 0
M  V30 4999 H 495.672 -2.81066 -3.74325 0
M  V30 5000 H 495.845 -4.08994 -5.02621 0
M  V30 5001 N 489.251 1.34841 -0.815825 0
M  V30 5002 C 490.497 1.98793 -0.401129 0
M  V30 5003 C 490.83 1.64548 1.03139 0
M  V30 5004 O 490.105 0.913487 1.71714 0
M  V30 5005 C 490.388 3.55143 -0.595409 0
M  V30 5006 C 490.241 3.99155 -2.07352 0
M  V30 5007 C 491.56 4.40092 -0.0268823 0
M  V30 5008 H 488.679 0.722146 -0.14722 0
M  V30 5009 H 491.321 1.59847 -1.02707 0
M  V30 5010 H 489.471 3.8845 -0.0625779 0
M  V30 5011 H 491.143 3.76216 -2.66945 0
M  V30 5012 H 489.386 3.49726 -2.56659 0
M  V30 5013 H 490.057 5.07971 -2.1603 0
M  V30 5014 H 492.533 4.13298 -0.482042 0
M  V30 5015 H 491.409 5.48562 -0.19267 0
M  V30 5016 H 491.67 4.29016 1.06759 0
M  V30 5017 N 490.729 0.570148 1.46925 0
M  V30 5018 C 491.978 0.0487352 2.01641 0
M  V30 5019 C 492.291 -1.31433 1.44861 0
M  V30 5020 O 493.497 -1.92638 1.91318 0
M  V30 5021 C 491.953 0.0365817 3.59881 0
M  V30 5022 C 491.561 1.39719 4.25655 0
M  V30 5023 C 493.305 -0.431545 4.22301 0
M  V30 5024 C 491.212 1.34345 5.75939 0
M  V30 5025 H 490.142 0.0144492 0.753862 0
M  V30 5026 H 492.793 0.719928 1.68788 0
M  V30 5027 H 491.175 -0.700522 3.89755 0
M  V30 5028 H 492.349 2.15303 4.07408 0
M  V30 5029 H 490.664 1.80431 3.75278 0
M  V30 5030 H 493.261 -0.490354 5.32447 0
M  V30 5031 H 493.604 -1.44638 3.90366 0
M  V30 5032 H 494.137 0.251102 3.97007 0
M  V30 5033 H 490.876 2.33469 6.12513 0
M  V30 5034 H 490.396 0.629615 5.96486 0
M  V30 5035 H 492.075 1.051 6.38407 0
M  V30 5036 N 492.207 -1.54576 0.307264 0
M  V30 5037 C 493.618 -1.8579 -0.184121 0
M  V30 5038 C 493.969 -1.22914 -1.52927 0
M  V30 5039 O 493.094 -0.529126 -2.09831 0
M  V30 5040 C 493.689 -3.37081 -0.340862 0
M  V30 5041 C 492.248 -3.68304 -0.776465 0
M  V30 5042 C 491.395 -2.77076 0.111503 0
M  V30 5043 H 494.346 -1.49656 0.528078 0
M  V30 5044 H 494.367 -3.61922 -1.17443 0
M  V30 5045 H 493.879 -3.82815 0.638309 0
M  V30 5046 H 491.98 -3.28092 -1.76596 0
M  V30 5047 H 492.093 -4.75434 -0.591512 0
M  V30 5048 H 490.457 -2.51374 -0.410256 0
M  V30 5049 H 491.24 -3.25632 1.08714 0
M  V30 5050 N 493.685 -0.035106 -1.57561 0
M  V30 5051 C 494.932 0.642229 -1.92046 0
M  V30 5052 C 495.26 1.7179 -0.91206 0
M  V30 5053 O 494.515 1.95544 0.0781153 0
M  V30 5054 C 494.814 1.29149 -3.3325 0
M  V30 5055 C 494.48 0.345604 -4.49574 0
M  V30 5056 C 493.142 0.0852775 -4.81124 0
M  V30 5057 C 495.494 -0.303569 -5.20315 0
M  V30 5058 C 492.822 -0.831927 -5.80772 0
M  V30 5059 C 495.174 -1.20886 -6.20942 0
M  V30 5060 C 493.838 -1.47802 -6.50931 0
M  V30 5061 H 493.108 0.235008 -0.702746 0
M  V30 5062 H 495.755 -0.0981529 -1.91248 0
M  V30 5063 H 494.06 2.10676 -3.30337 0
M  V30 5064 H 495.757 1.82223 -3.57205 0
M  V30 5065 H 492.347 0.558683 -4.24943 0
M  V30 5066 H 496.531 -0.115515 -4.96166 0
M  V30 5067 H 491.787 -1.0481 -6.02349 0
M  V30 5068 H 495.961 -1.71804 -6.74875 0
M  V30 5069 H 493.588 -2.19039 -7.2796 0
M  V30 5070 N 495.163 1.55791 0.238111 0
M  V30 5071 C 496.093 1.94068 1.29846 0
M  V30 5072 C 497.074 0.806726 1.49753 0
M  V30 5073 O 498.259 1.06772 1.62214 0
M  V30 5074 C 495.389 2.24302 2.65153 0
M  V30 5075 C 494.343 3.40032 2.59927 0
M  V30 5076 C 493.669 3.55829 3.99111 0
M  V30 5077 C 494.969 4.75476 2.16148 0
M  V30 5078 H 496.663 2.82887 0.980563 0
M  V30 5079 H 494.209 1.36105 0.470253 0
M  V30 5080 H 496.162 2.4967 3.39475 0
M  V30 5081 H 494.886 1.32318 2.98596 0
M  V30 5082 H 493.545 3.14687 1.88063 0
M  V30 5083 H 493.193 2.6125 4.29834 0
M  V30 5084 H 492.893 4.3366 3.96501 0
M  V30 5085 H 494.417 3.83528 4.7512 0
M  V30 5086 H 495.831 5.00158 2.80205 0
M  V30 5087 H 494.228 5.56472 2.24631 0
M  V30 5088 H 495.298 4.71946 1.11333 0
M  V30 5089 N 496.642 -0.504142 1.49319 0
M  V30 5090 C 498.058 -0.835039 1.36012 0
M  V30 5091 C 498.258 -1.97674 0.390808 0
M  V30 5092 O 497.314 -2.51867 -0.178655 0
M  V30 5093 C 498.627 -1.17821 2.76656 0
M  V30 5094 C 500.175 -1.2866 2.85334 0
M  V30 5095 C 500.65 -1.66307 4.26739 0
M  V30 5096 N 502.141 -1.73362 4.29534 0
M  V30 5097 C 502.876 -2.0393 5.35911 0
M  V30 5098 N 502.372 -2.32744 6.52535 0
M  V30 5099 N 504.165 -2.05155 5.23324 0
M  V30 5100 H 496.316 0.248764 2.10938 0
M  V30 5101 H 498.579 0.0486962 0.946748 0
M  V30 5102 H 498.285 -0.412682 3.4927 0
M  V30 5103 H 498.159 -2.12239 3.11825 0
M  V30 5104 H 500.546 -2.04285 2.1296 0
M  V30 5105 H 500.627 -0.323004 2.53752 0
M  V30 5106 H 500.271 -0.91234 4.99639 0
M  V30 5107 H 500.201 -2.63761 4.55782 0
M  V30 5108 H 502.692 -1.53268 3.45424 0
M  V30 5109 H 503.005 -2.55248 7.2943 0
M  V30 5110 H 501.35 -2.30207 6.55767 0
M  V30 5111 H 504.541 -1.82119 4.3122 0
M  V30 5112 H 504.714 -2.28644 6.06322 0
M  V30 5113 N 498.12 -1.38341 -0.754957 0
M  V30 5114 C 499.03 -1.3769 -1.89944 0
M  V30 5115 C 500.046 -0.274194 -1.71826 0
M  V30 5116 O 501.222 -0.512391 -1.94773 0
M  V30 5117 C 498.287 -1.19938 -3.25293 0
M  V30 5118 C 497.348 -2.40001 -3.55946 0
M  V30 5119 C 496.581 -2.23087 -4.84838 0
M  V30 5120 O 496.804 -1.22386 -5.57116 0
M  V30 5121 O 495.738 -3.11646 -5.14937 0
M  V30 5122 H 499.564 -2.3412 -1.93446 0
M  V30 5123 H 497.149 -1.19246 -0.900044 0
M  V30 5124 H 499.031 -1.12093 -4.06218 0
M  V30 5125 H 497.706 -0.265919 -3.22606 0
M  V30 5126 H 496.613 -2.53421 -2.75188 0
M  V30 5127 H 497.946 -3.31973 -3.63394 0
M  V30 5128 N 499.598 0.982988 -1.23187 0
M  V30 5129 C 500.545 2.07491 -1.01075 0
M  V30 5130 C 501.515 1.65949 0.070905 0
M  V30 5131 O 502.7 1.90629 -0.0806822 0
M  V30 5132 C 499.84 3.39751 -0.605261 0
M  V30 5133 C 498.953 3.94578 -1.75876 0
M  V30 5134 C 498.088 5.15039 -1.3003 0
M  V30 5135 C 497.127 5.62027 -2.42472 0
M  V30 5136 N 496.264 6.73719 -1.97602 0
M  V30 5137 H 501.104 2.25739 -1.9454 0
M  V30 5138 H 498.641 1.10659 -0.969179 0
M  V30 5139 H 500.599 4.15719 -0.351279 0
M  V30 5140 H 499.229 3.21473 0.292382 0
M  V30 5141 H 498.281 3.1539 -2.12681 0
M  V30 5142 H 499.593 4.25422 -2.60418 0
M  V30 5143 H 498.747 5.9833 -1.00429 0
M  V30 5144 H 497.486 4.85843 -0.425216 0
M  V30 5145 H 496.491 4.77318 -2.7285 0
M  V30 5146 H 497.716 5.93244 -3.30512 0
M  V30 5147 H 495.662 6.46287 -1.1247 0
M  V30 5148 H 495.579 7.03934 -2.75705 0
M  V30 5149 H 496.847 7.6049 -1.71098 0
M  V30 5150 N 501.076 1.04316 1.18135 0
M  V30 5151 C 502.324 0.746542 1.87806 0
M  V30 5152 C 502.645 -0.728082 1.80898 0
M  V30 5153 O 501.915 -1.52554 1.22899 0
M  V30 5154 H 500.495 0.273157 0.695265 0
M  V30 5155 H 503.157 1.32044 1.43354 0
M  V30 5156 H 502.253 1.05362 2.93778 0
M  V30 5157 N 502.554 -1.34406 0.822964 0
M  V30 5158 C 503.8 -1.98578 0.411666 0
M  V30 5159 C 504.133 -1.65093 -1.02264 0
M  V30 5160 O 503.408 -0.92258 -1.71227 0
M  V30 5161 C 503.691 -3.54823 0.614235 0
M  V30 5162 C 503.544 -3.9805 2.09466 0
M  V30 5163 C 504.863 -4.40071 0.050221 0
M  V30 5164 H 501.982 -0.721355 0.151047 0
M  V30 5165 H 504.624 -1.59301 1.03554 0
M  V30 5166 H 502.774 -3.88411 0.0831774 0
M  V30 5167 H 504.446 -3.74795 2.68936 0
M  V30 5168 H 502.689 -3.4836 2.5851 0
M  V30 5169 H 503.36 -5.06819 2.18721 0
M  V30 5170 H 505.836 -4.13037 0.503953 0
M  V30 5171 H 504.712 -5.48452 0.221759 0
M  V30 5172 H 504.973 -4.29576 -1.04482 0
M  V30 5173 N 504.032 -0.577932 -1.46621 0
M  V30 5174 C 505.443 -0.150071 -1.86096 0
M  V30 5175 C 505.794 1.28563 -1.48209 0
M  V30 5176 O 504.919 1.97036 -0.894754 0
M  V30 5177 C 505.514 -0.265576 -3.37758 0
M  V30 5178 C 504.073 0.10738 -3.76247 0
M  V30 5179 C 503.22 -0.603711 -2.70649 0
M  V30 5180 H 506.171 -0.786438 -1.37844 0
M  V30 5181 H 506.192 0.510352 -3.77062 0
M  V30 5182 H 505.704 -1.3106 -3.65301 0
M  V30 5183 H 503.805 1.15272 -3.54321 0
M  V30 5184 H 503.918 -0.26561 -4.78363 0
M  V30 5185 H 502.282 -0.0444884 -2.54661 0
M  V30 5186 H 503.065 -1.65029 -3.01032 0
M  V30 5187 N 505.51 1.54411 -0.315457 0
M  V30 5188 C 506.442 2.21527 0.588067 0
M  V30 5189 C 507.455 1.21263 1.08624 0
M  V30 5190 O 508.644 1.47777 1.00121 0
M  V30 5191 C 505.744 2.85963 1.81875 0
M  V30 5192 C 504.917 4.12291 1.46063 0
M  V30 5193 C 503.976 4.60396 2.54799 0
M  V30 5194 O 503.002 5.25265 2.19283 0
M  V30 5195 N 504.204 4.33935 3.85591 0
M  V30 5196 H 506.969 2.99697 0.013414 0
M  V30 5197 H 504.53 1.61308 -0.138295 0
M  V30 5198 H 506.522 3.15071 2.53993 0
M  V30 5199 H 505.092 2.11548 2.30144 0
M  V30 5200 H 504.312 3.90036 0.571445 0
M  V30 5201 H 505.6 4.9452 1.19695 0
M  V30 5202 H 504.998 3.81996 4.17248 0
M  V30 5203 H 503.555 4.67718 4.53964 0
M  V30 5204 N 506.988 0.0434614 1.5754 0
M  V30 5205 C 507.898 -0.94893 2.14552 0
M  V30 5206 C 508.914 -1.34707 1.10136 0
M  V30 5207 O 510.09 -1.42557 1.42266 0
M  V30 5208 C 507.155 -2.208 2.67298 0
M  V30 5209 C 506.216 -1.86893 3.86484 0
M  V30 5210 C 505.449 -3.06797 4.36705 0
M  V30 5211 O 505.672 -4.19921 3.86034 0
M  V30 5212 O 504.606 -2.8826 5.28384 0
M  V30 5213 H 508.432 -0.494099 2.99654 0
M  V30 5214 H 506.017 -0.177989 1.48336 0
M  V30 5215 H 507.899 -2.94686 3.01228 0
M  V30 5216 H 506.574 -2.65436 1.85272 0
M  V30 5217 H 505.481 -1.10347 3.57455 0
M  V30 5218 H 506.814 -1.47062 4.69716 0
M  V30 5219 N 508.466 -1.55915 -0.229846 0
M  V30 5220 C 509.694 -1.82617 -0.972562 0
M  V30 5221 C 510.109 -0.621488 -1.78278 0
M  V30 5222 O 509.466 0.409956 -1.77836 0
M  V30 5223 C 509.517 -3.0774 -1.89679 0
M  V30 5224 O 509.238 -4.23559 -1.11934 0
M  V30 5225 C 510.739 -3.47368 -2.75409 0
M  V30 5226 H 507.959 -0.60727 -0.285419 0
M  V30 5227 H 510.503 -2.02996 -0.247579 0
M  V30 5228 H 508.658 -2.89361 -2.57583 0
M  V30 5229 H 509.072 -4.94586 -1.74599 0
M  V30 5230 H 510.546 -4.37977 -3.35977 0
M  V30 5231 H 511.023 -2.68737 -3.47386 0
M  V30 5232 H 511.629 -3.68158 -2.12931 0
M  V30 5233 N 509.944 0.496216 -1.49584 0
M  V30 5234 C 510.874 1.60576 -1.69521 0
M  V30 5235 C 511.855 1.61169 -0.543933 0
M  V30 5236 O 513.04 1.77834 -0.78031 0
M  V30 5237 C 510.17 2.99038 -1.76616 0
M  V30 5238 C 509.124 3.13312 -2.91581 0
M  V30 5239 C 508.45 4.53172 -2.83794 0
M  V30 5240 C 509.75 2.92886 -4.32452 0
M  V30 5241 H 511.444 1.44146 -2.62416 0
M  V30 5242 H 508.99 0.692024 -1.26282 0
M  V30 5243 H 510.943 3.76564 -1.8915 0
M  V30 5244 H 509.667 3.16568 -0.80324 0
M  V30 5245 H 508.326 2.38213 -2.78658 0
M  V30 5246 H 507.974 4.67585 -1.854 0
M  V30 5247 H 507.674 4.63662 -3.60958 0
M  V30 5248 H 509.198 5.32752 -2.98342 0
M  V30 5249 H 510.612 3.60178 -4.46032 0
M  V30 5250 H 509.009 3.14844 -5.10875 0
M  V30 5251 H 510.079 1.88966 -4.46565 0
M  V30 5252 N 511.423 1.38739 0.74761 0
M  V30 5253 C 512.386 1.36241 1.84312 0
M  V30 5254 C 513.386 0.261811 1.58654 0
M  V30 5255 O 514.576 0.519031 1.66288 0
M  V30 5256 C 511.708 1.12253 3.21888 0
M  V30 5257 H 512.901 2.33712 1.87933 0
M  V30 5258 H 510.454 1.2412 0.949946 0
M  V30 5259 H 511.189 0.154133 3.23934 0
M  V30 5260 H 510.974 1.91943 3.41907 0
M  V30 5261 H 512.464 1.13215 4.0196 0
M  V30 5262 N 512.901 -0.976442 1.23707 0
M  V30 5263 C 514.149 -1.71487 1.06942 0
M  V30 5264 C 514.47 -1.9098 -0.393897 0
M  V30 5265 O 513.74 -1.48128 -1.28198 0
M  V30 5266 H 512.32 -0.635425 0.392739 0
M  V30 5267 H 514.982 -1.17515 1.55487 0
M  V30 5268 H 514.078 -2.70286 1.56051 0
M  V30 5269 N 514.379 -1.04941 -1.1758 0
M  V30 5270 C 515.628 -0.753124 -1.87112 0
M  V30 5271 C 515.941 0.722507 -1.81767 0
M  V30 5272 O 517.147 1.13265 -2.46746 0
M  V30 5273 C 515.603 -1.29695 -3.35719 0
M  V30 5274 C 515.211 -2.80184 -3.49572 0
M  V30 5275 C 516.955 -1.07759 -4.10595 0
M  V30 5276 C 514.862 -3.2788 -4.92187 0
M  V30 5277 H 513.792 -0.278034 -0.700866 0
M  V30 5278 H 516.443 -1.26637 -1.32798 0
M  V30 5279 H 514.825 -0.711522 -3.89555 0
M  V30 5280 H 515.999 -3.44561 -3.05965 0
M  V30 5281 H 514.314 -3.00632 -2.88113 0
M  V30 5282 H 516.911 -1.40899 -5.15802 0
M  V30 5283 H 517.254 -0.0152302 -4.16297 0
M  V30 5284 H 517.787 -1.62809 -3.62957 0
M  V30 5285 H 514.526 -4.33535 -4.91658 0
M  V30 5286 H 514.046 -2.68245 -5.36475 0
M  V30 5287 H 515.725 -3.22412 -5.60945 0
M  V30 5288 N 515.857 1.33968 -0.830081 0
M  V30 5289 C 517.085 2.0228 -0.434773 0
M  V30 5290 C 517.5 1.62487 0.961419 0
M  V30 5291 O 516.857 0.833849 1.62337 0
M  V30 5292 C 516.908 3.5751 -0.535625 0
M  V30 5293 O 516.629 3.95864 -1.87679 0
M  V30 5294 C 518.13 4.43091 -0.136137 0
M  V30 5295 H 515.35 0.648151 -0.173613 0
M  V30 5296 H 517.894 1.71089 -1.12022 0
M  V30 5297 H 516.049 3.87266 0.101817 0
M  V30 5298 H 516.463 4.9056 -1.85609 0
M  V30 5299 H 517.937 5.51398 -0.257772 0
M  V30 5300 H 518.414 4.29433 0.921076 0
M  V30 5301 H 519.02 4.18677 -0.747662 0
M  V30 5302 N 517.335 0.585699 1.46312 0
M  V30 5303 C 518.581 0.0725284 2.0267 0
M  V30 5304 C 518.914 -1.28523 1.45586 0
M  V30 5305 O 518.189 -1.84283 0.622101 0
M  V30 5306 C 518.472 0.0099788 3.60099 0
M  V30 5307 C 518.325 1.39685 4.27561 0
M  V30 5308 C 519.644 -0.689117 4.34671 0
M  V30 5309 H 516.763 0.0278307 0.736474 0
M  V30 5310 H 519.405 0.753472 1.74421 0
M  V30 5311 H 517.555 -0.56992 3.84297 0
M  V30 5312 H 519.227 2.02215 4.14617 0
M  V30 5313 H 517.47 1.96374 3.86807 0
M  V30 5314 H 518.141 1.30553 5.36339 0
M  V30 5315 H 520.617 -0.196446 4.15636 0
M  V30 5316 H 519.493 -0.701921 5.44393 0
M  V30 5317 H 519.754 -1.75101 4.05946 0
M  V30 5318 N 518.813 -1.54241 0.323641 0
M  V30 5319 C 520.041 -2.04985 -0.280871 0
M  V30 5320 C 520.456 -1.19978 -1.45777 0
M  V30 5321 O 519.813 -0.230471 -1.81039 0
M  V30 5322 C 519.864 -3.54353 -0.715258 0
M  V30 5323 O 519.585 -4.36132 0.414817 0
M  V30 5324 C 521.086 -4.21189 -1.38257 0
M  V30 5325 H 518.306 -0.66851 -0.0577502 0
M  V30 5326 H 520.85 -1.99029 0.469852 0
M  V30 5327 H 519.005 -3.60596 -1.41596 0
M  V30 5328 H 519.419 -5.2445 0.0725227 0
M  V30 5329 H 520.893 -5.27154 -1.63745 0
M  V30 5330 H 521.37 -3.72307 -2.32989 0
M  V30 5331 H 521.976 -4.19085 -0.724447 0
M  V30 5332 N 520.291 -0.0518155 -1.57515 0
M  V30 5333 C 521.239 0.940195 -2.12751 0
M  V30 5334 C 522.233 1.3218 -1.05948 0
M  V30 5335 O 523.439 1.30138 -1.24355 0
M  V30 5336 H 519.814 0.321066 -0.680015 0
M  V30 5337 H 521.785 0.449217 -2.94999 0
M  V30 5338 C 520.534 2.2055 -2.68799 0
M  V30 5339 H 519.857 1.92066 -3.50643 0
M  V30 5340 H 521.297 2.88119 -3.11068 0
M  V30 5341 C 519.756 2.95061 -1.62605 0
M  V30 5342 O 520.286 3.88025 -1.03921 0
M  V30 5343 N 518.492 2.57804 -1.34111 0
M  V30 5344 H 518.039 1.82281 -1.8202 0
M  V30 5345 H 517.997 3.07964 -0.632872 0
M  V30 5346 N 521.769 1.56035 0.221574 0
M  V30 5347 C 523.18 1.69229 0.788567 0
M  V30 5348 C 523.531 0.653814 1.84986 0
M  V30 5349 O 522.656 -0.195065 2.15519 0
M  V30 5350 C 523.251 3.06809 1.43713 0
M  V30 5351 C 521.81 3.21858 1.95152 0
M  V30 5352 C 520.957 2.65155 0.811685 0
M  V30 5353 H 523.908 1.587 -0.00307894 0
M  V30 5354 H 523.929 3.02666 2.30594 0
M  V30 5355 H 523.441 3.82369 0.664475 0
M  V30 5356 H 521.542 2.51167 2.7522 0
M  V30 5357 H 521.655 4.29073 2.1315 0
M  V30 5358 H 520.019 2.23635 1.21899 0
M  V30 5359 H 520.802 3.43261 0.0516987 0
M  V30 5360 N 523.247 -0.488276 1.49845 0
M  V30 5361 C 524.21 -1.57069 1.66919 0
M  V30 5362 C 525.21 -1.51445 0.540479 0
M  V30 5363 O 526.4 -1.5437 0.807188 0
M  V30 5364 C 523.532 -2.96718 1.67844 0
M  V30 5365 H 524.725 -1.43254 2.63474 0
M  V30 5366 H 522.278 -0.713435 1.39068 0
M  V30 5367 H 523.013 -3.15996 0.7292 0
M  V30 5368 H 522.798 -3.02208 2.49826 0
M  V30 5369 H 524.288 -3.75335 1.83066 0
M  V30 5370 N 524.725 -1.39134 -0.740242 0
M  V30 5371 C 526.141 -1.20623 -1.0451 0
M  V30 5372 C 526.341 -0.0641651 -2.01398 0
M  V30 5373 O 525.397 0.585843 -2.4561 0
M  V30 5374 C 526.71 -2.53815 -1.6124 0
M  V30 5375 C 528.258 -2.60615 -1.73346 0
M  V30 5376 C 528.733 -3.94015 -2.33486 0
M  V30 5377 N 530.224 -3.95627 -2.40902 0
M  V30 5378 C 530.959 -4.95616 -2.88361 0
M  V30 5379 N 530.455 -6.06003 -3.35756 0
M  V30 5380 N 532.248 -4.82998 -2.87523 0
M  V30 5381 H 524.399 -2.12176 -0.0975576 0
M  V30 5382 H 526.662 -0.942066 -0.105904 0
M  V30 5383 H 526.368 -3.37911 -0.975144 0
M  V30 5384 H 526.242 -2.73162 -2.6012 0
M  V30 5385 H 528.629 -1.76906 -2.36195 0
M  V30 5386 H 528.71 -2.45123 -0.731336 0
M  V30 5387 H 528.354 -4.78153 -1.71267 0
M  V30 5388 H 528.284 -4.06825 -3.34366 0
M  V30 5389 H 530.775 -3.15903 -2.07398 0
M  V30 5390 H 531.088 -6.78215 -3.70464 0
M  V30 5391 H 529.433 -6.09604 -3.33778 0
M  V30 5392 H 532.624 -3.95866 -2.49816 0
M  V30 5393 H 532.797 -5.61072 -3.24196 0
M  V30 5394 N 526.204 0.969867 -1.24223 0
M  V30 5395 C 527.451 1.71256 -1.08063 0
M  V30 5396 C 527.779 1.90734 0.380872 0
M  V30 5397 O 527.034 1.46469 1.29789 0
M  V30 5398 C 527.333 3.10883 -1.76314 0
M  V30 5399 C 526.999 3.11252 -3.26241 0
M  V30 5400 C 525.661 3.1106 -3.67144 0
M  V30 5401 C 528.013 3.05751 -4.22097 0
M  V30 5402 C 525.341 3.03097 -5.02344 0
M  V30 5403 C 527.693 2.9933 -5.57301 0
M  V30 5404 C 526.357 2.97466 -5.97554 0
M  V30 5405 H 525.627 0.62667 -0.395431 0
M  V30 5406 H 528.274 1.13422 -1.54297 0
M  V30 5407 H 526.579 3.72168 -1.22468 0
M  V30 5408 H 528.276 3.67138 -1.61277 0
M  V30 5409 H 524.866 3.12165 -2.93685 0
M  V30 5410 H 529.05 3.05031 -3.91497 0
M  V30 5411 H 524.306 3.00013 -5.32731 0
M  V30 5412 H 528.48 2.94033 -6.31283 0
M  V30 5413 H 526.107 2.91051 -7.02277 0
M  V30 5414 N 527.682 1.05563 1.17022 0
M  V30 5415 C 528.612 0.681026 2.23348 0
M  V30 5416 C 529.593 -0.322983 1.67005 0
M  V30 5417 O 530.778 -0.199746 1.9317 0
M  V30 5418 C 527.908 0.0589053 3.4725 0
M  V30 5419 C 526.862 0.988082 4.16438 0
M  V30 5420 C 526.188 0.229646 5.34207 0
M  V30 5421 C 527.488 2.31388 4.68249 0
M  V30 5422 H 529.182 1.56993 2.54938 0
M  V30 5423 H 526.728 0.756302 1.2254 0
M  V30 5424 H 528.681 -0.214982 4.20851 0
M  V30 5425 H 527.405 -0.864968 3.14938 0
M  V30 5426 H 526.064 1.24659 3.44754 0
M  V30 5427 H 525.712 -0.697111 4.98146 0
M  V30 5428 H 525.412 0.848815 5.81437 0
M  V30 5429 H 526.936 -0.0368694 6.10589 0
M  V30 5430 H 528.35 2.09964 5.33468 0
M  V30 5431 H 526.747 2.88736 5.26072 0
M  V30 5432 H 527.817 2.94982 3.84855 0
M  V30 5433 N 529.16 -1.33526 0.837174 0
M  V30 5434 C 530.385 -2.0258 0.444545 0
M  V30 5435 C 530.81 -1.6258 -0.946006 0
M  V30 5436 O 530.168 -0.817548 -1.6182 0
M  V30 5437 C 530.216 -3.5605 0.571006 0
M  V30 5438 O 529.32 -4.10422 -0.403431 0
M  V30 5439 H 528.661 -0.638866 0.180958 0
M  V30 5440 H 531.191 -1.70462 1.13154 0
M  V30 5441 H 531.201 -4.05488 0.452024 0
M  V30 5442 H 529.876 -3.84509 1.58512 0
M  V30 5443 H 528.453 -3.72113 -0.242147 0
M  V30 5444 N 530.638 -0.59345 -1.46 0
M  V30 5445 C 532.049 -0.169801 -1.85926 0
M  V30 5446 C 532.4 1.26984 -1.49565 0
M  V30 5447 O 531.525 1.96076 -0.915602 0
M  V30 5448 C 532.12 -0.301385 -3.37457 0
M  V30 5449 C 530.679 0.0674684 -3.7634 0
M  V30 5450 C 529.826 -0.632383 -2.69993 0
M  V30 5451 H 532.777 -0.801014 -1.37002 0
M  V30 5452 H 532.798 0.470331 -3.77582 0
M  V30 5453 H 532.31 -1.34927 -3.63891 0
M  V30 5454 H 530.411 1.11507 -3.55523 0
M  V30 5455 H 530.524 -0.316332 -4.78055 0
M  V30 5456 H 528.888 -0.0714961 -2.546 0
M  V30 5457 H 529.671 -1.68212 -2.99265 0
M  V30 5458 N 532.116 1.54067 -0.331816 0
M  V30 5459 C 533.344 2.05131 0.269996 0
M  V30 5460 C 533.759 1.20749 1.45138 0
M  V30 5461 O 533.116 0.240069 1.80914 0
M  V30 5462 C 533.167 3.54728 0.696456 0
M  V30 5463 O 532.888 4.35906 -0.43794 0
M  V30 5464 C 534.389 4.21916 1.36021 0
M  V30 5465 H 531.609 0.668807 0.0542042 0
M  V30 5466 H 534.153 1.98777 -0.4804 0
M  V30 5467 H 532.308 3.61342 1.39681 0
M  V30 5468 H 532.722 5.24404 -0.100334 0
M  V30 5469 H 534.196 5.28015 1.60947 0
M  V30 5470 H 534.673 3.73538 2.31011 0
M  V30 5471 H 535.279 4.19463 0.702212 0
M  V30 5472 N 533.594 0.0601682 1.57485 0
M  V30 5473 C 534.524 -0.90889 2.15085 0
M  V30 5474 C 535.505 -1.31838 1.07484 0
M  V30 5475 O 536.69 -1.3915 1.35466 0
M  V30 5476 C 533.82 -2.18059 2.7031 0
M  V30 5477 C 532.774 -1.91088 3.82974 0
M  V30 5478 C 532.1 -3.24789 4.24754 0
M  V30 5479 C 533.4 -1.22535 5.07723 0
M  V30 5480 H 535.094 -0.429093 2.96309 0
M  V30 5481 H 532.64 -0.204952 1.42534 0
M  V30 5482 H 534.593 -2.86258 3.09248 0
M  V30 5483 H 533.317 -2.6826 1.8629 0
M  V30 5484 H 531.976 -1.25297 3.44523 0
M  V30 5485 H 531.624 -3.72809 3.37672 0
M  V30 5486 H 531.324 -3.07538 5.00694 0
M  V30 5487 H 532.848 -3.94205 4.66299 0
M  V30 5488 H 534.262 -1.80783 5.4405 0
M  V30 5489 H 532.659 -1.1558 5.88864 0
M  V30 5490 H 533.729 -0.202692 4.84476 0
M  V30 5491 N 535.072 -1.5615 -0.213296 0
M  V30 5492 C 536.488 -1.49327 -0.56336 0
M  V30 5493 C 536.688 -0.756826 -1.86747 0
M  V30 5494 O 535.744 -0.299866 -2.50713 0
M  V30 5495 C 537.057 -2.9392 -0.634944 0
M  V30 5496 C 538.605 -3.04487 -0.725013 0
M  V30 5497 C 539.08 -4.50456 -0.82787 0
M  V30 5498 N 540.571 -4.54533 -0.891876 0
M  V30 5499 C 541.306 -5.64766 -0.991315 0
M  V30 5500 N 540.802 -6.84733 -1.05419 0
M  V30 5501 N 542.595 -5.52637 -1.02709 0
M  V30 5502 H 534.746 -2.02453 0.642366 0
M  V30 5503 H 537.009 -0.920548 0.226487 0
M  V30 5504 H 536.715 -3.50783 0.253859 0
M  V30 5505 H 536.589 -3.46274 -1.49579 0
M  V30 5506 H 538.976 -2.47685 -1.60425 0
M  V30 5507 H 539.057 -2.55289 0.161669 0
M  V30 5508 H 538.701 -5.07878 0.0469464 0
M  V30 5509 H 538.631 -4.97369 -1.73009 0
M  V30 5510 H 541.122 -3.68141 -0.85327 0
M  V30 5511 H 541.435 -7.64493 -1.13007 0
M  V30 5512 H 539.78 -6.87427 -1.02318 0
M  V30 5513 H 542.971 -4.5784 -0.974687 0
M  V30 5514 H 543.144 -6.38576 -1.10113 0
M  V30 5515 N 536.55 0.480323 -1.50102 0
M  V30 5516 C 537.513 1.56181 -1.6775 0
M  V30 5517 C 538.513 1.51156 -0.548503 0
M  V30 5518 O 539.703 1.5394 -0.815363 0
M  V30 5519 C 536.835 2.95823 -1.69415 0
M  V30 5520 H 538.028 1.41855 -2.6423 0
M  V30 5521 H 535.581 0.70605 -1.39444 0
M  V30 5522 H 536.316 3.15604 -0.745948 0
M  V30 5523 H 536.101 3.00878 -2.51425 0
M  V30 5524 H 537.591 3.74359 -1.85054 0
M  V30 5525 N 538.028 1.39524 0.732853 0
M  V30 5526 C 539.253 1.40329 1.52717 0
M  V30 5527 C 539.678 0.000286574 1.881 0
M  V30 5528 O 539.036 -0.987262 1.52062 0
M  V30 5529 C 539.084 2.28464 2.78992 0
M  V30 5530 O 538.188 1.716 3.75003 0
M  V30 5531 H 537.529 0.47778 0.461109 0
M  V30 5532 H 540.059 1.83546 0.903996 0
M  V30 5533 H 540.069 2.43051 3.27705 0
M  V30 5534 H 538.744 3.30425 2.52572 0
M  V30 5535 H 537.321 1.66267 3.33781 0
M  V30 5536 O 539.545 -0.874016 1.35806 0
M  V30 5537 H 540.236 -1.51229 1.21035 0
M  V30 END ATOM
M  V30 BEGIN BOND
M  V30 END BOND
M  V30 END CTAB
M  END
$$$$
