drugbank_target|Q9X1H9 Fatty acid-binding protein TM_1468 (DB03796)
 OpenBabel12092120283D

  0  0  0     0  0            999 V3000
M  V30 BEGIN CTAB
M  V30 COUNTS 4650 4690 0 0 0
M  V30 BEGIN ATOM
M  V30 1 H -0.908 1.98254 -0.117106 0
M  V30 2 N 0 1.576 0 0
M  V30 3 C 0.933 2.03868 1.02534 0
M  V30 4 C 1.911 0.928543 1.3348 0
M  V30 5 O 3.095 1.19667 1.45644 0
M  V30 6 C 0.222 2.43627 2.35294 0
M  V30 7 C -0.732 3.65373 2.2001 0
M  V30 8 S 0.101 5.13292 1.52614 0
M  V30 9 C 1.257 5.56322 2.86805 0
M  V30 10 H 1.49 2.90518 0.631377 0
M  V30 11 H -0.977 1.52953 0.210867 0
M  V30 12 H 0.981 2.67203 3.11629 0
M  V30 13 H -0.358 1.57376 2.7183 0
M  V30 14 H -1.165 3.90944 3.18086 0
M  V30 15 H -1.563 3.418 1.51819 0
M  V30 16 H 0.729 5.58782 3.83104 0
M  V30 17 H 1.672 6.56266 2.65933 0
M  V30 18 H 2.08 4.83886 2.90714 0
M  V30 19 N 1.4781 -0.272755 1.55222 0
M  V30 20 C 2.4251 -1.33716 1.88119 0
M  V30 21 C 3.3951 -1.49066 0.73271 0
M  V30 22 O 4.5801 -1.63469 0.984002 0
M  V30 23 C 1.7201 -2.69238 2.15882 0
M  V30 24 C 0.8331 -2.62108 3.43399 0
M  V30 25 C -0.0319 -3.89811 3.60861 0
M  V30 26 C -0.9929 -3.77193 4.8207 0
M  V30 27 N -1.8559 -4.9673 4.96189 0
M  V30 28 H 2.9841 -1.04962 2.78903 0
M  V30 29 H 0.5211 -0.507088 1.38083 0
M  V30 30 H 2.4791 -3.48089 2.29978 0
M  V30 31 H 1.1091 -2.96194 1.28331 0
M  V30 32 H 0.1611 -1.74967 3.37773 0
M  V30 33 H 1.4731 -2.48685 4.32386 0
M  V30 34 H 0.6271 -4.77103 3.74777 0
M  V30 35 H -0.6339 -4.06102 2.7006 0
M  V30 36 H -1.6289 -2.88284 4.68159 0
M  V30 37 H -0.4039 -3.62421 5.74307 0
M  V30 38 H -2.4579 -5.13431 4.08319 0
M  V30 39 H -2.5409 -4.85839 5.79221 0
M  V30 40 H -1.2729 -5.85594 5.1449 0
M  V30 41 N 2.9562 -1.48159 -0.537278 0
M  V30 42 C 4.2022 -1.56035 -1.29541 0
M  V30 43 C 4.5352 -0.230377 -1.92829 0
M  V30 44 O 3.8102 0.762952 -1.78911 0
M  V30 45 C 4.0932 -2.69323 -2.39034 0
M  V30 46 C 3.9462 -4.12002 -1.80485 0
M  V30 47 C 5.2652 -2.78408 -3.40847 0
M  V30 48 H 2.3842 -0.567992 -0.469632 0
M  V30 49 H 5.0262 -1.80302 -0.599277 0
M  V30 50 H 3.1762 -2.48763 -2.98412 0
M  V30 51 H 4.8482 -4.43981 -1.25215 0
M  V30 52 H 3.0912 -4.19344 -1.11055 0
M  V30 53 H 3.7622 -4.87077 -2.59731 0
M  V30 54 H 6.2382 -2.97012 -2.91416 0
M  V30 55 H 5.1142 -3.59416 -4.14863 0
M  V30 56 H 5.3752 -1.86269 -4.00944 0
M  V30 57 N 4.4343 0.785586 -1.36625 0
M  V30 58 C 5.3813 1.89838 -1.31264 0
M  V30 59 C 6.3513 1.65115 -0.180633 0
M  V30 60 O 7.5363 1.87222 -0.36777 0
M  V30 61 C 4.6763 3.26706 -1.11163 0
M  V30 62 C 3.7893 3.63476 -2.33472 0
M  V30 63 C 2.9243 4.89481 -2.06353 0
M  V30 64 C 1.9633 5.18941 -3.24602 0
M  V30 65 N 1.1003 6.36131 -2.97123 0
M  V30 66 H 5.9403 1.93756 -2.26413 0
M  V30 67 H 3.4773 0.947454 -1.12524 0
M  V30 68 H 5.4353 4.05639 -0.975337 0
M  V30 69 H 4.0653 3.222 -0.196674 0
M  V30 70 H 3.1173 2.79636 -2.57891 0
M  V30 71 H 4.4293 3.81193 -3.21704 0
M  V30 72 H 3.5833 5.76288 -1.89675 0
M  V30 73 H 2.3223 4.73841 -1.15437 0
M  V30 74 H 1.3273 4.30615 -3.41834 0
M  V30 75 H 2.5523 5.36498 -4.16349 0
M  V30 76 H 0.4983 6.21875 -2.08823 0
M  V30 77 H 0.4153 6.54198 -3.78894 0
M  V30 78 H 1.6833 7.2591 -2.84033 0
M  V30 79 N 5.9124 1.20967 1.01018 0
M  V30 80 C 7.1614 1.01796 1.74128 0
M  V30 81 C 7.4744 -0.449691 1.90361 0
M  V30 82 O 8.6804 -0.76068 2.60626 0
M  V30 83 C 7.1364 1.7727 3.13215 0
M  V30 84 C 6.7444 3.28171 3.04972 0
M  V30 85 C 8.4884 1.66489 3.90489 0
M  V30 86 C 6.3954 3.96156 4.39107 0
M  V30 87 H 5.3254 0.377276 0.652824 0
M  V30 88 H 7.9764 1.44651 1.12909 0
M  V30 89 H 6.3584 1.27205 3.75013 0
M  V30 90 H 7.5324 3.85499 2.52443 0
M  V30 91 H 5.8474 3.39437 2.41188 0
M  V30 92 H 8.4444 2.14617 4.89738 0
M  V30 93 H 8.7874 0.6222 4.11624 0
M  V30 94 H 9.3204 2.14003 3.35332 0
M  V30 95 H 6.0594 5.00604 4.23174 0
M  V30 96 H 5.5794 3.43617 4.91617 0
M  V30 97 H 7.2584 4.00774 5.07926 0
M  V30 98 N 7.3905 -1.2043 1.01659 0
M  V30 99 C 8.3205 -2.25466 0.607226 0
M  V30 100 C 9.3015 -1.65853 -0.377716 0
M  V30 101 O 10.4865 -1.92409 -0.263149 0
M  V30 102 C 7.6165 -3.47256 -0.0552949 0
M  V30 103 C 6.5705 -4.19462 0.850632 0
M  V30 104 C 5.8965 -5.34673 0.0538859 0
M  V30 105 C 7.1965 -4.75603 2.15868 0
M  V30 106 H 8.8905 -2.59962 1.48526 0
M  V30 107 H 6.4365 -1.2496 0.715605 0
M  V30 108 H 8.3895 -4.19917 -0.353233 0
M  V30 109 H 7.1135 -3.11924 -0.968045 0
M  V30 110 H 5.7725 -3.48667 1.13257 0
M  V30 111 H 5.4205 -4.95585 -0.860514 0
M  V30 112 H 5.1205 -5.83913 0.657192 0
M  V30 113 H 6.6445 -6.10138 -0.237598 0
M  V30 114 H 8.0585 -5.40083 1.92311 0
M  V30 115 H 6.4555 -5.3528 2.71284 0
M  V30 116 H 7.5255 -3.94346 2.82169 0
M  V30 117 N 8.8686 -0.792821 -1.36206 0
M  V30 118 C 10.1146 -0.36733 -1.99446 0
M  V30 119 C 10.4476 1.05917 -1.62774 0
M  V30 120 O 9.7226 1.7324 -0.88421 0
M  V30 121 C 10.0056 -0.535044 -3.56103 0
M  V30 122 C 9.8586 -2.00548 -4.02617 0
M  V30 123 C 11.1776 0.0478191 -4.40074 0
M  V30 124 H 8.2966 -0.134941 -0.724541 0
M  V30 125 H 10.9386 -0.999794 -1.61568 0
M  V30 126 H 9.0886 0.00336329 -3.885 0
M  V30 127 H 10.7606 -2.60521 -3.80692 0
M  V30 128 H 9.0036 -2.50686 -3.54032 0
M  V30 129 H 9.6746 -2.07377 -5.11565 0
M  V30 130 H 12.1506 -0.411822 -4.14057 0
M  V30 131 H 11.0266 -0.0995336 -5.4881 0
M  V30 132 H 11.2876 1.14025 -4.27142 0
M  V30 133 N 10.3467 1.47872 -0.545128 0
M  V30 134 C 11.6237 1.9554 0.0485222 0
M  V30 135 C 12.0037 1.4876 1.49779 0
M  V30 136 O 11.3517 0.720925 2.16829 0
M  V30 137 C 11.5617 3.48898 -0.084417 0
M  V30 138 C 12.9097 4.24547 0.0671239 0
M  V30 139 O 13.9337 3.56198 -0.0113649 0
M  V30 140 O 12.7927 5.45999 0.233882 0
M  V30 141 H 9.8867 0.823957 0.0708773 0
M  V30 142 H 12.4327 1.58327 -0.610798 0
M  V30 143 H 11.2047 3.75714 -1.09337 0
M  V30 144 H 10.8277 3.92845 0.613066 0
M  V30 145 N 11.8248 0.280983 1.55075 0
M  V30 146 C 13.0498 -0.340154 2.04592 0
M  V30 147 C 13.4748 -1.48246 1.15779 0
M  V30 148 O 12.8328 -1.80614 0.15761 0
M  V30 149 C 12.8808 -0.793104 3.5177 0
M  V30 150 O 11.9848 -1.89981 3.66034 0
M  V30 151 H 11.3258 -0.0694289 0.66036 0
M  V30 152 H 13.8558 0.416993 2.00306 0
M  V30 153 H 13.8658 -1.08729 3.93245 0
M  V30 154 H 12.5408 0.0426163 4.15878 0
M  V30 155 H 11.1178 -1.60771 3.36463 0
M  V30 156 N 13.3029 -1.57598 0.00835791 0
M  V30 157 C 14.5309 -1.95214 -0.68549 0
M  V30 158 C 14.9459 -0.883706 -1.66841 0
M  V30 159 O 14.3029 0.136565 -1.81988 0
M  V30 160 C 14.3539 -3.32865 -1.41007 0
M  V30 161 O 14.0749 -4.35609 -0.466552 0
M  V30 162 C 15.5759 -3.84991 -2.19765 0
M  V30 163 H 12.7959 -0.643422 -0.190392 0
M  V30 164 H 15.3399 -2.04406 0.0619607 0
M  V30 165 H 13.4949 -3.24956 -2.10908 0
M  V30 166 H 13.9089 -5.15288 -0.978699 0
M  V30 167 H 15.3829 -4.8371 -2.65948 0
M  V30 168 H 15.8599 -3.18137 -3.02796 0
M  V30 169 H 16.4659 -3.96103 -1.54864 0
M  V30 170 N 14.781 0.264519 -1.55364 0
M  V30 171 C 15.744 1.31046 -1.88042 0
M  V30 172 C 16.744 1.41943 -0.755569 0
M  V30 173 O 17.934 1.40947 -1.02369 0
M  V30 174 C 15.066 2.69067 -2.09323 0
M  V30 175 H 16.259 1.03297 -2.81549 0
M  V30 176 H 13.812 0.502989 -1.47986 0
M  V30 177 H 14.547 3.01982 -1.18226 0
M  V30 178 H 14.332 2.62542 -2.91229 0
M  V30 179 H 15.822 3.44623 -2.35848 0
M  V30 180 N 16.2591 1.48442 0.529413 0
M  V30 181 C 17.5361 1.46978 1.29062 0
M  V30 182 C 17.9161 0.181769 2.10316 0
M  V30 183 O 17.2641 -0.836481 2.12639 0
M  V30 184 C 17.4741 2.7321 2.17157 0
M  V30 185 C 18.8221 3.21562 2.77278 0
M  V30 186 O 19.8461 2.74131 2.27444 0
M  V30 187 O 18.7051 4.04094 3.67927 0
M  V30 188 H 15.7991 0.587003 0.582543 0
M  V30 189 H 18.3451 1.60676 0.546021 0
M  V30 190 H 17.1171 3.58465 1.56903 0
M  V30 191 H 16.7401 2.62235 2.98862 0
M  V30 192 N 17.7372 -0.778329 1.37039 0
M  V30 193 C 18.9832 -1.53892 1.32079 0
M  V30 194 C 19.3162 -1.9396 -0.0965386 0
M  V30 195 O 18.5912 -1.63568 -1.05242 0
M  V30 196 C 18.8742 -2.80847 2.25382 0
M  V30 197 C 18.7272 -2.47076 3.75864 0
M  V30 198 C 20.0462 -3.82741 2.1725 0
M  V30 199 H 17.1652 -0.558303 0.48111 0
M  V30 200 H 19.8072 -0.893397 1.67685 0
M  V30 201 H 17.9572 -3.35931 1.95148 0
M  V30 202 H 19.6292 -1.97957 4.16666 0
M  V30 203 H 17.8722 -1.79863 3.94755 0
M  V30 204 H 18.5432 -3.37798 4.36574 0
M  V30 205 H 21.0192 -3.37133 2.43887 0
M  V30 206 H 19.8952 -4.69303 2.84686 0
M  V30 207 H 20.1562 -4.2652 1.16331 0
M  V30 208 N 19.2153 -1.21501 -1.00376 0
M  V30 209 C 20.6263 -1.03146 -1.55621 0
M  V30 210 C 20.9773 0.408375 -1.91903 0
M  V30 211 O 20.1023 1.29177 -1.73616 0
M  V30 212 C 20.6973 -1.86612 -2.82775 0
M  V30 213 C 19.2563 -1.72586 -3.34501 0
M  V30 214 C 18.4033 -1.83747 -2.07683 0
M  V30 215 H 21.3543 -1.35505 -0.826081 0
M  V30 216 H 21.3753 -1.3771 -3.54706 0
M  V30 217 H 20.8873 -2.91399 -2.56336 0
M  V30 218 H 18.9883 -0.704877 -3.65872 0
M  V30 219 H 19.1013 -2.54623 -4.05837 0
M  V30 220 H 17.4653 -1.27069 -2.20739 0
M  V30 221 H 18.2483 -2.90044 -1.83655 0
M  V30 222 N 20.6934 1.19889 -1.02296 0
M  V30 223 C 21.9404 1.8942 -0.715972 0
M  V30 224 C 22.2684 1.79251 0.754944 0
M  V30 225 O 21.5234 1.17526 1.56481 0
M  V30 226 C 21.8224 3.39883 -1.10518 0
M  V30 227 C 21.4884 3.70254 -2.57337 0
M  V30 228 C 20.1504 3.78254 -2.97452 0
M  V30 229 C 22.5024 3.84052 -3.52354 0
M  V30 230 C 19.8304 3.97514 -4.31509 0
M  V30 231 C 22.1824 4.04824 -4.86108 0
M  V30 232 C 20.8464 4.11054 -5.25919 0
M  V30 233 H 20.1164 0.693138 -0.261993 0
M  V30 234 H 22.7634 1.42012 -1.28472 0
M  V30 235 H 21.0684 3.8915 -0.454953 0
M  V30 236 H 22.7654 3.9199 -0.845261 0
M  V30 237 H 19.3554 3.64632 -2.25258 0
M  V30 238 H 23.5394 3.77221 -3.22518 0
M  V30 239 H 18.7954 4.00574 -4.61898 0
M  V30 240 H 22.9694 4.14442 -5.59653 0
M  V30 241 H 20.5964 4.2573 -6.29808 0
M  V30 242 N 22.1715 0.800033 1.35784 0
M  V30 243 C 23.3965 0.388511 2.03729 0
M  V30 244 C 23.8215 -0.990481 1.5991 0
M  V30 245 O 23.1795 -1.64013 0.772612 0
M  V30 246 C 23.2275 0.4726 3.5749 0
M  V30 247 O 22.3315 -0.51646 4.09153 0
M  V30 248 H 21.6725 0.163271 0.643614 0
M  V30 249 H 24.2025 1.0841 1.73518 0
M  V30 250 H 24.2125 0.34003 4.06581 0
M  V30 251 H 22.8875 1.47848 3.88734 0
M  V30 252 H 21.4645 -0.344673 3.71304 0
M  V30 253 N 23.6496 -1.47581 0.552962 0
M  V30 254 C 24.8956 -2.03369 0.0355807 0
M  V30 255 C 25.2506 -1.42016 -1.29805 0
M  V30 256 O 24.5436 -0.564917 -1.83083 0
M  V30 257 C 24.7376 -3.57199 -0.119728 0
M  V30 258 C 24.5666 -4.33468 1.1973 0
M  V30 259 C 23.3366 -4.7353 1.76345 0
M  V30 260 C 25.5346 -4.68866 2.11351 0
M  V30 261 N 23.5166 -5.34426 3.02097 0
M  V30 262 C 24.8876 -5.3002 3.21681 0
M  V30 263 C 26.9426 -4.50795 2.11397 0
M  V30 264 C 25.6456 -5.75011 4.32151 0
M  V30 265 C 27.6716 -4.96782 3.20876 0
M  V30 266 C 27.0336 -5.57981 4.29926 0
M  V30 267 H 23.1326 -0.780058 0.0550806 0
M  V30 268 H 25.7166 -1.80117 0.739315 0
M  V30 269 H 23.8876 -3.80227 -0.792579 0
M  V30 270 H 25.6196 -3.99627 -0.638792 0
M  V30 271 H 22.3746 -4.55352 1.30196 0
M  V30 272 H 22.7986 -5.69421 3.66182 0
M  V30 273 H 27.4406 -4.0284 1.28372 0
M  V30 274 H 25.1586 -6.21959 5.15938 0
M  V30 275 H 28.7446 -4.84573 3.21994 0
M  V30 276 H 27.6246 -5.92918 5.13243 0
M  V30 277 N 25.1277 -0.289203 -1.54924 0
M  V30 278 C 26.0607 0.633823 -2.19221 0
M  V30 279 C 27.0387 1.14174 -1.15772 0
M  V30 280 O 28.2227 1.21211 -1.44361 0
M  V30 281 C 25.3497 1.86592 -2.82668 0
M  V30 282 C 24.3957 1.49227 -3.99542 0
M  V30 283 S 25.2287 0.558312 -5.32582 0
M  V30 284 C 26.3847 1.79847 -5.99505 0
M  V30 285 H 26.6177 0.0875416 -2.97171 0
M  V30 286 H 24.1507 -0.0733899 -1.54225 0
M  V30 287 H 26.1087 2.57305 -3.19851 0
M  V30 288 H 24.7697 2.38335 -2.04585 0
M  V30 289 H 23.9627 2.40945 -4.42676 0
M  V30 290 H 23.5647 0.865193 -3.63855 0
M  V30 291 H 25.8567 2.7406 -6.19595 0
M  V30 292 H 26.7997 1.4099 -6.93922 0
M  V30 293 H 27.2077 1.96982 -5.29016 0
M  V30 294 N 26.6058 1.57591 -0.0167156 0
M  V30 295 C 27.5158 2.1291 0.98521 0
M  V30 296 C 28.5318 1.07834 1.36557 0
M  V30 297 O 29.7078 1.39826 1.44951 0
M  V30 298 C 26.7728 2.63512 2.25305 0
M  V30 299 C 25.8338 3.83256 1.93426 0
M  V30 300 C 25.0668 4.31435 3.14165 0
M  V30 301 O 25.2898 3.78851 4.26413 0
M  V30 302 O 24.2238 5.23416 2.97186 0
M  V30 303 H 28.0498 2.98772 0.544888 0
M  V30 304 H 25.6348 1.48012 0.203141 0
M  V30 305 H 27.5168 2.96183 2.99756 0
M  V30 306 H 26.1918 1.8074 2.68542 0
M  V30 307 H 25.0988 3.55531 1.16398 0
M  V30 308 H 26.4318 4.67153 1.55013 0
M  V30 309 N 28.0839 -0.256276 1.55502 0
M  V30 310 C 29.0309 -1.31714 1.89526 0
M  V30 311 C 30.0009 -1.4828 0.748479 0
M  V30 312 O 31.1859 -1.62416 1.00128 0
M  V30 313 C 28.3259 -2.66933 2.18725 0
M  V30 314 C 27.4389 -2.58452 3.4616 0
M  V30 315 C 26.5739 -3.85961 3.64976 0
M  V30 316 C 25.6129 -3.72059 4.86044 0
M  V30 317 N 24.7499 -4.9144 5.01429 0
M  V30 318 H 29.5899 -1.01998 2.80001 0
M  V30 319 H 27.1269 -0.492413 1.38613 0
M  V30 320 H 29.0849 -3.4563 2.33657 0
M  V30 321 H 27.7149 -2.94816 1.31466 0
M  V30 322 H 26.7669 -1.71374 3.3961 0
M  V30 323 H 28.0789 -2.44085 4.34999 0
M  V30 324 H 27.2329 -4.73101 3.79816 0
M  V30 325 H 25.9719 -4.03215 2.74353 0
M  V30 326 H 24.9769 -2.83302 4.7119 0
M  V30 327 H 26.2019 -3.56309 5.78118 0
M  V30 328 H 24.1479 -5.09072 4.13741 0
M  V30 329 H 24.0649 -4.79668 5.84341 0
M  V30 330 H 25.3329 -5.80104 5.20672 0
M  V30 331 N 29.562 -1.4872 -0.521534 0
M  V30 332 C 30.792 -1.6061 -1.29954 0
M  V30 333 C 31.2 -0.268728 -1.87282 0
M  V30 334 O 30.543 0.753221 -1.67548 0
M  V30 335 C 30.605 -2.60013 -2.48261 0
M  V30 336 C 30.269 -4.04874 -2.11957 0
M  V30 337 C 31.266 -4.92304 -1.67132 0
M  V30 338 C 28.951 -4.5047 -2.22221 0
M  V30 339 C 30.945 -6.2336 -1.33047 0
M  V30 340 C 28.632 -5.81544 -1.87748 0
M  V30 341 C 29.63 -6.67812 -1.43234 0
M  V30 342 O 29.318 -7.96446 -1.09217 0
M  V30 343 H 29.05 -0.544116 -0.401141 0
M  V30 344 H 31.604 -1.95339 -0.634958 0
M  V30 345 H 29.834 -2.20422 -3.17728 0
M  V30 346 H 31.523 -2.61648 -3.10315 0
M  V30 347 H 32.289 -4.58312 -1.58665 0
M  V30 348 H 28.168 -3.83504 -2.55823 0
M  V30 349 H 31.712 -6.90649 -0.982299 0
M  V30 350 H 27.609 -6.15069 -1.95858 0
M  V30 351 H 28.377 -8.09275 -1.22542 0
M  V30 352 N 31.0401 0.771051 -1.3745 0
M  V30 353 C 32.3171 1.519 -1.23231 0
M  V30 354 C 32.6971 2.10383 0.173809 0
M  V30 355 O 32.0451 1.95583 1.18151 0
M  V30 356 C 32.2551 2.59933 -2.32886 0
M  V30 357 C 33.6031 3.27316 -2.70461 0
M  V30 358 O 34.6271 2.70228 -2.32068 0
M  V30 359 O 33.4861 4.30531 -3.36608 0
M  V30 360 H 30.5801 0.672803 -0.480901 0
M  V30 361 H 33.1261 0.807957 -1.49232 0
M  V30 362 H 31.8981 2.14842 -3.27045 0
M  V30 363 H 31.5211 3.38637 -2.08353 0
M  V30 364 N 32.5182 1.22032 0.997298 0
M  V30 365 C 33.7672 1.03637 1.73038 0
M  V30 366 C 34.0802 -0.429475 1.90827 0
M  V30 367 O 35.2862 -0.732995 2.61418 0
M  V30 368 C 33.7422 1.80582 3.11317 0
M  V30 369 C 33.3502 3.31387 3.01474 0
M  V30 370 C 35.0942 1.70621 3.88701 0
M  V30 371 C 33.0012 4.00791 4.3488 0
M  V30 372 H 31.9312 0.384179 0.648785 0
M  V30 373 H 34.5822 1.4584 1.11368 0
M  V30 374 H 32.9642 1.31175 3.73643 0
M  V30 375 H 34.1382 3.88155 2.4834 0
M  V30 376 H 32.4532 3.41976 2.37575 0
M  V30 377 H 35.0502 2.19799 4.87434 0
M  V30 378 H 35.3932 0.665823 4.10941 0
M  V30 379 H 35.9262 2.17547 3.33044 0
M  V30 380 H 32.6652 5.05064 4.1784 0
M  V30 381 H 32.1852 3.48811 4.87945 0
M  V30 382 H 33.8642 4.06139 5.03647 0
M  V30 383 N 33.9963 -1.19345 1.0293 0
M  V30 384 C 35.2733 -1.84811 0.640642 0
M  V30 385 C 35.6533 -1.91855 -0.88062 0
M  V30 386 O 35.0013 -1.43587 -1.7775 0
M  V30 387 C 35.2113 -3.23755 1.30321 0
M  V30 388 C 36.5593 -3.99912 1.42673 0
M  V30 389 O 37.5833 -3.33155 1.26041 0
M  V30 390 O 36.4423 -5.19494 1.6967 0
M  V30 391 H 33.5363 -0.796443 0.222726 0
M  V30 392 H 36.0823 -1.26831 1.12748 0
M  V30 393 H 34.8543 -3.13466 2.34211 0
M  V30 394 H 34.4773 -3.89381 0.804261 0
M  V30 395 N 35.4744 -0.807222 -1.35358 0
M  V30 396 C 36.6994 -0.399309 -2.0352 0
M  V30 397 C 37.1244 0.981986 -1.60433 0
M  V30 398 O 36.4824 1.63601 -0.781299 0
M  V30 399 C 36.5304 -0.491552 -3.57234 0
M  V30 400 O 35.6344 0.494754 -4.09421 0
M  V30 401 H 34.9754 -0.166682 -0.642739 0
M  V30 402 H 37.5054 -1.09328 -1.72941 0
M  V30 403 H 37.5154 -0.361588 -4.06395 0
M  V30 404 H 36.1904 -1.49907 -3.87944 0
M  V30 405 H 34.7674 0.324977 -3.71481 0
M  V30 406 N 36.9525 1.47285 -0.560781 0
M  V30 407 C 38.2015 2.01668 -0.035895 0
M  V30 408 C 38.5145 1.44021 1.32353 0
M  V30 409 O 39.7205 1.90088 1.93853 0
M  V30 410 C 38.1765 3.59897 -0.0136659 0
M  V30 411 C 37.7845 4.26536 -1.37006 0
M  V30 412 C 39.5285 4.22017 0.458425 0
M  V30 413 C 37.4355 5.76782 -1.30675 0
M  V30 414 H 36.3655 0.753938 -0.00964879 0
M  V30 415 H 39.0165 1.69243 -0.709166 0
M  V30 416 H 37.3985 3.89301 0.725325 0
M  V30 417 H 38.5725 4.0877 -2.12705 0
M  V30 418 H 36.8875 3.76419 -1.78038 0
M  V30 419 H 39.4845 5.32124 0.524247 0
M  V30 420 H 39.8275 3.89437 1.4712 0
M  V30 421 H 40.3605 3.97159 -0.225818 0
M  V30 422 H 37.0995 6.13988 -2.29564 0
M  V30 423 H 36.6195 5.96875 -0.591622 0
M  V30 424 H 38.2985 6.39063 -1.01033 0
M  V30 425 N 38.4306 0.297415 1.54768 0
M  V30 426 C 39.8416 -0.195947 1.85669 0
M  V30 427 C 40.1926 -1.53707 1.21937 0
M  V30 428 O 39.3176 -2.10164 0.515754 0
M  V30 429 C 39.9126 -0.362318 3.36857 0
M  V30 430 C 38.4716 -0.799901 3.67802 0
M  V30 431 C 37.6186 0.0938578 2.77141 0
M  V30 432 H 40.5696 0.518538 1.4999 0
M  V30 433 H 40.5906 -1.19745 3.61167 0
M  V30 434 H 40.1026 0.613921 3.83214 0
M  V30 435 H 38.2036 -1.78682 3.26961 0
M  V30 436 H 38.3166 -0.621773 4.75048 0
M  V30 437 H 36.6806 -0.426254 2.51108 0
M  V30 438 H 37.4636 1.06639 3.26318 0
M  V30 439 N 39.9087 -1.5758 0.0250728 0
M  V30 440 C 40.8387 -2.13007 -0.956575 0
M  V30 441 C 41.8197 -1.0452 -1.342 0
M  V30 442 O 43.0047 -1.32332 -1.42133 0
M  V30 443 C 40.1347 -2.65386 -2.24026 0
M  V30 444 C 39.0887 -3.78623 -1.99571 0
M  V30 445 C 38.4147 -4.17414 -3.3417 0
M  V30 446 C 39.7147 -5.04867 -1.33814 0
M  V30 447 H 41.4087 -2.9528 -0.494991 0
M  V30 448 H 38.9547 -1.42042 -0.236651 0
M  V30 449 H 40.9077 -3.02794 -2.93076 0
M  V30 450 H 39.6317 -1.80268 -2.72343 0
M  V30 451 H 38.2907 -3.41646 -1.32941 0
M  V30 452 H 37.9387 -3.29284 -3.80238 0
M  V30 453 H 37.6387 -4.93719 -3.18615 0
M  V30 454 H 39.1627 -4.57402 -4.04495 0
M  V30 455 H 40.5767 -5.39888 -1.92857 0
M  V30 456 H 38.9737 -5.86144 -1.28669 0
M  V30 457 H 40.0437 -4.83904 -0.310561 0
M  V30 458 N 41.3868 0.248026 -1.55636 0
M  V30 459 C 42.6168 0.992367 -1.81206 0
M  V30 460 C 43.0248 1.7949 -0.598324 0
M  V30 461 O 42.3678 1.78292 0.442434 0
M  V30 462 C 42.4298 1.97926 -3.00109 0
M  V30 463 C 42.0938 1.36377 -4.36177 0
M  V30 464 C 43.0908 0.76682 -5.14214 0
M  V30 465 C 40.7758 1.38347 -4.82872 0
M  V30 466 C 42.7698 0.197778 -6.37093 0
M  V30 467 C 40.4568 0.810574 -6.057 0
M  V30 468 C 41.4548 0.218754 -6.8265 0
M  V30 469 O 41.1428 -0.345298 -8.03158 0
M  V30 470 H 40.8748 0.297704 -0.606917 0
M  V30 471 H 43.4288 0.276517 -2.0353 0
M  V30 472 H 41.6588 2.73339 -2.73538 0
M  V30 473 H 43.3478 2.58694 -3.12781 0
M  V30 474 H 44.1138 0.744114 -4.79258 0
M  V30 475 H 39.9928 1.8335 -4.2297 0
M  V30 476 H 43.5368 -0.264788 -6.97097 0
M  V30 477 H 39.4338 0.830604 -6.40134 0
M  V30 478 H 40.2018 -0.237055 -8.18157 0
M  V30 479 N 42.8649 1.48995 0.513639 0
M  V30 480 C 44.1109 1.58076 1.27042 0
M  V30 481 C 44.4439 0.261026 1.92438 0
M  V30 482 O 43.7189 -0.734393 1.80103 0
M  V30 483 C 44.0019 2.73091 2.34719 0
M  V30 484 C 43.8549 4.14821 1.73907 0
M  V30 485 C 45.1739 2.83796 3.36375 0
M  V30 486 H 42.2929 0.575391 0.460536 0
M  V30 487 H 44.9349 1.81232 0.570516 0
M  V30 488 H 43.0849 2.53479 2.94416 0
M  V30 489 H 44.7569 4.45917 1.18135 0
M  V30 490 H 42.9999 4.21058 1.0437 0
M  V30 491 H 43.6709 4.91147 2.51949 0
M  V30 492 H 46.1469 3.01611 2.86653 0
M  V30 493 H 45.0229 3.65971 4.09093 0
M  V30 494 H 45.2839 1.92624 3.9793 0
M  V30 495 N 44.343 -0.763751 1.37857 0
M  V30 496 C 45.589 -1.52483 1.33704 0
M  V30 497 C 45.922 -1.94051 -0.0759612 0
M  V30 498 O 45.197 -1.64675 -1.03501 0
M  V30 499 C 45.48 -2.78441 2.28348 0
M  V30 500 C 45.333 -2.43075 3.78463 0
M  V30 501 C 46.652 -3.80415 2.21298 0
M  V30 502 H 43.771 -0.553169 0.487005 0
M  V30 503 H 46.413 -0.875562 1.68624 0
M  V30 504 H 44.563 -3.33842 1.987 0
M  V30 505 H 46.235 -1.93527 4.18742 0
M  V30 506 H 44.478 -1.75666 3.96641 0
M  V30 507 H 45.149 -3.33149 4.40132 0
M  V30 508 H 47.625 -3.34527 2.47449 0
M  V30 509 H 46.501 -4.66257 2.89647 0
M  V30 510 H 46.762 -4.25262 1.20849 0
M  V30 511 N 45.8211 -1.22559 -0.990812 0
M  V30 512 C 47.0671 -1.06303 -1.73411 0
M  V30 513 C 47.4221 0.397442 -1.8825 0
M  V30 514 O 46.7151 1.29062 -1.41611 0
M  V30 515 C 46.9091 -1.71011 -3.13831 0
M  V30 516 C 46.7381 -3.232 -3.12685 0
M  V30 517 C 45.5081 -3.92314 -3.18461 0
M  V30 518 C 47.7061 -4.20107 -2.96673 0
M  V30 519 N 45.6881 -5.31571 -3.07091 0
M  V30 520 C 47.0591 -5.46208 -2.93354 0
M  V30 521 C 49.1141 -4.10973 -2.8108 0
M  V30 522 C 47.8171 -6.64225 -2.76039 0
M  V30 523 C 49.8431 -5.28642 -2.65126 0
M  V30 524 C 49.2051 -6.53663 -2.62496 0
M  V30 525 H 45.3041 -0.443441 -0.644115 0
M  V30 526 H 47.8881 -1.55131 -1.17654 0
M  V30 527 H 46.0591 -1.2473 -3.67827 0
M  V30 528 H 47.7911 -1.47828 -3.76735 0
M  V30 529 H 44.5461 -3.43326 -3.26227 0
M  V30 530 H 44.9701 -6.0455 -3.0471 0
M  V30 531 H 49.6121 -3.15098 -2.8191 0
M  V30 532 H 47.3301 -7.60246 -2.73954 0
M  V30 533 H 50.9161 -5.23407 -2.54039 0
M  V30 534 H 49.7961 -7.43182 -2.50302 0
M  V30 535 N 47.2992 1.18797 -1.03562 0
M  V30 536 C 48.2092 2.25913 -0.632505 0
M  V30 537 C 49.2252 1.70668 0.338882 0
M  V30 538 O 50.4012 2.00453 0.195076 0
M  V30 539 C 47.4662 3.467 0.00350942 0
M  V30 540 C 46.5272 4.17098 -1.01624 0
M  V30 541 C 45.7602 5.32119 -0.410478 0
M  V30 542 O 45.9832 5.64976 0.784725 0
M  V30 543 O 44.9172 5.9107 -1.13667 0
M  V30 544 H 48.7432 2.62648 -1.52478 0
M  V30 545 H 46.3282 1.25781 -0.806195 0
M  V30 546 H 48.2102 4.19878 0.35781 0
M  V30 547 H 46.8852 3.11798 0.869686 0
M  V30 548 H 45.7922 3.4601 -1.42224 0
M  V30 549 H 47.1252 4.55987 -1.85301 0
M  V30 550 N 48.7773 0.814389 1.34928 0
M  V30 551 C 50.0543 0.321363 1.92942 0
M  V30 552 C 50.4343 -1.19014 1.74353 0
M  V30 553 O 49.7823 -1.99328 1.11716 0
M  V30 554 C 49.9923 0.741323 3.41036 0
M  V30 555 C 51.3403 0.735266 4.18185 0
M  V30 556 O 52.3643 0.68336 3.49584 0
M  V30 557 O 51.2233 0.800703 5.40602 0
M  V30 558 H 48.3173 0.0858893 0.822528 0
M  V30 559 H 50.8633 0.898609 1.43955 0
M  V30 560 H 49.6353 1.78276 3.4833 0
M  V30 561 H 49.2583 0.139307 3.97356 0
M  V30 562 N 50.2554 -1.46986 0.568584 0
M  V30 563 C 51.5034 -2.02041 0.0487022 0
M  V30 564 C 51.8244 -1.44408 -1.31039 0
M  V30 565 O 51.0944 -0.623477 -1.85714 0
M  V30 566 H 49.6744 -0.746849 0.015014 0
M  V30 567 H 52.3364 -1.80257 0.741168 0
M  V30 568 H 51.4324 -3.12085 -0.0308961 0
M  V30 569 N 51.7335 -0.305618 -1.54608 0
M  V30 570 C 53.1495 0.0476228 -1.59529 0
M  V30 571 C 53.3495 1.52025 -1.32252 0
M  V30 572 O 52.4055 2.27368 -1.09818 0
M  V30 573 C 53.7185 -0.354471 -2.98603 0
M  V30 574 C 55.2665 -0.303622 -3.11524 0
M  V30 575 C 55.7415 -0.680608 -4.52915 0
M  V30 576 N 57.2325 -0.63332 -4.5885 0
M  V30 577 C 57.9675 -0.897432 -5.66334 0
M  V30 578 N 57.4635 -1.22775 -6.81834 0
M  V30 579 N 59.2565 -0.824186 -5.56025 0
M  V30 580 H 51.4075 -1.2653 -1.70599 0
M  V30 581 H 53.6705 -0.513291 -0.797017 0
M  V30 582 H 53.3765 -1.3798 -3.23503 0
M  V30 583 H 53.2505 0.289568 -3.76087 0
M  V30 584 H 55.6375 0.712472 -2.8637 0
M  V30 585 H 55.7185 -0.982348 -2.36185 0
M  V30 586 H 55.3625 -1.69453 -4.78799 0
M  V30 587 H 55.2925 0.0202385 -5.26596 0
M  V30 588 H 57.7835 -0.389138 -3.75891 0
M  V30 589 H 58.0965 -1.41513 -7.59733 0
M  V30 590 H 56.4415 -1.26583 -6.83375 0
M  V30 591 H 59.6325 -0.565748 -4.64669 0
M  V30 592 H 59.8055 -1.03338 -6.39707 0
M  V30 593 N 53.2116 1.57565 -0.0334293 0
M  V30 594 C 54.4366 1.96689 0.657895 0
M  V30 595 C 54.8616 0.910057 1.64619 0
M  V30 596 O 54.2196 -0.128598 1.80843 0
M  V30 597 C 54.2676 3.34905 1.33683 0
M  V30 598 O 53.3716 3.31574 2.45219 0
M  V30 599 H 52.7126 0.641205 0.172489 0
M  V30 600 H 55.2426 2.04372 -0.0965621 0
M  V30 601 H 55.2526 3.71234 1.69262 0
M  V30 602 H 53.9276 4.11366 0.612411 0
M  V30 603 H 52.5046 3.06968 2.11719 0
M  V30 604 N 54.6897 -0.239769 1.55765 0
M  V30 605 C 55.5997 -1.31831 1.94056 0
M  V30 606 C 56.6157 -1.52275 0.841925 0
M  V30 607 O 57.7917 -1.65759 1.14394 0
M  V30 608 C 54.8567 -2.65156 2.23368 0
M  V30 609 C 53.9177 -2.53173 3.46701 0
M  V30 610 C 53.1507 -3.8014 3.74606 0
M  V30 611 O 53.3737 -4.82343 3.04469 0
M  V30 612 O 52.3077 -3.78344 4.68123 0
M  V30 613 H 56.1337 -1.02347 2.85935 0
M  V30 614 H 53.7187 -0.441123 1.42739 0
M  V30 615 H 55.6007 -3.43929 2.43497 0
M  V30 616 H 54.2757 -2.94358 1.34666 0
M  V30 617 H 53.1827 -1.72662 3.31871 0
M  V30 618 H 54.5157 -2.28915 4.35728 0
M  V30 619 N 56.1678 -1.49265 -0.50573 0
M  V30 620 C 57.5788 -1.51769 -1.08734 0
M  V30 621 C 57.9298 -0.301192 -1.93874 0
M  V30 622 O 57.0548 0.589456 -2.08217 0
M  V30 623 C 57.6498 -2.75017 -1.97867 0
M  V30 624 C 56.2088 -2.80314 -2.51199 0
M  V30 625 C 55.3558 -2.4562 -1.28709 0
M  V30 626 H 58.3068 -1.56031 -0.289855 0
M  V30 627 H 58.3278 -2.5491 -2.82491 0
M  V30 628 H 57.8398 -3.63539 -1.35873 0
M  V30 629 H 55.9408 -1.96061 -3.16845 0
M  V30 630 H 56.0538 -3.82366 -2.88675 0
M  V30 631 H 54.4178 -1.97297 -1.61078 0
M  V30 632 H 55.2008 -3.36411 -0.6843 0
M  V30 633 N 57.6459 0.756429 -1.3826 0
M  V30 634 C 58.9229 1.50584 -1.24835 0
M  V30 635 C 59.3029 2.10556 0.151485 0
M  V30 636 O 58.6509 1.96825 1.1607 0
M  V30 637 C 58.8609 2.57448 -2.3563 0
M  V30 638 C 60.2089 3.24429 -2.73917 0
M  V30 639 O 61.2329 2.67751 -2.34921 0
M  V30 640 O 60.0919 4.26937 -3.41156 0
M  V30 641 H 57.1859 0.667664 -0.48801 0
M  V30 642 H 59.7319 0.792083 -1.5008 0
M  V30 643 H 58.5039 2.11362 -3.29305 0
M  V30 644 H 58.1269 3.36408 -2.11933 0
M  V30 645 N 59.124 1.23083 0.984299 0
M  V30 646 C 60.034 1.02515 2.11016 0
M  V30 647 C 61.05 -0.0291702 1.73976 0
M  V30 648 O 62.226 0.165434 2.00719 0
M  V30 649 C 59.291 0.614673 3.41208 0
M  V30 650 C 58.352 1.74359 3.92297 0
M  V30 651 C 57.585 1.35261 5.16275 0
M  V30 652 O 57.808 0.235136 5.69915 0
M  V30 653 O 56.742 2.17227 5.61334 0
M  V30 654 H 60.568 1.96862 2.31255 0
M  V30 655 H 58.153 1.01753 1.09392 0
M  V30 656 H 60.035 0.396518 4.1953 0
M  V30 657 H 58.71 -0.299851 3.22308 0
M  V30 658 H 57.617 2.01635 3.1511 0
M  V30 659 H 58.95 2.63629 4.15645 0
M  V30 660 N 60.6021 -1.18246 1.0419 0
M  V30 661 C 62.0181 -1.40269 0.761366 0
M  V30 662 C 62.2181 -1.90777 -0.648578 0
M  V30 663 O 61.2741 -2.0929 -1.41258 0
M  V30 664 C 62.5871 -2.40237 1.8085 0
M  V30 665 C 64.1351 -2.53961 1.82955 0
M  V30 666 C 64.6101 -3.57194 2.86664 0
M  V30 667 N 66.1011 -3.64702 2.85563 0
M  V30 668 C 66.8361 -4.44309 3.6246 0
M  V30 669 N 66.3321 -5.27514 4.49111 0
M  V30 670 N 68.1251 -4.39084 3.50944 0
M  V30 671 H 60.2761 -0.837882 1.95175 0
M  V30 672 H 62.5391 -0.430608 0.84456 0
M  V30 673 H 62.2451 -2.10176 2.81991 0
M  V30 674 H 62.1191 -3.39601 1.64168 0
M  V30 675 H 64.5061 -2.83338 0.824855 0
M  V30 676 H 64.5871 -1.54706 2.03715 0
M  V30 677 H 64.2311 -3.28558 3.87314 0
M  V30 678 H 64.1611 -4.5613 2.6316 0
M  V30 679 H 66.6521 -3.05289 2.22727 0
M  V30 680 H 66.9651 -5.85411 5.04493 0
M  V30 681 H 65.3101 -5.2693 4.53178 0
M  V30 682 H 68.5011 -3.7313 2.82651 0
M  V30 683 H 68.6741 -5.00883 4.11121 0
M  V30 684 N 62.0802 -0.821533 -1.34494 0
M  V30 685 C 62.9902 -0.244355 -2.33324 0
M  V30 686 C 64.0062 0.620527 -1.62559 0
M  V30 687 O 65.1822 0.528754 -1.94335 0
M  V30 688 C 62.2472 0.585368 -3.41723 0
M  V30 689 C 61.3082 -0.301752 -4.28238 0
M  V30 690 C 60.5412 0.488466 -5.3146 0
M  V30 691 O 60.7642 1.72186 -5.4379 0
M  V30 692 O 59.6982 -0.12848 -6.01763 0
M  V30 693 H 63.5242 -1.06231 -2.84515 0
M  V30 694 H 61.1092 -0.583645 -1.37528 0
M  V30 695 H 62.9912 1.05747 -4.07916 0
M  V30 696 H 61.6662 1.38068 -2.92778 0
M  V30 697 H 60.5732 -0.821315 -3.64973 0
M  V30 698 H 61.9062 -1.06138 -4.8062 0
M  V30 699 N 63.5583 1.46682 -0.576371 0
M  V30 700 C 64.9693 1.86112 -0.148091 0
M  V30 701 C 65.3203 1.48073 1.2872 0
M  V30 702 O 64.4453 0.892656 1.97131 0
M  V30 703 C 65.0403 3.37786 -0.261982 0
M  V30 704 C 63.5993 3.76235 0.111384 0
M  V30 705 C 62.7463 2.70713 -0.60083 0
M  V30 706 H 65.6973 1.37927 -0.78497 0
M  V30 707 H 65.7183 3.77007 0.514364 0
M  V30 708 H 65.2303 3.6544 -1.30671 0
M  V30 709 H 63.3313 3.54198 1.15649 0
M  V30 710 H 63.4443 4.78391 -0.26052 0
M  V30 711 H 61.8083 2.54666 -0.0417783 0
M  V30 712 H 62.5913 3.01208 -1.64708 0
M  V30 713 N 65.0364 0.313813 1.54444 0
M  V30 714 C 65.9464 -0.565714 2.27677 0
M  V30 715 C 66.9624 -1.13754 1.31666 0
M  V30 716 O 68.1384 -1.15959 1.64668 0
M  V30 717 C 65.2034 -1.71528 3.01296 0
M  V30 718 C 64.2644 -1.17624 4.12872 0
M  V30 719 C 63.4974 -2.27102 4.8297 0
M  V30 720 O 63.7204 -3.47256 4.52514 0
M  V30 721 O 62.6544 -1.9307 5.70094 0
M  V30 722 H 66.4804 0.0287296 3.03686 0
M  V30 723 H 64.0654 0.0798312 1.49187 0
M  V30 724 H 65.9474 -2.38476 3.4743 0
M  V30 725 H 64.6224 -2.29608 2.2817 0
M  V30 726 H 63.5294 -0.472124 3.71109 0
M  V30 727 H 64.8624 -0.640695 4.88012 0
M  V30 728 N 66.5145 -1.57545 0.0417849 0
M  V30 729 C 67.4245 -2.14451 -0.951213 0
M  V30 730 C 68.4405 -1.09992 -1.34825 0
M  V30 731 O 69.6165 -1.42114 -1.42708 0
M  V30 732 C 66.6815 -2.67063 -2.21084 0
M  V30 733 C 65.7425 -3.86284 -1.87304 0
M  V30 734 C 64.9755 -4.36378 -3.07261 0
M  V30 735 O 65.1985 -3.85587 -4.20332 0
M  V30 736 O 64.1325 -5.28077 -2.88822 0
M  V30 737 H 67.9585 -2.99601 -0.497287 0
M  V30 738 H 65.5435 -1.48317 -0.179567 0
M  V30 739 H 67.4255 -3.00914 -2.95006 0
M  V30 740 H 66.1005 -1.84989 -2.65633 0
M  V30 741 H 65.0075 -3.57338 -1.10727 0
M  V30 742 H 66.3405 -4.6956 -1.47562 0
M  V30 743 N 67.9926 0.231505 -1.5589 0
M  V30 744 C 69.2416 0.955346 -1.7764 0
M  V30 745 C 69.5546 1.85893 -0.608546 0
M  V30 746 O 70.7606 2.62067 -0.70943 0
M  V30 747 C 69.2166 1.74886 -3.14552 0
M  V30 748 C 68.8246 0.891915 -4.39032 0
M  V30 749 C 70.5686 2.46452 -3.45633 0
M  V30 750 C 68.4756 1.68221 -5.66971 0
M  V30 751 H 67.4056 0.360446 -0.662265 0
M  V30 752 H 70.0566 0.209516 -1.823 0
M  V30 753 H 68.4386 2.53723 -3.04041 0
M  V30 754 H 69.6126 0.144793 -4.60572 0
M  V30 755 H 67.9276 0.288863 -4.15397 0
M  V30 756 H 70.5246 3.06061 -4.38441 0
M  V30 757 H 70.8676 3.18841 -2.67668 0
M  V30 758 H 71.4006 1.74613 -3.57428 0
M  V30 759 H 68.1396 1.00178 -6.478 0
M  V30 760 H 67.6596 2.4042 -5.49507 0
M  V30 761 H 69.3386 2.24544 -6.06786 0
M  V30 762 N 69.4707 1.49531 0.497807 0
M  V30 763 C 70.4037 1.61043 1.6168 0
M  V30 764 C 71.3817 0.459386 1.55976 0
M  V30 765 O 72.5657 0.675358 1.75986 0
M  V30 766 C 69.6927 1.56833 3.00202 0
M  V30 767 C 68.7387 2.77173 3.24156 0
M  V30 768 S 69.5717 4.38808 3.06933 0
M  V30 769 C 70.7277 4.37248 4.47845 0
M  V30 770 H 70.9607 2.55702 1.51671 0
M  V30 771 H 68.4937 1.38462 0.683201 0
M  V30 772 H 70.4517 1.55089 3.80076 0
M  V30 773 H 69.1127 0.634561 3.07623 0
M  V30 774 H 68.3057 2.70456 4.25288 0
M  V30 775 H 67.9077 2.76346 2.5201 0
M  V30 776 H 70.1997 4.09164 5.39992 0
M  V30 777 H 71.1427 5.38668 4.59612 0
M  V30 778 H 71.5507 3.67286 4.28674 0
M  V30 779 N 70.9488 -0.749086 1.3866 0
M  V30 780 C 71.8968 -1.88428 1.36373 0
M  V30 781 C 72.8908 -1.67561 0.248929 0
M  V30 782 O 74.0968 -1.75074 0.41821 0
M  V30 783 H 70.4718 -0.620023 0.42553 0
M  V30 784 H 72.4428 -1.87473 2.32156 0
M  V30 785 C 71.1918 -3.25961 1.21014 0
M  V30 786 H 70.5148 -3.42607 2.06059 0
M  V30 787 H 71.9548 -4.05625 1.23469 0
M  V30 788 C 70.4138 -3.36799 -0.0825941 0
M  V30 789 O 70.9438 -3.87517 -1.05797 0
M  V30 790 N 69.1498 -2.90258 -0.140939 0
M  V30 791 H 68.6968 -2.49174 0.653477 0
M  V30 792 H 68.6548 -2.97889 -1.00545 0
M  V30 793 N 72.4269 -1.23603 -0.977757 0
M  V30 794 C 73.6739 -1.06971 -1.71941 0
M  V30 795 C 74.0019 0.393009 -1.90488 0
M  V30 796 O 73.2569 1.30719 -1.4564 0
M  V30 797 C 73.5559 -1.7433 -3.11999 0
M  V30 798 C 73.2219 -3.24252 -3.13323 0
M  V30 799 C 71.8839 -3.65156 -3.13392 0
M  V30 800 C 74.2359 -4.20141 -3.08433 0
M  V30 801 C 71.5639 -5.00403 -3.0629 0
M  V30 802 C 73.9159 -5.55384 -3.02873 0
M  V30 803 C 72.5799 -5.95647 -3.01265 0
M  V30 804 H 71.8499 -0.391433 -0.629175 0
M  V30 805 H 74.4969 -1.53572 -1.14403 0
M  V30 806 H 72.8019 -1.20096 -3.7294 0
M  V30 807 H 74.4989 -1.58936 -3.68158 0
M  V30 808 H 71.0889 -2.91692 -3.14029 0
M  V30 809 H 75.2729 -3.89547 -3.07517 0
M  V30 810 H 70.5289 -5.3081 -3.03399 0
M  V30 811 H 74.7029 -6.29398 -2.98046 0
M  V30 812 H 72.3299 -7.0041 -2.95516 0
M  V30 813 N 73.905 1.17692 -1.04816 0
M  V30 814 C 75.135 1.91508 -0.775128 0
M  V30 815 C 75.543 1.76844 0.67253 0
M  V30 816 O 74.886 1.10057 1.47082 0
M  V30 817 C 74.948 3.43167 -1.0713 0
M  V30 818 C 74.612 3.81612 -2.51438 0
M  V30 819 C 75.609 3.84772 -3.49638 0
M  V30 820 C 73.294 4.12687 -2.86348 0
M  V30 821 C 75.288 4.18469 -4.80794 0
M  V30 822 C 72.975 4.46053 -4.17708 0
M  V30 823 C 73.973 4.48921 -5.14741 0
M  V30 824 O 73.661 4.81504 -6.43746 0
M  V30 825 H 73.393 0.614575 -0.281555 0
M  V30 826 H 75.947 1.50206 -1.40098 0
M  V30 827 H 74.177 3.84745 -0.388342 0
M  V30 828 H 75.866 3.98239 -0.784883 0
M  V30 829 H 76.632 3.60893 -3.24008 0
M  V30 830 H 72.511 4.09627 -2.11486 0
M  V30 831 H 76.055 4.20623 -5.56527 0
M  V30 832 H 71.952 4.69393 -4.43103 0
M  V30 833 H 72.72 4.99377 -6.4851 0
M  V30 834 N 75.3831 0.828654 1.34056 0
M  V30 835 C 76.3301 0.252567 2.29414 0
M  V30 836 C 77.3001 -0.62588 1.53857 0
M  V30 837 O 78.4851 -0.566312 1.82202 0
M  V30 838 C 75.6251 -0.574831 3.40279 0
M  V30 839 C 74.7381 0.326499 4.30764 0
M  V30 840 C 73.8731 -0.511016 5.28736 0
M  V30 841 C 72.9121 0.389342 6.1086 0
M  V30 842 N 72.0491 -0.409439 7.00905 0
M  V30 843 H 76.8891 1.07108 2.78086 0
M  V30 844 H 74.4261 0.539677 1.36843 0
M  V30 845 H 76.3841 -1.06992 4.03248 0
M  V30 846 H 75.0141 -1.35841 2.92826 0
M  V30 847 H 74.0661 0.939837 3.68607 0
M  V30 848 H 75.3781 1.01857 4.88289 0
M  V30 849 H 74.5321 -1.07035 5.97184 0
M  V30 850 H 73.2711 -1.23657 4.71763 0
M  V30 851 H 72.2761 0.960769 5.4134 0
M  V30 852 H 73.5011 1.1131 6.69916 0
M  V30 853 H 71.4471 -1.11856 6.46393 0
M  V30 854 H 71.3641 0.224126 7.55668 0
M  V30 855 H 72.6321 -0.951336 7.73673 0
M  V30 856 N 76.8612 -1.46375 0.584142 0
M  V30 857 C 78.2772 -1.57694 0.245929 0
M  V30 858 C 78.4772 -1.57903 -1.25175 0
M  V30 859 O 77.5332 -1.49676 -2.03355 0
M  V30 860 C 78.8462 -2.87028 0.896402 0
M  V30 861 C 80.3942 -3.00662 0.870127 0
M  V30 862 C 80.8692 -4.32734 1.50017 0
M  V30 863 N 82.3602 -4.39436 1.46458 0
M  V30 864 C 83.0952 -5.40248 1.92144 0
M  V30 865 N 82.5912 -6.47726 2.4581 0
M  V30 866 N 84.3842 -5.31459 1.83052 0
M  V30 867 H 76.5352 -1.44483 1.55687 0
M  V30 868 H 78.7982 -0.689291 0.650831 0
M  V30 869 H 78.5042 -2.9269 1.95002 0
M  V30 870 H 78.3782 -3.75014 0.405486 0
M  V30 871 H 80.7652 -2.94581 -0.174871 0
M  V30 872 H 80.8462 -2.14148 1.39908 0
M  V30 873 H 80.4902 -4.39573 2.54437 0
M  V30 874 H 80.4202 -5.18025 0.946432 0
M  V30 875 H 82.9112 -3.62367 1.07231 0
M  V30 876 H 83.2242 -7.20863 2.78525 0
M  V30 877 H 81.5692 -6.48542 2.49836 0
M  V30 878 H 84.7602 -4.46396 1.40883 0
M  V30 879 H 84.9332 -6.09881 2.18973 0
M  V30 880 N 78.3393 -0.321999 -1.54275 0
M  V30 881 C 79.5883 0.281931 -1.9972 0
M  V30 882 C 79.9013 1.53369 -1.21397 0
M  V30 883 O 81.1073 2.21352 -1.57211 0
M  V30 884 C 79.5633 0.5529 -3.55628 0
M  V30 885 C 79.1713 -0.681721 -4.42783 0
M  V30 886 C 80.9153 1.11687 -4.09544 0
M  V30 887 C 78.8223 -0.382742 -5.9016 0
M  V30 888 H 77.7523 0.109124 -0.746062 0
M  V30 889 H 80.4033 -0.43398 -1.78294 0
M  V30 890 H 78.7853 1.32896 -3.73035 0
M  V30 891 H 79.9593 -1.45723 -4.37151 0
M  V30 892 H 78.2743 -1.1658 -3.99748 0
M  V30 893 H 80.8713 1.35515 -5.17242 0
M  V30 894 H 81.2143 2.06575 -3.61431 0
M  V30 895 H 81.7473 0.402032 -3.95763 0
M  V30 896 H 78.4863 -1.30076 -6.42464 0
M  V30 897 H 78.0063 0.355094 -5.98748 0
M  V30 898 H 79.6853 0.00800157 -6.47 0
M  V30 899 N 79.8174 1.5752 -0.0501392 0
M  V30 900 C 81.2334 1.56631 0.306402 0
M  V30 901 C 81.4334 1.0577 1.71508 0
M  V30 902 O 80.4894 0.713837 2.422 0
M  V30 903 C 81.8024 3.00393 0.135811 0
M  V30 904 C 83.3504 3.12315 0.206993 0
M  V30 905 C 83.8254 4.57954 0.064944 0
M  V30 906 N 85.3164 4.63041 0.121254 0
M  V30 907 C 86.0514 5.73389 0.0354381 0
M  V30 908 N 85.5474 6.92724 -0.102666 0
M  V30 909 N 87.3404 5.62026 0.090946 0
M  V30 910 H 79.4914 1.88903 -0.971046 0
M  V30 911 H 81.7544 0.869876 -0.376855 0
M  V30 912 H 81.4604 3.41635 -0.835384 0
M  V30 913 H 81.3344 3.66373 0.897275 0
M  V30 914 H 83.7214 2.70973 1.16866 0
M  V30 915 H 83.8024 2.49016 -0.585208 0
M  V30 916 H 83.4464 4.99981 -0.893394 0
M  V30 917 H 83.3764 5.19258 0.876277 0
M  V30 918 H 85.8674 3.77216 0.227284 0
M  V30 919 H 86.1804 7.72633 -0.160882 0
M  V30 920 H 84.5254 6.94864 -0.137737 0
M  V30 921 H 87.7164 4.67684 0.197388 0
M  V30 922 H 87.8894 6.47997 0.0206089 0
M  V30 923 N 81.2955 -0.223234 1.56011 0
M  V30 924 C 82.2055 -1.29766 1.95443 0
M  V30 925 C 83.2215 -1.51373 0.858028 0
M  V30 926 O 84.3975 -1.64536 1.16146 0
M  V30 927 C 81.4625 -2.62772 2.26167 0
M  V30 928 C 80.5235 -2.49482 3.49367 0
M  V30 929 C 79.7565 -3.76145 3.78616 0
M  V30 930 O 79.9795 -4.79087 3.09568 0
M  V30 931 O 78.9135 -3.73358 4.72109 0
M  V30 932 H 82.7395 -0.99309 2.87004 0
M  V30 933 H 80.3245 -0.425958 1.43199 0
M  V30 934 H 82.2065 -3.41327 2.47131 0
M  V30 935 H 80.8815 -2.92913 1.37781 0
M  V30 936 H 79.7885 -1.69133 3.33684 0
M  V30 937 H 81.1215 -2.2428 4.38131 0
M  V30 938 N 82.7736 -1.49793 -0.48987 0
M  V30 939 C 83.7366 -1.66752 -1.57246 0
M  V30 940 C 84.7366 -0.538867 -1.51502 0
M  V30 941 O 85.9266 -0.805545 -1.54456 0
M  V30 942 C 83.0586 -1.67528 -2.96896 0
M  V30 943 H 84.2516 -2.63321 -1.43534 0
M  V30 944 H 81.8046 -1.38992 -0.714914 0
M  V30 945 H 82.5396 -0.725837 -3.16073 0
M  V30 946 H 82.3246 -2.49504 -3.02473 0
M  V30 947 H 83.8146 -1.82667 -3.7553 0
M  V30 948 N 84.2517 0.741722 -1.39055 0
M  V30 949 C 85.4997 1.49818 -1.35643 0
M  V30 950 C 85.8207 1.94938 0.0491642 0
M  V30 951 O 85.0907 1.68505 0.999141 0
M  V30 952 H 83.6707 0.555755 -0.499144 0
M  V30 953 H 86.3327 0.880957 -1.73854 0
M  V30 954 H 85.4287 2.38348 -2.01486 0
M  V30 955 N 85.7298 1.2412 0.971189 0
M  V30 956 C 86.9548 1.10667 1.75407 0
M  V30 957 C 87.3798 -0.337048 1.85056 0
M  V30 958 O 86.7378 -1.24396 1.31892 0
M  V30 959 C 86.7858 1.74726 3.15441 0
M  V30 960 O 85.8898 1.01566 3.99697 0
M  V30 961 H 85.2308 0.387341 0.539317 0
M  V30 962 H 87.7608 1.64358 1.2185 0
M  V30 963 H 87.7708 1.80341 3.6598 0
M  V30 964 H 86.4458 2.79773 3.07734 0
M  V30 965 H 85.0228 1.03713 3.58187 0
M  V30 966 N 87.2079 -1.17134 1.05439 0
M  V30 967 C 88.4539 -1.87733 0.767077 0
M  V30 968 C 88.7869 -1.8098 -0.704253 0
M  V30 969 O 88.0619 -1.21951 -1.5152 0
M  V30 970 C 88.3449 -3.37659 1.25133 0
M  V30 971 C 88.1979 -3.53149 2.78578 0
M  V30 972 C 89.5169 -4.31768 0.852324 0
M  V30 973 H 86.6359 -0.681687 0.280129 0
M  V30 974 H 89.2779 -1.37732 1.30881 0
M  V30 975 H 87.4279 -3.80373 0.790469 0
M  V30 976 H 89.0999 -3.19434 3.32806 0
M  V30 977 H 87.3429 -2.95345 3.17732 0
M  V30 978 H 88.0139 -4.58403 3.07523 0
M  V30 979 H 90.4899 -3.96909 1.24911 0
M  V30 980 H 89.3659 -5.35199 1.21873 0
M  V30 981 H 89.6269 -4.41429 -0.243485 0
M  V30 982 N 88.686 -0.835752 -1.33615 0
M  V30 983 C 90.097 -0.487099 -1.80234 0
M  V30 984 C 90.448 0.993627 -1.69179 0
M  V30 985 O 89.573 1.77403 -1.23924 0
M  V30 986 C 90.168 -0.877385 -3.27242 0
M  V30 987 C 88.727 -0.580915 -3.7189 0
M  V30 988 C 87.874 -1.0874 -2.5509 0
M  V30 989 H 90.825 -1.02474 -1.2118 0
M  V30 990 H 90.846 -0.186195 -3.80044 0
M  V30 991 H 90.358 -1.95512 -3.35256 0
M  V30 992 H 88.459 0.486881 -3.69405 0
M  V30 993 H 88.572 -1.13396 -4.65487 0
M  V30 994 H 86.936 -0.508392 -2.49575 0
M  V30 995 H 87.719 -2.17184 -2.65868 0
M  V30 996 N 90.1641 1.46063 -0.591896 0
M  V30 997 C 91.1111 2.30399 0.136069 0
M  V30 998 C 92.0811 1.41169 0.875238 0
M  V30 999 O 93.2661 1.70112 0.86409 0
M  V30 1000 C 90.4061 3.25804 1.13781 0
M  V30 1001 C 89.5191 4.30134 0.401137 0
M  V30 1002 C 88.6541 5.12659 1.39121 0
M  V30 1003 C 87.6931 6.0873 0.641462 0
M  V30 1004 N 86.8301 6.8409 1.58004 0
M  V30 1005 H 91.6701 2.92118 -0.589144 0
M  V30 1006 H 89.2071 1.43959 -0.302342 0
M  V30 1007 H 91.1651 3.79569 1.73156 0
M  V30 1008 H 89.7951 2.65872 1.83062 0
M  V30 1009 H 88.8471 3.79152 -0.307826 0
M  V30 1010 H 90.1591 4.98458 -0.184565 0
M  V30 1011 H 89.3131 5.70747 2.05749 0
M  V30 1012 H 88.0521 4.44316 2.01084 0
M  V30 1013 H 87.0571 5.49786 -0.0385419 0
M  V30 1014 H 88.2821 6.79095 0.0270945 0
M  V30 1015 H 86.2281 6.18449 2.18761 0
M  V30 1016 H 86.1451 7.48709 1.04738 0
M  V30 1017 H 87.4131 7.4673 2.23639 0
M  V30 1018 N 91.6422 0.330177 1.54103 0
M  V30 1019 C 92.8702 -0.272179 2.05102 0
M  V30 1020 C 93.2852 -1.45267 1.20595 0
M  V30 1021 O 92.6422 -1.8094 0.238144 0
M  V30 1022 C 92.6932 -0.70023 3.54653 0
M  V30 1023 O 92.4142 0.433301 4.35952 0
M  V30 1024 C 93.9152 -1.3647 4.21771 0
M  V30 1025 H 91.1352 -0.0549159 0.668749 0
M  V30 1026 H 93.6792 0.478285 1.98828 0
M  V30 1027 H 91.8342 -1.40066 3.61193 0
M  V30 1028 H 92.2482 0.0947539 5.24414 0
M  V30 1029 H 93.7222 -1.61509 5.27843 0
M  V30 1030 H 94.1992 -2.31409 3.73292 0
M  V30 1031 H 94.8052 -0.706675 4.19388 0
M  V30 1032 N 93.1203 -1.57491 0.0584922 0
M  V30 1033 C 94.3453 -1.97711 -0.62652 0
M  V30 1034 C 94.7703 -0.936132 -1.63151 0
M  V30 1035 O 94.1283 0.099811 -1.81025 0
M  V30 1036 C 94.1763 -3.36989 -1.28338 0
M  V30 1037 O 93.2803 -3.35433 -2.39913 0
M  V30 1038 H 92.6213 -0.643868 -0.162266 0
M  V30 1039 H 95.1513 -2.04193 0.129064 0
M  V30 1040 H 95.1613 -3.73879 -1.63335 0
M  V30 1041 H 93.8363 -4.12289 -0.546889 0
M  V30 1042 H 92.4133 -3.10298 -2.06809 0
M  V30 1043 N 94.5984 0.214957 -1.56127 0
M  V30 1044 C 95.5304 1.29004 -1.89448 0
M  V30 1045 C 96.5434 1.42716 -0.783326 0
M  V30 1046 O 97.7324 1.43496 -1.06166 0
M  V30 1047 C 94.8324 2.66482 -2.09381 0
M  V30 1048 C 94.0054 2.74633 -3.40434 0
M  V30 1049 C 93.0644 3.9317 -3.49719 0
M  V30 1050 O 92.0904 3.812 -4.227 0
M  V30 1051 N 93.2924 5.07765 -2.81346 0
M  V30 1052 H 96.0574 1.00743 -2.82261 0
M  V30 1053 H 93.6184 0.40497 -1.56753 0
M  V30 1054 H 95.6104 3.44173 -2.12901 0
M  V30 1055 H 94.1804 2.87314 -1.23163 0
M  V30 1056 H 93.4004 1.83368 -3.48955 0
M  V30 1057 H 94.6884 2.77054 -4.26754 0
M  V30 1058 H 94.0864 5.20386 -2.21843 0
M  V30 1059 H 92.6434 5.83474 -2.90519 0
M  V30 1060 N 96.0765 1.50051 0.48192 0
M  V30 1061 C 97.4875 1.5348 1.06305 0
M  V30 1062 C 97.8385 0.331997 1.93371 0
M  V30 1063 O 96.9635 -0.556256 2.09129 0
M  V30 1064 C 97.5585 2.7813 1.93466 0
M  V30 1065 C 96.1175 2.84275 2.46707 0
M  V30 1066 C 95.2645 2.47637 1.24785 0
M  V30 1067 H 98.2155 1.56472 0.264995 0
M  V30 1068 H 98.2365 2.59372 2.78399 0
M  V30 1069 H 97.7485 3.65654 1.30072 0
M  V30 1070 H 95.8495 2.01077 3.13686 0
M  V30 1071 H 95.9625 3.8691 2.82555 0
M  V30 1072 H 94.3265 1.99835 1.57918 0
M  V30 1073 H 95.1095 3.37457 0.630694 0
M  V30 1074 N 97.5546 -0.734337 1.39446 0
M  V30 1075 C 98.7796 -1.52866 1.40167 0
M  V30 1076 C 99.2046 -1.881 -0.00171513 0
M  V30 1077 O 98.5626 -1.51957 -0.988879 0
M  V30 1078 C 98.6106 -2.79235 2.28167 0
M  V30 1079 O 97.7146 -3.75185 1.71201 0
M  V30 1080 H 97.0556 -0.461618 0.477289 0
M  V30 1081 H 99.5856 -0.905949 1.8345 0
M  V30 1082 H 99.5956 -3.27963 2.42702 0
M  V30 1083 H 98.2706 -2.52923 3.30156 0
M  V30 1084 H 96.8476 -3.33958 1.65912 0
M  V30 1085 N 99.0327 -1.24633 -0.964593 0
M  V30 1086 C 100.279 -1.08949 -1.71049 0
M  V30 1087 C 100.612 0.370302 -1.90637 0
M  V30 1088 O 99.8867 1.27349 -1.47011 0
M  V30 1089 C 100.17 -1.83329 -3.0994 0
M  V30 1090 C 100.023 -3.37077 -2.97824 0
M  V30 1091 C 101.342 -1.60846 -4.09654 0
M  V30 1092 H 98.4607 -0.397178 -0.620821 0
M  V30 1093 H 101.103 -1.5334 -1.12191 0
M  V30 1094 H 99.2527 -1.45597 -3.60186 0
M  V30 1095 H 100.925 -3.84425 -2.5498 0
M  V30 1096 H 99.1677 -3.65298 -2.33965 0
M  V30 1097 H 99.8387 -3.84324 -3.96231 0
M  V30 1098 H 102.315 -1.93674 -3.68279 0
M  V30 1099 H 101.191 -2.1534 -5.04896 0
M  V30 1100 H 101.452 -0.547434 -4.38698 0
M  V30 1101 N 100.511 1.16574 -1.06058 0
M  V30 1102 C 101.421 2.2452 -0.680282 0
M  V30 1103 C 102.437 1.71348 0.302604 0
M  V30 1104 O 103.613 2.00822 0.152513 0
M  V30 1105 C 100.678 3.46629 -0.0700315 0
M  V30 1106 C 99.7388 4.14849 -1.10448 0
M  V30 1107 C 98.9718 5.31129 -0.523256 0
M  V30 1108 O 99.1948 5.66514 0.664709 0
M  V30 1109 O 98.1288 5.88526 -1.26179 0
M  V30 1110 H 101.955 2.59355 -1.58015 0
M  V30 1111 H 99.5398 1.24043 -0.832694 0
M  V30 1112 H 101.422 4.20543 0.268667 0
M  V30 1113 H 100.097 3.13573 0.803353 0
M  V30 1114 H 99.0038 3.42916 -1.49532 0
M  V30 1115 H 100.337 4.51954 -1.94931 0
M  V30 1116 N 101.989 0.842826 1.3317 0
M  V30 1117 C 103.266 0.362216 1.92217 0
M  V30 1118 C 103.646 -1.15289 1.76838 0
M  V30 1119 O 102.994 -1.96914 1.15919 0
M  V30 1120 C 103.204 0.813495 3.39387 0
M  V30 1121 C 104.552 0.823804 4.16532 0
M  V30 1122 O 105.576 0.757358 3.48055 0
M  V30 1123 O 104.435 0.915193 5.38782 0
M  V30 1124 H 101.529 0.103317 0.820521 0
M  V30 1125 H 104.075 0.928942 1.42017 0
M  V30 1126 H 102.847 1.85624 3.4447 0
M  V30 1127 H 102.47 0.223561 3.96971 0
M  V30 1128 N 103.467 -1.45747 0.599634 0
M  V30 1129 C 104.714 -2.02292 0.0917284 0
M  V30 1130 C 105.042 -1.46906 -1.27472 0
M  V30 1131 O 104.297 -0.630652 -1.8526 0
M  V30 1132 C 104.596 -3.57399 -0.00602758 0
M  V30 1133 C 104.262 -4.31902 1.29503 0
M  V30 1134 C 102.924 -4.51974 1.65144 0
M  V30 1135 C 105.276 -4.74551 2.15525 0
M  V30 1136 C 102.604 -5.11949 2.86574 0
M  V30 1137 C 104.956 -5.35868 3.36196 0
M  V30 1138 C 103.62 -5.54165 3.72099 0
M  V30 1139 H 102.89 -0.740239 0.0335658 0
M  V30 1140 H 105.537 -1.7491 0.779661 0
M  V30 1141 H 103.842 -3.84014 -0.777183 0
M  V30 1142 H 105.539 -3.98846 -0.415038 0
M  V30 1143 H 102.129 -4.16588 1.00761 0
M  V30 1144 H 106.313 -4.58784 1.8929 0
M  V30 1145 H 101.569 -5.24305 3.14507 0
M  V30 1146 H 105.743 -5.6787 4.03109 0
M  V30 1147 H 103.37 -6.00406 4.6628 0
M  V30 1148 N 104.945 -0.338344 -1.53925 0
M  V30 1149 C 105.892 0.520845 -2.24846 0
M  V30 1150 C 106.862 1.09976 -1.24477 0
M  V30 1151 O 108.047 1.13735 -1.53196 0
M  V30 1152 C 105.187 1.6685 -3.02084 0
M  V30 1153 C 104.3 1.11739 -4.17299 0
M  V30 1154 C 103.435 2.23193 -4.82036 0
M  V30 1155 C 102.474 1.65407 -5.89328 0
M  V30 1156 N 101.611 2.70582 -6.47866 0
M  V30 1157 H 106.451 -0.0904881 -2.97863 0
M  V30 1158 H 103.988 -0.0564282 -1.46992 0
M  V30 1159 H 105.946 2.34407 -3.45122 0
M  V30 1160 H 104.576 2.2509 -2.31375 0
M  V30 1161 H 103.628 0.332919 -3.7894 0
M  V30 1162 H 104.94 0.654677 -4.94485 0
M  V30 1163 H 104.094 2.98626 -5.28117 0
M  V30 1164 H 102.833 2.72807 -4.04262 0
M  V30 1165 H 101.838 0.884779 -5.42634 0
M  V30 1166 H 103.063 1.16652 -6.69006 0
M  V30 1167 H 101.009 3.1946 -5.72959 0
M  V30 1168 H 100.926 2.28917 -7.20509 0
M  V30 1169 H 102.194 3.45799 -6.98601 0
M  V30 1170 N 106.423 1.57458 -0.0668435 0
M  V30 1171 C 107.37 2.12439 0.902122 0
M  V30 1172 C 108.34 1.03565 1.2986 0
M  V30 1173 O 109.525 1.312 1.38532 0
M  V30 1174 C 106.665 2.6865 2.16614 0
M  V30 1175 C 105.778 3.91663 1.82274 0
M  V30 1176 C 104.913 4.36134 3.0325 0
M  V30 1177 C 103.952 5.51808 2.64904 0
M  V30 1178 N 103.089 5.9126 3.78624 0
M  V30 1179 H 107.929 2.94934 0.426382 0
M  V30 1180 H 105.466 1.4575 0.198819 0
M  V30 1181 H 107.424 2.99346 2.90599 0
M  V30 1182 H 106.054 1.88928 2.61737 0
M  V30 1183 H 105.106 3.6746 0.983719 0
M  V30 1184 H 106.418 4.75693 1.50059 0
M  V30 1185 H 105.572 4.68465 3.85519 0
M  V30 1186 H 104.311 3.50948 3.38655 0
M  V30 1187 H 103.316 5.19133 1.81055 0
M  V30 1188 H 104.541 6.38722 2.30675 0
M  V30 1189 H 102.487 5.09024 4.138 0
M  V30 1190 H 102.404 6.70018 3.5016 0
M  V30 1191 H 103.672 6.28212 4.61486 0
M  V30 1192 N 107.901 -0.206675 1.56239 0
M  V30 1193 C 109.317 -0.557025 1.49564 0
M  V30 1194 C 109.517 -1.86424 0.764735 0
M  V30 1195 O 108.573 -2.50584 0.310491 0
M  V30 1196 C 109.886 -0.622478 2.94186 0
M  V30 1197 C 111.434 -0.712099 3.04792 0
M  V30 1198 C 111.909 -0.808767 4.50803 0
M  V30 1199 N 113.4 -0.8726 4.54907 0
M  V30 1200 C 114.135 -0.967365 5.65181 0
M  V30 1201 N 113.631 -1.02515 6.85173 0
M  V30 1202 N 115.424 -1.00366 5.53067 0
M  V30 1203 H 107.575 0.650943 2.02179 0
M  V30 1204 H 109.838 0.230387 0.919579 0
M  V30 1205 H 109.544 0.268727 3.50672 0
M  V30 1206 H 109.418 -1.4811 3.46905 0
M  V30 1207 H 111.805 -1.59374 2.48363 0
M  V30 1208 H 111.886 0.172489 2.55218 0
M  V30 1209 H 111.53 0.0684754 5.07854 0
M  V30 1210 H 111.46 -1.70899 4.98098 0
M  V30 1211 H 113.951 -0.837657 3.68499 0
M  V30 1212 H 114.264 -1.09765 7.64965 0
M  V30 1213 H 112.609 -0.994026 6.87855 0
M  V30 1214 H 115.8 -0.95527 4.58249 0
M  V30 1215 H 115.973 -1.07405 6.39037 0
M  V30 1216 N 109.379 -1.50304 -0.473955 0
M  V30 1217 C 110.609 -1.64663 -1.24778 0
M  V30 1218 C 111.017 -0.328174 -1.86332 0
M  V30 1219 O 110.36 0.699536 -1.69859 0
M  V30 1220 C 110.422 -2.6778 -2.39863 0
M  V30 1221 C 110.086 -4.11413 -1.98969 0
M  V30 1222 C 111.083 -4.97372 -1.51385 0
M  V30 1223 C 108.768 -4.57312 -2.07777 0
M  V30 1224 C 110.762 -6.27277 -1.13148 0
M  V30 1225 C 108.449 -5.87223 -1.69152 0
M  V30 1226 C 109.447 -6.72031 -1.21915 0
M  V30 1227 O 109.135 -7.99518 -0.838237 0
M  V30 1228 H 108.867 -0.556602 -0.383627 0
M  V30 1229 H 111.421 -1.9726 -0.572491 0
M  V30 1230 H 109.651 -2.30419 -3.10554 0
M  V30 1231 H 111.34 -2.71388 -3.01833 0
M  V30 1232 H 112.106 -4.63128 -1.44004 0
M  V30 1233 H 107.985 -3.91449 -2.43493 0
M  V30 1234 H 111.529 -6.93425 -0.762077 0
M  V30 1235 H 107.426 -6.20989 -1.76191 0
M  V30 1236 H 108.194 -8.12764 -0.967339 0
M  V30 1237 N 110.857 0.726932 -1.39834 0
M  V30 1238 C 111.787 1.85405 -1.41941 0
M  V30 1239 C 112.768 1.67751 -0.281728 0
M  V30 1240 O 113.953 1.8795 -0.488717 0
M  V30 1241 C 111.083 3.23243 -1.2701 0
M  V30 1242 C 110.037 3.55549 -2.38262 0
M  V30 1243 C 109.363 4.9241 -2.08415 0
M  V30 1244 C 110.663 3.577 -3.80589 0
M  V30 1245 H 112.357 1.83899 -2.36266 0
M  V30 1246 H 109.903 0.883349 -1.13723 0
M  V30 1247 H 111.856 4.01775 -1.27103 0
M  V30 1248 H 110.58 3.25296 -0.291564 0
M  V30 1249 H 109.239 2.79351 -2.37399 0
M  V30 1250 H 108.887 4.91052 -1.0898 0
M  V30 1251 H 108.587 5.14992 -2.82943 0
M  V30 1252 H 110.111 5.73289 -2.10171 0
M  V30 1253 H 111.525 4.26293 -3.83337 0
M  V30 1254 H 109.922 3.91804 -4.54543 0
M  V30 1255 H 110.992 2.57328 -4.10987 0
M  V30 1256 N 112.336 1.25143 0.95797 0
M  V30 1257 C 113.283 1.05235 2.05412 0
M  V30 1258 C 114.253 -0.0374561 1.66058 0
M  V30 1259 O 115.438 0.119073 1.90428 0
M  V30 1260 C 112.578 0.673589 3.38462 0
M  V30 1261 C 111.691 1.8379 3.90954 0
M  V30 1262 C 110.826 1.40381 5.12315 0
M  V30 1263 C 109.865 2.53746 5.57027 0
M  V30 1264 N 109.002 2.11136 6.69601 0
M  V30 1265 H 113.842 1.99048 2.21774 0
M  V30 1266 H 111.379 0.991277 1.08683 0
M  V30 1267 H 113.337 0.434964 4.14926 0
M  V30 1268 H 111.967 -0.227554 3.21997 0
M  V30 1269 H 111.019 2.18992 3.11041 0
M  V30 1270 H 112.331 2.68937 4.20089 0
M  V30 1271 H 111.485 1.12464 5.96185 0
M  V30 1272 H 110.224 0.523015 4.84887 0
M  V30 1273 H 109.229 2.82412 4.71724 0
M  V30 1274 H 110.454 3.42398 5.86464 0
M  V30 1275 H 108.4 1.25468 6.4389 0
M  V30 1276 H 108.317 2.89832 6.98236 0
M  V30 1277 H 109.585 1.86385 7.56889 0
M  V30 1278 N 113.814 -1.1601 1.06675 0
M  V30 1279 C 115.044 -1.90251 0.805497 0
M  V30 1280 C 115.452 -1.77891 -0.64431 0
M  V30 1281 O 114.795 -1.12383 -1.45313 0
M  V30 1282 C 114.857 -3.41419 1.12576 0
M  V30 1283 C 114.521 -3.77564 2.57477 0
M  V30 1284 C 115.518 -3.79161 3.55715 0
M  V30 1285 C 113.203 -4.08079 2.92877 0
M  V30 1286 C 115.197 -4.10767 4.8739 0
M  V30 1287 C 112.884 -4.39351 4.24751 0
M  V30 1288 C 113.882 -4.40675 5.21818 0
M  V30 1289 O 113.57 -4.71202 6.51325 0
M  V30 1290 H 113.302 -0.610018 0.291297 0
M  V30 1291 H 115.856 -1.47958 1.4247 0
M  V30 1292 H 114.086 -3.84079 0.449503 0
M  V30 1293 H 115.775 -3.9694 0.84814 0
M  V30 1294 H 116.541 -3.55693 3.29708 0
M  V30 1295 H 112.42 -4.06211 2.17976 0
M  V30 1296 H 115.964 -4.11715 5.63148 0
M  V30 1297 H 111.861 -4.62285 4.50514 0
M  V30 1298 H 112.629 -4.88996 6.56373 0
M  V30 1299 N 115.292 -0.849877 -1.32721 0
M  V30 1300 C 116.239 -0.289033 -2.28983 0
M  V30 1301 C 117.209 0.601324 -1.54833 0
M  V30 1302 O 118.394 0.537253 -1.8308 0
M  V30 1303 C 115.534 0.520623 -3.4115 0
M  V30 1304 C 114.647 -0.394989 -4.3019 0
M  V30 1305 C 113.782 0.426834 -5.29482 0
M  V30 1306 C 112.821 -0.486476 -6.10164 0
M  V30 1307 N 111.958 0.297879 -7.01468 0
M  V30 1308 H 116.798 -1.11519 -2.76347 0
M  V30 1309 H 114.335 -0.56138 -1.35967 0
M  V30 1310 H 116.293 1.00563 -4.04899 0
M  V30 1311 H 114.923 1.31165 -2.9495 0
M  V30 1312 H 113.975 -0.99836 -3.67065 0
M  V30 1313 H 115.287 -1.09612 -4.86607 0
M  V30 1314 H 114.441 0.975205 -5.98811 0
M  V30 1315 H 113.18 1.16136 -4.73671 0
M  V30 1316 H 112.185 -1.04677 -5.39743 0
M  V30 1317 H 113.41 -1.21953 -6.6806 0
M  V30 1318 H 111.356 1.01558 -6.48091 0
M  V30 1319 H 111.273 -0.344318 -7.55216 0
M  V30 1320 H 112.541 0.828131 -7.75089 0
M  V30 1321 N 116.77 1.45427 -0.607355 0
M  V30 1322 C 117.68 2.34325 0.113463 0
M  V30 1323 C 118.696 1.51226 0.860617 0
M  V30 1324 O 119.872 1.84029 0.818255 0
M  V30 1325 C 116.937 3.28839 1.09844 0
M  V30 1326 C 115.998 4.27844 0.353271 0
M  V30 1327 C 115.231 5.17842 1.29133 0
M  V30 1328 O 115.454 5.11264 2.52913 0
M  V30 1329 O 114.388 5.96713 0.788523 0
M  V30 1330 H 118.214 2.97364 -0.617094 0
M  V30 1331 H 115.799 1.44807 -0.367619 0
M  V30 1332 H 117.681 3.8708 1.66575 0
M  V30 1333 H 116.356 2.68365 1.81003 0
M  V30 1334 H 115.263 3.7322 -0.256494 0
M  V30 1335 H 116.596 4.91173 -0.317822 0
M  V30 1336 N 118.248 0.346503 1.53744 0
M  V30 1337 C 119.158 -0.517293 2.28826 0
M  V30 1338 C 120.174 -1.10935 1.3405 0
M  V30 1339 O 121.35 -1.1244 1.6709 0
M  V30 1340 C 118.415 -1.65098 3.04866 0
M  V30 1341 C 117.476 -1.0884 4.15274 0
M  V30 1342 C 116.709 -2.16806 4.87679 0
M  V30 1343 O 116.932 -3.3758 4.59778 0
M  V30 1344 O 115.866 -1.80934 5.74061 0
M  V30 1345 H 119.692 0.0931396 3.03557 0
M  V30 1346 H 117.277 0.111458 1.48984 0
M  V30 1347 H 119.159 -2.31053 3.5241 0
M  V30 1348 H 117.834 -2.24717 2.32989 0
M  V30 1349 H 116.741 -0.3933 3.72027 0
M  V30 1350 H 118.074 -0.537036 4.89261 0
M  V30 1351 N 119.726 -1.57421 0.075193 0
M  V30 1352 C 121.003 -1.85029 -0.634329 0
M  V30 1353 C 121.383 -0.968305 -1.87582 0
M  V30 1354 O 120.731 -0.0354749 -2.28472 0
M  V30 1355 C 120.941 -3.35286 -0.968742 0
M  V30 1356 C 122.289 -4.02875 -1.34077 0
M  V30 1357 O 123.313 -3.40051 -1.06037 0
M  V30 1358 O 122.172 -5.13691 -1.86506 0
M  V30 1359 H 119.266 -0.7645 -0.315387 0
M  V30 1360 H 121.812 -1.69366 0.106382 0
M  V30 1361 H 120.584 -3.91203 -0.0871376 0
M  V30 1362 H 120.207 -3.56223 -1.7661 0
M  V30 1363 N 121.204 0.198386 -1.56346 0
M  V30 1364 C 122.434 0.934215 -1.84271 0
M  V30 1365 C 122.842 1.77496 -0.655125 0
M  V30 1366 O 122.185 1.7961 0.385488 0
M  V30 1367 C 122.247 1.88278 -3.06254 0
M  V30 1368 C 121.911 1.22431 -4.40295 0
M  V30 1369 C 122.908 0.602839 -5.16393 0
M  V30 1370 C 120.593 1.22915 -4.87029 0
M  V30 1371 C 122.587 -0.0050083 -6.374 0
M  V30 1372 C 120.274 0.617465 -6.07973 0
M  V30 1373 C 121.272 0.00146341 -6.83 0
M  V30 1374 O 120.96 -0.600642 -8.01653 0
M  V30 1375 H 120.692 0.278245 -0.616081 0
M  V30 1376 H 123.246 0.211626 -2.04307 0
M  V30 1377 H 121.476 2.64498 -2.82095 0
M  V30 1378 H 123.165 2.48612 -3.20853 0
M  V30 1379 H 123.931 0.591265 -4.81382 0
M  V30 1380 H 119.81 1.69801 -4.28589 0
M  V30 1381 H 123.354 -0.48643 -6.95902 0
M  V30 1382 H 119.251 0.62653 -6.42452 0
M  V30 1383 H 120.019 -0.497225 -8.16988 0
M  V30 1384 N 122.682 1.50554 0.465978 0
M  V30 1385 C 123.959 1.5232 1.22712 0
M  V30 1386 C 124.339 0.270807 2.09356 0
M  V30 1387 O 123.687 -0.745541 2.15995 0
M  V30 1388 C 123.897 2.82175 2.05374 0
M  V30 1389 C 125.245 3.33033 2.6339 0
M  V30 1390 O 126.269 2.83531 2.15612 0
M  V30 1391 O 125.128 4.19336 3.50456 0
M  V30 1392 H 122.222 0.611183 0.557122 0
M  V30 1393 H 124.768 1.62847 0.477381 0
M  V30 1394 H 123.54 3.64797 1.41558 0
M  V30 1395 H 123.163 2.74675 2.87471 0
M  V30 1396 N 124.16 -0.719506 1.40217 0
M  V30 1397 C 125.406 -1.48152 1.38488 0
M  V30 1398 C 125.739 -1.94195 -0.0141867 0
M  V30 1399 O 125.014 -1.67884 -0.982096 0
M  V30 1400 C 125.297 -2.71035 2.37091 0
M  V30 1401 C 125.15 -2.30912 3.86005 0
M  V30 1402 C 126.469 -3.73182 2.33288 0
M  V30 1403 H 123.588 -0.537395 0.504357 0
M  V30 1404 H 126.23 -0.821472 1.71324 0
M  V30 1405 H 124.38 -3.27352 2.0922 0
M  V30 1406 H 126.052 -1.80107 4.24687 0
M  V30 1407 H 124.295 -1.62958 4.02029 0
M  V30 1408 H 124.966 -3.18978 4.50508 0
M  V30 1409 H 127.442 -3.26485 2.57966 0
M  V30 1410 H 126.318 -4.56806 3.04334 0
M  V30 1411 H 126.579 -4.21202 1.34317 0
M  V30 1412 N 125.638 -1.25649 -0.95132 0
M  V30 1413 C 126.884 -1.10757 -1.69884 0
M  V30 1414 C 127.217 0.350061 -1.91019 0
M  V30 1415 O 126.492 1.25783 -1.48354 0
M  V30 1416 C 126.775 -1.86606 -3.07978 0
M  V30 1417 C 126.628 -3.40217 -2.94232 0
M  V30 1418 C 127.947 -1.65182 -4.07925 0
M  V30 1419 H 125.066 -0.40374 -0.616574 0
M  V30 1420 H 127.708 -1.54521 -1.10558 0
M  V30 1421 H 125.858 -1.49409 -3.58621 0
M  V30 1422 H 127.53 -3.87108 -2.50889 0
M  V30 1423 H 125.773 -3.67759 -2.30078 0
M  V30 1424 H 126.444 -3.88505 -3.92133 0
M  V30 1425 H 128.92 -1.9757 -3.66204 0
M  V30 1426 H 127.796 -2.20683 -5.02583 0
M  V30 1427 H 128.057 -0.593933 -4.38092 0
M  V30 1428 N 127.117 1.15442 -1.07289 0
M  V30 1429 C 128.047 2.22312 -0.714107 0
M  V30 1430 C 129.028 1.67467 0.298155 0
M  V30 1431 O 130.213 1.93445 0.171048 0
M  V30 1432 C 127.343 3.47124 -0.110448 0
M  V30 1433 C 126.297 4.14926 -1.04979 0
M  V30 1434 C 125.623 5.33807 -0.308924 0
M  V30 1435 C 126.923 4.64762 -2.38314 0
M  V30 1436 H 128.617 2.5258 -1.6076 0
M  V30 1437 H 126.163 1.21404 -0.77441 0
M  V30 1438 H 128.116 4.21124 0.152482 0
M  V30 1439 H 126.84 3.16187 0.81812 0
M  V30 1440 H 125.499 3.42866 -1.29764 0
M  V30 1441 H 125.147 4.99126 0.623084 0
M  V30 1442 H 124.847 5.80113 -0.935036 0
M  V30 1443 H 126.371 6.10576 -0.0537771 0
M  V30 1444 H 127.785 5.30292 -2.1786 0
M  V30 1445 H 126.182 5.21728 -2.96514 0
M  V30 1446 H 127.252 3.80434 -3.00663 0
M  V30 1447 N 128.595 0.856903 1.32268 0
M  V30 1448 C 129.841 0.462069 1.97466 0
M  V30 1449 C 130.174 -0.980298 1.67642 0
M  V30 1450 O 129.449 -1.68824 0.965858 0
M  V30 1451 C 129.732 0.704336 3.53145 0
M  V30 1452 C 129.585 2.19529 3.9259 0
M  V30 1453 C 130.904 0.1622 4.39801 0
M  V30 1454 H 128.023 0.169357 0.717278 0
M  V30 1455 H 130.665 1.07574 1.56614 0
M  V30 1456 H 128.815 0.181999 3.88073 0
M  V30 1457 H 130.487 2.78387 3.67829 0
M  V30 1458 H 128.73 2.67292 3.41668 0
M  V30 1459 H 129.401 2.31549 5.01088 0
M  V30 1460 H 131.877 0.608905 4.11621 0
M  V30 1461 H 130.753 0.361265 5.4771 0
M  V30 1462 H 131.014 -0.935158 4.32096 0
M  V30 1463 N 130.073 -1.45103 0.615059 0
M  V30 1464 C 131.003 -2.33339 -0.0865619 0
M  V30 1465 C 131.984 -1.4727 -0.851209 0
M  V30 1466 O 133.169 -1.76026 -0.820281 0
M  V30 1467 C 130.299 -3.30095 -1.07956 0
M  V30 1468 C 129.253 -4.25858 -0.427628 0
M  V30 1469 C 128.579 -5.12361 -1.5294 0
M  V30 1470 C 129.879 -5.18165 0.655944 0
M  V30 1471 H 131.573 -2.92254 0.650224 0
M  V30 1472 H 129.119 -1.40532 0.314138 0
M  V30 1473 H 131.072 -3.90698 -1.57901 0
M  V30 1474 H 129.796 -2.69355 -1.84703 0
M  V30 1475 H 128.455 -3.66564 0.0510292 0
M  V30 1476 H 128.103 -4.47984 -2.28734 0
M  V30 1477 H 127.803 -5.77238 -1.09865 0
M  V30 1478 H 129.327 -5.75833 -2.03098 0
M  V30 1479 H 130.741 -5.72796 0.240257 0
M  V30 1480 H 129.138 -5.91559 1.00888 0
M  V30 1481 H 130.208 -4.60144 1.52957 0
M  V30 1482 N 131.551 -0.354651 -1.53558 0
M  V30 1483 C 132.779 0.239515 -2.05509 0
M  V30 1484 C 133.194 1.4333 -1.2289 0
M  V30 1485 O 132.551 1.80538 -0.266899 0
M  V30 1486 C 132.602 0.643719 -3.55723 0
M  V30 1487 O 132.323 -0.502602 -4.35207 0
M  V30 1488 C 133.824 1.29743 -4.23889 0
M  V30 1489 H 131.044 0.0442697 -0.669538 0
M  V30 1490 H 133.588 -0.509856 -1.98042 0
M  V30 1491 H 131.743 1.34302 -3.63376 0
M  V30 1492 H 132.157 -0.178172 -5.24197 0
M  V30 1493 H 133.631 1.53091 -5.30346 0
M  V30 1494 H 134.108 2.25441 -3.76926 0
M  V30 1495 H 134.714 0.639865 -4.20459 0
M  V30 1496 N 133.029 1.57378 -0.0835403 0
M  V30 1497 C 133.959 2.1641 0.87686 0
M  V30 1498 C 134.94 1.09429 1.30228 0
M  V30 1499 O 136.125 1.37516 1.37124 0
M  V30 1500 C 133.255 2.73517 2.14022 0
M  V30 1501 C 132.209 3.85769 1.85381 0
M  V30 1502 C 131.535 4.29529 3.18448 0
M  V30 1503 C 132.835 5.09486 1.14984 0
M  V30 1504 H 134.529 2.96914 0.385059 0
M  V30 1505 H 132.075 1.42823 0.18377 0
M  V30 1506 H 134.028 3.13463 2.81636 0
M  V30 1507 H 132.752 1.90252 2.65465 0
M  V30 1508 H 131.411 3.46345 1.20169 0
M  V30 1509 H 131.059 3.43169 3.67755 0
M  V30 1510 H 130.759 5.05204 3.00071 0
M  V30 1511 H 132.283 4.72099 3.8724 0
M  V30 1512 H 133.697 5.46674 1.72687 0
M  V30 1513 H 132.094 5.90515 1.06826 0
M  V30 1514 H 133.164 4.84724 0.130749 0
M  V30 1515 N 134.507 -0.190092 1.56449 0
M  V30 1516 C 135.732 -0.929864 1.85387 0
M  V30 1517 C 136.157 -1.7585 0.667704 0
M  V30 1518 O 135.515 -1.77198 -0.383459 0
M  V30 1519 C 135.563 -1.79773 3.12593 0
M  V30 1520 O 134.667 -2.89713 2.93496 0
M  V30 1521 H 134.008 -0.261574 0.610307 0
M  V30 1522 H 136.538 -0.193896 2.03679 0
M  V30 1523 H 136.548 -2.20139 3.43515 0
M  V30 1524 H 135.223 -1.18892 3.98544 0
M  V30 1525 H 133.8 -2.53065 2.73884 0
M  V30 1526 N 135.985 -1.50799 -0.457987 0
M  V30 1527 C 137.21 -1.66496 -1.23668 0
M  V30 1528 C 137.635 -0.353288 -1.84752 0
M  V30 1529 O 136.993 0.684346 -1.67888 0
M  V30 1530 C 137.041 -2.76763 -2.3116 0
M  V30 1531 O 136.145 -2.38928 -3.36136 0
M  V30 1532 H 135.486 -0.555828 -0.363252 0
M  V30 1533 H 138.016 -1.9725 -0.543474 0
M  V30 1534 H 138.026 -3.00232 -2.76269 0
M  V30 1535 H 136.701 -3.71954 -1.86073 0
M  V30 1536 H 135.278 -2.25953 -2.96647 0
M  V30 1537 N 137.463 0.71206 -1.40597 0
M  V30 1538 C 138.41 1.82613 -1.41142 0
M  V30 1539 C 139.38 1.63925 -0.267903 0
M  V30 1540 O 140.565 1.85009 -0.466495 0
M  V30 1541 C 137.705 3.20354 -1.28324 0
M  V30 1542 C 136.818 3.50589 -2.52411 0
M  V30 1543 C 135.953 4.77855 -2.32009 0
M  V30 1544 C 134.992 5.01005 -3.51654 0
M  V30 1545 N 134.129 6.19487 -3.30425 0
M  V30 1546 H 138.969 1.81482 -2.36365 0
M  V30 1547 H 136.506 0.886475 -1.17388 0
M  V30 1548 H 138.464 3.99899 -1.18899 0
M  V30 1549 H 137.094 3.20705 -0.367189 0
M  V30 1550 H 136.146 2.65573 -2.72351 0
M  V30 1551 H 137.458 3.63604 -3.41458 0
M  V30 1552 H 136.612 5.65424 -2.19956 0
M  V30 1553 H 135.351 4.67056 -1.40392 0
M  V30 1554 H 134.356 4.1189 -3.64179 0
M  V30 1555 H 135.581 5.13674 -4.44202 0
M  V30 1556 H 133.527 6.09932 -2.41494 0
M  V30 1557 H 133.444 6.33194 -4.13039 0
M  V30 1558 H 134.712 7.09834 -3.22113 0
M  V30 1559 N 138.941 1.26152 0.944643 0
M  V30 1560 C 139.871 1.09902 2.06019 0
M  V30 1561 C 140.852 0.00519538 1.70099 0
M  V30 1562 O 142.037 0.176583 1.93396 0
M  V30 1563 C 139.167 0.727562 3.39594 0
M  V30 1564 C 138.121 1.77274 3.89561 0
M  V30 1565 C 137.447 1.25569 5.19747 0
M  V30 1566 C 138.747 3.17357 4.14827 0
M  V30 1567 H 140.441 2.03217 2.19871 0
M  V30 1568 H 137.987 0.978452 1.05652 0
M  V30 1569 H 139.94 0.600777 4.17095 0
M  V30 1570 H 138.664 -0.241287 3.25707 0
M  V30 1571 H 137.323 1.88814 3.14237 0
M  V30 1572 H 136.971 0.276783 5.02238 0
M  V30 1573 H 136.671 1.95433 5.54148 0
M  V30 1574 H 138.195 1.1415 5.99835 0
M  V30 1575 H 139.609 3.08914 4.82954 0
M  V30 1576 H 138.006 3.84781 4.60504 0
M  V30 1577 H 139.076 3.63673 3.20734 0
M  V30 1578 N 140.419 -1.14872 1.07899 0
M  V30 1579 C 141.644 -1.90202 0.826926 0
M  V30 1580 C 142.069 -1.77774 -0.614664 0
M  V30 1581 O 141.427 -1.11431 -1.43013 0
M  V30 1582 C 141.475 -3.38352 1.24702 0
M  V30 1583 O 140.579 -4.10497 0.39575 0
M  V30 1584 H 139.92 -0.591968 0.300782 0
M  V30 1585 H 142.45 -1.45437 1.43907 0
M  V30 1586 H 142.46 -3.89156 1.22563 0
M  V30 1587 H 141.135 -3.46715 2.29698 0
M  V30 1588 H 139.712 -3.69796 0.480117 0
M  V30 1589 N 141.898 -0.863906 -1.31812 0
M  V30 1590 C 143.146 -0.470904 -1.96537 0
M  V30 1591 C 143.467 0.978771 -1.68657 0
M  V30 1592 O 142.737 1.6853 -0.998717 0
M  V30 1593 H 141.317 -0.171148 -0.72713 0
M  V30 1594 H 143.979 -1.10236 -1.60729 0
M  V30 1595 H 143.075 -0.623616 -3.05806 0
M  V30 1596 N 143.376 1.44774 -0.622745 0
M  V30 1597 C 144.604 2.06487 -0.130722 0
M  V30 1598 C 145.019 1.46476 1.19123 0
M  V30 1599 O 144.376 0.584502 1.72887 0
M  V30 1600 C 144.427 3.615 -0.000807207 0
M  V30 1601 O 144.148 4.19274 -1.27048 0
M  V30 1602 C 145.649 4.40229 0.520898 0
M  V30 1603 H 142.869 0.666704 -0.0758106 0
M  V30 1604 H 145.413 1.85779 -0.854774 0
M  V30 1605 H 143.568 3.81498 0.673643 0
M  V30 1606 H 143.982 5.12622 -1.1099 0
M  V30 1607 H 145.456 5.49144 0.560838 0
M  V30 1608 H 145.933 4.1108 1.54627 0
M  V30 1609 H 146.539 4.25131 -0.120018 0
M  V30 1610 N 144.854 0.36279 1.53368 0
M  V30 1611 C 146.084 -0.228281 2.05335 0
M  V30 1612 C 146.492 -1.43226 1.23625 0
M  V30 1613 O 145.835 -1.81717 0.269206 0
M  V30 1614 C 145.897 -0.688549 3.52845 0
M  V30 1615 C 145.561 0.398362 4.5526 0
M  V30 1616 C 146.558 1.24732 5.04716 0
M  V30 1617 C 144.243 0.557805 4.99193 0
M  V30 1618 C 146.237 2.2411 5.96702 0
M  V30 1619 C 143.924 1.55495 5.90986 0
M  V30 1620 C 144.922 2.39503 6.39631 0
M  V30 1621 O 144.61 3.37517 7.29615 0
M  V30 1622 H 144.342 -0.044395 0.674541 0
M  V30 1623 H 146.896 0.518668 1.98744 0
M  V30 1624 H 145.126 -1.48706 3.56964 0
M  V30 1625 H 146.815 -1.20231 3.87685 0
M  V30 1626 H 147.581 1.13532 4.71525 0
M  V30 1627 H 143.46 -0.0862959 4.60919 0
M  V30 1628 H 147.004 2.89718 6.34594 0
M  V30 1629 H 142.901 1.66744 6.23592 0
M  V30 1630 H 143.669 3.33213 7.47604 0
M  V30 1631 N 146.332 -1.57332 0.0918853 0
M  V30 1632 C 147.28 -2.15075 -0.885747 0
M  V30 1633 C 148.274 -1.09277 -1.29441 0
M  V30 1634 O 149.48 -1.27627 -1.26931 0
M  V30 1635 H 145.855 -0.687966 -0.303656 0
M  V30 1636 H 147.826 -2.96047 -0.373995 0
M  V30 1637 C 146.575 -2.74325 -2.13638 0
M  V30 1638 H 145.898 -3.55418 -1.8308 0
M  V30 1639 H 147.338 -3.183 -2.80109 0
M  V30 1640 C 145.797 -1.70062 -2.90827 0
M  V30 1641 O 146.327 -1.13763 -3.85254 0
M  V30 1642 N 144.533 -1.40628 -2.54307 0
M  V30 1643 H 144.08 -1.866 -1.7759 0
M  V30 1644 H 144.038 -0.711043 -3.06254 0
M  V30 1645 N 147.81 0.181792 -1.56548 0
M  V30 1646 C 149.035 0.920019 -1.85877 0
M  V30 1647 C 149.46 1.75494 -0.677021 0
M  V30 1648 O 148.818 1.77399 0.374056 0
M  V30 1649 C 148.866 1.78112 -3.13542 0
M  V30 1650 O 147.97 2.88152 -2.95029 0
M  V30 1651 H 147.311 0.258334 -0.611686 0
M  V30 1652 H 149.841 0.183092 -2.03779 0
M  V30 1653 H 149.851 2.18314 -3.44678 0
M  V30 1654 H 148.526 1.16777 -3.99169 0
M  V30 1655 H 147.103 2.51609 -2.75222 0
M  V30 1656 N 149.288 1.51039 0.449983 0
M  V30 1657 C 150.251 1.70863 1.5277 0
M  V30 1658 C 151.251 0.578846 1.5002 0
M  V30 1659 O 152.441 0.846213 1.52266 0
M  V30 1660 C 149.573 1.75341 2.9235 0
M  V30 1661 H 150.766 2.67034 1.36502 0
M  V30 1662 H 148.319 1.40838 0.677812 0
M  V30 1663 H 149.054 0.809383 3.14037 0
M  V30 1664 H 148.839 2.57436 2.95752 0
M  V30 1665 H 150.329 1.92559 3.70555 0
M  V30 1666 N 150.766 -0.704594 1.40972 0
M  V30 1667 C 152.012 -1.46675 1.40051 0
M  V30 1668 C 152.345 -1.94199 0.00641102 0
M  V30 1669 O 151.62 -1.68916 -0.964235 0
M  V30 1670 C 151.903 -2.68505 2.39952 0
M  V30 1671 C 151.756 -2.26805 3.88432 0
M  V30 1672 C 153.075 -3.70686 2.37233 0
M  V30 1673 H 150.194 -0.532015 0.510028 0
M  V30 1674 H 152.836 -0.803255 1.72185 0
M  V30 1675 H 150.986 -3.25114 2.1268 0
M  V30 1676 H 152.658 -1.75592 4.26574 0
M  V30 1677 H 150.901 -1.58685 4.03734 0
M  V30 1678 H 151.572 -3.14181 4.53866 0
M  V30 1679 H 154.048 -3.23731 2.61415 0
M  V30 1680 H 152.924 -4.53553 3.09162 0
M  V30 1681 H 153.185 -4.19754 1.38777 0
M  V30 1682 N 152.244 -1.26651 -0.937939 0
M  V30 1683 C 153.174 -1.10993 -2.05433 0
M  V30 1684 C 154.155 -0.0142161 -1.70094 0
M  V30 1685 O 155.34 -0.186837 -1.93299 0
M  V30 1686 C 152.47 -0.745561 -3.39203 0
M  V30 1687 C 151.424 -1.79337 -3.88616 0
M  V30 1688 C 150.75 -1.28324 -5.19073 0
M  V30 1689 C 152.05 -3.19553 -4.13138 0
M  V30 1690 H 153.744 -2.0438 -2.1879 0
M  V30 1691 H 151.29 -0.984041 -1.05131 0
M  V30 1692 H 153.243 -0.622888 -4.16771 0
M  V30 1693 H 151.967 0.22401 -3.25831 0
M  V30 1694 H 150.626 -1.90477 -3.13231 0
M  V30 1695 H 150.274 -0.303414 -5.02084 0
M  V30 1696 H 149.974 -1.98369 -5.53103 0
M  V30 1697 H 151.498 -1.1733 -5.99221 0
M  V30 1698 H 152.912 -3.11471 -4.81309 0
M  V30 1699 H 151.309 -3.87218 -4.58457 0
M  V30 1700 H 152.379 -3.65368 -3.18801 0
M  V30 1701 N 153.722 1.14298 -1.08507 0
M  V30 1702 C 154.685 2.17607 -0.719711 0
M  V30 1703 C 155.685 1.58907 0.245997 0
M  V30 1704 O 156.875 1.74181 0.0254081 0
M  V30 1705 C 154.007 3.40842 -0.0627695 0
M  V30 1706 H 155.2 2.51443 -1.63452 0
M  V30 1707 H 152.753 1.28963 -0.88307 0
M  V30 1708 H 153.488 3.12587 0.863716 0
M  V30 1709 H 153.273 3.84713 -0.757504 0
M  V30 1710 H 154.763 4.17221 0.177786 0
M  V30 1711 N 155.201 0.870884 1.31352 0
M  V30 1712 C 156.426 0.495957 2.01383 0
M  V30 1713 C 156.851 -0.904324 1.64935 0
M  V30 1714 O 156.209 -1.59687 0.858466 0
M  V30 1715 C 156.257 0.661433 3.54482 0
M  V30 1716 O 155.361 -0.298851 4.11316 0
M  V30 1717 H 154.702 0.197158 0.634054 0
M  V30 1718 H 157.232 1.17455 1.67527 0
M  V30 1719 H 157.242 0.555072 4.04207 0
M  V30 1720 H 155.917 1.68246 3.8035 0
M  V30 1721 H 154.494 -0.147368 3.72609 0
M  V30 1722 N 156.679 -1.44442 0.630414 0
M  V30 1723 C 157.626 -2.30678 -0.0749355 0
M  V30 1724 C 158.596 -1.4344 -0.837502 0
M  V30 1725 O 159.781 -1.72343 -0.818684 0
M  V30 1726 C 156.921 -3.28706 -1.05103 0
M  V30 1727 C 156.034 -4.31046 -0.286954 0
M  V30 1728 C 155.169 -5.16167 -1.2548 0
M  V30 1729 C 154.208 -6.10216 -0.479843 0
M  V30 1730 N 153.345 -6.88039 -1.39811 0
M  V30 1731 H 158.185 -2.90454 0.666386 0
M  V30 1732 H 155.722 -1.43107 0.340404 0
M  V30 1733 H 157.68 -3.84027 -1.63031 0
M  V30 1734 H 156.31 -2.70632 -1.75949 0
M  V30 1735 H 155.362 -3.78203 0.408243 0
M  V30 1736 H 156.674 -4.97794 0.316657 0
M  V30 1737 H 155.828 -5.76002 -1.90544 0
M  V30 1738 H 154.567 -4.49491 -1.89233 0
M  V30 1739 H 153.572 -5.49491 0.184295 0
M  V30 1740 H 154.797 -6.78928 0.152965 0
M  V30 1741 H 152.743 -6.24032 -2.02287 0
M  V30 1742 H 152.66 -7.51223 -0.848508 0
M  V30 1743 H 153.928 -7.52397 -2.03762 0
M  V30 1744 N 158.157 -0.370918 -1.53173 0
M  V30 1745 C 159.067 0.480823 -2.2962 0
M  V30 1746 C 160.083 1.08789 -1.35798 0
M  V30 1747 O 161.259 1.09768 -1.68858 0
M  V30 1748 C 158.324 1.60227 -3.07454 0
M  V30 1749 C 157.385 1.0222 -4.16953 0
M  V30 1750 C 156.618 2.0902 -4.91066 0
M  V30 1751 O 156.841 3.30222 -4.65091 0
M  V30 1752 O 155.775 1.71778 -5.76867 0
M  V30 1753 H 159.601 -0.141421 -3.03371 0
M  V30 1754 H 157.186 -0.135146 -1.48787 0
M  V30 1755 H 159.068 2.25417 -3.56041 0
M  V30 1756 H 157.743 2.20982 -2.36535 0
M  V30 1757 H 156.65 0.334064 -3.72605 0
M  V30 1758 H 157.983 0.459131 -4.90054 0
M  V30 1759 N 159.635 1.57281 -0.100228 0
M  V30 1760 C 160.881 1.94826 0.563101 0
M  V30 1761 C 161.214 0.982475 1.67514 0
M  V30 1762 O 160.489 0.0164069 1.94493 0
M  V30 1763 C 160.772 3.42453 1.11346 0
M  V30 1764 C 160.625 4.498 0.00612081 0
M  V30 1765 C 161.944 3.91506 2.01024 0
M  V30 1766 H 159.063 0.708428 0.203221 0
M  V30 1767 H 161.705 1.8922 -0.171979 0
M  V30 1768 H 159.855 3.47361 1.7399 0
M  V30 1769 H 161.527 4.57 -0.628357 0
M  V30 1770 H 159.77 4.28756 -0.659581 0
M  V30 1771 H 160.441 5.50306 0.432109 0
M  V30 1772 H 162.917 3.88784 1.48278 0
M  V30 1773 H 161.793 4.95358 2.36457 0
M  V30 1774 H 162.054 3.31099 2.92961 0
M  V30 1775 N 161.113 -0.173488 1.56642 0
M  V30 1776 C 162.39 -0.917617 1.7274 0
M  V30 1777 C 162.77 -2.00484 0.661027 0
M  V30 1778 O 162.118 -2.26184 -0.32453 0
M  V30 1779 C 162.328 -1.48433 3.15862 0
M  V30 1780 C 163.676 -1.95809 3.76754 0
M  V30 1781 O 164.7 -1.58231 3.19126 0
M  V30 1782 O 163.559 -2.65024 4.77938 0
M  V30 1783 H 160.653 -0.431772 0.705338 0
M  V30 1784 H 163.199 -0.161487 1.6893 0
M  V30 1785 H 161.971 -0.701715 3.84957 0
M  V30 1786 H 161.594 -2.30471 3.23989 0
M  V30 1787 N 162.591 -1.51276 -0.441967 0
M  V30 1788 C 163.84 -1.6295 -1.18871 0
M  V30 1789 C 164.153 -0.349312 -1.92456 0
M  V30 1790 O 165.359 -0.345355 -2.69295 0
M  V30 1791 C 163.815 -2.87759 -2.16155 0
M  V30 1792 C 163.423 -4.22764 -1.48239 0
M  V30 1793 C 165.167 -3.08788 -2.91291 0
M  V30 1794 C 163.074 -5.38728 -2.4398 0
M  V30 1795 H 162.004 -0.606913 -0.447406 0
M  V30 1796 H 164.655 -1.77739 -0.456205 0
M  V30 1797 H 163.037 -2.66593 -2.92821 0
M  V30 1798 H 164.211 -4.54293 -0.771635 0
M  V30 1799 H 162.526 -4.07575 -0.852741 0
M  V30 1800 H 165.123 -3.92599 -3.63002 0
M  V30 1801 H 165.466 -2.21679 -3.5237 0
M  V30 1802 H 165.999 -3.30272 -2.21733 0
M  V30 1803 H 162.738 -6.28082 -1.87598 0
M  V30 1804 H 162.258 -5.1158 -3.13123 0
M  V30 1805 H 163.937 -5.70489 -3.05207 0
M  V30 1806 N 164.069 0.697108 -1.41344 0
M  V30 1807 C 165.48 1.27697 -1.36199 0
M  V30 1808 C 165.831 1.9615 -0.0443463 0
M  V30 1809 O 164.956 1.98689 0.857419 0
M  V30 1810 C 165.551 2.32223 -2.46694 0
M  V30 1811 C 164.11 2.8579 -2.44952 0
M  V30 1812 C 163.257 1.59807 -2.26621 0
M  V30 1813 H 166.208 0.491968 -1.50882 0
M  V30 1814 H 166.229 3.1348 -2.15664 0
M  V30 1815 H 165.741 1.82373 -3.42581 0
M  V30 1816 H 163.842 3.3982 -1.52817 0
M  V30 1817 H 163.955 3.36325 -3.41207 0
M  V30 1818 H 162.319 1.8556 -1.7447 0
M  V30 1819 H 163.102 1.11956 -3.24532 0
M  V30 1820 N 165.547 1.27147 0.931209 0
M  V30 1821 C 166.793 1.13446 1.68101 0
M  V30 1822 C 167.126 -0.319628 1.91552 0
M  V30 1823 O 166.401 -1.23407 1.50336 0
M  V30 1824 C 166.684 1.91482 3.0497 0
M  V30 1825 C 166.537 3.44855 2.88782 0
M  V30 1826 C 167.856 1.71651 4.05246 0
M  V30 1827 H 164.975 0.413498 0.610072 0
M  V30 1828 H 167.617 1.56261 1.08086 0
M  V30 1829 H 165.767 1.55095 3.56199 0
M  V30 1830 H 167.439 3.9105 2.44698 0
M  V30 1831 H 165.682 3.71373 2.24198 0
M  V30 1832 H 166.353 3.94694 3.85902 0
M  V30 1833 H 168.829 2.0337 3.63015 0
M  V30 1834 H 167.705 2.28651 4.99009 0
M  V30 1835 H 167.966 0.663555 4.37092 0
M  V30 1836 N 167.025 -1.13721 1.09112 0
M  V30 1837 C 168.255 -1.88499 0.845671 0
M  V30 1838 C 168.663 -1.79218 -0.606432 0
M  V30 1839 O 168.006 -1.1544 -1.42896 0
M  V30 1840 C 168.068 -3.38954 1.19793 0
M  V30 1841 C 167.732 -3.72018 2.65428 0
M  V30 1842 C 168.729 -3.7153 3.63677 0
M  V30 1843 C 166.414 -4.01775 3.01467 0
M  V30 1844 C 168.408 -4.00336 4.95994 0
M  V30 1845 C 166.095 -4.30243 4.33975 0
M  V30 1846 C 167.093 -4.29508 5.31048 0
M  V30 1847 O 166.781 -4.5728 6.61173 0
M  V30 1848 H 166.513 -0.603702 0.304171 0
M  V30 1849 H 169.067 -1.44903 1.45576 0
M  V30 1850 H 167.297 -3.83039 0.530871 0
M  V30 1851 H 168.986 -3.95052 0.932146 0
M  V30 1852 H 169.752 -3.4862 3.37179 0
M  V30 1853 H 165.631 -4.01496 2.26544 0
M  V30 1854 H 169.175 -3.99678 5.71755 0
M  V30 1855 H 165.072 -4.52625 4.60219 0
M  V30 1856 H 165.84 -4.74964 6.66597 0
M  V30 1857 N 168.503 -0.877838 -1.30888 0
M  V30 1858 C 169.749 -0.493426 -1.96706 0
M  V30 1859 C 170.082 0.953504 -1.6918 0
M  V30 1860 O 169.357 1.67266 -0.992594 0
M  V30 1861 C 169.64 -0.760429 -3.51979 0
M  V30 1862 C 169.493 -2.25747 -3.89048 0
M  V30 1863 C 170.812 -0.232148 -4.39487 0
M  V30 1864 H 167.931 -0.180746 -0.714493 0
M  V30 1865 H 170.573 -1.10052 -1.54882 0
M  V30 1866 H 168.723 -0.243715 -3.87735 0
M  V30 1867 H 170.395 -2.84204 -3.63354 0
M  V30 1868 H 168.638 -2.72694 -3.37373 0
M  V30 1869 H 169.309 -2.39491 -4.97341 0
M  V30 1870 H 171.785 -0.674314 -4.106 0
M  V30 1871 H 170.661 -0.448355 -5.47066 0
M  V30 1872 H 170.922 0.866297 -4.33529 0
M  V30 1873 N 169.982 1.44106 -0.638065 0
M  V30 1874 C 171.228 2.02277 -0.145546 0
M  V30 1875 C 171.561 1.50125 1.23191 0
M  V30 1876 O 170.836 0.688133 1.8192 0
M  V30 1877 C 171.119 3.59829 -0.139791 0
M  V30 1878 C 170.972 4.22247 -1.55008 0
M  V30 1879 C 172.291 4.36873 0.531966 0
M  V30 1880 H 169.41 0.734992 -0.0543632 0
M  V30 1881 H 172.052 1.71592 -0.815863 0
M  V30 1882 H 170.202 3.86102 0.431007 0
M  V30 1883 H 171.874 4.07057 -2.1703 0
M  V30 1884 H 170.117 3.79476 -2.10191 0
M  V30 1885 H 170.788 5.31284 -1.49804 0
M  V30 1886 H 173.264 4.16074 0.0464781 0
M  V30 1887 H 172.14 5.4657 0.505206 0
M  V30 1888 H 172.401 4.11995 1.60352 0
M  V30 1889 N 171.46 0.379036 1.52974 0
M  V30 1890 C 172.737 -0.263479 1.93817 0
M  V30 1891 C 173.117 -1.65244 1.31368 0
M  V30 1892 O 172.465 -2.23448 0.477856 0
M  V30 1893 C 172.675 -0.300166 3.47707 0
M  V30 1894 C 174.023 -0.534061 4.21228 0
M  V30 1895 O 175.047 -0.38081 3.54159 0
M  V30 1896 O 173.906 -0.833501 5.40106 0
M  V30 1897 H 171 -0.161149 0.811147 0
M  V30 1898 H 173.546 0.432798 1.64088 0
M  V30 1899 H 172.318 0.673138 3.85467 0
M  V30 1900 H 171.941 -1.04179 3.83709 0
M  V30 1901 N 172.938 -1.57226 0.108567 0
M  V30 1902 C 174.166 -1.99179 -0.559954 0
M  V30 1903 C 174.581 -0.988022 -1.60884 0
M  V30 1904 O 173.938 0.0205512 -1.82488 0
M  V30 1905 C 173.989 -3.41159 -1.19552 0
M  V30 1906 O 173.71 -4.37694 -0.188577 0
M  V30 1907 C 175.211 -3.98188 -1.94837 0
M  V30 1908 H 172.431 -0.654228 -0.149088 0
M  V30 1909 H 174.975 -2.03598 0.19183 0
M  V30 1910 H 173.13 -3.37711 -1.89815 0
M  V30 1911 H 173.544 -5.20469 -0.649014 0
M  V30 1912 H 175.018 -4.99644 -2.34648 0
M  V30 1913 H 175.495 -3.3675 -2.81951 0
M  V30 1914 H 176.101 -4.0515 -1.2936 0
M  V30 1915 N 174.416 0.165178 -1.56732 0
M  V30 1916 C 175.346 1.20651 -1.99914 0
M  V30 1917 C 176.327 1.45827 -0.875705 0
M  V30 1918 O 177.512 1.57057 -1.14223 0
M  V30 1919 C 174.642 2.54401 -2.36427 0
M  V30 1920 C 173.596 2.43782 -3.51787 0
M  V30 1921 C 172.922 3.82078 -3.7406 0
M  V30 1922 C 174.222 1.93732 -4.85041 0
M  V30 1923 H 175.916 0.847534 -2.87154 0
M  V30 1924 H 173.462 0.40625 -1.38151 0
M  V30 1925 H 175.415 3.27458 -2.65234 0
M  V30 1926 H 174.139 2.92098 -1.46103 0
M  V30 1927 H 172.798 1.73178 -3.23117 0
M  V30 1928 H 172.446 4.17179 -2.81017 0
M  V30 1929 H 172.146 3.7584 -4.51684 0
M  V30 1930 H 173.67 4.56712 -4.05274 0
M  V30 1931 H 175.084 2.56569 -5.12684 0
M  V30 1932 H 173.481 1.98428 -5.66345 0
M  V30 1933 H 174.551 0.891962 -4.76626 0
M  V30 1934 N 175.894 1.51508 0.433938 0
M  V30 1935 C 176.824 1.76016 1.53429 0
M  V30 1936 C 177.805 0.610112 1.58782 0
M  V30 1937 O 178.99 0.853177 1.74455 0
M  V30 1938 C 176.12 1.88831 2.9148 0
M  V30 1939 C 175.074 3.04288 3.00987 0
M  V30 1940 C 174.4 3.0229 4.4105 0
M  V30 1941 C 175.7 4.44193 2.74754 0
M  V30 1942 H 177.394 2.68152 1.33171 0
M  V30 1943 H 174.94 1.29035 0.639214 0
M  V30 1944 H 176.893 2.04559 3.6842 0
M  V30 1945 H 175.617 0.933455 3.12976 0
M  V30 1946 H 174.276 2.8827 2.26486 0
M  V30 1947 H 173.924 2.04576 4.59519 0
M  V30 1948 H 173.624 3.79822 4.4834 0
M  V30 1949 H 175.148 3.20116 5.1996 0
M  V30 1950 H 176.562 4.60544 3.41426 0
M  V30 1951 H 174.959 5.23457 2.9345 0
M  V30 1952 H 176.029 4.53996 1.70339 0
M  V30 1953 N 177.372 -0.689602 1.41712 0
M  V30 1954 C 178.335 -1.78521 1.43746 0
M  V30 1955 C 179.335 -1.57436 0.327191 0
M  V30 1956 O 180.525 -1.64 0.587348 0
M  V30 1957 C 177.657 -3.16971 1.25467 0
M  V30 1958 H 178.85 -1.78108 2.41283 0
M  V30 1959 H 176.403 -0.89781 1.27942 0
M  V30 1960 H 177.138 -3.23019 0.287948 0
M  V30 1961 H 176.923 -3.33678 2.05917 0
M  V30 1962 H 178.413 -3.96935 1.2974 0
M  V30 1963 N 178.85 -1.27639 -0.924453 0
M  V30 1964 C 180.075 -1.17101 -1.71179 0
M  V30 1965 C 180.5 0.268134 -1.86179 0
M  V30 1966 O 179.858 1.19415 -1.36418 0
M  V30 1967 C 179.906 -1.86313 -3.08739 0
M  V30 1968 O 179.01 -1.16331 -3.95652 0
M  V30 1969 H 178.351 -0.407091 -0.524569 0
M  V30 1970 H 180.881 -1.68767 -1.15666 0
M  V30 1971 H 180.891 -1.938 -3.59034 0
M  V30 1972 H 179.566 -2.91001 -2.97138 0
M  V30 1973 H 178.143 -1.16935 -3.54091 0
M  V30 1974 N 180.328 1.1314 -1.09713 0
M  V30 1975 C 181.576 1.84119 -0.833338 0
M  V30 1976 C 181.897 1.84097 0.642904 0
M  V30 1977 O 181.167 1.29881 1.46655 0
M  V30 1978 H 179.747 0.681766 -0.305293 0
M  V30 1979 H 182.409 1.37038 -1.38588 0
M  V30 1980 H 181.505 2.88543 -1.18951 0
M  V30 1981 N 181.806 0.884767 1.30421 0
M  V30 1982 C 182.769 0.356277 2.26414 0
M  V30 1983 C 183.769 -0.501124 1.52792 0
M  V30 1984 O 184.959 -0.30831 1.7145 0
M  V30 1985 C 182.091 -0.492316 3.37326 0
M  V30 1986 H 183.284 1.20389 2.74675 0
M  V30 1987 H 180.837 0.661607 1.41607 0
M  V30 1988 H 181.572 -1.36052 2.94381 0
M  V30 1989 H 181.357 0.121832 3.91911 0
M  V30 1990 H 182.847 -0.853871 4.08777 0
M  V30 1991 N 183.284 -1.43765 0.645699 0
M  V30 1992 C 184.533 -2.01116 0.153412 0
M  V30 1993 C 184.846 -1.51493 -1.23731 0
M  V30 1994 O 186.052 -2.01067 -1.8244 0
M  V30 1995 C 184.508 -3.59206 0.223473 0
M  V30 1996 C 184.116 -4.17823 1.61642 0
M  V30 1997 C 185.86 -4.23972 -0.211597 0
M  V30 1998 C 183.767 -5.68183 1.64081 0
M  V30 1999 H 182.697 -0.752093 0.0535891 0
M  V30 2000 H 185.348 -1.6482 0.806633 0
M  V30 2001 H 183.73 -3.92867 -0.497118 0
M  V30 2002 H 184.904 -3.95674 2.36176 0
M  V30 2003 H 183.219 -3.65399 1.99681 0
M  V30 2004 H 185.816 -5.34275 -0.213112 0
M  V30 2005 H 186.159 -3.97352 -1.24165 0
M  V30 2006 H 186.692 -3.95166 0.456988 0
M  V30 2007 H 183.431 -5.99559 2.64971 0
M  V30 2008 H 182.951 -5.9241 0.938611 0
M  V30 2009 H 184.63 -6.32085 1.3812 0
M  V30 2010 N 184.763 -0.387143 -1.52771 0
M  V30 2011 C 186.174 0.0873634 -1.86495 0
M  V30 2012 C 186.525 1.46336 -1.30691 0
M  V30 2013 O 185.65 2.068 -0.637409 0
M  V30 2014 C 186.245 0.165305 -3.38396 0
M  V30 2015 C 184.804 0.584101 -3.7184 0
M  V30 2016 C 183.951 -0.255279 -2.76122 0
M  V30 2017 H 186.902 -0.605104 -1.46711 0
M  V30 2018 H 186.923 0.984848 -3.67534 0
M  V30 2019 H 186.435 -0.836301 -3.78982 0
M  V30 2020 H 184.536 1.59315 -3.36823 0
M  V30 2021 H 184.649 0.343749 -4.77865 0
M  V30 2022 H 183.013 0.279126 -2.53166 0
M  V30 2023 H 183.796 -1.25482 -3.19545 0
M  V30 2024 N 186.241 1.57166 -0.116904 0
M  V30 2025 C 187.171 2.18222 0.830759 0
M  V30 2026 C 188.152 1.12167 1.27877 0
M  V30 2027 O 189.337 1.40394 1.34176 0
M  V30 2028 C 186.467 2.77996 2.08172 0
M  V30 2029 C 185.421 3.89614 1.77157 0
M  V30 2030 C 184.747 4.36187 3.09265 0
M  V30 2031 C 186.047 5.1181 1.04151 0
M  V30 2032 H 187.741 2.97664 0.321992 0
M  V30 2033 H 185.287 1.4318 0.153434 0
M  V30 2034 H 187.24 3.19366 2.74924 0
M  V30 2035 H 185.964 1.9584 2.6137 0
M  V30 2036 H 184.623 3.48816 1.12796 0
M  V30 2037 H 184.271 3.50893 3.60393 0
M  V30 2038 H 183.971 5.11455 2.89288 0
M  V30 2039 H 185.495 4.80207 3.77139 0
M  V30 2040 H 186.909 5.50214 1.61052 0
M  V30 2041 H 185.306 5.92648 0.942762 0
M  V30 2042 H 186.376 4.84892 0.0279022 0
M  V30 2043 N 187.719 -0.156864 1.56817 0
M  V30 2044 C 189.13 -0.717916 1.72345 0
M  V30 2045 C 189.481 -1.82124 0.729747 0
M  V30 2046 O 188.606 -2.16141 -0.105781 0
M  V30 2047 C 189.201 -1.30904 3.12489 0
M  V30 2048 C 187.76 -1.81676 3.29653 0
M  V30 2049 C 186.907 -0.701349 2.68284 0
M  V30 2050 H 189.858 0.0686989 1.58551 0
M  V30 2051 H 189.879 -2.17882 3.11942 0
M  V30 2052 H 189.391 -0.505796 3.8479 0
M  V30 2053 H 187.492 -2.64598 2.62333 0
M  V30 2054 H 187.605 -1.95226 4.3752 0
M  V30 2055 H 185.969 -1.12548 2.28484 0
M  V30 2056 H 186.752 0.0902846 3.43181 0
M  V30 2057 N 189.197 -1.51736 -0.425897 0
M  V30 2058 C 190.16 -1.73271 -1.50032 0
M  V30 2059 C 191.16 -0.602639 -1.4908 0
M  V30 2060 O 192.35 -0.87033 -1.509 0
M  V30 2061 C 189.482 -1.79969 -2.89523 0
M  V30 2062 H 190.675 -2.69172 -1.32237 0
M  V30 2063 H 188.228 -1.41899 -0.65532 0
M  V30 2064 H 188.963 -0.859241 -3.1271 0
M  V30 2065 H 188.748 -2.62109 -2.91619 0
M  V30 2066 H 190.238 -1.9843 -3.67444 0
M  V30 2067 N 190.675 0.682077 -1.42076 0
M  V30 2068 C 192.091 0.994324 -1.24841 0
M  V30 2069 C 192.291 2.0096 -0.147389 0
M  V30 2070 O 191.347 2.47822 0.483782 0
M  V30 2071 C 192.66 1.50607 -2.60265 0
M  V30 2072 C 194.208 1.62421 -2.6756 0
M  V30 2073 C 194.683 2.16994 -4.03333 0
M  V30 2074 N 196.174 2.24337 -4.0525 0
M  V30 2075 C 196.909 2.67621 -5.07116 0
M  V30 2076 N 196.405 3.1041 -6.19368 0
M  V30 2077 N 198.198 2.67305 -4.94474 0
M  V30 2078 H 190.349 0.00973908 -2.12398 0
M  V30 2079 H 192.612 0.0668593 -0.945639 0
M  V30 2080 H 192.318 0.834583 -3.41654 0
M  V30 2081 H 192.192 2.48602 -2.83684 0
M  V30 2082 H 194.579 2.28678 -1.86521 0
M  V30 2083 H 194.66 0.629352 -2.47937 0
M  V30 2084 H 194.304 1.51349 -4.84826 0
M  V30 2085 H 194.234 3.17258 -4.20304 0
M  V30 2086 H 196.725 1.94158 -3.24209 0
M  V30 2087 H 197.038 3.42103 -6.92954 0
M  V30 2088 H 195.383 3.08286 -6.22884 0
M  V30 2089 H 198.574 2.33233 -4.05857 0
M  V30 2090 H 198.747 3.00718 -5.73997 0
M  V30 2091 N 192.153 1.28127 0.917671 0
M  V30 2092 C 193.399 1.15223 1.66888 0
M  V30 2093 C 193.732 -0.299293 1.9188 0
M  V30 2094 O 193.007 -1.21805 1.51637 0
M  V30 2095 C 193.29 1.94706 3.02922 0
M  V30 2096 C 193.143 3.47898 2.85109 0
M  V30 2097 C 194.462 1.75939 4.03402 0
M  V30 2098 H 191.581 0.419946 0.605652 0
M  V30 2099 H 194.223 1.57398 1.06423 0
M  V30 2100 H 192.373 1.58864 3.54534 0
M  V30 2101 H 194.045 3.93624 2.40537 0
M  V30 2102 H 192.288 3.7373 2.20246 0
M  V30 2103 H 192.959 3.98765 3.81694 0
M  V30 2104 H 195.435 2.07209 3.60837 0
M  V30 2105 H 194.311 2.33931 4.96556 0
M  V30 2106 H 194.572 0.709877 4.36364 0
M  V30 2107 N 193.631 -1.12557 1.10312 0
M  V30 2108 C 194.594 -2.16434 0.75424 0
M  V30 2109 C 195.594 -1.59278 -0.220685 0
M  V30 2110 O 196.784 -1.742 0.00230591 0
M  V30 2111 C 193.916 -3.40699 0.116987 0
M  V30 2112 H 195.109 -2.48811 1.67431 0
M  V30 2113 H 192.662 -1.27542 0.903475 0
M  V30 2114 H 193.397 -3.13921 -0.813877 0
M  V30 2115 H 193.182 -3.83459 0.818613 0
M  V30 2116 H 194.672 -4.17451 -0.111387 0
M  V30 2117 N 195.109 -0.891671 -1.2995 0
M  V30 2118 C 196.525 -0.58662 -1.48428 0
M  V30 2119 C 196.725 0.873951 -1.81561 0
M  V30 2120 O 195.781 1.65471 -1.90724 0
M  V30 2121 C 197.094 -1.50553 -2.60296 0
M  V30 2122 C 198.642 -1.50988 -2.74175 0
M  V30 2123 C 199.117 -2.41488 -3.89163 0
M  V30 2124 N 200.608 -2.39489 -3.96483 0
M  V30 2125 C 201.343 -3.06223 -4.84784 0
M  V30 2126 N 200.839 -3.82206 -5.77833 0
M  V30 2127 N 202.632 -2.95421 -4.78208 0
M  V30 2128 H 194.783 -1.83644 -1.06718 0
M  V30 2129 H 197.046 -0.786455 -0.529332 0
M  V30 2130 H 196.752 -2.54581 -2.42654 0
M  V30 2131 H 196.626 -1.22008 -3.56923 0
M  V30 2132 H 199.013 -0.47708 -2.91218 0
M  V30 2133 H 199.094 -1.83567 -1.78148 0
M  V30 2134 H 198.738 -3.44857 -3.72876 0
M  V30 2135 H 198.668 -2.06222 -4.84541 0
M  V30 2136 H 201.159 -1.84278 -3.29924 0
M  V30 2137 H 201.472 -4.302 -6.41988 0
M  V30 2138 H 199.817 -3.86313 -5.77743 0
M  V30 2139 H 203.008 -2.35581 -4.04499 0
M  V30 2140 H 203.181 -3.47704 -5.46814 0
M  V30 2141 N 196.587 1.43421 -0.653314 0
M  V30 2142 C 197.497 2.34568 0.0388565 0
M  V30 2143 C 198.513 1.53888 0.81207 0
M  V30 2144 O 199.689 1.86539 0.759294 0
M  V30 2145 C 196.754 3.32167 0.993269 0
M  V30 2146 C 195.815 4.28751 0.216977 0
M  V30 2147 C 195.048 5.21688 1.12593 0
M  V30 2148 O 195.271 5.19052 2.36519 0
M  V30 2149 O 194.205 5.98919 0.598284 0
M  V30 2150 H 198.031 2.95251 -0.711386 0
M  V30 2151 H 195.616 1.43564 -0.413502 0
M  V30 2152 H 197.498 3.92183 1.54176 0
M  V30 2153 H 196.173 2.73987 1.72374 0
M  V30 2154 H 195.08 3.72215 -0.375101 0
M  V30 2155 H 196.413 4.89913 -0.473924 0
M  V30 2156 N 198.065 0.39524 1.52563 0
M  V30 2157 C 198.998 -0.4813 2.23067 0
M  V30 2158 C 199.976 -1.05927 1.23362 0
M  V30 2159 O 201.16 -1.10979 1.52368 0
M  V30 2160 C 198.287 -1.66676 2.9485 0
M  V30 2161 C 197.333 -1.21348 4.08873 0
M  V30 2162 S 198.166 -0.190102 5.35162 0
M  V30 2163 C 199.322 -1.38121 6.1047 0
M  V30 2164 H 199.555 0.117381 2.97068 0
M  V30 2165 H 197.088 0.179458 1.53354 0
M  V30 2166 H 199.046 -2.3466 3.36816 0
M  V30 2167 H 197.707 -2.23676 2.20518 0
M  V30 2168 H 196.9 -2.09877 4.58222 0
M  V30 2169 H 196.502 -0.612486 3.68951 0
M  V30 2170 H 198.794 -2.30726 6.37002 0
M  V30 2171 H 199.737 -0.928521 7.01986 0
M  V30 2172 H 200.145 -1.60071 5.41329 0
M  V30 2173 N 199.544 -1.57102 0.125237 0
M  V30 2174 C 200.474 -2.18659 -0.819174 0
M  V30 2175 C 201.455 -1.12843 -1.27281 0
M  V30 2176 O 202.64 -1.41104 -1.33429 0
M  V30 2177 C 199.77 -2.79096 -2.06695 0
M  V30 2178 C 198.724 -3.90548 -1.75088 0
M  V30 2179 C 198.05 -4.37821 -3.06948 0
M  V30 2180 C 199.35 -5.12356 -1.01435 0
M  V30 2181 H 201.044 -2.9783 -0.306202 0
M  V30 2182 H 198.59 -1.4326 -0.145839 0
M  V30 2183 H 200.543 -3.2082 -2.73226 0
M  V30 2184 H 199.267 -1.97223 -2.60328 0
M  V30 2185 H 197.926 -3.49409 -1.10944 0
M  V30 2186 H 197.574 -3.52799 -3.58527 0
M  V30 2187 H 197.274 -5.12982 -2.86571 0
M  V30 2188 H 198.798 -4.822 -3.74587 0
M  V30 2189 H 200.212 -5.5106 -1.58132 0
M  V30 2190 H 198.609 -5.9314 -0.911319 0
M  V30 2191 H 199.679 -4.849 -0.00218681 0
M  V30 2192 N 201.022 0.148545 -1.56898 0
M  V30 2193 C 201.932 1.20293 -2.01412 0
M  V30 2194 C 202.948 1.47107 -0.929273 0
M  V30 2195 O 204.124 1.58807 -1.23863 0
M  V30 2196 C 201.189 2.51682 -2.38447 0
M  V30 2197 C 200.25 2.32529 -3.60872 0
M  V30 2198 C 199.483 3.57653 -3.96132 0
M  V30 2199 O 199.706 4.63771 -3.32073 0
M  V30 2200 O 198.64 3.50408 -4.89385 0
M  V30 2201 H 202.466 0.855025 -2.91416 0
M  V30 2202 H 200.051 0.357151 -1.45068 0
M  V30 2203 H 201.933 3.29147 -2.63135 0
M  V30 2204 H 200.608 2.86006 -1.51599 0
M  V30 2205 H 199.515 1.53019 -3.41373 0
M  V30 2206 H 200.848 2.03121 -4.48333 0
M  V30 2207 N 202.5 1.5196 0.417844 0
M  V30 2208 C 203.448 1.75278 1.52907 0
M  V30 2209 C 204.442 0.619611 1.57662 0
M  V30 2210 O 205.648 0.801457 1.61173 0
M  V30 2211 H 202.023 0.554141 0.508362 0
M  V30 2212 H 203.994 2.68389 1.30422 0
M  V30 2213 C 202.743 1.91262 2.90369 0
M  V30 2214 H 202.066 2.77872 2.8745 0
M  V30 2215 H 203.506 2.11581 3.67436 0
M  V30 2216 C 201.965 0.677431 3.30019 0
M  V30 2217 O 202.495 -0.158799 4.01386 0
M  V30 2218 N 200.701 0.515851 2.85985 0
M  V30 2219 H 200.248 1.19744 2.28077 0
M  V30 2220 H 200.206 -0.309315 3.12875 0
M  V30 2221 N 203.978 -0.674533 1.42435 0
M  V30 2222 C 205.226 -1.43175 1.42637 0
M  V30 2223 C 205.547 -1.94951 0.0438992 0
M  V30 2224 O 204.817 -1.7308 -0.917607 0
M  V30 2225 H 203.397 -0.531307 0.525092 0
M  V30 2226 H 206.059 -0.797006 1.77859 0
M  V30 2227 H 205.155 -2.28463 2.12629 0
M  V30 2228 N 205.456 -1.28612 -0.910864 0
M  V30 2229 C 206.419 -1.12803 -1.9952 0
M  V30 2230 C 207.419 -0.0668264 -1.60661 0
M  V30 2231 O 208.609 -0.312847 -1.71368 0
M  V30 2232 C 205.741 -0.72254 -3.33155 0
M  V30 2233 H 206.934 -2.09109 -2.14973 0
M  V30 2234 H 204.487 -1.11639 -1.09391 0
M  V30 2235 H 205.222 0.241152 -3.23402 0
M  V30 2236 H 205.007 -1.48916 -3.62721 0
M  V30 2237 H 206.497 -0.634666 -4.12749 0
M  V30 2238 N 206.934 1.1197 -1.10907 0
M  V30 2239 C 208.162 1.87402 -0.876824 0
M  V30 2240 C 208.577 1.79894 0.573025 0
M  V30 2241 O 207.934 1.17629 1.39534 0
M  V30 2242 C 207.985 3.36428 -1.32282 0
M  V30 2243 O 207.706 3.43765 -2.71582 0
M  V30 2244 C 209.207 4.28783 -1.12518 0
M  V30 2245 H 206.427 0.592793 -0.314384 0
M  V30 2246 H 208.971 1.41649 -1.47499 0
M  V30 2247 H 207.126 3.79706 -0.768229 0
M  V30 2248 H 207.54 4.3652 -2.90776 0
M  V30 2249 H 209.014 5.31613 -1.48633 0
M  V30 2250 H 209.491 4.39153 -0.0642394 0
M  V30 2251 H 210.097 3.91291 -1.66648 0
M  V30 2252 N 208.412 0.89855 1.29475 0
M  V30 2253 C 209.661 0.519863 1.94885 0
M  V30 2254 C 209.974 -0.9383 1.71625 0
M  V30 2255 O 211.18 -1.42445 2.31131 0
M  V30 2256 C 209.636 0.878836 3.49005 0
M  V30 2257 C 209.244 2.35569 3.81066 0
M  V30 2258 C 210.988 0.570004 4.20656 0
M  V30 2259 C 208.895 2.65558 5.28425 0
M  V30 2260 H 207.825 0.190692 0.729488 0
M  V30 2261 H 210.476 1.09539 1.47219 0
M  V30 2262 H 208.858 0.232253 3.95318 0
M  V30 2263 H 210.032 3.04773 3.45616 0
M  V30 2264 H 208.347 2.63343 3.22552 0
M  V30 2265 H 210.944 0.770925 5.29113 0
M  V30 2266 H 211.287 -0.491404 4.1339 0
M  V30 2267 H 211.82 1.17438 3.8007 0
M  V30 2268 H 208.559 3.70493 5.40754 0
M  V30 2269 H 208.079 2.00977 5.65127 0
M  V30 2270 H 209.758 2.51765 5.96006 0
M  V30 2271 N 209.89 -1.43072 0.660911 0
M  V30 2272 C 210.8 -2.34585 -0.0264163 0
M  V30 2273 C 211.816 -1.54316 -0.803898 0
M  V30 2274 O 212.992 -1.86939 -0.749391 0
M  V30 2275 C 210.057 -3.32689 -0.975639 0
M  V30 2276 C 209.118 -4.2886 -0.194236 0
M  V30 2277 C 208.351 -5.22278 -1.09825 0
M  V30 2278 O 208.574 -5.20299 -2.33763 0
M  V30 2279 O 207.508 -5.99228 -0.566513 0
M  V30 2280 H 211.334 -2.94869 0.727034 0
M  V30 2281 H 208.919 -1.43342 0.42111 0
M  V30 2282 H 210.801 -3.92995 -1.52094 0
M  V30 2283 H 209.476 -2.74898 -1.70918 0
M  V30 2284 H 208.383 -3.72011 0.394835 0
M  V30 2285 H 209.716 -4.89655 0.499899 0
M  V30 2286 N 211.368 -0.403325 -1.52352 0
M  V30 2287 C 212.278 0.432009 -2.30588 0
M  V30 2288 C 213.294 1.05884 -1.38075 0
M  V30 2289 O 214.47 1.06161 -1.71148 0
M  V30 2290 C 211.535 1.53669 -3.10784 0
M  V30 2291 C 210.596 0.933525 -4.19027 0
M  V30 2292 C 209.829 1.98557 -4.9539 0
M  V30 2293 O 210.052 3.20283 -4.71991 0
M  V30 2294 O 208.986 1.59504 -5.80381 0
M  V30 2295 H 212.812 -0.205739 -3.03002 0
M  V30 2296 H 210.397 -0.166675 -1.48467 0
M  V30 2297 H 212.279 2.17814 -3.60742 0
M  V30 2298 H 210.954 2.15915 -2.41169 0
M  V30 2299 H 209.861 0.254954 -3.7323 0
M  V30 2300 H 211.194 0.35508 -4.90918 0
M  V30 2301 N 212.846 1.57033 -0.133567 0
M  V30 2302 C 214.092 1.95976 0.521649 0
M  V30 2303 C 214.425 1.01779 1.65393 0
M  V30 2304 O 213.7 0.0576581 1.94415 0
M  V30 2305 C 213.983 3.44738 1.04057 0
M  V30 2306 C 213.836 4.49711 -0.0892897 0
M  V30 2307 C 215.155 3.95682 1.92675 0
M  V30 2308 H 212.274 0.712579 0.188149 0
M  V30 2309 H 214.916 1.88813 -0.212076 0
M  V30 2310 H 213.066 3.50973 1.66583 0
M  V30 2311 H 214.738 4.55565 -0.725152 0
M  V30 2312 H 212.981 4.27261 -0.750378 0
M  V30 2313 H 213.652 5.51099 0.315284 0
M  V30 2314 H 216.128 3.91841 1.39998 0
M  V30 2315 H 215.004 5.00262 2.25897 0
M  V30 2316 H 215.265 3.37239 2.85872 0
M  V30 2317 N 214.325 -0.140222 1.56975 0
M  V30 2318 C 215.255 -1.17456 2.01808 0
M  V30 2319 C 216.236 -1.44415 0.898794 0
M  V30 2320 O 217.421 -1.5522 1.16707 0
M  V30 2321 C 214.551 -2.50607 2.40444 0
M  V30 2322 C 213.505 -2.38155 3.55621 0
M  V30 2323 C 212.831 -3.76078 3.80091 0
M  V30 2324 C 214.131 -1.85991 4.88062 0
M  V30 2325 H 215.825 -0.801743 2.88466 0
M  V30 2326 H 213.371 -0.38422 1.38779 0
M  V30 2327 H 215.324 -3.23197 2.7041 0
M  V30 2328 H 214.048 -2.89737 1.50732 0
M  V30 2329 H 212.707 -1.68016 3.25832 0
M  V30 2330 H 212.355 -4.12656 2.87618 0
M  V30 2331 H 212.055 -3.68606 4.57606 0
M  V30 2332 H 213.579 -4.50206 4.12488 0
M  V30 2333 H 214.993 -2.4838 5.16701 0
M  V30 2334 H 213.39 -1.89393 5.6943 0
M  V30 2335 H 214.46 -0.816023 4.77984 0
M  V30 2336 N 215.803 -1.52179 -0.40978 0
M  V30 2337 C 216.75 -1.75475 -1.49924 0
M  V30 2338 C 217.72 -0.597175 -1.54994 0
M  V30 2339 O 218.905 -0.834655 -1.71575 0
M  V30 2340 C 216.045 -1.9107 -2.87378 0
M  V30 2341 C 215.158 -3.18717 -2.91622 0
M  V30 2342 C 214.293 -3.24747 -4.20372 0
M  V30 2343 C 213.332 -4.46598 -4.18588 0
M  V30 2344 N 212.469 -4.50025 -5.38908 0
M  V30 2345 H 217.309 -2.68458 -1.29361 0
M  V30 2346 H 214.846 -1.33024 -0.627934 0
M  V30 2347 H 216.804 -1.98096 -3.6717 0
M  V30 2348 H 215.434 -1.01469 -3.06437 0
M  V30 2349 H 214.486 -3.20866 -2.04326 0
M  V30 2350 H 215.798 -4.08544 -2.86169 0
M  V30 2351 H 214.952 -3.30841 -5.08556 0
M  V30 2352 H 213.691 -2.32857 -4.28519 0
M  V30 2353 H 212.696 -4.40652 -3.28794 0
M  V30 2354 H 213.921 -5.39783 -4.12081 0
M  V30 2355 H 211.867 -3.61017 -5.47725 0
M  V30 2356 H 211.784 -5.33697 -5.35447 0
M  V30 2357 H 213.052 -4.60347 -6.29048 0
M  V30 2358 N 217.281 0.66697 -1.42791 0
M  V30 2359 C 218.228 1.7803 -1.4688 0
M  V30 2360 C 219.198 1.6299 -0.319919 0
M  V30 2361 O 220.383 1.83432 -0.525118 0
M  V30 2362 C 217.523 3.1611 -1.38451 0
M  V30 2363 C 216.636 3.42381 -2.63437 0
M  V30 2364 C 215.771 4.70232 -2.47094 0
M  V30 2365 C 214.81 4.89564 -3.67415 0
M  V30 2366 N 213.947 6.08661 -3.49966 0
M  V30 2367 H 218.787 1.7387 -2.42019 0
M  V30 2368 H 216.324 0.84868 -1.20149 0
M  V30 2369 H 218.282 3.95914 -1.31561 0
M  V30 2370 H 216.912 3.19374 -0.469033 0
M  V30 2371 H 215.964 2.56774 -2.80662 0
M  V30 2372 H 217.276 3.52557 -3.52853 0
M  V30 2373 H 216.43 5.5814 -2.37834 0
M  V30 2374 H 215.169 4.62353 -1.5518 0
M  V30 2375 H 214.174 4.00096 -3.77099 0
M  V30 2376 H 215.399 4.99282 -4.6032 0
M  V30 2377 H 213.345 6.0194 -2.60776 0
M  V30 2378 H 213.262 6.19733 -4.32975 0
M  V30 2379 H 214.53 6.99226 -3.44532 0
M  V30 2380 N 218.759 1.29093 0.90403 0
M  V30 2381 C 219.689 1.16401 2.02418 0
M  V30 2382 C 220.67 0.0593085 1.69997 0
M  V30 2383 O 221.855 0.238021 1.92736 0
M  V30 2384 C 218.985 0.835233 3.37107 0
M  V30 2385 C 217.939 1.89578 3.83724 0
M  V30 2386 C 217.265 1.42041 5.15489 0
M  V30 2387 C 218.565 3.30394 4.04521 0
M  V30 2388 H 220.259 2.10109 2.13295 0
M  V30 2389 H 217.805 1.01157 1.02486 0
M  V30 2390 H 219.758 0.733169 4.14973 0
M  V30 2391 H 218.482 -0.137543 3.2631 0
M  V30 2392 H 217.141 1.98715 3.08071 0
M  V30 2393 H 216.789 0.436426 5.01103 0
M  V30 2394 H 216.489 2.12964 5.4765 0
M  V30 2395 H 218.013 1.33176 5.959 0
M  V30 2396 H 219.427 3.24123 4.72882 0
M  V30 2397 H 217.824 3.99237 4.48029 0
M  V30 2398 H 218.894 3.73692 3.09002 0
M  V30 2399 N 220.237 -1.11381 1.11499 0
M  V30 2400 C 221.514 -1.7955 0.775965 0
M  V30 2401 C 221.894 -1.97859 -0.73588 0
M  V30 2402 O 221.242 -1.56376 -1.66609 0
M  V30 2403 C 221.452 -3.13196 1.53977 0
M  V30 2404 C 222.8 -3.88227 1.71944 0
M  V30 2405 O 223.824 -3.22887 1.50407 0
M  V30 2406 O 222.683 -5.05477 2.07738 0
M  V30 2407 H 219.777 -0.777728 0.28119 0
M  V30 2408 H 222.323 -1.18118 1.21845 0
M  V30 2409 H 221.095 -2.95229 2.56818 0
M  V30 2410 H 220.718 -3.82342 1.09088 0
M  V30 2411 N 221.715 -0.905404 -1.28997 0
M  V30 2412 C 222.625 -0.392246 -2.31298 0
M  V30 2413 C 223.641 0.515889 -1.66176 0
M  V30 2414 O 224.817 0.404093 -1.97304 0
M  V30 2415 C 221.882 0.36686 -3.44754 0
M  V30 2416 C 220.943 -0.573485 -4.25452 0
M  V30 2417 C 220.176 0.149488 -5.33491 0
M  V30 2418 O 220.399 1.37255 -5.5364 0
M  V30 2419 O 219.333 -0.510919 -5.99728 0
M  V30 2420 H 223.159 -1.2411 -2.77183 0
M  V30 2421 H 220.744 -0.669926 -1.33538 0
M  V30 2422 H 222.626 0.795907 -4.13816 0
M  V30 2423 H 221.301 1.19169 -3.00966 0
M  V30 2424 H 220.208 -1.05176 -3.59011 0
M  V30 2425 H 221.541 -1.36489 -4.72897 0
M  V30 2426 N 223.193 1.4272 -0.668489 0
M  V30 2427 C 224.609 1.55992 -0.33745 0
M  V30 2428 C 224.809 1.64933 1.15756 0
M  V30 2429 O 223.865 1.61278 1.94282 0
M  V30 2430 C 225.178 2.81314 -1.06222 0
M  V30 2431 C 226.726 2.95078 -1.04394 0
M  V30 2432 C 227.201 4.23252 -1.74991 0
M  V30 2433 N 228.692 4.3015 -1.71829 0
M  V30 2434 C 229.427 5.28127 -2.23315 0
M  V30 2435 N 228.923 6.32293 -2.83156 0
M  V30 2436 N 230.716 5.19882 -2.13726 0
M  V30 2437 H 222.867 1.3516 -1.63846 0
M  V30 2438 H 225.13 0.650174 -0.689912 0
M  V30 2439 H 224.836 2.80823 -2.11734 0
M  V30 2440 H 224.71 3.72012 -0.62344 0
M  V30 2441 H 227.097 2.951 0.0028244 0
M  V30 2442 H 227.178 2.05627 -1.52155 0
M  V30 2443 H 226.822 4.2399 -2.79633 0
M  V30 2444 H 226.752 5.11626 -1.24685 0
M  V30 2445 H 229.243 3.55499 -1.28175 0
M  V30 2446 H 229.556 7.03398 -3.20079 0
M  V30 2447 H 227.901 6.32873 -2.87223 0
M  V30 2448 H 231.092 4.37423 -1.66669 0
M  V30 2449 H 231.265 5.96077 -2.54158 0
M  V30 2450 N 224.671 0.411399 1.52136 0
M  V30 2451 C 225.604 -0.457614 2.23565 0
M  V30 2452 C 226.582 -1.04613 1.24478 0
M  V30 2453 O 227.766 -1.09356 1.53536 0
M  V30 2454 C 224.893 -1.6354 2.96602 0
M  V30 2455 C 223.939 -1.17005 4.10137 0
M  V30 2456 S 224.772 -0.13333 5.35334 0
M  V30 2457 C 225.928 -1.31638 6.119 0
M  V30 2458 H 226.161 0.148883 2.96927 0
M  V30 2459 H 223.694 0.195713 1.53155 0
M  V30 2460 H 225.652 -2.31074 3.39286 0
M  V30 2461 H 224.313 -2.21324 2.22878 0
M  V30 2462 H 223.506 -2.05005 4.60422 0
M  V30 2463 H 223.108 -0.573319 3.6958 0
M  V30 2464 H 225.4 -2.23957 6.39413 0
M  V30 2465 H 226.343 -0.854014 7.02931 0
M  V30 2466 H 226.751 -1.54321 5.42997 0
M  V30 2467 N 226.149 -1.5696 0.141893 0
M  V30 2468 C 227.096 -2.16501 -0.799737 0
M  V30 2469 C 228.066 -1.09643 -1.24771 0
M  V30 2470 O 229.251 -1.3766 -1.32115 0
M  V30 2471 C 226.391 -2.78679 -2.03549 0
M  V30 2472 C 225.504 -3.99914 -1.6338 0
M  V30 2473 C 224.639 -4.50106 -2.82096 0
M  V30 2474 C 223.678 -5.63819 -2.38275 0
M  V30 2475 N 222.815 -6.08651 -3.49983 0
M  V30 2476 H 227.655 -2.96632 -0.285179 0
M  V30 2477 H 225.192 -1.46533 -0.129053 0
M  V30 2478 H 227.15 -3.1287 -2.75986 0
M  V30 2479 H 225.78 -2.012 -2.52425 0
M  V30 2480 H 224.832 -3.71735 -0.807279 0
M  V30 2481 H 226.144 -4.82311 -1.27192 0
M  V30 2482 H 225.298 -4.86325 -3.62729 0
M  V30 2483 H 224.037 -3.66706 -3.21525 0
M  V30 2484 H 223.042 -5.2718 -1.56081 0
M  V30 2485 H 224.267 -6.49 -1.99938 0
M  V30 2486 H 222.213 -5.28188 -3.89042 0
M  V30 2487 H 222.13 -6.85961 -3.17794 0
M  V30 2488 H 223.398 -6.49515 -4.30988 0
M  V30 2489 N 227.627 0.131896 -1.57047 0
M  V30 2490 C 228.575 1.18146 -2.0036 0
M  V30 2491 C 229.569 1.43614 -0.898406 0
M  V30 2492 O 230.775 1.43729 -1.08361 0
M  V30 2493 H 227.15 0.398042 -0.638018 0
M  V30 2494 H 229.121 0.789564 -2.87765 0
M  V30 2495 C 227.87 2.50341 -2.41298 0
M  V30 2496 H 227.193 2.31578 -3.25902 0
M  V30 2497 H 228.633 3.22371 -2.75414 0
M  V30 2498 C 227.092 3.11984 -1.27153 0
M  V30 2499 O 227.622 3.97484 -0.580459 0
M  V30 2500 N 225.828 2.71662 -1.03189 0
M  V30 2501 H 225.375 2.02231 -1.59564 0
M  V30 2502 H 225.333 3.13238 -0.270077 0
M  V30 2503 N 229.106 1.52395 0.401703 0
M  V30 2504 C 230.053 1.76268 1.48991 0
M  V30 2505 C 231.023 0.605386 1.54675 0
M  V30 2506 O 232.208 0.843742 1.7113 0
M  V30 2507 C 229.348 1.92592 2.86361 0
M  V30 2508 C 228.461 3.20259 2.89928 0
M  V30 2509 C 227.596 3.26972 4.18644 0
M  V30 2510 C 226.635 4.48812 4.16214 0
M  V30 2511 N 225.772 4.52877 5.36514 0
M  V30 2512 H 230.612 2.6914 1.27935 0
M  V30 2513 H 228.149 1.33355 0.620871 0
M  V30 2514 H 230.107 2.0004 3.66115 0
M  V30 2515 H 228.737 1.03093 3.05895 0
M  V30 2516 H 227.789 3.21945 2.02621 0
M  V30 2517 H 229.101 4.10056 2.83999 0
M  V30 2518 H 228.255 3.33533 5.06794 0
M  V30 2519 H 226.994 2.35126 4.27278 0
M  V30 2520 H 225.999 4.4239 3.26453 0
M  V30 2521 H 227.224 5.41961 4.09213 0
M  V30 2522 H 225.17 3.63917 5.45802 0
M  V30 2523 H 225.087 5.36529 5.32609 0
M  V30 2524 H 226.355 4.63676 6.26597 0
M  V30 2525 N 230.584 -0.659388 1.43143 0
M  V30 2526 C 231.861 -1.41627 1.34912 0
M  V30 2527 C 232.241 -2.11099 -0.00607785 0
M  V30 2528 O 231.589 -2.04353 -1.02236 0
M  V30 2529 C 231.799 -2.40604 2.52805 0
M  V30 2530 C 233.147 -3.04789 2.95616 0
M  V30 2531 O 234.171 -2.50932 2.52807 0
M  V30 2532 O 233.03 -4.02421 3.69756 0
M  V30 2533 H 230.124 -0.63246 0.532844 0
M  V30 2534 H 232.67 -0.686814 1.5518 0
M  V30 2535 H 231.442 -1.88174 3.43083 0
M  V30 2536 H 231.065 -3.21009 2.34604 0
M  V30 2537 N 232.062 -1.29571 -0.897171 0
M  V30 2538 C 233.309 -1.17689 -1.6479 0
M  V30 2539 C 233.637 0.27107 -1.92602 0
M  V30 2540 O 232.892 1.21193 -1.53658 0
M  V30 2541 C 233.191 -1.9382 -3.00281 0
M  V30 2542 C 232.857 -3.43522 -2.92068 0
M  V30 2543 C 231.519 -3.84348 -2.89535 0
M  V30 2544 C 233.871 -4.38906 -2.81089 0
M  V30 2545 C 231.199 -5.18869 -2.73846 0
M  V30 2546 C 233.551 -5.73521 -2.66939 0
M  V30 2547 C 232.215 -6.13601 -2.62774 0
M  V30 2548 H 231.485 -0.430654 -0.603008 0
M  V30 2549 H 234.132 -1.60536 -1.04404 0
M  V30 2550 H 232.437 -1.4357 -3.64547 0
M  V30 2551 H 234.134 -1.82028 -3.57305 0
M  V30 2552 H 230.724 -3.11072 -2.94842 0
M  V30 2553 H 234.908 -4.08315 -2.82121 0
M  V30 2554 H 230.164 -5.4903 -2.69027 0
M  V30 2555 H 234.338 -6.47078 -2.57416 0
M  V30 2556 H 231.965 -7.17786 -2.50375 0
M  V30 2557 N 233.54 1.10788 -1.12088 0
M  V30 2558 C 234.487 2.17025 -0.785407 0
M  V30 2559 C 235.457 1.64265 0.246191 0
M  V30 2560 O 236.642 1.90412 0.121584 0
M  V30 2561 C 233.782 3.44249 -0.242177 0
M  V30 2562 C 232.895 4.1098 -1.33115 0
M  V30 2563 C 232.03 5.25911 -0.747741 0
M  V30 2564 C 231.069 5.84538 -1.81609 0
M  V30 2565 N 230.206 6.90853 -1.25167 0
M  V30 2566 H 235.046 2.45066 -1.69548 0
M  V30 2567 H 232.583 1.20297 -0.846582 0
M  V30 2568 H 234.541 4.17101 0.0908026 0
M  V30 2569 H 233.171 3.16571 0.631072 0
M  V30 2570 H 232.223 3.36133 -1.78097 0
M  V30 2571 H 233.535 4.50601 -2.13917 0
M  V30 2572 H 232.689 6.056 -0.365216 0
M  V30 2573 H 231.428 4.87614 0.0915188 0
M  V30 2574 H 230.433 5.03522 -2.20785 0
M  V30 2575 H 231.658 6.249 -2.6585 0
M  V30 2576 H 229.604 6.54562 -0.434174 0
M  V30 2577 H 229.521 7.29166 -1.99633 0
M  V30 2578 H 230.789 7.7433 -0.896259 0
M  V30 2579 N 235.018 0.912232 1.28515 0
M  V30 2580 C 235.981 0.404223 2.25607 0
M  V30 2581 C 236.981 -0.468602 1.53821 0
M  V30 2582 O 238.171 -0.271873 1.72065 0
M  V30 2583 C 235.303 -0.420653 3.38295 0
M  V30 2584 H 236.496 1.26188 2.7206 0
M  V30 2585 H 234.049 0.691495 1.40171 0
M  V30 2586 H 234.784 -1.29777 2.97201 0
M  V30 2587 H 234.569 0.204935 3.91564 0
M  V30 2588 H 236.059 -0.766971 4.10496 0
M  V30 2589 N 236.496 -1.42363 0.676048 0
M  V30 2590 C 237.745 -2.00745 0.196037 0
M  V30 2591 C 238.058 -1.54083 -1.20489 0
M  V30 2592 O 239.264 -2.04891 -1.78134 0
M  V30 2593 C 237.72 -3.58651 0.299616 0
M  V30 2594 C 237.328 -4.143 1.70468 0
M  V30 2595 C 239.072 -4.24326 -0.121619 0
M  V30 2596 C 236.979 -5.64574 1.76096 0
M  V30 2597 H 235.909 -0.750787 0.0695301 0
M  V30 2598 H 238.56 -1.63072 0.841412 0
M  V30 2599 H 236.942 -3.93833 -0.413673 0
M  V30 2600 H 238.116 -3.90575 2.44515 0
M  V30 2601 H 236.431 -3.61081 2.07387 0
M  V30 2602 H 239.028 -5.34607 -0.0997362 0
M  V30 2603 H 239.371 -3.99897 -1.15708 0
M  V30 2604 H 239.904 -3.94108 0.540706 0
M  V30 2605 H 236.643 -5.93804 2.77628 0
M  V30 2606 H 236.163 -5.90286 1.06406 0
M  V30 2607 H 237.842 -6.29013 1.51496 0
M  V30 2608 N 237.974 -0.419461 -1.51915 0
M  V30 2609 C 239.221 0.152939 -2.01922 0
M  V30 2610 C 239.549 1.4426 -1.30458 0
M  V30 2611 O 238.804 1.91514 -0.402593 0
M  V30 2612 C 239.103 0.437067 -3.54717 0
M  V30 2613 C 238.769 -0.764632 -4.44369 0
M  V30 2614 C 237.431 -1.09423 -4.68594 0
M  V30 2615 C 239.783 -1.56713 -4.97082 0
M  V30 2616 C 237.111 -2.22732 -5.42777 0
M  V30 2617 C 239.463 -2.69107 -5.72507 0
M  V30 2618 C 238.127 -3.02541 -5.95 0
M  V30 2619 H 237.397 0.0559644 -0.738884 0
M  V30 2620 H 240.044 -0.562998 -1.83037 0
M  V30 2621 H 238.349 1.23469 -3.71837 0
M  V30 2622 H 240.046 0.893083 -3.90928 0
M  V30 2623 H 236.636 -0.497775 -4.257 0
M  V30 2624 H 240.82 -1.32571 -4.78266 0
M  V30 2625 H 236.076 -2.48971 -5.58411 0
M  V30 2626 H 240.25 -3.31671 -6.12346 0
M  V30 2627 H 237.877 -3.90457 -6.52264 0
M  V30 2628 N 239.452 1.56882 -0.150215 0
M  V30 2629 C 240.682 2.00302 0.506213 0
M  V30 2630 C 241.09 1.02934 1.58749 0
M  V30 2631 O 240.433 0.0188384 1.8369 0
M  V30 2632 C 240.495 3.40156 1.16337 0
M  V30 2633 C 240.159 4.56439 0.226311 0
M  V30 2634 C 241.156 5.17012 -0.547265 0
M  V30 2635 C 238.841 5.02136 0.128279 0
M  V30 2636 C 240.835 6.21693 -1.40629 0
M  V30 2637 C 238.522 6.06672 -0.734345 0
M  V30 2638 C 239.52 6.6632 -1.50023 0
M  V30 2639 O 239.208 7.68831 -2.34848 0
M  V30 2640 H 238.94 0.662182 0.135984 0
M  V30 2641 H 241.494 2.03961 -0.242746 0
M  V30 2642 H 239.724 3.33346 1.96004 0
M  V30 2643 H 241.413 3.67663 1.71985 0
M  V30 2644 H 242.179 4.82603 -0.48158 0
M  V30 2645 H 238.058 4.55435 0.714157 0
M  V30 2646 H 241.602 6.68179 -2.00455 0
M  V30 2647 H 237.499 6.40507 -0.801309 0
M  V30 2648 H 238.267 7.86065 -2.28131 0
M  V30 2649 N 240.93 -0.123565 1.57115 0
M  V30 2650 C 242.176 -0.833386 1.84885 0
M  V30 2651 C 242.509 -1.79742 0.735292 0
M  V30 2652 O 241.784 -1.92764 -0.25925 0
M  V30 2653 C 242.067 -1.5873 3.23228 0
M  V30 2654 C 241.92 -0.643183 4.45178 0
M  V30 2655 C 243.239 -2.54453 3.59085 0
M  V30 2656 H 240.358 -0.301518 0.6725 0
M  V30 2657 H 243 -0.097778 1.89748 0
M  V30 2658 H 241.15 -2.21438 3.19214 0
M  V30 2659 H 242.822 -0.0253015 4.61293 0
M  V30 2660 H 241.065 0.0456139 4.33776 0
M  V30 2661 H 241.736 -1.20724 5.38637 0
M  V30 2662 H 244.212 -2.01853 3.63861 0
M  V30 2663 H 243.088 -3.04238 4.5687 0
M  V30 2664 H 243.349 -3.36906 2.86264 0
M  V30 2665 N 242.408 -1.52605 -0.393616 0
M  V30 2666 C 243.633 -1.71592 -1.16495 0
M  V30 2667 C 244.058 -0.43133 -1.83088 0
M  V30 2668 O 243.416 0.612523 -1.7064 0
M  V30 2669 C 243.464 -2.86318 -2.19213 0
M  V30 2670 O 242.568 -2.52969 -3.257 0
M  V30 2671 H 241.909 -0.570734 -0.33935 0
M  V30 2672 H 244.439 -1.99377 -0.459324 0
M  V30 2673 H 244.449 -3.1168 -2.63286 0
M  V30 2674 H 243.124 -3.79511 -1.7013 0
M  V30 2675 H 241.701 -2.38332 -2.86797 0
M  V30 2676 N 243.887 0.651787 -1.4349 0
M  V30 2677 C 244.835 1.78586 -1.49029 0
M  V30 2678 C 245.829 1.65448 -0.363767 0
M  V30 2679 O 247.035 1.71777 -0.537821 0
M  V30 2680 H 243.41 0.589236 -0.467231 0
M  V30 2681 H 245.381 1.71035 -2.44519 0
M  V30 2682 C 244.13 3.16851 -1.43181 0
M  V30 2683 H 243.453 3.27598 -2.29171 0
M  V30 2684 H 244.893 3.96156 -1.51118 0
M  V30 2685 C 243.352 3.36568 -0.149616 0
M  V30 2686 O 243.882 3.93885 0.788509 0
M  V30 2687 N 242.088 2.90539 -0.0593484 0
M  V30 2688 H 241.635 2.4408 -0.823575 0
M  V30 2689 H 241.593 3.04108 0.797853 0
M  V30 2690 N 245.365 1.30045 0.890287 0
M  V30 2691 C 246.612 1.18561 1.64163 0
M  V30 2692 C 246.94 -0.260852 1.92743 0
M  V30 2693 O 246.195 -1.20376 1.54299 0
M  V30 2694 C 246.494 1.95409 2.99249 0
M  V30 2695 C 246.16 3.45066 2.90242 0
M  V30 2696 C 244.822 3.85878 2.87492 0
M  V30 2697 C 247.174 4.4039 2.78758 0
M  V30 2698 C 244.502 5.20314 2.7109 0
M  V30 2699 C 246.854 5.74928 2.63894 0
M  V30 2700 C 245.518 6.14986 2.59516 0
M  V30 2701 H 244.788 0.433846 0.600715 0
M  V30 2702 H 247.435 1.61088 1.03552 0
M  V30 2703 H 245.74 1.45501 3.63781 0
M  V30 2704 H 247.437 1.8392 3.56334 0
M  V30 2705 H 244.027 3.12631 2.93189 0
M  V30 2706 H 248.211 4.09806 2.79952 0
M  V30 2707 H 243.467 5.50449 2.66112 0
M  V30 2708 H 247.641 6.48434 2.53981 0
M  V30 2709 H 245.268 7.19104 2.46565 0
M  V30 2710 N 246.843 -1.10192 1.12674 0
M  V30 2711 C 248.12 -1.78717 0.794965 0
M  V30 2712 C 248.5 -1.98628 -0.714853 0
M  V30 2713 O 247.848 -1.58135 -1.64941 0
M  V30 2714 C 248.058 -3.11546 1.5729 0
M  V30 2715 C 249.406 -3.86382 1.76052 0
M  V30 2716 O 250.43 -3.21274 1.53823 0
M  V30 2717 O 249.289 -5.03246 2.13087 0
M  V30 2718 H 246.383 -0.774702 0.289423 0
M  V30 2719 H 248.929 -1.16819 1.23091 0
M  V30 2720 H 247.701 -2.92489 2.59935 0
M  V30 2721 H 247.324 -3.81164 1.13137 0
M  V30 2722 N 248.321 -0.919034 -1.28029 0
M  V30 2723 C 249.551 -0.570143 -1.98577 0
M  V30 2724 C 249.959 0.854172 -1.68821 0
M  V30 2725 O 249.302 1.57807 -0.940351 0
M  V30 2726 C 249.364 -0.705734 -3.52505 0
M  V30 2727 C 249.028 -2.10057 -4.05863 0
M  V30 2728 C 250.025 -3.07385 -4.19298 0
M  V30 2729 C 247.71 -2.41517 -4.40426 0
M  V30 2730 C 249.704 -4.34287 -4.66555 0
M  V30 2731 C 247.391 -3.68657 -4.87376 0
M  V30 2732 C 248.389 -4.64856 -5.00398 0
M  V30 2733 O 248.077 -5.89735 -5.46322 0
M  V30 2734 H 247.809 -0.215592 -0.6407 0
M  V30 2735 H 250.363 -1.23583 -1.64062 0
M  V30 2736 H 248.593 0.0170414 -3.86696 0
M  V30 2737 H 250.282 -0.363172 -4.04272 0
M  V30 2738 H 251.048 -2.84398 -3.92865 0
M  V30 2739 H 246.927 -1.67389 -4.29537 0
M  V30 2740 H 250.471 -5.09377 -4.76635 0
M  V30 2741 H 246.368 -3.91466 -5.13249 0
M  V30 2742 H 247.136 -5.92599 -5.64596 0
M  V30 2743 N 249.799 1.42003 -0.683588 0
M  V30 2744 C 250.729 2.33487 -0.024866 0
M  V30 2745 C 251.71 1.51163 0.779975 0
M  V30 2746 O 252.895 1.79739 0.735362 0
M  V30 2747 C 250.025 3.3487 0.920836 0
M  V30 2748 C 248.979 4.27414 0.223958 0
M  V30 2749 C 248.305 5.19074 1.2832 0
M  V30 2750 C 249.605 5.14445 -0.90242 0
M  V30 2751 H 251.299 2.88819 -0.788921 0
M  V30 2752 H 248.845 1.38873 -0.38083 0
M  V30 2753 H 250.798 3.97787 1.39081 0
M  V30 2754 H 249.522 2.77861 1.71642 0
M  V30 2755 H 248.181 3.65904 -0.225864 0
M  V30 2756 H 247.829 4.58387 2.071 0
M  V30 2757 H 247.529 5.81822 0.821995 0
M  V30 2758 H 249.053 5.84867 1.75392 0
M  V30 2759 H 250.467 5.70998 -0.513272 0
M  V30 2760 H 248.864 5.86072 -1.28997 0
M  V30 2761 H 249.934 4.52322 -1.74737 0
M  V30 2762 N 251.277 0.427512 1.51691 0
M  V30 2763 C 252.523 -0.142439 2.02299 0
M  V30 2764 C 252.856 -1.43214 1.31162 0
M  V30 2765 O 252.131 -1.89833 0.423511 0
M  V30 2766 C 252.414 -0.371301 3.58181 0
M  V30 2767 C 252.267 0.936358 4.39946 0
M  V30 2768 C 253.586 -1.14542 4.24933 0
M  V30 2769 H 250.705 -0.0502937 0.735282 0
M  V30 2770 H 253.347 0.564584 1.81418 0
M  V30 2771 H 251.497 -0.973559 3.76104 0
M  V30 2772 H 253.169 1.57184 4.33694 0
M  V30 2773 H 251.412 1.5432 4.05423 0
M  V30 2774 H 252.083 0.730388 5.47147 0
M  V30 2775 H 254.559 -0.635362 4.11221 0
M  V30 2776 H 253.435 -1.27431 5.33903 0
M  V30 2777 H 253.696 -2.17093 3.85127 0
M  V30 2778 N 252.755 -1.56801 0.158532 0
M  V30 2779 C 253.702 -2.17337 -0.776729 0
M  V30 2780 C 254.672 -1.1096 -1.23601 0
M  V30 2781 O 255.857 -1.39054 -1.30647 0
M  V30 2782 C 252.997 -2.80822 -2.00582 0
M  V30 2783 C 252.11 -4.01624 -1.59129 0
M  V30 2784 C 251.245 -4.53072 -2.77306 0
M  V30 2785 C 250.284 -5.66314 -2.32282 0
M  V30 2786 N 249.421 -6.12329 -3.43508 0
M  V30 2787 H 254.261 -2.96918 -0.253701 0
M  V30 2788 H 251.798 -1.46661 -0.113504 0
M  V30 2789 H 253.756 -3.15779 -2.72652 0
M  V30 2790 H 252.386 -2.03866 -2.50277 0
M  V30 2791 H 251.438 -3.72571 -0.767806 0
M  V30 2792 H 252.75 -4.83633 -1.2207 0
M  V30 2793 H 251.904 -4.90145 -3.57551 0
M  V30 2794 H 250.643 -3.70095 -3.17617 0
M  V30 2795 H 249.648 -5.28806 -1.5048 0
M  V30 2796 H 250.873 -6.51085 -1.93043 0
M  V30 2797 H 248.819 -5.32284 -3.83418 0
M  V30 2798 H 248.736 -6.89293 -3.105 0
M  V30 2799 H 250.004 -6.5405 -4.24075 0
M  V30 2800 N 254.233 0.115231 -1.57178 0
M  V30 2801 C 255.481 0.820727 -1.84685 0
M  V30 2802 C 255.802 1.80237 -0.744279 0
M  V30 2803 O 255.072 1.94529 0.231375 0
M  V30 2804 H 253.652 0.306084 -0.681411 0
M  V30 2805 H 256.314 0.101656 -1.94635 0
M  V30 2806 H 255.41 1.36366 -2.80733 0
M  V30 2807 N 255.711 1.52812 0.385517 0
M  V30 2808 C 256.959 1.67694 1.12797 0
M  V30 2809 C 257.28 0.421115 1.90399 0
M  V30 2810 O 256.55 -0.564551 1.87589 0
M  V30 2811 H 255.13 0.618155 0.419396 0
M  V30 2812 H 257.792 1.89938 0.436972 0
M  V30 2813 H 256.888 2.52896 1.82894 0
M  V30 2814 N 257.189 -0.644168 1.43834 0
M  V30 2815 C 258.605 -0.960875 1.27434 0
M  V30 2816 C 258.805 -2.00499 0.200618 0
M  V30 2817 O 257.861 -2.49018 -0.417906 0
M  V30 2818 C 259.174 -1.43653 2.64167 0
M  V30 2819 C 260.722 -1.55271 2.71772 0
M  V30 2820 C 261.197 -2.06224 4.08944 0
M  V30 2821 N 262.688 -2.13513 4.11055 0
M  V30 2822 C 263.423 -2.54081 5.14033 0
M  V30 2823 N 262.919 -2.9388 6.27381 0
M  V30 2824 N 264.712 -2.54101 5.01387 0
M  V30 2825 H 256.863 0.0465779 2.12349 0
M  V30 2826 H 259.126 -0.0417638 0.94708 0
M  V30 2827 H 258.832 -0.743706 3.43747 0
M  V30 2828 H 258.706 -2.40993 2.90176 0
M  V30 2829 H 261.093 -2.23653 1.92519 0
M  V30 2830 H 261.174 -0.563395 2.49519 0
M  V30 2831 H 260.818 -1.38441 4.88668 0
M  V30 2832 H 260.748 -3.06003 4.28567 0
M  V30 2833 H 263.239 -1.85493 3.29242 0
M  V30 2834 H 263.552 -3.2361 7.01781 0
M  V30 2835 H 261.897 -2.91663 6.30839 0
M  V30 2836 H 265.088 -2.22391 4.11898 0
M  V30 2837 H 265.261 -2.85394 5.81768 0
M  V30 2838 N 258.668 -1.30515 -0.883378 0
M  V30 2839 C 259.914 -1.19607 -1.63774 0
M  V30 2840 C 260.247 0.248314 -1.92606 0
M  V30 2841 O 259.522 1.17742 -1.54813 0
M  V30 2842 C 259.805 -2.02669 -2.97653 0
M  V30 2843 C 259.658 -3.55335 -2.75784 0
M  V30 2844 C 260.977 -1.86573 -3.98596 0
M  V30 2845 H 258.096 -0.435856 -0.594305 0
M  V30 2846 H 260.738 -1.60165 -1.02212 0
M  V30 2847 H 258.888 -1.68208 -3.50197 0
M  V30 2848 H 260.56 -3.99863 -2.30016 0
M  V30 2849 H 258.803 -3.79438 -2.1026 0
M  V30 2850 H 259.474 -4.08745 -3.70988 0
M  V30 2851 H 261.95 -2.16703 -3.55217 0
M  V30 2852 H 260.826 -2.47014 -4.90179 0
M  V30 2853 H 261.087 -0.825321 -4.34328 0
M  V30 2854 N 260.146 1.09593 -1.13257 0
M  V30 2855 C 261.371 1.8604 -0.916732 0
M  V30 2856 C 261.796 1.80504 0.529146 0
M  V30 2857 O 261.154 1.18127 1.37534 0
M  V30 2858 C 261.202 3.32017 -1.40703 0
M  V30 2859 O 260.306 4.08141 -0.591153 0
M  V30 2860 H 259.647 0.576943 -0.328683 0
M  V30 2861 H 262.177 1.38405 -1.50682 0
M  V30 2862 H 262.187 3.82865 -1.4099 0
M  V30 2863 H 260.862 3.35361 -2.45979 0
M  V30 2864 H 259.439 3.67084 -0.656005 0
M  V30 2865 N 261.624 0.925811 1.2754 0
M  V30 2866 C 262.571 0.422045 2.26908 0
M  V30 2867 C 263.541 -0.510029 1.58076 0
M  V30 2868 O 264.726 -0.429599 1.85901 0
M  V30 2869 C 261.866 -0.320837 3.43605 0
M  V30 2870 C 260.979 0.64513 4.27156 0
M  V30 2871 C 260.114 -0.117405 5.3107 0
M  V30 2872 C 259.153 0.841391 6.0629 0
M  V30 2873 N 258.29 0.111604 7.02011 0
M  V30 2874 H 263.13 1.27441 2.69375 0
M  V30 2875 H 260.667 0.639697 1.32462 0
M  V30 2876 H 262.625 -0.76785 4.10073 0
M  V30 2877 H 261.255 -1.13745 3.02096 0
M  V30 2878 H 260.307 1.21067 3.6062 0
M  V30 2879 H 261.619 1.37797 4.79389 0
M  V30 2880 H 260.773 -0.624422 6.03478 0
M  V30 2881 H 259.512 -0.883219 4.79636 0
M  V30 2882 H 258.517 1.35967 5.32722 0
M  V30 2883 H 259.742 1.60696 6.59813 0
M  V30 2884 H 257.688 -0.635999 6.5291 0
M  V30 2885 H 257.605 0.784044 7.51923 0
M  V30 2886 H 258.873 -0.374823 7.78598 0
M  V30 2887 N 263.102 -1.41638 0.69111 0
M  V30 2888 C 264.349 -2.01299 0.220193 0
M  V30 2889 C 264.677 -1.54715 -1.17871 0
M  V30 2890 O 263.932 -0.747193 -1.80874 0
M  V30 2891 C 264.231 -3.56714 0.221277 0
M  V30 2892 C 263.897 -4.22792 1.56709 0
M  V30 2893 C 262.559 -4.40557 1.93554 0
M  V30 2894 C 264.911 -4.59883 2.45268 0
M  V30 2895 C 262.239 -4.92688 3.18552 0
M  V30 2896 C 264.591 -5.13403 3.69595 0
M  V30 2897 C 263.255 -5.29379 4.06589 0
M  V30 2898 H 262.525 -0.736606 0.0805743 0
M  V30 2899 H 265.172 -1.69598 0.889319 0
M  V30 2900 H 263.477 -3.8818 -0.531391 0
M  V30 2901 H 265.174 -4.00678 -0.160547 0
M  V30 2902 H 261.764 -4.09336 1.2705 0
M  V30 2903 H 265.948 -4.45817 2.18084 0
M  V30 2904 H 261.204 -5.03242 3.47214 0
M  V30 2905 H 265.378 -5.41084 4.38407 0
M  V30 2906 H 263.005 -5.69537 5.03519 0
M  V30 2907 N 264.58 -0.43555 -1.51462 0
M  V30 2908 C 265.512 0.41257 -2.25456 0
M  V30 2909 C 266.525 0.987822 -1.29406 0
M  V30 2910 O 267.714 0.882266 -1.55172 0
M  V30 2911 C 264.814 1.58894 -2.99342 0
M  V30 2912 C 263.987 1.13288 -4.22474 0
M  V30 2913 C 263.046 2.17917 -4.78956 0
M  V30 2914 O 262.072 1.77425 -5.40841 0
M  V30 2915 N 263.274 3.50382 -4.62832 0
M  V30 2916 H 266.039 -0.221603 -2.9888 0
M  V30 2917 H 263.6 -0.264342 -1.59727 0
M  V30 2918 H 265.592 2.28508 -3.34015 0
M  V30 2919 H 264.162 2.12849 -2.28941 0
M  V30 2920 H 263.382 0.263881 -3.93316 0
M  V30 2921 H 264.67 0.805542 -5.02383 0
M  V30 2922 H 264.068 3.86013 -4.13534 0
M  V30 2923 H 262.625 4.15895 -5.01871 0
M  V30 2924 N 266.058 1.56714 -0.166846 0
M  V30 2925 C 267.306 1.96358 0.478305 0
M  V30 2926 C 267.627 1.0537 1.6408 0
M  V30 2927 O 266.897 0.119154 1.95537 0
M  V30 2928 H 265.477 0.725065 0.179692 0
M  V30 2929 H 268.139 1.93329 -0.246985 0
M  V30 2930 H 267.235 3.00547 0.841292 0
M  V30 2931 N 267.536 -0.106894 1.57237 0
M  V30 2932 C 268.783 -0.812526 1.85484 0
M  V30 2933 C 269.111 -1.79304 0.753687 0
M  V30 2934 O 268.366 -1.94047 -0.253853 0
M  V30 2935 C 268.665 -1.58628 3.20268 0
M  V30 2936 C 268.331 -0.748967 4.44636 0
M  V30 2937 C 266.993 -0.518104 4.78403 0
M  V30 2938 C 269.345 -0.166122 5.20935 0
M  V30 2939 C 266.673 0.305659 5.85903 0
M  V30 2940 C 269.025 0.644899 6.29304 0
M  V30 2941 C 267.689 0.885965 6.61594 0
M  V30 2942 H 266.959 -0.297324 0.678734 0
M  V30 2943 H 269.606 -0.0744332 1.91355 0
M  V30 2944 H 267.911 -2.39562 3.10028 0
M  V30 2945 H 269.608 -2.13643 3.39349 0
M  V30 2946 H 266.198 -0.939006 4.18187 0
M  V30 2947 H 270.382 -0.33167 4.95191 0
M  V30 2948 H 265.638 0.501528 6.0934 0
M  V30 2949 H 269.812 1.10345 6.87602 0
M  V30 2950 H 267.439 1.52609 7.44725 0
M  V30 2951 N 269.014 -1.53014 -0.377408 0
M  V30 2952 C 270.26 -1.68872 -1.12294 0
M  V30 2953 C 270.593 -0.433224 -1.89306 0
M  V30 2954 O 269.868 0.569258 -1.85983 0
M  V30 2955 C 270.151 -2.93115 -2.09179 0
M  V30 2956 C 270.004 -4.28794 -1.35853 0
M  V30 2957 C 271.323 -3.12928 -3.09458 0
M  V30 2958 H 268.442 -0.614518 -0.406862 0
M  V30 2959 H 271.084 -1.85633 -0.40503 0
M  V30 2960 H 269.234 -2.78956 -2.70399 0
M  V30 2961 H 270.906 -4.54742 -0.775082 0
M  V30 2962 H 269.149 -4.28744 -0.660364 0
M  V30 2963 H 269.82 -5.11837 -2.06706 0
M  V30 2964 H 272.296 -3.26194 -2.58334 0
M  V30 2965 H 271.172 -4.01316 -3.74482 0
M  V30 2966 H 271.433 -2.27669 -3.78971 0
M  V30 2967 N 270.492 0.636531 -1.44174 0
M  V30 2968 C 271.74 1.39343 -1.46383 0
M  V30 2969 C 272.061 1.94766 -0.0955715 0
M  V30 2970 O 271.331 1.75452 0.871395 0
M  V30 2971 H 269.911 0.517199 -0.538994 0
M  V30 2972 H 272.573 0.74957 -1.7991 0
M  V30 2973 H 271.669 2.22746 -2.18611 0
M  V30 2974 N 271.97 1.30982 0.876444 0
M  V30 2975 C 272.918 1.18006 2.00443 0
M  V30 2976 C 273.912 0.0898871 1.69161 0
M  V30 2977 O 275.118 0.251333 1.78237 0
M  V30 2978 H 271.493 0.365196 0.65737 0
M  V30 2979 H 273.464 2.13453 2.0852 0
M  V30 2980 C 272.213 0.897521 3.35916 0
M  V30 2981 H 271.536 1.7285 3.60504 0
M  V30 2982 H 272.976 0.846874 4.15456 0
M  V30 2983 C 271.435 -0.399674 3.34521 0
M  V30 2984 O 271.965 -1.41852 3.7582 0
M  V30 2985 N 270.171 -0.413893 2.87637 0
M  V30 2986 H 269.718 0.41571 2.54224 0
M  V30 2987 H 269.676 -1.28175 2.87086 0
M  V30 2988 N 273.449 -1.08991 1.13837 0
M  V30 2989 C 274.379 -2.17771 0.842507 0
M  V30 2990 C 275.36 -1.6892 -0.20001 0
M  V30 2991 O 276.545 -1.94113 -0.0579731 0
M  V30 2992 C 273.675 -3.4589 0.312644 0
M  V30 2993 C 272.629 -4.08099 1.28992 0
M  V30 2994 C 271.955 -5.31098 0.619623 0
M  V30 2995 C 273.255 -4.50077 2.65005 0
M  V30 2996 H 274.949 -2.42777 1.75213 0
M  V30 2997 H 272.495 -1.16682 0.843875 0
M  V30 2998 H 274.448 -4.21297 0.0933043 0
M  V30 2999 H 273.172 -3.20419 -0.632382 0
M  V30 3000 H 271.831 -3.34717 1.49533 0
M  V30 3001 H 271.479 -5.0191 -0.33102 0
M  V30 3002 H 271.179 -5.73674 1.27167 0
M  V30 3003 H 272.703 -6.09224 0.409669 0
M  V30 3004 H 274.117 -5.16688 2.48407 0
M  V30 3005 H 272.514 -5.03553 3.26427 0
M  V30 3006 H 273.584 -3.62257 3.22332 0
M  V30 3007 N 274.927 -0.932562 -1.27047 0
M  V30 3008 C 275.857 -0.452902 -2.29066 0
M  V30 3009 C 276.838 0.489338 -1.62909 0
M  V30 3010 O 278.023 0.393046 -1.90181 0
M  V30 3011 C 275.153 0.290698 -3.46081 0
M  V30 3012 C 274.107 -0.564168 -4.24265 0
M  V30 3013 C 273.433 0.308886 -5.33807 0
M  V30 3014 C 274.733 -1.83112 -4.89149 0
M  V30 3015 H 276.427 -1.30552 -2.69437 0
M  V30 3016 H 273.973 -0.629201 -1.29526 0
M  V30 3017 H 275.926 0.637233 -4.16554 0
M  V30 3018 H 274.65 1.17738 -3.0464 0
M  V30 3019 H 273.309 -0.893477 -3.55545 0
M  V30 3020 H 272.957 1.19467 -4.88607 0
M  V30 3021 H 272.657 -0.259633 -5.87026 0
M  V30 3022 H 274.181 0.650884 -6.07121 0
M  V30 3023 H 275.595 -1.55236 -5.51883 0
M  V30 3024 H 273.992 -2.34353 -5.52448 0
M  V30 3025 H 275.062 -2.54772 -4.12576 0
M  V30 3026 N 276.405 1.4127 -0.698611 0
M  V30 3027 C 277.352 2.30773 -0.0352094 0
M  V30 3028 C 278.322 1.47273 0.768111 0
M  V30 3029 O 279.507 1.76053 0.735524 0
M  V30 3030 C 276.647 3.33346 0.893 0
M  V30 3031 C 275.76 4.31924 0.0809695 0
M  V30 3032 C 274.895 5.21566 1.0071 0
M  V30 3033 C 273.934 6.11811 0.188155 0
M  V30 3034 N 273.071 6.93926 1.06825 0
M  V30 3035 H 277.911 2.86943 -0.804207 0
M  V30 3036 H 275.448 1.4132 -0.408294 0
M  V30 3037 H 277.406 3.91368 1.44523 0
M  V30 3038 H 276.036 2.78719 1.62836 0
M  V30 3039 H 275.088 3.75825 -0.588224 0
M  V30 3040 H 276.4 4.95716 -0.553801 0
M  V30 3041 H 275.554 5.84437 1.62845 0
M  V30 3042 H 274.293 4.58008 1.67572 0
M  V30 3043 H 273.298 5.47986 -0.446254 0
M  V30 3044 H 274.523 6.77425 -0.476716 0
M  V30 3045 H 272.469 6.32973 1.72283 0
M  V30 3046 H 272.386 7.54416 0.489123 0
M  V30 3047 H 273.654 7.61262 1.67632 0
M  V30 3048 N 277.883 0.443576 1.51229 0
M  V30 3049 C 279.132 -0.122332 2.01329 0
M  V30 3050 C 279.445 -1.43237 1.33201 0
M  V30 3051 O 280.651 -2.0816 1.74304 0
M  V30 3052 C 279.107 -0.268551 3.58897 0
M  V30 3053 C 278.715 1.03142 4.35965 0
M  V30 3054 C 280.459 -0.787894 4.17124 0
M  V30 3055 C 278.366 0.850504 5.85252 0
M  V30 3056 H 277.296 -0.0494929 0.752374 0
M  V30 3057 H 279.947 0.574289 1.74282 0
M  V30 3058 H 278.329 -1.02832 3.82415 0
M  V30 3059 H 279.503 1.80001 4.24189 0
M  V30 3060 H 277.818 1.47977 3.89219 0
M  V30 3061 H 280.415 -0.939841 5.26375 0
M  V30 3062 H 280.758 -1.77201 3.76703 0
M  V30 3063 H 281.291 -0.0862669 3.97706 0
M  V30 3064 H 278.03 1.80718 6.30096 0
M  V30 3065 H 277.55 0.121825 5.99676 0
M  V30 3066 H 279.229 0.506163 6.45017 0
M  V30 3067 N 279.361 -1.56624 0.175154 0
M  V30 3068 C 280.777 -1.58571 -0.180966 0
M  V30 3069 C 280.977 -1.19065 -1.6256 0
M  V30 3070 O 280.033 -0.904044 -2.35761 0
M  V30 3071 C 281.346 -3.00522 0.103326 0
M  V30 3072 C 282.894 -3.12972 0.0418426 0
M  V30 3073 C 283.369 -4.57022 0.299175 0
M  V30 3074 N 284.86 -4.62541 0.247086 0
M  V30 3075 C 285.595 -5.71857 0.420318 0
M  V30 3076 N 285.091 -6.89717 0.652816 0
M  V30 3077 N 286.884 -5.60972 0.355957 0
M  V30 3078 H 279.035 -1.80589 1.11809 0
M  V30 3079 H 281.298 -0.837178 0.444788 0
M  V30 3080 H 281.004 -3.33916 1.10422 0
M  V30 3081 H 280.878 -3.72344 -0.603299 0
M  V30 3082 H 283.265 -2.79403 -0.949636 0
M  V30 3083 H 283.346 -2.43578 0.781238 0
M  V30 3084 H 282.99 -4.913 1.28788 0
M  V30 3085 H 282.92 -5.24579 -0.460876 0
M  V30 3086 H 285.411 -3.77829 0.0731895 0
M  V30 3087 H 285.724 -7.68911 0.774347 0
M  V30 3088 H 284.069 -6.91572 0.689476 0
M  V30 3089 H 287.26 -4.67773 0.174882 0
M  V30 3090 H 287.433 -6.46111 0.494388 0
M  V30 3091 N 280.839 0.0985539 -1.57292 0
M  V30 3092 C 282.085 0.803867 -1.86188 0
M  V30 3093 C 282.418 1.78549 -0.763794 0
M  V30 3094 O 281.693 1.93153 0.22855 0
M  V30 3095 C 281.976 1.53568 -3.25713 0
M  V30 3096 C 281.829 0.572277 -4.46145 0
M  V30 3097 C 283.148 2.48708 -3.63087 0
M  V30 3098 H 280.267 0.290781 -0.677211 0
M  V30 3099 H 282.909 0.0675783 -1.8988 0
M  V30 3100 H 281.059 2.16332 -3.22696 0
M  V30 3101 H 282.731 -0.0480894 -4.61275 0
M  V30 3102 H 280.974 -0.114618 -4.33649 0
M  V30 3103 H 281.645 1.12139 -5.40489 0
M  V30 3104 H 284.121 1.96039 -3.67026 0
M  V30 3105 H 282.997 2.96932 -4.61652 0
M  V30 3106 H 283.258 3.32309 -2.91588 0
M  V30 3107 N 282.317 1.53212 0.369288 0
M  V30 3108 C 283.557 1.70915 1.12105 0
M  V30 3109 C 283.921 0.449444 1.86665 0
M  V30 3110 O 285.122 0.503105 2.6405 0
M  V30 3111 C 283.393 2.9222 2.05772 0
M  V30 3112 S 284.952 3.30609 2.88519 0
M  V30 3113 H 281.77 0.601445 0.379189 0
M  V30 3114 H 284.372 1.91306 0.402794 0
M  V30 3115 H 283.076 3.82103 1.49752 0
M  V30 3116 H 282.607 2.7422 2.82076 0
M  V30 3117 H 284.622 2.82333 4.08047 0
M  V30 3118 N 283.795 -0.628877 1.44509 0
M  V30 3119 C 284.725 -1.75187 1.54376 0
M  V30 3120 C 285.706 -1.65411 0.396618 0
M  V30 3121 O 286.891 -1.84137 0.617031 0
M  V30 3122 C 284.021 -3.13725 1.48976 0
M  V30 3123 C 282.975 -3.38291 2.62189 0
M  V30 3124 C 282.301 -4.76883 2.41841 0
M  V30 3125 C 283.601 -3.30632 4.04326 0
M  V30 3126 H 285.295 -1.67187 2.48373 0
M  V30 3127 H 282.841 -0.802909 1.19538 0
M  V30 3128 H 284.794 -3.92064 1.54478 0
M  V30 3129 H 283.518 -3.22515 0.514961 0
M  V30 3130 H 282.177 -2.62334 2.56079 0
M  V30 3131 H 281.825 -4.82378 1.42548 0
M  V30 3132 H 281.525 -4.94278 3.17747 0
M  V30 3133 H 283.049 -5.57449 2.49165 0
M  V30 3134 H 284.463 -3.98873 4.11793 0
M  V30 3135 H 282.86 -3.59561 4.80454 0
M  V30 3136 H 283.93 -2.28404 4.27738 0
M  V30 3137 N 285.273 -1.31445 -0.869486 0
M  V30 3138 C 286.223 -1.15731 -1.96444 0
M  V30 3139 C 287.207 -0.0681855 -1.60755 0
M  V30 3140 O 288.399 -0.293154 -1.74555 0
M  V30 3141 C 285.528 -0.867255 -3.32165 0
M  V30 3142 C 284.614 -1.99738 -3.74119 0
M  V30 3143 N 285.005 -3.24447 -3.88031 0
M  V30 3144 C 283.303 -1.89723 -4.03635 0
M  V30 3145 C 284.004 -3.98374 -4.23879 0
M  V30 3146 N 282.98 -3.26547 -4.3459 0
M  V30 3147 H 286.782 -2.10296 -2.05312 0
M  V30 3148 H 284.296 -1.23009 -1.06031 0
M  V30 3149 H 286.293 -0.735668 -4.10358 0
M  V30 3150 H 284.953 0.0701614 -3.24624 0
M  V30 3151 H 285.964 -3.59557 -3.72746 0
M  V30 3152 H 282.641 -1.03449 -4.04481 0
M  V30 3153 H 284.031 -5.05844 -4.42235 0
M  V30 3154 N 286.751 1.08385 -1.14413 0
M  V30 3155 C 288 1.80153 -0.907076 0
M  V30 3156 C 288.313 1.87176 0.567851 0
M  V30 3157 O 289.519 2.55359 0.922172 0
M  V30 3158 C 287.975 3.23687 -1.57336 0
M  V30 3159 C 287.583 3.24897 -3.08457 0
M  V30 3160 C 289.327 4.00136 -1.41744 0
M  V30 3161 C 287.234 4.6302 -3.67921 0
M  V30 3162 H 286.164 0.675139 -0.335714 0
M  V30 3163 H 288.815 1.21733 -1.37307 0
M  V30 3164 H 287.197 3.82234 -1.03505 0
M  V30 3165 H 288.371 2.76055 -3.68958 0
M  V30 3166 H 286.686 2.61943 -3.2369 0
M  V30 3167 H 289.283 5.02201 -1.83572 0
M  V30 3168 H 289.626 4.14709 -0.363576 0
M  V30 3169 H 290.159 3.48058 -1.92614 0
M  V30 3170 H 286.898 4.5365 -4.73161 0
M  V30 3171 H 286.418 5.12143 -3.12201 0
M  V30 3172 H 288.097 5.31994 -3.68227 0
M  V30 3173 N 288.23 0.939286 1.26551 0
M  V30 3174 C 289.14 0.453432 2.30176 0
M  V30 3175 C 290.156 -0.471649 1.67486 0
M  V30 3176 O 291.332 -0.35164 1.98306 0
M  V30 3177 C 288.397 -0.275326 3.45605 0
M  V30 3178 C 287.458 0.686084 4.23782 0
M  V30 3179 C 286.691 -0.00798994 5.33699 0
M  V30 3180 O 286.914 -1.22528 5.57085 0
M  V30 3181 O 285.848 0.669746 5.98162 0
M  V30 3182 H 289.674 1.31416 2.73795 0
M  V30 3183 H 287.259 0.705095 1.31715 0
M  V30 3184 H 289.141 -0.685911 4.1578 0
M  V30 3185 H 287.816 -1.11147 3.0402 0
M  V30 3186 H 286.723 1.14658 3.56096 0
M  V30 3187 H 288.056 1.48979 4.69112 0
M  V30 3188 N 289.708 -1.40897 0.706093 0
M  V30 3189 C 290.656 -2.32572 0.0361893 0
M  V30 3190 C 291.65 -1.51532 -0.757266 0
M  V30 3191 O 292.856 -1.67396 -0.661703 0
M  V30 3192 H 289.231 -0.751966 -0.00709935 0
M  V30 3193 H 291.202 -2.86733 0.826249 0
M  V30 3194 C 289.951 -3.36418 -0.87854 0
M  V30 3195 H 289.274 -3.98836 -0.277401 0
M  V30 3196 H 290.714 -4.0308 -1.3154 0
M  V30 3197 C 289.173 -2.71141 -1.99961 0
M  V30 3198 O 289.703 -2.56735 -3.0895 0
M  V30 3199 N 287.909 -2.29671 -1.78043 0
M  V30 3200 H 287.456 -2.41588 -0.894042 0
M  V30 3201 H 287.414 -1.86332 -2.53235 0
M  V30 3202 N 291.186 -0.45159 -1.50991 0
M  V30 3203 C 292.434 0.109857 -2.01801 0
M  V30 3204 C 292.755 1.41958 -1.3369 0
M  V30 3205 O 292.025 1.9003 -0.475951 0
M  V30 3206 H 290.605 0.0435884 -0.745727 0
M  V30 3207 H 293.267 -0.597557 -1.85514 0
M  V30 3208 H 292.363 0.275489 -3.10882 0
M  V30 3209 N 292.664 1.56529 -0.183458 0
M  V30 3210 C 293.574 2.22144 0.754272 0
M  V30 3211 C 294.59 1.21684 1.24374 0
M  V30 3212 O 295.766 1.54385 1.29333 0
M  V30 3213 C 292.831 2.85884 1.96141 0
M  V30 3214 C 291.892 4.01579 1.51765 0
M  V30 3215 C 291.125 4.6227 2.66725 0
M  V30 3216 O 291.348 4.21865 3.83909 0
M  V30 3217 O 290.282 5.51936 2.40104 0
M  V30 3218 H 294.108 3.02861 0.225527 0
M  V30 3219 H 291.693 1.49331 0.0453032 0
M  V30 3220 H 293.575 3.26253 2.66715 0
M  V30 3221 H 292.25 2.08154 2.47899 0
M  V30 3222 H 291.157 3.65856 0.781049 0
M  V30 3223 H 292.49 4.80938 1.04686 0
M  V30 3224 N 294.142 -0.090211 1.57342 0
M  V30 3225 C 295.072 -1.10976 2.05443 0
M  V30 3226 C 296.053 -1.41482 0.944284 0
M  V30 3227 O 297.238 -1.51428 1.21586 0
M  V30 3228 C 294.368 -2.42831 2.48295 0
M  V30 3229 C 293.322 -2.26721 3.63018 0
M  V30 3230 C 292.648 -3.63796 3.91863 0
M  V30 3231 C 293.948 -1.7037 4.93732 0
M  V30 3232 H 295.642 -0.709564 2.9087 0
M  V30 3233 H 293.188 -0.339874 1.39932 0
M  V30 3234 H 295.141 -3.14431 2.80555 0
M  V30 3235 H 293.865 -2.84795 1.59873 0
M  V30 3236 H 292.524 -1.57565 3.31012 0
M  V30 3237 H 292.172 -4.03297 3.00601 0
M  V30 3238 H 291.872 -3.53861 4.69101 0
M  V30 3239 H 293.396 -4.36855 4.26603 0
M  V30 3240 H 294.81 -2.31816 5.24342 0
M  V30 3241 H 293.207 -1.71181 5.75167 0
M  V30 3242 H 294.277 -0.663542 4.80339 0
M  V30 3243 N 295.62 -1.53406 -0.361157 0
M  V30 3244 C 296.869 -1.69022 -1.10066 0
M  V30 3245 C 297.182 -0.450838 -1.90333 0
M  V30 3246 O 298.388 -0.487617 -2.67085 0
M  V30 3247 C 296.844 -2.98812 -2.00598 0
M  V30 3248 C 296.452 -4.30027 -1.25621 0
M  V30 3249 C 298.196 -3.23795 -2.74513 0
M  V30 3250 C 296.103 -5.50903 -2.1508 0
M  V30 3251 H 295.033 -0.629776 -0.414606 0
M  V30 3252 H 297.684 -1.79907 -0.361348 0
M  V30 3253 H 296.066 -2.8174 -2.78278 0
M  V30 3254 H 297.24 -4.57745 -0.529739 0
M  V30 3255 H 295.555 -4.11522 -0.635496 0
M  V30 3256 H 298.152 -4.11289 -3.41681 0
M  V30 3257 H 298.495 -2.40045 -3.40123 0
M  V30 3258 H 299.028 -3.41561 -2.03914 0
M  V30 3259 H 295.767 -6.37143 -1.54041 0
M  V30 3260 H 295.287 -5.27459 -2.85565 0
M  V30 3261 H 296.966 -5.85865 -2.74538 0
M  V30 3262 N 297.098 0.621204 -1.44841 0
M  V30 3263 C 298.509 1.20298 -1.42777 0
M  V30 3264 C 298.86 1.95639 -0.148259 0
M  V30 3265 O 297.985 2.02955 0.750892 0
M  V30 3266 C 298.58 2.1882 -2.58657 0
M  V30 3267 C 297.139 2.72403 -2.59756 0
M  V30 3268 C 296.286 1.4757 -2.34773 0
M  V30 3269 H 299.237 0.411297 -1.53278 0
M  V30 3270 H 299.258 3.01607 -2.31977 0
M  V30 3271 H 298.77 1.63957 -3.51766 0
M  V30 3272 H 296.871 3.31242 -1.70615 0
M  V30 3273 H 296.984 3.17765 -3.58556 0
M  V30 3274 H 295.348 1.76051 -1.8406 0
M  V30 3275 H 296.131 0.945954 -3.3001 0
M  V30 3276 N 298.576 1.31904 0.862503 0
M  V30 3277 C 299.806 1.24817 1.64634 0
M  V30 3278 C 300.214 -0.187579 1.88268 0
M  V30 3279 O 299.557 -1.13253 1.44635 0
M  V30 3280 C 299.619 1.92996 3.03303 0
M  V30 3281 C 299.283 3.42336 3.02746 0
M  V30 3282 C 300.28 4.37956 2.80162 0
M  V30 3283 C 297.965 3.84147 3.2363 0
M  V30 3284 C 299.959 5.73361 2.78453 0
M  V30 3285 C 297.646 5.19663 3.21549 0
M  V30 3286 C 298.644 6.14081 2.98988 0
M  V30 3287 O 298.332 7.47118 2.96766 0
M  V30 3288 H 298.064 0.432222 0.519769 0
M  V30 3289 H 300.618 1.7445 1.08427 0
M  V30 3290 H 298.848 1.37922 3.61268 0
M  V30 3291 H 300.537 1.79723 3.63943 0
M  V30 3292 H 301.303 4.06981 2.63802 0
M  V30 3293 H 297.182 3.11083 3.40218 0
M  V30 3294 H 300.726 6.4703 2.60763 0
M  V30 3295 H 296.623 5.5027 3.37451 0
M  V30 3296 H 297.391 7.56382 3.12775 0
M  V30 3297 N 300.054 -1.07777 1.14986 0
M  V30 3298 C 301.47 -1.32373 0.891596 0
M  V30 3299 C 301.67 -1.9609 -0.463788 0
M  V30 3300 O 300.726 -2.21801 -1.20667 0
M  V30 3301 C 302.039 -2.21905 2.02925 0
M  V30 3302 C 303.587 -2.35367 2.06329 0
M  V30 3303 C 304.062 -3.28245 3.19405 0
M  V30 3304 N 305.553 -3.35824 3.19024 0
M  V30 3305 C 306.288 -4.07739 4.03158 0
M  V30 3306 N 305.784 -4.82306 4.97346 0
M  V30 3307 N 307.577 -4.03635 3.91197 0
M  V30 3308 H 299.728 -0.648039 2.02273 0
M  V30 3309 H 301.991 -0.348149 0.881757 0
M  V30 3310 H 301.697 -1.82342 3.0074 0
M  V30 3311 H 301.571 -3.22407 1.95789 0
M  V30 3312 H 303.958 -2.74186 1.09116 0
M  V30 3313 H 304.039 -1.34585 2.17533 0
M  V30 3314 H 303.683 -2.90146 4.16867 0
M  V30 3315 H 303.613 -4.28971 3.05437 0
M  V30 3316 H 306.104 -2.8267 2.50811 0
M  V30 3317 H 306.417 -5.34661 5.57994 0
M  V30 3318 H 304.762 -4.81337 5.01338 0
M  V30 3319 H 307.953 -3.44491 3.16928 0
M  V30 3320 H 308.126 -4.59417 4.5699 0
M  V30 3321 N 301.532 -0.945985 -1.26051 0
M  V30 3322 C 302.479 -0.45809 -2.26208 0
M  V30 3323 C 303.449 0.484816 -1.58867 0
M  V30 3324 O 304.634 0.399969 -1.86561 0
M  V30 3325 C 301.774 0.266131 -3.44072 0
M  V30 3326 C 300.887 -0.713005 -4.26075 0
M  V30 3327 C 300.022 0.0329013 -5.3119 0
M  V30 3328 C 299.061 -0.93774 -6.04874 0
M  V30 3329 N 298.198 -0.223274 -7.01745 0
M  V30 3330 H 303.038 -1.3171 -2.67313 0
M  V30 3331 H 300.575 -0.66069 -1.31428 0
M  V30 3332 H 302.533 0.702514 -4.11243 0
M  V30 3333 H 301.163 1.08925 -3.03867 0
M  V30 3334 H 300.215 -1.26789 -3.58648 0
M  V30 3335 H 301.527 -1.45406 -4.77136 0
M  V30 3336 H 300.681 0.528335 -6.04395 0
M  V30 3337 H 299.42 0.806801 -4.8098 0
M  V30 3338 H 298.425 -1.44425 -5.30492 0
M  V30 3339 H 299.65 -1.71172 -6.57173 0
M  V30 3340 H 297.596 0.532046 -6.53839 0
M  V30 3341 H 297.513 -0.90357 -7.50581 0
M  V30 3342 H 298.781 0.250907 -7.79096 0
M  V30 3343 N 303.011 1.40521 -0.713556 0
M  V30 3344 C 304.257 2.01221 -0.252564 0
M  V30 3345 C 304.59 1.56444 1.1506 0
M  V30 3346 O 303.865 0.783597 1.78017 0
M  V30 3347 C 304.148 3.58582 -0.330332 0
M  V30 3348 C 304.001 4.13437 -1.77173 0
M  V30 3349 C 305.32 4.39079 0.299641 0
M  V30 3350 H 302.439 0.731077 -0.0932471 0
M  V30 3351 H 305.081 1.67026 -0.905673 0
M  V30 3352 H 303.231 3.87844 0.225737 0
M  V30 3353 H 304.903 3.9498 -2.38303 0
M  V30 3354 H 303.146 3.67801 -2.3001 0
M  V30 3355 H 303.817 5.22597 -1.77755 0
M  V30 3356 H 306.293 4.15735 -0.174139 0
M  V30 3357 H 305.169 5.4848 0.214771 0
M  V30 3358 H 305.43 4.19915 1.38288 0
M  V30 3359 N 304.489 0.459591 1.5075 0
M  V30 3360 C 305.905 0.113092 1.59199 0
M  V30 3361 C 306.105 -1.37951 1.46874 0
M  V30 3362 O 305.161 -2.15168 1.32132 0
M  V30 3363 C 306.474 0.653043 2.93523 0
M  V30 3364 C 308.022 0.615449 3.0689 0
M  V30 3365 C 308.497 1.13275 4.43771 0
M  V30 3366 N 309.988 1.09167 4.50152 0
M  V30 3367 C 310.723 1.46256 5.54434 0
M  V30 3368 N 310.219 1.90739 6.66026 0
M  V30 3369 N 312.012 1.37932 5.44914 0
M  V30 3370 H 304.163 1.43049 1.57005 0
M  V30 3371 H 306.426 0.590861 0.741341 0
M  V30 3372 H 306.132 1.69822 3.07983 0
M  V30 3373 H 306.006 0.0902132 3.77092 0
M  V30 3374 H 308.393 -0.420793 2.92084 0
M  V30 3375 H 308.474 1.21495 2.25106 0
M  V30 3376 H 308.118 2.16757 4.59324 0
M  V30 3377 H 308.048 0.509576 5.24129 0
M  V30 3378 H 310.539 0.76528 3.7007 0
M  V30 3379 H 310.852 2.17218 7.41644 0
M  V30 3380 H 309.197 1.94683 6.67176 0
M  V30 3381 H 312.388 1.0303 4.56621 0
M  V30 3382 H 312.561 1.67164 6.26067 0
M  V30 3383 N 305.967 -1.56429 0.191757 0
M  V30 3384 C 307.215 -1.97095 -0.447006 0
M  V30 3385 C 307.536 -1.07967 -1.62383 0
M  V30 3386 O 306.806 -0.150248 -1.95323 0
M  V30 3387 H 305.386 -0.727832 -0.168135 0
M  V30 3388 H 308.048 -1.92911 0.27771 0
M  V30 3389 H 307.144 -3.01848 -0.793371 0
M  V30 3390 N 307.445 0.0818655 -1.57387 0
M  V30 3391 C 308.722 0.815343 -1.77796 0
M  V30 3392 C 309.102 1.96289 -0.77679 0
M  V30 3393 O 308.45 2.27691 0.192106 0
M  V30 3394 C 308.66 1.29765 -3.23978 0
M  V30 3395 C 310.008 1.7351 -3.8753 0
M  V30 3396 O 311.032 1.39356 -3.27808 0
M  V30 3397 O 309.891 2.36708 -4.92576 0
M  V30 3398 H 306.985 0.389914 -0.729312 0
M  V30 3399 H 309.531 0.0627213 -1.69584 0
M  V30 3400 H 308.303 0.47608 -3.88393 0
M  V30 3401 H 307.926 2.11189 -3.36875 0
M  V30 3402 N 308.923 1.53595 0.353017 0
M  V30 3403 C 309.87 1.80919 1.43308 0
M  V30 3404 C 310.84 0.654288 1.5267 0
M  V30 3405 O 312.025 0.897759 1.6836 0
M  V30 3406 C 309.165 2.01605 2.80089 0
M  V30 3407 C 308.278 3.29321 2.79593 0
M  V30 3408 C 307.413 3.40125 4.0803 0
M  V30 3409 C 306.452 4.61826 4.01725 0
M  V30 3410 N 305.589 4.69716 5.21834 0
M  V30 3411 H 310.429 2.73074 1.19308 0
M  V30 3412 H 307.966 1.35263 0.578131 0
M  V30 3413 H 309.924 2.11586 3.59565 0
M  V30 3414 H 308.554 1.12772 3.0246 0
M  V30 3415 H 307.606 3.28229 1.92276 0
M  V30 3416 H 308.918 4.18884 2.70809 0
M  V30 3417 H 308.072 3.49488 4.95927 0
M  V30 3418 H 306.811 2.48601 4.19582 0
M  V30 3419 H 305.816 4.52552 3.12213 0
M  V30 3420 H 307.041 5.54705 3.91764 0
M  V30 3421 H 304.987 3.81097 5.33948 0
M  V30 3422 H 304.904 5.53202 5.1527 0
M  V30 3423 H 306.172 4.83376 6.11529 0
M  V30 3424 N 310.401 -0.613514 1.45168 0
M  V30 3425 C 311.348 -1.72456 1.53387 0
M  V30 3426 C 312.318 -1.6169 0.380191 0
M  V30 3427 O 313.503 -1.81356 0.592836 0
M  V30 3428 C 310.643 -3.10753 1.50088 0
M  V30 3429 C 309.756 -3.32368 2.75963 0
M  V30 3430 C 308.891 -4.60737 2.64376 0
M  V30 3431 C 307.93 -4.7559 3.85332 0
M  V30 3432 N 307.067 -5.95253 3.72315 0
M  V30 3433 H 311.907 -1.64768 2.48305 0
M  V30 3434 H 309.444 -0.803503 1.23216 0
M  V30 3435 H 311.402 -3.90758 1.46164 0
M  V30 3436 H 310.032 -3.17413 0.587243 0
M  V30 3437 H 309.084 -2.4618 2.89999 0
M  V30 3438 H 310.396 -3.39218 3.65695 0
M  V30 3439 H 309.55 -5.48928 2.58385 0
M  V30 3440 H 308.289 -4.56275 1.72233 0
M  V30 3441 H 307.294 -3.85824 3.91688 0
M  V30 3442 H 308.519 -4.81854 4.78533 0
M  V30 3443 H 306.465 -5.91847 2.82937 0
M  V30 3444 H 306.382 -6.03236 4.55677 0
M  V30 3445 H 307.65 -6.85958 3.70246 0
M  V30 3446 N 311.879 -1.3236 -0.855495 0
M  V30 3447 C 312.842 -1.21164 -1.94556 0
M  V30 3448 C 313.842 -0.134908 -1.60233 0
M  V30 3449 O 315.032 -0.385249 -1.69887 0
M  V30 3450 C 312.164 -0.863192 -3.29791 0
M  V30 3451 H 313.357 -2.18038 -2.05911 0
M  V30 3452 H 310.91 -1.16179 -1.04557 0
M  V30 3453 H 311.645 0.103769 -3.24134 0
M  V30 3454 H 311.43 -1.64166 -3.56078 0
M  V30 3455 H 312.92 -0.809156 -4.09686 0
M  V30 3456 N 313.357 1.07166 -1.15556 0
M  V30 3457 C 314.606 1.79181 -0.926132 0
M  V30 3458 C 314.919 1.87768 0.547967 0
M  V30 3459 O 316.125 2.56323 0.895036 0
M  V30 3460 C 314.581 3.22 -1.60761 0
M  V30 3461 C 314.189 3.21607 -3.11886 0
M  V30 3462 C 315.933 3.9861 -1.4598 0
M  V30 3463 C 313.84 4.59092 -3.72812 0
M  V30 3464 H 312.77 0.67154 -0.342856 0
M  V30 3465 H 315.421 1.2027 -1.3859 0
M  V30 3466 H 313.803 3.81115 -1.07553 0
M  V30 3467 H 314.977 2.72127 -3.71865 0
M  V30 3468 H 313.292 2.58495 -3.2645 0
M  V30 3469 H 315.889 5.00225 -1.88888 0
M  V30 3470 H 316.232 4.143 -0.407541 0
M  V30 3471 H 316.765 3.45996 -1.96295 0
M  V30 3472 H 313.504 4.48606 -4.77946 0
M  V30 3473 H 313.024 5.08803 -3.17616 0
M  V30 3474 H 314.703 5.28059 -3.73848 0
M  V30 3475 N 314.835 0.952656 1.25548 0
M  V30 3476 C 315.745 0.47782 2.29682 0
M  V30 3477 C 316.761 -0.453859 1.67977 0
M  V30 3478 O 317.937 -0.330587 1.98668 0
M  V30 3479 C 315.002 -0.238655 3.45878 0
M  V30 3480 C 314.063 0.730994 4.23031 0
M  V30 3481 C 313.296 0.0486165 5.33678 0
M  V30 3482 O 313.519 -1.16612 5.58353 0
M  V30 3483 O 312.453 0.733152 5.97418 0
M  V30 3484 H 316.279 1.34312 2.72386 0
M  V30 3485 H 313.864 0.719026 1.30959 0
M  V30 3486 H 315.746 -0.641774 4.16484 0
M  V30 3487 H 314.421 -1.07916 3.05181 0
M  V30 3488 H 313.328 1.18428 3.5486 0
M  V30 3489 H 314.661 1.53946 4.67506 0
M  V30 3490 N 316.313 -1.40141 0.720998 0
M  V30 3491 C 317.276 -2.29058 0.0805834 0
M  V30 3492 C 318.276 -1.45632 -0.681758 0
M  V30 3493 O 319.466 -1.6648 -0.512856 0
M  V30 3494 C 316.598 -3.28925 -0.895593 0
M  V30 3495 H 317.791 -2.87191 0.863793 0
M  V30 3496 H 315.344 -1.48553 0.485975 0
M  V30 3497 H 316.079 -2.75822 -1.70566 0
M  V30 3498 H 315.864 -3.90519 -0.351766 0
M  V30 3499 H 317.354 -3.95494 -1.34069 0
M  V30 3500 N 317.792 -0.46758 -1.50504 0
M  V30 3501 C 318.722 0.318381 -2.31319 0
M  V30 3502 C 319.703 0.993564 -1.38066 0
M  V30 3503 O 320.888 0.991411 -1.66987 0
M  V30 3504 C 318.018 1.40275 -3.17711 0
M  V30 3505 C 316.972 0.849373 -4.19487 0
M  V30 3506 C 316.298 2.03177 -4.94594 0
M  V30 3507 C 317.598 -0.136942 -5.2212 0
M  V30 3508 H 319.292 -0.356106 -2.97275 0
M  V30 3509 H 316.838 -0.172703 -1.42961 0
M  V30 3510 H 318.791 1.96004 -3.73042 0
M  V30 3511 H 317.515 2.10596 -2.49634 0
M  V30 3512 H 316.174 0.314076 -3.65252 0
M  V30 3513 H 315.822 2.72187 -4.22993 0
M  V30 3514 H 315.522 1.66774 -5.63436 0
M  V30 3515 H 317.046 2.59403 -5.52759 0
M  V30 3516 H 318.46 0.331056 -5.72343 0
M  V30 3517 H 316.857 -0.41507 -5.98663 0
M  V30 3518 H 317.927 -1.06398 -4.73083 0
M  V30 3519 N 319.27 1.56325 -0.20005 0
M  V30 3520 C 320.519 1.96895 0.437652 0
M  V30 3521 C 320.832 1.08999 1.62415 0
M  V30 3522 O 322.038 1.39372 2.32997 0
M  V30 3523 C 320.494 3.50198 0.830025 0
M  V30 3524 C 320.102 4.46765 -0.332461 0
M  V30 3525 C 321.846 3.99526 1.43453 0
M  V30 3526 C 319.753 5.91344 0.0811468 0
M  V30 3527 H 318.683 0.735209 0.167282 0
M  V30 3528 H 321.334 1.81148 -0.292853 0
M  V30 3529 H 319.716 3.61467 1.61734 0
M  V30 3530 H 320.89 4.47231 -1.11 0
M  V30 3531 H 319.205 4.07657 -0.848789 0
M  V30 3532 H 321.802 5.05025 1.75652 0
M  V30 3533 H 322.145 3.44122 2.34277 0
M  V30 3534 H 322.678 3.91393 0.71109 0
M  V30 3535 H 319.417 6.50685 -0.793033 0
M  V30 3536 H 318.937 5.94121 0.823445 0
M  V30 3537 H 320.616 6.44945 0.515252 0
M  V30 3538 N 320.748 -0.0735177 1.57428 0
M  V30 3539 C 321.658 -1.10547 2.06922 0
M  V30 3540 C 322.674 -1.42506 0.998402 0
M  V30 3541 O 323.85 -1.52717 1.31299 0
M  V30 3542 C 320.915 -2.40019 2.50184 0
M  V30 3543 C 319.976 -2.15046 3.71556 0
M  V30 3544 C 319.209 -3.38345 4.12745 0
M  V30 3545 O 319.432 -4.47399 3.53822 0
M  V30 3546 O 318.366 -3.2666 5.05546 0
M  V30 3547 H 322.192 -0.715013 2.95163 0
M  V30 3548 H 319.777 -0.287531 1.46607 0
M  V30 3549 H 321.659 -3.16218 2.78539 0
M  V30 3550 H 320.334 -2.78447 1.65072 0
M  V30 3551 H 319.241 -1.36558 3.48285 0
M  V30 3552 H 320.574 -1.81499 4.57514 0
M  V30 3553 N 322.226 -1.5378 -0.344866 0
M  V30 3554 C 323.173 -1.81676 -1.42346 0
M  V30 3555 C 324.143 -0.662376 -1.52321 0
M  V30 3556 O 325.328 -0.906675 -1.67881 0
M  V30 3557 C 322.468 -2.03087 -2.79015 0
M  V30 3558 C 321.581 -3.30799 -2.77842 0
M  V30 3559 C 320.716 -3.42285 -4.0622 0
M  V30 3560 C 319.755 -4.6395 -3.9927 0
M  V30 3561 N 318.892 -4.72477 -5.19336 0
M  V30 3562 H 323.732 -2.73703 -1.17858 0
M  V30 3563 H 321.269 -1.35568 -0.570949 0
M  V30 3564 H 323.227 -2.1349 -3.58438 0
M  V30 3565 H 321.857 -1.14375 -3.01858 0
M  V30 3566 H 320.909 -3.29244 -1.90533 0
M  V30 3567 H 322.221 -4.20314 -2.68584 0
M  V30 3568 H 321.375 -3.52113 -4.94066 0
M  V30 3569 H 320.114 -2.50823 -4.18258 0
M  V30 3570 H 319.119 -4.54201 -3.09809 0
M  V30 3571 H 320.344 -5.56775 -3.88817 0
M  V30 3572 H 318.29 -3.83924 -5.3192 0
M  V30 3573 H 318.207 -5.55927 -5.12329 0
M  V30 3574 H 319.475 -4.86613 -6.08957 0
M  V30 3575 N 323.704 0.605807 -1.45491 0
M  V30 3576 C 324.634 1.72709 -1.57143 0
M  V30 3577 C 325.615 1.6476 -0.422884 0
M  V30 3578 O 326.8 1.83132 -0.646247 0
M  V30 3579 C 323.93 3.11316 -1.53948 0
M  V30 3580 C 322.884 3.34077 -2.67537 0
M  V30 3581 C 322.21 4.72975 -2.49397 0
M  V30 3582 C 323.51 3.24158 -4.09535 0
M  V30 3583 H 325.204 1.63214 -2.51001 0
M  V30 3584 H 322.75 0.78379 -1.208 0
M  V30 3585 H 324.703 3.89557 -1.60696 0
M  V30 3586 H 323.427 3.21655 -0.566205 0
M  V30 3587 H 322.086 2.58227 -2.6022 0
M  V30 3588 H 321.734 4.8005 -1.50205 0
M  V30 3589 H 321.434 4.8916 -3.25571 0
M  V30 3590 H 322.958 5.53414 -2.58002 0
M  V30 3591 H 324.372 3.92271 -4.18086 0
M  V30 3592 H 322.769 3.51872 -4.86113 0
M  V30 3593 H 323.839 2.2157 -4.31317 0
M  V30 3594 N 325.182 1.32811 0.848464 0
M  V30 3595 C 326.598 1.11937 1.13764 0
M  V30 3596 C 326.798 -0.0960789 2.01271 0
M  V30 3597 O 325.854 -0.779165 2.40178 0
M  V30 3598 C 327.167 2.402 1.809 0
M  V30 3599 C 328.715 2.46016 1.93508 0
M  V30 3600 C 329.19 3.74215 2.64059 0
M  V30 3601 N 330.681 3.75232 2.71579 0
M  V30 3602 C 331.416 4.71134 3.26833 0
M  V30 3603 N 330.912 5.77406 3.8285 0
M  V30 3604 N 332.705 4.58623 3.24995 0
M  V30 3605 H 324.856 2.1073 0.265855 0
M  V30 3606 H 327.119 0.930671 0.180431 0
M  V30 3607 H 326.825 3.29093 1.24058 0
M  V30 3608 H 326.699 2.51628 2.81004 0
M  V30 3609 H 329.086 1.57577 2.49506 0
M  V30 3610 H 329.167 2.38536 0.923811 0
M  V30 3611 H 328.811 4.63031 2.08722 0
M  V30 3612 H 328.741 3.78968 3.65637 0
M  V30 3613 H 331.232 2.98423 2.31845 0
M  V30 3614 H 331.545 6.46632 4.23187 0
M  V30 3615 H 329.89 5.81152 3.81165 0
M  V30 3616 H 333.081 3.74762 2.80484 0
M  V30 3617 H 333.254 5.33535 3.67756 0
M  V30 3618 N 326.66 -1.06551 1.16123 0
M  V30 3619 C 327.57 -2.17484 0.879662 0
M  V30 3620 C 328.586 -1.73377 -0.147104 0
M  V30 3621 O 329.762 -2.01379 0.0289128 0
M  V30 3622 C 326.827 -3.44591 0.381829 0
M  V30 3623 C 325.888 -4.0322 1.4735 0
M  V30 3624 C 325.121 -5.24261 0.999324 0
M  V30 3625 O 325.344 -5.70198 -0.151957 0
M  V30 3626 O 324.278 -5.74775 1.78653 0
M  V30 3627 H 328.104 -2.44075 1.80724 0
M  V30 3628 H 325.689 -1.16042 0.940992 0
M  V30 3629 H 327.571 -4.21254 0.111053 0
M  V30 3630 H 326.246 -3.19532 -0.51777 0
M  V30 3631 H 325.153 -3.2806 1.79798 0
M  V30 3632 H 326.486 -4.32568 2.34831 0
M  V30 3633 N 328.138 -0.959301 -1.25041 0
M  V30 3634 C 329.415 -0.533805 -1.88175 0
M  V30 3635 C 329.795 0.988994 -1.865 0
M  V30 3636 O 329.143 1.85677 -1.33177 0
M  V30 3637 C 329.353 -1.11575 -3.30684 0
M  V30 3638 C 330.701 -1.19548 -4.07423 0
M  V30 3639 O 331.725 -1.06765 -3.39823 0
M  V30 3640 O 330.584 -1.39656 -5.28354 0
M  V30 3641 H 327.678 -0.176772 -0.807887 0
M  V30 3642 H 330.224 -1.05303 -1.33076 0
M  V30 3643 H 328.996 -2.15884 -3.26358 0
M  V30 3644 H 328.619 -0.580059 -3.93346 0
M  V30 3645 N 329.616 1.39756 -0.72842 0
M  V30 3646 C 330.844 2.04948 -0.283528 0
M  V30 3647 C 331.259 1.54908 1.0793 0
M  V30 3648 O 330.616 0.711135 1.68075 0
M  V30 3649 C 330.667 3.60498 -0.268957 0
M  V30 3650 O 330.388 4.08695 -1.57798 0
M  V30 3651 C 331.889 4.4288 0.192912 0
M  V30 3652 H 329.109 0.659243 -0.125056 0
M  V30 3653 H 331.653 1.78927 -0.990226 0
M  V30 3654 H 329.808 3.85444 0.388801 0
M  V30 3655 H 330.222 5.02977 -1.48709 0
M  V30 3656 H 331.696 5.51791 0.151952 0
M  V30 3657 H 332.173 4.21418 1.23708 0
M  V30 3658 H 332.779 4.23069 -0.435039 0
M  V30 3659 N 331.094 0.475555 1.50254 0
M  V30 3660 C 332.505 0.0215174 1.86688 0
M  V30 3661 C 332.856 -1.38467 1.39001 0
M  V30 3662 O 331.981 -2.02732 0.756894 0
M  V30 3663 C 332.576 0.0322715 3.38785 0
M  V30 3664 C 331.135 -0.366314 3.74613 0
M  V30 3665 C 330.282 0.415832 2.74164 0
M  V30 3666 H 333.233 0.689612 1.42934 0
M  V30 3667 H 333.254 -0.76889 3.7265 0
M  V30 3668 H 332.766 1.05584 3.73462 0
M  V30 3669 H 330.867 -1.39406 3.45538 0
M  V30 3670 H 330.98 -0.064555 4.79057 0
M  V30 3671 H 329.344 -0.131048 2.54363 0
M  V30 3672 H 330.127 1.43899 3.11686 0
M  V30 3673 N 332.573 -1.56217 0.208337 0
M  V30 3674 C 333.483 -2.23316 -0.718836 0
M  V30 3675 C 334.499 -1.23648 -1.22422 0
M  V30 3676 O 335.675 -1.56423 -1.26861 0
M  V30 3677 C 332.74 -2.88968 -1.91568 0
M  V30 3678 C 331.801 -4.03943 -1.45357 0
M  V30 3679 C 331.034 -4.66455 -2.59337 0
M  V30 3680 O 331.257 -4.27919 -3.77149 0
M  V30 3681 O 330.191 -5.55686 -2.31293 0
M  V30 3682 H 334.017 -3.03182 -0.177315 0
M  V30 3683 H 331.602 -1.49384 -0.0215402 0
M  V30 3684 H 333.484 -3.30455 -2.61491 0
M  V30 3685 H 332.159 -2.12071 -2.44556 0
M  V30 3686 H 331.066 -3.67052 -0.722746 0
M  V30 3687 H 332.399 -4.82543 -0.970219 0
M  V30 3688 N 334.051 0.0651679 -1.57465 0
M  V30 3689 C 335.299 0.761555 -1.87202 0
M  V30 3690 C 335.62 1.77778 -0.801243 0
M  V30 3691 O 334.89 1.95166 0.16937 0
M  V30 3692 H 333.47 0.284251 -0.690804 0
M  V30 3693 H 336.132 0.0396827 -1.9486 0
M  V30 3694 H 335.228 1.27365 -2.84929 0
M  V30 3695 N 335.529 1.53961 0.336706 0
M  V30 3696 C 336.754 1.75797 1.10046 0
M  V30 3697 C 337.179 0.498985 1.81361 0
M  V30 3698 O 336.537 -0.548769 1.72795 0
M  V30 3699 C 336.585 2.94257 2.08436 0
M  V30 3700 O 335.689 2.64883 3.16087 0
M  V30 3701 H 335.03 0.582936 0.317934 0
M  V30 3702 H 337.56 2.00945 0.38501 0
M  V30 3703 H 337.57 3.21237 2.51537 0
M  V30 3704 H 336.245 3.85564 1.55927 0
M  V30 3705 H 334.822 2.48812 2.77753 0
M  V30 3706 N 337.007 -0.598083 1.45811 0
M  V30 3707 C 337.954 -1.7082 1.55207 0
M  V30 3708 C 338.924 -1.61278 0.39732 0
M  V30 3709 O 340.109 -1.80717 0.612038 0
M  V30 3710 C 337.249 -3.09144 1.53376 0
M  V30 3711 C 336.362 -3.29423 2.79472 0
M  V30 3712 C 335.497 -4.57907 2.69248 0
M  V30 3713 C 334.536 -4.71476 3.90354 0
M  V30 3714 N 333.673 -5.9127 3.78608 0
M  V30 3715 H 338.513 -1.62125 2.50039 0
M  V30 3716 H 336.05 -0.790389 1.24062 0
M  V30 3717 H 338.008 -3.89186 1.50301 0
M  V30 3718 H 336.638 -3.16773 0.620876 0
M  V30 3719 H 335.69 -2.43091 2.92594 0
M  V30 3720 H 337.002 -3.3532 3.69272 0
M  V30 3721 H 336.156 -5.46157 2.64192 0
M  V30 3722 H 334.895 -4.54423 1.77063 0
M  V30 3723 H 333.9 -3.81648 3.95759 0
M  V30 3724 H 335.125 -4.76751 4.83617 0
M  V30 3725 H 333.071 -5.88813 2.89199 0
M  V30 3726 H 332.988 -5.98369 4.6205 0
M  V30 3727 H 334.256 -6.81992 3.77501 0
M  V30 3728 N 338.485 -1.33259 -0.841409 0
M  V30 3729 C 339.415 -1.25926 -1.96634 0
M  V30 3730 C 340.396 -0.140349 -1.6952 0
M  V30 3731 O 341.581 -0.329707 -1.91381 0
M  V30 3732 C 338.711 -0.99512 -3.32738 0
M  V30 3733 C 337.665 -2.0767 -3.74242 0
M  V30 3734 C 336.991 -1.66474 -5.08125 0
M  V30 3735 C 338.291 -3.49318 -3.88297 0
M  V30 3736 H 339.985 -2.20046 -2.03027 0
M  V30 3737 H 337.531 -1.05931 -0.975425 0
M  V30 3738 H 339.484 -0.930323 -4.11002 0
M  V30 3739 H 338.208 -0.0183004 -3.26595 0
M  V30 3740 H 336.867 -2.13187 -2.98239 0
M  V30 3741 H 336.515 -0.675012 -4.9845 0
M  V30 3742 H 336.215 -2.3885 -5.36865 0
M  V30 3743 H 337.739 -1.61455 -5.88867 0
M  V30 3744 H 339.153 -3.46316 -4.56879 0
M  V30 3745 H 337.55 -4.20158 -4.28471 0
M  V30 3746 H 338.62 -3.8801 -2.9082 0
M  V30 3747 N 339.963 1.05934 -1.16686 0
M  V30 3748 C 341.379 1.30938 -0.912542 0
M  V30 3749 C 341.579 1.96803 0.432533 0
M  V30 3750 O 340.635 2.23693 1.17123 0
M  V30 3751 C 341.948 2.18649 -2.06429 0
M  V30 3752 C 343.496 2.32055 -2.10047 0
M  V30 3753 C 343.971 3.23122 -3.24586 0
M  V30 3754 N 345.462 3.30706 -3.24327 0
M  V30 3755 C 346.197 4.01273 -4.09594 0
M  V30 3756 N 345.693 4.74332 -5.04956 0
M  V30 3757 N 347.486 3.97361 -3.97569 0
M  V30 3758 H 339.637 0.615777 -2.03278 0
M  V30 3759 H 341.9 0.334077 -0.887185 0
M  V30 3760 H 341.606 1.77534 -3.03603 0
M  V30 3761 H 341.48 3.19252 -2.00894 0
M  V30 3762 H 343.867 2.72415 -1.13464 0
M  V30 3763 H 343.948 1.31107 -2.19647 0
M  V30 3764 H 343.592 2.83477 -4.2143 0
M  V30 3765 H 343.522 4.24057 -3.12223 0
M  V30 3766 H 346.013 2.78644 -2.55276 0
M  V30 3767 H 346.326 5.25716 -5.6643 0
M  V30 3768 H 344.671 4.733 -5.08933 0
M  V30 3769 H 347.862 3.39405 -3.22369 0
M  V30 3770 H 348.035 4.52089 -4.64241 0
M  V30 3771 N 341.441 0.965919 1.2453 0
M  V30 3772 C 342.687 0.62776 1.92839 0
M  V30 3773 C 343.02 -0.834694 1.75347 0
M  V30 3774 O 342.295 -1.60031 1.10546 0
M  V30 3775 C 342.578 1.00109 3.45905 0
M  V30 3776 C 342.431 2.52011 3.72573 0
M  V30 3777 C 343.75 0.53435 4.36844 0
M  V30 3778 H 340.869 0.229537 0.700344 0
M  V30 3779 H 343.511 1.2046 1.46933 0
M  V30 3780 H 341.661 0.510238 3.85135 0
M  V30 3781 H 343.333 3.08559 3.42912 0
M  V30 3782 H 341.576 2.95287 3.17786 0
M  V30 3783 H 342.247 2.73183 4.79661 0
M  V30 3784 H 344.723 0.955565 4.04979 0
M  V30 3785 H 343.599 0.824152 5.42678 0
M  V30 3786 H 343.86 -0.565589 4.38467 0
M  V30 3787 N 342.919 -1.39368 0.735821 0
M  V30 3788 C 344.168 -1.99733 0.281004 0
M  V30 3789 C 344.481 -1.59055 -1.13846 0
M  V30 3790 O 345.687 -2.12262 -1.69284 0
M  V30 3791 C 344.143 -3.57057 0.451462 0
M  V30 3792 C 343.751 -4.06697 1.87886 0
M  V30 3793 C 345.495 -4.2446 0.0584616 0
M  V30 3794 C 343.402 -5.56598 1.99883 0
M  V30 3795 H 342.332 -0.747163 0.101311 0
M  V30 3796 H 344.983 -1.59357 0.909819 0
M  V30 3797 H 343.365 -3.95234 -0.246263 0
M  V30 3798 H 344.539 -3.79853 2.60861 0
M  V30 3799 H 342.854 -3.5196 2.22515 0
M  V30 3800 H 345.451 -5.34549 0.127099 0
M  V30 3801 H 345.794 -4.04444 -0.986433 0
M  V30 3802 H 346.327 -3.9146 0.707374 0
M  V30 3803 H 343.066 -5.81494 3.02564 0
M  V30 3804 H 342.586 -5.85242 1.31346 0
M  V30 3805 H 344.265 -6.22022 1.78039 0
M  V30 3806 N 344.397 -0.483516 -1.5 0
M  V30 3807 C 345.645 0.067027 -2.01989 0
M  V30 3808 C 345.966 1.3909 -1.36671 0
M  V30 3809 O 345.236 1.88978 -0.516152 0
M  V30 3810 H 343.816 0.0277606 -0.746484 0
M  V30 3811 H 346.478 -0.636773 -1.84204 0
M  V30 3812 H 345.574 0.209484 -3.11396 0
M  V30 3813 N 345.875 1.56104 -0.216619 0
M  V30 3814 C 347.121 1.98466 0.417033 0
M  V30 3815 C 347.454 1.10403 1.59765 0
M  V30 3816 O 346.729 0.160632 1.93836 0
M  V30 3817 C 347.012 3.49769 0.85637 0
M  V30 3818 C 346.865 4.48606 -0.327546 0
M  V30 3819 C 348.184 4.05339 1.7143 0
M  V30 3820 H 345.303 0.721551 0.150112 0
M  V30 3821 H 347.945 1.87423 -0.311864 0
M  V30 3822 H 346.095 3.5931 1.47745 0
M  V30 3823 H 347.767 4.5108 -0.965618 0
M  V30 3824 H 346.01 4.22682 -0.975805 0
M  V30 3825 H 346.681 5.51995 0.0227149 0
M  V30 3826 H 349.157 3.98712 1.19031 0
M  V30 3827 H 348.033 5.11533 1.99061 0
M  V30 3828 H 348.294 3.51918 2.67593 0
M  V30 3829 N 347.353 -0.0568162 1.57498 0
M  V30 3830 C 348.303 -1.07315 2.01166 0
M  V30 3831 C 349.287 -1.33632 0.896171 0
M  V30 3832 O 350.479 -1.33682 1.16009 0
M  V30 3833 C 347.608 -2.38257 2.47161 0
M  V30 3834 C 346.694 -2.1515 3.65474 0
M  V30 3835 N 347.085 -1.62014 4.7915 0
M  V30 3836 C 345.383 -2.45559 3.72313 0
M  V30 3837 C 346.084 -1.54069 5.60926 0
M  V30 3838 N 345.06 -2.00652 5.05213 0
M  V30 3839 H 348.862 -0.655878 2.86488 0
M  V30 3840 H 346.376 -0.263635 1.60246 0
M  V30 3841 H 348.373 -3.11845 2.76691 0
M  V30 3842 H 347.033 -2.80687 1.63232 0
M  V30 3843 H 348.044 -1.30667 5.01145 0
M  V30 3844 H 344.721 -2.91253 2.99129 0
M  V30 3845 H 346.111 -1.13712 6.62208 0
M  V30 3846 N 348.832 -1.54138 -0.328536 0
M  V30 3847 C 349.795 -1.82462 -1.38709 0
M  V30 3848 C 350.795 -0.696229 -1.44946 0
M  V30 3849 O 351.985 -0.964535 -1.4506 0
M  V30 3850 C 349.117 -1.98018 -2.77492 0
M  V30 3851 H 350.31 -2.77037 -1.14851 0
M  V30 3852 H 347.863 -1.45779 -0.563751 0
M  V30 3853 H 348.598 -1.05637 -3.06613 0
M  V30 3854 H 348.383 -2.80124 -2.74359 0
M  V30 3855 H 349.873 -2.21396 -3.54081 0
M  V30 3856 N 350.31 0.590341 -1.46126 0
M  V30 3857 C 351.587 1.35029 -1.41515 0
M  V30 3858 C 351.967 2.10888 -0.0946472 0
M  V30 3859 O 351.315 2.08998 0.923693 0
M  V30 3860 C 351.525 2.28269 -2.63997 0
M  V30 3861 C 352.873 2.90338 -3.09821 0
M  V30 3862 O 353.897 2.38585 -2.64492 0
M  V30 3863 O 352.756 3.84321 -3.88535 0
M  V30 3864 H 349.85 0.606317 -0.562413 0
M  V30 3865 H 352.396 0.611994 -1.58281 0
M  V30 3866 H 351.168 1.71591 -3.51671 0
M  V30 3867 H 350.791 3.0945 -2.49652 0
M  V30 3868 N 351.788 1.33704 0.83433 0
M  V30 3869 C 352.736 1.24323 1.96587 0
M  V30 3870 C 353.73 0.143659 1.6879 0
M  V30 3871 O 354.936 0.30791 1.77347 0
M  V30 3872 H 351.311 0.385925 0.645419 0
M  V30 3873 H 353.282 2.19978 2.01624 0
M  V30 3874 C 352.031 1.00394 3.32891 0
M  V30 3875 H 351.354 1.84231 3.54822 0
M  V30 3876 H 352.794 0.97862 4.12552 0
M  V30 3877 C 351.253 -0.293047 3.35623 0
M  V30 3878 O 351.783 -1.29823 3.80143 0
M  V30 3879 N 349.989 -0.322174 2.88809 0
M  V30 3880 H 349.536 0.496379 2.52772 0
M  V30 3881 H 349.494 -1.18977 2.91019 0
M  V30 3882 N 353.266 -1.05314 1.17247 0
M  V30 3883 C 354.176 -2.16538 0.90268 0
M  V30 3884 C 355.192 -1.73523 -0.128707 0
M  V30 3885 O 356.368 -2.01337 0.0502701 0
M  V30 3886 C 353.433 -3.44167 0.418356 0
M  V30 3887 C 352.494 -4.01635 1.51618 0
M  V30 3888 C 351.727 -5.23171 1.05487 0
M  V30 3889 O 351.95 -5.70327 -0.0914715 0
M  V30 3890 O 350.884 -5.72848 1.8474 0
M  V30 3891 H 354.71 -2.42145 1.83302 0
M  V30 3892 H 352.295 -1.15037 0.953246 0
M  V30 3893 H 354.177 -4.21112 0.155726 0
M  V30 3894 H 352.852 -3.20063 -0.48385 0
M  V30 3895 H 351.759 -3.26135 1.83268 0
M  V30 3896 H 353.092 -4.30053 2.39405 0
M  V30 3897 N 354.744 -0.972509 -1.24016 0
M  V30 3898 C 355.707 -0.511403 -2.23422 0
M  V30 3899 C 356.707 0.394679 -1.55881 0
M  V30 3900 O 357.897 0.189469 -1.73167 0
M  V30 3901 C 355.029 0.258769 -3.39916 0
M  V30 3902 H 356.222 -1.39024 -2.6573 0
M  V30 3903 H 353.775 -0.757585 -1.36713 0
M  V30 3904 H 354.51 1.1545 -3.03054 0
M  V30 3905 H 354.295 -0.391522 -3.9014 0
M  V30 3906 H 355.785 0.570244 -4.13688 0
M  V30 3907 N 356.222 1.38976 -0.743202 0
M  V30 3908 C 357.47 1.99948 -0.29417 0
M  V30 3909 C 357.791 1.59279 1.12495 0
M  V30 3910 O 357.061 0.844808 1.76748 0
M  V30 3911 H 355.641 0.739473 -0.105774 0
M  V30 3912 H 358.303 1.699 -0.954986 0
M  V30 3913 H 357.399 3.10142 -0.349056 0
M  V30 3914 N 357.7 0.491464 1.49741 0
M  V30 3915 C 358.946 -0.0565092 2.02721 0
M  V30 3916 C 359.279 -1.37522 1.37118 0
M  V30 3917 O 358.554 -1.87866 0.503645 0
M  V30 3918 C 358.837 -0.219051 3.59433 0
M  V30 3919 C 358.69 1.12211 4.35579 0
M  V30 3920 C 360.009 -0.964157 4.29409 0
M  V30 3921 H 357.128 -0.0190627 0.736753 0
M  V30 3922 H 359.77 0.641021 1.7886 0
M  V30 3923 H 357.92 -0.813165 3.79895 0
M  V30 3924 H 359.592 1.75437 4.26637 0
M  V30 3925 H 357.835 1.71377 3.98513 0
M  V30 3926 H 358.506 0.961794 5.43556 0
M  V30 3927 H 360.982 -0.460378 4.13545 0
M  V30 3928 H 359.858 -1.04671 5.38828 0
M  V30 3929 H 360.119 -2.00563 3.93988 0
M  V30 3930 N 359.178 -1.55987 0.224894 0
M  V30 3931 C 360.424 -1.98684 -0.406502 0
M  V30 3932 C 360.757 -1.11248 -1.59177 0
M  V30 3933 O 360.032 -0.170909 -1.93748 0
M  V30 3934 C 360.315 -3.50218 -0.837808 0
M  V30 3935 C 360.168 -4.48426 0.351332 0
M  V30 3936 C 361.487 -4.06243 -1.69278 0
M  V30 3937 H 358.606 -0.722337 -0.146283 0
M  V30 3938 H 361.248 -1.87255 0.321799 0
M  V30 3939 H 359.398 -3.60089 -1.45837 0
M  V30 3940 H 361.07 -4.50562 0.989526 0
M  V30 3941 H 359.313 -4.22159 0.998207 0
M  V30 3942 H 359.984 -5.52 0.00655905 0
M  V30 3943 H 362.46 -3.99337 -1.16914 0
M  V30 3944 H 361.336 -5.12581 -1.96346 0
M  V30 3945 H 361.597 -3.53332 -2.65723 0
M  V30 3946 N 360.656 0.0484629 -1.57525 0
M  V30 3947 C 361.566 1.07241 -2.08654 0
M  V30 3948 C 362.582 1.409 -1.02095 0
M  V30 3949 O 363.758 1.50609 -1.33712 0
M  V30 3950 C 360.823 2.36008 -2.5397 0
M  V30 3951 C 359.884 2.09108 -3.7493 0
M  V30 3952 C 359.117 3.31736 -4.18075 0
M  V30 3953 O 359.34 4.41714 -3.60895 0
M  V30 3954 O 358.274 3.18576 -5.10679 0
M  V30 3955 H 362.1 0.667965 -2.96263 0
M  V30 3956 H 359.685 0.26417 -1.47046 0
M  V30 3957 H 361.567 3.11747 -2.83535 0
M  V30 3958 H 360.242 2.75786 -1.69481 0
M  V30 3959 H 359.149 1.31 -3.50414 0
M  V30 3960 H 360.482 1.74198 -4.60343 0
M  V30 3961 N 362.134 1.5431 0.320358 0
M  V30 3962 C 363.064 1.86912 1.3995 0
M  V30 3963 C 364.045 0.726211 1.53819 0
M  V30 3964 O 365.23 0.980233 1.67646 0
M  V30 3965 C 362.36 2.09932 2.7667 0
M  V30 3966 C 361.314 3.25776 2.77586 0
M  V30 3967 C 360.64 3.34173 4.17412 0
M  V30 3968 C 361.94 4.6335 2.41048 0
M  V30 3969 H 363.634 2.77292 1.12914 0
M  V30 3970 H 361.18 1.33421 0.541738 0
M  V30 3971 H 363.133 2.31324 3.52232 0
M  V30 3972 H 361.857 1.16304 3.0519 0
M  V30 3973 H 360.516 3.04276 2.04479 0
M  V30 3974 H 360.164 2.38098 4.43078 0
M  V30 3975 H 359.864 4.12033 4.18931 0
M  V30 3976 H 361.388 3.57803 4.94782 0
M  V30 3977 H 362.802 4.84602 3.06324 0
M  V30 3978 H 361.199 5.43782 2.53813 0
M  V30 3979 H 362.269 4.65381 1.36193 0
M  V30 3980 N 363.613 -0.582584 1.46437 0
M  V30 3981 C 364.543 -1.70187 1.59871 0
M  V30 3982 C 365.524 -1.64066 0.449042 0
M  V30 3983 O 366.709 -1.82081 0.6753 0
M  V30 3984 C 363.839 -3.08827 1.58881 0
M  V30 3985 C 362.793 -3.29779 2.72819 0
M  V30 3986 C 362.119 -4.68947 2.5689 0
M  V30 3987 C 363.419 -3.17601 4.1464 0
M  V30 3988 H 365.113 -1.592 2.53566 0
M  V30 3989 H 362.659 -0.764472 1.22032 0
M  V30 3990 H 364.612 -3.86951 1.66873 0
M  V30 3991 H 363.336 -3.20713 0.617306 0
M  V30 3992 H 361.995 -2.54054 2.64296 0
M  V30 3993 H 361.643 -4.77599 1.57823 0
M  V30 3994 H 361.343 -4.83919 3.33312 0
M  V30 3995 H 362.867 -5.4924 2.66773 0
M  V30 3996 H 364.281 -3.8557 4.24274 0
M  V30 3997 H 362.678 -3.44094 4.9165 0
M  V30 3998 H 363.748 -2.14681 4.34788 0
M  V30 3999 N 365.091 -1.34144 -0.827227 0
M  V30 4000 C 366.039 -1.25364 -1.95925 0
M  V30 4001 C 367.033 -0.152608 -1.68711 0
M  V30 4002 O 368.239 -0.317311 -1.77181 0
M  V30 4003 H 364.614 -0.389342 -0.643364 0
M  V30 4004 H 366.585 -2.21045 -2.00454 0
M  V30 4005 C 365.334 -1.02158 -3.32354 0
M  V30 4006 H 364.657 -1.86111 -3.5384 0
M  V30 4007 H 366.097 -1.00048 -4.12027 0
M  V30 4008 C 364.556 0.275244 -3.35774 0
M  V30 4009 O 365.086 1.27806 -3.80826 0
M  V30 4010 N 363.292 0.306853 -2.88975 0
M  V30 4011 H 362.839 -0.509777 -2.52506 0
M  V30 4012 H 362.797 1.17432 -2.91646 0
M  V30 4013 N 366.569 1.04691 -1.17803 0
M  V30 4014 C 367.797 1.81446 -0.99423 0
M  V30 4015 C 368.212 1.83174 0.457459 0
M  V30 4016 O 367.569 1.26265 1.31771 0
M  V30 4017 C 367.62 3.27334 -1.5341 0
M  V30 4018 O 367.341 3.25798 -2.92895 0
M  V30 4019 C 368.842 4.20759 -1.39559 0
M  V30 4020 H 366.062 0.571599 -0.351447 0
M  V30 4021 H 368.606 1.31982 -1.56208 0
M  V30 4022 H 366.761 3.74052 -1.00815 0
M  V30 4023 H 367.175 4.17144 -3.17949 0
M  V30 4024 H 368.649 5.21084 -1.82141 0
M  V30 4025 H 369.126 4.37856 -0.343394 0
M  V30 4026 H 369.732 3.79901 -1.91195 0
M  V30 4027 N 368.047 0.979072 1.23499 0
M  V30 4028 C 368.977 0.537606 2.27227 0
M  V30 4029 C 369.958 -0.428539 1.64613 0
M  V30 4030 O 371.143 -0.322191 1.91509 0
M  V30 4031 C 368.273 -0.162052 3.46922 0
M  V30 4032 C 367.227 0.721242 4.21879 0
M  V30 4033 C 366.553 -0.110555 5.34586 0
M  V30 4034 C 367.853 2.01141 4.82016 0
M  V30 4035 H 369.547 1.40462 2.64406 0
M  V30 4036 H 367.093 0.67684 1.27102 0
M  V30 4037 H 369.046 -0.482192 4.18632 0
M  V30 4038 H 367.77 -1.06351 3.08799 0
M  V30 4039 H 366.429 1.02482 3.51984 0
M  V30 4040 H 366.077 -1.0125 4.92704 0
M  V30 4041 H 365.777 0.477325 5.85658 0
M  V30 4042 H 367.301 -0.425107 6.09118 0
M  V30 4043 H 368.715 1.75612 5.45741 0
M  V30 4044 H 367.112 2.54695 5.43369 0
M  V30 4045 H 368.182 2.69909 4.02836 0
M  V30 4046 N 369.525 -1.3858 0.750561 0
M  V30 4047 C 370.941 -1.53759 0.427824 0
M  V30 4048 C 371.141 -1.71401 -1.05943 0
M  V30 4049 O 370.197 -1.72331 -1.84549 0
M  V30 4050 C 371.51 -2.74642 1.22443 0
M  V30 4051 C 373.058 -2.88489 1.2142 0
M  V30 4052 C 373.533 -4.12329 1.9937 0
M  V30 4053 N 375.024 -4.194 1.96616 0
M  V30 4054 C 375.759 -5.14209 2.53727 0
M  V30 4055 N 375.255 -6.14709 3.19539 0
M  V30 4056 N 377.048 -5.06537 2.43673 0
M  V30 4057 H 369.199 -1.25377 1.71447 0
M  V30 4058 H 371.462 -0.608844 0.726645 0
M  V30 4059 H 371.168 -2.68 2.27747 0
M  V30 4060 H 371.042 -3.67745 0.839273 0
M  V30 4061 H 373.429 -2.94614 0.169232 0
M  V30 4062 H 373.51 -1.96406 1.63885 0
M  V30 4063 H 373.154 -4.06966 3.03877 0
M  V30 4064 H 373.084 -5.03486 1.54302 0
M  V30 4065 H 375.575 -3.47421 1.48684 0
M  V30 4066 H 375.888 -6.8354 3.60545 0
M  V30 4067 H 374.233 -6.1505 3.23633 0
M  V30 4068 H 377.424 -4.26962 1.91889 0
M  V30 4069 H 377.597 -5.80245 2.88479 0
M  V30 4070 N 371.003 -0.499398 -1.49478 0
M  V30 4071 C 371.95 0.279881 -2.29097 0
M  V30 4072 C 372.92 0.961805 -1.3542 0
M  V30 4073 O 374.105 0.968777 -1.64376 0
M  V30 4074 C 371.245 1.33932 -3.18051 0
M  V30 4075 C 370.358 0.669333 -4.26783 0
M  V30 4076 C 369.493 1.70907 -5.02955 0
M  V30 4077 C 368.532 1.02087 -6.03527 0
M  V30 4078 N 367.669 2.00474 -6.7287 0
M  V30 4079 H 372.509 -0.405317 -2.95231 0
M  V30 4080 H 370.046 -0.211726 -1.45568 0
M  V30 4081 H 372.004 1.96553 -3.67998 0
M  V30 4082 H 370.634 1.9933 -2.53904 0
M  V30 4083 H 369.686 -0.0701234 -3.80335 0
M  V30 4084 H 370.998 0.127503 -4.98637 0
M  V30 4085 H 370.152 2.41037 -5.56764 0
M  V30 4086 H 368.891 2.28476 -4.30871 0
M  V30 4087 H 367.896 0.305338 -5.48951 0
M  V30 4088 H 369.121 0.451708 -6.77596 0
M  V30 4089 H 367.067 2.57007 -6.03559 0
M  V30 4090 H 366.984 1.51353 -7.40694 0
M  V30 4091 H 368.252 2.69897 -7.31284 0
M  V30 4092 N 372.481 1.55866 -0.233164 0
M  V30 4093 C 373.706 2.03449 0.402906 0
M  V30 4094 C 374.131 1.11166 1.51736 0
M  V30 4095 O 373.489 0.101996 1.81013 0
M  V30 4096 C 373.537 3.49165 0.9009 0
M  V30 4097 O 372.641 3.60019 2.01147 0
M  V30 4098 H 371.982 0.657913 0.0897025 0
M  V30 4099 H 374.512 2.01493 -0.355201 0
M  V30 4100 H 374.522 3.89716 1.2077 0
M  V30 4101 H 373.197 4.15813 0.0852889 0
M  V30 4102 H 371.774 3.3136 1.71042 0
M  V30 4103 N 373.959 -0.0401083 1.57549 0
M  V30 4104 C 375.189 -0.744115 1.92734 0
M  V30 4105 C 375.597 -1.70005 0.830348 0
M  V30 4106 O 374.94 -1.82576 -0.20286 0
M  V30 4107 C 375.002 -1.56516 3.2364 0
M  V30 4108 C 374.666 -0.7752 4.50377 0
M  V30 4109 C 375.663 -0.0803326 5.19838 0
M  V30 4110 C 373.348 -0.733002 4.96923 0
M  V30 4111 C 375.342 0.646154 6.34116 0
M  V30 4112 C 373.029 -0.00276321 6.111 0
M  V30 4113 C 374.027 0.685585 6.7955 0
M  V30 4114 O 373.715 1.40399 7.91545 0
M  V30 4115 H 373.447 -0.214861 0.640945 0
M  V30 4116 H 376.001 -0.00503675 2.05399 0
M  V30 4117 H 374.231 -2.3478 3.07271 0
M  V30 4118 H 375.92 -2.15076 3.44234 0
M  V30 4119 H 376.686 -0.104035 4.84888 0
M  V30 4120 H 372.565 -1.25827 4.43496 0
M  V30 4121 H 376.109 1.18398 6.87479 0
M  V30 4122 H 372.006 0.0229012 6.45496 0
M  V30 4123 H 372.774 1.31653 8.07843 0
M  V30 4124 N 375.437 -1.54477 -0.31217 0
M  V30 4125 C 376.347 -1.87695 -1.4074 0
M  V30 4126 C 377.363 -0.769975 -1.56036 0
M  V30 4127 O 378.539 -1.06537 -1.70915 0
M  V30 4128 C 375.604 -2.10755 -2.75287 0
M  V30 4129 C 374.665 -3.34514 -2.69071 0
M  V30 4130 C 373.898 -3.56465 -3.97201 0
M  V30 4131 O 374.121 -2.81637 -4.96021 0
M  V30 4132 O 373.055 -4.49964 -3.9977 0
M  V30 4133 H 376.881 -2.80849 -1.15574 0
M  V30 4134 H 374.466 -1.40526 -0.507228 0
M  V30 4135 H 376.348 -2.27188 -3.54913 0
M  V30 4136 H 375.023 -1.20788 -3.0032 0
M  V30 4137 H 373.93 -3.23456 -1.87955 0
M  V30 4138 H 375.263 -4.24575 -2.48992 0
M  V30 4139 N 376.915 0.57481 -1.46744 0
M  V30 4140 C 378.161 1.3347 -1.52688 0
M  V30 4141 C 378.494 1.93353 -0.181229 0
M  V30 4142 O 377.769 1.76912 0.808237 0
M  V30 4143 C 378.052 2.45811 -2.63152 0
M  V30 4144 C 377.905 1.90912 -4.07275 0
M  V30 4145 C 379.224 3.47822 -2.69644 0
M  V30 4146 H 376.343 0.483935 -0.555856 0
M  V30 4147 H 378.985 0.644968 -1.78718 0
M  V30 4148 H 377.135 3.04646 -2.41088 0
M  V30 4149 H 378.807 1.36473 -4.4065 0
M  V30 4150 H 377.05 1.21691 -4.16382 0
M  V30 4151 H 377.721 2.72042 -4.80309 0
M  V30 4152 H 380.197 2.9888 -2.895 0
M  V30 4153 H 379.073 4.23876 -3.48742 0
M  V30 4154 H 379.334 4.05555 -1.76005 0
M  V30 4155 N 378.394 1.34581 0.820102 0
M  V30 4156 C 379.64 1.27285 1.57881 0
M  V30 4157 C 379.973 -0.156137 1.93571 0
M  V30 4158 O 379.248 -1.10222 1.60254 0
M  V30 4159 C 379.531 2.16639 2.87645 0
M  V30 4160 C 379.384 3.68088 2.58517 0
M  V30 4161 C 380.703 2.05378 3.8924 0
M  V30 4162 H 377.822 0.463714 0.572833 0
M  V30 4163 H 380.464 1.64859 0.944539 0
M  V30 4164 H 378.614 1.84725 3.41773 0
M  V30 4165 H 380.286 4.10382 2.10676 0
M  V30 4166 H 378.529 3.89038 1.91917 0
M  V30 4167 H 379.2 4.2598 3.51063 0
M  V30 4168 H 381.676 2.33404 3.44473 0
M  V30 4169 H 380.552 2.7012 4.77835 0
M  V30 4170 H 380.813 1.0316 4.29896 0
M  V30 4171 N 379.872 -1.04064 1.18357 0
M  V30 4172 C 381.149 -1.74252 0.888581 0
M  V30 4173 C 381.529 -2.02138 -0.60856 0
M  V30 4174 O 380.877 -1.66656 -1.56327 0
M  V30 4175 C 381.087 -3.0277 1.73584 0
M  V30 4176 C 382.435 -3.76506 1.96286 0
M  V30 4177 O 383.459 -3.12668 1.70637 0
M  V30 4178 O 382.318 -4.91243 2.39464 0
M  V30 4179 H 379.412 -0.758271 0.330082 0
M  V30 4180 H 381.958 -1.1013 1.2911 0
M  V30 4181 H 380.73 -2.78299 2.75073 0
M  V30 4182 H 380.353 -3.74631 1.33183 0
M  V30 4183 N 381.35 -0.985608 -1.22978 0
M  V30 4184 C 382.26 -0.538548 -2.28335 0
M  V30 4185 C 383.276 0.409163 -1.69121 0
M  V30 4186 O 384.452 0.277797 -1.99475 0
M  V30 4187 C 381.517 0.146867 -3.46389 0
M  V30 4188 C 380.578 -0.842896 -4.20944 0
M  V30 4189 C 379.811 -0.190095 -5.33361 0
M  V30 4190 O 380.034 1.01767 -5.61248 0
M  V30 4191 O 378.968 -0.891289 -5.95264 0
M  V30 4192 H 382.794 -1.41487 -2.68729 0
M  V30 4193 H 380.379 -0.753495 -1.29007 0
M  V30 4194 H 382.261 0.531125 -4.1804 0
M  V30 4195 H 380.936 0.997871 -3.07935 0
M  V30 4196 H 379.843 -1.27795 -3.51595 0
M  V30 4197 H 381.176 -1.66287 -4.6326 0
M  V30 4198 N 382.828 1.3818 -0.7579 0
M  V30 4199 C 384.077 1.99261 -0.312744 0
M  V30 4200 C 384.39 1.60846 1.11301 0
M  V30 4201 O 385.596 2.14929 1.65885 0
M  V30 4202 C 384.052 3.56294 -0.50821 0
M  V30 4203 C 383.66 4.03657 -1.94333 0
M  V30 4204 C 385.404 4.24313 -0.125982 0
M  V30 4205 C 383.311 5.53347 -2.08712 0
M  V30 4206 H 382.241 0.745456 -0.113185 0
M  V30 4207 H 384.892 1.57889 -0.935056 0
M  V30 4208 H 383.274 3.95575 0.183353 0
M  V30 4209 H 384.448 3.75655 -2.66871 0
M  V30 4210 H 382.763 3.48376 -2.28086 0
M  V30 4211 H 385.36 5.34279 -0.212125 0
M  V30 4212 H 385.703 4.05962 0.921964 0
M  V30 4213 H 386.236 3.90285 -0.769563 0
M  V30 4214 H 382.975 5.76607 -3.11777 0
M  V30 4215 H 382.495 5.83078 -1.4064 0
M  V30 4216 H 384.174 6.19111 -1.87912 0
M  V30 4217 N 384.306 0.507319 1.49211 0
M  V30 4218 C 385.555 -0.0368315 2.01666 0
M  V30 4219 C 385.868 -1.37459 1.39156 0
M  V30 4220 O 387.074 -2.00579 1.82976 0
M  V30 4221 C 385.53 -0.116089 3.59713 0
M  V30 4222 C 385.138 1.2154 4.31198 0
M  V30 4223 C 386.882 -0.610268 4.2009 0
M  V30 4224 C 384.789 1.09796 5.81119 0
M  V30 4225 H 383.719 -0.0175376 0.753796 0
M  V30 4226 H 386.37 0.647691 1.71689 0
M  V30 4227 H 384.752 -0.8652 3.86433 0
M  V30 4228 H 385.926 1.9783 4.16173 0
M  V30 4229 H 384.241 1.64352 3.82593 0
M  V30 4230 H 386.838 -0.715742 5.29888 0
M  V30 4231 H 387.181 -1.61064 3.8388 0
M  V30 4232 H 387.714 0.0824916 3.97714 0
M  V30 4233 H 384.453 2.0728 6.21864 0
M  V30 4234 H 383.973 0.376058 5.9862 0
M  V30 4235 H 385.652 0.779281 6.4229 0
M  V30 4236 N 385.784 -1.5574 0.241426 0
M  V30 4237 C 387.009 -2.0366 -0.392111 0
M  V30 4238 C 387.434 -1.11969 -1.51144 0
M  V30 4239 O 386.792 -0.111594 -1.80956 0
M  V30 4240 C 386.84 -3.49638 -0.882371 0
M  V30 4241 O 385.944 -3.6108 -1.99235 0
M  V30 4242 H 385.285 -0.658379 -0.0862122 0
M  V30 4243 H 387.815 -2.01302 0.365881 0
M  V30 4244 H 387.825 -3.90351 -1.18702 0
M  V30 4245 H 386.5 -4.15852 -0.0632361 0
M  V30 4246 H 385.077 -3.32262 -1.69282 0
M  V30 4247 N 387.262 0.0317525 -1.57568 0
M  V30 4248 C 388.673 0.578692 -1.77505 0
M  V30 4249 C 389.024 1.75749 -0.872164 0
M  V30 4250 O 388.149 2.16298 -0.0663106 0
M  V30 4251 C 388.744 1.05658 -3.21904 0
M  V30 4252 C 387.303 1.54906 -3.43047 0
M  V30 4253 C 386.45 0.485939 -2.73009 0
M  V30 4254 H 389.401 -0.194475 -1.57504 0
M  V30 4255 H 389.422 1.92404 -3.28269 0
M  V30 4256 H 388.934 0.198422 -3.87592 0
M  V30 4257 H 387.035 2.42915 -2.82529 0
M  V30 4258 H 387.148 1.59841 -4.5165 0
M  V30 4259 H 385.512 0.940354 -2.36705 0
M  V30 4260 H 386.295 -0.362709 -3.41379 0
M  V30 4261 N 388.74 1.54641 0.303973 0
M  V30 4262 C 389.673 1.80263 1.3993 0
M  V30 4263 C 390.651 0.653657 1.48883 0
M  V30 4264 O 391.835 0.893284 1.6599 0
M  V30 4265 C 388.962 1.9367 2.77866 0
M  V30 4266 C 388.008 3.16078 2.86351 0
M  V30 4267 S 388.841 4.74219 2.4875 0
M  V30 4268 C 389.997 4.90558 3.88721 0
M  V30 4269 H 390.23 2.72886 1.17986 0
M  V30 4270 H 387.763 1.46014 0.501918 0
M  V30 4271 H 389.721 2.0208 3.57315 0
M  V30 4272 H 388.382 1.01991 2.9708 0
M  V30 4273 H 387.575 3.22252 3.87517 0
M  V30 4274 H 387.177 3.06099 2.14893 0
M  V30 4275 H 389.469 4.74398 4.83687 0
M  V30 4276 H 390.412 5.92651 3.87518 0
M  V30 4277 H 390.82 4.18728 3.78585 0
M  V30 4278 N 390.218 -0.567019 1.47046 0
M  V30 4279 C 391.466 -1.322 1.52864 0
M  V30 4280 C 391.787 -1.94088 0.188388 0
M  V30 4281 O 391.057 -1.7941 -0.786693 0
M  V30 4282 H 389.637 -0.490894 0.563056 0
M  V30 4283 H 392.299 -0.662879 1.83281 0
M  V30 4284 H 391.395 -2.12062 2.2899 0
M  V30 4285 N 391.696 -1.35014 -0.812953 0
M  V30 4286 C 392.643 -1.27412 -1.92444 0
M  V30 4287 C 393.613 -0.14733 -1.65445 0
M  V30 4288 O 394.798 -0.329974 -1.87925 0
M  V30 4289 C 391.938 -1.04558 -3.28879 0
M  V30 4290 C 391.051 -2.26101 -3.68106 0
M  V30 4291 C 390.186 -1.96449 -4.9354 0
M  V30 4292 C 389.225 -3.14081 -5.25376 0
M  V30 4293 N 388.362 -2.84246 -6.41988 0
M  V30 4294 H 393.202 -2.22463 -1.98278 0
M  V30 4295 H 390.739 -1.10593 -0.969933 0
M  V30 4296 H 392.697 -0.893413 -4.07522 0
M  V30 4297 H 391.327 -0.131719 -3.22531 0
M  V30 4298 H 390.379 -2.52204 -2.84775 0
M  V30 4299 H 391.691 -3.13959 -3.87597 0
M  V30 4300 H 390.845 -1.78026 -5.79993 0
M  V30 4301 H 389.584 -1.05867 -4.76071 0
M  V30 4302 H 388.589 -3.33089 -4.37415 0
M  V30 4303 H 389.814 -4.05455 -5.44778 0
M  V30 4304 H 387.76 -1.96252 -6.25956 0
M  V30 4305 H 387.677 -3.65637 -6.61699 0
M  V30 4306 H 388.945 -2.6935 -7.31485 0
M  V30 4307 N 393.175 1.03435 -1.18907 0
M  V30 4308 C 394.421 1.77005 -0.989798 0
M  V30 4309 C 394.754 1.88205 0.478816 0
M  V30 4310 O 394.029 1.39481 1.35556 0
M  V30 4311 C 394.312 3.19925 -1.65287 0
M  V30 4312 C 394.165 3.1663 -3.19477 0
M  V30 4313 C 395.484 4.18189 -1.37134 0
M  V30 4314 H 392.603 0.642538 -0.360991 0
M  V30 4315 H 395.245 1.20784 -1.46667 0
M  V30 4316 H 393.395 3.67929 -1.24741 0
M  V30 4317 H 395.067 2.76567 -3.692 0
M  V30 4318 H 393.31 2.54491 -3.51307 0
M  V30 4319 H 393.981 4.1758 -3.61013 0
M  V30 4320 H 396.457 3.78761 -1.72276 0
M  V30 4321 H 395.333 5.16394 -1.86087 0
M  V30 4322 H 395.594 4.41112 -0.295424 0
M  V30 4323 N 394.653 0.992116 1.22453 0
M  V30 4324 C 395.902 0.662992 1.90492 0
M  V30 4325 C 396.215 -0.808407 1.78113 0
M  V30 4326 O 397.421 -1.24908 2.41061 0
M  V30 4327 C 395.877 1.1353 3.41524 0
M  V30 4328 C 395.485 2.63187 3.62542 0
M  V30 4329 C 397.229 0.880465 4.15269 0
M  V30 4330 C 395.136 3.04024 5.0727 0
M  V30 4331 H 394.066 0.244278 0.713333 0
M  V30 4332 H 396.717 1.20157 1.38688 0
M  V30 4333 H 395.099 0.52485 3.92506 0
M  V30 4334 H 396.273 3.2957 3.22056 0
M  V30 4335 H 394.588 2.86543 3.02129 0
M  V30 4336 H 397.185 1.16128 5.21937 0
M  V30 4337 H 397.528 -0.183408 4.15896 0
M  V30 4338 H 398.061 1.45307 3.70312 0
M  V30 4339 H 394.8 4.09584 5.11782 0
M  V30 4340 H 394.32 2.42343 5.48662 0
M  V30 4341 H 395.999 2.95282 5.75689 0
M  V30 4342 N 396.131 -1.37776 0.765217 0
M  V30 4343 C 397.359 -2.04124 0.337767 0
M  V30 4344 C 397.774 -1.57715 -1.03785 0
M  V30 4345 O 397.131 -0.755447 -1.6613 0
M  V30 4346 C 397.182 -3.59658 0.364442 0
M  V30 4347 O 396.903 -4.04367 1.68579 0
M  V30 4348 C 398.404 -4.43236 -0.0754221 0
M  V30 4349 H 395.624 -0.655696 0.142491 0
M  V30 4350 H 398.168 -1.76238 1.03732 0
M  V30 4351 H 396.323 -3.86339 -0.286471 0
M  V30 4352 H 396.737 -4.98857 1.61993 0
M  V30 4353 H 398.211 -5.52 -0.00560067 0
M  V30 4354 H 398.688 -4.2455 -1.12491 0
M  V30 4355 H 399.294 -4.21767 0.547055 0
M  V30 4356 N 397.609 -0.515225 -1.4894 0
M  V30 4357 C 398.837 0.0206034 -2.0689 0
M  V30 4358 C 399.252 1.29514 -1.37374 0
M  V30 4359 O 398.609 1.76698 -0.456529 0
M  V30 4360 C 398.66 0.26351 -3.60538 0
M  V30 4361 O 398.381 -0.960517 -4.27441 0
M  V30 4362 C 399.882 0.841383 -4.35242 0
M  V30 4363 H 397.102 -0.0268608 -0.670462 0
M  V30 4364 H 399.646 -0.716651 -1.91532 0
M  V30 4365 H 397.801 0.950777 -3.75552 0
M  V30 4366 H 398.215 -0.73212 -5.19365 0
M  V30 4367 H 399.689 0.96085 -5.43573 0
M  V30 4368 H 400.166 1.8427 -3.98674 0
M  V30 4369 H 400.772 0.191143 -4.2487 0
M  V30 4370 N 399.087 1.5561 -0.249682 0
M  V30 4371 C 400.037 2.18157 0.662673 0
M  V30 4372 C 401.021 1.1383 1.13717 0
M  V30 4373 O 402.213 1.39731 1.08648 0
M  V30 4374 C 399.342 2.88672 1.85805 0
M  V30 4375 C 398.428 4.00258 1.40193 0
M  V30 4376 N 398.819 5.01473 0.660213 0
M  V30 4377 C 397.117 4.12864 1.68698 0
M  V30 4378 C 397.818 5.80155 0.423695 0
M  V30 4379 N 396.794 5.34533 0.988721 0
M  V30 4380 H 400.596 2.93769 0.0878688 0
M  V30 4381 H 398.11 1.62316 -0.0521183 0
M  V30 4382 H 400.107 3.31912 2.5227 0
M  V30 4383 H 398.767 2.14564 2.43705 0
M  V30 4384 H 399.778 5.16971 0.310047 0
M  V30 4385 H 396.455 3.4993 2.27717 0
M  V30 4386 H 397.845 6.71688 -0.168616 0
M  V30 4387 N 400.565 -0.0233959 1.57583 0
M  V30 4388 C 401.811 -0.714119 1.89811 0
M  V30 4389 C 402.144 -1.74702 0.848113 0
M  V30 4390 O 401.419 -1.94023 -0.136135 0
M  V30 4391 C 401.702 -1.37853 3.32669 0
M  V30 4392 C 401.555 -0.358764 4.48367 0
M  V30 4393 C 402.874 -2.31101 3.7454 0
M  V30 4394 H 399.993 -0.25814 0.690314 0
M  V30 4395 H 402.635 0.0230927 1.89986 0
M  V30 4396 H 400.785 -2.00689 3.3265 0
M  V30 4397 H 402.457 0.268115 4.6052 0
M  V30 4398 H 400.7 0.321387 4.32608 0
M  V30 4399 H 401.371 -0.862242 5.45224 0
M  V30 4400 H 403.847 -1.78304 3.75961 0
M  V30 4401 H 402.723 -2.74567 4.75294 0
M  V30 4402 H 402.984 -3.18018 3.0711 0
M  V30 4403 N 402.043 -1.548 -0.295768 0
M  V30 4404 C 403.291 -1.73985 -1.02828 0
M  V30 4405 C 403.612 -0.531406 -1.87619 0
M  V30 4406 O 402.882 0.454221 -1.90561 0
M  V30 4407 H 401.462 -0.641556 -0.382642 0
M  V30 4408 H 404.124 -1.92163 -0.325489 0
M  V30 4409 H 403.22 -2.63129 -1.67838 0
M  V30 4410 N 403.521 0.559213 -1.47345 0
M  V30 4411 C 404.932 1.14134 -1.47751 0
M  V30 4412 C 405.283 1.94834 -0.231103 0
M  V30 4413 O 404.408 2.05957 0.664137 0
M  V30 4414 C 405.003 2.07653 -2.67705 0
M  V30 4415 C 403.562 2.61141 -2.71076 0
M  V30 4416 C 402.709 1.3748 -2.40821 0
M  V30 4417 H 405.66 0.345917 -1.54884 0
M  V30 4418 H 405.681 2.91497 -2.44561 0
M  V30 4419 H 405.193 1.4889 -3.58404 0
M  V30 4420 H 403.294 3.23707 -1.84511 0
M  V30 4421 H 403.407 3.02272 -3.7171 0
M  V30 4422 H 401.771 1.68086 -1.91362 0
M  V30 4423 H 402.554 0.805135 -3.33725 0
M  V30 4424 N 404.999 1.35443 0.805782 0
M  V30 4425 C 406.247 1.28507 1.55982 0
M  V30 4426 C 406.568 -0.140046 1.94496 0
M  V30 4427 O 405.838 -1.07666 1.63661 0
M  V30 4428 H 404.418 0.472676 0.578434 0
M  V30 4429 H 407.08 1.69555 0.961098 0
M  V30 4430 H 406.176 1.90148 2.47488 0
M  V30 4431 N 406.477 -1.02803 1.19454 0
M  V30 4432 C 407.705 -1.79841 1.02297 0
M  V30 4433 C 408.12 -1.83879 -0.428259 0
M  V30 4434 O 407.477 -1.28345 -1.29745 0
M  V30 4435 C 407.528 -3.24852 1.58598 0
M  V30 4436 O 407.249 -3.21097 2.98041 0
M  V30 4437 C 408.75 -4.18485 1.46236 0
M  V30 4438 H 405.97 -0.565936 0.360496 0
M  V30 4439 H 408.514 -1.2948 1.58288 0
M  V30 4440 H 406.669 -3.72401 1.06753 0
M  V30 4441 H 407.083 -4.12033 3.24545 0
M  V30 4442 H 408.557 -5.18121 1.90407 0
M  V30 4443 H 409.034 -4.37254 0.41301 0
M  V30 4444 H 409.64 -3.76811 1.97215 0
M  V30 4445 N 407.956 -0.998596 -1.21925 0
M  V30 4446 C 409.202 -0.678667 -1.91107 0
M  V30 4447 C 409.535 0.78791 -1.77498 0
M  V30 4448 O 408.81 1.57043 -1.1475 0
M  V30 4449 C 409.093 -1.09245 -3.43129 0
M  V30 4450 C 408.946 -2.61801 -3.6576 0
M  V30 4451 C 410.265 -0.649984 -4.35274 0
M  V30 4452 H 407.384 -0.248025 -0.694012 0
M  V30 4453 H 410.026 -1.24314 -1.43688 0
M  V30 4454 H 408.176 -0.612171 -3.83647 0
M  V30 4455 H 409.848 -3.17543 -3.34611 0
M  V30 4456 H 408.091 -3.03609 -3.09845 0
M  V30 4457 H 408.762 -2.85804 -4.7225 0
M  V30 4458 H 411.238 -1.0626 -4.02303 0
M  V30 4459 H 410.114 -0.967743 -5.40302 0
M  V30 4460 H 410.375 0.449139 -4.39813 0
M  V30 4461 N 409.434 1.37368 -0.772513 0
M  V30 4462 C 410.682 1.99279 -0.336516 0
M  V30 4463 C 411.003 1.6163 1.09091 0
M  V30 4464 O 410.273 0.882109 1.74916 0
M  V30 4465 H 408.853 0.737063 -0.121435 0
M  V30 4466 H 411.515 1.67836 -0.990809 0
M  V30 4467 H 410.611 3.09332 -0.414763 0
M  V30 4468 N 410.912 0.523116 1.48665 0
M  V30 4469 C 412.159 -0.0134763 2.02496 0
M  V30 4470 C 412.487 -1.3493 1.40086 0
M  V30 4471 O 411.742 -1.88286 0.533567 0
M  V30 4472 C 412.041 -0.191671 3.56886 0
M  V30 4473 C 411.707 1.06893 4.38046 0
M  V30 4474 C 410.369 1.41443 4.59943 0
M  V30 4475 C 412.721 1.90584 4.85106 0
M  V30 4476 C 410.049 2.59594 5.26144 0
M  V30 4477 C 412.401 3.07907 5.52609 0
M  V30 4478 C 411.065 3.42811 5.72745 0
M  V30 4479 H 410.335 -0.00493133 0.740984 0
M  V30 4480 H 412.982 0.687751 1.78724 0
M  V30 4481 H 411.287 -0.97561 3.79459 0
M  V30 4482 H 412.984 -0.621659 3.96152 0
M  V30 4483 H 409.574 0.789848 4.21259 0
M  V30 4484 H 413.758 1.65203 4.67997 0
M  V30 4485 H 409.014 2.86847 5.39934 0
M  V30 4486 H 413.188 3.73066 5.88043 0
M  V30 4487 H 410.815 4.34462 6.23816 0
M  V30 4488 N 412.39 -1.55475 0.257931 0
M  V30 4489 C 413.638 -1.98813 -0.363009 0
M  V30 4490 C 413.959 -1.14757 -1.57657 0
M  V30 4491 O 413.229 -0.232956 -1.9451 0
M  V30 4492 H 411.809 -0.734308 -0.137113 0
M  V30 4493 H 414.471 -1.9156 0.359281 0
M  V30 4494 H 413.567 -3.04941 -0.664634 0
M  V30 4495 N 413.868 0.0150385 -1.57593 0
M  V30 4496 C 415.117 0.702115 -1.89085 0
M  V30 4497 C 415.43 1.75764 -0.858277 0
M  V30 4498 O 416.636 2.49829 -1.0629 0
M  V30 4499 C 415.092 1.29992 -3.35604 0
M  V30 4500 C 414.7 0.280007 -4.47124 0
M  V30 4501 C 416.444 1.96606 -3.76227 0
M  V30 4502 C 414.351 0.886949 -5.84711 0
M  V30 4503 H 413.281 0.265997 -0.705522 0
M  V30 4504 H 415.932 -0.0430408 -1.8345 0
M  V30 4505 H 414.314 2.09525 -3.36029 0
M  V30 4506 H 415.488 -0.489631 -4.58191 0
M  V30 4507 H 413.803 -0.284835 -4.15425 0
M  V30 4508 H 416.4 2.42893 -4.76347 0
M  V30 4509 H 416.743 2.79024 -3.08952 0
M  V30 4510 H 417.276 1.23828 -3.78036 0
M  V30 4511 H 414.015 0.101876 -6.55421 0
M  V30 4512 H 413.535 1.6261 -5.77337 0
M  V30 4513 H 415.214 1.39011 -6.3189 0
M  V30 4514 N 415.346 1.54954 0.287554 0
M  V30 4515 C 416.256 1.8991 1.37736 0
M  V30 4516 C 417.272 0.794701 1.54792 0
M  V30 4517 O 418.448 1.09243 1.69198 0
M  V30 4518 C 415.513 2.15108 2.71899 0
M  V30 4519 C 414.574 3.38752 2.63715 0
M  V30 4520 C 413.807 3.62739 3.91479 0
M  V30 4521 O 414.03 2.89492 4.91478 0
M  V30 4522 O 412.964 4.56267 3.92561 0
M  V30 4523 H 416.79 2.82652 1.11092 0
M  V30 4524 H 414.375 1.41315 0.484807 0
M  V30 4525 H 416.257 2.32806 3.51254 0
M  V30 4526 H 414.932 1.25551 2.9836 0
M  V30 4527 H 413.839 3.26405 1.82786 0
M  V30 4528 H 415.172 4.28483 2.42205 0
M  V30 4529 N 416.824 -0.551391 1.4764 0
M  V30 4530 C 418.07 -1.31024 1.54792 0
M  V30 4531 C 418.403 -1.9304 0.211967 0
M  V30 4532 O 417.678 -1.78175 -0.77999 0
M  V30 4533 C 417.961 -2.41593 2.67029 0
M  V30 4534 C 417.814 -1.84408 4.10261 0
M  V30 4535 C 419.133 -3.43488 2.75143 0
M  V30 4536 H 416.252 -0.475031 0.563485 0
M  V30 4537 H 418.894 -0.616454 1.79722 0
M  V30 4538 H 417.044 -3.00772 2.45904 0
M  V30 4539 H 418.716 -1.29445 4.42766 0
M  V30 4540 H 416.959 -1.15051 4.18265 0
M  V30 4541 H 417.63 -2.64367 4.84576 0
M  V30 4542 H 420.106 -2.94236 2.94218 0
M  V30 4543 H 418.982 -4.18274 3.55441 0
M  V30 4544 H 419.243 -4.02703 1.82435 0
M  V30 4545 N 418.302 -1.35869 -0.798587 0
M  V30 4546 C 419.232 -1.32118 -1.92528 0
M  V30 4547 C 420.213 -0.194209 -1.68988 0
M  V30 4548 O 421.398 -0.390426 -1.90235 0
M  V30 4549 C 418.528 -1.10047 -3.29404 0
M  V30 4550 C 417.482 -2.19471 -3.67446 0
M  V30 4551 C 416.808 -1.82555 -5.02571 0
M  V30 4552 C 418.108 -3.61495 -3.76987 0
M  V30 4553 H 419.802 -2.26394 -1.95924 0
M  V30 4554 H 417.348 -1.08981 -0.94123 0
M  V30 4555 H 419.301 -1.06061 -4.07835 0
M  V30 4556 H 418.025 -0.122195 -3.26371 0
M  V30 4557 H 416.684 -2.22568 -2.91306 0
M  V30 4558 H 416.332 -0.833249 -4.9605 0
M  V30 4559 H 416.032 -2.5581 -5.28995 0
M  V30 4560 H 417.556 -1.80108 -5.83432 0
M  V30 4561 H 418.97 -3.60676 -4.4563 0
M  V30 4562 H 417.367 -4.33577 -4.14887 0
M  V30 4563 H 418.437 -3.97065 -2.78329 0
M  V30 4564 N 419.78 1.02168 -1.19998 0
M  V30 4565 C 420.69 2.14069 -0.959774 0
M  V30 4566 C 421.706 1.73804 0.082655 0
M  V30 4567 O 422.882 2.01133 -0.103633 0
M  V30 4568 C 419.947 3.42936 -0.509459 0
M  V30 4569 C 419.008 3.97474 -1.62213 0
M  V30 4570 C 418.241 5.2019 -1.19321 0
M  V30 4571 O 418.464 5.70369 -0.0597726 0
M  V30 4572 O 417.398 5.67749 -1.99863 0
M  V30 4573 H 421.224 2.37199 -1.89658 0
M  V30 4574 H 418.809 1.12469 -0.983411 0
M  V30 4575 H 420.691 4.20551 -0.267322 0
M  V30 4576 H 419.366 3.21234 0.398821 0
M  V30 4577 H 418.273 3.21161 -1.9185 0
M  V30 4578 H 419.606 4.23555 -2.50723 0
M  V30 4579 N 421.258 1.00505 1.21394 0
M  V30 4580 C 422.674 0.717873 1.42544 0
M  V30 4581 C 422.874 -0.706936 1.88692 0
M  V30 4582 O 421.93 -1.47627 2.04847 0
M  V30 4583 C 423.243 1.73377 2.45684 0
M  V30 4584 C 424.791 1.75059 2.59467 0
M  V30 4585 C 425.266 2.75545 3.6584 0
M  V30 4586 N 426.757 2.74213 3.73311 0
M  V30 4587 C 427.492 3.48626 4.55245 0
M  V30 4588 N 426.988 4.32678 5.41075 0
M  V30 4589 N 428.781 3.37276 4.49668 0
M  V30 4590 H 420.932 1.92506 0.897503 0
M  V30 4591 H 423.195 0.830919 0.456375 0
M  V30 4592 H 422.901 2.75395 2.18748 0
M  V30 4593 H 422.775 1.53647 3.44489 0
M  V30 4594 H 425.162 0.737337 2.8574 0
M  V30 4595 H 425.243 1.98861 1.60897 0
M  V30 4596 H 424.887 3.77028 3.40313 0
M  V30 4597 H 424.817 2.49009 4.64007 0
M  V30 4598 H 427.308 2.13234 3.11993 0
M  V30 4599 H 427.621 4.86253 6.00648 0
M  V30 4600 H 425.966 4.3676 5.40616 0
M  V30 4601 H 429.157 2.71043 3.81646 0
M  V30 4602 H 429.33 3.95524 5.13288 0
M  V30 4603 N 422.737 -1.36956 0.779787 0
M  V30 4604 C 423.684 -2.30175 0.169697 0
M  V30 4605 C 424.654 -1.51501 -0.68094 0
M  V30 4606 O 425.839 -1.80042 -0.631629 0
M  V30 4607 C 422.979 -3.37985 -0.697131 0
M  V30 4608 C 422.092 -4.31661 0.170992 0
M  V30 4609 C 421.227 -5.2655 -0.701298 0
M  V30 4610 C 420.266 -6.11867 0.168869 0
M  V30 4611 N 419.403 -6.98973 -0.661855 0
M  V30 4612 H 424.243 -2.81767 0.970135 0
M  V30 4613 H 421.78 -1.38699 0.489994 0
M  V30 4614 H 423.738 -3.99128 -1.2146 0
M  V30 4615 H 422.368 -2.87739 -1.46309 0
M  V30 4616 H 421.42 -3.71756 0.80634 0
M  V30 4617 H 422.732 -4.91644 0.841875 0
M  V30 4618 H 421.886 -5.92937 -1.28494 0
M  V30 4619 H 420.625 -4.66998 -1.40584 0
M  V30 4620 H 419.63 -5.44452 0.764986 0
M  V30 4621 H 420.855 -6.73493 0.870863 0
M  V30 4622 H 418.801 -6.41941 -1.35086 0
M  V30 4623 H 418.718 -7.55984 -0.0484447 0
M  V30 4624 H 419.986 -7.6974 -1.22963 0
M  V30 4625 N 424.215 -0.530993 -1.48385 0
M  V30 4626 C 425.631 -0.188919 -1.58478 0
M  V30 4627 C 425.831 1.30786 -1.53288 0
M  V30 4628 O 424.887 2.08619 -1.42248 0
M  V30 4629 C 426.2 -0.792343 -2.90073 0
M  V30 4630 C 427.748 -0.76117 -3.03604 0
M  V30 4631 C 428.223 -1.34319 -4.37861 0
M  V30 4632 N 429.714 -1.3052 -4.44431 0
M  V30 4633 C 430.449 -1.72543 -5.46824 0
M  V30 4634 N 429.945 -2.22299 -6.56167 0
M  V30 4635 N 431.738 -1.63773 -5.37712 0
M  V30 4636 H 423.889 -1.50377 -1.50002 0
M  V30 4637 H 426.152 -0.625559 -0.712306 0
M  V30 4638 H 425.858 -1.84323 -2.99529 0
M  V30 4639 H 425.732 -0.270026 -3.76232 0
M  V30 4640 H 428.119 0.280957 -2.93759 0
M  V30 4641 H 428.2 -1.32097 -2.19053 0
M  V30 4642 H 427.844 -2.38425 -4.4846 0
M  V30 4643 H 427.774 -0.759064 -5.21101 0
M  V30 4644 H 430.265 -0.940973 -3.65997 0
M  V30 4645 H 430.578 -2.52356 -7.30436 0
M  V30 4646 H 428.923 -2.26293 -6.57127 0
M  V30 4647 H 432.114 -1.24698 -4.51185 0
M  V30 4648 H 432.287 -1.96844 -6.17379 0
M  V30 4649 O 425.732 1.56259 -0.408071 0
M  V30 4650 H 426.423 1.93245 0.132688 0
M  V30 END ATOM
M  V30 BEGIN BOND
M  V30 END BOND
M  V30 END CTAB
M  END
$$$$
