drugbank_target|Q16515 Acid-sensing ion channel 2 (DB00594)
 OpenBabel12092119373D

  0  0  0     0  0            999 V3000
M  V30 BEGIN CTAB
M  V30 COUNTS 8043 8136 0 0 0
M  V30 BEGIN ATOM
M  V30 1 H -0.908 1.98254 -0.117106 0
M  V30 2 N 0 1.576 0 0
M  V30 3 C 0.933 2.03868 1.02534 0
M  V30 4 C 1.911 0.928543 1.3348 0
M  V30 5 O 3.095 1.19667 1.45644 0
M  V30 6 C 0.222 2.43627 2.35294 0
M  V30 7 C -0.732 3.65373 2.2001 0
M  V30 8 S 0.101 5.13292 1.52614 0
M  V30 9 C 1.257 5.56322 2.86805 0
M  V30 10 H 1.49 2.90518 0.631377 0
M  V30 11 H -0.977 1.52953 0.210867 0
M  V30 12 H 0.981 2.67203 3.11629 0
M  V30 13 H -0.358 1.57376 2.7183 0
M  V30 14 H -1.165 3.90944 3.18086 0
M  V30 15 H -1.563 3.418 1.51819 0
M  V30 16 H 0.729 5.58782 3.83104 0
M  V30 17 H 1.672 6.56266 2.65933 0
M  V30 18 H 2.08 4.83886 2.90714 0
M  V30 19 N 1.4781 -0.272755 1.55222 0
M  V30 20 C 2.7551 -1.02562 1.66555 0
M  V30 21 C 3.1351 -2.04282 0.532189 0
M  V30 22 O 2.4831 -2.23662 -0.467717 0
M  V30 23 C 2.6931 -1.6822 3.05782 0
M  V30 24 C 4.0411 -2.19373 3.63539 0
M  V30 25 O 5.0651 -1.78206 3.08417 0
M  V30 26 O 3.9241 -2.94883 4.60115 0
M  V30 27 H 1.0181 -0.475755 0.676451 0
M  V30 28 H 3.5641 -0.268593 1.67561 0
M  V30 29 H 2.3361 -0.945112 3.79715 0
M  V30 30 H 1.9591 -2.50609 3.08676 0
M  V30 31 N 2.9562 -1.48159 -0.537278 0
M  V30 32 C 3.8862 -1.65029 -1.6519 0
M  V30 33 C 4.8672 -0.499281 -1.62607 0
M  V30 34 O 6.0522 -0.730972 -1.79918 0
M  V30 35 C 3.1822 -1.68303 -3.03795 0
M  V30 36 C 2.1362 -2.8283 -3.21234 0
M  V30 37 C 1.4622 -2.71189 -4.60826 0
M  V30 38 C 2.7622 -4.24211 -3.04701 0
M  V30 39 H 4.4562 -2.58341 -1.51328 0
M  V30 40 H 2.0022 -1.24325 -0.726585 0
M  V30 41 H 3.9552 -1.78693 -3.81637 0
M  V30 42 H 2.6792 -0.715635 -3.18663 0
M  V30 43 H 1.3382 -2.71983 -2.45807 0
M  V30 44 H 0.9862 -1.72435 -4.7252 0
M  V30 45 H 0.6862 -3.48035 -4.7344 0
M  V30 46 H 2.2102 -2.83537 -5.40777 0
M  V30 47 H 3.6242 -4.3593 -3.72341 0
M  V30 48 H 2.0212 -5.01998 -3.28813 0
M  V30 49 H 3.0912 -4.41184 -2.01209 0
M  V30 50 N 4.4343 0.785586 -1.36625 0
M  V30 51 C 5.3813 1.89838 -1.31264 0
M  V30 52 C 6.3513 1.65115 -0.180633 0
M  V30 53 O 7.5363 1.87222 -0.36777 0
M  V30 54 C 4.6763 3.26706 -1.11163 0
M  V30 55 C 3.7893 3.63476 -2.33472 0
M  V30 56 C 2.9243 4.89481 -2.06353 0
M  V30 57 C 1.9633 5.18941 -3.24602 0
M  V30 58 N 1.1003 6.36131 -2.97123 0
M  V30 59 H 5.9403 1.93756 -2.26413 0
M  V30 60 H 3.4773 0.947454 -1.12524 0
M  V30 61 H 5.4353 4.05639 -0.975337 0
M  V30 62 H 4.0653 3.222 -0.196674 0
M  V30 63 H 3.1173 2.79636 -2.57891 0
M  V30 64 H 4.4293 3.81193 -3.21704 0
M  V30 65 H 3.5833 5.76288 -1.89675 0
M  V30 66 H 2.3223 4.73841 -1.15437 0
M  V30 67 H 1.3273 4.30615 -3.41834 0
M  V30 68 H 2.5523 5.36498 -4.16349 0
M  V30 69 H 0.4983 6.21875 -2.08823 0
M  V30 70 H 0.4153 6.54198 -3.78894 0
M  V30 71 H 1.6833 7.2591 -2.84033 0
M  V30 72 N 5.9124 1.20967 1.01018 0
M  V30 73 C 6.8224 0.980157 2.13143 0
M  V30 74 C 7.8384 -0.0660665 1.73875 0
M  V30 75 O 9.0144 0.122821 2.01025 0
M  V30 76 C 6.0794 0.54216 3.42435 0
M  V30 77 C 5.1404 1.65999 3.95908 0
M  V30 78 C 4.3734 1.2428 5.19028 0
M  V30 79 O 4.5964 0.114196 5.70286 0
M  V30 80 O 3.5304 2.05271 5.65816 0
M  V30 81 H 7.3564 1.91913 2.35379 0
M  V30 82 H 4.9414 0.994099 1.11526 0
M  V30 83 H 6.8234 0.30744 4.20277 0
M  V30 84 H 5.4984 -0.36815 3.216 0
M  V30 85 H 4.4054 1.94906 3.19316 0
M  V30 86 H 5.7384 2.54753 4.21143 0
M  V30 87 N 7.3905 -1.2043 1.01659 0
M  V30 88 C 8.6155 -1.94318 0.724942 0
M  V30 89 C 9.0405 -1.74266 -0.708034 0
M  V30 90 O 8.3985 -1.03694 -1.48719 0
M  V30 91 C 8.4465 -3.44486 1.06591 0
M  V30 92 O 7.5505 -4.12017 0.177599 0
M  V30 93 H 6.8915 -0.60708 0.26898 0
M  V30 94 H 9.4215 -1.52861 1.35995 0
M  V30 95 H 9.4315 -3.95106 1.01762 0
M  V30 96 H 8.1065 -3.58404 2.10997 0
M  V30 97 H 6.6835 -3.71821 0.283421 0
M  V30 98 N 8.8686 -0.792821 -1.36206 0
M  V30 99 C 10.2796 -0.429513 -1.81692 0
M  V30 100 C 10.6306 1.04695 -1.65932 0
M  V30 101 O 9.7556 1.81256 -1.18218 0
M  V30 102 C 10.3506 -0.772831 -3.29868 0
M  V30 103 C 8.9096 -0.462307 -3.7355 0
M  V30 104 C 8.0566 -1.00569 -2.5842 0
M  V30 105 H 11.0076 -0.985672 -1.24379 0
M  V30 106 H 11.0286 -0.0651928 -3.80444 0
M  V30 107 H 10.5406 -1.84747 -3.41307 0
M  V30 108 H 8.6416 0.604158 -3.67669 0
M  V30 109 H 8.7546 -0.985299 -4.68859 0
M  V30 110 H 7.1186 -0.428734 -2.51066 0
M  V30 111 H 7.9016 -2.08616 -2.72643 0
M  V30 112 N 10.3467 1.47872 -0.545128 0
M  V30 113 C 11.5717 2.07391 -0.0190611 0
M  V30 114 C 11.9967 1.39688 1.25971 0
M  V30 115 O 11.3547 0.467816 1.7516 0
M  V30 116 C 11.4027 3.60188 0.172335 0
M  V30 117 O 10.5067 3.9339 1.23766 0
M  V30 118 H 9.8477 0.662411 -0.0459059 0
M  V30 119 H 12.3777 1.90066 -0.757365 0
M  V30 120 H 12.3877 4.06129 0.390305 0
M  V30 121 H 11.0627 4.08865 -0.761725 0
M  V30 122 H 9.6397 3.5921 1.00114 0
M  V30 123 N 11.8248 0.280983 1.55075 0
M  V30 124 C 12.7348 -0.61388 2.26426 0
M  V30 125 C 13.7508 -1.16521 1.29224 0
M  V30 126 O 14.9268 -1.19426 1.62171 0
M  V30 127 C 11.9918 -1.7788 2.9759 0
M  V30 128 C 11.0528 -1.26355 4.10284 0
M  V30 129 C 10.2858 -2.37295 4.78045 0
M  V30 130 O 10.5088 -3.56777 4.45047 0
M  V30 131 O 9.4428 -2.05119 5.65871 0
M  V30 132 H 13.2688 -0.0356932 3.03679 0
M  V30 133 H 10.8538 0.0481686 1.49322 0
M  V30 134 H 12.7358 -2.45791 3.42293 0
M  V30 135 H 11.4108 -2.34397 2.23249 0
M  V30 136 H 10.3178 -0.550735 3.70024 0
M  V30 137 H 11.6508 -0.744065 4.86543 0
M  V30 138 N 13.3029 -1.57598 0.00835791 0
M  V30 139 C 14.5509 -1.90551 -0.6734 0
M  V30 140 C 14.8719 -0.883301 -1.73847 0
M  V30 141 O 14.1419 0.0781442 -1.95744 0
M  V30 142 H 12.7219 -0.703312 -0.251717 0
M  V30 143 H 15.3839 -1.94833 0.0512592 0
M  V30 144 H 14.4799 -2.9056 -1.13935 0
M  V30 145 N 14.781 0.264519 -1.55364 0
M  V30 146 C 16.006 1.01726 -1.80739 0
M  V30 147 C 16.431 1.78836 -0.583044 0
M  V30 148 O 15.789 1.75167 0.467566 0
M  V30 149 C 15.837 1.94482 -3.03659 0
M  V30 150 O 14.941 3.03386 -2.7934 0
M  V30 151 H 14.282 0.290395 -0.597132 0
M  V30 152 H 16.812 0.290854 -2.02522 0
M  V30 153 H 16.822 2.36278 -3.32621 0
M  V30 154 H 15.497 1.37772 -3.92418 0
M  V30 155 H 14.074 2.65844 -2.61498 0
M  V30 156 N 16.2591 1.48442 0.529413 0
M  V30 157 C 17.1891 1.65902 1.64313 0
M  V30 158 C 18.1701 0.507897 1.6234 0
M  V30 159 O 19.3551 0.740503 1.79528 0
M  V30 160 C 16.4851 1.69911 3.02898 0
M  V30 161 C 15.4391 2.8453 3.19729 0
M  V30 162 C 14.7651 2.73629 4.59381 0
M  V30 163 C 16.0651 4.25821 3.02447 0
M  V30 164 H 17.7591 2.5914 1.49955 0
M  V30 165 H 15.3051 1.24709 0.719982 0
M  V30 166 H 17.2581 1.80715 3.80684 0
M  V30 167 H 15.9821 0.732524 3.18279 0
M  V30 168 H 14.6411 2.73283 2.44361 0
M  V30 169 H 14.2891 1.74938 4.71599 0
M  V30 170 H 13.9891 3.50541 4.71588 0
M  V30 171 H 15.5131 2.86401 5.39265 0
M  V30 172 H 16.9271 4.37898 3.70024 0
M  V30 173 H 15.3241 5.03735 3.26146 0
M  V30 174 H 16.3941 4.42244 1.98867 0
M  V30 175 N 17.7372 -0.778329 1.37039 0
M  V30 176 C 18.6692 -1.90034 1.2814 0
M  V30 177 C 19.6822 -1.61585 0.198558 0
M  V30 178 O 20.8712 -1.72625 0.454175 0
M  V30 179 C 17.9712 -3.25108 0.956968 0
M  V30 180 C 17.1442 -3.81253 2.14394 0
M  V30 181 C 16.2032 -4.94789 1.79082 0
M  V30 182 O 15.2292 -5.10721 2.51301 0
M  V30 183 N 16.4312 -5.75878 0.731043 0
M  V30 184 H 19.1962 -1.98186 2.24816 0
M  V30 185 H 16.7572 -0.957129 1.30578 0
M  V30 186 H 18.7492 -3.9857 0.701701 0
M  V30 187 H 17.3192 -3.125 0.0789812 0
M  V30 188 H 16.5392 -2.99647 2.56135 0
M  V30 189 H 17.8272 -4.15495 2.93668 0
M  V30 190 H 17.2252 -5.65547 0.131618 0
M  V30 191 H 15.7822 -6.49596 0.535622 0
M  V30 192 N 19.2153 -1.21501 -1.00376 0
M  V30 193 C 20.6263 -1.03146 -1.55621 0
M  V30 194 C 20.9773 0.408375 -1.91903 0
M  V30 195 O 20.1023 1.29177 -1.73616 0
M  V30 196 C 20.6973 -1.86612 -2.82775 0
M  V30 197 C 19.2563 -1.72586 -3.34501 0
M  V30 198 C 18.4033 -1.83747 -2.07683 0
M  V30 199 H 21.3543 -1.35505 -0.826081 0
M  V30 200 H 21.3753 -1.3771 -3.54706 0
M  V30 201 H 20.8873 -2.91399 -2.56336 0
M  V30 202 H 18.9883 -0.704877 -3.65872 0
M  V30 203 H 19.1013 -2.54623 -4.05837 0
M  V30 204 H 17.4653 -1.27069 -2.20739 0
M  V30 205 H 18.2483 -2.90044 -1.83655 0
M  V30 206 N 20.6934 1.19889 -1.02296 0
M  V30 207 C 21.9184 1.9393 -0.735237 0
M  V30 208 C 22.3434 1.74639 0.698782 0
M  V30 209 O 21.7014 1.04481 1.48167 0
M  V30 210 C 21.7494 3.43916 -1.08417 0
M  V30 211 O 20.8534 4.11917 -0.199446 0
M  V30 212 H 20.1944 0.605645 -0.272196 0
M  V30 213 H 22.7244 1.52137 -1.36804 0
M  V30 214 H 22.7344 3.9456 -1.03856 0
M  V30 215 H 21.4094 3.5728 -2.12894 0
M  V30 216 H 19.9864 3.71666 -0.303136 0
M  V30 217 N 22.1715 0.800033 1.35784 0
M  V30 218 C 23.3965 0.388511 2.03729 0
M  V30 219 C 23.8215 -0.990481 1.5991 0
M  V30 220 O 23.1795 -1.64013 0.772612 0
M  V30 221 C 23.2275 0.4726 3.5749 0
M  V30 222 O 22.3315 -0.51646 4.09153 0
M  V30 223 H 21.6725 0.163271 0.643614 0
M  V30 224 H 24.2025 1.0841 1.73518 0
M  V30 225 H 24.2125 0.34003 4.06581 0
M  V30 226 H 22.8875 1.47848 3.88734 0
M  V30 227 H 21.4645 -0.344673 3.71304 0
M  V30 228 N 23.6496 -1.47581 0.552962 0
M  V30 229 C 24.8986 -2.01684 0.0251995 0
M  V30 230 C 25.2116 -1.43317 -1.33115 0
M  V30 231 O 26.4176 -1.89057 -1.94858 0
M  V30 232 C 24.8736 -3.599 -0.00542052 0
M  V30 233 C 24.4816 -4.27257 1.34742 0
M  V30 234 C 26.2256 -4.21768 -0.4808 0
M  V30 235 C 24.1326 -5.77467 1.27614 0
M  V30 236 H 23.0626 -0.753979 0.00565033 0
M  V30 237 H 25.7136 -1.69616 0.70018 0
M  V30 238 H 24.0956 -3.88911 -0.745961 0
M  V30 239 H 25.2696 -4.09893 2.10534 0
M  V30 240 H 23.5846 -3.77358 1.76039 0
M  V30 241 H 26.1816 -5.31838 -0.55246 0
M  V30 242 H 26.5246 -3.88651 -1.49184 0
M  V30 243 H 27.0576 -3.97273 0.204752 0
M  V30 244 H 23.7966 -6.15196 2.26304 0
M  V30 245 H 23.3166 -5.9718 0.55996 0
M  V30 246 H 24.9956 -6.3959 0.976421 0
M  V30 247 N 25.1277 -0.289203 -1.54924 0
M  V30 248 C 26.0597 0.625583 -2.20497 0
M  V30 249 C 27.0727 1.10667 -1.19402 0
M  V30 250 O 28.2617 1.02615 -1.46056 0
M  V30 251 C 25.3617 1.86702 -2.82835 0
M  V30 252 C 24.5347 1.5304 -4.09753 0
M  V30 253 C 23.5937 2.62576 -4.56005 0
M  V30 254 O 22.6197 2.28167 -5.21468 0
M  V30 255 N 23.8217 3.92901 -4.27328 0
M  V30 256 H 26.5867 0.0642801 -2.99631 0
M  V30 257 H 24.1477 -0.110896 -1.6152 0
M  V30 258 H 26.1397 2.59304 -3.10715 0
M  V30 259 H 24.7097 2.33702 -2.07611 0
M  V30 260 H 23.9297 0.637564 -3.8901 0
M  V30 261 H 25.2177 1.28072 -4.92418 0
M  V30 262 H 24.6157 4.23671 -3.74859 0
M  V30 263 H 23.1727 4.61837 -4.59946 0
M  V30 264 N 26.6058 1.57591 -0.0167156 0
M  V30 265 C 27.8548 1.90461 0.663877 0
M  V30 266 C 28.1678 0.893515 1.73999 0
M  V30 267 O 29.3738 1.11302 2.47637 0
M  V30 268 C 27.8298 3.38155 1.23204 0
M  V30 269 C 27.4378 4.47597 0.189866 0
M  V30 270 C 29.1818 3.80111 1.88986 0
M  V30 271 C 27.0888 5.86379 0.768964 0
M  V30 272 H 26.0188 0.710738 0.251729 0
M  V30 273 H 28.6698 1.83326 -0.0799926 0
M  V30 274 H 27.0518 3.40182 2.02712 0
M  V30 275 H 28.2258 4.57112 -0.581846 0
M  V30 276 H 26.5408 4.14766 -0.368475 0
M  V30 277 H 29.1378 4.81145 2.33247 0
M  V30 278 H 29.4808 3.14511 2.72743 0
M  V30 279 H 30.0138 3.80454 1.16187 0
M  V30 280 H 26.7528 6.55493 -0.0301957 0
M  V30 281 H 26.2728 5.80496 1.50945 0
M  V30 282 H 27.9518 6.34563 1.26251 0
M  V30 283 N 28.0839 -0.256276 1.55502 0
M  V30 284 C 29.3309 -0.985619 1.76895 0
M  V30 285 C 29.6589 -1.85671 0.579355 0
M  V30 286 O 28.9139 -1.90744 -0.437651 0
M  V30 287 C 29.2129 -1.88432 3.03691 0
M  V30 288 C 28.8789 -1.16936 4.35473 0
M  V30 289 C 27.5409 -0.97173 4.71286 0
M  V30 290 C 29.8929 -0.661889 5.1698 0
M  V30 291 C 27.2209 -0.254179 5.86149 0
M  V30 292 C 29.5729 0.042149 6.32586 0
M  V30 293 C 28.2369 0.25134 6.67027 0
M  V30 294 H 27.5069 -0.360663 0.647304 0
M  V30 295 H 30.1539 -0.256483 1.89775 0
M  V30 296 H 28.4589 -2.68021 2.85783 0
M  V30 297 H 30.1559 -2.45015 3.1744 0
M  V30 298 H 26.7459 -1.33332 4.07333 0
M  V30 299 H 30.9299 -0.802145 4.89775 0
M  V30 300 H 26.1859 -0.0815408 6.11346 0
M  V30 301 H 30.3599 0.443049 6.94989 0
M  V30 302 H 27.9869 0.809314 7.5588 0
M  V30 303 N 29.562 -1.4872 -0.521534 0
M  V30 304 C 30.525 -1.63379 -1.60748 0
M  V30 305 C 31.525 -0.50661 -1.52611 0
M  V30 306 O 32.715 -0.772601 -1.5613 0
M  V30 307 C 29.847 -1.61192 -3.00383 0
M  V30 308 H 31.04 -2.60217 -1.49087 0
M  V30 309 H 28.593 -1.37444 -0.744235 0
M  V30 310 H 29.328 -0.65863 -3.17541 0
M  V30 311 H 29.113 -2.43032 -3.07698 0
M  V30 312 H 30.603 -1.7466 -3.7932 0
M  V30 313 N 31.0401 0.771051 -1.3745 0
M  V30 314 C 31.9881 1.90574 -1.33358 0
M  V30 315 C 32.9821 1.67936 -0.22224 0
M  V30 316 O 34.1881 1.75717 -0.390304 0
M  V30 317 H 30.5631 0.626714 -0.415612 0
M  V30 318 H 32.5341 1.91142 -2.29144 0
M  V30 319 C 31.2831 3.27845 -1.15813 0
M  V30 320 H 30.6061 3.45842 -2.00583 0
M  V30 321 H 32.0461 4.07538 -1.17 0
M  V30 322 C 30.5051 3.36625 0.136165 0
M  V30 323 O 31.0351 3.85785 1.11949 0
M  V30 324 N 29.2411 2.89997 0.187099 0
M  V30 325 H 28.7881 2.50182 -0.613753 0
M  V30 326 H 28.7461 2.96252 1.05272 0
M  V30 327 N 32.5182 1.22032 0.997298 0
M  V30 328 C 33.7462 1.06841 1.7718 0
M  V30 329 C 34.1612 -0.381325 1.84909 0
M  V30 330 O 33.5182 -1.26437 1.31605 0
M  V30 331 C 33.5692 1.66814 3.20711 0
M  V30 332 O 33.2902 3.06116 3.13408 0
M  V30 333 C 34.7912 1.56838 4.14628 0
M  V30 334 H 32.0112 0.374782 0.556578 0
M  V30 335 H 34.5552 1.61532 1.2541 0
M  V30 336 H 32.7102 1.16196 3.69564 0
M  V30 337 H 33.1242 3.34926 4.0364 0
M  V30 338 H 34.5982 2.03532 5.13107 0
M  V30 339 H 35.0752 0.524155 4.36061 0
M  V30 340 H 35.6812 2.06741 3.7167 0
M  V30 341 N 33.9963 -1.19345 1.0293 0
M  V30 342 C 35.2213 -1.93538 0.745511 0
M  V30 343 C 35.6463 -1.75007 -0.689511 0
M  V30 344 O 35.0043 -1.05265 -1.47611 0
M  V30 345 C 35.0523 -3.43336 1.10239 0
M  V30 346 O 34.1563 -4.11806 0.221289 0
M  V30 347 H 33.4973 -0.604193 0.275404 0
M  V30 348 H 36.0273 -1.5141 1.37609 0
M  V30 349 H 36.0373 -3.94004 1.05947 0
M  V30 350 H 34.7123 -3.56146 2.14786 0
M  V30 351 H 33.2893 -3.715 0.322842 0
M  V30 352 N 35.4744 -0.807222 -1.35358 0
M  V30 353 C 36.7024 -0.400377 -2.02989 0
M  V30 354 C 37.1174 0.988859 -1.60832 0
M  V30 355 O 36.4744 1.63729 -0.806175 0
M  V30 356 C 36.5254 -0.474867 -3.58368 0
M  V30 357 O 36.2464 -1.80933 -3.98992 0
M  V30 358 C 37.7474 -0.0609112 -4.43258 0
M  V30 359 H 34.9674 -0.162587 -0.651004 0
M  V30 360 H 37.5114 -1.09102 -1.72965 0
M  V30 361 H 35.6664 0.167534 -3.87038 0
M  V30 362 H 36.0804 -1.77256 -4.9364 0
M  V30 363 H 37.5544 -0.164145 -5.51756 0
M  V30 364 H 38.0314 0.993831 -4.27808 0
M  V30 365 H 38.6374 -0.676492 -4.19885 0
M  V30 366 N 36.9525 1.47285 -0.560781 0
M  V30 367 C 37.8825 2.32857 0.173105 0
M  V30 368 C 38.8635 1.44009 0.905281 0
M  V30 369 O 40.0485 1.7286 0.885046 0
M  V30 370 C 37.1785 3.25861 1.20133 0
M  V30 371 C 36.1325 4.23978 0.585388 0
M  V30 372 C 35.4585 5.06332 1.7185 0
M  V30 373 C 36.7585 5.20242 -0.463178 0
M  V30 374 H 38.4525 2.94466 -0.541307 0
M  V30 375 H 35.9985 1.41601 -0.261764 0
M  V30 376 H 37.9515 3.84569 1.72293 0
M  V30 377 H 36.6755 2.62315 1.94573 0
M  V30 378 H 35.3345 3.66501 0.085054 0
M  V30 379 H 34.9825 4.39186 2.45203 0
M  V30 380 H 34.6825 5.72762 1.31213 0
M  V30 381 H 36.2065 5.67899 2.24329 0
M  V30 382 H 37.6205 5.73293 -0.027502 0
M  V30 383 H 36.0175 5.94896 -0.788627 0
M  V30 384 H 37.0875 4.65504 -1.35773 0
M  V30 385 N 38.4306 0.297415 1.54768 0
M  V30 386 C 39.3806 -0.595275 2.20092 0
M  V30 387 C 40.3646 -1.10163 1.17273 0
M  V30 388 O 41.5566 -1.043 1.43006 0
M  V30 389 C 38.6856 -1.7684 2.94249 0
M  V30 390 C 37.7716 -1.27818 4.0438 0
M  V30 391 N 38.1626 -0.505695 5.03266 0
M  V30 392 C 36.4606 -1.55923 4.17857 0
M  V30 393 C 37.1616 -0.245094 5.81183 0
M  V30 394 N 36.1376 -0.823881 5.3732 0
M  V30 395 H 39.9396 0.00250837 2.939 0
M  V30 396 H 37.4536 0.102007 1.62079 0
M  V30 397 H 39.4506 -2.41944 3.39513 0
M  V30 398 H 38.1106 -2.36992 2.21957 0
M  V30 399 H 39.1216 -0.150928 5.1768 0
M  V30 400 H 35.7986 -2.16849 3.56767 0
M  V30 401 H 37.1886 0.375084 6.70852 0
M  V30 402 N 39.9087 -1.5758 0.0250728 0
M  V30 403 C 41.1567 -1.91255 -0.653151 0
M  V30 404 C 41.4777 -0.901691 -1.729 0
M  V30 405 O 40.7477 0.0573785 -1.95816 0
M  V30 406 H 39.3277 -0.705942 -0.244243 0
M  V30 407 H 41.9897 -1.94767 0.0719209 0
M  V30 408 H 41.0857 -2.91752 -1.10847 0
M  V30 409 N 41.3868 0.248026 -1.55636 0
M  V30 410 C 42.6358 0.974134 -1.76617 0
M  V30 411 C 42.9488 1.86528 -0.588796 0
M  V30 412 O 44.1548 2.62805 -0.681594 0
M  V30 413 C 42.6108 1.78213 -3.12679 0
M  V30 414 C 42.2188 0.93843 -4.38061 0
M  V30 415 C 43.9628 2.50104 -3.42999 0
M  V30 416 C 41.8698 1.74225 -5.65155 0
M  V30 417 H 40.7998 0.36745 -0.658405 0
M  V30 418 H 43.4508 0.22884 -1.82067 0
M  V30 419 H 41.8328 2.56933 -3.01333 0
M  V30 420 H 43.0068 0.193635 -4.60393 0
M  V30 421 H 41.3218 0.332905 -4.15067 0
M  V30 422 H 43.9188 3.10694 -4.3517 0
M  V30 423 H 44.2618 3.21662 -2.64271 0
M  V30 424 H 44.7948 1.78395 -3.55556 0
M  V30 425 H 41.5338 1.07043 -6.46701 0
M  V30 426 H 41.0538 2.46235 -5.46926 0
M  V30 427 H 42.7328 2.30967 -6.0437 0
M  V30 428 N 42.8649 1.48995 0.513639 0
M  V30 429 C 44.2809 1.35478 0.843682 0
M  V30 430 C 44.4809 0.378213 1.97919 0
M  V30 431 O 43.5369 -0.194689 2.51748 0
M  V30 432 C 44.8499 2.75901 1.1958 0
M  V30 433 C 46.3979 2.84509 1.30474 0
M  V30 434 C 46.8729 4.25671 1.69021 0
M  V30 435 N 48.3639 4.28422 1.76094 0
M  V30 436 C 49.0989 5.34601 2.07338 0
M  V30 437 N 48.5949 6.5104 2.36894 0
M  V30 438 N 50.3879 5.22007 2.08483 0
M  V30 439 H 42.5389 2.11092 -0.235328 0
M  V30 440 H 44.8019 0.947039 -0.0426669 0
M  V30 441 H 44.5079 3.49001 0.434913 0
M  V30 442 H 44.3819 3.10467 2.1422 0
M  V30 443 H 46.7689 2.11655 2.05637 0
M  V30 444 H 46.8499 2.53542 0.339155 0
M  V30 445 H 46.4939 4.99048 0.944135 0
M  V30 446 H 46.4239 4.54094 2.66658 0
M  V30 447 H 48.9149 3.44441 1.55464 0
M  V30 448 H 49.2279 7.2779 2.59887 0
M  V30 449 H 47.5729 6.54287 2.34378 0
M  V30 450 H 50.7639 4.30051 1.84861 0
M  V30 451 H 50.9369 6.04854 2.325 0
M  V30 452 N 44.343 -0.763751 1.37857 0
M  V30 453 C 45.293 -1.86765 1.30777 0
M  V30 454 C 46.277 -1.59726 0.194015 0
M  V30 455 O 47.469 -1.7172 0.42911 0
M  V30 456 C 44.598 -3.24343 1.12502 0
M  V30 457 C 43.684 -3.57307 2.28456 0
M  V30 458 N 44.075 -3.61398 3.53871 0
M  V30 459 C 42.373 -3.87517 2.20786 0
M  V30 460 C 43.074 -3.91339 4.30382 0
M  V30 461 N 42.05 -4.07649 3.59615 0
M  V30 462 H 45.852 -1.88191 2.25746 0
M  V30 463 H 43.366 -0.9606 1.30944 0
M  V30 464 H 45.363 -4.03327 1.05514 0
M  V30 465 H 44.023 -3.24175 0.184574 0
M  V30 466 H 45.034 -3.43407 3.87675 0
M  V30 467 H 41.711 -3.95125 1.34844 0
M  V30 468 H 43.101 -4.01213 5.3896 0
M  V30 469 N 45.8211 -1.22559 -0.990812 0
M  V30 470 C 47.0701 -1.04553 -1.72486 0
M  V30 471 C 47.3831 0.419349 -1.91052 0
M  V30 472 O 48.5891 0.719121 -2.61803 0
M  V30 473 C 47.0451 -1.82231 -3.10355 0
M  V30 474 C 46.6531 -3.32981 -2.99713 0
M  V30 475 C 48.3971 -1.7268 -3.87791 0
M  V30 476 C 46.3041 -4.03091 -4.32748 0
M  V30 477 H 45.2341 -0.387614 -0.646739 0
M  V30 478 H 47.8851 -1.46429 -1.10593 0
M  V30 479 H 46.2671 -1.33155 -3.72942 0
M  V30 480 H 47.4411 -3.89466 -2.46278 0
M  V30 481 H 45.7561 -3.43231 -2.35758 0
M  V30 482 H 48.3531 -2.22381 -4.86262 0
M  V30 483 H 48.6961 -0.687607 -4.10582 0
M  V30 484 H 49.2291 -2.1931 -3.31885 0
M  V30 485 H 45.9681 -5.07273 -4.15156 0
M  V30 486 H 45.4881 -3.51394 -4.86089 0
M  V30 487 H 47.1671 -4.08804 -5.01486 0
M  V30 488 N 47.2992 1.18797 -1.03562 0
M  V30 489 C 48.5462 1.8865 -0.736023 0
M  V30 490 C 48.8742 1.80041 0.735889 0
M  V30 491 O 48.1292 1.19179 1.55225 0
M  V30 492 C 48.4282 3.38692 -1.14117 0
M  V30 493 C 48.0942 3.67504 -2.6125 0
M  V30 494 C 46.7562 3.75078 -3.01447 0
M  V30 495 C 49.1082 3.80293 -3.56408 0
M  V30 496 C 46.4362 3.92915 -4.35701 0
M  V30 497 C 48.7882 3.99645 -4.90374 0
M  V30 498 C 47.4522 4.05453 -5.30249 0
M  V30 499 H 46.7222 0.690321 -0.26933 0
M  V30 500 H 49.3692 1.40641 -1.29971 0
M  V30 501 H 47.6742 3.88645 -0.496202 0
M  V30 502 H 49.3712 3.91072 -0.886789 0
M  V30 503 H 45.9612 3.62223 -2.29113 0
M  V30 504 H 50.1452 3.73779 -3.26501 0
M  V30 505 H 45.4012 3.95653 -4.66121 0
M  V30 506 H 49.5752 4.08482 -5.64017 0
M  V30 507 H 47.2022 4.19027 -6.34288 0
M  V30 508 N 48.7773 0.814389 1.34928 0
M  V30 509 C 50.0233 0.399013 1.98836 0
M  V30 510 C 50.3563 -1.03314 1.64438 0
M  V30 511 O 49.6313 -1.71811 0.911659 0
M  V30 512 C 49.9143 0.591629 3.55207 0
M  V30 513 C 49.7673 2.06928 3.99376 0
M  V30 514 C 51.0863 0.022199 4.40094 0
M  V30 515 H 48.2053 0.146451 0.722303 0
M  V30 516 H 50.8473 1.02537 1.59957 0
M  V30 517 H 48.9973 0.0584441 3.88456 0
M  V30 518 H 50.6693 2.66544 3.76499 0
M  V30 519 H 48.9123 2.56287 3.49999 0
M  V30 520 H 49.5833 2.1549 5.08201 0
M  V30 521 H 52.0593 0.477643 4.13349 0
M  V30 522 H 50.9353 0.186832 5.48582 0
M  V30 523 H 51.1963 -1.07215 4.28902 0
M  V30 524 N 50.2554 -1.46986 0.568584 0
M  V30 525 C 51.4854 -2.0653 0.0539173 0
M  V30 526 C 51.8934 -1.42004 -1.25026 0
M  V30 527 O 51.2364 -0.514541 -1.76347 0
M  V30 528 C 51.2984 -3.58938 -0.200854 0
M  V30 529 C 50.9624 -4.45572 1.01559 0
M  V30 530 C 51.9594 -4.82986 1.92407 0
M  V30 531 C 49.6444 -4.8692 1.23346 0
M  V30 532 C 51.6384 -5.60559 3.03402 0
M  V30 533 C 49.3254 -5.64255 2.34649 0
M  V30 534 C 50.3234 -6.00986 3.24507 0
M  V30 535 O 50.0114 -6.76761 4.33878 0
M  V30 536 H 49.7434 -0.674292 0.0480234 0
M  V30 537 H 52.2974 -1.89812 0.784896 0
M  V30 538 H 50.5274 -3.73911 -0.986279 0
M  V30 539 H 52.2164 -4.0046 -0.662294 0
M  V30 540 H 52.9824 -4.51633 1.76785 0
M  V30 541 H 48.8614 -4.57789 0.543178 0
M  V30 542 H 52.4054 -5.89147 3.73565 0
M  V30 543 H 48.3024 -5.95021 2.5024 0
M  V30 544 H 49.0704 -6.95168 4.32068 0
M  V30 545 N 51.7335 -0.305618 -1.54608 0
M  V30 546 C 52.9815 0.301701 -1.99835 0
M  V30 547 C 53.3025 1.54054 -1.19551 0
M  V30 548 O 52.5725 1.93702 -0.292658 0
M  V30 549 H 51.1525 0.114468 -0.738178 0
M  V30 550 H 53.8145 -0.418016 -1.90364 0
M  V30 551 H 52.9105 0.570548 -3.06841 0
M  V30 552 N 53.2116 1.57565 -0.0334293 0
M  V30 553 C 54.6226 1.79746 0.504798 0
M  V30 554 C 54.9736 0.944091 1.71992 0
M  V30 555 O 54.0986 0.155694 2.15839 0
M  V30 556 C 54.6936 3.25997 0.922567 0
M  V30 557 C 53.2526 3.49159 1.40588 0
M  V30 558 C 52.3996 2.74785 0.372633 0
M  V30 559 H 55.3506 1.56565 -0.259436 0
M  V30 560 H 55.3716 3.35945 1.78666 0
M  V30 561 H 54.8836 3.88081 0.0379825 0
M  V30 562 H 52.9846 2.92332 2.31025 0
M  V30 563 H 53.0976 4.57873 1.41028 0
M  V30 564 H 51.4616 2.40391 0.841672 0
M  V30 565 H 52.2446 3.39587 -0.503559 0
M  V30 566 N 54.6897 -0.239769 1.55765 0
M  V30 567 C 55.6197 -1.30052 1.9393 0
M  V30 568 C 56.6007 -1.49839 0.805132 0
M  V30 569 O 57.7857 -1.62328 1.06599 0
M  V30 570 C 54.9157 -2.65391 2.2402 0
M  V30 571 C 53.8697 -2.60289 3.39755 0
M  V30 572 C 53.1957 -3.99489 3.55405 0
M  V30 573 C 54.4957 -2.16654 4.75246 0
M  V30 574 H 56.1897 -0.983573 2.82783 0
M  V30 575 H 53.7357 -0.471701 1.36055 0
M  V30 576 H 55.6887 -3.3974 2.49308 0
M  V30 577 H 54.4127 -2.98736 1.32 0
M  V30 578 H 53.0717 -1.88398 3.14487 0
M  V30 579 H 52.7197 -4.30112 2.60793 0
M  V30 580 H 52.4197 -3.96962 4.33238 0
M  V30 581 H 53.9437 -4.75528 3.83022 0
M  V30 582 H 55.3577 -2.80737 4.99859 0
M  V30 583 H 53.7547 -2.25223 5.56232 0
M  V30 584 H 54.8247 -1.11835 4.71827 0
M  V30 585 N 56.1678 -1.49265 -0.50573 0
M  V30 586 C 57.3958 -1.62215 -1.28429 0
M  V30 587 C 57.8108 -0.291697 -1.86533 0
M  V30 588 O 57.1678 0.722233 -1.67601 0
M  V30 589 C 57.2188 -2.68735 -2.41793 0
M  V30 590 O 56.9398 -3.96619 -1.86078 0
M  V30 591 C 58.4408 -2.92346 -3.3324 0
M  V30 592 H 55.6608 -0.546239 -0.389697 0
M  V30 593 H 58.2048 -1.95265 -0.607609 0
M  V30 594 H 56.3598 -2.38476 -3.053 0
M  V30 595 H 56.7738 -4.55256 -2.60465 0
M  V30 596 H 58.2478 -3.70623 -4.09075 0
M  V30 597 H 58.7248 -2.02081 -3.89948 0
M  V30 598 H 59.3308 -3.24003 -2.75503 0
M  V30 599 N 57.6459 0.756429 -1.3826 0
M  V30 600 C 58.8949 1.51082 -1.3363 0
M  V30 601 C 59.2079 1.95467 0.0720068 0
M  V30 602 O 60.4139 2.7043 0.240834 0
M  V30 603 C 58.8699 2.72893 -2.34644 0
M  V30 604 C 58.4779 2.35544 -3.81081 0
M  V30 605 C 60.2219 3.50791 -2.39052 0
M  V30 606 C 58.1289 3.53948 -4.73787 0
M  V30 607 H 57.0589 0.56727 -0.49671 0
M  V30 608 H 59.7099 0.827147 -1.638 0
M  V30 609 H 58.0919 3.43227 -1.97513 0
M  V30 610 H 59.2659 1.72894 -4.27135 0
M  V30 611 H 57.5809 1.70786 -3.79764 0
M  V30 612 H 60.1779 4.38823 -3.05513 0
M  V30 613 H 60.5209 3.91745 -1.40861 0
M  V30 614 H 61.0539 2.87467 -2.74968 0
M  V30 615 H 57.7929 3.18064 -5.73163 0
M  V30 616 H 57.3129 4.15651 -4.32428 0
M  V30 617 H 58.9919 4.20566 -4.91663 0
M  V30 618 N 59.124 1.23083 0.984299 0
M  V30 619 C 60.54 0.992637 1.24975 0
M  V30 620 C 60.74 -0.308618 1.99123 0
M  V30 621 O 59.796 -1.02905 2.30579 0
M  V30 622 C 61.109 2.19698 2.05312 0
M  V30 623 C 62.657 2.24147 2.18465 0
M  V30 624 C 63.132 3.44157 3.02192 0
M  V30 625 N 64.623 3.44372 3.09777 0
M  V30 626 C 65.358 4.33886 3.74874 0
M  V30 627 N 64.854 5.3363 4.41827 0
M  V30 628 N 66.647 4.21639 3.71721 0
M  V30 629 H 58.798 2.06731 0.487453 0
M  V30 630 H 61.061 0.906339 0.277944 0
M  V30 631 H 60.767 3.1411 1.58201 0
M  V30 632 H 60.641 2.20465 3.06064 0
M  V30 633 H 63.028 1.30277 2.64786 0
M  V30 634 H 63.109 2.27415 1.17115 0
M  V30 635 H 62.753 4.38332 2.56568 0
M  V30 636 H 62.683 3.3813 4.03702 0
M  V30 637 H 65.174 2.72201 2.62135 0
M  V30 638 H 65.487 5.98196 4.89266 0
M  V30 639 H 63.832 5.37534 4.40548 0
M  V30 640 H 67.023 3.42962 3.18582 0
M  V30 641 H 67.196 4.91604 4.22173 0
M  V30 642 N 60.6021 -1.18246 1.0419 0
M  V30 643 C 62.0181 -1.40269 0.761366 0
M  V30 644 C 62.2181 -1.90777 -0.648578 0
M  V30 645 O 61.2741 -2.0929 -1.41258 0
M  V30 646 C 62.5871 -2.40237 1.8085 0
M  V30 647 C 64.1351 -2.53961 1.82955 0
M  V30 648 C 64.6101 -3.57194 2.86664 0
M  V30 649 N 66.1011 -3.64702 2.85563 0
M  V30 650 C 66.8361 -4.44309 3.6246 0
M  V30 651 N 66.3321 -5.27514 4.49111 0
M  V30 652 N 68.1251 -4.39084 3.50944 0
M  V30 653 H 60.2761 -0.837882 1.95175 0
M  V30 654 H 62.5391 -0.430608 0.84456 0
M  V30 655 H 62.2451 -2.10176 2.81991 0
M  V30 656 H 62.1191 -3.39601 1.64168 0
M  V30 657 H 64.5061 -2.83338 0.824855 0
M  V30 658 H 64.5871 -1.54706 2.03715 0
M  V30 659 H 64.2311 -3.28558 3.87314 0
M  V30 660 H 64.1611 -4.5613 2.6316 0
M  V30 661 H 66.6521 -3.05289 2.22727 0
M  V30 662 H 66.9651 -5.85411 5.04493 0
M  V30 663 H 65.3101 -5.2693 4.53178 0
M  V30 664 H 68.5011 -3.7313 2.82651 0
M  V30 665 H 68.6741 -5.00883 4.11121 0
M  V30 666 N 62.0802 -0.821533 -1.34494 0
M  V30 667 C 63.3262 -0.409552 -1.98622 0
M  V30 668 C 63.6592 1.0244 -1.64984 0
M  V30 669 O 62.9342 1.71325 -0.920758 0
M  V30 670 C 63.2172 -0.610458 -3.54888 0
M  V30 671 C 63.0702 -2.09043 -3.98273 0
M  V30 672 C 64.3892 -0.0455379 -4.40076 0
M  V30 673 H 61.5082 -0.15028 -0.721516 0
M  V30 674 H 64.1502 -1.03384 -1.59411 0
M  V30 675 H 62.3002 -0.079044 -3.8842 0
M  V30 676 H 63.9722 -2.68537 -3.75081 0
M  V30 677 H 62.2152 -2.58139 -3.48635 0
M  V30 678 H 62.8862 -2.18182 -5.07051 0
M  V30 679 H 65.3622 -0.499557 -4.1309 0
M  V30 680 H 64.2382 -0.215922 -5.48475 0
M  V30 681 H 64.4992 1.04939 -4.29465 0
M  V30 682 N 63.5583 1.46682 -0.576371 0
M  V30 683 C 64.4883 2.33028 0.148397 0
M  V30 684 C 65.4693 1.44961 0.889956 0
M  V30 685 O 66.6543 1.73789 0.866662 0
M  V30 686 C 63.7843 3.27117 1.1667 0
M  V30 687 C 62.7383 4.24575 0.540386 0
M  V30 688 C 62.0643 5.08126 1.6647 0
M  V30 689 C 63.3643 5.19722 -0.518331 0
M  V30 690 H 65.0583 2.93875 -0.572509 0
M  V30 691 H 62.6043 1.41315 -0.276768 0
M  V30 692 H 64.5573 3.86374 1.68204 0
M  V30 693 H 63.2813 2.64364 1.9178 0
M  V30 694 H 61.9403 3.66571 0.0461769 0
M  V30 695 H 61.5883 4.41762 2.40531 0
M  V30 696 H 61.2883 5.74122 1.25131 0
M  V30 697 H 62.8123 5.70246 2.18293 0
M  V30 698 H 64.2263 5.73232 -0.0883058 0
M  V30 699 H 62.6233 5.94026 -0.851679 0
M  V30 700 H 63.6933 4.64037 -1.40703 0
M  V30 701 N 65.0364 0.313813 1.54444 0
M  V30 702 C 66.2824 -0.284918 2.01395 0
M  V30 703 C 66.6374 -1.50537 1.19818 0
M  V30 704 O 65.9304 -1.89692 0.269748 0
M  V30 705 C 66.1244 -0.680386 3.50864 0
M  V30 706 C 65.9534 0.500198 4.4691 0
M  V30 707 C 64.7234 0.996248 4.95382 0
M  V30 708 C 66.9214 1.34928 4.96285 0
M  V30 709 N 64.9034 2.14226 5.75309 0
M  V30 710 C 66.2744 2.3426 5.7404 0
M  V30 711 C 68.3294 1.37818 4.78446 0
M  V30 712 C 67.0324 3.36272 6.35856 0
M  V30 713 C 69.0584 2.38695 5.4109 0
M  V30 714 C 68.4204 3.36755 6.18688 0
M  V30 715 H 64.5194 -0.0683689 0.779006 0
M  V30 716 H 67.1034 0.44664 1.89508 0
M  V30 717 H 65.2744 -1.38109 3.63016 0
M  V30 718 H 67.0064 -1.25975 3.84594 0
M  V30 719 H 63.7614 0.56912 4.70168 0
M  V30 720 H 64.1854 2.72005 6.19953 0
M  V30 721 H 68.8274 0.633747 4.18023 0
M  V30 722 H 66.5454 4.11627 6.95405 0
M  V30 723 H 70.1314 2.41721 5.29209 0
M  V30 724 H 69.0114 4.13535 6.66302 0
M  V30 725 N 66.5145 -1.57545 0.0417849 0
M  V30 726 C 67.4775 -2.09885 -0.92093 0
M  V30 727 C 68.4775 -1.01648 -1.24596 0
M  V30 728 O 69.6675 -1.27759 -1.1842 0
M  V30 729 C 66.7995 -2.57527 -2.23367 0
M  V30 730 H 67.9925 -2.96236 -0.467382 0
M  V30 731 H 65.5455 -1.5493 -0.206467 0
M  V30 732 H 66.2805 -1.74542 -2.73323 0
M  V30 733 H 66.0655 -3.36613 -2.01083 0
M  V30 734 H 67.5555 -2.98201 -2.92346 0
M  V30 735 N 67.9926 0.231505 -1.5589 0
M  V30 736 C 69.2386 0.95877 -1.78705 0
M  V30 737 C 69.5716 1.8438 -0.609725 0
M  V30 738 O 68.8466 1.90521 0.391426 0
M  V30 739 C 69.1296 1.8062 -3.11526 0
M  V30 740 C 68.9826 0.948328 -4.39689 0
M  V30 741 C 70.3016 2.78585 -3.40703 0
M  V30 742 H 67.4206 0.347129 -0.650131 0
M  V30 743 H 70.0626 0.228259 -1.88624 0
M  V30 744 H 68.2126 2.42902 -3.03201 0
M  V30 745 H 69.8846 0.343016 -4.60023 0
M  V30 746 H 68.1276 0.253314 -4.3306 0
M  V30 747 H 68.7986 1.57543 -5.29041 0
M  V30 748 H 71.2746 2.26439 -3.49091 0
M  V30 749 H 70.1506 3.34988 -4.34826 0
M  V30 750 H 70.4116 3.55825 -2.62375 0
M  V30 751 N 69.4707 1.49531 0.497807 0
M  V30 752 C 70.4337 1.65916 1.58128 0
M  V30 753 C 71.4337 0.530825 1.51786 0
M  V30 754 O 72.6237 0.797342 1.54881 0
M  V30 755 C 69.7557 1.65951 2.9778 0
M  V30 756 H 70.9487 2.62556 1.44929 0
M  V30 757 H 68.5017 1.38611 0.722275 0
M  V30 758 H 69.2367 0.709065 3.16453 0
M  V30 759 H 69.0217 2.47897 3.03792 0
M  V30 760 H 70.5117 1.80673 3.76493 0
M  V30 761 N 70.9488 -0.749086 1.3866 0
M  V30 762 C 72.1958 -1.50833 1.35114 0
M  V30 763 C 72.5238 -1.94415 -0.0574049 0
M  V30 764 O 71.7788 -1.66065 -1.03541 0
M  V30 765 C 72.0778 -2.7712 2.25697 0
M  V30 766 C 71.7438 -2.52477 3.73585 0
M  V30 767 C 70.4058 -2.45466 4.13884 0
M  V30 768 C 72.7578 -2.31066 4.67181 0
M  V30 769 C 70.0858 -2.15064 5.45861 0
M  V30 770 C 72.4378 -2.02183 5.9942 0
M  V30 771 C 71.1018 -1.93631 6.38798 0
M  V30 772 H 70.3718 -0.551936 0.494416 0
M  V30 773 H 73.0188 -0.860979 1.71054 0
M  V30 774 H 71.3238 -3.46528 1.82827 0
M  V30 775 H 73.0208 -3.35096 2.20254 0
M  V30 776 H 69.6108 -2.58807 3.41638 0
M  V30 777 H 73.7948 -2.35459 4.3689 0
M  V30 778 H 69.0508 -2.06954 5.75308 0
M  V30 779 H 73.2248 -1.8462 6.71482 0
M  V30 780 H 70.8518 -1.69839 7.40985 0
M  V30 781 N 72.4269 -1.23603 -0.977757 0
M  V30 782 C 73.6729 -1.07129 -1.72195 0
M  V30 783 C 74.0059 0.390501 -1.90233 0
M  V30 784 O 73.2809 1.28902 -1.45653 0
M  V30 785 C 73.5639 -1.80031 -3.11867 0
M  V30 786 C 73.4169 -3.33899 -3.01383 0
M  V30 787 C 74.7359 -1.56492 -4.11337 0
M  V30 788 H 71.8549 -0.390571 -0.624999 0
M  V30 789 H 74.4969 -1.52142 -1.13811 0
M  V30 790 H 72.6469 -1.41768 -3.6171 0
M  V30 791 H 74.3189 -3.81699 -2.59043 0
M  V30 792 H 72.5619 -3.62796 -2.37827 0
M  V30 793 H 73.2329 -3.801 -4.00285 0
M  V30 794 H 75.7089 -1.89757 -3.70313 0
M  V30 795 H 74.5849 -2.09973 -5.07151 0
M  V30 796 H 74.8459 -0.500874 -4.39254 0
M  V30 797 N 73.905 1.17692 -1.04816 0
M  V30 798 C 75.153 1.87488 -0.754497 0
M  V30 799 C 75.474 1.81205 0.720407 0
M  V30 800 O 74.744 1.23544 1.52032 0
M  V30 801 H 73.324 0.694101 -0.276102 0
M  V30 802 H 75.986 1.42793 -1.32651 0
M  V30 803 H 75.082 2.93328 -1.06606 0
M  V30 804 N 75.3831 0.828654 1.34056 0
M  V30 805 C 76.6081 0.431637 2.02859 0
M  V30 806 C 77.0331 -0.956339 1.61975 0
M  V30 807 O 76.3911 -1.62338 0.807228 0
M  V30 808 C 76.4391 0.548323 3.56407 0
M  V30 809 O 75.5431 -0.429556 4.10157 0
M  V30 810 H 74.8841 0.176886 0.640006 0
M  V30 811 H 77.4141 1.12066 1.71179 0
M  V30 812 H 77.4241 0.426196 4.05768 0
M  V30 813 H 76.0991 1.5606 3.8551 0
M  V30 814 H 74.6761 -0.265836 3.71951 0
M  V30 815 N 76.8612 -1.46375 0.584142 0
M  V30 816 C 77.7912 -2.33103 -0.136037 0
M  V30 817 C 78.7722 -1.45431 -0.882255 0
M  V30 818 O 79.9572 -1.74246 -0.857434 0
M  V30 819 C 77.0872 -3.27731 -1.14933 0
M  V30 820 C 76.0412 -4.24855 -0.517862 0
M  V30 821 C 75.3672 -5.09001 -1.63773 0
M  V30 822 C 76.6672 -5.19439 0.545886 0
M  V30 823 H 78.3612 -2.93568 0.588086 0
M  V30 824 H 75.9072 -1.41166 0.284259 0
M  V30 825 H 77.8602 -3.87261 -1.66153 0
M  V30 826 H 76.5842 -2.65377 -1.90375 0
M  V30 827 H 75.2432 -3.6659 -0.0267361 0
M  V30 828 H 74.8912 -4.43031 -2.38185 0
M  V30 829 H 74.5912 -5.74777 -1.22085 0
M  V30 830 H 76.1152 -5.71396 -2.15266 0
M  V30 831 H 77.5292 -5.73177 0.118704 0
M  V30 832 H 75.9262 -5.93566 0.88317 0
M  V30 833 H 76.9962 -4.63285 1.43162 0
M  V30 834 N 78.3393 -0.321999 -1.54275 0
M  V30 835 C 79.5873 0.280489 -2.00144 0
M  V30 836 C 79.9083 1.52777 -1.21178 0
M  V30 837 O 79.1783 1.9338 -0.313187 0
M  V30 838 H 77.7583 0.106632 -0.73935 0
M  V30 839 H 80.4203 -0.438184 -1.8991 0
M  V30 840 H 79.5163 0.537972 -3.07428 0
M  V30 841 N 79.8174 1.5752 -0.0501392 0
M  V30 842 C 80.7474 2.14502 0.922566 0
M  V30 843 C 81.7284 1.06642 1.3252 0
M  V30 844 O 82.9134 1.34577 1.4001 0
M  V30 845 C 80.0434 2.68916 2.19776 0
M  V30 846 C 78.9974 3.8175 1.93523 0
M  V30 847 C 78.3234 4.22677 3.27487 0
M  V30 848 C 79.6234 5.06932 1.25765 0
M  V30 849 H 81.3174 2.9603 0.447952 0
M  V30 850 H 78.8634 1.42401 0.214024 0
M  V30 851 H 80.8164 3.07419 2.88222 0
M  V30 852 H 79.5404 1.84578 2.69441 0
M  V30 853 H 78.1994 3.43718 1.27489 0
M  V30 854 H 77.8474 3.35291 3.74952 0
M  V30 855 H 77.5474 4.98725 3.1072 0
M  V30 856 H 79.0714 4.63779 3.97166 0
M  V30 857 H 80.4854 5.42888 1.84244 0
M  V30 858 H 78.8824 5.88116 1.19328 0
M  V30 859 H 79.9524 4.84337 0.233536 0
M  V30 860 N 81.2955 -0.223234 1.56011 0
M  V30 861 C 82.2255 -1.27988 1.95298 0
M  V30 862 C 83.2065 -1.48976 0.820979 0
M  V30 863 O 84.3915 -1.61188 1.08315 0
M  V30 864 C 81.5215 -2.63 2.26822 0
M  V30 865 C 80.4755 -2.56671 3.42497 0
M  V30 866 C 79.8015 -3.95697 3.59622 0
M  V30 867 C 81.1015 -2.11601 4.77517 0
M  V30 868 H 82.7955 -0.953525 2.8381 0
M  V30 869 H 80.3415 -0.457244 1.36548 0
M  V30 870 H 82.2945 -3.37077 2.52898 0
M  V30 871 H 81.0185 -2.9732 1.35161 0
M  V30 872 H 79.6775 -1.85051 3.16467 0
M  V30 873 H 79.3255 -4.27322 2.6534 0
M  V30 874 H 79.0255 -3.92345 4.37424 0
M  V30 875 H 80.5495 -4.71438 3.88044 0
M  V30 876 H 81.9635 -2.7542 5.02809 0
M  V30 877 H 80.3605 -2.19311 5.5859 0
M  V30 878 H 81.4305 -1.06824 4.72987 0
M  V30 879 N 82.7736 -1.49793 -0.48987 0
M  V30 880 C 83.7036 -1.70201 -1.59856 0
M  V30 881 C 84.6846 -0.55076 -1.60937 0
M  V30 882 O 85.8696 -0.787841 -1.77501 0
M  V30 883 C 82.9996 -1.77882 -2.98287 0
M  V30 884 C 81.9536 -2.92907 -3.12073 0
M  V30 885 C 81.2796 -2.85712 -4.51965 0
M  V30 886 C 82.5796 -4.3369 -2.91051 0
M  V30 887 H 84.2736 -2.63025 -1.43032 0
M  V30 888 H 81.8196 -1.26574 -0.686664 0
M  V30 889 H 83.7726 -1.90744 -3.75759 0
M  V30 890 H 82.4966 -0.816653 -3.16225 0
M  V30 891 H 81.1556 -2.79665 -2.37029 0
M  V30 892 H 80.8036 -1.8738 -4.66795 0
M  V30 893 H 80.5036 -3.62921 -4.62128 0
M  V30 894 H 82.0276 -3.00598 -5.31482 0
M  V30 895 H 83.4416 -4.47555 -3.58284 0
M  V30 896 H 81.8386 -5.12205 -3.12675 0
M  V30 897 H 82.9086 -4.47362 -1.87071 0
M  V30 898 N 84.2517 0.741722 -1.39055 0
M  V30 899 C 85.4977 1.50336 -1.36113 0
M  V30 900 C 85.8307 1.94148 0.0450796 0
M  V30 901 O 85.1057 1.66301 1.00868 0
M  V30 902 C 85.3887 2.74773 -2.32749 0
M  V30 903 C 85.2417 2.37023 -3.82283 0
M  V30 904 C 86.5607 3.76846 -2.27322 0
M  V30 905 H 83.6797 0.545351 -0.495743 0
M  V30 906 H 86.3217 0.848624 -1.69995 0
M  V30 907 H 84.4717 3.30639 -2.03986 0
M  V30 908 H 86.1437 1.8684 -4.21768 0
M  V30 909 H 84.3867 1.69334 -3.99385 0
M  V30 910 H 85.0577 3.26104 -4.45376 0
M  V30 911 H 87.5337 3.30548 -2.5274 0
M  V30 912 H 86.4097 4.6159 -2.97028 0
M  V30 913 H 86.6707 4.23286 -1.27599 0
M  V30 914 N 85.7298 1.2412 0.971189 0
M  V30 915 C 86.6398 1.04747 2.09917 0
M  V30 916 C 87.6558 -0.0107162 1.73997 0
M  V30 917 O 88.8318 0.186714 2.00533 0
M  V30 918 C 85.8968 0.650828 3.40537 0
M  V30 919 C 84.9578 1.7851 3.90426 0
M  V30 920 C 84.1908 1.40729 5.14812 0
M  V30 921 O 84.4138 0.29557 5.69634 0
M  V30 922 O 83.3478 2.23168 5.58999 0
M  V30 923 H 87.1738 1.99304 2.29154 0
M  V30 924 H 84.7588 1.02908 1.08307 0
M  V30 925 H 86.6408 0.440992 4.19086 0
M  V30 926 H 85.3158 -0.265649 3.22608 0
M  V30 927 H 84.2228 2.04966 3.12953 0
M  V30 928 H 85.5558 2.68023 4.12825 0
M  V30 929 N 87.2079 -1.17134 1.05439 0
M  V30 930 C 88.4329 -1.91913 0.786396 0
M  V30 931 C 88.8579 -1.7643 -0.652234 0
M  V30 932 O 88.2159 -1.08372 -1.45345 0
M  V30 933 C 88.2639 -3.40921 1.17497 0
M  V30 934 O 87.3679 -4.11244 0.308589 0
M  V30 935 H 86.7089 -0.598215 0.288158 0
M  V30 936 H 89.2389 -1.48457 1.4079 0
M  V30 937 H 89.2489 -3.91668 1.14281 0
M  V30 938 H 87.9239 -3.5151 2.22292 0
M  V30 939 H 86.5009 -3.70731 0.40157 0
M  V30 940 N 88.686 -0.835752 -1.33615 0
M  V30 941 C 89.911 -0.442389 -2.02627 0
M  V30 942 C 90.336 0.947735 -1.62479 0
M  V30 943 O 89.694 1.61907 -0.815826 0
M  V30 944 C 89.742 -0.567216 -3.56111 0
M  V30 945 O 88.846 0.407799 -4.10379 0
M  V30 946 H 88.187 -0.180278 -0.639059 0
M  V30 947 H 90.717 -1.12972 -1.70583 0
M  V30 948 H 90.727 -0.447708 -4.05536 0
M  V30 949 H 89.402 -1.58103 -3.84677 0
M  V30 950 H 87.979 0.246107 -3.72087 0
M  V30 951 N 90.1641 1.46063 -0.591896 0
M  V30 952 C 91.0741 2.34192 0.13831 0
M  V30 953 C 92.0901 1.50305 0.876608 0
M  V30 954 O 93.2661 1.8315 0.837728 0
M  V30 955 C 90.3311 3.27656 1.13326 0
M  V30 956 C 89.3921 4.27445 0.39863 0
M  V30 957 C 88.6251 5.16443 1.34618 0
M  V30 958 O 88.8481 5.08553 2.58321 0
M  V30 959 O 87.7821 5.95843 0.851768 0
M  V30 960 H 91.6081 2.98002 -0.58552 0
M  V30 961 H 89.1931 1.45188 -0.352239 0
M  V30 962 H 91.0751 3.85291 1.70671 0
M  V30 963 H 89.7501 2.6643 1.83839 0
M  V30 964 H 88.6571 3.73471 -0.216895 0
M  V30 965 H 89.9901 4.91482 -0.265709 0
M  V30 966 N 91.6422 0.330177 1.54103 0
M  V30 967 C 93.0582 -0.0222371 1.59585 0
M  V30 968 C 93.2582 -1.49902 1.34654 0
M  V30 969 O 92.3142 -2.25592 1.13421 0
M  V30 970 C 93.6272 0.401932 2.98002 0
M  V30 971 C 95.1752 0.353145 3.11001 0
M  V30 972 C 95.6502 0.752576 4.51775 0
M  V30 973 N 97.1412 0.706239 4.57784 0
M  V30 974 C 97.8762 0.987417 5.64834 0
M  V30 975 N 97.3722 1.33607 6.79795 0
M  V30 976 N 99.1652 0.91254 5.54643 0
M  V30 977 H 91.3162 1.29228 1.68564 0
M  V30 978 H 93.5792 0.525906 0.78875 0
M  V30 979 H 93.2852 1.4311 3.21267 0
M  V30 980 H 93.1592 -0.229699 3.765 0
M  V30 981 H 95.5462 -0.666822 2.87467 0
M  V30 982 H 95.6272 1.0198 2.34593 0
M  V30 983 H 95.2712 1.77049 4.76042 0
M  V30 984 H 95.2012 0.0635409 5.26562 0
M  V30 985 H 97.6922 0.44889 3.75224 0
M  V30 986 H 98.0052 1.53582 7.57385 0
M  V30 987 H 96.3502 1.37439 6.81275 0
M  V30 988 H 99.5412 0.639601 4.6371 0
M  V30 989 H 99.7142 1.13503 6.37982 0
M  V30 990 N 93.1203 -1.57491 0.0584922 0
M  V30 991 C 94.3663 -1.93264 -0.614558 0
M  V30 992 C 94.6993 -0.937717 -1.7006 0
M  V30 993 O 93.9743 0.0351652 -1.94468 0
M  V30 994 C 94.2573 -3.3938 -1.20386 0
M  V30 995 C 94.1103 -4.49625 -0.125375 0
M  V30 996 C 95.4293 -3.86039 -2.11334 0
M  V30 997 H 92.5483 -0.702791 -0.221933 0
M  V30 998 H 95.1903 -1.8961 0.12175 0
M  V30 999 H 93.3403 -3.42626 -1.83139 0
M  V30 1000 H 95.0123 -4.58506 0.506971 0
M  V30 1001 H 93.2553 -4.30354 0.545672 0
M  V30 1002 H 93.9263 -5.48967 -0.577861 0
M  V30 1003 H 96.4023 -3.84716 -1.58534 0
M  V30 1004 H 95.2783 -4.88914 -2.49507 0
M  V30 1005 H 95.5393 -3.23215 -3.01636 0
M  V30 1006 N 94.5984 0.214957 -1.56127 0
M  V30 1007 C 95.8234 0.95924 -1.83884 0
M  V30 1008 C 96.2484 1.7689 -0.639644 0
M  V30 1009 O 95.6064 1.76566 0.411601 0
M  V30 1010 C 95.6544 1.84723 -3.09693 0
M  V30 1011 O 94.7584 2.94346 -2.8885 0
M  V30 1012 H 94.0994 0.27125 -0.606069 0
M  V30 1013 H 96.6294 0.226276 -2.03345 0
M  V30 1014 H 96.6394 2.25576 -3.39969 0
M  V30 1015 H 95.3144 1.25218 -3.96602 0
M  V30 1016 H 93.8914 2.57391 -2.69823 0
M  V30 1017 N 96.0765 1.50051 0.48192 0
M  V30 1018 C 97.3065 1.63999 1.2565 0
M  V30 1019 C 97.7145 0.318288 1.86504 0
M  V30 1020 O 97.0575 -0.708534 1.69486 0
M  V30 1021 C 97.1195 2.66504 2.4128 0
M  V30 1022 C 96.7835 4.10352 2.01148 0
M  V30 1023 C 97.7805 4.96562 1.54021 0
M  V30 1024 C 95.4655 4.56203 2.10199 0
M  V30 1025 C 97.4595 6.26668 1.16473 0
M  V30 1026 C 95.1465 5.86318 1.72264 0
M  V30 1027 C 96.1445 6.71375 1.25477 0
M  V30 1028 O 95.8325 7.99062 0.880626 0
M  V30 1029 H 95.5645 0.55456 0.386574 0
M  V30 1030 H 98.1185 1.96954 0.582944 0
M  V30 1031 H 96.3485 2.28769 3.11772 0
M  V30 1032 H 98.0375 2.69783 3.03268 0
M  V30 1033 H 98.8035 4.62358 1.46458 0
M  V30 1034 H 94.6825 3.90152 2.45566 0
M  V30 1035 H 98.2265 6.93011 0.798841 0
M  V30 1036 H 94.1235 6.20046 1.79482 0
M  V30 1037 H 94.8915 8.12239 1.01043 0
M  V30 1038 N 97.5546 -0.734337 1.39446 0
M  V30 1039 C 98.7846 -1.52137 1.39778 0
M  V30 1040 C 99.1926 -1.89198 -0.00929312 0
M  V30 1041 O 98.5356 -1.54666 -0.991168 0
M  V30 1042 C 98.5976 -2.83762 2.20724 0
M  V30 1043 C 98.2616 -2.69131 3.69347 0
M  V30 1044 C 99.2586 -2.37635 4.62413 0
M  V30 1045 C 96.9436 -2.85982 4.1294 0
M  V30 1046 C 98.9376 -2.23172 5.97054 0
M  V30 1047 C 96.6246 -2.71137 5.47657 0
M  V30 1048 C 97.6226 -2.39777 6.39528 0
M  V30 1049 O 97.3106 -2.25026 7.71763 0
M  V30 1050 H 97.0426 -0.476717 0.479288 0
M  V30 1051 H 99.5966 -0.915012 1.83893 0
M  V30 1052 H 97.8266 -3.4666 1.71359 0
M  V30 1053 H 99.5156 -3.45383 2.13226 0
M  V30 1054 H 100.282 -2.24267 4.30034 0
M  V30 1055 H 96.1606 -3.09383 3.41765 0
M  V30 1056 H 99.7046 -1.98617 6.68728 0
M  V30 1057 H 95.6016 -2.84083 5.79626 0
M  V30 1058 H 96.3696 -2.40091 7.82495 0
M  V30 1059 N 99.0327 -1.24633 -0.964593 0
M  V30 1060 C 100.28 -1.08788 -1.70796 0
M  V30 1061 C 100.608 0.372783 -1.90894 0
M  V30 1062 O 99.8627 1.29167 -1.47018 0
M  V30 1063 C 100.162 -1.7763 -3.10133 0
M  V30 1064 C 99.8277 -3.27557 -3.09866 0
M  V30 1065 C 98.4897 -3.6846 -3.09501 0
M  V30 1066 C 100.842 -4.23389 -3.03959 0
M  V30 1067 C 98.1697 -5.03624 -3.00965 0
M  V30 1068 C 100.522 -5.58565 -2.96965 0
M  V30 1069 C 99.1857 -5.98809 -2.9493 0
M  V30 1070 H 98.4557 -0.398084 -0.624988 0
M  V30 1071 H 101.103 -1.54777 -1.12767 0
M  V30 1072 H 99.4077 -1.24044 -3.71645 0
M  V30 1073 H 101.105 -1.62832 -3.66451 0
M  V30 1074 H 97.6947 -2.95006 -3.10917 0
M  V30 1075 H 101.879 -3.92787 -3.03368 0
M  V30 1076 H 97.1347 -5.33998 -2.97752 0
M  V30 1077 H 101.309 -6.32523 -2.91354 0
M  V30 1078 H 98.9357 -7.03505 -2.88071 0
M  V30 1079 N 100.511 1.16574 -1.06058 0
M  V30 1080 C 101.736 1.91493 -0.796562 0
M  V30 1081 C 102.161 1.76773 0.642868 0
M  V30 1082 O 101.519 1.09142 1.44768 0
M  V30 1083 C 101.567 3.40293 -1.19303 0
M  V30 1084 O 100.671 4.11074 -0.330394 0
M  V30 1085 H 100.012 0.596678 -0.291326 0
M  V30 1086 H 102.542 1.47708 -1.41575 0
M  V30 1087 H 102.552 3.91057 -1.16356 0
M  V30 1088 H 101.227 3.50326 -2.24153 0
M  V30 1089 H 99.8038 3.70513 -0.421225 0
M  V30 1090 N 101.989 0.842826 1.3317 0
M  V30 1091 C 103.219 0.453397 2.01564 0
M  V30 1092 C 103.627 -0.951147 1.63554 0
M  V30 1093 O 102.97 -1.63021 0.846746 0
M  V30 1094 C 103.032 0.499013 3.5602 0
M  V30 1095 C 102.696 1.86037 4.1742 0
M  V30 1096 C 103.693 2.82416 4.36506 0
M  V30 1097 C 101.378 2.15428 4.53757 0
M  V30 1098 C 103.372 4.06346 4.91082 0
M  V30 1099 C 101.059 3.39615 5.0804 0
M  V30 1100 C 102.057 4.3489 5.26649 0
M  V30 1101 O 101.745 5.5688 5.79776 0
M  V30 1102 H 101.477 0.177871 0.652179 0
M  V30 1103 H 104.031 1.13808 1.70988 0
M  V30 1104 H 102.261 -0.242467 3.85939 0
M  V30 1105 H 103.95 0.126852 4.05702 0
M  V30 1106 H 104.716 2.6101 4.08777 0
M  V30 1107 H 100.595 1.42061 4.38565 0
M  V30 1108 H 104.139 4.80722 5.05522 0
M  V30 1109 H 100.036 3.60876 5.352 0
M  V30 1110 H 100.804 5.58674 5.98185 0
M  V30 1111 N 103.467 -1.45747 0.599634 0
M  V30 1112 C 104.399 -2.28628 -0.161879 0
M  V30 1113 C 105.412 -1.39494 -0.839367 0
M  V30 1114 O 106.601 -1.63941 -0.706089 0
M  V30 1115 C 103.701 -3.15014 -1.24976 0
M  V30 1116 C 102.874 -4.32378 -0.660935 0
M  V30 1117 C 101.933 -5.00033 -1.63869 0
M  V30 1118 O 100.959 -5.57085 -1.1681 0
M  V30 1119 N 102.161 -4.98589 -2.97303 0
M  V30 1120 H 104.926 -2.94624 0.549265 0
M  V30 1121 H 102.487 -1.55847 0.438565 0
M  V30 1122 H 104.479 -3.5714 -1.9035 0
M  V30 1123 H 103.049 -2.5098 -1.86354 0
M  V30 1124 H 102.269 -3.9383 0.170688 0
M  V30 1125 H 103.557 -5.08197 -0.247619 0
M  V30 1126 H 102.955 -4.53514 -3.38145 0
M  V30 1127 H 101.512 -5.44603 -3.58121 0
M  V30 1128 N 104.945 -0.338344 -1.53925 0
M  V30 1129 C 105.895 0.536712 -2.21593 0
M  V30 1130 C 106.879 1.07015 -1.20153 0
M  V30 1131 O 108.071 1.00471 -1.45721 0
M  V30 1132 C 105.2 1.68977 -2.98834 0
M  V30 1133 C 104.286 1.17052 -4.07627 0
M  V30 1134 N 104.677 0.372085 -5.0443 0
M  V30 1135 C 102.975 1.44789 -4.21844 0
M  V30 1136 C 103.676 0.0909171 -5.81629 0
M  V30 1137 N 102.652 0.681131 -5.39316 0
M  V30 1138 H 106.454 -0.0804298 -2.9379 0
M  V30 1139 H 103.968 -0.144943 -1.61752 0
M  V30 1140 H 105.965 2.32857 -3.45808 0
M  V30 1141 H 104.625 2.31024 -2.28162 0
M  V30 1142 H 105.636 0.0136217 -5.17898 0
M  V30 1143 H 102.313 2.07313 -3.62391 0
M  V30 1144 H 103.703 -0.552817 -6.69622 0
M  V30 1145 N 106.423 1.57458 -0.0668435 0
M  V30 1146 C 107.669 1.93587 0.6043 0
M  V30 1147 C 108.002 0.946722 1.69561 0
M  V30 1148 O 107.277 -0.0248516 1.94484 0
M  V30 1149 C 107.56 3.40014 1.18585 0
M  V30 1150 C 107.413 4.49685 0.101529 0
M  V30 1151 C 108.732 3.87154 2.09284 0
M  V30 1152 H 105.851 0.703958 0.218202 0
M  V30 1153 H 108.493 1.89542 -0.131804 0
M  V30 1154 H 106.643 3.43592 1.81319 0
M  V30 1155 H 108.315 4.5823 -0.531279 0
M  V30 1156 H 106.558 4.30059 -0.568487 0
M  V30 1157 H 107.229 5.49266 0.54874 0
M  V30 1158 H 109.705 3.85551 1.56491 0
M  V30 1159 H 108.581 4.90231 2.46911 0
M  V30 1160 H 108.842 3.2481 2.99918 0
M  V30 1161 N 107.901 -0.206675 1.56239 0
M  V30 1162 C 109.129 -0.945345 1.8404 0
M  V30 1163 C 109.544 -1.77336 0.647885 0
M  V30 1164 O 108.901 -1.78425 -0.383511 0
M  V30 1165 C 108.952 -1.8509 3.10522 0
M  V30 1166 O 108.673 -1.05634 4.25174 0
M  V30 1167 C 110.174 -2.70222 3.51418 0
M  V30 1168 H 107.394 -0.276372 0.61144 0
M  V30 1169 H 109.938 -0.217417 2.03341 0
M  V30 1170 H 108.093 -2.53259 2.93153 0
M  V30 1171 H 108.507 -1.67238 4.97124 0
M  V30 1172 H 109.981 -3.29438 4.42916 0
M  V30 1173 H 110.458 -3.43358 2.73864 0
M  V30 1174 H 111.064 -2.07443 3.71278 0
M  V30 1175 N 109.379 -1.50304 -0.473955 0
M  V30 1176 C 110.326 -1.68959 -1.57231 0
M  V30 1177 C 111.296 -0.530899 -1.57387 0
M  V30 1178 O 112.481 -0.761133 -1.74961 0
M  V30 1179 C 109.621 -1.7871 -2.95223 0
M  V30 1180 C 108.734 -3.06061 -3.04878 0
M  V30 1181 C 107.869 -3.06626 -4.33767 0
M  V30 1182 C 106.908 -4.28443 -4.37154 0
M  V30 1183 N 106.045 -4.26763 -5.5751 0
M  V30 1184 H 110.885 -2.6273 -1.40631 0
M  V30 1185 H 108.422 -1.30241 -0.683789 0
M  V30 1186 H 110.38 -1.82344 -3.75242 0
M  V30 1187 H 109.01 -0.883806 -3.10465 0
M  V30 1188 H 108.062 -3.11911 -2.17751 0
M  V30 1189 H 109.374 -3.96039 -3.0324 0
M  V30 1190 H 108.528 -3.08973 -5.22131 0
M  V30 1191 H 107.267 -2.14473 -4.3801 0
M  V30 1192 H 106.272 -4.2631 -3.47188 0
M  V30 1193 H 107.497 -5.2182 -4.34605 0
M  V30 1194 H 105.443 -3.37462 -5.62544 0
M  V30 1195 H 105.36 -5.10507 -5.57601 0
M  V30 1196 H 106.628 -4.33253 -6.48006 0
M  V30 1197 N 110.857 0.726932 -1.39834 0
M  V30 1198 C 112.103 1.48884 -1.377 0
M  V30 1199 C 112.436 1.94185 0.0244852 0
M  V30 1200 O 111.711 1.67361 0.990986 0
M  V30 1201 C 111.994 2.72288 -2.3565 0
M  V30 1202 C 111.847 2.32956 -3.84775 0
M  V30 1203 C 113.166 3.74414 -2.31306 0
M  V30 1204 H 110.285 0.540062 -0.5015 0
M  V30 1205 H 112.927 0.830547 -1.70886 0
M  V30 1206 H 111.077 3.28457 -2.07481 0
M  V30 1207 H 112.749 1.82356 -4.23726 0
M  V30 1208 H 110.992 1.65088 -4.01159 0
M  V30 1209 H 111.663 3.21362 -4.4881 0
M  V30 1210 H 114.139 3.27849 -2.56231 0
M  V30 1211 H 113.015 4.58414 -3.01907 0
M  V30 1212 H 113.276 4.21909 -1.32081 0
M  V30 1213 N 112.336 1.25143 0.95797 0
M  V30 1214 C 113.613 1.00472 1.67823 0
M  V30 1215 C 113.993 -0.470056 2.058 0
M  V30 1216 O 113.341 -1.44663 1.76875 0
M  V30 1217 C 113.551 1.9372 2.90299 0
M  V30 1218 C 114.899 2.21371 3.62326 0
M  V30 1219 O 115.923 1.91451 3.00375 0
M  V30 1220 O 114.782 2.72231 4.7387 0
M  V30 1221 H 111.876 0.380752 0.734137 0
M  V30 1222 H 114.422 1.36283 1.01119 0
M  V30 1223 H 113.194 2.93316 2.59001 0
M  V30 1224 H 112.817 1.58286 3.64735 0
M  V30 1225 N 113.814 -1.1601 1.06675 0
M  V30 1226 C 114.724 -2.24156 0.692179 0
M  V30 1227 C 115.74 -1.71507 -0.293513 0
M  V30 1228 O 116.916 -2.009 -0.141861 0
M  V30 1229 C 113.981 -3.46587 0.0884131 0
M  V30 1230 C 113.042 -4.14257 1.12646 0
M  V30 1231 C 112.275 -5.30844 0.551416 0
M  V30 1232 O 112.498 -5.66858 -0.634656 0
M  V30 1233 O 111.432 -5.87848 1.29298 0
M  V30 1234 H 115.258 -2.58513 1.59388 0
M  V30 1235 H 112.843 -1.23599 0.83926 0
M  V30 1236 H 114.725 -4.20679 -0.246361 0
M  V30 1237 H 113.4 -3.13994 -0.786712 0
M  V30 1238 H 112.307 -3.42118 1.51348 0
M  V30 1239 H 113.64 -4.50914 1.97325 0
M  V30 1240 N 115.292 -0.849877 -1.32721 0
M  V30 1241 C 116.538 -0.451591 -1.97708 0
M  V30 1242 C 116.871 0.989175 -1.6712 0
M  V30 1243 O 116.146 1.69334 -0.956891 0
M  V30 1244 C 116.429 -0.685598 -3.53513 0
M  V30 1245 C 116.282 -2.17444 -3.93749 0
M  V30 1246 C 117.601 -0.138874 -4.39881 0
M  V30 1247 H 114.72 -0.16555 -0.718166 0
M  V30 1248 H 117.362 -1.06742 -1.57182 0
M  V30 1249 H 115.512 -0.161416 -3.88165 0
M  V30 1250 H 117.184 -2.76433 -3.693 0
M  V30 1251 H 115.427 -2.65476 -3.43081 0
M  V30 1252 H 116.098 -2.28888 -5.02309 0
M  V30 1253 H 118.574 -0.587068 -4.11938 0
M  V30 1254 H 117.45 -0.332213 -5.47894 0
M  V30 1255 H 117.711 0.95806 -4.31594 0
M  V30 1256 N 116.77 1.45427 -0.607355 0
M  V30 1257 C 118.016 2.0254 -0.102607 0
M  V30 1258 C 118.349 1.47478 1.26348 0
M  V30 1259 O 117.624 0.64939 1.83339 0
M  V30 1260 C 117.907 3.60044 -0.0634347 0
M  V30 1261 C 117.76 4.2544 -1.46017 0
M  V30 1262 C 119.079 4.35646 0.624514 0
M  V30 1263 H 116.198 0.73598 -0.0387607 0
M  V30 1264 H 118.84 1.73284 -0.779282 0
M  V30 1265 H 116.99 3.85101 0.512808 0
M  V30 1266 H 118.662 4.11569 -2.08347 0
M  V30 1267 H 116.905 3.83849 -2.02094 0
M  V30 1268 H 117.576 5.34342 -1.385 0
M  V30 1269 H 120.052 4.15882 0.134723 0
M  V30 1270 H 118.928 5.45376 0.621028 0
M  V30 1271 H 119.189 4.08501 1.69055 0
M  V30 1272 N 118.248 0.346503 1.53744 0
M  V30 1273 C 119.211 -0.496439 2.23759 0
M  V30 1274 C 120.211 -1.0252 1.2388 0
M  V30 1275 O 121.401 -0.913974 1.48297 0
M  V30 1276 C 118.533 -1.69187 2.95954 0
M  V30 1277 H 119.726 0.115952 2.99676 0
M  V30 1278 H 117.279 0.0978939 1.55993 0
M  V30 1279 H 118.014 -2.34288 2.24231 0
M  V30 1280 H 117.799 -1.31989 3.69217 0
M  V30 1281 H 119.289 -2.28969 3.49232 0
M  V30 1282 N 119.726 -1.57421 0.075193 0
M  V30 1283 C 120.658 -2.09904 -0.920483 0
M  V30 1284 C 121.671 -1.03191 -1.25918 0
M  V30 1285 O 122.86 -1.30695 -1.21577 0
M  V30 1286 C 119.96 -2.54726 -2.23534 0
M  V30 1287 C 119.133 -3.8505 -2.07498 0
M  V30 1288 C 118.192 -4.15929 -3.22319 0
M  V30 1289 O 117.218 -4.85474 -2.9716 0
M  V30 1290 N 118.42 -3.69745 -4.47514 0
M  V30 1291 H 121.185 -2.95954 -0.472359 0
M  V30 1292 H 118.746 -1.61523 -0.110444 0
M  V30 1293 H 120.738 -2.72443 -2.9926 0
M  V30 1294 H 119.308 -1.73795 -2.59835 0
M  V30 1295 H 118.528 -3.76679 -1.16219 0
M  V30 1296 H 119.816 -4.70348 -1.94038 0
M  V30 1297 H 119.214 -3.13569 -4.7084 0
M  V30 1298 H 117.771 -3.92655 -5.20255 0
M  V30 1299 N 121.204 0.198386 -1.56346 0
M  V30 1300 C 122.429 0.939682 -1.84891 0
M  V30 1301 C 122.854 1.76202 -0.658369 0
M  V30 1302 O 122.212 1.76993 0.392851 0
M  V30 1303 C 122.26 1.81428 -3.11635 0
M  V30 1304 O 121.364 2.91265 -2.91956 0
M  V30 1305 H 120.705 0.264807 -0.608912 0
M  V30 1306 H 123.235 0.204695 -2.03573 0
M  V30 1307 H 123.245 2.21958 -3.42343 0
M  V30 1308 H 121.92 1.21004 -3.97908 0
M  V30 1309 H 120.497 2.54514 -2.72538 0
M  V30 1310 N 122.682 1.50554 0.465978 0
M  V30 1311 C 123.612 1.72722 1.57128 0
M  V30 1312 C 124.593 0.576294 1.6004 0
M  V30 1313 O 125.778 0.81598 1.76225 0
M  V30 1314 C 122.908 1.82605 2.95419 0
M  V30 1315 C 121.862 2.97835 3.07373 0
M  V30 1316 C 121.188 2.92867 4.47363 0
M  V30 1317 C 122.488 4.38265 2.84114 0
M  V30 1318 H 124.182 2.65267 1.38829 0
M  V30 1319 H 121.728 1.2765 0.666441 0
M  V30 1320 H 123.681 1.96698 3.72677 0
M  V30 1321 H 122.405 0.866858 3.14886 0
M  V30 1322 H 121.064 2.83401 2.3255 0
M  V30 1323 H 120.712 1.94783 4.63755 0
M  V30 1324 H 120.412 3.70227 4.56296 0
M  V30 1325 H 121.936 3.09015 5.26633 0
M  V30 1326 H 123.35 4.53198 3.51118 0
M  V30 1327 H 121.747 5.17115 3.04487 0
M  V30 1328 H 122.817 4.50281 1.7993 0
M  V30 1329 N 124.16 -0.719506 1.40217 0
M  V30 1330 C 125.406 -1.48152 1.38488 0
M  V30 1331 C 125.739 -1.94195 -0.0141867 0
M  V30 1332 O 125.014 -1.67884 -0.982096 0
M  V30 1333 C 125.297 -2.71035 2.37091 0
M  V30 1334 C 125.15 -2.30912 3.86005 0
M  V30 1335 C 126.469 -3.73182 2.33288 0
M  V30 1336 H 123.588 -0.537395 0.504357 0
M  V30 1337 H 126.23 -0.821472 1.71324 0
M  V30 1338 H 124.38 -3.27352 2.0922 0
M  V30 1339 H 126.052 -1.80107 4.24687 0
M  V30 1340 H 124.295 -1.62958 4.02029 0
M  V30 1341 H 124.966 -3.18978 4.50508 0
M  V30 1342 H 127.442 -3.26485 2.57966 0
M  V30 1343 H 126.318 -4.56806 3.04334 0
M  V30 1344 H 126.579 -4.21202 1.34317 0
M  V30 1345 N 125.638 -1.25649 -0.95132 0
M  V30 1346 C 126.885 -1.10594 -1.69633 0
M  V30 1347 C 127.213 0.352515 -1.91279 0
M  V30 1348 O 126.468 1.27601 -1.4838 0
M  V30 1349 C 126.767 -1.80909 -3.08231 0
M  V30 1350 C 126.433 -3.30825 -3.06375 0
M  V30 1351 C 125.095 -3.71722 -3.05576 0
M  V30 1352 C 127.447 -4.26589 -2.99452 0
M  V30 1353 C 124.775 -5.06788 -2.95606 0
M  V30 1354 C 127.127 -5.61683 -2.91024 0
M  V30 1355 C 125.791 -6.01904 -2.88562 0
M  V30 1356 H 125.061 -0.404691 -0.620731 0
M  V30 1357 H 127.708 -1.55964 -1.11119 0
M  V30 1358 H 126.013 -1.27979 -3.70309 0
M  V30 1359 H 127.71 -1.6671 -3.64704 0
M  V30 1360 H 124.3 -2.98287 -3.07771 0
M  V30 1361 H 128.484 -3.95982 -2.99185 0
M  V30 1362 H 123.74 -5.37126 -2.92071 0
M  V30 1363 H 127.914 -6.35578 -2.84629 0
M  V30 1364 H 125.541 -7.06521 -2.80593 0
M  V30 1365 N 127.117 1.15442 -1.07289 0
M  V30 1366 C 128.528 1.67803 -0.818475 0
M  V30 1367 C 128.879 1.8489 0.656507 0
M  V30 1368 O 128.004 1.55176 1.50829 0
M  V30 1369 C 128.599 3.04805 -1.47917 0
M  V30 1370 C 127.158 3.54245 -1.27229 0
M  V30 1371 C 126.305 2.29986 -1.54925 0
M  V30 1372 H 129.256 0.996646 -1.23502 0
M  V30 1373 H 129.277 3.69702 -0.90005 0
M  V30 1374 H 128.789 2.92336 -2.55267 0
M  V30 1375 H 126.89 3.71956 -0.21899 0
M  V30 1376 H 127.003 4.35723 -1.99203 0
M  V30 1377 H 125.367 2.35496 -0.970242 0
M  V30 1378 H 126.15 2.20105 -2.63455 0
M  V30 1379 N 128.595 0.856903 1.32268 0
M  V30 1380 C 129.558 0.308171 2.27119 0
M  V30 1381 C 130.558 -0.533421 1.51695 0
M  V30 1382 O 131.748 -0.344607 1.70757 0
M  V30 1383 C 128.88 -0.563757 3.36206 0
M  V30 1384 H 130.073 1.14535 2.77167 0
M  V30 1385 H 127.626 0.631421 1.42978 0
M  V30 1386 H 128.361 -1.42266 2.91429 0
M  V30 1387 H 128.146 0.0386749 3.92081 0
M  V30 1388 H 129.636 -0.940386 4.06874 0
M  V30 1389 N 130.073 -1.45103 0.615059 0
M  V30 1390 C 131.319 -2.02483 0.113347 0
M  V30 1391 C 131.652 -1.48146 -1.25564 0
M  V30 1392 O 130.927 -0.659104 -1.82992 0
M  V30 1393 C 131.21 -3.60005 0.0825278 0
M  V30 1394 C 131.063 -4.2466 1.48271 0
M  V30 1395 C 132.382 -4.35972 -0.601401 0
M  V30 1396 H 129.501 -0.735764 0.0426632 0
M  V30 1397 H 132.143 -1.72868 0.788461 0
M  V30 1398 H 130.293 -3.85367 -0.492378 0
M  V30 1399 H 131.965 -4.10458 2.10527 0
M  V30 1400 H 130.208 -3.82772 2.04127 0
M  V30 1401 H 130.879 -5.336 1.41332 0
M  V30 1402 H 133.355 -4.15947 -0.112666 0
M  V30 1403 H 132.231 -5.45697 -0.592097 0
M  V30 1404 H 132.492 -4.09391 -1.66887 0
M  V30 1405 N 131.551 -0.354651 -1.53558 0
M  V30 1406 C 132.779 0.239515 -2.05509 0
M  V30 1407 C 133.194 1.4333 -1.2289 0
M  V30 1408 O 132.551 1.80538 -0.266899 0
M  V30 1409 C 132.602 0.643719 -3.55723 0
M  V30 1410 O 132.323 -0.502602 -4.35207 0
M  V30 1411 C 133.824 1.29743 -4.23889 0
M  V30 1412 H 131.044 0.0442697 -0.669538 0
M  V30 1413 H 133.588 -0.509856 -1.98042 0
M  V30 1414 H 131.743 1.34302 -3.63376 0
M  V30 1415 H 132.157 -0.178172 -5.24197 0
M  V30 1416 H 133.631 1.53091 -5.30346 0
M  V30 1417 H 134.108 2.25441 -3.76926 0
M  V30 1418 H 134.714 0.639865 -4.20459 0
M  V30 1419 N 133.029 1.57378 -0.0835403 0
M  V30 1420 C 133.959 2.1641 0.87686 0
M  V30 1421 C 134.94 1.09429 1.30228 0
M  V30 1422 O 136.125 1.37516 1.37124 0
M  V30 1423 C 133.255 2.73517 2.14022 0
M  V30 1424 C 132.209 3.85769 1.85381 0
M  V30 1425 C 131.535 4.29529 3.18448 0
M  V30 1426 C 132.835 5.09486 1.14984 0
M  V30 1427 H 134.529 2.96914 0.385059 0
M  V30 1428 H 132.075 1.42823 0.18377 0
M  V30 1429 H 134.028 3.13463 2.81636 0
M  V30 1430 H 132.752 1.90252 2.65465 0
M  V30 1431 H 131.411 3.46345 1.20169 0
M  V30 1432 H 131.059 3.43169 3.67755 0
M  V30 1433 H 130.759 5.05204 3.00071 0
M  V30 1434 H 132.283 4.72099 3.8724 0
M  V30 1435 H 133.697 5.46674 1.72687 0
M  V30 1436 H 132.094 5.90515 1.06826 0
M  V30 1437 H 133.164 4.84724 0.130749 0
M  V30 1438 N 134.507 -0.190092 1.56449 0
M  V30 1439 C 135.747 -0.916414 1.82705 0
M  V30 1440 C 136.111 -1.80235 0.661763 0
M  V30 1441 O 137.312 -2.56484 0.80433 0
M  V30 1442 C 135.583 -1.70691 3.14005 0
M  V30 1443 S 137.142 -2.48457 3.61683 0
M  V30 1444 H 133.96 -0.307281 0.64117 0
M  V30 1445 H 136.562 -0.179433 1.94675 0
M  V30 1446 H 135.266 -1.04677 3.96826 0
M  V30 1447 H 134.797 -2.48562 3.04927 0
M  V30 1448 H 136.812 -3.72756 3.27517 0
M  V30 1449 N 135.985 -1.50799 -0.457987 0
M  V30 1450 C 136.933 -1.71162 -1.575 0
M  V30 1451 C 137.927 -0.577592 -1.59249 0
M  V30 1452 O 139.133 -0.758443 -1.63241 0
M  V30 1453 H 135.508 -0.540468 -0.522875 0
M  V30 1454 H 137.479 -2.64837 -1.37492 0
M  V30 1455 C 136.228 -1.83496 -2.95338 0
M  V30 1456 H 135.551 -2.70153 -2.94716 0
M  V30 1457 H 136.991 -2.01765 -3.72917 0
M  V30 1458 C 135.45 -0.589694 -3.31699 0
M  V30 1459 O 135.98 0.265163 -4.00824 0
M  V30 1460 N 134.186 -0.439845 -2.87252 0
M  V30 1461 H 133.733 -1.13655 -2.31172 0
M  V30 1462 H 133.691 0.392159 -3.11945 0
M  V30 1463 N 137.463 0.71206 -1.40597 0
M  V30 1464 C 138.393 1.83889 -1.43899 0
M  V30 1465 C 139.374 1.67442 -0.299504 0
M  V30 1466 O 140.559 1.87421 -0.508624 0
M  V30 1467 C 137.689 3.21877 -1.30431 0
M  V30 1468 C 136.643 3.53002 -2.42019 0
M  V30 1469 C 135.969 4.90172 -2.13626 0
M  V30 1470 C 137.269 3.53643 -3.84362 0
M  V30 1471 H 138.963 1.81383 -2.38203 0
M  V30 1472 H 136.509 0.871237 -1.14654 0
M  V30 1473 H 138.462 4.00404 -1.31357 0
M  V30 1474 H 137.186 3.24968 -0.326049 0
M  V30 1475 H 135.845 2.76818 -2.40349 0
M  V30 1476 H 135.493 4.89869 -1.14182 0
M  V30 1477 H 135.193 5.11962 -2.88389 0
M  V30 1478 H 136.717 5.71028 -2.1624 0
M  V30 1479 H 138.131 4.22203 -3.87837 0
M  V30 1480 H 136.528 3.86961 -4.58673 0
M  V30 1481 H 137.598 2.52954 -4.13693 0
M  V30 1482 N 138.941 1.26152 0.944643 0
M  V30 1483 C 139.889 1.07215 2.06417 0
M  V30 1484 C 140.883 9.2007e-05 1.694 0
M  V30 1485 O 142.089 0.1565 1.79318 0
M  V30 1486 H 138.464 0.329837 0.675805 0
M  V30 1487 H 140.435 2.02099 2.19541 0
M  V30 1488 C 139.184 0.718197 3.40202 0
M  V30 1489 H 138.507 1.53497 3.69159 0
M  V30 1490 H 139.947 0.625459 4.19361 0
M  V30 1491 C 138.406 -0.576435 3.31932 0
M  V30 1492 O 138.936 -1.61574 3.67773 0
M  V30 1493 N 137.142 -0.565781 2.85039 0
M  V30 1494 H 136.689 0.280367 2.5607 0
M  V30 1495 H 136.647 -1.43213 2.79888 0
M  V30 1496 N 140.419 -1.14872 1.07899 0
M  V30 1497 C 141.667 -1.85422 0.803941 0
M  V30 1498 C 141.988 -1.83051 -0.67211 0
M  V30 1499 O 141.258 -1.27532 -1.48703 0
M  V30 1500 H 139.838 -0.686537 0.294408 0
M  V30 1501 H 142.5 -1.39226 1.3639 0
M  V30 1502 H 141.596 -2.90399 1.14346 0
M  V30 1503 N 141.898 -0.863906 -1.31812 0
M  V30 1504 C 143.145 -0.471836 -1.96926 0
M  V30 1505 C 143.473 0.974578 -1.68322 0
M  V30 1506 O 142.728 1.7003 -0.968933 0
M  V30 1507 C 143.027 -0.668547 -3.51091 0
M  V30 1508 C 142.693 -2.08683 -3.99703 0
M  V30 1509 C 141.355 -2.47471 -4.12688 0
M  V30 1510 C 143.707 -3.01207 -4.25351 0
M  V30 1511 C 141.035 -3.78037 -4.4867 0
M  V30 1512 C 143.387 -4.31282 -4.62794 0
M  V30 1513 C 142.051 -4.69992 -4.73987 0
M  V30 1514 H 141.321 -0.172657 -0.720604 0
M  V30 1515 H 143.968 -1.09573 -1.57054 0
M  V30 1516 H 142.273 0.0385252 -3.91781 0
M  V30 1517 H 143.97 -0.345102 -3.99512 0
M  V30 1518 H 140.56 -1.77566 -3.90087 0
M  V30 1519 H 144.744 -2.72469 -4.14819 0
M  V30 1520 H 140 -4.078 -4.55532 0
M  V30 1521 H 144.174 -5.03031 -4.81594 0
M  V30 1522 H 141.801 -5.71207 -5.01624 0
M  V30 1523 N 143.376 1.44774 -0.622745 0
M  V30 1524 C 144.792 1.56986 -0.287652 0
M  V30 1525 C 144.992 1.61167 1.20944 0
M  V30 1526 O 144.048 1.55015 1.99315 0
M  V30 1527 C 145.361 2.84551 -0.972188 0
M  V30 1528 C 146.909 2.9825 -0.949536 0
M  V30 1529 C 147.384 4.28605 -1.61437 0
M  V30 1530 N 148.875 4.35399 -1.58057 0
M  V30 1531 C 149.61 5.34964 -2.064 0
M  V30 1532 N 149.106 6.40981 -2.62897 0
M  V30 1533 N 150.899 5.26419 -1.97078 0
M  V30 1534 H 143.05 1.40304 -1.59463 0
M  V30 1535 H 145.313 0.671794 -0.668878 0
M  V30 1536 H 145.019 2.87417 -2.02693 0
M  V30 1537 H 144.893 3.73807 -0.504771 0
M  V30 1538 H 147.28 2.94941 0.0967067 0
M  V30 1539 H 147.361 2.10364 -1.45536 0
M  V30 1540 H 147.005 4.32672 -2.66002 0
M  V30 1541 H 146.935 5.15334 -1.08344 0
M  V30 1542 H 149.426 3.59397 -1.16801 0
M  V30 1543 H 149.739 7.13225 -2.97539 0
M  V30 1544 H 148.084 6.4169 -2.66943 0
M  V30 1545 H 151.275 4.42504 -1.52669 0
M  V30 1546 H 151.448 6.03861 -2.35066 0
M  V30 1547 N 144.854 0.36279 1.53368 0
M  V30 1548 C 146.101 -0.227776 2.01215 0
M  V30 1549 C 146.429 -1.49003 1.25014 0
M  V30 1550 O 145.684 -1.92876 0.331236 0
M  V30 1551 C 145.983 -0.568417 3.52851 0
M  V30 1552 C 145.649 0.59918 4.46901 0
M  V30 1553 C 144.311 0.919559 4.72332 0
M  V30 1554 C 146.663 1.38156 5.02556 0
M  V30 1555 C 143.991 2.02434 5.5067 0
M  V30 1556 C 146.343 2.47674 5.821 0
M  V30 1557 C 145.007 2.8025 6.05819 0
M  V30 1558 H 144.277 -0.083349 0.736297 0
M  V30 1559 H 146.924 0.494677 1.85001 0
M  V30 1560 H 145.229 -1.37185 3.66998 0
M  V30 1561 H 146.926 -1.03756 3.87344 0
M  V30 1562 H 143.516 0.339437 4.27254 0
M  V30 1563 H 147.7 1.14729 4.82857 0
M  V30 1564 H 142.956 2.28075 5.67267 0
M  V30 1565 H 147.13 3.08716 6.24234 0
M  V30 1566 H 144.757 3.65979 6.66306 0
M  V30 1567 N 146.332 -1.57332 0.0918853 0
M  V30 1568 C 147.557 -1.98995 -0.584442 0
M  V30 1569 C 147.982 -0.970528 -1.61128 0
M  V30 1570 O 147.34 0.0613904 -1.81196 0
M  V30 1571 C 147.388 -3.39636 -1.21161 0
M  V30 1572 O 146.492 -3.40447 -2.32744 0
M  V30 1573 H 145.833 -0.647165 -0.148572 0
M  V30 1574 H 148.363 -2.03873 0.172347 0
M  V30 1575 H 148.373 -3.7726 -1.55367 0
M  V30 1576 H 147.048 -4.13356 -0.459313 0
M  V30 1577 H 145.625 -3.14614 -2.0018 0
M  V30 1578 N 147.81 0.181792 -1.56548 0
M  V30 1579 C 149.226 0.53316 -1.50431 0
M  V30 1580 C 149.426 1.85184 -0.794297 0
M  V30 1581 O 148.482 2.50058 -0.350318 0
M  V30 1582 C 149.795 0.575597 -2.9514 0
M  V30 1583 C 151.343 0.663519 -3.05886 0
M  V30 1584 C 151.818 0.736946 -4.52032 0
M  V30 1585 N 153.309 0.800118 -4.56237 0
M  V30 1586 C 154.044 0.877327 -5.66649 0
M  V30 1587 N 153.54 0.916016 -6.86718 0
M  V30 1588 N 155.333 0.915542 -5.54594 0
M  V30 1589 H 147.484 -0.683025 -2.01118 0
M  V30 1590 H 149.747 -0.244988 -0.915797 0
M  V30 1591 H 149.453 -0.324482 -3.502 0
M  V30 1592 H 149.327 1.42572 -3.49218 0
M  V30 1593 H 151.714 1.55403 -2.50867 0
M  V30 1594 H 151.795 -0.21307 -2.54911 0
M  V30 1595 H 151.439 -0.149262 -5.07681 0
M  V30 1596 H 151.369 1.62953 -5.00753 0
M  V30 1597 H 153.86 0.778926 -3.69785 0
M  V30 1598 H 154.173 0.975813 -7.66614 0
M  V30 1599 H 152.518 0.884469 -6.89349 0
M  V30 1600 H 155.709 0.882245 -4.59711 0
M  V30 1601 H 155.882 0.972253 -6.40665 0
M  V30 1602 N 149.288 1.51039 0.449983 0
M  V30 1603 C 150.218 1.74379 1.55288 0
M  V30 1604 C 151.199 0.593236 1.5942 0
M  V30 1605 O 152.384 0.834625 1.7535 0
M  V30 1606 C 149.514 1.85728 2.93466 0
M  V30 1607 C 148.468 3.01078 3.04197 0
M  V30 1608 C 147.794 2.97595 4.44231 0
M  V30 1609 C 149.094 4.41254 2.7945 0
M  V30 1610 H 150.788 2.66725 1.36008 0
M  V30 1611 H 148.334 1.2835 0.652864 0
M  V30 1612 H 150.287 2.0064 3.70569 0
M  V30 1613 H 149.011 0.900207 3.13949 0
M  V30 1614 H 147.67 2.85851 2.29531 0
M  V30 1615 H 147.318 1.99691 4.61663 0
M  V30 1616 H 147.018 3.75046 4.52343 0
M  V30 1617 H 148.542 3.14583 5.23326 0
M  V30 1618 H 149.956 4.56897 3.46292 0
M  V30 1619 H 148.353 5.20315 2.98985 0
M  V30 1620 H 149.423 4.52164 1.75144 0
M  V30 1621 N 150.766 -0.704594 1.40972 0
M  V30 1622 C 151.994 -1.49354 1.43182 0
M  V30 1623 C 152.409 -1.88768 0.0345508 0
M  V30 1624 O 151.766 -1.56184 -0.944081 0
M  V30 1625 C 151.817 -2.76187 2.33244 0
M  V30 1626 O 151.538 -2.38436 3.67532 0
M  V30 1627 C 153.039 -3.7 2.44162 0
M  V30 1628 H 150.259 -0.460559 0.487982 0
M  V30 1629 H 152.803 -0.868261 1.85153 0
M  V30 1630 H 150.958 -3.34974 1.94606 0
M  V30 1631 H 151.372 -3.20126 4.15475 0
M  V30 1632 H 152.846 -4.55803 3.11364 0
M  V30 1633 H 153.323 -4.13867 1.47006 0
M  V30 1634 H 153.929 -3.17121 2.83398 0
M  V30 1635 N 152.244 -1.26651 -0.937939 0
M  V30 1636 C 153.472 -1.15173 -1.7188 0
M  V30 1637 C 153.887 0.292668 -1.86518 0
M  V30 1638 O 153.244 1.20014 -1.37488 0
M  V30 1639 C 153.295 -1.81925 -3.12387 0
M  V30 1640 O 153.016 -3.2072 -2.98446 0
M  V30 1641 C 154.517 -1.76442 -4.06673 0
M  V30 1642 H 151.737 -0.400911 -0.538063 0
M  V30 1643 H 154.281 -1.67332 -1.1756 0
M  V30 1644 H 152.436 -1.33696 -3.63599 0
M  V30 1645 H 152.85 -3.53802 -3.872 0
M  V30 1646 H 154.324 -2.27781 -5.02812 0
M  V30 1647 H 154.801 -0.731608 -4.33064 0
M  V30 1648 H 155.407 -2.24238 -3.61382 0
M  V30 1649 N 153.722 1.14298 -1.08507 0
M  V30 1650 C 154.67 2.21483 -0.710483 0
M  V30 1651 C 155.664 1.66998 0.284234 0
M  V30 1652 O 156.87 1.79401 0.146692 0
M  V30 1653 H 153.245 0.721578 -0.211729 0
M  V30 1654 H 155.216 2.50348 -1.62384 0
M  V30 1655 C 153.965 3.4743 -0.137007 0
M  V30 1656 H 153.288 3.89686 -0.893592 0
M  V30 1657 H 154.728 4.2391 0.0872789 0
M  V30 1658 C 153.187 3.17548 1.12538 0
M  V30 1659 O 153.717 3.35437 2.21009 0
M  V30 1660 N 151.923 2.71499 1.03617 0
M  V30 1661 H 151.47 2.57143 0.153403 0
M  V30 1662 H 151.428 2.51881 1.88158 0
M  V30 1663 N 155.201 0.870884 1.31352 0
M  V30 1664 C 156.478 0.402907 1.91405 0
M  V30 1665 C 156.858 -1.11512 1.79244 0
M  V30 1666 O 156.206 -1.94411 1.2007 0
M  V30 1667 C 156.416 0.885301 3.37585 0
M  V30 1668 C 157.764 0.911971 4.14691 0
M  V30 1669 O 158.788 0.831016 3.46371 0
M  V30 1670 O 157.647 1.02927 5.3672 0
M  V30 1671 H 154.741 0.120698 0.818145 0
M  V30 1672 H 157.287 0.958857 1.40014 0
M  V30 1673 H 156.059 1.92889 3.40455 0
M  V30 1674 H 155.682 0.307714 3.96407 0
M  V30 1675 N 156.679 -1.44442 0.630414 0
M  V30 1676 C 157.609 -2.33418 -0.0618083 0
M  V30 1677 C 158.59 -1.48165 -0.835541 0
M  V30 1678 O 159.775 -1.76886 -0.801564 0
M  V30 1679 C 156.905 -3.31222 -1.04449 0
M  V30 1680 C 155.859 -4.26288 -0.382436 0
M  V30 1681 C 155.185 -5.13954 -1.47497 0
M  V30 1682 C 156.485 -5.1744 0.710865 0
M  V30 1683 H 158.179 -2.91548 0.681184 0
M  V30 1684 H 155.725 -1.40191 0.329026 0
M  V30 1685 H 157.678 -3.92351 -1.53748 0
M  V30 1686 H 156.402 -2.71299 -1.81836 0
M  V30 1687 H 155.061 -3.6649 0.0899054 0
M  V30 1688 H 154.709 -4.50385 -2.2397 0
M  V30 1689 H 154.409 -5.7837 -1.03737 0
M  V30 1690 H 155.933 -5.77955 -1.96979 0
M  V30 1691 H 157.347 -5.72509 0.300996 0
M  V30 1692 H 155.744 -5.90455 1.07156 0
M  V30 1693 H 156.814 -4.58496 1.57829 0
M  V30 1694 N 158.157 -0.370918 -1.53173 0
M  V30 1695 C 159.387 0.217389 -2.05453 0
M  V30 1696 C 159.795 1.42568 -1.24382 0
M  V30 1697 O 159.138 1.81571 -0.278839 0
M  V30 1698 C 159.2 0.669827 -3.53205 0
M  V30 1699 C 158.864 -0.4225 -4.55043 0
M  V30 1700 C 159.861 -1.27407 -5.04047 0
M  V30 1701 C 157.546 -0.58427 -4.9889 0
M  V30 1702 C 159.54 -2.27271 -5.95505 0
M  V30 1703 C 157.227 -1.58627 -5.90153 0
M  V30 1704 C 158.225 -2.42892 -6.38351 0
M  V30 1705 O 157.913 -3.41382 -7.27814 0
M  V30 1706 H 157.645 0.0408171 -0.674767 0
M  V30 1707 H 160.199 -0.5292 -1.98466 0
M  V30 1708 H 158.429 1.4681 -3.57748 0
M  V30 1709 H 160.118 1.18173 -3.88317 0
M  V30 1710 H 160.884 -1.16031 -4.70916 0
M  V30 1711 H 156.763 0.061851 -4.60959 0
M  V30 1712 H 160.307 -2.93079 -6.33049 0
M  V30 1713 H 156.204 -1.70048 -6.22699 0
M  V30 1714 H 156.972 -3.37173 -7.45826 0
M  V30 1715 N 159.635 1.57281 -0.100228 0
M  V30 1716 C 160.585 2.10848 0.86759 0
M  V30 1717 C 161.569 1.02473 1.24049 0
M  V30 1718 O 162.761 1.28739 1.21471 0
M  V30 1719 C 159.89 2.69648 2.12474 0
M  V30 1720 C 158.976 3.85074 1.77704 0
M  V30 1721 N 159.367 4.92897 1.13518 0
M  V30 1722 C 157.665 3.94905 2.07282 0
M  V30 1723 C 158.366 5.73475 0.974735 0
M  V30 1724 N 157.342 5.22675 1.4937 0
M  V30 1725 H 161.144 2.91594 0.367471 0
M  V30 1726 H 158.658 1.62074 0.102829 0
M  V30 1727 H 160.655 3.06356 2.82757 0
M  V30 1728 H 159.315 1.90359 2.63047 0
M  V30 1729 H 160.326 5.11662 0.801381 0
M  V30 1730 H 157.003 3.26633 2.60033 0
M  V30 1731 H 158.393 6.70238 0.472364 0
M  V30 1732 N 161.113 -0.173488 1.56642 0
M  V30 1733 C 162.076 -1.19859 1.95362 0
M  V30 1734 C 163.076 -1.37296 0.83704 0
M  V30 1735 O 164.266 -1.34739 1.10413 0
M  V30 1736 C 161.398 -2.56405 2.24654 0
M  V30 1737 H 162.591 -0.867062 2.87092 0
M  V30 1738 H 160.144 -0.415853 1.50666 0
M  V30 1739 H 160.879 -2.94576 1.35631 0
M  V30 1740 H 160.664 -2.45115 3.06041 0
M  V30 1741 H 162.154 -3.30287 2.5554 0
M  V30 1742 N 162.591 -1.51276 -0.441967 0
M  V30 1743 C 163.839 -1.63392 -1.18943 0
M  V30 1744 C 164.16 -0.350159 -1.9183 0
M  V30 1745 O 163.43 0.633784 -1.85364 0
M  V30 1746 H 162.01 -0.602164 -0.442049 0
M  V30 1747 H 164.672 -1.88186 -0.507165 0
M  V30 1748 H 163.768 -2.45934 -1.92154 0
M  V30 1749 N 164.069 0.697108 -1.41344 0
M  V30 1750 C 164.979 1.84088 -1.45427 0
M  V30 1751 C 165.995 1.70545 -0.34501 0
M  V30 1752 O 167.171 1.92488 -0.592492 0
M  V30 1753 C 164.236 3.20056 -1.33286 0
M  V30 1754 C 163.297 3.45718 -2.54514 0
M  V30 1755 C 162.53 4.75199 -2.42944 0
M  V30 1756 O 162.753 5.51579 -1.45318 0
M  V30 1757 O 161.687 5.0161 -3.32672 0
M  V30 1758 H 165.513 1.836 -2.41919 0
M  V30 1759 H 163.098 0.849966 -1.22866 0
M  V30 1760 H 164.98 4.01236 -1.28794 0
M  V30 1761 H 163.655 3.2123 -0.39909 0
M  V30 1762 H 162.562 2.64474 -2.64583 0
M  V30 1763 H 163.895 3.49356 -3.46715 0
M  V30 1764 N 165.547 1.27147 0.931209 0
M  V30 1765 C 166.477 1.12081 2.04842 0
M  V30 1766 C 167.458 0.0232364 1.70084 0
M  V30 1767 O 168.643 0.197085 1.93197 0
M  V30 1768 C 165.773 0.76354 3.38803 0
M  V30 1769 C 164.727 1.81396 3.87659 0
M  V30 1770 C 164.053 1.31075 5.18385 0
M  V30 1771 C 165.353 3.21739 4.11438 0
M  V30 1772 H 167.047 2.05537 2.17703 0
M  V30 1773 H 164.593 0.989603 1.04608 0
M  V30 1774 H 166.546 0.644982 4.16435 0
M  V30 1775 H 165.27 -0.206727 3.25945 0
M  V30 1776 H 163.929 1.92136 3.12217 0
M  V30 1777 H 163.577 0.330037 5.01916 0
M  V30 1778 H 163.277 2.013 5.52044 0
M  V30 1779 H 164.801 1.20506 5.98591 0
M  V30 1780 H 166.215 3.14019 4.79651 0
M  V30 1781 H 164.612 3.89644 4.56397 0
M  V30 1782 H 165.682 3.67054 3.16859 0
M  V30 1783 N 167.025 -1.13721 1.09112 0
M  V30 1784 C 167.955 -2.21148 0.749385 0
M  V30 1785 C 168.936 -1.6792 -0.271475 0
M  V30 1786 O 170.121 -1.93693 -0.140251 0
M  V30 1787 C 167.251 -3.46905 0.165659 0
M  V30 1788 C 166.205 -4.13203 1.11567 0
M  V30 1789 C 165.531 -5.33248 0.393809 0
M  V30 1790 C 166.831 -4.60912 2.45678 0
M  V30 1791 H 168.525 -2.4999 1.64758 0
M  V30 1792 H 166.071 -1.20156 0.793626 0
M  V30 1793 H 168.024 -4.21313 -0.085466 0
M  V30 1794 H 166.748 -3.17449 -0.767714 0
M  V30 1795 H 165.407 -3.40758 1.35202 0
M  V30 1796 H 165.055 -5.00054 -0.543599 0
M  V30 1797 H 164.755 -5.78552 1.02721 0
M  V30 1798 H 166.279 -6.10413 0.150908 0
M  V30 1799 H 167.693 -5.26759 2.26269 0
M  V30 1800 H 166.09 -5.16944 3.04776 0
M  V30 1801 H 167.16 -3.75603 3.06677 0
M  V30 1802 N 168.503 -0.877838 -1.30888 0
M  V30 1803 C 169.466 -0.344265 -2.266 0
M  V30 1804 C 170.466 0.50922 -1.52524 0
M  V30 1805 O 171.656 0.317398 -1.71284 0
M  V30 1806 C 168.788 0.510198 -3.37061 0
M  V30 1807 H 169.981 -1.1893 -2.7531 0
M  V30 1808 H 167.534 -0.654088 -1.41956 0
M  V30 1809 H 168.269 1.37612 -2.93655 0
M  V30 1810 H 168.054 -0.101047 -3.9197 0
M  V30 1811 H 169.544 0.875537 -4.08319 0
M  V30 1812 N 169.982 1.44106 -0.638065 0
M  V30 1813 C 170.912 2.33448 0.0494287 0
M  V30 1814 C 171.893 1.48606 0.827672 0
M  V30 1815 O 173.078 1.77308 0.792173 0
M  V30 1816 C 170.208 3.31771 1.02691 0
M  V30 1817 C 169.162 4.26485 0.359823 0
M  V30 1818 C 168.488 5.14729 1.44769 0
M  V30 1819 C 169.788 5.17056 -0.738296 0
M  V30 1820 H 171.482 2.91183 -0.696636 0
M  V30 1821 H 169.028 1.40014 -0.336456 0
M  V30 1822 H 170.981 3.93161 1.51666 0
M  V30 1823 H 169.705 2.7226 1.80395 0
M  V30 1824 H 168.364 3.66437 -0.10934 0
M  V30 1825 H 168.012 4.51566 2.21578 0
M  V30 1826 H 167.712 5.78913 1.00668 0
M  V30 1827 H 169.236 5.78991 1.93911 0
M  V30 1828 H 170.65 5.72342 -0.331354 0
M  V30 1829 H 169.047 5.89879 -1.10286 0
M  V30 1830 H 170.117 4.57652 -1.60258 0
M  V30 1831 N 171.46 0.379036 1.52974 0
M  V30 1832 C 172.39 -0.452706 2.29069 0
M  V30 1833 C 173.371 -1.07237 1.32039 0
M  V30 1834 O 174.556 -1.08708 1.60923 0
M  V30 1835 C 171.686 -1.5856 3.08992 0
M  V30 1836 C 170.64 -1.0925 4.13822 0
M  V30 1837 C 169.966 -2.31668 4.81907 0
M  V30 1838 C 171.266 -0.167702 5.22031 0
M  V30 1839 H 172.96 0.182181 2.98845 0
M  V30 1840 H 170.506 0.0890592 1.43724 0
M  V30 1841 H 172.459 -2.1742 3.6098 0
M  V30 1842 H 171.183 -2.24792 2.36931 0
M  V30 1843 H 169.842 -0.526494 3.628 0
M  V30 1844 H 169.49 -2.96386 4.06404 0
M  V30 1845 H 169.19 -1.9934 5.52754 0
M  V30 1846 H 170.714 -2.91189 5.36695 0
M  V30 1847 H 172.128 -0.664186 5.6944 0
M  V30 1848 H 170.525 0.0653265 6.00064 0
M  V30 1849 H 171.595 0.786347 4.78482 0
M  V30 1850 N 172.938 -1.57226 0.108567 0
M  V30 1851 C 174.215 -1.86333 -0.594939 0
M  V30 1852 C 174.595 -1.00788 -1.85486 0
M  V30 1853 O 173.943 -0.0839293 -2.28346 0
M  V30 1854 C 174.153 -3.37265 -0.897405 0
M  V30 1855 C 175.501 -4.05629 -1.25501 0
M  V30 1856 O 176.525 -3.42224 -0.987998 0
M  V30 1857 O 175.384 -5.17531 -1.75567 0
M  V30 1858 H 172.478 -0.771018 -0.2991 0
M  V30 1859 H 175.024 -1.69102 0.142283 0
M  V30 1860 H 173.796 -3.913 -0.00413806 0
M  V30 1861 H 173.419 -3.59889 -1.69014 0
M  V30 1862 N 174.416 0.165178 -1.56732 0
M  V30 1863 C 175.662 0.882112 -1.82611 0
M  V30 1864 C 175.995 1.81628 -0.687378 0
M  V30 1865 O 175.27 1.92009 0.310267 0
M  V30 1866 C 175.553 1.67245 -3.18906 0
M  V30 1867 C 175.406 0.760987 -4.43316 0
M  V30 1868 C 176.725 2.63884 -3.52212 0
M  V30 1869 H 173.844 0.319242 -0.664269 0
M  V30 1870 H 176.486 0.148052 -1.89422 0
M  V30 1871 H 174.636 2.29824 -3.1323 0
M  V30 1872 H 176.308 0.147596 -4.61064 0
M  V30 1873 H 174.551 0.0694102 -4.33744 0
M  V30 1874 H 175.222 1.34962 -5.35247 0
M  V30 1875 H 177.698 2.11429 -3.58381 0
M  V30 1876 H 176.574 3.16245 -4.48643 0
M  V30 1877 H 176.835 3.44377 -2.77231 0
M  V30 1878 N 175.894 1.51508 0.433938 0
M  V30 1879 C 176.842 1.73646 1.54757 0
M  V30 1880 C 177.836 0.602854 1.5831 0
M  V30 1881 O 179.042 0.784318 1.62014 0
M  V30 1882 H 175.417 0.548718 0.51421 0
M  V30 1883 H 177.388 2.66991 1.33261 0
M  V30 1884 C 176.137 1.88172 2.92381 0
M  V30 1885 H 175.46 2.74808 2.90381 0
M  V30 1886 H 176.9 2.07672 3.6966 0
M  V30 1887 C 175.359 0.64239 3.30719 0
M  V30 1888 O 175.889 -0.201362 4.01195 0
M  V30 1889 N 174.095 0.485489 2.86516 0
M  V30 1890 H 173.642 1.17318 2.29334 0
M  V30 1891 H 173.6 -0.342482 3.12529 0
M  V30 1892 N 177.372 -0.689602 1.41712 0
M  V30 1893 C 178.302 -1.81577 1.46806 0
M  V30 1894 C 179.283 -1.66945 0.326105 0
M  V30 1895 O 180.468 -1.86588 0.538377 0
M  V30 1896 C 177.598 -3.19762 1.35535 0
M  V30 1897 C 176.552 -3.49107 2.47605 0
M  V30 1898 C 175.878 -4.86711 2.21397 0
M  V30 1899 C 177.178 -3.47483 3.89939 0
M  V30 1900 H 178.872 -1.7757 2.41058 0
M  V30 1901 H 176.418 -0.852887 1.16025 0
M  V30 1902 H 178.371 -3.98263 1.3771 0
M  V30 1903 H 177.095 -3.24409 0.377708 0
M  V30 1904 H 175.754 -2.72959 2.44722 0
M  V30 1905 H 175.402 -4.8799 1.21961 0
M  V30 1906 H 175.102 -5.0731 2.96497 0
M  V30 1907 H 176.626 -5.67515 2.25297 0
M  V30 1908 H 178.04 -4.1598 3.94505 0
M  V30 1909 H 176.437 -3.79615 4.64771 0
M  V30 1910 H 177.507 -2.46341 4.17665 0
M  V30 1911 N 178.85 -1.27639 -0.924453 0
M  V30 1912 C 179.782 -1.06442 -2.02985 0
M  V30 1913 C 180.795 -0.0194771 -1.62788 0
M  V30 1914 O 181.984 -0.261388 -1.76576 0
M  V30 1915 C 179.084 -0.59327 -3.33667 0
M  V30 1916 C 178.257 -1.71123 -4.02537 0
M  V30 1917 C 177.316 -1.23527 -5.11495 0
M  V30 1918 O 176.342 -1.93553 -5.35281 0
M  V30 1919 N 177.544 -0.0926678 -5.80426 0
M  V30 1920 H 180.309 -2.01633 -2.2173 0
M  V30 1921 H 177.87 -1.19248 -1.09505 0
M  V30 1922 H 179.862 -0.258686 -4.03872 0
M  V30 1923 H 178.432 0.265502 -3.1147 0
M  V30 1924 H 177.652 -2.21593 -3.26022 0
M  V30 1925 H 178.94 -2.46145 -4.45298 0
M  V30 1926 H 178.338 0.491741 -5.63559 0
M  V30 1927 H 176.895 0.182714 -6.51544 0
M  V30 1928 N 180.328 1.1314 -1.09713 0
M  V30 1929 C 181.577 1.83838 -0.829851 0
M  V30 1930 C 181.89 1.84599 0.646728 0
M  V30 1931 O 183.096 2.51218 1.02965 0
M  V30 1932 C 181.552 3.30069 -1.43466 0
M  V30 1933 C 181.16 3.37688 -2.94399 0
M  V30 1934 C 182.904 4.05788 -1.24645 0
M  V30 1935 C 180.811 4.78209 -3.47952 0
M  V30 1936 H 179.741 0.68877 -0.306777 0
M  V30 1937 H 182.392 1.27448 -1.3202 0
M  V30 1938 H 180.774 3.8628 -0.871996 0
M  V30 1939 H 181.948 2.91456 -3.56918 0
M  V30 1940 H 180.263 2.75436 -3.12289 0
M  V30 1941 H 182.86 5.09535 -1.62107 0
M  V30 1942 H 183.203 4.15878 -0.187357 0
M  V30 1943 H 183.736 3.55915 -1.77678 0
M  V30 1944 H 180.475 4.73311 -4.53495 0
M  V30 1945 H 179.995 5.24924 -2.90198 0
M  V30 1946 H 181.674 5.47133 -3.45332 0
M  V30 1947 N 181.806 0.884767 1.30421 0
M  V30 1948 C 183.217 0.553656 1.78302 0
M  V30 1949 C 183.568 -0.930153 1.7275 0
M  V30 1950 O 182.693 -1.72681 1.30423 0
M  V30 1951 C 183.288 0.998234 3.2376 0
M  V30 1952 C 181.847 0.71854 3.69478 0
M  V30 1953 C 180.994 1.18132 2.50879 0
M  V30 1954 H 183.945 1.06901 1.17294 0
M  V30 1955 H 183.966 0.327118 3.79091 0
M  V30 1956 H 183.478 2.0782 3.27769 0
M  V30 1957 H 181.579 -0.349444 3.70958 0
M  V30 1958 H 181.692 1.30595 4.60958 0
M  V30 1959 H 180.056 0.600669 2.47516 0
M  V30 1960 H 180.839 2.26902 2.57624 0
M  V30 1961 N 183.284 -1.43765 0.645699 0
M  V30 1962 C 184.561 -1.9541 0.0862963 0
M  V30 1963 C 184.941 -1.58725 -1.39175 0
M  V30 1964 O 184.289 -0.868581 -2.11348 0
M  V30 1965 C 184.499 -3.47488 0.324565 0
M  V30 1966 C 185.847 -4.24001 0.225497 0
M  V30 1967 O 186.871 -3.55274 0.256715 0
M  V30 1968 O 185.73 -5.46313 0.142801 0
M  V30 1969 H 182.824 -0.826882 -0.0139483 0
M  V30 1970 H 185.37 -1.53743 0.718415 0
M  V30 1971 H 184.142 -3.67289 1.3496 0
M  V30 1972 H 183.765 -3.96135 -0.340987 0
M  V30 1973 N 184.763 -0.387143 -1.52771 0
M  V30 1974 C 186.174 0.0873634 -1.86495 0
M  V30 1975 C 186.525 1.46336 -1.30691 0
M  V30 1976 O 185.65 2.068 -0.637409 0
M  V30 1977 C 186.245 0.165305 -3.38396 0
M  V30 1978 C 184.804 0.584101 -3.7184 0
M  V30 1979 C 183.951 -0.255279 -2.76122 0
M  V30 1980 H 186.902 -0.605104 -1.46711 0
M  V30 1981 H 186.923 0.984848 -3.67534 0
M  V30 1982 H 186.435 -0.836301 -3.78982 0
M  V30 1983 H 184.536 1.59315 -3.36823 0
M  V30 1984 H 184.649 0.343749 -4.77865 0
M  V30 1985 H 183.013 0.279126 -2.53166 0
M  V30 1986 H 183.796 -1.25482 -3.19545 0
M  V30 1987 N 186.241 1.57166 -0.116904 0
M  V30 1988 C 187.191 2.11756 0.845178 0
M  V30 1989 C 188.175 1.03783 1.22955 0
M  V30 1990 O 189.367 1.3002 1.20099 0
M  V30 1991 C 186.496 2.71886 2.09602 0
M  V30 1992 C 185.582 3.86937 1.7361 0
M  V30 1993 N 185.973 4.94073 1.08284 0
M  V30 1994 C 184.271 3.97082 2.03082 0
M  V30 1995 C 184.972 5.74477 0.913855 0
M  V30 1996 N 183.948 5.2423 1.43818 0
M  V30 1997 H 187.75 2.91967 0.336523 0
M  V30 1998 H 185.264 1.62174 0.0856332 0
M  V30 1999 H 187.261 3.09338 2.79492 0
M  V30 2000 H 185.921 1.93138 2.61013 0
M  V30 2001 H 186.932 5.12483 0.747067 0
M  V30 2002 H 183.609 3.29372 2.56554 0
M  V30 2003 H 184.999 6.70701 0.40125 0
M  V30 2004 N 187.719 -0.156864 1.56817 0
M  V30 2005 C 188.649 -1.19589 2.00551 0
M  V30 2006 C 189.63 -1.4536 0.883426 0
M  V30 2007 O 190.815 -1.56449 1.15054 0
M  V30 2008 C 187.945 -2.53143 2.37773 0
M  V30 2009 C 186.899 -2.41913 3.53075 0
M  V30 2010 C 186.225 -3.80088 3.76081 0
M  V30 2011 C 187.525 -1.91157 4.86062 0
M  V30 2012 H 189.219 -0.832293 2.87599 0
M  V30 2013 H 186.765 -0.398918 1.38364 0
M  V30 2014 H 188.718 -3.26047 2.66967 0
M  V30 2015 H 187.442 -2.91319 1.4765 0
M  V30 2016 H 186.101 -1.71462 3.24031 0
M  V30 2017 H 185.749 -4.15683 2.83225 0
M  V30 2018 H 185.449 -3.73439 4.53671 0
M  V30 2019 H 186.973 -4.54556 4.0769 0
M  V30 2020 H 188.387 -2.53846 5.14038 0
M  V30 2021 H 186.784 -1.95422 5.67389 0
M  V30 2022 H 187.854 -0.866673 4.77092 0
M  V30 2023 N 189.197 -1.51736 -0.425897 0
M  V30 2024 C 190.16 -1.73271 -1.50032 0
M  V30 2025 C 191.16 -0.602639 -1.4908 0
M  V30 2026 O 192.35 -0.87033 -1.509 0
M  V30 2027 C 189.482 -1.79969 -2.89523 0
M  V30 2028 H 190.675 -2.69172 -1.32237 0
M  V30 2029 H 188.228 -1.41899 -0.65532 0
M  V30 2030 H 188.963 -0.859241 -3.1271 0
M  V30 2031 H 188.748 -2.62109 -2.91619 0
M  V30 2032 H 190.238 -1.9843 -3.67444 0
M  V30 2033 N 190.675 0.682077 -1.42076 0
M  V30 2034 C 191.952 1.43755 -1.32642 0
M  V30 2035 C 192.332 2.11063 0.0396611 0
M  V30 2036 O 191.68 2.02701 1.05474 0
M  V30 2037 C 191.89 2.44596 -2.48946 0
M  V30 2038 C 193.238 3.09454 -2.9073 0
M  V30 2039 O 194.262 2.54922 -2.48783 0
M  V30 2040 O 193.121 4.08253 -3.63307 0
M  V30 2041 H 190.215 0.640857 -0.522715 0
M  V30 2042 H 192.761 0.711415 -1.54068 0
M  V30 2043 H 191.533 1.93609 -3.40046 0
M  V30 2044 H 191.156 3.24701 -2.29467 0
M  V30 2045 N 192.153 1.28127 0.917671 0
M  V30 2046 C 193.564 1.13622 1.48145 0
M  V30 2047 C 193.915 -0.275207 1.9426 0
M  V30 2048 O 193.04 -1.1691 1.82102 0
M  V30 2049 C 193.635 2.05648 2.69248 0
M  V30 2050 C 192.194 1.95219 3.21818 0
M  V30 2051 C 191.341 1.97618 1.94532 0
M  V30 2052 H 194.292 1.40874 0.730772 0
M  V30 2053 H 194.313 1.61818 3.44377 0
M  V30 2054 H 193.825 3.08365 2.35653 0
M  V30 2055 H 191.926 0.955244 3.60147 0
M  V30 2056 H 192.039 2.81976 3.87333 0
M  V30 2057 H 190.403 1.41973 2.11461 0
M  V30 2058 H 191.186 3.02007 1.63238 0
M  V30 2059 N 193.631 -1.12557 1.10312 0
M  V30 2060 C 194.856 -1.88405 0.867085 0
M  V30 2061 C 195.281 -1.79038 -0.576817 0
M  V30 2062 O 194.639 -1.14439 -1.40618 0
M  V30 2063 C 194.687 -3.3563 1.31851 0
M  V30 2064 O 193.791 -4.09565 0.482734 0
M  V30 2065 H 193.132 -0.585455 0.313271 0
M  V30 2066 H 195.662 -1.42352 1.4696 0
M  V30 2067 H 195.672 -3.86469 1.3079 0
M  V30 2068 H 194.347 -3.41765 2.37001 0
M  V30 2069 H 192.924 -3.68695 0.558448 0
M  V30 2070 N 195.109 -0.891671 -1.2995 0
M  V30 2071 C 196.355 -0.514261 -1.96171 0
M  V30 2072 C 196.688 0.935506 -1.70182 0
M  V30 2073 O 195.963 1.66204 -1.01028 0
M  V30 2074 C 196.246 -0.797719 -3.51153 0
M  V30 2075 C 196.099 -2.2986 -3.86632 0
M  V30 2076 C 197.418 -0.278749 -4.39216 0
M  V30 2077 H 194.537 -0.188314 -0.712535 0
M  V30 2078 H 197.179 -1.11689 -1.53706 0
M  V30 2079 H 195.329 -0.284826 -3.87455 0
M  V30 2080 H 197.001 -2.88042 -3.60319 0
M  V30 2081 H 195.244 -2.76257 -3.34462 0
M  V30 2082 H 195.915 -2.44753 -4.94773 0
M  V30 2083 H 198.391 -0.717825 -4.09862 0
M  V30 2084 H 197.267 -0.506353 -5.46559 0
M  V30 2085 H 197.528 0.820266 -4.34424 0
M  V30 2086 N 196.587 1.43421 -0.653314 0
M  V30 2087 C 197.517 2.33487 0.0246656 0
M  V30 2088 C 198.498 1.49475 0.811863 0
M  V30 2089 O 199.683 1.78139 0.773322 0
M  V30 2090 C 196.813 3.32841 0.99166 0
M  V30 2091 C 195.767 4.26842 0.314568 0
M  V30 2092 C 195.093 5.16236 1.39302 0
M  V30 2093 C 196.393 5.16243 -0.793095 0
M  V30 2094 H 198.087 2.90427 -0.727481 0
M  V30 2095 H 195.633 1.39649 -0.351287 0
M  V30 2096 H 197.586 3.94747 1.47487 0
M  V30 2097 H 196.31 2.74158 1.77497 0
M  V30 2098 H 194.969 3.663 -0.148199 0
M  V30 2099 H 194.617 4.53891 2.16776 0
M  V30 2100 H 194.317 5.79948 0.945223 0
M  V30 2101 H 195.841 5.81015 1.87759 0
M  V30 2102 H 197.255 5.71958 -0.392039 0
M  V30 2103 H 195.652 5.88676 -1.16536 0
M  V30 2104 H 196.722 4.55927 -1.65103 0
M  V30 2105 N 198.065 0.39524 1.52563 0
M  V30 2106 C 198.975 -0.444232 2.30356 0
M  V30 2107 C 199.991 -1.06615 1.37511 0
M  V30 2108 O 201.167 -1.07067 1.70583 0
M  V30 2109 C 198.232 -1.55315 3.09964 0
M  V30 2110 C 197.293 -0.955734 4.18526 0
M  V30 2111 C 196.526 -2.01181 4.9433 0
M  V30 2112 O 196.749 -3.22781 4.70285 0
M  V30 2113 O 195.683 -1.62579 5.79527 0
M  V30 2114 H 199.509 0.189667 3.03107 0
M  V30 2115 H 197.094 0.1588 1.48554 0
M  V30 2116 H 198.976 -2.19724 3.59582 0
M  V30 2117 H 197.651 -2.17191 2.4002 0
M  V30 2118 H 196.558 -0.274743 3.7309 0
M  V30 2119 H 197.891 -0.381109 4.90722 0
M  V30 2120 N 199.544 -1.57102 0.125237 0
M  V30 2121 C 200.507 -2.14471 -0.80838 0
M  V30 2122 C 201.507 -1.0811 -1.19033 0
M  V30 2123 O 202.697 -1.33856 -1.11482 0
M  V30 2124 C 199.829 -2.69005 -2.09402 0
M  V30 2125 H 201.022 -2.98297 -0.309696 0
M  V30 2126 H 198.575 -1.55807 -0.124051 0
M  V30 2127 H 199.31 -1.88785 -2.63687 0
M  V30 2128 H 199.095 -3.46799 -1.82957 0
M  V30 2129 H 200.585 -3.13278 -2.76128 0
M  V30 2130 N 201.022 0.148545 -1.56898 0
M  V30 2131 C 201.952 1.18524 -2.01182 0
M  V30 2132 C 202.933 1.4489 -0.891123 0
M  V30 2133 O 204.118 1.55836 -1.15882 0
M  V30 2134 C 201.248 2.51879 -2.39112 0
M  V30 2135 C 200.202 2.40038 -3.54353 0
M  V30 2136 C 199.528 3.78089 -3.78091 0
M  V30 2137 C 200.828 1.88577 -4.87069 0
M  V30 2138 H 202.522 0.817029 -2.88036 0
M  V30 2139 H 200.068 0.391575 -1.38574 0
M  V30 2140 H 202.021 3.24627 -2.68692 0
M  V30 2141 H 200.745 2.90532 -1.49193 0
M  V30 2142 H 199.404 1.69742 -3.24936 0
M  V30 2143 H 199.052 4.14175 -2.85426 0
M  V30 2144 H 198.752 3.71028 -4.55645 0
M  V30 2145 H 200.276 4.52387 -4.10095 0
M  V30 2146 H 201.69 2.51117 -5.15377 0
M  V30 2147 H 200.087 1.9241 -5.68417 0
M  V30 2148 H 201.157 0.84136 -4.77545 0
M  V30 2149 N 202.5 1.5196 0.417844 0
M  V30 2150 C 203.916 1.40569 0.755816 0
M  V30 2151 C 204.116 0.503316 1.95113 0
M  V30 2152 O 203.172 -0.0341925 2.52477 0
M  V30 2153 C 204.485 2.82947 1.01791 0
M  V30 2154 C 206.033 2.92231 1.12116 0
M  V30 2155 C 206.508 4.35559 1.41608 0
M  V30 2156 N 207.999 4.38753 1.48491 0
M  V30 2157 C 208.734 5.46705 1.7292 0
M  V30 2158 N 208.23 6.64788 1.95011 0
M  V30 2159 N 210.023 5.34209 1.74863 0
M  V30 2160 H 202.174 2.09168 -0.369098 0
M  V30 2161 H 204.437 0.942409 -0.102809 0
M  V30 2162 H 204.143 3.5106 0.212081 0
M  V30 2163 H 204.017 3.23462 1.94042 0
M  V30 2164 H 206.404 2.24304 1.9176 0
M  V30 2165 H 206.485 2.55185 0.177225 0
M  V30 2166 H 206.129 5.04042 0.624848 0
M  V30 2167 H 206.059 4.70133 2.37239 0
M  V30 2168 H 208.55 3.5363 1.33244 0
M  V30 2169 H 208.863 7.42845 2.13076 0
M  V30 2170 H 207.208 6.67869 1.92293 0
M  V30 2171 H 210.399 4.40937 1.57137 0
M  V30 2172 H 210.572 6.18415 1.93563 0
M  V30 2173 N 203.978 -0.674533 1.42435 0
M  V30 2174 C 204.91 -1.80005 1.41883 0
M  V30 2175 C 205.923 -1.59667 0.31787 0
M  V30 2176 O 207.112 -1.68781 0.580973 0
M  V30 2177 C 204.212 -3.17114 1.19549 0
M  V30 2178 C 203.385 -3.64299 2.42084 0
M  V30 2179 C 202.444 -4.80142 2.15291 0
M  V30 2180 O 201.47 -4.90673 2.88493 0
M  V30 2181 N 202.672 -5.68869 1.1562 0
M  V30 2182 H 205.437 -1.80964 2.38898 0
M  V30 2183 H 202.998 -0.857633 1.37318 0
M  V30 2184 H 204.99 -3.92267 0.995417 0
M  V30 2185 H 203.56 -3.11053 0.310569 0
M  V30 2186 H 202.78 -2.79822 2.77657 0
M  V30 2187 H 204.068 -3.92567 3.23679 0
M  V30 2188 H 203.466 -5.63012 0.550765 0
M  V30 2189 H 202.023 -6.43833 1.016 0
M  V30 2190 N 205.456 -1.28612 -0.910864 0
M  V30 2191 C 206.403 -1.12786 -2.01365 0
M  V30 2192 C 207.373 -0.024201 -1.66082 0
M  V30 2193 O 208.558 -0.189667 -1.89855 0
M  V30 2194 C 205.698 -0.798743 -3.35729 0
M  V30 2195 C 204.811 -1.98173 -3.83864 0
M  V30 2196 C 203.946 -1.59298 -5.06752 0
M  V30 2197 C 202.985 -2.74245 -5.47226 0
M  V30 2198 N 202.122 -2.35842 -6.61304 0
M  V30 2199 H 206.962 -2.07142 -2.14234 0
M  V30 2200 H 204.499 -1.03093 -1.0493 0
M  V30 2201 H 206.457 -0.588662 -4.13026 0
M  V30 2202 H 205.087 0.10789 -3.2262 0
M  V30 2203 H 204.139 -2.30386 -3.02699 0
M  V30 2204 H 205.451 -2.84343 -4.09818 0
M  V30 2205 H 204.605 -1.34513 -5.916 0
M  V30 2206 H 203.344 -0.702618 -4.82612 0
M  V30 2207 H 202.349 -2.99725 -4.60918 0
M  V30 2208 H 203.574 -3.63928 -5.73353 0
M  V30 2209 H 201.52 -1.49279 -6.38789 0
M  V30 2210 H 201.437 -3.15546 -6.86998 0
M  V30 2211 H 202.705 -2.14348 -7.4945 0
M  V30 2212 N 206.934 1.1197 -1.10907 0
M  V30 2213 C 207.897 2.16031 -0.765707 0
M  V30 2214 C 208.897 1.59393 0.212235 0
M  V30 2215 O 210.087 1.74196 -0.0115441 0
M  V30 2216 C 207.219 3.40632 -0.135053 0
M  V30 2217 H 208.412 2.47919 -1.68748 0
M  V30 2218 H 205.965 1.27061 -0.910226 0
M  V30 2219 H 206.7 3.14348 0.797218 0
M  V30 2220 H 206.485 3.8302 -0.838937 0
M  V30 2221 H 207.975 4.17505 0.0892469 0
M  V30 2222 N 208.412 0.89855 1.29475 0
M  V30 2223 C 209.36 0.365253 2.29714 0
M  V30 2224 C 210.354 -0.534993 1.6073 0
M  V30 2225 O 211.56 -0.417921 1.75081 0
M  V30 2226 H 207.935 0.0994853 0.74539 0
M  V30 2227 H 209.906 1.22406 2.72138 0
M  V30 2228 C 208.655 -0.393159 3.4547 0
M  V30 2229 H 207.978 0.290332 3.98744 0
M  V30 2230 H 209.418 -0.731189 4.17648 0
M  V30 2231 C 207.877 -1.59539 2.9673 0
M  V30 2232 O 208.407 -2.69469 2.97908 0
M  V30 2233 N 206.613 -1.43716 2.52575 0
M  V30 2234 H 206.16 -0.542828 2.51816 0
M  V30 2235 H 206.118 -2.24288 2.20323 0
M  V30 2236 N 209.89 -1.43072 0.660911 0
M  V30 2237 C 211.137 -2.01721 0.177445 0
M  V30 2238 C 211.465 -1.5218 -1.21126 0
M  V30 2239 O 210.72 -0.708659 -1.82419 0
M  V30 2240 C 211.019 -3.57103 0.145563 0
M  V30 2241 C 210.685 -4.26021 1.47705 0
M  V30 2242 C 209.347 -4.44563 1.84165 0
M  V30 2243 C 211.699 -4.64983 2.35458 0
M  V30 2244 C 209.027 -4.99334 3.0803 0
M  V30 2245 C 211.379 -5.21127 3.58622 0
M  V30 2246 C 210.043 -5.37884 3.95268 0
M  V30 2247 H 209.313 -0.73815 0.0649317 0
M  V30 2248 H 211.96 -1.71446 0.853144 0
M  V30 2249 H 210.265 -3.86965 -0.61361 0
M  V30 2250 H 211.962 -4.00248 -0.2455 0
M  V30 2251 H 208.552 -4.11939 1.18339 0
M  V30 2252 H 212.736 -4.50343 2.08579 0
M  V30 2253 H 207.992 -5.10493 3.36462 0
M  V30 2254 H 212.166 -5.50262 4.26831 0
M  V30 2255 H 209.793 -5.80089 4.91325 0
M  V30 2256 N 211.368 -0.403325 -1.52352 0
M  V30 2257 C 212.315 0.425011 -2.26853 0
M  V30 2258 C 213.285 1.04598 -1.29029 0
M  V30 2259 O 214.47 1.07135 -1.57882 0
M  V30 2260 C 211.61 1.53888 -3.08889 0
M  V30 2261 C 210.723 0.939396 -4.21663 0
M  V30 2262 C 209.858 2.02547 -4.91068 0
M  V30 2263 C 208.897 1.40263 -5.95813 0
M  V30 2264 N 208.034 2.4286 -6.58759 0
M  V30 2265 H 212.874 -0.21674 -2.97211 0
M  V30 2266 H 210.411 -0.118722 -1.4662 0
M  V30 2267 H 212.369 2.19558 -3.54753 0
M  V30 2268 H 210.999 2.15074 -2.40714 0
M  V30 2269 H 210.051 0.171898 -3.80011 0
M  V30 2270 H 211.363 0.44436 -4.96817 0
M  V30 2271 H 210.517 2.75958 -5.40308 0
M  V30 2272 H 209.256 2.55415 -4.15469 0
M  V30 2273 H 208.261 0.653833 -5.45898 0
M  V30 2274 H 209.486 0.881719 -6.73352 0
M  V30 2275 H 207.432 2.94871 -5.85992 0
M  V30 2276 H 207.349 1.98152 -7.2957 0
M  V30 2277 H 208.617 3.15858 -7.12639 0
M  V30 2278 N 212.846 1.57033 -0.133567 0
M  V30 2279 C 213.796 2.12641 0.822671 0
M  V30 2280 C 214.78 1.05081 1.21847 0
M  V30 2281 O 215.972 1.31287 1.18713 0
M  V30 2282 C 213.101 2.74094 2.06706 0
M  V30 2283 C 212.187 3.88757 1.69497 0
M  V30 2284 N 212.578 4.95194 1.03037 0
M  V30 2285 C 210.876 3.99213 1.98859 0
M  V30 2286 C 211.577 5.75414 0.852873 0
M  V30 2287 N 210.553 5.25726 1.3825 0
M  V30 2288 H 214.355 2.92308 0.305537 0
M  V30 2289 H 211.869 1.62256 0.0684276 0
M  V30 2290 H 213.866 3.12285 2.76195 0
M  V30 2291 H 212.526 1.95896 2.5895 0
M  V30 2292 H 213.537 5.13247 0.692669 0
M  V30 2293 H 210.214 3.32075 2.53047 0
M  V30 2294 H 211.604 6.71089 0.330091 0
M  V30 2295 N 214.325 -0.140222 1.56975 0
M  V30 2296 C 215.555 -0.865181 1.87612 0
M  V30 2297 C 215.963 -1.74942 0.72055 0
M  V30 2298 O 215.306 -1.80917 -0.318561 0
M  V30 2299 C 215.368 -1.76782 3.13031 0
M  V30 2300 C 215.032 -1.06005 4.44536 0
M  V30 2301 C 216.029 -0.410768 5.18275 0
M  V30 2302 C 213.714 -1.04754 4.91255 0
M  V30 2303 C 215.708 0.241572 6.36942 0
M  V30 2304 C 213.395 -0.391394 6.09845 0
M  V30 2305 C 214.393 0.252029 6.82535 0
M  V30 2306 O 214.081 0.897757 7.98871 0
M  V30 2307 H 213.813 -0.255188 0.625983 0
M  V30 2308 H 216.367 -0.135653 2.04952 0
M  V30 2309 H 214.597 -2.53846 2.91718 0
M  V30 2310 H 216.286 -2.36533 3.29859 0
M  V30 2311 H 217.052 -0.412195 4.83245 0
M  V30 2312 H 212.931 -1.53777 4.34596 0
M  V30 2313 H 216.475 0.744375 6.93617 0
M  V30 2314 H 212.372 -0.387656 6.44335 0
M  V30 2315 H 213.14 0.800102 8.1458 0
M  V30 2316 N 215.803 -1.52179 -0.40978 0
M  V30 2317 C 216.75 -1.75475 -1.49924 0
M  V30 2318 C 217.72 -0.597175 -1.54994 0
M  V30 2319 O 218.905 -0.834655 -1.71575 0
M  V30 2320 C 216.045 -1.9107 -2.87378 0
M  V30 2321 C 215.158 -3.18717 -2.91622 0
M  V30 2322 C 214.293 -3.24747 -4.20372 0
M  V30 2323 C 213.332 -4.46598 -4.18588 0
M  V30 2324 N 212.469 -4.50025 -5.38908 0
M  V30 2325 H 217.309 -2.68458 -1.29361 0
M  V30 2326 H 214.846 -1.33024 -0.627934 0
M  V30 2327 H 216.804 -1.98096 -3.6717 0
M  V30 2328 H 215.434 -1.01469 -3.06437 0
M  V30 2329 H 214.486 -3.20866 -2.04326 0
M  V30 2330 H 215.798 -4.08544 -2.86169 0
M  V30 2331 H 214.952 -3.30841 -5.08556 0
M  V30 2332 H 213.691 -2.32857 -4.28519 0
M  V30 2333 H 212.696 -4.40652 -3.28794 0
M  V30 2334 H 213.921 -5.39783 -4.12081 0
M  V30 2335 H 211.867 -3.61017 -5.47725 0
M  V30 2336 H 211.784 -5.33697 -5.35447 0
M  V30 2337 H 213.052 -4.60347 -6.29048 0
M  V30 2338 N 217.281 0.66697 -1.42791 0
M  V30 2339 C 218.692 1.2478 -1.38877 0
M  V30 2340 C 219.043 1.96012 -0.0859426 0
M  V30 2341 O 218.168 2.00463 0.815081 0
M  V30 2342 C 218.763 2.26938 -2.51564 0
M  V30 2343 C 217.322 2.80529 -2.50959 0
M  V30 2344 C 216.469 1.54965 -2.29959 0
M  V30 2345 H 219.42 0.459853 -1.51892 0
M  V30 2346 H 219.441 3.08834 -2.22265 0
M  V30 2347 H 218.953 1.75065 -3.46372 0
M  V30 2348 H 217.054 3.36502 -1.59991 0
M  V30 2349 H 217.167 3.29012 -3.48265 0
M  V30 2350 H 215.531 1.81817 -1.78366 0
M  V30 2351 H 216.314 1.05047 -3.26833 0
M  V30 2352 N 218.759 1.29093 0.90403 0
M  V30 2353 C 219.706 1.13853 2.00764 0
M  V30 2354 C 220.676 0.0330084 1.66067 0
M  V30 2355 O 221.861 0.199733 1.89752 0
M  V30 2356 C 219.001 0.816537 3.35301 0
M  V30 2357 C 218.114 2.00206 3.82807 0
M  V30 2358 C 217.249 1.61983 5.059 0
M  V30 2359 C 216.288 2.77143 5.45764 0
M  V30 2360 N 215.425 2.39346 6.60044 0
M  V30 2361 H 220.265 2.08276 2.13132 0
M  V30 2362 H 217.802 1.03648 1.04381 0
M  V30 2363 H 219.76 0.610557 4.12708 0
M  V30 2364 H 218.39 -0.090779 3.22672 0
M  V30 2365 H 217.442 2.31988 3.01473 0
M  V30 2366 H 218.754 2.86512 4.08304 0
M  V30 2367 H 217.908 1.37649 5.90879 0
M  V30 2368 H 216.647 0.728202 4.82233 0
M  V30 2369 H 215.652 3.02165 4.59322 0
M  V30 2370 H 216.877 3.66964 5.71414 0
M  V30 2371 H 214.823 1.52665 6.37989 0
M  V30 2372 H 214.74 3.19185 6.85315 0
M  V30 2373 H 216.008 2.1832 7.48303 0
M  V30 2374 N 220.237 -1.11381 1.11499 0
M  V30 2375 C 221.169 -2.17207 0.731704 0
M  V30 2376 C 222.182 -1.61066 -0.236957 0
M  V30 2377 O 223.371 -1.78489 -0.0197591 0
M  V30 2378 C 220.471 -3.38846 0.0607624 0
M  V30 2379 C 219.644 -4.24451 1.0564 0
M  V30 2380 C 218.703 -5.24562 0.4149 0
M  V30 2381 O 217.729 -5.59071 1.069 0
M  V30 2382 N 218.931 -5.74651 -0.821943 0
M  V30 2383 H 221.696 -2.50699 1.64225 0
M  V30 2384 H 219.257 -1.26908 1.00529 0
M  V30 2385 H 221.249 -4.02911 -0.380139 0
M  V30 2386 H 219.819 -3.03411 -0.752376 0
M  V30 2387 H 219.039 -3.56833 1.67524 0
M  V30 2388 H 220.327 -4.78486 1.72998 0
M  V30 2389 H 219.725 -5.48797 -1.37252 0
M  V30 2390 H 218.282 -6.40549 -1.20582 0
M  V30 2391 N 221.715 -0.905404 -1.28997 0
M  V30 2392 C 222.962 -0.534248 -1.95325 0
M  V30 2393 C 223.29 0.920535 -1.71337 0
M  V30 2394 O 222.545 1.66861 -1.02254 0
M  V30 2395 C 222.844 -0.779906 -3.48787 0
M  V30 2396 C 222.51 -2.21293 -3.92861 0
M  V30 2397 C 221.172 -2.60475 -4.04606 0
M  V30 2398 C 223.524 -3.14587 -4.15553 0
M  V30 2399 C 220.852 -3.9212 -4.36416 0
M  V30 2400 C 223.204 -4.45787 -4.48839 0
M  V30 2401 C 221.868 -4.84834 -4.58794 0
M  V30 2402 H 221.138 -0.195495 -0.714747 0
M  V30 2403 H 223.785 -1.14514 -1.53488 0
M  V30 2404 H 222.09 -0.0861365 -3.91705 0
M  V30 2405 H 223.787 -0.472029 -3.98212 0
M  V30 2406 H 220.377 -1.89887 -3.84241 0
M  V30 2407 H 224.561 -2.85528 -4.0594 0
M  V30 2408 H 219.817 -4.22086 -4.42327 0
M  V30 2409 H 223.991 -5.18098 -4.65346 0
M  V30 2410 H 221.618 -5.86877 -4.83197 0
M  V30 2411 N 223.193 1.4272 -0.668489 0
M  V30 2412 C 224.418 2.06484 -0.194758 0
M  V30 2413 C 224.843 1.49862 1.13679 0
M  V30 2414 O 224.201 0.614582 1.70565 0
M  V30 2415 C 224.249 3.60353 -0.133546 0
M  V30 2416 O 223.353 4.02464 0.899806 0
M  V30 2417 H 222.694 0.656137 -0.10188 0
M  V30 2418 H 225.224 1.82964 -0.915722 0
M  V30 2419 H 225.234 4.07976 0.0447041 0
M  V30 2420 H 223.909 4.00938 -1.1055 0
M  V30 2421 H 222.486 3.66402 0.693109 0
M  V30 2422 N 224.671 0.411399 1.52136 0
M  V30 2423 C 225.604 -0.457614 2.23565 0
M  V30 2424 C 226.582 -1.04613 1.24478 0
M  V30 2425 O 227.766 -1.09356 1.53536 0
M  V30 2426 C 224.893 -1.6354 2.96602 0
M  V30 2427 C 223.939 -1.17005 4.10137 0
M  V30 2428 S 224.772 -0.13333 5.35334 0
M  V30 2429 C 225.928 -1.31638 6.119 0
M  V30 2430 H 226.161 0.148883 2.96927 0
M  V30 2431 H 223.694 0.195713 1.53155 0
M  V30 2432 H 225.652 -2.31074 3.39286 0
M  V30 2433 H 224.313 -2.21324 2.22878 0
M  V30 2434 H 223.506 -2.05005 4.60422 0
M  V30 2435 H 223.108 -0.573319 3.6958 0
M  V30 2436 H 225.4 -2.23957 6.39413 0
M  V30 2437 H 226.343 -0.854014 7.02931 0
M  V30 2438 H 226.751 -1.54321 5.42997 0
M  V30 2439 N 226.149 -1.5696 0.141893 0
M  V30 2440 C 227.079 -2.19516 -0.795936 0
M  V30 2441 C 228.06 -1.14187 -1.26077 0
M  V30 2442 O 229.245 -1.42511 -1.31925 0
M  V30 2443 C 226.375 -2.81272 -2.03723 0
M  V30 2444 C 225.329 -3.92384 -1.70936 0
M  V30 2445 C 224.655 -4.41052 -3.02287 0
M  V30 2446 C 225.955 -5.13403 -0.959954 0
M  V30 2447 H 227.649 -2.98138 -0.274596 0
M  V30 2448 H 225.195 -1.43406 -0.130636 0
M  V30 2449 H 227.148 -3.237 -2.69808 0
M  V30 2450 H 225.872 -1.99973 -2.58221 0
M  V30 2451 H 224.531 -3.50566 -1.07232 0
M  V30 2452 H 224.179 -3.56582 -3.54765 0
M  V30 2453 H 223.879 -5.15993 -2.81114 0
M  V30 2454 H 225.403 -4.86146 -3.69451 0
M  V30 2455 H 226.817 -5.52706 -1.52279 0
M  V30 2456 H 225.214 -5.94073 -0.848357 0
M  V30 2457 H 226.284 -4.84875 0.0492434 0
M  V30 2458 N 227.627 0.131896 -1.57047 0
M  V30 2459 C 228.537 1.1815 -2.02676 0
M  V30 2460 C 229.553 1.46113 -0.944824 0
M  V30 2461 O 230.729 1.57485 -1.25541 0
M  V30 2462 C 227.794 2.49139 -2.41103 0
M  V30 2463 C 226.855 2.28688 -3.63318 0
M  V30 2464 C 226.088 3.53431 -3.99903 0
M  V30 2465 O 226.311 4.60223 -3.36973 0
M  V30 2466 O 225.245 3.45198 -4.93074 0
M  V30 2467 H 229.071 0.824069 -2.92306 0
M  V30 2468 H 226.656 0.341745 -1.45439 0
M  V30 2469 H 228.538 3.26338 -2.66611 0
M  V30 2470 H 227.213 2.84382 -1.54624 0
M  V30 2471 H 226.12 1.4939 -3.42977 0
M  V30 2472 H 227.453 1.98355 -4.50462 0
M  V30 2473 N 229.106 1.52395 0.401703 0
M  V30 2474 C 230.353 1.66817 1.14796 0
M  V30 2475 C 230.681 0.401772 1.90305 0
M  V30 2476 O 229.936 -0.615487 1.85769 0
M  V30 2477 C 230.235 2.84578 2.16217 0
M  V30 2478 C 229.901 4.22513 1.5746 0
M  V30 2479 C 228.563 4.60029 1.41161 0
M  V30 2480 C 230.915 5.0844 1.14622 0
M  V30 2481 C 228.243 5.81144 0.80552 0
M  V30 2482 C 230.595 6.30167 0.55428 0
M  V30 2483 C 229.259 6.66426 0.378482 0
M  V30 2484 H 228.529 0.610428 0.420069 0
M  V30 2485 H 231.176 1.86512 0.434212 0
M  V30 2486 H 229.481 2.59248 2.93764 0
M  V30 2487 H 231.178 2.92933 2.73845 0
M  V30 2488 H 227.768 3.92953 1.71132 0
M  V30 2489 H 231.952 4.80034 1.26021 0
M  V30 2490 H 227.208 6.07855 0.657399 0
M  V30 2491 H 231.382 6.96071 0.213983 0
M  V30 2492 H 229.009 7.60143 -0.0932606 0
M  V30 2493 N 230.584 -0.659388 1.43143 0
M  V30 2494 C 231.514 -1.78422 1.50625 0
M  V30 2495 C 232.495 -1.66216 0.361443 0
M  V30 2496 O 233.68 -1.85404 0.577834 0
M  V30 2497 C 230.81 -3.16815 1.42287 0
M  V30 2498 C 229.764 -3.43777 2.54954 0
M  V30 2499 C 229.09 -4.81905 2.31671 0
M  V30 2500 C 230.39 -3.39134 3.97222 0
M  V30 2501 H 232.084 -1.72417 2.44771 0
M  V30 2502 H 229.63 -0.828084 1.17808 0
M  V30 2503 H 231.583 -3.95253 1.46127 0
M  V30 2504 H 230.307 -3.23534 0.446435 0
M  V30 2505 H 228.966 -2.67707 2.50457 0
M  V30 2506 H 228.614 -4.85294 1.32284 0
M  V30 2507 H 228.314 -5.00906 3.07192 0
M  V30 2508 H 229.838 -5.62609 2.37284 0
M  V30 2509 H 231.252 -4.07518 4.03239 0
M  V30 2510 H 229.649 -3.69671 4.72719 0
M  V30 2511 H 230.719 -2.37426 4.22797 0
M  V30 2512 N 232.062 -1.29571 -0.897171 0
M  V30 2513 C 233.012 -1.11539 -1.98855 0
M  V30 2514 C 233.996 -0.0340716 -1.60864 0
M  V30 2515 O 235.188 -0.256062 -1.75138 0
M  V30 2516 C 232.317 -0.796603 -3.3393 0
M  V30 2517 C 231.403 -1.91758 -3.78272 0
M  V30 2518 N 231.794 -3.16143 -3.94826 0
M  V30 2519 C 230.092 -1.81119 -4.07568 0
M  V30 2520 C 230.793 -3.89293 -4.32233 0
M  V30 2521 N 229.769 -3.17255 -4.41419 0
M  V30 2522 H 233.571 -2.05894 -2.09726 0
M  V30 2523 H 231.085 -1.20732 -1.08616 0
M  V30 2524 H 233.082 -0.648459 -4.11826 0
M  V30 2525 H 231.742 0.139003 -3.24402 0
M  V30 2526 H 232.753 -3.5157 -3.80288 0
M  V30 2527 H 229.43 -0.948461 -4.06584 0
M  V30 2528 H 230.82 -4.9635 -4.52865 0
M  V30 2529 N 233.54 1.10788 -1.12088 0
M  V30 2530 C 234.956 1.34691 -0.856186 0
M  V30 2531 C 235.156 1.94791 0.515615 0
M  V30 2532 O 234.212 2.18524 1.26505 0
M  V30 2533 C 235.525 2.27208 -1.9697 0
M  V30 2534 C 237.073 2.40755 -2.00016 0
M  V30 2535 C 237.548 3.36598 -3.1059 0
M  V30 2536 N 239.039 3.44164 -3.10008 0
M  V30 2537 C 239.774 4.18284 -3.92206 0
M  V30 2538 N 239.27 4.95322 -4.84384 0
M  V30 2539 N 241.063 4.13865 -3.80357 0
M  V30 2540 H 233.214 0.70144 -2.00483 0
M  V30 2541 H 235.477 0.371405 -0.872217 0
M  V30 2542 H 235.183 1.90251 -2.958 0
M  V30 2543 H 235.057 3.27485 -1.87172 0
M  V30 2544 H 237.444 2.76982 -1.01808 0
M  V30 2545 H 237.525 1.40305 -2.13888 0
M  V30 2546 H 237.169 3.01096 -4.09028 0
M  V30 2547 H 237.099 4.36918 -2.93956 0
M  V30 2548 H 239.59 2.8922 -2.43228 0
M  V30 2549 H 239.903 5.49267 -5.43623 0
M  V30 2550 H 238.248 4.94459 -4.884 0
M  V30 2551 H 241.439 3.52773 -3.07683 0
M  V30 2552 H 241.612 4.71372 -4.44649 0
M  V30 2553 N 235.018 0.912232 1.28515 0
M  V30 2554 C 236.264 0.545405 1.95328 0
M  V30 2555 C 236.597 -0.908313 1.71649 0
M  V30 2556 O 235.872 -1.64575 1.03659 0
M  V30 2557 C 236.155 0.853483 3.4984 0
M  V30 2558 C 236.008 2.35982 3.82926 0
M  V30 2559 C 237.327 0.348589 4.38717 0
M  V30 2560 H 234.446 0.199626 0.709449 0
M  V30 2561 H 237.088 1.1412 1.5191 0
M  V30 2562 H 235.238 0.34643 3.86952 0
M  V30 2563 H 236.91 2.93738 3.55691 0
M  V30 2564 H 235.153 2.81543 3.30024 0
M  V30 2565 H 235.824 2.52593 4.90816 0
M  V30 2566 H 238.3 0.78294 4.08668 0
M  V30 2567 H 237.176 0.593242 5.45685 0
M  V30 2568 H 237.437 -0.751049 4.35674 0
M  V30 2569 N 236.496 -1.42363 0.676048 0
M  V30 2570 C 237.744 -2.01123 0.198437 0
M  V30 2571 C 238.065 -1.53731 -1.19966 0
M  V30 2572 O 237.335 -0.759518 -1.80577 0
M  V30 2573 H 235.915 -0.743678 0.0703721 0
M  V30 2574 H 238.577 -1.74263 0.872837 0
M  V30 2575 H 237.673 -3.11454 0.200686 0
M  V30 2576 N 237.974 -0.419461 -1.51915 0
M  V30 2577 C 238.924 0.418496 -2.24126 0
M  V30 2578 C 239.908 1.00495 -1.25656 0
M  V30 2579 O 241.1 0.926058 -1.50842 0
M  V30 2580 C 238.229 1.52899 -3.07371 0
M  V30 2581 C 237.315 0.952797 -4.13258 0
M  V30 2582 N 237.706 0.104175 -5.05693 0
M  V30 2583 C 236.004 1.22224 -4.28926 0
M  V30 2584 C 236.705 -0.21752 -5.81293 0
M  V30 2585 N 235.681 0.394293 -5.42168 0
M  V30 2586 H 239.483 -0.236048 -2.92951 0
M  V30 2587 H 236.997 -0.230481 -1.60756 0
M  V30 2588 H 238.994 2.14199 -3.57665 0
M  V30 2589 H 237.654 2.18605 -2.40088 0
M  V30 2590 H 238.665 -0.260924 -5.17242 0
M  V30 2591 H 235.342 1.87812 -3.72871 0
M  V30 2592 H 236.732 -0.906992 -6.6575 0
M  V30 2593 N 239.452 1.56882 -0.150215 0
M  V30 2594 C 240.729 1.87844 0.545327 0
M  V30 2595 C 241.109 1.0567 1.82749 0
M  V30 2596 O 240.457 0.144442 2.28043 0
M  V30 2597 C 240.667 3.39526 0.80767 0
M  V30 2598 C 242.015 4.08814 1.14703 0
M  V30 2599 O 243.039 3.44723 0.896917 0
M  V30 2600 O 241.898 5.22004 1.61784 0
M  V30 2601 H 238.992 0.778677 0.278553 0
M  V30 2602 H 241.538 1.68666 -0.187068 0
M  V30 2603 H 240.31 3.91173 -0.0996096 0
M  V30 2604 H 239.933 3.64243 1.59413 0
M  V30 2605 N 240.93 -0.123565 1.57115 0
M  V30 2606 C 241.86 -1.15309 2.03042 0
M  V30 2607 C 242.841 -1.43454 0.914061 0
M  V30 2608 O 244.026 -1.53973 1.18347 0
M  V30 2609 C 241.156 -2.48043 2.43089 0
M  V30 2610 C 240.11 -2.3437 3.58127 0
M  V30 2611 C 239.436 -3.72026 3.84059 0
M  V30 2612 C 240.736 -1.80804 4.90007 0
M  V30 2613 H 242.43 -0.771102 2.893 0
M  V30 2614 H 239.976 -0.369479 1.39179 0
M  V30 2615 H 241.929 -3.20311 2.73823 0
M  V30 2616 H 240.653 -2.88122 1.53796 0
M  V30 2617 H 239.312 -1.64551 3.27595 0
M  V30 2618 H 238.96 -4.09582 2.91979 0
M  V30 2619 H 238.66 -3.63732 4.6149 0
M  V30 2620 H 240.184 -4.45806 4.1724 0
M  V30 2621 H 241.598 -2.42886 5.19307 0
M  V30 2622 H 239.995 -1.83343 5.71407 0
M  V30 2623 H 241.065 -0.76528 4.78823 0
M  V30 2624 N 242.408 -1.52605 -0.393616 0
M  V30 2625 C 243.355 -1.77055 -1.48054 0
M  V30 2626 C 244.325 -0.61358 -1.54352 0
M  V30 2627 O 245.51 -0.852806 -1.70681 0
M  V30 2628 C 242.65 -1.94108 -2.85335 0
M  V30 2629 C 241.763 -3.21792 -2.88226 0
M  V30 2630 C 240.898 -3.29188 -4.16904 0
M  V30 2631 C 239.937 -4.51013 -4.13828 0
M  V30 2632 N 239.074 -4.55716 -5.34105 0
M  V30 2633 H 243.914 -2.69815 -1.26506 0
M  V30 2634 H 241.451 -1.33683 -0.61379 0
M  V30 2635 H 243.409 -2.01979 -3.65049 0
M  V30 2636 H 242.039 -1.04713 -3.05344 0
M  V30 2637 H 241.091 -3.23015 -2.00911 0
M  V30 2638 H 242.403 -4.11557 -2.8182 0
M  V30 2639 H 241.557 -3.36216 -5.05018 0
M  V30 2640 H 240.296 -2.37389 -4.26026 0
M  V30 2641 H 239.301 -4.44115 -3.24102 0
M  V30 2642 H 240.526 -5.44123 -4.06333 0
M  V30 2643 H 238.472 -3.66807 -5.43865 0
M  V30 2644 H 238.389 -5.39346 -5.29756 0
M  V30 2645 H 239.657 -4.66993 -6.2413 0
M  V30 2646 N 243.887 0.651787 -1.4349 0
M  V30 2647 C 245.164 1.40909 -1.35661 0
M  V30 2648 C 245.544 2.11099 -0.00511733 0
M  V30 2649 O 244.892 2.04892 1.0115 0
M  V30 2650 C 245.102 2.3926 -2.54078 0
M  V30 2651 C 246.45 3.03217 -2.97228 0
M  V30 2652 O 247.474 2.49588 -2.54135 0
M  V30 2653 O 246.333 4.00455 -3.71885 0
M  V30 2654 H 243.427 0.629625 -0.536191 0
M  V30 2655 H 245.973 0.678575 -1.55542 0
M  V30 2656 H 244.745 1.86352 -3.44076 0
M  V30 2657 H 244.368 3.1976 -2.36303 0
M  V30 2658 N 245.365 1.30045 0.890287 0
M  V30 2659 C 246.298 1.10301 1.99772 0
M  V30 2660 C 247.276 0.0121631 1.62595 0
M  V30 2661 O 248.46 0.16469 1.87779 0
M  V30 2662 C 245.587 0.681125 3.31781 0
M  V30 2663 C 244.633 1.77206 3.87944 0
M  V30 2664 S 245.466 3.37335 4.15891 0
M  V30 2665 C 246.622 2.97036 5.50927 0
M  V30 2666 H 246.855 2.04057 2.16213 0
M  V30 2667 H 244.388 1.14299 1.03804 0
M  V30 2668 H 246.346 0.444439 4.08087 0
M  V30 2669 H 245.007 -0.236981 3.13205 0
M  V30 2670 H 244.2 1.42903 4.83316 0
M  V30 2671 H 243.802 1.96275 3.18358 0
M  V30 2672 H 246.094 2.44666 6.31779 0
M  V30 2673 H 247.037 3.91296 5.90164 0
M  V30 2674 H 247.445 2.35057 5.13233 0
M  V30 2675 N 246.843 -1.10192 1.12674 0
M  V30 2676 C 247.776 -2.15847 0.740625 0
M  V30 2677 C 248.754 -1.60352 -0.269421 0
M  V30 2678 O 249.938 -1.87796 -0.16278 0
M  V30 2679 C 247.065 -3.38562 0.096641 0
M  V30 2680 C 246.111 -4.12758 1.07391 0
M  V30 2681 S 246.944 -4.67997 2.60267 0
M  V30 2682 C 248.1 -5.94021 1.97206 0
M  V30 2683 H 248.333 -2.48266 1.63558 0
M  V30 2684 H 245.866 -1.22019 0.946087 0
M  V30 2685 H 247.824 -4.09621 -0.268535 0
M  V30 2686 H 246.485 -3.04377 -0.775462 0
M  V30 2687 H 245.678 -5.00755 0.570997 0
M  V30 2688 H 245.28 -3.47523 1.38216 0
M  V30 2689 H 247.572 -6.64589 1.31634 0
M  V30 2690 H 248.515 -6.48979 2.83253 0
M  V30 2691 H 248.923 -5.46169 1.42686 0
M  V30 2692 N 248.321 -0.919034 -1.28029 0
M  V30 2693 C 249.251 -0.428581 -2.29533 0
M  V30 2694 C 250.232 0.50659 -1.62381 0
M  V30 2695 O 251.417 0.413195 -1.89753 0
M  V30 2696 C 248.547 0.327388 -3.45753 0
M  V30 2697 C 247.501 -0.519137 -4.2484 0
M  V30 2698 C 246.827 0.365486 -5.33449 0
M  V30 2699 C 248.127 -1.77914 -4.91064 0
M  V30 2700 H 249.821 -1.27687 -2.70807 0
M  V30 2701 H 247.367 -0.615428 -1.30186 0
M  V30 2702 H 249.32 0.681378 -4.15855 0
M  V30 2703 H 248.044 1.20963 -3.03374 0
M  V30 2704 H 246.703 -0.855717 -3.56473 0
M  V30 2705 H 246.351 1.24642 -4.87312 0
M  V30 2706 H 246.051 -0.197356 -5.87268 0
M  V30 2707 H 247.575 0.715241 -6.06396 0
M  V30 2708 H 248.989 -1.49374 -5.53498 0
M  V30 2709 H 247.386 -2.2848 -5.54903 0
M  V30 2710 H 248.456 -2.50382 -4.15255 0
M  V30 2711 N 249.799 1.42003 -0.683588 0
M  V30 2712 C 251.029 2.05448 -0.217866 0
M  V30 2713 C 251.437 1.51491 1.13346 0
M  V30 2714 O 250.78 0.653048 1.717 0
M  V30 2715 C 250.842 3.59399 -0.0850118 0
M  V30 2716 C 250.506 4.36093 -1.36645 0
M  V30 2717 C 251.503 4.66169 -2.30179 0
M  V30 2718 C 249.188 4.75578 -1.61649 0
M  V30 2719 C 251.182 5.34676 -3.46988 0
M  V30 2720 C 248.869 5.43824 -2.78745 0
M  V30 2721 C 249.867 5.73299 -3.71238 0
M  V30 2722 O 249.555 6.40142 -4.86285 0
M  V30 2723 H 249.287 0.668344 -0.101454 0
M  V30 2724 H 251.841 1.82974 -0.933248 0
M  V30 2725 H 250.071 3.80566 0.686031 0
M  V30 2726 H 251.76 4.04457 0.341973 0
M  V30 2727 H 252.526 4.36156 -2.12115 0
M  V30 2728 H 248.405 4.52025 -0.905243 0
M  V30 2729 H 251.949 5.57599 -4.19201 0
M  V30 2730 H 247.846 5.73254 -2.96732 0
M  V30 2731 H 248.614 6.58636 -4.85944 0
M  V30 2732 N 251.277 0.427512 1.51691 0
M  V30 2733 C 252.517 -0.141524 2.03909 0
M  V30 2734 C 252.881 -1.40811 1.30523 0
M  V30 2735 O 254.082 -2.05676 1.73063 0
M  V30 2736 C 252.353 -0.364962 3.55532 0
M  V30 2737 S 253.912 -0.898812 4.29496 0
M  V30 2738 H 250.73 -0.0364542 0.710065 0
M  V30 2739 H 253.332 0.584659 1.86553 0
M  V30 2740 H 252.036 0.56336 4.06515 0
M  V30 2741 H 251.567 -1.1185 3.77164 0
M  V30 2742 H 253.582 -2.17747 4.45871 0
M  V30 2743 N 252.755 -1.56801 0.158532 0
M  V30 2744 C 253.702 -2.17337 -0.776729 0
M  V30 2745 C 254.672 -1.1096 -1.23601 0
M  V30 2746 O 255.857 -1.39054 -1.30647 0
M  V30 2747 C 252.997 -2.80822 -2.00582 0
M  V30 2748 C 252.11 -4.01624 -1.59129 0
M  V30 2749 C 251.245 -4.53072 -2.77306 0
M  V30 2750 C 250.284 -5.66314 -2.32282 0
M  V30 2751 N 249.421 -6.12329 -3.43508 0
M  V30 2752 H 254.261 -2.96918 -0.253701 0
M  V30 2753 H 251.798 -1.46661 -0.113504 0
M  V30 2754 H 253.756 -3.15779 -2.72652 0
M  V30 2755 H 252.386 -2.03866 -2.50277 0
M  V30 2756 H 251.438 -3.72571 -0.767806 0
M  V30 2757 H 252.75 -4.83633 -1.2207 0
M  V30 2758 H 251.904 -4.90145 -3.57551 0
M  V30 2759 H 250.643 -3.70095 -3.17617 0
M  V30 2760 H 249.648 -5.28806 -1.5048 0
M  V30 2761 H 250.873 -6.51085 -1.93043 0
M  V30 2762 H 248.819 -5.32284 -3.83418 0
M  V30 2763 H 248.736 -6.89293 -3.105 0
M  V30 2764 H 250.004 -6.5405 -4.24075 0
M  V30 2765 N 254.233 0.115231 -1.57178 0
M  V30 2766 C 255.48 0.822351 -1.8505 0
M  V30 2767 C 255.808 1.79701 -0.744168 0
M  V30 2768 O 255.063 1.93909 0.26414 0
M  V30 2769 C 255.362 1.60324 -3.19423 0
M  V30 2770 C 255.028 0.772536 -4.44233 0
M  V30 2771 C 253.69 0.543468 -4.78121 0
M  V30 2772 C 256.042 0.193746 -5.2084 0
M  V30 2773 C 253.37 -0.274583 -5.86057 0
M  V30 2774 C 255.722 -0.611517 -6.29637 0
M  V30 2775 C 254.386 -0.850867 -6.62055 0
M  V30 2776 H 253.656 0.30092 -0.677147 0
M  V30 2777 H 256.303 0.0845802 -1.91313 0
M  V30 2778 H 254.608 2.41203 -3.08753 0
M  V30 2779 H 256.305 2.1544 -3.38211 0
M  V30 2780 H 252.895 0.96117 -4.17683 0
M  V30 2781 H 257.079 0.357926 -4.95008 0
M  V30 2782 H 252.335 -0.469206 -6.09597 0
M  V30 2783 H 256.509 -1.06697 -6.88178 0
M  V30 2784 H 254.136 -1.48657 -7.45523 0
M  V30 2785 N 255.711 1.52812 0.385517 0
M  V30 2786 C 256.658 1.77838 1.47113 0
M  V30 2787 C 257.628 0.621757 1.54024 0
M  V30 2788 O 258.813 0.861846 1.70226 0
M  V30 2789 C 255.953 1.95618 2.84302 0
M  V30 2790 C 255.066 3.23316 2.86515 0
M  V30 2791 C 254.201 3.31394 4.15152 0
M  V30 2792 C 253.24 4.53201 4.1143 0
M  V30 2793 N 252.377 4.58542 5.3168 0
M  V30 2794 H 257.217 2.70482 1.25073 0
M  V30 2795 H 254.754 1.34006 0.606692 0
M  V30 2796 H 256.712 2.03912 3.63972 0
M  V30 2797 H 255.342 1.06331 3.04784 0
M  V30 2798 H 254.394 3.24076 1.99195 0
M  V30 2799 H 255.706 4.13045 2.79634 0
M  V30 2800 H 254.86 3.3889 5.03228 0
M  V30 2801 H 253.599 2.39645 4.24761 0
M  V30 2802 H 252.604 4.45827 3.21742 0
M  V30 2803 H 253.829 5.46271 4.03442 0
M  V30 2804 H 251.775 3.69686 5.41912 0
M  V30 2805 H 251.692 5.42148 5.26889 0
M  V30 2806 H 252.96 4.70296 6.21644 0
M  V30 2807 N 257.189 -0.644168 1.43834 0
M  V30 2808 C 258.437 -1.40117 1.45642 0
M  V30 2809 C 258.758 -1.94814 0.0852413 0
M  V30 2810 O 258.028 -1.74988 -0.880688 0
M  V30 2811 H 256.608 -0.52005 0.536243 0
M  V30 2812 H 259.27 -0.7591 1.7951 0
M  V30 2813 H 258.366 -2.23902 2.17427 0
M  V30 2814 N 258.668 -1.30515 -0.883378 0
M  V30 2815 C 259.6 -1.12846 -1.99496 0
M  V30 2816 C 260.613 -0.0712571 -1.62644 0
M  V30 2817 O 261.802 -0.317432 -1.75655 0
M  V30 2818 C 258.902 -0.699123 -3.3161 0
M  V30 2819 C 258.075 -1.83842 -3.96889 0
M  V30 2820 C 257.134 -1.39737 -5.07307 0
M  V30 2821 O 256.16 -2.10485 -5.28852 0
M  V30 2822 N 257.362 -0.277279 -5.79837 0
M  V30 2823 H 260.127 -2.08585 -2.15203 0
M  V30 2824 H 257.688 -1.22672 -1.05656 0
M  V30 2825 H 259.68 -0.387044 -4.02845 0
M  V30 2826 H 258.25 0.166276 -3.12157 0
M  V30 2827 H 257.47 -2.31853 -3.18807 0
M  V30 2828 H 258.758 -2.60187 -4.37241 0
M  V30 2829 H 258.156 0.3122 -5.64838 0
M  V30 2830 H 256.713 -0.0246623 -6.51795 0
M  V30 2831 N 260.146 1.09593 -1.13257 0
M  V30 2832 C 261.056 2.19739 -0.821691 0
M  V30 2833 C 262.072 1.72926 0.19302 0
M  V30 2834 O 263.248 2.01385 0.0244895 0
M  V30 2835 C 260.313 3.45482 -0.290333 0
M  V30 2836 C 259.374 4.06985 -1.36607 0
M  V30 2837 C 258.607 5.26726 -0.859975 0
M  V30 2838 O 258.83 5.69594 0.303082 0
M  V30 2839 O 257.764 5.7931 -1.63351 0
M  V30 2840 H 261.59 2.48781 -1.74189 0
M  V30 2841 H 259.175 1.18496 -0.909894 0
M  V30 2842 H 261.057 4.214 0.000674022 0
M  V30 2843 H 259.732 3.18047 0.602306 0
M  V30 2844 H 258.639 3.32712 -1.71037 0
M  V30 2845 H 259.972 4.38643 -2.23279 0
M  V30 2846 N 261.624 0.925811 1.2754 0
M  V30 2847 C 262.864 0.572521 1.96218 0
M  V30 2848 C 263.228 -0.869719 1.71172 0
M  V30 2849 O 264.429 -1.33119 2.33523 0
M  V30 2850 C 262.7 0.887325 3.4621 0
M  V30 2851 S 264.259 0.642266 4.34074 0
M  V30 2852 H 261.077 0.211403 0.678845 0
M  V30 2853 H 263.679 1.19384 1.54815 0
M  V30 2854 H 262.383 1.93469 3.61936 0
M  V30 2855 H 261.914 0.255123 3.92572 0
M  V30 2856 H 263.929 -0.500822 4.93666 0
M  V30 2857 N 263.102 -1.41638 0.69111 0
M  V30 2858 C 264.35 -2.00902 0.219758 0
M  V30 2859 C 264.671 -1.54994 -1.18329 0
M  V30 2860 O 263.941 -0.778628 -1.79762 0
M  V30 2861 H 262.521 -0.74289 0.0782558 0
M  V30 2862 H 265.183 -1.73327 0.891271 0
M  V30 2863 H 264.279 -3.11224 0.233708 0
M  V30 2864 N 264.58 -0.43555 -1.51462 0
M  V30 2865 C 265.53 0.394701 -2.24558 0
M  V30 2866 C 266.514 0.99157 -1.26715 0
M  V30 2867 O 267.706 0.910007 -1.51815 0
M  V30 2868 C 264.835 1.4963 -3.08975 0
M  V30 2869 C 263.921 0.908912 -4.14246 0
M  V30 2870 N 264.312 0.0505335 -5.05775 0
M  V30 2871 C 262.61 1.17668 -4.30198 0
M  V30 2872 C 263.311 -0.279161 -5.8103 0
M  V30 2873 N 262.287 0.336767 -5.42556 0
M  V30 2874 H 266.089 -0.267106 -2.92684 0
M  V30 2875 H 263.603 -0.247518 -1.60503 0
M  V30 2876 H 265.6 2.10394 -3.59917 0
M  V30 2877 H 264.26 2.16046 -2.42393 0
M  V30 2878 H 265.271 -0.31577 -5.16936 0
M  V30 2879 H 261.948 1.83847 -3.74842 0
M  V30 2880 H 263.338 -0.977553 -6.64751 0
M  V30 2881 N 266.058 1.56714 -0.166846 0
M  V30 2882 C 266.99 2.14914 0.796537 0
M  V30 2883 C 268.003 1.10357 1.19688 0
M  V30 2884 O 269.192 1.37561 1.13751 0
M  V30 2885 C 266.292 2.67326 2.08303 0
M  V30 2886 C 265.465 3.96493 1.84696 0
M  V30 2887 C 264.524 4.34014 2.97521 0
M  V30 2888 O 263.55 5.01973 2.6835 0
M  V30 2889 N 264.752 3.95208 4.25196 0
M  V30 2890 H 267.517 2.98205 0.299006 0
M  V30 2891 H 265.078 1.61892 0.0160839 0
M  V30 2892 H 267.07 2.89428 2.82867 0
M  V30 2893 H 265.64 1.88649 2.4926 0
M  V30 2894 H 264.86 3.82814 0.940602 0
M  V30 2895 H 266.148 4.8086 1.66285 0
M  V30 2896 H 265.546 3.40487 4.51758 0
M  V30 2897 H 264.103 4.2232 4.96477 0
M  V30 2898 N 267.536 -0.106894 1.57237 0
M  V30 2899 C 268.813 -0.843526 1.76477 0
M  V30 2900 C 269.193 -1.97499 0.745464 0
M  V30 2901 O 268.541 -2.27357 -0.228306 0
M  V30 2902 C 268.751 -1.34903 3.21873 0
M  V30 2903 C 270.099 -1.79654 3.8472 0
M  V30 2904 O 271.123 -1.44554 3.2555 0
M  V30 2905 O 269.982 -2.44515 4.88748 0
M  V30 2906 H 267.076 -0.401468 0.723016 0
M  V30 2907 H 269.622 -0.0896927 1.69463 0
M  V30 2908 H 268.394 -0.53781 3.87586 0
M  V30 2909 H 268.017 -2.16522 3.33473 0
M  V30 2910 N 269.014 -1.53014 -0.377408 0
M  V30 2911 C 270.261 -1.68623 -1.12128 0
M  V30 2912 C 270.589 -0.431997 -1.89642 0
M  V30 2913 O 269.844 0.585855 -1.86725 0
M  V30 2914 C 270.143 -2.87982 -2.11663 0
M  V30 2915 C 269.809 -4.24964 -1.50719 0
M  V30 2916 C 268.471 -4.62217 -1.33825 0
M  V30 2917 C 270.823 -5.10199 -1.06519 0
M  V30 2918 C 268.151 -5.82352 -0.712963 0
M  V30 2919 C 270.503 -6.30969 -0.453955 0
M  V30 2920 C 269.167 -6.66944 -0.272411 0
M  V30 2921 H 268.437 -0.617034 -0.410305 0
M  V30 2922 H 271.084 -1.8718 -0.404484 0
M  V30 2923 H 269.389 -2.63889 -2.89603 0
M  V30 2924 H 271.086 -2.97253 -2.6915 0
M  V30 2925 H 267.676 -3.95626 -1.64858 0
M  V30 2926 H 271.86 -4.81978 -1.18368 0
M  V30 2927 H 267.116 -6.08824 -0.560611 0
M  V30 2928 H 271.29 -6.96324 -0.103217 0
M  V30 2929 H 268.917 -7.59898 0.214181 0
M  V30 2930 N 270.492 0.636531 -1.44174 0
M  V30 2931 C 271.72 1.42353 -1.50144 0
M  V30 2932 C 272.135 1.88389 -0.124575 0
M  V30 2933 O 271.492 1.6051 0.868489 0
M  V30 2934 C 271.543 2.64744 -2.46156 0
M  V30 2935 O 271.264 2.20629 -3.7849 0
M  V30 2936 C 272.765 3.57929 -2.61537 0
M  V30 2937 H 269.985 0.436752 -0.5094 0
M  V30 2938 H 272.529 0.778933 -1.89084 0
M  V30 2939 H 270.684 3.25307 -2.10366 0
M  V30 2940 H 271.098 2.99938 -4.30276 0
M  V30 2941 H 272.572 4.40428 -3.32757 0
M  V30 2942 H 273.049 4.06382 -1.66585 0
M  V30 2943 H 273.655 3.03238 -2.98206 0
M  V30 2944 N 271.97 1.30982 0.876444 0
M  V30 2945 C 273.198 1.23242 1.6619 0
M  V30 2946 C 273.613 -0.203345 1.87702 0
M  V30 2947 O 272.97 -1.13317 1.43057 0
M  V30 2948 C 273.021 1.96623 3.03351 0
M  V30 2949 O 272.742 3.34594 2.82804 0
M  V30 2950 C 274.243 1.95644 3.97792 0
M  V30 2951 H 271.463 0.426126 0.518322 0
M  V30 2952 H 274.007 1.7275 1.09442 0
M  V30 2953 H 272.162 1.50892 3.56806 0
M  V30 2954 H 272.576 3.71873 3.69879 0
M  V30 2955 H 274.05 2.51511 4.91372 0
M  V30 2956 H 274.527 0.937395 4.2908 0
M  V30 2957 H 275.133 2.41225 3.50272 0
M  V30 2958 N 273.449 -1.08991 1.13837 0
M  V30 2959 C 274.695 -1.81526 0.90422 0
M  V30 2960 C 275.028 -1.85706 -0.568066 0
M  V30 2961 O 274.303 -1.32855 -1.42056 0
M  V30 2962 C 274.586 -3.27447 1.49835 0
M  V30 2963 C 274.439 -3.31512 3.04006 0
M  V30 2964 C 275.758 -4.24256 1.17025 0
M  V30 2965 H 272.877 -0.659029 0.329923 0
M  V30 2966 H 275.519 -1.27644 1.40737 0
M  V30 2967 H 273.669 -3.73462 1.07044 0
M  V30 2968 H 275.341 -2.93867 3.55584 0
M  V30 2969 H 273.584 -2.70963 3.38765 0
M  V30 2970 H 274.255 -4.34329 3.40679 0
M  V30 2971 H 276.731 -3.86549 1.54009 0
M  V30 2972 H 275.607 -5.24684 1.61237 0
M  V30 2973 H 275.868 -4.42019 0.0846274 0
M  V30 2974 N 274.927 -0.932562 -1.27047 0
M  V30 2975 C 276.174 -0.575559 -1.94148 0
M  V30 2976 C 276.502 0.883984 -1.73251 0
M  V30 2977 O 275.757 1.64655 -1.0577 0
M  V30 2978 C 276.056 -0.853713 -3.47054 0
M  V30 2979 C 275.722 -2.29577 -3.88079 0
M  V30 2980 C 274.384 -2.68999 -3.9899 0
M  V30 2981 C 276.736 -3.23331 -4.08787 0
M  V30 2982 C 274.064 -4.01289 -4.28 0
M  V30 2983 C 276.416 -4.55207 -4.39282 0
M  V30 2984 C 275.08 -4.94457 -4.48407 0
M  V30 2985 H 274.35 -0.210612 -0.710439 0
M  V30 2986 H 276.997 -1.17744 -1.51025 0
M  V30 2987 H 275.302 -0.169204 -3.91434 0
M  V30 2988 H 276.999 -0.55639 -3.97121 0
M  V30 2989 H 273.589 -1.97994 -3.80127 0
M  V30 2990 H 277.773 -2.94074 -3.99793 0
M  V30 2991 H 273.029 -4.31374 -4.33275 0
M  V30 2992 H 277.203 -5.27852 -4.54252 0
M  V30 2993 H 274.83 -5.96994 -4.7064 0
M  V30 2994 N 276.405 1.4127 -0.698611 0
M  V30 2995 C 277.633 2.05503 -0.239992 0
M  V30 2996 C 278.048 1.52584 1.11191 0
M  V30 2997 O 277.405 0.675323 1.69545 0
M  V30 2998 C 277.456 3.60987 -0.192429 0
M  V30 2999 O 277.177 4.1195 -1.49094 0
M  V30 3000 C 278.678 4.42371 0.28681 0
M  V30 3001 H 275.898 0.661748 -0.111045 0
M  V30 3002 H 278.442 1.80987 -0.95205 0
M  V30 3003 H 276.597 3.84533 0.470472 0
M  V30 3004 H 277.011 5.06018 -1.38007 0
M  V30 3005 H 278.485 5.51344 0.26896 0
M  V30 3006 H 278.962 4.18699 1.32619 0
M  V30 3007 H 279.568 4.23897 -0.345201 0
M  V30 3008 N 277.883 0.443576 1.51229 0
M  V30 3009 C 278.83 -0.364716 2.279 0
M  V30 3010 C 279.8 -1.0114 1.31757 0
M  V30 3011 O 280.985 -1.02912 1.60667 0
M  V30 3012 C 278.125 -1.45644 3.12861 0
M  V30 3013 C 277.238 -0.827269 4.24005 0
M  V30 3014 C 276.373 -1.89456 4.96266 0
M  V30 3015 C 275.412 -1.24416 5.99322 0
M  V30 3016 N 274.549 -2.25309 6.64966 0
M  V30 3017 H 279.389 0.295464 2.96532 0
M  V30 3018 H 276.926 0.157554 1.46254 0
M  V30 3019 H 278.884 -2.10076 3.6045 0
M  V30 3020 H 277.514 -2.08616 2.46331 0
M  V30 3021 H 276.566 -0.0710839 3.80334 0
M  V30 3022 H 277.878 -0.312481 4.9782 0
M  V30 3023 H 277.032 -2.61535 5.47434 0
M  V30 3024 H 275.771 -2.4431 4.22095 0
M  V30 3025 H 274.776 -0.508868 5.4744 0
M  V30 3026 H 276.001 -0.702882 6.75453 0
M  V30 3027 H 273.947 -2.79231 5.93604 0
M  V30 3028 H 273.864 -1.78739 7.34567 0
M  V30 3029 H 275.132 -2.96853 7.20763 0
M  V30 3030 N 279.361 -1.56624 0.175154 0
M  V30 3031 C 280.591 -2.01082 -0.474283 0
M  V30 3032 C 280.999 -1.05447 -1.57091 0
M  V30 3033 O 280.342 -0.0480595 -1.83637 0
M  V30 3034 C 280.404 -3.41963 -1.10911 0
M  V30 3035 C 280.068 -4.56742 -0.153666 0
M  V30 3036 C 281.065 -5.16076 0.629448 0
M  V30 3037 C 278.75 -5.02277 -0.0483776 0
M  V30 3038 C 280.744 -6.19377 1.50501 0
M  V30 3039 C 278.431 -6.05427 0.830768 0
M  V30 3040 C 279.429 -6.63849 1.60605 0
M  V30 3041 O 279.117 -7.64998 2.47049 0
M  V30 3042 H 278.849 -0.664261 -0.125432 0
M  V30 3043 H 281.403 -2.03549 0.275163 0
M  V30 3044 H 279.633 -3.36422 -1.90676 0
M  V30 3045 H 281.322 -3.70352 -1.66114 0
M  V30 3046 H 282.088 -4.81776 0.558297 0
M  V30 3047 H 277.967 -4.56513 -0.641611 0
M  V30 3048 H 281.511 -6.64906 2.1106 0
M  V30 3049 H 277.408 -6.39151 0.903107 0
M  V30 3050 H 278.176 -7.82336 2.40607 0
M  V30 3051 N 280.839 0.0985539 -1.57292 0
M  V30 3052 C 282.087 0.801092 -1.85545 0
M  V30 3053 C 282.408 1.79438 -0.763353 0
M  V30 3054 O 281.678 1.94763 0.21073 0
M  V30 3055 H 280.258 0.29884 -0.684619 0
M  V30 3056 H 282.92 0.0810064 -1.94732 0
M  V30 3057 H 282.016 1.3338 -2.82163 0
M  V30 3058 N 282.317 1.53212 0.369288 0
M  V30 3059 C 283.264 1.79388 1.45219 0
M  V30 3060 C 284.234 0.638059 1.53356 0
M  V30 3061 O 285.419 0.879852 1.69302 0
M  V30 3062 C 282.559 1.98623 2.82211 0
M  V30 3063 C 281.672 3.26337 2.8307 0
M  V30 3064 C 280.807 3.35779 4.11614 0
M  V30 3065 C 279.846 4.5754 4.06601 0
M  V30 3066 N 278.983 4.64155 5.26787 0
M  V30 3067 H 283.823 2.71794 1.22198 0
M  V30 3068 H 281.36 1.34642 0.592444 0
M  V30 3069 H 283.318 2.07761 3.61789 0
M  V30 3070 H 281.948 1.09558 3.03639 0
M  V30 3071 H 281 3.26171 1.95747 0
M  V30 3072 H 282.312 4.15988 2.75237 0
M  V30 3073 H 281.466 3.44208 4.99606 0
M  V30 3074 H 280.205 2.44137 4.22195 0
M  V30 3075 H 279.21 4.49215 3.16996 0
M  V30 3076 H 280.435 5.50519 3.97625 0
M  V30 3077 H 278.381 3.75413 5.3796 0
M  V30 3078 H 278.298 5.47706 5.21109 0
M  V30 3079 H 279.566 4.76863 6.16621 0
M  V30 3080 N 283.795 -0.628877 1.44509 0
M  V30 3081 C 285.035 -1.39993 1.48934 0
M  V30 3082 C 285.399 -1.91627 0.119604 0
M  V30 3083 O 286.6 -2.68772 0.0385283 0
M  V30 3084 C 284.871 -2.53241 2.52198 0
M  V30 3085 S 286.43 -3.41383 2.75687 0
M  V30 3086 H 283.248 -0.477558 0.526744 0
M  V30 3087 H 285.85 -0.727804 1.81448 0
M  V30 3088 H 284.554 -2.13622 3.50419 0
M  V30 3089 H 284.085 -3.25278 2.21264 0
M  V30 3090 H 286.1 -4.50752 2.07453 0
M  V30 3091 N 285.273 -1.31445 -0.869486 0
M  V30 3092 C 286.503 -1.23942 -1.65294 0
M  V30 3093 C 286.911 0.197561 -1.88166 0
M  V30 3094 O 286.254 1.14019 -1.44033 0
M  V30 3095 C 286.316 -1.91385 -3.04322 0
M  V30 3096 C 285.98 -3.40726 -3.04557 0
M  V30 3097 C 286.977 -4.36464 -2.82481 0
M  V30 3098 C 284.662 -3.82425 -3.25663 0
M  V30 3099 C 286.656 -5.71876 -2.8149 0
M  V30 3100 C 284.343 -5.1795 -3.243 0
M  V30 3101 C 285.341 -6.12486 -3.02241 0
M  V30 3102 O 285.029 -7.45534 -3.00724 0
M  V30 3103 H 284.761 -0.429459 -0.522054 0
M  V30 3104 H 287.315 -1.73873 -1.0935 0
M  V30 3105 H 285.545 -1.36004 -3.61994 0
M  V30 3106 H 287.234 -1.77791 -3.64891 0
M  V30 3107 H 288 -4.05576 -2.65956 0
M  V30 3108 H 283.879 -3.09274 -3.41863 0
M  V30 3109 H 287.423 -6.45638 -2.64191 0
M  V30 3110 H 283.32 -5.48473 -3.40365 0
M  V30 3111 H 284.088 -7.54713 -3.16782 0
M  V30 3112 N 286.751 1.08385 -1.14413 0
M  V30 3113 C 287.684 2.14642 -0.774871 0
M  V30 3114 C 288.662 1.60761 0.243876 0
M  V30 3115 O 289.846 1.88031 0.132883 0
M  V30 3116 C 286.973 3.38366 -0.150491 0
M  V30 3117 C 286.019 4.10997 -1.13945 0
M  V30 3118 S 286.852 4.63797 -2.67679 0
M  V30 3119 C 288.008 5.90808 -2.06631 0
M  V30 3120 H 288.241 2.45633 -1.67487 0
M  V30 3121 H 285.774 1.20498 -0.96538 0
M  V30 3122 H 287.732 4.09996 0.203334 0
M  V30 3123 H 286.393 3.05572 0.72694 0
M  V30 3124 H 285.586 4.99783 -0.65059 0
M  V30 3125 H 285.188 3.4528 -1.43727 0
M  V30 3126 H 287.48 6.62411 -1.4219 0
M  V30 3127 H 288.423 6.4439 -2.93542 0
M  V30 3128 H 288.831 5.4383 -1.51357 0
M  V30 3129 N 288.23 0.939286 1.26551 0
M  V30 3130 C 289.477 0.585847 1.9384 0
M  V30 3131 C 289.805 -0.874784 1.73718 0
M  V30 3132 O 289.06 -1.64092 1.06642 0
M  V30 3133 C 289.359 0.872106 3.46596 0
M  V30 3134 C 289.025 2.31632 3.86856 0
M  V30 3135 C 287.687 2.71111 3.97558 0
M  V30 3136 C 290.039 3.25494 4.07066 0
M  V30 3137 C 287.367 4.03553 4.25866 0
M  V30 3138 C 289.719 4.57531 4.36862 0
M  V30 3139 C 288.383 4.96828 4.45778 0
M  V30 3140 H 287.653 0.214377 0.709312 0
M  V30 3141 H 290.3 1.18544 1.50398 0
M  V30 3142 H 288.605 0.18996 3.91339 0
M  V30 3143 H 290.302 0.577442 3.96821 0
M  V30 3144 H 286.892 2.00008 3.79071 0
M  V30 3145 H 291.076 2.9619 3.98227 0
M  V30 3146 H 286.332 4.33665 4.30981 0
M  V30 3147 H 290.506 5.30254 4.51446 0
M  V30 3148 H 288.133 5.99482 4.67468 0
M  V30 3149 N 289.708 -1.40897 0.706093 0
M  V30 3150 C 290.656 -2.32572 0.0361893 0
M  V30 3151 C 291.65 -1.51532 -0.757266 0
M  V30 3152 O 292.856 -1.67396 -0.661703 0
M  V30 3153 H 289.231 -0.751966 -0.00709935 0
M  V30 3154 H 291.202 -2.86733 0.826249 0
M  V30 3155 C 289.951 -3.36418 -0.87854 0
M  V30 3156 H 289.274 -3.98836 -0.277401 0
M  V30 3157 H 290.714 -4.0308 -1.3154 0
M  V30 3158 C 289.173 -2.71141 -1.99961 0
M  V30 3159 O 289.703 -2.56735 -3.0895 0
M  V30 3160 N 287.909 -2.29671 -1.78043 0
M  V30 3161 H 287.456 -2.41588 -0.894042 0
M  V30 3162 H 287.414 -1.86332 -2.53235 0
M  V30 3163 N 291.186 -0.45159 -1.50991 0
M  V30 3164 C 292.411 0.110667 -2.07105 0
M  V30 3165 C 292.836 1.3446 -1.31538 0
M  V30 3166 O 292.194 1.77743 -0.357365 0
M  V30 3167 C 292.242 0.397238 -3.58405 0
M  V30 3168 O 291.346 1.48124 -3.84881 0
M  V30 3169 H 290.687 -0.00439271 -0.663985 0
M  V30 3170 H 293.217 -0.637026 -1.9443 0
M  V30 3171 H 293.227 0.64351 -4.02893 0
M  V30 3172 H 291.902 -0.504553 -4.12828 0
M  V30 3173 H 290.479 1.22381 -3.52246 0
M  V30 3174 N 292.664 1.56529 -0.183458 0
M  V30 3175 C 293.912 1.96855 0.457452 0
M  V30 3176 C 294.233 1.07104 1.62953 0
M  V30 3177 O 293.503 0.139887 1.954 0
M  V30 3178 H 292.083 0.72693 0.171992 0
M  V30 3179 H 294.745 1.93056 -0.267476 0
M  V30 3180 H 293.841 3.01423 0.809368 0
M  V30 3181 N 294.142 -0.090211 1.57342 0
M  V30 3182 C 295.052 -1.12735 2.05738 0
M  V30 3183 C 296.068 -1.43557 0.983231 0
M  V30 3184 O 297.244 -1.54101 1.29672 0
M  V30 3185 C 294.309 -2.42659 2.47624 0
M  V30 3186 C 293.37 -2.18975 3.69254 0
M  V30 3187 C 292.603 -3.42704 4.09133 0
M  V30 3188 O 292.826 -4.51127 3.49057 0
M  V30 3189 O 291.76 -3.32003 5.02053 0
M  V30 3190 H 295.586 -0.746279 2.94388 0
M  V30 3191 H 293.171 -0.303064 1.46294 0
M  V30 3192 H 295.053 -3.19155 2.7517 0
M  V30 3193 H 293.728 -2.80182 1.62109 0
M  V30 3194 H 292.635 -1.40244 3.46818 0
M  V30 3195 H 293.968 -1.86342 4.55563 0
M  V30 3196 N 295.62 -1.53406 -0.361157 0
M  V30 3197 C 296.897 -1.60411 -1.11927 0
M  V30 3198 C 297.277 -0.414385 -2.06993 0
M  V30 3199 O 296.625 0.594976 -2.20618 0
M  V30 3200 C 296.835 -2.95652 -1.85448 0
M  V30 3201 C 298.183 -3.50386 -2.39823 0
M  V30 3202 O 299.207 -2.97711 -1.95568 0
M  V30 3203 O 298.066 -4.42482 -3.20737 0
M  V30 3204 H 295.16 -0.64811 -0.513695 0
M  V30 3205 H 297.706 -1.65749 -0.364065 0
M  V30 3206 H 296.478 -3.73682 -1.16091 0
M  V30 3207 H 296.101 -2.93825 -2.67866 0
M  V30 3208 N 297.098 0.621204 -1.44841 0
M  V30 3209 C 298.346 1.37783 -1.47852 0
M  V30 3210 C 298.667 1.94653 -0.116224 0
M  V30 3211 O 297.937 1.76367 0.852737 0
M  V30 3212 H 296.517 0.511453 -0.544449 0
M  V30 3213 H 299.179 0.730446 -1.80694 0
M  V30 3214 H 298.275 2.20414 -2.20961 0
M  V30 3215 N 298.576 1.31904 0.862503 0
M  V30 3216 C 299.523 1.20182 1.9704 0
M  V30 3217 C 300.493 0.0858247 1.65878 0
M  V30 3218 O 301.678 0.26 1.8902 0
M  V30 3219 C 298.818 0.922797 3.32533 0
M  V30 3220 C 297.931 2.12284 3.76244 0
M  V30 3221 C 297.066 1.77996 5.00491 0
M  V30 3222 C 296.105 2.94366 5.36671 0
M  V30 3223 N 295.242 2.60223 6.52095 0
M  V30 3224 H 300.082 2.14951 2.06398 0
M  V30 3225 H 297.619 1.06917 1.01031 0
M  V30 3226 H 299.577 0.741548 4.10557 0
M  V30 3227 H 298.207 0.0119227 3.22798 0
M  V30 3228 H 297.259 2.41461 2.9394 0
M  V30 3229 H 298.571 2.99357 3.98982 0
M  V30 3230 H 297.725 1.56377 5.862 0
M  V30 3231 H 296.464 0.881252 4.79672 0
M  V30 3232 H 295.469 3.16625 4.49476 0
M  V30 3233 H 296.694 3.84957 5.59451 0
M  V30 3234 H 294.64 1.72884 6.32809 0
M  V30 3235 H 294.557 3.40827 6.74814 0
M  V30 3236 H 295.825 2.42016 7.40978 0
M  V30 3237 N 300.054 -1.07777 1.14986 0
M  V30 3238 C 301.465 -1.61766 0.932127 0
M  V30 3239 C 301.816 -1.88974 -0.527581 0
M  V30 3240 O 300.941 -1.65198 -1.39781 0
M  V30 3241 C 301.536 -2.93891 1.68563 0
M  V30 3242 C 300.095 -3.44639 1.5133 0
M  V30 3243 C 299.242 -2.18767 1.704 0
M  V30 3244 H 302.193 -0.909201 1.30074 0
M  V30 3245 H 302.214 -3.62623 1.15259 0
M  V30 3246 H 301.726 -2.74057 2.74799 0
M  V30 3247 H 299.827 -3.69564 0.474702 0
M  V30 3248 H 299.94 -4.20966 2.28746 0
M  V30 3249 H 298.304 -2.28253 1.13016 0
M  V30 3250 H 299.087 -2.01433 2.77992 0
M  V30 3251 N 301.532 -0.945985 -1.26051 0
M  V30 3252 C 302.462 -0.477172 -2.28572 0
M  V30 3253 C 303.443 0.472032 -1.63419 0
M  V30 3254 O 304.628 0.372853 -1.90587 0
M  V30 3255 C 301.758 0.253975 -3.4637 0
M  V30 3256 C 300.712 -0.609135 -4.23643 0
M  V30 3257 C 300.038 0.252252 -5.34105 0
M  V30 3258 C 301.338 -1.8829 -4.8718 0
M  V30 3259 H 303.032 -1.33402 -2.68038 0
M  V30 3260 H 300.578 -0.642904 -1.28852 0
M  V30 3261 H 302.531 0.593016 -4.17207 0
M  V30 3262 H 301.255 1.145 -3.05871 0
M  V30 3263 H 299.914 -0.931138 -3.54578 0
M  V30 3264 H 299.562 1.14278 -4.89846 0
M  V30 3265 H 299.262 -0.32188 -5.86718 0
M  V30 3266 H 300.786 0.586454 -6.07777 0
M  V30 3267 H 302.2 -1.61081 -5.50205 0
M  V30 3268 H 300.597 -2.40199 -5.49931 0
M  V30 3269 H 301.667 -2.59134 -4.09851 0
M  V30 3270 N 303.011 1.40521 -0.713556 0
M  V30 3271 C 303.941 2.33381 -0.0743864 0
M  V30 3272 C 304.922 1.52784 0.747735 0
M  V30 3273 O 306.107 1.81258 0.697071 0
M  V30 3274 C 303.237 3.36748 0.849598 0
M  V30 3275 C 302.191 4.27793 0.133247 0
M  V30 3276 C 301.517 5.21679 1.17281 0
M  V30 3277 C 302.817 5.12415 -1.01134 0
M  V30 3278 H 304.511 2.87081 -0.850007 0
M  V30 3279 H 302.057 1.38034 -0.410201 0
M  V30 3280 H 304.01 4.00648 1.30612 0
M  V30 3281 H 302.734 2.81439 1.65709 0
M  V30 3282 H 301.393 3.65342 -0.303426 0
M  V30 3283 H 301.041 4.62677 1.9733 0
M  V30 3284 H 300.741 5.83435 0.698397 0
M  V30 3285 H 302.265 5.88456 1.62947 0
M  V30 3286 H 303.679 5.69781 -0.634274 0
M  V30 3287 H 302.076 5.83203 -1.41399 0
M  V30 3288 H 303.146 4.48514 -1.84292 0
M  V30 3289 N 304.489 0.459591 1.5075 0
M  V30 3290 C 305.717 -0.0973749 2.06671 0
M  V30 3291 C 306.132 -1.34524 1.32472 0
M  V30 3292 O 305.489 -1.7827 0.390634 0
M  V30 3293 C 305.54 -0.39714 3.59312 0
M  V30 3294 O 305.261 0.801214 4.30711 0
M  V30 3295 C 306.762 -1.00234 4.31819 0
M  V30 3296 H 303.982 0.00195854 0.670997 0
M  V30 3297 H 306.526 0.645072 1.94059 0
M  V30 3298 H 304.681 -1.08951 3.71764 0
M  V30 3299 H 305.095 0.538857 5.21725 0
M  V30 3300 H 306.569 -1.16193 5.39632 0
M  V30 3301 H 307.046 -1.98939 3.91561 0
M  V30 3302 H 307.652 -0.348699 4.23868 0
M  V30 3303 N 305.967 -1.56429 0.191757 0
M  V30 3304 C 307.195 -2.01867 -0.453586 0
M  V30 3305 C 307.61 -1.07191 -1.5542 0
M  V30 3306 O 306.967 -0.0762108 -1.82341 0
M  V30 3307 C 307.018 -3.47017 -1.013 0
M  V30 3308 O 306.739 -4.38078 0.0437005 0
M  V30 3309 C 308.24 -4.07956 -1.73456 0
M  V30 3310 H 305.46 -0.661211 -0.114199 0
M  V30 3311 H 308.004 -2.02295 0.299483 0
M  V30 3312 H 306.159 -3.47298 -1.71647 0
M  V30 3313 H 306.573 -5.23178 -0.372212 0
M  V30 3314 H 308.047 -5.1138 -2.07833 0
M  V30 3315 H 308.524 -3.51222 -2.63704 0
M  V30 3316 H 309.13 -4.11437 -1.07702 0
M  V30 3317 N 307.445 0.0818655 -1.57387 0
M  V30 3318 C 308.691 0.784074 -1.8703 0
M  V30 3319 C 309.024 1.77729 -0.782689 0
M  V30 3320 O 308.299 1.93384 0.208051 0
M  V30 3321 C 308.582 1.50105 -3.27323 0
M  V30 3322 C 308.435 0.524925 -4.46727 0
M  V30 3323 C 309.754 2.44843 -3.65705 0
M  V30 3324 H 306.873 0.283582 -0.680257 0
M  V30 3325 H 309.515 0.0474352 -1.89941 0
M  V30 3326 H 307.665 2.12897 -3.24972 0
M  V30 3327 H 309.337 -0.0970111 -4.61198 0
M  V30 3328 H 307.58 -0.160606 -4.33503 0
M  V30 3329 H 308.251 1.064 -5.41648 0
M  V30 3330 H 310.727 1.92135 -3.69085 0
M  V30 3331 H 309.603 2.92018 -4.64776 0
M  V30 3332 H 309.864 3.29197 -2.95096 0
M  V30 3333 N 308.923 1.53595 0.353017 0
M  V30 3334 C 309.87 1.80919 1.43308 0
M  V30 3335 C 310.84 0.654288 1.5267 0
M  V30 3336 O 312.025 0.897759 1.6836 0
M  V30 3337 C 309.165 2.01605 2.80089 0
M  V30 3338 C 308.278 3.29321 2.79593 0
M  V30 3339 C 307.413 3.40125 4.0803 0
M  V30 3340 C 306.452 4.61826 4.01725 0
M  V30 3341 N 305.589 4.69716 5.21834 0
M  V30 3342 H 310.429 2.73074 1.19308 0
M  V30 3343 H 307.966 1.35263 0.578131 0
M  V30 3344 H 309.924 2.11586 3.59565 0
M  V30 3345 H 308.554 1.12772 3.0246 0
M  V30 3346 H 307.606 3.28229 1.92276 0
M  V30 3347 H 308.918 4.18884 2.70809 0
M  V30 3348 H 308.072 3.49488 4.95927 0
M  V30 3349 H 306.811 2.48601 4.19582 0
M  V30 3350 H 305.816 4.52552 3.12213 0
M  V30 3351 H 307.041 5.54705 3.91764 0
M  V30 3352 H 304.987 3.81097 5.33948 0
M  V30 3353 H 304.904 5.53202 5.1527 0
M  V30 3354 H 306.172 4.83376 6.11529 0
M  V30 3355 N 310.401 -0.613514 1.45168 0
M  V30 3356 C 311.649 -1.36997 1.48581 0
M  V30 3357 C 311.97 -1.94589 0.126545 0
M  V30 3358 O 311.24 -1.76816 -0.843372 0
M  V30 3359 H 309.82 -0.508558 0.547154 0
M  V30 3360 H 312.482 -0.720853 1.81079 0
M  V30 3361 H 311.578 -2.1924 2.22127 0
M  V30 3362 N 311.879 -1.3236 -0.855495 0
M  V30 3363 C 313.127 -1.22629 -1.60644 0
M  V30 3364 C 313.448 0.212136 -1.93843 0
M  V30 3365 O 312.718 1.13666 -1.59552 0
M  V30 3366 H 311.298 -0.450882 -0.595579 0
M  V30 3367 H 313.96 -1.65871 -1.02337 0
M  V30 3368 H 313.056 -1.80832 -2.54374 0
M  V30 3369 N 313.357 1.07166 -1.15556 0
M  V30 3370 C 314.585 1.83514 -0.955519 0
M  V30 3371 C 315 1.82163 0.49621 0
M  V30 3372 O 314.357 1.23441 1.34419 0
M  V30 3373 C 314.408 3.30515 -1.46432 0
M  V30 3374 O 314.129 3.31937 -2.85918 0
M  V30 3375 C 315.63 4.23625 -1.30603 0
M  V30 3376 H 312.85 0.578926 -0.339244 0
M  V30 3377 H 315.394 1.35265 -1.53374 0
M  V30 3378 H 313.549 3.76106 -0.928584 0
M  V30 3379 H 313.963 4.23794 -3.09029 0
M  V30 3380 H 315.437 5.24831 -1.71047 0
M  V30 3381 H 315.914 4.38485 -0.250441 0
M  V30 3382 H 316.52 3.83871 -1.83094 0
M  V30 3383 N 314.835 0.952656 1.25548 0
M  V30 3384 C 316.083 0.605176 1.92826 0
M  V30 3385 C 316.404 -0.860261 1.74999 0
M  V30 3386 O 315.674 -1.6125 1.11244 0
M  V30 3387 H 314.254 0.220832 0.713612 0
M  V30 3388 H 316.916 1.21047 1.52754 0
M  V30 3389 H 316.012 0.832798 3.00784 0
M  V30 3390 N 316.313 -1.40141 0.720998 0
M  V30 3391 C 317.261 -2.3252 0.0608547 0
M  V30 3392 C 318.255 -1.52326 -0.741152 0
M  V30 3393 O 319.461 -1.68089 -0.643911 0
M  V30 3394 H 315.836 -0.751999 0.000876664 0
M  V30 3395 H 317.807 -2.8584 0.856614 0
M  V30 3396 C 316.556 -3.37331 -0.842809 0
M  V30 3397 H 315.879 -3.99108 -0.235084 0
M  V30 3398 H 317.319 -4.04452 -1.27257 0
M  V30 3399 C 315.778 -2.73246 -1.97074 0
M  V30 3400 O 316.308 -2.59998 -3.06209 0
M  V30 3401 N 314.514 -2.31547 -1.75597 0
M  V30 3402 H 314.061 -2.42522 -0.868368 0
M  V30 3403 H 314.019 -1.89007 -2.51244 0
M  V30 3404 N 317.792 -0.46758 -1.50504 0
M  V30 3405 C 319.04 0.0884469 -2.01906 0
M  V30 3406 C 319.361 1.40532 -1.35188 0
M  V30 3407 O 318.631 1.89515 -0.496079 0
M  V30 3408 H 317.211 0.0356765 -0.746148 0
M  V30 3409 H 319.873 -0.6172 -1.84869 0
M  V30 3410 H 318.969 0.2425 -3.11156 0
M  V30 3411 N 319.27 1.56325 -0.20005 0
M  V30 3412 C 320.2 2.22318 0.713916 0
M  V30 3413 C 321.181 1.18788 1.21752 0
M  V30 3414 O 322.366 1.47309 1.26545 0
M  V30 3415 C 319.496 2.88639 1.93144 0
M  V30 3416 C 318.45 3.98457 1.56255 0
M  V30 3417 C 317.776 4.51967 2.85709 0
M  V30 3418 C 319.076 5.16612 0.768747 0
M  V30 3419 H 320.77 2.98952 0.163755 0
M  V30 3420 H 318.316 1.43792 0.0773219 0
M  V30 3421 H 320.269 3.33491 2.57608 0
M  V30 3422 H 318.993 2.09419 2.50621 0
M  V30 3423 H 317.652 3.54305 0.941471 0
M  V30 3424 H 317.3 3.69503 3.41287 0
M  V30 3425 H 317 5.26071 2.6177 0
M  V30 3426 H 318.524 4.99523 3.51154 0
M  V30 3427 H 319.938 5.57977 1.3166 0
M  V30 3428 H 318.335 5.96812 0.627286 0
M  V30 3429 H 319.405 4.84358 -0.229168 0
M  V30 3430 N 320.748 -0.0735177 1.57428 0
M  V30 3431 C 321.658 -1.10547 2.06922 0
M  V30 3432 C 322.674 -1.42506 0.998402 0
M  V30 3433 O 323.85 -1.52717 1.31299 0
M  V30 3434 C 320.915 -2.40019 2.50184 0
M  V30 3435 C 319.976 -2.15046 3.71556 0
M  V30 3436 C 319.209 -3.38345 4.12745 0
M  V30 3437 O 319.432 -4.47399 3.53822 0
M  V30 3438 O 318.366 -3.2666 5.05546 0
M  V30 3439 H 322.192 -0.715013 2.95163 0
M  V30 3440 H 319.777 -0.287531 1.46607 0
M  V30 3441 H 321.659 -3.16218 2.78539 0
M  V30 3442 H 320.334 -2.78447 1.65072 0
M  V30 3443 H 319.241 -1.36558 3.48285 0
M  V30 3444 H 320.574 -1.81499 4.57514 0
M  V30 3445 N 322.226 -1.5378 -0.344866 0
M  V30 3446 C 323.475 -1.7018 -1.08267 0
M  V30 3447 C 323.788 -0.471 -1.89845 0
M  V30 3448 O 324.994 -0.515917 -2.66553 0
M  V30 3449 C 323.45 -3.00923 -1.97417 0
M  V30 3450 C 323.058 -4.31335 -1.21053 0
M  V30 3451 C 324.802 -3.26688 -2.71063 0
M  V30 3452 C 322.709 -5.53153 -2.09225 0
M  V30 3453 H 321.639 -0.634138 -0.407903 0
M  V30 3454 H 324.29 -1.8028 -0.342246 0
M  V30 3455 H 322.672 -2.84676 -2.75274 0
M  V30 3456 H 323.846 -4.58281 -0.481159 0
M  V30 3457 H 322.161 -4.12173 -0.591813 0
M  V30 3458 H 324.758 -4.1489 -3.37299 0
M  V30 3459 H 325.101 -2.43639 -3.37558 0
M  V30 3460 H 325.634 -3.43705 -2.0028 0
M  V30 3461 H 322.373 -6.38741 -1.47274 0
M  V30 3462 H 321.893 -5.30458 -2.79955 0
M  V30 3463 H 323.572 -5.88744 -2.68308 0
M  V30 3464 N 323.704 0.605807 -1.45491 0
M  V30 3465 C 324.637 1.73022 -1.48791 0
M  V30 3466 C 325.615 1.58917 -0.344112 0
M  V30 3467 O 326.799 1.80453 -0.544876 0
M  V30 3468 C 323.926 3.10865 -1.34463 0
M  V30 3469 C 322.972 3.43554 -2.5273 0
M  V30 3470 S 323.805 3.38196 -4.15191 0
M  V30 3471 C 324.961 4.78616 -4.03333 0
M  V30 3472 H 325.194 1.69961 -2.43928 0
M  V30 3473 H 322.727 0.782611 -1.33096 0
M  V30 3474 H 324.685 3.90398 -1.26884 0
M  V30 3475 H 323.346 3.1144 -0.40794 0
M  V30 3476 H 322.539 4.43924 -2.38637 0
M  V30 3477 H 322.141 2.71541 -2.5718 0
M  V30 3478 H 324.433 5.68463 -3.68587 0
M  V30 3479 H 325.376 4.97767 -5.03621 0
M  V30 3480 H 325.784 4.54381 -3.34959 0
M  V30 3481 N 325.182 1.32811 0.848464 0
M  V30 3482 C 326.112 1.24882 1.97299 0
M  V30 3483 C 327.093 0.131357 1.69592 0
M  V30 3484 O 328.278 0.319553 1.91553 0
M  V30 3485 C 325.408 0.97746 3.33261 0
M  V30 3486 C 324.362 2.05682 3.75338 0
M  V30 3487 C 323.688 1.63777 5.09 0
M  V30 3488 C 324.988 3.47254 3.90144 0
M  V30 3489 H 326.682 2.18966 2.04191 0
M  V30 3490 H 324.228 1.05413 0.981029 0
M  V30 3491 H 326.181 0.908513 4.1149 0
M  V30 3492 H 324.905 0.000980011 3.266 0
M  V30 3493 H 323.564 2.11603 2.99366 0
M  V30 3494 H 323.212 0.648569 4.98801 0
M  V30 3495 H 322.912 2.36 5.38124 0
M  V30 3496 H 324.436 1.5833 5.89715 0
M  V30 3497 H 325.85 3.43888 4.58709 0
M  V30 3498 H 324.247 4.1788 4.30693 0
M  V30 3499 H 325.317 3.86462 2.92874 0
M  V30 3500 N 326.66 -1.06551 1.16123 0
M  V30 3501 C 327.937 -1.76097 0.85142 0
M  V30 3502 C 328.317 -2.00802 -0.6513 0
M  V30 3503 O 327.665 -1.63302 -1.59827 0
M  V30 3504 C 327.875 -3.06384 1.67122 0
M  V30 3505 C 329.223 -3.80585 1.88255 0
M  V30 3506 O 330.247 -3.16218 1.63966 0
M  V30 3507 O 329.106 -4.96212 2.2899 0
M  V30 3508 H 326.2 -0.765102 0.313923 0
M  V30 3509 H 328.746 -1.12844 1.26745 0
M  V30 3510 H 327.518 -2.84071 2.69108 0
M  V30 3511 H 327.141 -3.77371 1.25206 0
M  V30 3512 N 328.138 -0.959301 -1.25041 0
M  V30 3513 C 329.387 -0.612254 -1.92183 0
M  V30 3514 C 329.7 0.855347 -1.75907 0
M  V30 3515 O 330.906 1.31256 -2.37664 0
M  V30 3516 C 329.362 -1.04435 -3.44414 0
M  V30 3517 C 328.97 -2.53482 -3.69393 0
M  V30 3518 C 330.714 -0.770055 -4.17457 0
M  V30 3519 C 328.621 -2.90468 -5.15153 0
M  V30 3520 H 327.551 -0.225279 -0.719559 0
M  V30 3521 H 330.202 -1.16438 -1.41825 0
M  V30 3522 H 328.584 -0.4206 -3.9376 0
M  V30 3523 H 329.758 -3.20916 -3.30681 0
M  V30 3524 H 328.073 -2.78432 -3.0962 0
M  V30 3525 H 330.67 -1.02249 -5.24832 0
M  V30 3526 H 331.013 0.293611 -4.15263 0
M  V30 3527 H 331.546 -1.35437 -3.74034 0
M  V30 3528 H 328.285 -3.95871 -5.22462 0
M  V30 3529 H 327.805 -2.27711 -5.54894 0
M  V30 3530 H 329.484 -2.79914 -5.83315 0
M  V30 3531 N 329.616 1.39756 -0.72842 0
M  V30 3532 C 330.548 2.29157 -0.0446202 0
M  V30 3533 C 331.561 1.46484 0.710367 0
M  V30 3534 O 332.75 1.69632 0.55562 0
M  V30 3535 C 329.85 3.24987 0.961071 0
M  V30 3536 C 329.023 4.36572 0.268967 0
M  V30 3537 C 328.082 5.12756 1.18184 0
M  V30 3538 O 327.108 5.6534 0.661794 0
M  V30 3539 N 328.31 5.23331 2.51206 0
M  V30 3540 H 331.075 2.88482 -0.812295 0
M  V30 3541 H 328.636 1.51265 -0.577098 0
M  V30 3542 H 330.628 3.72827 1.57423 0
M  V30 3543 H 329.198 2.66739 1.63 0
M  V30 3544 H 328.418 3.90694 -0.524574 0
M  V30 3545 H 329.706 5.08363 -0.210934 0
M  V30 3546 H 329.104 4.82116 2.9594 0
M  V30 3547 H 327.661 5.74634 3.07634 0
M  V30 3548 N 331.094 0.475555 1.50254 0
M  V30 3549 C 332.026 -0.352649 2.26471 0
M  V30 3550 C 333.039 -0.953165 1.3198 0
M  V30 3551 O 334.228 -0.840815 1.57457 0
M  V30 3552 C 331.328 -1.50902 3.0345 0
M  V30 3553 C 330.501 -1.02047 4.25329 0
M  V30 3554 C 329.56 -2.05142 4.84565 0
M  V30 3555 O 328.586 -1.63023 5.45355 0
M  V30 3556 N 329.788 -3.37987 4.71959 0
M  V30 3557 H 332.553 0.300767 2.98187 0
M  V30 3558 H 330.114 0.306598 1.5897 0
M  V30 3559 H 332.106 -2.19572 3.39956 0
M  V30 3560 H 330.676 -2.06705 2.34504 0
M  V30 3561 H 329.896 -0.159507 3.93877 0
M  V30 3562 H 331.184 -0.672061 5.04342 0
M  V30 3563 H 330.582 -3.74913 4.23623 0
M  V30 3564 H 329.139 -4.02443 5.12721 0
M  V30 3565 N 332.573 -1.56217 0.208337 0
M  V30 3566 C 333.85 -1.89739 -0.475234 0
M  V30 3567 C 334.23 -1.1238 -1.78701 0
M  V30 3568 O 333.578 -0.228979 -2.2735 0
M  V30 3569 C 333.788 -3.42289 -0.681101 0
M  V30 3570 C 335.136 -4.12789 -0.994507 0
M  V30 3571 O 336.16 -3.47814 -0.768357 0
M  V30 3572 O 335.019 -5.27649 -1.42299 0
M  V30 3573 H 332.113 -0.788478 -0.249461 0
M  V30 3574 H 334.659 -1.67855 0.249538 0
M  V30 3575 H 333.431 -3.90534 0.244722 0
M  V30 3576 H 333.054 -3.69909 -1.45785 0
M  V30 3577 N 334.051 0.0651679 -1.57465 0
M  V30 3578 C 334.961 1.09448 -2.07505 0
M  V30 3579 C 335.977 1.41974 -1.00595 0
M  V30 3580 O 337.153 1.52018 -1.32107 0
M  V30 3581 C 334.218 2.38689 -2.51453 0
M  V30 3582 C 333.279 2.13073 -3.72691 0
M  V30 3583 C 332.512 3.36152 -4.14533 0
M  V30 3584 O 332.735 4.45517 -3.56189 0
M  V30 3585 O 331.669 3.23974 -5.07272 0
M  V30 3586 H 335.495 0.69935 -2.95538 0
M  V30 3587 H 333.08 0.279752 -1.46757 0
M  V30 3588 H 334.962 3.14736 -2.80212 0
M  V30 3589 H 333.637 2.77568 -1.66546 0
M  V30 3590 H 332.544 1.34709 -3.49005 0
M  V30 3591 H 333.877 1.79071 -4.5847 0
M  V30 3592 N 335.529 1.53961 0.336706 0
M  V30 3593 C 336.759 1.75229 1.09446 0
M  V30 3594 C 337.167 0.494602 1.82621 0
M  V30 3595 O 336.51 -0.543764 1.75468 0
M  V30 3596 C 336.572 2.88288 2.1478 0
M  V30 3597 C 336.236 4.27656 1.6112 0
M  V30 3598 C 337.233 5.08981 1.0599 0
M  V30 3599 C 334.918 4.74161 1.6576 0
M  V30 3600 C 336.912 6.34916 0.562129 0
M  V30 3601 C 334.599 6.00067 1.15595 0
M  V30 3602 C 335.597 6.80278 0.609147 0
M  V30 3603 O 335.285 8.03818 0.114999 0
M  V30 3604 H 335.017 0.588881 0.331956 0
M  V30 3605 H 337.571 2.01614 0.392566 0
M  V30 3606 H 335.801 2.57443 2.88548 0
M  V30 3607 H 337.49 2.97461 2.76174 0
M  V30 3608 H 338.256 4.74213 1.01722 0
M  V30 3609 H 334.135 4.11781 2.07261 0
M  V30 3610 H 337.679 6.9747 0.134668 0
M  V30 3611 H 333.576 6.3433 1.19566 0
M  V30 3612 H 334.344 8.18172 0.231651 0
M  V30 3613 N 337.007 -0.598083 1.45811 0
M  V30 3614 C 337.937 -1.71873 1.58057 0
M  V30 3615 C 338.918 -1.64533 0.431615 0
M  V30 3616 O 340.103 -1.82787 0.65595 0
M  V30 3617 C 337.233 -3.10495 1.55597 0
M  V30 3618 C 336.187 -3.32654 2.69305 0
M  V30 3619 C 335.513 -4.71646 2.51902 0
M  V30 3620 C 336.813 -3.21981 4.11248 0
M  V30 3621 H 338.507 -1.61881 2.51863 0
M  V30 3622 H 336.053 -0.777372 1.21214 0
M  V30 3623 H 338.006 -3.88699 1.6276 0
M  V30 3624 H 336.73 -3.2135 0.583255 0
M  V30 3625 H 335.389 -2.56843 2.61586 0
M  V30 3626 H 335.037 -4.79246 1.52748 0
M  V30 3627 H 334.737 -4.87426 3.2816 0
M  V30 3628 H 336.261 -5.52038 2.60933 0
M  V30 3629 H 337.675 -3.90049 4.20161 0
M  V30 3630 H 336.072 -3.49289 4.87972 0
M  V30 3631 H 337.142 -2.1928 4.32486 0
M  V30 3632 N 338.485 -1.33259 -0.841409 0
M  V30 3633 C 339.896 -1.22066 -1.41269 0
M  V30 3634 C 340.247 0.161479 -1.95534 0
M  V30 3635 O 339.372 1.06094 -1.88608 0
M  V30 3636 C 339.967 -2.20996 -2.568 0
M  V30 3637 C 338.526 -2.13649 -3.09888 0
M  V30 3638 C 337.673 -2.08623 -1.82679 0
M  V30 3639 H 340.624 -1.44895 -0.647395 0
M  V30 3640 H 340.645 -1.81621 -3.34356 0
M  V30 3641 H 340.157 -3.2158 -2.17274 0
M  V30 3642 H 338.258 -1.16359 -3.53965 0
M  V30 3643 H 338.371 -3.04079 -3.70234 0
M  V30 3644 H 336.735 -1.54061 -2.02824 0
M  V30 3645 H 337.518 -3.1101 -1.45353 0
M  V30 3646 N 339.963 1.05934 -1.16686 0
M  V30 3647 C 341.212 1.78188 -0.945085 0
M  V30 3648 C 341.525 1.88338 0.528021 0
M  V30 3649 O 342.731 2.57258 0.867799 0
M  V30 3650 C 341.187 3.20277 -1.64167 0
M  V30 3651 C 340.795 3.18281 -3.15279 0
M  V30 3652 C 342.539 3.97039 -1.502 0
M  V30 3653 C 340.446 4.55112 -3.7766 0
M  V30 3654 H 339.376 0.667866 -0.349959 0
M  V30 3655 H 342.027 1.18794 -1.39858 0
M  V30 3656 H 340.409 3.79952 -1.11589 0
M  V30 3657 H 341.583 2.68167 -3.74731 0
M  V30 3658 H 339.898 2.55018 -3.29173 0
M  V30 3659 H 342.495 4.98194 -1.94183 0
M  V30 3660 H 342.838 4.13845 -0.451461 0
M  V30 3661 H 343.371 3.43894 -1.99954 0
M  V30 3662 H 340.11 4.43512 -4.82677 0
M  V30 3663 H 339.63 5.05406 -3.22994 0
M  V30 3664 H 341.309 5.24064 -3.79428 0
M  V30 3665 N 341.441 0.965919 1.2453 0
M  V30 3666 C 342.687 0.637349 1.93156 0
M  V30 3667 C 343.042 -0.818261 1.74133 0
M  V30 3668 O 342.335 -1.58079 1.08266 0
M  V30 3669 C 342.529 0.945428 3.44669 0
M  V30 3670 C 342.358 2.42944 3.78429 0
M  V30 3671 C 341.128 3.08895 3.9989 0
M  V30 3672 C 343.326 3.40941 3.8505 0
M  V30 3673 N 341.308 4.47052 4.20735 0
M  V30 3674 C 342.679 4.64448 4.10717 0
M  V30 3675 C 344.734 3.35624 3.67779 0
M  V30 3676 C 343.437 5.83292 4.20907 0
M  V30 3677 C 345.463 4.53818 3.79214 0
M  V30 3678 C 344.825 5.76114 4.05304 0
M  V30 3679 H 340.924 0.284034 0.728594 0
M  V30 3680 H 343.508 1.24041 1.50073 0
M  V30 3681 H 341.679 0.371193 3.86622 0
M  V30 3682 H 343.411 0.575613 4.00586 0
M  V30 3683 H 340.166 2.59432 3.96222 0
M  V30 3684 H 340.59 5.18634 4.35141 0
M  V30 3685 H 345.232 2.4211 3.46616 0
M  V30 3686 H 342.95 6.77236 4.40883 0
M  V30 3687 H 346.536 4.51263 3.67224 0
M  V30 3688 H 345.416 6.66045 4.13949 0
M  V30 3689 N 342.919 -1.39368 0.735821 0
M  V30 3690 C 344.167 -2.00101 0.283562 0
M  V30 3691 C 344.488 -1.5868 -1.13338 0
M  V30 3692 O 343.758 -0.835423 -1.77193 0
M  V30 3693 H 342.338 -0.740024 0.101851 0
M  V30 3694 H 345 -1.70404 0.945962 0
M  V30 3695 H 344.096 -3.10323 0.332604 0
M  V30 3696 N 344.397 -0.483516 -1.5 0
M  V30 3697 C 345.307 0.309172 -2.32554 0
M  V30 3698 C 346.323 0.984159 -1.43493 0
M  V30 3699 O 347.499 0.969399 -1.76535 0
M  V30 3700 C 344.564 1.36979 -3.18493 0
M  V30 3701 C 343.625 0.710095 -4.23387 0
M  V30 3702 C 342.858 1.72018 -5.05218 0
M  V30 3703 O 343.081 2.94813 -4.88305 0
M  V30 3704 O 342.015 1.28515 -5.8802 0
M  V30 3705 H 345.841 -0.366064 -3.01486 0
M  V30 3706 H 343.426 -0.24514 -1.47375 0
M  V30 3707 H 345.308 1.98385 -3.71781 0
M  V30 3708 H 343.983 2.02828 -2.52275 0
M  V30 3709 H 342.89 0.0567539 -3.74057 0
M  V30 3710 H 344.223 0.0943557 -4.9211 0
M  V30 3711 N 345.875 1.56104 -0.216619 0
M  V30 3712 C 347.103 2.02563 0.421413 0
M  V30 3713 C 347.518 1.0965 1.53695 0
M  V30 3714 O 346.875 0.10521 1.82196 0
M  V30 3715 C 346.926 3.48584 0.957665 0
M  V30 3716 O 346.647 4.37953 -0.113389 0
M  V30 3717 C 348.148 4.10664 1.66943 0
M  V30 3718 H 345.368 0.662944 0.103665 0
M  V30 3719 H 347.912 2.01793 -0.331629 0
M  V30 3720 H 346.067 3.49985 1.661 0
M  V30 3721 H 346.481 5.23704 0.288932 0
M  V30 3722 H 347.955 5.14622 1.99671 0
M  V30 3723 H 348.432 3.55373 2.58083 0
M  V30 3724 H 349.038 4.13098 1.01142 0
M  V30 3725 N 347.353 -0.0568162 1.57498 0
M  V30 3726 C 348.263 -1.08346 2.08083 0
M  V30 3727 C 349.279 -1.41439 1.01346 0
M  V30 3728 O 350.455 -1.51316 1.32912 0
M  V30 3729 C 347.52 -2.37352 2.52715 0
M  V30 3730 C 346.581 -2.11093 3.73816 0
M  V30 3731 C 345.814 -3.33949 4.1631 0
M  V30 3732 O 346.037 -4.43622 3.58547 0
M  V30 3733 O 344.971 -3.21279 5.08983 0
M  V30 3734 H 348.797 -0.683667 2.95905 0
M  V30 3735 H 346.382 -0.271965 1.46904 0
M  V30 3736 H 348.264 -3.13246 2.81877 0
M  V30 3737 H 346.939 -2.76681 1.68016 0
M  V30 3738 H 345.846 -1.32856 3.49714 0
M  V30 3739 H 347.179 -1.76637 4.59413 0
M  V30 3740 N 348.832 -1.54138 -0.328536 0
M  V30 3741 C 349.742 -1.86192 -1.42723 0
M  V30 3742 C 350.758 -0.753382 -1.56844 0
M  V30 3743 O 351.934 -1.04718 -1.72035 0
M  V30 3744 C 348.999 -2.07824 -2.77507 0
M  V30 3745 C 348.06 -3.31641 -2.72603 0
M  V30 3746 C 347.293 -3.52232 -4.00959 0
M  V30 3747 O 347.516 -2.7636 -4.9898 0
M  V30 3748 O 346.45 -4.45699 -4.0452 0
M  V30 3749 H 350.276 -2.79608 -1.18547 0
M  V30 3750 H 347.861 -1.3998 -0.522104 0
M  V30 3751 H 349.743 -2.23411 -3.57303 0
M  V30 3752 H 348.418 -1.17596 -3.01584 0
M  V30 3753 H 347.325 -3.21444 -1.91376 0
M  V30 3754 H 348.658 -4.2191 -2.53481 0
M  V30 3755 N 350.31 0.590341 -1.46126 0
M  V30 3756 C 351.538 1.37504 -1.54597 0
M  V30 3757 C 351.953 1.87897 -0.184447 0
M  V30 3758 O 351.31 1.63192 0.816984 0
M  V30 3759 C 351.361 2.56779 -2.54454 0
M  V30 3760 O 351.082 2.08476 -3.85317 0
M  V30 3761 C 352.583 3.49427 -2.72792 0
M  V30 3762 H 349.803 0.420325 -0.523037 0
M  V30 3763 H 352.347 0.718383 -1.91467 0
M  V30 3764 H 350.502 3.1845 -2.20609 0
M  V30 3765 H 350.916 2.86097 -4.396 0
M  V30 3766 H 352.39 4.29619 -3.466 0
M  V30 3767 H 352.867 4.00876 -1.79429 0
M  V30 3768 H 353.473 2.93598 -3.07702 0
M  V30 3769 N 351.788 1.33704 0.83433 0
M  V30 3770 C 353.016 1.28467 1.62185 0
M  V30 3771 C 353.431 -0.143526 1.88254 0
M  V30 3772 O 352.788 -1.08709 1.4659 0
M  V30 3773 C 352.839 2.06174 2.96942 0
M  V30 3774 O 352.56 3.43422 2.72016 0
M  V30 3775 C 354.061 2.08201 3.91366 0
M  V30 3776 H 351.281 0.4424 0.504503 0
M  V30 3777 H 353.825 1.76145 1.03891 0
M  V30 3778 H 351.98 1.62167 3.51825 0
M  V30 3779 H 352.394 3.83453 3.57861 0
M  V30 3780 H 353.868 2.67017 4.83121 0
M  V30 3781 H 354.345 1.07343 4.2588 0
M  V30 3782 H 354.951 2.52246 3.42421 0
M  V30 3783 N 353.266 -1.05314 1.17247 0
M  V30 3784 C 354.513 -1.78293 0.960091 0
M  V30 3785 C 354.841 -1.87658 -0.51136 0
M  V30 3786 O 354.096 -1.3718 -1.39571 0
M  V30 3787 C 354.395 -3.2229 1.54479 0
M  V30 3788 C 354.061 -3.32987 3.04024 0
M  V30 3789 C 352.723 -3.35613 3.44844 0
M  V30 3790 C 355.075 -3.34102 4.00031 0
M  V30 3791 C 352.403 -3.36982 4.8027 0
M  V30 3792 C 354.755 -3.3701 5.35357 0
M  V30 3793 C 353.419 -3.37923 5.75642 0
M  V30 3794 H 352.689 -0.652422 0.351322 0
M  V30 3795 H 355.336 -1.23782 1.46117 0
M  V30 3796 H 353.641 -3.7972 0.965391 0
M  V30 3797 H 355.338 -3.77376 1.35603 0
M  V30 3798 H 351.928 -3.31655 2.71483 0
M  V30 3799 H 356.112 -3.31276 3.69554 0
M  V30 3800 H 351.368 -3.35999 5.10798 0
M  V30 3801 H 355.542 -3.36822 6.09528 0
M  V30 3802 H 353.169 -3.38738 6.80559 0
M  V30 3803 N 354.744 -0.972509 -1.24016 0
M  V30 3804 C 355.654 -0.5143 -2.28893 0
M  V30 3805 C 356.67 0.427078 -1.68677 0
M  V30 3806 O 357.846 0.298939 -1.99169 0
M  V30 3807 C 354.911 0.183598 -3.46214 0
M  V30 3808 C 353.972 -0.798202 -4.21814 0
M  V30 3809 C 353.205 -0.133514 -5.33533 0
M  V30 3810 O 353.428 1.07714 -5.60137 0
M  V30 3811 O 352.362 -0.828103 -5.96176 0
M  V30 3812 H 356.188 -1.38629 -2.70214 0
M  V30 3813 H 353.773 -0.739769 -1.29799 0
M  V30 3814 H 355.655 0.575433 -4.17453 0
M  V30 3815 H 354.33 1.03048 -3.0686 0
M  V30 3816 H 353.237 -1.24059 -3.52931 0
M  V30 3817 H 354.57 -1.61364 -4.64997 0
M  V30 3818 N 356.222 1.38976 -0.743202 0
M  V30 3819 C 357.185 2.28901 -0.117014 0
M  V30 3820 C 358.185 1.46698 0.658503 0
M  V30 3821 O 359.375 1.67274 0.486305 0
M  V30 3822 C 356.507 3.30309 0.84315 0
M  V30 3823 H 357.7 2.8578 -0.909373 0
M  V30 3824 H 355.253 1.47761 -0.509547 0
M  V30 3825 H 355.988 2.785 1.66157 0
M  V30 3826 H 355.773 3.91029 0.289594 0
M  V30 3827 H 357.263 3.97577 1.2776 0
M  V30 3828 N 357.7 0.491464 1.49741 0
M  V30 3829 C 358.948 -0.0563141 2.02022 0
M  V30 3830 C 359.269 -1.38363 1.37407 0
M  V30 3831 O 358.539 -1.88702 0.526166 0
M  V30 3832 H 357.119 -0.0238014 0.746621 0
M  V30 3833 H 359.781 0.646533 1.83864 0
M  V30 3834 H 358.877 -0.192967 3.11503 0
M  V30 3835 N 359.178 -1.55987 0.224894 0
M  V30 3836 C 360.424 -1.98684 -0.406502 0
M  V30 3837 C 360.757 -1.11248 -1.59177 0
M  V30 3838 O 360.032 -0.170909 -1.93748 0
M  V30 3839 C 360.315 -3.50218 -0.837808 0
M  V30 3840 C 360.168 -4.48426 0.351332 0
M  V30 3841 C 361.487 -4.06243 -1.69278 0
M  V30 3842 H 358.606 -0.722337 -0.146283 0
M  V30 3843 H 361.248 -1.87255 0.321799 0
M  V30 3844 H 359.398 -3.60089 -1.45837 0
M  V30 3845 H 361.07 -4.50562 0.989526 0
M  V30 3846 H 359.313 -4.22159 0.998207 0
M  V30 3847 H 359.984 -5.52 0.00655905 0
M  V30 3848 H 362.46 -3.99337 -1.16914 0
M  V30 3849 H 361.336 -5.12581 -1.96346 0
M  V30 3850 H 361.597 -3.53332 -2.65723 0
M  V30 3851 N 360.656 0.0484629 -1.57525 0
M  V30 3852 C 361.603 1.05504 -2.05275 0
M  V30 3853 C 362.573 1.37084 -0.937927 0
M  V30 3854 O 363.758 1.47754 -1.2072 0
M  V30 3855 C 360.898 2.35676 -2.52093 0
M  V30 3856 C 360.011 2.10423 -3.77288 0
M  V30 3857 C 359.146 3.34327 -4.12794 0
M  V30 3858 C 358.185 3.04542 -5.30962 0
M  V30 3859 N 357.322 4.20841 -5.61994 0
M  V30 3860 H 362.162 0.640885 -2.91027 0
M  V30 3861 H 359.699 0.304854 -1.43906 0
M  V30 3862 H 361.657 3.11709 -2.77297 0
M  V30 3863 H 360.287 2.7485 -1.69285 0
M  V30 3864 H 359.339 1.24976 -3.59284 0
M  V30 3865 H 360.651 1.84438 -4.63448 0
M  V30 3866 H 359.805 4.1874 -4.39024 0
M  V30 3867 H 358.544 3.63408 -3.25247 0
M  V30 3868 H 357.549 2.18528 -5.04505 0
M  V30 3869 H 358.774 2.76758 -6.20146 0
M  V30 3870 H 356.72 4.4991 -4.77406 0
M  V30 3871 H 356.637 3.98212 -6.42622 0
M  V30 3872 H 357.905 5.06184 -5.92789 0
M  V30 3873 N 362.134 1.5431 0.320358 0
M  V30 3874 C 363.38 1.72924 1.05949 0
M  V30 3875 C 363.713 0.503185 1.87568 0
M  V30 3876 O 362.988 -0.499839 1.87968 0
M  V30 3877 C 363.271 3.00676 1.98156 0
M  V30 3878 C 363.124 4.3354 1.19845 0
M  V30 3879 C 364.443 3.24198 2.9763 0
M  V30 3880 H 361.562 0.629195 0.383774 0
M  V30 3881 H 364.204 1.87008 0.335854 0
M  V30 3882 H 362.354 2.888 2.59859 0
M  V30 3883 H 364.026 4.57305 0.605773 0
M  V30 3884 H 362.269 4.309 0.500784 0
M  V30 3885 H 362.94 5.19156 1.87567 0
M  V30 3886 H 365.416 3.35557 2.4605 0
M  V30 3887 H 364.292 4.14938 3.59329 0
M  V30 3888 H 364.553 2.41577 3.7026 0
M  V30 3889 N 363.613 -0.582584 1.46437 0
M  V30 3890 C 364.545 -1.70618 1.53043 0
M  V30 3891 C 365.558 -1.57322 0.418769 0
M  V30 3892 O 366.747 -1.64744 0.687136 0
M  V30 3893 C 363.847 -3.08869 1.39474 0
M  V30 3894 C 363.02 -3.48166 2.64762 0
M  V30 3895 C 362.079 -4.65478 2.4539 0
M  V30 3896 O 361.105 -4.71333 3.19114 0
M  V30 3897 N 362.307 -5.60365 1.51564 0
M  V30 3898 H 365.072 -1.65405 2.49923 0
M  V30 3899 H 362.633 -0.768567 1.42494 0
M  V30 3900 H 364.625 -3.85143 1.24287 0
M  V30 3901 H 363.195 -3.08449 0.507758 0
M  V30 3902 H 362.415 -2.61598 2.9489 0
M  V30 3903 H 363.703 -3.71188 3.4799 0
M  V30 3904 H 363.101 -5.5837 0.907705 0
M  V30 3905 H 361.658 -6.36068 1.4234 0
M  V30 3906 N 365.091 -1.34144 -0.827227 0
M  V30 3907 C 366.34 -1.25602 -1.5782 0
M  V30 3908 C 366.653 0.173445 -1.94829 0
M  V30 3909 O 367.859 0.380984 -2.68814 0
M  V30 3910 C 366.315 -2.20151 -2.84713 0
M  V30 3911 C 365.923 -3.68331 -2.55021 0
M  V30 3912 C 367.667 -2.20508 -3.62735 0
M  V30 3913 C 365.574 -4.54762 -3.78082 0
M  V30 3914 H 364.504 -0.466573 -0.592306 0
M  V30 3915 H 367.155 -1.59283 -0.911116 0
M  V30 3916 H 365.537 -1.79417 -3.53023 0
M  V30 3917 H 366.711 -4.17577 -1.94849 0
M  V30 3918 H 365.026 -3.7038 -1.90283 0
M  V30 3919 H 367.623 -2.82306 -4.54101 0
M  V30 3920 H 367.966 -1.20322 -3.98533 0
M  V30 3921 H 368.499 -2.59664 -3.01362 0
M  V30 3922 H 365.238 -5.55867 -3.47407 0
M  V30 3923 H 364.758 -4.10254 -4.37552 0
M  V30 3924 H 366.437 -4.69153 -4.45538 0
M  V30 3925 N 366.569 1.04691 -1.17803 0
M  V30 3926 C 367.519 2.10856 -0.867391 0
M  V30 3927 C 368.503 1.601 0.160206 0
M  V30 3928 O 369.695 1.76948 -0.042947 0
M  V30 3929 C 366.824 3.411 -0.388012 0
M  V30 3930 C 365.91 3.9864 -1.44732 0
M  V30 3931 N 366.301 4.30075 -2.66212 0
M  V30 3932 C 364.599 4.26439 -1.30637 0
M  V30 3933 C 365.3 4.76033 -3.34317 0
M  V30 3934 N 364.276 4.76462 -2.61696 0
M  V30 3935 H 368.078 2.33029 -1.79094 0
M  V30 3936 H 365.592 1.22386 -1.0675 0
M  V30 3937 H 367.589 4.16641 -0.146994 0
M  V30 3938 H 366.249 3.20357 0.529271 0
M  V30 3939 H 367.26 4.19917 -3.03134 0
M  V30 3940 H 363.937 4.15056 -0.451129 0
M  V30 3941 H 365.327 5.09427 -4.38103 0
M  V30 3942 N 368.047 0.979072 1.23499 0
M  V30 3943 C 369.272 0.664845 1.96455 0
M  V30 3944 C 369.697 -0.761287 1.72006 0
M  V30 3945 O 369.055 -1.51837 0.990713 0
M  V30 3946 C 369.103 0.959479 3.47601 0
M  V30 3947 O 368.207 0.0508168 4.12369 0
M  V30 3948 H 367.548 0.250185 0.615064 0
M  V30 3949 H 370.078 1.31231 1.5697 0
M  V30 3950 H 370.088 0.895642 3.98048 0
M  V30 3951 H 368.763 1.99876 3.64723 0
M  V30 3952 H 367.34 0.16895 3.72517 0
M  V30 3953 N 369.525 -1.3858 0.750561 0
M  V30 3954 C 370.457 -2.29057 0.0810714 0
M  V30 3955 C 371.47 -1.47596 -0.686973 0
M  V30 3956 O 372.659 -1.70495 -0.528563 0
M  V30 3957 C 369.759 -3.26475 -0.909247 0
M  V30 3958 C 368.932 -4.36945 -0.199478 0
M  V30 3959 C 367.991 -5.14572 -1.10011 0
M  V30 3960 O 367.017 -5.66321 -0.57177 0
M  V30 3961 N 368.219 -5.27262 -2.42849 0
M  V30 3962 H 370.984 -2.87153 0.858087 0
M  V30 3963 H 368.545 -1.50328 0.60109 0
M  V30 3964 H 370.537 -3.75285 -1.51471 0
M  V30 3965 H 369.107 -2.69298 -1.58736 0
M  V30 3966 H 368.327 -3.8981 0.586664 0
M  V30 3967 H 369.615 -5.07963 0.291783 0
M  V30 3968 H 369.013 -4.86763 -2.88233 0
M  V30 3969 H 367.57 -5.79456 -2.98453 0
M  V30 3970 N 371.003 -0.499398 -1.49478 0
M  V30 3971 C 372.228 0.044722 -2.07352 0
M  V30 3972 C 372.653 1.30207 -1.35749 0
M  V30 3973 O 372.011 1.76516 -0.413732 0
M  V30 3974 C 372.059 0.283013 -3.59488 0
M  V30 3975 O 371.163 1.35804 -3.89398 0
M  V30 3976 H 370.504 -0.0255147 -0.66351 0
M  V30 3977 H 373.034 -0.698561 -1.92305 0
M  V30 3978 H 373.044 0.515007 -4.04737 0
M  V30 3979 H 371.719 -0.635636 -4.11014 0
M  V30 3980 H 370.296 1.11113 -3.55961 0
M  V30 3981 N 372.481 1.55866 -0.233164 0
M  V30 3982 C 373.391 2.24431 0.683217 0
M  V30 3983 C 374.407 1.2558 1.2044 0
M  V30 3984 O 375.583 1.58422 1.24356 0
M  V30 3985 C 372.648 2.91979 1.86947 0
M  V30 3986 C 371.709 4.06204 1.38912 0
M  V30 3987 C 370.942 4.70522 2.51883 0
M  V30 3988 O 371.165 4.33865 3.70293 0
M  V30 3989 O 370.099 5.59296 2.22423 0
M  V30 3990 H 373.925 3.03426 0.129059 0
M  V30 3991 H 371.51 1.494 -0.0022283 0
M  V30 3992 H 373.392 3.34573 2.56201 0
M  V30 3993 H 372.067 2.15935 2.41151 0
M  V30 3994 H 370.974 3.68155 0.664259 0
M  V30 3995 H 372.307 4.84025 0.893328 0
M  V30 3996 N 373.959 -0.0401083 1.57549 0
M  V30 3997 C 375.37 -0.588097 1.77196 0
M  V30 3998 C 375.721 -1.76209 0.862832 0
M  V30 3999 O 374.846 -2.16331 0.0548389 0
M  V30 4000 C 375.441 -1.07363 3.21339 0
M  V30 4001 C 374 -1.56723 3.42221 0
M  V30 4002 C 373.147 -0.50041 2.72747 0
M  V30 4003 H 376.098 0.186119 1.57605 0
M  V30 4004 H 376.119 -1.94143 3.27244 0
M  V30 4005 H 375.631 -0.218975 3.87482 0
M  V30 4006 H 373.732 -2.4441 2.81237 0
M  V30 4007 H 373.845 -1.62234 4.50796 0
M  V30 4008 H 372.209 -0.952894 2.36203 0
M  V30 4009 H 372.992 0.344599 3.41566 0
M  V30 4010 N 375.437 -1.54477 -0.31217 0
M  V30 4011 C 376.848 -1.64344 -0.885891 0
M  V30 4012 C 377.199 -0.54485 -1.88483 0
M  V30 4013 O 376.324 0.320387 -2.14015 0
M  V30 4014 C 376.919 -2.97908 -1.61357 0
M  V30 4015 C 375.478 -3.09933 -2.13585 0
M  V30 4016 C 374.625 -2.59971 -0.964897 0
M  V30 4017 H 377.576 -1.58448 -0.0894528 0
M  V30 4018 H 377.597 -2.88706 -2.47848 0
M  V30 4019 H 377.109 -3.77845 -0.886277 0
M  V30 4020 H 375.21 -2.34694 -2.89395 0
M  V30 4021 H 375.323 -4.15916 -2.37804 0
M  V30 4022 H 373.687 -2.16147 -1.34731 0
M  V30 4023 H 374.47 -3.42376 -0.251742 0
M  V30 4024 N 376.915 0.57481 -1.46744 0
M  V30 4025 C 378.162 1.33272 -1.52462 0
M  V30 4026 C 378.49 1.93669 -0.179572 0
M  V30 4027 O 377.745 1.7743 0.825664 0
M  V30 4028 C 378.044 2.476 -2.57738 0
M  V30 4029 C 377.71 2.05146 -4.01529 0
M  V30 4030 C 376.372 1.93284 -4.40676 0
M  V30 4031 C 378.724 1.72506 -4.91824 0
M  V30 4032 C 376.052 1.47049 -5.67973 0
M  V30 4033 C 378.404 1.27748 -6.19567 0
M  V30 4034 C 377.068 1.14468 -6.57612 0
M  V30 4035 H 376.338 0.487678 -0.557899 0
M  V30 4036 H 378.985 0.646456 -1.80259 0
M  V30 4037 H 377.29 3.21708 -2.23632 0
M  V30 4038 H 378.987 3.05807 -2.5939 0
M  V30 4039 H 375.577 2.15316 -3.7059 0
M  V30 4040 H 379.761 1.80552 -4.62293 0
M  V30 4041 H 375.017 1.35417 -5.96215 0
M  V30 4042 H 379.191 1.01547 -6.88957 0
M  V30 4043 H 376.818 0.78419 -7.56145 0
M  V30 4044 N 378.394 1.34581 0.820102 0
M  V30 4045 C 379.643 1.26437 1.57151 0
M  V30 4046 C 379.956 -0.163111 1.94919 0
M  V30 4047 O 381.162 -0.366722 2.69012 0
M  V30 4048 C 379.618 2.21658 2.83541 0
M  V30 4049 C 379.226 3.69679 2.53065 0
M  V30 4050 C 380.97 2.22428 3.61561 0
M  V30 4051 C 378.877 4.56761 3.75664 0
M  V30 4052 H 377.807 0.469707 0.589823 0
M  V30 4053 H 380.458 1.59763 0.902656 0
M  V30 4054 H 378.84 1.81287 3.52067 0
M  V30 4055 H 380.014 4.18605 1.92631 0
M  V30 4056 H 378.329 3.71384 1.88316 0
M  V30 4057 H 380.926 2.8471 4.52597 0
M  V30 4058 H 381.269 1.22434 3.97889 0
M  V30 4059 H 381.802 2.61259 2.99981 0
M  V30 4060 H 378.541 5.57702 3.44454 0
M  V30 4061 H 378.061 4.12568 4.35371 0
M  V30 4062 H 379.74 4.71509 4.43044 0
M  V30 4063 N 379.872 -1.04064 1.18357 0
M  V30 4064 C 380.804 -2.12114 0.868358 0
M  V30 4065 C 381.817 -1.62247 -0.134045 0
M  V30 4066 O 383.006 -1.78253 0.0937933 0
M  V30 4067 C 380.106 -3.37773 0.276132 0
M  V30 4068 C 379.279 -4.16874 1.3242 0
M  V30 4069 C 378.338 -5.20861 0.747662 0
M  V30 4070 O 377.364 -5.51141 1.42239 0
M  V30 4071 N 378.566 -5.78715 -0.454823 0
M  V30 4072 H 381.331 -2.39748 1.79836 0
M  V30 4073 H 378.892 -1.20258 1.08396 0
M  V30 4074 H 380.884 -4.04513 -0.123133 0
M  V30 4075 H 379.454 -3.07581 -0.557895 0
M  V30 4076 H 378.674 -3.45456 1.89878 0
M  V30 4077 H 379.962 -4.66516 2.03078 0
M  V30 4078 H 379.36 -5.56415 -1.02073 0
M  V30 4079 H 377.917 -6.46921 -0.79601 0
M  V30 4080 N 381.35 -0.985608 -1.22978 0
M  V30 4081 C 382.26 -0.538548 -2.28335 0
M  V30 4082 C 383.276 0.409163 -1.69121 0
M  V30 4083 O 384.452 0.277797 -1.99475 0
M  V30 4084 C 381.517 0.146867 -3.46389 0
M  V30 4085 C 380.578 -0.842896 -4.20944 0
M  V30 4086 C 379.811 -0.190095 -5.33361 0
M  V30 4087 O 380.034 1.01767 -5.61248 0
M  V30 4088 O 378.968 -0.891289 -5.95264 0
M  V30 4089 H 382.794 -1.41487 -2.68729 0
M  V30 4090 H 380.379 -0.753495 -1.29007 0
M  V30 4091 H 382.261 0.531125 -4.1804 0
M  V30 4092 H 380.936 0.997871 -3.07935 0
M  V30 4093 H 379.843 -1.27795 -3.51595 0
M  V30 4094 H 381.176 -1.66287 -4.6326 0
M  V30 4095 N 382.828 1.3818 -0.7579 0
M  V30 4096 C 383.758 2.33027 -0.148597 0
M  V30 4097 C 384.739 1.55085 0.69875 0
M  V30 4098 O 385.924 1.83384 0.639053 0
M  V30 4099 C 383.054 3.3928 0.742034 0
M  V30 4100 C 382.008 4.28 -0.00291946 0
M  V30 4101 C 381.334 5.25146 1.00625 0
M  V30 4102 C 382.634 5.08938 -1.17385 0
M  V30 4103 H 384.328 2.84231 -0.940909 0
M  V30 4104 H 381.874 1.36659 -0.453908 0
M  V30 4105 H 383.827 4.046 1.17799 0
M  V30 4106 H 382.551 2.86569 1.56671 0
M  V30 4107 H 381.21 3.64192 -0.419504 0
M  V30 4108 H 380.858 4.68721 1.8251 0
M  V30 4109 H 380.558 5.85361 0.512428 0
M  V30 4110 H 382.082 5.93342 1.44143 0
M  V30 4111 H 383.496 5.67474 -0.815224 0
M  V30 4112 H 381.893 5.7841 -1.59882 0
M  V30 4113 H 382.963 4.42424 -1.98468 0
M  V30 4114 N 384.306 0.507319 1.49211 0
M  V30 4115 C 385.554 -0.0348839 2.0207 0
M  V30 4116 C 385.875 -1.36898 1.38866 0
M  V30 4117 O 385.145 -1.88133 0.546151 0
M  V30 4118 H 383.725 -0.0158812 0.746831 0
M  V30 4119 H 386.387 0.665998 1.83168 0
M  V30 4120 H 385.483 -0.159917 3.1169 0
M  V30 4121 N 385.784 -1.5574 0.241426 0
M  V30 4122 C 387.031 -1.9881 -0.384836 0
M  V30 4123 C 387.359 -1.12947 -1.58346 0
M  V30 4124 O 386.614 -0.178993 -1.9488 0
M  V30 4125 C 386.913 -3.47308 -0.843317 0
M  V30 4126 C 386.579 -4.50223 0.246946 0
M  V30 4127 C 385.241 -4.78088 0.546399 0
M  V30 4128 C 387.593 -5.11841 0.983282 0
M  V30 4129 C 384.921 -5.64846 1.58636 0
M  V30 4130 C 387.273 -5.99727 2.01272 0
M  V30 4131 C 385.937 -6.25927 2.31888 0
M  V30 4132 H 385.207 -0.727496 -0.140821 0
M  V30 4133 H 387.854 -1.8831 0.348106 0
M  V30 4134 H 386.159 -3.55112 -1.65537 0
M  V30 4135 H 387.856 -3.78017 -1.33806 0
M  V30 4136 H 384.446 -4.286 0.00340639 0
M  V30 4137 H 388.63 -4.90366 0.765182 0
M  V30 4138 H 383.886 -5.83403 1.82896 0
M  V30 4139 H 388.06 -6.46517 2.58823 0
M  V30 4140 H 385.687 -6.92949 3.12611 0
M  V30 4141 N 387.262 0.0317525 -1.57568 0
M  V30 4142 C 388.51 0.721676 -1.88776 0
M  V30 4143 C 388.831 1.76039 -0.838772 0
M  V30 4144 O 388.101 1.95482 0.127935 0
M  V30 4145 H 386.681 0.269534 -0.696678 0
M  V30 4146 H 389.343 -0.00165879 -1.949 0
M  V30 4147 H 388.439 1.21293 -2.87566 0
M  V30 4148 N 388.74 1.54641 0.303973 0
M  V30 4149 C 389.986 1.74038 1.04109 0
M  V30 4150 C 390.319 0.523051 1.87024 0
M  V30 4151 O 389.594 -0.479874 1.88487 0
M  V30 4152 C 389.877 3.02761 1.94955 0
M  V30 4153 C 389.73 4.34787 1.1524 0
M  V30 4154 C 391.049 3.27336 2.94175 0
M  V30 4155 H 388.168 0.63323 0.377079 0
M  V30 4156 H 390.81 1.87354 0.316001 0
M  V30 4157 H 388.96 2.9154 2.56782 0
M  V30 4158 H 390.632 4.57922 0.557236 0
M  V30 4159 H 388.875 4.31407 0.455053 0
M  V30 4160 H 389.546 5.21116 1.8205 0
M  V30 4161 H 392.022 3.38148 2.42477 0
M  V30 4162 H 390.898 4.18726 3.54908 0
M  V30 4163 H 391.159 2.45491 3.67677 0
M  V30 4164 N 390.218 -0.567019 1.47046 0
M  V30 4165 C 391.181 -1.65696 1.58359 0
M  V30 4166 C 392.181 -1.54097 0.459441 0
M  V30 4167 O 393.371 -1.58432 0.724225 0
M  V30 4168 C 390.503 -3.05197 1.51879 0
M  V30 4169 H 391.696 -1.57019 2.5551 0
M  V30 4170 H 389.249 -0.786148 1.3509 0
M  V30 4171 H 389.984 -3.19417 0.560673 0
M  V30 4172 H 389.769 -3.15025 2.33455 0
M  V30 4173 H 391.259 -3.84511 1.62913 0
M  V30 4174 N 391.696 -1.35014 -0.812953 0
M  V30 4175 C 393.107 -1.25035 -1.38648 0
M  V30 4176 C 393.458 0.119967 -1.95833 0
M  V30 4177 O 392.583 1.02069 -1.90816 0
M  V30 4178 C 393.178 -2.26394 -2.52054 0
M  V30 4179 C 391.737 -2.20175 -3.05287 0
M  V30 4180 C 390.884 -2.12451 -1.78213 0
M  V30 4181 H 393.835 -1.46235 -0.616516 0
M  V30 4182 H 393.856 -1.88672 -3.30429 0
M  V30 4183 H 393.368 -3.26116 -2.10404 0
M  V30 4184 H 391.469 -1.23841 -3.51417 0
M  V30 4185 H 391.582 -3.11863 -3.63701 0
M  V30 4186 H 389.946 -1.58328 -1.9951 0
M  V30 4187 H 390.729 -3.14024 -1.38723 0
M  V30 4188 N 393.175 1.03435 -1.18907 0
M  V30 4189 C 394.423 1.76394 -0.986382 0
M  V30 4190 C 394.744 1.88883 0.484567 0
M  V30 4191 O 394.014 1.41843 1.3512 0
M  V30 4192 H 392.594 0.65344 -0.361975 0
M  V30 4193 H 395.256 1.248 -1.49703 0
M  V30 4194 H 394.352 2.77424 -1.42978 0
M  V30 4195 N 394.653 0.992116 1.22453 0
M  V30 4196 C 395.9 0.667534 1.91181 0
M  V30 4197 C 396.228 -0.800317 1.77271 0
M  V30 4198 O 395.483 -1.59421 1.13505 0
M  V30 4199 C 395.782 1.01832 3.42586 0
M  V30 4200 C 395.448 2.47831 3.76684 0
M  V30 4201 C 394.11 2.87729 3.85701 0
M  V30 4202 C 396.462 3.42466 3.92895 0
M  V30 4203 C 393.79 4.21252 4.08367 0
M  V30 4204 C 396.142 4.75648 4.17064 0
M  V30 4205 C 394.806 5.15288 4.24305 0
M  V30 4206 H 394.076 0.244268 0.699581 0
M  V30 4207 H 396.723 1.24816 1.45235 0
M  V30 4208 H 395.028 0.355769 3.90181 0
M  V30 4209 H 396.725 0.745228 3.94014 0
M  V30 4210 H 393.315 2.15905 3.70247 0
M  V30 4211 H 397.499 3.12814 3.85307 0
M  V30 4212 H 392.755 4.51554 4.122 0
M  V30 4213 H 396.929 5.48924 4.2855 0
M  V30 4214 H 394.556 6.18769 4.41621 0
M  V30 4215 N 396.131 -1.37776 0.765217 0
M  V30 4216 C 397.063 -2.28958 0.105361 0
M  V30 4217 C 398.076 -1.48316 -0.67128 0
M  V30 4218 O 399.265 -1.71046 -0.51045 0
M  V30 4219 C 396.365 -3.27421 -0.874569 0
M  V30 4220 C 395.538 -4.37132 -0.153123 0
M  V30 4221 C 394.597 -5.1571 -1.04547 0
M  V30 4222 O 393.623 -5.66896 -0.511672 0
M  V30 4223 N 394.825 -5.29808 -2.37243 0
M  V30 4224 H 397.59 -2.86227 0.888495 0
M  V30 4225 H 395.151 -1.49682 0.617 0
M  V30 4226 H 397.143 -3.7687 -1.47483 0
M  V30 4227 H 395.713 -2.70967 -1.55871 0
M  V30 4228 H 394.933 -3.89166 0.627975 0
M  V30 4229 H 396.221 -5.07625 0.345643 0
M  V30 4230 H 395.619 -4.89793 -2.83054 0
M  V30 4231 H 394.176 -5.82589 -2.9229 0
M  V30 4232 N 397.609 -0.515225 -1.4894 0
M  V30 4233 C 398.837 0.0206034 -2.0689 0
M  V30 4234 C 399.252 1.29514 -1.37374 0
M  V30 4235 O 398.609 1.76698 -0.456529 0
M  V30 4236 C 398.66 0.26351 -3.60538 0
M  V30 4237 O 398.381 -0.960517 -4.27441 0
M  V30 4238 C 399.882 0.841383 -4.35242 0
M  V30 4239 H 397.102 -0.0268608 -0.670462 0
M  V30 4240 H 399.646 -0.716651 -1.91532 0
M  V30 4241 H 397.801 0.950777 -3.75552 0
M  V30 4242 H 398.215 -0.73212 -5.19365 0
M  V30 4243 H 399.689 0.96085 -5.43573 0
M  V30 4244 H 400.166 1.8427 -3.98674 0
M  V30 4245 H 400.772 0.191143 -4.2487 0
M  V30 4246 N 399.087 1.5561 -0.249682 0
M  V30 4247 C 400.334 1.99011 0.374287 0
M  V30 4248 C 400.662 1.13785 1.57744 0
M  V30 4249 O 399.917 0.189326 1.94782 0
M  V30 4250 C 400.216 3.4775 0.824887 0
M  V30 4251 C 399.882 4.50086 -0.270819 0
M  V30 4252 C 398.544 4.77791 -0.571746 0
M  V30 4253 C 400.896 5.11312 -1.01041 0
M  V30 4254 C 398.224 5.63997 -1.61629 0
M  V30 4255 C 400.576 5.98651 -2.0445 0
M  V30 4256 C 399.24 6.24688 -2.35204 0
M  V30 4257 H 398.51 0.728233 0.136961 0
M  V30 4258 H 401.157 1.88122 -0.358087 0
M  V30 4259 H 399.462 3.55985 1.63651 0
M  V30 4260 H 401.159 3.78721 1.31799 0
M  V30 4261 H 397.749 4.28592 -0.026136 0
M  V30 4262 H 401.933 4.89953 -0.791177 0
M  V30 4263 H 397.189 5.82425 -1.85988 0
M  V30 4264 H 401.363 6.45135 -2.62248 0
M  V30 4265 H 398.99 6.91281 -3.16282 0
M  V30 4266 N 400.565 -0.0233959 1.57583 0
M  V30 4267 C 401.811 -0.714119 1.89811 0
M  V30 4268 C 402.144 -1.74702 0.848113 0
M  V30 4269 O 401.419 -1.94023 -0.136135 0
M  V30 4270 C 401.702 -1.37853 3.32669 0
M  V30 4271 C 401.555 -0.358764 4.48367 0
M  V30 4272 C 402.874 -2.31101 3.7454 0
M  V30 4273 H 399.993 -0.25814 0.690314 0
M  V30 4274 H 402.635 0.0230927 1.89986 0
M  V30 4275 H 400.785 -2.00689 3.3265 0
M  V30 4276 H 402.457 0.268115 4.6052 0
M  V30 4277 H 400.7 0.321387 4.32608 0
M  V30 4278 H 401.371 -0.862242 5.45224 0
M  V30 4279 H 403.847 -1.78304 3.75961 0
M  V30 4280 H 402.723 -2.74567 4.75294 0
M  V30 4281 H 402.984 -3.18018 3.0711 0
M  V30 4282 N 402.043 -1.548 -0.295768 0
M  V30 4283 C 403.006 -1.85363 -1.34808 0
M  V30 4284 C 404.006 -0.726817 -1.43436 0
M  V30 4285 O 405.196 -0.995088 -1.42981 0
M  V30 4286 C 402.328 -2.03859 -2.73229 0
M  V30 4287 H 403.521 -2.7941 -1.08949 0
M  V30 4288 H 401.074 -1.46942 -0.532702 0
M  V30 4289 H 401.809 -1.12117 -3.04303 0
M  V30 4290 H 401.594 -2.8588 -2.68356 0
M  V30 4291 H 403.084 -2.28857 -3.49305 0
M  V30 4292 N 403.521 0.559213 -1.47345 0
M  V30 4293 C 404.749 1.34194 -1.57479 0
M  V30 4294 C 405.164 1.87463 -0.224261 0
M  V30 4295 O 404.521 1.64888 0.782185 0
M  V30 4296 C 404.572 2.51324 -2.59843 0
M  V30 4297 O 404.293 2.00256 -3.89653 0
M  V30 4298 C 405.794 3.43563 -2.80142 0
M  V30 4299 H 403.014 0.409136 -0.531835 0
M  V30 4300 H 405.558 0.677609 -1.92947 0
M  V30 4301 H 403.713 3.13699 -2.27314 0
M  V30 4302 H 404.127 2.76708 -4.4557 0
M  V30 4303 H 405.601 4.2217 -3.55635 0
M  V30 4304 H 406.078 3.9698 -1.87892 0
M  V30 4305 H 406.684 2.87005 -3.1386 0
M  V30 4306 N 404.999 1.35443 0.805782 0
M  V30 4307 C 405.931 1.24285 1.92577 0
M  V30 4308 C 406.944 0.165962 1.61952 0
M  V30 4309 O 408.133 0.419303 1.73505 0
M  V30 4310 C 405.233 0.891272 3.2697 0
M  V30 4311 C 404.406 2.06669 3.85495 0
M  V30 4312 C 403.465 1.69077 4.98297 0
M  V30 4313 O 402.491 2.4096 5.15681 0
M  V30 4314 N 403.693 0.614869 5.77234 0
M  V30 4315 H 406.458 2.20777 2.02676 0
M  V30 4316 H 404.019 1.28623 0.983243 0
M  V30 4317 H 406.011 0.621256 3.99903 0
M  V30 4318 H 404.581 0.016004 3.12596 0
M  V30 4319 H 403.801 2.50046 3.04747 0
M  V30 4320 H 405.089 2.85237 4.21328 0
M  V30 4321 H 404.487 0.017648 5.65697 0
M  V30 4322 H 403.044 0.404636 6.50543 0
M  V30 4323 N 406.477 -1.02803 1.19454 0
M  V30 4324 C 407.387 -2.14575 0.948408 0
M  V30 4325 C 408.403 -1.73757 -0.091871 0
M  V30 4326 O 409.579 -2.01185 0.0929654 0
M  V30 4327 C 406.644 -3.43202 0.491265 0
M  V30 4328 C 405.705 -3.98328 1.60103 0
M  V30 4329 C 404.938 -5.20816 1.16561 0
M  V30 4330 O 405.161 -5.70392 0.0295238 0
M  V30 4331 O 404.095 -5.68801 1.96849 0
M  V30 4332 H 407.921 -2.38202 1.88397 0
M  V30 4333 H 405.506 -1.12989 0.977433 0
M  V30 4334 H 407.388 -4.20687 0.245015 0
M  V30 4335 H 406.063 -3.21018 -0.415851 0
M  V30 4336 H 404.97 -3.22174 1.90144 0
M  V30 4337 H 406.303 -4.24879 2.48473 0
M  V30 4338 N 407.956 -0.998596 -1.21925 0
M  V30 4339 C 408.888 -0.511879 -2.23411 0
M  V30 4340 C 409.901 0.396094 -1.57908 0
M  V30 4341 O 411.09 0.197316 -1.77406 0
M  V30 4342 C 408.19 0.276802 -3.37768 0
M  V30 4343 C 407.363 -0.628687 -4.32858 0
M  V30 4344 C 406.422 0.109272 -5.26087 0
M  V30 4345 O 405.448 -0.507237 -5.66935 0
M  V30 4346 N 406.65 1.38983 -5.63617 0
M  V30 4347 H 409.415 -1.38457 -2.658 0
M  V30 4348 H 406.976 -0.873981 -1.36283 0
M  V30 4349 H 408.968 0.77928 -3.97126 0
M  V30 4350 H 407.538 1.05063 -2.94415 0
M  V30 4351 H 406.758 -1.31175 -3.71735 0
M  V30 4352 H 408.046 -1.24514 -4.93329 0
M  V30 4353 H 407.444 1.91194 -5.32411 0
M  V30 4354 H 406.001 1.83739 -6.25367 0
M  V30 4355 N 409.434 1.37368 -0.772513 0
M  V30 4356 C 410.85 1.53059 -0.452231 0
M  V30 4357 C 411.05 1.73065 1.03203 0
M  V30 4358 O 410.106 1.75245 1.81784 0
M  V30 4359 C 411.419 2.72659 -1.26797 0
M  V30 4360 C 412.967 2.86521 -1.25995 0
M  V30 4361 C 413.442 4.09105 -2.05905 0
M  V30 4362 N 414.933 4.16219 -2.03263 0
M  V30 4363 C 415.668 5.10107 -2.61875 0
M  V30 4364 N 415.164 6.09547 -3.29278 0
M  V30 4365 N 416.957 5.02596 -2.51701 0
M  V30 4366 H 409.108 1.22634 -1.7342 0
M  V30 4367 H 411.371 0.597206 -0.736239 0
M  V30 4368 H 411.077 2.64343 -2.31982 0
M  V30 4369 H 410.951 3.66363 -0.897672 0
M  V30 4370 H 413.338 2.94308 -0.216081 0
M  V30 4371 H 413.419 1.93774 -1.66989 0
M  V30 4372 H 413.063 4.0208 -3.10313 0
M  V30 4373 H 412.993 5.00968 -1.62292 0
M  V30 4374 H 415.484 3.45012 -1.54192 0
M  V30 4375 H 415.797 6.77718 -3.71374 0
M  V30 4376 H 414.142 6.09824 -3.33377 0
M  V30 4377 H 417.333 4.23855 -1.98657 0
M  V30 4378 H 417.506 5.75582 -2.97673 0
M  V30 4379 N 410.912 0.523116 1.48665 0
M  V30 4380 C 411.842 -0.23231 2.32342 0
M  V30 4381 C 412.823 -0.941637 1.41659 0
M  V30 4382 O 414.008 -0.928751 1.70552 0
M  V30 4383 C 411.138 -1.28387 3.22698 0
M  V30 4384 C 410.092 -0.693098 4.22351 0
M  V30 4385 C 409.418 -1.8468 5.01794 0
M  V30 4386 C 410.718 0.33063 5.21252 0
M  V30 4387 H 412.412 0.466192 2.95748 0
M  V30 4388 H 409.958 0.225643 1.42221 0
M  V30 4389 H 411.911 -1.82024 3.80059 0
M  V30 4390 H 410.635 -2.01186 2.57278 0
M  V30 4391 H 409.294 -0.178299 3.66166 0
M  V30 4392 H 408.942 -2.56301 4.32804 0
M  V30 4393 H 408.642 -1.45747 5.69238 0
M  V30 4394 H 410.166 -2.38709 5.62006 0
M  V30 4395 H 411.58 -0.118407 5.73178 0
M  V30 4396 H 409.977 0.636974 5.9671 0
M  V30 4397 H 411.047 1.23883 4.68808 0
M  V30 4398 N 412.39 -1.55475 0.257931 0
M  V30 4399 C 413.618 -2.03609 -0.367559 0
M  V30 4400 C 414.033 -1.13687 -1.50734 0
M  V30 4401 O 413.39 -0.153479 -1.81853 0
M  V30 4402 C 413.441 -3.51001 -0.864908 0
M  V30 4403 O 413.162 -4.37499 0.229465 0
M  V30 4404 C 414.663 -4.14946 -1.55997 0
M  V30 4405 H 411.883 -0.665459 -0.0860521 0
M  V30 4406 H 414.427 -2.00843 0.385014 0
M  V30 4407 H 412.582 -3.54266 -1.56762 0
M  V30 4408 H 412.996 -5.24286 -0.14998 0
M  V30 4409 H 414.47 -5.19735 -1.85956 0
M  V30 4410 H 414.947 -3.6209 -2.4857 0
M  V30 4411 H 415.553 -4.15635 -0.901543 0
M  V30 4412 N 413.868 0.0150385 -1.57593 0
M  V30 4413 C 415.098 0.713359 -1.93894 0
M  V30 4414 C 415.506 1.68663 -0.857289 0
M  V30 4415 O 414.849 1.82876 0.173788 0
M  V30 4416 C 414.911 1.51348 -3.26089 0
M  V30 4417 C 414.575 0.703451 -4.51554 0
M  V30 4418 C 415.572 -0.00237924 -5.199 0
M  V30 4419 C 413.257 0.653854 -4.98026 0
M  V30 4420 C 415.251 -0.746955 -6.33008 0
M  V30 4421 C 412.938 -0.0944578 -6.11027 0
M  V30 4422 C 413.936 -0.793609 -6.78374 0
M  V30 4423 O 413.624 -1.52974 -7.89211 0
M  V30 4424 H 413.356 0.204637 -0.644282 0
M  V30 4425 H 415.91 -0.0276411 -2.05381 0
M  V30 4426 H 414.14 2.29862 -3.10967 0
M  V30 4427 H 415.829 2.09572 -3.47612 0
M  V30 4428 H 416.595 0.0268803 -4.84993 0
M  V30 4429 H 412.474 1.18756 -4.45441 0
M  V30 4430 H 416.018 -1.2932 -6.85509 0
M  V30 4431 H 411.915 -0.125591 -6.45378 0
M  V30 4432 H 412.683 -1.44488 -8.05646 0
M  V30 4433 N 415.346 1.54954 0.287554 0
M  V30 4434 C 416.276 1.89839 1.35954 0
M  V30 4435 C 417.257 0.758675 1.52244 0
M  V30 4436 O 418.442 1.01557 1.65529 0
M  V30 4437 C 415.572 2.15753 2.72154 0
M  V30 4438 C 414.526 3.3159 2.70614 0
M  V30 4439 C 413.852 3.42952 4.10229 0
M  V30 4440 C 415.152 4.68359 2.31165 0
M  V30 4441 H 416.846 2.79625 1.07007 0
M  V30 4442 H 414.392 1.3454 0.513316 0
M  V30 4443 H 416.345 2.38743 3.47246 0
M  V30 4444 H 415.069 1.22752 3.02654 0
M  V30 4445 H 413.728 3.08545 1.97979 0
M  V30 4446 H 413.376 2.47443 4.37928 0
M  V30 4447 H 413.076 4.20826 4.10097 0
M  V30 4448 H 414.6 3.68218 4.87081 0
M  V30 4449 H 416.014 4.9099 2.95976 0
M  V30 4450 H 414.411 5.49044 2.42221 0
M  V30 4451 H 415.481 4.68165 1.26291 0
M  V30 4452 N 416.824 -0.551391 1.4764 0
M  V30 4453 C 418.235 -1.13349 1.48354 0
M  V30 4454 C 418.586 -1.94709 0.241432 0
M  V30 4455 O 417.711 -2.06306 -0.653205 0
M  V30 4456 C 418.306 -2.0623 2.68802 0
M  V30 4457 C 416.865 -2.597 2.72457 0
M  V30 4458 C 416.012 -1.36201 2.41546 0
M  V30 4459 H 418.963 -0.337698 1.55065 0
M  V30 4460 H 418.984 -2.90196 2.46103 0
M  V30 4461 H 418.496 -1.46987 3.59188 0
M  V30 4462 H 416.597 -3.22724 1.86225 0
M  V30 4463 H 416.71 -3.00296 3.73308 0
M  V30 4464 H 415.074 -1.67068 1.9225 0
M  V30 4465 H 415.857 -0.787425 3.34147 0
M  V30 4466 N 418.302 -1.35869 -0.798587 0
M  V30 4467 C 419.713 -1.26498 -1.37314 0
M  V30 4468 C 420.064 0.0991899 -1.95949 0
M  V30 4469 O 419.189 1.0004 -1.91888 0
M  V30 4470 C 419.784 -2.29054 -2.49639 0
M  V30 4471 C 418.343 -2.234 -3.02935 0
M  V30 4472 C 417.49 -2.14329 -1.75949 0
M  V30 4473 H 420.441 -1.46881 -0.600971 0
M  V30 4474 H 420.462 -1.92166 -3.28409 0
M  V30 4475 H 419.974 -3.2833 -2.06933 0
M  V30 4476 H 418.075 -1.27562 -3.50084 0
M  V30 4477 H 418.188 -3.15703 -3.60372 0
M  V30 4478 H 416.552 -1.60435 -1.9782 0
M  V30 4479 H 417.335 -3.15477 -1.35384 0
M  V30 4480 N 419.78 1.02168 -1.19998 0
M  V30 4481 C 421.191 1.57135 -1.00825 0
M  V30 4482 C 421.542 1.91276 0.436818 0
M  V30 4483 O 420.667 1.71679 1.3174 0
M  V30 4484 C 421.262 2.85514 -1.82393 0
M  V30 4485 C 419.821 3.37027 -1.67601 0
M  V30 4486 C 418.968 2.10388 -1.80644 0
M  V30 4487 H 421.919 0.846106 -1.34264 0
M  V30 4488 H 421.94 3.56711 -1.32429 0
M  V30 4489 H 421.452 2.60634 -2.87561 0
M  V30 4490 H 419.553 3.66878 -0.650485 0
M  V30 4491 H 419.666 4.09572 -2.4857 0
M  V30 4492 H 418.03 2.22601 -1.23778 0
M  V30 4493 H 418.813 1.8794 -2.87286 0
M  V30 4494 N 421.258 1.00505 1.21394 0
M  V30 4495 C 422.504 0.698477 1.91031 0
M  V30 4496 C 422.859 -0.762448 1.76648 0
M  V30 4497 O 422.152 -1.54554 1.13241 0
M  V30 4498 C 422.346 1.0546 3.41486 0
M  V30 4499 C 422.175 2.5486 3.70508 0
M  V30 4500 C 420.945 3.21461 3.8986 0
M  V30 4501 C 423.143 3.53019 3.74008 0
M  V30 4502 N 421.125 4.60211 4.06299 0
M  V30 4503 C 422.496 4.77279 3.95733 0
M  V30 4504 C 424.551 3.47154 3.56915 0
M  V30 4505 C 423.254 5.96388 4.02137 0
M  V30 4506 C 425.28 4.65652 3.64585 0
M  V30 4507 C 424.642 5.88717 3.86771 0
M  V30 4508 H 420.741 0.30707 0.719189 0
M  V30 4509 H 423.325 1.28753 1.46051 0
M  V30 4510 H 421.496 0.494007 3.85246 0
M  V30 4511 H 423.228 0.702765 3.98552 0
M  V30 4512 H 419.983 2.71906 3.87768 0
M  V30 4513 H 420.407 5.32216 4.1842 0
M  V30 4514 H 425.049 2.53015 3.38738 0
M  V30 4515 H 422.767 6.90919 4.19114 0
M  V30 4516 H 426.353 4.62717 3.52681 0
M  V30 4517 H 425.233 6.78877 3.92549 0
M  V30 4518 N 422.737 -1.36956 0.779787 0
M  V30 4519 C 423.985 -1.99097 0.347079 0
M  V30 4520 C 424.306 -1.62206 -1.08232 0
M  V30 4521 O 423.576 -0.891373 -1.74446 0
M  V30 4522 H 422.156 -0.736409 0.125342 0
M  V30 4523 H 424.818 -1.67308 0.999696 0
M  V30 4524 H 423.914 -3.09107 0.431162 0
M  V30 4525 N 424.215 -0.530993 -1.48385 0
M  V30 4526 C 425.125 0.23503 -2.3342 0
M  V30 4527 C 426.141 0.93801 -1.46552 0
M  V30 4528 O 427.317 0.912745 -1.7953 0
M  V30 4529 C 424.382 1.26778 -3.22689 0
M  V30 4530 C 423.443 0.575038 -4.25431 0
M  V30 4531 C 422.676 1.55858 -5.10435 0
M  V30 4532 O 422.899 2.79129 -4.97437 0
M  V30 4533 O 421.833 1.09742 -5.91811 0
M  V30 4534 H 425.659 -0.461794 -3.00169 0
M  V30 4535 H 423.244 -0.291903 -1.46521 0
M  V30 4536 H 425.126 1.86457 -3.77904 0
M  V30 4537 H 423.801 1.94699 -2.586 0
M  V30 4538 H 422.708 -0.0622782 -3.74048 0
M  V30 4539 H 424.041 -0.062253 -4.92161 0
M  V30 4540 N 425.693 1.55336 -0.266172 0
M  V30 4541 C 426.933 2.01303 0.354459 0
M  V30 4542 C 427.297 1.15046 1.53715 0
M  V30 4543 O 428.498 1.50554 2.22681 0
M  V30 4544 C 426.769 3.49748 0.735579 0
M  V30 4545 S 428.328 4.1771 1.34401 0
M  V30 4546 H 425.146 0.702333 0.110674 0
M  V30 4547 H 427.748 1.91653 -0.385916 0
M  V30 4548 H 426.452 4.10181 -0.134196 0
M  V30 4549 H 425.983 3.63364 1.50764 0
M  V30 4550 H 427.998 4.20594 2.63278 0
M  V30 4551 N 427.171 -0.0066808 1.57599 0
M  V30 4552 C 428.587 -0.36267 1.55425 0
M  V30 4553 C 428.787 -1.75209 0.995187 0
M  V30 4554 O 427.843 -2.44616 0.626058 0
M  V30 4555 C 429.156 -0.244017 2.99708 0
M  V30 4556 C 430.704 -0.319451 3.11366 0
M  V30 4557 C 431.179 -0.229998 4.57422 0
M  V30 4558 N 432.67 -0.288105 4.62303 0
M  V30 4559 C 433.405 -0.242127 5.72889 0
M  V30 4560 N 432.901 -0.147133 6.92644 0
M  V30 4561 N 434.694 -0.293502 5.61333 0
M  V30 4562 H 426.845 0.902314 1.92281 0
M  V30 4563 H 429.108 0.34525 0.882896 0
M  V30 4564 H 428.814 0.711678 3.44424 0
M  V30 4565 H 428.688 -1.02877 3.629 0
M  V30 4566 H 431.075 -1.26559 2.66584 0
M  V30 4567 H 431.156 0.495055 2.50964 0
M  V30 4568 H 430.8 0.712566 5.02877 0
M  V30 4569 H 430.73 -1.0629 5.15761 0
M  V30 4570 H 433.221 -0.363126 3.76151 0
M  V30 4571 H 433.534 -0.117763 7.7271 0
M  V30 4572 H 431.879 -0.112857 6.94908 0
M  V30 4573 H 435.07 -0.365864 4.66668 0
M  V30 4574 H 435.243 -0.254204 6.47501 0
M  V30 4575 N 428.649 -1.55105 -0.279332 0
M  V30 4576 C 429.874 -1.7976 -1.03446 0
M  V30 4577 C 430.299 -0.565952 -1.79384 0
M  V30 4578 O 429.657 0.484259 -1.74713 0
M  V30 4579 C 429.705 -3.0179 -1.97371 0
M  V30 4580 O 428.809 -2.76432 -3.06038 0
M  V30 4581 H 428.15 -0.594334 -0.29608 0
M  V30 4582 H 430.68 -2.02235 -0.310165 0
M  V30 4583 H 430.69 -3.30351 -2.39441 0
M  V30 4584 H 429.365 -3.91085 -1.4151 0
M  V30 4585 H 427.942 -2.58949 -2.68328 0
M  V30 4586 N 430.127 0.543554 -1.4793 0
M  V30 4587 C 431.352 1.32995 -1.59145 0
M  V30 4588 C 431.777 1.86472 -0.246956 0
M  V30 4589 O 431.135 1.63696 0.779324 0
M  V30 4590 C 431.183 2.46623 -2.63077 0
M  V30 4591 O 430.287 3.49261 -2.19295 0
M  V30 4592 H 429.628 0.394472 -0.534124 0
M  V30 4593 H 432.158 0.655489 -1.93816 0
M  V30 4594 H 432.168 2.93001 -2.83926 0
M  V30 4595 H 430.843 2.07059 -3.60693 0
M  V30 4596 H 429.42 3.09094 -2.08603 0
M  V30 4597 N 431.605 1.3629 0.791371 0
M  V30 4598 C 432.515 1.32606 1.93527 0
M  V30 4599 C 433.531 0.228541 1.72493 0
M  V30 4600 O 434.707 0.460571 1.96063 0
M  V30 4601 C 431.772 1.11271 3.28359 0
M  V30 4602 C 430.833 2.3048 3.62185 0
M  V30 4603 C 430.066 2.10154 4.90583 0
M  V30 4604 O 430.289 1.07572 5.60165 0
M  V30 4605 O 429.223 2.97884 5.23019 0
M  V30 4606 H 433.049 2.28909 1.99585 0
M  V30 4607 H 430.634 1.16818 0.931344 0
M  V30 4608 H 432.516 1.01283 4.09047 0
M  V30 4609 H 431.191 0.180292 3.23198 0
M  V30 4610 H 430.098 2.46036 2.81811 0
M  V30 4611 H 431.431 3.22221 3.72068 0
M  V30 4612 N 433.083 -1.0153 1.20538 0
M  V30 4613 C 434.016 -2.09759 0.898695 0
M  V30 4614 C 434.994 -1.61909 -0.149733 0
M  V30 4615 O 436.178 -1.88486 -0.0230293 0
M  V30 4616 C 433.305 -3.36913 0.347512 0
M  V30 4617 C 432.351 -4.03655 1.37713 0
M  V30 4618 S 433.184 -4.47402 2.94265 0
M  V30 4619 C 434.34 -5.77756 2.40726 0
M  V30 4620 H 434.573 -2.3545 1.81523 0
M  V30 4621 H 432.106 -1.14665 1.03399 0
M  V30 4622 H 434.064 -4.10484 0.0360518 0
M  V30 4623 H 432.725 -3.09291 -0.547546 0
M  V30 4624 H 431.918 -4.9514 0.940872 0
M  V30 4625 H 431.52 -3.36313 1.63614 0
M  V30 4626 H 433.812 -6.52994 1.80569 0
M  V30 4627 H 434.755 -6.2618 3.30612 0
M  V30 4628 H 435.163 -5.34081 1.82806 0
M  V30 4629 N 434.561 -1.01147 -1.20859 0
M  V30 4630 C 435.809 -0.696486 -1.89719 0
M  V30 4631 C 436.13 0.775788 -1.78904 0
M  V30 4632 O 435.4 1.55759 -1.18811 0
M  V30 4633 H 433.98 -0.254628 -0.702263 0
M  V30 4634 H 436.642 -1.28197 -1.46804 0
M  V30 4635 H 435.738 -0.975357 -2.96468 0
M  V30 4636 N 436.039 1.36541 -0.78704 0
M  V30 4637 C 436.969 2.32659 -0.197992 0
M  V30 4638 C 437.95 1.56533 0.665697 0
M  V30 4639 O 439.135 1.84698 0.60001 0
M  V30 4640 C 436.265 3.40778 0.669901 0
M  V30 4641 C 435.219 4.27897 -0.0937039 0
M  V30 4642 C 434.545 5.27163 0.894629 0
M  V30 4643 C 435.845 5.06334 -1.28154 0
M  V30 4644 H 437.539 2.82171 -1.00099 0
M  V30 4645 H 435.085 1.35665 -0.482793 0
M  V30 4646 H 437.038 4.07008 1.09191 0
M  V30 4647 H 435.762 2.89827 1.50558 0
M  V30 4648 H 434.421 3.6322 -0.49666 0
M  V30 4649 H 434.069 4.72486 1.72527 0
M  V30 4650 H 433.769 5.86317 0.388149 0
M  V30 4651 H 435.293 5.96266 1.31525 0
M  V30 4652 H 436.707 5.65617 -0.93541 0
M  V30 4653 H 435.104 5.74888 -1.72115 0
M  V30 4654 H 436.174 4.38114 -2.07807 0
M  V30 4655 N 437.518 0.538854 1.48102 0
M  V30 4656 C 438.795 -0.0568108 1.95517 0
M  V30 4657 C 439.175 -1.50408 1.48124 0
M  V30 4658 O 438.523 -2.17133 0.711727 0
M  V30 4659 C 438.733 0.0696262 3.48931 0
M  V30 4660 C 440.081 -0.0851202 4.24515 0
M  V30 4661 O 441.105 -0.0037347 3.562 0
M  V30 4662 O 439.964 -0.257025 5.45895 0
M  V30 4663 H 437.058 -0.0743695 0.823649 0
M  V30 4664 H 439.604 0.604081 1.58584 0
M  V30 4665 H 438.376 1.07744 3.76174 0
M  V30 4666 H 437.999 -0.629714 3.92582 0
M  V30 4667 N 438.996 -1.55193 0.274407 0
M  V30 4668 C 440.243 -1.99581 -0.342579 0
M  V30 4669 C 440.571 -1.1628 -1.55914 0
M  V30 4670 O 439.826 -0.22029 -1.94456 0
M  V30 4671 C 440.125 -3.49019 -0.769458 0
M  V30 4672 C 439.791 -4.49598 0.342389 0
M  V30 4673 C 438.453 -4.76821 0.647686 0
M  V30 4674 C 440.805 -5.0964 1.09163 0
M  V30 4675 C 438.133 -5.61354 1.70581 0
M  V30 4676 C 440.485 -5.95323 2.13948 0
M  V30 4677 C 439.149 -6.20867 2.45113 0
M  V30 4678 H 438.419 -0.730319 -0.125358 0
M  V30 4679 H 441.066 -1.87529 0.387971 0
M  V30 4680 H 439.371 -3.58544 -1.57967 0
M  V30 4681 H 441.068 -3.8077 -1.25757 0
M  V30 4682 H 437.658 -4.28496 0.094318 0
M  V30 4683 H 441.842 -4.88632 0.869024 0
M  V30 4684 H 437.098 -5.79392 1.9523 0
M  V30 4685 H 441.272 -6.40881 2.72478 0
M  V30 4686 H 438.899 -6.86162 3.27239 0
M  V30 4687 N 440.474 -0.00167713 -1.576 0
M  V30 4688 C 441.721 0.68282 -1.90641 0
M  V30 4689 C 442.049 1.73686 -0.875415 0
M  V30 4690 O 441.304 1.95334 0.119575 0
M  V30 4691 C 441.603 1.36189 -3.30435 0
M  V30 4692 C 441.269 0.440887 -4.48739 0
M  V30 4693 C 439.931 0.187312 -4.80835 0
M  V30 4694 C 442.283 -0.193134 -5.20842 0
M  V30 4695 C 439.611 -0.70855 -5.82406 0
M  V30 4696 C 441.963 -1.07688 -6.23367 0
M  V30 4697 C 440.627 -1.33962 -6.53919 0
M  V30 4698 H 439.897 0.249862 -0.697603 0
M  V30 4699 H 442.544 -0.0575642 -1.91413 0
M  V30 4700 H 440.849 2.17636 -3.25794 0
M  V30 4701 H 442.546 1.89759 -3.5326 0
M  V30 4702 H 439.136 0.648694 -4.23663 0
M  V30 4703 H 443.32 -0.0102445 -4.96299 0
M  V30 4704 H 438.576 -0.920097 -6.04437 0
M  V30 4705 H 442.75 -1.57451 -6.78367 0
M  V30 4706 H 440.377 -2.03549 -7.32442 0
M  V30 4707 N 441.952 1.55251 0.271103 0
M  V30 4708 C 443.363 1.66635 0.842007 0
M  V30 4709 C 443.714 0.594631 1.86972 0
M  V30 4710 O 442.839 -0.263532 2.14789 0
M  V30 4711 C 443.434 3.02082 1.53401 0
M  V30 4712 C 441.993 3.15487 2.05293 0
M  V30 4713 C 441.14 2.62438 0.895631 0
M  V30 4714 H 444.091 1.58629 0.0474117 0
M  V30 4715 H 444.112 2.95176 2.40107 0
M  V30 4716 H 443.624 3.80062 0.785786 0
M  V30 4717 H 441.725 2.42284 2.83071 0
M  V30 4718 H 441.838 4.22075 2.26693 0
M  V30 4719 H 440.202 2.19644 1.28953 0
M  V30 4720 H 440.985 3.42923 0.160878 0
M  V30 4721 N 443.43 -0.535701 1.48216 0
M  V30 4722 C 444.676 -1.29375 1.56173 0
M  V30 4723 C 445.009 -1.92804 0.232429 0
M  V30 4724 O 444.284 -1.78992 -0.761048 0
M  V30 4725 C 444.567 -2.38747 2.69577 0
M  V30 4726 C 444.42 -1.80046 4.12193 0
M  V30 4727 C 445.739 -3.40551 2.78771 0
M  V30 4728 H 442.858 -0.469027 0.568491 0
M  V30 4729 H 445.5 -0.597358 1.80365 0
M  V30 4730 H 443.65 -2.98147 2.4908 0
M  V30 4731 H 445.322 -1.24742 4.44114 0
M  V30 4732 H 443.565 -1.10609 4.19462 0
M  V30 4733 H 444.236 -2.59212 4.87353 0
M  V30 4734 H 446.712 -2.91099 2.97322 0
M  V30 4735 H 445.588 -4.1448 3.59857 0
M  V30 4736 H 445.849 -4.00746 1.86696 0
M  V30 4737 N 444.908 -1.36708 -0.784132 0
M  V30 4738 C 446.138 -1.34203 -1.57077 0
M  V30 4739 C 446.546 0.0774945 -1.89041 0
M  V30 4740 O 445.889 1.04628 -1.50992 0
M  V30 4741 C 445.951 -2.10351 -2.91535 0
M  V30 4742 C 445.615 -3.59405 -2.82272 0
M  V30 4743 C 446.612 -4.53545 -2.54151 0
M  V30 4744 C 444.297 -4.02362 -3.00683 0
M  V30 4745 C 446.291 -5.8862 -2.44551 0
M  V30 4746 C 443.978 -5.37526 -2.90704 0
M  V30 4747 C 444.976 -6.30468 -2.62677 0
M  V30 4748 O 444.664 -7.63149 -2.52702 0
M  V30 4749 H 444.396 -0.461791 -0.493685 0
M  V30 4750 H 446.95 -1.80475 -0.980712 0
M  V30 4751 H 445.18 -1.5875 -3.52612 0
M  V30 4752 H 446.869 -2.00636 -3.52845 0
M  V30 4753 H 447.635 -4.21669 -2.39625 0
M  V30 4754 H 443.514 -3.30389 -3.21503 0
M  V30 4755 H 447.058 -6.61133 -2.22596 0
M  V30 4756 H 442.955 -5.69008 -3.04795 0
M  V30 4757 H 443.723 -7.73331 -2.68144 0
M  V30 4758 N 446.386 1.0089 -1.21074 0
M  V30 4759 C 447.611 1.78727 -1.05221 0
M  V30 4760 C 448.036 1.83932 0.393795 0
M  V30 4761 O 447.394 1.28004 1.28393 0
M  V30 4762 C 447.442 3.20665 -1.64944 0
M  V30 4763 O 446.546 4.02632 -0.892273 0
M  V30 4764 H 445.887 0.550973 -0.370574 0
M  V30 4765 H 448.417 1.26847 -1.60534 0
M  V30 4766 H 448.427 3.71352 -1.69002 0
M  V30 4767 H 447.102 3.16191 -2.70177 0
M  V30 4768 H 445.679 3.61207 -0.926492 0
M  V30 4769 N 447.864 1.01787 1.20321 0
M  V30 4770 C 449.113 0.703249 1.89043 0
M  V30 4771 C 449.426 -0.770445 1.79787 0
M  V30 4772 O 450.632 -1.19767 2.43656 0
M  V30 4773 C 449.088 1.20749 3.3904 0
M  V30 4774 C 448.696 2.70817 3.56878 0
M  V30 4775 C 450.44 0.968352 4.13308 0
M  V30 4776 C 448.347 3.14716 5.00708 0
M  V30 4777 H 447.277 0.259354 0.707991 0
M  V30 4778 H 449.928 1.23072 1.36108 0
M  V30 4779 H 448.31 0.607989 3.91305 0
M  V30 4780 H 449.484 3.36327 3.14993 0
M  V30 4781 H 447.799 2.92888 2.95983 0
M  V30 4782 H 450.396 1.27173 5.19356 0
M  V30 4783 H 450.739 -0.095149 4.16191 0
M  V30 4784 H 451.272 1.53129 3.67146 0
M  V30 4785 H 448.011 4.20347 5.02979 0
M  V30 4786 H 447.531 2.53927 5.43398 0
M  V30 4787 H 449.21 3.07426 5.69296 0
M  V30 4788 N 449.342 -1.36122 0.79427 0
M  V30 4789 C 450.57 -2.03362 0.380989 0
M  V30 4790 C 450.985 -1.59881 -1.00416 0
M  V30 4791 O 450.342 -0.790515 -1.6449 0
M  V30 4792 C 450.393 -3.58804 0.440649 0
M  V30 4793 O 450.114 -4.007 1.77118 0
M  V30 4794 C 451.615 -4.43296 0.0186117 0
M  V30 4795 H 448.835 -0.652526 0.156367 0
M  V30 4796 H 451.379 -1.73998 1.07447 0
M  V30 4797 H 449.534 -3.8686 -0.204458 0
M  V30 4798 H 449.948 -4.95309 1.72538 0
M  V30 4799 H 451.422 -5.51887 0.111488 0
M  V30 4800 H 451.899 -4.2684 -1.03461 0
M  V30 4801 H 452.505 -4.20512 0.636395 0
M  V30 4802 N 450.82 -0.546701 -1.47814 0
M  V30 4803 C 451.783 0.196287 -2.28358 0
M  V30 4804 C 452.783 0.852437 -1.36346 0
M  V30 4805 O 453.973 0.709913 -1.59078 0
M  V30 4806 C 451.105 1.28579 -3.15722 0
M  V30 4807 H 452.298 -0.511086 -2.95513 0
M  V30 4808 H 449.851 -0.303248 -1.5333 0
M  V30 4809 H 450.586 2.0259 -2.53235 0
M  V30 4810 H 450.371 0.820229 -3.83425 0
M  V30 4811 H 451.861 1.80793 -3.76435 0
M  V30 4812 N 452.299 1.55045 -0.282633 0
M  V30 4813 C 453.539 2.01668 0.333088 0
M  V30 4814 C 453.903 1.1667 1.52486 0
M  V30 4815 O 455.104 1.52907 2.21072 0
M  V30 4816 C 453.375 3.50509 0.698442 0
M  V30 4817 S 454.934 4.19112 1.29963 0
M  V30 4818 H 451.752 0.703468 0.103219 0
M  V30 4819 H 454.354 1.91233 -0.406222 0
M  V30 4820 H 453.058 4.10015 -0.177693 0
M  V30 4821 H 452.589 3.64943 1.46902 0
M  V30 4822 H 454.604 4.23362 2.58803 0
M  V30 4823 N 453.777 0.010035 1.57597 0
M  V30 4824 C 455.193 -0.346164 1.55801 0
M  V30 4825 C 455.393 -1.74144 1.01371 0
M  V30 4826 O 454.449 -2.43938 0.651968 0
M  V30 4827 C 455.762 -0.212216 2.9995 0
M  V30 4828 C 457.31 -0.286409 3.11687 0
M  V30 4829 C 457.785 -0.18147 4.5764 0
M  V30 4830 N 459.276 -0.239056 4.62583 0
M  V30 4831 C 460.011 -0.181351 5.73113 0
M  V30 4832 N 459.507 -0.073661 6.92761 0
M  V30 4833 N 461.3 -0.233949 5.61613 0
M  V30 4834 H 453.451 0.922657 1.91313 0
M  V30 4835 H 455.714 0.354595 0.879185 0
M  V30 4836 H 455.42 0.748169 3.4365 0
M  V30 4837 H 455.294 -0.990224 3.6397 0
M  V30 4838 H 457.681 -1.23724 2.67911 0
M  V30 4839 H 457.762 0.521645 2.50425 0
M  V30 4840 H 457.406 0.765863 5.02093 0
M  V30 4841 H 457.336 -1.00814 5.1686 0
M  V30 4842 H 459.827 -0.32321 3.76515 0
M  V30 4843 H 460.14 -0.0358003 7.72792 0
M  V30 4844 H 458.485 -0.0391461 6.94989 0
M  V30 4845 H 461.676 -0.316347 4.6703 0
M  V30 4846 H 461.849 -0.185514 6.47734 0
M  V30 4847 N 455.255 -1.55392 -0.262866 0
M  V30 4848 C 456.504 -1.75679 -0.990943 0
M  V30 4849 C 456.817 -0.57097 -1.87081 0
M  V30 4850 O 458.023 -0.656486 -2.63444 0
M  V30 4851 C 456.479 -3.10964 -1.81188 0
M  V30 4852 C 456.087 -4.37146 -0.980188 0
M  V30 4853 C 457.831 -3.40597 -2.53365 0
M  V30 4854 C 455.738 -5.63466 -1.7961 0
M  V30 4855 H 454.668 -0.654868 -0.373716 0
M  V30 4856 H 457.319 -1.81841 -0.246203 0
M  V30 4857 H 455.701 -2.98867 -2.59797 0
M  V30 4858 H 456.875 -4.60187 -0.237558 0
M  V30 4859 H 455.19 -4.14731 -0.372497 0
M  V30 4860 H 457.787 -4.32186 -3.14833 0
M  V30 4861 H 458.13 -2.6119 -3.24169 0
M  V30 4862 H 458.663 -3.53838 -1.81779 0
M  V30 4863 H 455.402 -6.4565 -1.13209 0
M  V30 4864 H 454.922 -5.44552 -2.51443 0
M  V30 4865 H 456.601 -6.02139 -2.36723 0
M  V30 4866 N 456.733 0.527833 -1.48498 0
M  V30 4867 C 458.01 1.28905 -1.47115 0
M  V30 4868 C 458.39 2.10297 -0.184007 0
M  V30 4869 O 457.738 2.12728 0.834218 0
M  V30 4870 C 457.948 2.16866 -2.73441 0
M  V30 4871 C 459.296 2.76936 -3.21857 0
M  V30 4872 O 460.32 2.27152 -2.74373 0
M  V30 4873 O 459.179 3.67496 -4.04486 0
M  V30 4874 H 456.273 0.581918 -0.587623 0
M  V30 4875 H 458.819 0.544311 -1.60734 0
M  V30 4876 H 457.591 1.56521 -3.58632 0
M  V30 4877 H 457.214 2.98583 -2.62553 0
M  V30 4878 N 458.211 1.37122 0.776871 0
M  V30 4879 C 459.451 1.33441 1.54831 0
M  V30 4880 C 459.815 -0.0818963 1.91825 0
M  V30 4881 O 461.016 -0.24338 2.67696 0
M  V30 4882 C 459.287 2.24267 2.78279 0
M  V30 4883 S 460.846 2.38389 3.68397 0
M  V30 4884 H 457.664 0.473791 0.530135 0
M  V30 4885 H 460.266 1.7282 0.913968 0
M  V30 4886 H 458.97 3.261 2.49173 0
M  V30 4887 H 458.501 1.85953 3.46677 0
M  V30 4888 H 460.516 1.59068 4.70013 0
M  V30 4889 N 459.689 -1.00246 1.21608 0
M  V30 4890 C 460.599 -2.12515 0.993709 0
M  V30 4891 C 461.615 -1.73913 -0.0549939 0
M  V30 4892 O 462.791 -2.00943 0.135619 0
M  V30 4893 C 459.856 -3.42083 0.563953 0
M  V30 4894 C 458.917 -3.94843 1.68516 0
M  V30 4895 C 458.15 -5.18226 1.27582 0
M  V30 4896 O 458.373 -5.70201 0.150506 0
M  V30 4897 O 457.307 -5.64497 2.0887 0
M  V30 4898 H 461.133 -2.34152 1.93407 0
M  V30 4899 H 458.718 -1.10891 1.00118 0
M  V30 4900 H 460.6 -4.20073 0.334194 0
M  V30 4901 H 459.275 -3.21828 -0.347665 0
M  V30 4902 H 458.182 -3.18068 1.96935 0
M  V30 4903 H 459.515 -4.19512 2.5743 0
M  V30 4904 N 461.167 -1.02423 -1.1978 0
M  V30 4905 C 462.395 -0.737456 -1.93311 0
M  V30 4906 C 462.81 0.703023 -1.75223 0
M  V30 4907 O 462.167 1.47761 -1.07112 0
M  V30 4908 C 462.218 -1.0733 -3.45199 0
M  V30 4909 O 461.939 -2.4572 -3.62702 0
M  V30 4910 C 463.44 -0.80866 -4.35862 0
M  V30 4911 H 460.66 -0.2702 -0.614193 0
M  V30 4912 H 463.204 -1.36747 -1.52054 0
M  V30 4913 H 461.359 -0.488545 -3.84307 0
M  V30 4914 H 461.773 -2.58081 -4.56612 0
M  V30 4915 H 463.247 -1.09365 -5.41057 0
M  V30 4916 H 463.724 0.257025 -4.38447 0
M  V30 4917 H 464.33 -1.37592 -4.02428 0
M  V30 4918 N 462.645 1.35699 -0.801477 0
M  V30 4919 C 464.061 1.52065 -0.484596 0
M  V30 4920 C 464.261 1.75215 0.995084 0
M  V30 4921 O 463.317 1.79061 1.78026 0
M  V30 4922 C 464.63 2.69908 -1.32552 0
M  V30 4923 C 466.178 2.83784 -1.32044 0
M  V30 4924 C 466.653 4.04646 -2.14536 0
M  V30 4925 N 468.144 4.11814 -2.12046 0
M  V30 4926 C 468.879 5.04437 -2.72636 0
M  V30 4927 N 468.375 6.02426 -3.42133 0
M  V30 4928 N 470.168 4.97144 -2.62305 0
M  V30 4929 H 462.319 1.18928 -1.75983 0
M  V30 4930 H 464.582 0.581455 -0.748741 0
M  V30 4931 H 464.288 2.59363 -2.37537 0
M  V30 4932 H 464.162 3.64376 -0.975181 0
M  V30 4933 H 466.549 2.93783 -0.27846 0
M  V30 4934 H 466.63 1.90188 -1.71062 0
M  V30 4935 H 466.274 3.95407 -3.18772 0
M  V30 4936 H 466.204 4.97413 -1.72882 0
M  V30 4937 H 468.695 3.41664 -1.61476 0
M  V30 4938 H 469.008 6.69688 -3.85666 0
M  V30 4939 H 467.353 6.02615 -3.46237 0
M  V30 4940 H 470.544 4.19546 -2.07603 0
M  V30 4941 H 470.717 5.69138 -3.09815 0
M  V30 4942 N 464.123 0.554532 1.47522 0
M  V30 4943 C 465.353 0.0342074 2.06572 0
M  V30 4944 C 465.761 -1.26375 1.40805 0
M  V30 4945 O 465.104 -1.7683 0.49769 0
M  V30 4946 C 465.166 -0.235096 3.5873 0
M  V30 4947 C 464.83 0.973024 4.46521 0
M  V30 4948 C 465.827 1.8779 4.848 0
M  V30 4949 C 463.512 1.18694 4.88075 0
M  V30 4950 C 465.506 2.98039 5.63428 0
M  V30 4951 C 463.193 2.29254 5.66468 0
M  V30 4952 C 464.191 3.18757 6.04055 0
M  V30 4953 O 463.879 4.27401 6.8087 0
M  V30 4954 H 463.611 0.041587 0.67472 0
M  V30 4955 H 466.165 0.766748 1.90552 0
M  V30 4956 H 464.395 -1.02191 3.72953 0
M  V30 4957 H 466.084 -0.700477 3.9981 0
M  V30 4958 H 466.85 1.72467 4.53299 0
M  V30 4959 H 462.729 0.49947 4.58286 0
M  V30 4960 H 466.273 3.67926 5.92685 0
M  V30 4961 H 462.17 2.4455 5.97382 0
M  V30 4962 H 462.938 4.25415 6.9926 0
M  V30 4963 N 465.601 -1.54893 0.290851 0
M  V30 4964 C 466.85 -1.99111 -0.322113 0
M  V30 4965 C 467.163 -1.18283 -1.55784 0
M  V30 4966 O 468.369 -1.5272 -2.24475 0
M  V30 4967 C 466.825 -3.54442 -0.624438 0
M  V30 4968 C 466.433 -4.44066 0.592373 0
M  V30 4969 C 468.177 -4.07211 -1.19916 0
M  V30 4970 C 466.084 -5.90812 0.263762 0
M  V30 4971 H 465.014 -0.743712 -0.124133 0
M  V30 4972 H 467.665 -1.79132 0.39797 0
M  V30 4973 H 466.047 -3.70281 -1.40384 0
M  V30 4974 H 467.221 -4.39999 1.36886 0
M  V30 4975 H 465.536 -4.02015 1.08502 0
M  V30 4976 H 468.133 -5.14407 -1.45909 0
M  V30 4977 H 468.476 -3.57196 -2.13815 0
M  V30 4978 H 469.009 -3.94873 -0.481687 0
M  V30 4979 H 465.748 -6.44955 1.17105 0
M  V30 4980 H 465.268 -5.97911 -0.475655 0
M  V30 4981 H 466.947 -6.46852 -0.138354 0
M  V30 4982 N 467.08 -0.0183926 -1.57589 0
M  V30 4983 C 468.326 0.663543 -1.91638 0
M  V30 4984 C 468.659 1.72392 -0.894134 0
M  V30 4985 O 467.934 1.94316 0.0846449 0
M  V30 4986 C 468.217 1.28984 -3.36207 0
M  V30 4987 C 468.07 0.239761 -4.49161 0
M  V30 4988 C 469.389 2.2109 -3.80536 0
M  V30 4989 H 466.508 0.239746 -0.696915 0
M  V30 4990 H 469.15 -0.073456 -1.89858 0
M  V30 4991 H 467.3 1.91799 -3.37854 0
M  V30 4992 H 468.972 -0.390119 -4.59647 0
M  V30 4993 H 467.215 -0.435972 -4.31604 0
M  V30 4994 H 467.886 0.717383 -5.47319 0
M  V30 4995 H 470.362 1.68273 -3.80557 0
M  V30 4996 H 469.238 2.61869 -4.82406 0
M  V30 4997 H 469.499 3.09764 -3.15434 0
M  V30 4998 N 468.558 1.5553 0.254621 0
M  V30 4999 C 469.468 1.92789 1.33677 0
M  V30 5000 C 470.484 0.827356 1.53071 0
M  V30 5001 O 471.66 1.12807 1.66843 0
M  V30 5002 C 468.725 2.20827 2.67275 0
M  V30 5003 C 467.786 3.4427 2.5647 0
M  V30 5004 C 467.019 3.70961 3.83697 0
M  V30 5005 O 467.242 2.99852 4.85227 0
M  V30 5006 O 466.176 4.64491 3.82794 0
M  V30 5007 H 470.002 2.84945 1.05071 0
M  V30 5008 H 467.587 1.42312 0.454723 0
M  V30 5009 H 469.469 2.40204 3.46237 0
M  V30 5010 H 468.144 1.31851 2.9563 0
M  V30 5011 H 467.051 3.30209 1.75821 0
M  V30 5012 H 468.384 4.33524 2.33062 0
M  V30 5013 N 470.036 -0.519951 1.48776 0
M  V30 5014 C 470.984 -1.64443 1.64503 0
M  V30 5015 C 471.978 -1.61501 0.511248 0
M  V30 5016 O 473.184 -1.66238 0.690294 0
M  V30 5017 H 469.559 -0.544776 0.518385 0
M  V30 5018 H 471.53 -1.48325 2.58925 0
M  V30 5019 C 470.279 -3.02673 1.71127 0
M  V30 5020 H 469.602 -3.05635 2.57735 0
M  V30 5021 H 471.042 -3.80941 1.86172 0
M  V30 5022 C 469.501 -3.33854 0.452032 0
M  V30 5023 O 470.031 -3.99385 -0.430678 0
M  V30 5024 N 468.237 -2.88825 0.32069 0
M  V30 5025 H 467.784 -2.35674 1.03998 0
M  V30 5026 H 467.742 -3.10056 -0.520814 0
M  V30 5027 N 471.514 -1.37532 -0.769588 0
M  V30 5028 C 472.754 -1.34261 -1.54122 0
M  V30 5029 C 473.118 0.0717222 -1.91866 0
M  V30 5030 O 474.319 0.22918 -2.67821 0
M  V30 5031 C 472.59 -2.2574 -2.77086 0
M  V30 5032 S 474.149 -2.40339 -3.67127 0
M  V30 5033 H 470.967 -0.476595 -0.527615 0
M  V30 5034 H 473.569 -1.73303 -0.90479 0
M  V30 5035 H 472.273 -3.27417 -2.4744 0
M  V30 5036 H 471.804 -1.87789 -3.45686 0
M  V30 5037 H 473.819 -1.61558 -4.69163 0
M  V30 5038 N 472.992 0.995999 -1.22138 0
M  V30 5039 C 473.94 2.10673 -0.985876 0
M  V30 5040 C 474.934 1.69255 0.0699553 0
M  V30 5041 O 476.14 1.79812 -0.0822176 0
M  V30 5042 H 472.515 0.688865 -0.30161 0
M  V30 5043 H 474.486 2.27711 -1.92848 0
M  V30 5044 C 473.235 3.42881 -0.576909 0
M  V30 5045 H 472.558 3.75191 -1.38101 0
M  V30 5046 H 473.998 4.21589 -0.451518 0
M  V30 5047 C 472.457 3.29265 0.713196 0
M  V30 5048 O 472.987 3.60777 1.76643 0
M  V30 5049 N 471.193 2.82456 0.683162 0
M  V30 5050 H 470.74 2.5701 -0.174242 0
M  V30 5051 H 470.698 2.73727 1.54663 0
M  V30 5052 N 474.47 1.03057 1.19235 0
M  V30 5053 C 475.71 0.736757 1.9066 0
M  V30 5054 C 476.074 -0.721521 1.77927 0
M  V30 5055 O 477.275 -1.12849 2.43964 0
M  V30 5056 C 475.546 1.17755 3.37444 0
M  V30 5057 S 477.105 1.00783 4.27069 0
M  V30 5058 H 473.923 0.268174 0.658486 0
M  V30 5059 H 476.525 1.32076 1.4414 0
M  V30 5060 H 475.229 2.23448 3.44237 0
M  V30 5061 H 474.76 0.586912 3.88997 0
M  V30 5062 H 476.775 -0.0806356 4.96134 0
M  V30 5063 N 475.948 -1.35272 0.808662 0
M  V30 5064 C 477.364 -1.51806 0.492653 0
M  V30 5065 C 477.564 -1.7574 -0.985778 0
M  V30 5066 O 476.62 -1.80003 -1.77074 0
M  V30 5067 C 477.933 -2.69202 1.33981 0
M  V30 5068 C 479.481 -2.8308 1.33547 0
M  V30 5069 C 479.956 -4.03502 2.16679 0
M  V30 5070 N 481.447 -4.10684 2.14227 0
M  V30 5071 C 482.182 -5.02984 2.75308 0
M  V30 5072 N 481.678 -6.00603 3.45323 0
M  V30 5073 N 483.471 -4.95746 2.64938 0
M  V30 5074 H 475.622 -1.17993 1.76611 0
M  V30 5075 H 477.885 -0.577476 0.751814 0
M  V30 5076 H 477.591 -2.581 2.38909 0
M  V30 5077 H 477.465 -3.63854 0.994491 0
M  V30 5078 H 479.852 -2.93631 0.294036 0
M  V30 5079 H 479.933 -1.89278 1.72068 0
M  V30 5080 H 479.577 -3.93711 3.20864 0
M  V30 5081 H 479.507 -4.96489 1.75517 0
M  V30 5082 H 481.998 -3.40802 1.63285 0
M  V30 5083 H 482.311 -6.67633 3.89212 0
M  V30 5084 H 480.656 -6.0077 3.49428 0
M  V30 5085 H 483.847 -4.18439 2.09825 0
M  V30 5086 H 484.02 -5.67487 3.12829 0
M  V30 5087 N 477.426 -0.562348 -1.47226 0
M  V30 5088 C 478.359 0.230405 -2.27034 0
M  V30 5089 C 479.337 0.915609 -1.3437 0
M  V30 5090 O 480.521 0.933573 -1.63758 0
M  V30 5091 C 477.648 1.32874 -3.11548 0
M  V30 5092 C 476.694 0.751552 -4.19826 0
M  V30 5093 S 477.527 -0.405848 -5.3396 0
M  V30 5094 C 478.683 0.694186 -6.22038 0
M  V30 5095 H 478.916 -0.446811 -2.93923 0
M  V30 5096 H 476.449 -0.348781 -1.50409 0
M  V30 5097 H 478.407 1.95773 -3.60809 0
M  V30 5098 H 477.068 1.97782 -2.44011 0
M  V30 5099 H 476.261 1.57651 -4.78709 0
M  V30 5100 H 475.863 0.198645 -3.73472 0
M  V30 5101 H 478.155 1.58501 -6.58698 0
M  V30 5102 H 479.098 0.142592 -7.07956 0
M  V30 5103 H 479.506 0.989169 -5.55766 0
M  V30 5104 N 478.904 1.54736 -0.299062 0
M  V30 5105 C 480.15 2.00397 0.311244 0
M  V30 5106 C 480.483 1.18716 1.53688 0
M  V30 5107 O 479.758 0.263154 1.92712 0
M  V30 5108 C 480.041 3.53817 0.669761 0
M  V30 5109 C 479.894 4.46239 -0.564882 0
M  V30 5110 C 481.213 4.13856 1.49702 0
M  V30 5111 H 478.332 0.728493 0.111653 0
M  V30 5112 H 480.974 1.85506 -0.410774 0
M  V30 5113 H 479.124 3.66637 1.28491 0
M  V30 5114 H 480.796 4.45328 -1.20337 0
M  V30 5115 H 479.039 4.16916 -1.19849 0
M  V30 5116 H 479.71 5.5134 -0.269918 0
M  V30 5117 H 482.186 4.04461 0.977284 0
M  V30 5118 H 481.062 5.21365 1.71666 0
M  V30 5119 H 481.323 3.65608 2.48563 0
M  V30 5120 N 480.382 0.0267497 1.57577 0
M  V30 5121 C 481.332 -0.965003 2.06571 0
M  V30 5122 C 482.316 -1.28694 0.965746 0
M  V30 5123 O 483.508 -1.27345 1.22932 0
M  V30 5124 C 480.637 -2.24821 2.59443 0
M  V30 5125 C 479.723 -1.95474 3.76365 0
M  V30 5126 N 480.114 -1.36387 4.87065 0
M  V30 5127 C 478.412 -2.25478 3.84806 0
M  V30 5128 C 479.113 -1.24119 5.68304 0
M  V30 5129 N 478.089 -1.7359 5.15138 0
M  V30 5130 H 481.891 -0.503095 2.89562 0
M  V30 5131 H 479.405 -0.178322 1.61418 0
M  V30 5132 H 481.402 -2.9674 2.92833 0
M  V30 5133 H 480.062 -2.7164 1.77881 0
M  V30 5134 H 481.073 -1.03919 5.07367 0
M  V30 5135 H 477.75 -2.74987 3.14147 0
M  V30 5136 H 479.14 -0.784504 6.67304 0
M  V30 5137 N 481.861 -1.55662 -0.24637 0
M  V30 5138 C 482.794 -1.85332 -1.33143 0
M  V30 5139 C 483.772 -0.708464 -1.46354 0
M  V30 5140 O 484.956 -0.954274 -1.6256 0
M  V30 5141 C 482.083 -2.0385 -2.70487 0
M  V30 5142 C 481.129 -3.26488 -2.74423 0
M  V30 5143 S 481.962 -4.83124 -2.30979 0
M  V30 5144 C 483.118 -5.04647 -3.70246 0
M  V30 5145 H 483.351 -2.77077 -1.07777 0
M  V30 5146 H 480.884 -1.47776 -0.44738 0
M  V30 5147 H 482.842 -2.15202 -3.49569 0
M  V30 5148 H 481.503 -1.12947 -2.9309 0
M  V30 5149 H 480.696 -3.36413 -3.7529 0
M  V30 5150 H 480.298 -3.13864 -2.03385 0
M  V30 5151 H 482.59 -4.92023 -4.65746 0
M  V30 5152 H 483.533 -6.06625 -3.65255 0
M  V30 5153 H 483.941 -4.32491 -3.62784 0
M  V30 5154 N 483.339 0.512053 -1.4905 0
M  V30 5155 C 484.75 1.09376 -1.51307 0
M  V30 5156 C 485.101 1.94 -0.292971 0
M  V30 5157 O 484.226 2.07965 0.598277 0
M  V30 5158 C 484.821 1.99031 -2.74176 0
M  V30 5159 C 483.38 2.52385 -2.79247 0
M  V30 5160 C 482.527 1.29749 -2.45073 0
M  V30 5161 H 485.478 0.296467 -1.55906 0
M  V30 5162 H 485.499 2.83569 -2.53711 0
M  V30 5163 H 485.011 1.37412 -3.62959 0
M  V30 5164 H 483.112 3.17673 -1.94716 0
M  V30 5165 H 483.225 2.90293 -3.81139 0
M  V30 5166 H 481.589 1.61912 -1.96612 0
M  V30 5167 H 482.372 0.698555 -3.36118 0
M  V30 5168 N 484.817 1.37938 0.762283 0
M  V30 5169 C 486.065 1.33404 1.51815 0
M  V30 5170 C 486.386 -0.0780975 1.94844 0
M  V30 5171 O 485.656 -1.02405 1.67003 0
M  V30 5172 H 484.236 0.490839 0.563104 0
M  V30 5173 H 486.898 1.72527 0.906669 0
M  V30 5174 H 485.994 1.97926 2.41313 0
M  V30 5175 N 486.295 -0.989507 1.22664 0
M  V30 5176 C 487.572 -1.70326 0.961688 0
M  V30 5177 C 487.952 -2.04537 -0.522279 0
M  V30 5178 O 487.3 -1.73136 -1.49118 0
M  V30 5179 C 487.51 -2.95135 1.86269 0
M  V30 5180 C 488.858 -3.67842 2.12078 0
M  V30 5181 O 489.882 -3.0515 1.83745 0
M  V30 5182 O 488.741 -4.80644 2.60083 0
M  V30 5183 H 485.835 -0.743589 0.361946 0
M  V30 5184 H 488.381 -1.04555 1.33665 0
M  V30 5185 H 487.153 -2.66382 2.8663 0
M  V30 5186 H 486.776 -3.68645 1.48952 0
M  V30 5187 N 487.773 -1.03688 -1.18687 0
M  V30 5188 C 488.736 -0.629115 -2.20397 0
M  V30 5189 C 489.736 0.311495 -1.57754 0
M  V30 5190 O 490.926 0.0974107 -1.73927 0
M  V30 5191 C 488.058 0.0782231 -3.4081 0
M  V30 5192 H 489.251 -1.52915 -2.57987 0
M  V30 5193 H 486.804 -0.828988 -1.32505 0
M  V30 5194 H 487.539 0.992233 -3.08748 0
M  V30 5195 H 487.324 -0.597776 -3.87517 0
M  V30 5196 H 488.814 0.350156 -4.16129 0
M  V30 5197 N 489.251 1.34841 -0.815825 0
M  V30 5198 C 490.662 1.80937 -0.46029 0
M  V30 5199 C 491.013 1.67685 1.01863 0
M  V30 5200 O 490.138 1.21277 1.79223 0
M  V30 5201 C 490.733 3.28509 -0.828708 0
M  V30 5202 C 489.292 3.72712 -0.525644 0
M  V30 5203 C 488.439 2.56676 -1.04941 0
M  V30 5204 H 491.39 1.22688 -1.00664 0
M  V30 5205 H 491.411 3.80279 -0.129757 0
M  V30 5206 H 490.923 3.38122 -1.90513 0
M  V30 5207 H 489.024 3.68642 0.541666 0
M  V30 5208 H 489.137 4.67119 -1.06474 0
M  V30 5209 H 487.501 2.50302 -0.471286 0
M  V30 5210 H 488.284 2.69063 -2.13214 0
M  V30 5211 N 490.729 0.570148 1.46925 0
M  V30 5212 C 491.976 0.0509529 2.02436 0
M  V30 5213 C 492.304 -1.30405 1.44308 0
M  V30 5214 O 491.559 -1.86493 0.593198 0
M  V30 5215 C 491.858 -0.0780336 3.57315 0
M  V30 5216 C 491.524 1.20775 4.34424 0
M  V30 5217 C 490.186 1.56004 4.5521 0
M  V30 5218 C 492.538 2.0592 4.78797 0
M  V30 5219 C 489.866 2.76201 5.17619 0
M  V30 5220 C 492.218 3.25332 5.42533 0
M  V30 5221 C 490.882 3.60859 5.61549 0
M  V30 5222 H 490.152 0.018645 0.740765 0
M  V30 5223 H 492.799 0.744262 1.76445 0
M  V30 5224 H 491.104 -0.854394 3.82371 0
M  V30 5225 H 492.801 -0.495312 3.97929 0
M  V30 5226 H 489.391 0.923469 4.18533 0
M  V30 5227 H 493.575 1.80008 4.62505 0
M  V30 5228 H 488.831 3.0388 5.30535 0
M  V30 5229 H 493.005 3.91586 5.75876 0
M  V30 5230 H 490.632 4.54088 6.09678 0
M  V30 5231 N 492.207 -1.54576 0.307264 0
M  V30 5232 C 493.447 -2.02172 -0.300962 0
M  V30 5233 C 493.811 -1.19081 -1.50611 0
M  V30 5234 O 495.012 -1.56405 -2.18612 0
M  V30 5235 C 493.283 -3.51576 -0.642591 0
M  V30 5236 S 494.842 -4.21127 -1.23279 0
M  V30 5237 H 491.66 -0.705021 -0.0920141 0
M  V30 5238 H 494.262 -1.90563 0.436594 0
M  V30 5239 H 492.966 -4.09681 0.242901 0
M  V30 5240 H 492.497 -3.67234 -1.41077 0
M  V30 5241 H 494.512 -4.27426 -2.52034 0
M  V30 5242 N 493.685 -0.035106 -1.57561 0
M  V30 5243 C 494.913 0.652258 -1.9635 0
M  V30 5244 C 495.328 1.65317 -0.911897 0
M  V30 5245 O 494.685 1.82194 0.105657 0
M  V30 5246 C 494.736 1.35337 -3.35211 0
M  V30 5247 O 494.457 0.392548 -4.36338 0
M  V30 5248 C 495.958 2.13199 -3.88666 0
M  V30 5249 H 493.178 0.179444 -0.646561 0
M  V30 5250 H 495.722 -0.0966459 -2.04271 0
M  V30 5251 H 493.877 2.05362 -3.28489 0
M  V30 5252 H 494.291 0.891097 -5.16875 0
M  V30 5253 H 495.765 2.577 -4.88154 0
M  V30 5254 H 496.242 2.97353 -3.23231 0
M  V30 5255 H 496.848 1.48118 -3.98674 0
M  V30 5256 N 495.163 1.55791 0.238111 0
M  V30 5257 C 496.574 1.68383 0.806472 0
M  V30 5258 C 496.925 0.634157 1.85669 0
M  V30 5259 O 496.05 -0.217913 2.153 0
M  V30 5260 C 496.645 3.05268 1.46959 0
M  V30 5261 C 495.204 3.1977 1.98555 0
M  V30 5262 C 494.351 2.64279 0.839763 0
M  V30 5263 H 497.302 1.58694 0.0137535 0
M  V30 5264 H 497.323 3.00203 2.33792 0
M  V30 5265 H 496.835 3.81643 0.704993 0
M  V30 5266 H 494.936 2.48234 2.77868 0
M  V30 5267 H 495.049 4.26788 2.17689 0
M  V30 5268 H 493.413 2.22329 1.24265 0
M  V30 5269 H 494.196 3.43187 0.0881032 0
M  V30 5270 N 496.642 -0.504142 1.49319 0
M  V30 5271 C 497.552 -1.63248 1.68486 0
M  V30 5272 C 498.568 -1.64488 0.567432 0
M  V30 5273 O 499.744 -1.82966 0.841749 0
M  V30 5274 C 496.809 -2.99627 1.74426 0
M  V30 5275 C 495.87 -3.09039 2.97982 0
M  V30 5276 C 495.103 -4.38913 3.0363 0
M  V30 5277 O 495.326 -5.27528 2.16958 0
M  V30 5278 O 494.26 -4.53231 3.96062 0
M  V30 5279 H 498.086 -1.50008 2.64067 0
M  V30 5280 H 495.671 -0.680086 1.33023 0
M  V30 5281 H 497.553 -3.80689 1.80705 0
M  V30 5282 H 496.228 -3.13136 0.820233 0
M  V30 5283 H 495.135 -2.27177 2.97223 0
M  V30 5284 H 496.468 -3.00456 3.89855 0
M  V30 5285 N 498.12 -1.38341 -0.754957 0
M  V30 5286 C 499.052 -1.31347 -1.87831 0
M  V30 5287 C 500.065 -0.225955 -1.61224 0
M  V30 5288 O 501.254 -0.48341 -1.7183 0
M  V30 5289 C 498.354 -1.01201 -3.23437 0
M  V30 5290 C 497.527 -2.20834 -3.77559 0
M  V30 5291 C 496.586 -1.87454 -4.91678 0
M  V30 5292 O 495.612 -2.59934 -5.06382 0
M  V30 5293 N 496.814 -0.828682 -5.74555 0
M  V30 5294 H 499.579 -2.28147 -1.94342 0
M  V30 5295 H 497.14 -1.32184 -0.934828 0
M  V30 5296 H 499.132 -0.769249 -3.97322 0
M  V30 5297 H 497.702 -0.132011 -3.12321 0
M  V30 5298 H 496.922 -2.61184 -2.95256 0
M  V30 5299 H 498.21 -3.00678 -4.10451 0
M  V30 5300 H 497.608 -0.227591 -5.65242 0
M  V30 5301 H 496.165 -0.645802 -6.48593 0
M  V30 5302 N 499.598 0.982988 -1.23187 0
M  V30 5303 C 500.548 2.05962 -0.977942 0
M  V30 5304 C 501.532 1.60725 0.0751148 0
M  V30 5305 O 502.724 1.76471 -0.136683 0
M  V30 5306 C 499.853 3.38564 -0.568276 0
M  V30 5307 C 498.939 3.90407 -1.6566 0
M  V30 5308 N 499.33 4.15359 -2.88635 0
M  V30 5309 C 497.628 4.18915 -1.53058 0
M  V30 5310 C 498.329 4.57642 -3.5908 0
M  V30 5311 N 497.305 4.6192 -2.86584 0
M  V30 5312 H 501.107 2.23208 -1.91195 0
M  V30 5313 H 498.621 1.16555 -1.13087 0
M  V30 5314 H 500.618 4.15276 -0.36764 0
M  V30 5315 H 499.278 3.22712 0.358713 0
M  V30 5316 H 500.289 4.03258 -3.24966 0
M  V30 5317 H 496.966 4.12081 -0.670506 0
M  V30 5318 H 498.356 4.85488 -4.6449 0
M  V30 5319 N 501.076 1.04316 1.18135 0
M  V30 5320 C 502.023 0.636398 2.21853 0
M  V30 5321 C 502.993 -0.357039 1.62217 0
M  V30 5322 O 504.178 -0.250453 1.89149 0
M  V30 5323 C 501.318 0.00812779 3.45099 0
M  V30 5324 C 500.431 1.04933 4.19062 0
M  V30 5325 C 499.566 0.389313 5.29771 0
M  V30 5326 C 498.605 1.41544 5.9551 0
M  V30 5327 N 497.742 0.78021 6.97751 0
M  V30 5328 H 502.582 1.52536 2.56002 0
M  V30 5329 H 500.119 0.76304 1.25762 0
M  V30 5330 H 502.077 -0.373497 4.15525 0
M  V30 5331 H 500.707 -0.844336 3.11562 0
M  V30 5332 H 499.759 1.54888 3.47439 0
M  V30 5333 H 501.071 1.82862 4.64072 0
M  V30 5334 H 500.225 -0.0463805 6.06682 0
M  V30 5335 H 498.964 -0.422038 4.8587 0
M  V30 5336 H 497.969 1.86124 5.17337 0
M  V30 5337 H 499.194 2.22854 6.41493 0
M  V30 5338 H 497.14 -0.0107899 6.55999 0
M  V30 5339 H 497.057 1.49716 7.41027 0
M  V30 5340 H 498.325 0.368996 7.78626 0
M  V30 5341 N 502.554 -1.34406 0.822964 0
M  V30 5342 C 503.464 -2.33298 0.246838 0
M  V30 5343 C 504.48 -1.62625 -0.618797 0
M  V30 5344 O 505.656 -1.94391 -0.526685 0
M  V30 5345 C 502.721 -3.41785 -0.581731 0
M  V30 5346 C 501.782 -4.28206 0.306309 0
M  V30 5347 C 501.015 -5.31512 -0.48281 0
M  V30 5348 O 501.238 -5.43973 -1.71607 0
M  V30 5349 O 500.172 -6.01749 0.134884 0
M  V30 5350 H 503.998 -2.84401 1.06534 0
M  V30 5351 H 501.583 -1.37466 0.585108 0
M  V30 5352 H 503.465 -4.08028 -1.05313 0
M  V30 5353 H 502.14 -2.92925 -1.37756 0
M  V30 5354 H 501.047 -3.64885 0.825199 0
M  V30 5355 H 502.38 -4.80507 1.06649 0
M  V30 5356 N 504.032 -0.577932 -1.46621 0
M  V30 5357 C 505.272 -0.0643097 -2.04299 0
M  V30 5358 C 505.636 1.26967 -1.44026 0
M  V30 5359 O 506.837 1.87224 -1.92875 0
M  V30 5360 C 505.108 0.00547588 -3.574 0
M  V30 5361 S 506.667 0.462216 -4.36359 0
M  V30 5362 H 503.485 -0.0351573 -0.71013 0
M  V30 5363 H 506.087 -0.76935 -1.79725 0
M  V30 5364 H 504.791 -0.969423 -3.98786 0
M  V30 5365 H 504.322 0.733435 -3.86503 0
M  V30 5366 H 506.337 1.71791 -4.65513 0
M  V30 5367 N 505.51 1.54411 -0.315457 0
M  V30 5368 C 506.473 2.22713 0.54142 0
M  V30 5369 C 507.473 1.2179 1.04995 0
M  V30 5370 O 508.663 1.46426 0.943667 0
M  V30 5371 C 505.795 2.92485 1.75116 0
M  V30 5372 H 506.988 2.99849 -0.0555508 0
M  V30 5373 H 504.541 1.56159 -0.0664453 0
M  V30 5374 H 505.276 2.19466 2.38758 0
M  V30 5375 H 505.061 3.66483 1.39401 0
M  V30 5376 H 506.551 3.44548 2.35959 0
M  V30 5377 N 506.988 0.0434614 1.5754 0
M  V30 5378 C 507.898 -0.94893 2.14552 0
M  V30 5379 C 508.914 -1.34707 1.10136 0
M  V30 5380 O 510.09 -1.42557 1.42266 0
M  V30 5381 C 507.155 -2.208 2.67298 0
M  V30 5382 C 506.216 -1.86893 3.86484 0
M  V30 5383 C 505.449 -3.06797 4.36705 0
M  V30 5384 O 505.672 -4.19921 3.86034 0
M  V30 5385 O 504.606 -2.8826 5.28384 0
M  V30 5386 H 508.432 -0.494099 2.99654 0
M  V30 5387 H 506.017 -0.177989 1.48336 0
M  V30 5388 H 507.899 -2.94686 3.01228 0
M  V30 5389 H 506.574 -2.65436 1.85272 0
M  V30 5390 H 505.481 -1.10347 3.57455 0
M  V30 5391 H 506.814 -1.47062 4.69716 0
M  V30 5392 N 508.466 -1.55915 -0.229846 0
M  V30 5393 C 509.877 -1.68809 -0.797531 0
M  V30 5394 C 510.228 -0.643995 -1.8533 0
M  V30 5395 O 509.353 0.206492 -2.15413 0
M  V30 5396 C 509.948 -3.06043 -1.45338 0
M  V30 5397 C 508.507 -3.20819 -1.96856 0
M  V30 5398 C 507.654 -2.6472 -0.825736 0
M  V30 5399 H 510.605 -1.58699 -0.00533733 0
M  V30 5400 H 510.626 -3.01438 -2.32196 0
M  V30 5401 H 510.138 -3.82012 -0.684743 0
M  V30 5402 H 508.239 -2.49704 -2.76548 0
M  V30 5403 H 508.352 -4.27937 -2.15423 0
M  V30 5404 H 506.716 -2.22985 -1.23084 0
M  V30 5405 H 507.499 -3.43229 -0.0699019 0
M  V30 5406 N 509.944 0.496216 -1.49584 0
M  V30 5407 C 510.907 1.57952 -1.66084 0
M  V30 5408 C 511.907 1.51729 -0.53244 0
M  V30 5409 O 513.097 1.54796 -0.79899 0
M  V30 5410 C 510.229 2.97604 -1.66268 0
M  V30 5411 H 511.422 1.44649 -2.6271 0
M  V30 5412 H 508.975 0.7208 -1.38687 0
M  V30 5413 H 509.71 3.16378 -0.712432 0
M  V30 5414 H 509.495 3.03528 -2.4822 0
M  V30 5415 H 510.985 3.76301 -1.81073 0
M  V30 5416 N 511.423 1.38739 0.74761 0
M  V30 5417 C 512.353 1.39173 1.87492 0
M  V30 5418 C 513.334 0.256794 1.6815 0
M  V30 5419 O 514.519 0.460762 1.88655 0
M  V30 5420 C 511.649 1.22197 3.25093 0
M  V30 5421 C 510.603 2.32957 3.59047 0
M  V30 5422 C 509.929 2.01082 4.95449 0
M  V30 5423 C 511.229 3.75237 3.6331 0
M  V30 5424 H 512.923 2.3351 1.87386 0
M  V30 5425 H 510.469 1.12399 0.900134 0
M  V30 5426 H 512.422 1.21124 4.03617 0
M  V30 5427 H 511.146 0.243241 3.25693 0
M  V30 5428 H 509.805 2.33226 2.82845 0
M  V30 5429 H 509.453 1.01678 4.92616 0
M  V30 5430 H 509.153 2.75267 5.19136 0
M  V30 5431 H 510.677 2.01638 5.76346 0
M  V30 5432 H 512.091 3.76966 4.31937 0
M  V30 5433 H 510.488 4.48677 3.98509 0
M  V30 5434 H 511.558 4.07122 2.634 0
M  V30 5435 N 512.901 -0.976442 1.23707 0
M  V30 5436 C 514.149 -1.71487 1.06942 0
M  V30 5437 C 514.47 -1.9098 -0.393897 0
M  V30 5438 O 513.74 -1.48128 -1.28198 0
M  V30 5439 H 512.32 -0.635425 0.392739 0
M  V30 5440 H 514.982 -1.17515 1.55487 0
M  V30 5441 H 514.078 -2.70286 1.56051 0
M  V30 5442 N 514.379 -1.04941 -1.1758 0
M  V30 5443 C 515.309 -0.669172 -2.23706 0
M  V30 5444 C 516.29 0.331835 -1.66832 0
M  V30 5445 O 517.475 0.209988 -1.93061 0
M  V30 5446 C 514.605 -0.0404889 -3.47276 0
M  V30 5447 C 513.559 -0.965983 -4.16957 0
M  V30 5448 C 512.885 -0.201312 -5.34321 0
M  V30 5449 C 514.185 -2.28902 -4.69469 0
M  V30 5450 H 515.879 -1.55639 -2.55767 0
M  V30 5451 H 513.425 -0.749793 -1.22939 0
M  V30 5452 H 515.378 0.237298 -4.20731 0
M  V30 5453 H 514.102 0.881658 -3.14475 0
M  V30 5454 H 512.761 -1.22829 -3.45411 0
M  V30 5455 H 512.409 0.723519 -4.97769 0
M  V30 5456 H 512.109 -0.817968 -5.81879 0
M  V30 5457 H 513.633 0.0692499 -6.10561 0
M  V30 5458 H 515.047 -2.07132 -5.34574 0
M  V30 5459 H 513.444 -2.85942 -5.27596 0
M  V30 5460 H 514.514 -2.92937 -3.86414 0
M  V30 5461 N 515.857 1.33968 -0.830081 0
M  V30 5462 C 516.787 2.31911 -0.271911 0
M  V30 5463 C 517.768 1.58571 0.61556 0
M  V30 5464 O 518.953 1.86514 0.540946 0
M  V30 5465 C 516.083 3.42737 0.561146 0
M  V30 5466 C 515.037 4.27383 -0.229789 0
M  V30 5467 C 514.363 5.29742 0.726463 0
M  V30 5468 C 515.663 5.02 -1.44197 0
M  V30 5469 H 517.357 2.78844 -1.09025 0
M  V30 5470 H 514.903 1.34061 -0.52571 0
M  V30 5471 H 516.856 4.10276 0.961867 0
M  V30 5472 H 515.58 2.94471 1.41261 0
M  V30 5473 H 514.239 3.61456 -0.611964 0
M  V30 5474 H 513.887 4.77736 1.57408 0
M  V30 5475 H 513.587 5.87255 0.20142 0
M  V30 5476 H 515.111 6.00149 1.12489 0
M  V30 5477 H 516.525 5.62355 -1.11488 0
M  V30 5478 H 514.922 5.69122 -1.90317 0
M  V30 5479 H 515.992 4.31281 -2.2164 0
M  V30 5480 N 517.335 0.585699 1.46312 0
M  V30 5481 C 518.298 -0.135673 2.28798 0
M  V30 5482 C 519.298 -0.815988 1.38558 0
M  V30 5483 O 520.488 -0.667487 1.60904 0
M  V30 5484 C 517.62 -1.20163 3.1902 0
M  V30 5485 H 518.813 0.589257 2.94054 0
M  V30 5486 H 516.366 0.343794 1.52472 0
M  V30 5487 H 517.101 -1.95804 2.58517 0
M  V30 5488 H 516.886 -0.718282 3.85465 0
M  V30 5489 H 518.376 -1.70749 3.81096 0
M  V30 5490 N 518.813 -1.54241 0.323641 0
M  V30 5491 C 519.723 -2.28033 -0.551205 0
M  V30 5492 C 520.739 -1.32388 -1.12913 0
M  V30 5493 O 521.915 -1.65403 -1.14908 0
M  V30 5494 C 518.98 -3.02382 -1.69606 0
M  V30 5495 C 518.041 -4.13612 -1.14993 0
M  V30 5496 C 517.274 -4.84407 -2.24022 0
M  V30 5497 O 517.497 -4.54716 -3.44368 0
M  V30 5498 O 516.431 -5.71312 -1.89436 0
M  V30 5499 H 520.257 -3.03662 0.048066 0
M  V30 5500 H 517.842 -1.49133 0.0893289 0
M  V30 5501 H 519.724 -3.48941 -2.36259 0
M  V30 5502 H 518.399 -2.29628 -2.28151 0
M  V30 5503 H 517.306 -3.71402 -0.448484 0
M  V30 5504 H 518.639 -4.8841 -0.609608 0
M  V30 5505 N 520.291 -0.0518155 -1.57515 0
M  V30 5506 C 521.238 0.922352 -2.11569 0
M  V30 5507 C 522.208 1.30842 -1.02321 0
M  V30 5508 O 523.393 1.39778 -1.29872 0
M  V30 5509 C 520.533 2.19167 -2.6657 0
M  V30 5510 C 519.646 1.86003 -3.89906 0
M  V30 5511 C 518.781 3.07398 -4.33221 0
M  V30 5512 C 517.82 2.70158 -5.49255 0
M  V30 5513 N 516.957 3.84248 -5.8762 0
M  V30 5514 H 521.797 0.454506 -2.94514 0
M  V30 5515 H 519.334 0.212718 -1.45554 0
M  V30 5516 H 521.292 2.93443 -2.96559 0
M  V30 5517 H 519.922 2.63528 -1.86421 0
M  V30 5518 H 518.974 1.01874 -3.66505 0
M  V30 5519 H 520.286 1.54592 -4.74239 0
M  V30 5520 H 519.44 3.89972 -4.64765 0
M  V30 5521 H 518.179 3.41988 -3.477 0
M  V30 5522 H 517.184 1.86001 -5.17382 0
M  V30 5523 H 518.409 2.36759 -6.36492 0
M  V30 5524 H 516.355 4.18638 -5.05053 0
M  V30 5525 H 516.272 3.56538 -6.66646 0
M  V30 5526 H 517.54 4.6746 -6.2378 0
M  V30 5527 N 521.769 1.56035 0.221574 0
M  V30 5528 C 523.046 1.69837 0.970301 0
M  V30 5529 C 523.426 0.599065 2.02421 0
M  V30 5530 O 522.774 -0.393929 2.25079 0
M  V30 5531 C 522.984 3.11148 1.58076 0
M  V30 5532 C 524.332 3.70555 2.07302 0
M  V30 5533 O 525.356 3.14109 1.6797 0
M  V30 5534 O 524.215 4.69562 2.79596 0
M  V30 5535 H 521.309 0.691727 0.453257 0
M  V30 5536 H 523.855 1.68353 0.213358 0
M  V30 5537 H 522.627 3.82617 0.819759 0
M  V30 5538 H 522.25 3.16749 2.40324 0
M  V30 5539 N 523.247 -0.488276 1.49845 0
M  V30 5540 C 524.472 -1.26997 1.63971 0
M  V30 5541 C 524.897 -1.85427 0.315994 0
M  V30 5542 O 524.255 -1.66475 -0.718032 0
M  V30 5543 C 524.303 -2.36689 2.72049 0
M  V30 5544 O 523.407 -3.40882 2.32107 0
M  V30 5545 H 522.748 -0.374376 0.548396 0
M  V30 5546 H 525.278 -0.583104 1.96115 0
M  V30 5547 H 525.288 -2.82262 2.94605 0
M  V30 5548 H 523.963 -1.93529 3.68129 0
M  V30 5549 H 522.54 -3.01139 2.19931 0
M  V30 5550 N 524.725 -1.39134 -0.740242 0
M  V30 5551 C 525.673 -1.3757 -1.87556 0
M  V30 5552 C 526.667 -0.259593 -1.67399 0
M  V30 5553 O 527.873 -0.429349 -1.74804 0
M  V30 5554 H 524.248 -0.42947 -0.6173 0
M  V30 5555 H 526.219 -2.33345 -1.85991 0
M  V30 5556 C 524.968 -1.23087 -3.25184 0
M  V30 5557 H 524.291 -2.08237 -3.41288 0
M  V30 5558 H 525.731 -1.26049 -4.0483 0
M  V30 5559 C 524.19 0.0611471 -3.36845 0
M  V30 5560 O 524.72 1.03328 -3.88183 0
M  V30 5561 N 522.926 0.122454 -2.90342 0
M  V30 5562 H 522.473 -0.669329 -2.48752 0
M  V30 5563 H 522.431 0.986463 -2.98523 0
M  V30 5564 N 526.204 0.969867 -1.24223 0
M  V30 5565 C 527.434 1.74502 -1.106 0
M  V30 5566 C 527.842 1.86038 0.344483 0
M  V30 5567 O 527.185 1.3465 1.24961 0
M  V30 5568 C 527.247 3.18391 -1.66935 0
M  V30 5569 C 526.911 3.30334 -3.15798 0
M  V30 5570 C 527.908 3.15832 -4.12973 0
M  V30 5571 C 525.593 3.54644 -3.55715 0
M  V30 5572 C 527.587 3.25461 -5.48045 0
M  V30 5573 C 525.274 3.63912 -4.90929 0
M  V30 5574 C 526.272 3.49332 -5.86904 0
M  V30 5575 O 525.96 3.58251 -7.1966 0
M  V30 5576 H 525.692 0.554119 -0.387206 0
M  V30 5577 H 528.246 1.22646 -1.64764 0
M  V30 5578 H 526.476 3.71543 -1.07203 0
M  V30 5579 H 528.165 3.77707 -1.48634 0
M  V30 5580 H 528.931 2.96937 -3.83476 0
M  V30 5581 H 524.81 3.65059 -2.81519 0
M  V30 5582 H 528.354 3.13998 -6.22937 0
M  V30 5583 H 524.251 3.82319 -5.20098 0
M  V30 5584 H 525.019 3.7498 -7.27552 0
M  V30 5585 N 527.682 1.05563 1.17022 0
M  V30 5586 C 528.922 0.777033 1.89054 0
M  V30 5587 C 529.286 -0.683617 1.79418 0
M  V30 5588 O 530.487 -1.07648 2.46303 0
M  V30 5589 C 528.758 1.24886 3.34871 0
M  V30 5590 S 530.317 1.0982 4.24835 0
M  V30 5591 H 527.135 0.282082 0.652649 0
M  V30 5592 H 529.737 1.35103 1.41306 0
M  V30 5593 H 528.441 2.30699 3.3942 0
M  V30 5594 H 527.972 0.669292 3.87665 0
M  V30 5595 H 529.987 0.02462 4.96194 0
M  V30 5596 N 529.16 -1.33526 0.837174 0
M  V30 5597 C 530.09 -2.31764 0.284206 0
M  V30 5598 C 531.071 -1.58896 -0.607142 0
M  V30 5599 O 532.256 -1.86798 -0.531047 0
M  V30 5600 C 529.386 -3.43029 -0.542962 0
M  V30 5601 C 528.34 -4.27255 0.252451 0
M  V30 5602 C 527.666 -5.3012 -0.69836 0
M  V30 5603 C 528.966 -5.01229 1.46858 0
M  V30 5604 H 530.66 -2.78262 1.10502 0
M  V30 5605 H 528.206 -1.3378 0.532812 0
M  V30 5606 H 530.159 -4.1078 -0.940096 0
M  V30 5607 H 528.883 -2.95216 -1.39697 0
M  V30 5608 H 527.542 -3.61127 0.631124 0
M  V30 5609 H 527.19 -4.78564 -1.54872 0
M  V30 5610 H 526.89 -5.87353 -0.170274 0
M  V30 5611 H 528.414 -6.00737 -1.09305 0
M  V30 5612 H 529.828 -5.61756 1.14469 0
M  V30 5613 H 528.225 -5.68104 1.93333 0
M  V30 5614 H 529.295 -4.301 2.23924 0
M  V30 5615 N 530.638 -0.59345 -1.46 0
M  V30 5616 C 531.878 -0.0859747 -2.04219 0
M  V30 5617 C 532.242 1.25432 -1.45364 0
M  V30 5618 O 533.443 1.85168 -1.9485 0
M  V30 5619 C 531.714 -0.0324314 -3.57385 0
M  V30 5620 S 533.273 0.415908 -4.36824 0
M  V30 5621 H 530.091 -0.0426872 -0.709717 0
M  V30 5622 H 532.693 -0.788369 -1.78899 0
M  V30 5623 H 531.397 -1.01166 -3.97735 0
M  V30 5624 H 530.928 0.6924 -3.87259 0
M  V30 5625 H 532.943 1.66844 -4.67309 0
M  V30 5626 N 532.116 1.54067 -0.331816 0
M  V30 5627 C 533.532 1.59587 0.0205388 0
M  V30 5628 C 533.732 1.34813 1.49759 0
M  V30 5629 O 532.788 1.13661 2.25471 0
M  V30 5630 C 534.101 2.97959 -0.405103 0
M  V30 5631 C 535.649 3.10964 -0.356454 0
M  V30 5632 C 536.124 4.51694 -0.757384 0
M  V30 5633 N 537.615 4.57709 -0.71111 0
M  V30 5634 C 538.35 5.64729 -0.993427 0
M  V30 5635 N 537.846 6.79652 -1.3433 0
M  V30 5636 N 539.639 5.54546 -0.918442 0
M  V30 5637 H 531.79 1.68426 -1.29407 0
M  V30 5638 H 534.053 0.78819 -0.526745 0
M  V30 5639 H 533.759 3.21115 -1.43451 0
M  V30 5640 H 533.633 3.76524 0.225692 0
M  V30 5641 H 536.02 2.87538 0.663763 0
M  V30 5642 H 536.101 2.34484 -1.02229 0
M  V30 5643 H 535.745 4.75853 -1.77555 0
M  V30 5644 H 535.675 5.26555 -0.0691444 0
M  V30 5645 H 538.166 3.75176 -0.452883 0
M  V30 5646 H 538.479 7.57221 -1.54388 0
M  V30 5647 H 536.824 6.81128 -1.38164 0
M  V30 5648 H 540.015 4.63641 -0.644536 0
M  V30 5649 H 540.188 6.37861 -1.14181 0
M  V30 5650 N 533.594 0.0601682 1.57485 0
M  V30 5651 C 534.822 -0.620937 1.97363 0
M  V30 5652 C 535.237 -1.63846 0.938082 0
M  V30 5653 O 534.594 -1.82339 -0.0766578 0
M  V30 5654 C 534.645 -1.29987 3.37321 0
M  V30 5655 O 534.366 -0.323081 4.36907 0
M  V30 5656 C 535.867 -2.06989 3.92008 0
M  V30 5657 H 533.087 -0.169135 0.649334 0
M  V30 5658 H 535.631 0.129132 2.04092 0
M  V30 5659 H 533.786 -2.0011 3.31715 0
M  V30 5660 H 534.2 -0.808754 5.18227 0
M  V30 5661 H 535.674 -2.49901 4.92192 0
M  V30 5662 H 536.151 -2.92173 3.2792 0
M  V30 5663 H 536.757 -1.41757 4.0098 0
M  V30 5664 N 535.072 -1.5615 -0.213296 0
M  V30 5665 C 536.483 -1.69645 -0.779582 0
M  V30 5666 C 536.834 -0.663615 -1.84636 0
M  V30 5667 O 535.959 0.183633 -2.15619 0
M  V30 5668 C 536.554 -3.07567 -1.42084 0
M  V30 5669 C 535.113 -3.22889 -1.93442 0
M  V30 5670 C 534.26 -2.65581 -0.797612 0
M  V30 5671 H 537.211 -1.58696 0.0114951 0
M  V30 5672 H 537.232 -3.03884 -2.28986 0
M  V30 5673 H 536.744 -3.82716 -0.644187 0
M  V30 5674 H 534.845 -2.52623 -2.73884 0
M  V30 5675 H 534.958 -4.30197 -2.10872 0
M  V30 5676 H 533.322 -2.24278 -1.20712 0
M  V30 5677 H 534.105 -3.43284 -0.033494 0
M  V30 5678 N 536.55 0.480323 -1.50102 0
M  V30 5679 C 537.79 1.24301 -1.62261 0
M  V30 5680 C 538.154 1.89452 -0.311758 0
M  V30 5681 O 539.355 2.67022 -0.308696 0
M  V30 5682 C 537.626 2.26588 -2.76392 0
M  V30 5683 S 539.185 3.11919 -3.08629 0
M  V30 5684 H 536.003 0.42215 -0.57211 0
M  V30 5685 H 538.605 0.541591 -1.87848 0
M  V30 5686 H 537.309 1.7729 -3.70131 0
M  V30 5687 H 536.84 3.01371 -2.52862 0
M  V30 5688 H 538.855 4.27598 -2.51742 0
M  V30 5689 N 538.028 1.39524 0.732853 0
M  V30 5690 C 538.976 1.38563 1.86824 0
M  V30 5691 C 539.97 0.268467 1.67259 0
M  V30 5692 O 541.176 0.438613 1.74574 0
M  V30 5693 H 537.551 0.432737 0.615014 0
M  V30 5694 H 539.522 2.34328 1.84751 0
M  V30 5695 C 538.271 1.2481 3.24527 0
M  V30 5696 H 537.594 2.10044 3.40179 0
M  V30 5697 H 539.034 1.28194 4.04156 0
M  V30 5698 C 537.493 -0.0432825 3.36872 0
M  V30 5699 O 538.023 -1.01268 3.88726 0
M  V30 5700 N 536.229 -0.107055 2.90403 0
M  V30 5701 H 535.776 0.682512 2.48394 0
M  V30 5702 H 535.734 -0.970618 2.99042 0
M  V30 5703 N 539.506 -0.963266 1.24736 0
M  V30 5704 C 540.436 -2.07628 1.06832 0
M  V30 5705 C 541.417 -1.70088 -0.0200566 0
M  V30 5706 O 542.602 -1.93636 0.147854 0
M  V30 5707 C 539.732 -3.40636 0.677069 0
M  V30 5708 C 538.686 -3.9215 1.71471 0
M  V30 5709 C 538.012 -5.21553 1.1784 0
M  V30 5710 C 539.312 -4.19493 3.11164 0
M  V30 5711 H 541.006 -2.22864 1.9993 0
M  V30 5712 H 538.552 -1.07093 0.96266 0
M  V30 5713 H 540.505 -4.17941 0.538792 0
M  V30 5714 H 539.229 -3.25313 -0.289612 0
M  V30 5715 H 537.888 -3.17005 1.84128 0
M  V30 5716 H 537.536 -5.02593 0.202195 0
M  V30 5717 H 537.236 -5.56988 1.87185 0
M  V30 5718 H 538.76 -6.01463 1.05233 0
M  V30 5719 H 540.174 -4.87487 3.01711 0
M  V30 5720 H 538.571 -4.66165 3.77902 0
M  V30 5721 H 539.641 -3.26097 3.58871 0
M  V30 5722 N 540.985 -1.06182 -1.16461 0
M  V30 5723 C 542.213 -0.798583 -1.90867 0
M  V30 5724 C 542.628 0.646921 -1.77371 0
M  V30 5725 O 541.985 1.44279 -1.11758 0
M  V30 5726 C 542.036 -1.18258 -3.4161 0
M  V30 5727 O 541.757 -2.57135 -3.54701 0
M  V30 5728 C 543.258 -0.946917 -4.33069 0
M  V30 5729 H 540.478 -0.289603 -0.605286 0
M  V30 5730 H 543.022 -1.41515 -1.47627 0
M  V30 5731 H 541.177 -0.610562 -3.82558 0
M  V30 5732 H 541.591 -2.72477 -4.4817 0
M  V30 5733 H 543.065 -1.26523 -5.37304 0
M  V30 5734 H 543.542 0.117406 -4.39043 0
M  V30 5735 H 544.148 -1.50326 -3.97847 0
M  V30 5736 N 542.463 1.3308 -0.844243 0
M  V30 5737 C 543.879 1.50447 -0.532729 0
M  V30 5738 C 544.079 1.78292 0.938837 0
M  V30 5739 O 543.135 1.84635 1.72239 0
M  V30 5740 C 544.448 2.65555 -1.41072 0
M  V30 5741 C 545.996 2.7944 -1.41005 0
M  V30 5742 C 546.471 3.97616 -2.27301 0
M  V30 5743 N 547.962 4.0486 -2.2504 0
M  V30 5744 C 548.697 4.95508 -2.88547 0
M  V30 5745 N 548.193 5.91236 -3.61126 0
M  V30 5746 N 549.986 4.88548 -2.77989 0
M  V30 5747 H 542.137 1.13269 -1.79677 0
M  V30 5748 H 544.4 0.55734 -0.766861 0
M  V30 5749 H 544.106 2.51675 -2.45668 0
M  V30 5750 H 543.98 3.61089 -1.09061 0
M  V30 5751 H 546.367 2.92749 -0.371784 0
M  V30 5752 H 546.448 1.8465 -1.77026 0
M  V30 5753 H 546.092 3.85066 -3.3119 0
M  V30 5754 H 546.022 4.91661 -1.88619 0
M  V30 5755 H 548.513 3.36353 -1.72264 0
M  V30 5756 H 548.826 6.57079 -4.06776 0
M  V30 5757 H 547.171 5.91295 -3.65234 0
M  V30 5758 H 550.362 4.12729 -2.20846 0
M  V30 5759 H 550.535 5.58994 -3.27765 0
M  V30 5760 N 543.941 0.601185 1.45683 0
M  V30 5761 C 545.171 0.0999093 2.06358 0
M  V30 5762 C 545.579 -1.21831 1.44754 0
M  V30 5763 O 544.922 -1.75157 0.553695 0
M  V30 5764 C 544.984 -0.12085 3.59297 0
M  V30 5765 C 544.648 1.11459 4.432 0
M  V30 5766 C 545.645 2.03118 4.7858 0
M  V30 5767 C 543.33 1.34162 4.84051 0
M  V30 5768 C 545.324 3.15814 5.53661 0
M  V30 5769 C 543.011 2.4716 5.58888 0
M  V30 5770 C 544.009 3.37814 5.93608 0
M  V30 5771 O 543.697 4.48846 6.66928 0
M  V30 5772 H 543.429 0.0630316 0.673055 0
M  V30 5773 H 545.983 0.826982 1.88016 0
M  V30 5774 H 544.213 -0.902744 3.76015 0
M  V30 5775 H 545.902 -0.572925 4.01836 0
M  V30 5776 H 546.668 1.86801 4.47583 0
M  V30 5777 H 542.547 0.645018 4.56465 0
M  V30 5778 H 546.091 3.86596 5.8068 0
M  V30 5779 H 541.988 2.63432 5.89299 0
M  V30 5780 H 542.756 4.47446 6.85371 0
M  V30 5781 N 545.419 -1.53889 0.339982 0
M  V30 5782 C 546.367 -2.26391 -0.533822 0
M  V30 5783 C 547.361 -1.28404 -1.10493 0
M  V30 5784 O 548.567 -1.46124 -1.05108 0
M  V30 5785 H 544.942 -0.727385 -0.190828 0
M  V30 5786 H 546.913 -2.98233 0.0997484 0
M  V30 5787 C 545.662 -3.04707 -1.67479 0
M  V30 5788 H 544.985 -3.79934 -1.2446 0
M  V30 5789 H 546.425 -3.58657 -2.26144 0
M  V30 5790 C 544.884 -2.13989 -2.60212 0
M  V30 5791 O 545.414 -1.73361 -3.62366 0
M  V30 5792 N 543.62 -1.79141 -2.28816 0
M  V30 5793 H 543.167 -2.12378 -1.45785 0
M  V30 5794 H 543.125 -1.18725 -2.91121 0
M  V30 5795 N 546.897 -0.0685191 -1.57451 0
M  V30 5796 C 547.844 0.899861 -2.12535 0
M  V30 5797 C 548.814 1.29749 -1.03703 0
M  V30 5798 O 549.999 1.38392 -1.31348 0
M  V30 5799 C 547.139 2.16328 -2.6888 0
M  V30 5800 C 546.252 1.81857 -3.91857 0
M  V30 5801 C 545.387 3.02786 -4.36457 0
M  V30 5802 C 544.426 2.64317 -5.5209 0
M  V30 5803 N 543.563 3.77994 -5.91663 0
M  V30 5804 H 548.403 0.423243 -2.94979 0
M  V30 5805 H 545.94 0.197268 -1.45771 0
M  V30 5806 H 547.898 2.90281 -2.99655 0
M  V30 5807 H 546.528 2.61536 -1.89206 0
M  V30 5808 H 545.58 0.979808 -3.67565 0
M  V30 5809 H 546.892 1.49553 -4.75852 0
M  V30 5810 H 546.046 3.85021 -4.68875 0
M  V30 5811 H 544.785 3.38281 -3.51308 0
M  V30 5812 H 543.79 1.80503 -5.19325 0
M  V30 5813 H 545.015 2.29995 -6.38967 0
M  V30 5814 H 542.961 4.13258 -5.09464 0
M  V30 5815 H 542.878 3.49447 -6.7039 0
M  V30 5816 H 544.146 4.60818 -6.28703 0
M  V30 5817 N 548.375 1.56261 0.205012 0
M  V30 5818 C 549.285 1.96944 1.27476 0
M  V30 5819 C 550.301 0.875636 1.50362 0
M  V30 5820 O 551.477 1.18058 1.6317 0
M  V30 5821 C 548.542 2.29219 2.60115 0
M  V30 5822 C 547.603 3.52255 2.45387 0
M  V30 5823 C 546.836 3.8298 3.71701 0
M  V30 5824 O 547.059 3.15138 4.75441 0
M  V30 5825 O 545.993 4.76435 3.67823 0
M  V30 5826 H 549.819 2.88144 0.959527 0
M  V30 5827 H 547.404 1.43686 0.409217 0
M  V30 5828 H 549.286 2.51098 3.3842 0
M  V30 5829 H 547.961 1.4119 2.91285 0
M  V30 5830 H 546.868 3.35635 1.65227 0
M  V30 5831 H 548.201 4.40719 2.19152 0
M  V30 5832 N 549.853 -0.472356 1.50355 0
M  V30 5833 C 550.783 -1.57859 1.72055 0
M  V30 5834 C 551.764 -1.60283 0.569505 0
M  V30 5835 O 552.949 -1.7657 0.808503 0
M  V30 5836 C 550.079 -2.96191 1.81351 0
M  V30 5837 C 549.033 -3.08633 2.96529 0
M  V30 5838 C 548.359 -4.486 2.90968 0
M  V30 5839 C 549.659 -2.85969 4.37057 0
M  V30 5840 H 551.353 -1.39953 2.64676 0
M  V30 5841 H 548.899 -0.671846 1.27367 0
M  V30 5842 H 550.852 -3.73507 1.95117 0
M  V30 5843 H 549.576 -3.15251 0.853502 0
M  V30 5844 H 548.235 -2.33749 2.82413 0
M  V30 5845 H 547.883 -4.64577 1.92815 0
M  V30 5846 H 547.583 -4.57861 3.68289 0
M  V30 5847 H 549.107 -5.27938 3.0678 0
M  V30 5848 H 550.521 -3.53036 4.51706 0
M  V30 5849 H 548.918 -3.06677 5.15819 0
M  V30 5850 H 549.988 -1.81838 4.49514 0
M  V30 5851 N 551.331 -1.39911 -0.725443 0
M  V30 5852 C 552.556 -1.41137 -1.5197 0
M  V30 5853 C 552.981 -0.010262 -1.88097 0
M  V30 5854 O 552.339 0.979184 -1.52583 0
M  V30 5855 C 552.387 -2.2994 -2.77777 0
M  V30 5856 O 551.491 -1.73586 -3.74088 0
M  V30 5857 H 550.832 -0.480219 -0.458569 0
M  V30 5858 H 553.362 -1.84023 -0.894249 0
M  V30 5859 H 553.372 -2.44785 -3.26411 0
M  V30 5860 H 552.047 -3.31759 -2.50816 0
M  V30 5861 H 550.624 -1.68035 -3.32894 0
M  V30 5862 N 552.809 0.956637 -1.25245 0
M  V30 5863 C 553.742 2.05232 -0.99775 0
M  V30 5864 C 554.72 1.62439 0.0723137 0
M  V30 5865 O 555.904 1.88381 -0.066926 0
M  V30 5866 C 553.031 3.34871 -0.507861 0
M  V30 5867 C 552.077 3.96625 -1.56815 0
M  V30 5868 S 552.91 4.32853 -3.15276 0
M  V30 5869 C 554.066 5.65613 -2.68017 0
M  V30 5870 H 554.299 2.26521 -1.9255 0
M  V30 5871 H 551.832 1.09601 -1.08752 0
M  V30 5872 H 553.79 4.09845 -0.231858 0
M  V30 5873 H 552.451 3.11551 0.399356 0
M  V30 5874 H 551.644 4.90087 -1.17604 0
M  V30 5875 H 551.246 3.28124 -1.79473 0
M  V30 5876 H 553.538 6.43635 -2.11518 0
M  V30 5877 H 554.481 6.09693 -3.60112 0
M  V30 5878 H 554.889 5.24751 -2.0808 0
M  V30 5879 N 554.287 1.06798 1.15896 0
M  V30 5880 C 555.533 0.788934 1.86825 0
M  V30 5881 C 555.866 -0.683084 1.8179 0
M  V30 5882 O 555.141 -1.50086 1.23711 0
M  V30 5883 C 555.424 1.29065 3.36176 0
M  V30 5884 C 555.277 2.8268 3.49874 0
M  V30 5885 C 556.596 0.902655 4.30744 0
M  V30 5886 H 553.715 0.288066 0.678371 0
M  V30 5887 H 556.357 1.32479 1.36195 0
M  V30 5888 H 554.507 0.834806 3.79425 0
M  V30 5889 H 556.179 3.36511 3.15528 0
M  V30 5890 H 554.422 3.21157 2.91617 0
M  V30 5891 H 555.093 3.12852 4.54783 0
M  V30 5892 H 557.569 1.29535 3.95424 0
M  V30 5893 H 556.445 1.28111 5.3374 0
M  V30 5894 H 556.706 -0.191951 4.41683 0
M  V30 5895 N 555.766 -1.3263 0.851289 0
M  V30 5896 C 556.713 -2.28952 0.291469 0
M  V30 5897 C 557.683 -1.54897 -0.599676 0
M  V30 5898 O 558.868 -1.83137 -0.535305 0
M  V30 5899 C 556.008 -3.41206 -0.516992 0
M  V30 5900 C 555.121 -4.30148 0.399566 0
M  V30 5901 C 554.256 -5.29527 -0.4212 0
M  V30 5902 C 553.295 -6.10112 0.492969 0
M  V30 5903 N 552.432 -7.01499 -0.290414 0
M  V30 5904 H 557.272 -2.76228 1.11813 0
M  V30 5905 H 554.809 -1.35907 0.562826 0
M  V30 5906 H 556.767 -4.05005 -1.00132 0
M  V30 5907 H 555.397 -2.9509 -1.30851 0
M  V30 5908 H 554.449 -3.66959 1.00227 0
M  V30 5909 H 555.761 -4.8649 1.1013 0
M  V30 5910 H 554.915 -5.98914 -0.968832 0
M  V30 5911 H 553.654 -4.73794 -1.15632 0
M  V30 5912 H 552.659 -5.39632 1.05251 0
M  V30 5913 H 553.884 -6.6793 1.22664 0
M  V30 5914 H 551.83 -6.48199 -1.00868 0
M  V30 5915 H 551.747 -7.55178 0.352354 0
M  V30 5916 H 553.015 -7.75176 -0.819882 0
M  V30 5917 N 557.244 -0.608902 -1.45362 0
M  V30 5918 C 558.493 -0.10218 -2.01441 0
M  V30 5919 C 558.806 1.27546 -1.48295 0
M  V30 5920 O 560.012 1.87498 -1.96359 0
M  V30 5921 C 558.468 -0.131985 -3.59658 0
M  V30 5922 C 558.076 -1.50956 -4.21801 0
M  V30 5923 C 559.82 0.319427 -4.23296 0
M  V30 5924 C 557.727 -1.49568 -5.72174 0
M  V30 5925 H 556.657 -0.0344314 -0.753213 0
M  V30 5926 H 559.308 -0.764426 -1.6682 0
M  V30 5927 H 557.69 0.596939 -3.91475 0
M  V30 5928 H 558.864 -2.26029 -4.01556 0
M  V30 5929 H 557.179 -1.90318 -3.70362 0
M  V30 5930 H 559.776 0.349013 -5.3356 0
M  V30 5931 H 560.119 1.34237 -3.94064 0
M  V30 5932 H 560.652 -0.356273 -3.96201 0
M  V30 5933 H 557.391 -2.49626 -6.06108 0
M  V30 5934 H 556.911 -0.787542 -5.94607 0
M  V30 5935 H 558.59 -1.21989 -6.35396 0
M  V30 5936 N 558.722 1.53707 -0.348139 0
M  V30 5937 C 560.133 1.86213 0.134797 0
M  V30 5938 C 560.484 1.26925 1.49614 0
M  V30 5939 O 559.609 0.584573 2.08355 0
M  V30 5940 C 560.204 3.37866 0.251371 0
M  V30 5941 C 558.763 3.70233 0.678543 0
M  V30 5942 C 557.91 2.76683 -0.184925 0
M  V30 5943 H 560.861 1.48204 -0.567571 0
M  V30 5944 H 560.882 3.64908 1.07806 0
M  V30 5945 H 560.394 3.80988 -0.739581 0
M  V30 5946 H 558.495 3.32659 1.67835 0
M  V30 5947 H 558.608 4.76836 0.465251 0
M  V30 5948 H 556.972 2.52374 0.343465 0
M  V30 5949 H 557.755 3.22635 -1.1731 0
M  V30 5950 N 560.2 0.0768682 1.57412 0
M  V30 5951 C 561.425 -0.603404 1.98428 0
M  V30 5952 C 561.85 -1.62047 0.955108 0
M  V30 5953 O 561.208 -1.81129 -0.0786778 0
M  V30 5954 C 561.256 -1.24396 3.38464 0
M  V30 5955 O 560.36 -2.35982 3.3821 0
M  V30 5956 H 559.701 -0.154741 0.645718 0
M  V30 5957 H 562.231 0.152885 2.04028 0
M  V30 5958 H 562.241 -1.5896 3.7576 0
M  V30 5959 H 560.916 -0.498735 4.12899 0
M  V30 5960 H 559.493 -2.03173 3.1269 0
M  V30 5961 N 561.678 -1.56367 -0.196722 0
M  V30 5962 C 562.625 -1.94417 -1.24382 0
M  V30 5963 C 563.595 -0.804543 -1.45315 0
M  V30 5964 O 564.78 -1.06256 -1.58475 0
M  V30 5965 C 561.92 -2.28757 -2.58388 0
M  V30 5966 C 561.033 -3.55775 -2.45047 0
M  V30 5967 C 560.168 -3.79445 -3.71746 0
M  V30 5968 C 559.207 -4.99894 -3.53231 0
M  V30 5969 N 558.344 -5.19826 -4.71938 0
M  V30 5970 H 563.184 -2.83691 -0.912338 0
M  V30 5971 H 560.721 -1.40392 -0.439135 0
M  V30 5972 H 562.679 -2.46682 -3.36457 0
M  V30 5973 H 561.309 -1.42625 -2.89582 0
M  V30 5974 H 560.361 -3.45905 -1.58284 0
M  V30 5975 H 561.673 -4.44 -2.27299 0
M  V30 5976 H 560.827 -3.97601 -4.58256 0
M  V30 5977 H 559.566 -2.89546 -3.92446 0
M  V30 5978 H 558.571 -4.81662 -2.65107 0
M  V30 5979 H 559.796 -5.913 -3.33978 0
M  V30 5980 H 557.742 -4.32875 -4.92905 0
M  V30 5981 H 557.659 -6.02228 -4.57009 0
M  V30 5982 H 558.927 -5.42439 -5.59803 0
M  V30 5983 N 563.156 0.464375 -1.50603 0
M  V30 5984 C 564.384 1.23907 -1.65695 0
M  V30 5985 C 564.799 1.85658 -0.343027 0
M  V30 5986 O 564.156 1.69529 0.675739 0
M  V30 5987 C 564.207 2.3429 -2.75301 0
M  V30 5988 O 563.928 1.7507 -4.01599 0
M  V30 5989 C 565.429 3.25051 -3.01424 0
M  V30 5990 H 562.649 0.374485 -0.556778 0
M  V30 5991 H 565.193 0.55353 -1.96866 0
M  V30 5992 H 563.348 2.98607 -2.46804 0
M  V30 5993 H 563.762 2.47812 -4.62266 0
M  V30 5994 H 565.236 3.98699 -3.81763 0
M  V30 5995 H 565.713 3.84227 -2.12758 0
M  V30 5996 H 566.319 2.66463 -3.31477 0
M  V30 5997 N 564.634 1.40294 0.718013 0
M  V30 5998 C 565.859 1.41941 1.5122 0
M  V30 5999 C 566.284 0.0202371 1.88089 0
M  V30 6000 O 565.642 -0.971078 1.53101 0
M  V30 6001 C 565.69 2.3141 2.76554 0
M  V30 6002 O 564.794 1.75567 3.73162 0
M  V30 6003 H 564.135 0.482644 0.456016 0
M  V30 6004 H 566.665 1.84494 0.884478 0
M  V30 6005 H 566.675 2.46513 3.25108 0
M  V30 6006 H 565.35 3.33085 2.49053 0
M  V30 6007 H 563.927 1.69798 3.31999 0
M  V30 6008 N 566.112 -0.949982 1.2575 0
M  V30 6009 C 567.075 -2.02894 1.06615 0
M  V30 6010 C 568.075 -1.60791 0.0173905 0
M  V30 6011 O 569.265 -1.72249 0.260003 0
M  V30 6012 C 566.397 -3.35219 0.619751 0
M  V30 6013 H 567.59 -2.21302 2.02399 0
M  V30 6014 H 565.143 -1.12772 1.08223 0
M  V30 6015 H 565.878 -3.22508 -0.340486 0
M  V30 6016 H 565.663 -3.67129 1.37692 0
M  V30 6017 H 567.153 -4.14505 0.507443 0
M  V30 6018 N 567.59 -1.07411 -1.15328 0
M  V30 6019 C 568.537 -0.694995 -2.20087 0
M  V30 6020 C 569.507 0.313904 -1.63107 0
M  V30 6021 O 570.692 0.200216 -1.89747 0
M  V30 6022 C 567.832 -0.0996218 -3.44956 0
M  V30 6023 C 566.945 -1.16007 -4.16133 0
M  V30 6024 C 566.08 -0.529636 -5.28553 0
M  V30 6025 C 565.119 -1.57283 -5.91548 0
M  V30 6026 N 564.256 -0.964932 -6.95438 0
M  V30 6027 H 569.096 -1.5927 -2.51867 0
M  V30 6028 H 566.633 -0.796115 -1.23695 0
M  V30 6029 H 568.591 0.263197 -4.16369 0
M  V30 6030 H 567.221 0.761435 -3.13691 0
M  V30 6031 H 566.273 -1.64045 -3.4321 0
M  V30 6032 H 567.585 -1.95101 -4.59061 0
M  V30 6033 H 566.739 -0.114487 -6.06592 0
M  V30 6034 H 565.478 0.29307 -4.86819 0
M  V30 6035 H 564.483 -1.99775 -5.12221 0
M  V30 6036 H 565.708 -2.39783 -6.35359 0
M  V30 6037 H 563.654 -0.16314 -6.55797 0
M  V30 6038 H 563.571 -1.69311 -7.36797 0
M  V30 6039 H 564.839 -0.575305 -7.77374 0
M  V30 6040 N 569.068 1.32177 -0.85831 0
M  V30 6041 C 570.298 2.01021 -0.476889 0
M  V30 6042 C 570.706 1.64653 0.931995 0
M  V30 6043 O 570.049 0.865713 1.62022 0
M  V30 6044 C 570.111 3.55413 -0.540528 0
M  V30 6045 C 569.775 4.1522 -1.90895 0
M  V30 6046 C 570.772 4.3318 -2.87491 0
M  V30 6047 C 568.457 4.51212 -2.20709 0
M  V30 6048 C 570.451 4.86306 -4.1205 0
M  V30 6049 C 568.138 5.04042 -3.45521 0
M  V30 6050 C 569.136 5.21538 -4.41007 0
M  V30 6051 O 568.824 5.73238 -5.63608 0
M  V30 6052 H 568.556 0.650059 -0.18547 0
M  V30 6053 H 571.11 1.69648 -1.15796 0
M  V30 6054 H 569.34 3.86196 0.19741 0
M  V30 6055 H 571.029 4.05526 -0.174191 0
M  V30 6056 H 571.795 4.05704 -2.65762 0
M  V30 6057 H 567.674 4.36878 -1.4717 0
M  V30 6058 H 571.218 4.99877 -4.86589 0
M  V30 6059 H 567.115 5.30952 -3.67098 0
M  V30 6060 H 567.883 5.91625 -5.65617 0
M  V30 6061 N 570.547 0.616602 1.45037 0
M  V30 6062 C 571.477 -0.0840787 2.33349 0
M  V30 6063 C 572.458 -0.849641 1.4736 0
M  V30 6064 O 573.643 -0.818407 1.76113 0
M  V30 6065 C 570.773 -1.07604 3.3021 0
M  V30 6066 C 569.727 -0.423096 4.25904 0
M  V30 6067 C 569.053 -1.52394 5.12523 0
M  V30 6068 C 570.353 0.661457 5.18095 0
M  V30 6069 H 572.047 0.653333 2.92185 0
M  V30 6070 H 569.593 0.315634 1.40498 0
M  V30 6071 H 571.546 -1.57485 3.90866 0
M  V30 6072 H 570.27 -1.84416 2.69552 0
M  V30 6073 H 568.929 0.05493 3.66559 0
M  V30 6074 H 568.577 -2.28257 4.48227 0
M  V30 6075 H 568.277 -1.09251 5.77354 0
M  V30 6076 H 569.801 -2.02485 5.76049 0
M  V30 6077 H 571.215 0.246353 5.7277 0
M  V30 6078 H 569.612 1.01517 5.91451 0
M  V30 6079 H 570.682 1.53446 4.59981 0
M  V30 6080 N 572.025 -1.5352 0.356285 0
M  V30 6081 C 572.935 -2.29151 -0.502712 0
M  V30 6082 C 573.951 -1.34753 -1.1008 0
M  V30 6083 O 575.127 -1.67803 -1.11374 0
M  V30 6084 C 572.192 -3.05911 -1.63154 0
M  V30 6085 C 571.253 -4.15958 -1.06194 0
M  V30 6086 C 570.486 -4.8905 -2.13696 0
M  V30 6087 O 570.709 -4.61919 -3.34645 0
M  V30 6088 O 569.643 -5.75202 -1.77275 0
M  V30 6089 H 573.469 -3.03492 0.112466 0
M  V30 6090 H 571.054 -1.4891 0.120942 0
M  V30 6091 H 572.936 -3.53874 -2.28804 0
M  V30 6092 H 571.611 -2.34415 -2.23229 0
M  V30 6093 H 570.518 -3.7227 -0.369603 0
M  V30 6094 H 571.851 -4.89593 -0.505872 0
M  V30 6095 N 573.503 -0.0852151 -1.57369 0
M  V30 6096 C 574.45 0.877268 -2.13478 0
M  V30 6097 C 575.42 1.28642 -1.05073 0
M  V30 6098 O 576.605 1.36992 -1.32808 0
M  V30 6099 C 573.745 2.13464 -2.71159 0
M  V30 6100 C 572.858 1.77691 -3.93764 0
M  V30 6101 C 571.993 2.98139 -4.39643 0
M  V30 6102 C 571.032 2.58447 -5.54862 0
M  V30 6103 N 570.169 3.71698 -5.95639 0
M  V30 6104 H 575.009 0.391933 -2.95411 0
M  V30 6105 H 572.546 0.181796 -1.45972 0
M  V30 6106 H 574.504 2.87086 -3.02717 0
M  V30 6107 H 573.134 2.59514 -1.91969 0
M  V30 6108 H 572.186 0.940768 -3.68583 0
M  V30 6109 H 573.498 1.44497 -4.77412 0
M  V30 6110 H 572.652 3.80026 -4.72933 0
M  V30 6111 H 571.391 3.34536 -3.54876 0
M  V30 6112 H 570.396 1.74984 -5.21211 0
M  V30 6113 H 571.621 2.23205 -6.41371 0
M  V30 6114 H 569.567 4.07831 -5.13819 0
M  V30 6115 H 569.484 3.42317 -6.74059 0
M  V30 6116 H 570.752 4.54123 -6.33555 0
M  V30 6117 N 574.981 1.5647 0.188427 0
M  V30 6118 C 575.928 1.95073 1.23349 0
M  V30 6119 C 576.898 0.812238 1.44886 0
M  V30 6120 O 578.083 1.07095 1.57909 0
M  V30 6121 C 575.223 2.30124 2.57171 0
M  V30 6122 C 574.336 3.57069 2.43157 0
M  V30 6123 C 573.471 3.81411 3.69729 0
M  V30 6124 C 572.51 5.0176 3.50575 0
M  V30 6125 N 571.647 5.22321 4.69175 0
M  V30 6126 H 576.487 2.84171 0.89728 0
M  V30 6127 H 574.024 1.40623 0.431683 0
M  V30 6128 H 575.982 2.48463 3.35145 0
M  V30 6129 H 574.612 1.44159 2.88822 0
M  V30 6130 H 573.664 3.4674 1.56447 0
M  V30 6131 H 574.976 4.452 2.24942 0
M  V30 6132 H 574.13 4.00026 4.56141 0
M  V30 6133 H 572.869 2.91624 3.90905 0
M  V30 6134 H 571.874 4.83061 2.62549 0
M  V30 6135 H 573.099 5.93063 3.30837 0
M  V30 6136 H 571.045 4.35483 4.90602 0
M  V30 6137 H 570.962 6.04643 4.53809 0
M  V30 6138 H 572.23 5.45401 5.56919 0
M  V30 6139 N 576.459 -0.456382 1.50847 0
M  V30 6140 C 577.706 -1.20736 1.62571 0
M  V30 6141 C 578.034 -1.9163 0.332904 0
M  V30 6142 O 577.289 -1.8343 -0.682058 0
M  V30 6143 C 577.588 -2.26336 2.76599 0
M  V30 6144 C 577.254 -1.7259 4.16562 0
M  V30 6145 C 575.916 -1.57654 4.54641 0
M  V30 6146 C 578.268 -1.32877 5.03977 0
M  V30 6147 C 575.596 -1.0145 5.77862 0
M  V30 6148 C 577.948 -0.7811 6.27759 0
M  V30 6149 C 576.612 -0.618488 6.64628 0
M  V30 6150 H 575.882 -0.441803 0.594888 0
M  V30 6151 H 578.529 -0.501169 1.84826 0
M  V30 6152 H 576.834 -3.0292 2.48489 0
M  V30 6153 H 578.531 -2.84227 2.82871 0
M  V30 6154 H 575.121 -1.85187 3.86528 0
M  V30 6155 H 579.305 -1.43245 4.75179 0
M  V30 6156 H 574.561 -0.876109 6.0509 0
M  V30 6157 H 578.735 -0.464783 6.94847 0
M  V30 6158 H 576.362 -0.180838 7.59985 0
M  V30 6159 N 577.937 -1.40673 -0.710563 0
M  V30 6160 C 578.885 -1.41517 -1.84596 0
M  V30 6161 C 579.879 -0.295043 -1.66811 0
M  V30 6162 O 581.085 -0.466331 -1.73854 0
M  V30 6163 H 577.46 -0.442467 -0.608052 0
M  V30 6164 H 579.431 -2.37238 -1.80999 0
M  V30 6165 C 578.18 -1.29957 -3.225 0
M  V30 6166 H 577.503 -2.15429 -3.36794 0
M  V30 6167 H 578.943 -1.34608 -4.02066 0
M  V30 6168 C 577.402 -0.0103164 -3.36898 0
M  V30 6169 O 577.932 0.950707 -3.90288 0
M  V30 6170 N 576.138 0.0608409 -2.90536 0
M  V30 6171 H 575.685 -0.721943 -2.47277 0
M  V30 6172 H 575.643 0.92292 -3.00549 0
M  V30 6173 N 579.415 0.9433 -1.26252 0
M  V30 6174 C 580.362 2.0417 -1.07625 0
M  V30 6175 C 581.332 1.6609 0.0180738 0
M  V30 6176 O 582.517 1.90276 -0.141289 0
M  V30 6177 C 579.657 3.37653 -0.713043 0
M  V30 6178 C 578.77 3.88783 -1.8834 0
M  V30 6179 C 577.905 5.10642 -1.4635 0
M  V30 6180 C 576.944 5.54028 -2.60229 0
M  V30 6181 N 576.081 6.67092 -2.18936 0
M  V30 6182 H 580.921 2.19436 -2.01623 0
M  V30 6183 H 578.458 1.07519 -1.00389 0
M  V30 6184 H 580.416 4.14391 -0.483358 0
M  V30 6185 H 579.046 3.22241 0.18996 0
M  V30 6186 H 578.098 3.08464 -2.22608 0
M  V30 6187 H 579.41 4.16922 -2.73821 0
M  V30 6188 H 578.564 5.94832 -1.19414 0
M  V30 6189 H 577.303 4.84244 -0.579568 0
M  V30 6190 H 576.308 4.68396 -2.87898 0
M  V30 6191 H 577.533 5.82429 -3.49219 0
M  V30 6192 H 575.479 6.42381 -1.32974 0
M  V30 6193 H 575.396 6.94806 -2.97961 0
M  V30 6194 H 576.664 7.54662 -1.95206 0
M  V30 6195 N 580.893 1.08022 1.14757 0
M  V30 6196 C 582.118 0.82895 1.90114 0
M  V30 6197 C 582.543 -0.612772 1.77839 0
M  V30 6198 O 581.901 -1.42895 1.11583 0
M  V30 6199 C 581.949 1.25062 3.38219 0
M  V30 6200 O 581.053 0.400119 4.10454 0
M  V30 6201 H 580.394 0.301412 0.591648 0
M  V30 6202 H 582.924 1.44062 1.45284 0
M  V30 6203 H 582.934 1.22977 3.89025 0
M  V30 6204 H 581.609 2.30067 3.46471 0
M  V30 6205 H 580.186 0.484052 3.69745 0
M  V30 6206 N 582.371 -1.3172 0.865308 0
M  V30 6207 C 583.281 -2.32394 0.320935 0
M  V30 6208 C 584.297 -1.64511 -0.566746 0
M  V30 6209 O 585.473 -1.95969 -0.464575 0
M  V30 6210 C 582.538 -3.43462 -0.472701 0
M  V30 6211 C 581.599 -4.27015 0.442385 0
M  V30 6212 C 580.832 -5.32779 -0.313469 0
M  V30 6213 O 581.055 -5.49158 -1.54214 0
M  V30 6214 O 579.989 -6.01015 0.326257 0
M  V30 6215 H 583.815 -2.80868 1.15528 0
M  V30 6216 H 581.4 -1.35535 0.628545 0
M  V30 6217 H 583.282 -4.11172 -0.922781 0
M  V30 6218 H 581.957 -2.97159 -1.28367 0
M  V30 6219 H 580.864 -3.62075 0.940866 0
M  V30 6220 H 582.197 -4.76871 1.21882 0
M  V30 6221 N 583.85 -0.624285 -1.44708 0
M  V30 6222 C 584.797 0.0847135 -2.30644 0
M  V30 6223 C 585.767 0.843575 -1.43084 0
M  V30 6224 O 586.952 0.825982 -1.71995 0
M  V30 6225 C 584.091 1.06495 -3.28257 0
M  V30 6226 C 583.205 0.305224 -4.3092 0
M  V30 6227 C 582.34 1.27667 -5.1563 0
M  V30 6228 C 581.379 0.505706 -6.10007 0
M  V30 6229 N 580.516 1.42727 -6.8744 0
M  V30 6230 H 585.356 -0.654068 -2.90733 0
M  V30 6231 H 582.893 -0.334334 -1.4325 0
M  V30 6232 H 584.851 1.64658 -3.83332 0
M  V30 6233 H 583.481 1.77094 -2.69884 0
M  V30 6234 H 582.533 -0.392207 -3.78373 0
M  V30 6235 H 583.845 -0.295553 -4.97924 0
M  V30 6236 H 582.999 1.92984 -5.75189 0
M  V30 6237 H 581.738 1.91137 -4.48685 0
M  V30 6238 H 580.743 -0.160999 -5.49564 0
M  V30 6239 H 581.968 -0.124183 -6.78986 0
M  V30 6240 H 579.913 2.04931 -6.23169 0
M  V30 6241 H 579.831 0.880345 -7.50857 0
M  V30 6242 H 581.099 2.0695 -7.51526 0
M  V30 6243 N 585.328 1.53329 -0.364422 0
M  V30 6244 C 586.558 2.05359 0.226096 0
M  V30 6245 C 586.966 1.23777 1.43094 0
M  V30 6246 O 586.309 0.271139 1.81688 0
M  V30 6247 C 586.371 3.52918 0.684794 0
M  V30 6248 C 586.035 4.55218 -0.403206 0
M  V30 6249 C 587.032 5.04583 -1.2527 0
M  V30 6250 C 584.717 4.99134 -0.563117 0
M  V30 6251 C 586.711 5.96463 -2.24745 0
M  V30 6252 C 584.398 5.9082 -1.56124 0
M  V30 6253 C 585.396 6.39375 -2.40184 0
M  V30 6254 O 585.084 7.29255 -3.38293 0
M  V30 6255 H 584.816 0.674588 0.0436772 0
M  V30 6256 H 587.37 1.98688 -0.520782 0
M  V30 6257 H 585.6 3.57122 1.48326 0
M  V30 6258 H 587.289 3.87812 1.19818 0
M  V30 6259 H 588.055 4.71403 -1.14034 0
M  V30 6260 H 583.934 4.60928 0.0813909 0
M  V30 6261 H 587.478 6.34285 -2.90393 0
M  V30 6262 H 583.375 6.23414 -1.67407 0
M  V30 6263 H 584.143 7.47249 -3.34009 0
M  V30 6264 N 586.806 0.0935595 1.57322 0
M  V30 6265 C 588.055 -0.570191 1.93473 0
M  V30 6266 C 588.368 -1.69434 0.977318 0
M  V30 6267 O 589.574 -2.41914 1.23248 0
M  V30 6268 C 588.03 -1.06564 3.43762 0
M  V30 6269 C 587.638 0.0286723 4.47991 0
M  V30 6270 C 589.382 -1.70221 3.88877 0
M  V30 6271 C 587.289 -0.482046 5.89432 0
M  V30 6272 H 586.219 -0.216764 0.72217 0
M  V30 6273 H 588.87 0.169313 1.82717 0
M  V30 6274 H 587.252 -1.85878 3.49664 0
M  V30 6275 H 588.426 0.804106 4.5373 0
M  V30 6276 H 586.741 0.570336 4.12476 0
M  V30 6277 H 589.338 -2.09502 4.91948 0
M  V30 6278 H 589.681 -2.57078 3.27439 0
M  V30 6279 H 590.214 -0.974919 3.85668 0
M  V30 6280 H 586.953 0.349871 6.54566 0
M  V30 6281 H 586.473 -1.22452 5.87167 0
M  V30 6282 H 588.152 -0.951508 6.39965 0
M  V30 6283 N 588.284 -1.56567 -0.180126 0
M  V30 6284 C 589.509 -1.85975 -0.918041 0
M  V30 6285 C 589.934 -0.678888 -1.75422 0
M  V30 6286 O 589.292 0.372168 -1.77439 0
M  V30 6287 C 589.34 -3.13731 -1.77779 0
M  V30 6288 O 588.444 -2.95335 -2.87838 0
M  V30 6289 H 587.785 -0.61196 -0.257683 0
M  V30 6290 H 590.315 -2.03798 -0.180923 0
M  V30 6291 H 590.325 -3.4491 -2.17948 0
M  V30 6292 H 589 -3.99293 -1.16352 0
M  V30 6293 H 587.577 -2.7549 -2.51316 0
M  V30 6294 N 589.762 0.448376 -1.51087 0
M  V30 6295 C 590.672 1.56882 -1.74428 0
M  V30 6296 C 591.688 1.62268 -0.62809 0
M  V30 6297 O 592.864 1.79716 -0.909075 0
M  V30 6298 C 589.929 2.92947 -1.85426 0
M  V30 6299 C 588.99 2.97766 -3.09247 0
M  V30 6300 C 588.223 4.27341 -3.19711 0
M  V30 6301 O 588.446 5.19112 -2.36387 0
M  V30 6302 O 587.38 4.38219 -4.12611 0
M  V30 6303 H 591.206 1.40104 -2.69452 0
M  V30 6304 H 588.791 0.630247 -1.35456 0
M  V30 6305 H 590.673 3.73719 -1.94709 0
M  V30 6306 H 589.348 3.09876 -0.935887 0
M  V30 6307 H 588.255 2.15989 -3.0545 0
M  V30 6308 H 589.588 2.8578 -4.00738 0
M  V30 6309 N 591.24 1.41047 0.703093 0
M  V30 6310 C 592.188 1.42494 1.83843 0
M  V30 6311 C 593.182 0.303885 1.66652 0
M  V30 6312 O 594.388 0.475544 1.73605 0
M  V30 6313 H 590.763 0.445685 0.605697 0
M  V30 6314 H 592.734 2.38194 1.79739 0
M  V30 6315 C 591.483 1.31666 3.21807 0
M  V30 6316 H 590.806 2.17212 3.35647 0
M  V30 6317 H 592.246 1.36738 4.01346 0
M  V30 6318 C 590.705 0.0281828 3.36888 0
M  V30 6319 O 591.235 -0.929995 3.90786 0
M  V30 6320 N 589.441 -0.0454322 2.90564 0
M  V30 6321 H 588.988 0.735046 2.4689 0
M  V30 6322 H 588.946 -0.906968 3.01034 0
M  V30 6323 N 592.718 -0.936591 1.26751 0
M  V30 6324 C 593.967 -1.67778 1.11953 0
M  V30 6325 C 594.28 -1.92694 -0.33589 0
M  V30 6326 O 595.486 -2.64682 -0.604618 0
M  V30 6327 C 593.942 -3.02138 1.95551 0
M  V30 6328 C 593.55 -2.84953 3.45696 0
M  V30 6329 C 595.294 -3.79917 1.89377 0
M  V30 6330 C 593.201 -4.14814 4.21525 0
M  V30 6331 H 592.131 -0.629275 0.415366 0
M  V30 6332 H 594.782 -1.04122 1.51099 0
M  V30 6333 H 593.164 -3.668 1.49243 0
M  V30 6334 H 594.338 -2.29112 3.99805 0
M  V30 6335 H 592.653 -2.20612 3.53156 0
M  V30 6336 H 595.25 -4.76134 2.43312 0
M  V30 6337 H 595.593 -4.07204 0.865464 0
M  V30 6338 H 596.126 -3.22037 2.33532 0
M  V30 6339 H 592.865 -3.92709 5.24843 0
M  V30 6340 H 592.385 -4.70352 3.72195 0
M  V30 6341 H 594.064 -4.83239 4.3022 0
M  V30 6342 N 594.196 -1.08629 -1.14182 0
M  V30 6343 C 595.126 -0.740003 -2.21464 0
M  V30 6344 C 596.107 0.278591 -1.67803 0
M  V30 6345 O 597.292 0.148461 -1.93632 0
M  V30 6346 C 594.422 -0.150952 -3.46972 0
M  V30 6347 C 593.376 -1.09815 -4.13672 0
M  V30 6348 C 592.702 -0.3712 -5.3341 0
M  V30 6349 C 594.002 -2.43722 -4.61949 0
M  V30 6350 H 595.696 -1.63697 -2.50686 0
M  V30 6351 H 593.242 -0.788526 -1.20492 0
M  V30 6352 H 595.195 0.103325 -4.21273 0
M  V30 6353 H 593.919 0.781164 -3.1712 0
M  V30 6354 H 592.578 -1.33756 -3.41328 0
M  V30 6355 H 592.226 0.564792 -4.99819 0
M  V30 6356 H 591.926 -1.00267 -5.78982 0
M  V30 6357 H 593.45 -0.12503 -6.10472 0
M  V30 6358 H 594.864 -2.24034 -5.27714 0
M  V30 6359 H 593.261 -3.02582 -5.18232 0
M  V30 6360 H 594.331 -3.05082 -3.76899 0
M  V30 6361 N 595.674 1.31259 -0.872281 0
M  V30 6362 C 596.92 1.96913 -0.485083 0
M  V30 6363 C 597.253 1.68774 0.960667 0
M  V30 6364 O 596.528 0.985495 1.67685 0
M  V30 6365 C 596.811 3.52299 -0.745502 0
M  V30 6366 C 596.664 3.90002 -2.24095 0
M  V30 6367 C 597.983 4.39582 -0.213516 0
M  V30 6368 H 595.102 0.715252 -0.177716 0
M  V30 6369 H 597.744 1.55347 -1.09395 0
M  V30 6370 H 595.894 3.87835 -0.227276 0
M  V30 6371 H 597.566 3.64555 -2.82661 0
M  V30 6372 H 595.809 3.38526 -2.71261 0
M  V30 6373 H 596.48 4.98352 -2.37381 0
M  V30 6374 H 598.956 4.10882 -0.656902 0
M  V30 6375 H 597.832 5.47251 -0.42516 0
M  V30 6376 H 598.093 4.33158 0.884666 0
M  V30 6377 N 597.152 0.631951 1.44375 0
M  V30 6378 C 598.082 -0.0593243 2.33425 0
M  V30 6379 C 599.063 -0.833964 1.48253 0
M  V30 6380 O 600.248 -0.799682 1.76971 0
M  V30 6381 C 597.378 -1.04096 3.31333 0
M  V30 6382 C 596.332 -0.377899 4.26328 0
M  V30 6383 C 595.658 -1.4695 5.14111 0
M  V30 6384 C 596.958 0.716371 5.17364 0
M  V30 6385 H 598.652 0.684287 2.91475 0
M  V30 6386 H 596.198 0.330518 1.40156 0
M  V30 6387 H 598.151 -1.53331 3.92514 0
M  V30 6388 H 596.875 -1.81547 2.71493 0
M  V30 6389 H 595.534 0.0938054 3.6648 0
M  V30 6390 H 595.182 -2.2349 4.50623 0
M  V30 6391 H 594.882 -1.03121 5.78481 0
M  V30 6392 H 596.406 -1.96363 5.78164 0
M  V30 6393 H 597.82 0.307089 5.72477 0
M  V30 6394 H 596.217 1.07784 5.90341 0
M  V30 6395 H 597.287 1.58316 4.58327 0
M  V30 6396 N 598.631 -1.53133 0.372548 0
M  V30 6397 C 599.908 -1.93704 -0.271693 0
M  V30 6398 C 600.288 -1.30667 -1.65799 0
M  V30 6399 O 599.636 -0.46838 -2.23648 0
M  V30 6400 C 599.846 -3.47576 -0.314903 0
M  V30 6401 C 601.194 -4.20998 -0.551912 0
M  V30 6402 O 602.218 -3.53994 -0.39582 0
M  V30 6403 O 601.077 -5.39748 -0.85639 0
M  V30 6404 H 598.171 -0.810457 -0.164586 0
M  V30 6405 H 600.717 -1.6427 0.425838 0
M  V30 6406 H 599.489 -3.85749 0.656792 0
M  V30 6407 H 599.112 -3.83264 -1.05804 0
M  V30 6408 N 600.109 -0.101901 -1.5727 0
M  V30 6409 C 601.358 0.559922 -1.93772 0
M  V30 6410 C 601.671 1.68913 -0.98629 0
M  V30 6411 O 602.877 2.41256 -1.24529 0
M  V30 6412 C 601.333 1.04739 -3.44322 0
M  V30 6413 C 600.941 -0.05243 -4.47969 0
M  V30 6414 C 602.685 1.68157 -3.89774 0
M  V30 6415 C 600.592 0.450781 -5.8968 0
M  V30 6416 H 599.522 0.212931 -0.723309 0
M  V30 6417 H 602.173 -0.179001 -1.82625 0
M  V30 6418 H 600.555 1.84021 -3.50645 0
M  V30 6419 H 601.729 -0.828157 -4.53297 0
M  V30 6420 H 600.044 -0.592202 -4.12167 0
M  V30 6421 H 602.641 2.0689 -4.93052 0
M  V30 6422 H 602.984 2.55338 -3.28798 0
M  V30 6423 H 603.517 0.954453 -3.8618 0
M  V30 6424 H 600.256 -0.38458 -6.54371 0
M  V30 6425 H 599.776 1.19336 -5.87809 0
M  V30 6426 H 601.455 0.917555 -6.40461 0
M  V30 6427 N 601.587 1.56661 0.17182 0
M  V30 6428 C 602.834 1.81965 0.888529 0
M  V30 6429 C 603.162 0.6789 1.82267 0
M  V30 6430 O 602.417 -0.333875 1.92831 0
M  V30 6431 C 602.716 3.13435 1.71736 0
M  V30 6432 C 602.382 4.41159 0.932184 0
M  V30 6433 C 601.044 4.75851 0.715481 0
M  V30 6434 C 603.396 5.19803 0.381387 0
M  V30 6435 C 600.724 5.86666 -0.063126 0
M  V30 6436 C 603.076 6.31433 -0.384129 0
M  V30 6437 C 601.74 6.64692 -0.611637 0
M  V30 6438 H 601.01 0.665859 0.325136 0
M  V30 6439 H 603.657 1.90884 0.153495 0
M  V30 6440 H 601.962 2.99857 2.52177 0
M  V30 6441 H 603.659 3.30224 2.27493 0
M  V30 6442 H 600.249 4.13947 1.11112 0
M  V30 6443 H 604.433 4.93396 0.536148 0
M  V30 6444 H 599.689 6.10892 -0.249136 0
M  V30 6445 H 603.863 6.91577 -0.818185 0
M  V30 6446 H 601.49 7.50398 -1.21684 0
M  V30 6447 N 603.065 -0.440357 1.51323 0
M  V30 6448 C 604.312 -1.19004 1.63842 0
M  V30 6449 C 604.64 -1.91266 0.35321 0
M  V30 6450 O 603.895 -1.84143 -0.662565 0
M  V30 6451 C 604.194 -2.2339 2.78984 0
M  V30 6452 C 603.86 -1.68162 4.18369 0
M  V30 6453 C 602.522 -1.52823 4.56288 0
M  V30 6454 C 604.874 -1.27524 5.05358 0
M  V30 6455 C 602.202 -0.953157 5.78906 0
M  V30 6456 C 604.554 -0.714474 6.28552 0
M  V30 6457 C 603.218 -0.547961 6.65247 0
M  V30 6458 H 602.488 -0.435468 0.59954 0
M  V30 6459 H 605.135 -0.481538 1.85347 0
M  V30 6460 H 603.44 -3.00267 2.51688 0
M  V30 6461 H 605.137 -2.81211 2.85869 0
M  V30 6462 H 601.727 -1.81077 3.8847 0
M  V30 6463 H 605.911 -1.38197 4.76671 0
M  V30 6464 H 601.167 -0.811882 6.05986 0
M  V30 6465 H 605.341 -0.391059 6.95301 0
M  V30 6466 H 602.968 -0.100222 7.60134 0
M  V30 6467 N 604.543 -1.41418 -0.695603 0
M  V30 6468 C 605.453 -1.45622 -1.83933 0
M  V30 6469 C 606.469 -0.346825 -1.70508 0
M  V30 6470 O 607.645 -0.59454 -1.92424 0
M  V30 6471 C 604.71 -1.33627 -3.19914 0
M  V30 6472 C 603.771 -2.54882 -3.45447 0
M  V30 6473 C 603.004 -2.43449 -4.7494 0
M  V30 6474 O 603.227 -1.45905 -5.51424 0
M  V30 6475 O 602.161 -3.33206 -5.01256 0
M  V30 6476 H 605.987 -2.42114 -1.83342 0
M  V30 6477 H 603.572 -1.22956 -0.848658 0
M  V30 6478 H 605.454 -1.29221 -4.01098 0
M  V30 6479 H 604.129 -0.402508 -3.21188 0
M  V30 6480 H 603.036 -2.64865 -2.64192 0
M  V30 6481 H 604.369 -3.47087 -3.48987 0
M  V30 6482 N 606.021 0.929856 -1.27246 0
M  V30 6483 C 606.984 2.01172 -1.09829 0
M  V30 6484 C 607.984 1.60743 -0.0429687 0
M  V30 6485 O 609.174 1.71813 -0.287373 0
M  V30 6486 C 606.306 3.34191 -0.673003 0
M  V30 6487 H 607.499 2.18054 -2.05895 0
M  V30 6488 H 605.052 1.11036 -1.10003 0
M  V30 6489 H 605.787 3.23009 0.289134 0
M  V30 6490 H 605.572 3.64892 -1.43515 0
M  V30 6491 H 607.062 4.13646 -0.573323 0
M  V30 6492 N 607.499 1.09233 1.13605 0
M  V30 6493 C 608.429 0.751738 2.21068 0
M  V30 6494 C 609.41 -0.269688 1.67948 0
M  V30 6495 O 610.595 -0.13819 1.93708 0
M  V30 6496 C 607.725 0.16935 3.46887 0
M  V30 6497 C 606.679 1.12007 4.13084 0
M  V30 6498 C 606.005 0.399483 5.33206 0
M  V30 6499 C 607.305 2.46168 4.6065 0
M  V30 6500 H 608.999 1.65024 2.49815 0
M  V30 6501 H 606.545 0.794905 1.20072 0
M  V30 6502 H 608.498 -0.0809824 4.21322 0
M  V30 6503 H 607.222 -0.764335 3.1753 0
M  V30 6504 H 605.881 1.35564 3.40614 0
M  V30 6505 H 605.529 -0.538277 5.00112 0
M  V30 6506 H 605.229 1.03337 5.78442 0
M  V30 6507 H 606.753 0.157403 6.10397 0
M  V30 6508 H 608.167 2.26829 5.26518 0
M  V30 6509 H 606.564 3.05326 5.1662 0
M  V30 6510 H 607.634 3.07076 3.75276 0
M  V30 6511 N 608.977 -1.30795 0.87923 0
M  V30 6512 C 609.925 -2.30231 0.331112 0
M  V30 6513 C 610.919 -1.59918 -0.558794 0
M  V30 6514 O 612.125 -1.74441 -0.443866 0
M  V30 6515 H 608.5 -0.746785 0.088409 0
M  V30 6516 H 610.471 -2.73925 1.18353 0
M  V30 6517 C 609.22 -3.44848 -0.444401 0
M  V30 6518 H 608.543 -3.99131 0.231106 0
M  V30 6519 H 609.983 -4.16516 -0.793109 0
M  V30 6520 C 608.442 -2.94329 -1.63926 0
M  V30 6521 O 608.972 -2.93875 -2.73862 0
M  V30 6522 N 607.178 -2.50413 -1.4745 0
M  V30 6523 H 606.725 -2.50982 -0.58015 0
M  V30 6524 H 606.683 -2.16969 -2.27534 0
M  V30 6525 N 610.455 -0.639598 -1.44038 0
M  V30 6526 C 611.685 -0.154586 -2.06021 0
M  V30 6527 C 612.093 1.17951 -1.47933 0
M  V30 6528 O 611.436 1.73627 -0.59994 0
M  V30 6529 C 611.498 0.0255459 -3.59491 0
M  V30 6530 C 611.162 -1.2317 -4.40089 0
M  V30 6531 C 612.159 -2.15735 -4.73027 0
M  V30 6532 C 609.844 -1.46949 -4.80324 0
M  V30 6533 C 611.838 -3.30382 -5.45093 0
M  V30 6534 C 609.525 -2.61891 -5.52138 0
M  V30 6535 C 610.523 -3.53433 -5.84443 0
M  V30 6536 O 610.211 -4.6637 -6.54793 0
M  V30 6537 H 609.943 -0.0808543 -0.671147 0
M  V30 6538 H 612.497 -0.876541 -1.85758 0
M  V30 6539 H 610.727 0.802733 -3.78276 0
M  V30 6540 H 612.416 0.466184 -4.03214 0
M  V30 6541 H 613.182 -1.98602 -4.42473 0
M  V30 6542 H 609.061 -0.765815 -4.54595 0
M  V30 6543 H 612.605 -4.01856 -5.70226 0
M  V30 6544 H 608.502 -2.78964 -5.82108 0
M  V30 6545 H 609.27 -4.6546 -6.73267 0
M  V30 6546 N 611.933 1.52934 -0.380664 0
M  V30 6547 C 612.843 2.29921 0.466192 0
M  V30 6548 C 613.859 1.36488 1.07922 0
M  V30 6549 O 615.035 1.69553 1.0869 0
M  V30 6550 C 612.1 3.08468 1.58266 0
M  V30 6551 C 611.161 4.17595 0.995627 0
M  V30 6552 C 610.394 4.92387 2.05889 0
M  V30 6553 O 610.617 4.67184 3.27254 0
M  V30 6554 O 609.551 5.77949 1.68102 0
M  V30 6555 H 613.377 3.03274 -0.160735 0
M  V30 6556 H 610.962 1.48698 -0.144617 0
M  V30 6557 H 612.844 3.57469 2.23145 0
M  V30 6558 H 611.519 2.37937 2.19471 0
M  V30 6559 H 610.426 3.72811 0.310332 0
M  V30 6560 H 611.759 4.90336 0.427918 0
M  V30 6561 N 613.412 0.11024 1.57214 0
M  V30 6562 C 614.64 -0.557834 1.99238 0
M  V30 6563 C 615.055 -1.60778 0.989734 0
M  V30 6564 O 614.412 -1.82491 -0.0186092 0
M  V30 6565 C 614.463 -1.19189 3.41286 0
M  V30 6566 O 614.184 -0.183919 4.37714 0
M  V30 6567 C 615.685 -1.94413 3.98395 0
M  V30 6568 H 612.905 -0.148392 0.654386 0
M  V30 6569 H 615.449 0.193996 2.03578 0
M  V30 6570 H 613.604 -1.89456 3.37913 0
M  V30 6571 H 614.018 -0.643475 5.20538 0
M  V30 6572 H 615.492 -2.34116 4.99894 0
M  V30 6573 H 615.969 -2.81592 3.3705 0
M  V30 6574 H 616.575 -1.28928 4.05287 0
M  V30 6575 N 614.89 -1.56749 -0.16351 0
M  V30 6576 C 616.139 -1.81626 -0.877211 0
M  V30 6577 C 616.452 -0.688791 -1.83071 0
M  V30 6578 O 617.658 -0.822697 -2.58735 0
M  V30 6579 C 616.114 -3.21858 -1.61045 0
M  V30 6580 C 615.722 -4.42494 -0.700195 0
M  V30 6581 C 617.466 -3.56021 -2.31192 0
M  V30 6582 C 615.373 -5.73748 -1.43412 0
M  V30 6583 H 614.303 -0.67731 -0.331312 0
M  V30 6584 H 616.954 -1.83039 -0.13006 0
M  V30 6585 H 615.336 -3.14784 -2.40264 0
M  V30 6586 H 616.51 -4.60766 0.0555849 0
M  V30 6587 H 614.825 -4.1626 -0.10799 0
M  V30 6588 H 617.422 -4.51333 -2.8671 0
M  V30 6589 H 617.765 -2.81277 -3.06902 0
M  V30 6590 H 618.298 -3.64682 -1.58909 0
M  V30 6591 H 615.037 -6.51543 -0.719186 0
M  V30 6592 H 614.557 -5.5944 -2.16302 0
M  V30 6593 H 616.236 -6.15975 -1.9795 0
M  V30 6594 N 616.368 0.432326 -1.51554 0
M  V30 6595 C 617.278 1.55023 -1.76082 0
M  V30 6596 C 618.294 1.61593 -0.645265 0
M  V30 6597 O 619.47 1.78742 -0.928086 0
M  V30 6598 C 616.535 2.90964 -1.88523 0
M  V30 6599 C 615.596 2.9447 -3.12388 0
M  V30 6600 C 614.829 4.23926 -3.24225 0
M  V30 6601 O 615.052 5.16576 -2.4188 0
M  V30 6602 O 613.986 4.33818 -4.17235 0
M  V30 6603 H 617.812 1.37238 -2.70923 0
M  V30 6604 H 615.397 0.615845 -1.36117 0
M  V30 6605 H 617.279 3.71633 -1.98662 0
M  V30 6606 H 615.954 3.08865 -0.9687 0
M  V30 6607 H 614.861 2.12737 -3.07723 0
M  V30 6608 H 616.194 2.81514 -4.03746 0
M  V30 6609 N 617.846 1.41785 0.688094 0
M  V30 6610 C 618.778 1.40159 1.81351 0
M  V30 6611 C 619.791 0.30262 1.59963 0
M  V30 6612 O 620.98 0.564841 1.69327 0
M  V30 6613 C 618.08 1.16517 3.1824 0
M  V30 6614 C 617.253 2.38597 3.66593 0
M  V30 6615 C 616.312 2.10699 4.82174 0
M  V30 6616 O 615.338 2.83798 4.93404 0
M  V30 6617 N 616.54 1.10187 5.69947 0
M  V30 6618 H 619.305 2.3716 1.83236 0
M  V30 6619 H 616.866 1.36494 0.870697 0
M  V30 6620 H 618.858 0.957941 3.93199 0
M  V30 6621 H 617.428 0.280873 3.11336 0
M  V30 6622 H 616.648 2.74974 2.82459 0
M  V30 6623 H 617.936 3.19919 3.95638 0
M  V30 6624 H 617.334 0.497016 5.63512 0
M  V30 6625 H 615.891 0.954518 6.44773 0
M  V30 6626 N 619.324 -0.923095 1.27737 0
M  V30 6627 C 620.271 -2.02432 1.1086 0
M  V30 6628 C 621.241 -1.66098 0.00835195 0
M  V30 6629 O 622.426 -1.90027 0.171542 0
M  V30 6630 C 619.566 -3.36476 0.766671 0
M  V30 6631 C 618.679 -3.85737 1.94501 0
M  V30 6632 C 617.814 -5.08249 1.54455 0
M  V30 6633 C 616.853 -5.49818 2.6901 0
M  V30 6634 N 615.99 -6.63524 2.29521 0
M  V30 6635 H 620.83 -2.16201 2.05089 0
M  V30 6636 H 618.367 -1.05909 1.02087 0
M  V30 6637 H 620.325 -4.13569 0.549223 0
M  V30 6638 H 618.955 -3.22502 -0.13867 0
M  V30 6639 H 618.007 -3.04883 2.27487 0
M  V30 6640 H 619.319 -4.12513 2.80419 0
M  V30 6641 H 618.473 -5.92857 1.28862 0
M  V30 6642 H 617.212 -4.83261 0.656534 0
M  V30 6643 H 616.217 -4.63757 2.95313 0
M  V30 6644 H 617.442 -5.76799 3.5844 0
M  V30 6645 H 615.388 -6.40185 1.43177 0
M  V30 6646 H 615.305 -6.89978 3.08977 0
M  V30 6647 H 616.573 -7.51461 2.07187 0
M  V30 6648 N 620.802 -1.09834 -1.13024 0
M  V30 6649 C 621.749 -0.741522 -2.18564 0
M  V30 6650 C 622.719 0.279236 -1.63736 0
M  V30 6651 O 623.904 0.159923 -1.90129 0
M  V30 6652 C 621.044 -0.17277 -3.44667 0
M  V30 6653 C 620.157 -1.24808 -4.13578 0
M  V30 6654 C 619.292 -0.641631 -5.27311 0
M  V30 6655 C 618.331 -1.69795 -5.88078 0
M  V30 6656 N 617.468 -1.11223 -6.93234 0
M  V30 6657 H 622.308 -1.64576 -2.48432 0
M  V30 6658 H 619.845 -0.822174 -1.21978 0
M  V30 6659 H 621.803 0.17482 -4.16834 0
M  V30 6660 H 620.433 0.694725 -3.15235 0
M  V30 6661 H 619.485 -1.71288 -3.39653 0
M  V30 6662 H 620.797 -2.04795 -4.54819 0
M  V30 6663 H 619.951 -0.243128 -6.06213 0
M  V30 6664 H 618.69 0.189742 -4.87331 0
M  V30 6665 H 617.695 -2.10595 -5.07868 0
M  V30 6666 H 618.92 -2.53206 -6.3013 0
M  V30 6667 H 616.866 -0.302208 -6.55304 0
M  V30 6668 H 616.783 -1.84901 -7.3304 0
M  V30 6669 H 618.051 -0.740068 -7.75979 0
M  V30 6670 N 622.28 1.30327 -0.886154 0
M  V30 6671 C 623.243 2.26376 -0.358687 0
M  V30 6672 C 624.243 1.52845 0.499498 0
M  V30 6673 O 625.433 1.71483 0.306485 0
M  V30 6674 C 622.565 3.37379 0.488726 0
M  V30 6675 H 623.758 2.74547 -1.20681 0
M  V30 6676 H 621.311 1.41536 -0.663113 0
M  V30 6677 H 622.046 2.94526 1.35739 0
M  V30 6678 H 621.831 3.91897 -0.126003 0
M  V30 6679 H 623.321 4.08868 0.84952 0
M  V30 6680 N 623.758 0.647228 1.43697 0
M  V30 6681 C 624.988 0.16551 2.05936 0
M  V30 6682 C 625.396 -1.17164 1.48557 0
M  V30 6683 O 624.739 -1.73307 0.60914 0
M  V30 6684 C 624.801 -0.00648082 3.59499 0
M  V30 6685 C 624.465 1.25503 4.39429 0
M  V30 6686 C 625.462 2.18241 4.71876 0
M  V30 6687 C 623.147 1.49494 4.79538 0
M  V30 6688 C 625.141 3.33268 5.43333 0
M  V30 6689 C 622.828 2.64815 5.50742 0
M  V30 6690 C 623.826 3.56528 5.82561 0
M  V30 6691 O 623.514 4.69836 6.52311 0
M  V30 6692 H 623.246 0.0844124 0.670709 0
M  V30 6693 H 625.8 0.88638 1.8529 0
M  V30 6694 H 624.03 -0.782661 3.78697 0
M  V30 6695 H 625.719 -0.444794 4.03456 0
M  V30 6696 H 626.485 2.00946 4.41413 0
M  V30 6697 H 622.364 0.789912 4.54182 0
M  V30 6698 H 625.908 4.04874 5.68087 0
M  V30 6699 H 621.805 2.82047 5.8062 0
M  V30 6700 H 622.573 4.69024 6.70789 0
M  V30 6701 N 625.236 -1.5273 0.388769 0
M  V30 6702 C 626.146 -2.30165 -0.453993 0
M  V30 6703 C 627.162 -1.37058 -1.07197 0
M  V30 6704 O 628.338 -1.70127 -1.0779 0
M  V30 6705 C 625.403 -3.09303 -1.56628 0
M  V30 6706 C 624.464 -4.18117 -0.973467 0
M  V30 6707 C 623.697 -4.93472 -2.03275 0
M  V30 6708 O 623.92 -4.68913 -3.24772 0
M  V30 6709 O 622.854 -5.78833 -1.65034 0
M  V30 6710 H 626.68 -3.03185 0.176816 0
M  V30 6711 H 624.265 -1.4862 0.152501 0
M  V30 6712 H 626.147 -3.58648 -2.21246 0
M  V30 6713 H 624.822 -2.39098 -2.18206 0
M  V30 6714 H 623.729 -3.7297 -0.290556 0
M  V30 6715 H 625.062 -4.90556 -0.401908 0
M  V30 6716 N 626.714 -0.118576 -1.57153 0
M  V30 6717 C 627.96 0.540326 -1.95469 0
M  V30 6718 C 628.293 1.66356 -1.00196 0
M  V30 6719 O 627.568 1.94461 -0.039104 0
M  V30 6720 C 627.851 1.07342 -3.43729 0
M  V30 6721 C 627.704 -0.0463732 -4.49776 0
M  V30 6722 C 629.023 1.96442 -3.93826 0
M  V30 6723 H 626.142 0.19494 -0.710751 0
M  V30 6724 H 628.784 -0.19405 -1.89006 0
M  V30 6725 H 626.934 1.69925 -3.49368 0
M  V30 6726 H 628.606 -0.681648 -4.56236 0
M  V30 6727 H 626.849 -0.709574 -4.27957 0
M  V30 6728 H 627.52 0.367856 -5.50773 0
M  V30 6729 H 629.996 1.43731 -3.90488 0
M  V30 6730 H 628.872 2.3066 -4.98084 0
M  V30 6731 H 629.133 2.89077 -3.34495 0
M  V30 6732 N 628.193 1.56834 0.155195 0
M  V30 6733 C 629.156 1.96748 1.17571 0
M  V30 6734 C 630.156 0.853006 1.3631 0
M  V30 6735 O 631.346 1.11978 1.33441 0
M  V30 6736 C 628.478 2.27631 2.53765 0
M  V30 6737 H 629.671 2.88085 0.833498 0
M  V30 6738 H 627.224 1.51141 0.398242 0
M  V30 6739 H 627.959 1.39059 2.92973 0
M  V30 6740 H 627.744 3.0888 2.41527 0
M  V30 6741 H 629.234 2.59377 3.27282 0
M  V30 6742 N 629.671 -0.424282 1.51781 0
M  V30 6743 C 630.634 -1.49848 1.73431 0
M  V30 6744 C 631.634 -1.49016 0.604225 0
M  V30 6745 O 632.824 -1.50808 0.871935 0
M  V30 6746 C 629.956 -2.89332 1.80277 0
M  V30 6747 H 631.149 -1.3195 2.69312 0
M  V30 6748 H 628.702 -0.653809 1.41968 0
M  V30 6749 H 629.437 -3.12618 0.862568 0
M  V30 6750 H 629.222 -2.9134 2.62419 0
M  V30 6751 H 630.712 -3.67233 1.98821 0
M  V30 6752 N 631.149 -1.42148 -0.680565 0
M  V30 6753 C 632.079 -1.4796 -1.80638 0
M  V30 6754 C 633.06 -0.336728 -1.66734 0
M  V30 6755 O 634.245 -0.550247 -1.86242 0
M  V30 6756 C 631.375 -1.37569 -3.18892 0
M  V30 6757 C 630.329 -2.49823 -3.47524 0
M  V30 6758 C 629.655 -2.24491 -4.85291 0
M  V30 6759 C 630.955 -3.92144 -3.44994 0
M  V30 6760 H 632.649 -2.42184 -1.76032 0
M  V30 6761 H 630.195 -1.16566 -0.845481 0
M  V30 6762 H 632.148 -1.40243 -3.97379 0
M  V30 6763 H 630.872 -0.398357 -3.24162 0
M  V30 6764 H 629.531 -2.46455 -2.71395 0
M  V30 6765 H 629.179 -1.25066 -4.87204 0
M  V30 6766 H 628.879 -2.99722 -5.05411 0
M  V30 6767 H 630.403 -2.28906 -5.66069 0
M  V30 6768 H 631.817 -3.97145 -4.13459 0
M  V30 6769 H 630.214 -4.67179 -3.76648 0
M  V30 6770 H 631.284 -4.19225 -2.43676 0
M  V30 6771 N 632.627 0.916307 -1.28225 0
M  V30 6772 C 633.557 2.0352 -1.14464 0
M  V30 6773 C 634.538 1.70045 -0.0430844 0
M  V30 6774 O 635.723 1.92954 -0.219619 0
M  V30 6775 C 632.853 3.37889 -0.803027 0
M  V30 6776 C 631.807 3.85516 -1.85908 0
M  V30 6777 C 631.133 5.1682 -1.37116 0
M  V30 6778 C 632.433 4.07655 -3.26519 0
M  V30 6779 H 634.127 2.1529 -2.08064 0
M  V30 6780 H 631.673 1.03446 -1.00174 0
M  V30 6781 H 633.626 4.15654 -0.693537 0
M  V30 6782 H 632.35 3.26164 0.168674 0
M  V30 6783 H 631.009 3.09953 -1.95767 0
M  V30 6784 H 630.657 5.01497 -0.38859 0
M  V30 6785 H 630.357 5.49657 -2.07728 0
M  V30 6786 H 631.881 5.97143 -1.27484 0
M  V30 6787 H 633.295 4.75953 -3.19596 0
M  V30 6788 H 631.692 4.51818 -3.94943 0
M  V30 6789 H 632.762 3.12553 -3.70727 0
M  V30 6790 N 634.105 1.10431 1.1244 0
M  V30 6791 C 635.353 0.845045 1.83585 0
M  V30 6792 C 635.674 -0.631168 1.84503 0
M  V30 6793 O 634.944 -1.45825 1.30813 0
M  V30 6794 H 633.524 0.309628 0.679809 0
M  V30 6795 H 636.186 1.39458 1.36153 0
M  V30 6796 H 635.282 1.20786 2.8778 0
M  V30 6797 N 635.583 -1.29855 0.893053 0
M  V30 6798 C 636.86 -1.90694 0.435336 0
M  V30 6799 C 637.24 -1.8111 -1.08454 0
M  V30 6800 O 636.588 -1.23352 -1.92345 0
M  V30 6801 C 636.798 -3.36033 0.942472 0
M  V30 6802 C 638.146 -4.13083 0.982226 0
M  V30 6803 O 639.17 -3.4491 0.889686 0
M  V30 6804 O 638.029 -5.34896 1.12022 0
M  V30 6805 H 635.123 -0.815978 0.134567 0
M  V30 6806 H 637.669 -1.38367 0.982484 0
M  V30 6807 H 636.441 -3.37132 1.9864 0
M  V30 6808 H 636.064 -3.95828 0.374952 0
M  V30 6809 N 637.061 -0.65484 -1.43351 0
M  V30 6810 C 638.31 -0.166215 -2.01014 0
M  V30 6811 C 638.623 1.22764 -1.52278 0
M  V30 6812 O 639.829 1.81156 -2.02224 0
M  V30 6813 C 638.285 -0.246341 -3.59056 0
M  V30 6814 C 637.893 -1.64299 -4.16785 0
M  V30 6815 C 639.637 0.184597 -4.24098 0
M  V30 6816 C 637.544 -1.67695 -5.67126 0
M  V30 6817 H 636.474 -0.0583769 -0.751737 0
M  V30 6818 H 639.125 -0.817111 -1.64303 0
M  V30 6819 H 637.507 0.472092 -3.93176 0
M  V30 6820 H 638.681 -2.3869 -3.94162 0
M  V30 6821 H 636.996 -2.02004 -3.6412 0
M  V30 6822 H 639.593 0.179088 -5.344 0
M  V30 6823 H 639.936 1.21632 -3.98135 0
M  V30 6824 H 640.469 -0.482141 -3.94867 0
M  V30 6825 H 637.208 -2.68783 -5.9786 0
M  V30 6826 H 636.728 -0.976313 -5.91801 0
M  V30 6827 H 638.407 -1.42142 -6.31193 0
M  V30 6828 N 638.539 1.52521 -0.396863 0
M  V30 6829 C 639.787 2.01274 0.182536 0
M  V30 6830 C 640.108 1.28485 1.46685 0
M  V30 6831 O 639.378 0.407134 1.91623 0
M  V30 6832 H 637.958 0.743671 0.0704442 0
M  V30 6833 H 640.62 1.87547 -0.530289 0
M  V30 6834 H 639.716 3.09687 0.387385 0
M  V30 6835 N 640.017 0.126909 1.57088 0
M  V30 6836 C 641.265 -0.528123 1.95078 0
M  V30 6837 C 641.586 -1.66708 1.0116 0
M  V30 6838 O 640.856 -1.95777 0.0693527 0
M  V30 6839 H 639.436 -0.198087 0.720257 0
M  V30 6840 H 642.098 0.197703 1.93895 0
M  V30 6841 H 641.194 -0.917507 2.98309 0
M  V30 6842 N 641.495 -1.56914 -0.146875 0
M  V30 6843 C 642.427 -1.94878 -1.20645 0
M  V30 6844 C 643.44 -0.844633 -1.39175 0
M  V30 6845 O 644.629 -1.12304 -1.38744 0
M  V30 6846 C 641.729 -2.20769 -2.57127 0
M  V30 6847 C 640.902 -3.52053 -2.59572 0
M  V30 6848 C 639.961 -3.66482 -3.77594 0
M  V30 6849 O 638.987 -4.38873 -3.62462 0
M  V30 6850 N 640.189 -3.03156 -4.95052 0
M  V30 6851 H 642.954 -2.86374 -0.883757 0
M  V30 6852 H 640.515 -1.58366 -0.336436 0
M  V30 6853 H 642.507 -2.27664 -3.34591 0
M  V30 6854 H 641.077 -1.35538 -2.81688 0
M  V30 6855 H 640.297 -3.56598 -1.68023 0
M  V30 6856 H 641.585 -4.38396 -2.58238 0
M  V30 6857 H 640.983 -2.44258 -5.10249 0
M  V30 6858 H 639.54 -3.15611 -5.70292 0
M  V30 6859 N 642.974 0.416227 -1.52004 0
M  V30 6860 C 643.907 1.52736 -1.6955 0
M  V30 6861 C 644.885 1.53264 -0.54305 0
M  V30 6862 O 646.069 1.72077 -0.769527 0
M  V30 6863 C 643.196 2.91283 -1.72835 0
M  V30 6864 C 642.242 3.08695 -2.94295 0
M  V30 6865 S 643.075 2.82758 -4.54762 0
M  V30 6866 C 644.231 4.23548 -4.60823 0
M  V30 6867 H 644.464 1.37623 -2.63528 0
M  V30 6868 H 641.997 0.607335 -1.41954 0
M  V30 6869 H 643.955 3.71134 -1.75413 0
M  V30 6870 H 642.616 3.03742 -0.799966 0
M  V30 6871 H 641.809 4.10042 -2.93056 0
M  V30 6872 H 641.411 2.36699 -2.89568 0
M  V30 6873 H 643.703 5.17078 -4.37763 0
M  V30 6874 H 644.646 4.29813 -5.62731 0
M  V30 6875 H 645.054 4.08188 -3.89927 0
M  V30 6876 N 644.452 1.42507 0.673017 0
M  V30 6877 C 645.7 1.42789 1.43023 0
M  V30 6878 C 646.021 0.0459738 1.94946 0
M  V30 6879 O 645.291 -0.915765 1.73178 0
M  V30 6880 H 643.871 0.525657 0.530748 0
M  V30 6881 H 646.533 1.77944 0.795113 0
M  V30 6882 H 645.629 2.12872 2.28237 0
M  V30 6883 N 645.93 -0.909495 1.28709 0
M  V30 6884 C 646.86 -2.0291 1.15542 0
M  V30 6885 C 647.841 -1.7002 0.0521017 0
M  V30 6886 O 649.026 -1.92835 0.229849 0
M  V30 6887 C 646.156 -3.37458 0.820935 0
M  V30 6888 C 645.11 -3.84524 1.87949 0
M  V30 6889 C 644.436 -5.16086 1.39854 0
M  V30 6890 C 645.736 -4.05918 3.28676 0
M  V30 6891 H 647.43 -2.14183 2.09203 0
M  V30 6892 H 644.976 -1.02913 1.00722 0
M  V30 6893 H 646.929 -4.1528 0.715571 0
M  V30 6894 H 645.653 -3.26249 -0.151374 0
M  V30 6895 H 644.312 -3.08911 1.97408 0
M  V30 6896 H 643.96 -5.01284 0.41518 0
M  V30 6897 H 643.66 -5.48547 2.1064 0
M  V30 6898 H 645.184 -5.96459 1.30649 0
M  V30 6899 H 646.598 -4.74252 3.22115 0
M  V30 6900 H 644.995 -4.49717 3.97334 0
M  V30 6901 H 646.065 -3.10583 3.72379 0
M  V30 6902 N 647.408 -1.11026 -1.11852 0
M  V30 6903 C 648.655 -0.85646 -1.83497 0
M  V30 6904 C 648.983 0.617938 -1.84423 0
M  V30 6905 O 648.238 1.47194 -1.28966 0
M  V30 6906 C 648.537 -1.35777 -3.30604 0
M  V30 6907 C 648.203 -2.84465 -3.49843 0
M  V30 6908 C 646.865 -3.25068 -3.54802 0
M  V30 6909 C 649.217 -3.80251 -3.56453 0
M  V30 6910 C 646.545 -4.60194 -3.63921 0
M  V30 6911 C 648.897 -5.15188 -3.67102 0
M  V30 6912 C 647.561 -5.55356 -3.70319 0
M  V30 6913 H 646.831 -0.313401 -0.671462 0
M  V30 6914 H 649.478 -1.38792 -1.31943 0
M  V30 6915 H 647.783 -0.746455 -3.84624 0
M  V30 6916 H 649.48 -1.13779 -3.8452 0
M  V30 6917 H 646.07 -2.52054 -3.46651 0
M  V30 6918 H 650.254 -3.49986 -3.51886 0
M  V30 6919 H 645.51 -4.90728 -3.64686 0
M  V30 6920 H 649.684 -5.89248 -3.71159 0
M  V30 6921 H 647.311 -6.60054 -3.77138 0
M  V30 6922 N 648.886 1.2938 -0.899927 0
M  V30 6923 C 650.135 1.9483 -0.521937 0
M  V30 6924 C 650.448 1.71725 0.936473 0
M  V30 6925 O 651.654 2.31282 1.42199 0
M  V30 6926 C 650.11 3.48911 -0.88255 0
M  V30 6927 C 649.718 3.80815 -2.35974 0
M  V30 6928 C 651.462 4.20595 -0.57448 0
M  V30 6929 C 649.369 5.28142 -2.66121 0
M  V30 6930 H 648.299 0.729285 -0.191468 0
M  V30 6931 H 650.95 1.47103 -1.09695 0
M  V30 6932 H 649.332 3.95293 -0.236459 0
M  V30 6933 H 650.506 3.45291 -3.05141 0
M  V30 6934 H 648.821 3.22271 -2.63686 0
M  V30 6935 H 651.418 5.29031 -0.776556 0
M  V30 6936 H 651.761 4.13442 0.487005 0
M  V30 6937 H 652.294 3.79945 -1.17842 0
M  V30 6938 H 649.033 5.4036 -3.71068 0
M  V30 6939 H 648.553 5.64913 -2.01578 0
M  V30 6940 H 650.232 5.95738 -2.52399 0
M  V30 6941 N 650.364 0.662433 1.43002 0
M  V30 6942 C 651.612 0.179237 2.01304 0
M  V30 6943 C 651.933 -1.21428 1.52579 0
M  V30 6944 O 651.203 -1.81294 0.742252 0
M  V30 6945 H 649.783 0.0632725 0.744316 0
M  V30 6946 H 652.445 0.856169 1.75088 0
M  V30 6947 H 651.541 0.170957 3.11631 0
M  V30 6948 N 651.842 -1.52309 0.404946 0
M  V30 6949 C 652.805 -2.25491 -0.410651 0
M  V30 6950 C 653.805 -1.27704 -0.977154 0
M  V30 6951 O 654.995 -1.51679 -0.856691 0
M  V30 6952 C 652.127 -3.02197 -1.57765 0
M  V30 6953 H 653.32 -2.99015 0.230277 0
M  V30 6954 H 650.873 -1.55506 0.157377 0
M  V30 6955 H 651.608 -2.33013 -2.25556 0
M  V30 6956 H 651.393 -3.73987 -1.17797 0
M  V30 6957 H 652.883 -3.57719 -2.15469 0
M  V30 6958 N 653.32 -0.135238 -1.57019 0
M  V30 6959 C 654.545 0.529343 -2.00531 0
M  V30 6960 C 654.97 1.58391 -1.01459 0
M  V30 6961 O 654.328 1.81296 0.0113986 0
M  V30 6962 C 654.376 1.11748 -3.42848 0
M  V30 6963 O 653.48 2.23267 -3.46736 0
M  V30 6964 H 652.821 0.130669 -0.651016 0
M  V30 6965 H 655.351 -0.228503 -2.0332 0
M  V30 6966 H 655.361 1.44905 -3.81401 0
M  V30 6967 H 654.036 0.345147 -4.14465 0
M  V30 6968 H 652.613 1.91428 -3.20015 0
M  V30 6969 N 654.798 1.5699 0.138552 0
M  V30 6970 C 656.047 1.82998 0.848205 0
M  V30 6971 C 656.36 0.717829 1.81952 0
M  V30 6972 O 657.566 0.863756 2.57394 0
M  V30 6973 C 656.022 3.24379 1.55904 0
M  V30 6974 C 655.63 4.43552 0.62971 0
M  V30 6975 C 657.374 3.59654 2.25498 0
M  V30 6976 C 655.281 5.75957 1.34266 0
M  V30 6977 H 654.211 0.682495 0.320495 0
M  V30 6978 H 656.862 1.83222 0.100924 0
M  V30 6979 H 655.244 3.18567 2.35226 0
M  V30 6980 H 656.418 4.6062 -0.128882 0
M  V30 6981 H 654.733 4.16379 0.0417526 0
M  V30 6982 H 657.33 4.55837 2.79493 0
M  V30 6983 H 657.673 2.86124 3.02388 0
M  V30 6984 H 658.206 3.67164 1.53087 0
M  V30 6985 H 654.945 6.52604 0.615441 0
M  V30 6986 H 654.465 5.62811 2.07375 0
M  V30 6987 H 656.144 6.19046 1.88126 0
M  V30 6988 N 656.276 -0.40816 1.52223 0
M  V30 6989 C 657.206 -1.5042 1.78595 0
M  V30 6990 C 658.187 -1.57723 0.636974 0
M  V30 6991 O 659.372 -1.72982 0.882664 0
M  V30 6992 C 656.502 -2.88232 1.93751 0
M  V30 6993 C 655.456 -2.95779 3.09352 0
M  V30 6994 C 654.782 -4.35855 3.09732 0
M  V30 6995 C 656.082 -2.67175 4.48793 0
M  V30 6996 H 657.776 -1.28601 2.70374 0
M  V30 6997 H 655.322 -0.617221 1.30101 0
M  V30 6998 H 657.275 -3.64895 2.10783 0
M  V30 6999 H 655.999 -3.11347 0.986443 0
M  V30 7000 H 654.658 -2.21561 2.92072 0
M  V30 7001 H 654.306 -4.55981 2.12346 0
M  V30 7002 H 654.006 -4.41829 3.87377 0
M  V30 7003 H 655.53 -5.14451 3.28895 0
M  V30 7004 H 656.944 -3.3356 4.66273 0
M  V30 7005 H 655.341 -2.84523 5.28362 0
M  V30 7006 H 656.411 -1.62609 4.56822 0
M  V30 7007 N 657.755 -1.42862 -0.66545 0
M  V30 7008 C 658.983 -1.47246 -1.45349 0
M  V30 7009 C 659.398 -0.0865944 -1.88601 0
M  V30 7010 O 658.755 0.900652 -1.58728 0
M  V30 7011 C 658.806 -2.40772 -2.6965 0
M  V30 7012 O 658.527 -3.73968 -2.2821 0
M  V30 7013 C 660.028 -2.54272 -3.63126 0
M  V30 7014 H 657.248 -0.500497 -0.446927 0
M  V30 7015 H 659.792 -1.87477 -0.816871 0
M  V30 7016 H 657.947 -2.0377 -3.29479 0
M  V30 7017 H 658.361 -4.24146 -3.08546 0
M  V30 7018 H 659.835 -3.23815 -4.47043 0
M  V30 7019 H 660.312 -1.58364 -4.09656 0
M  V30 7020 H 660.918 -2.92036 -3.09185 0
M  V30 7021 N 659.233 0.902656 -1.29189 0
M  V30 7022 C 660.482 1.6475 -1.16362 0
M  V30 7023 C 660.795 1.93517 0.284682 0
M  V30 7024 O 662.001 2.66192 0.534229 0
M  V30 7025 C 660.457 2.96848 -2.03493 0
M  V30 7026 C 660.065 2.75687 -3.5313 0
M  V30 7027 C 661.809 3.74762 -1.99383 0
M  V30 7028 C 659.716 4.03492 -4.32375 0
M  V30 7029 H 658.646 0.618041 -0.431904 0
M  V30 7030 H 661.297 1.0008 -1.53806 0
M  V30 7031 H 659.679 3.62715 -1.58916 0
M  V30 7032 H 660.853 2.18431 -4.05739 0
M  V30 7033 H 659.168 2.11171 -3.58881 0
M  V30 7034 H 661.765 4.69515 -2.5585 0
M  V30 7035 H 662.108 4.04767 -0.973123 0
M  V30 7036 H 662.641 3.15732 -2.41988 0
M  V30 7037 H 659.38 3.78656 -5.3507 0
M  V30 7038 H 658.9 4.60318 -3.84535 0
M  V30 7039 H 660.579 4.71662 -4.42881 0
M  V30 7040 N 660.711 1.11618 1.11262 0
M  V30 7041 C 661.641 0.79846 2.19424 0
M  V30 7042 C 662.622 -0.234003 1.68483 0
M  V30 7043 O 663.807 -0.0970704 1.93957 0
M  V30 7044 C 660.937 0.242892 3.4645 0
M  V30 7045 C 659.891 1.20744 4.10615 0
M  V30 7046 C 659.217 0.512494 5.32238 0
M  V30 7047 C 660.517 2.55884 4.55325 0
M  V30 7048 H 662.211 1.70286 2.46258 0
M  V30 7049 H 659.757 0.820195 1.18359 0
M  V30 7050 H 661.71 0.00840447 4.21399 0
M  V30 7051 H 660.434 -0.696811 3.1908 0
M  V30 7052 H 659.093 1.42759 3.37662 0
M  V30 7053 H 658.741 -0.432075 5.01141 0
M  V30 7054 H 658.441 1.15583 5.7612 0
M  V30 7055 H 659.965 0.286842 6.09926 0
M  V30 7056 H 661.379 2.37946 5.21588 0
M  V30 7057 H 659.776 3.16216 5.10027 0
M  V30 7058 H 660.846 3.14968 3.68678 0
M  V30 7059 N 662.189 -1.289 0.906776 0
M  V30 7060 C 663.099 -2.31256 0.394707 0
M  V30 7061 C 664.115 -1.66231 -0.514121 0
M  V30 7062 O 665.291 -1.97347 -0.401994 0
M  V30 7063 C 662.356 -3.44792 -0.363191 0
M  V30 7064 C 661.417 -4.25391 0.578012 0
M  V30 7065 C 660.65 -5.33506 -0.143811 0
M  V30 7066 O 660.873 -5.53786 -1.36665 0
M  V30 7067 O 659.807 -5.99673 0.5173 0
M  V30 7068 H 663.633 -2.77051 1.24405 0
M  V30 7069 H 661.218 -1.33466 0.671346 0
M  V30 7070 H 663.1 -4.139 -0.791503 0
M  V30 7071 H 661.775 -3.01093 -1.18848 0
M  V30 7072 H 660.682 -3.58899 1.05558 0
M  V30 7073 H 662.015 -4.72752 1.36992 0
M  V30 7074 N 663.667 -0.670007 -1.42649 0
M  V30 7075 C 664.597 -0.00258501 -2.335 0
M  V30 7076 C 665.578 0.794364 -1.50412 0
M  V30 7077 O 666.763 0.75248 -1.79029 0
M  V30 7078 C 663.893 0.952748 -3.33976 0
M  V30 7079 C 662.847 0.264733 -4.2718 0
M  V30 7080 C 662.173 1.33267 -5.17826 0
M  V30 7081 C 663.473 -0.853289 -5.15283 0
M  V30 7082 H 665.167 -0.761326 -2.89559 0
M  V30 7083 H 662.713 -0.367561 -1.3923 0
M  V30 7084 H 664.666 1.4287 -3.96442 0
M  V30 7085 H 663.39 1.74285 -2.7621 0
M  V30 7086 H 662.049 -0.190938 -3.66102 0
M  V30 7087 H 661.697 2.11464 -4.5639 0
M  V30 7088 H 661.397 0.877476 -5.81011 0
M  V30 7089 H 662.921 1.80965 -5.83167 0
M  V30 7090 H 664.335 -0.458763 -5.71462 0
M  V30 7091 H 662.732 -1.23398 -5.87276 0
M  V30 7092 H 663.802 -1.70412 -4.53969 0
M  V30 7093 N 665.145 1.52092 -0.413018 0
M  V30 7094 C 666.392 2.01855 0.161497 0
M  V30 7095 C 666.72 1.29845 1.44812 0
M  V30 7096 O 665.975 0.394471 1.91683 0
M  V30 7097 C 666.274 3.54529 0.4521 0
M  V30 7098 C 665.94 4.4469 -0.745788 0
M  V30 7099 C 664.602 4.69053 -1.07435 0
M  V30 7100 C 666.954 4.97742 -1.54604 0
M  V30 7101 C 664.282 5.43717 -2.20429 0
M  V30 7102 C 666.634 5.73642 -2.66678 0
M  V30 7103 C 665.298 5.96277 -3.00016 0
M  V30 7104 H 664.568 0.73864 0.0590961 0
M  V30 7105 H 667.215 1.83274 -0.555234 0
M  V30 7106 H 665.52 3.7131 1.25045 0
M  V30 7107 H 667.217 3.90546 0.909647 0
M  V30 7108 H 663.807 4.25907 -0.479725 0
M  V30 7109 H 667.991 4.78824 -1.30543 0
M  V30 7110 H 663.247 5.59462 -2.46602 0
M  V30 7111 H 667.421 6.13746 -3.29072 0
M  V30 7112 H 665.048 6.53913 -3.87688 0
M  V30 7113 N 666.623 0.143563 1.56945 0
M  V30 7114 C 667.9 -0.553285 1.87612 0
M  V30 7115 C 668.28 -1.83195 1.04894 0
M  V30 7116 O 667.628 -2.28102 0.134773 0
M  V30 7117 C 667.838 -0.822055 3.3918 0
M  V30 7118 C 669.186 -1.16435 4.08324 0
M  V30 7119 O 670.21 -0.911522 3.4434 0
M  V30 7120 O 669.069 -1.63996 5.21313 0
M  V30 7121 H 666.163 -0.281851 0.777489 0
M  V30 7122 H 668.709 0.179916 1.68744 0
M  V30 7123 H 667.481 0.0830265 3.91212 0
M  V30 7124 H 667.104 -1.60956 3.63564 0
M  V30 7125 N 668.101 -1.57061 -0.130224 0
M  V30 7126 C 669.331 -1.88159 -0.853217 0
M  V30 7127 C 669.739 -0.731675 -1.7448 0
M  V30 7128 O 669.082 0.307035 -1.81116 0
M  V30 7129 C 669.144 -3.1415 -1.74785 0
M  V30 7130 C 668.808 -4.45202 -1.03173 0
M  V30 7131 C 669.805 -5.18526 -0.377759 0
M  V30 7132 C 667.49 -4.91912 -1.01624 0
M  V30 7133 C 669.484 -6.36775 0.282123 0
M  V30 7134 C 667.171 -6.10082 -0.352555 0
M  V30 7135 C 668.169 -6.82361 0.295483 0
M  V30 7136 O 667.857 -7.98284 0.948606 0
M  V30 7137 H 667.589 -0.627596 -0.251197 0
M  V30 7138 H 670.143 -2.05034 -0.1226 0
M  V30 7139 H 668.373 -2.93328 -2.51983 0
M  V30 7140 H 670.062 -3.31359 -2.34427 0
M  V30 7141 H 670.828 -4.83498 -0.381417 0
M  V30 7142 H 666.707 -4.35566 -1.51007 0
M  V30 7143 H 670.251 -6.93129 0.788525 0
M  V30 7144 H 666.148 -6.44569 -0.346621 0
M  V30 7145 H 666.916 -8.14054 0.851954 0
M  V30 7146 N 669.579 0.400081 -1.52437 0
M  V30 7147 C 670.828 1.14332 -1.66166 0
M  V30 7148 C 671.141 1.91419 -0.402253 0
M  V30 7149 O 672.347 2.6824 -0.419487 0
M  V30 7150 C 670.803 2.08137 -2.9361 0
M  V30 7151 C 670.411 1.36524 -4.26691 0
M  V30 7152 C 672.155 2.82664 -3.16703 0
M  V30 7153 C 670.062 2.29031 -5.45251 0
M  V30 7154 H 668.992 0.430499 -0.61902 0
M  V30 7155 H 671.643 0.407017 -1.78929 0
M  V30 7156 H 670.025 2.85358 -2.74567 0
M  V30 7157 H 671.199 0.646061 -4.56249 0
M  V30 7158 H 669.514 0.74002 -4.09771 0
M  V30 7159 H 672.111 3.52037 -4.0246 0
M  V30 7160 H 672.454 3.46122 -2.31312 0
M  V30 7161 H 672.987 2.12541 -3.36261 0
M  V30 7162 H 669.726 1.70206 -6.33017 0
M  V30 7163 H 669.246 2.98896 -5.2002 0
M  V30 7164 H 670.925 2.89359 -5.78689 0
M  V30 7165 N 671.057 1.43213 0.657864 0
M  V30 7166 C 672.287 1.478 1.44356 0
M  V30 7167 C 672.695 0.0930206 1.88971 0
M  V30 7168 O 672.038 -0.906089 1.59799 0
M  V30 7169 C 672.1 2.35745 2.71412 0
M  V30 7170 C 671.764 3.83359 2.48767 0
M  V30 7171 C 672.761 4.74585 2.12285 0
M  V30 7172 C 670.446 4.27799 2.63235 0
M  V30 7173 C 672.44 6.08247 1.90562 0
M  V30 7174 C 670.127 5.61516 2.41128 0
M  V30 7175 C 671.125 6.51557 2.04847 0
M  V30 7176 O 670.813 7.82802 1.82967 0
M  V30 7177 H 670.545 0.504363 0.450104 0
M  V30 7178 H 673.099 1.88572 0.814241 0
M  V30 7179 H 671.329 1.89852 3.36887 0
M  V30 7180 H 673.018 2.31589 3.33348 0
M  V30 7181 H 673.784 4.41531 2.00687 0
M  V30 7182 H 669.663 3.57993 2.90451 0
M  V30 7183 H 673.207 6.78489 1.62168 0
M  V30 7184 H 669.104 5.94139 2.52327 0
M  V30 7185 H 669.872 7.94332 1.97429 0
M  V30 7186 N 672.536 -0.895792 1.29666 0
M  V30 7187 C 673.446 -2.03329 1.17024 0
M  V30 7188 C 674.462 -1.73753 0.0925962 0
M  V30 7189 O 675.638 -1.99071 0.305431 0
M  V30 7190 C 672.703 -3.36072 0.851841 0
M  V30 7191 C 671.764 -3.7914 2.01373 0
M  V30 7192 C 670.997 -5.05549 1.71043 0
M  V30 7193 O 671.22 -5.66874 0.633213 0
M  V30 7194 O 670.154 -5.44764 2.5596 0
M  V30 7195 H 673.98 -2.16918 2.12556 0
M  V30 7196 H 671.565 -1.02007 1.09156 0
M  V30 7197 H 673.447 -4.15729 0.689006 0
M  V30 7198 H 672.122 -3.23616 -0.0736634 0
M  V30 7199 H 671.029 -3.00233 2.23183 0
M  V30 7200 H 672.362 -3.96186 2.92058 0
M  V30 7201 N 674.014 -1.12206 -1.10668 0
M  V30 7202 C 674.944 -0.810086 -2.18997 0
M  V30 7203 C 675.925 0.225065 -1.68604 0
M  V30 7204 O 677.11 0.086783 -1.94006 0
M  V30 7205 C 674.24 -0.261262 -3.46316 0
M  V30 7206 C 673.194 -1.2292 -4.09969 0
M  V30 7207 C 672.52 -0.540713 -5.31959 0
M  V30 7208 C 673.82 -2.58295 -4.53962 0
M  V30 7209 H 675.514 -1.7159 -2.45352 0
M  V30 7210 H 673.06 -0.82646 -1.17922 0
M  V30 7211 H 675.013 -0.0307522 -4.21389 0
M  V30 7212 H 673.737 0.679879 -3.19445 0
M  V30 7213 H 672.396 -1.44548 -3.369 0
M  V30 7214 H 672.044 0.405492 -5.01363 0
M  V30 7215 H 671.744 -1.18637 -5.75499 0
M  V30 7216 H 673.268 -0.319184 -6.09765 0
M  V30 7217 H 674.682 -2.40709 -5.20319 0
M  V30 7218 H 673.079 -3.18916 -5.08343 0
M  V30 7219 H 674.149 -3.16918 -3.67002 0
M  V30 7220 N 675.492 1.28418 -0.913599 0
M  V30 7221 C 676.741 1.94265 -0.542572 0
M  V30 7222 C 677.054 1.72709 0.918207 0
M  V30 7223 O 678.26 2.32778 1.39738 0
M  V30 7224 C 676.716 3.47956 -0.919507 0
M  V30 7225 C 676.324 3.78291 -2.4 0
M  V30 7226 C 678.068 4.19962 -0.619057 0
M  V30 7227 C 675.975 5.2529 -2.71707 0
M  V30 7228 H 674.905 0.727213 -0.199192 0
M  V30 7229 H 677.556 1.45931 -1.11249 0
M  V30 7230 H 675.938 3.9502 -0.278372 0
M  V30 7231 H 677.112 3.42035 -3.08786 0
M  V30 7232 H 675.427 3.19456 -2.67089 0
M  V30 7233 H 678.024 5.28178 -0.832623 0
M  V30 7234 H 678.367 4.13935 0.443126 0
M  V30 7235 H 678.9 3.78674 -1.21865 0
M  V30 7236 H 675.639 5.36394 -3.76778 0
M  V30 7237 H 675.159 5.62743 -2.07559 0
M  V30 7238 H 676.838 5.93027 -2.58703 0
M  V30 7239 N 676.97 0.677563 1.42291 0
M  V30 7240 C 677.917 0.000947061 2.308 0
M  V30 7241 C 678.887 -0.789889 1.46116 0
M  V30 7242 O 680.072 -0.761578 1.74942 0
M  V30 7243 C 677.212 -0.942387 3.31984 0
M  V30 7244 C 676.325 -0.14508 4.31756 0
M  V30 7245 C 675.46 -1.08442 5.20013 0
M  V30 7246 C 674.499 -0.278958 6.11464 0
M  V30 7247 N 673.636 -1.17115 6.92263 0
M  V30 7248 H 678.476 0.761521 2.88106 0
M  V30 7249 H 676.013 0.38727 1.41911 0
M  V30 7250 H 677.971 -1.50317 3.89179 0
M  V30 7251 H 676.601 -1.66956 2.76271 0
M  V30 7252 H 675.653 0.532368 3.76656 0
M  V30 7253 H 676.965 0.48015 4.96484 0
M  V30 7254 H 676.119 -1.71504 5.81955 0
M  V30 7255 H 674.858 -1.74353 4.55469 0
M  V30 7256 H 673.863 0.364856 5.48588 0
M  V30 7257 H 675.088 0.376099 6.78058 0
M  V30 7258 H 673.034 -1.81661 6.30345 0
M  V30 7259 H 672.951 -0.601063 7.53607 0
M  V30 7260 H 674.219 -1.78915 7.58689 0
M  V30 7261 N 678.448 -1.51871 0.421078 0
M  V30 7262 C 679.358 -2.31077 -0.405069 0
M  V30 7263 C 680.374 -1.39301 -1.04265 0
M  V30 7264 O 681.55 -1.72376 -1.04157 0
M  V30 7265 C 678.615 -3.12556 -1.50032 0
M  V30 7266 C 677.676 -4.20088 -0.884559 0
M  V30 7267 C 676.909 -4.97673 -1.92762 0
M  V30 7268 O 677.132 -4.75696 -3.14753 0
M  V30 7269 O 676.066 -5.82203 -1.52719 0
M  V30 7270 H 679.892 -3.02742 0.241086 0
M  V30 7271 H 677.477 -1.48263 0.183991 0
M  V30 7272 H 679.359 -3.6326 -2.13589 0
M  V30 7273 H 678.034 -2.43672 -2.13086 0
M  V30 7274 H 676.941 -3.73502 -0.211379 0
M  V30 7275 H 678.274 -4.91298 -0.297763 0
M  V30 7276 N 679.926 -0.151884 -1.56866 0
M  V30 7277 C 680.873 0.785936 -2.17006 0
M  V30 7278 C 681.843 1.2407 -1.10435 0
M  V30 7279 O 683.028 1.31235 -1.38499 0
M  V30 7280 C 680.168 2.01771 -2.79969 0
M  V30 7281 C 679.281 1.6083 -4.00946 0
M  V30 7282 C 678.416 2.79224 -4.51893 0
M  V30 7283 C 677.455 2.3468 -5.65324 0
M  V30 7284 N 676.592 3.461 -6.10867 0
M  V30 7285 H 681.432 0.266286 -2.96808 0
M  V30 7286 H 678.969 0.11972 -1.46612 0
M  V30 7287 H 680.927 2.73989 -3.14621 0
M  V30 7288 H 679.557 2.51139 -2.02803 0
M  V30 7289 H 678.609 0.783592 -3.72242 0
M  V30 7290 H 679.921 1.24119 -4.83111 0
M  V30 7291 H 679.075 3.59625 -4.88625 0
M  V30 7292 H 677.814 3.19183 -3.68746 0
M  V30 7293 H 676.819 1.52721 -5.28163 0
M  V30 7294 H 678.044 1.95801 -6.5026 0
M  V30 7295 H 675.99 3.85671 -5.30654 0
M  V30 7296 H 675.907 3.1342 -6.87971 0
M  V30 7297 H 677.175 4.26844 -6.52246 0
M  V30 7298 N 681.404 1.57128 0.121893 0
M  V30 7299 C 682.334 2.03165 1.15092 0
M  V30 7300 C 683.315 0.915587 1.43356 0
M  V30 7301 O 684.5 1.1851 1.53847 0
M  V30 7302 C 681.63 2.43352 2.47784 0
M  V30 7303 C 680.584 3.58376 2.33989 0
M  V30 7304 C 679.91 3.84454 3.71617 0
M  V30 7305 C 681.21 4.90199 1.80283 0
M  V30 7306 H 682.904 2.89382 0.768023 0
M  V30 7307 H 680.45 1.39218 0.367998 0
M  V30 7308 H 682.403 2.74163 3.20019 0
M  V30 7309 H 681.127 1.54103 2.87958 0
M  V30 7310 H 679.786 3.2777 1.64202 0
M  V30 7311 H 679.434 2.92414 4.09271 0
M  V30 7312 H 679.134 4.61877 3.6324 0
M  V30 7313 H 680.658 4.17714 4.45362 0
M  V30 7314 H 682.072 5.19565 2.42333 0
M  V30 7315 H 680.469 5.71601 1.82735 0
M  V30 7316 H 681.539 4.78904 0.760184 0
M  V30 7317 N 682.882 -0.391992 1.52647 0
M  V30 7318 C 683.812 -1.48517 1.8018 0
M  V30 7319 C 684.793 -1.57039 0.653667 0
M  V30 7320 O 685.978 -1.72036 0.900962 0
M  V30 7321 C 683.108 -2.86161 1.96797 0
M  V30 7322 C 682.062 -2.92481 3.12472 0
M  V30 7323 C 681.388 -4.32546 3.14338 0
M  V30 7324 C 682.688 -2.624 4.51601 0
M  V30 7325 H 684.382 -1.25726 2.71723 0
M  V30 7326 H 681.928 -0.603387 1.30749 0
M  V30 7327 H 683.881 -3.62639 2.14641 0
M  V30 7328 H 682.605 -3.10283 1.01941 0
M  V30 7329 H 681.264 -2.18451 2.94406 0
M  V30 7330 H 680.912 -4.53703 2.1717 0
M  V30 7331 H 680.612 -4.37695 3.92042 0
M  V30 7332 H 682.136 -5.10934 3.34333 0
M  V30 7333 H 683.55 -3.28596 4.69785 0
M  V30 7334 H 681.947 -2.78903 5.3135 0
M  V30 7335 H 683.017 -1.57754 4.58521 0
M  V30 7336 N 684.36 -1.4356 -0.65026 0
M  V30 7337 C 685.637 -1.35811 -1.40765 0
M  V30 7338 C 686.017 -0.00736379 -2.11099 0
M  V30 7339 O 685.365 1.00932 -2.05 0
M  V30 7340 C 685.575 -2.54332 -2.3899 0
M  V30 7341 C 686.923 -2.97551 -3.02901 0
M  V30 7342 O 687.947 -2.544 -2.49317 0
M  V30 7343 O 686.806 -3.72311 -4.00059 0
M  V30 7344 H 683.9 -0.536861 -0.629054 0
M  V30 7345 H 686.446 -1.55615 -0.676919 0
M  V30 7346 H 685.218 -3.44274 -1.85986 0
M  V30 7347 H 684.841 -2.36643 -3.19509 0
M  V30 7348 N 685.838 0.888903 -1.30139 0
M  V30 7349 C 686.768 2.01046 -1.18755 0
M  V30 7350 C 687.749 1.69916 -0.0791438 0
M  V30 7351 O 688.934 1.92445 -0.260498 0
M  V30 7352 C 686.064 3.36109 -0.874518 0
M  V30 7353 C 685.018 3.81486 -1.94043 0
M  V30 7354 C 684.344 5.13796 -1.48047 0
M  V30 7355 C 685.644 4.00637 -3.35093 0
M  V30 7356 H 687.338 2.10828 -2.12584 0
M  V30 7357 H 684.884 1.01298 -1.02346 0
M  V30 7358 H 686.837 4.14089 -0.781548 0
M  V30 7359 H 685.561 3.26449 0.0994519 0
M  V30 7360 H 684.22 3.05731 -2.02297 0
M  V30 7361 H 683.868 5.0056 -0.494878 0
M  V30 7362 H 683.568 5.45127 -2.19341 0
M  V30 7363 H 685.092 5.94305 -1.40121 0
M  V30 7364 H 686.506 4.69067 -3.2962 0
M  V30 7365 H 684.903 4.43339 -4.04438 0
M  V30 7366 H 685.973 3.0462 -3.77273 0
M  V30 7367 N 687.317 1.12792 1.10072 0
M  V30 7368 C 688.247 0.821688 2.18565 0
M  V30 7369 C 689.228 -0.21612 1.68721 0
M  V30 7370 O 690.413 -0.0764932 1.94049 0
M  V30 7371 C 687.543 0.279624 3.46172 0
M  V30 7372 C 686.497 1.25092 4.09312 0
M  V30 7373 C 685.823 0.568916 5.31665 0
M  V30 7374 C 687.123 2.60699 4.52585 0
M  V30 7375 H 688.817 1.72888 2.44438 0
M  V30 7376 H 686.363 0.832702 1.17482 0
M  V30 7377 H 688.316 0.053099 4.21367 0
M  V30 7378 H 687.04 -0.662929 3.19801 0
M  V30 7379 H 685.699 1.46332 3.36129 0
M  V30 7380 H 685.347 -0.378898 5.01571 0
M  V30 7381 H 685.047 1.21687 5.74862 0
M  V30 7382 H 686.571 0.351517 6.09587 0
M  V30 7383 H 687.985 2.43465 5.19035 0
M  V30 7384 H 686.382 3.21608 5.06644 0
M  V30 7385 H 687.452 3.1886 3.65317 0
M  V30 7386 N 688.795 -1.27931 0.920396 0
M  V30 7387 C 690.043 -1.94304 0.555906 0
M  V30 7388 C 690.364 -1.72753 -0.904519 0
M  V30 7389 O 689.634 -1.07104 -1.64029 0
M  V30 7390 H 688.214 -0.719001 0.202599 0
M  V30 7391 H 690.876 -1.55785 1.1712 0
M  V30 7392 H 689.972 -3.02806 0.755981 0
M  V30 7393 N 690.273 -0.685099 -1.4193 0
M  V30 7394 C 691.22 -0.0131869 -2.30796 0
M  V30 7395 C 692.19 0.782129 -1.46533 0
M  V30 7396 O 693.375 0.75229 -1.75343 0
M  V30 7397 C 690.515 0.924768 -3.32479 0
M  V30 7398 C 689.628 0.122181 -4.31827 0
M  V30 7399 C 688.763 1.05682 -5.20581 0
M  V30 7400 C 687.802 0.246526 -6.11603 0
M  V30 7401 N 686.939 1.13442 -6.92875 0
M  V30 7402 H 691.779 -0.776789 -2.87698 0
M  V30 7403 H 689.316 -0.394791 -1.41703 0
M  V30 7404 H 691.274 1.48251 -3.89971 0
M  V30 7405 H 689.904 1.65488 -2.77152 0
M  V30 7406 H 688.956 -0.552335 -3.76369 0
M  V30 7407 H 690.268 -0.506473 -4.96222 0
M  V30 7408 H 689.422 1.68415 -5.82856 0
M  V30 7409 H 688.161 1.71935 -4.56388 0
M  V30 7410 H 687.166 -0.393944 -5.48387 0
M  V30 7411 H 688.391 -0.412053 -6.77849 0
M  V30 7412 H 686.337 1.78316 -6.313 0
M  V30 7413 H 686.254 0.561089 -7.53915 0
M  V30 7414 H 687.522 1.74889 -7.59628 0
M  V30 7415 N 691.751 1.51645 -0.429126 0
M  V30 7416 C 692.661 2.31288 0.392809 0
M  V30 7417 C 693.677 1.39852 1.03525 0
M  V30 7418 O 694.853 1.72926 1.03241 0
M  V30 7419 C 691.918 3.13347 1.48372 0
M  V30 7420 C 690.979 4.20551 0.862268 0
M  V30 7421 C 690.212 4.98688 1.9012 0
M  V30 7422 O 690.435 4.77359 3.12225 0
M  V30 7423 O 689.369 5.83005 1.4963 0
M  V30 7424 H 693.195 3.02609 -0.257138 0
M  V30 7425 H 690.78 1.48163 -0.191851 0
M  V30 7426 H 692.662 3.64387 2.1166 0
M  V30 7427 H 691.337 2.44799 2.1179 0
M  V30 7428 H 690.244 3.73609 0.191568 0
M  V30 7429 H 691.577 4.91449 0.271704 0
M  V30 7430 N 693.229 0.160201 1.56784 0
M  V30 7431 C 694.139 -0.787167 2.21 0
M  V30 7432 C 695.155 -1.26167 1.19825 0
M  V30 7433 O 696.331 -1.31611 1.52448 0
M  V30 7434 C 693.396 -2.00364 2.8294 0
M  V30 7435 C 692.457 -1.5771 3.99282 0
M  V30 7436 C 691.69 -2.73558 4.58259 0
M  V30 7437 O 691.913 -3.90129 4.16119 0
M  V30 7438 O 690.847 -2.48271 5.48311 0
M  V30 7439 H 694.673 -0.270462 3.02493 0
M  V30 7440 H 692.258 -0.0674666 1.49248 0
M  V30 7441 H 694.14 -2.71529 3.22257 0
M  V30 7442 H 692.815 -2.50961 2.04451 0
M  V30 7443 H 691.722 -0.835274 3.64656 0
M  V30 7444 H 693.055 -1.11815 4.79331 0
M  V30 7445 N 694.707 -1.5719 -0.113559 0
M  V30 7446 C 695.984 -1.76117 -0.850999 0
M  V30 7447 C 696.364 -0.737085 -1.97814 0
M  V30 7448 O 695.712 0.237942 -2.27258 0
M  V30 7449 C 695.922 -3.21298 -1.36266 0
M  V30 7450 C 697.27 -3.83955 -1.81283 0
M  V30 7451 O 698.294 -3.24934 -1.45933 0
M  V30 7452 O 697.153 -4.87707 -2.46585 0
M  V30 7453 H 694.247 -0.721308 -0.404529 0
M  V30 7454 H 696.793 -1.69423 -0.0968756 0
M  V30 7455 H 695.565 -3.87355 -0.554235 0
M  V30 7456 H 695.188 -3.32552 -2.17933 0
M  V30 7457 N 696.185 0.383891 -1.52853 0
M  V30 7458 C 697.095 1.49343 -1.80925 0
M  V30 7459 C 698.111 1.59458 -0.696348 0
M  V30 7460 O 699.287 1.75698 -0.984481 0
M  V30 7461 C 696.352 2.84819 -1.97684 0
M  V30 7462 C 695.413 2.84382 -3.21598 0
M  V30 7463 C 694.646 4.13397 -3.37548 0
M  V30 7464 O 694.869 5.08619 -2.58192 0
M  V30 7465 O 693.803 4.20325 -4.30826 0
M  V30 7466 H 697.629 1.2855 -2.75152 0
M  V30 7467 H 695.214 0.572229 -1.38007 0
M  V30 7468 H 697.096 3.65125 -2.10385 0
M  V30 7469 H 695.771 3.05627 -1.06647 0
M  V30 7470 H 694.678 2.0284 -3.14336 0
M  V30 7471 H 696.011 2.68526 -4.12498 0
M  V30 7472 N 697.663 1.43903 0.642637 0
M  V30 7473 C 698.911 1.45791 1.39962 0
M  V30 7474 C 699.232 0.0873144 1.94804 0
M  V30 7475 O 698.502 -0.878825 1.75081 0
M  V30 7476 H 697.082 0.536797 0.519479 0
M  V30 7477 H 699.744 1.7959 0.757189 0
M  V30 7478 H 698.84 2.17665 2.2367 0
M  V30 7479 N 699.141 -0.881989 1.30609 0
M  V30 7480 C 700.366 -1.67236 1.22665 0
M  V30 7481 C 700.791 -1.8696 -0.206777 0
M  V30 7482 O 700.149 -1.4027 -1.14865 0
M  V30 7483 C 700.197 -3.02446 1.96363 0
M  V30 7484 O 699.301 -3.91614 1.29276 0
M  V30 7485 H 698.642 -0.510902 0.424117 0
M  V30 7486 H 701.172 -1.10055 1.72479 0
M  V30 7487 H 701.182 -3.52468 2.055 0
M  V30 7488 H 699.857 -2.8741 3.00613 0
M  V30 7489 H 698.434 -3.50055 1.28514 0
M  V30 7490 N 700.619 -1.13374 -1.09472 0
M  V30 7491 C 701.569 -0.77946 -2.14263 0
M  V30 7492 C 702.553 0.226271 -1.59301 0
M  V30 7493 O 703.745 0.0302581 -1.76974 0
M  V30 7494 C 700.874 -0.246635 -3.42413 0
M  V30 7495 C 699.96 -1.28124 -4.04283 0
M  V30 7496 N 700.351 -2.48201 -4.40715 0
M  V30 7497 C 698.649 -1.12892 -4.31476 0
M  V30 7498 C 699.35 -3.14347 -4.8945 0
M  V30 7499 N 698.326 -2.41771 -4.86876 0
M  V30 7500 H 702.128 -1.69305 -2.40235 0
M  V30 7501 H 699.642 -1.01598 -1.26695 0
M  V30 7502 H 701.639 0.0254131 -4.16892 0
M  V30 7503 H 700.299 0.661287 -3.17895 0
M  V30 7504 H 701.31 -2.85511 -4.32093 0
M  V30 7505 H 697.987 -0.279117 -4.16566 0
M  V30 7506 H 699.377 -4.16663 -5.27107 0
M  V30 7507 N 702.098 1.27442 -0.927168 0
M  V30 7508 C 703.375 1.89473 -0.485742 0
M  V30 7509 C 703.755 1.83922 1.03614 0
M  V30 7510 O 703.103 1.28409 1.89007 0
M  V30 7511 C 703.313 3.33417 -1.03123 0
M  V30 7512 C 704.661 4.10333 -1.0914 0
M  V30 7513 O 705.685 3.4243 -0.98082 0
M  V30 7514 O 704.544 5.31737 -1.26165 0
M  V30 7515 H 701.638 0.812124 -0.156154 0
M  V30 7516 H 704.184 1.35713 -1.01882 0
M  V30 7517 H 702.956 3.31747 -2.07508 0
M  V30 7518 H 702.579 3.94695 -0.479767 0
M  V30 7519 N 703.576 0.692616 1.41565 0
M  V30 7520 C 704.486 0.0258451 2.34586 0
M  V30 7521 C 705.502 -0.769324 1.56069 0
M  V30 7522 O 706.678 -0.707563 1.88562 0
M  V30 7523 C 703.743 -0.901289 3.3478 0
M  V30 7524 C 702.804 -0.0986579 4.29187 0
M  V30 7525 C 702.037 -0.981634 5.24595 0
M  V30 7526 O 702.26 -2.22115 5.25377 0
M  V30 7527 O 701.194 -0.432892 6.00341 0
M  V30 7528 H 705.02 0.792537 2.93177 0
M  V30 7529 H 702.605 0.452935 1.42369 0
M  V30 7530 H 704.487 -1.43302 3.96286 0
M  V30 7531 H 703.162 -1.64752 2.78637 0
M  V30 7532 H 702.069 0.477604 3.71039 0
M  V30 7533 H 703.402 0.608848 4.8842 0
M  V30 7534 N 705.054 -1.51416 0.437162 0
M  V30 7535 C 706.002 -2.29328 -0.388765 0
M  V30 7536 C 706.996 -1.35171 -1.02104 0
M  V30 7537 O 708.202 -1.52513 -0.956024 0
M  V30 7538 H 704.577 -0.738048 -0.144183 0
M  V30 7539 H 706.548 -2.96995 0.289212 0
M  V30 7540 C 705.297 -3.14741 -1.47761 0
M  V30 7541 H 704.62 -3.8708 -1.00045 0
M  V30 7542 H 706.06 -3.72313 -2.02877 0
M  V30 7543 C 704.519 -2.30105 -2.46076 0
M  V30 7544 O 705.049 -1.96055 -3.50607 0
M  V30 7545 N 703.255 -1.93331 -2.1696 0
M  V30 7546 H 702.802 -2.2122 -1.31983 0
M  V30 7547 H 702.76 -1.36999 -2.82982 0
M  V30 7548 N 706.532 -0.168513 -1.56696 0
M  V30 7549 C 707.778 0.477865 -1.9709 0
M  V30 7550 C 708.111 1.63084 -1.05438 0
M  V30 7551 O 707.386 1.94238 -0.10095 0
M  V30 7552 C 707.669 0.963521 -3.4697 0
M  V30 7553 C 707.522 -0.189443 -4.49401 0
M  V30 7554 C 708.841 1.83813 -3.99876 0
M  V30 7555 H 705.96 0.172229 -0.716593 0
M  V30 7556 H 708.602 -0.254083 -1.88293 0
M  V30 7557 H 706.752 1.58724 -3.54597 0
M  V30 7558 H 708.424 -0.826451 -4.53836 0
M  V30 7559 H 706.667 -0.845366 -4.25483 0
M  V30 7560 H 707.338 0.192446 -5.51664 0
M  V30 7561 H 709.814 1.31235 -3.94863 0
M  V30 7562 H 708.69 2.14697 -5.0517 0
M  V30 7563 H 708.951 2.78289 -3.43523 0
M  V30 7564 N 708.01 1.57248 0.105221 0
M  V30 7565 C 709.235 1.90143 0.828264 0
M  V30 7566 C 709.66 0.761811 1.71983 0
M  V30 7567 O 709.018 -0.287086 1.79013 0
M  V30 7568 C 709.066 3.21856 1.62608 0
M  V30 7569 O 708.17 3.08732 2.7342 0
M  V30 7570 H 707.511 0.623558 0.228192 0
M  V30 7571 H 710.041 2.0443 0.0834826 0
M  V30 7572 H 710.051 3.54916 2.01243 0
M  V30 7573 H 708.726 4.0439 0.971687 0
M  V30 7574 H 707.303 2.87167 2.37886 0
M  V30 7575 N 709.488 -0.375779 1.53054 0
M  V30 7576 C 710.716 -1.14036 1.72637 0
M  V30 7577 C 711.131 -1.83342 0.450687 0
M  V30 7578 O 710.488 -1.7318 -0.575749 0
M  V30 7579 C 710.539 -2.17841 2.88492 0
M  V30 7580 O 710.26 -1.51358 4.11123 0
M  V30 7581 C 711.761 -3.06924 3.19863 0
M  V30 7582 H 708.981 -0.341386 0.577665 0
M  V30 7583 H 711.525 -0.437809 1.99759 0
M  V30 7584 H 709.68 -2.8371 2.63794 0
M  V30 7585 H 710.094 -2.20439 4.75928 0
M  V30 7586 H 711.568 -3.75763 4.04359 0
M  V30 7587 H 712.045 -3.71169 2.34798 0
M  V30 7588 H 712.651 -2.46684 3.46449 0
M  V30 7589 N 710.966 -1.44241 -0.634997 0
M  V30 7590 C 712.206 -1.48339 -1.40623 0
M  V30 7591 C 712.57 -0.111479 -1.91676 0
M  V30 7592 O 713.771 -0.0271345 -2.68786 0
M  V30 7593 C 712.042 -2.51122 -2.54308 0
M  V30 7594 S 713.601 -2.74237 -3.42548 0
M  V30 7595 H 710.419 -0.524715 -0.479787 0
M  V30 7596 H 713.021 -1.81138 -0.735489 0
M  V30 7597 H 711.725 -3.49511 -2.15106 0
M  V30 7598 H 711.256 -2.19883 -3.26213 0
M  V30 7599 H 713.271 -2.0554 -4.51628 0
M  V30 7600 N 712.444 0.87505 -1.31075 0
M  V30 7601 C 713.721 1.60976 -1.11113 0
M  V30 7602 C 714.101 2.08409 0.336006 0
M  V30 7603 O 713.449 1.85858 1.32924 0
M  V30 7604 C 713.659 2.77166 -2.12085 0
M  V30 7605 C 715.007 3.47254 -2.44335 0
M  V30 7606 O 716.031 2.87367 -2.10472 0
M  V30 7607 O 714.89 4.55276 -3.02301 0
M  V30 7608 H 711.984 0.707982 -0.427424 0
M  V30 7609 H 714.53 0.920957 -1.42536 0
M  V30 7610 H 713.302 2.39494 -3.09449 0
M  V30 7611 H 712.925 3.53737 -1.81538 0
M  V30 7612 N 713.922 1.13953 1.08869 0
M  V30 7613 C 715.15 0.92817 1.84912 0
M  V30 7614 C 715.565 -0.523197 1.81406 0
M  V30 7615 O 714.922 -1.36237 1.21432 0
M  V30 7616 C 714.973 1.41509 3.32652 0
M  V30 7617 O 714.694 2.80959 3.36145 0
M  V30 7618 C 716.195 1.243 4.25517 0
M  V30 7619 H 713.415 0.330612 0.583898 0
M  V30 7620 H 715.959 1.51349 1.37527 0
M  V30 7621 H 714.114 0.872648 3.77444 0
M  V30 7622 H 714.528 3.02704 4.28335 0
M  V30 7623 H 716.002 1.63237 5.27312 0
M  V30 7624 H 716.479 0.18532 4.38809 0
M  V30 7625 H 717.085 1.77375 3.86546 0
M  V30 7626 N 715.4 -1.26948 0.933913 0
M  V30 7627 C 716.333 -2.24977 0.382169 0
M  V30 7628 C 717.311 -1.53893 -0.524949 0
M  V30 7629 O 718.495 -1.82699 -0.464048 0
M  V30 7630 C 715.622 -3.35676 -0.451615 0
M  V30 7631 C 714.668 -4.24686 0.392947 0
M  V30 7632 S 715.501 -5.03898 1.81237 0
M  V30 7633 C 716.657 -6.18078 0.986443 0
M  V30 7634 H 716.89 -2.71429 1.21299 0
M  V30 7635 H 714.423 -1.35701 0.736523 0
M  V30 7636 H 716.381 -3.99901 -0.926797 0
M  V30 7637 H 715.042 -2.8785 -1.25703 0
M  V30 7638 H 714.235 -5.03402 -0.245533 0
M  V30 7639 H 713.837 -3.65288 0.802537 0
M  V30 7640 H 716.129 -6.77125 0.225321 0
M  V30 7641 H 717.072 -6.86216 1.74682 0
M  V30 7642 H 717.48 -5.62047 0.525711 0
M  V30 7643 N 716.879 -0.700114 -1.41195 0
M  V30 7644 C 718.29 -0.307249 -1.84154 0
M  V30 7645 C 718.641 1.15539 -1.58572 0
M  V30 7646 O 717.766 1.88744 -1.05852 0
M  V30 7647 C 718.361 -0.550872 -3.34292 0
M  V30 7648 C 716.92 -0.211877 -3.75803 0
M  V30 7649 C 716.067 -0.830915 -2.64558 0
M  V30 7650 H 719.018 -0.900431 -1.30683 0
M  V30 7651 H 719.039 0.188954 -3.80031 0
M  V30 7652 H 718.551 -1.61548 -3.5288 0
M  V30 7653 H 716.652 0.848283 -3.62815 0
M  V30 7654 H 716.765 -0.67007 -4.74391 0
M  V30 7655 H 715.129 -0.260155 -2.53368 0
M  V30 7656 H 715.912 -1.89948 -2.85963 0
M  V30 7657 N 718.357 1.51182 -0.445186 0
M  V30 7658 C 719.305 2.29531 0.376597 0
M  V30 7659 C 720.299 1.35711 1.01385 0
M  V30 7660 O 721.505 1.53018 0.947922 0
M  V30 7661 H 717.88 0.738803 0.140267 0
M  V30 7662 H 719.851 2.96838 -0.304958 0
M  V30 7663 C 718.6 3.1552 1.4609 0
M  V30 7664 H 717.923 3.87605 0.979912 0
M  V30 7665 H 719.363 3.73384 2.009 0
M  V30 7666 C 717.822 2.31406 2.44852 0
M  V30 7667 O 718.352 1.97912 3.49562 0
M  V30 7668 N 716.558 1.94478 2.15932 0
M  V30 7669 H 716.105 2.21917 1.30808 0
M  V30 7670 H 716.063 1.38498 2.82251 0
M  V30 7671 N 719.835 0.176821 1.56605 0
M  V30 7672 C 720.785 -0.763718 2.14829 0
M  V30 7673 C 721.769 -1.18903 1.08401 0
M  V30 7674 O 722.961 -1.15048 1.3451 0
M  V30 7675 C 720.09 -1.99069 2.7969 0
M  V30 7676 C 719.176 -1.58711 3.93283 0
M  V30 7677 N 719.567 -0.893423 4.97847 0
M  V30 7678 C 717.865 -1.87774 4.04545 0
M  V30 7679 C 718.566 -0.693866 5.77547 0
M  V30 7680 N 717.542 -1.23699 5.29339 0
M  V30 7681 H 721.344 -0.224811 2.93039 0
M  V30 7682 H 718.858 -0.0236563 1.62383 0
M  V30 7683 H 720.855 -2.67478 3.19783 0
M  V30 7684 H 719.515 -2.53449 2.02962 0
M  V30 7685 H 720.526 -0.550868 5.14962 0
M  V30 7686 H 717.203 -2.43793 3.38927 0
M  V30 7687 H 718.593 -0.144899 6.71744 0
M  V30 7688 N 721.313 -1.57302 -0.09688 0
M  V30 7689 C 722.538 -1.9058 -0.818169 0
M  V30 7690 C 722.963 -0.770921 -1.71576 0
M  V30 7691 O 722.321 0.277588 -1.79162 0
M  V30 7692 C 722.369 -3.22714 -1.60898 0
M  V30 7693 O 721.473 -3.10178 -2.71779 0
M  V30 7694 H 720.814 -0.624759 -0.224882 0
M  V30 7695 H 723.344 -2.04471 -0.07264 0
M  V30 7696 H 723.354 -3.55978 -1.99358 0
M  V30 7697 H 722.029 -4.04899 -0.950227 0
M  V30 7698 H 720.606 -2.88424 -2.3636 0
M  V30 7699 N 722.791 0.367657 -1.53252 0
M  V30 7700 C 723.701 1.47415 -1.82499 0
M  V30 7701 C 724.717 1.58711 -0.713222 0
M  V30 7702 O 725.893 1.74644 -1.00306 0
M  V30 7703 C 722.958 2.82706 -2.00694 0
M  V30 7704 C 722.019 2.80955 -3.24596 0
M  V30 7705 C 721.252 4.09793 -3.41914 0
M  V30 7706 O 721.475 5.05852 -2.63572 0
M  V30 7707 O 720.409 4.15731 -4.3526 0
M  V30 7708 H 724.235 1.25624 -2.765 0
M  V30 7709 H 721.82 0.557559 -1.38606 0
M  V30 7710 H 723.702 3.62873 -2.14246 0
M  V30 7711 H 722.377 3.04479 -1.09883 0
M  V30 7712 H 721.284 1.99494 -3.16469 0
M  V30 7713 H 722.617 2.64136 -4.15323 0
M  V30 7714 N 724.269 1.44576 0.627338 0
M  V30 7715 C 725.497 1.51048 1.41394 0
M  V30 7716 C 725.912 0.136568 1.88305 0
M  V30 7717 O 725.269 -0.858251 1.6106 0
M  V30 7718 C 725.32 2.47837 2.63172 0
M  V30 7719 O 725.041 3.79887 2.18215 0
M  V30 7720 C 726.542 2.63811 3.56257 0
M  V30 7721 H 723.762 0.512171 0.4335 0
M  V30 7722 H 726.306 1.89576 0.766878 0
M  V30 7723 H 724.461 2.12433 3.23961 0
M  V30 7724 H 724.875 4.32177 2.97192 0
M  V30 7725 H 726.349 3.35554 4.38301 0
M  V30 7726 H 726.826 1.69169 4.05313 0
M  V30 7727 H 727.432 3.0013 3.01333 0
M  V30 7728 N 725.747 -0.868086 1.31537 0
M  V30 7729 C 726.996 -1.61607 1.20689 0
M  V30 7730 C 727.309 -1.94204 -0.233275 0
M  V30 7731 O 728.515 -2.67515 -0.463465 0
M  V30 7732 C 726.971 -2.91348 2.11292 0
M  V30 7733 C 726.579 -2.66227 3.60315 0
M  V30 7734 C 728.323 -3.69344 2.09249 0
M  V30 7735 C 726.23 -3.91887 4.42921 0
M  V30 7736 H 725.16 -0.606373 0.448138 0
M  V30 7737 H 727.811 -0.959666 1.56405 0
M  V30 7738 H 726.193 -3.58374 1.68477 0
M  V30 7739 H 727.367 -2.07597 4.11388 0
M  V30 7740 H 725.682 -2.01582 3.64354 0
M  V30 7741 H 728.279 -4.62567 2.68209 0
M  V30 7742 H 728.622 -4.02044 1.0801 0
M  V30 7743 H 729.155 -3.09205 2.50274 0
M  V30 7744 H 725.894 -3.64336 5.44922 0
M  V30 7745 H 725.414 -4.49961 3.96605 0
M  V30 7746 H 727.093 -4.59754 4.55231 0
M  V30 7747 N 727.225 -1.14528 -1.08264 0
M  V30 7748 C 728.45 -0.938381 -1.84957 0
M  V30 7749 C 728.875 0.508044 -1.81109 0
M  V30 7750 O 728.233 1.36146 -1.19724 0
M  V30 7751 C 728.281 -1.44568 -3.30352 0
M  V30 7752 O 727.385 -0.638745 -4.07423 0
M  V30 7753 H 726.726 -0.335394 -0.573068 0
M  V30 7754 H 729.256 -1.52287 -1.36637 0
M  V30 7755 H 729.266 -1.45449 -3.81194 0
M  V30 7756 H 727.941 -2.49876 -3.32468 0
M  V30 7757 H 726.518 -0.698801 -3.66294 0
M  V30 7758 N 728.703 1.26451 -0.940633 0
M  V30 7759 C 729.653 2.24086 -0.420669 0
M  V30 7760 C 730.637 1.53501 0.482301 0
M  V30 7761 O 731.829 1.74127 0.317636 0
M  V30 7762 C 728.958 3.41866 0.313452 0
M  V30 7763 C 728.044 4.19737 -0.606779 0
M  V30 7764 N 728.435 4.7521 -1.73232 0
M  V30 7765 C 726.733 4.44091 -0.41226 0
M  V30 7766 C 727.434 5.34052 -2.30572 0
M  V30 7767 N 726.41 5.1971 -1.59381 0
M  V30 7768 H 730.212 2.64569 -1.27986 0
M  V30 7769 H 727.726 1.4153 -0.796436 0
M  V30 7770 H 729.723 4.1093 0.702991 0
M  V30 7771 H 728.383 3.0291 1.16942 0
M  V30 7772 H 729.394 4.72769 -2.11447 0
M  V30 7773 H 726.071 4.1556 0.401984 0
M  V30 7774 H 727.461 5.87845 -3.25404 0
M  V30 7775 N 730.181 0.707592 1.40822 0
M  V30 7776 C 731.409 0.253073 2.05346 0
M  V30 7777 C 731.824 -1.10218 1.53289 0
M  V30 7778 O 731.181 -1.69112 0.686105 0
M  V30 7779 C 731.232 0.215411 3.60858 0
M  V30 7780 O 730.953 1.51714 4.10992 0
M  V30 7781 C 732.454 -0.258636 4.42545 0
M  V30 7782 H 729.674 0.115256 0.661027 0
M  V30 7783 H 732.218 0.963555 1.80377 0
M  V30 7784 H 730.373 -0.445978 3.84824 0
M  V30 7785 H 730.787 1.41226 5.05129 0
M  V30 7786 H 732.261 -0.233849 5.51504 0
M  V30 7787 H 732.738 -1.2995 4.19535 0
M  V30 7788 H 733.344 0.372186 4.23668 0
M  V30 7789 N 731.66 -1.50943 0.453197 0
M  V30 7790 C 732.906 -2.02512 -0.108082 0
M  V30 7791 C 733.239 -1.33574 -1.40967 0
M  V30 7792 O 732.514 -0.455671 -1.89087 0
M  V30 7793 C 732.797 -3.58759 -0.310453 0
M  V30 7794 C 732.65 -4.38293 1.0109 0
M  V30 7795 C 733.969 -4.26816 -1.07313 0
M  V30 7796 H 731.088 -0.73603 -0.0378064 0
M  V30 7797 H 733.73 -1.80433 0.595295 0
M  V30 7798 H 731.88 -3.77702 -0.909582 0
M  V30 7799 H 733.552 -4.30964 1.64523 0
M  V30 7800 H 731.795 -4.02745 1.61179 0
M  V30 7801 H 732.466 -5.45828 0.82315 0
M  V30 7802 H 734.942 -4.1224 -0.565473 0
M  V30 7803 H 733.818 -5.35989 -1.1835 0
M  V30 7804 H 734.079 -3.88757 -2.10525 0
M  V30 7805 N 733.138 -0.185124 -1.56509 0
M  V30 7806 C 734.086 0.756505 -2.19954 0
M  V30 7807 C 735.08 1.22725 -1.16769 0
M  V30 7808 O 736.286 1.1913 -1.34937 0
M  V30 7809 H 732.661 0.262279 -0.704779 0
M  V30 7810 H 734.632 0.197587 -2.97745 0
M  V30 7811 C 733.381 1.96975 -2.86524 0
M  V30 7812 H 732.704 1.61658 -3.65659 0
M  V30 7813 H 734.144 2.60719 -3.34367 0
M  V30 7814 C 732.603 2.80219 -1.87027 0
M  V30 7815 O 733.133 3.77821 -1.36433 0
M  V30 7816 N 731.339 2.4551 -1.55477 0
M  V30 7817 H 730.886 1.66199 -1.96813 0
M  V30 7818 H 730.844 3.01493 -0.891597 0
M  V30 7819 N 734.616 1.57351 0.0885366 0
M  V30 7820 C 735.862 1.86696 0.791996 0
M  V30 7821 C 736.195 0.775148 1.78059 0
M  V30 7822 O 735.47 -0.216247 1.93294 0
M  V30 7823 C 735.753 3.26684 1.51491 0
M  V30 7824 C 735.606 4.465 0.543858 0
M  V30 7825 C 736.925 3.64664 2.46391 0
M  V30 7826 H 734.044 0.679049 0.286463 0
M  V30 7827 H 736.686 1.89919 0.0554866 0
M  V30 7828 H 734.836 3.24067 2.14273 0
M  V30 7829 H 736.508 4.61235 -0.0774597 0
M  V30 7830 H 734.751 4.33567 -0.142228 0
M  V30 7831 H 735.422 5.41192 1.08696 0
M  V30 7832 H 737.898 3.68267 1.93698 0
M  V30 7833 H 736.774 4.63534 2.93986 0
M  V30 7834 H 737.035 2.93698 3.30445 0
M  V30 7835 N 736.094 -0.359525 1.53444 0
M  V30 7836 C 737.505 -0.936009 1.61542 0
M  V30 7837 C 737.856 -1.90069 0.486633 0
M  V30 7838 O 736.981 -2.12929 -0.386047 0
M  V30 7839 C 737.576 -1.70441 2.92806 0
M  V30 7840 C 736.135 -2.23015 3.03218 0
M  V30 7841 C 735.282 -1.04438 2.56881 0
M  V30 7842 H 738.233 -0.138134 1.58098 0
M  V30 7843 H 738.254 -2.56609 2.80948 0
M  V30 7844 H 737.766 -1.00205 3.74941 0
M  V30 7845 H 735.867 -2.96475 2.25684 0
M  V30 7846 H 735.98 -2.50481 4.08407 0
M  V30 7847 H 734.344 -1.41314 2.11902 0
M  V30 7848 H 735.127 -0.356905 3.4144 0
M  V30 7849 N 737.572 -1.44907 -0.619662 0
M  V30 7850 C 738.502 -1.55488 -1.742 0
M  V30 7851 C 739.483 -0.407143 -1.65156 0
M  V30 7852 O 740.668 -0.628743 -1.8374 0
M  V30 7853 C 737.798 -1.5097 -3.1277 0
M  V30 7854 C 736.752 -2.64337 -3.36615 0
M  V30 7855 C 736.078 -2.44872 -4.75333 0
M  V30 7856 C 737.378 -4.06423 -3.28051 0
M  V30 7857 H 739.072 -2.49432 -1.65602 0
M  V30 7858 H 736.618 -1.20047 -0.795281 0
M  V30 7859 H 738.571 -1.56971 -3.91073 0
M  V30 7860 H 737.295 -0.535486 -3.2218 0
M  V30 7861 H 735.954 -2.57744 -2.60698 0
M  V30 7862 H 735.602 -1.45617 -4.81461 0
M  V30 7863 H 735.302 -3.20888 -4.92244 0
M  V30 7864 H 736.826 -2.52709 -5.55851 0
M  V30 7865 H 738.24 -4.14324 -3.96243 0
M  V30 7866 H 736.637 -4.82733 -3.56495 0
M  V30 7867 H 737.707 -4.29183 -2.25676 0
M  V30 7868 N 739.05 0.861098 -1.31996 0
M  V30 7869 C 739.982 1.97551 -1.16216 0
M  V30 7870 C 740.995 1.625 -0.0988527 0
M  V30 7871 O 742.184 1.75091 -0.3472 0
M  V30 7872 C 739.284 3.30376 -0.755307 0
M  V30 7873 C 738.457 3.93711 -1.90552 0
M  V30 7874 C 737.516 5.04862 -1.48328 0
M  V30 7875 O 736.542 5.25204 -2.19431 0
M  V30 7876 N 737.744 5.79283 -0.375656 0
M  V30 7877 H 740.509 2.11632 -2.12208 0
M  V30 7878 H 738.07 1.03559 -1.24448 0
M  V30 7879 H 740.062 4.0213 -0.455364 0
M  V30 7880 H 738.632 3.12395 0.113269 0
M  V30 7881 H 737.852 3.14825 -2.37231 0
M  V30 7882 H 739.14 4.32762 -2.67571 0
M  V30 7883 H 738.538 5.65286 0.216284 0
M  V30 7884 H 737.095 6.5166 -0.135289 0
M  V30 7885 N 740.528 1.15101 1.07655 0
M  V30 7886 C 741.756 0.947731 1.83918 0
M  V30 7887 C 742.171 -0.503927 1.81951 0
M  V30 7888 O 741.528 -1.34941 1.2287 0
M  V30 7889 C 741.579 1.4503 3.31132 0
M  V30 7890 O 741.3 2.84508 3.33146 0
M  V30 7891 C 742.801 1.28806 4.24174 0
M  V30 7892 H 740.021 0.336786 0.580358 0
M  V30 7893 H 742.565 1.52799 1.35914 0
M  V30 7894 H 740.72 0.912632 3.76497 0
M  V30 7895 H 741.134 3.0723 4.251 0
M  V30 7896 H 742.608 1.6882 5.25551 0
M  V30 7897 H 743.085 0.231851 4.38588 0
M  V30 7898 H 743.691 1.81465 3.84643 0
M  V30 7899 N 742.006 -1.2595 0.947325 0
M  V30 7900 C 743.234 -1.97544 0.615127 0
M  V30 7901 C 743.649 -1.70484 -0.811221 0
M  V30 7902 O 743.006 -0.97662 -1.5417 0
M  V30 7903 C 743.057 -3.51236 0.855328 0
M  V30 7904 O 742.778 -3.77359 2.22558 0
M  V30 7905 C 744.279 -4.40066 0.534515 0
M  V30 7906 H 741.499 -0.629888 0.231263 0
M  V30 7907 H 744.043 -1.60308 1.26971 0
M  V30 7908 H 742.198 -3.8661 0.247266 0
M  V30 7909 H 742.612 -4.71857 2.29022 0
M  V30 7910 H 744.086 -5.46838 0.753168 0
M  V30 7911 H 744.563 -4.35982 -0.530701 0
M  V30 7912 H 745.169 -4.10245 1.12158 0
M  V30 7913 N 743.484 -0.715051 -1.40445 0
M  V30 7914 C 744.414 -0.0768699 -2.33373 0
M  V30 7915 C 745.395 0.746109 -1.52863 0
M  V30 7916 O 746.58 0.695142 -1.81332 0
M  V30 7917 C 743.71 0.846014 -3.36838 0
M  V30 7918 C 742.664 0.128694 -4.27806 0
M  V30 7919 C 741.99 1.16726 -5.21804 0
M  V30 7920 C 743.29 -1.01679 -5.12307 0
M  V30 7921 H 744.984 -0.853061 -2.8699 0
M  V30 7922 H 742.53 -0.41167 -1.3799 0
M  V30 7923 H 744.483 1.30185 -4.00786 0
M  V30 7924 H 743.207 1.6541 -2.81615 0
M  V30 7925 H 741.866 -0.307314 -3.6531 0
M  V30 7926 H 741.514 1.96838 -4.62887 0
M  V30 7927 H 741.214 0.692188 -5.83509 0
M  V30 7928 H 742.738 1.62321 -5.88629 0
M  V30 7929 H 744.152 -0.640337 -5.69713 0
M  V30 7930 H 742.549 -1.4202 -5.83053 0
M  V30 7931 H 743.619 -1.84769 -4.48317 0
M  V30 7932 N 744.962 1.50701 -0.461195 0
M  V30 7933 C 746.21 2.01867 0.0970051 0
M  V30 7934 C 746.531 1.34591 1.41104 0
M  V30 7935 O 745.801 0.488041 1.89723 0
M  V30 7936 H 744.381 0.74599 0.0388392 0
M  V30 7937 H 747.043 1.85129 -0.609357 0
M  V30 7938 H 746.139 3.11051 0.255688 0
M  V30 7939 N 746.441 0.193421 1.56409 0
M  V30 7940 C 747.669 -0.451438 2.01915 0
M  V30 7941 C 748.084 -1.55306 1.07357 0
M  V30 7942 O 747.441 -1.82333 0.0781512 0
M  V30 7943 C 747.492 -1.00931 3.47124 0
M  V30 7944 O 747.213 0.0483623 4.38073 0
M  V30 7945 C 748.714 -1.73021 4.0814 0
M  V30 7946 H 745.934 -0.113495 0.661332 0
M  V30 7947 H 748.478 0.301636 2.02263 0
M  V30 7948 H 746.633 -1.71277 3.47481 0
M  V30 7949 H 747.047 -0.366644 5.23217 0
M  V30 7950 H 748.521 -2.07289 5.11601 0
M  V30 7951 H 748.998 -2.6333 3.51502 0
M  V30 7952 H 749.604 -1.07264 4.11551 0
M  V30 7953 N 747.919 -1.57396 -0.0801906 0
M  V30 7954 C 748.849 -2.06145 -1.09665 0
M  V30 7955 C 749.83 -0.953273 -1.40878 0
M  V30 7956 O 751.015 -1.22548 -1.50651 0
M  V30 7957 C 748.145 -2.49836 -2.41245 0
M  V30 7958 C 747.099 -3.64454 -2.24405 0
M  V30 7959 C 746.425 -3.94172 -3.61293 0
M  V30 7960 C 747.725 -4.94807 -1.67223 0
M  V30 7961 H 749.419 -2.91316 -0.691028 0
M  V30 7962 H 746.965 -1.40145 -0.330957 0
M  V30 7963 H 748.918 -2.82552 -3.12638 0
M  V30 7964 H 747.642 -1.61683 -2.83771 0
M  V30 7965 H 746.301 -3.32008 -1.55454 0
M  V30 7966 H 745.949 -3.03163 -4.01374 0
M  V30 7967 H 745.649 -4.71345 -3.50867 0
M  V30 7968 H 747.173 -4.29376 -4.3413 0
M  V30 7969 H 748.587 -5.25807 -2.28472 0
M  V30 7970 H 746.984 -5.76245 -1.67515 0
M  V30 7971 H 748.054 -4.80751 -0.632944 0
M  V30 7972 N 749.397 0.351382 -1.53633 0
M  V30 7973 C 750.307 1.45471 -1.84052 0
M  V30 7974 C 751.323 1.57945 -0.730015 0
M  V30 7975 O 752.499 1.73571 -1.02153 0
M  V30 7976 C 749.564 2.80562 -2.03681 0
M  V30 7977 C 748.625 2.77497 -3.27558 0
M  V30 7978 C 747.858 4.06144 -3.46241 0
M  V30 7979 O 748.081 5.03028 -2.68922 0
M  V30 7980 O 747.015 4.11092 -4.39645 0
M  V30 7981 H 750.841 1.22684 -2.77817 0
M  V30 7982 H 748.426 0.542827 -1.3919 0
M  V30 7983 H 750.308 3.6058 -2.18082 0
M  V30 7984 H 748.983 3.03296 -1.13106 0
M  V30 7985 H 747.89 1.96126 -3.18568 0
M  V30 7986 H 749.223 2.59716 -4.18101 0
M  V30 7987 N 750.875 1.45233 0.611969 0
M  V30 7988 C 751.785 1.56098 1.7513 0
M  V30 7989 C 752.801 0.445646 1.68196 0
M  V30 7990 O 753.977 0.705718 1.88631 0
M  V30 7991 C 751.042 1.52052 3.11579 0
M  V30 7992 C 750.103 2.74589 3.29999 0
M  V30 7993 C 749.336 2.70726 4.59938 0
M  V30 7994 O 749.559 1.77806 5.41979 0
M  V30 7995 O 748.493 3.61864 4.80976 0
M  V30 7996 H 752.319 2.52392 1.68914 0
M  V30 7997 H 749.904 1.27695 0.775528 0
M  V30 7998 H 751.786 1.52387 3.92882 0
M  V30 7999 H 750.461 0.589085 3.18295 0
M  V30 8000 H 749.368 2.79817 2.48301 0
M  V30 8001 H 750.701 3.66843 3.28157 0
M  V30 8002 N 752.353 -0.854086 1.3245 0
M  V30 8003 C 753.602 -1.60318 1.22397 0
M  V30 8004 C 753.915 -1.9444 -0.212664 0
M  V30 8005 O 755.121 -2.67991 -0.435066 0
M  V30 8006 C 753.577 -2.8909 2.1437 0
M  V30 8007 C 753.185 -2.62391 3.63119 0
M  V30 8008 C 754.929 -3.67104 2.13155 0
M  V30 8009 C 752.836 -3.87167 4.47052 0
M  V30 8010 H 751.766 -0.601586 0.454544 0
M  V30 8011 H 754.417 -0.943023 1.57415 0
M  V30 8012 H 752.799 -3.56567 1.72268 0
M  V30 8013 H 753.973 -2.03222 4.13567 0
M  V30 8014 H 752.288 -1.97706 3.66471 0
M  V30 8015 H 754.885 -4.59696 2.731 0
M  V30 8016 H 755.228 -4.00876 1.12268 0
M  V30 8017 H 755.761 -3.06533 2.5354 0
M  V30 8018 H 752.5 -3.58536 5.48755 0
M  V30 8019 H 752.02 -4.45729 4.01355 0
M  V30 8020 H 753.699 -4.549 4.60081 0
M  V30 8021 N 753.831 -1.1567 -1.07043 0
M  V30 8022 C 754.794 -0.858906 -2.12498 0
M  V30 8023 C 755.794 0.142735 -1.60165 0
M  V30 8024 O 756.984 -0.0872678 -1.73981 0
M  V30 8025 C 754.116 -0.283021 -3.39723 0
M  V30 8026 H 755.309 -1.79368 -2.40348 0
M  V30 8027 H 752.862 -0.964608 -1.22984 0
M  V30 8028 H 753.597 0.659796 -3.17517 0
M  V30 8029 H 753.382 -1.00467 -3.7901 0
M  V30 8030 H 754.872 -0.0923543 -4.17498 0
M  V30 8031 N 755.309 1.25446 -0.953992 0
M  V30 8032 C 756.549 1.94894 -0.616087 0
M  V30 8033 C 756.913 1.73067 0.831374 0
M  V30 8034 O 758.114 2.3643 1.27884 0
M  V30 8035 C 756.385 3.44147 -0.964225 0
M  V30 8036 S 757.944 4.32536 -0.738798 0
M  V30 8037 H 754.762 0.673967 -0.226472 0
M  V30 8038 H 757.364 1.52117 -1.22803 0
M  V30 8039 H 756.068 3.57537 -2.01484 0
M  V30 8040 H 755.599 3.91906 -0.342507 0
M  V30 8041 H 757.614 4.94659 0.390732 0
M  V30 8042 O 756.826 0.86056 1.36662 0
M  V30 8043 H 757.517 0.45661 1.88241 0
M  V30 END ATOM
M  V30 BEGIN BOND
M  V30 END BOND
M  V30 END CTAB
M  END
$$$$
