drugbank_target|O95718 Steroid hormone receptor ERR2 (DB00255; DB01645; DB07776)
 OpenBabel12092121013D

  0  0  0     0  0            999 V3000
M  V30 BEGIN CTAB
M  V30 COUNTS 7903 7985 0 0 0
M  V30 BEGIN ATOM
M  V30 1 H -0.908 1.98254 -0.117106 0
M  V30 2 N 0 1.576 0 0
M  V30 3 C 0.933 2.03868 1.02534 0
M  V30 4 C 1.911 0.928543 1.3348 0
M  V30 5 O 3.095 1.19667 1.45644 0
M  V30 6 C 0.222 2.43627 2.35294 0
M  V30 7 C -0.732 3.65373 2.2001 0
M  V30 8 S 0.101 5.13292 1.52614 0
M  V30 9 C 1.257 5.56322 2.86805 0
M  V30 10 H 1.49 2.90518 0.631377 0
M  V30 11 H -0.977 1.52953 0.210867 0
M  V30 12 H 0.981 2.67203 3.11629 0
M  V30 13 H -0.358 1.57376 2.7183 0
M  V30 14 H -1.165 3.90944 3.18086 0
M  V30 15 H -1.563 3.418 1.51819 0
M  V30 16 H 0.729 5.58782 3.83104 0
M  V30 17 H 1.672 6.56266 2.65933 0
M  V30 18 H 2.08 4.83886 2.90714 0
M  V30 19 N 1.4781 -0.272755 1.55222 0
M  V30 20 C 2.7031 -1.02683 1.80197 0
M  V30 21 C 3.1281 -1.79142 0.573551 0
M  V30 22 O 2.4861 -1.74917 -0.476849 0
M  V30 23 C 2.5341 -1.9609 3.02624 0
M  V30 24 O 1.6381 -3.04863 2.77727 0
M  V30 25 H 0.9791 -0.293557 0.595584 0
M  V30 26 H 3.5091 -0.30159 2.02365 0
M  V30 27 H 3.5191 -2.38039 3.31363 0
M  V30 28 H 2.1941 -1.39851 3.91682 0
M  V30 29 H 0.7711 -2.67228 2.60084 0
M  V30 30 N 2.9562 -1.48159 -0.537278 0
M  V30 31 C 4.1812 -1.59707 -1.32319 0
M  V30 32 C 4.6062 -0.254859 -1.86365 0
M  V30 33 O 3.9642 0.772378 -1.64024 0
M  V30 34 C 4.0122 -2.6412 -2.45505 0
M  V30 35 O 3.1162 -2.20774 -3.48328 0
M  V30 36 H 2.4572 -0.535791 -0.392204 0
M  V30 37 H 4.9872 -1.94092 -0.647268 0
M  V30 38 H 4.9972 -2.85166 -2.91795 0
M  V30 39 H 3.6722 -3.61567 -2.05528 0
M  V30 40 H 2.2492 -2.09911 -3.08207 0
M  V30 41 N 4.4343 0.785586 -1.36625 0
M  V30 42 C 5.7113 1.53198 -1.21613 0
M  V30 43 C 6.0913 2.10187 0.196113 0
M  V30 44 O 5.4393 1.94318 1.20219 0
M  V30 45 C 5.6493 2.62388 -2.30116 0
M  V30 46 C 6.9973 3.30167 -2.66974 0
M  V30 47 O 8.0213 2.72674 -2.29188 0
M  V30 48 O 6.8803 4.34077 -3.32023 0
M  V30 49 H 3.9743 0.677865 -0.473738 0
M  V30 50 H 6.5203 0.823739 -1.48367 0
M  V30 51 H 5.2923 2.18299 -3.24748 0
M  V30 52 H 4.9153 3.40827 -2.0475 0
M  V30 53 N 5.9124 1.20967 1.01018 0
M  V30 54 C 7.1894 0.93264 1.71934 0
M  V30 55 C 7.5694 -0.55692 2.03621 0
M  V30 56 O 6.9174 -1.52035 1.7058 0
M  V30 57 C 7.1274 1.81233 2.98254 0
M  V30 58 C 8.4754 2.05804 3.71389 0
M  V30 59 O 9.4994 1.78539 3.08225 0
M  V30 60 O 8.3584 2.51888 4.84989 0
M  V30 61 H 5.4524 0.349272 0.749625 0
M  V30 62 H 7.9984 1.31871 1.06808 0
M  V30 63 H 6.7704 2.82067 2.71208 0
M  V30 64 H 6.3934 1.42674 3.7112 0
M  V30 65 N 7.3905 -1.2043 1.01659 0
M  V30 66 C 8.8065 -1.41852 0.731442 0
M  V30 67 C 9.0065 -1.89358 -0.688898 0
M  V30 68 O 8.0625 -2.06247 -1.45666 0
M  V30 69 C 9.3755 -2.44019 1.75714 0
M  V30 70 C 10.9235 -2.57785 1.77527 0
M  V30 71 C 11.3985 -3.63194 2.79023 0
M  V30 72 N 12.8895 -3.70678 2.77763 0
M  V30 73 C 13.6245 -4.51897 3.52954 0
M  V30 74 N 13.1205 -5.36921 4.37821 0
M  V30 75 N 14.9135 -4.4643 3.41551 0
M  V30 76 H 7.0645 -0.879093 1.93354 0
M  V30 77 H 9.3275 -0.448425 0.835236 0
M  V30 78 H 9.0335 -2.1611 2.77469 0
M  V30 79 H 8.9075 -3.43007 1.56927 0
M  V30 80 H 11.2945 -2.85023 0.764569 0
M  V30 81 H 11.3755 -1.58992 2.00387 0
M  V30 82 H 11.0195 -3.36699 3.80258 0
M  V30 83 H 10.9495 -4.61609 2.53425 0
M  V30 84 H 13.4405 -3.09944 2.16201 0
M  V30 85 H 13.7535 -5.95981 4.91962 0
M  V30 86 H 12.0985 -5.36424 4.41899 0
M  V30 87 H 15.2895 -3.79042 2.74672 0
M  V30 88 H 15.4625 -5.09491 4.00404 0
M  V30 89 N 8.8686 -0.792821 -1.36206 0
M  V30 90 C 9.8186 -0.166598 -2.27391 0
M  V30 91 C 10.8026 0.651479 -1.47121 0
M  V30 92 O 11.9946 0.510994 -1.69463 0
M  V30 93 C 9.1236 0.695033 -3.36191 0
M  V30 94 C 8.2096 -0.132019 -4.23894 0
M  V30 95 N 8.6006 -1.18822 -4.91645 0
M  V30 96 C 6.8986 0.0885952 -4.45912 0
M  V30 97 C 7.5996 -1.69198 -5.56549 0
M  V30 98 N 6.5756 -1.00065 -5.34311 0
M  V30 99 H 10.3776 -0.974947 -2.77258 0
M  V30 100 H 7.8916 -0.632616 -1.49572 0
M  V30 101 H 9.8886 1.1596 -4.00448 0
M  V30 102 H 8.5486 1.50189 -2.87877 0
M  V30 103 H 9.5596 -1.57069 -4.93507 0
M  V30 104 H 6.2366 0.865688 -4.08426 0
M  V30 105 H 7.6266 -2.57395 -6.20643 0
M  V30 106 N 10.3467 1.47872 -0.545128 0
M  V30 107 C 11.2767 2.32661 0.197793 0
M  V30 108 C 12.2577 1.43041 0.920504 0
M  V30 109 O 13.4427 1.71912 0.90333 0
M  V30 110 C 10.5727 3.24569 1.23582 0
M  V30 111 C 9.5267 4.23333 0.630323 0
M  V30 112 C 8.8527 5.0448 1.77211 0
M  V30 113 C 10.1527 5.20704 -0.407974 0
M  V30 114 H 11.8467 2.95024 -0.510045 0
M  V30 115 H 9.3927 1.4187 -0.246731 0
M  V30 116 H 11.3457 3.8272 1.76362 0
M  V30 117 H 10.0697 2.60236 1.97344 0
M  V30 118 H 8.7287 3.6639 0.123922 0
M  V30 119 H 8.3767 4.36561 2.49847 0
M  V30 120 H 8.0767 5.71339 1.37281 0
M  V30 121 H 9.6007 5.65487 2.3034 0
M  V30 122 H 11.0147 5.7329 0.033305 0
M  V30 123 H 9.4117 5.95699 -0.725486 0
M  V30 124 H 10.4817 4.66917 -1.30828 0
M  V30 125 N 11.8248 0.280983 1.55075 0
M  V30 126 C 13.0728 -0.333455 1.9933 0
M  V30 127 C 13.3938 -1.55937 1.17085 0
M  V30 128 O 12.6638 -1.94143 0.261805 0
M  V30 129 H 11.2438 -0.126197 0.736263 0
M  V30 130 H 13.9058 0.387678 1.91005 0
M  V30 131 H 13.0018 -0.619292 3.05894 0
M  V30 132 N 13.3029 -1.57598 0.00835791 0
M  V30 133 C 14.5279 -1.95617 -0.689103 0
M  V30 134 C 14.9529 -0.883753 -1.66046 0
M  V30 135 O 14.3109 0.157352 -1.80616 0
M  V30 136 C 14.3589 -3.32736 -1.38994 0
M  V30 137 O 13.4629 -3.27631 -2.50463 0
M  V30 138 H 12.8039 -0.638379 -0.182668 0
M  V30 139 H 15.3339 -2.045 0.064036 0
M  V30 140 H 15.3439 -3.68494 -1.75147 0
M  V30 141 H 14.0189 -4.1034 -0.677778 0
M  V30 142 H 12.5959 -3.03561 -2.16576 0
M  V30 143 N 14.781 0.264519 -1.55364 0
M  V30 144 C 16.006 1.01726 -1.80739 0
M  V30 145 C 16.431 1.78836 -0.583044 0
M  V30 146 O 15.789 1.75167 0.467566 0
M  V30 147 C 15.837 1.94482 -3.03659 0
M  V30 148 O 14.941 3.03386 -2.7934 0
M  V30 149 H 14.282 0.290395 -0.597132 0
M  V30 150 H 16.812 0.290854 -2.02522 0
M  V30 151 H 16.822 2.36278 -3.32621 0
M  V30 152 H 15.497 1.37772 -3.92418 0
M  V30 153 H 14.074 2.65844 -2.61498 0
M  V30 154 N 16.2591 1.48442 0.529413 0
M  V30 155 C 17.4991 1.58086 1.29569 0
M  V30 156 C 17.8631 0.249302 1.90375 0
M  V30 157 O 19.0641 0.220738 2.67892 0
M  V30 158 C 17.3351 2.68793 2.35552 0
M  V30 159 S 18.8941 2.98207 3.21898 0
M  V30 160 H 15.7121 0.557922 0.440732 0
M  V30 161 H 18.3141 1.85966 0.603059 0
M  V30 162 H 17.0181 3.64102 1.89363 0
M  V30 163 H 16.5491 2.42817 3.09522 0
M  V30 164 H 18.5641 2.37548 4.35644 0
M  V30 165 N 17.7372 -0.778329 1.37039 0
M  V30 166 C 18.9852 -1.53361 1.31623 0
M  V30 167 C 19.3062 -1.94739 -0.100831 0
M  V30 168 O 18.5762 -1.65797 -1.04347 0
M  V30 169 H 17.1562 -0.568794 0.484234 0
M  V30 170 H 19.8182 -0.926742 1.71457 0
M  V30 171 H 18.9142 -2.43606 1.95096 0
M  V30 172 N 19.2153 -1.21501 -1.00376 0
M  V30 173 C 20.4403 -1.05977 -1.78279 0
M  V30 174 C 20.8653 0.385994 -1.84097 0
M  V30 175 O 20.2233 1.27849 -1.28547 0
M  V30 176 C 20.2713 -1.66302 -3.19963 0
M  V30 177 O 19.3753 -0.909333 -4.0225 0
M  V30 178 H 18.7163 -0.372906 -0.549397 0
M  V30 179 H 21.2463 -1.6107 -1.26165 0
M  V30 180 H 21.2563 -1.70574 -3.70632 0
M  V30 181 H 19.9313 -2.71515 -3.15043 0
M  V30 182 H 18.5083 -0.941795 -3.60811 0
M  V30 183 N 20.6934 1.19889 -1.02296 0
M  V30 184 C 21.9404 1.8942 -0.715972 0
M  V30 185 C 22.2684 1.79251 0.754944 0
M  V30 186 O 21.5234 1.17526 1.56481 0
M  V30 187 C 21.8224 3.39883 -1.10518 0
M  V30 188 C 21.4884 3.70254 -2.57337 0
M  V30 189 C 20.1504 3.78254 -2.97452 0
M  V30 190 C 22.5024 3.84052 -3.52354 0
M  V30 191 C 19.8304 3.97514 -4.31509 0
M  V30 192 C 22.1824 4.04824 -4.86108 0
M  V30 193 C 20.8464 4.11054 -5.25919 0
M  V30 194 H 20.1164 0.693138 -0.261993 0
M  V30 195 H 22.7634 1.42012 -1.28472 0
M  V30 196 H 21.0684 3.8915 -0.454953 0
M  V30 197 H 22.7654 3.9199 -0.845261 0
M  V30 198 H 19.3554 3.64632 -2.25258 0
M  V30 199 H 23.5394 3.77221 -3.22518 0
M  V30 200 H 18.7954 4.00574 -4.61898 0
M  V30 201 H 22.9694 4.14442 -5.59653 0
M  V30 202 H 20.5964 4.2573 -6.29808 0
M  V30 203 N 22.1715 0.800033 1.35784 0
M  V30 204 C 23.4205 0.37387 1.98205 0
M  V30 205 C 23.7335 -1.06302 1.64193 0
M  V30 206 O 24.9395 -1.59198 2.19928 0
M  V30 207 C 23.3955 0.617532 3.54562 0
M  V30 208 C 23.0035 2.06654 3.9749 0
M  V30 209 C 24.7475 0.256401 4.23725 0
M  V30 210 C 22.6545 2.2563 5.46667 0
M  V30 211 H 21.5845 0.136055 0.741623 0
M  V30 212 H 24.2355 0.983166 1.54939 0
M  V30 213 H 22.6175 -0.0616248 3.95952 0
M  V30 214 H 23.7915 2.78296 3.67271 0
M  V30 215 H 22.1065 2.38691 3.41197 0
M  V30 216 H 24.7035 0.376318 5.33374 0
M  V30 217 H 25.0465 -0.796692 4.08606 0
M  V30 218 H 25.5795 0.889214 3.87734 0
M  V30 219 H 22.3185 3.2936 5.66747 0
M  V30 220 H 21.8385 1.58504 5.78478 0
M  V30 221 H 23.5175 2.06861 6.1304 0
M  V30 222 N 23.6496 -1.47581 0.552962 0
M  V30 223 C 24.5966 -2.29957 -0.197108 0
M  V30 224 C 25.5666 -1.38799 -0.912359 0
M  V30 225 O 26.7516 -1.67761 -0.908888 0
M  V30 226 C 23.8916 -3.22672 -1.22379 0
M  V30 227 C 23.0046 -4.28919 -0.515038 0
M  V30 228 C 22.1396 -5.0879 -1.52664 0
M  V30 229 C 21.1786 -6.06815 -0.802631 0
M  V30 230 N 20.3156 -6.7966 -1.76086 0
M  V30 231 H 25.1556 -2.93578 0.511486 0
M  V30 232 H 22.6926 -1.4471 0.264067 0
M  V30 233 H 24.6506 -3.74845 -1.83159 0
M  V30 234 H 23.2806 -2.60925 -1.90047 0
M  V30 235 H 22.3326 -3.79835 0.207192 0
M  V30 236 H 23.6446 -4.98773 0.0523425 0
M  V30 237 H 22.7986 -5.65091 -2.20809 0
M  V30 238 H 21.5376 -4.38828 -2.12794 0
M  V30 239 H 20.5426 -5.49695 -0.107238 0
M  V30 240 H 21.7676 -6.78784 -0.207135 0
M  V30 241 H 19.7136 -6.12432 -2.35081 0
M  V30 242 H 19.6306 -7.45669 -1.24552 0
M  V30 243 H 20.8986 -7.40538 -2.43359 0
M  V30 244 N 25.1277 -0.289203 -1.54924 0
M  V30 245 C 26.3557 0.326463 -2.04308 0
M  V30 246 C 26.7707 1.48413 -1.16701 0
M  V30 247 O 26.1277 1.81507 -0.190087 0
M  V30 248 C 26.1787 0.794014 -3.52672 0
M  V30 249 O 25.8997 -0.317564 -4.36948 0
M  V30 250 C 27.4007 1.47605 -4.18004 0
M  V30 251 H 24.6207 0.0726272 -0.667058 0
M  V30 252 H 27.1647 -0.425401 -2.00026 0
M  V30 253 H 25.3197 1.49593 -3.57352 0
M  V30 254 H 25.7337 0.0443186 -5.24481 0
M  V30 255 H 27.2077 1.75447 -5.23376 0
M  V30 256 H 27.6847 2.41224 -3.67025 0
M  V30 257 H 28.2907 0.81762 -4.17367 0
M  V30 258 N 26.6058 1.57591 -0.0167156 0
M  V30 259 C 27.5158 2.1291 0.98521 0
M  V30 260 C 28.5318 1.07834 1.36557 0
M  V30 261 O 29.7078 1.39826 1.44951 0
M  V30 262 C 26.7728 2.63512 2.25305 0
M  V30 263 C 25.8338 3.83256 1.93426 0
M  V30 264 C 25.0668 4.31435 3.14165 0
M  V30 265 O 25.2898 3.78851 4.26413 0
M  V30 266 O 24.2238 5.23416 2.97186 0
M  V30 267 H 28.0498 2.98772 0.544888 0
M  V30 268 H 25.6348 1.48012 0.203141 0
M  V30 269 H 27.5168 2.96183 2.99756 0
M  V30 270 H 26.1918 1.8074 2.68542 0
M  V30 271 H 25.0988 3.55531 1.16398 0
M  V30 272 H 26.4318 4.67153 1.55013 0
M  V30 273 N 28.0839 -0.256276 1.55502 0
M  V30 274 C 29.4949 -0.826068 1.67431 0
M  V30 275 C 29.8459 -1.86396 0.612446 0
M  V30 276 O 28.9709 -2.15031 -0.243025 0
M  V30 277 C 29.5659 -1.50512 3.03532 0
M  V30 278 C 28.1249 -2.02273 3.17431 0
M  V30 279 C 27.2719 -0.870548 2.63281 0
M  V30 280 H 30.2229 -0.0322728 1.58667 0
M  V30 281 H 30.2439 -2.37279 2.97454 0
M  V30 282 H 29.7559 -0.749484 3.80794 0
M  V30 283 H 27.8569 -2.80746 2.44974 0
M  V30 284 H 27.9699 -2.22655 4.24219 0
M  V30 285 H 26.3339 -1.26851 2.20864 0
M  V30 286 H 27.1169 -0.128149 3.43061 0
M  V30 287 N 29.562 -1.4872 -0.521534 0
M  V30 288 C 30.787 -1.61101 -1.30618 0
M  V30 289 C 31.212 -0.274611 -1.86085 0
M  V30 290 O 30.57 0.754937 -1.64834 0
M  V30 291 C 30.618 -2.66709 -2.4269 0
M  V30 292 O 29.722 -2.24456 -3.45967 0
M  V30 293 H 29.063 -0.539921 -0.386499 0
M  V30 294 H 31.593 -1.94767 -0.626645 0
M  V30 295 H 31.603 -2.88245 -2.88754 0
M  V30 296 H 30.278 -3.63727 -2.01682 0
M  V30 297 H 28.855 -2.13168 -3.05964 0
M  V30 298 N 31.0401 0.771051 -1.3745 0
M  V30 299 C 32.2651 1.56529 -1.36065 0
M  V30 300 C 32.6901 1.88029 0.0515859 0
M  V30 301 O 32.0481 1.49282 1.02882 0
M  V30 302 C 32.0961 2.85187 -2.20683 0
M  V30 303 O 31.2001 3.79593 -1.61193 0
M  V30 304 H 30.5411 0.47411 -0.464883 0
M  V30 305 H 33.0711 0.954269 -1.80983 0
M  V30 306 H 33.0811 3.34283 -2.33921 0
M  V30 307 H 31.7561 2.61588 -3.23334 0
M  V30 308 H 30.3331 3.38239 -1.56999 0
M  V30 309 N 32.5182 1.22032 0.997298 0
M  V30 310 C 33.9292 1.0397 1.55071 0
M  V30 311 C 34.2802 -0.398192 1.92117 0
M  V30 312 O 33.4052 -1.28254 1.74298 0
M  V30 313 C 34.0002 1.88109 2.81781 0
M  V30 314 C 32.5592 1.74357 3.33581 0
M  V30 315 C 31.7062 1.84846 2.06706 0
M  V30 316 H 34.6572 1.35941 0.818883 0
M  V30 317 H 34.6782 1.39589 3.53971 0
M  V30 318 H 34.1902 2.92754 2.54787 0
M  V30 319 H 32.2912 0.72427 3.65493 0
M  V30 320 H 32.4042 2.56772 4.04481 0
M  V30 321 H 30.7682 1.28238 2.20062 0
M  V30 322 H 31.5512 2.91014 1.82114 0
M  V30 323 N 33.9963 -1.19345 1.0293 0
M  V30 324 C 35.2213 -1.93538 0.745511 0
M  V30 325 C 35.6463 -1.75007 -0.689511 0
M  V30 326 O 35.0043 -1.05265 -1.47611 0
M  V30 327 C 35.0523 -3.43336 1.10239 0
M  V30 328 O 34.1563 -4.11806 0.221289 0
M  V30 329 H 33.4973 -0.604193 0.275404 0
M  V30 330 H 36.0273 -1.5141 1.37609 0
M  V30 331 H 36.0373 -3.94004 1.05947 0
M  V30 332 H 34.7123 -3.56146 2.14786 0
M  V30 333 H 33.2893 -3.715 0.322842 0
M  V30 334 N 35.4744 -0.807222 -1.35358 0
M  V30 335 C 36.6994 -0.399309 -2.0352 0
M  V30 336 C 37.1244 0.981986 -1.60433 0
M  V30 337 O 36.4824 1.63601 -0.781299 0
M  V30 338 C 36.5304 -0.491552 -3.57234 0
M  V30 339 O 35.6344 0.494754 -4.09421 0
M  V30 340 H 34.9754 -0.166682 -0.642739 0
M  V30 341 H 37.5054 -1.09328 -1.72941 0
M  V30 342 H 37.5154 -0.361588 -4.06395 0
M  V30 343 H 36.1904 -1.49907 -3.87944 0
M  V30 344 H 34.7674 0.324977 -3.71481 0
M  V30 345 N 36.9525 1.47285 -0.560781 0
M  V30 346 C 38.2005 2.02064 -0.0379868 0
M  V30 347 C 38.5215 1.43711 1.31803 0
M  V30 348 O 37.7915 0.61362 1.86042 0
M  V30 349 H 36.3715 0.746918 -0.0110531 0
M  V30 350 H 39.0335 1.80648 -0.731598 0
M  V30 351 H 38.1295 3.12064 0.0474463 0
M  V30 352 N 38.4306 0.297415 1.54768 0
M  V30 353 C 39.6796 -0.313669 1.99246 0
M  V30 354 C 39.9926 -1.55281 1.18942 0
M  V30 355 O 41.1986 -2.23825 1.5367 0
M  V30 356 C 39.6546 -0.609407 3.54703 0
M  V30 357 C 39.2626 0.611192 4.43811 0
M  V30 358 C 41.0066 -1.18188 4.07715 0
M  V30 359 C 38.9136 0.288805 5.90694 0
M  V30 360 H 37.8436 -0.120979 0.744231 0
M  V30 361 H 40.4946 0.40556 1.78962 0
M  V30 362 H 38.8766 -1.38813 3.70873 0
M  V30 363 H 40.0506 1.3875 4.39414 0
M  V30 364 H 38.3656 1.10205 4.01552 0
M  V30 365 H 40.9626 -1.43727 5.15021 0
M  V30 366 H 41.3056 -2.12299 3.58099 0
M  V30 367 H 41.8386 -0.464944 3.95074 0
M  V30 368 H 38.5776 1.19838 6.44453 0
M  V30 369 H 38.0976 -0.450305 5.98107 0
M  V30 370 H 39.7766 -0.110933 6.46905 0
M  V30 371 N 39.9087 -1.5758 0.0250728 0
M  V30 372 C 41.1857 -1.82917 -0.692873 0
M  V30 373 C 41.5657 -0.908137 -1.90568 0
M  V30 374 O 40.9137 0.0372298 -2.2847 0
M  V30 375 C 41.1237 -3.32034 -1.07492 0
M  V30 376 C 42.4717 -3.98406 -1.46826 0
M  V30 377 O 43.4957 -3.36505 -1.16801 0
M  V30 378 O 42.3547 -5.07497 -2.02754 0
M  V30 379 H 39.4487 -0.754079 -0.33955 0
M  V30 380 H 41.9947 -1.69619 0.0524456 0
M  V30 381 H 40.7667 -3.90728 -0.211552 0
M  V30 382 H 40.3897 -3.50424 -1.87854 0
M  V30 383 N 41.3868 0.248026 -1.55636 0
M  V30 384 C 42.3498 1.29044 -1.89421 0
M  V30 385 C 43.3498 1.41134 -0.770581 0
M  V30 386 O 44.5398 1.39854 -1.03858 0
M  V30 387 C 41.6718 2.66831 -2.12165 0
M  V30 388 H 42.8648 1.00305 -2.82629 0
M  V30 389 H 40.4178 0.487265 -1.48511 0
M  V30 390 H 41.1528 3.00711 -1.21422 0
M  V30 391 H 40.9378 2.59438 -2.93997 0
M  V30 392 H 42.4278 3.42103 -2.3949 0
M  V30 393 N 42.8649 1.48995 0.513639 0
M  V30 394 C 43.7949 1.67636 1.62544 0
M  V30 395 C 44.7759 0.525087 1.61793 0
M  V30 396 O 45.9609 0.759502 1.78732 0
M  V30 397 C 43.0909 1.73114 3.01079 0
M  V30 398 C 42.0449 2.87905 3.16693 0
M  V30 399 C 41.3709 2.78486 4.56453 0
M  V30 400 C 42.6709 4.29005 2.97913 0
M  V30 401 H 44.3649 2.60716 1.47198 0
M  V30 402 H 41.9109 1.25465 0.706714 0
M  V30 403 H 43.8639 1.84742 3.78746 0
M  V30 404 H 42.5879 0.766241 3.17484 0
M  V30 405 H 41.2469 2.75859 2.41448 0
M  V30 406 H 40.8949 1.7993 4.69717 0
M  V30 407 H 40.5949 3.55523 4.67843 0
M  V30 408 H 42.1189 2.92104 5.36197 0
M  V30 409 H 43.5329 4.41798 3.65359 0
M  V30 410 H 41.9299 5.07166 3.20785 0
M  V30 411 H 42.9999 4.44329 1.94165 0
M  V30 412 N 44.343 -0.763751 1.37857 0
M  V30 413 C 45.568 -1.55805 1.36893 0
M  V30 414 C 45.993 -1.88054 -0.0416135 0
M  V30 415 O 45.351 -1.49825 -1.02089 0
M  V30 416 C 45.399 -2.84012 2.22192 0
M  V30 417 O 44.503 -3.78732 1.63204 0
M  V30 418 H 43.844 -0.471638 0.46739 0
M  V30 419 H 46.374 -0.944657 1.81487 0
M  V30 420 H 46.384 -3.33037 2.35691 0
M  V30 421 H 45.059 -2.59869 3.24716 0
M  V30 422 H 43.636 -3.37402 1.58791 0
M  V30 423 N 45.8211 -1.22559 -0.990812 0
M  V30 424 C 46.7711 -0.964807 -2.0658 0
M  V30 425 C 47.7551 0.0853472 -1.60673 0
M  V30 426 O 48.9471 -0.125443 -1.76555 0
M  V30 427 C 46.0761 -0.546707 -3.38919 0
M  V30 428 C 45.1621 -1.6317 -3.91454 0
M  V30 429 N 45.5531 -2.85985 -4.17189 0
M  V30 430 C 43.8511 -1.50387 -4.19881 0
M  V30 431 C 44.5521 -3.56159 -4.59919 0
M  V30 432 N 43.5281 -2.83637 -4.63736 0
M  V30 433 H 47.3301 -1.89769 -2.24421 0
M  V30 434 H 44.8441 -1.12343 -1.17273 0
M  V30 435 H 46.8411 -0.34119 -4.15502 0
M  V30 436 H 45.5011 0.379254 -3.22478 0
M  V30 437 H 46.5121 -3.22392 -4.05319 0
M  V30 438 H 43.1891 -0.644254 -4.12499 0
M  V30 439 H 44.5791 -4.6139 -4.88435 0
M  V30 440 N 47.2992 1.18797 -1.03562 0
M  V30 441 C 48.2492 2.20161 -0.592724 0
M  V30 442 C 49.2332 1.56772 0.362133 0
M  V30 443 O 50.4252 1.76062 0.182009 0
M  V30 444 C 47.5542 3.43266 0.0481024 0
M  V30 445 C 46.6402 4.13786 -0.9296 0
M  V30 446 N 47.0312 4.60388 -2.09467 0
M  V30 447 C 45.3292 4.39572 -0.754499 0
M  V30 448 C 46.0302 5.14619 -2.71187 0
M  V30 449 N 45.0062 5.05826 -1.991 0
M  V30 450 H 48.8082 2.53877 -1.48066 0
M  V30 451 H 46.3222 1.34946 -0.903514 0
M  V30 452 H 48.3192 4.15136 0.383058 0
M  V30 453 H 46.9792 3.11048 0.931636 0
M  V30 454 H 47.9902 4.54999 -2.47379 0
M  V30 455 H 44.6672 4.17425 0.0793713 0
M  V30 456 H 46.0572 5.60917 -3.69895 0
M  V30 457 N 48.7773 0.814389 1.34928 0
M  V30 458 C 50.0023 0.410097 2.03305 0
M  V30 459 C 50.4273 -0.973464 1.60951 0
M  V30 460 O 49.7853 -1.63185 0.789964 0
M  V30 461 C 49.8333 0.51049 3.56968 0
M  V30 462 O 48.9373 -0.473035 4.09678 0
M  V30 463 H 48.2783 0.170088 0.641846 0
M  V30 464 H 50.8083 1.10244 1.72358 0
M  V30 465 H 50.8183 0.383135 4.06197 0
M  V30 466 H 49.4933 1.51963 3.87144 0
M  V30 467 H 48.0703 -0.305272 3.71648 0
M  V30 468 N 50.2554 -1.46986 0.568584 0
M  V30 469 C 51.6664 -1.86188 0.138219 0
M  V30 470 C 52.0174 -1.47388 -1.29504 0
M  V30 471 O 51.1424 -0.88219 -1.97602 0
M  V30 472 C 51.7374 -3.3792 0.244065 0
M  V30 473 C 50.2964 -3.76171 -0.131335 0
M  V30 474 C 49.4434 -2.71027 0.586465 0
M  V30 475 H 52.3944 -1.38342 0.777645 0
M  V30 476 H 52.4154 -3.76729 -0.534351 0
M  V30 477 H 51.9274 -3.66128 1.28731 0
M  V30 478 H 50.0284 -3.5358 -1.17526 0
M  V30 479 H 50.1414 -4.78523 0.235146 0
M  V30 480 H 48.5054 -2.54684 0.0282722 0
M  V30 481 H 49.2884 -3.02077 1.63109 0
M  V30 482 N 51.7335 -0.305618 -1.54608 0
M  V30 483 C 52.9585 0.307562 -2.05107 0
M  V30 484 C 53.3835 1.46385 -1.18123 0
M  V30 485 O 52.7415 1.8034 -0.186324 0
M  V30 486 C 52.7895 0.73704 -3.52987 0
M  V30 487 O 51.8935 1.84134 -3.6901 0
M  V30 488 H 51.2345 0.0589143 -0.661381 0
M  V30 489 H 53.7645 -0.448807 -1.99617 0
M  V30 490 H 53.7745 1.02459 -3.94925 0
M  V30 491 H 52.4495 -0.108773 -4.15758 0
M  V30 492 H 51.0265 1.55398 -3.38978 0
M  V30 493 N 53.2116 1.57565 -0.0334293 0
M  V30 494 C 54.4596 1.91598 0.642999 0
M  V30 495 C 54.7806 0.910847 1.7242 0
M  V30 496 O 54.0506 -0.0469931 1.95844 0
M  V30 497 H 52.6306 0.707228 0.240496 0
M  V30 498 H 55.2926 1.94726 -0.0822488 0
M  V30 499 H 54.3886 2.92336 1.09298 0
M  V30 500 N 54.6897 -0.239769 1.55765 0
M  V30 501 C 55.9147 -0.988373 1.82335 0
M  V30 502 C 56.3397 -1.77886 0.611421 0
M  V30 503 O 55.6977 -1.75889 -0.439639 0
M  V30 504 C 55.7457 -1.89627 3.06715 0
M  V30 505 O 54.8497 -2.98904 2.84131 0
M  V30 506 H 54.1907 -0.280858 0.601677 0
M  V30 507 H 56.7207 -0.258597 2.02959 0
M  V30 508 H 56.7307 -2.30957 3.36338 0
M  V30 509 H 55.4057 -1.31511 3.9456 0
M  V30 510 H 53.9827 -2.61651 2.65694 0
M  V30 511 N 56.1678 -1.49265 -0.50573 0
M  V30 512 C 57.3928 -1.62478 -1.28902 0
M  V30 513 C 57.8178 -0.294332 -1.85783 0
M  V30 514 O 57.1758 0.737412 -1.65626 0
M  V30 515 C 57.2238 -2.69268 -2.39848 0
M  V30 516 O 56.3278 -2.28113 -3.43567 0
M  V30 517 H 55.6688 -0.54399 -0.380751 0
M  V30 518 H 58.1988 -1.95421 -0.605952 0
M  V30 519 H 58.2088 -2.91291 -2.85681 0
M  V30 520 H 56.8838 -3.65846 -1.97812 0
M  V30 521 H 55.4608 -2.16401 -3.03685 0
M  V30 522 N 57.6459 0.756429 -1.3826 0
M  V30 523 C 58.9229 1.50584 -1.24835 0
M  V30 524 C 59.3029 2.10556 0.151485 0
M  V30 525 O 58.6509 1.96825 1.1607 0
M  V30 526 C 58.8609 2.57448 -2.3563 0
M  V30 527 C 60.2089 3.24429 -2.73917 0
M  V30 528 O 61.2329 2.67751 -2.34921 0
M  V30 529 O 60.0919 4.26937 -3.41156 0
M  V30 530 H 57.1859 0.667664 -0.48801 0
M  V30 531 H 59.7319 0.792083 -1.5008 0
M  V30 532 H 58.5039 2.11362 -3.29305 0
M  V30 533 H 58.1269 3.36408 -2.11933 0
M  V30 534 N 59.124 1.23083 0.984299 0
M  V30 535 C 60.087 1.00979 2.05757 0
M  V30 536 C 61.087 -0.0269573 1.60777 0
M  V30 537 O 62.277 0.212403 1.729 0
M  V30 538 C 59.409 0.527072 3.36801 0
M  V30 539 H 60.602 1.9622 2.26799 0
M  V30 540 H 58.155 1.05072 1.15714 0
M  V30 541 H 58.89 -0.429294 3.21446 0
M  V30 542 H 58.675 1.27515 3.70786 0
M  V30 543 H 60.165 0.392942 4.15747 0
M  V30 544 N 60.6021 -1.18246 1.0419 0
M  V30 545 C 61.8271 -1.92736 0.765996 0
M  V30 546 C 62.2521 -1.75728 -0.67091 0
M  V30 547 O 61.6101 -1.06825 -1.46486 0
M  V30 548 C 61.6581 -3.42148 1.13875 0
M  V30 549 O 60.7621 -4.11548 0.264954 0
M  V30 550 H 60.1031 -0.601238 0.281797 0
M  V30 551 H 62.6331 -1.49942 1.39207 0
M  V30 552 H 62.6431 -3.92858 1.1012 0
M  V30 553 H 61.3181 -3.53848 2.18551 0
M  V30 554 H 59.8951 -3.71137 0.362226 0
M  V30 555 N 62.0802 -0.821533 -1.34494 0
M  V30 556 C 63.3282 -0.408139 -1.97936 0
M  V30 557 C 63.6492 1.03193 -1.65457 0
M  V30 558 O 62.9192 1.71622 -0.944595 0
M  V30 559 H 61.4992 -0.147928 -0.732206 0
M  V30 560 H 64.1612 -1.05067 -1.64155 0
M  V30 561 H 63.2572 -0.52601 -3.07635 0
M  V30 562 N 63.5583 1.46682 -0.576371 0
M  V30 563 C 64.8063 2.02013 -0.0594163 0
M  V30 564 C 65.1273 1.45101 1.30271 0
M  V30 565 O 64.3973 0.633317 1.8538 0
M  V30 566 H 62.9773 0.746759 -0.0189745 0
M  V30 567 H 65.6393 1.79862 -0.750717 0
M  V30 568 H 64.7353 3.12097 0.014345 0
M  V30 569 N 65.0364 0.313813 1.54444 0
M  V30 570 C 66.2834 -0.291675 2.00388 0
M  V30 571 C 66.6114 -1.52904 1.2021 0
M  V30 572 O 65.8664 -1.93833 0.269707 0
M  V30 573 C 66.1654 -0.680386 3.50864 0
M  V30 574 C 65.8314 0.456699 4.48581 0
M  V30 575 C 64.4934 0.768824 4.75018 0
M  V30 576 C 66.8454 1.22098 5.06697 0
M  V30 577 C 64.1734 1.84812 5.56831 0
M  V30 578 C 66.5254 2.29029 5.89685 0
M  V30 579 C 65.1894 2.60834 6.14428 0
M  V30 580 H 64.4594 -0.106732 0.733273 0
M  V30 581 H 67.1064 0.43557 1.86481 0
M  V30 582 H 65.4114 -1.48791 3.62448 0
M  V30 583 H 67.1084 -1.16026 3.83847 0
M  V30 584 H 63.6984 0.203337 4.28117 0
M  V30 585 H 67.8824 0.993096 4.86263 0
M  V30 586 H 63.1384 2.09912 5.74236 0
M  V30 587 H 67.3124 2.887 6.33739 0
M  V30 588 H 64.9394 3.44596 6.77612 0
M  V30 589 N 66.5145 -1.57545 0.0417849 0
M  V30 590 C 67.7625 -1.91937 -0.632829 0
M  V30 591 C 68.0835 -0.919978 -1.71934 0
M  V30 592 O 67.3535 0.0366064 -1.95866 0
M  V30 593 H 65.9335 -0.708493 -0.236742 0
M  V30 594 H 68.5955 -1.9468 0.0925745 0
M  V30 595 H 67.6915 -2.92912 -1.07746 0
M  V30 596 N 67.9926 0.231505 -1.5589 0
M  V30 597 C 68.9226 1.29022 -1.94617 0
M  V30 598 C 69.9036 1.4941 -0.813067 0
M  V30 599 O 71.0886 1.6176 -1.07459 0
M  V30 600 C 68.2186 2.64199 -2.25424 0
M  V30 601 C 67.1726 2.58484 -3.41131 0
M  V30 602 C 66.4986 3.97599 -3.57518 0
M  V30 603 C 67.7986 2.1413 -4.76388 0
M  V30 604 H 69.4926 0.968563 -2.83301 0
M  V30 605 H 67.0386 0.464479 -1.36303 0
M  V30 606 H 68.9916 3.38413 -2.51107 0
M  V30 607 H 67.7156 2.98032 -1.33583 0
M  V30 608 H 66.3746 1.86727 -3.15481 0
M  V30 609 H 66.0226 4.28723 -2.6307 0
M  V30 610 H 65.7226 3.94659 -4.35337 0
M  V30 611 H 67.2466 4.7349 -3.85538 0
M  V30 612 H 68.6606 2.78083 -5.01341 0
M  V30 613 H 67.0576 2.2227 -5.57419 0
M  V30 614 H 68.1276 1.09331 -4.72414 0
M  V30 615 N 69.4707 1.49531 0.497807 0
M  V30 616 C 70.4337 1.65916 1.58128 0
M  V30 617 C 71.4337 0.530825 1.51786 0
M  V30 618 O 72.6237 0.797342 1.54881 0
M  V30 619 C 69.7557 1.65951 2.9778 0
M  V30 620 H 70.9487 2.62556 1.44929 0
M  V30 621 H 68.5017 1.38611 0.722275 0
M  V30 622 H 69.2367 0.709065 3.16453 0
M  V30 623 H 69.0217 2.47897 3.03792 0
M  V30 624 H 70.5117 1.80673 3.76493 0
M  V30 625 N 70.9488 -0.749086 1.3866 0
M  V30 626 C 71.8788 -1.8764 1.38973 0
M  V30 627 C 72.8598 -1.68178 0.255004 0
M  V30 628 O 74.0448 -1.88704 0.458754 0
M  V30 629 C 71.1748 -3.25222 1.21851 0
M  V30 630 C 70.1288 -3.59295 2.32575 0
M  V30 631 C 69.4548 -4.95663 2.00555 0
M  V30 632 C 70.7548 -3.63709 3.7485 0
M  V30 633 H 72.4488 -1.87635 2.3331 0
M  V30 634 H 69.9948 -0.901329 1.12303 0
M  V30 635 H 71.9478 -4.03746 1.20695 0
M  V30 636 H 70.6718 -3.25719 0.239775 0
M  V30 637 H 69.3308 -2.83093 2.32925 0
M  V30 638 H 68.9788 -4.92724 1.01154 0
M  V30 639 H 68.6788 -5.19429 2.74714 0
M  V30 640 H 70.2028 -5.7656 2.01024 0
M  V30 641 H 71.6168 -4.32338 3.76506 0
M  V30 642 H 70.0138 -3.98986 4.48252 0
M  V30 643 H 71.0838 -2.63834 4.06841 0
M  V30 644 N 72.4269 -1.23603 -0.977757 0
M  V30 645 C 73.6749 -1.06759 -1.71601 0
M  V30 646 C 73.9959 0.395929 -1.90938 0
M  V30 647 O 73.2659 1.28356 -1.47992 0
M  V30 648 H 71.8459 -0.392062 -0.635843 0
M  V30 649 H 74.5079 -1.55362 -1.1768 0
M  V30 650 H 73.6039 -1.55763 -2.70452 0
M  V30 651 N 73.905 1.17692 -1.04816 0
M  V30 652 C 75.133 1.91786 -0.776254 0
M  V30 653 C 75.548 1.76604 0.667577 0
M  V30 654 O 74.905 1.10067 1.45573 0
M  V30 655 C 74.956 3.42967 -1.14263 0
M  V30 656 O 74.677 3.57678 -2.52978 0
M  V30 657 C 76.178 4.34144 -0.896311 0
M  V30 658 H 73.398 0.608624 -0.282519 0
M  V30 659 H 75.942 1.49268 -1.39783 0
M  V30 660 H 74.097 3.83245 -0.565874 0
M  V30 661 H 74.511 4.51319 -2.67229 0
M  V30 662 H 75.985 5.38744 -1.20244 0
M  V30 663 H 76.462 4.38876 0.168636 0
M  V30 664 H 77.068 3.99574 -1.45672 0
M  V30 665 N 75.3831 0.828654 1.34056 0
M  V30 666 C 76.3331 0.226828 2.26869 0
M  V30 667 C 77.3171 -0.612243 1.48796 0
M  V30 668 O 78.5091 -0.465884 1.70759 0
M  V30 669 C 75.6381 -0.605654 3.37915 0
M  V30 670 C 74.7241 0.244361 4.23395 0
M  V30 671 N 75.1151 1.31815 4.88322 0
M  V30 672 C 73.4131 0.0296616 4.4599 0
M  V30 673 C 74.1141 1.83895 5.51867 0
M  V30 674 N 73.0901 1.14196 5.3147 0
M  V30 675 H 76.8921 1.04811 2.74576 0
M  V30 676 H 74.4061 0.67205 1.47842 0
M  V30 677 H 76.4031 -1.05302 4.03382 0
M  V30 678 H 75.0631 -1.42504 2.91758 0
M  V30 679 H 76.0741 1.70099 4.8917 0
M  V30 680 H 72.7511 -0.757097 4.10578 0
M  V30 681 H 74.1411 2.7376 6.136 0
M  V30 682 N 76.8612 -1.46375 0.584142 0
M  V30 683 C 77.8242 -2.28784 -0.138108 0
M  V30 684 C 78.8242 -1.38471 -0.817462 0
M  V30 685 O 80.0142 -1.60833 -0.669199 0
M  V30 686 C 77.1462 -3.18892 -1.20503 0
M  V30 687 H 78.3392 -2.94117 0.586127 0
M  V30 688 H 75.8922 -1.52509 0.342171 0
M  V30 689 H 76.6272 -2.58309 -1.96079 0
M  V30 690 H 76.4122 -3.85388 -0.722384 0
M  V30 691 H 77.9022 -3.80914 -1.71155 0
M  V30 692 N 78.3393 -0.321999 -1.54275 0
M  V30 693 C 79.2873 0.560206 -2.25753 0
M  V30 694 C 80.2813 1.11984 -1.27106 0
M  V30 695 O 81.4873 1.06806 -1.44888 0
M  V30 696 H 77.8623 0.199304 -0.725108 0
M  V30 697 H 79.8333 -0.0649365 -2.98329 0
M  V30 698 C 78.5823 1.71023 -3.02731 0
M  V30 699 H 77.9053 1.28885 -3.78456 0
M  V30 700 H 79.3453 2.30314 -3.55993 0
M  V30 701 C 77.8043 2.62692 -2.10938 0
M  V30 702 O 78.3343 3.64364 -1.6912 0
M  V30 703 N 76.5403 2.30891 -1.76459 0
M  V30 704 H 76.0873 1.48253 -2.10663 0
M  V30 705 H 76.0453 2.92487 -1.1532 0
M  V30 706 N 79.8174 1.5752 -0.0501392 0
M  V30 707 C 81.0654 1.9227 0.622642 0
M  V30 708 C 81.3864 0.929083 1.71444 0
M  V30 709 O 80.6564 -0.0262186 1.95882 0
M  V30 710 H 79.2364 0.709739 0.232981 0
M  V30 711 H 81.8984 1.94628 -0.102898 0
M  V30 712 H 80.9944 2.93479 1.06191 0
M  V30 713 N 81.2955 -0.223234 1.56011 0
M  V30 714 C 82.2255 -1.27988 1.95298 0
M  V30 715 C 83.2065 -1.48976 0.820979 0
M  V30 716 O 84.3915 -1.61188 1.08315 0
M  V30 717 C 81.5215 -2.63 2.26822 0
M  V30 718 C 80.4755 -2.56671 3.42497 0
M  V30 719 C 79.8015 -3.95697 3.59622 0
M  V30 720 C 81.1015 -2.11601 4.77517 0
M  V30 721 H 82.7955 -0.953525 2.8381 0
M  V30 722 H 80.3415 -0.457244 1.36548 0
M  V30 723 H 82.2945 -3.37077 2.52898 0
M  V30 724 H 81.0185 -2.9732 1.35161 0
M  V30 725 H 79.6775 -1.85051 3.16467 0
M  V30 726 H 79.3255 -4.27322 2.6534 0
M  V30 727 H 79.0255 -3.92345 4.37424 0
M  V30 728 H 80.5495 -4.71438 3.88044 0
M  V30 729 H 81.9635 -2.7542 5.02809 0
M  V30 730 H 80.3605 -2.19311 5.5859 0
M  V30 731 H 81.4305 -1.06824 4.72987 0
M  V30 732 N 82.7736 -1.49793 -0.48987 0
M  V30 733 C 84.0506 -1.50348 -1.25119 0
M  V30 734 C 84.4306 -0.237466 -2.0976 0
M  V30 735 O 83.7786 0.77981 -2.14782 0
M  V30 736 C 83.9886 -2.78872 -2.09837 0
M  V30 737 C 85.3366 -3.288 -2.68655 0
M  V30 738 O 86.3606 -2.80065 -2.20096 0
M  V30 739 O 85.2196 -4.13707 -3.57083 0
M  V30 740 H 82.3136 -0.602242 -0.566775 0
M  V30 741 H 84.8596 -1.62067 -0.503229 0
M  V30 742 H 83.6316 -3.62499 -1.47343 0
M  V30 743 H 83.2546 -2.70066 -2.91805 0
M  V30 744 N 84.2517 0.741722 -1.39055 0
M  V30 745 C 85.4767 1.53607 -1.39354 0
M  V30 746 C 85.9017 1.88096 0.0116905 0
M  V30 747 O 85.2597 1.5143 0.996924 0
M  V30 748 C 85.3077 2.80441 -2.26682 0
M  V30 749 O 84.4117 3.76088 -1.69208 0
M  V30 750 H 83.7527 0.464142 -0.474835 0
M  V30 751 H 86.2827 0.915665 -1.82967 0
M  V30 752 H 86.2927 3.29246 -2.40959 0
M  V30 753 H 84.9677 2.5467 -3.2881 0
M  V30 754 H 83.5447 3.34833 -1.64138 0
M  V30 755 N 85.7298 1.2412 0.971189 0
M  V30 756 C 87.1408 1.07236 1.52831 0
M  V30 757 C 87.4918 -0.357352 1.92918 0
M  V30 758 O 86.6168 -1.24528 1.76979 0
M  V30 759 C 87.2118 1.94043 2.77728 0
M  V30 760 C 85.7708 1.81394 3.29808 0
M  V30 761 C 84.9178 1.89189 2.02738 0
M  V30 762 H 87.8688 1.37648 0.789864 0
M  V30 763 H 87.8898 1.47066 3.5093 0
M  V30 764 H 87.4018 2.98093 2.4852 0
M  V30 765 H 85.5028 0.801634 3.63874 0
M  V30 766 H 85.6158 2.65294 3.98944 0
M  V30 767 H 83.9798 1.32877 2.17292 0
M  V30 768 H 84.7628 2.94812 1.759 0
M  V30 769 N 87.2079 -1.17134 1.05439 0
M  V30 770 C 88.6189 -1.69084 0.791676 0
M  V30 771 C 88.9699 -1.83822 -0.685839 0
M  V30 772 O 88.0949 -1.52757 -1.53278 0
M  V30 773 C 88.6899 -3.07119 1.4305 0
M  V30 774 C 87.2489 -3.56225 1.21577 0
M  V30 775 C 86.3959 -2.32421 1.51247 0
M  V30 776 H 89.3469 -1.01617 1.219 0
M  V30 777 H 89.3679 -3.71087 0.84112 0
M  V30 778 H 88.8799 -2.9636 2.50584 0
M  V30 779 H 86.9809 -3.72257 0.159787 0
M  V30 780 H 87.0939 -4.38837 1.92246 0
M  V30 781 H 85.4579 -2.3701 0.932653 0
M  V30 782 H 86.2409 -2.24268 2.5992 0
M  V30 783 N 88.686 -0.835752 -1.33615 0
M  V30 784 C 89.619 -0.211815 -2.27215 0
M  V30 785 C 90.597 0.639249 -1.49507 0
M  V30 786 O 91.781 0.600193 -1.78689 0
M  V30 787 C 88.908 0.702893 -3.31326 0
M  V30 788 C 87.954 -0.0723049 -4.26439 0
M  V30 789 S 88.787 -1.42811 -5.16106 0
M  V30 790 C 89.943 -0.518613 -6.23748 0
M  V30 791 H 90.176 -1.00533 -2.79786 0
M  V30 792 H 87.709 -0.632336 -1.40858 0
M  V30 793 H 89.667 1.22505 -3.91794 0
M  V30 794 H 88.328 1.47004 -2.77576 0
M  V30 795 H 87.521 0.62359 -5.00127 0
M  V30 796 H 87.123 -0.525424 -3.70291 0
M  V30 797 H 89.415 0.284778 -6.76901 0
M  V30 798 H 90.358 -1.22556 -6.97413 0
M  V30 799 H 90.766 -0.101344 -5.64409 0
M  V30 800 N 90.1641 1.46063 -0.591896 0
M  V30 801 C 91.4111 2.02338 -0.0809991 0
M  V30 802 C 91.7391 1.46228 1.28249 0
M  V30 803 O 90.9941 0.620818 1.85592 0
M  V30 804 C 91.2931 3.57391 0.0249813 0
M  V30 805 C 90.9591 4.32583 -1.27211 0
M  V30 806 C 89.6211 4.52844 -1.62745 0
M  V30 807 C 91.9731 4.75687 -2.13005 0
M  V30 808 C 89.3011 5.13462 -2.83855 0
M  V30 809 C 91.6531 5.37644 -3.3335 0
M  V30 810 C 90.3171 5.5613 -3.69155 0
M  V30 811 H 89.5871 0.740407 -0.0296397 0
M  V30 812 H 92.2341 1.75321 -0.770374 0
M  V30 813 H 90.5391 3.83597 0.797537 0
M  V30 814 H 92.2361 3.98621 0.436184 0
M  V30 815 H 88.8261 4.17116 -0.985499 0
M  V30 816 H 93.0101 4.59782 -1.86855 0
M  V30 817 H 88.2661 5.25965 -3.11722 0
M  V30 818 H 92.4401 5.7 -4.00092 0
M  V30 819 H 90.0671 6.0287 -4.63089 0
M  V30 820 N 91.6422 0.330177 1.54103 0
M  V30 821 C 92.6052 -0.520144 2.2322 0
M  V30 822 C 93.6052 -1.03828 1.22786 0
M  V30 823 O 94.7952 -0.929652 1.4732 0
M  V30 824 C 91.9272 -1.72317 2.94142 0
M  V30 825 H 93.1202 0.0841605 2.99782 0
M  V30 826 H 90.6732 0.0813433 1.56088 0
M  V30 827 H 91.4082 -2.36653 2.21734 0
M  V30 828 H 91.1932 -1.35898 3.67796 0
M  V30 829 H 92.6832 -2.3266 3.46784 0
M  V30 830 N 93.1203 -1.57491 0.0584922 0
M  V30 831 C 94.3683 -1.92597 -0.612436 0
M  V30 832 C 94.6893 -0.938162 -1.70949 0
M  V30 833 O 93.9593 0.0158301 -1.95894 0
M  V30 834 H 92.5393 -0.710964 -0.229214 0
M  V30 835 H 95.2013 -1.94571 0.113218 0
M  V30 836 H 94.2973 -2.94038 -1.04633 0
M  V30 837 N 94.5984 0.214957 -1.56127 0
M  V30 838 C 95.5614 1.24997 -1.92116 0
M  V30 839 C 96.5614 1.39467 -0.800344 0
M  V30 840 O 97.7514 1.37619 -1.06802 0
M  V30 841 C 94.8834 2.62271 -2.17777 0
M  V30 842 H 96.0764 0.942875 -2.84693 0
M  V30 843 H 93.6294 0.455654 -1.49511 0
M  V30 844 H 94.3644 2.98068 -1.27773 0
M  V30 845 H 94.1494 2.53143 -2.99434 0
M  V30 846 H 95.6394 3.36946 -2.46693 0
M  V30 847 N 96.0765 1.50051 0.48192 0
M  V30 848 C 97.3245 1.60181 1.23234 0
M  V30 849 C 97.6455 0.299176 1.92691 0
M  V30 850 O 96.9155 -0.682708 1.83619 0
M  V30 851 H 95.4955 0.590232 0.457859 0
M  V30 852 H 98.1575 1.86775 0.556881 0
M  V30 853 H 97.2535 2.40753 1.98607 0
M  V30 854 N 97.5546 -0.734337 1.39446 0
M  V30 855 C 98.4846 -1.86155 1.40955 0
M  V30 856 C 99.4656 -1.67898 0.272827 0
M  V30 857 O 100.651 -1.88207 0.478743 0
M  V30 858 C 97.7806 -3.23912 1.25294 0
M  V30 859 C 96.7346 -3.56808 2.36373 0
M  V30 860 C 96.0606 -4.93508 2.058 0
M  V30 861 C 97.3606 -3.59713 3.78687 0
M  V30 862 H 99.0546 -1.8515 2.35287 0
M  V30 863 H 96.6006 -0.889367 1.13253 0
M  V30 864 H 98.5536 -4.02443 1.2497 0
M  V30 865 H 97.2776 -3.25446 0.274308 0
M  V30 866 H 95.9366 -2.80606 2.35914 0
M  V30 867 H 95.5846 -4.91623 1.06374 0
M  V30 868 H 95.2846 -5.16486 2.80208 0
M  V30 869 H 96.8086 -5.74396 2.07128 0
M  V30 870 H 98.2226 -4.2832 3.81071 0
M  V30 871 H 96.6196 -3.94209 4.52459 0
M  V30 872 H 97.6896 -2.59504 4.09617 0
M  V30 873 N 99.0327 -1.24633 -0.964593 0
M  V30 874 C 100.281 -1.08573 -1.70459 0
M  V30 875 C 100.602 0.375655 -1.91347 0
M  V30 876 O 99.8717 1.26779 -1.49345 0
M  V30 877 H 98.4517 -0.398784 -0.631649 0
M  V30 878 H 101.114 -1.56601 -1.16026 0
M  V30 879 H 100.21 -1.58623 -2.68785 0
M  V30 880 N 100.511 1.16574 -1.06058 0
M  V30 881 C 101.759 1.86677 -0.77434 0
M  V30 882 C 102.08 1.81959 0.701147 0
M  V30 883 O 101.35 1.2515 1.50713 0
M  V30 884 H 99.9298 0.691134 -0.283449 0
M  V30 885 H 102.592 1.41378 -1.34158 0
M  V30 886 H 101.688 2.92181 -1.09711 0
M  V30 887 N 101.989 0.842826 1.3317 0
M  V30 888 C 103.217 0.454055 2.01856 0
M  V30 889 C 103.632 -0.94587 1.63397 0
M  V30 890 O 102.989 -1.61534 0.849302 0
M  V30 891 C 103.04 0.569715 3.56982 0
M  V30 892 O 102.761 1.91448 3.94055 0
M  V30 893 C 104.262 0.178412 4.42941 0
M  V30 894 H 101.482 0.17979 0.646465 0
M  V30 895 H 104.026 1.1365 1.70012 0
M  V30 896 H 102.181 -0.0648587 3.87346 0
M  V30 897 H 102.595 1.90282 4.88767 0
M  V30 898 H 104.069 0.310376 5.51127 0
M  V30 899 H 104.546 -0.880056 4.30293 0
M  V30 900 H 105.152 0.787579 4.17944 0
M  V30 901 N 103.467 -1.45747 0.599634 0
M  V30 902 C 104.878 -1.85853 0.177681 0
M  V30 903 C 105.229 -1.50102 -1.26348 0
M  V30 904 O 104.354 -0.923905 -1.95686 0
M  V30 905 C 104.949 -3.37326 0.315688 0
M  V30 906 C 103.508 -3.76365 -0.0515144 0
M  V30 907 C 102.655 -2.69722 0.643822 0
M  V30 908 H 105.606 -1.36661 0.806814 0
M  V30 909 H 105.627 -3.77778 -0.454321 0
M  V30 910 H 105.139 -3.63315 1.36468 0
M  V30 911 H 103.24 -3.55993 -1.09999 0
M  V30 912 H 103.353 -4.77916 0.336594 0
M  V30 913 H 101.717 -2.54567 0.0822881 0
M  V30 914 H 102.5 -2.98549 1.6948 0
M  V30 915 N 104.945 -0.338344 -1.53925 0
M  V30 916 C 106.185 0.260168 -2.02737 0
M  V30 917 C 106.549 1.48181 -1.22092 0
M  V30 918 O 107.75 2.15416 -1.60777 0
M  V30 919 C 106.021 0.571627 -3.52799 0
M  V30 920 S 107.58 1.14769 -4.23525 0
M  V30 921 H 104.398 0.077791 -0.706732 0
M  V30 922 H 107 -0.474899 -1.89644 0
M  V30 923 H 105.704 -0.325392 -4.09108 0
M  V30 924 H 105.235 1.3365 -3.70002 0
M  V30 925 H 107.25 2.43372 -4.32417 0
M  V30 926 N 106.423 1.57458 -0.0668435 0
M  V30 927 C 107.839 1.56947 0.289772 0
M  V30 928 C 108.039 1.07584 1.70376 0
M  V30 929 O 107.095 0.739486 2.41429 0
M  V30 930 C 108.408 3.0052 0.103943 0
M  V30 931 C 109.956 3.12517 0.173857 0
M  V30 932 C 110.431 4.57997 0.0163682 0
M  V30 933 N 111.922 4.63144 0.0721352 0
M  V30 934 C 112.657 5.73394 -0.0253794 0
M  V30 935 N 112.153 6.92576 -0.176133 0
M  V30 936 N 113.946 5.62091 0.0313305 0
M  V30 937 H 106.097 1.87863 -0.991027 0
M  V30 938 H 108.36 0.86583 -0.38606 0
M  V30 939 H 108.066 3.40729 -0.871572 0
M  V30 940 H 107.94 3.67304 0.858366 0
M  V30 941 H 110.327 2.72197 1.13985 0
M  V30 942 H 110.408 2.48381 -0.611586 0
M  V30 943 H 110.052 4.99005 -0.946374 0
M  V30 944 H 109.982 5.20158 0.821153 0
M  V30 945 H 112.473 3.77436 0.187263 0
M  V30 946 H 112.786 7.72418 -0.242821 0
M  V30 947 H 111.131 6.94678 -0.211429 0
M  V30 948 H 114.322 4.67867 0.147773 0
M  V30 949 H 114.495 6.47982 -0.048121 0
M  V30 950 N 107.901 -0.206675 1.56239 0
M  V30 951 C 108.848 -1.25617 1.93621 0
M  V30 952 C 109.818 -1.45824 0.795274 0
M  V30 953 O 111.003 -1.59148 1.05245 0
M  V30 954 C 108.143 -2.59839 2.27107 0
M  V30 955 C 107.256 -2.47308 3.54207 0
M  V30 956 C 106.391 -3.74155 3.7707 0
M  V30 957 C 105.43 -3.56407 4.97635 0
M  V30 958 N 104.567 -4.75238 5.1681 0
M  V30 959 H 109.407 -0.930383 2.83104 0
M  V30 960 H 106.944 -0.448065 1.4011 0
M  V30 961 H 108.902 -3.38021 2.44535 0
M  V30 962 H 107.532 -2.90485 1.40778 0
M  V30 963 H 106.584 -1.60483 3.4489 0
M  V30 964 H 107.896 -2.30122 4.42544 0
M  V30 965 H 107.05 -4.60778 3.94675 0
M  V30 966 H 105.789 -3.94282 2.87042 0
M  V30 967 H 104.794 -2.68168 4.79964 0
M  V30 968 H 106.019 -3.37736 5.89161 0
M  V30 969 H 103.965 -4.95651 4.29728 0
M  V30 970 H 103.882 -4.60835 5.99306 0
M  V30 971 H 105.15 -5.63246 5.38864 0
M  V30 972 N 109.379 -1.50304 -0.473955 0
M  V30 973 C 110.604 -1.65175 -1.25427 0
M  V30 974 C 111.029 -0.333673 -1.85117 0
M  V30 975 O 110.387 0.702114 -1.67153 0
M  V30 976 C 110.435 -2.74295 -2.34082 0
M  V30 977 O 109.539 -2.35349 -3.38651 0
M  V30 978 H 108.88 -0.551944 -0.369126 0
M  V30 979 H 111.41 -1.96662 -0.564364 0
M  V30 980 H 111.42 -2.97285 -2.79438 0
M  V30 981 H 110.095 -3.69959 -1.90008 0
M  V30 982 H 108.672 -2.22794 -2.99027 0
M  V30 983 N 110.857 0.726932 -1.39834 0
M  V30 984 C 112.087 1.51393 -1.40583 0
M  V30 985 C 112.495 1.892 -0.000740625 0
M  V30 986 O 111.838 1.55189 0.982951 0
M  V30 987 C 111.9 2.82588 -2.22226 0
M  V30 988 C 111.564 2.67169 -3.70769 0
M  V30 989 C 112.561 2.3518 -4.63666 0
M  V30 990 C 110.246 2.83788 -4.14451 0
M  V30 991 C 112.24 2.20002 -5.98229 0
M  V30 992 C 109.927 2.68229 -5.49087 0
M  V30 993 C 110.925 2.36382 -6.4079 0
M  V30 994 O 110.613 2.2093 -7.72946 0
M  V30 995 H 110.345 0.474168 -0.48181 0
M  V30 996 H 112.899 0.905247 -1.84376 0
M  V30 997 H 111.129 3.45746 -1.73195 0
M  V30 998 H 112.818 3.44247 -2.15055 0
M  V30 999 H 113.584 2.21984 -4.31217 0
M  V30 1000 H 109.463 3.07566 -3.43401 0
M  V30 1001 H 113.007 1.95067 -6.69772 0
M  V30 1002 H 108.904 2.81006 -5.81125 0
M  V30 1003 H 109.672 2.35937 -7.83757 0
M  V30 1004 N 112.336 1.25143 0.95797 0
M  V30 1005 C 113.246 1.06968 2.08794 0
M  V30 1006 C 114.262 0.00773911 1.73998 0
M  V30 1007 O 115.438 0.207972 2.00323 0
M  V30 1008 C 112.503 0.68691 3.39827 0
M  V30 1009 C 111.564 1.82641 3.88511 0
M  V30 1010 C 110.797 1.46181 5.1329 0
M  V30 1011 O 111.02 0.355971 5.69288 0
M  V30 1012 O 109.954 2.29085 5.566 0
M  V30 1013 H 113.78 2.01723 2.27027 0
M  V30 1014 H 111.365 1.04051 1.07209 0
M  V30 1015 H 113.247 0.485417 4.18595 0
M  V30 1016 H 111.922 -0.231417 3.22872 0
M  V30 1017 H 110.829 2.08274 3.10762 0
M  V30 1018 H 112.162 2.72386 4.09959 0
M  V30 1019 N 113.814 -1.1601 1.06675 0
M  V30 1020 C 115.091 -1.82679 0.699114 0
M  V30 1021 C 115.471 -1.94559 -0.819137 0
M  V30 1022 O 114.819 -1.49169 -1.73092 0
M  V30 1023 C 115.029 -3.19445 1.40555 0
M  V30 1024 C 116.377 -3.95171 1.55323 0
M  V30 1025 O 117.401 -3.28976 1.36577 0
M  V30 1026 O 116.26 -5.13833 1.86112 0
M  V30 1027 H 113.354 -0.788954 0.247951 0
M  V30 1028 H 115.9 -1.23179 1.16726 0
M  V30 1029 H 114.672 -3.05856 2.44065 0
M  V30 1030 H 114.295 -3.86625 0.927733 0
M  V30 1031 N 115.292 -0.849877 -1.32721 0
M  V30 1032 C 116.532 -0.457146 -1.99222 0
M  V30 1033 C 116.896 0.968038 -1.6581 0
M  V30 1034 O 118.097 1.46507 -2.25364 0
M  V30 1035 C 116.368 -0.683966 -3.50794 0
M  V30 1036 S 117.927 -0.388095 -4.3708 0
M  V30 1037 H 114.745 -0.171464 -0.690015 0
M  V30 1038 H 117.347 -1.10155 -1.61512 0
M  V30 1039 H 116.051 -1.72038 -3.726 0
M  V30 1040 H 115.582 -0.0258086 -3.93392 0
M  V30 1041 H 117.597 0.787791 -4.89906 0
M  V30 1042 N 116.77 1.45427 -0.607355 0
M  V30 1043 C 117.733 2.28974 0.101693 0
M  V30 1044 C 118.733 1.39754 0.795329 0
M  V30 1045 O 119.923 1.61878 0.643527 0
M  V30 1046 C 117.055 3.20768 1.15414 0
M  V30 1047 H 118.248 2.93147 -0.632844 0
M  V30 1048 H 115.801 1.51945 -0.366391 0
M  V30 1049 H 116.536 2.61395 1.91945 0
M  V30 1050 H 116.321 3.86489 0.66098 0
M  V30 1051 H 117.811 3.83589 1.65073 0
M  V30 1052 N 118.248 0.346503 1.53744 0
M  V30 1053 C 119.473 -0.253074 2.0585 0
M  V30 1054 C 119.898 -1.43202 1.21962 0
M  V30 1055 O 119.256 -1.79783 0.234073 0
M  V30 1056 C 119.304 -0.643193 3.54817 0
M  V30 1057 O 118.408 -1.74286 3.73762 0
M  V30 1058 H 117.749 -0.0413583 0.662711 0
M  V30 1059 H 120.279 0.501574 1.98357 0
M  V30 1060 H 120.289 -0.919526 3.97503 0
M  V30 1061 H 118.964 0.218966 4.15323 0
M  V30 1062 H 117.541 -1.46356 3.42979 0
M  V30 1063 N 119.726 -1.57421 0.075193 0
M  V30 1064 C 120.974 -1.93236 -0.591974 0
M  V30 1065 C 121.295 -0.956241 -1.69944 0
M  V30 1066 O 120.565 -0.00494792 -1.95899 0
M  V30 1067 H 119.145 -0.713355 -0.22166 0
M  V30 1068 H 121.807 -1.9444 0.133848 0
M  V30 1069 H 120.903 -2.95131 -1.01509 0
M  V30 1070 N 121.204 0.198386 -1.56346 0
M  V30 1071 C 122.453 0.917451 -1.79627 0
M  V30 1072 C 122.766 1.8456 -0.64784 0
M  V30 1073 O 123.972 2.60504 -0.764859 0
M  V30 1074 C 122.428 1.68175 -3.18191 0
M  V30 1075 C 122.036 0.798589 -4.40825 0
M  V30 1076 C 123.78 2.39065 -3.50782 0
M  V30 1077 C 121.687 1.56157 -5.70411 0
M  V30 1078 H 120.617 0.346317 -0.669762 0
M  V30 1079 H 123.268 0.170801 -1.82703 0
M  V30 1080 H 121.65 2.47216 -3.09354 0
M  V30 1081 H 122.824 0.0470665 -4.60776 0
M  V30 1082 H 121.139 0.200686 -4.15916 0
M  V30 1083 H 123.736 2.96692 -4.44835 0
M  V30 1084 H 124.079 3.13091 -2.74371 0
M  V30 1085 H 124.612 1.66993 -3.61052 0
M  V30 1086 H 121.351 0.864142 -6.49779 0
M  V30 1087 H 120.871 2.2871 -5.54483 0
M  V30 1088 H 122.55 2.11622 -6.11412 0
M  V30 1089 N 122.682 1.50554 0.465978 0
M  V30 1090 C 123.615 1.64436 1.58227 0
M  V30 1091 C 124.593 0.492367 1.54966 0
M  V30 1092 O 125.777 0.712536 1.74514 0
M  V30 1093 C 122.904 1.63165 2.96808 0
M  V30 1094 C 121.95 2.83987 3.18204 0
M  V30 1095 S 122.783 4.45219 2.97557 0
M  V30 1096 C 123.939 4.46649 4.3847 0
M  V30 1097 H 124.172 2.58861 1.46213 0
M  V30 1098 H 121.705 1.3988 0.653678 0
M  V30 1099 H 123.663 1.63116 3.76701 0
M  V30 1100 H 122.324 0.69967 3.06208 0
M  V30 1101 H 121.517 2.79416 4.19455 0
M  V30 1102 H 121.119 2.81629 2.46092 0
M  V30 1103 H 123.411 4.20526 5.31191 0
M  V30 1104 H 124.354 5.48295 4.48082 0
M  V30 1105 H 124.762 3.76296 4.20787 0
M  V30 1106 N 124.16 -0.719506 1.40217 0
M  V30 1107 C 125.07 -1.86378 1.42479 0
M  V30 1108 C 126.086 -1.71073 0.317834 0
M  V30 1109 O 127.262 -1.93406 0.561794 0
M  V30 1110 C 124.327 -3.22136 1.28178 0
M  V30 1111 C 123.388 -3.49723 2.48982 0
M  V30 1112 C 122.621 -4.79004 2.35353 0
M  V30 1113 O 122.844 -5.53821 1.36524 0
M  V30 1114 O 121.778 -5.06839 3.2465 0
M  V30 1115 H 125.604 -1.87425 2.38968 0
M  V30 1116 H 123.189 -0.869405 1.21498 0
M  V30 1117 H 125.071 -4.03234 1.22395 0
M  V30 1118 H 123.746 -3.21825 0.347934 0
M  V30 1119 H 122.653 -2.6865 2.60342 0
M  V30 1120 H 123.986 -3.54828 3.41113 0
M  V30 1121 N 125.638 -1.25649 -0.95132 0
M  V30 1122 C 126.915 -1.01361 -1.67288 0
M  V30 1123 C 127.295 0.459135 -2.06046 0
M  V30 1124 O 126.643 1.43723 -1.7764 0
M  V30 1125 C 126.853 -1.95256 -2.89268 0
M  V30 1126 C 128.201 -2.23289 -3.61147 0
M  V30 1127 O 129.225 -1.93041 -2.99355 0
M  V30 1128 O 128.084 -2.74741 -4.72419 0
M  V30 1129 H 125.178 -0.38464 -0.732107 0
M  V30 1130 H 127.724 -1.36817 -1.00395 0
M  V30 1131 H 126.496 -2.94685 -2.57442 0
M  V30 1132 H 126.119 -1.60218 -3.6389 0
M  V30 1133 N 127.117 1.15442 -1.07289 0
M  V30 1134 C 128.342 1.90638 -0.816828 0
M  V30 1135 C 128.767 1.77445 0.624083 0
M  V30 1136 O 128.125 1.10671 1.43602 0
M  V30 1137 C 128.173 3.39008 -1.22906 0
M  V30 1138 O 127.277 4.10701 -0.373975 0
M  V30 1139 H 126.618 0.593555 -0.297638 0
M  V30 1140 H 129.148 1.46198 -1.43134 0
M  V30 1141 H 129.158 3.89801 -1.20497 0
M  V30 1142 H 127.833 3.47929 -2.27856 0
M  V30 1143 H 126.41 3.70046 -0.460499 0
M  V30 1144 N 128.595 0.856903 1.32268 0
M  V30 1145 C 129.558 0.308171 2.27119 0
M  V30 1146 C 130.558 -0.533421 1.51695 0
M  V30 1147 O 131.748 -0.344607 1.70757 0
M  V30 1148 C 128.88 -0.563757 3.36206 0
M  V30 1149 H 130.073 1.14535 2.77167 0
M  V30 1150 H 127.626 0.631421 1.42978 0
M  V30 1151 H 128.361 -1.42266 2.91429 0
M  V30 1152 H 128.146 0.0386749 3.92081 0
M  V30 1153 H 129.636 -0.940386 4.06874 0
M  V30 1154 N 130.073 -1.45103 0.615059 0
M  V30 1155 C 131.322 -2.01396 0.110718 0
M  V30 1156 C 131.635 -1.48834 -1.26916 0
M  V30 1157 O 132.841 -1.97152 -1.86664 0
M  V30 1158 C 131.297 -3.59599 0.14723 0
M  V30 1159 C 130.905 -4.21158 1.52743 0
M  V30 1160 C 132.649 -4.23428 -0.30148 0
M  V30 1161 C 130.556 -5.71535 1.51992 0
M  V30 1162 H 129.486 -0.753061 0.0376241 0
M  V30 1163 H 132.137 -1.66494 0.77149 0
M  V30 1164 H 130.519 -3.91724 -0.580339 0
M  V30 1165 H 131.693 -4.00594 2.2773 0
M  V30 1166 H 130.008 -3.69552 1.91886 0
M  V30 1167 H 132.605 -5.33703 -0.326392 0
M  V30 1168 H 132.948 -3.94629 -1.32565 0
M  V30 1169 H 133.481 -3.96047 0.373065 0
M  V30 1170 H 130.22 -6.05044 2.52193 0
M  V30 1171 H 129.74 -5.94268 0.81274 0
M  V30 1172 H 131.419 -6.34873 1.24681 0
M  V30 1173 N 131.551 -0.354651 -1.53558 0
M  V30 1174 C 132.498 0.496968 -2.25386 0
M  V30 1175 C 133.468 1.0865 -1.25636 0
M  V30 1176 O 134.653 1.12104 -1.54394 0
M  V30 1177 C 131.793 1.63637 -3.03837 0
M  V30 1178 C 130.906 1.07307 -4.18461 0
M  V30 1179 C 130.041 2.18068 -4.84376 0
M  V30 1180 C 129.08 1.59147 -5.91049 0
M  V30 1181 N 128.217 2.63695 -6.50699 0
M  V30 1182 H 133.057 -0.122075 -2.9775 0
M  V30 1183 H 130.594 -0.0720154 -1.46924 0
M  V30 1184 H 132.552 2.30734 -3.47589 0
M  V30 1185 H 131.182 2.22623 -2.33749 0
M  V30 1186 H 130.234 0.292708 -3.79272 0
M  V30 1187 H 131.546 0.602193 -4.95152 0
M  V30 1188 H 130.7 2.93007 -5.31255 0
M  V30 1189 H 129.439 2.68504 -4.07133 0
M  V30 1190 H 128.444 0.827175 -5.43542 0
M  V30 1191 H 129.669 1.09549 -6.70206 0
M  V30 1192 H 127.615 3.13365 -5.76315 0
M  V30 1193 H 127.532 2.21263 -7.22896 0
M  V30 1194 H 128.8 3.3837 -7.02229 0
M  V30 1195 N 133.029 1.57378 -0.0835403 0
M  V30 1196 C 134.269 1.95808 0.586381 0
M  V30 1197 C 134.633 0.963706 1.66062 0
M  V30 1198 O 135.834 1.23608 2.38693 0
M  V30 1199 C 134.105 3.38808 1.13771 0
M  V30 1200 S 135.664 3.99225 1.82112 0
M  V30 1201 H 132.482 0.684675 0.191679 0
M  V30 1202 H 135.084 1.94843 -0.160194 0
M  V30 1203 H 133.788 4.08954 0.344197 0
M  V30 1204 H 133.319 3.43344 1.92038 0
M  V30 1205 H 135.334 3.87087 3.10449 0
M  V30 1206 N 134.507 -0.190092 1.56449 0
M  V30 1207 C 135.417 -1.25591 1.98152 0
M  V30 1208 C 136.433 -1.49519 0.889944 0
M  V30 1209 O 137.609 -1.62036 1.19609 0
M  V30 1210 C 134.674 -2.57916 2.3169 0
M  V30 1211 C 133.735 -2.42015 3.5458 0
M  V30 1212 C 132.968 -3.6803 3.8651 0
M  V30 1213 O 133.191 -4.72413 3.1966 0
M  V30 1214 O 132.125 -3.6326 4.79923 0
M  V30 1215 H 135.951 -0.931988 2.89046 0
M  V30 1216 H 133.536 -0.395488 1.4407 0
M  V30 1217 H 135.418 -3.36008 2.54316 0
M  V30 1218 H 134.093 -2.89925 1.43963 0
M  V30 1219 H 133 -1.62017 3.37196 0
M  V30 1220 H 134.333 -2.14937 4.4279 0
M  V30 1221 N 135.985 -1.50799 -0.457987 0
M  V30 1222 C 137.215 -1.65977 -1.23025 0
M  V30 1223 C 137.623 -0.347918 -1.85974 0
M  V30 1224 O 136.966 0.68148 -1.70592 0
M  V30 1225 C 137.028 -2.70309 -2.3701 0
M  V30 1226 C 136.692 -4.135 -1.94594 0
M  V30 1227 C 137.689 -4.98949 -1.46101 0
M  V30 1228 C 135.374 -4.5949 -2.02915 0
M  V30 1229 C 137.368 -6.28442 -1.06489 0
M  V30 1230 C 135.055 -5.88984 -1.62914 0
M  V30 1231 C 136.053 -6.73286 -1.1478 0
M  V30 1232 O 135.741 -8.00362 -0.75339 0
M  V30 1233 H 135.473 -0.56064 -0.377702 0
M  V30 1234 H 138.027 -1.97857 -0.551537 0
M  V30 1235 H 136.257 -2.337 -3.08093 0
M  V30 1236 H 137.946 -2.74574 -2.98938 0
M  V30 1237 H 138.712 -4.6463 -1.39084 0
M  V30 1238 H 134.591 -3.94009 -2.39328 0
M  V30 1239 H 138.135 -6.94194 -0.688488 0
M  V30 1240 H 134.032 -6.22822 -1.69595 0
M  V30 1241 H 134.8 -8.13744 -0.88108 0
M  V30 1242 N 137.463 0.71206 -1.40597 0
M  V30 1243 C 138.396 1.83582 -1.35546 0
M  V30 1244 C 139.374 1.61032 -0.225284 0
M  V30 1245 O 140.558 1.83998 -0.409519 0
M  V30 1246 C 137.685 3.19983 -1.11034 0
M  V30 1247 C 136.731 3.61355 -2.2655 0
M  V30 1248 S 137.564 3.68062 -3.88961 0
M  V30 1249 C 138.72 5.07216 -3.66719 0
M  V30 1250 H 138.953 1.87586 -2.30648 0
M  V30 1251 H 136.486 0.879182 -1.26924 0
M  V30 1252 H 138.444 3.98734 -0.975761 0
M  V30 1253 H 137.105 3.13608 -0.175798 0
M  V30 1254 H 136.298 4.60403 -2.0505 0
M  V30 1255 H 135.9 2.8987 -2.36329 0
M  V30 1256 H 138.192 5.94238 -3.25404 0
M  V30 1257 H 139.135 5.33753 -4.6531 0
M  V30 1258 H 139.543 4.77976 -3.00332 0
M  V30 1259 N 138.941 1.26152 0.944643 0
M  V30 1260 C 139.871 1.09902 2.06019 0
M  V30 1261 C 140.852 0.00519538 1.70099 0
M  V30 1262 O 142.037 0.176583 1.93396 0
M  V30 1263 C 139.167 0.727562 3.39594 0
M  V30 1264 C 138.121 1.77274 3.89561 0
M  V30 1265 C 137.447 1.25569 5.19747 0
M  V30 1266 C 138.747 3.17357 4.14827 0
M  V30 1267 H 140.441 2.03217 2.19871 0
M  V30 1268 H 137.987 0.978452 1.05652 0
M  V30 1269 H 139.94 0.600777 4.17095 0
M  V30 1270 H 138.664 -0.241287 3.25707 0
M  V30 1271 H 137.323 1.88814 3.14237 0
M  V30 1272 H 136.971 0.276783 5.02238 0
M  V30 1273 H 136.671 1.95433 5.54148 0
M  V30 1274 H 138.195 1.1415 5.99835 0
M  V30 1275 H 139.609 3.08914 4.82954 0
M  V30 1276 H 138.006 3.84781 4.60504 0
M  V30 1277 H 139.076 3.63673 3.20734 0
M  V30 1278 N 140.419 -1.14872 1.07899 0
M  V30 1279 C 141.367 -2.21857 0.698727 0
M  V30 1280 C 142.361 -1.66845 -0.293086 0
M  V30 1281 O 143.567 -1.79321 -0.156204 0
M  V30 1282 H 139.942 -0.722691 0.207899 0
M  V30 1283 H 141.913 -2.51205 1.61054 0
M  V30 1284 C 140.662 -3.47498 0.11858 0
M  V30 1285 H 139.985 -3.90154 0.872914 0
M  V30 1286 H 141.425 -4.23858 -0.109759 0
M  V30 1287 C 139.884 -3.16947 -1.1422 0
M  V30 1288 O 140.414 -3.3426 -2.22785 0
M  V30 1289 N 138.62 -2.70946 -1.05055 0
M  V30 1290 H 138.167 -2.57058 -0.167038 0
M  V30 1291 H 138.125 -2.50879 -1.89491 0
M  V30 1292 N 141.898 -0.863906 -1.31812 0
M  V30 1293 C 142.861 -0.320212 -2.26952 0
M  V30 1294 C 143.861 0.525369 -1.51975 0
M  V30 1295 O 145.051 0.335547 -1.70938 0
M  V30 1296 C 142.183 0.545919 -3.365 0
M  V30 1297 H 143.376 -1.16004 -2.76556 0
M  V30 1298 H 140.929 -0.638995 -1.42641 0
M  V30 1299 H 141.664 1.40718 -2.92179 0
M  V30 1300 H 141.449 -0.0594674 -3.92055 0
M  V30 1301 H 142.939 0.918796 -4.07367 0
M  V30 1302 N 143.376 1.44774 -0.622745 0
M  V30 1303 C 144.625 2.01334 -0.121397 0
M  V30 1304 C 144.938 1.49505 1.26125 0
M  V30 1305 O 146.144 1.98139 1.85616 0
M  V30 1306 C 144.6 3.59516 -0.166298 0
M  V30 1307 C 144.208 4.20342 -1.54974 0
M  V30 1308 C 145.952 4.23582 0.279021 0
M  V30 1309 C 143.859 5.70721 -1.55021 0
M  V30 1310 H 142.789 0.752851 -0.0416172 0
M  V30 1311 H 145.44 1.66083 -0.780309 0
M  V30 1312 H 143.822 3.92027 0.559557 0
M  V30 1313 H 144.996 3.99381 -2.29851 0
M  V30 1314 H 143.311 3.68529 -1.93843 0
M  V30 1315 H 145.908 5.33868 0.298083 0
M  V30 1316 H 146.251 3.95327 1.30471 0
M  V30 1317 H 146.784 3.95843 -0.394063 0
M  V30 1318 H 143.523 6.03698 -2.55399 0
M  V30 1319 H 143.043 5.93829 -0.844245 0
M  V30 1320 H 144.722 6.34203 -1.28047 0
M  V30 1321 N 144.854 0.36279 1.53368 0
M  V30 1322 C 146.265 -0.117022 1.86333 0
M  V30 1323 C 146.616 -1.48397 1.28347 0
M  V30 1324 O 145.741 -2.07787 0.604428 0
M  V30 1325 C 146.336 -0.21912 3.38091 0
M  V30 1326 C 144.895 -0.643184 3.70864 0
M  V30 1327 C 144.042 0.211318 2.76494 0
M  V30 1328 H 146.993 0.581687 1.47655 0
M  V30 1329 H 147.014 -1.04319 3.6592 0
M  V30 1330 H 146.526 0.775902 3.80265 0
M  V30 1331 H 144.627 -1.64654 3.34245 0
M  V30 1332 H 144.74 -0.41973 4.77258 0
M  V30 1333 H 143.104 -0.319367 2.5269 0
M  V30 1334 H 143.887 1.20383 3.21501 0
M  V30 1335 N 146.332 -1.57332 0.0918853 0
M  V30 1336 C 147.279 -2.13847 -0.868211 0
M  V30 1337 C 148.249 -1.05618 -1.28196 0
M  V30 1338 O 149.434 -1.33387 -1.36427 0
M  V30 1339 C 146.574 -2.72062 -2.12312 0
M  V30 1340 C 145.687 -3.94514 -1.7602 0
M  V30 1341 C 144.822 -4.40903 -2.96273 0
M  V30 1342 C 143.861 -5.55953 -2.56092 0
M  V30 1343 N 142.998 -5.97209 -3.69169 0
M  V30 1344 H 147.838 -2.95575 -0.379406 0
M  V30 1345 H 145.375 -1.46048 -0.175606 0
M  V30 1346 H 147.333 -3.03931 -2.858 0
M  V30 1347 H 145.963 -1.93068 -2.58698 0
M  V30 1348 H 145.015 -3.68979 -0.925135 0
M  V30 1349 H 146.327 -4.7802 -1.42472 0
M  V30 1350 H 145.481 -4.74539 -3.78018 0
M  V30 1351 H 144.22 -3.56291 -3.33029 0
M  V30 1352 H 143.225 -5.21948 -1.72773 0
M  V30 1353 H 144.45 -6.42311 -2.20484 0
M  V30 1354 H 142.396 -5.15543 -4.05649 0
M  V30 1355 H 142.313 -6.75504 -3.39456 0
M  V30 1356 H 143.581 -6.35475 -4.51434 0
M  V30 1357 N 147.81 0.181792 -1.56548 0
M  V30 1358 C 149.226 0.53316 -1.50431 0
M  V30 1359 C 149.426 1.85184 -0.794297 0
M  V30 1360 O 148.482 2.50058 -0.350318 0
M  V30 1361 C 149.795 0.575597 -2.9514 0
M  V30 1362 C 151.343 0.663519 -3.05886 0
M  V30 1363 C 151.818 0.736946 -4.52032 0
M  V30 1364 N 153.309 0.800118 -4.56237 0
M  V30 1365 C 154.044 0.877327 -5.66649 0
M  V30 1366 N 153.54 0.916016 -6.86718 0
M  V30 1367 N 155.333 0.915542 -5.54594 0
M  V30 1368 H 147.484 -0.683025 -2.01118 0
M  V30 1369 H 149.747 -0.244988 -0.915797 0
M  V30 1370 H 149.453 -0.324482 -3.502 0
M  V30 1371 H 149.327 1.42572 -3.49218 0
M  V30 1372 H 151.714 1.55403 -2.50867 0
M  V30 1373 H 151.795 -0.21307 -2.54911 0
M  V30 1374 H 151.439 -0.149262 -5.07681 0
M  V30 1375 H 151.369 1.62953 -5.00753 0
M  V30 1376 H 153.86 0.778926 -3.69785 0
M  V30 1377 H 154.173 0.975813 -7.66614 0
M  V30 1378 H 152.518 0.884469 -6.89349 0
M  V30 1379 H 155.709 0.882245 -4.59711 0
M  V30 1380 H 155.882 0.972253 -6.40665 0
M  V30 1381 N 149.288 1.51039 0.449983 0
M  V30 1382 C 150.218 1.74379 1.55288 0
M  V30 1383 C 151.199 0.593236 1.5942 0
M  V30 1384 O 152.384 0.834625 1.7535 0
M  V30 1385 C 149.514 1.85728 2.93466 0
M  V30 1386 C 148.468 3.01078 3.04197 0
M  V30 1387 C 147.794 2.97595 4.44231 0
M  V30 1388 C 149.094 4.41254 2.7945 0
M  V30 1389 H 150.788 2.66725 1.36008 0
M  V30 1390 H 148.334 1.2835 0.652864 0
M  V30 1391 H 150.287 2.0064 3.70569 0
M  V30 1392 H 149.011 0.900207 3.13949 0
M  V30 1393 H 147.67 2.85851 2.29531 0
M  V30 1394 H 147.318 1.99691 4.61663 0
M  V30 1395 H 147.018 3.75046 4.52343 0
M  V30 1396 H 148.542 3.14583 5.23326 0
M  V30 1397 H 149.956 4.56897 3.46292 0
M  V30 1398 H 148.353 5.20315 2.98985 0
M  V30 1399 H 149.423 4.52164 1.75144 0
M  V30 1400 N 150.766 -0.704594 1.40972 0
M  V30 1401 C 152.006 -1.47691 1.41304 0
M  V30 1402 C 152.37 -1.91992 0.0178582 0
M  V30 1403 O 153.571 -2.68599 -0.103996 0
M  V30 1404 C 151.842 -2.66254 2.38419 0
M  V30 1405 S 153.401 -3.55516 2.57204 0
M  V30 1406 H 150.219 -0.504808 0.500689 0
M  V30 1407 H 152.821 -0.822962 1.77335 0
M  V30 1408 H 151.525 -2.31897 3.38603 0
M  V30 1409 H 151.056 -3.3655 2.03711 0
M  V30 1410 H 153.071 -4.61115 1.83268 0
M  V30 1411 N 152.244 -1.26651 -0.937939 0
M  V30 1412 C 153.174 -1.10993 -2.05433 0
M  V30 1413 C 154.155 -0.0142161 -1.70094 0
M  V30 1414 O 155.34 -0.186837 -1.93299 0
M  V30 1415 C 152.47 -0.745561 -3.39203 0
M  V30 1416 C 151.424 -1.79337 -3.88616 0
M  V30 1417 C 150.75 -1.28324 -5.19073 0
M  V30 1418 C 152.05 -3.19553 -4.13138 0
M  V30 1419 H 153.744 -2.0438 -2.1879 0
M  V30 1420 H 151.29 -0.984041 -1.05131 0
M  V30 1421 H 153.243 -0.622888 -4.16771 0
M  V30 1422 H 151.967 0.22401 -3.25831 0
M  V30 1423 H 150.626 -1.90477 -3.13231 0
M  V30 1424 H 150.274 -0.303414 -5.02084 0
M  V30 1425 H 149.974 -1.98369 -5.53103 0
M  V30 1426 H 151.498 -1.1733 -5.99221 0
M  V30 1427 H 152.912 -3.11471 -4.81309 0
M  V30 1428 H 151.309 -3.87218 -4.58457 0
M  V30 1429 H 152.379 -3.65368 -3.18801 0
M  V30 1430 N 153.722 1.14298 -1.08507 0
M  V30 1431 C 154.968 1.85633 -0.816581 0
M  V30 1432 C 155.301 1.82784 0.656021 0
M  V30 1433 O 154.576 1.25926 1.48233 0
M  V30 1434 C 154.859 3.34223 -1.34041 0
M  V30 1435 C 154.712 3.45639 -2.87843 0
M  V30 1436 C 156.031 4.29356 -0.9665 0
M  V30 1437 H 153.15 0.67402 -0.298104 0
M  V30 1438 H 155.792 1.34214 -1.34487 0
M  V30 1439 H 153.942 3.78144 -0.89104 0
M  V30 1440 H 155.614 3.10498 -3.41158 0
M  V30 1441 H 153.857 2.86817 -3.25451 0
M  V30 1442 H 154.528 4.50089 -3.19569 0
M  V30 1443 H 157.004 3.93457 -1.35391 0
M  V30 1444 H 155.88 5.3178 -1.3602 0
M  V30 1445 H 156.141 4.41919 0.126362 0
M  V30 1446 N 155.201 0.870884 1.31352 0
M  V30 1447 C 156.441 0.488783 1.9847 0
M  V30 1448 C 156.805 -0.941536 1.67329 0
M  V30 1449 O 158.006 -1.42903 2.27667 0
M  V30 1450 C 156.277 0.739688 3.49662 0
M  V30 1451 S 157.836 0.457582 4.36408 0
M  V30 1452 H 154.654 0.18242 0.6872 0
M  V30 1453 H 157.256 1.12711 1.59739 0
M  V30 1454 H 155.96 1.77944 3.69816 0
M  V30 1455 H 155.491 0.0883905 3.93301 0
M  V30 1456 H 157.506 -0.709752 4.91098 0
M  V30 1457 N 156.679 -1.44442 0.630414 0
M  V30 1458 C 157.927 -2.01653 0.134351 0
M  V30 1459 C 158.248 -1.49836 -1.24796 0
M  V30 1460 O 157.518 -0.701684 -1.82902 0
M  V30 1461 H 156.098 -0.74554 0.0466769 0
M  V30 1462 H 158.76 -1.76952 0.816955 0
M  V30 1463 H 157.856 -3.11935 0.101498 0
M  V30 1464 N 158.157 -0.370918 -1.53173 0
M  V30 1465 C 159.434 0.273754 -1.93675 0
M  V30 1466 C 159.814 1.65938 -1.3049 0
M  V30 1467 O 159.162 2.23698 -0.465999 0
M  V30 1468 C 159.372 0.318602 -3.47543 0
M  V30 1469 C 160.72 0.556392 -4.20939 0
M  V30 1470 O 161.744 0.399587 -3.53952 0
M  V30 1471 O 160.603 0.862133 -5.39657 0
M  V30 1472 H 157.697 0.165448 -0.810281 0
M  V30 1473 H 160.243 -0.42409 -1.64315 0
M  V30 1474 H 159.015 -0.652687 -3.85818 0
M  V30 1475 H 158.638 1.06212 -3.83151 0
M  V30 1476 N 159.635 1.57281 -0.100228 0
M  V30 1477 C 160.884 1.93713 0.561984 0
M  V30 1478 C 161.197 0.984492 1.69018 0
M  V30 1479 O 162.403 1.24273 2.41389 0
M  V30 1480 C 160.859 3.4421 1.05106 0
M  V30 1481 C 160.467 4.47975 -0.0476628 0
M  V30 1482 C 162.211 3.89595 1.68571 0
M  V30 1483 C 160.118 5.89631 0.457055 0
M  V30 1484 H 159.048 0.723082 0.2137 0
M  V30 1485 H 161.699 1.82644 -0.177057 0
M  V30 1486 H 160.081 3.50449 1.84395 0
M  V30 1487 H 161.255 4.53385 -0.823333 0
M  V30 1488 H 159.57 4.1223 -0.587816 0
M  V30 1489 H 162.167 4.92832 2.07414 0
M  V30 1490 H 162.51 3.28526 2.55688 0
M  V30 1491 H 163.043 3.86078 0.958562 0
M  V30 1492 H 159.782 6.54411 -0.377616 0
M  V30 1493 H 159.302 5.87681 1.19962 0
M  V30 1494 H 160.981 6.40363 0.92437 0
M  V30 1495 N 161.113 -0.173488 1.56642 0
M  V30 1496 C 162.076 -1.19859 1.95362 0
M  V30 1497 C 163.076 -1.37296 0.83704 0
M  V30 1498 O 164.266 -1.34739 1.10413 0
M  V30 1499 C 161.398 -2.56405 2.24654 0
M  V30 1500 H 162.591 -0.867062 2.87092 0
M  V30 1501 H 160.144 -0.415853 1.50666 0
M  V30 1502 H 160.879 -2.94576 1.35631 0
M  V30 1503 H 160.664 -2.45115 3.06041 0
M  V30 1504 H 162.154 -3.30287 2.5554 0
M  V30 1505 N 162.591 -1.51276 -0.441967 0
M  V30 1506 C 163.816 -1.67799 -1.21895 0
M  V30 1507 C 164.241 -0.372864 -1.84367 0
M  V30 1508 O 163.599 0.666501 -1.68604 0
M  V30 1509 C 163.647 -2.79199 -2.28211 0
M  V30 1510 O 162.751 -2.42479 -3.33583 0
M  V30 1511 H 162.092 -0.559649 -0.357336 0
M  V30 1512 H 164.622 -1.97815 -0.522522 0
M  V30 1513 H 164.632 -3.03146 -2.73069 0
M  V30 1514 H 163.307 -3.73906 -1.82118 0
M  V30 1515 H 161.884 -2.29087 -2.94234 0
M  V30 1516 N 164.069 0.697108 -1.41344 0
M  V30 1517 C 165.317 1.45426 -1.40341 0
M  V30 1518 C 165.638 1.94996 -0.0128787 0
M  V30 1519 O 164.908 1.71599 0.945027 0
M  V30 1520 H 163.488 0.539594 -0.516573 0
M  V30 1521 H 166.15 0.825201 -1.76569 0
M  V30 1522 H 165.246 2.31817 -2.08967 0
M  V30 1523 N 165.547 1.27147 0.931209 0
M  V30 1524 C 166.777 1.15914 1.71019 0
M  V30 1525 C 167.185 -0.287112 1.87009 0
M  V30 1526 O 166.528 -1.20761 1.38429 0
M  V30 1527 C 166.59 1.76647 3.13107 0
M  V30 1528 C 166.254 3.25807 3.20467 0
M  V30 1529 C 167.251 4.22489 3.02983 0
M  V30 1530 C 164.936 3.66452 3.43538 0
M  V30 1531 C 166.93 5.57794 3.08454 0
M  V30 1532 C 164.617 5.01888 3.48643 0
M  V30 1533 C 165.615 5.97369 3.31119 0
M  V30 1534 O 165.303 7.30337 3.35952 0
M  V30 1535 H 165.035 0.404062 0.54195 0
M  V30 1536 H 167.589 1.68457 1.17521 0
M  V30 1537 H 165.819 1.18578 3.68071 0
M  V30 1538 H 167.508 1.60179 3.72958 0
M  V30 1539 H 168.274 3.92425 2.85004 0
M  V30 1540 H 164.153 2.92611 3.5623 0
M  V30 1541 H 167.697 6.32298 2.94694 0
M  V30 1542 H 163.594 5.31609 3.66145 0
M  V30 1543 H 164.362 7.38739 3.5243 0
M  V30 1544 N 167.025 -1.13721 1.09112 0
M  V30 1545 C 167.975 -2.17082 0.697091 0
M  V30 1546 C 168.959 -1.58321 -0.286923 0
M  V30 1547 O 170.151 -1.7673 -0.0978008 0
M  V30 1548 C 167.28 -3.43105 0.115729 0
M  V30 1549 C 166.366 -4.0888 1.12596 0
M  V30 1550 N 166.757 -4.4987 2.31195 0
M  V30 1551 C 165.055 -4.35471 0.963366 0
M  V30 1552 C 165.756 -5.01094 2.95431 0
M  V30 1553 N 164.732 -4.95751 2.23006 0
M  V30 1554 H 168.534 -2.46524 1.6001 0
M  V30 1555 H 166.048 -1.30481 0.966869 0
M  V30 1556 H 168.045 -4.16491 -0.184555 0
M  V30 1557 H 166.705 -3.15138 -0.78217 0
M  V30 1558 H 167.716 -4.42678 2.68806 0
M  V30 1559 H 164.393 -4.17328 0.119878 0
M  V30 1560 H 165.783 -5.4263 3.96236 0
M  V30 1561 N 168.503 -0.877838 -1.30888 0
M  V30 1562 C 169.733 -0.506678 -2.00291 0
M  V30 1563 C 170.141 0.907449 -1.66018 0
M  V30 1564 O 169.484 1.60719 -0.88967 0
M  V30 1565 C 169.546 -0.59323 -3.54572 0
M  V30 1566 C 169.21 -1.97038 -4.12341 0
M  V30 1567 C 170.207 -2.93889 -4.28865 0
M  V30 1568 C 167.892 -2.27383 -4.47886 0
M  V30 1569 C 169.886 -4.19224 -4.80136 0
M  V30 1570 C 167.573 -3.52965 -4.98857 0
M  V30 1571 C 168.571 -4.48701 -5.14934 0
M  V30 1572 O 168.259 -5.72056 -5.64808 0
M  V30 1573 H 167.991 -0.1951 -0.647234 0
M  V30 1574 H 170.545 -1.18301 -1.6791 0
M  V30 1575 H 168.775 0.140057 -3.86446 0
M  V30 1576 H 170.464 -0.234372 -4.05223 0
M  V30 1577 H 171.23 -2.71756 -4.01714 0
M  V30 1578 H 167.109 -1.53639 -4.34645 0
M  V30 1579 H 170.653 -4.93956 -4.92599 0
M  V30 1580 H 166.55 -3.74939 -5.25443 0
M  V30 1581 H 167.318 -5.74337 -5.83163 0
M  V30 1582 N 169.982 1.44106 -0.638065 0
M  V30 1583 C 171.23 2.01579 -0.145043 0
M  V30 1584 C 171.551 1.50496 1.24 0
M  V30 1585 O 170.821 0.711374 1.82527 0
M  V30 1586 H 169.401 0.745282 -0.05063 0
M  V30 1587 H 172.063 1.76516 -0.826327 0
M  V30 1588 H 171.159 3.11877 -0.118039 0
M  V30 1589 N 171.46 0.379036 1.52974 0
M  V30 1590 C 172.706 -0.206727 2.01744 0
M  V30 1591 C 173.039 -1.47314 1.26539 0
M  V30 1592 O 172.314 -1.91084 0.362903 0
M  V30 1593 C 172.597 -0.485066 3.56818 0
M  V30 1594 C 172.45 0.795919 4.42702 0
M  V30 1595 C 173.769 -1.28003 4.21074 0
M  V30 1596 H 170.888 -0.0736607 0.73331 0
M  V30 1597 H 173.53 0.506581 1.83122 0
M  V30 1598 H 171.68 -1.09272 3.72816 0
M  V30 1599 H 173.352 1.43307 4.38476 0
M  V30 1600 H 171.595 1.41344 4.10127 0
M  V30 1601 H 172.266 0.555947 5.49193 0
M  V30 1602 H 174.742 -0.765867 4.08991 0
M  V30 1603 H 173.618 -1.44352 5.29579 0
M  V30 1604 H 173.879 -2.29236 3.78026 0
M  V30 1605 N 172.938 -1.57226 0.108567 0
M  V30 1606 C 173.901 -2.13602 -0.831082 0
M  V30 1607 C 174.901 -1.06841 -1.20173 0
M  V30 1608 O 176.091 -1.32666 -1.12895 0
M  V30 1609 C 173.223 -2.66769 -2.12243 0
M  V30 1610 H 174.416 -2.97951 -0.341317 0
M  V30 1611 H 171.969 -1.55667 -0.14057 0
M  V30 1612 H 172.704 -1.85977 -2.65675 0
M  V30 1613 H 172.489 -3.44839 -1.86625 0
M  V30 1614 H 173.979 -3.10332 -2.79435 0
M  V30 1615 N 174.416 0.165178 -1.56732 0
M  V30 1616 C 175.641 0.900253 -1.86843 0
M  V30 1617 C 176.066 1.74766 -0.695596 0
M  V30 1618 O 175.424 1.77786 0.35522 0
M  V30 1619 C 175.472 1.74777 -3.15413 0
M  V30 1620 O 174.576 2.85007 -2.98068 0
M  V30 1621 H 173.917 0.251832 -0.614391 0
M  V30 1622 H 176.447 0.161468 -2.03962 0
M  V30 1623 H 176.457 2.14646 -3.46974 0
M  V30 1624 H 175.132 1.12537 -4.00385 0
M  V30 1625 H 173.709 2.48676 -2.77875 0
M  V30 1626 N 175.894 1.51508 0.433938 0
M  V30 1627 C 177.134 1.66006 1.19253 0
M  V30 1628 C 177.498 0.369868 1.88404 0
M  V30 1629 O 178.699 0.39066 2.65946 0
M  V30 1630 C 176.97 2.83229 2.17981 0
M  V30 1631 S 178.529 3.18075 3.02281 0
M  V30 1632 H 175.347 0.584821 0.404358 0
M  V30 1633 H 177.949 1.89425 0.48357 0
M  V30 1634 H 176.653 3.75407 1.65824 0
M  V30 1635 H 176.184 2.6201 2.93453 0
M  V30 1636 H 178.199 2.64772 4.19655 0
M  V30 1637 N 177.372 -0.689602 1.41712 0
M  V30 1638 C 178.282 -1.83314 1.46401 0
M  V30 1639 C 179.298 -1.7036 0.35405 0
M  V30 1640 O 180.474 -1.92171 0.602692 0
M  V30 1641 C 177.539 -3.19344 1.34982 0
M  V30 1642 C 176.6 -3.44363 2.56344 0
M  V30 1643 C 175.833 -4.73904 2.45461 0
M  V30 1644 O 176.056 -5.508 1.48241 0
M  V30 1645 O 174.99 -4.99839 3.35328 0
M  V30 1646 H 178.816 -1.82314 2.42889 0
M  V30 1647 H 176.401 -0.843438 1.23315 0
M  V30 1648 H 178.283 -4.00547 1.3092 0
M  V30 1649 H 176.958 -3.21014 0.41612 0
M  V30 1650 H 175.865 -2.63067 2.65982 0
M  V30 1651 H 177.198 -3.47512 3.48563 0
M  V30 1652 N 178.85 -1.27639 -0.924453 0
M  V30 1653 C 179.813 -1.10681 -2.00705 0
M  V30 1654 C 180.813 -0.0497823 -1.60723 0
M  V30 1655 O 182.003 -0.294654 -1.7169 0
M  V30 1656 C 179.135 -0.687164 -3.33902 0
M  V30 1657 H 180.328 -2.06817 -2.17179 0
M  V30 1658 H 177.881 -1.10473 -1.10569 0
M  V30 1659 H 178.616 0.275439 -3.23128 0
M  V30 1660 H 178.401 -1.45061 -3.6428 0
M  V30 1661 H 179.891 -0.590853 -4.13399 0
M  V30 1662 N 180.328 1.1314 -1.09713 0
M  V30 1663 C 181.568 1.8613 -0.844683 0
M  V30 1664 C 181.932 1.81765 0.618491 0
M  V30 1665 O 183.133 2.50024 0.98699 0
M  V30 1666 C 181.404 3.30151 -1.36877 0
M  V30 1667 S 182.963 4.206 -1.25064 0
M  V30 1668 H 179.781 0.642056 -0.305427 0
M  V30 1669 H 182.383 1.36343 -1.4011 0
M  V30 1670 H 181.087 3.30883 -2.42786 0
M  V30 1671 H 180.618 3.85 -0.808614 0
M  V30 1672 H 182.633 4.95783 -0.203486 0
M  V30 1673 N 181.806 0.884767 1.30421 0
M  V30 1674 C 182.753 0.349642 2.28136 0
M  V30 1675 C 183.723 -0.560061 1.56373 0
M  V30 1676 O 184.908 -0.488524 1.8444 0
M  V30 1677 C 182.048 -0.42999 3.42411 0
M  V30 1678 C 181.161 0.508907 4.28992 0
M  V30 1679 C 180.296 -0.286301 5.30428 0
M  V30 1680 C 179.335 0.648079 6.08659 0
M  V30 1681 N 178.472 -0.111792 7.02011 0
M  V30 1682 H 183.312 1.18807 2.73293 0
M  V30 1683 H 180.849 0.597231 1.3443 0
M  V30 1684 H 182.807 -0.897923 4.07423 0
M  V30 1685 H 181.437 -1.23299 2.98324 0
M  V30 1686 H 180.489 1.09533 3.64289 0
M  V30 1687 H 181.801 1.22475 4.8353 0
M  V30 1688 H 180.955 -0.816098 6.01186 0
M  V30 1689 H 179.694 -1.03536 4.76583 0
M  V30 1690 H 178.699 1.18951 5.36778 0
M  V30 1691 H 179.924 1.39623 6.64592 0
M  V30 1692 H 177.87 -0.843395 6.50556 0
M  V30 1693 H 177.787 0.544429 7.54037 0
M  V30 1694 H 179.055 -0.622339 7.77012 0
M  V30 1695 N 183.284 -1.43765 0.645699 0
M  V30 1696 C 184.247 -2.29163 -0.0409488 0
M  V30 1697 C 185.247 -1.41813 -0.757996 0
M  V30 1698 O 186.437 -1.63527 -0.600382 0
M  V30 1699 C 183.569 -3.23716 -1.06869 0
M  V30 1700 H 184.762 -2.91366 0.710345 0
M  V30 1701 H 182.315 -1.5092 0.406547 0
M  V30 1702 H 183.05 -2.66393 -1.84947 0
M  V30 1703 H 182.835 -3.88105 -0.558277 0
M  V30 1704 H 184.325 -3.87831 -1.54845 0
M  V30 1705 N 184.763 -0.387143 -1.52771 0
M  V30 1706 C 186.01 0.195735 -2.01552 0
M  V30 1707 C 186.338 1.46995 -1.27369 0
M  V30 1708 O 185.593 1.92325 -0.361879 0
M  V30 1709 C 185.892 0.512209 -3.53711 0
M  V30 1710 C 185.558 -0.670202 -4.45891 0
M  V30 1711 C 184.22 -0.994586 -4.70809 0
M  V30 1712 C 186.572 -1.46134 -5.00294 0
M  V30 1713 C 183.9 -2.11169 -5.4738 0
M  V30 1714 C 186.252 -2.56903 -5.78086 0
M  V30 1715 C 184.916 -2.89852 -6.01284 0
M  V30 1716 H 184.186 0.0716246 -0.73753 0
M  V30 1717 H 186.833 -0.524046 -1.8419 0
M  V30 1718 H 185.138 1.31329 -3.69134 0
M  V30 1719 H 186.835 0.975804 -3.88946 0
M  V30 1720 H 183.425 -0.407366 -4.2666 0
M  V30 1721 H 187.609 -1.22397 -4.80971 0
M  V30 1722 H 182.865 -2.3707 -5.63567 0
M  V30 1723 H 187.039 -3.18608 -6.19243 0
M  V30 1724 H 184.666 -3.76533 -6.60399 0
M  V30 1725 N 186.241 1.57166 -0.116904 0
M  V30 1726 C 187.488 1.95123 0.541603 0
M  V30 1727 C 187.816 1.00006 1.6682 0
M  V30 1728 O 187.071 0.0235658 1.95686 0
M  V30 1729 C 187.37 3.39508 1.11664 0
M  V30 1730 C 187.036 4.50762 0.111606 0
M  V30 1731 C 185.698 4.80918 -0.164758 0
M  V30 1732 C 188.05 5.18036 -0.573438 0
M  V30 1733 C 185.378 5.75666 -1.13249 0
M  V30 1734 C 187.73 6.13824 -1.52978 0
M  V30 1735 C 186.394 6.42374 -1.81415 0
M  V30 1736 H 185.664 0.714005 0.198187 0
M  V30 1737 H 188.311 1.9048 -0.197365 0
M  V30 1738 H 186.616 3.40835 1.93232 0
M  V30 1739 H 188.313 3.66189 1.63422 0
M  V30 1740 H 184.903 4.27272 0.337192 0
M  V30 1741 H 189.087 4.94896 -0.373092 0
M  V30 1742 H 184.343 5.96092 -1.35958 0
M  V30 1743 H 188.517 6.65039 -2.06629 0
M  V30 1744 H 186.144 7.15599 -2.56557 0
M  V30 1745 N 187.719 -0.156864 1.56817 0
M  V30 1746 C 188.666 -1.19394 1.97519 0
M  V30 1747 C 189.636 -1.4322 0.841265 0
M  V30 1748 O 190.821 -1.55719 1.10255 0
M  V30 1749 C 187.961 -2.52483 2.35258 0
M  V30 1750 C 187.074 -2.35914 3.61896 0
M  V30 1751 C 186.209 -3.61969 3.88782 0
M  V30 1752 C 185.248 -3.40395 5.08722 0
M  V30 1753 N 184.385 -4.58556 5.31668 0
M  V30 1754 H 189.225 -0.839845 2.85921 0
M  V30 1755 H 186.762 -0.403264 1.41464 0
M  V30 1756 H 188.72 -3.30071 2.55165 0
M  V30 1757 H 187.35 -2.85859 1.49949 0
M  V30 1758 H 186.402 -1.49429 3.49821 0
M  V30 1759 H 187.714 -2.15926 4.49641 0
M  V30 1760 H 186.868 -4.47989 4.09135 0
M  V30 1761 H 185.607 -3.84951 2.9944 0
M  V30 1762 H 184.612 -2.52763 4.88253 0
M  V30 1763 H 185.837 -3.18822 5.99608 0
M  V30 1764 H 183.783 -4.81729 4.45279 0
M  V30 1765 H 183.7 -4.41535 6.13664 0
M  V30 1766 H 184.968 -5.45817 5.5651 0
M  V30 1767 N 189.197 -1.51736 -0.425897 0
M  V30 1768 C 190.613 -1.40166 -0.76326 0
M  V30 1769 C 190.813 -0.492962 -1.95377 0
M  V30 1770 O 189.869 0.0475815 -2.52455 0
M  V30 1771 C 191.182 -2.82403 -1.03291 0
M  V30 1772 C 192.73 -2.91632 -1.13665 0
M  V30 1773 C 193.205 -4.34801 -1.43916 0
M  V30 1774 N 194.696 -4.3796 -1.50816 0
M  V30 1775 C 195.431 -5.4578 -1.75817 0
M  V30 1776 N 194.927 -6.63744 -1.98534 0
M  V30 1777 N 196.72 -5.33274 -1.77694 0
M  V30 1778 H 188.871 -2.09361 0.358 0
M  V30 1779 H 191.134 -0.942941 0.0978094 0
M  V30 1780 H 190.84 -3.50943 -0.230696 0
M  V30 1781 H 190.714 -3.22428 -1.95754 0
M  V30 1782 H 193.101 -2.23284 -1.92947 0
M  V30 1783 H 193.182 -2.55088 -0.190756 0
M  V30 1784 H 192.826 -5.03703 -0.65157 0
M  V30 1785 H 192.756 -4.68868 -2.39729 0
M  V30 1786 H 195.247 -3.52919 -1.35118 0
M  V30 1787 H 195.56 -7.41704 -2.17013 0
M  V30 1788 H 193.905 -6.66839 -1.95832 0
M  V30 1789 H 197.096 -4.40098 -1.59473 0
M  V30 1790 H 197.269 -6.1738 -1.9684 0
M  V30 1791 N 190.675 0.682077 -1.42076 0
M  V30 1792 C 191.903 1.47057 -1.4554 0
M  V30 1793 C 192.318 1.8869 -0.0645779 0
M  V30 1794 O 191.675 1.57666 0.919115 0
M  V30 1795 C 191.726 2.72442 -2.37609 0
M  V30 1796 O 191.447 2.32559 -3.71279 0
M  V30 1797 C 192.948 3.66069 -2.50017 0
M  V30 1798 H 190.168 0.452737 -0.495248 0
M  V30 1799 H 192.712 0.838695 -1.8651 0
M  V30 1800 H 190.867 3.31835 -1.9991 0
M  V30 1801 H 191.281 3.13475 -4.20516 0
M  V30 1802 H 192.755 4.50792 -3.18576 0
M  V30 1803 H 193.232 4.11476 -1.53572 0
M  V30 1804 H 193.838 3.12572 -2.88407 0
M  V30 1805 N 192.153 1.28127 0.917671 0
M  V30 1806 C 193.402 1.14432 1.66097 0
M  V30 1807 C 193.715 -0.307247 1.93172 0
M  V30 1808 O 194.921 -0.565259 2.65551 0
M  V30 1809 C 193.377 2.00015 2.99202 0
M  V30 1810 C 192.985 3.49889 2.79789 0
M  V30 1811 C 194.729 1.94996 3.77064 0
M  V30 1812 C 192.636 4.27636 4.08511 0
M  V30 1813 H 191.566 0.424662 0.62304 0
M  V30 1814 H 194.217 1.52628 1.01868 0
M  V30 1815 H 192.599 1.54672 3.64544 0
M  V30 1816 H 193.773 4.03162 2.23152 0
M  V30 1817 H 192.088 3.56392 2.15345 0
M  V30 1818 H 194.685 2.50354 4.72469 0
M  V30 1819 H 195.028 0.925819 4.05875 0
M  V30 1820 H 195.561 2.38287 3.18534 0
M  V30 1821 H 192.3 5.30615 3.84874 0
M  V30 1822 H 191.82 3.79137 4.64774 0
M  V30 1823 H 193.499 4.37346 4.76799 0
M  V30 1824 N 193.631 -1.12557 1.10312 0
M  V30 1825 C 194.563 -2.17971 0.708625 0
M  V30 1826 C 195.576 -1.60806 -0.254027 0
M  V30 1827 O 196.765 -1.78458 -0.0386891 0
M  V30 1828 C 193.865 -3.38891 0.0248198 0
M  V30 1829 C 193.038 -4.25548 1.01132 0
M  V30 1830 C 192.097 -5.24972 0.35924 0
M  V30 1831 O 191.123 -5.60174 1.00965 0
M  V30 1832 N 192.325 -5.73747 -0.882847 0
M  V30 1833 H 195.09 -2.52427 1.61557 0
M  V30 1834 H 192.651 -1.27967 0.991771 0
M  V30 1835 H 194.643 -4.02485 -0.422852 0
M  V30 1836 H 193.213 -3.02596 -0.784514 0
M  V30 1837 H 192.433 -3.58589 1.6373 0
M  V30 1838 H 193.721 -4.80294 1.67914 0
M  V30 1839 H 193.119 -5.4731 -1.43065 0
M  V30 1840 H 191.676 -6.39234 -1.27369 0
M  V30 1841 N 195.109 -0.891671 -1.2995 0
M  V30 1842 C 196.357 -0.512486 -1.95494 0
M  V30 1843 C 196.678 0.942776 -1.70695 0
M  V30 1844 O 195.948 1.66374 -1.03424 0
M  V30 1845 H 194.528 -0.186533 -0.723336 0
M  V30 1846 H 197.19 -1.13621 -1.58355 0
M  V30 1847 H 196.286 -0.688342 -3.04415 0
M  V30 1848 N 196.587 1.43421 -0.653314 0
M  V30 1849 C 197.535 2.32546 0.0501531 0
M  V30 1850 C 198.529 1.48617 0.812985 0
M  V30 1851 O 199.735 1.64825 0.723375 0
M  V30 1852 H 196.11 0.751185 0.0350032 0
M  V30 1853 H 198.081 2.89602 -0.719261 0
M  V30 1854 C 196.83 3.32925 1.00279 0
M  V30 1855 H 196.153 3.97532 0.425236 0
M  V30 1856 H 197.593 3.9792 1.46409 0
M  V30 1857 C 196.052 2.63532 2.09886 0
M  V30 1858 O 196.582 2.45092 3.18265 0
M  V30 1859 N 194.788 2.22905 1.86445 0
M  V30 1860 H 194.335 2.38103 0.98309 0
M  V30 1861 H 194.293 1.76805 2.59976 0
M  V30 1862 N 198.065 0.39524 1.52563 0
M  V30 1863 C 199.314 -0.186321 2.00838 0
M  V30 1864 C 199.627 -1.47402 1.28577 0
M  V30 1865 O 200.833 -2.13599 1.67593 0
M  V30 1866 C 199.289 -0.382595 3.57861 0
M  V30 1867 C 198.897 0.892202 4.39026 0
M  V30 1868 C 200.641 -0.9202 4.14406 0
M  V30 1869 C 198.548 0.66388 5.87662 0
M  V30 1870 H 197.478 -0.0734041 0.750418 0
M  V30 1871 H 200.129 0.518552 1.76021 0
M  V30 1872 H 198.511 -1.14946 3.7895 0
M  V30 1873 H 199.685 1.66414 4.29701 0
M  V30 1874 H 198 1.35519 3.9373 0
M  V30 1875 H 200.597 -1.10683 5.23119 0
M  V30 1876 H 200.94 -1.89096 3.70875 0
M  V30 1877 H 201.473 -0.212751 3.97231 0
M  V30 1878 H 198.212 1.6058 6.35527 0
M  V30 1879 H 197.732 -0.0690193 5.9976 0
M  V30 1880 H 199.411 0.300699 6.46301 0
M  V30 1881 N 199.544 -1.57102 0.125237 0
M  V30 1882 C 200.454 -2.19191 -0.8362 0
M  V30 1883 C 201.47 -1.16985 -1.28805 0
M  V30 1884 O 202.646 -1.49479 -1.34974 0
M  V30 1885 C 199.711 -2.78407 -2.06617 0
M  V30 1886 C 198.772 -3.9567 -1.66565 0
M  V30 1887 C 198.005 -4.52052 -2.83698 0
M  V30 1888 O 198.228 -4.07326 -3.99302 0
M  V30 1889 O 197.162 -5.42645 -2.60423 0
M  V30 1890 H 200.988 -3.01816 -0.337776 0
M  V30 1891 H 198.573 -1.4906 -0.100695 0
M  V30 1892 H 200.455 -3.16129 -2.7864 0
M  V30 1893 H 199.13 -1.9881 -2.55453 0
M  V30 1894 H 198.037 -3.62705 -0.916296 0
M  V30 1895 H 199.37 -4.76722 -1.22464 0
M  V30 1896 N 201.022 0.148545 -1.56898 0
M  V30 1897 C 202.252 0.875118 -1.8715 0
M  V30 1898 C 202.66 1.75322 -0.711262 0
M  V30 1899 O 202.003 1.80745 0.328151 0
M  V30 1900 C 202.065 1.7844 -3.12089 0
M  V30 1901 C 201.729 1.08361 -4.43967 0
M  V30 1902 C 202.726 0.438247 -5.1805 0
M  V30 1903 C 200.411 1.07358 -4.90693 0
M  V30 1904 C 202.405 -0.20779 -6.37061 0
M  V30 1905 C 200.092 0.42373 -6.09629 0
M  V30 1906 C 201.09 -0.215829 -6.82659 0
M  V30 1907 O 200.778 -0.855378 -7.99336 0
M  V30 1908 H 200.51 0.258504 -0.624621 0
M  V30 1909 H 203.064 0.14652 -2.04877 0
M  V30 1910 H 201.294 2.55389 -2.90367 0
M  V30 1911 H 202.983 2.38279 -3.286 0
M  V30 1912 H 203.749 0.437817 -4.8302 0
M  V30 1913 H 199.628 1.5608 -4.33774 0
M  V30 1914 H 203.172 -0.70758 -6.94002 0
M  V30 1915 H 199.069 0.421822 -6.4412 0
M  V30 1916 H 199.837 -0.756892 -8.14993 0
M  V30 1917 N 202.5 1.5196 0.417844 0
M  V30 1918 C 203.725 1.69717 1.1921 0
M  V30 1919 C 204.15 0.402148 1.83751 0
M  V30 1920 O 203.508 -0.639593 1.69643 0
M  V30 1921 C 203.556 2.82794 2.2374 0
M  V30 1922 O 202.66 2.47756 3.29683 0
M  V30 1923 H 202.001 0.565263 0.348387 0
M  V30 1924 H 204.531 1.98621 0.490985 0
M  V30 1925 H 204.541 3.07452 2.68212 0
M  V30 1926 H 203.216 3.76756 1.76146 0
M  V30 1927 H 201.793 2.33739 2.90552 0
M  V30 1928 N 203.978 -0.674533 1.42435 0
M  V30 1929 C 205.218 -1.4466 1.44405 0
M  V30 1930 C 205.582 -1.91911 0.0585784 0
M  V30 1931 O 206.783 -2.68759 -0.0469991 0
M  V30 1932 C 205.054 -2.61136 2.44013 0
M  V30 1933 S 206.613 -3.49981 2.64687 0
M  V30 1934 H 203.431 -0.494074 0.511284 0
M  V30 1935 H 206.033 -0.785162 1.7904 0
M  V30 1936 H 204.737 -2.24662 3.43446 0
M  V30 1937 H 204.268 -3.32153 2.10803 0
M  V30 1938 H 206.283 -4.57124 1.93007 0
M  V30 1939 N 205.456 -1.28612 -0.910864 0
M  V30 1940 C 206.867 -1.14406 -1.47541 0
M  V30 1941 C 207.218 0.264901 -1.94403 0
M  V30 1942 O 206.343 1.15942 -1.82719 0
M  V30 1943 C 206.938 -2.07073 -2.68153 0
M  V30 1944 C 205.497 -1.96923 -3.20778 0
M  V30 1945 C 204.644 -1.98646 -1.93481 0
M  V30 1946 H 207.595 -1.41259 -0.723291 0
M  V30 1947 H 207.616 -1.63642 -3.43514 0
M  V30 1948 H 207.128 -3.09611 -2.34015 0
M  V30 1949 H 205.229 -0.97433 -3.59635 0
M  V30 1950 H 205.342 -2.84026 -3.85832 0
M  V30 1951 H 203.706 -1.43093 -2.10705 0
M  V30 1952 H 204.489 -3.02868 -1.61634 0
M  V30 1953 N 206.934 1.1197 -1.10907 0
M  V30 1954 C 207.897 2.16031 -0.765707 0
M  V30 1955 C 208.897 1.59393 0.212235 0
M  V30 1956 O 210.087 1.74196 -0.0115441 0
M  V30 1957 C 207.219 3.40632 -0.135053 0
M  V30 1958 H 208.412 2.47919 -1.68748 0
M  V30 1959 H 205.965 1.27061 -0.910226 0
M  V30 1960 H 206.7 3.14348 0.797218 0
M  V30 1961 H 206.485 3.8302 -0.838937 0
M  V30 1962 H 207.975 4.17505 0.0892469 0
M  V30 1963 N 208.412 0.89855 1.29475 0
M  V30 1964 C 209.64 0.539261 1.99749 0
M  V30 1965 C 210.055 -0.875716 1.67262 0
M  V30 1966 O 209.412 -1.57786 0.917049 0
M  V30 1967 C 209.463 0.72061 3.54245 0
M  V30 1968 O 209.184 2.07989 3.8558 0
M  V30 1969 C 210.685 0.366118 4.41786 0
M  V30 1970 H 207.905 0.207047 0.638258 0
M  V30 1971 H 210.449 1.20758 1.65039 0
M  V30 1972 H 208.604 0.0994862 3.87272 0
M  V30 1973 H 209.018 2.10841 4.80257 0
M  V30 1974 H 210.492 0.543848 5.49314 0
M  V30 1975 H 210.969 -0.696763 4.33638 0
M  V30 1976 H 211.575 0.964135 4.14228 0
M  V30 1977 N 209.89 -1.43072 0.660911 0
M  V30 1978 C 210.838 -2.32569 -0.0378199 0
M  V30 1979 C 211.832 -1.49046 -0.805092 0
M  V30 1980 O 213.038 -1.65206 -0.714624 0
M  V30 1981 H 209.413 -0.75136 -0.031019 0
M  V30 1982 H 211.384 -2.89216 0.734609 0
M  V30 1983 C 210.133 -3.33453 -0.985124 0
M  V30 1984 H 209.456 -3.97752 -0.404147 0
M  V30 1985 H 210.896 -3.98691 -1.44297 0
M  V30 1986 C 209.355 -2.64642 -2.08486 0
M  V30 1987 O 209.885 -2.46776 -3.16961 0
M  V30 1988 N 208.091 -2.23891 -1.8526 0
M  V30 1989 H 207.638 -2.38621 -0.970449 0
M  V30 1990 H 207.596 -1.78181 -2.59034 0
M  V30 1991 N 211.368 -0.403325 -1.52352 0
M  V30 1992 C 212.278 0.432009 -2.30588 0
M  V30 1993 C 213.294 1.05884 -1.38075 0
M  V30 1994 O 214.47 1.06161 -1.71148 0
M  V30 1995 C 211.535 1.53669 -3.10784 0
M  V30 1996 C 210.596 0.933525 -4.19027 0
M  V30 1997 C 209.829 1.98557 -4.9539 0
M  V30 1998 O 210.052 3.20283 -4.71991 0
M  V30 1999 O 208.986 1.59504 -5.80381 0
M  V30 2000 H 212.812 -0.205739 -3.03002 0
M  V30 2001 H 210.397 -0.166675 -1.48467 0
M  V30 2002 H 212.279 2.17814 -3.60742 0
M  V30 2003 H 210.954 2.15915 -2.41169 0
M  V30 2004 H 209.861 0.254954 -3.7323 0
M  V30 2005 H 211.194 0.35508 -4.90918 0
M  V30 2006 N 212.846 1.57033 -0.133567 0
M  V30 2007 C 214.086 1.97575 0.523789 0
M  V30 2008 C 214.45 1.01605 1.62912 0
M  V30 2009 O 215.651 1.3114 2.3464 0
M  V30 2010 C 213.922 3.42256 1.02935 0
M  V30 2011 S 215.481 4.04817 1.69319 0
M  V30 2012 H 212.299 0.690427 0.169799 0
M  V30 2013 H 214.901 1.94234 -0.222101 0
M  V30 2014 H 213.605 4.09842 0.213917 0
M  V30 2015 H 213.136 3.4928 1.81017 0
M  V30 2016 H 215.151 3.96767 2.97977 0
M  V30 2017 N 214.325 -0.140222 1.56975 0
M  V30 2018 C 215.235 -1.19223 2.02047 0
M  V30 2019 C 216.251 -1.46612 0.937062 0
M  V30 2020 O 217.427 -1.58148 1.24704 0
M  V30 2021 C 214.492 -2.50414 2.39778 0
M  V30 2022 C 213.553 -2.30612 3.621 0
M  V30 2023 C 212.786 -3.55547 3.98023 0
M  V30 2024 O 213.009 -4.62004 3.34528 0
M  V30 2025 O 211.943 -3.47808 4.91237 0
M  V30 2026 H 215.769 -0.839559 2.91865 0
M  V30 2027 H 213.354 -0.349453 1.45256 0
M  V30 2028 H 215.236 -3.27747 2.64877 0
M  V30 2029 H 213.911 -2.85198 1.53114 0
M  V30 2030 H 212.818 -1.51207 3.4218 0
M  V30 2031 H 214.151 -2.00741 4.49404 0
M  V30 2032 N 215.803 -1.52179 -0.40978 0
M  V30 2033 C 217.052 -1.65434 -1.15388 0
M  V30 2034 C 217.365 -0.390056 -1.91671 0
M  V30 2035 O 218.571 -0.402399 -2.68501 0
M  V30 2036 C 217.027 -2.92279 -2.10003 0
M  V30 2037 C 216.635 -4.25813 -1.39239 0
M  V30 2038 C 218.379 -3.14897 -2.84675 0
M  V30 2039 C 216.286 -5.43782 -2.32498 0
M  V30 2040 H 215.216 -0.616267 -0.434432 0
M  V30 2041 H 217.867 -1.78666 -0.418401 0
M  V30 2042 H 216.249 -2.72744 -2.871 0
M  V30 2043 H 217.423 -4.55828 -0.675099 0
M  V30 2044 H 215.738 -4.09292 -0.766097 0
M  V30 2045 H 218.335 -4.0021 -3.54593 0
M  V30 2046 H 218.678 -2.29103 -3.47588 0
M  V30 2047 H 219.211 -3.34901 -2.14677 0
M  V30 2048 H 215.95 -6.3192 -1.74233 0
M  V30 2049 H 215.47 -5.18106 -3.02201 0
M  V30 2050 H 217.149 -5.76834 -2.93038 0
M  V30 2051 N 217.281 0.66697 -1.42791 0
M  V30 2052 C 218.509 1.45505 -1.47091 0
M  V30 2053 C 218.924 1.8861 -0.0845873 0
M  V30 2054 O 218.281 1.58632 0.90234 0
M  V30 2055 C 218.332 2.69906 -2.40485 0
M  V30 2056 O 218.053 2.28608 -3.73725 0
M  V30 2057 C 219.554 3.63396 -2.53886 0
M  V30 2058 H 216.774 0.447459 -0.500022 0
M  V30 2059 H 219.318 0.818866 -1.8739 0
M  V30 2060 H 217.473 3.29696 -2.03419 0
M  V30 2061 H 217.887 3.08997 -4.23817 0
M  V30 2062 H 219.361 4.47387 -3.2334 0
M  V30 2063 H 219.838 4.09824 -1.57927 0
M  V30 2064 H 220.444 3.09495 -2.91706 0
M  V30 2065 N 218.759 1.29093 0.90403 0
M  V30 2066 C 219.706 1.13853 2.00764 0
M  V30 2067 C 220.676 0.0330084 1.66067 0
M  V30 2068 O 221.861 0.199733 1.89752 0
M  V30 2069 C 219.001 0.816537 3.35301 0
M  V30 2070 C 218.114 2.00206 3.82807 0
M  V30 2071 C 217.249 1.61983 5.059 0
M  V30 2072 C 216.288 2.77143 5.45764 0
M  V30 2073 N 215.425 2.39346 6.60044 0
M  V30 2074 H 220.265 2.08276 2.13132 0
M  V30 2075 H 217.802 1.03648 1.04381 0
M  V30 2076 H 219.76 0.610557 4.12708 0
M  V30 2077 H 218.39 -0.090779 3.22672 0
M  V30 2078 H 217.442 2.31988 3.01473 0
M  V30 2079 H 218.754 2.86512 4.08304 0
M  V30 2080 H 217.908 1.37649 5.90879 0
M  V30 2081 H 216.647 0.728202 4.82233 0
M  V30 2082 H 215.652 3.02165 4.59322 0
M  V30 2083 H 216.877 3.66964 5.71414 0
M  V30 2084 H 214.823 1.52665 6.37989 0
M  V30 2085 H 214.74 3.19185 6.85315 0
M  V30 2086 H 216.008 2.1832 7.48303 0
M  V30 2087 N 220.237 -1.11381 1.11499 0
M  V30 2088 C 221.653 -1.35143 0.849031 0
M  V30 2089 C 221.853 -1.94515 -0.525938 0
M  V30 2090 O 220.909 -2.1785 -1.27662 0
M  V30 2091 C 222.222 -2.28249 1.95762 0
M  V30 2092 C 223.77 -2.41812 1.98736 0
M  V30 2093 C 224.245 -3.3824 3.088 0
M  V30 2094 N 225.736 -3.45803 3.08179 0
M  V30 2095 C 226.471 -4.20358 3.89982 0
M  V30 2096 N 225.967 -4.97884 4.8175 0
M  V30 2097 N 227.76 -4.15877 3.78157 0
M  V30 2098 H 219.911 -0.712062 2.00109 0
M  V30 2099 H 222.174 -0.376025 0.870235 0
M  V30 2100 H 221.88 -1.91817 2.94787 0
M  V30 2101 H 221.754 -3.28473 1.85433 0
M  V30 2102 H 224.141 -2.77518 1.00338 0
M  V30 2103 H 224.222 -1.41437 2.13141 0
M  V30 2104 H 223.866 -3.03261 4.07425 0
M  V30 2105 H 223.796 -4.38471 2.91635 0
M  V30 2106 H 226.287 -2.90506 2.41691 0
M  V30 2107 H 226.6 -5.52142 5.40702 0
M  V30 2108 H 224.945 -4.97043 4.85771 0
M  V30 2109 H 228.136 -3.544 3.05808 0
M  V30 2110 H 228.309 -4.73723 4.42143 0
M  V30 2111 N 221.715 -0.905404 -1.28997 0
M  V30 2112 C 223.131 -0.60233 -1.47798 0
M  V30 2113 C 223.331 0.854645 -1.82478 0
M  V30 2114 O 222.387 1.63439 -1.92468 0
M  V30 2115 C 223.7 -1.53306 -2.58685 0
M  V30 2116 C 225.248 -1.53887 -2.72558 0
M  V30 2117 C 225.723 -2.45602 -3.86579 0
M  V30 2118 N 227.214 -2.43681 -3.93921 0
M  V30 2119 C 227.949 -3.11347 -4.81509 0
M  V30 2120 N 227.445 -3.88313 -5.73746 0
M  V30 2121 N 229.238 -3.00476 -4.75048 0
M  V30 2122 H 221.389 -1.84765 -1.04764 0
M  V30 2123 H 223.652 -0.792025 -0.520961 0
M  V30 2124 H 223.358 -2.57141 -2.39941 0
M  V30 2125 H 223.232 -1.25787 -3.55609 0
M  V30 2126 H 225.619 -0.507941 -2.90696 0
M  V30 2127 H 225.7 -1.85447 -1.76191 0
M  V30 2128 H 225.344 -3.48792 -3.69197 0
M  V30 2129 H 225.274 -2.11349 -4.82327 0
M  V30 2130 H 227.765 -1.87767 -3.27951 0
M  V30 2131 H 228.078 -4.36985 -6.37389 0
M  V30 2132 H 226.423 -3.92419 -5.73614 0
M  V30 2133 H 229.614 -2.39858 -4.01977 0
M  V30 2134 H 229.787 -3.53485 -5.43095 0
M  V30 2135 N 223.193 1.4272 -0.668489 0
M  V30 2136 C 224.609 1.55992 -0.33745 0
M  V30 2137 C 224.809 1.64933 1.15756 0
M  V30 2138 O 223.865 1.61278 1.94282 0
M  V30 2139 C 225.178 2.81314 -1.06222 0
M  V30 2140 C 226.726 2.95078 -1.04394 0
M  V30 2141 C 227.201 4.23252 -1.74991 0
M  V30 2142 N 228.692 4.3015 -1.71829 0
M  V30 2143 C 229.427 5.28127 -2.23315 0
M  V30 2144 N 228.923 6.32293 -2.83156 0
M  V30 2145 N 230.716 5.19882 -2.13726 0
M  V30 2146 H 222.867 1.3516 -1.63846 0
M  V30 2147 H 225.13 0.650174 -0.689912 0
M  V30 2148 H 224.836 2.80823 -2.11734 0
M  V30 2149 H 224.71 3.72012 -0.62344 0
M  V30 2150 H 227.097 2.951 0.0028244 0
M  V30 2151 H 227.178 2.05627 -1.52155 0
M  V30 2152 H 226.822 4.2399 -2.79633 0
M  V30 2153 H 226.752 5.11626 -1.24685 0
M  V30 2154 H 229.243 3.55499 -1.28175 0
M  V30 2155 H 229.556 7.03398 -3.20079 0
M  V30 2156 H 227.901 6.32873 -2.87223 0
M  V30 2157 H 231.092 4.37423 -1.66669 0
M  V30 2158 H 231.265 5.96077 -2.54158 0
M  V30 2159 N 224.671 0.411399 1.52136 0
M  V30 2160 C 225.618 -0.412975 2.27075 0
M  V30 2161 C 226.588 -1.03912 1.29582 0
M  V30 2162 O 227.773 -1.06296 1.58448 0
M  V30 2163 C 224.913 -1.52247 3.09701 0
M  V30 2164 C 224.026 -0.917021 4.22155 0
M  V30 2165 C 223.161 -1.9994 4.92135 0
M  V30 2166 C 222.2 -1.37101 5.96548 0
M  V30 2167 N 221.337 -2.39364 6.60038 0
M  V30 2168 H 226.177 0.232499 2.97092 0
M  V30 2169 H 223.714 0.126496 1.46555 0
M  V30 2170 H 225.672 -2.17674 3.55913 0
M  V30 2171 H 224.302 -2.13794 2.41851 0
M  V30 2172 H 223.354 -0.151742 3.80097 0
M  V30 2173 H 224.666 -0.418006 4.97045 0
M  V30 2174 H 223.82 -2.73088 5.41763 0
M  V30 2175 H 222.559 -2.53208 4.16818 0
M  V30 2176 H 221.564 -0.624873 5.46237 0
M  V30 2177 H 222.789 -0.845998 6.7381 0
M  V30 2178 H 220.735 -2.91759 5.87548 0
M  V30 2179 H 220.652 -1.9428 7.3061 0
M  V30 2180 H 221.92 -3.12074 7.14304 0
M  V30 2181 N 226.149 -1.5696 0.141893 0
M  V30 2182 C 227.374 -2.00754 -0.520838 0
M  V30 2183 C 227.799 -1.0213 -1.57959 0
M  V30 2184 O 227.157 0.00371324 -1.813 0
M  V30 2185 C 227.205 -3.43318 -1.10294 0
M  V30 2186 O 226.309 -3.47679 -2.21795 0
M  V30 2187 H 225.65 -0.651564 -0.127908 0
M  V30 2188 H 228.18 -2.03221 0.23712 0
M  V30 2189 H 228.19 -3.82012 -1.43287 0
M  V30 2190 H 226.865 -4.14608 -0.327574 0
M  V30 2191 H 225.442 -3.20824 -1.9007 0
M  V30 2192 N 227.627 0.131896 -1.57047 0
M  V30 2193 C 228.867 0.847972 -1.85981 0
M  V30 2194 C 229.231 1.77655 -0.7282 0
M  V30 2195 O 230.432 2.53322 -0.898968 0
M  V30 2196 C 228.703 1.58919 -3.20124 0
M  V30 2197 S 230.262 2.34862 -3.70655 0
M  V30 2198 H 227.08 0.283273 -0.652133 0
M  V30 2199 H 229.682 0.107057 -1.95207 0
M  V30 2200 H 228.386 0.898771 -4.00438 0
M  V30 2201 H 227.917 2.37073 -3.13942 0
M  V30 2202 H 229.932 3.60344 -3.41126 0
M  V30 2203 N 229.106 1.52395 0.401703 0
M  V30 2204 C 230.038 1.72505 1.50912 0
M  V30 2205 C 231.051 0.605468 1.51122 0
M  V30 2206 O 232.24 0.880828 1.55254 0
M  V30 2207 C 229.34 1.75711 2.89791 0
M  V30 2208 C 228.513 3.04824 3.1369 0
M  V30 2209 C 227.572 2.99743 4.32482 0
M  V30 2210 O 226.598 3.73635 4.29402 0
M  V30 2211 N 227.8 2.18047 5.37992 0
M  V30 2212 H 230.565 2.68049 1.34052 0
M  V30 2213 H 228.126 1.50724 0.591084 0
M  V30 2214 H 230.118 1.69834 3.6734 0
M  V30 2215 H 228.688 0.876092 3.00072 0
M  V30 2216 H 227.908 3.2429 2.24119 0
M  V30 2217 H 229.196 3.90221 3.26504 0
M  V30 2218 H 228.594 1.57456 5.43345 0
M  V30 2219 H 227.151 2.18021 6.14256 0
M  V30 2220 N 230.584 -0.659388 1.43143 0
M  V30 2221 C 231.547 -1.75432 1.47501 0
M  V30 2222 C 232.547 -1.56707 0.360512 0
M  V30 2223 O 233.737 -1.62717 0.622002 0
M  V30 2224 C 230.869 -3.14239 1.32162 0
M  V30 2225 H 232.062 -1.7295 2.45006 0
M  V30 2226 H 229.615 -0.870469 1.29817 0
M  V30 2227 H 230.35 -3.22336 0.356401 0
M  V30 2228 H 230.135 -3.29235 2.12948 0
M  V30 2229 H 231.625 -3.94094 1.3813 0
M  V30 2230 N 232.062 -1.29571 -0.897171 0
M  V30 2231 C 233.302 -1.18959 -1.66217 0
M  V30 2232 C 233.666 0.254271 -1.90309 0
M  V30 2233 O 234.867 0.483407 -2.64417 0
M  V30 2234 C 233.138 -1.98302 -2.9734 0
M  V30 2235 S 234.697 -2.04253 -3.88364 0
M  V30 2236 H 231.515 -0.424137 -0.570639 0
M  V30 2237 H 234.117 -1.6389 -1.06585 0
M  V30 2238 H 232.821 -3.02342 -2.77521 0
M  V30 2239 H 232.352 -1.53986 -3.62011 0
M  V30 2240 H 234.367 -1.16105 -4.82425 0
M  V30 2241 N 233.54 1.10788 -1.12088 0
M  V30 2242 C 234.956 1.34691 -0.856186 0
M  V30 2243 C 235.156 1.94791 0.515615 0
M  V30 2244 O 234.212 2.18524 1.26505 0
M  V30 2245 C 235.525 2.27208 -1.9697 0
M  V30 2246 C 237.073 2.40755 -2.00016 0
M  V30 2247 C 237.548 3.36598 -3.1059 0
M  V30 2248 N 239.039 3.44164 -3.10008 0
M  V30 2249 C 239.774 4.18284 -3.92206 0
M  V30 2250 N 239.27 4.95322 -4.84384 0
M  V30 2251 N 241.063 4.13865 -3.80357 0
M  V30 2252 H 233.214 0.70144 -2.00483 0
M  V30 2253 H 235.477 0.371405 -0.872217 0
M  V30 2254 H 235.183 1.90251 -2.958 0
M  V30 2255 H 235.057 3.27485 -1.87172 0
M  V30 2256 H 237.444 2.76982 -1.01808 0
M  V30 2257 H 237.525 1.40305 -2.13888 0
M  V30 2258 H 237.169 3.01096 -4.09028 0
M  V30 2259 H 237.099 4.36918 -2.93956 0
M  V30 2260 H 239.59 2.8922 -2.43228 0
M  V30 2261 H 239.903 5.49267 -5.43623 0
M  V30 2262 H 238.248 4.94459 -4.884 0
M  V30 2263 H 241.439 3.52773 -3.07683 0
M  V30 2264 H 241.612 4.71372 -4.44649 0
M  V30 2265 N 235.018 0.912232 1.28515 0
M  V30 2266 C 236.265 0.544599 1.95039 0
M  V30 2267 C 236.593 -0.911435 1.71823 0
M  V30 2268 O 235.848 -1.66317 1.03137 0
M  V30 2269 C 236.147 0.798392 3.48368 0
M  V30 2270 C 235.813 2.23374 3.91682 0
M  V30 2271 C 234.475 2.62617 4.03219 0
M  V30 2272 C 236.827 3.16786 4.13879 0
M  V30 2273 C 234.155 3.94429 4.3433 0
M  V30 2274 C 236.507 4.48161 4.46469 0
M  V30 2275 C 235.171 4.8726 4.56217 0
M  V30 2276 H 234.441 0.199283 0.7137 0
M  V30 2277 H 237.088 1.15327 1.52879 0
M  V30 2278 H 235.393 0.106908 3.91654 0
M  V30 2279 H 237.09 0.493141 3.97956 0
M  V30 2280 H 233.68 1.91922 3.83228 0
M  V30 2281 H 237.864 2.87677 4.0442 0
M  V30 2282 H 233.12 4.24426 4.40082 0
M  V30 2283 H 237.294 5.20559 4.62592 0
M  V30 2284 H 234.921 5.89431 4.80078 0
M  V30 2285 N 236.496 -1.42363 0.676048 0
M  V30 2286 C 237.429 -2.28141 -0.0516916 0
M  V30 2287 C 238.407 -1.41135 -0.807439 0
M  V30 2288 O 239.591 -1.70573 -0.802305 0
M  V30 2289 C 236.718 -3.21007 -1.08039 0
M  V30 2290 C 235.764 -4.24426 -0.420076 0
M  V30 2291 S 236.597 -5.29134 0.823246 0
M  V30 2292 C 237.753 -6.25566 -0.204344 0
M  V30 2293 H 237.986 -2.89515 0.675884 0
M  V30 2294 H 235.519 -1.47211 0.465635 0
M  V30 2295 H 237.477 -3.75048 -1.66881 0
M  V30 2296 H 236.138 -2.58766 -1.78042 0
M  V30 2297 H 235.331 -4.89596 -1.19633 0
M  V30 2298 H 234.933 -3.7388 0.0947845 0
M  V30 2299 H 237.225 -6.69098 -1.06369 0
M  V30 2300 H 238.168 -7.06895 0.412915 0
M  V30 2301 H 238.576 -5.61811 -0.55038 0
M  V30 2302 N 237.974 -0.419461 -1.51915 0
M  V30 2303 C 238.921 0.400927 -2.27291 0
M  V30 2304 C 239.891 1.03224 -1.30131 0
M  V30 2305 O 241.076 1.05455 -1.59009 0
M  V30 2306 C 238.216 1.50603 -3.10504 0
M  V30 2307 C 237.329 0.89462 -4.22635 0
M  V30 2308 C 236.464 1.97328 -4.93189 0
M  V30 2309 C 235.503 1.33935 -5.97267 0
M  V30 2310 N 234.64 2.3586 -6.61298 0
M  V30 2311 H 239.48 -0.248251 -2.96964 0
M  V30 2312 H 237.017 -0.134266 -1.46486 0
M  V30 2313 H 238.975 2.15783 -3.57062 0
M  V30 2314 H 237.605 2.12509 -2.42981 0
M  V30 2315 H 236.657 0.131583 -3.80172 0
M  V30 2316 H 237.969 0.391641 -4.9726 0
M  V30 2317 H 237.123 2.70211 -5.43204 0
M  V30 2318 H 235.862 2.50994 -4.18155 0
M  V30 2319 H 234.867 0.595896 -5.46561 0
M  V30 2320 H 236.092 0.810252 -6.74249 0
M  V30 2321 H 234.038 2.88639 -5.89087 0
M  V30 2322 H 233.955 1.90403 -7.3163 0
M  V30 2323 H 235.223 3.08282 -7.15949 0
M  V30 2324 N 239.452 1.56882 -0.150215 0
M  V30 2325 C 240.692 1.98119 0.502804 0
M  V30 2326 C 241.056 1.03327 1.61826 0
M  V30 2327 O 242.257 1.33621 2.33236 0
M  V30 2328 C 240.528 3.43329 0.992988 0
M  V30 2329 S 242.087 4.0659 1.65015 0
M  V30 2330 H 238.905 0.692189 0.162467 0
M  V30 2331 H 241.507 1.93988 -0.242689 0
M  V30 2332 H 240.211 4.10046 0.170436 0
M  V30 2333 H 239.742 3.5118 1.77303 0
M  V30 2334 H 241.757 3.99906 2.93752 0
M  V30 2335 N 240.93 -0.123565 1.57115 0
M  V30 2336 C 241.86 -1.15309 2.03042 0
M  V30 2337 C 242.841 -1.43454 0.914061 0
M  V30 2338 O 244.026 -1.53973 1.18347 0
M  V30 2339 C 241.156 -2.48043 2.43089 0
M  V30 2340 C 240.11 -2.3437 3.58127 0
M  V30 2341 C 239.436 -3.72026 3.84059 0
M  V30 2342 C 240.736 -1.80804 4.90007 0
M  V30 2343 H 242.43 -0.771102 2.893 0
M  V30 2344 H 239.976 -0.369479 1.39179 0
M  V30 2345 H 241.929 -3.20311 2.73823 0
M  V30 2346 H 240.653 -2.88122 1.53796 0
M  V30 2347 H 239.312 -1.64551 3.27595 0
M  V30 2348 H 238.96 -4.09582 2.91979 0
M  V30 2349 H 238.66 -3.63732 4.6149 0
M  V30 2350 H 240.184 -4.45806 4.1724 0
M  V30 2351 H 241.598 -2.42886 5.19307 0
M  V30 2352 H 239.995 -1.83343 5.71407 0
M  V30 2353 H 241.065 -0.76528 4.78823 0
M  V30 2354 N 242.408 -1.52605 -0.393616 0
M  V30 2355 C 243.355 -1.77055 -1.48054 0
M  V30 2356 C 244.325 -0.61358 -1.54352 0
M  V30 2357 O 245.51 -0.852806 -1.70681 0
M  V30 2358 C 242.65 -1.94108 -2.85335 0
M  V30 2359 C 241.763 -3.21792 -2.88226 0
M  V30 2360 C 240.898 -3.29188 -4.16904 0
M  V30 2361 C 239.937 -4.51013 -4.13828 0
M  V30 2362 N 239.074 -4.55716 -5.34105 0
M  V30 2363 H 243.914 -2.69815 -1.26506 0
M  V30 2364 H 241.451 -1.33683 -0.61379 0
M  V30 2365 H 243.409 -2.01979 -3.65049 0
M  V30 2366 H 242.039 -1.04713 -3.05344 0
M  V30 2367 H 241.091 -3.23015 -2.00911 0
M  V30 2368 H 242.403 -4.11557 -2.8182 0
M  V30 2369 H 241.557 -3.36216 -5.05018 0
M  V30 2370 H 240.296 -2.37389 -4.26026 0
M  V30 2371 H 239.301 -4.44115 -3.24102 0
M  V30 2372 H 240.526 -5.44123 -4.06333 0
M  V30 2373 H 238.472 -3.66807 -5.43865 0
M  V30 2374 H 238.389 -5.39346 -5.29756 0
M  V30 2375 H 239.657 -4.66993 -6.2413 0
M  V30 2376 N 243.887 0.651787 -1.4349 0
M  V30 2377 C 245.133 1.41376 -1.45398 0
M  V30 2378 C 245.466 1.94041 -0.0784823 0
M  V30 2379 O 244.741 1.72379 0.900878 0
M  V30 2380 C 245.024 2.59414 -2.49752 0
M  V30 2381 C 244.877 2.12232 -3.96582 0
M  V30 2382 C 246.196 3.61626 -2.50827 0
M  V30 2383 H 243.315 0.512719 -0.529422 0
M  V30 2384 H 245.957 0.738796 -1.75048 0
M  V30 2385 H 244.107 3.16997 -2.246 0
M  V30 2386 H 245.779 1.59639 -4.32797 0
M  V30 2387 H 244.022 1.43592 -4.09346 0
M  V30 2388 H 244.693 2.9712 -4.65214 0
M  V30 2389 H 247.169 3.13805 -2.7325 0
M  V30 2390 H 246.045 4.41766 -3.25783 0
M  V30 2391 H 246.306 4.14314 -1.5426 0
M  V30 2392 N 245.365 1.30045 0.890287 0
M  V30 2393 C 246.613 1.18327 1.63839 0
M  V30 2394 C 246.934 -0.263455 1.93212 0
M  V30 2395 O 246.204 -1.17856 1.56482 0
M  V30 2396 H 244.784 0.434933 0.607324 0
M  V30 2397 H 247.446 1.631 1.06698 0
M  V30 2398 H 246.542 1.74024 2.59079 0
M  V30 2399 N 246.843 -1.10192 1.12674 0
M  V30 2400 C 247.776 -2.15847 0.740625 0
M  V30 2401 C 248.754 -1.60352 -0.269421 0
M  V30 2402 O 249.938 -1.87796 -0.16278 0
M  V30 2403 C 247.065 -3.38562 0.096641 0
M  V30 2404 C 246.111 -4.12758 1.07391 0
M  V30 2405 S 246.944 -4.67997 2.60267 0
M  V30 2406 C 248.1 -5.94021 1.97206 0
M  V30 2407 H 248.333 -2.48266 1.63558 0
M  V30 2408 H 245.866 -1.22019 0.946087 0
M  V30 2409 H 247.824 -4.09621 -0.268535 0
M  V30 2410 H 246.485 -3.04377 -0.775462 0
M  V30 2411 H 245.678 -5.00755 0.570997 0
M  V30 2412 H 245.28 -3.47523 1.38216 0
M  V30 2413 H 247.572 -6.64589 1.31634 0
M  V30 2414 H 248.515 -6.48979 2.83253 0
M  V30 2415 H 248.923 -5.46169 1.42686 0
M  V30 2416 N 248.321 -0.919034 -1.28029 0
M  V30 2417 C 249.251 -0.428581 -2.29533 0
M  V30 2418 C 250.232 0.50659 -1.62381 0
M  V30 2419 O 251.417 0.413195 -1.89753 0
M  V30 2420 C 248.547 0.327388 -3.45753 0
M  V30 2421 C 247.501 -0.519137 -4.2484 0
M  V30 2422 C 246.827 0.365486 -5.33449 0
M  V30 2423 C 248.127 -1.77914 -4.91064 0
M  V30 2424 H 249.821 -1.27687 -2.70807 0
M  V30 2425 H 247.367 -0.615428 -1.30186 0
M  V30 2426 H 249.32 0.681378 -4.15855 0
M  V30 2427 H 248.044 1.20963 -3.03374 0
M  V30 2428 H 246.703 -0.855717 -3.56473 0
M  V30 2429 H 246.351 1.24642 -4.87312 0
M  V30 2430 H 246.051 -0.197356 -5.87268 0
M  V30 2431 H 247.575 0.715241 -6.06396 0
M  V30 2432 H 248.989 -1.49374 -5.53498 0
M  V30 2433 H 247.386 -2.2848 -5.54903 0
M  V30 2434 H 248.456 -2.50382 -4.15255 0
M  V30 2435 N 249.799 1.42003 -0.683588 0
M  V30 2436 C 250.746 2.30798 -0.0107309 0
M  V30 2437 C 251.716 1.4645 0.783688 0
M  V30 2438 O 252.901 1.75263 0.754156 0
M  V30 2439 C 250.041 3.3238 0.928306 0
M  V30 2440 C 249.154 4.31814 0.126776 0
M  V30 2441 C 248.289 5.20468 1.06236 0
M  V30 2442 C 247.328 6.11577 0.253035 0
M  V30 2443 N 246.465 6.92754 1.14179 0
M  V30 2444 H 251.305 2.8778 -0.773727 0
M  V30 2445 H 248.842 1.41745 -0.393283 0
M  V30 2446 H 250.8 3.89813 1.48666 0
M  V30 2447 H 249.43 2.76976 1.65783 0
M  V30 2448 H 248.482 3.76427 -0.54833 0
M  V30 2449 H 249.794 4.96276 -0.501192 0
M  V30 2450 H 248.948 5.82677 1.69035 0
M  V30 2451 H 247.687 4.56204 1.7242 0
M  V30 2452 H 246.692 5.48428 -0.388108 0
M  V30 2453 H 247.917 6.77892 -0.404839 0
M  V30 2454 H 245.863 6.3111 1.78987 0
M  V30 2455 H 245.78 7.53855 0.569111 0
M  V30 2456 H 247.048 7.59441 1.75697 0
M  V30 2457 N 251.277 0.427512 1.51691 0
M  V30 2458 C 252.187 -0.39527 2.31246 0
M  V30 2459 C 253.203 -1.03674 1.39742 0
M  V30 2460 O 254.379 -1.03425 1.72816 0
M  V30 2461 C 251.444 -1.48706 3.13189 0
M  V30 2462 C 250.505 -0.866743 4.20459 0
M  V30 2463 C 249.738 -1.90651 4.98486 0
M  V30 2464 O 249.961 -3.12733 4.77026 0
M  V30 2465 O 248.895 -1.5025 5.82845 0
M  V30 2466 H 252.721 0.253918 3.02637 0
M  V30 2467 H 250.306 0.190274 1.48183 0
M  V30 2468 H 252.188 -2.12047 3.64162 0
M  V30 2469 H 250.863 -2.12051 2.44573 0
M  V30 2470 H 249.77 -0.195544 3.73589 0
M  V30 2471 H 251.103 -0.276934 4.9142 0
M  V30 2472 N 252.755 -1.56801 0.158532 0
M  V30 2473 C 254.003 -1.96102 -0.488712 0
M  V30 2474 C 254.324 -1.04498 -1.64636 0
M  V30 2475 O 253.594 -0.108783 -1.95598 0
M  V30 2476 H 252.174 -0.724102 -0.183535 0
M  V30 2477 H 254.836 -1.93457 0.236728 0
M  V30 2478 H 253.932 -3.00097 -0.857219 0
M  V30 2479 N 254.233 0.115231 -1.57178 0
M  V30 2480 C 255.479 0.82357 -1.85325 0
M  V30 2481 C 255.812 1.79349 -0.744814 0
M  V30 2482 O 255.087 1.92899 0.249024 0
M  V30 2483 C 255.37 1.57014 -3.24066 0
M  V30 2484 C 255.223 0.619565 -4.45513 0
M  V30 2485 C 256.542 2.52545 -3.60429 0
M  V30 2486 H 253.661 0.297948 -0.674089 0
M  V30 2487 H 256.303 0.0877138 -1.89797 0
M  V30 2488 H 254.453 2.19742 -3.20383 0
M  V30 2489 H 256.125 0.000837639 -4.613 0
M  V30 2490 H 254.368 -0.0686174 -4.33746 0
M  V30 2491 H 255.039 1.17866 -5.3927 0
M  V30 2492 H 257.515 1.9992 -3.64926 0
M  V30 2493 H 256.391 3.01811 -4.58477 0
M  V30 2494 H 256.652 3.35383 -2.88047 0
M  V30 2495 N 255.711 1.52812 0.385517 0
M  V30 2496 C 257.127 1.4214 0.725829 0
M  V30 2497 C 257.327 0.544589 1.94001 0
M  V30 2498 O 256.383 0.0193693 2.52493 0
M  V30 2499 C 257.696 2.85042 0.957668 0
M  V30 2500 C 259.244 2.94543 1.05892 0
M  V30 2501 C 259.719 4.38464 1.32337 0
M  V30 2502 N 261.21 4.41804 1.39151 0
M  V30 2503 C 261.945 5.5025 1.61285 0
M  V30 2504 N 261.441 6.68775 1.80866 0
M  V30 2505 N 263.234 5.37798 1.63492 0
M  V30 2506 H 255.385 2.08338 -0.413383 0
M  V30 2507 H 257.648 0.940016 -0.122775 0
M  V30 2508 H 257.354 3.51431 0.137568 0
M  V30 2509 H 257.228 3.27505 1.87137 0
M  V30 2510 H 259.615 2.28321 1.86959 0
M  V30 2511 H 259.696 2.55504 0.123057 0
M  V30 2512 H 259.34 5.05254 0.517793 0
M  V30 2513 H 259.27 4.75059 2.27214 0
M  V30 2514 H 261.761 3.56377 1.25713 0
M  V30 2515 H 262.074 7.47197 1.97271 0
M  V30 2516 H 260.419 6.71797 1.78083 0
M  V30 2517 H 263.61 4.44171 1.47749 0
M  V30 2518 H 263.783 6.22382 1.80402 0
M  V30 2519 N 257.189 -0.644168 1.43834 0
M  V30 2520 C 258.119 -1.76814 1.52509 0
M  V30 2521 C 259.1 -1.65823 0.379052 0
M  V30 2522 O 260.285 -1.84781 0.597466 0
M  V30 2523 C 257.415 -3.15288 1.4564 0
M  V30 2524 C 256.369 -3.41053 2.58586 0
M  V30 2525 C 255.695 -4.79421 2.36769 0
M  V30 2526 C 256.995 -3.34902 4.00797 0
M  V30 2527 H 258.689 -1.69812 2.46586 0
M  V30 2528 H 256.235 -0.815542 1.1868 0
M  V30 2529 H 258.188 -3.93681 1.50311 0
M  V30 2530 H 256.912 -3.23043 0.480725 0
M  V30 2531 H 255.571 -2.65035 2.53282 0
M  V30 2532 H 255.219 -4.83863 1.37424 0
M  V30 2533 H 254.919 -4.9762 3.12487 0
M  V30 2534 H 256.443 -5.6006 2.43238 0
M  V30 2535 H 257.857 -4.03218 4.07539 0
M  V30 2536 H 256.254 -3.64637 4.76613 0
M  V30 2537 H 257.324 -2.32928 4.25291 0
M  V30 2538 N 258.668 -1.30515 -0.883378 0
M  V30 2539 C 259.945 -1.10086 -1.6168 0
M  V30 2540 C 260.325 0.349269 -2.08191 0
M  V30 2541 O 259.673 1.34105 -1.85008 0
M  V30 2542 C 259.883 -2.10315 -2.78511 0
M  V30 2543 C 261.231 -2.42119 -3.48803 0
M  V30 2544 O 262.255 -2.08638 -2.88702 0
M  V30 2545 O 261.114 -2.99396 -4.57192 0
M  V30 2546 H 258.208 -0.422907 -0.710689 0
M  V30 2547 H 260.754 -1.41947 -0.930015 0
M  V30 2548 H 259.526 -3.07917 -2.41459 0
M  V30 2549 H 259.149 -1.79282 -3.54886 0
M  V30 2550 N 260.146 1.09593 -1.13257 0
M  V30 2551 C 261.562 1.33775 -0.870423 0
M  V30 2552 C 261.762 1.95327 0.494926 0
M  V30 2553 O 260.818 2.19853 1.2418 0
M  V30 2554 C 262.131 2.25106 -1.99369 0
M  V30 2555 C 263.679 2.3862 -2.02558 0
M  V30 2556 C 264.154 3.33285 -3.14142 0
M  V30 2557 N 265.645 3.40857 -3.13641 0
M  V30 2558 C 266.38 4.14101 -3.96621 0
M  V30 2559 N 265.876 4.90157 -4.8961 0
M  V30 2560 N 267.669 4.09808 -3.84726 0
M  V30 2561 H 259.82 0.680136 -2.01216 0
M  V30 2562 H 262.083 0.362133 -0.876107 0
M  V30 2563 H 261.789 1.87103 -2.97801 0
M  V30 2564 H 261.663 3.25481 -1.90635 0
M  V30 2565 H 264.05 2.75887 -1.0474 0
M  V30 2566 H 264.131 1.38028 -2.15364 0
M  V30 2567 H 263.775 2.96741 -4.12198 0
M  V30 2568 H 263.705 4.33776 -2.98574 0
M  V30 2569 H 266.196 2.86624 -2.46282 0
M  V30 2570 H 266.509 5.4347 -5.49418 0
M  V30 2571 H 264.854 4.89251 -4.93617 0
M  V30 2572 H 268.045 3.4949 -3.11408 0
M  V30 2573 H 268.218 4.66629 -4.49623 0
M  V30 2574 N 261.624 0.925811 1.2754 0
M  V30 2575 C 262.87 0.566092 1.94739 0
M  V30 2576 C 263.203 -0.890057 1.72603 0
M  V30 2577 O 262.478 -1.63467 1.05399 0
M  V30 2578 C 262.761 0.89054 3.48915 0
M  V30 2579 C 262.614 2.4003 3.80402 0
M  V30 2580 C 263.933 0.395101 4.38323 0
M  V30 2581 H 261.052 0.20714 0.707292 0
M  V30 2582 H 263.694 1.15725 1.50691 0
M  V30 2583 H 261.844 0.387452 3.86563 0
M  V30 2584 H 263.516 2.97494 3.52555 0
M  V30 2585 H 261.759 2.85028 3.2702 0
M  V30 2586 H 262.43 2.57785 4.8811 0
M  V30 2587 H 264.906 0.826241 4.07814 0
M  V30 2588 H 263.782 0.651086 5.45025 0
M  V30 2589 H 264.043 -0.704798 4.36446 0
M  V30 2590 N 263.102 -1.41638 0.69111 0
M  V30 2591 C 264.518 -1.55435 0.362224 0
M  V30 2592 C 264.718 -1.66754 -1.13117 0
M  V30 2593 O 263.774 -1.64348 -1.91692 0
M  V30 2594 C 265.087 -2.79588 1.10684 0
M  V30 2595 C 266.635 -2.9338 1.09075 0
M  V30 2596 C 267.11 -4.20414 1.81703 0
M  V30 2597 N 268.601 -4.27362 1.7865 0
M  V30 2598 C 269.336 -5.24507 2.31689 0
M  V30 2599 N 268.832 -6.27708 2.93179 0
M  V30 2600 N 270.625 -5.16416 2.2197 0
M  V30 2601 H 262.776 -1.32536 1.65976 0
M  V30 2602 H 265.039 -0.639115 0.700168 0
M  V30 2603 H 264.745 -2.77419 2.16175 0
M  V30 2604 H 264.619 -3.70973 0.682545 0
M  V30 2605 H 267.006 -2.95067 0.0441238 0
M  V30 2606 H 267.087 -2.0318 1.55407 0
M  V30 2607 H 266.731 -4.19488 2.86343 0
M  V30 2608 H 266.661 -5.09578 1.32808 0
M  V30 2609 H 269.152 -3.53415 1.33815 0
M  V30 2610 H 269.465 -6.98217 3.31229 0
M  V30 2611 H 267.81 -6.28223 2.97255 0
M  V30 2612 H 271.001 -4.34716 1.73607 0
M  V30 2613 H 271.174 -5.91958 2.63609 0
M  V30 2614 N 264.58 -0.43555 -1.51462 0
M  V30 2615 C 265.828 0.131254 -2.01673 0
M  V30 2616 C 266.149 1.43368 -1.32177 0
M  V30 2617 O 265.419 1.90524 -0.455769 0
M  V30 2618 H 263.999 0.0514954 -0.745223 0
M  V30 2619 H 266.661 -0.577847 -1.86137 0
M  V30 2620 H 265.757 0.308446 -3.10572 0
M  V30 2621 N 266.058 1.56714 -0.166846 0
M  V30 2622 C 267.306 1.96358 0.478305 0
M  V30 2623 C 267.627 1.0537 1.6408 0
M  V30 2624 O 266.897 0.119154 1.95537 0
M  V30 2625 H 265.477 0.725065 0.179692 0
M  V30 2626 H 268.139 1.93329 -0.246985 0
M  V30 2627 H 267.235 3.00547 0.841292 0
M  V30 2628 N 267.536 -0.106894 1.57237 0
M  V30 2629 C 268.952 -0.46078 1.52804 0
M  V30 2630 C 269.152 -1.81184 0.881746 0
M  V30 2631 O 268.208 -2.48102 0.469224 0
M  V30 2632 C 269.521 -0.434127 2.9755 0
M  V30 2633 C 271.069 -0.516821 3.08704 0
M  V30 2634 C 271.544 -0.520436 4.55033 0
M  V30 2635 N 273.035 -0.58153 4.59535 0
M  V30 2636 C 273.77 -0.605973 5.70189 0
M  V30 2637 N 273.266 -0.587331 6.90306 0
M  V30 2638 N 275.059 -0.649895 5.5833 0
M  V30 2639 H 267.21 0.778203 1.9763 0
M  V30 2640 H 269.473 0.288403 0.903066 0
M  V30 2641 H 269.179 0.491197 3.48253 0
M  V30 2642 H 269.053 -1.25748 3.55622 0
M  V30 2643 H 271.44 -1.43256 2.57995 0
M  V30 2644 H 271.521 0.334449 2.53604 0
M  V30 2645 H 271.165 0.391313 5.0639 0
M  V30 2646 H 271.095 -1.38876 5.07958 0
M  V30 2647 H 273.586 -0.60161 3.73081 0
M  V30 2648 H 273.899 -0.60894 7.70397 0
M  V30 2649 H 272.244 -0.554564 6.92784 0
M  V30 2650 H 275.435 -0.661907 4.63397 0
M  V30 2651 H 275.608 -0.665476 6.44574 0
M  V30 2652 N 269.014 -1.53014 -0.377408 0
M  V30 2653 C 269.946 -1.74884 -1.48149 0
M  V30 2654 C 270.959 -0.629433 -1.5014 0
M  V30 2655 O 272.148 -0.905416 -1.53833 0
M  V30 2656 C 269.248 -1.80299 -2.86959 0
M  V30 2657 C 268.421 -3.09776 -3.08801 0
M  V30 2658 C 267.48 -3.06586 -4.27658 0
M  V30 2659 O 266.506 -3.80419 -4.23403 0
M  V30 2660 N 267.708 -2.26578 -5.34455 0
M  V30 2661 H 270.473 -2.70147 -1.29771 0
M  V30 2662 H 268.034 -1.51646 -0.56703 0
M  V30 2663 H 270.026 -1.75657 -3.64591 0
M  V30 2664 H 268.596 -0.92372 -2.98641 0
M  V30 2665 H 267.816 -3.27815 -2.18931 0
M  V30 2666 H 269.104 -3.95366 -3.20255 0
M  V30 2667 H 268.502 -1.66081 -5.40771 0
M  V30 2668 H 267.059 -2.27766 -6.10709 0
M  V30 2669 N 270.492 0.636531 -1.44174 0
M  V30 2670 C 271.439 1.74875 -1.50624 0
M  V30 2671 C 272.409 1.62275 -0.35442 0
M  V30 2672 O 273.594 1.82276 -0.563908 0
M  V30 2673 C 270.734 3.13102 -1.45125 0
M  V30 2674 C 269.847 3.36717 -2.7064 0
M  V30 2675 C 268.982 4.64885 -2.57013 0
M  V30 2676 C 268.021 4.8166 -3.77717 0
M  V30 2677 N 267.158 6.01101 -3.62798 0
M  V30 2678 H 271.998 1.68697 -2.45653 0
M  V30 2679 H 269.535 0.823004 -1.21922 0
M  V30 2680 H 271.493 3.93034 -1.39929 0
M  V30 2681 H 270.123 3.18308 -0.536671 0
M  V30 2682 H 269.175 2.50763 -2.86046 0
M  V30 2683 H 270.487 3.44993 -3.60252 0
M  V30 2684 H 269.641 5.52969 -2.49619 0
M  V30 2685 H 268.38 4.58957 -1.64953 0
M  V30 2686 H 267.385 3.92007 -3.85501 0
M  V30 2687 H 268.61 4.89406 -4.70807 0
M  V30 2688 H 266.556 5.96273 -2.73486 0
M  V30 2689 H 266.473 6.10409 -4.46023 0
M  V30 2690 H 267.741 6.91761 -3.59286 0
M  V30 2691 N 271.97 1.30982 0.876444 0
M  V30 2692 C 273.2 1.23063 1.65949 0
M  V30 2693 C 273.608 -0.207537 1.88058 0
M  V30 2694 O 272.951 -1.14781 1.43426 0
M  V30 2695 C 273.013 1.89768 3.05333 0
M  V30 2696 C 272.677 3.39106 3.0636 0
M  V30 2697 C 273.674 4.3496 2.84791 0
M  V30 2698 C 271.359 3.80693 3.27686 0
M  V30 2699 C 273.353 5.70375 2.84519 0
M  V30 2700 C 271.04 5.16223 3.27043 0
M  V30 2701 C 272.038 6.10875 3.05485 0
M  V30 2702 O 271.726 7.43928 3.04674 0
M  V30 2703 H 271.458 0.426685 0.524324 0
M  V30 2704 H 274.012 1.7329 1.10271 0
M  V30 2705 H 272.242 1.34082 3.6271 0
M  V30 2706 H 273.931 1.75853 3.65829 0
M  V30 2707 H 274.697 4.0416 2.68103 0
M  V30 2708 H 270.576 3.07457 3.43499 0
M  V30 2709 H 274.12 6.44228 2.67611 0
M  V30 2710 H 270.017 5.4666 3.43269 0
M  V30 2711 H 270.785 7.53022 3.2078 0
M  V30 2712 N 273.449 -1.08991 1.13837 0
M  V30 2713 C 274.396 -2.15748 0.819835 0
M  V30 2714 C 275.366 -1.64636 -0.220026 0
M  V30 2715 O 276.551 -1.90582 -0.0912757 0
M  V30 2716 C 273.691 -3.4382 0.296913 0
M  V30 2717 C 272.804 -4.0881 1.39636 0
M  V30 2718 C 271.939 -5.24655 0.831314 0
M  V30 2719 C 270.978 -5.81575 1.90886 0
M  V30 2720 N 270.115 -6.88774 1.36142 0
M  V30 2721 H 274.955 -2.42338 1.73426 0
M  V30 2722 H 272.492 -1.18935 0.865613 0
M  V30 2723 H 274.45 -4.17193 -0.0244339 0
M  V30 2724 H 273.08 -3.17535 -0.580628 0
M  V30 2725 H 272.132 -3.33258 1.83422 0
M  V30 2726 H 273.444 -4.47141 2.21058 0
M  V30 2727 H 272.598 -6.04942 0.461515 0
M  V30 2728 H 271.337 -4.87698 -0.013932 0
M  V30 2729 H 270.342 -4.99946 2.28767 0
M  V30 2730 H 271.567 -6.20592 2.75758 0
M  V30 2731 H 269.513 -6.53788 0.538254 0
M  V30 2732 H 269.43 -7.25898 2.11208 0
M  V30 2733 H 270.698 -7.72806 1.01933 0
M  V30 2734 N 274.927 -0.932562 -1.27047 0
M  V30 2735 C 276.343 -0.633544 -1.46487 0
M  V30 2736 C 276.543 0.815746 -1.84249 0
M  V30 2737 O 275.599 1.59319 -1.95892 0
M  V30 2738 C 276.912 -1.58758 -2.55375 0
M  V30 2739 C 278.46 -1.59634 -2.69232 0
M  V30 2740 C 278.935 -2.53747 -3.81283 0
M  V30 2741 N 280.426 -2.51982 -3.88664 0
M  V30 2742 C 281.161 -3.21491 -4.74796 0
M  V30 2743 N 280.657 -4.00395 -5.65381 0
M  V30 2744 N 282.45 -3.10485 -4.68568 0
M  V30 2745 H 274.601 -1.86946 -1.00821 0
M  V30 2746 H 276.864 -0.802897 -0.504044 0
M  V30 2747 H 276.57 -2.62172 -2.34432 0
M  V30 2748 H 276.444 -1.33301 -3.52861 0
M  V30 2749 H 278.831 -0.569488 -2.89553 0
M  V30 2750 H 278.912 -1.89142 -1.72218 0
M  V30 2751 H 278.556 -3.56545 -3.61715 0
M  V30 2752 H 278.486 -2.21532 -4.77735 0
M  V30 2753 H 280.977 -1.94681 -3.23895 0
M  V30 2754 H 281.29 -4.50406 -6.27976 0
M  V30 2755 H 279.635 -4.04498 -5.65161 0
M  V30 2756 H 282.826 -2.48331 -3.96799 0
M  V30 2757 H 282.999 -3.64925 -5.35475 0
M  V30 2758 N 276.405 1.4127 -0.698611 0
M  V30 2759 C 277.821 1.55241 -0.370462 0
M  V30 2760 C 278.021 1.67351 1.12231 0
M  V30 2761 O 277.077 1.65363 1.90818 0
M  V30 2762 C 278.39 2.78997 -1.12165 0
M  V30 2763 C 279.938 2.92797 -1.1063 0
M  V30 2764 C 280.413 4.19445 -1.8393 0
M  V30 2765 N 281.904 4.26409 -1.80914 0
M  V30 2766 C 282.639 5.23271 -2.34467 0
M  V30 2767 N 282.135 6.26145 -2.96504 0
M  V30 2768 N 283.928 5.15232 -2.24706 0
M  V30 2769 H 276.079 1.31654 -1.66676 0
M  V30 2770 H 278.342 0.635393 -0.703548 0
M  V30 2771 H 278.048 2.76268 -2.17644 0
M  V30 2772 H 277.922 3.70606 -0.702209 0
M  V30 2773 H 280.309 2.95039 -0.0597713 0
M  V30 2774 H 280.39 2.02353 -1.56483 0
M  V30 2775 H 280.034 4.17964 -2.88563 0
M  V30 2776 H 279.964 5.08866 -1.35509 0
M  V30 2777 H 282.455 3.527 -1.35687 0
M  V30 2778 H 282.768 6.96451 -3.34927 0
M  V30 2779 H 281.113 6.26638 -3.00583 0
M  V30 2780 H 284.304 4.33789 -1.7591 0
M  V30 2781 H 284.477 5.90552 -2.66745 0
M  V30 2782 N 277.883 0.443576 1.51229 0
M  V30 2783 C 278.813 -0.355142 2.30783 0
M  V30 2784 C 279.794 -1.0154 1.36468 0
M  V30 2785 O 280.979 -1.01785 1.65389 0
M  V30 2786 C 278.109 -1.45312 3.15439 0
M  V30 2787 C 277.063 -0.916002 4.18083 0
M  V30 2788 C 276.389 -2.1102 4.91299 0
M  V30 2789 C 277.689 0.0538602 5.22272 0
M  V30 2790 H 279.383 0.308767 2.97804 0
M  V30 2791 H 276.929 0.149937 1.43217 0
M  V30 2792 H 278.882 -2.01914 3.69876 0
M  V30 2793 H 277.606 -2.14541 2.46252 0
M  V30 2794 H 276.265 -0.372145 3.64706 0
M  V30 2795 H 275.913 -2.78882 4.18609 0
M  V30 2796 H 275.613 -1.75717 5.60712 0
M  V30 2797 H 277.137 -2.68164 5.48562 0
M  V30 2798 H 278.551 -0.422069 5.71744 0
M  V30 2799 H 276.948 0.319776 5.99247 0
M  V30 2800 H 278.018 0.98858 4.74716 0
M  V30 2801 N 279.361 -1.56624 0.175154 0
M  V30 2802 C 280.638 -1.88688 -0.515373 0
M  V30 2803 C 281.018 -1.08564 -1.81044 0
M  V30 2804 O 280.366 -0.180703 -2.27784 0
M  V30 2805 C 280.576 -3.40768 -0.753552 0
M  V30 2806 C 281.924 -4.10587 -1.08184 0
M  V30 2807 O 282.948 -3.46106 -0.841961 0
M  V30 2808 O 281.807 -5.24512 -1.53459 0
M  V30 2809 H 278.901 -0.78301 -0.26613 0
M  V30 2810 H 281.447 -1.68347 0.213877 0
M  V30 2811 H 280.219 -3.90965 0.161829 0
M  V30 2812 H 279.842 -3.66733 -1.53598 0
M  V30 2813 N 280.839 0.0985539 -1.57292 0
M  V30 2814 C 282.064 0.820196 -1.90493 0
M  V30 2815 C 282.489 1.71658 -0.769094 0
M  V30 2816 O 281.847 1.79133 0.279495 0
M  V30 2817 C 281.895 1.61242 -3.22542 0
M  V30 2818 O 280.999 2.72108 -3.09888 0
M  V30 2819 H 280.34 0.225547 -0.62452 0
M  V30 2820 H 282.87 0.0748159 -2.04463 0
M  V30 2821 H 282.88 1.99737 -3.55766 0
M  V30 2822 H 281.555 0.954535 -4.04798 0
M  V30 2823 H 280.132 2.36667 -2.88172 0
M  V30 2824 N 282.317 1.53212 0.369288 0
M  V30 2825 C 283.227 1.82342 1.47609 0
M  V30 2826 C 284.243 0.711532 1.58787 0
M  V30 2827 O 285.419 1.0012 1.74751 0
M  V30 2828 C 282.484 2.00393 2.8292 0
M  V30 2829 C 281.545 3.24297 2.81301 0
M  V30 2830 C 280.778 3.41478 4.10157 0
M  V30 2831 O 281.001 2.63033 5.06132 0
M  V30 2832 O 279.935 4.34817 4.16194 0
M  V30 2833 H 283.761 2.76366 1.25918 0
M  V30 2834 H 281.346 1.38547 0.559034 0
M  V30 2835 H 283.228 2.13859 3.63101 0
M  V30 2836 H 281.903 1.09559 3.04596 0
M  V30 2837 H 280.81 3.16257 1.99831 0
M  V30 2838 H 282.143 4.15041 2.64578 0
M  V30 2839 N 283.795 -0.628877 1.44509 0
M  V30 2840 C 285.02 -1.42048 1.5112 0
M  V30 2841 C 285.445 -1.87594 0.137818 0
M  V30 2842 O 284.803 -1.58873 -0.873437 0
M  V30 2843 C 284.851 -2.61541 2.48251 0
M  V30 2844 O 283.955 -3.61453 1.98559 0
M  V30 2845 H 283.296 -0.424942 0.510216 0
M  V30 2846 H 285.826 -0.767374 1.89664 0
M  V30 2847 H 285.836 -3.09057 2.66361 0
M  V30 2848 H 284.511 -2.27736 3.48007 0
M  V30 2849 H 283.088 -3.20731 1.90227 0
M  V30 2850 N 285.273 -1.31445 -0.869486 0
M  V30 2851 C 286.498 -1.24256 -1.66058 0
M  V30 2852 C 286.923 0.188928 -1.87149 0
M  V30 2853 O 286.281 1.13522 -1.4136 0
M  V30 2854 C 286.329 -1.9924 -3.00559 0
M  V30 2855 O 285.433 -1.33007 -3.90362 0
M  V30 2856 H 284.774 -0.428973 -0.506831 0
M  V30 2857 H 287.304 -1.73521 -1.08404 0
M  V30 2858 H 287.314 -2.08854 -3.50491 0
M  V30 2859 H 285.989 -3.03342 -2.84528 0
M  V30 2860 H 284.566 -1.31848 -3.48813 0
M  V30 2861 N 286.751 1.08385 -1.14413 0
M  V30 2862 C 288.162 1.62258 -0.923535 0
M  V30 2863 C 288.513 1.88691 0.537595 0
M  V30 2864 O 287.638 1.64454 1.40655 0
M  V30 2865 C 288.233 2.94781 -1.67002 0
M  V30 2866 C 286.792 3.45437 -1.495 0
M  V30 2867 C 285.939 2.19668 -1.69238 0
M  V30 2868 H 288.89 0.916086 -1.2959 0
M  V30 2869 H 288.911 3.63229 -1.13334 0
M  V30 2870 H 288.423 2.7551 -2.73342 0
M  V30 2871 H 286.524 3.6981 -0.455097 0
M  V30 2872 H 286.637 4.22173 -2.2651 0
M  V30 2873 H 285.001 2.28849 -1.11804 0
M  V30 2874 H 285.784 2.02905 -2.7692 0
M  V30 2875 N 288.23 0.939286 1.26551 0
M  V30 2876 C 289.46 0.601663 1.97645 0
M  V30 2877 C 289.868 -0.827206 1.70159 0
M  V30 2878 O 289.211 -1.56291 0.965338 0
M  V30 2879 C 289.273 0.761725 3.51337 0
M  V30 2880 C 288.937 2.16487 4.0247 0
M  V30 2881 C 289.934 3.14016 4.14355 0
M  V30 2882 C 287.619 2.48494 4.36527 0
M  V30 2883 C 289.613 4.41654 4.59587 0
M  V30 2884 C 287.3 3.76364 4.81449 0
M  V30 2885 C 288.298 4.72758 4.92939 0
M  V30 2886 O 287.986 5.98352 5.36871 0
M  V30 2887 H 287.718 0.225758 0.637189 0
M  V30 2888 H 290.272 1.26178 1.62075 0
M  V30 2889 H 288.502 0.0444808 3.86674 0
M  V30 2890 H 290.191 0.427442 4.03643 0
M  V30 2891 H 290.957 2.90613 3.8829 0
M  V30 2892 H 286.836 1.74202 4.26819 0
M  V30 2893 H 290.38 5.16896 4.68471 0
M  V30 2894 H 286.277 3.99582 5.06956 0
M  V30 2895 H 287.045 6.01507 5.55096 0
M  V30 2896 N 289.708 -1.40897 0.706093 0
M  V30 2897 C 290.638 -2.33418 0.0620085 0
M  V30 2898 C 291.619 -1.52385 -0.755827 0
M  V30 2899 O 292.804 -1.80886 -0.706674 0
M  V30 2900 C 289.934 -3.36293 -0.867445 0
M  V30 2901 C 288.888 -4.27716 -0.155932 0
M  V30 2902 C 288.214 -5.2105 -1.20046 0
M  V30 2903 C 289.514 -5.12944 0.984149 0
M  V30 2904 H 291.208 -2.87527 0.83477 0
M  V30 2905 H 288.754 -1.38249 0.402875 0
M  V30 2906 H 290.707 -3.99949 -1.32735 0
M  V30 2907 H 289.431 -2.80556 -1.67199 0
M  V30 2908 H 288.09 -3.65498 0.284047 0
M  V30 2909 H 287.738 -4.61624 -1.99781 0
M  V30 2910 H 287.438 -5.83056 -0.729328 0
M  V30 2911 H 288.962 -5.87584 -1.66066 0
M  V30 2912 H 290.376 -5.70109 0.604048 0
M  V30 2913 H 288.773 -5.83945 1.38304 0
M  V30 2914 H 289.843 -4.49485 1.81911 0
M  V30 2915 N 291.186 -0.45159 -1.50991 0
M  V30 2916 C 292.411 0.110667 -2.07105 0
M  V30 2917 C 292.836 1.3446 -1.31538 0
M  V30 2918 O 292.194 1.77743 -0.357365 0
M  V30 2919 C 292.242 0.397238 -3.58405 0
M  V30 2920 O 291.346 1.48124 -3.84881 0
M  V30 2921 H 290.687 -0.00439271 -0.663985 0
M  V30 2922 H 293.217 -0.637026 -1.9443 0
M  V30 2923 H 293.227 0.64351 -4.02893 0
M  V30 2924 H 291.902 -0.504553 -4.12828 0
M  V30 2925 H 290.479 1.22381 -3.52246 0
M  V30 2926 N 292.664 1.56529 -0.183458 0
M  V30 2927 C 293.594 2.21549 0.737456 0
M  V30 2928 C 294.575 1.17489 1.23005 0
M  V30 2929 O 295.76 1.45959 1.281 0
M  V30 2930 C 292.89 2.86575 1.96194 0
M  V30 2931 C 291.844 3.96778 1.60473 0
M  V30 2932 C 291.17 4.48911 2.90487 0
M  V30 2933 C 292.47 5.15767 0.823497 0
M  V30 2934 H 294.164 2.98761 0.195453 0
M  V30 2935 H 291.71 1.43702 0.0925686 0
M  V30 2936 H 293.663 3.30739 2.61131 0
M  V30 2937 H 292.387 2.06749 2.52828 0
M  V30 2938 H 291.046 3.53286 0.978997 0
M  V30 2939 H 290.694 3.65862 3.45186 0
M  V30 2940 H 290.394 5.23265 2.67335 0
M  V30 2941 H 291.918 4.95771 3.56432 0
M  V30 2942 H 293.332 5.56549 1.37571 0
M  V30 2943 H 291.729 5.96114 0.690551 0
M  V30 2944 H 292.799 4.84574 -0.177782 0
M  V30 2945 N 294.142 -0.090211 1.57342 0
M  V30 2946 C 295.074 -1.13541 1.99101 0
M  V30 2947 C 296.087 -1.3604 0.894258 0
M  V30 2948 O 297.276 -1.34606 1.17233 0
M  V30 2949 C 294.376 -2.49001 2.29895 0
M  V30 2950 C 293.549 -2.46712 3.61182 0
M  V30 2951 C 292.608 -3.64136 3.79857 0
M  V30 2952 O 291.634 -3.46405 4.51655 0
M  V30 2953 N 292.836 -4.83802 3.20806 0
M  V30 2954 H 295.601 -0.779942 2.89373 0
M  V30 2955 H 293.162 -0.279125 1.59476 0
M  V30 2956 H 295.154 -3.26166 2.39578 0
M  V30 2957 H 293.724 -2.76619 1.45605 0
M  V30 2958 H 292.944 -1.55058 3.62423 0
M  V30 2959 H 294.232 -2.42265 4.4742 0
M  V30 2960 H 293.63 -5.01112 2.62494 0
M  V30 2961 H 292.187 -5.58543 3.35966 0
M  V30 2962 N 295.62 -1.53406 -0.361157 0
M  V30 2963 C 296.869 -1.69022 -1.10066 0
M  V30 2964 C 297.182 -0.450838 -1.90333 0
M  V30 2965 O 298.388 -0.487617 -2.67085 0
M  V30 2966 C 296.844 -2.98812 -2.00598 0
M  V30 2967 C 296.452 -4.30027 -1.25621 0
M  V30 2968 C 298.196 -3.23795 -2.74513 0
M  V30 2969 C 296.103 -5.50903 -2.1508 0
M  V30 2970 H 295.033 -0.629776 -0.414606 0
M  V30 2971 H 297.684 -1.79907 -0.361348 0
M  V30 2972 H 296.066 -2.8174 -2.78278 0
M  V30 2973 H 297.24 -4.57745 -0.529739 0
M  V30 2974 H 295.555 -4.11522 -0.635496 0
M  V30 2975 H 298.152 -4.11289 -3.41681 0
M  V30 2976 H 298.495 -2.40045 -3.40123 0
M  V30 2977 H 299.028 -3.41561 -2.03914 0
M  V30 2978 H 295.767 -6.37143 -1.54041 0
M  V30 2979 H 295.287 -5.27459 -2.85565 0
M  V30 2980 H 296.966 -5.85865 -2.74538 0
M  V30 2981 N 297.098 0.621204 -1.44841 0
M  V30 2982 C 298.323 1.41244 -1.51871 0
M  V30 2983 C 298.748 1.87519 -0.147764 0
M  V30 2984 O 298.106 1.59334 0.865 0
M  V30 2985 C 298.154 2.60221 -2.49634 0
M  V30 2986 O 297.258 3.60395 -2.00473 0
M  V30 2987 H 296.599 0.42223 -0.512463 0
M  V30 2988 H 299.129 0.757305 -1.90069 0
M  V30 2989 H 299.139 3.0764 -2.67996 0
M  V30 2990 H 297.814 2.25887 -3.4921 0
M  V30 2991 H 296.391 3.19717 -1.91925 0
M  V30 2992 N 298.576 1.31904 0.862503 0
M  V30 2993 C 299.987 1.19803 1.43193 0
M  V30 2994 C 300.338 -0.192567 1.95253 0
M  V30 2995 O 299.463 -1.09081 1.86896 0
M  V30 2996 C 300.058 2.16883 2.60283 0
M  V30 2997 C 298.617 2.08692 3.13248 0
M  V30 2998 C 297.764 2.05691 1.85975 0
M  V30 2999 H 300.715 1.43846 0.670365 0
M  V30 3000 H 300.736 1.76278 3.37204 0
M  V30 3001 H 300.248 3.18083 2.22363 0
M  V30 3002 H 298.349 1.10713 3.55771 0
M  V30 3003 H 298.462 2.9815 3.75025 0
M  V30 3004 H 296.826 1.50814 2.05249 0
M  V30 3005 H 297.609 3.08659 1.50282 0
M  V30 3006 N 300.054 -1.07777 1.14986 0
M  V30 3007 C 301.465 -1.61766 0.932127 0
M  V30 3008 C 301.816 -1.88974 -0.527581 0
M  V30 3009 O 300.941 -1.65198 -1.39781 0
M  V30 3010 C 301.536 -2.93891 1.68563 0
M  V30 3011 C 300.095 -3.44639 1.5133 0
M  V30 3012 C 299.242 -2.18767 1.704 0
M  V30 3013 H 302.193 -0.909201 1.30074 0
M  V30 3014 H 302.214 -3.62623 1.15259 0
M  V30 3015 H 301.726 -2.74057 2.74799 0
M  V30 3016 H 299.827 -3.69564 0.474702 0
M  V30 3017 H 299.94 -4.20966 2.28746 0
M  V30 3018 H 298.304 -2.28253 1.13016 0
M  V30 3019 H 299.087 -2.01433 2.77992 0
M  V30 3020 N 301.532 -0.945985 -1.26051 0
M  V30 3021 C 302.495 -0.463897 -2.24456 0
M  V30 3022 C 303.495 0.427655 -1.55009 0
M  V30 3023 O 304.685 0.226157 -1.72726 0
M  V30 3024 C 301.817 0.330812 -3.39291 0
M  V30 3025 H 303.01 -1.33357 -2.68619 0
M  V30 3026 H 300.563 -0.728416 -1.38289 0
M  V30 3027 H 301.298 1.21852 -3.00537 0
M  V30 3028 H 301.083 -0.308679 -3.90883 0
M  V30 3029 H 302.573 0.657865 -4.12386 0
M  V30 3030 N 303.011 1.40521 -0.713556 0
M  V30 3031 C 303.958 2.30723 -0.059684 0
M  V30 3032 C 304.928 1.48079 0.752448 0
M  V30 3033 O 306.113 1.76823 0.71681 0
M  V30 3034 C 303.253 3.34274 0.857594 0
M  V30 3035 C 302.366 4.31986 0.0351536 0
M  V30 3036 C 301.501 5.22605 0.951724 0
M  V30 3037 C 300.54 6.11976 0.123253 0
M  V30 3038 N 299.677 6.9502 0.99459 0
M  V30 3039 H 304.517 2.86074 -0.834596 0
M  V30 3040 H 302.054 1.40879 -0.42326 0
M  V30 3041 H 304.012 3.92879 1.40364 0
M  V30 3042 H 302.642 2.8043 1.59871 0
M  V30 3043 H 301.694 3.7518 -0.628052 0
M  V30 3044 H 303.006 4.95101 -0.606347 0
M  V30 3045 H 302.16 5.86131 1.56638 0
M  V30 3046 H 300.899 4.59759 1.62705 0
M  V30 3047 H 299.904 5.47482 -0.50435 0
M  V30 3048 H 301.129 6.76881 -0.548539 0
M  V30 3049 H 299.075 6.34764 1.6556 0
M  V30 3050 H 298.992 7.54892 0.40908 0
M  V30 3051 H 300.26 7.62997 1.59549 0
M  V30 3052 N 304.489 0.459591 1.5075 0
M  V30 3053 C 305.436 -0.340524 2.28274 0
M  V30 3054 C 306.406 -0.997371 1.32822 0
M  V30 3055 O 307.591 -1.01202 1.61749 0
M  V30 3056 C 304.731 -1.42317 3.14388 0
M  V30 3057 C 303.844 -0.782251 4.24859 0
M  V30 3058 C 302.979 -1.84182 4.98247 0
M  V30 3059 C 302.018 -1.18053 6.00608 0
M  V30 3060 N 301.155 -2.18244 6.67319 0
M  V30 3061 H 305.995 0.326899 2.96202 0
M  V30 3062 H 303.532 0.173057 1.46078 0
M  V30 3063 H 305.49 -2.06241 3.62658 0
M  V30 3064 H 304.12 -2.05992 2.4853 0
M  V30 3065 H 303.172 -0.0307404 3.80388 0
M  V30 3066 H 304.484 -0.259663 4.98124 0
M  V30 3067 H 303.638 -2.55714 5.50177 0
M  V30 3068 H 302.377 -2.39819 4.24662 0
M  V30 3069 H 301.382 -0.450776 5.47949 0
M  V30 3070 H 302.607 -0.631202 6.7616 0
M  V30 3071 H 300.553 -2.72919 5.96533 0
M  V30 3072 H 300.47 -1.70938 7.36421 0
M  V30 3073 H 301.738 -2.89191 7.23871 0
M  V30 3074 N 305.967 -1.56429 0.191757 0
M  V30 3075 C 307.378 -1.83912 -0.321428 0
M  V30 3076 C 307.729 -1.11231 -1.61623 0
M  V30 3077 O 306.854 -0.37202 -2.13178 0
M  V30 3078 C 307.449 -3.33624 -0.589961 0
M  V30 3079 C 306.008 -3.6153 -1.04753 0
M  V30 3080 C 305.155 -2.7714 -0.0943327 0
M  V30 3081 H 308.106 -1.53161 0.415612 0
M  V30 3082 H 308.127 -3.52213 -1.43966 0
M  V30 3083 H 307.639 -3.86495 0.352588 0
M  V30 3084 H 305.74 -3.14089 -2.00447 0
M  V30 3085 H 305.853 -4.69737 -0.942549 0
M  V30 3086 H 304.217 -2.47638 -0.595589 0
M  V30 3087 H 305 -3.32799 0.842601 0
M  V30 3088 N 307.445 0.0818655 -1.57387 0
M  V30 3089 C 308.375 1.09885 -2.06028 0
M  V30 3090 C 309.356 1.4098 -0.951774 0
M  V30 3091 O 310.541 1.50781 -1.22387 0
M  V30 3092 C 307.671 2.4151 -2.4958 0
M  V30 3093 C 306.625 2.24792 -3.64215 0
M  V30 3094 C 305.951 3.61712 -3.93787 0
M  V30 3095 C 307.251 1.67749 -4.94629 0
M  V30 3096 H 308.945 0.694128 -2.91243 0
M  V30 3097 H 306.491 0.332448 -1.4011 0
M  V30 3098 H 308.444 3.12939 -2.82219 0
M  V30 3099 H 307.168 2.83943 -1.61381 0
M  V30 3100 H 305.827 1.55807 -3.31843 0
M  V30 3101 H 305.475 4.01697 -3.02735 0
M  V30 3102 H 305.175 3.51368 -4.70971 0
M  V30 3103 H 306.699 4.34587 -4.28913 0
M  V30 3104 H 308.113 2.29032 -5.25564 0
M  V30 3105 H 306.51 1.68128 -5.76067 0
M  V30 3106 H 307.58 0.638059 -4.80684 0
M  V30 3107 N 308.923 1.53595 0.353017 0
M  V30 3108 C 310.151 1.74311 1.1146 0
M  V30 3109 C 310.566 0.477854 1.82653 0
M  V30 3110 O 309.923 -0.549977 1.74016 0
M  V30 3111 C 309.974 2.91694 2.13534 0
M  V30 3112 O 309.695 4.13325 1.45238 0
M  V30 3113 C 311.196 3.24384 3.02142 0
M  V30 3114 H 308.416 0.582669 0.332773 0
M  V30 3115 H 310.96 2.00386 0.408107 0
M  V30 3116 H 309.115 2.67977 2.79763 0
M  V30 3117 H 309.529 4.79148 2.13349 0
M  V30 3118 H 311.003 4.09893 3.69718 0
M  V30 3119 H 311.48 2.40282 3.67643 0
M  V30 3120 H 312.086 3.50073 2.41514 0
M  V30 3121 N 310.401 -0.613514 1.45168 0
M  V30 3122 C 311.348 -1.72456 1.53387 0
M  V30 3123 C 312.318 -1.6169 0.380191 0
M  V30 3124 O 313.503 -1.81356 0.592836 0
M  V30 3125 C 310.643 -3.10753 1.50088 0
M  V30 3126 C 309.756 -3.32368 2.75963 0
M  V30 3127 C 308.891 -4.60737 2.64376 0
M  V30 3128 C 307.93 -4.7559 3.85332 0
M  V30 3129 N 307.067 -5.95253 3.72315 0
M  V30 3130 H 311.907 -1.64768 2.48305 0
M  V30 3131 H 309.444 -0.803503 1.23216 0
M  V30 3132 H 311.402 -3.90758 1.46164 0
M  V30 3133 H 310.032 -3.17413 0.587243 0
M  V30 3134 H 309.084 -2.4618 2.89999 0
M  V30 3135 H 310.396 -3.39218 3.65695 0
M  V30 3136 H 309.55 -5.48928 2.58385 0
M  V30 3137 H 308.289 -4.56275 1.72233 0
M  V30 3138 H 307.294 -3.85824 3.91688 0
M  V30 3139 H 308.519 -4.81854 4.78533 0
M  V30 3140 H 306.465 -5.91847 2.82937 0
M  V30 3141 H 306.382 -6.03236 4.55677 0
M  V30 3142 H 307.65 -6.85958 3.70246 0
M  V30 3143 N 311.879 -1.3236 -0.855495 0
M  V30 3144 C 313.128 -1.22226 -1.60448 0
M  V30 3145 C 313.441 0.214733 -1.94418 0
M  V30 3146 O 314.647 0.437917 -2.67945 0
M  V30 3147 C 313.103 -2.14063 -2.89318 0
M  V30 3148 C 312.711 -3.62839 -2.62777 0
M  V30 3149 C 314.455 -2.12764 -3.67331 0
M  V30 3150 C 312.362 -4.4664 -3.87643 0
M  V30 3151 H 311.292 -0.453904 -0.602069 0
M  V30 3152 H 313.943 -1.57314 -0.944698 0
M  V30 3153 H 312.325 -1.71889 -3.5675 0
M  V30 3154 H 313.499 -4.1335 -2.03662 0
M  V30 3155 H 311.814 -3.66261 -1.98096 0
M  V30 3156 H 314.411 -2.72611 -4.59987 0
M  V30 3157 H 314.754 -1.11841 -4.00995 0
M  V30 3158 H 315.287 -2.53214 -3.06802 0
M  V30 3159 H 312.026 -5.48373 -3.5912 0
M  V30 3160 H 311.546 -4.0088 -4.46156 0
M  V30 3161 H 313.225 -4.59597 -4.55389 0
M  V30 3162 N 313.357 1.07166 -1.15556 0
M  V30 3163 C 314.603 1.80065 -0.932984 0
M  V30 3164 C 314.936 1.86586 0.53845 0
M  V30 3165 O 314.211 1.35098 1.39924 0
M  V30 3166 C 314.494 3.25022 -1.55025 0
M  V30 3167 C 314.347 3.26634 -3.09242 0
M  V30 3168 C 315.666 4.22341 -1.2376 0
M  V30 3169 H 312.785 0.653697 -0.340366 0
M  V30 3170 H 315.427 1.25389 -1.4275 0
M  V30 3171 H 313.577 3.71712 -1.12972 0
M  V30 3172 H 315.249 2.88173 -3.60214 0
M  V30 3173 H 313.492 2.65539 -3.43033 0
M  V30 3174 H 314.163 4.28854 -3.47546 0
M  V30 3175 H 316.639 3.8405 -1.60139 0
M  V30 3176 H 315.515 5.22053 -1.69564 0
M  V30 3177 H 315.776 4.41828 -0.154938 0
M  V30 3178 N 314.835 0.952656 1.25548 0
M  V30 3179 C 316.06 0.623025 1.97821 0
M  V30 3180 C 316.485 -0.7976 1.70352 0
M  V30 3181 O 315.843 -1.53905 0.958283 0
M  V30 3182 C 315.891 0.885532 3.49558 0
M  V30 3183 O 314.995 -0.0366641 4.12384 0
M  V30 3184 H 314.336 0.237082 0.620232 0
M  V30 3185 H 316.866 1.27871 1.59719 0
M  V30 3186 H 316.876 0.811009 3.99858 0
M  V30 3187 H 315.551 1.92094 3.6888 0
M  V30 3188 H 314.128 0.0898954 3.72792 0
M  V30 3189 N 316.313 -1.40141 0.720998 0
M  V30 3190 C 317.543 -2.04798 0.27226 0
M  V30 3191 C 317.951 -1.54442 -1.09289 0
M  V30 3192 O 317.294 -0.698342 -1.69908 0
M  V30 3193 C 317.356 -3.59048 0.18027 0
M  V30 3194 C 317.02 -4.32317 1.48159 0
M  V30 3195 C 318.017 -4.59902 2.42458 0
M  V30 3196 C 315.702 -4.71125 1.74202 0
M  V30 3197 C 317.696 -5.25288 3.61042 0
M  V30 3198 C 315.383 -5.36242 2.93066 0
M  V30 3199 C 316.381 -5.63254 3.86308 0
M  V30 3200 O 316.069 -6.27024 5.03086 0
M  V30 3201 H 315.801 -0.665419 0.119139 0
M  V30 3202 H 318.355 -1.80436 0.981432 0
M  V30 3203 H 316.585 -3.82251 -0.58489 0
M  V30 3204 H 318.274 -4.05221 -0.234618 0
M  V30 3205 H 319.04 -4.30379 2.23604 0
M  V30 3206 H 314.919 -4.49466 1.02477 0
M  V30 3207 H 318.463 -5.46289 4.33837 0
M  V30 3208 H 314.36 -5.65185 3.11826 0
M  V30 3209 H 315.128 -6.4552 5.03235 0
M  V30 3210 N 317.792 -0.46758 -1.50504 0
M  V30 3211 C 318.722 0.318381 -2.31319 0
M  V30 3212 C 319.703 0.993564 -1.38066 0
M  V30 3213 O 320.888 0.991411 -1.66987 0
M  V30 3214 C 318.018 1.40275 -3.17711 0
M  V30 3215 C 316.972 0.849373 -4.19487 0
M  V30 3216 C 316.298 2.03177 -4.94594 0
M  V30 3217 C 317.598 -0.136942 -5.2212 0
M  V30 3218 H 319.292 -0.356106 -2.97275 0
M  V30 3219 H 316.838 -0.172703 -1.42961 0
M  V30 3220 H 318.791 1.96004 -3.73042 0
M  V30 3221 H 317.515 2.10596 -2.49634 0
M  V30 3222 H 316.174 0.314076 -3.65252 0
M  V30 3223 H 315.822 2.72187 -4.22993 0
M  V30 3224 H 315.522 1.66774 -5.63436 0
M  V30 3225 H 317.046 2.59403 -5.52759 0
M  V30 3226 H 318.46 0.331056 -5.72343 0
M  V30 3227 H 316.857 -0.41507 -5.98663 0
M  V30 3228 H 317.927 -1.06398 -4.73083 0
M  V30 3229 N 319.27 1.56325 -0.20005 0
M  V30 3230 C 320.2 2.22318 0.713916 0
M  V30 3231 C 321.181 1.18788 1.21752 0
M  V30 3232 O 322.366 1.47309 1.26545 0
M  V30 3233 C 319.496 2.88639 1.93144 0
M  V30 3234 C 318.45 3.98457 1.56255 0
M  V30 3235 C 317.776 4.51967 2.85709 0
M  V30 3236 C 319.076 5.16612 0.768747 0
M  V30 3237 H 320.77 2.98952 0.163755 0
M  V30 3238 H 318.316 1.43792 0.0773219 0
M  V30 3239 H 320.269 3.33491 2.57608 0
M  V30 3240 H 318.993 2.09419 2.50621 0
M  V30 3241 H 317.652 3.54305 0.941471 0
M  V30 3242 H 317.3 3.69503 3.41287 0
M  V30 3243 H 317 5.26071 2.6177 0
M  V30 3244 H 318.524 4.99523 3.51154 0
M  V30 3245 H 319.938 5.57977 1.3166 0
M  V30 3246 H 318.335 5.96812 0.627286 0
M  V30 3247 H 319.405 4.84358 -0.229168 0
M  V30 3248 N 320.748 -0.0735177 1.57428 0
M  V30 3249 C 321.994 -0.774145 1.87443 0
M  V30 3250 C 322.327 -1.77311 0.792103 0
M  V30 3251 O 321.602 -1.93492 -0.197793 0
M  V30 3252 C 321.885 -1.48367 3.28115 0
M  V30 3253 C 321.738 -0.501227 4.46999 0
M  V30 3254 C 323.057 -2.429 3.66998 0
M  V30 3255 H 320.176 -0.279971 0.681752 0
M  V30 3256 H 322.818 -0.0373616 1.89963 0
M  V30 3257 H 320.968 -2.11171 3.26097 0
M  V30 3258 H 322.64 0.121468 4.6114 0
M  V30 3259 H 320.883 0.183593 4.33411 0
M  V30 3260 H 321.554 -1.03526 5.42205 0
M  V30 3261 H 324.03 -1.90175 3.70098 0
M  V30 3262 H 322.906 -2.89549 4.66318 0
M  V30 3263 H 323.167 -3.27628 2.96837 0
M  V30 3264 N 322.226 -1.5378 -0.344866 0
M  V30 3265 C 323.189 -1.80981 -1.40637 0
M  V30 3266 C 324.189 -0.680816 -1.45676 0
M  V30 3267 O 325.379 -0.949095 -1.46075 0
M  V30 3268 C 322.511 -1.95063 -2.79577 0
M  V30 3269 H 323.704 -2.75803 -1.17783 0
M  V30 3270 H 321.257 -1.45173 -0.579181 0
M  V30 3271 H 321.992 -1.02379 -3.07716 0
M  V30 3272 H 321.777 -2.77198 -2.77315 0
M  V30 3273 H 323.267 -2.17629 -3.56409 0
M  V30 3274 N 323.704 0.605807 -1.45491 0
M  V30 3275 C 324.614 1.74466 -1.56839 0
M  V30 3276 C 325.63 1.68006 -0.452772 0
M  V30 3277 O 326.806 1.8833 -0.713708 0
M  V30 3278 C 323.871 3.10931 -1.53371 0
M  V30 3279 C 322.932 3.28832 -2.75986 0
M  V30 3280 C 322.165 4.58787 -2.72673 0
M  V30 3281 O 322.388 5.4122 -1.80102 0
M  V30 3282 O 321.322 4.79438 -3.63899 0
M  V30 3283 H 325.148 1.67843 -2.53106 0
M  V30 3284 H 322.733 0.770108 -1.28022 0
M  V30 3285 H 324.615 3.92233 -1.54051 0
M  V30 3286 H 323.29 3.18042 -0.602572 0
M  V30 3287 H 322.197 2.47112 -2.80867 0
M  V30 3288 H 323.53 3.26599 -3.68231 0
M  V30 3289 N 325.182 1.32811 0.848464 0
M  V30 3290 C 326.593 1.21315 1.41914 0
M  V30 3291 C 326.944 -0.171847 1.95446 0
M  V30 3292 O 326.069 -1.07093 1.88043 0
M  V30 3293 C 326.664 2.19631 2.57968 0
M  V30 3294 C 325.223 2.12003 3.11017 0
M  V30 3295 C 324.37 2.07651 1.83783 0
M  V30 3296 H 327.321 1.44549 0.655071 0
M  V30 3297 H 327.342 1.79845 3.35315 0
M  V30 3298 H 326.854 3.20423 2.18976 0
M  V30 3299 H 324.955 1.14481 3.54577 0
M  V30 3300 H 325.068 3.02111 3.71841 0
M  V30 3301 H 323.432 1.52983 2.03638 0
M  V30 3302 H 324.215 3.10235 1.47 0
M  V30 3303 N 326.66 -1.06551 1.16123 0
M  V30 3304 C 327.937 -1.76097 0.85142 0
M  V30 3305 C 328.317 -2.00802 -0.6513 0
M  V30 3306 O 327.665 -1.63302 -1.59827 0
M  V30 3307 C 327.875 -3.06384 1.67122 0
M  V30 3308 C 329.223 -3.80585 1.88255 0
M  V30 3309 O 330.247 -3.16218 1.63966 0
M  V30 3310 O 329.106 -4.96212 2.2899 0
M  V30 3311 H 326.2 -0.765102 0.313923 0
M  V30 3312 H 328.746 -1.12844 1.26745 0
M  V30 3313 H 327.518 -2.84071 2.69108 0
M  V30 3314 H 327.141 -3.77371 1.25206 0
M  V30 3315 N 328.138 -0.959301 -1.25041 0
M  V30 3316 C 329.085 -0.482057 -2.2571 0
M  V30 3317 C 330.055 0.467939 -1.59372 0
M  V30 3318 O 331.24 0.380159 -1.86974 0
M  V30 3319 C 328.38 0.229623 -3.44335 0
M  V30 3320 C 327.493 -0.758156 -4.25295 0
M  V30 3321 C 326.628 -0.0234403 -5.31195 0
M  V30 3322 C 325.667 -1.00184 -6.03846 0
M  V30 3323 N 324.804 -0.29769 -7.01469 0
M  V30 3324 H 329.644 -1.34538 -2.65901 0
M  V30 3325 H 327.181 -0.674592 -1.3072 0
M  V30 3326 H 329.139 0.658856 -4.11965 0
M  V30 3327 H 327.769 1.05696 -3.05005 0
M  V30 3328 H 326.821 -1.30586 -3.57284 0
M  V30 3329 H 328.133 -1.50458 -4.75567 0
M  V30 3330 H 327.287 0.464201 -6.04922 0
M  V30 3331 H 326.026 0.755741 -4.81809 0
M  V30 3332 H 325.031 -1.50044 -5.2893 0
M  V30 3333 H 326.256 -1.78133 -6.55321 0
M  V30 3334 H 324.202 0.462668 -6.54366 0
M  V30 3335 H 324.119 -0.983128 -7.4958 0
M  V30 3336 H 325.387 0.16826 -7.79318 0
M  V30 3337 N 329.616 1.39756 -0.72842 0
M  V30 3338 C 330.546 2.33289 -0.0991354 0
M  V30 3339 C 331.527 1.53568 0.731489 0
M  V30 3340 O 332.712 1.81987 0.677807 0
M  V30 3341 C 329.842 3.3763 0.813834 0
M  V30 3342 C 328.796 4.2791 0.0878663 0
M  V30 3343 C 328.122 5.22894 1.11741 0
M  V30 3344 C 329.422 5.11314 -1.06563 0
M  V30 3345 H 331.116 2.86163 -0.880408 0
M  V30 3346 H 328.662 1.37591 -0.424819 0
M  V30 3347 H 330.615 4.0201 1.26355 0
M  V30 3348 H 329.339 2.83181 1.62715 0
M  V30 3349 H 327.998 3.65 -0.342159 0
M  V30 3350 H 327.646 4.64744 1.92412 0
M  V30 3351 H 327.346 5.84143 0.636477 0
M  V30 3352 H 328.87 5.90151 1.56697 0
M  V30 3353 H 330.284 5.69076 -0.694671 0
M  V30 3354 H 328.681 5.81671 -1.47577 0
M  V30 3355 H 329.751 4.46534 -1.89038 0
M  V30 3356 N 331.094 0.475555 1.50254 0
M  V30 3357 C 332.324 -0.0753399 2.06463 0
M  V30 3358 C 332.732 -1.33661 1.33908 0
M  V30 3359 O 332.075 -1.79219 0.403257 0
M  V30 3360 C 332.137 -0.424921 3.5698 0
M  V30 3361 C 331.801 0.734965 4.51051 0
M  V30 3362 C 332.798 1.61827 4.94073 0
M  V30 3363 C 330.483 0.926557 4.9368 0
M  V30 3364 C 332.477 2.67754 5.78434 0
M  V30 3365 C 330.164 1.98904 5.77824 0
M  V30 3366 C 331.162 2.8629 6.20103 0
M  V30 3367 O 330.85 3.90708 7.02568 0
M  V30 3368 H 330.582 0.00576308 0.675975 0
M  V30 3369 H 333.136 0.664662 1.94349 0
M  V30 3370 H 331.366 -1.21817 3.67012 0
M  V30 3371 H 333.055 -0.911422 3.95535 0
M  V30 3372 H 333.821 1.48196 4.61804 0
M  V30 3373 H 329.7 0.25584 4.6029 0
M  V30 3374 H 333.244 3.35992 6.11355 0
M  V30 3375 H 329.141 2.12541 6.09505 0
M  V30 3376 H 329.909 3.87751 7.20827 0
M  V30 3377 N 332.573 -1.56217 0.208337 0
M  V30 3378 C 333.536 -2.18455 -0.693557 0
M  V30 3379 C 334.536 -1.14268 -1.13135 0
M  V30 3380 O 335.726 -1.39577 -1.0423 0
M  V30 3381 C 332.858 -2.79727 -1.94848 0
M  V30 3382 H 334.051 -2.99519 -0.15114 0
M  V30 3383 H 331.604 -1.56245 -0.041287 0
M  V30 3384 H 332.339 -2.02497 -2.53309 0
M  V30 3385 H 332.124 -3.56009 -1.64316 0
M  V30 3386 H 333.614 -3.27475 -2.59133 0
M  V30 3387 N 334.051 0.0651679 -1.57465 0
M  V30 3388 C 334.984 1.10876 -1.99453 0
M  V30 3389 C 335.962 1.37205 -0.872555 0
M  V30 3390 O 337.146 1.50468 -1.13542 0
M  V30 3391 C 334.273 2.45167 -2.3369 0
M  V30 3392 C 333.319 2.3493 -3.55964 0
M  V30 3393 S 334.152 1.73708 -5.06543 0
M  V30 3394 C 335.308 3.09563 -5.43987 0
M  V30 3395 H 335.541 0.750967 -2.87659 0
M  V30 3396 H 333.074 0.273933 -1.51951 0
M  V30 3397 H 335.032 3.22412 -2.54088 0
M  V30 3398 H 333.693 2.78105 -1.46001 0
M  V30 3399 H 332.886 3.3398 -3.77457 0
M  V30 3400 H 332.488 1.65823 -3.3523 0
M  V30 3401 H 334.78 4.05882 -5.42463 0
M  V30 3402 H 335.723 2.92843 -6.44708 0
M  V30 3403 H 336.131 3.10474 -4.71451 0
M  V30 3404 N 335.529 1.53961 0.336706 0
M  V30 3405 C 336.94 1.62914 0.911925 0
M  V30 3406 C 337.291 0.514795 1.89326 0
M  V30 3407 O 336.416 -0.354395 2.13478 0
M  V30 3408 C 337.011 2.95304 1.66076 0
M  V30 3409 C 335.57 3.06496 2.18489 0
M  V30 3410 C 334.717 2.58403 1.00613 0
M  V30 3411 H 337.668 1.58285 0.114649 0
M  V30 3412 H 337.689 2.84727 2.5241 0
M  V30 3413 H 337.201 3.76387 0.946276 0
M  V30 3414 H 335.302 2.3006 2.93092 0
M  V30 3415 H 335.415 4.1208 2.44391 0
M  V30 3416 H 333.779 2.13977 1.38152 0
M  V30 3417 H 334.562 3.41932 0.306179 0
M  V30 3418 N 337.007 -0.598083 1.45811 0
M  V30 3419 C 338.418 -1.18011 1.44673 0
M  V30 3420 C 338.769 -1.95378 0.179364 0
M  V30 3421 O 337.894 -2.04124 -0.718509 0
M  V30 3422 C 338.489 -2.14677 2.62105 0
M  V30 3423 C 337.048 -2.68236 2.64057 0
M  V30 3424 C 336.195 -1.43816 2.37091 0
M  V30 3425 H 339.146 -0.38686 1.53913 0
M  V30 3426 H 339.167 -2.97878 2.36746 0
M  V30 3427 H 338.679 -1.5834 3.5433 0
M  V30 3428 H 336.78 -3.28486 1.75864 0
M  V30 3429 H 336.893 -3.12021 3.63566 0
M  V30 3430 H 335.257 -1.731 1.86838 0
M  V30 3431 H 336.04 -0.893333 3.31473 0
M  V30 3432 N 338.485 -1.33259 -0.841409 0
M  V30 3433 C 339.896 -1.22066 -1.41269 0
M  V30 3434 C 340.247 0.161479 -1.95534 0
M  V30 3435 O 339.372 1.06094 -1.88608 0
M  V30 3436 C 339.967 -2.20996 -2.568 0
M  V30 3437 C 338.526 -2.13649 -3.09888 0
M  V30 3438 C 337.673 -2.08623 -1.82679 0
M  V30 3439 H 340.624 -1.44895 -0.647395 0
M  V30 3440 H 340.645 -1.81621 -3.34356 0
M  V30 3441 H 340.157 -3.2158 -2.17274 0
M  V30 3442 H 338.258 -1.16359 -3.53965 0
M  V30 3443 H 338.371 -3.04079 -3.70234 0
M  V30 3444 H 336.735 -1.54061 -2.02824 0
M  V30 3445 H 337.518 -3.1101 -1.45353 0
M  V30 3446 N 339.963 1.05934 -1.16686 0
M  V30 3447 C 341.211 1.78447 -0.948744 0
M  V30 3448 C 341.532 1.87813 0.524523 0
M  V30 3449 O 340.802 1.38945 1.38098 0
M  V30 3450 H 339.382 0.660971 -0.348033 0
M  V30 3451 H 342.044 1.27947 -1.47022 0
M  V30 3452 H 341.14 2.80394 -1.37061 0
M  V30 3453 N 341.441 0.965919 1.2453 0
M  V30 3454 C 342.374 0.4393 2.23932 0
M  V30 3455 C 343.352 -0.485615 1.55179 0
M  V30 3456 O 344.536 -0.417402 1.83821 0
M  V30 3457 C 341.663 -0.366042 3.36716 0
M  V30 3458 C 340.709 0.5009 4.23548 0
M  V30 3459 S 341.542 1.94002 4.99123 0
M  V30 3460 C 342.698 1.14342 6.15367 0
M  V30 3461 H 342.931 1.28167 2.68254 0
M  V30 3462 H 340.464 0.770819 1.33782 0
M  V30 3463 H 342.422 -0.824724 4.0213 0
M  V30 3464 H 341.083 -1.18337 2.90956 0
M  V30 3465 H 340.276 -0.117341 5.03863 0
M  V30 3466 H 339.878 0.89524 3.63127 0
M  V30 3467 H 342.17 0.397572 6.76332 0
M  V30 3468 H 343.113 1.92089 6.81548 0
M  V30 3469 H 343.521 0.668579 5.60527 0
M  V30 3470 N 342.919 -1.39368 0.735821 0
M  V30 3471 C 344.33 -1.83313 0.354015 0
M  V30 3472 C 344.681 -1.61461 -1.11466 0
M  V30 3473 O 343.806 -1.10621 -1.85989 0
M  V30 3474 C 344.401 -3.32781 0.635769 0
M  V30 3475 C 342.96 -3.75142 0.307448 0
M  V30 3476 C 342.107 -2.62358 0.897974 0
M  V30 3477 H 345.058 -1.28349 0.933398 0
M  V30 3478 H 345.079 -3.80388 -0.0921773 0
M  V30 3479 H 344.591 -3.48654 1.70476 0
M  V30 3480 H 342.692 -3.64857 -0.755674 0
M  V30 3481 H 342.805 -4.72532 0.790583 0
M  V30 3482 H 341.169 -2.52624 0.324551 0
M  V30 3483 H 341.952 -2.81036 1.97164 0
M  V30 3484 N 344.397 -0.483516 -1.5 0
M  V30 3485 C 345.307 0.309172 -2.32554 0
M  V30 3486 C 346.323 0.984159 -1.43493 0
M  V30 3487 O 347.499 0.969399 -1.76535 0
M  V30 3488 C 344.564 1.36979 -3.18493 0
M  V30 3489 C 343.625 0.710095 -4.23387 0
M  V30 3490 C 342.858 1.72018 -5.05218 0
M  V30 3491 O 343.081 2.94813 -4.88305 0
M  V30 3492 O 342.015 1.28515 -5.8802 0
M  V30 3493 H 345.841 -0.366064 -3.01486 0
M  V30 3494 H 343.426 -0.24514 -1.47375 0
M  V30 3495 H 345.308 1.98385 -3.71781 0
M  V30 3496 H 343.983 2.02828 -2.52275 0
M  V30 3497 H 342.89 0.0567539 -3.74057 0
M  V30 3498 H 344.223 0.0943557 -4.9211 0
M  V30 3499 N 345.875 1.56104 -0.216619 0
M  V30 3500 C 347.123 1.97781 0.415593 0
M  V30 3501 C 347.444 1.10536 1.60645 0
M  V30 3502 O 346.714 0.181303 1.95059 0
M  V30 3503 H 345.294 0.730415 0.156534 0
M  V30 3504 H 347.956 1.92445 -0.308366 0
M  V30 3505 H 347.052 3.03072 0.74525 0
M  V30 3506 N 347.353 -0.0568162 1.57498 0
M  V30 3507 C 348.63 -0.786954 1.79071 0
M  V30 3508 C 349.01 -1.95028 0.80792 0
M  V30 3509 O 348.358 -2.27968 -0.155858 0
M  V30 3510 C 348.568 -1.24594 3.26002 0
M  V30 3511 C 349.916 -1.67323 3.90241 0
M  V30 3512 O 350.94 -1.34124 3.29984 0
M  V30 3513 O 349.799 -2.28842 4.9628 0
M  V30 3514 H 346.893 -0.378262 0.735423 0
M  V30 3515 H 349.439 -0.035734 1.69662 0
M  V30 3516 H 348.211 -0.41423 3.89101 0
M  V30 3517 H 347.834 -2.05803 3.40192 0
M  V30 3518 N 348.832 -1.54138 -0.328536 0
M  V30 3519 C 350.081 -1.71318 -1.06456 0
M  V30 3520 C 350.394 -0.491109 -1.89334 0
M  V30 3521 O 351.6 -0.54416 -2.65991 0
M  V30 3522 C 350.056 -3.03 -1.94214 0
M  V30 3523 C 349.664 -4.32595 -1.16471 0
M  V30 3524 C 351.408 -3.29544 -2.67583 0
M  V30 3525 C 349.315 -5.55341 -2.03347 0
M  V30 3526 H 348.245 -0.638429 -0.401155 0
M  V30 3527 H 350.896 -1.80633 -0.323106 0
M  V30 3528 H 349.278 -2.87579 -2.72239 0
M  V30 3529 H 350.452 -4.58766 -0.432525 0
M  V30 3530 H 348.767 -4.12777 -0.548063 0
M  V30 3531 H 351.364 -4.18444 -3.3288 0
M  V30 3532 H 351.707 -2.47206 -3.34955 0
M  V30 3533 H 352.24 -3.45809 -1.96623 0
M  V30 3534 H 348.979 -6.40268 -1.40491 0
M  V30 3535 H 348.499 -5.33397 -2.74313 0
M  V30 3536 H 350.178 -5.91557 -2.62049 0
M  V30 3537 N 350.31 0.590341 -1.46126 0
M  V30 3538 C 351.257 1.69994 -1.56111 0
M  V30 3539 C 352.227 1.61065 -0.405867 0
M  V30 3540 O 353.412 1.8039 -0.621613 0
M  V30 3541 C 350.552 3.08326 -1.55013 0
M  V30 3542 C 349.665 3.27936 -2.81215 0
M  V30 3543 C 348.8 4.56473 -2.71673 0
M  V30 3544 C 347.839 4.694 -3.92849 0
M  V30 3545 N 346.976 5.89254 -3.81738 0
M  V30 3546 H 351.816 1.60797 -2.50895 0
M  V30 3547 H 349.353 0.783799 -1.24479 0
M  V30 3548 H 351.311 3.88383 -1.52362 0
M  V30 3549 H 349.941 3.16439 -0.637667 0
M  V30 3550 H 348.993 2.41536 -2.93879 0
M  V30 3551 H 350.305 3.33357 -3.71045 0
M  V30 3552 H 349.459 5.44748 -2.67085 0
M  V30 3553 H 348.198 4.53477 -1.7947 0
M  V30 3554 H 347.203 3.79544 -3.97777 0
M  V30 3555 H 348.428 4.7418 -4.86138 0
M  V30 3556 H 346.374 5.87271 -2.92317 0
M  V30 3557 H 346.291 5.95911 -4.65217 0
M  V30 3558 H 347.559 6.79981 -3.81112 0
M  V30 3559 N 351.788 1.33704 0.83433 0
M  V30 3560 C 352.751 1.24244 1.92603 0
M  V30 3561 C 353.751 0.160383 1.59998 0
M  V30 3562 O 354.941 0.412228 1.69252 0
M  V30 3563 C 352.073 0.91555 3.28376 0
M  V30 3564 H 353.266 2.21287 2.02416 0
M  V30 3565 H 350.819 1.17827 1.02696 0
M  V30 3566 H 351.554 -0.0521886 3.24258 0
M  V30 3567 H 351.339 1.69811 3.53422 0
M  V30 3568 H 352.829 0.874231 4.08347 0
M  V30 3569 N 353.266 -1.05314 1.17247 0
M  V30 3570 C 354.196 -2.1498 0.911362 0
M  V30 3571 C 355.177 -1.69471 -0.146169 0
M  V30 3572 O 356.362 -1.942 0.003812 0
M  V30 3573 C 353.492 -3.4472 0.422528 0
M  V30 3574 C 352.446 -4.03789 1.4191 0
M  V30 3575 C 351.772 -5.28858 0.788274 0
M  V30 3576 C 353.072 -4.41418 2.7919 0
M  V30 3577 H 354.766 -2.3708 1.82848 0
M  V30 3578 H 352.312 -1.13938 0.880569 0
M  V30 3579 H 354.265 -4.20787 0.227289 0
M  V30 3580 H 352.989 -3.22269 -0.530123 0
M  V30 3581 H 351.648 -3.2979 1.60106 0
M  V30 3582 H 351.296 -5.02709 -0.171173 0
M  V30 3583 H 350.996 -5.69338 1.45353 0
M  V30 3584 H 352.52 -6.07612 0.603282 0
M  V30 3585 H 353.934 -5.08524 2.64719 0
M  V30 3586 H 352.331 -4.92913 3.42282 0
M  V30 3587 H 353.401 -3.51819 3.33693 0
M  V30 3588 N 354.744 -0.972509 -1.24016 0
M  V30 3589 C 355.972 -0.654803 -1.96265 0
M  V30 3590 C 356.387 0.776708 -1.72083 0
M  V30 3591 O 355.744 1.52171 -1.00748 0
M  V30 3592 C 355.795 -0.92592 -3.49441 0
M  V30 3593 O 355.516 -2.30116 -3.72798 0
M  V30 3594 C 357.017 -0.623068 -4.38899 0
M  V30 3595 H 354.237 -0.243907 -0.6251 0
M  V30 3596 H 356.781 -1.30175 -1.57717 0
M  V30 3597 H 354.936 -0.325108 -3.86033 0
M  V30 3598 H 355.35 -2.38483 -4.67147 0
M  V30 3599 H 356.824 -0.863189 -5.45209 0
M  V30 3600 H 357.301 0.442754 -4.36963 0
M  V30 3601 H 357.907 -1.204 -4.07902 0
M  V30 3602 N 356.222 1.38976 -0.743202 0
M  V30 3603 C 357.45 2.04636 -0.30525 0
M  V30 3604 C 357.865 1.56044 1.06281 0
M  V30 3605 O 357.222 0.728921 1.67311 0
M  V30 3606 C 357.273 3.60193 -0.307177 0
M  V30 3607 O 356.994 4.06998 -1.62124 0
M  V30 3608 C 358.495 4.4306 0.145928 0
M  V30 3609 H 355.715 0.65788 -0.132041 0
M  V30 3610 H 358.259 1.77866 -1.00915 0
M  V30 3611 H 356.414 3.85835 0.347898 0
M  V30 3612 H 356.828 5.01371 -1.54036 0
M  V30 3613 H 358.302 5.51921 0.0934183 0
M  V30 3614 H 358.779 4.22706 1.19231 0
M  V30 3615 H 359.385 4.22584 -0.479886 0
M  V30 3616 N 357.7 0.491464 1.49741 0
M  V30 3617 C 358.63 -0.28154 2.31796 0
M  V30 3618 C 359.611 -0.971473 1.3963 0
M  V30 3619 O 360.796 -0.964719 1.68543 0
M  V30 3620 C 357.926 -1.35203 3.19902 0
M  V30 3621 C 356.88 -0.782529 4.20786 0
M  V30 3622 C 356.206 -1.95283 4.97764 0
M  V30 3623 C 357.506 0.21999 5.21837 0
M  V30 3624 H 359.2 0.403355 2.96671 0
M  V30 3625 H 356.746 0.195425 1.42668 0
M  V30 3626 H 358.699 -1.90045 3.76113 0
M  V30 3627 H 357.423 -2.06598 2.52953 0
M  V30 3628 H 356.082 -0.255928 3.65706 0
M  V30 3629 H 355.73 -2.65423 4.2727 0
M  V30 3630 H 355.43 -1.57789 5.66018 0
M  V30 3631 H 356.954 -2.50577 5.56816 0
M  V30 3632 H 358.368 -0.23996 5.72798 0
M  V30 3633 H 356.765 0.51026 5.97927 0
M  V30 3634 H 357.835 1.13911 4.7133 0
M  V30 3635 N 359.178 -1.55987 0.224894 0
M  V30 3636 C 360.418 -2.00293 -0.407706 0
M  V30 3637 C 360.782 -1.1093 -1.56711 0
M  V30 3638 O 361.983 -1.44597 -2.26595 0
M  V30 3639 C 360.254 -3.47675 -0.82805 0
M  V30 3640 S 361.813 -4.14 -1.45429 0
M  V30 3641 H 358.631 -0.699152 -0.129256 0
M  V30 3642 H 361.233 -1.92609 0.334967 0
M  V30 3643 H 359.937 -4.10392 0.0253964 0
M  V30 3644 H 359.468 -3.59239 -1.60345 0
M  V30 3645 H 361.483 -4.13465 -2.74337 0
M  V30 3646 N 360.656 0.0484629 -1.57525 0
M  V30 3647 C 361.933 0.777447 -1.79486 0
M  V30 3648 C 362.313 1.94597 -0.818251 0
M  V30 3649 O 361.661 2.28047 0.143767 0
M  V30 3650 C 361.871 1.22864 -3.26658 0
M  V30 3651 C 363.219 1.65251 -3.91123 0
M  V30 3652 O 364.243 1.32372 -3.3069 0
M  V30 3653 O 363.102 2.26207 -4.97486 0
M  V30 3654 H 360.196 0.374357 -0.737419 0
M  V30 3655 H 362.742 0.0267359 -1.69679 0
M  V30 3656 H 361.514 0.393589 -3.89316 0
M  V30 3657 H 361.137 2.03996 -3.41279 0
M  V30 3658 N 362.134 1.5431 0.320358 0
M  V30 3659 C 363.064 1.86912 1.3995 0
M  V30 3660 C 364.045 0.726211 1.53819 0
M  V30 3661 O 365.23 0.980233 1.67646 0
M  V30 3662 C 362.36 2.09932 2.7667 0
M  V30 3663 C 361.314 3.25776 2.77586 0
M  V30 3664 C 360.64 3.34173 4.17412 0
M  V30 3665 C 361.94 4.6335 2.41048 0
M  V30 3666 H 363.634 2.77292 1.12914 0
M  V30 3667 H 361.18 1.33421 0.541738 0
M  V30 3668 H 363.133 2.31324 3.52232 0
M  V30 3669 H 361.857 1.16304 3.0519 0
M  V30 3670 H 360.516 3.04276 2.04479 0
M  V30 3671 H 360.164 2.38098 4.43078 0
M  V30 3672 H 359.864 4.12033 4.18931 0
M  V30 3673 H 361.388 3.57803 4.94782 0
M  V30 3674 H 362.802 4.84602 3.06324 0
M  V30 3675 H 361.199 5.43782 2.53813 0
M  V30 3676 H 362.269 4.65381 1.36193 0
M  V30 3677 N 363.613 -0.582584 1.46437 0
M  V30 3678 C 364.576 -1.67366 1.56592 0
M  V30 3679 C 365.576 -1.54575 0.443072 0
M  V30 3680 O 366.766 -1.59191 0.707381 0
M  V30 3681 C 363.898 -3.06791 1.48634 0
M  V30 3682 H 365.091 -1.5972 2.5383 0
M  V30 3683 H 362.644 -0.800432 1.34249 0
M  V30 3684 H 363.379 -3.19993 0.526763 0
M  V30 3685 H 363.164 -3.17484 2.30101 0
M  V30 3686 H 364.654 -3.86218 1.58826 0
M  V30 3687 N 365.091 -1.34144 -0.827227 0
M  V30 3688 C 366.368 -1.16844 -1.56865 0
M  V30 3689 C 366.748 0.260654 -2.09485 0
M  V30 3690 O 366.096 1.26138 -1.9053 0
M  V30 3691 C 366.306 -2.21939 -2.6934 0
M  V30 3692 C 367.654 -2.56695 -3.3822 0
M  V30 3693 O 368.678 -2.20695 -2.79593 0
M  V30 3694 O 367.537 -3.18518 -4.44082 0
M  V30 3695 H 364.631 -0.452669 -0.692112 0
M  V30 3696 H 367.177 -1.45763 -0.868973 0
M  V30 3697 H 365.949 -3.17882 -2.28182 0
M  V30 3698 H 365.572 -1.94172 -3.46962 0
M  V30 3699 N 366.569 1.04691 -1.17803 0
M  V30 3700 C 367.985 1.29963 -0.926379 0
M  V30 3701 C 368.185 1.97251 0.411635 0
M  V30 3702 O 367.241 2.24922 1.14744 0
M  V30 3703 C 368.554 2.16447 -2.08737 0
M  V30 3704 C 370.102 2.29814 -2.12496 0
M  V30 3705 C 370.577 3.19661 -3.27995 0
M  V30 3706 N 372.068 3.27247 -3.27816 0
M  V30 3707 C 372.803 3.96906 -4.13827 0
M  V30 3708 N 372.299 4.6895 -5.09959 0
M  V30 3709 N 374.092 3.93122 -4.01761 0
M  V30 3710 H 366.243 0.594182 -2.0392 0
M  V30 3711 H 368.506 0.324649 -0.890678 0
M  V30 3712 H 368.212 1.74304 -3.05469 0
M  V30 3713 H 368.086 3.17103 -2.04268 0
M  V30 3714 H 370.473 2.71196 -1.16347 0
M  V30 3715 H 370.554 1.2877 -2.21025 0
M  V30 3716 H 370.198 2.78991 -4.24413 0
M  V30 3717 H 370.128 4.20722 -3.16703 0
M  V30 3718 H 372.619 2.75921 -2.58217 0
M  V30 3719 H 372.932 5.19679 -5.71974 0
M  V30 3720 H 371.277 4.67875 -5.13924 0
M  V30 3721 H 374.468 3.35967 -3.2595 0
M  V30 3722 H 374.641 4.47139 -4.6901 0
M  V30 3723 N 368.047 0.979072 1.23499 0
M  V30 3724 C 368.957 0.526431 2.28617 0
M  V30 3725 C 369.973 -0.418126 1.68901 0
M  V30 3726 O 371.149 -0.288372 1.99325 0
M  V30 3727 C 368.214 -0.165235 3.46306 0
M  V30 3728 C 367.275 0.82056 4.21385 0
M  V30 3729 C 366.508 0.161807 5.33455 0
M  V30 3730 O 366.731 -1.04742 5.60701 0
M  V30 3731 O 365.665 0.859708 5.95729 0
M  V30 3732 H 369.491 1.4006 2.69475 0
M  V30 3733 H 367.076 0.746643 1.29405 0
M  V30 3734 H 368.958 -0.553287 4.17752 0
M  V30 3735 H 367.633 -1.01419 3.07402 0
M  V30 3736 H 366.54 1.25929 3.52268 0
M  V30 3737 H 367.873 1.63828 4.64135 0
M  V30 3738 N 369.525 -1.3858 0.750561 0
M  V30 3739 C 370.455 -2.33102 0.136237 0
M  V30 3740 C 371.436 -1.54713 -0.706965 0
M  V30 3741 O 372.621 -1.83043 -0.648769 0
M  V30 3742 C 369.751 -3.38882 -0.760017 0
M  V30 3743 C 368.705 -4.27995 -0.0197785 0
M  V30 3744 C 368.031 -5.24605 -1.03408 0
M  V30 3745 C 369.331 -5.09554 1.14684 0
M  V30 3746 H 371.025 -2.84726 0.925822 0
M  V30 3747 H 368.571 -1.36898 0.446654 0
M  V30 3748 H 370.524 -4.0397 -1.19943 0
M  V30 3749 H 369.248 -2.85734 -1.58189 0
M  V30 3750 H 367.907 -3.64409 0.400184 0
M  V30 3751 H 367.555 -4.67746 -1.84994 0
M  V30 3752 H 367.255 -5.85081 -0.543464 0
M  V30 3753 H 368.779 -5.9257 -1.47288 0
M  V30 3754 H 370.193 -5.67899 0.785118 0
M  V30 3755 H 368.59 -5.7925 1.56812 0
M  V30 3756 H 369.66 -4.4347 1.96118 0
M  V30 3757 N 371.003 -0.499398 -1.49478 0
M  V30 3758 C 372.249 0.0457576 -2.02748 0
M  V30 3759 C 372.582 1.36793 -1.37846 0
M  V30 3760 O 371.857 1.87596 -0.513601 0
M  V30 3761 C 372.14 0.199986 -3.59544 0
M  V30 3762 C 371.993 -1.1452 -4.34977 0
M  V30 3763 C 373.312 0.94137 -4.29914 0
M  V30 3764 H 370.431 0.0151552 -0.736844 0
M  V30 3765 H 373.073 -0.650498 -1.78518 0
M  V30 3766 H 371.223 0.793007 -3.8032 0
M  V30 3767 H 372.895 -1.77697 -4.25701 0
M  V30 3768 H 371.138 -1.73488 -3.97598 0
M  V30 3769 H 371.809 -0.990607 -5.43039 0
M  V30 3770 H 374.285 0.43844 -4.13784 0
M  V30 3771 H 373.161 1.01812 -5.39375 0
M  V30 3772 H 373.422 1.98471 -3.95046 0
M  V30 3773 N 372.481 1.55866 -0.233164 0
M  V30 3774 C 373.727 1.98897 0.395959 0
M  V30 3775 C 374.06 1.12091 1.58585 0
M  V30 3776 O 373.335 0.181182 1.93654 0
M  V30 3777 C 373.618 3.50658 0.819224 0
M  V30 3778 C 373.471 4.48233 -0.375109 0
M  V30 3779 C 374.79 4.07135 1.67121 0
M  V30 3780 H 371.909 0.723102 0.142451 0
M  V30 3781 H 374.551 1.87082 -0.331725 0
M  V30 3782 H 372.701 3.60857 1.43925 0
M  V30 3783 H 374.373 4.50031 -1.01341 0
M  V30 3784 H 372.616 4.21624 -1.02058 0
M  V30 3785 H 373.287 5.51988 -0.0358328 0
M  V30 3786 H 375.763 3.99952 1.14795 0
M  V30 3787 H 374.639 5.13615 1.93625 0
M  V30 3788 H 374.9 3.54736 2.63846 0
M  V30 3789 N 373.959 -0.0401083 1.57549 0
M  V30 3790 C 375.208 -0.732108 1.87944 0
M  V30 3791 C 375.521 -1.77107 0.830206 0
M  V30 3792 O 376.727 -2.51488 1.02302 0
M  V30 3793 C 375.183 -1.35315 3.33494 0
M  V30 3794 C 374.791 -0.351105 4.46622 0
M  V30 3795 C 376.535 -2.02566 3.73051 0
M  V30 3796 C 374.442 -0.979859 5.83226 0
M  V30 3797 H 373.372 -0.277188 0.701201 0
M  V30 3798 H 376.023 0.0138501 1.83495 0
M  V30 3799 H 374.405 -2.14844 3.32653 0
M  V30 3800 H 375.579 0.416674 4.58912 0
M  V30 3801 H 373.894 0.218708 4.15825 0
M  V30 3802 H 376.491 -2.50441 4.72423 0
M  V30 3803 H 376.834 -2.83904 3.04474 0
M  V30 3804 H 377.367 -1.29827 3.76018 0
M  V30 3805 H 374.106 -0.206135 6.55176 0
M  V30 3806 H 373.626 -1.71774 5.74677 0
M  V30 3807 H 375.305 -1.49046 6.29599 0
M  V30 3808 N 375.437 -1.54477 -0.31217 0
M  V30 3809 C 376.686 -1.72438 -1.04633 0
M  V30 3810 C 376.999 -0.511163 -1.88803 0
M  V30 3811 O 378.205 -0.572341 -2.65399 0
M  V30 3812 C 376.661 -3.05043 -1.9099 0
M  V30 3813 C 376.269 -4.33806 -1.11877 0
M  V30 3814 C 378.013 -3.32364 -2.64073 0
M  V30 3815 C 375.92 -5.57467 -1.97445 0
M  V30 3816 H 374.85 -0.642647 -0.394361 0
M  V30 3817 H 377.501 -1.80966 -0.303929 0
M  V30 3818 H 375.883 -2.90451 -2.69173 0
M  V30 3819 H 377.057 -4.59199 -0.383843 0
M  V30 3820 H 375.372 -4.13336 -0.504252 0
M  V30 3821 H 377.969 -4.21951 -3.28423 0
M  V30 3822 H 378.312 -2.50745 -3.32314 0
M  V30 3823 H 378.845 -3.47875 -1.92944 0
M  V30 3824 H 375.584 -6.41722 -1.33692 0
M  V30 3825 H 375.104 -5.36277 -2.6864 0
M  V30 3826 H 376.783 -5.94303 -2.5576 0
M  V30 3827 N 376.915 0.57481 -1.46744 0
M  V30 3828 C 378.163 1.33009 -1.52161 0
M  V30 3829 C 378.484 1.94185 -0.178092 0
M  V30 3830 O 377.754 1.7899 0.796196 0
M  V30 3831 H 376.334 0.493873 -0.560445 0
M  V30 3832 H 378.996 0.672589 -1.82927 0
M  V30 3833 H 378.092 2.13273 -2.27862 0
M  V30 3834 N 378.394 1.34581 0.820102 0
M  V30 3835 C 379.64 1.28294 1.57836 0
M  V30 3836 C 379.995 -0.145099 1.91852 0
M  V30 3837 O 379.288 -1.09209 1.57429 0
M  V30 3838 C 379.482 2.10997 2.8847 0
M  V30 3839 C 379.311 3.61698 2.67216 0
M  V30 3840 C 378.081 4.3097 2.63805 0
M  V30 3841 C 380.279 4.55638 2.38534 0
M  V30 3842 N 378.261 5.67502 2.34126 0
M  V30 3843 C 379.632 5.80194 2.18574 0
M  V30 3844 C 381.687 4.44523 2.24285 0
M  V30 3845 C 380.39 6.94886 1.8581 0
M  V30 3846 C 382.416 5.5905 1.92916 0
M  V30 3847 C 381.778 6.82627 1.73782 0
M  V30 3848 H 377.877 0.524697 0.579842 0
M  V30 3849 H 380.461 1.69323 0.961139 0
M  V30 3850 H 378.632 1.7226 3.48111 0
M  V30 3851 H 380.364 1.96333 3.53886 0
M  V30 3852 H 377.119 3.83438 2.77978 0
M  V30 3853 H 377.543 6.39525 2.22118 0
M  V30 3854 H 382.185 3.49599 2.37782 0
M  V30 3855 H 379.903 7.89789 1.7105 0
M  V30 3856 H 383.489 5.52396 1.82619 0
M  V30 3857 H 382.369 7.69748 1.49861 0
M  V30 3858 N 379.872 -1.04064 1.18357 0
M  V30 3859 C 380.835 -2.10243 0.912707 0
M  V30 3860 C 381.835 -1.60477 -0.101928 0
M  V30 3861 O 383.025 -1.73703 0.131517 0
M  V30 3862 C 380.157 -3.38893 0.369387 0
M  V30 3863 H 381.35 -2.35706 1.85426 0
M  V30 3864 H 378.903 -1.20489 0.995594 0
M  V30 3865 H 379.638 -3.19094 -0.578776 0
M  V30 3866 H 379.423 -3.76331 1.1008 0
M  V30 3867 H 380.913 -4.17128 0.198575 0
M  V30 3868 N 381.35 -0.985608 -1.22978 0
M  V30 3869 C 382.297 -0.529825 -2.24636 0
M  V30 3870 C 383.267 0.434028 -1.60329 0
M  V30 3871 O 384.452 0.340414 -1.87739 0
M  V30 3872 C 381.592 0.156533 -3.44745 0
M  V30 3873 C 380.705 -0.848197 -4.23591 0
M  V30 3874 C 379.84 -0.136109 -5.31026 0
M  V30 3875 C 378.879 -1.1297 -6.01585 0
M  V30 3876 N 378.016 -0.446415 -7.00679 0
M  V30 3877 H 382.856 -1.40148 -2.62988 0
M  V30 3878 H 380.393 -0.702168 -1.29259 0
M  V30 3879 H 382.351 0.571324 -4.1327 0
M  V30 3880 H 380.981 0.992025 -3.07179 0
M  V30 3881 H 380.033 -1.38135 -3.54433 0
M  V30 3882 H 381.345 -1.60512 -4.72268 0
M  V30 3883 H 380.499 0.335784 -6.0577 0
M  V30 3884 H 379.238 0.653373 -4.83304 0
M  V30 3885 H 378.243 -1.6123 -5.25628 0
M  V30 3886 H 379.468 -1.91993 -6.51395 0
M  V30 3887 H 377.414 0.323763 -6.55201 0
M  V30 3888 H 377.331 -1.1419 -7.47326 0
M  V30 3889 H 378.599 0.00291697 -7.795 0
M  V30 3890 N 382.828 1.3818 -0.7579 0
M  V30 3891 C 383.778 2.27741 -0.108674 0
M  V30 3892 C 384.762 1.45415 0.688709 0
M  V30 3893 O 385.954 1.68108 0.553956 0
M  V30 3894 C 383.083 3.34313 0.780367 0
M  V30 3895 C 382.169 4.24093 -0.0240977 0
M  V30 3896 N 382.56 4.9451 -1.06271 0
M  V30 3897 C 380.858 4.45542 0.202049 0
M  V30 3898 C 381.559 5.60675 -1.54979 0
M  V30 3899 N 380.535 5.36684 -0.864348 0
M  V30 3900 H 384.337 2.79649 -0.904071 0
M  V30 3901 H 381.851 1.51133 -0.594346 0
M  V30 3902 H 383.848 3.97368 1.26114 0
M  V30 3903 H 382.508 2.83962 1.57467 0
M  V30 3904 H 383.519 4.97345 -1.44459 0
M  V30 3905 H 380.196 4.06091 0.96935 0
M  V30 3906 H 381.586 6.26992 -2.41517 0
M  V30 3907 N 384.306 0.507319 1.49211 0
M  V30 3908 C 385.555 -0.0368315 2.01666 0
M  V30 3909 C 385.868 -1.37459 1.39156 0
M  V30 3910 O 387.074 -2.00579 1.82976 0
M  V30 3911 C 385.53 -0.116089 3.59713 0
M  V30 3912 C 385.138 1.2154 4.31198 0
M  V30 3913 C 386.882 -0.610268 4.2009 0
M  V30 3914 C 384.789 1.09796 5.81119 0
M  V30 3915 H 383.719 -0.0175376 0.753796 0
M  V30 3916 H 386.37 0.647691 1.71689 0
M  V30 3917 H 384.752 -0.8652 3.86433 0
M  V30 3918 H 385.926 1.9783 4.16173 0
M  V30 3919 H 384.241 1.64352 3.82593 0
M  V30 3920 H 386.838 -0.715742 5.29888 0
M  V30 3921 H 387.181 -1.61064 3.8388 0
M  V30 3922 H 387.714 0.0824916 3.97714 0
M  V30 3923 H 384.453 2.0728 6.21864 0
M  V30 3924 H 383.973 0.376058 5.9862 0
M  V30 3925 H 385.652 0.779281 6.4229 0
M  V30 3926 N 385.784 -1.5574 0.241426 0
M  V30 3927 C 387.195 -1.84842 -0.262755 0
M  V30 3928 C 387.546 -1.16317 -1.58003 0
M  V30 3929 O 386.671 -0.439653 -2.11887 0
M  V30 3930 C 387.266 -3.35332 -0.483523 0
M  V30 3931 C 385.825 -3.6468 -0.931977 0
M  V30 3932 C 384.972 -2.77299 -0.0061151 0
M  V30 3933 H 387.923 -1.51761 0.464129 0
M  V30 3934 H 387.944 -3.56615 -1.32688 0
M  V30 3935 H 387.456 -3.85178 0.47537 0
M  V30 3936 H 385.557 -3.20307 -1.90353 0
M  V30 3937 H 385.67 -4.72498 -0.792628 0
M  V30 3938 H 384.034 -2.49408 -0.516503 0
M  V30 3939 H 384.817 -3.2995 0.948052 0
M  V30 3940 N 387.262 0.0317525 -1.57568 0
M  V30 3941 C 388.51 0.721676 -1.88776 0
M  V30 3942 C 388.831 1.76039 -0.838772 0
M  V30 3943 O 388.101 1.95482 0.127935 0
M  V30 3944 H 386.681 0.269534 -0.696678 0
M  V30 3945 H 389.343 -0.00165879 -1.949 0
M  V30 3946 H 388.439 1.21293 -2.87566 0
M  V30 3947 N 388.74 1.54641 0.303973 0
M  V30 3948 C 389.987 1.7378 1.03955 0
M  V30 3949 C 390.315 0.521986 1.87365 0
M  V30 3950 O 389.57 -0.496099 1.89308 0
M  V30 3951 C 389.869 2.97753 1.97681 0
M  V30 3952 C 389.535 4.31671 1.30271 0
M  V30 3953 C 388.197 4.68075 1.11619 0
M  V30 3954 C 390.549 5.147 0.82055 0
M  V30 3955 C 387.877 5.8509 0.434304 0
M  V30 3956 C 390.229 6.32416 0.152395 0
M  V30 3957 C 388.893 6.67484 -0.0461067 0
M  V30 3958 H 388.163 0.635908 0.380398 0
M  V30 3959 H 390.81 1.88896 0.314718 0
M  V30 3960 H 389.115 2.77406 2.76682 0
M  V30 3961 H 390.812 3.09756 2.54661 0
M  V30 3962 H 387.402 4.03041 1.45795 0
M  V30 3963 H 391.586 4.87077 0.952374 0
M  V30 3964 H 386.842 6.10806 0.269495 0
M  V30 3965 H 391.016 6.96023 -0.229126 0
M  V30 3966 H 388.643 7.58011 -0.576494 0
M  V30 3967 N 390.218 -0.567019 1.47046 0
M  V30 3968 C 391.443 -1.3551 1.57009 0
M  V30 3969 C 391.868 -1.86841 0.217259 0
M  V30 3970 O 391.226 -1.62435 -0.805268 0
M  V30 3971 C 391.274 -2.50777 2.5912 0
M  V30 3972 O 390.378 -3.52706 2.13711 0
M  V30 3973 H 389.719 -0.402919 0.52778 0
M  V30 3974 H 392.249 -0.686241 1.92748 0
M  V30 3975 H 392.259 -2.97481 2.79229 0
M  V30 3976 H 390.934 -2.12771 3.57353 0
M  V30 3977 H 389.511 -3.12374 2.03659 0
M  V30 3978 N 391.696 -1.35014 -0.812953 0
M  V30 3979 C 392.921 -1.31187 -1.60639 0
M  V30 3980 C 393.346 0.109382 -1.87782 0
M  V30 3981 O 392.704 1.07424 -1.46047 0
M  V30 3982 C 392.752 -2.11809 -2.91838 0
M  V30 3983 O 391.856 -1.49444 -3.8437 0
M  V30 3984 H 391.197 -0.450084 -0.488181 0
M  V30 3985 H 393.727 -1.77963 -1.00947 0
M  V30 3986 H 393.737 -2.23531 -3.41318 0
M  V30 3987 H 392.412 -3.15137 -2.71407 0
M  V30 3988 H 390.989 -1.46524 -3.42907 0
M  V30 3989 N 393.175 1.03435 -1.18907 0
M  V30 3990 C 394.105 2.13503 -0.945448 0
M  V30 3991 C 395.086 1.69682 0.119189 0
M  V30 3992 O 396.271 1.94169 -0.034707 0
M  V30 3993 C 393.401 3.44004 -0.477316 0
M  V30 3994 C 392.355 4.0148 -1.48316 0
M  V30 3995 C 391.681 5.27537 -0.872311 0
M  V30 3996 C 392.981 4.36921 -2.86177 0
M  V30 3997 H 394.675 2.34141 -1.86597 0
M  V30 3998 H 392.221 1.12523 -0.898584 0
M  V30 3999 H 394.174 4.20372 -0.294204 0
M  V30 4000 H 392.898 3.23072 0.478786 0
M  V30 4001 H 391.557 3.27201 -1.65332 0
M  V30 4002 H 391.205 5.02917 0.0911752 0
M  V30 4003 H 390.905 5.66954 -1.54393 0
M  V30 4004 H 392.429 6.06576 -0.699871 0
M  V30 4005 H 393.843 5.04248 -2.72776 0
M  V30 4006 H 392.24 4.87405 -3.50081 0
M  V30 4007 H 393.31 3.46466 -3.39248 0
M  V30 4008 N 394.653 0.992116 1.22453 0
M  V30 4009 C 395.878 0.685644 1.95739 0
M  V30 4010 C 396.303 -0.743 1.72804 0
M  V30 4011 O 395.661 -1.50778 1.00676 0
M  V30 4012 C 395.709 0.996293 3.46564 0
M  V30 4013 O 394.813 0.0945512 4.12292 0
M  V30 4014 H 394.154 0.256694 0.612376 0
M  V30 4015 H 396.684 1.32888 1.5557 0
M  V30 4016 H 396.694 0.93781 3.97076 0
M  V30 4017 H 395.369 2.03733 3.62582 0
M  V30 4018 H 393.946 0.208451 3.72317 0
M  V30 4019 N 396.131 -1.37776 0.765217 0
M  V30 4020 C 397.061 -2.32945 0.160953 0
M  V30 4021 C 398.042 -1.55454 -0.690516 0
M  V30 4022 O 399.227 -1.83721 -0.629318 0
M  V30 4023 C 396.357 -3.39669 -0.724031 0
M  V30 4024 C 395.311 -4.27992 0.0256173 0
M  V30 4025 C 394.637 -5.25673 -0.978383 0
M  V30 4026 C 395.937 -5.08309 1.20082 0
M  V30 4027 H 397.631 -2.83728 0.955969 0
M  V30 4028 H 395.177 -1.36416 0.461149 0
M  V30 4029 H 397.13 -4.05219 -1.15652 0
M  V30 4030 H 395.854 -2.87396 -1.5515 0
M  V30 4031 H 394.513 -3.63964 0.438812 0
M  V30 4032 H 394.161 -4.69682 -1.80022 0
M  V30 4033 H 393.861 -5.85625 -0.481378 0
M  V30 4034 H 395.385 -5.94098 -1.40995 0
M  V30 4035 H 396.799 -5.67034 0.845307 0
M  V30 4036 H 395.196 -5.77554 1.62947 0
M  V30 4037 H 396.266 -4.41365 2.00811 0
M  V30 4038 N 397.609 -0.515225 -1.4894 0
M  V30 4039 C 398.857 0.0241671 -2.02086 0
M  V30 4040 C 399.178 1.3616 -1.3959 0
M  V30 4041 O 398.448 1.87841 -0.556121 0
M  V30 4042 H 397.028 0.0119203 -0.746905 0
M  V30 4043 H 399.69 -0.675702 -1.82812 0
M  V30 4044 H 398.786 0.143385 -3.1177 0
M  V30 4045 N 399.087 1.5561 -0.249682 0
M  V30 4046 C 400.364 1.90932 0.424761 0
M  V30 4047 C 400.744 1.17078 1.75658 0
M  V30 4048 O 400.092 0.289176 2.26663 0
M  V30 4049 C 400.302 3.43975 0.590109 0
M  V30 4050 C 401.65 4.15281 0.884714 0
M  V30 4051 O 402.674 3.49729 0.67587 0
M  V30 4052 O 401.533 5.31236 1.28259 0
M  V30 4053 H 398.627 0.794815 0.228468 0
M  V30 4054 H 401.173 1.67135 -0.293954 0
M  V30 4055 H 399.945 3.89748 -0.34818 0
M  V30 4056 H 399.568 3.73644 1.35926 0
M  V30 4057 N 400.565 -0.0233959 1.57583 0
M  V30 4058 C 401.497 -1.04994 2.03737 0
M  V30 4059 C 402.51 -1.32125 0.951152 0
M  V30 4060 O 403.699 -1.29512 1.22837 0
M  V30 4061 C 400.799 -2.39026 2.40249 0
M  V30 4062 C 399.972 -2.31171 3.7132 0
M  V30 4063 C 399.031 -3.47698 3.94959 0
M  V30 4064 O 398.057 -3.26937 4.65941 0
M  V30 4065 N 399.259 -4.6976 3.41037 0
M  V30 4066 H 402.024 -0.656507 2.92421 0
M  V30 4067 H 399.585 -0.211235 1.60516 0
M  V30 4068 H 401.577 -3.15712 2.53196 0
M  V30 4069 H 400.147 -2.70194 1.57207 0
M  V30 4070 H 399.367 -1.39547 3.68674 0
M  V30 4071 H 400.655 -2.23071 4.57293 0
M  V30 4072 H 400.053 -4.89528 2.83512 0
M  V30 4073 H 398.61 -5.43791 3.59353 0
M  V30 4074 N 402.043 -1.548 -0.295768 0
M  V30 4075 C 402.976 -1.81003 -1.38972 0
M  V30 4076 C 403.954 -0.661544 -1.48534 0
M  V30 4077 O 405.138 -0.902074 -1.65514 0
M  V30 4078 C 402.265 -1.95141 -2.76835 0
M  V30 4079 C 401.311 -3.17592 -2.84671 0
M  V30 4080 S 402.144 -4.75531 -2.46232 0
M  V30 4081 C 403.3 -4.92613 -3.86114 0
M  V30 4082 H 403.533 -2.73507 -1.16537 0
M  V30 4083 H 401.066 -1.46278 -0.494168 0
M  V30 4084 H 403.024 -2.03972 -3.56238 0
M  V30 4085 H 401.685 -1.03565 -2.96535 0
M  V30 4086 H 400.878 -3.24303 -3.85803 0
M  V30 4087 H 400.48 -3.07235 -2.13267 0
M  V30 4088 H 402.772 -4.76957 -4.81164 0
M  V30 4089 H 403.715 -5.94698 -3.8437 0
M  V30 4090 H 404.123 -4.2073 -3.76359 0
M  V30 4091 N 403.521 0.559213 -1.47345 0
M  V30 4092 C 404.746 1.34676 -1.57725 0
M  V30 4093 C 405.171 1.86723 -0.227164 0
M  V30 4094 O 404.529 1.6286 0.796642 0
M  V30 4095 C 404.577 2.49399 -2.60447 0
M  V30 4096 O 403.681 3.51567 -2.15578 0
M  V30 4097 H 403.022 0.400115 -0.52991 0
M  V30 4098 H 405.552 0.676009 -1.93109 0
M  V30 4099 H 405.562 2.95996 -2.80803 0
M  V30 4100 H 404.237 2.10873 -3.58477 0
M  V30 4101 H 402.814 3.11289 -2.05313 0
M  V30 4102 N 404.999 1.35443 0.805782 0
M  V30 4103 C 405.929 1.31095 1.93226 0
M  V30 4104 C 406.91 0.185244 1.69088 0
M  V30 4105 O 408.095 0.380332 1.90439 0
M  V30 4106 C 405.225 1.08299 3.29983 0
M  V30 4107 C 404.179 2.17519 3.68605 0
M  V30 4108 C 403.505 1.79887 5.03532 0
M  V30 4109 C 404.805 3.5949 3.78898 0
M  V30 4110 H 406.499 2.25352 1.97122 0
M  V30 4111 H 404.045 1.0848 0.946996 0
M  V30 4112 H 405.998 1.03897 4.08391 0
M  V30 4113 H 404.722 0.104885 3.26432 0
M  V30 4114 H 403.381 2.2102 2.92482 0
M  V30 4115 H 403.029 0.80693 4.96485 0
M  V30 4116 H 402.729 2.53001 5.30344 0
M  V30 4117 H 404.253 1.77011 5.84379 0
M  V30 4118 H 405.667 3.58307 4.47536 0
M  V30 4119 H 404.064 4.31371 4.1718 0
M  V30 4120 H 405.134 3.95584 2.80431 0
M  V30 4121 N 406.477 -1.02803 1.19454 0
M  V30 4122 C 407.407 -2.12999 0.956758 0
M  V30 4123 C 408.388 -1.69743 -0.110188 0
M  V30 4124 O 409.573 -1.94148 0.0450038 0
M  V30 4125 C 406.703 -3.43746 0.495553 0
M  V30 4126 C 405.657 -4.00688 1.50443 0
M  V30 4127 C 404.983 -5.27067 0.900275 0
M  V30 4128 C 406.283 -4.35397 2.8849 0
M  V30 4129 H 407.977 -2.33148 1.87836 0
M  V30 4130 H 405.523 -1.12045 0.904539 0
M  V30 4131 H 407.476 -4.2021 0.316493 0
M  V30 4132 H 406.2 -3.23321 -0.461646 0
M  V30 4133 H 404.859 -3.2632 1.67065 0
M  V30 4134 H 404.507 -5.02959 -0.064503 0
M  V30 4135 H 404.207 -5.66127 1.57397 0
M  V30 4136 H 405.731 -6.06196 0.73203 0
M  V30 4137 H 407.145 -5.02795 2.75446 0
M  V30 4138 H 405.542 -4.85541 3.52661 0
M  V30 4139 H 406.612 -3.44662 3.41081 0
M  V30 4140 N 407.956 -0.998596 -1.21925 0
M  V30 4141 C 408.888 -0.511879 -2.23411 0
M  V30 4142 C 409.901 0.396094 -1.57908 0
M  V30 4143 O 411.09 0.197316 -1.77406 0
M  V30 4144 C 408.19 0.276802 -3.37768 0
M  V30 4145 C 407.363 -0.628687 -4.32858 0
M  V30 4146 C 406.422 0.109272 -5.26087 0
M  V30 4147 O 405.448 -0.507237 -5.66935 0
M  V30 4148 N 406.65 1.38983 -5.63617 0
M  V30 4149 H 409.415 -1.38457 -2.658 0
M  V30 4150 H 406.976 -0.873981 -1.36283 0
M  V30 4151 H 408.968 0.77928 -3.97126 0
M  V30 4152 H 407.538 1.05063 -2.94415 0
M  V30 4153 H 406.758 -1.31175 -3.71735 0
M  V30 4154 H 408.046 -1.24514 -4.93329 0
M  V30 4155 H 407.444 1.91194 -5.32411 0
M  V30 4156 H 406.001 1.83739 -6.25367 0
M  V30 4157 N 409.434 1.37368 -0.772513 0
M  V30 4158 C 410.659 2.0447 -0.347386 0
M  V30 4159 C 411.084 1.57882 1.0225 0
M  V30 4160 O 410.442 0.73941 1.65537 0
M  V30 4161 C 410.49 3.58369 -0.400479 0
M  V30 4162 O 409.594 4.0803 0.598789 0
M  V30 4163 H 408.935 0.646773 -0.15027 0
M  V30 4164 H 411.465 1.75667 -1.04892 0
M  V30 4165 H 411.475 4.07183 -0.258045 0
M  V30 4166 H 410.15 3.91633 -1.39986 0
M  V30 4167 H 408.727 3.70534 0.419411 0
M  V30 4168 N 410.912 0.523116 1.48665 0
M  V30 4169 C 411.875 -0.232592 2.28017 0
M  V30 4170 C 412.875 -0.874021 1.34972 0
M  V30 4171 O 414.065 -0.735132 1.57929 0
M  V30 4172 C 411.197 -1.33586 3.13636 0
M  V30 4173 H 412.39 0.464008 2.96289 0
M  V30 4174 H 409.943 0.278816 1.53793 0
M  V30 4175 H 410.678 -2.06593 2.4998 0
M  V30 4176 H 410.463 -0.881125 3.82071 0
M  V30 4177 H 411.953 -1.86759 3.73511 0
M  V30 4178 N 412.39 -1.55475 0.257931 0
M  V30 4179 C 413.636 -2.00237 -0.357338 0
M  V30 4180 C 413.991 -1.14313 -1.54759 0
M  V30 4181 O 413.284 -0.201187 -1.90541 0
M  V30 4182 C 413.478 -3.48183 -0.806433 0
M  V30 4183 C 413.307 -4.48422 0.338758 0
M  V30 4184 C 412.077 -4.98651 0.817011 0
M  V30 4185 C 414.275 -5.00827 1.16949 0
M  V30 4186 N 412.257 -5.82658 1.93346 0
M  V30 4187 C 413.628 -5.82113 2.13413 0
M  V30 4188 C 415.683 -4.83104 1.2048 0
M  V30 4189 C 414.386 -6.47566 3.13131 0
M  V30 4190 C 416.412 -5.49343 2.19034 0
M  V30 4191 C 415.774 -6.30427 3.14232 0
M  V30 4192 H 411.873 -0.776034 -0.0964083 0
M  V30 4193 H 414.457 -1.90995 0.37803 0
M  V30 4194 H 412.628 -3.57801 -1.51107 0
M  V30 4195 H 414.36 -3.79802 -1.39758 0
M  V30 4196 H 411.115 -4.71914 0.39925 0
M  V30 4197 H 411.539 -6.29356 2.49478 0
M  V30 4198 H 416.181 -4.20036 0.482634 0
M  V30 4199 H 413.899 -7.09793 3.8629 0
M  V30 4200 H 417.485 -5.37579 2.22485 0
M  V30 4201 H 416.365 -6.80777 3.89246 0
M  V30 4202 N 413.868 0.0150385 -1.57593 0
M  V30 4203 C 414.801 1.04475 -2.0288 0
M  V30 4204 C 415.779 1.3436 -0.915764 0
M  V30 4205 O 416.963 1.46779 -1.18271 0
M  V30 4206 C 414.09 2.37608 -2.41371 0
M  V30 4207 C 413.136 2.23487 -3.63257 0
M  V30 4208 S 413.969 1.57505 -5.11813 0
M  V30 4209 C 415.125 2.921 -5.5356 0
M  V30 4210 H 415.358 0.65907 -2.89903 0
M  V30 4211 H 412.891 0.225452 -1.52745 0
M  V30 4212 H 414.849 3.14165 -2.64217 0
M  V30 4213 H 413.51 2.7332 -1.54775 0
M  V30 4214 H 412.703 3.21802 -3.87891 0
M  V30 4215 H 412.305 1.55074 -3.40335 0
M  V30 4216 H 414.597 3.88419 -5.55101 0
M  V30 4217 H 415.54 2.72184 -6.53698 0
M  V30 4218 H 415.948 2.95318 -4.8109 0
M  V30 4219 N 415.346 1.54954 0.287554 0
M  V30 4220 C 416.256 1.8991 1.37736 0
M  V30 4221 C 417.272 0.794701 1.54792 0
M  V30 4222 O 418.448 1.09243 1.69198 0
M  V30 4223 C 415.513 2.15108 2.71899 0
M  V30 4224 C 414.574 3.38752 2.63715 0
M  V30 4225 C 413.807 3.62739 3.91479 0
M  V30 4226 O 414.03 2.89492 4.91478 0
M  V30 4227 O 412.964 4.56267 3.92561 0
M  V30 4228 H 416.79 2.82652 1.11092 0
M  V30 4229 H 414.375 1.41315 0.484807 0
M  V30 4230 H 416.257 2.32806 3.51254 0
M  V30 4231 H 414.932 1.25551 2.9836 0
M  V30 4232 H 413.839 3.26405 1.82786 0
M  V30 4233 H 415.172 4.28483 2.42205 0
M  V30 4234 N 416.824 -0.551391 1.4764 0
M  V30 4235 C 418.073 -1.30467 1.53822 0
M  V30 4236 C 418.386 -1.94495 0.207661 0
M  V30 4237 O 419.592 -2.71099 0.147533 0
M  V30 4238 C 418.048 -2.36616 2.71184 0
M  V30 4239 C 417.656 -1.78754 4.10793 0
M  V30 4240 C 419.4 -3.13088 2.86663 0
M  V30 4241 C 417.307 -2.82717 5.19447 0
M  V30 4242 H 416.237 -0.490584 0.572576 0
M  V30 4243 H 418.888 -0.58494 1.73927 0
M  V30 4244 H 417.27 -3.11529 2.4447 0
M  V30 4245 H 418.444 -1.10173 4.47435 0
M  V30 4246 H 416.759 -1.14846 4.00249 0
M  V30 4247 H 419.356 -3.90736 3.65007 0
M  V30 4248 H 419.699 -3.67635 1.95321 0
M  V30 4249 H 420.232 -2.45288 3.13175 0
M  V30 4250 H 416.971 -2.33018 6.12685 0
M  V30 4251 H 416.491 -3.4969 4.87316 0
M  V30 4252 H 418.17 -3.46102 5.46646 0
M  V30 4253 N 418.302 -1.35869 -0.798587 0
M  V30 4254 C 419.232 -1.32118 -1.92528 0
M  V30 4255 C 420.213 -0.194209 -1.68988 0
M  V30 4256 O 421.398 -0.390426 -1.90235 0
M  V30 4257 C 418.528 -1.10047 -3.29404 0
M  V30 4258 C 417.482 -2.19471 -3.67446 0
M  V30 4259 C 416.808 -1.82555 -5.02571 0
M  V30 4260 C 418.108 -3.61495 -3.76987 0
M  V30 4261 H 419.802 -2.26394 -1.95924 0
M  V30 4262 H 417.348 -1.08981 -0.94123 0
M  V30 4263 H 419.301 -1.06061 -4.07835 0
M  V30 4264 H 418.025 -0.122195 -3.26371 0
M  V30 4265 H 416.684 -2.22568 -2.91306 0
M  V30 4266 H 416.332 -0.833249 -4.9605 0
M  V30 4267 H 416.032 -2.5581 -5.28995 0
M  V30 4268 H 417.556 -1.80108 -5.83432 0
M  V30 4269 H 418.97 -3.60676 -4.4563 0
M  V30 4270 H 417.367 -4.33577 -4.14887 0
M  V30 4271 H 418.437 -3.97065 -2.78329 0
M  V30 4272 N 419.78 1.02168 -1.19998 0
M  V30 4273 C 421.029 1.75091 -1.0013 0
M  V30 4274 C 421.342 1.89923 0.467835 0
M  V30 4275 O 422.548 2.59888 0.785515 0
M  V30 4276 C 421.004 3.14892 -1.74273 0
M  V30 4277 C 420.612 3.0809 -3.25245 0
M  V30 4278 C 422.356 3.9206 -1.62755 0
M  V30 4279 C 420.263 4.42867 -3.91948 0
M  V30 4280 H 419.193 0.656394 -0.37103 0
M  V30 4281 H 421.844 1.14284 -1.43567 0
M  V30 4282 H 420.226 3.7621 -1.2362 0
M  V30 4283 H 421.4 2.5611 -3.83072 0
M  V30 4284 H 419.715 2.44416 -3.3712 0
M  V30 4285 H 422.312 4.91764 -2.09934 0
M  V30 4286 H 422.655 4.12199 -0.582894 0
M  V30 4287 H 423.188 3.37359 -2.10793 0
M  V30 4288 H 419.927 4.27931 -4.96543 0
M  V30 4289 H 419.447 4.94874 -3.3891 0
M  V30 4290 H 421.126 5.11728 -3.95909 0
M  V30 4291 N 421.258 1.00505 1.21394 0
M  V30 4292 C 422.188 0.585684 2.26035 0
M  V30 4293 C 423.169 -0.393525 1.65485 0
M  V30 4294 O 424.354 -0.281497 1.92149 0
M  V30 4295 C 421.484 -0.0884283 3.47187 0
M  V30 4296 C 420.438 0.810567 4.20254 0
M  V30 4297 C 419.764 0.00286382 5.347 0
M  V30 4298 C 421.064 2.1132 4.77641 0
M  V30 4299 H 422.758 1.46039 2.61368 0
M  V30 4300 H 420.304 0.703648 1.25638 0
M  V30 4301 H 422.257 -0.393286 4.19561 0
M  V30 4302 H 420.981 -0.997766 3.10986 0
M  V30 4303 H 419.64 1.09925 3.49731 0
M  V30 4304 H 419.288 -0.907765 4.94741 0
M  V30 4305 H 418.988 0.601444 5.84514 0
M  V30 4306 H 420.512 -0.295808 6.09883 0
M  V30 4307 H 421.926 1.87148 5.41893 0
M  V30 4308 H 420.323 2.66164 5.37845 0
M  V30 4309 H 421.393 2.78393 3.9702 0
M  V30 4310 N 422.737 -1.36956 0.779787 0
M  V30 4311 C 423.985 -1.99097 0.347079 0
M  V30 4312 C 424.306 -1.62206 -1.08232 0
M  V30 4313 O 423.576 -0.891373 -1.74446 0
M  V30 4314 H 422.156 -0.736409 0.125342 0
M  V30 4315 H 424.818 -1.67308 0.999696 0
M  V30 4316 H 423.914 -3.09107 0.431162 0
M  V30 4317 N 424.215 -0.530993 -1.48385 0
M  V30 4318 C 425.464 0.00474348 -2.01699 0
M  V30 4319 C 425.777 1.35227 -1.41325 0
M  V30 4320 O 426.983 1.97643 -1.86144 0
M  V30 4321 C 425.439 0.0588473 -3.59852 0
M  V30 4322 C 425.047 -1.28385 -4.2921 0
M  V30 4323 C 426.791 0.543358 -4.21008 0
M  V30 4324 C 424.698 -1.19028 -5.79298 0
M  V30 4325 H 423.628 0.00554317 -0.75398 0
M  V30 4326 H 426.279 -0.674924 -1.70637 0
M  V30 4327 H 424.661 0.803612 -3.8776 0
M  V30 4328 H 425.835 -2.04426 -4.12973 0
M  V30 4329 H 424.15 -1.70418 -3.7993 0
M  V30 4330 H 426.747 0.631351 -5.3096 0
M  V30 4331 H 427.09 1.54937 -3.86394 0
M  V30 4332 H 427.623 -0.145754 -3.97533 0
M  V30 4333 H 424.362 -2.17147 -6.18488 0
M  V30 4334 H 423.882 -0.471246 -5.97946 0
M  V30 4335 H 425.561 -0.881365 -6.40969 0
M  V30 4336 N 425.693 1.55336 -0.266172 0
M  V30 4337 C 426.939 1.99692 0.353681 0
M  V30 4338 C 427.272 1.1543 1.56172 0
M  V30 4339 O 426.547 0.222218 1.93226 0
M  V30 4340 C 426.83 3.52316 0.74466 0
M  V30 4341 C 426.683 4.47337 -0.470101 0
M  V30 4342 C 428.002 4.10588 1.58447 0
M  V30 4343 H 425.121 0.725961 0.12708 0
M  V30 4344 H 427.763 1.86336 -0.371333 0
M  V30 4345 H 425.913 3.63829 1.36239 0
M  V30 4346 H 427.585 4.4778 -1.10864 0
M  V30 4347 H 425.828 4.19364 -1.10978 0
M  V30 4348 H 426.499 5.51788 -0.15291 0
M  V30 4349 H 428.975 4.02297 1.06286 0
M  V30 4350 H 427.851 5.17607 1.82686 0
M  V30 4351 H 428.112 3.60253 2.56262 0
M  V30 4352 N 427.171 -0.0066808 1.57599 0
M  V30 4353 C 428.401 -0.703066 1.94269 0
M  V30 4354 C 428.809 -1.68206 0.866222 0
M  V30 4355 O 428.152 -1.82966 -0.164087 0
M  V30 4356 C 428.214 -1.49616 3.26887 0
M  V30 4357 C 427.878 -0.679494 4.5192 0
M  V30 4358 C 428.875 0.0299508 5.19891 0
M  V30 4359 C 426.56 -0.627433 4.98366 0
M  V30 4360 C 428.554 0.780514 6.32603 0
M  V30 4361 C 426.241 0.126861 6.10968 0
M  V30 4362 C 427.239 0.829574 6.77943 0
M  V30 4363 O 426.927 1.57157 7.88389 0
M  V30 4364 H 426.659 -0.201217 0.645359 0
M  V30 4365 H 429.213 0.0385326 2.05364 0
M  V30 4366 H 427.443 -2.28209 3.12182 0
M  V30 4367 H 429.132 -2.07726 3.48719 0
M  V30 4368 H 429.898 -0.00115963 4.85 0
M  V30 4369 H 425.777 -1.16392 4.46065 0
M  V30 4370 H 429.321 1.32954 6.84813 0
M  V30 4371 H 425.218 0.159815 6.45302 0
M  V30 4372 H 425.986 1.48758 8.04868 0
M  V30 4373 N 428.649 -1.55105 -0.279332 0
M  V30 4374 C 430.065 -1.46803 -0.626187 0
M  V30 4375 C 430.265 -0.676939 -1.89789 0
M  V30 4376 O 429.321 -0.19326 -2.51759 0
M  V30 4377 C 430.634 -2.90962 -0.759034 0
M  V30 4378 C 432.182 -3.01138 -0.853504 0
M  V30 4379 C 432.657 -4.46539 -1.01818 0
M  V30 4380 N 434.148 -4.50341 -1.08386 0
M  V30 4381 C 434.883 -5.60053 -1.22996 0
M  V30 4382 N 434.379 -6.79645 -1.34366 0
M  V30 4383 N 436.172 -5.47783 -1.26056 0
M  V30 4384 H 428.323 -2.04996 0.555921 0
M  V30 4385 H 430.586 -0.929325 0.187239 0
M  V30 4386 H 430.292 -3.51544 0.104852 0
M  V30 4387 H 430.166 -3.39619 -1.64131 0
M  V30 4388 H 432.553 -2.40658 -1.70786 0
M  V30 4389 H 432.634 -2.55745 0.0532466 0
M  V30 4390 H 432.278 -5.0762 -0.168504 0
M  V30 4391 H 432.208 -4.89583 -1.93948 0
M  V30 4392 H 434.699 -3.64191 -1.00864 0
M  V30 4393 H 435.012 -7.59012 -1.4533 0
M  V30 4394 H 433.357 -6.82469 -1.31382 0
M  V30 4395 H 436.548 -4.53294 -1.168 0
M  V30 4396 H 436.721 -6.33331 -1.37098 0
M  V30 4397 N 430.127 0.543554 -1.4793 0
M  V30 4398 C 431.352 1.32995 -1.59145 0
M  V30 4399 C 431.777 1.86472 -0.246956 0
M  V30 4400 O 431.135 1.63696 0.779324 0
M  V30 4401 C 431.183 2.46623 -2.63077 0
M  V30 4402 O 430.287 3.49261 -2.19295 0
M  V30 4403 H 429.628 0.394472 -0.534124 0
M  V30 4404 H 432.158 0.655489 -1.93816 0
M  V30 4405 H 432.168 2.93001 -2.83926 0
M  V30 4406 H 430.843 2.07059 -3.60693 0
M  V30 4407 H 429.42 3.09094 -2.08603 0
M  V30 4408 N 431.605 1.3629 0.791371 0
M  V30 4409 C 432.535 1.33137 1.91825 0
M  V30 4410 C 433.516 0.203168 1.68882 0
M  V30 4411 O 434.701 0.400509 1.90025 0
M  V30 4412 C 431.831 1.11793 3.28816 0
M  V30 4413 C 430.785 2.21417 3.66277 0
M  V30 4414 C 430.111 1.85218 5.01596 0
M  V30 4415 C 431.411 3.63489 3.75064 0
M  V30 4416 H 433.105 2.2743 1.9472 0
M  V30 4417 H 430.651 1.09479 0.935437 0
M  V30 4418 H 432.604 1.08222 4.07266 0
M  V30 4419 H 431.328 0.139501 3.26302 0
M  V30 4420 H 429.987 2.2411 2.90121 0
M  V30 4421 H 429.635 0.859544 4.95602 0
M  V30 4422 H 429.335 2.58611 5.27631 0
M  V30 4423 H 430.859 1.832 5.82469 0
M  V30 4424 H 432.273 3.63034 4.43711 0
M  V30 4425 H 430.67 4.35771 4.12582 0
M  V30 4426 H 431.74 3.98536 2.76219 0
M  V30 4427 N 433.083 -1.0153 1.20538 0
M  V30 4428 C 434.494 -1.56598 1.01657 0
M  V30 4429 C 434.845 -1.91505 -0.426668 0
M  V30 4430 O 433.97 -1.72375 -1.30827 0
M  V30 4431 C 434.565 -2.84542 1.83905 0
M  V30 4432 C 433.124 -3.36133 1.69386 0
M  V30 4433 C 432.271 -2.09427 1.81757 0
M  V30 4434 H 435.222 -0.838974 1.34711 0
M  V30 4435 H 435.243 -3.56004 1.34319 0
M  V30 4436 H 434.755 -2.59105 2.8894 0
M  V30 4437 H 432.856 -3.66528 0.669933 0
M  V30 4438 H 432.969 -4.08248 2.50739 0
M  V30 4439 H 431.333 -2.21941 1.24957 0
M  V30 4440 H 432.116 -1.86414 2.88279 0
M  V30 4441 N 434.561 -1.01147 -1.20859 0
M  V30 4442 C 435.791 -0.715872 -1.93801 0
M  V30 4443 C 436.199 0.726592 -1.74692 0
M  V30 4444 O 435.542 1.50397 -1.05482 0
M  V30 4445 C 435.604 -0.965269 -3.46299 0
M  V30 4446 C 435.268 -2.39584 -3.89164 0
M  V30 4447 C 436.265 -3.3764 -3.95342 0
M  V30 4448 C 433.95 -2.73522 -4.21297 0
M  V30 4449 C 435.944 -4.67698 -4.33056 0
M  V30 4450 C 433.631 -4.03794 -4.58687 0
M  V30 4451 C 434.629 -5.00693 -4.64538 0
M  V30 4452 O 434.317 -6.28635 -5.01072 0
M  V30 4453 H 434.049 -0.262524 -0.622942 0
M  V30 4454 H 436.603 -1.35413 -1.54443 0
M  V30 4455 H 434.833 -0.269847 -3.85757 0
M  V30 4456 H 436.522 -0.662051 -4.00464 0
M  V30 4457 H 437.288 -3.12757 -3.70686 0
M  V30 4458 H 433.167 -1.9879 -4.15937 0
M  V30 4459 H 436.711 -5.4333 -4.37537 0
M  V30 4460 H 432.608 -4.28459 -4.82797 0
M  V30 4461 H 433.376 -6.32847 -5.19083 0
M  V30 4462 N 436.039 1.36541 -0.78704 0
M  V30 4463 C 437.316 1.9355 -0.282424 0
M  V30 4464 C 437.696 1.71919 1.22503 0
M  V30 4465 O 437.044 1.07677 2.01539 0
M  V30 4466 C 437.254 3.4246 -0.672462 0
M  V30 4467 C 438.602 4.19582 -0.650863 0
M  V30 4468 O 439.626 3.50889 -0.612789 0
M  V30 4469 O 438.485 5.42106 -0.691623 0
M  V30 4470 H 435.579 0.824091 -0.0693 0
M  V30 4471 H 438.125 1.45736 -0.869423 0
M  V30 4472 H 436.897 3.51851 -1.71221 0
M  V30 4473 H 436.52 3.97556 -0.0592211 0
M  V30 4474 N 437.518 0.538854 1.48102 0
M  V30 4475 C 438.795 -0.0568108 1.95517 0
M  V30 4476 C 439.175 -1.50408 1.48124 0
M  V30 4477 O 438.523 -2.17133 0.711727 0
M  V30 4478 C 438.733 0.0696262 3.48931 0
M  V30 4479 C 440.081 -0.0851202 4.24515 0
M  V30 4480 O 441.105 -0.0037347 3.562 0
M  V30 4481 O 439.964 -0.257025 5.45895 0
M  V30 4482 H 437.058 -0.0743695 0.823649 0
M  V30 4483 H 439.604 0.604081 1.58584 0
M  V30 4484 H 438.376 1.07744 3.76174 0
M  V30 4485 H 437.999 -0.629714 3.92582 0
M  V30 4486 N 438.996 -1.55193 0.274407 0
M  V30 4487 C 439.943 -2.225 -0.613374 0
M  V30 4488 C 440.913 -1.19823 -1.15029 0
M  V30 4489 O 442.098 -1.48362 -1.19973 0
M  V30 4490 C 439.238 -2.94927 -1.79199 0
M  V30 4491 C 438.351 -4.12322 -1.28899 0
M  V30 4492 C 437.486 -4.72394 -2.42934 0
M  V30 4493 C 436.525 -5.81984 -1.89634 0
M  V30 4494 N 435.662 -6.36123 -2.9714 0
M  V30 4495 H 440.502 -2.97982 -0.032756 0
M  V30 4496 H 438.039 -1.47099 -0.00440146 0
M  V30 4497 H 439.997 -3.35134 -2.48478 0
M  V30 4498 H 438.627 -2.2187 -2.34465 0
M  V30 4499 H 437.679 -3.7724 -0.489327 0
M  V30 4500 H 438.991 -4.91355 -0.858587 0
M  V30 4501 H 438.145 -5.15317 -3.20208 0
M  V30 4502 H 436.884 -3.92636 -2.8929 0
M  V30 4503 H 435.889 -5.38511 -1.1084 0
M  V30 4504 H 437.114 -6.6361 -1.44215 0
M  V30 4505 H 435.06 -5.59259 -3.42878 0
M  V30 4506 H 434.977 -7.10427 -2.58515 0
M  V30 4507 H 436.245 -6.83704 -3.74391 0
M  V30 4508 N 440.474 -0.00167713 -1.576 0
M  V30 4509 C 441.404 0.988091 -2.11563 0
M  V30 4510 C 442.385 1.35736 -1.02517 0
M  V30 4511 O 443.57 1.44082 -1.30208 0
M  V30 4512 C 440.7 2.27941 -2.62031 0
M  V30 4513 C 439.654 2.0517 -3.75619 0
M  V30 4514 C 438.98 3.4033 -4.12407 0
M  V30 4515 C 440.28 1.41294 -5.02825 0
M  V30 4516 H 441.974 0.538771 -2.94513 0
M  V30 4517 H 439.52 0.257712 -1.41675 0
M  V30 4518 H 441.473 2.97539 -2.9841 0
M  V30 4519 H 440.197 2.74989 -1.76205 0
M  V30 4520 H 438.856 1.37998 -3.39635 0
M  V30 4521 H 438.504 3.85085 -3.23603 0
M  V30 4522 H 438.204 3.25909 -4.88935 0
M  V30 4523 H 439.728 4.1124 -4.51347 0
M  V30 4524 H 441.142 2.00851 -5.36965 0
M  V30 4525 H 439.539 1.37356 -5.84169 0
M  V30 4526 H 440.609 0.382362 -4.8339 0
M  V30 4527 N 441.952 1.55251 0.271103 0
M  V30 4528 C 443.198 1.76207 1.00394 0
M  V30 4529 C 443.531 0.562604 1.85872 0
M  V30 4530 O 442.806 -0.439785 1.89463 0
M  V30 4531 C 443.089 3.06828 1.8849 0
M  V30 4532 C 442.942 4.37134 1.05992 0
M  V30 4533 C 444.261 3.33503 2.87165 0
M  V30 4534 H 441.38 0.641086 0.363562 0
M  V30 4535 H 444.022 1.87982 0.276189 0
M  V30 4536 H 442.172 2.96921 2.5054 0
M  V30 4537 H 443.844 4.59001 0.459978 0
M  V30 4538 H 442.087 4.32275 0.363443 0
M  V30 4539 H 442.758 5.2486 1.70955 0
M  V30 4540 H 445.234 3.43215 2.3525 0
M  V30 4541 H 444.11 4.2616 3.45946 0
M  V30 4542 H 444.371 2.53235 3.62387 0
M  V30 4543 N 443.43 -0.535701 1.48216 0
M  V30 4544 C 444.66 -1.3148 1.59363 0
M  V30 4545 C 445.068 -1.8753 0.250844 0
M  V30 4546 O 444.411 -1.66821 -0.769174 0
M  V30 4547 C 444.473 -2.50731 2.57632 0
M  V30 4548 C 444.137 -2.15811 4.02833 0
M  V30 4549 C 445.134 -1.71822 4.90686 0
M  V30 4550 C 442.819 -2.26509 4.48329 0
M  V30 4551 C 444.813 -1.3899 6.22062 0
M  V30 4552 C 442.5 -1.93289 5.79726 0
M  V30 4553 C 443.498 -1.49599 6.66415 0
M  V30 4554 O 443.186 -1.16812 7.95368 0
M  V30 4555 H 442.918 -0.406315 0.540263 0
M  V30 4556 H 445.472 -0.653569 1.94725 0
M  V30 4557 H 443.702 -3.19817 2.1738 0
M  V30 4558 H 445.391 -3.12797 2.58675 0
M  V30 4559 H 446.157 -1.63031 4.56778 0
M  V30 4560 H 442.036 -2.59471 3.81045 0
M  V30 4561 H 445.58 -1.04816 6.89681 0
M  V30 4562 H 441.477 -2.01718 6.13172 0
M  V30 4563 H 442.245 -1.30259 8.08069 0
M  V30 4564 N 444.908 -1.36708 -0.784132 0
M  V30 4565 C 445.871 -1.31307 -1.87859 0
M  V30 4566 C 446.871 -0.219654 -1.59293 0
M  V30 4567 O 448.061 -0.47476 -1.67606 0
M  V30 4568 C 445.193 -1.03679 -3.24751 0
M  V30 4569 H 446.386 -2.28647 -1.94064 0
M  V30 4570 H 443.939 -1.21558 -0.98252 0
M  V30 4571 H 444.674 -0.0681936 -3.24228 0
M  V30 4572 H 444.459 -1.82811 -3.46876 0
M  V30 4573 H 445.949 -1.02518 -4.04821 0
M  V30 4574 N 446.386 1.0089 -1.21074 0
M  V30 4575 C 447.296 2.13039 -0.982425 0
M  V30 4576 C 448.312 1.73881 0.0642161 0
M  V30 4577 O 449.488 2.01012 -0.12496 0
M  V30 4578 C 446.553 3.42377 -0.545803 0
M  V30 4579 C 445.614 3.95731 -1.6642 0
M  V30 4580 C 444.847 5.18896 -1.24832 0
M  V30 4581 O 445.07 5.70273 -0.120265 0
M  V30 4582 O 444.004 5.65597 -2.05873 0
M  V30 4583 H 447.83 2.35175 -1.92163 0
M  V30 4584 H 445.415 1.1142 -0.995285 0
M  V30 4585 H 447.297 4.20244 -0.311912 0
M  V30 4586 H 445.972 3.21639 0.364727 0
M  V30 4587 H 444.879 3.19108 -1.95246 0
M  V30 4588 H 446.212 4.20872 -2.55201 0
M  V30 4589 N 447.864 1.01787 1.20321 0
M  V30 4590 C 449.141 0.622978 1.85414 0
M  V30 4591 C 449.521 -0.898887 1.91006 0
M  V30 4592 O 448.869 -1.79112 1.41884 0
M  V30 4593 C 449.079 1.27226 3.24984 0
M  V30 4594 C 450.427 1.3885 4.01255 0
M  V30 4595 O 451.451 1.22857 3.34342 0
M  V30 4596 O 450.31 1.64705 5.2109 0
M  V30 4597 H 447.404 0.215116 0.798533 0
M  V30 4598 H 449.95 1.11533 1.27901 0
M  V30 4599 H 448.722 2.31209 3.15687 0
M  V30 4600 H 448.345 0.767069 3.90131 0
M  V30 4601 N 449.342 -1.36122 0.79427 0
M  V30 4602 C 450.572 -2.03067 0.380437 0
M  V30 4603 C 450.98 -1.60018 -1.00949 0
M  V30 4604 O 450.323 -0.787425 -1.65968 0
M  V30 4605 C 450.385 -3.57587 0.37034 0
M  V30 4606 C 450.049 -4.23855 1.70867 0
M  V30 4607 C 451.046 -4.46404 2.66496 0
M  V30 4608 C 448.731 -4.61229 1.9893 0
M  V30 4609 C 450.725 -5.05412 3.88378 0
M  V30 4610 C 448.412 -5.19953 3.21079 0
M  V30 4611 C 449.41 -5.41985 4.15621 0
M  V30 4612 O 449.098 -5.99475 5.35616 0
M  V30 4613 H 448.83 -0.658168 0.154243 0
M  V30 4614 H 451.384 -1.7498 1.0757 0
M  V30 4615 H 449.614 -3.84814 -0.381444 0
M  V30 4616 H 451.303 -4.05895 -0.0194894 0
M  V30 4617 H 452.069 -4.17921 2.46103 0
M  V30 4618 H 447.948 -4.43402 1.26158 0
M  V30 4619 H 451.492 -5.22524 4.62185 0
M  V30 4620 H 447.389 -5.47862 3.41347 0
M  V30 4621 H 448.157 -6.17937 5.36745 0
M  V30 4622 N 450.82 -0.546701 -1.47814 0
M  V30 4623 C 452.069 -0.0166497 -2.01693 0
M  V30 4624 C 452.382 1.33721 -1.42752 0
M  V30 4625 O 453.588 1.95658 -1.8823 0
M  V30 4626 C 452.044 0.0206769 -3.59894 0
M  V30 4627 C 451.652 -1.3293 -4.27824 0
M  V30 4628 C 453.396 0.498674 -4.21561 0
M  V30 4629 C 451.303 -1.25165 -5.78003 0
M  V30 4630 H 450.233 -0.0024541 -0.753996 0
M  V30 4631 H 452.884 -0.692984 -1.69912 0
M  V30 4632 H 451.266 0.76244 -3.88591 0
M  V30 4633 H 452.44 -2.08795 -4.10781 0
M  V30 4634 H 450.755 -1.74438 -3.78101 0
M  V30 4635 H 453.352 0.575 -5.31599 0
M  V30 4636 H 453.695 1.5083 -3.88016 0
M  V30 4637 H 454.228 -0.18791 -3.97356 0
M  V30 4638 H 450.967 -2.23695 -6.1615 0
M  V30 4639 H 450.487 -0.53464 -5.97412 0
M  V30 4640 H 452.166 -0.949299 -6.39998 0
M  V30 4641 N 452.299 1.55045 -0.282633 0
M  V30 4642 C 453.232 2.18951 0.64311 0
M  V30 4643 C 454.21 1.15287 1.14664 0
M  V30 4644 O 455.394 1.43846 1.21822 0
M  V30 4645 C 452.521 2.81874 1.87789 0
M  V30 4646 C 451.567 3.98906 1.50919 0
M  V30 4647 S 452.4 5.3234 0.580884 0
M  V30 4648 C 453.556 5.98737 1.82387 0
M  V30 4649 H 453.789 2.97131 0.100138 0
M  V30 4650 H 451.322 1.54255 -0.0668514 0
M  V30 4651 H 453.28 3.18757 2.58658 0
M  V30 4652 H 451.941 2.03573 2.392 0
M  V30 4653 H 451.134 4.4165 2.42819 0
M  V30 4654 H 450.736 3.63485 0.88061 0
M  V30 4655 H 453.028 6.18427 2.76684 0
M  V30 4656 H 453.971 6.93318 1.4393 0
M  V30 4657 H 454.379 5.28177 1.99223 0
M  V30 4658 N 453.777 0.010035 1.57597 0
M  V30 4659 C 455.054 -0.710296 1.82248 0
M  V30 4660 C 455.434 -1.91426 0.889911 0
M  V30 4661 O 454.782 -2.28424 -0.0590292 0
M  V30 4662 C 454.992 -1.10655 3.30993 0
M  V30 4663 C 456.34 -1.50621 3.96987 0
M  V30 4664 O 457.364 -1.20007 3.35375 0
M  V30 4665 O 456.223 -2.07587 5.05539 0
M  V30 4666 H 453.317 -0.34673 0.750804 0
M  V30 4667 H 455.863 0.0362578 1.69661 0
M  V30 4668 H 454.635 -0.248826 3.90508 0
M  V30 4669 H 454.258 -1.91189 3.48615 0
M  V30 4670 N 455.255 -1.55392 -0.262866 0
M  V30 4671 C 456.165 -1.92077 -1.34698 0
M  V30 4672 C 457.181 -0.819227 -1.53508 0
M  V30 4673 O 458.357 -1.11921 -1.67439 0
M  V30 4674 C 455.422 -2.19407 -2.68443 0
M  V30 4675 C 454.483 -3.42905 -2.58292 0
M  V30 4676 C 453.716 -3.68921 -3.85659 0
M  V30 4677 O 453.939 -2.97275 -4.8681 0
M  V30 4678 O 452.873 -4.62455 -3.85252 0
M  V30 4679 H 456.699 -2.84384 -1.06581 0
M  V30 4680 H 454.284 -1.42069 -0.462264 0
M  V30 4681 H 456.166 -2.38365 -3.47506 0
M  V30 4682 H 454.841 -1.30282 -2.96325 0
M  V30 4683 H 453.748 -3.29272 -1.7757 0
M  V30 4684 H 455.081 -4.32282 -2.35358 0
M  V30 4685 N 456.733 0.527833 -1.48498 0
M  V30 4686 C 457.643 1.65907 -1.65867 0
M  V30 4687 C 458.659 1.6537 -0.541192 0
M  V30 4688 O 459.835 1.84282 -0.812534 0
M  V30 4689 C 456.9 3.02364 -1.69637 0
M  V30 4690 C 455.961 3.1374 -2.93028 0
M  V30 4691 C 455.194 4.43688 -2.96609 0
M  V30 4692 O 455.417 5.30913 -2.08538 0
M  V30 4693 O 454.351 4.59475 -3.88802 0
M  V30 4694 H 458.177 1.5419 -2.61647 0
M  V30 4695 H 455.762 0.701163 -1.31924 0
M  V30 4696 H 457.644 3.83515 -1.74625 0
M  V30 4697 H 456.319 3.14401 -0.770312 0
M  V30 4698 H 455.226 2.31877 -2.93571 0
M  V30 4699 H 456.559 3.06621 -3.85026 0
M  V30 4700 N 458.211 1.37122 0.776871 0
M  V30 4701 C 459.161 1.28989 1.88005 0
M  V30 4702 C 460.145 0.178765 1.59904 0
M  V30 4703 O 461.337 0.412705 1.72121 0
M  V30 4704 C 458.466 1.09402 3.25402 0
M  V30 4705 C 457.552 2.25036 3.59471 0
M  V30 4706 N 457.943 3.50407 3.64759 0
M  V30 4707 C 456.241 2.17078 3.89607 0
M  V30 4708 C 456.942 4.26628 3.95428 0
M  V30 4709 N 455.918 3.55709 4.11062 0
M  V30 4710 H 459.72 2.2394 1.90337 0
M  V30 4711 H 457.234 1.30021 0.973052 0
M  V30 4712 H 459.231 1.01661 4.04315 0
M  V30 4713 H 457.891 0.153632 3.24336 0
M  V30 4714 H 458.902 3.8438 3.47091 0
M  V30 4715 H 455.579 1.31067 3.96393 0
M  V30 4716 H 456.969 5.35107 4.06338 0
M  V30 4717 N 459.689 -1.00246 1.21608 0
M  V30 4718 C 460.914 -1.78167 1.06167 0
M  V30 4719 C 461.339 -1.84138 -0.384035 0
M  V30 4720 O 460.697 -1.28683 -1.27712 0
M  V30 4721 C 460.745 -3.19786 1.66642 0
M  V30 4722 O 459.849 -4.02153 0.913613 0
M  V30 4723 H 459.19 -0.549 0.37349 0
M  V30 4724 H 461.72 -1.25994 1.61204 0
M  V30 4725 H 461.73 -3.70451 1.70969 0
M  V30 4726 H 460.405 -3.14754 2.7185 0
M  V30 4727 H 458.982 -3.60711 0.945635 0
M  V30 4728 N 461.167 -1.02423 -1.1978 0
M  V30 4729 C 462.583 -0.740459 -1.41384 0
M  V30 4730 C 462.783 0.676827 -1.89793 0
M  V30 4731 O 461.839 1.4435 -2.0717 0
M  V30 4732 C 463.152 -1.77264 -2.42895 0
M  V30 4733 C 464.7 -1.79165 -2.56649 0
M  V30 4734 C 465.175 -2.8133 -3.6141 0
M  V30 4735 N 466.666 -2.80118 -3.68901 0
M  V30 4736 C 467.401 -3.55824 -4.49641 0
M  V30 4737 N 466.897 -4.41231 -5.34123 0
M  V30 4738 N 468.69 -3.44387 -4.44246 0
M  V30 4739 H 460.841 -1.9391 -0.866764 0
M  V30 4740 H 463.104 -0.838074 -0.443098 0
M  V30 4741 H 462.81 -2.7884 -2.14339 0
M  V30 4742 H 462.684 -1.59108 -3.42001 0
M  V30 4743 H 465.071 -0.782702 -2.84531 0
M  V30 4744 H 465.152 -2.01396 -1.57713 0
M  V30 4745 H 464.796 -3.82394 -3.34271 0
M  V30 4746 H 464.726 -2.56359 -4.59986 0
M  V30 4747 H 467.217 -2.1817 -3.08562 0
M  V30 4748 H 467.53 -4.95747 -5.92836 0
M  V30 4749 H 465.875 -4.45306 -5.33599 0
M  V30 4750 H 469.066 -2.7708 -3.77285 0
M  V30 4751 H 469.239 -4.0364 -5.06931 0
M  V30 4752 N 462.645 1.35699 -0.801477 0
M  V30 4753 C 463.575 2.32436 -0.222658 0
M  V30 4754 C 464.556 1.5723 0.649057 0
M  V30 4755 O 465.741 1.85324 0.580387 0
M  V30 4756 C 462.871 3.41469 0.633719 0
M  V30 4757 C 461.825 4.27774 -0.139083 0
M  V30 4758 C 461.151 5.28082 0.838666 0
M  V30 4759 C 462.451 5.04946 -1.33517 0
M  V30 4760 H 464.145 2.81094 -1.03086 0
M  V30 4761 H 461.691 1.35146 -0.497155 0
M  V30 4762 H 463.644 4.08143 1.04868 0
M  V30 4763 H 462.368 2.91408 1.47475 0
M  V30 4764 H 461.027 3.62673 -0.535156 0
M  V30 4765 H 460.675 4.7429 1.67506 0
M  V30 4766 H 460.375 5.86695 0.32594 0
M  V30 4767 H 461.899 5.97628 1.25194 0
M  V30 4768 H 463.313 5.64593 -0.995349 0
M  V30 4769 H 461.71 5.7303 -1.78202 0
M  V30 4770 H 462.78 4.35886 -2.12442 0
M  V30 4771 N 464.123 0.554532 1.47522 0
M  V30 4772 C 465.086 -0.184174 2.28459 0
M  V30 4773 C 466.086 -0.845195 1.36796 0
M  V30 4774 O 467.276 -0.701467 1.59452 0
M  V30 4775 C 464.408 -1.26903 3.16399 0
M  V30 4776 H 465.601 0.526751 2.95238 0
M  V30 4777 H 463.154 0.311375 1.53167 0
M  V30 4778 H 463.889 -2.01244 2.54306 0
M  V30 4779 H 463.674 -0.799883 3.83854 0
M  V30 4780 H 465.164 -1.78794 3.77389 0
M  V30 4781 N 465.601 -1.54893 0.290851 0
M  V30 4782 C 466.849 -1.99538 -0.320756 0
M  V30 4783 C 467.17 -1.18075 -1.55188 0
M  V30 4784 O 466.44 -0.274162 -1.93972 0
M  V30 4785 H 465.02 -0.737052 -0.121507 0
M  V30 4786 H 467.682 -1.90755 0.399832 0
M  V30 4787 H 466.778 -3.06282 -0.599802 0
M  V30 4788 N 467.08 -0.0183926 -1.57589 0
M  V30 4789 C 468.01 0.965596 -2.12599 0
M  V30 4790 C 468.991 1.34641 -1.0395 0
M  V30 4791 O 470.176 1.42693 -1.31729 0
M  V30 4792 C 467.306 2.25149 -2.64434 0
M  V30 4793 C 466.26 2.01175 -3.77773 0
M  V30 4794 C 465.586 3.35937 -4.15994 0
M  V30 4795 C 466.886 1.35953 -5.04296 0
M  V30 4796 H 468.58 0.507504 -2.95067 0
M  V30 4797 H 466.126 0.242671 -1.41941 0
M  V30 4798 H 468.079 2.94357 -3.01549 0
M  V30 4799 H 466.803 2.73105 -1.79112 0
M  V30 4800 H 465.462 1.34388 -3.4108 0
M  V30 4801 H 465.11 3.81631 -3.27669 0
M  V30 4802 H 464.81 3.20705 -4.92364 0
M  V30 4803 H 466.334 4.0643 -4.55683 0
M  V30 4804 H 467.748 1.95144 -5.39065 0
M  V30 4805 H 466.145 1.31152 -5.85593 0
M  V30 4806 H 467.215 0.331071 -4.83768 0
M  V30 4807 N 468.558 1.5553 0.254621 0
M  V30 4808 C 469.488 1.9268 1.31897 0
M  V30 4809 C 470.469 0.790797 1.506 0
M  V30 4810 O 471.654 1.05045 1.63337 0
M  V30 4811 C 468.784 2.21477 2.67517 0
M  V30 4812 C 467.738 3.37256 2.63519 0
M  V30 4813 C 467.064 3.51576 4.02862 0
M  V30 4814 C 468.364 4.73157 2.21179 0
M  V30 4815 H 470.058 2.81832 1.01051 0
M  V30 4816 H 467.604 1.35599 0.484662 0
M  V30 4817 H 469.557 2.46055 3.42104 0
M  V30 4818 H 468.281 1.29144 2.99982 0
M  V30 4819 H 466.94 3.12675 1.9139 0
M  V30 4820 H 466.588 2.56676 4.32581 0
M  V30 4821 H 466.288 4.2943 4.01078 0
M  V30 4822 H 467.812 3.78467 4.79161 0
M  V30 4823 H 469.226 4.97158 2.85494 0
M  V30 4824 H 467.623 5.54058 2.30521 0
M  V30 4825 H 468.693 4.70739 1.16332 0
M  V30 4826 N 470.036 -0.519951 1.48776 0
M  V30 4827 C 470.946 -1.65025 1.66745 0
M  V30 4828 C 471.962 -1.6508 0.549954 0
M  V30 4829 O 473.138 -1.83848 0.822295 0
M  V30 4830 C 470.203 -3.0146 1.71238 0
M  V30 4831 C 469.264 -3.12182 2.94688 0
M  V30 4832 C 468.497 -4.42109 2.98958 0
M  V30 4833 O 468.72 -5.29799 2.1135 0
M  V30 4834 O 467.654 -4.57406 3.91233 0
M  V30 4835 H 471.48 -1.52801 2.62461 0
M  V30 4836 H 469.065 -0.694157 1.32294 0
M  V30 4837 H 470.947 -3.82584 1.76657 0
M  V30 4838 H 469.622 -3.13988 0.786975 0
M  V30 4839 H 468.529 -2.30316 2.94797 0
M  V30 4840 H 469.862 -3.04574 3.86646 0
M  V30 4841 N 471.514 -1.37532 -0.769588 0
M  V30 4842 C 472.444 -1.36172 -1.89682 0
M  V30 4843 C 473.425 -0.23001 -1.68538 0
M  V30 4844 O 474.61 -0.43069 -1.89364 0
M  V30 4845 C 471.74 -1.1701 -3.26995 0
M  V30 4846 C 470.694 -2.27216 -3.62708 0
M  V30 4847 C 470.02 -1.93174 -4.98586 0
M  V30 4848 C 471.32 -3.6941 -3.69234 0
M  V30 4849 H 473.014 -2.30499 -1.91078 0
M  V30 4850 H 470.56 -1.10953 -0.917902 0
M  V30 4851 H 472.513 -1.14688 -4.05493 0
M  V30 4852 H 471.237 -0.191395 -3.26039 0
M  V30 4853 H 469.896 -2.28697 -2.86519 0
M  V30 4854 H 469.544 -0.938281 -4.94171 0
M  V30 4855 H 469.244 -2.66973 -5.23449 0
M  V30 4856 H 470.768 -1.92443 -5.79481 0
M  V30 4857 H 472.182 -3.70047 -4.37879 0
M  V30 4858 H 470.579 -4.4228 -4.05597 0
M  V30 4859 H 471.649 -4.0288 -2.69844 0
M  V30 4860 N 472.992 0.995999 -1.22138 0
M  V30 4861 C 474.222 1.76809 -1.06874 0
M  V30 4862 C 474.63 1.85265 0.383866 0
M  V30 4863 O 473.973 1.31969 1.27789 0
M  V30 4864 C 474.035 3.2186 -1.60144 0
M  V30 4865 C 473.699 3.36958 -3.0872 0
M  V30 4866 C 474.696 3.2452 -4.0618 0
M  V30 4867 C 472.381 3.62109 -3.48112 0
M  V30 4868 C 474.375 3.37013 -5.41019 0
M  V30 4869 C 472.062 3.74243 -4.831 0
M  V30 4870 C 473.06 3.61702 -5.79362 0
M  V30 4871 O 472.748 3.73436 -7.119 0
M  V30 4872 H 472.48 0.562207 -0.375365 0
M  V30 4873 H 475.034 1.26113 -1.62125 0
M  V30 4874 H 473.264 3.73734 -0.992981 0
M  V30 4875 H 474.953 3.80775 -1.40589 0
M  V30 4876 H 475.719 3.05004 -3.77091 0
M  V30 4877 H 471.598 3.70949 -2.73712 0
M  V30 4878 H 475.142 3.27141 -6.16137 0
M  V30 4879 H 471.039 3.93266 -5.11872 0
M  V30 4880 H 471.807 3.90328 -7.19435 0
M  V30 4881 N 474.47 1.03057 1.19235 0
M  V30 4882 C 475.886 0.747947 1.40989 0
M  V30 4883 C 476.086 -0.666752 1.90149 0
M  V30 4884 O 475.142 -1.43249 2.07933 0
M  V30 4885 C 476.455 1.7855 2.41951 0
M  V30 4886 C 478.003 1.80524 2.55695 0
M  V30 4887 C 478.478 2.83243 3.59913 0
M  V30 4888 N 479.969 2.8207 3.67411 0
M  V30 4889 C 480.704 3.58204 4.47747 0
M  V30 4890 N 480.2 4.44057 5.31775 0
M  V30 4891 N 481.993 3.46738 4.42413 0
M  V30 4892 H 474.144 1.94367 0.856468 0
M  V30 4893 H 476.407 0.840412 0.438647 0
M  V30 4894 H 476.113 2.79973 2.12857 0
M  V30 4895 H 475.987 1.6092 3.41152 0
M  V30 4896 H 478.374 0.79778 2.84112 0
M  V30 4897 H 478.455 2.02229 1.56643 0
M  V30 4898 H 478.099 3.84161 3.32239 0
M  V30 4899 H 478.029 2.58795 4.5862 0
M  V30 4900 H 480.52 2.19803 3.074 0
M  V30 4901 H 480.833 4.98884 5.90199 0
M  V30 4902 H 479.178 4.48129 5.3123 0
M  V30 4903 H 482.369 2.79077 3.75811 0
M  V30 4904 H 482.542 4.06322 5.04783 0
M  V30 4905 N 475.948 -1.35272 0.808662 0
M  V30 4906 C 476.911 -2.28082 0.226093 0
M  V30 4907 C 477.911 -1.49673 -0.587762 0
M  V30 4908 O 479.101 -1.69404 -0.405943 0
M  V30 4909 C 476.233 -3.33955 -0.684596 0
M  V30 4910 H 477.426 -2.81116 1.04469 0
M  V30 4911 H 474.979 -1.45162 0.579466 0
M  V30 4912 H 475.714 -2.86111 -1.5268 0
M  V30 4913 H 475.499 -3.91965 -0.102699 0
M  V30 4914 H 476.989 -4.03219 -1.08646 0
M  V30 4915 N 477.426 -0.562348 -1.47226 0
M  V30 4916 C 478.675 -0.038041 -2.01664 0
M  V30 4917 C 478.988 1.32199 -1.44162 0
M  V30 4918 O 480.194 1.9365 -1.90294 0
M  V30 4919 C 478.65 -0.0174958 -3.59896 0
M  V30 4920 C 478.258 -1.3746 -4.2639 0
M  V30 4921 C 480.002 0.453934 -4.22066 0
M  V30 4922 C 477.909 -1.31289 -5.76643 0
M  V30 4923 H 476.839 -0.0104511 -0.753928 0
M  V30 4924 H 479.49 -0.710966 -1.69167 0
M  V30 4925 H 477.872 0.721182 -3.89378 0
M  V30 4926 H 479.046 -2.1314 -4.08544 0
M  V30 4927 H 477.361 -1.78438 -3.7623 0
M  V30 4928 H 479.958 0.518584 -5.32179 0
M  V30 4929 H 480.301 1.46706 -3.89594 0
M  V30 4930 H 480.834 -0.230044 -3.97134 0
M  V30 4931 H 477.573 -2.30217 -6.13743 0
M  V30 4932 H 477.093 -0.597973 -5.96812 0
M  V30 4933 H 478.772 -1.01713 -6.38955 0
M  V30 4934 N 478.904 1.54736 -0.299062 0
M  V30 4935 C 479.834 2.26409 0.571085 0
M  V30 4936 C 480.815 1.2629 1.13951 0
M  V30 4937 O 482 1.55059 1.16921 0
M  V30 4938 C 479.13 3.00338 1.74396 0
M  V30 4939 C 478.084 4.07588 1.30599 0
M  V30 4940 C 477.41 4.69222 2.56387 0
M  V30 4941 C 478.71 5.20455 0.438645 0
M  V30 4942 H 480.404 2.99388 -0.0266991 0
M  V30 4943 H 477.95 1.43993 -0.0142812 0
M  V30 4944 H 479.903 3.49198 2.35878 0
M  V30 4945 H 478.627 2.24934 2.36796 0
M  V30 4946 H 477.286 3.59575 0.71424 0
M  V30 4947 H 476.934 3.9046 3.17097 0
M  V30 4948 H 476.634 5.41653 2.27784 0
M  V30 4949 H 478.158 5.20844 3.18675 0
M  V30 4950 H 479.572 5.65221 0.959085 0
M  V30 4951 H 477.969 5.99594 0.246466 0
M  V30 4952 H 479.039 4.8192 -0.536738 0
M  V30 4953 N 480.382 0.0267497 1.57577 0
M  V30 4954 C 481.314 -0.984594 2.06974 0
M  V30 4955 C 482.327 -1.29032 0.992705 0
M  V30 4956 O 483.516 -1.25539 1.26895 0
M  V30 4957 C 480.616 -2.31262 2.47732 0
M  V30 4958 C 479.789 -2.1924 3.78487 0
M  V30 4959 C 478.848 -3.34956 4.05821 0
M  V30 4960 O 477.874 -3.11948 4.76106 0
M  V30 4961 N 479.076 -4.58672 3.55809 0
M  V30 4962 H 481.841 -0.563143 2.94362 0
M  V30 4963 H 479.402 -0.160061 1.61107 0
M  V30 4964 H 481.394 -3.07496 2.63112 0
M  V30 4965 H 479.964 -2.65056 1.65723 0
M  V30 4966 H 479.184 -1.27747 3.72927 0
M  V30 4967 H 480.472 -2.08409 4.64158 0
M  V30 4968 H 479.87 -4.8026 2.98942 0
M  V30 4969 H 478.427 -5.32083 3.76472 0
M  V30 4970 N 481.861 -1.55662 -0.24637 0
M  V30 4971 C 482.791 -1.93377 -1.30873 0
M  V30 4972 C 483.772 -0.798773 -1.50179 0
M  V30 4973 O 484.957 -1.0591 -1.62778 0
M  V30 4974 C 482.087 -2.22893 -2.66338 0
M  V30 4975 C 481.041 -3.38649 -2.61727 0
M  V30 4976 C 480.367 -3.53708 -4.00992 0
M  V30 4977 C 481.667 -4.74323 -2.18666 0
M  V30 4978 H 483.361 -2.82363 -0.995552 0
M  V30 4979 H 480.907 -1.35854 -0.477464 0
M  V30 4980 H 482.86 -2.47866 -3.40794 0
M  V30 4981 H 481.584 -1.30733 -2.99293 0
M  V30 4982 H 480.243 -3.13685 -1.89729 0
M  V30 4983 H 479.891 -2.58967 -4.31214 0
M  V30 4984 H 479.591 -4.31551 -3.98795 0
M  V30 4985 H 481.115 -3.81003 -4.77147 0
M  V30 4986 H 482.529 -4.98665 -2.82854 0
M  V30 4987 H 480.926 -5.55273 -2.27579 0
M  V30 4988 H 481.996 -4.71349 -1.13834 0
M  V30 4989 N 483.339 0.512053 -1.4905 0
M  V30 4990 C 484.585 1.26874 -1.58212 0
M  V30 4991 C 484.918 1.9241 -0.263073 0
M  V30 4992 O 484.193 1.80181 0.732476 0
M  V30 4993 C 484.476 2.34428 -2.73341 0
M  V30 4994 C 484.329 1.73466 -4.15006 0
M  V30 4995 C 485.648 3.36073 -2.84154 0
M  V30 4996 H 482.767 0.459924 -0.575881 0
M  V30 4997 H 485.409 0.568587 -1.81293 0
M  V30 4998 H 483.559 2.94146 -2.53792 0
M  V30 4999 H 485.231 1.17661 -4.46042 0
M  V30 5000 H 483.474 1.03921 -4.21168 0
M  V30 5001 H 484.145 2.51426 -4.91415 0
M  V30 5002 H 486.621 2.86332 -3.01916 0
M  V30 5003 H 485.497 4.08703 -3.66406 0
M  V30 5004 H 485.758 3.97725 -1.93048 0
M  V30 5005 N 484.817 1.37938 0.762283 0
M  V30 5006 C 486.233 1.18945 1.06415 0
M  V30 5007 C 486.433 0.0321163 2.01474 0
M  V30 5008 O 485.489 -0.624844 2.44647 0
M  V30 5009 C 486.802 2.51218 1.65258 0
M  V30 5010 C 488.35 2.57824 1.7747 0
M  V30 5011 C 488.825 3.90251 2.39725 0
M  V30 5012 N 490.316 3.91744 2.47166 0
M  V30 5013 C 491.051 4.90966 2.96209 0
M  V30 5014 N 490.547 6.00585 3.45354 0
M  V30 5015 N 492.34 4.78363 2.9517 0
M  V30 5016 H 484.491 2.11994 0.131301 0
M  V30 5017 H 486.754 0.940262 0.120879 0
M  V30 5018 H 486.46 3.36317 1.02878 0
M  V30 5019 H 486.334 2.68989 2.64433 0
M  V30 5020 H 488.721 1.73126 2.3898 0
M  V30 5021 H 488.802 2.43928 0.770241 0
M  V30 5022 H 488.446 4.75368 1.78852 0
M  V30 5023 H 488.376 4.01454 3.40796 0
M  V30 5024 H 490.867 3.12563 2.12397 0
M  V30 5025 H 491.18 6.72236 3.81207 0
M  V30 5026 H 489.525 6.04217 3.43434 0
M  V30 5027 H 492.716 3.91841 2.56082 0
M  V30 5028 H 492.889 5.55843 3.33081 0
M  V30 5029 N 486.295 -0.989507 1.22664 0
M  V30 5030 C 487.711 -1.25395 0.987331 0
M  V30 5031 C 487.911 -1.9899 -0.317056 0
M  V30 5032 O 486.967 -2.30141 -1.03882 0
M  V30 5033 C 488.28 -2.06242 2.18826 0
M  V30 5034 C 489.828 -2.19413 2.23219 0
M  V30 5035 C 490.303 -3.03648 3.42873 0
M  V30 5036 N 491.794 -3.11234 3.43056 0
M  V30 5037 C 492.529 -3.7671 4.32293 0
M  V30 5038 N 492.025 -4.44085 5.31752 0
M  V30 5039 N 493.818 -3.73505 4.2006 0
M  V30 5040 H 485.969 -0.496212 2.06522 0
M  V30 5041 H 488.232 -0.281784 0.905153 0
M  V30 5042 H 487.938 -1.59531 3.13437 0
M  V30 5043 H 487.812 -3.06996 2.19165 0
M  V30 5044 H 490.199 -2.65336 1.29154 0
M  V30 5045 H 490.28 -1.18078 2.26917 0
M  V30 5046 H 489.924 -2.58424 4.37241 0
M  V30 5047 H 489.854 -4.05132 3.36416 0
M  V30 5048 H 492.345 -2.63287 2.71088 0
M  V30 5049 H 492.658 -4.91797 5.96117 0
M  V30 5050 H 491.003 -4.42822 5.35662 0
M  V30 5051 H 494.194 -3.20033 3.41609 0
M  V30 5052 H 494.367 -4.24253 4.8981 0
M  V30 5053 N 487.773 -1.03688 -1.18687 0
M  V30 5054 C 489.003 -0.756819 -1.92239 0
M  V30 5055 C 489.411 0.689374 -1.76194 0
M  V30 5056 O 488.754 1.48126 -1.08648 0
M  V30 5057 C 488.816 -1.03851 -3.44173 0
M  V30 5058 C 488.48 -2.47785 -3.83994 0
M  V30 5059 C 489.477 -3.4595 -3.88091 0
M  V30 5060 C 487.162 -2.82397 -4.154 0
M  V30 5061 C 489.156 -4.76779 -4.23038 0
M  V30 5062 C 486.843 -4.13433 -4.50018 0
M  V30 5063 C 487.841 -5.10434 -4.53813 0
M  V30 5064 O 487.529 -6.39122 -4.87625 0
M  V30 5065 H 487.261 -0.275678 -0.617234 0
M  V30 5066 H 489.815 -1.38658 -1.51536 0
M  V30 5067 H 488.045 -0.351612 -3.85098 0
M  V30 5068 H 489.734 -0.746846 -3.9897 0
M  V30 5069 H 490.5 -3.20549 -3.63969 0
M  V30 5070 H 486.379 -2.07568 -4.11627 0
M  V30 5071 H 489.923 -5.52488 -4.25914 0
M  V30 5072 H 485.82 -4.38604 -4.736 0
M  V30 5073 H 486.588 -6.43715 -5.05542 0
M  V30 5074 N 489.251 1.34841 -0.815825 0
M  V30 5075 C 490.198 2.29644 -0.230664 0
M  V30 5076 C 491.168 1.53253 0.640533 0
M  V30 5077 O 492.353 1.81653 0.583672 0
M  V30 5078 C 489.493 3.39715 0.607275 0
M  V30 5079 C 488.606 4.31056 -0.28538 0
M  V30 5080 C 487.741 5.28225 0.561446 0
M  V30 5081 C 486.78 6.11204 -0.331035 0
M  V30 5082 N 485.917 7.00483 0.476302 0
M  V30 5083 H 490.757 2.79095 -1.0445 0
M  V30 5084 H 488.294 1.37351 -0.526595 0
M  V30 5085 H 490.252 4.02208 1.10835 0
M  V30 5086 H 488.882 2.91517 1.38629 0
M  V30 5087 H 487.934 3.69487 -0.904621 0
M  V30 5088 H 489.246 4.89239 -0.97193 0
M  V30 5089 H 488.4 5.96135 1.12728 0
M  V30 5090 H 487.139 4.70562 1.28153 0
M  V30 5091 H 486.144 5.42232 -0.909069 0
M  V30 5092 H 487.369 6.70947 -1.04912 0
M  V30 5093 H 485.315 6.45296 1.18019 0
M  V30 5094 H 485.232 7.55847 -0.152008 0
M  V30 5095 H 486.5 7.7273 1.02512 0
M  V30 5096 N 490.729 0.570148 1.46925 0
M  V30 5097 C 491.676 -0.170257 2.30171 0
M  V30 5098 C 492.646 -0.896099 1.39855 0
M  V30 5099 O 493.831 -0.889248 1.68811 0
M  V30 5100 C 490.971 -1.18605 3.24079 0
M  V30 5101 C 490.084 -0.464947 4.29491 0
M  V30 5102 C 489.219 -1.46716 5.10537 0
M  V30 5103 C 488.258 -0.731758 6.0771 0
M  V30 5104 N 487.395 -1.68142 6.81669 0
M  V30 5105 H 492.235 0.545713 2.92961 0
M  V30 5106 H 489.772 0.280938 1.44392 0
M  V30 5107 H 491.73 -1.78771 3.76957 0
M  V30 5108 H 490.36 -1.86989 2.63125 0
M  V30 5109 H 489.412 0.251506 3.79568 0
M  V30 5110 H 490.724 0.110548 4.98677 0
M  V30 5111 H 489.878 -2.14199 5.6763 0
M  V30 5112 H 488.617 -2.07658 4.41282 0
M  V30 5113 H 487.622 -0.0430787 5.49783 0
M  V30 5114 H 488.847 -0.127904 6.7898 0
M  V30 5115 H 486.793 -2.27918 6.15134 0
M  V30 5116 H 486.71 -1.15841 7.47072 0
M  V30 5117 H 487.978 -2.347 7.43328 0
M  V30 5118 N 492.207 -1.54576 0.307264 0
M  V30 5119 C 493.137 -2.26708 -0.55907 0
M  V30 5120 C 494.118 -1.26893 -1.1328 0
M  V30 5121 O 495.303 -1.55677 -1.16097 0
M  V30 5122 C 492.433 -3.01259 -1.72801 0
M  V30 5123 C 491.387 -4.08275 -1.28435 0
M  V30 5124 C 490.713 -4.70575 -2.53895 0
M  V30 5125 C 492.013 -5.2068 -0.411038 0
M  V30 5126 H 493.707 -2.9937 0.042576 0
M  V30 5127 H 491.253 -1.43983 0.0219173 0
M  V30 5128 H 493.206 -3.50444 -2.34023 0
M  V30 5129 H 491.93 -2.26187 -2.356 0
M  V30 5130 H 490.589 -3.59949 -0.695161 0
M  V30 5131 H 490.237 -3.92136 -3.15021 0
M  V30 5132 H 489.937 -5.42854 -2.24908 0
M  V30 5133 H 491.461 -5.22527 -3.15908 0
M  V30 5134 H 492.875 -5.65721 -0.929097 0
M  V30 5135 H 491.272 -5.99716 -0.214664 0
M  V30 5136 H 492.342 -4.81629 0.562287 0
M  V30 5137 N 493.685 -0.035106 -1.57561 0
M  V30 5138 C 494.632 0.94474 -2.10578 0
M  V30 5139 C 495.602 1.3192 -1.00927 0
M  V30 5140 O 496.787 1.41147 -1.28382 0
M  V30 5141 C 493.927 2.21982 -2.64231 0
M  V30 5142 C 493.04 1.90128 -3.87911 0
M  V30 5143 C 492.175 3.11975 -4.29936 0
M  V30 5144 C 491.214 2.75968 -5.46359 0
M  V30 5145 N 490.351 3.90459 -5.83512 0
M  V30 5146 H 495.191 0.485717 -2.94015 0
M  V30 5147 H 492.728 0.228143 -1.4532 0
M  V30 5148 H 494.686 2.96572 -2.9343 0
M  V30 5149 H 493.316 2.6549 -1.83616 0
M  V30 5150 H 492.368 1.05755 -3.65404 0
M  V30 5151 H 493.68 1.59613 -4.72573 0
M  V30 5152 H 492.834 3.9488 -4.60603 0
M  V30 5153 H 491.573 3.45657 -3.44053 0
M  V30 5154 H 490.578 1.91478 -5.1538 0
M  V30 5155 H 491.803 2.43497 -6.33945 0
M  V30 5156 H 489.749 4.23971 -5.00584 0
M  V30 5157 H 489.666 3.63588 -6.62827 0
M  V30 5158 H 490.934 4.7405 -6.18787 0
M  V30 5159 N 495.163 1.55791 0.238111 0
M  V30 5160 C 496.409 1.78297 0.966337 0
M  V30 5161 C 496.742 0.601903 1.84637 0
M  V30 5162 O 496.017 -0.399499 1.90353 0
M  V30 5163 C 496.3 3.10758 1.81939 0
M  V30 5164 C 496.153 4.39283 0.966958 0
M  V30 5165 C 497.472 3.39519 2.80027 0
M  V30 5166 H 494.591 0.648654 0.349882 0
M  V30 5167 H 497.233 1.88525 0.236253 0
M  V30 5168 H 495.383 3.02168 2.44185 0
M  V30 5169 H 497.055 4.59873 0.362514 0
M  V30 5170 H 495.298 4.32948 0.271669 0
M  V30 5171 H 495.969 5.28368 1.59784 0
M  V30 5172 H 498.445 3.48128 2.27917 0
M  V30 5173 H 497.321 4.33402 3.36829 0
M  V30 5174 H 497.582 2.60864 3.56934 0
M  V30 5175 N 496.642 -0.504142 1.49319 0
M  V30 5176 C 497.552 -1.63248 1.68486 0
M  V30 5177 C 498.568 -1.64488 0.567432 0
M  V30 5178 O 499.744 -1.82966 0.841749 0
M  V30 5179 C 496.809 -2.99627 1.74426 0
M  V30 5180 C 495.87 -3.09039 2.97982 0
M  V30 5181 C 495.103 -4.38913 3.0363 0
M  V30 5182 O 495.326 -5.27528 2.16958 0
M  V30 5183 O 494.26 -4.53231 3.96062 0
M  V30 5184 H 498.086 -1.50008 2.64067 0
M  V30 5185 H 495.671 -0.680086 1.33023 0
M  V30 5186 H 497.553 -3.80689 1.80705 0
M  V30 5187 H 496.228 -3.13136 0.820233 0
M  V30 5188 H 495.135 -2.27177 2.97223 0
M  V30 5189 H 496.468 -3.00456 3.89855 0
M  V30 5190 N 498.12 -1.38341 -0.754957 0
M  V30 5191 C 499.067 -1.3546 -1.86867 0
M  V30 5192 C 500.037 -0.217369 -1.64672 0
M  V30 5193 O 501.222 -0.409383 -1.86356 0
M  V30 5194 C 498.362 -1.18413 -3.24149 0
M  V30 5195 C 497.475 -2.41511 -3.58185 0
M  V30 5196 C 496.61 -2.17205 -4.84763 0
M  V30 5197 C 495.649 -3.36081 -5.11582 0
M  V30 5198 N 494.786 -3.11219 -6.29354 0
M  V30 5199 H 499.626 -2.30672 -1.88664 0
M  V30 5200 H 497.163 -1.14607 -0.922154 0
M  V30 5201 H 499.121 -1.06545 -4.03366 0
M  V30 5202 H 497.751 -0.268397 -3.21682 0
M  V30 5203 H 496.803 -2.64056 -2.73822 0
M  V30 5204 H 498.115 -3.30115 -3.73932 0
M  V30 5205 H 497.269 -2.02465 -5.7192 0
M  V30 5206 H 496.008 -1.25964 -4.71152 0
M  V30 5207 H 495.013 -3.51341 -4.22894 0
M  V30 5208 H 496.238 -4.28196 -5.27091 0
M  V30 5209 H 494.184 -2.22624 -6.17069 0
M  V30 5210 H 494.101 -3.93373 -6.45596 0
M  V30 5211 H 495.369 -3.00132 -7.19403 0
M  V30 5212 N 499.598 0.982988 -1.23187 0
M  V30 5213 C 500.508 2.10907 -1.02739 0
M  V30 5214 C 501.524 1.73979 0.0273188 0
M  V30 5215 O 502.7 2.00702 -0.16757 0
M  V30 5216 C 499.765 3.41142 -0.618304 0
M  V30 5217 C 498.826 3.92112 -1.74777 0
M  V30 5218 C 498.059 5.16131 -1.3581 0
M  V30 5219 O 498.282 5.6989 -0.241201 0
M  V30 5220 O 497.216 5.61103 -2.17824 0
M  V30 5221 H 501.042 2.31046 -1.97108 0
M  V30 5222 H 498.627 1.09284 -1.01869 0
M  V30 5223 H 500.509 4.19488 -0.400982 0
M  V30 5224 H 499.184 3.2234 0.296421 0
M  V30 5225 H 498.091 3.14895 -2.0197 0
M  V30 5226 H 499.424 4.15364 -2.64071 0
M  V30 5227 N 501.076 1.04316 1.18135 0
M  V30 5228 C 501.986 0.646876 2.25505 0
M  V30 5229 C 503.002 -0.328008 1.7088 0
M  V30 5230 O 504.178 -0.182309 2.00573 0
M  V30 5231 C 501.243 0.0185664 3.46695 0
M  V30 5232 C 500.304 1.04277 4.16443 0
M  V30 5233 C 499.537 0.444352 5.31847 0
M  V30 5234 O 499.76 -0.748735 5.65465 0
M  V30 5235 O 498.694 1.17428 5.90334 0
M  V30 5236 H 502.52 1.54147 2.61672 0
M  V30 5237 H 500.105 0.814188 1.25265 0
M  V30 5238 H 501.987 -0.331068 4.20097 0
M  V30 5239 H 500.662 -0.849814 3.12346 0
M  V30 5240 H 499.569 1.44425 3.45098 0
M  V30 5241 H 500.902 1.882 4.54798 0
M  V30 5242 N 502.554 -1.34406 0.822964 0
M  V30 5243 C 503.801 -1.98284 0.411057 0
M  V30 5244 C 504.129 -1.65245 -1.02588 0
M  V30 5245 O 503.384 -0.91619 -1.72929 0
M  V30 5246 C 503.683 -3.52981 0.560268 0
M  V30 5247 C 503.349 -4.05931 1.96293 0
M  V30 5248 C 502.011 -4.20103 2.34664 0
M  V30 5249 C 504.363 -4.34412 2.87985 0
M  V30 5250 C 501.691 -4.60082 3.64062 0
M  V30 5251 C 504.043 -4.75838 4.16847 0
M  V30 5252 C 502.707 -4.88215 4.55195 0
M  V30 5253 H 501.977 -0.725573 0.150416 0
M  V30 5254 H 504.624 -1.60349 1.04692 0
M  V30 5255 H 502.929 -3.91477 -0.158982 0
M  V30 5256 H 504.626 -4.00385 0.222087 0
M  V30 5257 H 501.216 -3.95363 1.65487 0
M  V30 5258 H 505.4 -4.23001 2.59584 0
M  V30 5259 H 500.656 -4.67856 3.93599 0
M  V30 5260 H 504.83 -4.96834 4.87984 0
M  V30 5261 H 502.457 -5.18952 5.55512 0
M  V30 5262 N 504.032 -0.577932 -1.46621 0
M  V30 5263 C 505.278 -0.0617793 -2.02706 0
M  V30 5264 C 505.611 1.29294 -1.44903 0
M  V30 5265 O 504.886 1.8461 -0.61232 0
M  V30 5266 C 505.169 0.00911824 -3.60099 0
M  V30 5267 C 505.022 -1.37416 -4.28295 0
M  V30 5268 C 506.341 0.712159 -4.343 0
M  V30 5269 H 503.46 -0.0239246 -0.736612 0
M  V30 5270 H 506.102 -0.744211 -1.74818 0
M  V30 5271 H 504.252 0.590292 -3.83989 0
M  V30 5272 H 505.924 -2.00013 -4.15683 0
M  V30 5273 H 504.167 -1.94319 -3.87843 0
M  V30 5274 H 504.838 -1.27707 -5.37024 0
M  V30 5275 H 507.314 0.218486 -4.15526 0
M  V30 5276 H 506.19 0.730782 -5.44014 0
M  V30 5277 H 506.451 1.77251 -4.05012 0
M  V30 5278 N 505.51 1.54411 -0.315457 0
M  V30 5279 C 506.738 2.04833 0.291738 0
M  V30 5280 C 507.153 1.19203 1.46411 0
M  V30 5281 O 506.51 0.220867 1.81159 0
M  V30 5282 C 506.561 3.53969 0.73404 0
M  V30 5283 O 506.282 4.36346 -0.391682 0
M  V30 5284 C 507.783 4.2045 1.40489 0
M  V30 5285 H 505.003 0.668195 0.0612947 0
M  V30 5286 H 507.547 1.99276 -0.45929 0
M  V30 5287 H 505.702 3.5984 1.43506 0
M  V30 5288 H 506.116 5.24481 -0.0447088 0
M  V30 5289 H 507.59 5.26278 1.66539 0
M  V30 5290 H 508.067 3.71067 2.3496 0
M  V30 5291 H 508.673 4.18694 0.746662 0
M  V30 5292 N 506.988 0.0434614 1.5754 0
M  V30 5293 C 507.918 -0.931651 2.14109 0
M  V30 5294 C 508.899 -1.32971 1.06079 0
M  V30 5295 O 510.084 -1.40579 1.33982 0
M  V30 5296 C 507.214 -2.20914 2.67982 0
M  V30 5297 C 506.168 -1.95139 3.80926 0
M  V30 5298 C 505.494 -3.29276 4.21285 0
M  V30 5299 C 506.794 -1.27913 5.06395 0
M  V30 5300 H 508.488 -0.460497 2.95837 0
M  V30 5301 H 506.034 -0.220058 1.42309 0
M  V30 5302 H 507.987 -2.89522 3.06194 0
M  V30 5303 H 506.711 -2.70221 1.83434 0
M  V30 5304 H 505.37 -1.28945 3.43175 0
M  V30 5305 H 505.018 -3.76369 3.33699 0
M  V30 5306 H 504.718 -3.12831 4.97404 0
M  V30 5307 H 506.242 -3.99129 4.62091 0
M  V30 5308 H 507.656 -1.86544 5.42102 0
M  V30 5309 H 506.053 -1.2182 5.87605 0
M  V30 5310 H 507.123 -0.254066 4.84234 0
M  V30 5311 N 508.466 -1.55915 -0.229846 0
M  V30 5312 C 509.413 -1.91734 -1.28478 0
M  V30 5313 C 510.383 -0.773539 -1.46988 0
M  V30 5314 O 511.568 -1.02871 -1.60693 0
M  V30 5315 C 508.708 -2.23224 -2.63182 0
M  V30 5316 C 507.821 -3.50497 -2.52539 0
M  V30 5317 C 506.956 -3.71474 -3.79711 0
M  V30 5318 C 505.995 -4.92289 -3.63755 0
M  V30 5319 N 505.132 -5.09698 -4.82858 0
M  V30 5320 H 509.972 -2.81692 -0.972308 0
M  V30 5321 H 507.509 -1.39429 -0.468815 0
M  V30 5322 H 509.467 -2.3949 -3.41614 0
M  V30 5323 H 508.097 -1.36451 -2.92542 0
M  V30 5324 H 507.149 -3.4247 -1.65585 0
M  V30 5325 H 508.461 -4.39079 -2.36666 0
M  V30 5326 H 507.615 -3.87791 -4.66586 0
M  V30 5327 H 506.354 -2.81157 -3.985 0
M  V30 5328 H 505.359 -4.7593 -2.75264 0
M  V30 5329 H 506.584 -5.84083 -3.46445 0
M  V30 5330 H 504.53 -4.22322 -5.01976 0
M  V30 5331 H 504.447 -5.92399 -4.69681 0
M  V30 5332 H 505.715 -5.30443 -5.71183 0
M  V30 5333 N 509.944 0.496216 -1.49584 0
M  V30 5334 C 510.907 1.57952 -1.66084 0
M  V30 5335 C 511.907 1.51729 -0.53244 0
M  V30 5336 O 513.097 1.54796 -0.79899 0
M  V30 5337 C 510.229 2.97604 -1.66268 0
M  V30 5338 H 511.422 1.44649 -2.6271 0
M  V30 5339 H 508.975 0.7208 -1.38687 0
M  V30 5340 H 509.71 3.16378 -0.712432 0
M  V30 5341 H 509.495 3.03528 -2.4822 0
M  V30 5342 H 510.985 3.76301 -1.81073 0
M  V30 5343 N 511.423 1.38739 0.74761 0
M  V30 5344 C 512.353 1.39173 1.87492 0
M  V30 5345 C 513.334 0.256794 1.6815 0
M  V30 5346 O 514.519 0.460762 1.88655 0
M  V30 5347 C 511.649 1.22197 3.25093 0
M  V30 5348 C 510.603 2.32957 3.59047 0
M  V30 5349 C 509.929 2.01082 4.95449 0
M  V30 5350 C 511.229 3.75237 3.6331 0
M  V30 5351 H 512.923 2.3351 1.87386 0
M  V30 5352 H 510.469 1.12399 0.900134 0
M  V30 5353 H 512.422 1.21124 4.03617 0
M  V30 5354 H 511.146 0.243241 3.25693 0
M  V30 5355 H 509.805 2.33226 2.82845 0
M  V30 5356 H 509.453 1.01678 4.92616 0
M  V30 5357 H 509.153 2.75267 5.19136 0
M  V30 5358 H 510.677 2.01638 5.76346 0
M  V30 5359 H 512.091 3.76966 4.31937 0
M  V30 5360 H 510.488 4.48677 3.98509 0
M  V30 5361 H 511.558 4.07122 2.634 0
M  V30 5362 N 512.901 -0.976442 1.23707 0
M  V30 5363 C 513.864 -2.0511 1.02287 0
M  V30 5364 C 514.864 -1.60791 -0.0167195 0
M  V30 5365 O 516.054 -1.72761 0.223408 0
M  V30 5366 C 513.186 -3.36458 0.548507 0
M  V30 5367 H 514.379 -2.25545 1.9766 0
M  V30 5368 H 511.932 -1.15042 1.05806 0
M  V30 5369 H 512.667 -3.21713 -0.408818 0
M  V30 5370 H 512.452 -3.69967 1.29874 0
M  V30 5371 H 513.942 -4.15489 0.419406 0
M  V30 5372 N 514.379 -1.04941 -1.1758 0
M  V30 5373 C 515.309 -0.669172 -2.23706 0
M  V30 5374 C 516.29 0.331835 -1.66832 0
M  V30 5375 O 517.475 0.209988 -1.93061 0
M  V30 5376 C 514.605 -0.0404889 -3.47276 0
M  V30 5377 C 513.559 -0.965983 -4.16957 0
M  V30 5378 C 512.885 -0.201312 -5.34321 0
M  V30 5379 C 514.185 -2.28902 -4.69469 0
M  V30 5380 H 515.879 -1.55639 -2.55767 0
M  V30 5381 H 513.425 -0.749793 -1.22939 0
M  V30 5382 H 515.378 0.237298 -4.20731 0
M  V30 5383 H 514.102 0.881658 -3.14475 0
M  V30 5384 H 512.761 -1.22829 -3.45411 0
M  V30 5385 H 512.409 0.723519 -4.97769 0
M  V30 5386 H 512.109 -0.817968 -5.81879 0
M  V30 5387 H 513.633 0.0692499 -6.10561 0
M  V30 5388 H 515.047 -2.07132 -5.34574 0
M  V30 5389 H 513.444 -2.85942 -5.27596 0
M  V30 5390 H 514.514 -2.92937 -3.86414 0
M  V30 5391 N 515.857 1.33968 -0.830081 0
M  V30 5392 C 516.82 2.27694 -0.26235 0
M  V30 5393 C 517.82 1.50589 0.563876 0
M  V30 5394 O 519.01 1.70028 0.378941 0
M  V30 5395 C 516.142 3.35002 0.63138 0
M  V30 5396 H 517.335 2.79419 -1.08928 0
M  V30 5397 H 514.888 1.44221 -0.602486 0
M  V30 5398 H 515.623 2.88504 1.48109 0
M  V30 5399 H 515.408 3.92079 0.0403276 0
M  V30 5400 H 516.898 4.04897 1.02217 0
M  V30 5401 N 517.335 0.585699 1.46312 0
M  V30 5402 C 518.283 -0.158577 2.32059 0
M  V30 5403 C 519.277 -0.881427 1.44662 0
M  V30 5404 O 520.483 -0.799476 1.61271 0
M  V30 5405 H 516.858 -0.0700066 0.748734 0
M  V30 5406 H 518.829 0.583383 2.92642 0
M  V30 5407 C 517.578 -1.15701 3.27885 0
M  V30 5408 H 516.901 -0.610215 3.95116 0
M  V30 5409 H 518.341 -1.64812 3.90657 0
M  V30 5410 C 516.8 -2.21951 2.53455 0
M  V30 5411 O 517.33 -3.29352 2.29978 0
M  V30 5412 N 515.536 -1.9664 2.13965 0
M  V30 5413 H 515.083 -1.09309 2.33258 0
M  V30 5414 H 515.041 -2.6794 1.64485 0
M  V30 5415 N 518.813 -1.54241 0.323641 0
M  V30 5416 C 520.038 -2.05452 -0.283605 0
M  V30 5417 C 520.463 -1.19823 -1.44997 0
M  V30 5418 O 519.821 -0.207358 -1.8011 0
M  V30 5419 C 519.869 -3.53823 -0.695795 0
M  V30 5420 O 518.973 -3.71134 -1.79815 0
M  V30 5421 H 518.314 -0.662024 -0.0511917 0
M  V30 5422 H 520.844 -1.99079 0.472073 0
M  V30 5423 H 520.854 -3.96094 -0.978434 0
M  V30 5424 H 519.529 -4.15602 0.157287 0
M  V30 5425 H 518.106 -3.40768 -1.51431 0
M  V30 5426 N 520.291 -0.0518155 -1.57515 0
M  V30 5427 C 521.568 0.661727 -1.84067 0
M  V30 5428 C 521.948 1.88999 -0.940351 0
M  V30 5429 O 521.296 2.285 -0.00155404 0
M  V30 5430 C 521.506 1.01841 -3.3381 0
M  V30 5431 C 522.854 1.40043 -4.00841 0
M  V30 5432 O 523.878 1.11073 -3.38439 0
M  V30 5433 O 522.737 1.94111 -5.10865 0
M  V30 5434 H 519.831 0.326702 -0.759733 0
M  V30 5435 H 522.377 -0.0812277 -1.69505 0
M  V30 5436 H 521.149 0.145202 -3.91031 0
M  V30 5437 H 520.772 1.81879 -3.53562 0
M  V30 5438 N 521.769 1.56035 0.221574 0
M  V30 5439 C 522.994 1.83476 0.967026 0
M  V30 5440 C 523.419 0.632139 1.7716 0
M  V30 5441 O 522.777 -0.419082 1.7639 0
M  V30 5442 C 522.825 3.08907 1.86034 0
M  V30 5443 O 521.929 2.876 2.95567 0
M  V30 5444 H 521.27 0.604913 0.273817 0
M  V30 5445 H 523.8 2.03247 0.234893 0
M  V30 5446 H 523.81 3.3901 2.27016 0
M  V30 5447 H 522.485 3.96068 1.26898 0
M  V30 5448 H 521.062 2.6873 2.58532 0
M  V30 5449 N 523.247 -0.488276 1.49845 0
M  V30 5450 C 524.18 -1.60651 1.62069 0
M  V30 5451 C 525.158 -1.5568 0.469308 0
M  V30 5452 O 526.342 -1.75553 0.686551 0
M  V30 5453 C 523.469 -2.99197 1.58741 0
M  V30 5454 C 522.515 -3.22385 2.79232 0
M  V30 5455 S 523.348 -3.04133 4.40753 0
M  V30 5456 C 524.504 -4.45052 4.4009 0
M  V30 5457 H 524.737 -1.50039 2.56662 0
M  V30 5458 H 522.27 -0.674371 1.38894 0
M  V30 5459 H 524.228 -3.79081 1.57506 0
M  V30 5460 H 522.889 -3.07213 0.654136 0
M  V30 5461 H 522.082 -4.23557 2.73159 0
M  V30 5462 H 521.684 -2.50245 2.77945 0
M  V30 5463 H 523.976 -5.37375 4.12594 0
M  V30 5464 H 524.919 -4.56172 5.41583 0
M  V30 5465 H 525.327 -4.26327 3.70008 0
M  V30 5466 N 524.725 -1.39134 -0.740242 0
M  V30 5467 C 525.955 -1.39132 -1.52728 0
M  V30 5468 C 526.363 0.0173133 -1.89192 0
M  V30 5469 O 525.706 0.997715 -1.54244 0
M  V30 5470 C 525.768 -2.1952 -2.84695 0
M  V30 5471 C 525.432 -3.68203 -2.70695 0
M  V30 5472 C 526.429 -4.61401 -2.39593 0
M  V30 5473 C 524.114 -4.11724 -2.8773 0
M  V30 5474 C 526.108 -5.96102 -2.25701 0
M  V30 5475 C 523.795 -5.46503 -2.73456 0
M  V30 5476 C 524.793 -6.38506 -2.42486 0
M  V30 5477 O 524.481 -7.70803 -2.28295 0
M  V30 5478 H 524.213 -0.477263 -0.478744 0
M  V30 5479 H 526.767 -1.83504 -0.922799 0
M  V30 5480 H 524.997 -1.69888 -3.47383 0
M  V30 5481 H 526.686 -2.1176 -3.46284 0
M  V30 5482 H 527.452 -4.29079 -2.26088 0
M  V30 5483 H 523.331 -3.4045 -3.10829 0
M  V30 5484 H 526.875 -6.6788 -2.0145 0
M  V30 5485 H 522.772 -5.78417 -2.86538 0
M  V30 5486 H 523.54 -7.8147 -2.43405 0
M  V30 5487 N 526.204 0.969867 -1.24223 0
M  V30 5488 C 527.453 1.70687 -1.07466 0
M  V30 5489 C 527.766 1.91736 0.386861 0
M  V30 5490 O 528.972 2.62986 0.674581 0
M  V30 5491 C 527.428 3.07217 -1.87472 0
M  V30 5492 C 527.036 2.94018 -3.3802 0
M  V30 5493 C 528.78 3.84804 -1.79237 0
M  V30 5494 C 526.687 4.25844 -4.10379 0
M  V30 5495 H 525.617 0.640067 -0.398536 0
M  V30 5496 H 528.268 1.08092 -1.48285 0
M  V30 5497 H 526.65 3.70628 -1.39466 0
M  V30 5498 H 527.824 2.39632 -3.9359 0
M  V30 5499 H 526.139 2.29898 -3.47183 0
M  V30 5500 H 528.736 4.82417 -2.30603 0
M  V30 5501 H 529.079 4.09356 -0.757197 0
M  V30 5502 H 529.612 3.28115 -2.24912 0
M  V30 5503 H 526.351 4.06486 -5.14246 0
M  V30 5504 H 525.871 4.80054 -3.59594 0
M  V30 5505 H 527.55 4.94475 -4.17257 0
M  V30 5506 N 527.682 1.05563 1.17022 0
M  V30 5507 C 528.592 0.670758 2.24807 0
M  V30 5508 C 529.608 -0.309865 1.71219 0
M  V30 5509 O 530.784 -0.161025 2.00755 0
M  V30 5510 C 527.849 0.055337 3.46656 0
M  V30 5511 C 526.91 1.08688 4.15314 0
M  V30 5512 C 526.143 0.500736 5.31346 0
M  V30 5513 O 526.366 -0.688718 5.66227 0
M  V30 5514 O 525.3 1.23683 5.89055 0
M  V30 5515 H 529.126 1.56914 2.60023 0
M  V30 5516 H 526.711 0.827428 1.24395 0
M  V30 5517 H 528.593 -0.286492 4.20425 0
M  V30 5518 H 527.268 -0.816638 3.13229 0
M  V30 5519 H 526.175 1.48077 3.43546 0
M  V30 5520 H 527.508 1.93014 4.52777 0
M  V30 5521 N 529.16 -1.33526 0.837174 0
M  V30 5522 C 530.437 -1.92369 0.354065 0
M  V30 5523 C 530.817 -1.76348 -1.16038 0
M  V30 5524 O 530.165 -1.15083 -1.97403 0
M  V30 5525 C 530.375 -3.39728 0.799101 0
M  V30 5526 C 531.723 -4.16877 0.806139 0
M  V30 5527 O 532.747 -3.48373 0.742597 0
M  V30 5528 O 531.606 -5.39166 0.892345 0
M  V30 5529 H 528.7 -0.820952 0.0998378 0
M  V30 5530 H 531.246 -1.42409 0.922913 0
M  V30 5531 H 530.018 -3.45254 1.84162 0
M  V30 5532 H 529.641 -3.97062 0.206731 0
M  V30 5533 N 530.638 -0.59345 -1.46 0
M  V30 5534 C 531.568 0.121192 -2.33185 0
M  V30 5535 C 532.549 0.872977 -1.4599 0
M  V30 5536 O 533.734 0.846321 -1.74789 0
M  V30 5537 C 530.864 1.12844 -3.28456 0
M  V30 5538 C 529.818 0.4908 -4.25177 0
M  V30 5539 C 529.144 1.60529 -5.10034 0
M  V30 5540 C 530.444 -0.578949 -5.19081 0
M  V30 5541 H 532.138 -0.606767 -2.93187 0
M  V30 5542 H 529.684 -0.293242 -1.40983 0
M  V30 5543 H 531.637 1.63684 -3.88311 0
M  V30 5544 H 530.361 1.88681 -2.66584 0
M  V30 5545 H 529.02 0.00339328 -3.666 0
M  V30 5546 H 528.668 2.35359 -4.44539 0
M  V30 5547 H 528.368 1.18422 -5.75543 0
M  V30 5548 H 529.892 2.11623 -5.72755 0
M  V30 5549 H 531.306 -0.155199 -5.7309 0
M  V30 5550 H 529.703 -0.920947 -5.92991 0
M  V30 5551 H 530.773 -1.46109 -4.62364 0
M  V30 5552 N 532.116 1.54067 -0.331816 0
M  V30 5553 C 533.026 2.28322 0.539104 0
M  V30 5554 C 534.042 1.32985 1.1221 0
M  V30 5555 O 535.218 1.6601 1.1403 0
M  V30 5556 C 532.283 3.03277 1.68 0
M  V30 5557 C 531.344 4.14216 1.12798 0
M  V30 5558 C 530.577 4.85588 2.2145 0
M  V30 5559 O 530.8 4.56536 3.41952 0
M  V30 5560 O 529.734 5.72309 1.86404 0
M  V30 5561 H 533.56 3.03632 -0.0641692 0
M  V30 5562 H 531.145 1.49083 -0.0972365 0
M  V30 5563 H 533.027 3.50189 2.34405 0
M  V30 5564 H 531.702 2.30834 2.2693 0
M  V30 5565 H 530.609 3.71635 0.428782 0
M  V30 5566 H 531.942 4.88727 0.583698 0
M  V30 5567 N 533.594 0.0601682 1.57485 0
M  V30 5568 C 534.557 -0.896373 2.10945 0
M  V30 5569 C 535.557 -1.23402 1.03095 0
M  V30 5570 O 536.747 -1.16921 1.29132 0
M  V30 5571 C 533.879 -2.20346 2.60116 0
M  V30 5572 H 535.072 -0.432778 2.96761 0
M  V30 5573 H 532.625 -0.188372 1.55161 0
M  V30 5574 H 533.36 -2.71268 1.7772 0
M  V30 5575 H 533.145 -1.9714 3.38937 0
M  V30 5576 H 534.635 -2.88846 3.01592 0
M  V30 5577 N 535.072 -1.5615 -0.213296 0
M  V30 5578 C 536.318 -1.79812 -0.937849 0
M  V30 5579 C 536.651 -0.631201 -1.83656 0
M  V30 5580 O 535.926 0.369165 -1.90964 0
M  V30 5581 C 536.209 -3.13613 -1.76972 0
M  V30 5582 C 536.062 -4.40766 -0.89695 0
M  V30 5583 C 537.381 -3.43931 -2.7459 0
M  V30 5584 H 534.5 -0.654138 -0.339518 0
M  V30 5585 H 537.142 -1.88877 -0.20623 0
M  V30 5586 H 535.292 -3.06015 -2.39347 0
M  V30 5587 H 536.964 -4.60392 -0.289306 0
M  V30 5588 H 535.207 -4.33326 -0.202756 0
M  V30 5589 H 535.878 -5.30843 -1.51358 0
M  V30 5590 H 538.354 -3.5171 -2.22349 0
M  V30 5591 H 537.23 -4.38706 -3.29891 0
M  V30 5592 H 537.491 -2.6651 -3.52739 0
M  V30 5593 N 536.55 0.480323 -1.50102 0
M  V30 5594 C 537.482 1.59669 -1.64433 0
M  V30 5595 C 538.495 1.54063 -0.52615 0
M  V30 5596 O 539.684 1.59619 -0.798992 0
M  V30 5597 C 536.784 2.98527 -1.6042 0
M  V30 5598 C 535.957 3.291 -2.88117 0
M  V30 5599 C 535.016 4.47468 -2.76873 0
M  V30 5600 O 534.042 4.4823 -3.50825 0
M  V30 5601 N 535.244 5.48593 -1.89806 0
M  V30 5602 H 538.009 1.47795 -2.60723 0
M  V30 5603 H 535.57 0.66858 -1.4745 0
M  V30 5604 H 537.562 3.75666 -1.50523 0
M  V30 5605 H 536.132 3.04218 -0.719036 0
M  V30 5606 H 535.352 2.40662 -3.12211 0
M  V30 5607 H 536.64 3.46334 -3.72734 0
M  V30 5608 H 536.038 5.50791 -1.2902 0
M  V30 5609 H 534.595 6.24752 -1.85819 0
M  V30 5610 N 538.028 1.39524 0.732853 0
M  V30 5611 C 538.975 1.38416 1.84688 0
M  V30 5612 C 539.945 0.243539 1.64305 0
M  V30 5613 O 541.13 0.438979 1.85681 0
M  V30 5614 C 538.27 1.23555 3.22224 0
M  V30 5615 C 537.383 2.47179 3.54298 0
M  V30 5616 C 536.518 2.2489 4.81246 0
M  V30 5617 C 535.557 3.44178 5.0617 0
M  V30 5618 N 534.694 3.21192 6.24323 0
M  V30 5619 H 539.534 2.33645 1.84971 0
M  V30 5620 H 537.071 1.16059 0.903804 0
M  V30 5621 H 539.029 1.12949 4.0162 0
M  V30 5622 H 537.659 0.31954 3.21215 0
M  V30 5623 H 536.711 2.68379 2.69587 0
M  V30 5624 H 538.023 3.36022 3.68633 0
M  V30 5625 H 537.177 2.11538 5.68627 0
M  V30 5626 H 535.916 1.33443 4.69089 0
M  V30 5627 H 534.921 3.58025 4.17251 0
M  V30 5628 H 536.146 4.36528 5.20212 0
M  V30 5629 H 534.092 2.32413 6.1345 0
M  V30 5630 H 534.009 4.03594 6.39256 0
M  V30 5631 H 535.277 3.1154 7.14537 0
M  V30 5632 N 539.506 -0.963266 1.24736 0
M  V30 5633 C 540.436 -2.07628 1.06832 0
M  V30 5634 C 541.417 -1.70088 -0.0200566 0
M  V30 5635 O 542.602 -1.93636 0.147854 0
M  V30 5636 C 539.732 -3.40636 0.677069 0
M  V30 5637 C 538.686 -3.9215 1.71471 0
M  V30 5638 C 538.012 -5.21553 1.1784 0
M  V30 5639 C 539.312 -4.19493 3.11164 0
M  V30 5640 H 541.006 -2.22864 1.9993 0
M  V30 5641 H 538.552 -1.07093 0.96266 0
M  V30 5642 H 540.505 -4.17941 0.538792 0
M  V30 5643 H 539.229 -3.25313 -0.289612 0
M  V30 5644 H 537.888 -3.17005 1.84128 0
M  V30 5645 H 537.536 -5.02593 0.202195 0
M  V30 5646 H 537.236 -5.56988 1.87185 0
M  V30 5647 H 538.76 -6.01463 1.05233 0
M  V30 5648 H 540.174 -4.87487 3.01711 0
M  V30 5649 H 538.571 -4.66165 3.77902 0
M  V30 5650 H 539.641 -3.26097 3.58871 0
M  V30 5651 N 540.985 -1.06182 -1.16461 0
M  V30 5652 C 541.917 -0.629584 -2.20383 0
M  V30 5653 C 542.93 0.311834 -1.59786 0
M  V30 5654 O 544.119 0.103 -1.78203 0
M  V30 5655 C 541.219 0.0973695 -3.3876 0
M  V30 5656 C 540.392 -0.857252 -4.28917 0
M  V30 5657 C 539.451 -0.169749 -5.25926 0
M  V30 5658 O 538.477 -0.807044 -5.6345 0
M  V30 5659 N 539.679 1.08911 -5.70192 0
M  V30 5660 H 542.444 -1.52352 -2.58087 0
M  V30 5661 H 540.005 -0.944993 -1.31459 0
M  V30 5662 H 541.997 0.567676 -4.00699 0
M  V30 5663 H 540.567 0.893093 -2.99571 0
M  V30 5664 H 539.787 -1.50696 -3.64259 0
M  V30 5665 H 541.075 -1.50489 -4.86035 0
M  V30 5666 H 540.473 1.62703 -5.41797 0
M  V30 5667 H 539.03 1.50331 -6.34227 0
M  V30 5668 N 542.463 1.3308 -0.844243 0
M  V30 5669 C 543.74 1.92178 -0.364261 0
M  V30 5670 C 544.12 1.76961 1.15101 0
M  V30 5671 O 543.468 1.16128 1.9679 0
M  V30 5672 C 543.678 3.393 -0.817106 0
M  V30 5673 C 545.026 4.16444 -0.828236 0
M  V30 5674 O 546.05 3.47975 -0.761062 0
M  V30 5675 O 544.909 5.38685 -0.920926 0
M  V30 5676 H 542.003 0.820411 -0.10419 0
M  V30 5677 H 544.549 1.41918 -0.930453 0
M  V30 5678 H 543.321 3.44272 -1.85991 0
M  V30 5679 H 542.944 3.96947 -0.227785 0
M  V30 5680 N 543.941 0.601185 1.45683 0
M  V30 5681 C 544.871 -0.108824 2.33246 0
M  V30 5682 C 545.852 -0.865223 1.46451 0
M  V30 5683 O 547.037 -0.83704 1.75235 0
M  V30 5684 C 544.167 -1.11101 3.2905 0
M  V30 5685 C 543.121 -0.468244 4.25431 0
M  V30 5686 C 542.447 -1.57822 5.10878 0
M  V30 5687 C 543.747 0.606469 5.18767 0
M  V30 5688 H 545.441 0.622306 2.92861 0
M  V30 5689 H 542.987 0.300714 1.40825 0
M  V30 5690 H 544.94 -1.61622 3.89174 0
M  V30 5691 H 543.664 -1.87265 2.67581 0
M  V30 5692 H 542.323 0.0160484 3.66596 0
M  V30 5693 H 541.971 -2.32998 4.45781 0
M  V30 5694 H 541.671 -1.15369 5.76163 0
M  V30 5695 H 543.195 -2.08583 5.73869 0
M  V30 5696 H 544.609 0.185589 5.73 0
M  V30 5697 H 543.006 0.952381 5.92494 0
M  V30 5698 H 544.076 1.48559 4.61582 0
M  V30 5699 N 545.419 -1.53889 0.339982 0
M  V30 5700 C 546.349 -2.27843 -0.510856 0
M  V30 5701 C 547.33 -1.29267 -1.10563 0
M  V30 5702 O 548.515 -1.58104 -1.12768 0
M  V30 5703 C 545.645 -3.04857 -1.66372 0
M  V30 5704 C 544.599 -4.10907 -1.19746 0
M  V30 5705 C 543.925 -4.75855 -2.43857 0
M  V30 5706 C 545.225 -5.21435 -0.300501 0
M  V30 5707 H 546.919 -2.99212 0.106067 0
M  V30 5708 H 544.465 -1.43904 0.0524533 0
M  V30 5709 H 546.418 -3.5533 -2.26537 0
M  V30 5710 H 545.142 -2.31133 -2.30749 0
M  V30 5711 H 543.801 -3.61342 -0.618654 0
M  V30 5712 H 543.449 -3.9873 -3.06633 0
M  V30 5713 H 543.149 -5.47502 -2.13343 0
M  V30 5714 H 544.673 -5.2911 -3.04754 0
M  V30 5715 H 546.087 -5.67565 -0.80889 0
M  V30 5716 H 544.484 -6.00036 -0.0874076 0
M  V30 5717 H 545.554 -4.80328 0.664321 0
M  V30 5718 N 546.897 -0.0685191 -1.57451 0
M  V30 5719 C 547.847 0.909895 -2.09057 0
M  V30 5720 C 548.831 1.26088 -0.999528 0
M  V30 5721 O 550.023 1.24041 -1.26265 0
M  V30 5722 C 547.152 2.17863 -2.65312 0
M  V30 5723 C 546.238 1.85427 -3.81415 0
M  V30 5724 N 546.629 1.23426 -4.9051 0
M  V30 5725 C 544.927 2.15196 -3.90649 0
M  V30 5726 C 545.628 1.09008 -5.71395 0
M  V30 5727 N 544.604 1.59871 -5.1956 0
M  V30 5728 H 548.406 0.426145 -2.90794 0
M  V30 5729 H 545.92 0.135462 -1.61834 0
M  V30 5730 H 547.917 2.88872 -3.00597 0
M  V30 5731 H 546.577 2.66829 -1.85021 0
M  V30 5732 H 547.588 0.904305 -5.09944 0
M  V30 5733 H 544.265 2.66562 -3.21327 0
M  V30 5734 H 545.655 0.607305 -6.6915 0
M  V30 5735 N 548.375 1.56261 0.205012 0
M  V30 5736 C 549.285 1.96944 1.27476 0
M  V30 5737 C 550.301 0.875636 1.50362 0
M  V30 5738 O 551.477 1.18058 1.6317 0
M  V30 5739 C 548.542 2.29219 2.60115 0
M  V30 5740 C 547.603 3.52255 2.45387 0
M  V30 5741 C 546.836 3.8298 3.71701 0
M  V30 5742 O 547.059 3.15138 4.75441 0
M  V30 5743 O 545.993 4.76435 3.67823 0
M  V30 5744 H 549.819 2.88144 0.959527 0
M  V30 5745 H 547.404 1.43686 0.409217 0
M  V30 5746 H 549.286 2.51098 3.3842 0
M  V30 5747 H 547.961 1.4119 2.91285 0
M  V30 5748 H 546.868 3.35635 1.65227 0
M  V30 5749 H 548.201 4.40719 2.19152 0
M  V30 5750 N 549.853 -0.472356 1.50355 0
M  V30 5751 C 550.816 -1.5529 1.68576 0
M  V30 5752 C 551.816 -1.50863 0.556511 0
M  V30 5753 O 553.006 -1.53505 0.823516 0
M  V30 5754 C 550.138 -2.94921 1.70981 0
M  V30 5755 H 551.331 -1.40451 2.64978 0
M  V30 5756 H 548.884 -0.698645 1.39816 0
M  V30 5757 H 549.619 -3.15204 0.762675 0
M  V30 5758 H 549.404 -2.99541 2.53017 0
M  V30 5759 H 550.894 -3.73372 1.87037 0
M  V30 5760 N 551.331 -1.39911 -0.725443 0
M  V30 5761 C 552.261 -1.42138 -1.85254 0
M  V30 5762 C 553.242 -0.283513 -1.67721 0
M  V30 5763 O 554.427 -0.490717 -1.87898 0
M  V30 5764 C 551.557 -1.27354 -3.23107 0
M  V30 5765 C 550.511 -2.3864 -3.55296 0
M  V30 5766 C 549.837 -2.08939 -4.92188 0
M  V30 5767 C 551.137 -3.8097 -3.57295 0
M  V30 5768 H 552.831 -2.36461 -1.83648 0
M  V30 5769 H 550.377 -1.13817 -0.882138 0
M  V30 5770 H 552.33 -1.2753 -4.01639 0
M  V30 5771 H 551.054 -0.295025 -3.25265 0
M  V30 5772 H 549.713 -2.37696 -2.79099 0
M  V30 5773 H 549.361 -1.09502 -4.90936 0
M  V30 5774 H 549.061 -2.83491 -5.14691 0
M  V30 5775 H 550.585 -2.10781 -5.73065 0
M  V30 5776 H 551.999 -3.8379 -4.25885 0
M  V30 5777 H 550.396 -4.5496 -3.9132 0
M  V30 5778 H 551.466 -4.11261 -2.5689 0
M  V30 5779 N 552.809 0.956637 -1.25245 0
M  V30 5780 C 553.741 2.05628 -1.01242 0
M  V30 5781 C 554.754 1.62785 0.0219579 0
M  V30 5782 O 555.943 1.77184 -0.216365 0
M  V30 5783 C 553.043 3.35069 -0.508161 0
M  V30 5784 C 552.216 4.06761 -1.60823 0
M  V30 5785 C 551.275 5.14473 -1.1047 0
M  V30 5786 O 550.301 5.40033 -1.79868 0
M  V30 5787 N 551.503 5.80474 0.0550773 0
M  V30 5788 H 554.268 2.2679 -1.95925 0
M  V30 5789 H 551.829 1.12505 -1.16423 0
M  V30 5790 H 553.821 4.044 -0.155819 0
M  V30 5791 H 552.391 3.10694 0.344683 0
M  V30 5792 H 551.611 3.31555 -2.13224 0
M  V30 5793 H 552.899 4.51418 -2.34733 0
M  V30 5794 H 552.297 5.62125 0.635004 0
M  V30 5795 H 550.854 6.50868 0.348469 0
M  V30 5796 N 554.287 1.06798 1.15896 0
M  V30 5797 C 555.564 0.701057 1.82605 0
M  V30 5798 C 555.944 -0.817066 1.94646 0
M  V30 5799 O 555.292 -1.72933 1.49353 0
M  V30 5800 C 555.502 1.40895 3.19296 0
M  V30 5801 C 556.85 1.55744 3.95005 0
M  V30 5802 O 557.874 1.36927 3.28831 0
M  V30 5803 O 556.733 1.86658 5.13635 0
M  V30 5804 H 553.827 0.248791 0.78869 0
M  V30 5805 H 556.373 1.16857 1.23055 0
M  V30 5806 H 555.145 2.4439 3.05596 0
M  V30 5807 H 554.768 0.931847 3.86526 0
M  V30 5808 N 555.766 -1.3263 0.851289 0
M  V30 5809 C 556.996 -2.01271 0.466222 0
M  V30 5810 C 557.404 -1.64156 -0.940714 0
M  V30 5811 O 556.747 -0.857109 -1.62479 0
M  V30 5812 C 556.809 -3.55695 0.521672 0
M  V30 5813 C 556.473 -4.16227 1.88691 0
M  V30 5814 C 557.47 -4.34699 2.85189 0
M  V30 5815 C 555.155 -4.52377 2.18313 0
M  V30 5816 C 557.149 -4.88484 4.09465 0
M  V30 5817 C 554.836 -5.05868 3.42843 0
M  V30 5818 C 555.834 -5.23869 4.38235 0
M  V30 5819 O 555.522 -5.76218 5.6056 0
M  V30 5820 H 555.254 -0.651034 0.18202 0
M  V30 5821 H 557.808 -1.7026 1.14894 0
M  V30 5822 H 556.038 -3.86086 -0.217888 0
M  V30 5823 H 557.727 -4.05613 0.152682 0
M  V30 5824 H 558.493 -4.07107 2.63607 0
M  V30 5825 H 554.372 -4.37652 1.44851 0
M  V30 5826 H 557.916 -5.02451 4.83931 0
M  V30 5827 H 553.813 -5.32891 3.64277 0
M  V30 5828 H 554.581 -5.94616 5.62471 0
M  V30 5829 N 557.244 -0.608902 -1.45362 0
M  V30 5830 C 558.154 0.110969 -2.34337 0
M  V30 5831 C 559.17 0.859007 -1.51318 0
M  V30 5832 O 560.346 0.816296 -1.84116 0
M  V30 5833 C 557.411 1.09494 -3.28956 0
M  V30 5834 C 556.472 0.348718 -4.27881 0
M  V30 5835 C 555.705 1.28582 -5.17979 0
M  V30 5836 O 555.928 2.52369 -5.11533 0
M  V30 5837 O 554.862 0.782172 -5.96796 0
M  V30 5838 H 558.688 -0.620258 -2.97299 0
M  V30 5839 H 556.273 -0.36916 -1.44767 0
M  V30 5840 H 558.155 1.66163 -3.87257 0
M  V30 5841 H 556.83 1.80717 -2.68557 0
M  V30 5842 H 555.737 -0.260465 -3.73192 0
M  V30 5843 H 557.07 -0.323049 -4.91139 0
M  V30 5844 N 558.722 1.53707 -0.348139 0
M  V30 5845 C 559.652 2.28111 0.498766 0
M  V30 5846 C 560.633 1.29851 1.09876 0
M  V30 5847 O 561.818 1.587 1.11928 0
M  V30 5848 C 558.948 3.05735 1.64753 0
M  V30 5849 C 557.902 4.11537 1.17565 0
M  V30 5850 C 557.228 4.77142 2.4133 0
M  V30 5851 C 558.528 5.21587 0.272844 0
M  V30 5852 H 560.222 2.99152 -0.121934 0
M  V30 5853 H 557.768 1.43875 -0.0600842 0
M  V30 5854 H 559.721 3.56526 2.24649 0
M  V30 5855 H 558.445 2.32354 2.2952 0
M  V30 5856 H 557.104 3.61665 0.599483 0
M  V30 5857 H 556.752 4.0035 3.04514 0
M  V30 5858 H 556.452 5.48626 2.10436 0
M  V30 5859 H 557.976 5.30719 3.01943 0
M  V30 5860 H 559.39 5.67986 0.778779 0
M  V30 5861 H 557.787 6.00074 0.0555849 0
M  V30 5862 H 558.857 4.79969 -0.689785 0
M  V30 5863 N 560.2 0.0768682 1.57412 0
M  V30 5864 C 561.425 -0.603404 1.98428 0
M  V30 5865 C 561.85 -1.62047 0.955108 0
M  V30 5866 O 561.208 -1.81129 -0.0786778 0
M  V30 5867 C 561.256 -1.24396 3.38464 0
M  V30 5868 O 560.36 -2.35982 3.3821 0
M  V30 5869 H 559.701 -0.154741 0.645718 0
M  V30 5870 H 562.231 0.152885 2.04028 0
M  V30 5871 H 562.241 -1.5896 3.7576 0
M  V30 5872 H 560.916 -0.498735 4.12899 0
M  V30 5873 H 559.493 -2.03173 3.1269 0
M  V30 5874 N 561.678 -1.56367 -0.196722 0
M  V30 5875 C 562.61 -1.90941 -1.26784 0
M  V30 5876 C 563.623 -0.799928 -1.41792 0
M  V30 5877 O 564.812 -1.07833 -1.42247 0
M  V30 5878 C 561.912 -2.12477 -2.6402 0
M  V30 5879 C 561.085 -3.43616 -2.70641 0
M  V30 5880 C 560.144 -3.54284 -3.89062 0
M  V30 5881 O 559.17 -4.2712 -3.76241 0
M  V30 5882 N 560.372 -2.87252 -5.04447 0
M  V30 5883 H 563.137 -2.83417 -0.974417 0
M  V30 5884 H 560.698 -1.57215 -0.386649 0
M  V30 5885 H 562.69 -2.16904 -3.41665 0
M  V30 5886 H 561.26 -1.26508 -2.85857 0
M  V30 5887 H 560.48 -3.51072 -1.79283 0
M  V30 5888 H 561.768 -4.29958 -2.72054 0
M  V30 5889 H 561.166 -2.27901 -5.17762 0
M  V30 5890 H 559.723 -2.97308 -5.80044 0
M  V30 5891 N 563.156 0.464375 -1.50603 0
M  V30 5892 C 564.572 0.798684 -1.38178 0
M  V30 5893 C 564.772 1.96568 -0.44308 0
M  V30 5894 O 563.828 2.52252 0.111814 0
M  V30 5895 C 565.141 1.10444 -2.79683 0
M  V30 5896 C 566.689 1.2105 -2.88645 0
M  V30 5897 C 567.164 1.54934 -4.30998 0
M  V30 5898 N 568.655 1.61913 -4.3398 0
M  V30 5899 C 569.39 1.8965 -5.41129 0
M  V30 5900 N 568.886 2.15361 -6.58477 0
M  V30 5901 N 570.679 1.91207 -5.28579 0
M  V30 5902 H 562.83 -0.304603 -2.10204 0
M  V30 5903 H 565.093 -0.0737804 -0.945125 0
M  V30 5904 H 564.799 0.319934 -3.50242 0
M  V30 5905 H 564.673 2.03896 -3.17342 0
M  V30 5906 H 567.06 1.98567 -2.18301 0
M  V30 5907 H 567.141 0.255613 -2.5452 0
M  V30 5908 H 566.785 0.779549 -5.01882 0
M  V30 5909 H 566.715 2.51584 -4.62615 0
M  V30 5910 H 569.206 1.44055 -3.49366 0
M  V30 5911 H 569.519 2.35818 -7.35941 0
M  V30 5912 H 567.864 2.1274 -6.6164 0
M  V30 5913 H 571.055 1.70622 -4.35897 0
M  V30 5914 H 571.228 2.12488 -6.12171 0
M  V30 5915 N 564.634 1.40294 0.718013 0
M  V30 5916 C 565.584 1.36847 1.82365 0
M  V30 5917 C 566.568 0.246424 1.59002 0
M  V30 5918 O 567.76 0.485336 1.70216 0
M  V30 5919 C 564.889 1.23105 3.20469 0
M  V30 5920 C 563.975 2.4008 3.49603 0
M  V30 5921 N 564.366 3.65562 3.49568 0
M  V30 5922 C 562.664 2.33407 3.80049 0
M  V30 5923 C 563.365 4.43015 3.76978 0
M  V30 5924 N 562.341 3.72823 3.95606 0
M  V30 5925 H 566.143 2.31811 1.80668 0
M  V30 5926 H 563.657 1.34031 0.91703 0
M  V30 5927 H 565.654 1.18718 3.9964 0
M  V30 5928 H 564.314 0.291056 3.23393 0
M  V30 5929 H 565.325 3.98756 3.30476 0
M  V30 5930 H 562.002 1.47762 3.90478 0
M  V30 5931 H 563.392 5.51859 3.83276 0
M  V30 5932 N 566.112 -0.949982 1.2575 0
M  V30 5933 C 567.022 -2.08109 1.08295 0
M  V30 5934 C 568.038 -1.7399 0.0188181 0
M  V30 5935 O 569.214 -2.00187 0.220724 0
M  V30 5936 C 566.279 -3.39383 0.708534 0
M  V30 5937 C 565.34 -3.8734 1.85111 0
M  V30 5938 C 564.573 -5.12349 1.49447 0
M  V30 5939 O 564.796 -5.6905 0.392212 0
M  V30 5940 O 563.73 -5.5513 2.32624 0
M  V30 5941 H 567.556 -2.25738 2.03165 0
M  V30 5942 H 565.141 -1.06545 1.04731 0
M  V30 5943 H 567.023 -4.18277 0.512061 0
M  V30 5944 H 565.698 -3.23013 -0.210854 0
M  V30 5945 H 564.605 -3.09429 2.10248 0
M  V30 5946 H 565.938 -4.08216 2.74991 0
M  V30 5947 N 567.59 -1.07411 -1.15328 0
M  V30 5948 C 568.5 -0.706438 -2.23711 0
M  V30 5949 C 569.516 0.282586 -1.7169 0
M  V30 5950 O 570.692 0.129066 -2.00986 0
M  V30 5951 C 567.757 -0.11048 -3.46524 0
M  V30 5952 C 566.818 -1.15282 -4.13532 0
M  V30 5953 C 566.051 -0.585205 -5.30482 0
M  V30 5954 O 566.274 0.598549 -5.67251 0
M  V30 5955 O 565.208 -1.33039 -5.87013 0
M  V30 5956 H 569.034 -1.61031 -2.57493 0
M  V30 5957 H 566.619 -0.847113 -1.23062 0
M  V30 5958 H 568.501 0.21957 -4.20828 0
M  V30 5959 H 567.176 0.766703 -3.14489 0
M  V30 5960 H 566.083 -1.53523 -3.41147 0
M  V30 5961 H 567.416 -2.00192 -4.49649 0
M  V30 5962 N 569.068 1.32177 -0.85831 0
M  V30 5963 C 570.479 1.79381 -0.517621 0
M  V30 5964 C 570.83 1.70841 0.964769 0
M  V30 5965 O 569.955 1.26917 1.75274 0
M  V30 5966 C 570.55 3.25706 -0.932801 0
M  V30 5967 C 569.109 3.70851 -0.643953 0
M  V30 5968 C 568.256 2.53208 -1.13054 0
M  V30 5969 H 571.207 1.19424 -1.04516 0
M  V30 5970 H 571.228 3.79673 -0.250674 0
M  V30 5971 H 570.74 3.31889 -2.01174 0
M  V30 5972 H 568.841 3.70178 0.424112 0
M  V30 5973 H 568.954 4.63495 -1.21281 0
M  V30 5974 H 567.318 2.48676 -0.550679 0
M  V30 5975 H 568.101 2.62143 -2.21666 0
M  V30 5976 N 570.547 0.616602 1.45037 0
M  V30 5977 C 571.793 0.123965 2.03022 0
M  V30 5978 C 572.148 -1.23508 1.47525 0
M  V30 5979 O 571.441 -1.80453 0.643981 0
M  V30 5980 C 571.635 0.0356829 3.57382 0
M  V30 5981 C 571.464 1.38462 4.27853 0
M  V30 5982 C 570.234 1.96766 4.65415 0
M  V30 5983 C 572.432 2.31536 4.59234 0
M  V30 5984 N 570.414 3.25046 5.20786 0
M  V30 5985 C 571.785 3.4442 5.15533 0
M  V30 5986 C 573.84 2.30796 4.41178 0
M  V30 5987 C 572.543 4.56742 5.55679 0
M  V30 5988 C 574.569 3.42171 4.82362 0
M  V30 5989 C 573.931 4.53778 5.38762 0
M  V30 5990 H 570.03 0.0889428 0.776925 0
M  V30 5991 H 572.614 0.816925 1.76733 0
M  V30 5992 H 570.785 -0.62652 3.83314 0
M  V30 5993 H 572.517 -0.464443 4.02026 0
M  V30 5994 H 569.272 1.4987 4.49261 0
M  V30 5995 H 569.696 3.90592 5.52962 0
M  V30 5996 H 574.338 1.45765 3.96878 0
M  V30 5997 H 572.056 5.42491 5.9894 0
M  V30 5998 H 575.642 3.42757 4.70116 0
M  V30 5999 H 574.522 5.38536 5.70043 0
M  V30 6000 N 572.025 -1.5352 0.356285 0
M  V30 6001 C 573.441 -1.59599 0.00485267 0
M  V30 6002 C 573.641 -1.37179 -1.47595 0
M  V30 6003 O 572.697 -1.17234 -2.23635 0
M  V30 6004 C 574.01 -2.97277 0.452454 0
M  V30 6005 C 575.558 -3.10357 0.405881 0
M  V30 6006 C 576.033 -4.50432 0.829148 0
M  V30 6007 N 577.524 -4.5652 0.783838 0
M  V30 6008 C 578.259 -5.63077 1.08315 0
M  V30 6009 N 577.755 -6.77429 1.45126 0
M  V30 6010 N 579.548 -5.53014 1.00655 0
M  V30 6011 H 571.699 -1.66346 1.32071 0
M  V30 6012 H 573.962 -0.77971 0.539218 0
M  V30 6013 H 573.668 -3.18792 1.48542 0
M  V30 6014 H 573.542 -3.76836 -0.165762 0
M  V30 6015 H 575.929 -2.88558 -0.617934 0
M  V30 6016 H 576.01 -2.32828 1.05947 0
M  V30 6017 H 575.654 -4.72968 1.85103 0
M  V30 6018 H 575.584 -5.26378 0.152906 0
M  V30 6019 H 578.075 -3.74408 0.512513 0
M  V30 6020 H 578.388 -7.54669 1.66415 0
M  V30 6021 H 576.733 -6.78844 1.48983 0
M  V30 6022 H 579.924 -4.62557 0.718215 0
M  V30 6023 H 580.097 -6.35964 1.24315 0
M  V30 6024 N 573.503 -0.0852151 -1.57369 0
M  V30 6025 C 574.731 0.58946 -1.98325 0
M  V30 6026 C 575.146 1.62333 -0.96403 0
M  V30 6027 O 574.503 1.82438 0.0476395 0
M  V30 6028 C 574.554 1.24604 -3.39347 0
M  V30 6029 O 574.275 0.253532 -4.37366 0
M  V30 6030 C 575.776 2.00726 -3.95252 0
M  V30 6031 H 572.996 0.158783 -0.651942 0
M  V30 6032 H 575.54 -0.161584 -2.03861 0
M  V30 6033 H 573.695 1.94808 -3.34856 0
M  V30 6034 H 574.109 0.726207 -5.19448 0
M  V30 6035 H 575.583 2.42039 -4.96106 0
M  V30 6036 H 576.06 2.86919 -3.32527 0
M  V30 6037 H 576.666 1.3536 -4.03185 0
M  V30 6038 N 574.981 1.5647 0.188427 0
M  V30 6039 C 576.229 1.80655 0.905986 0
M  V30 6040 C 576.55 0.659391 1.83513 0
M  V30 6041 O 575.82 -0.321868 1.93238 0
M  V30 6042 H 574.4 0.666391 0.337538 0
M  V30 6043 H 577.062 1.93949 0.192339 0
M  V30 6044 H 576.158 2.74066 1.49313 0
M  V30 6045 N 576.459 -0.456382 1.50847 0
M  V30 6046 C 577.406 -1.55249 1.70782 0
M  V30 6047 C 578.376 -1.56757 0.549231 0
M  V30 6048 O 579.561 -1.74061 0.7815 0
M  V30 6049 C 576.701 -2.93118 1.82143 0
M  V30 6050 C 575.814 -3.01285 3.09598 0
M  V30 6051 C 574.949 -4.30159 3.11667 0
M  V30 6052 C 573.988 -4.32124 4.33515 0
M  V30 6053 N 573.125 -5.52492 4.3324 0
M  V30 6054 H 577.965 -1.37555 2.64353 0
M  V30 6055 H 575.502 -0.668543 1.3103 0
M  V30 6056 H 577.46 -3.73088 1.86711 0
M  V30 6057 H 576.09 -3.09413 0.919978 0
M  V30 6058 H 575.142 -2.14096 3.14431 0
M  V30 6059 H 576.454 -2.98597 3.99551 0
M  V30 6060 H 575.608 -5.18489 3.15046 0
M  V30 6061 H 574.347 -4.35477 2.1957 0
M  V30 6062 H 573.352 -3.42189 4.30333 0
M  V30 6063 H 574.577 -4.28485 5.26856 0
M  V30 6064 H 572.523 -5.58567 3.44004 0
M  V30 6065 H 572.44 -5.51605 5.16979 0
M  V30 6066 H 573.708 -6.42906 4.40786 0
M  V30 6067 N 577.937 -1.40673 -0.710563 0
M  V30 6068 C 578.867 -1.44095 -1.83736 0
M  V30 6069 C 579.848 -0.301286 -1.67411 0
M  V30 6070 O 581.033 -0.510618 -1.87367 0
M  V30 6071 C 578.163 -1.30773 -3.21738 0
M  V30 6072 C 577.117 -2.42395 -3.52745 0
M  V30 6073 C 576.443 -2.14147 -4.89944 0
M  V30 6074 C 577.743 -3.84738 -3.53234 0
M  V30 6075 H 579.437 -2.38396 -1.81129 0
M  V30 6076 H 576.983 -1.14746 -0.870017 0
M  V30 6077 H 578.936 -1.31783 -4.00264 0
M  V30 6078 H 577.66 -0.329507 -3.24934 0
M  V30 6079 H 576.319 -2.40643 -2.76562 0
M  V30 6080 H 575.967 -1.14703 -4.89747 0
M  V30 6081 H 575.667 -2.88934 -5.11655 0
M  V30 6082 H 577.191 -2.16848 -5.70797 0
M  V30 6083 H 578.605 -3.88286 -4.2179 0
M  V30 6084 H 577.002 -4.59085 -3.86473 0
M  V30 6085 H 578.072 -4.13962 -2.52514 0
M  V30 6086 N 579.415 0.9433 -1.26252 0
M  V30 6087 C 580.345 2.05902 -1.10122 0
M  V30 6088 C 581.326 1.70099 -0.00700552 0
M  V30 6089 O 582.511 1.93377 -0.178641 0
M  V30 6090 C 579.641 3.39516 -0.731175 0
M  V30 6091 C 578.595 3.89372 -1.77688 0
M  V30 6092 C 577.921 5.19613 -1.26122 0
M  V30 6093 C 579.221 4.14489 -3.17799 0
M  V30 6094 H 580.915 2.19655 -2.03451 0
M  V30 6095 H 578.461 1.05548 -0.979576 0
M  V30 6096 H 580.414 4.17031 -0.605215 0
M  V30 6097 H 579.138 3.25733 0.23782 0
M  V30 6098 H 577.797 3.14036 -1.89148 0
M  V30 6099 H 577.445 5.02208 -0.282128 0
M  V30 6100 H 577.145 5.53939 -1.96023 0
M  V30 6101 H 578.669 5.99713 -1.14789 0
M  V30 6102 H 580.083 4.82625 -3.09428 0
M  V30 6103 H 578.48 4.60094 -3.85271 0
M  V30 6104 H 579.55 3.20347 -3.64014 0
M  V30 6105 N 580.893 1.08022 1.14757 0
M  V30 6106 C 581.823 0.728248 2.21853 0
M  V30 6107 C 582.804 -0.287486 1.67653 0
M  V30 6108 O 583.989 -0.158727 1.9355 0
M  V30 6109 C 581.119 0.132549 3.47047 0
M  V30 6110 C 580.073 1.07619 4.14249 0
M  V30 6111 C 579.399 0.342907 5.33599 0
M  V30 6112 C 580.699 2.41268 4.63235 0
M  V30 6113 H 582.393 1.62365 2.51551 0
M  V30 6114 H 579.939 0.782125 1.20908 0
M  V30 6115 H 581.892 -0.125665 4.21213 0
M  V30 6116 H 580.616 -0.797971 3.16702 0
M  V30 6117 H 579.275 1.31944 3.42033 0
M  V30 6118 H 578.923 -0.59129 4.99513 0
M  V30 6119 H 578.623 0.971955 5.79506 0
M  V30 6120 H 580.147 0.0926538 6.1053 0
M  V30 6121 H 581.561 2.21232 5.28894 0
M  V30 6122 H 579.958 2.9983 5.19829 0
M  V30 6123 H 581.028 3.03079 3.78512 0
M  V30 6124 N 582.371 -1.3172 0.865308 0
M  V30 6125 C 583.599 -2.01057 0.488251 0
M  V30 6126 C 584.014 -1.64979 -0.918 0
M  V30 6127 O 583.371 -0.876597 -1.60069 0
M  V30 6128 C 583.422 -3.55964 0.630224 0
M  V30 6129 O 583.143 -3.90749 1.98109 0
M  V30 6130 C 584.644 -4.42574 0.253567 0
M  V30 6131 H 581.864 -0.64332 0.190736 0
M  V30 6132 H 584.408 -1.68058 1.16519 0
M  V30 6133 H 582.563 -3.874 0.000895422 0
M  V30 6134 H 582.977 -4.85467 1.9855 0
M  V30 6135 H 584.451 -5.50521 0.403875 0
M  V30 6136 H 584.928 -4.31724 -0.806895 0
M  V30 6137 H 585.534 -4.16547 0.858404 0
M  V30 6138 N 583.85 -0.624285 -1.44708 0
M  V30 6139 C 584.779 0.0717025 -2.3339 0
M  V30 6140 C 585.76 0.841814 -1.47809 0
M  V30 6141 O 586.946 0.809056 -1.76544 0
M  V30 6142 C 584.076 1.05852 -3.30776 0
M  V30 6143 C 583.029 0.400503 -4.26122 0
M  V30 6144 C 582.356 1.49674 -5.13324 0
M  V30 6145 C 583.656 -0.688924 -5.17737 0
M  V30 6146 H 585.35 -0.668819 -2.91834 0
M  V30 6147 H 582.896 -0.32308 -1.40329 0
M  V30 6148 H 584.849 1.5541 -3.91696 0
M  V30 6149 H 583.572 1.82984 -2.70526 0
M  V30 6150 H 582.231 -0.0743687 -3.66525 0
M  V30 6151 H 581.88 2.25877 -4.49431 0
M  V30 6152 H 581.58 1.06188 -5.77926 0
M  V30 6153 H 583.104 1.99427 -5.77115 0
M  V30 6154 H 584.518 -0.276724 -5.72632 0
M  V30 6155 H 582.915 -1.04652 -5.90904 0
M  V30 6156 H 583.985 -1.55884 -4.5916 0
M  V30 6157 N 585.328 1.53329 -0.364422 0
M  V30 6158 C 586.739 1.86345 0.115039 0
M  V30 6159 C 587.09 1.28505 1.4826 0
M  V30 6160 O 586.215 0.606639 2.07723 0
M  V30 6161 C 586.81 3.38114 0.215522 0
M  V30 6162 C 585.369 3.70932 0.639237 0
M  V30 6163 C 584.516 2.76471 -0.214261 0
M  V30 6164 H 587.467 1.47593 -0.583258 0
M  V30 6165 H 587.488 3.66031 1.0393 0
M  V30 6166 H 587 3.80182 -0.779948 0
M  V30 6167 H 585.101 3.3442 1.64298 0
M  V30 6168 H 585.214 4.77302 0.41465 0
M  V30 6169 H 583.578 2.52724 0.316678 0
M  V30 6170 H 584.361 3.21373 -1.20725 0
M  V30 6171 N 586.806 0.0935595 1.57322 0
M  V30 6172 C 587.736 -0.863062 2.16964 0
M  V30 6173 C 588.717 -1.29528 1.10256 0
M  V30 6174 O 589.902 -1.36245 1.38387 0
M  V30 6175 C 587.032 -2.12276 2.74875 0
M  V30 6176 C 585.986 -1.82921 3.86942 0
M  V30 6177 C 585.312 -3.15707 4.31548 0
M  V30 6178 C 586.612 -1.11737 5.10208 0
M  V30 6179 H 588.306 -0.366145 2.97153 0
M  V30 6180 H 585.852 -0.174673 1.42937 0
M  V30 6181 H 587.805 -2.79634 3.1525 0
M  V30 6182 H 586.529 -2.64248 1.91938 0
M  V30 6183 H 585.188 -1.17961 3.47103 0
M  V30 6184 H 584.836 -3.65563 3.45504 0
M  V30 6185 H 584.536 -2.96849 5.07104 0
M  V30 6186 H 586.06 -3.84226 4.74555 0
M  V30 6187 H 587.474 -1.69203 5.47762 0
M  V30 6188 H 585.871 -1.03064 5.91183 0
M  V30 6189 H 586.941 -0.0998818 4.84797 0
M  V30 6190 N 588.284 -1.56567 -0.180126 0
M  V30 6191 C 589.214 -1.98753 -1.22553 0
M  V30 6192 C 590.195 -0.86175 -1.46656 0
M  V30 6193 O 591.38 -1.12719 -1.58139 0
M  V30 6194 C 588.51 -2.33988 -2.56645 0
M  V30 6195 C 587.464 -3.49445 -2.47128 0
M  V30 6196 C 586.79 -3.70397 -3.8563 0
M  V30 6197 C 588.09 -4.83171 -1.98352 0
M  V30 6198 H 589.784 -2.86332 -0.874896 0
M  V30 6199 H 587.33 -1.37757 -0.419414 0
M  V30 6200 H 589.283 -2.62097 -3.29974 0
M  V30 6201 H 588.007 -1.43309 -2.93479 0
M  V30 6202 H 586.666 -3.2145 -1.76254 0
M  V30 6203 H 586.314 -2.77023 -4.19842 0
M  V30 6204 H 586.014 -4.48077 -3.80132 0
M  V30 6205 H 587.538 -4.00897 -4.60558 0
M  V30 6206 H 588.952 -5.10213 -2.61449 0
M  V30 6207 H 587.349 -5.64425 -2.03823 0
M  V30 6208 H 588.419 -4.75753 -0.937402 0
M  V30 6209 N 589.762 0.448376 -1.51087 0
M  V30 6210 C 591.178 0.783984 -1.39017 0
M  V30 6211 C 591.378 1.96087 -0.463904 0
M  V30 6212 O 590.434 2.52357 0.0850534 0
M  V30 6213 C 591.747 1.07471 -2.80839 0
M  V30 6214 C 593.295 1.17981 -2.89913 0
M  V30 6215 C 593.77 1.50354 -4.32617 0
M  V30 6216 N 595.261 1.57301 -4.35673 0
M  V30 6217 C 595.996 1.839 -5.4311 0
M  V30 6218 N 595.492 2.08365 -6.60724 0
M  V30 6219 N 597.285 1.8559 -5.30578 0
M  V30 6220 H 589.436 -0.326881 -2.0987 0
M  V30 6221 H 591.699 -0.0838006 -0.944289 0
M  V30 6222 H 591.405 0.282768 -3.50561 0
M  V30 6223 H 591.279 2.00519 -3.19487 0
M  V30 6224 H 593.666 1.9624 -2.20395 0
M  V30 6225 H 593.747 0.228603 -2.54776 0
M  V30 6226 H 593.391 0.726273 -5.0268 0
M  V30 6227 H 593.321 2.46663 -4.65258 0
M  V30 6228 H 595.812 1.40342 -3.50874 0
M  V30 6229 H 596.125 2.27999 -7.38401 0
M  V30 6230 H 594.47 2.0571 -6.63859 0
M  V30 6231 H 597.661 1.65989 -4.37682 0
M  V30 6232 H 597.834 2.05983 -6.1439 0
M  V30 6233 N 591.24 1.41047 0.703093 0
M  V30 6234 C 592.172 1.38228 1.82827 0
M  V30 6235 C 593.185 0.285637 1.60275 0
M  V30 6236 O 594.374 0.54685 1.69917 0
M  V30 6237 C 591.474 1.13136 3.19458 0
M  V30 6238 C 590.647 2.34695 3.69103 0
M  V30 6239 C 589.706 2.05574 4.84382 0
M  V30 6240 O 588.732 2.78549 4.96386 0
M  V30 6241 N 589.934 1.04135 5.71083 0
M  V30 6242 H 592.699 2.35203 1.85741 0
M  V30 6243 H 590.26 1.35562 0.885125 0
M  V30 6244 H 592.252 0.916183 3.94193 0
M  V30 6245 H 590.822 0.247836 3.11616 0
M  V30 6246 H 590.042 2.71963 2.85359 0
M  V30 6247 H 591.33 3.15705 3.99009 0
M  V30 6248 H 590.728 0.43722 5.64008 0
M  V30 6249 H 589.285 0.886078 6.45749 0
M  V30 6250 N 592.718 -0.936591 1.26751 0
M  V30 6251 C 593.946 -1.71758 1.15355 0
M  V30 6252 C 594.361 -1.86549 -0.290683 0
M  V30 6253 O 593.718 -1.37616 -1.19868 0
M  V30 6254 C 593.769 -3.12193 1.82258 0
M  V30 6255 O 593.49 -2.98105 3.21038 0
M  V30 6256 C 594.991 -4.06485 1.76875 0
M  V30 6257 H 592.211 -0.537636 0.401483 0
M  V30 6258 H 594.755 -1.17382 1.67457 0
M  V30 6259 H 592.91 -3.63456 1.34083 0
M  V30 6260 H 593.324 -3.86824 3.54214 0
M  V30 6261 H 594.798 -5.02569 2.28316 0
M  V30 6262 H 595.275 -4.32986 0.736216 0
M  V30 6263 H 595.881 -3.61144 2.24623 0
M  V30 6264 N 594.196 -1.08629 -1.14182 0
M  V30 6265 C 595.159 -0.722027 -2.1753 0
M  V30 6266 C 596.159 0.244305 -1.58933 0
M  V30 6267 O 597.349 0.0235545 -1.74184 0
M  V30 6268 C 594.481 -0.0663966 -3.40835 0
M  V30 6269 H 595.674 -1.63719 -2.51269 0
M  V30 6270 H 593.227 -0.884442 -1.28869 0
M  V30 6271 H 593.962 0.860389 -3.12678 0
M  V30 6272 H 593.747 -0.761598 -3.84632 0
M  V30 6273 H 595.237 0.173346 -4.1724 0
M  V30 6274 N 595.674 1.31259 -0.872281 0
M  V30 6275 C 596.637 2.26744 -0.334656 0
M  V30 6276 C 597.637 1.52307 0.515681 0
M  V30 6277 O 598.827 1.71148 0.324656 0
M  V30 6278 C 595.959 3.36841 0.524482 0
M  V30 6279 H 597.152 2.75812 -1.17762 0
M  V30 6280 H 594.705 1.42232 -0.648064 0
M  V30 6281 H 595.44 2.93069 1.38855 0
M  V30 6282 H 595.225 3.92009 -0.0844299 0
M  V30 6283 H 596.715 4.07944 0.892838 0
M  V30 6284 N 597.152 0.631951 1.44375 0
M  V30 6285 C 598.099 -0.0724807 2.30686 0
M  V30 6286 C 599.069 -0.835975 1.43529 0
M  V30 6287 O 600.254 -0.816849 1.7243 0
M  V30 6288 C 597.394 -1.04753 3.28817 0
M  V30 6289 C 596.507 -0.282367 4.31076 0
M  V30 6290 C 595.642 -1.2493 5.163 0
M  V30 6291 C 594.681 -0.473349 6.10267 0
M  V30 6292 N 593.818 -1.39079 6.88187 0
M  V30 6293 H 598.658 0.669477 2.90383 0
M  V30 6294 H 596.195 0.341927 1.43071 0
M  V30 6295 H 598.153 -1.62623 3.842 0
M  V30 6296 H 596.783 -1.75661 2.70819 0
M  V30 6297 H 595.835 0.412268 3.78159 0
M  V30 6298 H 597.147 0.321955 4.9776 0
M  V30 6299 H 596.301 -1.89931 5.76204 0
M  V30 6300 H 595.04 -1.88755 4.49692 0
M  V30 6301 H 594.045 0.190142 5.49471 0
M  V30 6302 H 595.27 0.16019 6.78911 0
M  V30 6303 H 593.216 -2.01623 6.24247 0
M  V30 6304 H 593.133 -0.840513 7.51313 0
M  V30 6305 H 594.401 -2.02961 7.52613 0
M  V30 6306 N 598.631 -1.53133 0.372548 0
M  V30 6307 C 599.594 -2.24569 -0.458389 0
M  V30 6308 C 600.594 -1.25603 -1.00402 0
M  V30 6309 O 601.784 -1.49827 -0.888672 0
M  V30 6310 C 598.916 -2.98783 -1.6414 0
M  V30 6311 H 600.109 -2.99436 0.166799 0
M  V30 6312 H 597.662 -1.55805 0.124357 0
M  V30 6313 H 598.397 -2.28176 -2.30448 0
M  V30 6314 H 598.182 -3.71404 -1.25704 0
M  V30 6315 H 599.672 -3.53068 -2.23008 0
M  V30 6316 N 600.109 -0.101901 -1.5727 0
M  V30 6317 C 601.355 0.561027 -1.94885 0
M  V30 6318 C 601.688 1.6741 -0.984258 0
M  V30 6319 O 600.963 1.94491 -0.0184767 0
M  V30 6320 C 601.246 1.10982 -3.42571 0
M  V30 6321 C 601.099 0.00133418 -4.498 0
M  V30 6322 C 602.418 2.00608 -3.9172 0
M  V30 6323 H 599.537 0.202467 -0.708644 0
M  V30 6324 H 602.179 -0.173992 -1.89202 0
M  V30 6325 H 600.329 1.73621 -3.47546 0
M  V30 6326 H 602.001 -0.63322 -4.56933 0
M  V30 6327 H 600.244 -0.664143 -4.28686 0
M  V30 6328 H 600.915 0.426253 -5.50352 0
M  V30 6329 H 603.391 1.47864 -3.88941 0
M  V30 6330 H 602.267 2.3593 -4.95609 0
M  V30 6331 H 602.528 2.92608 -3.3141 0
M  V30 6332 N 601.587 1.56661 0.17182 0
M  V30 6333 C 602.519 1.92934 1.2373 0
M  V30 6334 C 603.532 0.822385 1.40502 0
M  V30 6335 O 604.721 1.10083 1.40514 0
M  V30 6336 C 601.821 2.16651 2.60607 0
M  V30 6337 C 600.994 3.47878 2.6514 0
M  V30 6338 C 600.053 3.60429 3.83377 0
M  V30 6339 O 599.079 4.33051 3.69398 0
M  V30 6340 N 600.281 2.95241 4.99813 0
M  V30 6341 H 603.046 2.84931 0.929205 0
M  V30 6342 H 600.607 1.5781 0.361588 0
M  V30 6343 H 602.599 2.22312 3.38171 0
M  V30 6344 H 601.169 1.3104 2.83809 0
M  V30 6345 H 600.389 3.53879 1.73675 0
M  V30 6346 H 601.677 4.34232 2.6518 0
M  V30 6347 H 601.075 2.3611 5.14071 0
M  V30 6348 H 599.632 3.06499 5.75241 0
M  V30 6349 N 603.065 -0.440357 1.51323 0
M  V30 6350 C 604.015 -1.53263 1.68803 0
M  V30 6351 C 604.999 -1.51494 0.542057 0
M  V30 6352 O 606.191 -1.57999 0.797839 0
M  V30 6353 C 603.32 -2.91479 1.8137 0
M  V30 6354 C 602.406 -2.98015 3.01742 0
M  V30 6355 N 602.797 -2.743 4.24962 0
M  V30 6356 C 601.095 -3.29173 3.00934 0
M  V30 6357 C 601.796 -2.86601 5.06197 0
M  V30 6358 N 600.772 -3.1814 4.40781 0
M  V30 6359 H 604.574 -1.33675 2.61741 0
M  V30 6360 H 602.088 -0.647616 1.48929 0
M  V30 6361 H 604.085 -3.70055 1.92002 0
M  V30 6362 H 602.745 -3.12089 0.896117 0
M  V30 6363 H 603.756 -2.49287 4.53957 0
M  V30 6364 H 600.433 -3.55577 2.18796 0
M  V30 6365 H 601.823 -2.72246 6.14274 0
M  V30 6366 N 604.543 -1.41418 -0.695603 0
M  V30 6367 C 605.79 -1.40774 -1.45564 0
M  V30 6368 C 606.118 -0.0168604 -1.94493 0
M  V30 6369 O 605.373 0.971259 -1.69897 0
M  V30 6370 C 605.672 -2.36112 -2.68302 0
M  V30 6371 C 605.338 -3.82952 -2.38031 0
M  V30 6372 C 604 -4.22954 -2.29486 0
M  V30 6373 C 606.352 -4.75662 -2.13061 0
M  V30 6374 C 603.68 -5.53674 -1.94067 0
M  V30 6375 C 606.032 -6.06702 -1.79151 0
M  V30 6376 C 604.696 -6.45725 -1.69102 0
M  V30 6377 H 603.966 -0.515128 -0.532658 0
M  V30 6378 H 606.613 -1.74216 -0.795047 0
M  V30 6379 H 604.918 -1.95924 -3.39295 0
M  V30 6380 H 606.615 -2.32887 -3.26442 0
M  V30 6381 H 603.205 -3.5127 -2.45576 0
M  V30 6382 H 607.389 -4.45561 -2.18608 0
M  V30 6383 H 602.645 -5.8279 -1.8484 0
M  V30 6384 H 606.819 -6.78041 -1.5885 0
M  V30 6385 H 604.446 -7.46929 -1.41426 0
M  V30 6386 N 606.021 0.929856 -1.27246 0
M  V30 6387 C 607.251 1.70895 -1.16096 0
M  V30 6388 C 607.659 1.87039 0.285122 0
M  V30 6389 O 607.002 1.38557 1.20614 0
M  V30 6390 C 607.064 3.12919 -1.7698 0
M  V30 6391 C 606.728 3.2012 -3.26148 0
M  V30 6392 C 607.725 3.02533 -4.22812 0
M  V30 6393 C 605.41 3.43148 -3.66817 0
M  V30 6394 C 607.404 3.07861 -5.58122 0
M  V30 6395 C 605.091 3.48109 -5.02258 0
M  V30 6396 C 606.089 3.30483 -5.97721 0
M  V30 6397 O 605.777 3.35175 -7.30694 0
M  V30 6398 H 605.509 0.54152 -0.404639 0
M  V30 6399 H 608.063 1.17342 -1.68582 0
M  V30 6400 H 606.293 3.67945 -1.18969 0
M  V30 6401 H 607.982 3.72787 -1.60576 0
M  V30 6402 H 608.748 2.84586 -3.92728 0
M  V30 6403 H 604.627 3.55918 -2.9299 0
M  V30 6404 H 608.171 2.94021 -6.32612 0
M  V30 6405 H 604.068 3.65579 -5.31998 0
M  V30 6406 H 604.836 3.51644 -7.39114 0
M  V30 6407 N 607.499 1.09233 1.13605 0
M  V30 6408 C 608.724 0.849067 1.89224 0
M  V30 6409 C 609.149 -0.593875 1.78479 0
M  V30 6410 O 608.507 -1.41703 1.13092 0
M  V30 6411 C 608.555 1.28642 3.36873 0
M  V30 6412 O 607.659 0.44363 4.10007 0
M  V30 6413 H 607 0.30767 0.588417 0
M  V30 6414 H 609.53 1.45595 1.43748 0
M  V30 6415 H 609.54 1.27096 3.87699 0
M  V30 6416 H 608.215 2.33729 3.44011 0
M  V30 6417 H 606.792 0.523241 3.69211 0
M  V30 6418 N 608.977 -1.30795 0.87923 0
M  V30 6419 C 610.223 -1.96653 0.495519 0
M  V30 6420 C 610.556 -1.69282 -0.951703 0
M  V30 6421 O 609.831 -0.994374 -1.6716 0
M  V30 6422 C 610.114 -3.51898 0.764174 0
M  V30 6423 C 609.967 -3.88808 2.2616 0
M  V30 6424 C 611.286 -4.39462 0.236825 0
M  V30 6425 H 608.405 -0.7143 0.181507 0
M  V30 6426 H 611.047 -1.54765 1.10217 0
M  V30 6427 H 609.197 -3.87709 0.247841 0
M  V30 6428 H 610.869 -3.63051 2.8459 0
M  V30 6429 H 609.112 -3.37082 2.73053 0
M  V30 6430 H 609.783 -4.97086 2.4002 0
M  V30 6431 H 612.259 -4.10528 0.678683 0
M  V30 6432 H 611.135 -5.47018 0.454176 0
M  V30 6433 H 611.396 -4.33621 -0.861683 0
M  V30 6434 N 610.455 -0.639598 -1.44038 0
M  V30 6435 C 611.402 0.0602458 -2.30721 0
M  V30 6436 C 612.372 0.828352 -1.43971 0
M  V30 6437 O 613.557 0.807693 -1.72861 0
M  V30 6438 C 610.697 1.03008 -3.29368 0
M  V30 6439 C 609.81 0.259502 -4.3122 0
M  V30 6440 C 608.945 1.22191 -5.16955 0
M  V30 6441 C 607.984 0.440978 -6.10509 0
M  V30 6442 N 607.121 1.35428 -6.88915 0
M  V30 6443 H 611.961 -0.684867 -2.90023 0
M  V30 6444 H 609.498 -0.349509 -1.42888 0
M  V30 6445 H 611.456 1.60583 -3.85057 0
M  V30 6446 H 610.086 1.74222 -2.71747 0
M  V30 6447 H 609.138 -0.432317 -3.77935 0
M  V30 6448 H 610.45 -0.348347 -4.97582 0
M  V30 6449 H 609.604 1.86873 -5.77203 0
M  V30 6450 H 608.343 1.86367 -4.50687 0
M  V30 6451 H 607.348 -0.219279 -5.49363 0
M  V30 6452 H 608.573 -0.196192 -6.78817 0
M  V30 6453 H 606.519 1.9831 -6.25307 0
M  V30 6454 H 606.436 0.800657 -7.51748 0
M  V30 6455 H 607.704 1.98967 -7.53679 0
M  V30 6456 N 611.933 1.52934 -0.380664 0
M  V30 6457 C 612.863 2.29118 0.450268 0
M  V30 6458 C 613.844 1.32153 1.07096 0
M  V30 6459 O 615.029 1.61038 1.08537 0
M  V30 6460 C 612.159 3.09161 1.58231 0
M  V30 6461 C 611.113 4.13938 1.0881 0
M  V30 6462 C 610.439 4.82153 2.31155 0
M  V30 6463 C 611.739 5.22048 0.162146 0
M  V30 6464 H 613.433 2.98826 -0.185361 0
M  V30 6465 H 610.979 1.43715 -0.0905886 0
M  V30 6466 H 612.932 3.61211 2.17036 0
M  V30 6467 H 611.656 2.3717 2.2454 0
M  V30 6468 H 610.315 3.62855 0.522633 0
M  V30 6469 H 609.963 4.06719 2.95953 0
M  V30 6470 H 609.663 5.52966 1.98752 0
M  V30 6471 H 611.187 5.37004 2.90618 0
M  V30 6472 H 612.601 5.6951 0.658126 0
M  V30 6473 H 610.998 6.00057 -0.0717122 0
M  V30 6474 H 612.068 4.78398 -0.791438 0
M  V30 6475 N 613.412 0.11024 1.57214 0
M  V30 6476 C 614.344 -0.873497 2.11902 0
M  V30 6477 C 615.357 -1.23588 1.05971 0
M  V30 6478 O 616.546 -1.18636 1.33371 0
M  V30 6479 C 613.646 -2.17805 2.59643 0
M  V30 6480 C 612.819 -1.98869 3.89576 0
M  V30 6481 C 611.878 -3.12974 4.23006 0
M  V30 6482 O 610.904 -2.86272 4.91973 0
M  V30 6483 N 612.106 -4.39167 3.79622 0
M  V30 6484 H 614.871 -0.406317 2.96933 0
M  V30 6485 H 612.432 -0.074437 1.61729 0
M  V30 6486 H 614.424 -2.93117 2.79042 0
M  V30 6487 H 612.994 -2.55899 1.7954 0
M  V30 6488 H 612.214 -1.078 3.79174 0
M  V30 6489 H 613.502 -1.83512 4.74553 0
M  V30 6490 H 612.9 -4.63739 3.2398 0
M  V30 6491 H 611.457 -5.11379 4.04147 0
M  V30 6492 N 614.89 -1.56749 -0.16351 0
M  V30 6493 C 616.138 -1.82074 -0.87713 0
M  V30 6494 C 616.459 -0.688503 -1.82441 0
M  V30 6495 O 615.729 0.291085 -1.93725 0
M  V30 6496 H 614.309 -0.671677 -0.326893 0
M  V30 6497 H 616.971 -1.9423 -0.161459 0
M  V30 6498 H 616.067 -2.76407 -1.44934 0
M  V30 6499 N 616.368 0.432326 -1.51554 0
M  V30 6500 C 617.315 1.52512 -1.7323 0
M  V30 6501 C 618.285 1.55863 -0.5741 0
M  V30 6502 O 619.47 1.72796 -0.809093 0
M  V30 6503 C 616.61 2.90183 -1.86783 0
M  V30 6504 C 615.723 2.96322 -3.14352 0
M  V30 6505 C 614.858 4.25147 -3.18471 0
M  V30 6506 C 613.897 4.25172 -4.40335 0
M  V30 6507 N 613.034 5.45529 -4.41975 0
M  V30 6508 H 617.874 1.33332 -2.66508 0
M  V30 6509 H 615.411 0.647613 -1.32077 0
M  V30 6510 H 617.369 3.70071 -1.92623 0
M  V30 6511 H 615.999 3.0791 -0.969087 0
M  V30 6512 H 615.051 2.09066 -3.17798 0
M  V30 6513 H 616.363 2.92203 -4.04251 0
M  V30 6514 H 615.517 5.13411 -3.23255 0
M  V30 6515 H 614.256 4.31929 -2.2647 0
M  V30 6516 H 613.261 3.353 -4.35723 0
M  V30 6517 H 614.486 4.20049 -5.33606 0
M  V30 6518 H 612.432 5.53024 -3.52847 0
M  V30 6519 H 612.349 5.43311 -5.25689 0
M  V30 6520 H 613.617 6.35812 -4.50958 0
M  V30 6521 N 617.846 1.41785 0.688094 0
M  V30 6522 C 619.092 1.41753 1.4503 0
M  V30 6523 C 619.425 0.0290745 1.94178 0
M  V30 6524 O 618.7 -0.944456 1.7003 0
M  V30 6525 C 618.983 2.43069 2.65686 0
M  V30 6526 C 618.836 3.91053 2.22256 0
M  V30 6527 C 620.155 2.41543 3.67893 0
M  V30 6528 H 617.274 0.516202 0.526027 0
M  V30 6529 H 619.916 1.73111 0.783105 0
M  V30 6530 H 618.066 2.1646 3.2261 0
M  V30 6531 H 619.738 4.28594 1.70602 0
M  V30 6532 H 617.981 4.05559 1.53963 0
M  V30 6533 H 618.652 4.57501 3.08863 0
M  V30 6534 H 621.128 2.65175 3.20658 0
M  V30 6535 H 620.004 3.14434 4.49914 0
M  V30 6536 H 620.265 1.43666 4.18106 0
M  V30 6537 N 619.324 -0.923095 1.27737 0
M  V30 6538 C 620.735 -1.48626 1.12993 0
M  V30 6539 C 621.086 -1.94142 -0.283439 0
M  V30 6540 O 620.211 -1.81605 -1.17681 0
M  V30 6541 C 620.806 -2.70117 2.04505 0
M  V30 6542 C 619.365 -3.22642 1.93853 0
M  V30 6543 C 618.512 -1.95368 1.96791 0
M  V30 6544 H 621.463 -0.736737 1.40563 0
M  V30 6545 H 621.484 -3.4506 1.60356 0
M  V30 6546 H 620.996 -2.36959 3.07363 0
M  V30 6547 H 619.097 -3.60549 0.939968 0
M  V30 6548 H 619.21 -3.88525 2.80331 0
M  V30 6549 H 617.574 -2.12061 1.41076 0
M  V30 6550 H 618.357 -1.64517 3.01312 0
M  V30 6551 N 620.802 -1.09834 -1.13024 0
M  V30 6552 C 621.735 -0.685453 -2.17662 0
M  V30 6553 C 622.713 0.310142 -1.59615 0
M  V30 6554 O 623.897 0.21052 -1.87321 0
M  V30 6555 C 621.024 -0.0104476 -3.38698 0
M  V30 6556 C 620.07 -0.968522 -4.15358 0
M  V30 6557 S 620.903 -2.48272 -4.74469 0
M  V30 6558 C 622.059 -1.82025 -5.98847 0
M  V30 6559 H 622.292 -1.57187 -2.52348 0
M  V30 6560 H 619.825 -0.914728 -1.24387 0
M  V30 6561 H 621.783 0.372694 -4.08805 0
M  V30 6562 H 620.444 0.852673 -3.02305 0
M  V30 6563 H 619.637 -0.443373 -5.02046 0
M  V30 6564 H 619.239 -1.29327 -3.50928 0
M  V30 6565 H 621.531 -1.14678 -6.67724 0
M  V30 6566 H 622.474 -2.66645 -6.55977 0
M  V30 6567 H 622.882 -1.2874 -5.49624 0
M  V30 6568 N 622.28 1.30327 -0.886154 0
M  V30 6569 C 623.23 2.25668 -0.325248 0
M  V30 6570 C 624.214 1.51318 0.546972 0
M  V30 6571 O 625.406 1.72623 0.391203 0
M  V30 6572 C 622.535 3.40229 0.458167 0
M  V30 6573 C 621.621 4.21933 -0.428208 0
M  V30 6574 N 622.012 4.82129 -1.52921 0
M  V30 6575 C 620.31 4.45439 -0.223535 0
M  V30 6576 C 621.011 5.43351 -2.07714 0
M  V30 6577 N 619.987 5.26002 -1.37195 0
M  V30 6578 H 623.789 2.69759 -1.1665 0
M  V30 6579 H 621.303 1.4478 -0.735691 0
M  V30 6580 H 623.3 4.07579 0.876648 0
M  V30 6581 H 621.96 2.97678 1.29684 0
M  V30 6582 H 622.971 4.81312 -1.91205 0
M  V30 6583 H 619.648 4.13481 0.577875 0
M  V30 6584 H 621.038 6.01118 -3.00178 0
M  V30 6585 N 623.758 0.647228 1.43697 0
M  V30 6586 C 624.705 -0.0480092 2.3075 0
M  V30 6587 C 625.675 -0.820705 1.44408 0
M  V30 6588 O 626.86 -0.798515 1.73287 0
M  V30 6589 C 624 -1.01259 3.2991 0
M  V30 6590 C 623.113 -0.236629 4.31351 0
M  V30 6591 C 622.248 -1.19447 5.17596 0
M  V30 6592 C 621.287 -0.408595 6.10735 0
M  V30 6593 N 620.424 -1.31772 6.89623 0
M  V30 6594 H 625.264 0.700238 2.89656 0
M  V30 6595 H 622.801 0.357082 1.427 0
M  V30 6596 H 624.759 -1.58538 3.85903 0
M  V30 6597 H 623.389 -1.72778 2.72667 0
M  V30 6598 H 622.441 0.452353 3.77701 0
M  V30 6599 H 623.753 0.374731 4.9739 0
M  V30 6600 H 622.907 -1.83809 5.78186 0
M  V30 6601 H 621.646 -1.83975 4.51669 0
M  V30 6602 H 620.651 0.24841 5.49239 0
M  V30 6603 H 621.876 0.232188 6.78703 0
M  V30 6604 H 619.822 -1.94991 6.2635 0
M  V30 6605 H 619.739 -0.760779 7.52162 0
M  V30 6606 H 621.007 -1.94967 7.54724 0
M  V30 6607 N 625.236 -1.5273 0.388769 0
M  V30 6608 C 626.166 -2.29353 -0.438111 0
M  V30 6609 C 627.147 -1.32719 -1.06394 0
M  V30 6610 O 628.332 -1.61612 -1.07681 0
M  V30 6611 C 625.462 -3.09995 -1.56589 0
M  V30 6612 C 624.416 -4.14509 -1.06613 0
M  V30 6613 C 623.742 -4.83372 -2.28594 0
M  V30 6614 C 625.042 -5.22127 -0.134459 0
M  V30 6615 H 626.736 -2.98723 0.201206 0
M  V30 6616 H 624.282 -1.43665 0.0982089 0
M  V30 6617 H 626.235 -3.62357 -2.15118 0
M  V30 6618 H 624.959 -2.38357 -2.23279 0
M  V30 6619 H 623.618 -3.63128 -0.503383 0
M  V30 6620 H 623.266 -4.08283 -2.93792 0
M  V30 6621 H 622.966 -5.54012 -1.95817 0
M  V30 6622 H 624.49 -5.38538 -2.87766 0
M  V30 6623 H 625.904 -5.69851 -0.627914 0
M  V30 6624 H 624.301 -6.00011 0.103534 0
M  V30 6625 H 625.371 -4.77971 0.816798 0
M  V30 6626 N 626.714 -0.118576 -1.57153 0
M  V30 6627 C 627.961 0.539526 -1.9518 0
M  V30 6628 C 628.289 1.66714 -1.00184 0
M  V30 6629 O 627.544 1.95683 -0.0256482 0
M  V30 6630 C 627.843 1.11303 -3.39627 0
M  V30 6631 C 627.509 0.106809 -4.50773 0
M  V30 6632 C 626.171 -0.169876 -4.809 0
M  V30 6633 C 628.523 -0.57895 -5.17975 0
M  V30 6634 C 625.851 -1.13861 -5.75545 0
M  V30 6635 C 628.203 -1.53631 -6.13661 0
M  V30 6636 C 626.867 -1.82099 -6.42181 0
M  V30 6637 H 626.137 0.197427 -0.714215 0
M  V30 6638 H 628.784 -0.199391 -1.90459 0
M  V30 6639 H 627.089 1.92869 -3.4104 0
M  V30 6640 H 628.786 1.63032 -3.66363 0
M  V30 6641 H 625.376 0.332645 -4.27307 0
M  V30 6642 H 629.56 -0.378359 -4.94856 0
M  V30 6643 H 624.816 -1.36592 -5.95947 0
M  V30 6644 H 628.99 -2.07337 -6.64819 0
M  V30 6645 H 626.617 -2.57319 -7.15326 0
M  V30 6646 N 628.193 1.56834 0.155195 0
M  V30 6647 C 629.123 2.00678 1.19376 0
M  V30 6648 C 630.104 0.884973 1.45266 0
M  V30 6649 O 631.289 1.1522 1.56326 0
M  V30 6650 C 628.419 2.38042 2.5289 0
M  V30 6651 C 627.373 3.53332 2.41538 0
M  V30 6652 C 626.699 3.76485 3.79688 0
M  V30 6653 C 627.999 4.86265 1.9064 0
M  V30 6654 H 629.693 2.87688 0.829232 0
M  V30 6655 H 627.239 1.38407 0.397445 0
M  V30 6656 H 629.192 2.67314 3.25763 0
M  V30 6657 H 627.916 1.4796 2.91162 0
M  V30 6658 H 626.575 3.24213 1.71117 0
M  V30 6659 H 626.223 2.83667 4.15382 0
M  V30 6660 H 625.923 4.54068 3.72956 0
M  V30 6661 H 627.447 4.08174 4.54122 0
M  V30 6662 H 628.861 5.14308 2.53299 0
M  V30 6663 H 627.258 5.67597 1.94818 0
M  V30 6664 H 628.328 4.77184 0.861596 0
M  V30 6665 N 629.671 -0.424282 1.51781 0
M  V30 6666 C 630.581 -1.54087 1.76902 0
M  V30 6667 C 631.597 -1.61249 0.653826 0
M  V30 6668 O 632.773 -1.78247 0.937552 0
M  V30 6669 C 629.838 -2.8996 1.90063 0
M  V30 6670 C 628.899 -2.92809 3.13945 0
M  V30 6671 C 628.132 -4.22201 3.26469 0
M  V30 6672 O 628.355 -5.15286 2.44616 0
M  V30 6673 O 627.289 -4.31599 4.1953 0
M  V30 6674 H 631.115 -1.358 2.71647 0
M  V30 6675 H 628.7 -0.608618 1.36441 0
M  V30 6676 H 630.582 -3.70575 2.0063 0
M  V30 6677 H 629.257 -3.08347 0.985067 0
M  V30 6678 H 628.164 -2.11102 3.08847 0
M  V30 6679 H 629.497 -2.79369 4.05233 0
M  V30 6680 N 631.149 -1.42148 -0.680565 0
M  V30 6681 C 632.082 -1.39602 -1.80517 0
M  V30 6682 C 633.06 -0.261098 -1.6049 0
M  V30 6683 O 634.244 -0.450404 -1.8304 0
M  V30 6684 C 631.371 -1.18134 -3.1743 0
M  V30 6685 C 630.417 -2.34543 -3.56219 0
M  V30 6686 S 631.25 -3.97063 -3.59306 0
M  V30 6687 C 632.406 -3.77926 -4.98921 0
M  V30 6688 H 632.639 -2.3477 -1.82402 0
M  V30 6689 H 630.172 -1.28851 -0.850691 0
M  V30 6690 H 632.13 -1.06434 -3.96462 0
M  V30 6691 H 630.791 -0.245611 -3.13138 0
M  V30 6692 H 629.984 -2.15255 -4.55721 0
M  V30 6693 H 629.586 -2.42728 -2.84533 0
M  V30 6694 H 631.878 -3.3856 -5.86842 0
M  V30 6695 H 632.821 -4.77084 -5.23256 0
M  V30 6696 H 633.229 -3.10904 -4.71167 0
M  V30 6697 N 632.627 0.916307 -1.28225 0
M  V30 6698 C 633.557 2.0352 -1.14464 0
M  V30 6699 C 634.538 1.70045 -0.0430844 0
M  V30 6700 O 635.723 1.92954 -0.219619 0
M  V30 6701 C 632.853 3.37889 -0.803027 0
M  V30 6702 C 631.807 3.85516 -1.85908 0
M  V30 6703 C 631.133 5.1682 -1.37116 0
M  V30 6704 C 632.433 4.07655 -3.26519 0
M  V30 6705 H 634.127 2.1529 -2.08064 0
M  V30 6706 H 631.673 1.03446 -1.00174 0
M  V30 6707 H 633.626 4.15654 -0.693537 0
M  V30 6708 H 632.35 3.26164 0.168674 0
M  V30 6709 H 631.009 3.09953 -1.95767 0
M  V30 6710 H 630.657 5.01497 -0.38859 0
M  V30 6711 H 630.357 5.49657 -2.07728 0
M  V30 6712 H 631.881 5.97143 -1.27484 0
M  V30 6713 H 633.295 4.75953 -3.19596 0
M  V30 6714 H 631.692 4.51818 -3.94943 0
M  V30 6715 H 632.762 3.12553 -3.70727 0
M  V30 6716 N 634.105 1.10431 1.1244 0
M  V30 6717 C 635.015 0.765502 2.21759 0
M  V30 6718 C 636.031 -0.236966 1.72379 0
M  V30 6719 O 637.207 -0.0757329 2.01258 0
M  V30 6720 C 634.272 0.202316 3.46109 0
M  V30 6721 C 633.333 1.26205 4.1033 0
M  V30 6722 C 632.566 0.725648 5.28744 0
M  V30 6723 O 632.789 -0.447942 5.68638 0
M  V30 6724 O 631.723 1.48555 5.83279 0
M  V30 6725 H 635.549 1.67801 2.53133 0
M  V30 6726 H 633.134 0.879443 1.20773 0
M  V30 6727 H 635.016 -0.107918 4.21262 0
M  V30 6728 H 633.691 -0.683052 3.16411 0
M  V30 6729 H 632.598 1.62514 3.36957 0
M  V30 6730 H 633.931 2.12044 4.44183 0
M  V30 6731 N 635.583 -1.29855 0.893053 0
M  V30 6732 C 636.546 -2.26183 0.370687 0
M  V30 6733 C 637.546 -1.53108 -0.491385 0
M  V30 6734 O 638.736 -1.71643 -0.297386 0
M  V30 6735 C 635.868 -3.37633 -0.470827 0
M  V30 6736 H 637.061 -2.73903 1.22135 0
M  V30 6737 H 634.614 -1.41183 0.67061 0
M  V30 6738 H 635.349 -2.95241 -1.34175 0
M  V30 6739 H 635.134 -3.91825 0.146784 0
M  V30 6740 H 636.624 -4.09313 -0.827825 0
M  V30 6741 N 637.061 -0.65484 -1.43351 0
M  V30 6742 C 638.008 0.0357713 -2.30772 0
M  V30 6743 C 638.978 0.813035 -1.44841 0
M  V30 6744 O 640.163 0.789314 -1.73708 0
M  V30 6745 C 637.303 0.995084 -3.30442 0
M  V30 6746 C 636.416 0.21375 -4.31471 0
M  V30 6747 C 635.551 1.16701 -5.18222 0
M  V30 6748 C 634.59 0.376201 -6.10943 0
M  V30 6749 N 633.727 1.28113 -6.90313 0
M  V30 6750 H 638.567 -0.71559 -2.89281 0
M  V30 6751 H 636.104 -0.364645 -1.42509 0
M  V30 6752 H 638.062 1.5649 -3.86739 0
M  V30 6753 H 636.692 1.7133 -2.7358 0
M  V30 6754 H 635.744 -0.472377 -3.77456 0
M  V30 6755 H 637.056 -0.401103 -4.97185 0
M  V30 6756 H 636.21 1.8074 -5.79153 0
M  V30 6757 H 634.949 1.81577 -4.52638 0
M  V30 6758 H 633.954 -0.277534 -5.49099 0
M  V30 6759 H 635.179 -0.268178 -6.7857 0
M  V30 6760 H 633.125 1.91666 -6.27376 0
M  V30 6761 H 633.042 0.720879 -7.52555 0
M  V30 6762 H 634.31 1.90962 -7.55747 0
M  V30 6763 N 638.539 1.52521 -0.396863 0
M  V30 6764 C 639.785 2.01971 0.183169 0
M  V30 6765 C 640.118 1.2825 1.45827 0
M  V30 6766 O 639.393 0.385179 1.90648 0
M  V30 6767 C 639.676 3.5736 0.443391 0
M  V30 6768 C 639.529 4.41743 -0.84753 0
M  V30 6769 C 640.848 4.22539 1.2308 0
M  V30 6770 H 637.967 0.734119 0.0650976 0
M  V30 6771 H 640.609 1.82519 -0.527918 0
M  V30 6772 H 638.759 3.74066 1.04914 0
M  V30 6773 H 640.431 4.36773 -1.48414 0
M  V30 6774 H 638.674 4.0845 -1.4612 0
M  V30 6775 H 639.345 5.48507 -0.620003 0
M  V30 6776 H 641.821 4.09857 0.718084 0
M  V30 6777 H 640.697 5.31227 1.38162 0
M  V30 6778 H 640.958 3.80675 2.24808 0
M  V30 6779 N 640.017 0.126909 1.57088 0
M  V30 6780 C 641.265 -0.528123 1.95078 0
M  V30 6781 C 641.586 -1.66708 1.0116 0
M  V30 6782 O 640.856 -1.95777 0.0693527 0
M  V30 6783 H 639.436 -0.198087 0.720257 0
M  V30 6784 H 642.098 0.197703 1.93895 0
M  V30 6785 H 641.194 -0.917507 2.98309 0
M  V30 6786 N 641.495 -1.56914 -0.146875 0
M  V30 6787 C 642.427 -1.94878 -1.20645 0
M  V30 6788 C 643.44 -0.844633 -1.39175 0
M  V30 6789 O 644.629 -1.12304 -1.38744 0
M  V30 6790 C 641.729 -2.20769 -2.57127 0
M  V30 6791 C 640.902 -3.52053 -2.59572 0
M  V30 6792 C 639.961 -3.66482 -3.77594 0
M  V30 6793 O 638.987 -4.38873 -3.62462 0
M  V30 6794 N 640.189 -3.03156 -4.95052 0
M  V30 6795 H 642.954 -2.86374 -0.883757 0
M  V30 6796 H 640.515 -1.58366 -0.336436 0
M  V30 6797 H 642.507 -2.27664 -3.34591 0
M  V30 6798 H 641.077 -1.35538 -2.81688 0
M  V30 6799 H 640.297 -3.56598 -1.68023 0
M  V30 6800 H 641.585 -4.38396 -2.58238 0
M  V30 6801 H 640.983 -2.44258 -5.10249 0
M  V30 6802 H 639.54 -3.15611 -5.70292 0
M  V30 6803 N 642.974 0.416227 -1.52004 0
M  V30 6804 C 643.884 1.53147 -1.77717 0
M  V30 6805 C 644.9 1.609 -0.662368 0
M  V30 6806 O 646.076 1.77747 -0.946991 0
M  V30 6807 C 643.141 2.88948 -1.91598 0
M  V30 6808 C 642.202 2.9114 -3.15493 0
M  V30 6809 C 641.435 4.20464 -3.28703 0
M  V30 6810 O 641.658 5.13981 -2.47345 0
M  V30 6811 O 640.592 4.29368 -4.21813 0
M  V30 6812 H 644.418 1.34357 -2.72363 0
M  V30 6813 H 642.003 0.601373 -1.36762 0
M  V30 6814 H 643.885 3.69505 -2.02593 0
M  V30 6815 H 642.56 3.07821 -1.00141 0
M  V30 6816 H 641.467 2.09461 -3.09962 0
M  V30 6817 H 642.8 2.77216 -4.06709 0
M  V30 6818 N 644.452 1.42507 0.673017 0
M  V30 6819 C 645.384 1.42074 1.79854 0
M  V30 6820 C 646.397 0.319569 1.59633 0
M  V30 6821 O 647.586 0.582769 1.68719 0
M  V30 6822 C 644.686 1.19886 3.16987 0
M  V30 6823 C 643.859 2.42471 3.64042 0
M  V30 6824 C 642.918 2.15802 4.79913 0
M  V30 6825 O 641.944 2.89015 4.90366 0
M  V30 6826 N 643.146 1.16225 5.68746 0
M  V30 6827 H 645.911 2.3909 1.8071 0
M  V30 6828 H 643.472 1.37409 0.856171 0
M  V30 6829 H 645.464 0.999591 3.92161 0
M  V30 6830 H 644.034 0.313879 3.1102 0
M  V30 6831 H 643.254 2.77954 2.79526 0
M  V30 6832 H 644.542 3.24097 3.92223 0
M  V30 6833 H 643.94 0.556756 5.62954 0
M  V30 6834 H 642.497 1.02285 6.43724 0
M  V30 6835 N 645.93 -0.909495 1.28709 0
M  V30 6836 C 646.86 -2.0291 1.15542 0
M  V30 6837 C 647.841 -1.7002 0.0521017 0
M  V30 6838 O 649.026 -1.92835 0.229849 0
M  V30 6839 C 646.156 -3.37458 0.820935 0
M  V30 6840 C 645.11 -3.84524 1.87949 0
M  V30 6841 C 644.436 -5.16086 1.39854 0
M  V30 6842 C 645.736 -4.05918 3.28676 0
M  V30 6843 H 647.43 -2.14183 2.09203 0
M  V30 6844 H 644.976 -1.02913 1.00722 0
M  V30 6845 H 646.929 -4.1528 0.715571 0
M  V30 6846 H 645.653 -3.26249 -0.151374 0
M  V30 6847 H 644.312 -3.08911 1.97408 0
M  V30 6848 H 643.96 -5.01284 0.41518 0
M  V30 6849 H 643.66 -5.48547 2.1064 0
M  V30 6850 H 645.184 -5.96459 1.30649 0
M  V30 6851 H 646.598 -4.74252 3.22115 0
M  V30 6852 H 644.995 -4.49717 3.97334 0
M  V30 6853 H 646.065 -3.10583 3.72379 0
M  V30 6854 N 647.408 -1.11026 -1.11852 0
M  V30 6855 C 648.824 -0.843294 -1.35502 0
M  V30 6856 C 649.024 0.534179 -1.9429 0
M  V30 6857 O 648.08 1.28585 -2.17307 0
M  V30 6858 C 649.393 -1.94793 -2.29077 0
M  V30 6859 C 650.941 -1.97709 -2.42652 0
M  V30 6860 C 651.416 -3.07364 -3.39546 0
M  V30 6861 N 652.907 -3.0671 -3.47107 0
M  V30 6862 C 653.642 -3.88197 -4.22008 0
M  V30 6863 N 653.138 -4.79635 -4.99922 0
M  V30 6864 N 654.931 -3.76391 -4.17476 0
M  V30 6865 H 647.082 -1.99805 -0.720538 0
M  V30 6866 H 649.345 -0.868633 -0.379711 0
M  V30 6867 H 649.051 -2.93971 -1.93065 0
M  V30 6868 H 648.925 -1.84039 -3.29256 0
M  V30 6869 H 651.312 -0.991604 -2.77941 0
M  V30 6870 H 651.393 -2.1254 -1.4234 0
M  V30 6871 H 651.037 -4.06136 -3.04985 0
M  V30 6872 H 650.967 -2.89774 -4.39703 0
M  V30 6873 H 653.458 -2.40457 -2.91528 0
M  V30 6874 H 653.771 -5.38357 -5.54429 0
M  V30 6875 H 652.116 -4.8366 -4.99097 0
M  V30 6876 H 655.307 -3.04303 -3.55693 0
M  V30 6877 H 655.48 -4.40131 -4.75593 0
M  V30 6878 N 648.886 1.2938 -0.899927 0
M  V30 6879 C 650.134 1.95164 -0.524924 0
M  V30 6880 C 650.455 1.71292 0.931888 0
M  V30 6881 O 649.725 1.04481 1.65712 0
M  V30 6882 H 648.305 0.722133 -0.191135 0
M  V30 6883 H 650.967 1.57628 -1.14627 0
M  V30 6884 H 650.063 3.0397 -0.707711 0
M  V30 6885 N 650.364 0.662433 1.43002 0
M  V30 6886 C 651.589 0.186003 2.06564 0
M  V30 6887 C 652.014 -1.14314 1.49379 0
M  V30 6888 O 651.372 -1.70824 0.607346 0
M  V30 6889 C 651.42 0.118269 3.60406 0
M  V30 6890 O 650.524 -0.916859 4.02079 0
M  V30 6891 H 649.865 0.0990981 0.656563 0
M  V30 6892 H 652.395 0.907958 1.8335 0
M  V30 6893 H 652.405 -0.0619981 4.07953 0
M  V30 6894 H 651.08 1.08849 4.01403 0
M  V30 6895 H 649.657 -0.708635 3.66105 0
M  V30 6896 N 651.842 -1.52309 0.404946 0
M  V30 6897 C 653.253 -1.86585 -0.0655926 0
M  V30 6898 C 653.604 -1.3239 -1.44801 0
M  V30 6899 O 652.729 -0.6615 -2.06042 0
M  V30 6900 C 653.324 -3.38566 -0.125801 0
M  V30 6901 C 651.883 -3.72497 -0.540666 0
M  V30 6902 C 651.03 -2.75806 0.287487 0
M  V30 6903 H 653.981 -1.45995 0.622185 0
M  V30 6904 H 654.002 -3.68658 -0.941888 0
M  V30 6905 H 653.514 -3.77981 0.880473 0
M  V30 6906 H 651.615 -3.38659 -1.55373 0
M  V30 6907 H 651.728 -4.78234 -0.287956 0
M  V30 6908 H 650.092 -2.53474 -0.249561 0
M  V30 6909 H 650.875 -3.18059 1.29203 0
M  V30 6910 N 653.32 -0.135238 -1.57019 0
M  V30 6911 C 654.267 0.808908 -2.1616 0
M  V30 6912 C 655.237 1.25234 -1.09113 0
M  V30 6913 O 656.422 1.32697 -1.37099 0
M  V30 6914 C 653.562 2.04729 -2.77813 0
M  V30 6915 C 652.675 1.65074 -3.99218 0
M  V30 6916 C 651.81 2.84002 -4.48906 0
M  V30 6917 C 650.849 2.40663 -5.62803 0
M  V30 6918 N 649.986 3.5256 -6.07162 0
M  V30 6919 H 654.826 0.297751 -2.96509 0
M  V30 6920 H 652.363 0.135264 -1.46477 0
M  V30 6921 H 654.321 2.7731 -3.11697 0
M  V30 6922 H 652.951 2.53275 -2.00128 0
M  V30 6923 H 652.003 0.823029 -3.7139 0
M  V30 6924 H 653.315 1.29236 -4.81767 0
M  V30 6925 H 652.469 3.64788 -4.84783 0
M  V30 6926 H 651.208 3.23076 -3.65339 0
M  V30 6927 H 650.213 1.58314 -5.26514 0
M  V30 6928 H 651.438 2.02687 -6.48147 0
M  V30 6929 H 649.384 3.91278 -5.26534 0
M  V30 6930 H 649.301 3.20699 -6.84608 0
M  V30 6931 H 650.569 4.33738 -6.47682 0
M  V30 6932 N 654.798 1.5699 0.138552 0
M  V30 6933 C 656.075 1.74741 0.87891 0
M  V30 6934 C 656.455 0.705522 1.98961 0
M  V30 6935 O 655.803 -0.274066 2.2685 0
M  V30 6936 C 656.013 3.1909 1.4136 0
M  V30 6937 C 657.361 3.81023 1.87368 0
M  V30 6938 O 658.385 3.22571 1.51084 0
M  V30 6939 O 657.244 4.83722 2.54312 0
M  V30 6940 H 654.338 0.714781 0.415953 0
M  V30 6941 H 656.884 1.69248 0.123817 0
M  V30 6942 H 655.656 3.86424 0.61579 0
M  V30 6943 H 655.279 3.29043 2.23196 0
M  V30 6944 N 656.276 -0.40816 1.52223 0
M  V30 6945 C 657.186 -1.52202 1.78526 0
M  V30 6946 C 658.202 -1.60546 0.670892 0
M  V30 6947 O 659.378 -1.77242 0.956404 0
M  V30 6948 C 656.443 -2.87928 1.93128 0
M  V30 6949 C 655.504 -2.89463 3.17033 0
M  V30 6950 C 654.737 -4.18715 3.30929 0
M  V30 6951 O 654.96 -5.12662 2.50067 0
M  V30 6952 O 653.894 -4.27125 4.24084 0
M  V30 6953 H 657.72 -1.32911 2.73072 0
M  V30 6954 H 655.305 -0.594112 1.37079 0
M  V30 6955 H 657.187 -3.68426 2.04549 0
M  V30 6956 H 655.862 -3.07285 1.01772 0
M  V30 6957 H 654.769 -2.07815 3.11069 0
M  V30 6958 H 656.102 -2.75055 4.08174 0
M  V30 6959 N 657.755 -1.42862 -0.66545 0
M  V30 6960 C 659.171 -1.25993 -0.979687 0
M  V30 6961 C 659.371 -0.170831 -2.00775 0
M  V30 6962 O 658.427 0.454827 -2.4837 0
M  V30 6963 C 659.74 -2.62005 -1.47559 0
M  V30 6964 C 661.288 -2.69437 -1.59288 0
M  V30 6965 C 661.763 -4.05838 -2.12272 0
M  V30 6966 N 663.254 -4.0784 -2.19592 0
M  V30 6967 C 663.989 -5.10205 -2.61684 0
M  V30 6968 N 663.485 -6.22949 -3.03161 0
M  V30 6969 N 665.278 -4.9756 -2.61516 0
M  V30 6970 H 657.429 -2.12395 0.0150493 0
M  V30 6971 H 659.692 -0.946355 -0.0558187 0
M  V30 6972 H 659.398 -3.42605 -0.794654 0
M  V30 6973 H 659.272 -2.86566 -2.45275 0
M  V30 6974 H 661.659 -1.89178 -2.26486 0
M  V30 6975 H 661.74 -2.48655 -0.600374 0
M  V30 6976 H 661.384 -4.86559 -1.4568 0
M  V30 6977 H 661.314 -4.23977 -3.12331 0
M  V30 6978 H 663.805 -3.26452 -1.90361 0
M  V30 6979 H 664.118 -6.96899 -3.33993 0
M  V30 6980 H 662.463 -6.2644 -3.00995 0
M  V30 6981 H 665.654 -4.08551 -2.28481 0
M  V30 6982 H 665.827 -5.77468 -2.93999 0
M  V30 6983 N 659.233 0.902656 -1.29189 0
M  V30 6984 C 660.166 2.00816 -1.0839 0
M  V30 6985 C 661.144 1.626 0.00335266 0
M  V30 6986 O 662.328 1.87928 -0.146765 0
M  V30 6987 C 659.455 3.32415 -0.649435 0
M  V30 6988 C 658.501 3.89617 -1.73496 0
M  V30 6989 S 659.334 4.19091 -3.33351 0
M  V30 6990 C 660.49 5.53736 -2.91766 0
M  V30 6991 H 660.723 2.18151 -2.01984 0
M  V30 6992 H 658.256 1.0489 -1.13303 0
M  V30 6993 H 660.214 4.08492 -0.405479 0
M  V30 6994 H 658.875 3.12964 0.266857 0
M  V30 6995 H 658.068 4.84658 -1.38284 0
M  V30 6996 H 657.67 3.20217 -1.93229 0
M  V30 6997 H 659.962 6.34085 -2.38627 0
M  V30 6998 H 660.905 5.93871 -3.85647 0
M  V30 6999 H 661.313 5.15453 -2.30149 0
M  V30 7000 N 660.711 1.11618 1.11262 0
M  V30 7001 C 661.936 0.889013 1.8738 0
M  V30 7002 C 662.361 -0.555884 1.79698 0
M  V30 7003 O 661.719 -1.39272 1.16073 0
M  V30 7004 C 661.767 1.35759 3.34069 0
M  V30 7005 O 660.871 0.530499 4.08974 0
M  V30 7006 H 660.212 0.320082 0.581759 0
M  V30 7007 H 662.742 1.48611 1.40627 0
M  V30 7008 H 662.752 1.35291 3.84916 0
M  V30 7009 H 661.427 2.40973 3.38976 0
M  V30 7010 H 660.004 0.601439 3.68018 0
M  V30 7011 N 662.189 -1.289 0.906776 0
M  V30 7012 C 663.414 -1.99939 0.551303 0
M  V30 7013 C 663.839 -1.67366 -0.858496 0
M  V30 7014 O 663.197 -0.902176 -1.57259 0
M  V30 7015 C 663.245 -3.52523 0.758937 0
M  V30 7016 O 662.349 -4.11983 -0.185308 0
M  V30 7017 H 661.69 -0.628376 0.214568 0
M  V30 7018 H 664.22 -1.64225 1.2203 0
M  V30 7019 H 664.23 -4.02522 0.666329 0
M  V30 7020 H 662.905 -3.75566 1.78671 0
M  V30 7021 H 661.482 -3.72873 -0.0445577 0
M  V30 7022 N 663.667 -0.670007 -1.42649 0
M  V30 7023 C 664.617 0.0339546 -2.27975 0
M  V30 7024 C 665.601 0.778295 -1.40824 0
M  V30 7025 O 666.793 0.657997 -1.64315 0
M  V30 7026 C 663.922 0.987899 -3.28779 0
M  V30 7027 C 663.008 0.241153 -4.23414 0
M  V30 7028 N 663.399 -0.751392 -5.00188 0
M  V30 7029 C 661.697 0.480269 -4.43407 0
M  V30 7030 C 662.398 -1.19615 -5.69269 0
M  V30 7031 N 661.374 -0.527045 -5.41039 0
M  V30 7032 H 665.176 -0.727425 -2.84756 0
M  V30 7033 H 662.69 -0.498673 -1.54554 0
M  V30 7034 H 664.687 1.50716 -3.88703 0
M  V30 7035 H 663.347 1.74916 -2.73559 0
M  V30 7036 H 664.358 -1.13075 -5.05405 0
M  V30 7037 H 661.035 1.2214 -3.99234 0
M  V30 7038 H 662.425 -2.01836 -6.40868 0
M  V30 7039 N 665.145 1.52092 -0.413018 0
M  V30 7040 C 666.422 1.94356 0.22024 0
M  V30 7041 C 666.802 1.35017 1.62277 0
M  V30 7042 O 666.15 0.527511 2.22328 0
M  V30 7043 C 666.36 3.48289 0.222638 0
M  V30 7044 C 667.708 4.22313 0.440098 0
M  V30 7045 O 668.732 3.54919 0.301826 0
M  V30 7046 O 667.591 5.41829 0.712984 0
M  V30 7047 H 664.685 0.814536 0.14304 0
M  V30 7048 H 667.231 1.63083 -0.469242 0
M  V30 7049 H 666.003 3.83872 -0.758836 0
M  V30 7050 H 665.626 3.85934 0.956057 0
M  V30 7051 N 666.623 0.143563 1.56945 0
M  V30 7052 C 667.871 -0.507402 1.95627 0
M  V30 7053 C 668.192 -1.65626 1.02922 0
M  V30 7054 O 667.462 -1.95693 0.0901136 0
M  V30 7055 H 666.042 -0.190436 0.722318 0
M  V30 7056 H 668.704 0.218257 1.93674 0
M  V30 7057 H 667.8 -0.885816 2.99265 0
M  V30 7058 N 668.101 -1.57061 -0.130224 0
M  V30 7059 C 669.048 -1.99517 -1.16024 0
M  V30 7060 C 670.018 -0.865452 -1.41771 0
M  V30 7061 O 671.203 -1.12882 -1.53826 0
M  V30 7062 C 668.343 -2.3951 -2.48453 0
M  V30 7063 C 667.456 -3.65848 -2.29737 0
M  V30 7064 C 666.591 -3.9487 -3.55318 0
M  V30 7065 C 665.63 -5.14426 -3.31711 0
M  V30 7066 N 664.767 -5.39375 -4.49466 0
M  V30 7067 H 669.607 -2.87305 -0.791194 0
M  V30 7068 H 667.144 -1.42129 -0.379195 0
M  V30 7069 H 669.102 -2.60731 -3.25692 0
M  V30 7070 H 667.732 -1.54779 -2.83272 0
M  V30 7071 H 666.784 -3.52307 -1.4347 0
M  V30 7072 H 668.096 -4.53241 -2.08263 0
M  V30 7073 H 667.25 -4.16679 -4.4098 0
M  V30 7074 H 665.989 -3.05931 -3.79813 0
M  V30 7075 H 664.994 -4.92473 -2.44439 0
M  V30 7076 H 666.219 -6.04933 -3.08598 0
M  V30 7077 H 664.165 -4.53391 -4.74102 0
M  V30 7078 H 664.082 -6.21069 -4.31055 0
M  V30 7079 H 665.35 -5.65694 -5.36293 0
M  V30 7080 N 669.579 0.400081 -1.52437 0
M  V30 7081 C 670.819 1.15526 -1.68622 0
M  V30 7082 C 671.183 1.87533 -0.411744 0
M  V30 7083 O 672.384 2.6501 -0.449804 0
M  V30 7084 C 670.655 2.11618 -2.88015 0
M  V30 7085 S 672.214 2.95121 -3.24729 0
M  V30 7086 H 669.032 0.39123 -0.593683 0
M  V30 7087 H 671.634 0.441255 -1.90455 0
M  V30 7088 H 670.338 1.5742 -3.79008 0
M  V30 7089 H 669.869 2.87544 -2.68481 0
M  V30 7090 H 671.884 4.13653 -2.74055 0
M  V30 7091 N 671.057 1.43213 0.657864 0
M  V30 7092 C 672.468 1.39669 1.23893 0
M  V30 7093 C 672.819 0.0984217 1.95953 0
M  V30 7094 O 671.944 -0.8023 2.00978 0
M  V30 7095 C 672.539 2.53004 2.25332 0
M  V30 7096 C 671.098 2.5274 2.78926 0
M  V30 7097 C 670.245 2.30941 1.53497 0
M  V30 7098 H 673.196 1.52181 0.450172 0
M  V30 7099 H 673.217 2.24226 3.07413 0
M  V30 7100 H 672.729 3.4748 1.72856 0
M  V30 7101 H 670.83 1.6213 3.35477 0
M  V30 7102 H 670.943 3.50352 3.26787 0
M  V30 7103 H 669.307 1.7952 1.80678 0
M  V30 7104 H 670.09 3.27496 1.02963 0
M  V30 7105 N 672.536 -0.895792 1.29666 0
M  V30 7106 C 673.783 -1.64664 1.17864 0
M  V30 7107 C 674.111 -1.92631 -0.26902 0
M  V30 7108 O 673.366 -1.53787 -1.21029 0
M  V30 7109 C 673.665 -3.00075 1.94139 0
M  V30 7110 C 673.331 -2.91702 3.43833 0
M  V30 7111 C 671.993 -2.89126 3.84656 0
M  V30 7112 C 674.345 -2.80622 4.39205 0
M  V30 7113 C 671.673 -2.73293 5.1916 0
M  V30 7114 C 674.025 -2.66329 5.73805 0
M  V30 7115 C 672.689 -2.62121 6.1388 0
M  V30 7116 H 671.959 -0.602549 0.431295 0
M  V30 7117 H 674.606 -1.04234 1.60648 0
M  V30 7118 H 672.911 -3.64394 1.43958 0
M  V30 7119 H 674.608 -3.57111 1.82408 0
M  V30 7120 H 671.198 -2.94511 3.11386 0
M  V30 7121 H 675.382 -2.81686 4.08615 0
M  V30 7122 H 670.638 -2.68443 5.49316 0
M  V30 7123 H 674.812 -2.56727 6.47352 0
M  V30 7124 H 672.439 -2.49611 7.18052 0
M  V30 7125 N 674.014 -1.12206 -1.10668 0
M  V30 7126 C 674.946 -0.74552 -2.16736 0
M  V30 7127 C 675.959 0.226696 -1.61214 0
M  V30 7128 O 677.148 0.0083936 -1.78498 0
M  V30 7129 C 674.248 -0.0823368 -3.388 0
M  V30 7130 C 673.421 -1.08341 -4.2377 0
M  V30 7131 C 672.48 -0.448292 -5.24287 0
M  V30 7132 O 671.506 -1.10458 -5.58379 0
M  V30 7133 N 672.708 0.785336 -5.75163 0
M  V30 7134 H 675.473 -1.65818 -2.49649 0
M  V30 7135 H 673.034 -1.01335 -1.26265 0
M  V30 7136 H 675.026 0.354476 -4.03145 0
M  V30 7137 H 673.596 0.733041 -3.03884 0
M  V30 7138 H 672.816 -1.69792 -3.55759 0
M  V30 7139 H 674.104 -1.76042 -4.77375 0
M  V30 7140 H 673.502 1.33755 -5.4966 0
M  V30 7141 H 672.059 1.16501 -6.41304 0
M  V30 7142 N 675.492 1.28418 -0.913599 0
M  V30 7143 C 676.717 1.99643 -0.561899 0
M  V30 7144 C 677.142 1.67819 0.849608 0
M  V30 7145 O 676.5 0.910503 1.56779 0
M  V30 7146 C 676.548 3.52116 -0.777622 0
M  V30 7147 O 675.652 4.12076 0.163457 0
M  V30 7148 H 674.993 0.627229 -0.217898 0
M  V30 7149 H 677.523 1.63575 -1.229 0
M  V30 7150 H 677.533 4.02163 -0.687666 0
M  V30 7151 H 676.208 3.74613 -1.8066 0
M  V30 7152 H 674.785 3.72892 0.0247827 0
M  V30 7153 N 676.97 0.677563 1.42291 0
M  V30 7154 C 677.933 0.0101085 2.29198 0
M  V30 7155 C 678.933 -0.726219 1.43467 0
M  V30 7156 O 680.123 -0.563807 1.64824 0
M  V30 7157 C 677.255 -0.996316 3.26016 0
M  V30 7158 H 678.448 0.775071 2.89711 0
M  V30 7159 H 676.001 0.440065 1.49977 0
M  V30 7160 H 676.736 -1.78967 2.70446 0
M  V30 7161 H 676.521 -0.471687 3.89253 0
M  V30 7162 H 678.011 -1.46167 3.91184 0
M  V30 7163 N 678.448 -1.51871 0.421078 0
M  V30 7164 C 679.411 -2.25914 -0.386712 0
M  V30 7165 C 680.411 -1.28733 -0.963555 0
M  V30 7166 O 681.601 -1.52579 -0.840556 0
M  V30 7167 C 678.733 -3.03853 -1.54551 0
M  V30 7168 H 679.926 -2.98754 0.261978 0
M  V30 7169 H 677.479 -1.5533 0.173862 0
M  V30 7170 H 678.214 -2.35392 -2.23072 0
M  V30 7171 H 677.999 -3.75215 -1.13824 0
M  V30 7172 H 679.489 -3.59984 -2.11663 0
M  V30 7173 N 679.926 -0.151884 -1.56866 0
M  V30 7174 C 681.173 0.498004 -1.96281 0
M  V30 7175 C 681.501 1.64551 -1.03698 0
M  V30 7176 O 680.756 1.95585 -0.0671497 0
M  V30 7177 C 681.055 1.04074 -3.41911 0
M  V30 7178 C 680.721 0.0111688 -4.50899 0
M  V30 7179 C 679.383 -0.271844 -4.80432 0
M  V30 7180 C 681.735 -0.68869 -5.1663 0
M  V30 7181 C 679.063 -1.26044 -5.73001 0
M  V30 7182 C 681.415 -1.66613 -6.10264 0
M  V30 7183 C 680.079 -1.9568 -6.38174 0
M  V30 7184 H 679.349 0.182233 -0.718242 0
M  V30 7185 H 681.996 -0.239746 -1.89993 0
M  V30 7186 H 680.301 1.85592 -3.45055 0
M  V30 7187 H 681.998 1.55224 -3.69738 0
M  V30 7188 H 678.588 0.241932 -4.27917 0
M  V30 7189 H 682.772 -0.48324 -4.93942 0
M  V30 7190 H 678.028 -1.49202 -5.92915 0
M  V30 7191 H 682.202 -2.21392 -6.60272 0
M  V30 7192 H 679.829 -2.72434 -7.09707 0
M  V30 7193 N 681.404 1.57128 0.121893 0
M  V30 7194 C 682.632 1.88883 0.844451 0
M  V30 7195 C 683.047 0.742824 1.73573 0
M  V30 7196 O 682.404 -0.286475 1.80238 0
M  V30 7197 C 682.455 3.20076 1.68029 0
M  V30 7198 O 682.176 4.30264 0.824898 0
M  V30 7199 C 683.677 3.65515 2.50826 0
M  V30 7200 H 680.897 0.62549 0.242907 0
M  V30 7201 H 683.441 2.04219 0.107151 0
M  V30 7202 H 681.596 3.06418 2.37038 0
M  V30 7203 H 682.01 5.05439 1.40113 0
M  V30 7204 H 683.484 4.60081 3.05008 0
M  V30 7205 H 683.961 2.92029 3.28048 0
M  V30 7206 H 684.567 3.81952 1.87064 0
M  V30 7207 N 682.882 -0.391992 1.52647 0
M  V30 7208 C 684.107 -1.16312 1.71716 0
M  V30 7209 C 684.532 -1.83042 0.433279 0
M  V30 7210 O 683.89 -1.70705 -0.610707 0
M  V30 7211 C 683.938 -2.18908 2.86551 0
M  V30 7212 O 683.042 -3.2543 2.53316 0
M  V30 7213 H 682.383 -0.338743 0.571095 0
M  V30 7214 H 684.913 -0.457202 1.99426 0
M  V30 7215 H 684.923 -2.62954 3.1196 0
M  V30 7216 H 683.598 -1.69726 3.79692 0
M  V30 7217 H 682.175 -2.86543 2.38637 0
M  V30 7218 N 684.36 -1.4356 -0.65026 0
M  V30 7219 C 685.776 -1.27025 -0.966269 0
M  V30 7220 C 685.976 -0.192117 -2.00582 0
M  V30 7221 O 685.032 0.428459 -2.48838 0
M  V30 7222 C 686.345 -2.63556 -1.44772 0
M  V30 7223 C 687.893 -2.71111 -1.56421 0
M  V30 7224 C 688.368 -4.08067 -2.07956 0
M  V30 7225 N 689.859 -4.10146 -2.15254 0
M  V30 7226 C 690.594 -5.12952 -2.56258 0
M  V30 7227 N 690.09 -6.26129 -2.96537 0
M  V30 7228 N 691.883 -5.00306 -2.56224 0
M  V30 7229 H 684.034 -2.12367 0.0375758 0
M  V30 7230 H 686.297 -0.946894 -0.0457782 0
M  V30 7231 H 686.003 -3.43429 -0.758271 0
M  V30 7232 H 685.877 -2.89152 -2.42221 0
M  V30 7233 H 688.264 -1.91569 -2.24467 0
M  V30 7234 H 688.345 -2.49277 -0.573967 0
M  V30 7235 H 687.989 -4.88077 -1.40511 0
M  V30 7236 H 687.919 -4.27266 -3.07817 0
M  V30 7237 H 690.41 -3.28453 -1.86887 0
M  V30 7238 H 690.723 -7.00403 -3.26582 0
M  V30 7239 H 689.068 -6.29597 -2.94334 0
M  V30 7240 H 692.259 -4.10952 -2.24135 0
M  V30 7241 H 692.432 -5.80553 -2.87857 0
M  V30 7242 N 685.838 0.888903 -1.30139 0
M  V30 7243 C 687.115 1.62145 -1.094 0
M  V30 7244 C 687.495 2.08041 0.358091 0
M  V30 7245 O 686.843 1.84438 1.34888 0
M  V30 7246 C 687.053 2.794 -2.09133 0
M  V30 7247 C 688.401 3.49826 -2.40638 0
M  V30 7248 O 689.425 2.89583 -2.07412 0
M  V30 7249 O 688.284 4.58457 -2.97455 0
M  V30 7250 H 685.378 0.712475 -0.41989 0
M  V30 7251 H 687.924 0.936023 -1.41551 0
M  V30 7252 H 686.696 2.42762 -3.06891 0
M  V30 7253 H 686.319 3.55643 -1.77776 0
M  V30 7254 N 687.317 1.12792 1.10072 0
M  V30 7255 C 688.249 0.757003 2.16338 0
M  V30 7256 C 689.262 -0.218144 1.61332 0
M  V30 7257 O 690.451 0.0010727 1.785 0
M  V30 7258 C 687.551 0.100303 3.38752 0
M  V30 7259 C 686.724 1.10586 4.2319 0
M  V30 7260 C 685.783 0.47609 5.24042 0
M  V30 7261 O 684.809 1.13418 5.57786 0
M  V30 7262 N 686.011 -0.754823 5.75572 0
M  V30 7263 H 688.776 1.6714 2.48766 0
M  V30 7264 H 686.337 1.02003 1.25726 0
M  V30 7265 H 688.329 -0.333092 4.03327 0
M  V30 7266 H 686.899 -0.716915 3.04268 0
M  V30 7267 H 686.119 1.71677 3.54853 0
M  V30 7268 H 687.407 1.78571 4.76435 0
M  V30 7269 H 686.805 -1.30838 5.50362 0
M  V30 7270 H 685.362 -1.13098 6.41913 0
M  V30 7271 N 688.795 -1.27931 0.920396 0
M  V30 7272 C 690.02 -1.99343 0.572478 0
M  V30 7273 C 690.445 -1.68267 -0.840696 0
M  V30 7274 O 689.803 -0.918805 -1.56294 0
M  V30 7275 C 689.851 -3.51698 0.796284 0
M  V30 7276 O 688.955 -4.12157 -0.141602 0
M  V30 7277 H 688.296 -0.626065 0.221221 0
M  V30 7278 H 690.826 -1.62921 1.23765 0
M  V30 7279 H 690.836 -4.01793 0.708984 0
M  V30 7280 H 689.511 -3.73649 1.82644 0
M  V30 7281 H 688.088 -3.729 -0.005007 0
M  V30 7282 N 690.273 -0.685099 -1.4193 0
M  V30 7283 C 691.221 -0.00165985 -2.326 0
M  V30 7284 C 692.215 0.779678 -1.50391 0
M  V30 7285 O 693.421 0.68648 -1.66395 0
M  V30 7286 H 689.796 0.0182616 -0.751778 0
M  V30 7287 H 691.767 -0.783592 -2.87928 0
M  V30 7288 C 690.516 0.928385 -3.35077 0
M  V30 7289 H 689.839 0.336578 -3.98381 0
M  V30 7290 H 691.279 1.37509 -4.01083 0
M  V30 7291 C 689.738 2.03964 -2.68142 0
M  V30 7292 O 690.268 3.12727 -2.5212 0
M  V30 7293 N 688.474 1.81433 -2.27003 0
M  V30 7294 H 688.021 0.929807 -2.40234 0
M  V30 7295 H 687.979 2.55973 -1.82552 0
M  V30 7296 N 691.751 1.51645 -0.429126 0
M  V30 7297 C 692.976 2.06917 0.141399 0
M  V30 7298 C 693.401 1.29527 1.36398 0
M  V30 7299 O 692.759 0.33094 1.78254 0
M  V30 7300 C 692.807 3.57776 0.4504 0
M  V30 7301 O 691.911 3.82639 1.53821 0
M  V30 7302 H 691.252 0.663978 0.0054647 0
M  V30 7303 H 693.782 1.95355 -0.608093 0
M  V30 7304 H 693.792 4.01894 0.703249 0
M  V30 7305 H 692.467 4.13532 -0.443213 0
M  V30 7306 H 691.044 3.5039 1.27597 0
M  V30 7307 N 693.229 0.160201 1.56784 0
M  V30 7308 C 694.64 -0.358417 1.83227 0
M  V30 7309 C 694.991 -1.63831 1.07952 0
M  V30 7310 O 694.116 -2.13885 0.328995 0
M  V30 7311 C 694.711 -0.657058 3.32368 0
M  V30 7312 C 693.27 -1.12015 3.59346 0
M  V30 7313 C 692.417 -0.15015 2.76893 0
M  V30 7314 H 695.368 0.384669 1.53967 0
M  V30 7315 H 695.389 -1.51033 3.49241 0
M  V30 7316 H 694.901 0.274647 3.87127 0
M  V30 7317 H 693.002 -2.06734 3.09987 0
M  V30 7318 H 693.115 -1.037 4.67743 0
M  V30 7319 H 691.479 -0.645361 2.46388 0
M  V30 7320 H 692.262 0.775379 3.34429 0
M  V30 7321 N 694.707 -1.5719 -0.113559 0
M  V30 7322 C 695.955 -1.84772 -0.818761 0
M  V30 7323 C 696.276 -0.746196 -1.80158 0
M  V30 7324 O 695.546 0.229305 -1.94553 0
M  V30 7325 H 694.126 -0.681737 -0.305359 0
M  V30 7326 H 696.788 -1.94645 -0.0995845 0
M  V30 7327 H 695.884 -2.80878 -1.36067 0
M  V30 7328 N 696.185 0.383891 -1.52853 0
M  V30 7329 C 697.434 1.12563 -1.67369 0
M  V30 7330 C 697.747 1.90982 -0.422533 0
M  V30 7331 O 698.953 2.6778 -0.447914 0
M  V30 7332 C 697.409 2.05011 -2.95801 0
M  V30 7333 C 697.017 1.31991 -4.28115 0
M  V30 7334 C 698.761 2.79289 -3.19684 0
M  V30 7335 C 696.668 2.23235 -5.4765 0
M  V30 7336 H 695.598 0.42391 -0.623552 0
M  V30 7337 H 698.249 0.388016 -1.79351 0
M  V30 7338 H 696.631 2.82429 -2.77578 0
M  V30 7339 H 697.805 0.597633 -4.56908 0
M  V30 7340 H 696.12 0.696517 -4.10533 0
M  V30 7341 H 698.717 3.47749 -4.06171 0
M  V30 7342 H 699.06 3.43649 -2.3497 0
M  V30 7343 H 699.593 2.08962 -3.38496 0
M  V30 7344 H 696.332 1.63482 -6.34786 0
M  V30 7345 H 695.852 2.93364 -5.23161 0
M  V30 7346 H 697.531 2.83205 -5.81725 0
M  V30 7347 N 697.663 1.43903 0.642637 0
M  V30 7348 C 699.074 1.40975 1.22404 0
M  V30 7349 C 699.425 0.1192 1.95838 0
M  V30 7350 O 698.55 -0.780939 2.01818 0
M  V30 7351 C 699.145 2.5538 2.22636 0
M  V30 7352 C 697.704 2.55684 2.76229 0
M  V30 7353 C 696.851 2.32556 1.51039 0
M  V30 7354 H 699.802 1.5265 0.434006 0
M  V30 7355 H 699.823 2.27474 3.05017 0
M  V30 7356 H 699.335 3.49294 1.69161 0
M  V30 7357 H 697.436 1.65679 3.33738 0
M  V30 7358 H 697.549 3.53799 3.23053 0
M  V30 7359 H 695.913 1.81427 1.78764 0
M  V30 7360 H 696.696 3.28569 0.99484 0
M  V30 7361 N 699.141 -0.881989 1.30609 0
M  V30 7362 C 700.089 -2.00942 1.17155 0
M  V30 7363 C 701.083 -1.69198 0.0827154 0
M  V30 7364 O 702.289 -1.78342 0.243775 0
M  V30 7365 H 698.664 -0.658913 0.362406 0
M  V30 7366 H 700.635 -2.09423 2.12567 0
M  V30 7367 C 699.384 -3.36294 0.883273 0
M  V30 7368 H 698.707 -3.61233 1.7132 0
M  V30 7369 H 700.147 -4.15812 0.829255 0
M  V30 7370 C 698.606 -3.34348 -0.413851 0
M  V30 7371 O 699.136 -3.75216 -1.43444 0
M  V30 7372 N 697.342 -2.87459 -0.426082 0
M  V30 7373 H 696.889 -2.54397 0.40493 0
M  V30 7374 H 696.847 -2.8654 -1.29391 0
M  V30 7375 N 700.619 -1.13374 -1.09472 0
M  V30 7376 C 702.03 -0.90801 -1.63132 0
M  V30 7377 C 702.381 0.555576 -1.8817 0
M  V30 7378 O 701.506 1.42218 -1.63104 0
M  V30 7379 C 702.101 -1.64182 -2.96361 0
M  V30 7380 C 700.66 -1.46197 -3.46848 0
M  V30 7381 C 699.807 -1.67134 -2.21273 0
M  V30 7382 H 702.758 -1.2871 -0.928411 0
M  V30 7383 H 702.779 -1.09863 -3.64294 0
M  V30 7384 H 702.291 -2.707 -2.78106 0
M  V30 7385 H 700.392 -0.419788 -3.70228 0
M  V30 7386 H 700.505 -2.22472 -4.24315 0
M  V30 7387 H 698.869 -1.09616 -2.29905 0
M  V30 7388 H 699.652 -2.74971 -2.05538 0
M  V30 7389 N 702.098 1.27442 -0.927168 0
M  V30 7390 C 703.514 1.46754 -0.627329 0
M  V30 7391 C 703.714 1.83902 0.823549 0
M  V30 7392 O 702.77 1.95215 1.60148 0
M  V30 7393 C 704.083 2.56045 -1.57674 0
M  V30 7394 C 705.631 2.69906 -1.58491 0
M  V30 7395 C 706.106 3.82355 -2.52128 0
M  V30 7396 N 707.597 3.89728 -2.50332 0
M  V30 7397 C 708.332 4.76155 -3.19475 0
M  V30 7398 N 707.828 5.67073 -3.97995 0
M  V30 7399 N 709.621 4.6988 -3.08496 0
M  V30 7400 H 701.772 1.01613 -1.86517 0
M  V30 7401 H 704.035 0.507443 -0.800753 0
M  V30 7402 H 703.741 2.35542 -2.61176 0
M  V30 7403 H 703.615 3.53423 -1.31804 0
M  V30 7404 H 706.002 2.89792 -0.557208 0
M  V30 7405 H 706.083 1.73018 -1.8841 0
M  V30 7406 H 705.727 3.63224 -3.55008 0
M  V30 7407 H 705.657 4.7867 -2.19505 0
M  V30 7408 H 708.148 3.24717 -1.93306 0
M  V30 7409 H 708.461 6.2988 -4.4774 0
M  V30 7410 H 706.806 5.6687 -4.02098 0
M  V30 7411 H 709.997 3.97848 -2.46646 0
M  V30 7412 H 710.17 5.37017 -3.62652 0
M  V30 7413 N 703.576 0.692616 1.41565 0
M  V30 7414 C 704.987 0.297478 1.84315 0
M  V30 7415 C 705.338 -1.16379 1.57957 0
M  V30 7416 O 704.463 -1.89303 1.0485 0
M  V30 7417 C 705.058 0.533136 3.34579 0
M  V30 7418 C 703.617 0.191944 3.7591 0
M  V30 7419 C 702.764 0.816873 2.64995 0
M  V30 7420 H 705.715 0.893488 1.31158 0
M  V30 7421 H 705.736 -0.209105 3.79925 0
M  V30 7422 H 705.248 1.59674 3.53731 0
M  V30 7423 H 703.349 -0.867512 3.6236 0
M  V30 7424 H 703.462 0.644902 4.7474 0
M  V30 7425 H 701.826 0.246715 2.53502 0
M  V30 7426 H 702.609 1.88429 2.86966 0
M  V30 7427 N 705.054 -1.51416 0.437162 0
M  V30 7428 C 706.279 -2.0699 -0.130424 0
M  V30 7429 C 706.704 -1.30249 -1.35709 0
M  V30 7430 O 706.062 -0.340388 -1.78076 0
M  V30 7431 C 706.11 -3.5801 -0.43142 0
M  V30 7432 O 705.214 -3.8345 -1.5179 0
M  V30 7433 H 704.555 -0.663997 -0.00194339 0
M  V30 7434 H 707.085 -1.95029 0.618445 0
M  V30 7435 H 707.095 -4.02261 -0.681926 0
M  V30 7436 H 705.77 -4.13291 0.465137 0
M  V30 7437 H 704.347 -3.51062 -1.25737 0
M  V30 7438 N 706.532 -0.168513 -1.56696 0
M  V30 7439 C 707.757 0.486688 -2.01609 0
M  V30 7440 C 708.182 1.56203 -1.04796 0
M  V30 7441 O 707.54 1.8128 -0.0270596 0
M  V30 7442 C 707.588 1.04451 -3.45141 0
M  V30 7443 O 706.692 2.15862 -3.51393 0
M  V30 7444 H 706.033 0.116831 -0.653641 0
M  V30 7445 H 708.563 -0.271579 -2.0279 0
M  V30 7446 H 708.573 1.36782 -3.84389 0
M  V30 7447 H 707.248 0.257155 -4.15104 0
M  V30 7448 H 705.825 1.84597 -3.24004 0
M  V30 7449 N 708.01 1.57248 0.105221 0
M  V30 7450 C 709.421 1.74612 0.660865 0
M  V30 7451 C 709.772 0.789231 1.79626 0
M  V30 7452 O 708.897 -0.0346611 2.16372 0
M  V30 7453 C 709.492 3.16624 1.20559 0
M  V30 7454 C 708.051 3.35447 1.7074 0
M  V30 7455 C 707.198 2.70445 0.612764 0
M  V30 7456 H 710.149 1.5824 -0.12079 0
M  V30 7457 H 710.17 3.18937 2.07508 0
M  V30 7458 H 709.682 3.86245 0.379012 0
M  V30 7459 H 707.783 2.7089 2.5583 0
M  V30 7460 H 707.896 4.43702 1.80736 0
M  V30 7461 H 706.26 2.32061 1.04975 0
M  V30 7462 H 707.043 3.42699 -0.203066 0
M  V30 7463 N 709.488 -0.375779 1.53054 0
M  V30 7464 C 710.716 -1.14036 1.72637 0
M  V30 7465 C 711.131 -1.83342 0.450687 0
M  V30 7466 O 710.488 -1.7318 -0.575749 0
M  V30 7467 C 710.539 -2.17841 2.88492 0
M  V30 7468 O 710.26 -1.51358 4.11123 0
M  V30 7469 C 711.761 -3.06924 3.19863 0
M  V30 7470 H 708.981 -0.341386 0.577665 0
M  V30 7471 H 711.525 -0.437809 1.99759 0
M  V30 7472 H 709.68 -2.8371 2.63794 0
M  V30 7473 H 710.094 -2.20439 4.75928 0
M  V30 7474 H 711.568 -3.75763 4.04359 0
M  V30 7475 H 712.045 -3.71169 2.34798 0
M  V30 7476 H 712.651 -2.46684 3.46449 0
M  V30 7477 N 710.966 -1.44241 -0.634997 0
M  V30 7478 C 712.377 -1.41622 -1.21655 0
M  V30 7479 C 712.728 -0.129584 -1.95772 0
M  V30 7480 O 711.853 0.770225 -2.02229 0
M  V30 7481 C 712.448 -2.56557 -2.21278 0
M  V30 7482 C 711.007 -2.57145 -2.7487 0
M  V30 7483 C 710.154 -2.33354 -1.49804 0
M  V30 7484 H 713.105 -1.52878 -0.425905 0
M  V30 7485 H 713.126 -2.29089 -3.03807 0
M  V30 7486 H 712.638 -3.50186 -1.67306 0
M  V30 7487 H 710.739 -1.67447 -3.32855 0
M  V30 7488 H 710.852 -3.55507 -3.21172 0
M  V30 7489 H 709.216 -1.82372 -1.77799 0
M  V30 7490 H 709.999 -3.29092 -0.977402 0
M  V30 7491 N 712.444 0.87505 -1.31075 0
M  V30 7492 C 713.374 1.99775 -1.20881 0
M  V30 7493 C 714.355 1.69822 -0.0971612 0
M  V30 7494 O 715.54 1.92158 -0.280895 0
M  V30 7495 C 712.67 3.35163 -0.910118 0
M  V30 7496 C 711.624 3.79406 -1.98078 0
M  V30 7497 C 710.95 5.12197 -1.53488 0
M  V30 7498 C 712.25 3.97061 -3.39323 0
M  V30 7499 H 713.944 2.08562 -2.14808 0
M  V30 7500 H 711.49 1.00207 -1.03415 0
M  V30 7501 H 713.443 4.13237 -0.825423 0
M  V30 7502 H 712.167 3.26536 0.064822 0
M  V30 7503 H 710.826 3.03568 -2.05528 0
M  V30 7504 H 710.474 5.00007 -0.547941 0
M  V30 7505 H 710.174 5.4277 -2.2511 0
M  V30 7506 H 711.698 5.92785 -1.46417 0
M  V30 7507 H 713.112 4.65545 -3.34576 0
M  V30 7508 H 711.509 4.39025 -4.09118 0
M  V30 7509 H 712.579 3.00601 -3.80483 0
M  V30 7510 N 713.922 1.13953 1.08869 0
M  V30 7511 C 714.87 0.817664 2.17754 0
M  V30 7512 C 715.864 -0.202444 1.68186 0
M  V30 7513 O 717.07 -0.0590159 1.79903 0
M  V30 7514 H 713.445 0.246671 0.710392 0
M  V30 7515 H 715.416 1.74401 2.4213 0
M  V30 7516 C 714.165 0.3063 3.46348 0
M  V30 7517 H 713.488 1.08259 3.84864 0
M  V30 7518 H 714.928 0.119584 4.23831 0
M  V30 7519 C 713.387 -0.969158 3.22659 0
M  V30 7520 O 713.917 -2.04386 3.45817 0
M  V30 7521 N 712.123 -0.902516 2.7623 0
M  V30 7522 H 711.67 -0.027801 2.57585 0
M  V30 7523 H 711.628 -1.75649 2.60758 0
M  V30 7524 N 715.4 -1.26948 0.933913 0
M  V30 7525 C 716.31 -2.30366 0.443671 0
M  V30 7526 C 717.326 -1.67284 -0.478745 0
M  V30 7527 O 718.502 -1.98156 -0.360043 0
M  V30 7528 C 715.567 -3.45485 -0.289974 0
M  V30 7529 C 714.628 -4.24069 0.668114 0
M  V30 7530 C 713.861 -5.33691 -0.0306138 0
M  V30 7531 O 714.084 -5.5656 -1.24888 0
M  V30 7532 O 713.018 -5.98441 0.644384 0
M  V30 7533 H 716.844 -2.74349 1.30254 0
M  V30 7534 H 714.429 -1.32012 0.699506 0
M  V30 7535 H 716.311 -4.15486 -0.70353 0
M  V30 7536 H 714.986 -3.03546 -1.12435 0
M  V30 7537 H 713.893 -3.56579 1.13147 0
M  V30 7538 H 715.226 -4.69739 1.46989 0
M  V30 7539 N 716.879 -0.700114 -1.41195 0
M  V30 7540 C 718.295 -0.372114 -1.55201 0
M  V30 7541 C 718.495 1.12053 -1.6747 0
M  V30 7542 O 717.551 1.90642 -1.65566 0
M  V30 7543 C 718.864 -1.12462 -2.78878 0
M  V30 7544 C 720.412 -1.10941 -2.92679 0
M  V30 7545 C 720.887 -1.84376 -4.19249 0
M  V30 7546 N 722.378 -1.81368 -4.26216 0
M  V30 7547 C 723.113 -2.35024 -5.23021 0
M  V30 7548 N 722.609 -2.9717 -6.25829 0
M  V30 7549 N 724.402 -2.25254 -5.14992 0
M  V30 7550 H 716.553 -1.66816 -1.31477 0
M  V30 7551 H 718.816 -0.704223 -0.634644 0
M  V30 7552 H 718.522 -2.17937 -2.76037 0
M  V30 7553 H 718.396 -0.706152 -3.70531 0
M  V30 7554 H 720.783 -0.062911 -2.95033 0
M  V30 7555 H 720.864 -1.56698 -2.02187 0
M  V30 7556 H 720.508 -2.89008 -4.17656 0
M  V30 7557 H 720.438 -1.3605 -5.08722 0
M  V30 7558 H 722.929 -1.36062 -3.52556 0
M  V30 7559 H 723.242 -3.35668 -6.96094 0
M  V30 7560 H 721.587 -3.01249 -6.26318 0
M  V30 7561 H 724.778 -1.76372 -4.33602 0
M  V30 7562 H 724.951 -2.67373 -5.90268 0
M  V30 7563 N 718.357 1.51182 -0.445186 0
M  V30 7564 C 719.605 2.01753 0.11841 0
M  V30 7565 C 719.926 1.33087 1.42523 0
M  V30 7566 O 719.196 0.467891 1.9023 0
M  V30 7567 H 717.776 0.745536 0.0467492 0
M  V30 7568 H 720.438 1.85765 -0.589688 0
M  V30 7569 H 719.534 3.10762 0.288665 0
M  V30 7570 N 719.835 0.176821 1.56605 0
M  V30 7571 C 721.251 -0.179278 1.5859 0
M  V30 7572 C 721.451 -1.62433 1.19238 0
M  V30 7573 O 720.507 -2.35665 0.906552 0
M  V30 7574 C 721.82 0.106524 3.00511 0
M  V30 7575 C 723.368 0.0451731 3.12967 0
M  V30 7576 C 723.843 0.304038 4.5699 0
M  V30 7577 N 725.334 0.252008 4.62514 0
M  V30 7578 C 726.069 0.426404 5.71812 0
M  V30 7579 N 725.565 0.660155 6.89648 0
M  V30 7580 N 727.358 0.361926 5.60934 0
M  V30 7581 H 719.509 1.12001 1.8047 0
M  V30 7582 H 721.772 0.445679 0.836704 0
M  V30 7583 H 721.478 1.10778 3.33798 0
M  V30 7584 H 721.352 -0.599337 3.72408 0
M  V30 7585 H 723.739 -0.946662 2.79504 0
M  V30 7586 H 723.82 0.78383 2.43495 0
M  V30 7587 H 723.464 1.29311 4.91163 0
M  V30 7588 H 723.394 -0.455294 5.24628 0
M  V30 7589 H 725.885 0.0772102 3.77821 0
M  V30 7590 H 726.198 0.782529 7.68828 0
M  V30 7591 H 724.543 0.696835 6.91498 0
M  V30 7592 H 727.734 0.17986 4.67754 0
M  V30 7593 H 727.907 0.501263 6.46058 0
M  V30 7594 N 721.313 -1.57302 -0.09688 0
M  V30 7595 C 722.245 -1.98618 -1.14384 0
M  V30 7596 C 723.258 -0.888483 -1.36418 0
M  V30 7597 O 724.447 -1.16661 -1.35101 0
M  V30 7598 C 721.547 -2.28838 -2.49973 0
M  V30 7599 C 720.72 -3.60132 -2.48241 0
M  V30 7600 C 719.779 -3.7831 -3.65743 0
M  V30 7601 O 718.805 -4.50183 -3.48316 0
M  V30 7602 N 720.007 -3.18752 -4.85157 0
M  V30 7603 H 722.772 -2.8904 -0.792202 0
M  V30 7604 H 720.333 -1.59356 -0.285883 0
M  V30 7605 H 722.325 -2.38193 -3.27179 0
M  V30 7606 H 720.895 -1.44431 -2.77233 0
M  V30 7607 H 720.115 -3.61763 -1.56593 0
M  V30 7608 H 721.403 -4.46389 -2.4416 0
M  V30 7609 H 720.801 -2.60368 -5.0222 0
M  V30 7610 H 719.358 -3.33595 -5.59962 0
M  V30 7611 N 722.791 0.367657 -1.53252 0
M  V30 7612 C 724.04 1.10782 -1.68554 0
M  V30 7613 C 724.353 1.90523 -0.442765 0
M  V30 7614 O 725.559 2.6729 -0.47629 0
M  V30 7615 C 724.015 2.01863 -2.97959 0
M  V30 7616 C 723.623 1.27443 -4.29491 0
M  V30 7617 C 725.367 2.75883 -3.22628 0
M  V30 7618 C 723.274 2.17414 -5.49987 0
M  V30 7619 H 722.204 0.417272 -0.628013 0
M  V30 7620 H 724.855 0.368971 -1.79752 0
M  V30 7621 H 723.237 2.7947 -2.80558 0
M  V30 7622 H 724.411 0.549138 -4.57516 0
M  V30 7623 H 722.726 0.652935 -4.11249 0
M  V30 7624 H 725.323 3.43421 -4.09837 0
M  V30 7625 H 725.666 3.41138 -2.38601 0
M  V30 7626 H 726.199 2.0536 -3.40693 0
M  V30 7627 H 722.938 1.5674 -6.36485 0
M  V30 7628 H 722.458 2.87799 -5.26243 0
M  V30 7629 H 724.137 2.77019 -5.84696 0
M  V30 7630 N 724.269 1.44576 0.627338 0
M  V30 7631 C 725.494 1.51271 1.41887 0
M  V30 7632 C 725.919 0.139814 1.8758 0
M  V30 7633 O 725.277 -0.871746 1.58966 0
M  V30 7634 C 725.325 2.48529 2.61277 0
M  V30 7635 O 724.429 1.98944 3.61241 0
M  V30 7636 H 723.77 0.510668 0.424399 0
M  V30 7637 H 726.3 1.89746 0.765356 0
M  V30 7638 H 726.31 2.66689 3.08773 0
M  V30 7639 H 724.985 3.48249 2.27366 0
M  V30 7640 H 723.562 1.90568 3.20528 0
M  V30 7641 N 725.747 -0.868086 1.31537 0
M  V30 7642 C 727.158 -1.437 1.19195 0
M  V30 7643 C 727.509 -1.95169 -0.200842 0
M  V30 7644 O 726.634 -1.86432 -1.09872 0
M  V30 7645 C 727.229 -2.612 2.15778 0
M  V30 7646 C 725.788 -3.1413 2.07363 0
M  V30 7647 C 724.935 -1.86845 2.049 0
M  V30 7648 H 727.886 -0.676457 1.43561 0
M  V30 7649 H 727.907 -3.37948 1.74847 0
M  V30 7650 H 727.419 -2.23709 3.17137 0
M  V30 7651 H 725.52 -3.56238 1.09204 0
M  V30 7652 H 725.633 -3.76285 2.96557 0
M  V30 7653 H 723.997 -2.05886 1.49943 0
M  V30 7654 H 724.78 -1.51589 3.08019 0
M  V30 7655 N 727.225 -1.14528 -1.08264 0
M  V30 7656 C 728.45 -0.938381 -1.84957 0
M  V30 7657 C 728.875 0.508044 -1.81109 0
M  V30 7658 O 728.233 1.36146 -1.19724 0
M  V30 7659 C 728.281 -1.44568 -3.30352 0
M  V30 7660 O 727.385 -0.638745 -4.07423 0
M  V30 7661 H 726.726 -0.335394 -0.573068 0
M  V30 7662 H 729.256 -1.52287 -1.36637 0
M  V30 7663 H 729.266 -1.45449 -3.81194 0
M  V30 7664 H 727.941 -2.49876 -3.32468 0
M  V30 7665 H 726.518 -0.698801 -3.66294 0
M  V30 7666 N 728.703 1.26451 -0.940633 0
M  V30 7667 C 729.931 1.97868 -0.604642 0
M  V30 7668 C 730.346 1.70051 0.820251 0
M  V30 7669 O 729.703 0.96843 1.54686 0
M  V30 7670 C 729.754 3.51684 -0.836689 0
M  V30 7671 O 729.475 3.78533 -2.20554 0
M  V30 7672 C 730.976 4.40343 -0.511169 0
M  V30 7673 H 728.196 0.631105 -0.227919 0
M  V30 7674 H 730.74 1.60979 -1.26119 0
M  V30 7675 H 728.895 3.86736 -0.226759 0
M  V30 7676 H 729.309 4.73065 -2.26517 0
M  V30 7677 H 730.783 5.47229 -0.724157 0
M  V30 7678 H 731.26 4.35694 0.553815 0
M  V30 7679 H 731.866 4.10834 -1.0998 0
M  V30 7680 N 730.181 0.707592 1.40822 0
M  V30 7681 C 731.597 0.38034 1.55002 0
M  V30 7682 C 731.797 -1.11163 1.68062 0
M  V30 7683 O 730.853 -1.89761 1.66574 0
M  V30 7684 C 732.166 1.1394 2.78277 0
M  V30 7685 C 733.714 1.12492 2.92087 0
M  V30 7686 C 734.189 1.86597 4.18265 0
M  V30 7687 N 735.68 1.83626 4.25248 0
M  V30 7688 C 736.415 2.37794 5.21768 0
M  V30 7689 N 735.911 3.00485 6.24244 0
M  V30 7690 N 737.704 2.27982 5.13791 0
M  V30 7691 H 729.855 1.67511 1.3059 0
M  V30 7692 H 732.118 0.707579 0.630901 0
M  V30 7693 H 731.824 2.19398 2.74877 0
M  V30 7694 H 731.698 0.725793 3.70151 0
M  V30 7695 H 734.085 0.0785564 2.94995 0
M  V30 7696 H 734.166 1.57768 2.01353 0
M  V30 7697 H 733.81 2.91219 4.16118 0
M  V30 7698 H 733.74 1.38746 5.07993 0
M  V30 7699 H 736.231 1.3793 3.51829 0
M  V30 7700 H 736.544 3.39355 6.94304 0
M  V30 7701 H 734.889 3.04567 6.24711 0
M  V30 7702 H 738.08 1.78669 4.3266 0
M  V30 7703 H 738.253 2.70499 5.88841 0
M  V30 7704 N 731.66 -1.50943 0.453197 0
M  V30 7705 C 732.888 -2.06628 -0.106135 0
M  V30 7706 C 733.303 -1.31901 -1.35084 0
M  V30 7707 O 732.66 -0.383074 -1.78434 0
M  V30 7708 C 732.711 -3.5914 -0.412368 0
M  V30 7709 O 732.432 -4.31047 0.782948 0
M  V30 7710 C 733.933 -4.31391 -1.02064 0
M  V30 7711 H 731.153 -0.670999 -0.000885896 0
M  V30 7712 H 733.697 -1.94331 0.63684 0
M  V30 7713 H 731.852 -3.71299 -1.10526 0
M  V30 7714 H 732.266 -5.21948 0.516736 0
M  V30 7715 H 733.74 -5.39135 -1.1848 0
M  V30 7716 H 734.217 -3.90714 -2.00598 0
M  V30 7717 H 734.823 -4.23716 -0.366664 0
M  V30 7718 N 733.138 -0.185124 -1.56509 0
M  V30 7719 C 734.549 0.329221 -1.83774 0
M  V30 7720 C 734.9 1.62093 -1.10545 0
M  V30 7721 O 734.025 2.13334 -0.36298 0
M  V30 7722 C 734.62 0.604099 -3.33371 0
M  V30 7723 C 733.179 1.06284 -3.61083 0
M  V30 7724 C 732.326 0.10608 -2.77097 0
M  V30 7725 H 735.277 -0.409116 -1.53336 0
M  V30 7726 H 735.298 1.45458 -3.51599 0
M  V30 7727 H 734.81 -0.336201 -3.86641 0
M  V30 7728 H 732.911 2.01777 -3.13236 0
M  V30 7729 H 733.024 0.962453 -4.69333 0
M  V30 7730 H 731.388 0.606082 -2.47384 0
M  V30 7731 H 732.171 -0.828486 -3.33153 0
M  V30 7732 N 734.616 1.57351 0.0885366 0
M  V30 7733 C 735.864 1.86051 0.789262 0
M  V30 7734 C 736.185 0.774763 1.78948 0
M  V30 7735 O 735.455 -0.198324 1.94894 0
M  V30 7736 H 734.035 0.686508 0.294475 0
M  V30 7737 H 736.697 1.94779 0.0686055 0
M  V30 7738 H 735.793 2.83007 1.31581 0
M  V30 7739 N 736.094 -0.359525 1.53444 0
M  V30 7740 C 737.342 -1.09935 1.69584 0
M  V30 7741 C 737.663 -1.89656 0.453371 0
M  V30 7742 O 736.933 -1.8852 -0.53263 0
M  V30 7743 H 735.513 -0.408843 0.625185 0
M  V30 7744 H 738.175 -0.40467 1.90653 0
M  V30 7745 H 737.271 -1.78575 2.55964 0
M  V30 7746 N 737.572 -1.44907 -0.619662 0
M  V30 7747 C 738.504 -1.48652 -1.74457 0
M  V30 7748 C 739.517 -0.378596 -1.58337 0
M  V30 7749 O 740.706 -0.644987 -1.6644 0
M  V30 7750 C 737.806 -1.31568 -3.12319 0
M  V30 7751 C 736.979 -2.55816 -3.54792 0
M  V30 7752 C 736.038 -2.33465 -4.71573 0
M  V30 7753 O 735.064 -3.07015 -4.79302 0
M  V30 7754 N 736.266 -1.37254 -5.6404 0
M  V30 7755 H 739.031 -2.45632 -1.71712 0
M  V30 7756 H 736.592 -1.40492 -0.804582 0
M  V30 7757 H 738.584 -1.14445 -3.88181 0
M  V30 7758 H 737.154 -0.429095 -3.09641 0
M  V30 7759 H 736.374 -2.88137 -2.69018 0
M  V30 7760 H 737.662 -3.38431 -3.79924 0
M  V30 7761 H 737.06 -0.765309 -5.60499 0
M  V30 7762 H 735.617 -1.26106 -6.39485 0
M  V30 7763 N 739.05 0.861098 -1.31996 0
M  V30 7764 C 740.298 1.61162 -1.21947 0
M  V30 7765 C 740.619 1.93751 0.220351 0
M  V30 7766 O 739.889 1.59069 1.14341 0
M  V30 7767 H 738.469 0.597485 -0.448353 0
M  V30 7768 H 741.131 1.03039 -1.65436 0
M  V30 7769 H 740.227 2.55138 -1.79752 0
M  V30 7770 N 740.528 1.15101 1.07655 0
M  V30 7771 C 741.475 0.844958 2.14777 0
M  V30 7772 C 742.445 -0.200798 1.64882 0
M  V30 7773 O 743.63 -0.0690278 1.90675 0
M  V30 7774 C 740.77 0.337018 3.4345 0
M  V30 7775 C 739.883 1.44398 4.07153 0
M  V30 7776 C 739.018 0.892487 5.23649 0
M  V30 7777 C 738.057 1.9766 5.79307 0
M  V30 7778 N 737.194 1.44171 6.87138 0
M  V30 7779 H 742.034 1.76242 2.40297 0
M  V30 7780 H 739.571 0.879435 1.17917 0
M  V30 7781 H 741.529 0.024256 4.17193 0
M  V30 7782 H 740.159 -0.543531 3.18191 0
M  V30 7783 H 739.211 1.87299 3.31094 0
M  V30 7784 H 740.523 2.26262 4.4453 0
M  V30 7785 H 739.677 0.532083 6.04362 0
M  V30 7786 H 738.416 0.0429854 4.87681 0
M  V30 7787 H 737.421 2.34586 4.97242 0
M  V30 7788 H 738.646 2.82982 6.17331 0
M  V30 7789 H 736.592 0.614518 6.53115 0
M  V30 7790 H 736.509 2.19665 7.23383 0
M  V30 7791 H 737.777 1.10945 7.71564 0
M  V30 7792 N 742.006 -1.2595 0.947325 0
M  V30 7793 C 742.956 -2.23859 0.432547 0
M  V30 7794 C 743.94 -1.53755 -0.474154 0
M  V30 7795 O 745.132 -1.74293 -0.308397 0
M  V30 7796 C 742.261 -3.42027 -0.295318 0
M  V30 7797 C 741.347 -4.19409 0.62903 0
M  V30 7798 N 741.738 -4.74284 1.7575 0
M  V30 7799 C 740.036 -4.43866 0.435805 0
M  V30 7800 C 740.737 -5.32821 2.33401 0
M  V30 7801 N 739.713 -5.18858 1.62135 0
M  V30 7802 H 743.515 -2.63886 1.29388 0
M  V30 7803 H 741.029 -1.41105 0.80393 0
M  V30 7804 H 743.026 -4.11297 -0.681188 0
M  V30 7805 H 741.686 -3.03526 -1.15334 0
M  V30 7806 H 742.697 -4.71641 2.13952 0
M  V30 7807 H 739.374 -4.15768 -0.37994 0
M  V30 7808 H 740.764 -5.86111 3.28517 0
M  V30 7809 N 743.484 -0.715051 -1.40445 0
M  V30 7810 C 744.414 -0.0768699 -2.33373 0
M  V30 7811 C 745.395 0.746109 -1.52863 0
M  V30 7812 O 746.58 0.695142 -1.81332 0
M  V30 7813 C 743.71 0.846014 -3.36838 0
M  V30 7814 C 742.664 0.128694 -4.27806 0
M  V30 7815 C 741.99 1.16726 -5.21804 0
M  V30 7816 C 743.29 -1.01679 -5.12307 0
M  V30 7817 H 744.984 -0.853061 -2.8699 0
M  V30 7818 H 742.53 -0.41167 -1.3799 0
M  V30 7819 H 744.483 1.30185 -4.00786 0
M  V30 7820 H 743.207 1.6541 -2.81615 0
M  V30 7821 H 741.866 -0.307314 -3.6531 0
M  V30 7822 H 741.514 1.96838 -4.62887 0
M  V30 7823 H 741.214 0.692188 -5.83509 0
M  V30 7824 H 742.738 1.62321 -5.88629 0
M  V30 7825 H 744.152 -0.640337 -5.69713 0
M  V30 7826 H 742.549 -1.4202 -5.83053 0
M  V30 7827 H 743.619 -1.84769 -4.48317 0
M  V30 7828 N 744.962 1.50701 -0.461195 0
M  V30 7829 C 746.208 2.03203 0.0895017 0
M  V30 7830 C 746.563 1.33768 1.38289 0
M  V30 7831 O 745.856 0.451304 1.86209 0
M  V30 7832 C 746.05 3.55788 0.33908 0
M  V30 7833 C 745.879 4.40009 -0.928571 0
M  V30 7834 C 744.649 4.83475 -1.46903 0
M  V30 7835 C 746.847 4.80972 -1.82129 0
M  V30 7836 N 744.829 5.51985 -2.68673 0
M  V30 7837 C 746.2 5.48792 -2.88491 0
M  V30 7838 C 748.255 4.62937 -1.83285 0
M  V30 7839 C 746.958 6.00489 -3.95987 0
M  V30 7840 C 748.984 5.15568 -2.89731 0
M  V30 7841 C 748.346 5.83355 -3.94812 0
M  V30 7842 H 744.445 0.781968 -0.00702462 0
M  V30 7843 H 747.029 1.84321 -0.627195 0
M  V30 7844 H 745.2 3.74636 1.02481 0
M  V30 7845 H 746.932 3.94944 0.883242 0
M  V30 7846 H 743.687 4.62495 -1.01959 0
M  V30 7847 H 744.111 5.90854 -3.30486 0
M  V30 7848 H 748.753 4.0997 -1.03366 0
M  V30 7849 H 746.471 6.52499 -4.7673 0
M  V30 7850 H 750.057 5.0345 -2.91597 0
M  V30 7851 H 748.937 6.23347 -4.75824 0
M  V30 7852 N 746.441 0.193421 1.56409 0
M  V30 7853 C 747.371 -0.723334 2.22014 0
M  V30 7854 C 748.352 -1.22254 1.1827 0
M  V30 7855 O 749.537 -1.27168 1.46771 0
M  V30 7856 C 746.667 -1.94366 2.87818 0
M  V30 7857 C 745.621 -1.57943 3.97791 0
M  V30 7858 C 744.947 -2.87623 4.50752 0
M  V30 7859 C 746.247 -0.790639 5.16281 0
M  V30 7860 H 747.941 -0.176426 2.9888 0
M  V30 7861 H 745.487 -0.0834166 1.43758 0
M  V30 7862 H 747.44 -2.5902 3.32396 0
M  V30 7863 H 746.164 -2.51507 2.08355 0
M  V30 7864 H 744.823 -0.956482 3.53903 0
M  V30 7865 H 744.471 -3.4285 3.68053 0
M  V30 7866 H 744.171 -2.63998 5.24956 0
M  V30 7867 H 745.695 -3.53268 4.9803 0
M  V30 7868 H 747.109 -1.34024 5.57414 0
M  V30 7869 H 745.506 -0.65258 5.96541 0
M  V30 7870 H 746.576 0.208633 4.84451 0
M  V30 7871 N 747.919 -1.57396 -0.0801906 0
M  V30 7872 C 749.147 -1.91055 -0.794075 0
M  V30 7873 C 749.562 -0.788583 -1.71542 0
M  V30 7874 O 748.919 0.238587 -1.80934 0
M  V30 7875 C 748.97 -3.24418 -1.59484 0
M  V30 7876 O 748.691 -4.323 -0.710532 0
M  V30 7877 C 750.192 -3.72037 -2.41046 0
M  V30 7878 H 747.412 -0.63171 -0.226238 0
M  V30 7879 H 749.956 -2.04431 -0.0529685 0
M  V30 7880 H 748.111 -3.12595 -2.2883 0
M  V30 7881 H 748.525 -5.08976 -1.26663 0
M  V30 7882 H 749.999 -4.68006 -2.92702 0
M  V30 7883 H 750.476 -3.00624 -3.2019 0
M  V30 7884 H 751.082 -3.86777 -1.76871 0
M  V30 7885 N 749.397 0.351382 -1.53633 0
M  V30 7886 C 750.33 1.45407 -1.75875 0
M  V30 7887 C 751.308 1.50822 -0.607566 0
M  V30 7888 O 752.492 1.68658 -0.841818 0
M  V30 7889 C 749.619 2.8369 -1.85034 0
M  V30 7890 C 748.665 2.95935 -3.07123 0
M  V30 7891 S 749.498 2.63215 -4.66345 0
M  V30 7892 C 750.654 4.03622 -4.78373 0
M  V30 7893 H 750.887 1.26322 -2.69128 0
M  V30 7894 H 748.42 0.546581 -1.44402 0
M  V30 7895 H 750.378 3.6336 -1.90996 0
M  V30 7896 H 749.039 3.00076 -0.928074 0
M  V30 7897 H 748.232 3.97243 -3.10183 0
M  V30 7898 H 747.834 2.24205 -2.99346 0
M  V30 7899 H 750.126 4.98046 -4.593 0
M  V30 7900 H 751.069 4.05559 -5.80454 0
M  V30 7901 H 751.477 3.91282 -4.06889 0
M  V30 7902 O 750.914 1.53651 0.497361 0
M  V30 7903 H 751.605 1.55706 1.15218 0
M  V30 END ATOM
M  V30 BEGIN BOND
M  V30 END BOND
M  V30 END CTAB
M  END
$$$$
