drugbank_target|P15085 Carboxypeptidase A1 (DB02494; DB02652; DB03012; DB03201; DB03441; DB04058; DB04316; DB06924; DB07351; DB07484; DB07506; DB08368; DB08762)
 OpenBabel12092120383D

  0  0  0     0  0            999 V3000
M  V30 BEGIN CTAB
M  V30 COUNTS 6583 6671 0 0 0
M  V30 BEGIN ATOM
M  V30 1 H -0.908 1.98254 -0.117106 0
M  V30 2 N 0 1.576 0 0
M  V30 3 C 0.933 2.03868 1.02534 0
M  V30 4 C 1.911 0.928543 1.3348 0
M  V30 5 O 3.095 1.19667 1.45644 0
M  V30 6 C 0.222 2.43627 2.35294 0
M  V30 7 C -0.732 3.65373 2.2001 0
M  V30 8 S 0.101 5.13292 1.52614 0
M  V30 9 C 1.257 5.56322 2.86805 0
M  V30 10 H 1.49 2.90518 0.631377 0
M  V30 11 H -0.977 1.52953 0.210867 0
M  V30 12 H 0.981 2.67203 3.11629 0
M  V30 13 H -0.358 1.57376 2.7183 0
M  V30 14 H -1.165 3.90944 3.18086 0
M  V30 15 H -1.563 3.418 1.51819 0
M  V30 16 H 0.729 5.58782 3.83104 0
M  V30 17 H 1.672 6.56266 2.65933 0
M  V30 18 H 2.08 4.83886 2.90714 0
M  V30 19 N 1.4781 -0.272755 1.55222 0
M  V30 20 C 2.8941 -0.619959 1.47067 0
M  V30 21 C 3.0941 -1.895 0.684978 0
M  V30 22 O 2.1501 -2.51675 0.203931 0
M  V30 23 C 3.4631 -0.746693 2.91282 0
M  V30 24 C 5.0111 -0.840731 3.01497 0
M  V30 25 C 5.4861 -0.99924 4.46967 0
M  V30 26 N 6.9771 -1.06476 4.50796 0
M  V30 27 C 7.7121 -1.20621 5.6057 0
M  V30 28 N 7.2081 -1.31483 6.80209 0
M  V30 29 N 9.0011 -1.23733 5.48312 0
M  V30 30 H 1.1521 0.564606 2.04758 0
M  V30 31 H 3.4151 0.191177 0.928523 0
M  V30 32 H 3.1211 0.119753 3.51496 0
M  V30 33 H 2.9951 -1.6269 3.40311 0
M  V30 34 H 5.3821 -1.69764 2.41379 0
M  V30 35 H 5.4631 0.0640874 2.5572 0
M  V30 36 H 5.1071 -0.146984 5.07687 0
M  V30 37 H 5.0371 -1.91871 4.90401 0
M  V30 38 H 7.5281 -0.993196 3.64615 0
M  V30 39 H 7.8411 -1.42111 7.59621 0
M  V30 40 H 6.1861 -1.28487 6.8302 0
M  V30 41 H 9.3771 -1.14877 4.53785 0
M  V30 42 H 9.5501 -1.34412 6.33906 0
M  V30 43 N 2.9562 -1.48159 -0.537278 0
M  V30 44 C 4.2042 -1.55497 -1.29094 0
M  V30 45 C 4.5252 -0.227454 -1.93669 0
M  V30 46 O 3.7952 0.750386 -1.80959 0
M  V30 47 H 2.3752 -0.572832 -0.47945 0
M  V30 48 H 5.0372 -1.84579 -0.625818 0
M  V30 49 H 4.1332 -2.33216 -2.07405 0
M  V30 50 N 4.4343 0.785586 -1.36625 0
M  V30 51 C 5.3643 1.91259 -1.33949 0
M  V30 52 C 6.3453 1.68795 -0.210325 0
M  V30 53 O 7.5303 1.89854 -0.408561 0
M  V30 54 C 4.6603 3.28339 -1.13186 0
M  V30 55 C 3.6143 3.65335 -2.22967 0
M  V30 56 C 2.9403 5.00806 -1.87342 0
M  V30 57 C 4.2403 3.7352 -3.65075 0
M  V30 58 H 5.9343 1.93755 -2.28253 0
M  V30 59 H 3.4803 0.930788 -1.09874 0
M  V30 60 H 5.4333 4.06804 -1.09948 0
M  V30 61 H 4.1573 3.2624 -0.153332 0
M  V30 62 H 2.8163 2.89169 -2.25337 0
M  V30 63 H 2.4643 4.95233 -0.880545 0
M  V30 64 H 2.1643 5.26529 -2.60846 0
M  V30 65 H 3.6883 5.81687 -1.85667 0
M  V30 66 H 5.1023 4.42168 -3.64911 0
M  V30 67 H 3.4993 4.10731 -4.37516 0
M  V30 68 H 4.5693 2.74527 -3.99703 0
M  V30 69 N 5.9124 1.20967 1.01018 0
M  V30 70 C 6.8424 0.988272 2.11555 0
M  V30 71 C 7.8234 -0.0849778 1.69888 0
M  V30 72 O 9.0084 0.0738202 1.9406 0
M  V30 73 C 6.1384 0.546528 3.42973 0
M  V30 74 C 5.0924 1.56375 3.9841 0
M  V30 75 C 4.4184 0.97842 5.25672 0
M  V30 76 C 5.7184 2.94922 4.31066 0
M  V30 77 H 7.4124 1.91276 2.30334 0
M  V30 78 H 4.9584 0.921073 1.1069 0
M  V30 79 H 6.9114 0.378839 4.19694 0
M  V30 80 H 5.6354 -0.413598 3.23971 0
M  V30 81 H 4.2944 1.71891 3.23804 0
M  V30 82 H 3.9424 0.0101688 5.02999 0
M  V30 83 H 3.6424 1.65784 5.63728 0
M  V30 84 H 5.1664 0.821939 6.05043 0
M  V30 85 H 6.5804 2.8288 4.9865 0
M  V30 86 H 4.9774 3.5983 4.80253 0
M  V30 87 H 6.0474 3.4616 3.39561 0
M  V30 88 N 7.3905 -1.2043 1.01659 0
M  V30 89 C 8.6365 -1.90079 0.706963 0
M  V30 90 C 8.9695 -1.78648 -0.761474 0
M  V30 91 O 8.2445 -1.17069 -1.55323 0
M  V30 92 C 8.5275 -3.41469 1.14327 0
M  V30 93 C 8.3805 -3.61833 2.67201 0
M  V30 94 C 9.6995 -4.34261 0.714529 0
M  V30 95 H 6.8185 -0.690254 0.2583 0
M  V30 96 H 9.4605 -1.41826 1.26433 0
M  V30 97 H 7.6105 -3.82696 0.669056 0
M  V30 98 H 9.2825 -3.2986 3.22475 0
M  V30 99 H 7.5255 -3.05304 3.08175 0
M  V30 100 H 8.1965 -4.67955 2.92783 0
M  V30 101 H 10.6725 -4.00682 1.12221 0
M  V30 102 H 9.5485 -5.38806 1.04784 0
M  V30 103 H 9.8095 -4.40431 -0.383799 0
M  V30 104 N 8.8686 -0.792821 -1.36206 0
M  V30 105 C 9.7986 -0.207853 -2.32573 0
M  V30 106 C 10.7796 0.659055 -1.56813 0
M  V30 107 O 11.9646 0.592176 -1.84951 0
M  V30 108 C 9.0946 0.655449 -3.41059 0
M  V30 109 C 8.0486 -0.111842 -4.27854 0
M  V30 110 C 7.3746 0.872274 -5.27537 0
M  V30 111 C 8.6746 -1.30299 -5.05786 0
M  V30 112 H 10.3686 -1.01294 -2.81744 0
M  V30 113 H 7.9146 -0.48854 -1.3546 0
M  V30 114 H 9.8676 1.07464 -4.07467 0
M  V30 115 H 8.5916 1.49328 -2.90463 0
M  V30 116 H 7.2506 -0.512053 -3.63006 0
M  V30 117 H 6.8986 1.70523 -4.73214 0
M  V30 118 H 6.5986 0.363291 -5.86476 0
M  V30 119 H 8.1226 1.28996 -5.96818 0
M  V30 120 H 9.5366 -0.959379 -5.65216 0
M  V30 121 H 7.9336 -1.7455 -5.74154 0
M  V30 122 H 9.0036 -2.09663 -4.37229 0
M  V30 123 N 10.3467 1.47872 -0.545128 0
M  V30 124 C 11.5717 2.07391 -0.0190611 0
M  V30 125 C 11.9967 1.39688 1.25971 0
M  V30 126 O 11.3547 0.467816 1.7516 0
M  V30 127 C 11.4027 3.60188 0.172335 0
M  V30 128 O 10.5067 3.9339 1.23766 0
M  V30 129 H 9.8477 0.662411 -0.0459059 0
M  V30 130 H 12.3777 1.90066 -0.757365 0
M  V30 131 H 12.3877 4.06129 0.390305 0
M  V30 132 H 11.0627 4.08865 -0.761725 0
M  V30 133 H 9.6397 3.5921 1.00114 0
M  V30 134 N 11.8248 0.280983 1.55075 0
M  V30 135 C 13.0708 -0.33461 2.00021 0
M  V30 136 C 13.4038 -1.55063 1.16915 0
M  V30 137 O 12.6788 -1.93006 0.240646 0
M  V30 138 C 12.9618 -0.711007 3.53011 0
M  V30 139 C 12.8148 0.512766 4.46868 0
M  V30 140 C 14.1338 -1.54522 4.12081 0
M  V30 141 H 11.2528 -0.120147 0.727141 0
M  V30 142 H 13.8948 0.389097 1.85973 0
M  V30 143 H 12.0448 -1.32761 3.65112 0
M  V30 144 H 13.7168 1.15131 4.46702 0
M  V30 145 H 11.9598 1.14975 4.18286 0
M  V30 146 H 12.6308 0.205556 5.51617 0
M  V30 147 H 15.1068 -1.02442 4.03293 0
M  V30 148 H 13.9828 -1.77739 5.19327 0
M  V30 149 H 14.2438 -2.52813 3.62682 0
M  V30 150 N 13.3029 -1.57598 0.00835791 0
M  V30 151 C 14.2329 -2.1198 -0.979113 0
M  V30 152 C 15.2139 -1.03091 -1.35301 0
M  V30 153 O 16.3989 -1.30818 -1.43528 0
M  V30 154 C 13.5289 -2.62995 -2.26828 0
M  V30 155 C 12.4829 -3.76485 -2.03576 0
M  V30 156 C 11.8089 -4.13846 -3.38579 0
M  V30 157 C 13.1089 -5.0342 -1.39161 0
M  V30 158 H 14.8029 -2.94738 -0.526281 0
M  V30 159 H 12.3489 -1.41783 -0.251704 0
M  V30 160 H 14.3019 -2.99669 -2.96271 0
M  V30 161 H 13.0259 -1.7737 -2.7424 0
M  V30 162 H 11.6849 -3.40217 -1.36557 0
M  V30 163 H 11.3329 -3.25232 -3.83709 0
M  V30 164 H 11.0329 -4.90312 -3.23834 0
M  V30 165 H 12.5569 -4.53086 -4.09323 0
M  V30 166 H 13.9709 -5.37812 -1.98573 0
M  V30 167 H 12.3679 -5.84746 -1.34878 0
M  V30 168 H 13.4379 -4.83548 -0.361868 0
M  V30 169 N 14.781 0.264519 -1.55364 0
M  V30 170 C 15.711 1.33121 -1.91836 0
M  V30 171 C 16.692 1.51101 -0.781192 0
M  V30 172 O 17.877 1.64003 -1.04003 0
M  V30 173 C 15.007 2.68921 -2.19769 0
M  V30 174 C 13.961 2.65661 -3.35571 0
M  V30 175 C 13.287 4.05093 -3.49004 0
M  V30 176 C 14.587 2.24187 -4.71739 0
M  V30 177 H 16.281 1.02844 -2.81182 0
M  V30 178 H 13.827 0.493286 -1.35287 0
M  V30 179 H 15.78 3.43663 -2.43872 0
M  V30 180 H 14.504 3.00799 -1.27231 0
M  V30 181 H 13.163 1.93377 -3.1145 0
M  V30 182 H 12.811 4.34206 -2.53917 0
M  V30 183 H 12.511 4.03804 -4.26868 0
M  V30 184 H 14.035 4.81561 -3.75408 0
M  V30 185 H 15.449 2.88654 -4.9533 0
M  V30 186 H 13.846 2.34044 -5.52579 0
M  V30 187 H 14.916 1.19327 -4.69988 0
M  V30 188 N 16.2591 1.48442 0.529413 0
M  V30 189 C 17.5071 1.56179 1.28267 0
M  V30 190 C 17.8281 0.237721 1.93546 0
M  V30 191 O 17.0981 -0.740779 1.81354 0
M  V30 192 H 15.6781 0.575367 0.476405 0
M  V30 193 H 18.3401 1.84909 0.61602 0
M  V30 194 H 17.4361 2.34312 2.06165 0
M  V30 195 N 17.7372 -0.778329 1.37039 0
M  V30 196 C 18.7002 -1.87301 1.32102 0
M  V30 197 C 19.7002 -1.59198 0.226405 0
M  V30 198 O 20.8902 -1.67403 0.481861 0
M  V30 199 C 18.0222 -3.24309 1.05055 0
M  V30 200 H 19.2152 -1.93093 2.29467 0
M  V30 201 H 16.7682 -0.977358 1.21973 0
M  V30 202 H 17.5032 -3.24196 0.0819373 0
M  V30 203 H 17.2882 -3.46098 1.84279 0
M  V30 204 H 18.7782 -4.04382 1.04234 0
M  V30 205 N 19.2153 -1.21501 -1.00376 0
M  V30 206 C 20.4613 -1.03452 -1.74429 0
M  V30 207 C 20.7943 0.430764 -1.89362 0
M  V30 208 O 20.0693 1.31962 -1.42886 0
M  V30 209 C 20.3523 -1.73375 -3.15615 0
M  V30 210 C 20.2053 -3.27431 -3.08397 0
M  V30 211 C 21.5243 -1.47732 -4.14564 0
M  V30 212 H 18.6433 -0.377226 -0.633143 0
M  V30 213 H 21.2853 -1.49693 -1.17013 0
M  V30 214 H 19.4353 -1.34064 -3.64636 0
M  V30 215 H 21.1073 -3.76119 -2.67081 0
M  V30 216 H 19.3503 -3.5767 -2.45468 0
M  V30 217 H 20.0213 -3.71524 -4.08258 0
M  V30 218 H 22.4973 -1.8186 -3.74254 0
M  V30 219 H 21.3733 -1.99169 -5.11491 0
M  V30 220 H 21.6343 -0.407589 -4.40217 0
M  V30 221 N 20.6934 1.19889 -1.02296 0
M  V30 222 C 21.9404 1.8942 -0.715972 0
M  V30 223 C 22.2684 1.79251 0.754944 0
M  V30 224 O 21.5234 1.17526 1.56481 0
M  V30 225 C 21.8224 3.39883 -1.10518 0
M  V30 226 C 21.4884 3.70254 -2.57337 0
M  V30 227 C 20.1504 3.78254 -2.97452 0
M  V30 228 C 22.5024 3.84052 -3.52354 0
M  V30 229 C 19.8304 3.97514 -4.31509 0
M  V30 230 C 22.1824 4.04824 -4.86108 0
M  V30 231 C 20.8464 4.11054 -5.25919 0
M  V30 232 H 20.1164 0.693138 -0.261993 0
M  V30 233 H 22.7634 1.42012 -1.28472 0
M  V30 234 H 21.0684 3.8915 -0.454953 0
M  V30 235 H 22.7654 3.9199 -0.845261 0
M  V30 236 H 19.3554 3.64632 -2.25258 0
M  V30 237 H 23.5394 3.77221 -3.22518 0
M  V30 238 H 18.7954 4.00574 -4.61898 0
M  V30 239 H 22.9694 4.14442 -5.59653 0
M  V30 240 H 20.5964 4.2573 -6.29808 0
M  V30 241 N 22.1715 0.800033 1.35784 0
M  V30 242 C 23.4195 0.376597 1.9856 0
M  V30 243 C 23.7405 -1.05812 1.63795 0
M  V30 244 O 23.0105 -1.73103 0.917171 0
M  V30 245 H 21.5905 0.136261 0.734467 0
M  V30 246 H 24.2525 1.02442 1.65806 0
M  V30 247 H 23.3485 0.477002 3.08433 0
M  V30 248 N 23.6496 -1.47581 0.552962 0
M  V30 249 C 24.5966 -2.29957 -0.197108 0
M  V30 250 C 25.5666 -1.38799 -0.912359 0
M  V30 251 O 26.7516 -1.67761 -0.908888 0
M  V30 252 C 23.8916 -3.22672 -1.22379 0
M  V30 253 C 23.0046 -4.28919 -0.515038 0
M  V30 254 C 22.1396 -5.0879 -1.52664 0
M  V30 255 C 21.1786 -6.06815 -0.802631 0
M  V30 256 N 20.3156 -6.7966 -1.76086 0
M  V30 257 H 25.1556 -2.93578 0.511486 0
M  V30 258 H 22.6926 -1.4471 0.264067 0
M  V30 259 H 24.6506 -3.74845 -1.83159 0
M  V30 260 H 23.2806 -2.60925 -1.90047 0
M  V30 261 H 22.3326 -3.79835 0.207192 0
M  V30 262 H 23.6446 -4.98773 0.0523425 0
M  V30 263 H 22.7986 -5.65091 -2.20809 0
M  V30 264 H 21.5376 -4.38828 -2.12794 0
M  V30 265 H 20.5426 -5.49695 -0.107238 0
M  V30 266 H 21.7676 -6.78784 -0.207135 0
M  V30 267 H 19.7136 -6.12432 -2.35081 0
M  V30 268 H 19.6306 -7.45669 -1.24552 0
M  V30 269 H 20.8986 -7.40538 -2.43359 0
M  V30 270 N 25.1277 -0.289203 -1.54924 0
M  V30 271 C 26.0377 0.601863 -2.26748 0
M  V30 272 C 27.0537 1.15834 -1.2984 0
M  V30 273 O 28.2297 1.18564 -1.62802 0
M  V30 274 C 25.2947 1.76299 -2.98529 0
M  V30 275 C 24.3557 1.24178 -4.10948 0
M  V30 276 C 23.5887 2.34757 -4.79296 0
M  V30 277 O 23.8117 3.54411 -4.46933 0
M  V30 278 O 22.7457 2.02115 -5.66951 0
M  V30 279 H 26.5717 0.0195879 -3.03694 0
M  V30 280 H 24.1567 -0.0560868 -1.49295 0
M  V30 281 H 26.0387 2.43973 -3.43592 0
M  V30 282 H 24.7137 2.33209 -2.24488 0
M  V30 283 H 23.6207 0.531104 -3.70311 0
M  V30 284 H 24.9537 0.718252 -4.86931 0
M  V30 285 N 26.6058 1.57591 -0.0167156 0
M  V30 286 C 27.8828 1.82547 0.702564 0
M  V30 287 C 28.2628 0.898018 1.91047 0
M  V30 288 O 27.6108 -0.0493456 2.28447 0
M  V30 289 C 27.8208 3.31459 1.09251 0
M  V30 290 C 29.1688 3.97622 1.48937 0
M  V30 291 O 30.1928 3.35881 1.18584 0
M  V30 292 O 29.0518 5.06415 2.05442 0
M  V30 293 H 26.1458 0.752268 0.343544 0
M  V30 294 H 28.6918 1.69644 -0.0434495 0
M  V30 295 H 27.4638 3.9061 0.23227 0
M  V30 296 H 27.0868 3.49422 1.89709 0
M  V30 297 N 28.0839 -0.256276 1.55502 0
M  V30 298 C 29.3309 -0.985619 1.76895 0
M  V30 299 C 29.6589 -1.85671 0.579355 0
M  V30 300 O 28.9139 -1.90744 -0.437651 0
M  V30 301 C 29.2129 -1.88432 3.03691 0
M  V30 302 C 28.8789 -1.16936 4.35473 0
M  V30 303 C 27.5409 -0.97173 4.71286 0
M  V30 304 C 29.8929 -0.661889 5.1698 0
M  V30 305 C 27.2209 -0.254179 5.86149 0
M  V30 306 C 29.5729 0.042149 6.32586 0
M  V30 307 C 28.2369 0.25134 6.67027 0
M  V30 308 H 27.5069 -0.360663 0.647304 0
M  V30 309 H 30.1539 -0.256483 1.89775 0
M  V30 310 H 28.4589 -2.68021 2.85783 0
M  V30 311 H 30.1559 -2.45015 3.1744 0
M  V30 312 H 26.7459 -1.33332 4.07333 0
M  V30 313 H 30.9299 -0.802145 4.89775 0
M  V30 314 H 26.1859 -0.0815408 6.11346 0
M  V30 315 H 30.3599 0.443049 6.94989 0
M  V30 316 H 27.9869 0.809314 7.5588 0
M  V30 317 N 29.562 -1.4872 -0.521534 0
M  V30 318 C 30.808 -1.574 -1.27879 0
M  V30 319 C 31.141 -0.250817 -1.92573 0
M  V30 320 O 30.416 0.743934 -1.79711 0
M  V30 321 C 30.699 -2.71843 -2.36164 0
M  V30 322 C 30.552 -4.13893 -1.76105 0
M  V30 323 C 31.871 -2.82008 -3.37875 0
M  V30 324 H 28.99 -0.572941 -0.463581 0
M  V30 325 H 31.632 -1.80927 -0.580119 0
M  V30 326 H 29.782 -2.51914 -2.95756 0
M  V30 327 H 31.454 -4.45284 -1.20499 0
M  V30 328 H 29.697 -4.20498 -1.06601 0
M  V30 329 H 30.368 -4.89804 -2.5455 0
M  V30 330 H 32.844 -3.00086 -2.88249 0
M  V30 331 H 31.72 -3.63796 -4.11028 0
M  V30 332 H 31.981 -1.90511 -3.98946 0
M  V30 333 N 31.0401 0.771051 -1.3745 0
M  V30 334 C 32.2881 1.52661 -1.32435 0
M  V30 335 C 32.6091 1.9479 0.0905024 0
M  V30 336 O 31.8791 1.66348 1.03466 0
M  V30 337 H 30.4591 0.566218 -0.487244 0
M  V30 338 H 33.1211 0.917636 -1.71946 0
M  V30 339 H 32.2171 2.42568 -1.96385 0
M  V30 340 N 32.5182 1.22032 0.997298 0
M  V30 341 C 33.4682 0.953838 2.07089 0
M  V30 342 C 34.4522 -0.0938669 1.60626 0
M  V30 343 O 35.6442 0.116078 1.76619 0
M  V30 344 C 32.7732 0.528726 3.39204 0
M  V30 345 C 31.8592 1.61092 3.92314 0
M  V30 346 N 32.2502 2.83768 4.18699 0
M  V30 347 C 30.5482 1.48158 4.20672 0
M  V30 348 C 31.2492 3.53715 4.61802 0
M  V30 349 N 30.2252 2.81174 4.65233 0
M  V30 350 H 34.0272 1.88577 2.25424 0
M  V30 351 H 31.5412 1.11719 1.17867 0
M  V30 352 H 33.5382 0.31915 4.15677 0
M  V30 353 H 32.1982 -0.39635 3.22272 0
M  V30 354 H 33.2092 3.20238 4.07023 0
M  V30 355 H 29.8862 0.622369 4.12835 0
M  V30 356 H 31.2762 4.58793 4.90875 0
M  V30 357 N 33.9963 -1.19345 1.0293 0
M  V30 358 C 34.9283 -2.22036 0.56857 0
M  V30 359 C 35.9413 -1.58865 -0.355779 0
M  V30 360 O 37.1303 -1.77851 -0.152103 0
M  V30 361 C 34.2303 -3.38363 -0.190752 0
M  V30 362 C 33.4033 -4.31118 0.738643 0
M  V30 363 C 32.4623 -5.26194 0.0246497 0
M  V30 364 O 31.4883 -5.65461 0.651354 0
M  V30 365 N 32.6903 -5.66971 -1.24594 0
M  V30 366 H 35.4553 -2.6219 1.45177 0
M  V30 367 H 33.0163 -1.34015 0.908381 0
M  V30 368 H 35.0083 -3.98981 -0.677961 0
M  V30 369 H 33.5783 -2.96994 -0.975366 0
M  V30 370 H 32.7983 -3.68276 1.40593 0
M  V30 371 H 34.0863 -4.90001 1.37029 0
M  V30 372 H 33.4843 -5.37104 -1.77583 0
M  V30 373 H 32.0413 -6.2984 -1.67764 0
M  V30 374 N 35.4744 -0.807222 -1.35358 0
M  V30 375 C 36.7204 -0.388463 -1.99045 0
M  V30 376 C 37.0534 1.04184 -1.63888 0
M  V30 377 O 36.3284 1.72292 -0.902535 0
M  V30 378 C 36.6114 -0.572783 -3.55515 0
M  V30 379 C 36.4644 -2.04807 -4.00468 0
M  V30 380 C 37.7834 0.00114064 -4.401 0
M  V30 381 H 34.9024 -0.142619 -0.723069 0
M  V30 382 H 37.5444 -1.01687 -1.60498 0
M  V30 383 H 35.6944 -0.0378425 -3.88482 0
M  V30 384 H 37.3664 -2.64544 -3.77908 0
M  V30 385 H 35.6094 -2.54427 -3.51353 0
M  V30 386 H 36.2804 -2.12792 -5.09337 0
M  V30 387 H 38.7564 -0.455716 -4.13597 0
M  V30 388 H 37.6324 -0.157737 -5.48673 0
M  V30 389 H 37.8934 1.09488 -4.28328 0
M  V30 390 N 36.9525 1.47285 -0.560781 0
M  V30 391 C 37.8825 2.32857 0.173105 0
M  V30 392 C 38.8635 1.44009 0.905281 0
M  V30 393 O 40.0485 1.7286 0.885046 0
M  V30 394 C 37.1785 3.25861 1.20133 0
M  V30 395 C 36.1325 4.23978 0.585388 0
M  V30 396 C 35.4585 5.06332 1.7185 0
M  V30 397 C 36.7585 5.20242 -0.463178 0
M  V30 398 H 38.4525 2.94466 -0.541307 0
M  V30 399 H 35.9985 1.41601 -0.261764 0
M  V30 400 H 37.9515 3.84569 1.72293 0
M  V30 401 H 36.6755 2.62315 1.94573 0
M  V30 402 H 35.3345 3.66501 0.085054 0
M  V30 403 H 34.9825 4.39186 2.45203 0
M  V30 404 H 34.6825 5.72762 1.31213 0
M  V30 405 H 36.2065 5.67899 2.24329 0
M  V30 406 H 37.6205 5.73293 -0.027502 0
M  V30 407 H 36.0175 5.94896 -0.788627 0
M  V30 408 H 37.0875 4.65504 -1.35773 0
M  V30 409 N 38.4306 0.297415 1.54768 0
M  V30 410 C 39.8466 -0.0560823 1.59501 0
M  V30 411 C 40.0466 -1.52725 1.31444 0
M  V30 412 O 39.1026 -2.27947 1.08611 0
M  V30 413 C 40.4156 0.338631 2.98787 0
M  V30 414 C 41.9636 0.287097 3.11681 0
M  V30 415 C 42.4386 0.656579 4.53269 0
M  V30 416 N 43.9296 0.608977 4.59179 0
M  V30 417 C 44.6646 0.867385 5.66802 0
M  V30 418 N 44.1606 1.19157 6.82476 0
M  V30 419 N 45.9536 0.794687 5.56454 0
M  V30 420 H 38.1046 1.25624 1.71267 0
M  V30 421 H 40.3676 0.509057 0.799728 0
M  V30 422 H 40.0736 1.36263 3.2423 0
M  V30 423 H 39.9476 -0.309508 3.75928 0
M  V30 424 H 42.3346 -0.727649 2.85988 0
M  V30 425 H 42.4156 0.969809 2.36703 0
M  V30 426 H 42.0596 1.66912 4.7969 0
M  V30 427 H 41.9896 -0.0481649 5.26578 0
M  V30 428 H 44.4806 0.369198 3.76092 0
M  V30 429 H 44.7936 1.37482 7.60473 0
M  V30 430 H 43.1386 1.22958 6.84037 0
M  V30 431 H 46.3296 0.541098 4.64962 0
M  V30 432 H 46.5026 0.999445 6.40246 0
M  V30 433 N 39.9087 -1.5758 0.0250728 0
M  V30 434 C 41.1577 -1.90811 -0.653767 0
M  V30 435 C 41.4707 -0.90273 -1.73523 0
M  V30 436 O 42.6767 -1.12614 -2.47043 0
M  V30 437 C 41.1327 -3.38804 -1.21409 0
M  V30 438 C 40.7407 -4.47692 -0.166126 0
M  V30 439 C 42.4847 -3.81108 -1.86967 0
M  V30 440 C 40.3917 -5.86779 -0.737856 0
M  V30 441 H 39.3217 -0.712063 -0.247956 0
M  V30 442 H 41.9727 -1.83281 0.0897137 0
M  V30 443 H 40.3547 -3.41252 -2.00905 0
M  V30 444 H 41.5287 -4.56797 0.606079 0
M  V30 445 H 39.8437 -4.14565 0.390466 0
M  V30 446 H 42.4407 -4.82375 -2.30692 0
M  V30 447 H 42.7837 -3.15953 -2.71071 0
M  V30 448 H 43.3167 -3.81065 -1.14167 0
M  V30 449 H 40.0557 -6.55468 0.0649577 0
M  V30 450 H 39.5757 -5.81288 -1.47864 0
M  V30 451 H 41.2547 -6.35223 -1.22884 0
M  V30 452 N 41.3868 0.248026 -1.55636 0
M  V30 453 C 42.6118 0.998028 -1.81808 0
M  V30 454 C 43.0368 1.78207 -0.601979 0
M  V30 455 O 42.3948 1.75653 0.448961 0
M  V30 456 C 42.4428 1.9125 -3.05705 0
M  V30 457 O 41.5468 3.00406 -2.82542 0
M  V30 458 H 40.8878 0.284045 -0.600179 0
M  V30 459 H 43.4178 0.269357 -2.02819 0
M  V30 460 H 43.4278 2.32737 -3.35108 0
M  V30 461 H 42.1028 1.33602 -3.93857 0
M  V30 462 H 40.6798 2.63056 -2.64303 0
M  V30 463 N 42.8649 1.48995 0.513639 0
M  V30 464 C 44.1109 1.58076 1.27042 0
M  V30 465 C 44.4439 0.261026 1.92438 0
M  V30 466 O 43.7189 -0.734393 1.80103 0
M  V30 467 C 44.0019 2.73091 2.34719 0
M  V30 468 C 43.8549 4.14821 1.73907 0
M  V30 469 C 45.1739 2.83796 3.36375 0
M  V30 470 H 42.2929 0.575391 0.460536 0
M  V30 471 H 44.9349 1.81232 0.570516 0
M  V30 472 H 43.0849 2.53479 2.94416 0
M  V30 473 H 44.7569 4.45917 1.18135 0
M  V30 474 H 42.9999 4.21058 1.0437 0
M  V30 475 H 43.6709 4.91147 2.51949 0
M  V30 476 H 46.1469 3.01611 2.86653 0
M  V30 477 H 45.0229 3.65971 4.09093 0
M  V30 478 H 45.2839 1.92624 3.9793 0
M  V30 479 N 44.343 -0.763751 1.37857 0
M  V30 480 C 45.306 -1.85889 1.34081 0
M  V30 481 C 46.306 -1.58949 0.243277 0
M  V30 482 O 47.496 -1.66882 0.499589 0
M  V30 483 C 44.628 -3.23176 1.08489 0
M  V30 484 H 45.821 -1.90648 2.31502 0
M  V30 485 H 43.374 -0.964367 1.23003 0
M  V30 486 H 44.109 -3.24091 0.116318 0
M  V30 487 H 43.894 -3.44124 1.8794 0
M  V30 488 H 45.384 -4.03254 1.08517 0
M  V30 489 N 45.8211 -1.22559 -0.990812 0
M  V30 490 C 47.0981 -0.959875 -1.70428 0
M  V30 491 C 47.4781 0.524455 -2.04481 0
M  V30 492 O 46.8261 1.49302 -1.72977 0
M  V30 493 C 47.0361 -1.85955 -2.95333 0
M  V30 494 C 48.3841 -2.11687 -3.68068 0
M  V30 495 O 49.4081 -1.8342 -3.05345 0
M  V30 496 O 48.2671 -2.59572 -4.80921 0
M  V30 497 H 45.3611 -0.361154 -0.743974 0
M  V30 498 H 47.9071 -1.33554 -1.04697 0
M  V30 499 H 46.6791 -2.86346 -2.66687 0
M  V30 500 H 46.3021 -1.4856 -3.68803 0
M  V30 501 N 47.2992 1.18797 -1.03562 0
M  V30 502 C 48.2092 2.25913 -0.632505 0
M  V30 503 C 49.2252 1.70668 0.338882 0
M  V30 504 O 50.4012 2.00453 0.195076 0
M  V30 505 C 47.4662 3.467 0.00350942 0
M  V30 506 C 46.5272 4.17098 -1.01624 0
M  V30 507 C 45.7602 5.32119 -0.410478 0
M  V30 508 O 45.9832 5.64976 0.784725 0
M  V30 509 O 44.9172 5.9107 -1.13667 0
M  V30 510 H 48.7432 2.62648 -1.52478 0
M  V30 511 H 46.3282 1.25781 -0.806195 0
M  V30 512 H 48.2102 4.19878 0.35781 0
M  V30 513 H 46.8852 3.11798 0.869686 0
M  V30 514 H 45.7922 3.4601 -1.42224 0
M  V30 515 H 47.1252 4.55987 -1.85301 0
M  V30 516 N 48.7773 0.814389 1.34928 0
M  V30 517 C 49.7403 0.235759 2.27984 0
M  V30 518 C 50.7403 -0.581412 1.49921 0
M  V30 519 O 51.9303 -0.398758 1.69575 0
M  V30 520 C 49.0623 -0.670433 3.34242 0
M  V30 521 H 50.2553 1.05659 2.80671 0
M  V30 522 H 47.8083 0.585614 1.44915 0
M  V30 523 H 48.5433 -1.51466 2.86755 0
M  V30 524 H 48.3283 -0.0860822 3.92005 0
M  V30 525 H 49.8183 -1.06935 4.03676 0
M  V30 526 N 50.2554 -1.46986 0.568584 0
M  V30 527 C 51.1874 -2.28233 -0.210337 0
M  V30 528 C 52.2004 -1.37682 -0.868767 0
M  V30 529 O 53.3894 -1.62406 -0.740705 0
M  V30 530 C 50.4894 -3.12293 -1.3163 0
M  V30 531 C 49.6624 -4.30878 -0.7525 0
M  V30 532 C 48.7214 -4.96445 -1.74439 0
M  V30 533 O 47.7474 -5.54482 -1.286 0
M  V30 534 N 48.9494 -4.92171 -3.07812 0
M  V30 535 H 51.7144 -2.95723 0.486648 0
M  V30 536 H 49.2754 -1.56742 0.405409 0
M  V30 537 H 51.2674 -3.53022 -1.97883 0
M  V30 538 H 49.8374 -2.46971 -1.91636 0
M  V30 539 H 49.0574 -3.94104 0.0871128 0
M  V30 540 H 50.3454 -5.07558 -0.35536 0
M  V30 541 H 49.7434 -4.46239 -3.47688 0
M  V30 542 H 48.3004 -5.36884 -3.69592 0
M  V30 543 N 51.7335 -0.305618 -1.54608 0
M  V30 544 C 52.9795 0.302746 -2.00528 0
M  V30 545 C 53.3125 1.53184 -1.19367 0
M  V30 546 O 52.5875 1.92598 -0.271321 0
M  V30 547 C 52.8705 0.654756 -3.54097 0
M  V30 548 C 52.7235 -0.583793 -4.45995 0
M  V30 549 C 54.0425 1.47947 -4.14487 0
M  V30 550 H 51.1615 0.108564 -0.72896 0
M  V30 551 H 53.8035 -0.418634 -1.85331 0
M  V30 552 H 51.9535 1.26935 -3.67178 0
M  V30 553 H 53.6255 -1.22224 -4.44814 0
M  V30 554 H 51.8685 -1.21615 -4.16404 0
M  V30 555 H 52.5395 -0.293287 -5.5122 0
M  V30 556 H 55.0155 0.96013 -4.04871 0
M  V30 557 H 53.8915 1.69454 -5.22088 0
M  V30 558 H 54.1525 2.47011 -3.66658 0
M  V30 559 N 53.2116 1.57565 -0.0334293 0
M  V30 560 C 54.1436 2.0739 0.975811 0
M  V30 561 C 55.1566 0.998166 1.2861 0
M  V30 562 O 56.3456 1.27426 1.25 0
M  V30 563 C 53.4456 2.4871 2.30209 0
M  V30 564 C 52.6186 3.79413 2.17634 0
M  V30 565 C 51.6776 4.07237 3.33233 0
M  V30 566 O 50.7036 4.77425 3.09927 0
M  V30 567 N 51.9056 3.5775 4.5716 0
M  V30 568 H 54.6706 2.94598 0.55066 0
M  V30 569 H 52.2316 1.61173 0.15323 0
M  V30 570 H 54.2236 2.64413 3.06378 0
M  V30 571 H 52.7936 1.66845 2.64351 0
M  V30 572 H 52.0136 3.73465 1.26165 0
M  V30 573 H 53.3016 4.65038 2.0644 0
M  V30 574 H 52.6996 3.00976 4.78989 0
M  V30 575 H 51.2566 3.78724 5.30482 0
M  V30 576 N 54.6897 -0.239769 1.55765 0
M  V30 577 C 55.6367 -1.29696 1.90913 0
M  V30 578 C 56.6067 -1.47478 0.764164 0
M  V30 579 O 57.7917 -1.61345 1.01845 0
M  V30 580 C 54.9317 -2.64598 2.21544 0
M  V30 581 C 54.0447 -2.54765 3.48882 0
M  V30 582 C 53.1797 -3.82069 3.69049 0
M  V30 583 C 52.2187 -3.66883 4.89963 0
M  V30 584 N 51.3557 -4.86094 5.06614 0
M  V30 585 H 56.1957 -0.990224 2.81067 0
M  V30 586 H 53.7327 -0.477684 1.39128 0
M  V30 587 H 55.6907 -3.43132 2.3731 0
M  V30 588 H 54.3207 -2.93405 1.34585 0
M  V30 589 H 53.3727 -1.67763 3.41409 0
M  V30 590 H 54.6847 -2.39457 4.37563 0
M  V30 591 H 53.8387 -4.69046 3.84812 0
M  V30 592 H 52.5777 -4.00282 2.78614 0
M  V30 593 H 51.5827 -2.78289 4.74168 0
M  V30 594 H 52.8077 -3.50157 5.81865 0
M  V30 595 H 50.7537 -5.04655 4.19117 0
M  V30 596 H 50.6707 -4.73443 5.89396 0
M  V30 597 H 51.9387 -5.74549 5.26795 0
M  V30 598 N 56.1678 -1.49265 -0.50573 0
M  V30 599 C 57.4138 -1.58748 -1.26202 0
M  V30 600 C 57.7468 -0.271227 -1.92297 0
M  V30 601 O 57.0218 0.724831 -1.80489 0
M  V30 602 C 57.3048 -2.74332 -2.33268 0
M  V30 603 C 57.1578 -4.15737 -1.71705 0
M  V30 604 C 58.4768 -2.85576 -3.34865 0
M  V30 605 H 55.5958 -0.577826 -0.457478 0
M  V30 606 H 58.2378 -1.81532 -0.560897 0
M  V30 607 H 56.3878 -2.55036 -2.93068 0
M  V30 608 H 58.0598 -4.46537 -1.15769 0
M  V30 609 H 56.3028 -4.21605 -1.02135 0
M  V30 610 H 56.9738 -4.92477 -2.49341 0
M  V30 611 H 59.4498 -3.03127 -2.8505 0
M  V30 612 H 58.3258 -3.68135 -4.07146 0
M  V30 613 H 58.5868 -1.94732 -3.96903 0
M  V30 614 N 57.6459 0.756429 -1.3826 0
M  V30 615 C 58.5929 1.87011 -1.35261 0
M  V30 616 C 59.5629 1.64695 -0.215616 0
M  V30 617 O 60.7479 1.864 -0.407399 0
M  V30 618 C 57.8879 3.24275 -1.18068 0
M  V30 619 C 57.0009 3.58442 -2.41129 0
M  V30 620 C 56.1359 4.84994 -2.16689 0
M  V30 621 C 55.1749 5.11939 -3.35537 0
M  V30 622 N 54.3119 6.29685 -3.10549 0
M  V30 623 H 59.1519 1.8891 -2.30472 0
M  V30 624 H 56.6889 0.923373 -1.14509 0
M  V30 625 H 58.6469 4.03479 -1.06116 0
M  V30 626 H 57.2769 3.21711 -0.264973 0
M  V30 627 H 56.3289 2.74103 -2.63764 0
M  V30 628 H 57.6409 3.74283 -3.29717 0
M  V30 629 H 56.7949 5.72135 -2.01857 0
M  V30 630 H 55.5339 4.71286 -1.25462 0
M  V30 631 H 54.5389 4.23268 -3.50891 0
M  V30 632 H 55.7639 5.27546 -4.27635 0
M  V30 633 H 53.7099 6.17306 -2.21967 0
M  V30 634 H 53.6269 6.46014 -3.92686 0
M  V30 635 H 54.8949 7.19722 -2.99367 0
M  V30 636 N 59.124 1.23083 0.984299 0
M  V30 637 C 60.034 1.02515 2.11016 0
M  V30 638 C 61.05 -0.0291702 1.73976 0
M  V30 639 O 62.226 0.165434 2.00719 0
M  V30 640 C 59.291 0.614673 3.41208 0
M  V30 641 C 58.352 1.74359 3.92297 0
M  V30 642 C 57.585 1.35261 5.16275 0
M  V30 643 O 57.808 0.235136 5.69915 0
M  V30 644 O 56.742 2.17227 5.61334 0
M  V30 645 H 60.568 1.96862 2.31255 0
M  V30 646 H 58.153 1.01753 1.09392 0
M  V30 647 H 60.035 0.396518 4.1953 0
M  V30 648 H 58.71 -0.299851 3.22308 0
M  V30 649 H 57.617 2.01635 3.1511 0
M  V30 650 H 58.95 2.63629 4.15645 0
M  V30 651 N 60.6021 -1.18246 1.0419 0
M  V30 652 C 61.5321 -2.24127 0.654914 0
M  V30 653 C 62.5131 -1.66617 -0.342451 0
M  V30 654 O 63.6981 -1.92924 -0.222277 0
M  V30 655 C 60.8281 -3.47295 0.0183757 0
M  V30 656 C 59.7821 -4.17563 0.939414 0
M  V30 657 C 59.1081 -5.34438 0.167286 0
M  V30 658 C 60.4081 -4.70917 2.25908 0
M  V30 659 H 62.1021 -2.56753 1.54007 0
M  V30 660 H 59.6481 -1.23414 0.74195 0
M  V30 661 H 61.6011 -4.20572 -0.264082 0
M  V30 662 H 60.3251 -3.13907 -0.901664 0
M  V30 663 H 58.9841 -3.46186 1.20628 0
M  V30 664 H 58.6321 -4.97298 -0.7552 0
M  V30 665 H 58.3321 -5.82388 0.780901 0
M  V30 666 H 59.8561 -6.10504 -0.108125 0
M  V30 667 H 61.2701 -5.35882 2.03724 0
M  V30 668 H 59.6671 -5.29406 2.82577 0
M  V30 669 H 60.7371 -3.88272 2.9047 0
M  V30 670 N 62.0802 -0.821533 -1.34494 0
M  V30 671 C 62.9902 -0.244355 -2.33324 0
M  V30 672 C 64.0062 0.620527 -1.62559 0
M  V30 673 O 65.1822 0.528754 -1.94335 0
M  V30 674 C 62.2472 0.585368 -3.41723 0
M  V30 675 C 61.3082 -0.301752 -4.28238 0
M  V30 676 C 60.5412 0.488466 -5.3146 0
M  V30 677 O 60.7642 1.72186 -5.4379 0
M  V30 678 O 59.6982 -0.12848 -6.01763 0
M  V30 679 H 63.5242 -1.06231 -2.84515 0
M  V30 680 H 61.1092 -0.583645 -1.37528 0
M  V30 681 H 62.9912 1.05747 -4.07916 0
M  V30 682 H 61.6662 1.38068 -2.92778 0
M  V30 683 H 60.5732 -0.821315 -3.64973 0
M  V30 684 H 61.9062 -1.06138 -4.8062 0
M  V30 685 N 63.5583 1.46682 -0.576371 0
M  V30 686 C 64.8353 1.95599 0.00703437 0
M  V30 687 C 65.2153 1.51904 1.46589 0
M  V30 688 O 64.5633 0.766755 2.15251 0
M  V30 689 C 64.7733 3.4864 -0.158404 0
M  V30 690 C 66.1213 4.24594 -0.0229439 0
M  V30 691 O 67.1453 3.56094 -0.0869173 0
M  V30 692 O 66.0043 5.46373 0.118015 0
M  V30 693 H 63.0983 0.825275 0.053384 0
M  V30 694 H 65.6443 1.56996 -0.644244 0
M  V30 695 H 64.4163 3.7331 -1.17282 0
M  V30 696 H 64.0393 3.94057 0.5296 0
M  V30 697 N 65.0364 0.313813 1.54444 0
M  V30 698 C 65.9664 -0.549454 2.26943 0
M  V30 699 C 66.9474 -1.12741 1.27372 0
M  V30 700 O 68.1324 -1.15436 1.56167 0
M  V30 701 C 65.2624 -1.71523 3.01989 0
M  V30 702 C 64.2164 -1.26703 4.08816 0
M  V30 703 C 63.5424 -2.51898 4.71647 0
M  V30 704 C 64.8424 -0.388962 5.2085 0
M  V30 705 H 66.5364 0.0552661 2.99349 0
M  V30 706 H 64.0824 0.0280207 1.43973 0
M  V30 707 H 66.0354 -2.32535 3.51433 0
M  V30 708 H 64.7594 -2.34639 2.27183 0
M  V30 709 H 63.4184 -0.679896 3.6024 0
M  V30 710 H 63.0664 -3.13356 3.93468 0
M  V30 711 H 62.7664 -2.22605 5.43802 0
M  V30 712 H 64.2904 -3.1369 5.23861 0
M  V30 713 H 65.7044 -0.905107 5.6611 0
M  V30 714 H 64.1014 -0.18924 5.99802 0
M  V30 715 H 65.1714 0.582699 4.81386 0
M  V30 716 N 66.5145 -1.57545 0.0417849 0
M  V30 717 C 67.4245 -2.14451 -0.951213 0
M  V30 718 C 68.4405 -1.09992 -1.34825 0
M  V30 719 O 69.6165 -1.42114 -1.42708 0
M  V30 720 C 66.6815 -2.67063 -2.21084 0
M  V30 721 C 65.7425 -3.86284 -1.87304 0
M  V30 722 C 64.9755 -4.36378 -3.07261 0
M  V30 723 O 65.1985 -3.85587 -4.20332 0
M  V30 724 O 64.1325 -5.28077 -2.88822 0
M  V30 725 H 67.9585 -2.99601 -0.497287 0
M  V30 726 H 65.5435 -1.48317 -0.179567 0
M  V30 727 H 67.4255 -3.00914 -2.95006 0
M  V30 728 H 66.1005 -1.84989 -2.65633 0
M  V30 729 H 65.0075 -3.57338 -1.10727 0
M  V30 730 H 66.3405 -4.6956 -1.47562 0
M  V30 731 N 67.9926 0.231505 -1.5589 0
M  V30 732 C 68.9426 1.29007 -1.87993 0
M  V30 733 C 69.9266 1.42764 -0.742102 0
M  V30 734 O 71.1186 1.45747 -1.00433 0
M  V30 735 C 68.2476 2.6425 -2.1915 0
M  V30 736 C 67.3336 2.54435 -3.39299 0
M  V30 737 N 67.7246 2.14262 -4.58176 0
M  V30 738 C 66.0226 2.85416 -3.42715 0
M  V30 739 C 66.7236 2.15455 -5.40328 0
M  V30 740 N 65.6996 2.55558 -4.79783 0
M  V30 741 H 69.5016 0.970213 -2.77424 0
M  V30 742 H 67.0156 0.440097 -1.56323 0
M  V30 743 H 69.0126 3.40665 -2.40319 0
M  V30 744 H 67.6726 2.9709 -1.31025 0
M  V30 745 H 68.6836 1.85554 -4.83518 0
M  V30 746 H 65.3606 3.22693 -2.64906 0
M  V30 747 H 66.7506 1.86605 -6.45467 0
M  V30 748 N 69.4707 1.49531 0.497807 0
M  V30 749 C 70.4007 1.6935 1.60757 0
M  V30 750 C 71.3817 0.542218 1.61227 0
M  V30 751 O 72.5667 0.778417 1.77917 0
M  V30 752 C 69.6967 1.76298 2.99226 0
M  V30 753 C 68.6507 2.91248 3.13622 0
M  V30 754 C 67.9767 2.83312 4.53474 0
M  V30 755 C 69.2767 4.3214 2.93346 0
M  V30 756 H 70.9707 2.62263 1.44425 0
M  V30 757 H 68.5167 1.26208 0.693367 0
M  V30 758 H 70.4697 1.88749 3.76765 0
M  V30 759 H 69.1937 0.799871 3.16654 0
M  V30 760 H 67.8527 2.78404 2.38509 0
M  V30 761 H 67.5007 1.84902 4.67782 0
M  V30 762 H 67.2007 3.60465 4.64046 0
M  V30 763 H 68.7247 2.97775 5.33069 0
M  V30 764 H 70.1387 4.45649 3.60652 0
M  V30 765 H 68.5357 5.1054 3.15387 0
M  V30 766 H 69.6057 4.46363 1.89441 0
M  V30 767 N 70.9488 -0.749086 1.3866 0
M  V30 768 C 71.8808 -1.87273 1.32142 0
M  V30 769 C 72.8938 -1.61127 0.232787 0
M  V30 770 O 74.0828 -1.71623 0.49069 0
M  V30 771 C 71.1828 -3.23005 1.02571 0
M  V30 772 C 70.3558 -3.7662 2.22433 0
M  V30 773 C 69.4148 -4.90879 1.89537 0
M  V30 774 O 68.4408 -5.05276 2.62078 0
M  V30 775 N 69.6428 -5.74198 0.853031 0
M  V30 776 H 72.4078 -1.93373 2.28969 0
M  V30 777 H 69.9688 -0.929216 1.32579 0
M  V30 778 H 71.9608 -3.96992 0.786085 0
M  V30 779 H 70.5308 -3.12262 0.145249 0
M  V30 780 H 69.7508 -2.94147 2.62434 0
M  V30 781 H 71.0388 -4.09173 3.02415 0
M  V30 782 H 70.4368 -5.6514 0.25155 0
M  V30 783 H 68.9938 -6.48313 0.67329 0
M  V30 784 N 72.4269 -1.23603 -0.977757 0
M  V30 785 C 73.3569 -1.04401 -2.0886 0
M  V30 786 C 74.3379 0.0399052 -1.70053 0
M  V30 787 O 75.5229 -0.125246 -1.93796 0
M  V30 788 C 72.6529 -0.637269 -3.41403 0
M  V30 789 C 71.6069 -1.66883 -3.94124 0
M  V30 790 C 70.9329 -1.11745 -5.22893 0
M  V30 791 C 72.2329 -3.06247 -4.23096 0
M  V30 792 H 73.9269 -1.97316 -2.25182 0
M  V30 793 H 71.4729 -0.950096 -1.08209 0
M  V30 794 H 73.4259 -0.48998 -4.18542 0
M  V30 795 H 72.1499 0.327557 -3.24953 0
M  V30 796 H 70.8089 -1.80416 -3.19133 0
M  V30 797 H 70.4569 -0.143527 -5.02795 0
M  V30 798 H 70.1569 -1.80672 -5.59134 0
M  V30 799 H 71.6809 -0.982067 -6.02651 0
M  V30 800 H 73.0949 -2.96001 -4.90975 0
M  V30 801 H 71.4919 -3.72436 -4.70544 0
M  V30 802 H 72.5619 -3.55041 -3.30263 0
M  V30 803 N 73.905 1.17692 -1.04816 0
M  V30 804 C 75.182 1.83768 -0.669963 0
M  V30 805 C 75.562 1.93232 0.849986 0
M  V30 806 O 74.91 1.46397 1.75443 0
M  V30 807 C 75.12 3.21641 -1.35455 0
M  V30 808 C 76.468 3.97592 -1.49017 0
M  V30 809 O 77.492 3.31107 -1.31326 0
M  V30 810 O 76.351 5.16729 -1.77914 0
M  V30 811 H 73.445 0.792799 -0.235368 0
M  V30 812 H 75.991 1.25021 -1.14751 0
M  V30 813 H 74.763 3.097 -2.39168 0
M  V30 814 H 74.386 3.88052 -0.866107 0
M  V30 815 N 75.3831 0.828654 1.34056 0
M  V30 816 C 76.6301 0.419458 1.98108 0
M  V30 817 C 76.9581 -1.01886 1.65679 0
M  V30 818 O 76.2131 -1.72539 0.923512 0
M  V30 819 C 76.5121 0.575226 3.52741 0
M  V30 820 C 76.1781 1.98012 4.05095 0
M  V30 821 C 74.8401 2.36442 4.19104 0
M  V30 822 C 77.1921 2.89824 4.33188 0
M  V30 823 C 74.5201 3.66009 4.58535 0
M  V30 824 C 76.8721 4.1886 4.74066 0
M  V30 825 C 75.5361 4.5726 4.86281 0
M  V30 826 H 74.8061 0.153491 0.724929 0
M  V30 827 H 77.4531 1.05371 1.59904 0
M  V30 828 H 75.7581 -0.142385 3.91541 0
M  V30 829 H 77.4551 0.239057 4.00287 0
M  V30 830 H 74.0451 1.67162 3.94658 0
M  V30 831 H 78.2291 2.61375 4.21897 0
M  V30 832 H 73.4851 3.95579 4.66184 0
M  V30 833 H 77.6591 4.90086 4.94761 0
M  V30 834 H 75.2861 5.57707 5.16592 0
M  V30 835 N 76.8612 -1.46375 0.584142 0
M  V30 836 C 78.1072 -2.03248 0.0787103 0
M  V30 837 C 78.4622 -1.44737 -1.26763 0
M  V30 838 O 77.7552 -0.603625 -1.81843 0
M  V30 839 C 77.9492 -3.57373 -0.0439342 0
M  V30 840 C 77.7782 -4.30831 1.28897 0
M  V30 841 C 76.5482 -4.69683 1.8635 0
M  V30 842 C 78.7462 -4.64278 2.21248 0
M  V30 843 N 76.7282 -5.27898 3.13365 0
M  V30 844 C 78.0992 -5.23078 3.32851 0
M  V30 845 C 80.1542 -4.46209 2.20911 0
M  V30 846 C 78.8572 -5.65715 4.44251 0
M  V30 847 C 80.8832 -4.89864 3.31341 0
M  V30 848 C 80.2452 -5.48736 4.41665 0
M  V30 849 H 76.3442 -0.778714 0.0716144 0
M  V30 850 H 78.9282 -1.78509 0.777355 0
M  V30 851 H 77.0992 -3.81823 -0.711749 0
M  V30 852 H 78.8312 -4.00892 -0.553881 0
M  V30 853 H 75.5862 -4.52488 1.39826 0
M  V30 854 H 76.0102 -5.61525 3.78178 0
M  V30 855 H 80.6522 -4.00027 1.36888 0
M  V30 856 H 78.3702 -6.10875 5.29015 0
M  V30 857 H 81.9562 -4.77634 3.322 0
M  V30 858 H 80.8362 -5.81898 5.25704 0
M  V30 859 N 78.3393 -0.321999 -1.54275 0
M  V30 860 C 79.7553 0.0306999 -1.5957 0
M  V30 861 C 79.9553 1.50614 -1.33857 0
M  V30 862 O 79.0113 2.2619 -1.12223 0
M  V30 863 C 80.3243 -0.386122 -2.98211 0
M  V30 864 C 81.8723 -0.336647 -3.11184 0
M  V30 865 C 82.3473 -0.728607 -4.52167 0
M  V30 866 N 83.8383 -0.681952 -4.58152 0
M  V30 867 C 84.5733 -0.957449 -5.6535 0
M  V30 868 N 84.0693 -1.3 -6.80494 0
M  V30 869 N 85.8623 -0.883113 -5.55119 0
M  V30 870 H 78.0133 -1.28332 -1.69247 0
M  V30 871 H 80.2763 -0.521716 -0.791528 0
M  V30 872 H 79.9823 -1.41404 -3.22022 0
M  V30 873 H 79.8563 0.249662 -3.76373 0
M  V30 874 H 82.2433 0.682058 -2.8711 0
M  V30 875 H 82.3243 -1.00734 -2.3513 0
M  V30 876 H 81.9683 -1.74522 -4.76974 0
M  V30 877 H 81.8983 -0.0356152 -5.26588 0
M  V30 878 H 84.3893 -0.428985 -3.75457 0
M  V30 879 H 84.7023 -1.49563 -7.58189 0
M  V30 880 H 83.0473 -1.33824 -6.81994 0
M  V30 881 H 86.2383 -0.615001 -4.64042 0
M  V30 882 H 86.4113 -1.10118 -6.38575 0
M  V30 883 N 79.8174 1.5752 -0.0501392 0
M  V30 884 C 81.0654 1.9227 0.622642 0
M  V30 885 C 81.3864 0.929083 1.71444 0
M  V30 886 O 80.6564 -0.0262186 1.95882 0
M  V30 887 H 79.2364 0.709739 0.232981 0
M  V30 888 H 81.8984 1.94628 -0.102898 0
M  V30 889 H 80.9944 2.93479 1.06191 0
M  V30 890 N 81.2955 -0.223234 1.56011 0
M  V30 891 C 82.7065 -0.790368 1.69145 0
M  V30 892 C 83.0575 -1.85055 0.651845 0
M  V30 893 O 82.1825 -2.15498 -0.197359 0
M  V30 894 C 82.7775 -1.4404 3.06656 0
M  V30 895 C 81.3365 -1.95494 3.2165 0
M  V30 896 C 80.4835 -0.814506 2.65068 0
M  V30 897 H 83.4345 0.00139011 1.587 0
M  V30 898 H 83.4555 -2.30916 3.0242 0
M  V30 899 H 82.9675 -0.668543 3.82298 0
M  V30 900 H 81.0685 -2.75487 2.50874 0
M  V30 901 H 81.1815 -2.13607 4.28846 0
M  V30 902 H 79.5455 -1.22137 2.23505 0
M  V30 903 H 80.3285 -0.0553515 3.43255 0
M  V30 904 N 82.7736 -1.49793 -0.48987 0
M  V30 905 C 83.7366 -1.66752 -1.57246 0
M  V30 906 C 84.7366 -0.538867 -1.51502 0
M  V30 907 O 85.9266 -0.805545 -1.54456 0
M  V30 908 C 83.0586 -1.67528 -2.96896 0
M  V30 909 H 84.2516 -2.63321 -1.43534 0
M  V30 910 H 81.8046 -1.38992 -0.714914 0
M  V30 911 H 82.5396 -0.725837 -3.16073 0
M  V30 912 H 82.3246 -2.49504 -3.02473 0
M  V30 913 H 83.8146 -1.82667 -3.7553 0
M  V30 914 N 84.2517 0.741722 -1.39055 0
M  V30 915 C 85.2017 1.84661 -1.33732 0
M  V30 916 C 86.1857 1.59397 -0.219401 0
M  V30 917 O 87.3777 1.71015 -0.456375 0
M  V30 918 C 84.5067 3.22512 -1.17647 0
M  V30 919 C 83.5927 3.53628 -2.34112 0
M  V30 920 N 83.9837 3.55723 -3.59576 0
M  V30 921 C 82.2817 3.83956 -2.26923 0
M  V30 922 C 82.9827 3.84443 -4.36553 0
M  V30 923 N 81.9587 4.01877 -3.66055 0
M  V30 924 H 85.7607 1.84576 -2.28711 0
M  V30 925 H 83.2747 0.939647 -1.32455 0
M  V30 926 H 85.2717 4.01597 -1.11917 0
M  V30 927 H 83.9317 3.2384 -0.236124 0
M  V30 928 H 84.9427 3.37196 -3.93089 0
M  V30 929 H 81.6197 3.92929 -1.41113 0
M  V30 930 H 83.0097 3.92588 -5.45274 0
M  V30 931 N 85.7298 1.2412 0.971189 0
M  V30 932 C 87.1408 1.07236 1.52831 0
M  V30 933 C 87.4918 -0.357352 1.92918 0
M  V30 934 O 86.6168 -1.24528 1.76979 0
M  V30 935 C 87.2118 1.94043 2.77728 0
M  V30 936 C 85.7708 1.81394 3.29808 0
M  V30 937 C 84.9178 1.89189 2.02738 0
M  V30 938 H 87.8688 1.37648 0.789864 0
M  V30 939 H 87.8898 1.47066 3.5093 0
M  V30 940 H 87.4018 2.98093 2.4852 0
M  V30 941 H 85.5028 0.801634 3.63874 0
M  V30 942 H 85.6158 2.65294 3.98944 0
M  V30 943 H 83.9798 1.32877 2.17292 0
M  V30 944 H 84.7628 2.94812 1.759 0
M  V30 945 N 87.2079 -1.17134 1.05439 0
M  V30 946 C 88.4559 -1.87085 0.764429 0
M  V30 947 C 88.7769 -1.81584 -0.710787 0
M  V30 948 O 88.0469 -1.24349 -1.51374 0
M  V30 949 H 86.6269 -0.692627 0.279779 0
M  V30 950 H 89.2889 -1.42087 1.33406 0
M  V30 951 H 88.3849 -2.92759 1.0816 0
M  V30 952 N 88.686 -0.835752 -1.33615 0
M  V30 953 C 89.911 -0.442389 -2.02627 0
M  V30 954 C 90.336 0.947735 -1.62479 0
M  V30 955 O 89.694 1.61907 -0.815826 0
M  V30 956 C 89.742 -0.567216 -3.56111 0
M  V30 957 O 88.846 0.407799 -4.10379 0
M  V30 958 H 88.187 -0.180278 -0.639059 0
M  V30 959 H 90.717 -1.12972 -1.70583 0
M  V30 960 H 90.727 -0.447708 -4.05536 0
M  V30 961 H 89.402 -1.58103 -3.84677 0
M  V30 962 H 87.979 0.246107 -3.72087 0
M  V30 963 N 90.1641 1.46063 -0.591896 0
M  V30 964 C 91.5751 1.85944 -0.167822 0
M  V30 965 C 91.9261 1.49429 1.27143 0
M  V30 966 O 91.0511 0.913515 1.96173 0
M  V30 967 C 91.6461 3.37489 -0.297794 0
M  V30 968 C 90.2051 3.76332 0.0714732 0
M  V30 969 C 89.3521 2.7006 -0.629509 0
M  V30 970 H 92.3031 1.37087 -0.799555 0
M  V30 971 H 92.3241 3.77532 0.474349 0
M  V30 972 H 91.8361 3.64034 -1.3454 0
M  V30 973 H 89.9371 3.55405 1.11886 0
M  V30 974 H 90.0501 4.78088 -0.311245 0
M  V30 975 H 88.4141 2.54607 -0.0687867 0
M  V30 976 H 89.1971 2.99444 -1.67894 0
M  V30 977 N 91.6422 0.330177 1.54103 0
M  V30 978 C 92.8912 -0.271336 1.99867 0
M  V30 979 C 93.2042 -1.52723 1.22209 0
M  V30 980 O 94.4102 -2.20515 1.58383 0
M  V30 981 C 92.8662 -0.534032 3.55916 0
M  V30 982 C 92.4742 0.705193 4.42415 0
M  V30 983 C 94.2182 -1.09514 4.1013 0
M  V30 984 C 92.1252 0.414035 5.89949 0
M  V30 985 H 91.0552 -0.105166 0.74663 0
M  V30 986 H 93.7062 0.443429 1.78062 0
M  V30 987 H 92.0882 -1.30915 3.73734 0
M  V30 988 H 93.2622 1.4804 4.36372 0
M  V30 989 H 91.5772 1.18698 3.99124 0
M  V30 990 H 94.1742 -1.3277 5.17954 0
M  V30 991 H 94.5172 -2.04656 3.62521 0
M  V30 992 H 95.0502 -0.381038 3.95971 0
M  V30 993 H 91.7892 1.33481 6.41766 0
M  V30 994 H 91.3092 -0.323336 5.98928 0
M  V30 995 H 92.9882 0.0263105 6.46995 0
M  V30 996 N 93.1203 -1.57491 0.0584922 0
M  V30 997 C 94.3973 -1.84346 -0.653918 0
M  V30 998 C 94.7773 -0.948355 -1.88599 0
M  V30 999 O 94.1253 -0.0112403 -2.28497 0
M  V30 1000 C 94.3353 -3.34239 -1.00425 0
M  V30 1001 C 95.6833 -4.01431 -1.38342 0
M  V30 1002 O 96.7073 -3.38907 -1.09637 0
M  V30 1003 O 95.5663 -5.11683 -1.91943 0
M  V30 1004 H 92.6603 -0.761112 -0.323478 0
M  V30 1005 H 95.2063 -1.6947 0.0884125 0
M  V30 1006 H 93.9783 -3.91089 -0.128625 0
M  V30 1007 H 93.6013 -3.54329 -1.80378 0
M  V30 1008 N 94.5984 0.214957 -1.56127 0
M  V30 1009 C 95.8444 0.939762 -1.79712 0
M  V30 1010 C 96.1774 1.83723 -0.629247 0
M  V30 1011 O 95.4524 1.90925 0.371197 0
M  V30 1012 C 95.7354 1.77306 -3.13424 0
M  V30 1013 C 95.5884 0.90164 -4.40671 0
M  V30 1014 C 96.9074 2.74956 -3.43638 0
M  V30 1015 H 94.0264 0.340214 -0.653776 0
M  V30 1016 H 96.6684 0.20824 -1.88855 0
M  V30 1017 H 94.8184 2.39673 -3.0576 0
M  V30 1018 H 96.4904 0.294206 -4.60361 0
M  V30 1019 H 94.7334 0.207368 -4.33304 0
M  V30 1020 H 95.4044 1.51923 -5.30682 0
M  V30 1021 H 97.8804 2.22724 -3.51473 0
M  V30 1022 H 96.7564 3.30358 -4.38355 0
M  V30 1023 H 97.0174 3.53023 -2.66134 0
M  V30 1024 N 96.0765 1.50051 0.48192 0
M  V30 1025 C 97.4925 1.37237 0.814756 0
M  V30 1026 C 97.6925 0.420109 1.97072 0
M  V30 1027 O 96.7485 -0.141246 2.52105 0
M  V30 1028 C 98.0615 2.78375 1.13701 0
M  V30 1029 C 99.6095 2.87213 1.2441 0
M  V30 1030 C 100.084 4.29161 1.59954 0
M  V30 1031 N 101.575 4.32061 1.66967 0
M  V30 1032 C 102.31 5.38879 1.95952 0
M  V30 1033 N 101.806 6.55918 2.23031 0
M  V30 1034 N 103.599 5.26312 1.97363 0
M  V30 1035 H 95.7505 2.10546 -0.28005 0
M  V30 1036 H 98.0135 0.945921 -0.0627454 0
M  V30 1037 H 97.7195 3.49845 0.360787 0
M  V30 1038 H 97.5935 3.14941 2.07586 0
M  V30 1039 H 99.9805 2.15969 2.01101 0
M  V30 1040 H 100.061 2.54204 0.285299 0
M  V30 1041 H 99.7055 5.00938 0.838067 0
M  V30 1042 H 99.6355 4.59648 2.56966 0
M  V30 1043 H 102.126 3.47661 1.48123 0
M  V30 1044 H 102.439 7.33139 2.44391 0
M  V30 1045 H 100.784 6.59112 2.20447 0
M  V30 1046 H 103.975 4.33876 1.75697 0
M  V30 1047 H 104.148 6.09649 2.19618 0
M  V30 1048 N 97.5546 -0.734337 1.39446 0
M  V30 1049 C 98.8006 -1.49613 1.36908 0
M  V30 1050 C 99.1336 -1.94169 -0.0347829 0
M  V30 1051 O 98.4086 -1.66833 -0.999847 0
M  V30 1052 C 98.6916 -2.73534 2.34203 0
M  V30 1053 C 98.5446 -2.34993 3.83534 0
M  V30 1054 C 99.8636 -3.75635 2.29317 0
M  V30 1055 H 96.9826 -0.542714 0.498629 0
M  V30 1056 H 99.6246 -0.839597 1.70443 0
M  V30 1057 H 97.7746 -3.29553 2.05736 0
M  V30 1058 H 99.4466 -1.84601 4.22753 0
M  V30 1059 H 97.6896 -1.67213 4.00278 0
M  V30 1060 H 98.3606 -3.23738 4.47099 0
M  V30 1061 H 100.837 -3.29203 2.54489 0
M  V30 1062 H 99.7126 -4.60008 2.99472 0
M  V30 1063 H 99.9736 -4.22603 1.29842 0
M  V30 1064 N 99.0327 -1.24633 -0.964593 0
M  V30 1065 C 100.444 -1.08045 -1.5226 0
M  V30 1066 C 100.795 0.347116 -1.93105 0
M  V30 1067 O 99.9197 1.23588 -1.77637 0
M  V30 1068 C 100.515 -1.95514 -2.76695 0
M  V30 1069 C 99.0737 -1.8314 -3.28841 0
M  V30 1070 C 98.2207 -1.90262 -2.01732 0
M  V30 1071 H 101.172 -1.38064 -0.782553 0
M  V30 1072 H 101.193 -1.48925 -3.50145 0
M  V30 1073 H 100.705 -2.99407 -2.46936 0
M  V30 1074 H 98.8057 -0.82092 -3.63444 0
M  V30 1075 H 98.9187 -2.67406 -3.97531 0
M  V30 1076 H 97.2827 -1.34027 -2.16584 0
M  V30 1077 H 98.0657 -2.9574 -1.74334 0
M  V30 1078 N 100.511 1.16574 -1.06058 0
M  V30 1079 C 101.758 1.87047 -0.775873 0
M  V30 1080 C 102.086 1.81562 0.697534 0
M  V30 1081 O 101.341 1.22445 1.52662 0
M  V30 1082 C 101.64 3.36195 -1.21275 0
M  V30 1083 C 101.306 3.6188 -2.68986 0
M  V30 1084 C 99.9678 3.68599 -3.09335 0
M  V30 1085 C 102.32 3.72648 -3.64394 0
M  V30 1086 C 99.6478 3.83584 -4.43937 0
M  V30 1087 C 102 3.89154 -4.98741 0
M  V30 1088 C 100.664 3.94114 -5.3873 0
M  V30 1089 H 99.9338 0.684452 -0.283912 0
M  V30 1090 H 102.581 1.37853 -1.32925 0
M  V30 1091 H 100.886 3.87505 -0.578528 0
M  V30 1092 H 102.583 3.89103 -0.969542 0
M  V30 1093 H 99.1728 3.57281 -2.36744 0
M  V30 1094 H 103.357 3.66769 -3.34356 0
M  V30 1095 H 98.6128 3.85677 -4.74409 0
M  V30 1096 H 102.787 3.96427 -5.72554 0
M  V30 1097 H 100.414 4.05478 -6.43033 0
M  V30 1098 N 101.989 0.842826 1.3317 0
M  V30 1099 C 103.4 0.496651 1.79973 0
M  V30 1100 C 103.751 -0.984641 1.69703 0
M  V30 1101 O 102.876 -1.76743 1.24863 0
M  V30 1102 C 103.471 0.894727 3.26772 0
M  V30 1103 C 102.03 0.600629 3.71577 0
M  V30 1104 C 101.177 1.10091 2.5451 0
M  V30 1105 H 104.128 1.03116 1.20635 0
M  V30 1106 H 104.149 0.206347 3.7994 0
M  V30 1107 H 103.661 1.97287 3.34215 0
M  V30 1108 H 101.762 -0.467284 3.69658 0
M  V30 1109 H 101.875 1.15863 4.64879 0
M  V30 1110 H 100.239 0.52162 2.49301 0
M  V30 1111 H 101.022 2.18591 2.64713 0
M  V30 1112 N 103.467 -1.45747 0.599634 0
M  V30 1113 C 104.692 -2.07178 0.0960198 0
M  V30 1114 C 105.117 -1.44268 -1.207 0
M  V30 1115 O 104.475 -0.532503 -1.73303 0
M  V30 1116 C 104.523 -3.60579 -0.0385348 0
M  V30 1117 O 103.627 -3.97713 -1.0908 0
M  V30 1118 H 102.968 -0.660251 0.0704593 0
M  V30 1119 H 105.498 -1.87124 0.827385 0
M  V30 1120 H 105.508 -4.07298 -0.239304 0
M  V30 1121 H 104.183 -4.05756 0.912947 0
M  V30 1122 H 102.76 -3.62678 -0.867135 0
M  V30 1123 N 104.945 -0.338344 -1.53925 0
M  V30 1124 C 106.194 0.260732 -2.00008 0
M  V30 1125 C 106.507 1.52073 -1.23017 0
M  V30 1126 O 107.713 2.19672 -1.5955 0
M  V30 1127 C 106.169 0.51515 -3.56194 0
M  V30 1128 C 105.777 -0.728645 -4.42035 0
M  V30 1129 C 107.521 1.07337 -4.10706 0
M  V30 1130 C 105.428 -0.445315 -5.89721 0
M  V30 1131 H 104.358 0.101205 -0.747177 0
M  V30 1132 H 107.009 -0.452866 -1.77824 0
M  V30 1133 H 105.391 1.28932 -3.74423 0
M  V30 1134 H 106.565 -1.50352 -4.35581 0
M  V30 1135 H 104.88 -1.20813 -3.98489 0
M  V30 1136 H 107.477 1.30022 -5.18651 0
M  V30 1137 H 107.82 2.0273 -3.63602 0
M  V30 1138 H 108.353 0.360034 -3.96167 0
M  V30 1139 H 105.092 -1.36883 -6.41049 0
M  V30 1140 H 104.612 0.291569 -5.99091 0
M  V30 1141 H 106.291 -0.0606218 -6.46972 0
M  V30 1142 N 106.423 1.57458 -0.0668435 0
M  V30 1143 C 107.355 2.09413 0.931601 0
M  V30 1144 C 108.368 1.02522 1.26464 0
M  V30 1145 O 109.557 1.30049 1.22269 0
M  V30 1146 C 106.657 2.53537 2.24882 0
M  V30 1147 C 105.83 3.83944 2.09537 0
M  V30 1148 C 104.889 4.14214 3.2452 0
M  V30 1149 O 103.915 4.83891 2.9973 0
M  V30 1150 N 105.117 3.67367 4.49469 0
M  V30 1151 H 107.882 2.95699 0.488048 0
M  V30 1152 H 105.443 1.61462 0.119009 0
M  V30 1153 H 107.435 2.70853 3.00701 0
M  V30 1154 H 106.005 1.72415 2.60753 0
M  V30 1155 H 105.225 3.76057 1.18215 0
M  V30 1156 H 106.513 4.69312 1.96529 0
M  V30 1157 H 105.911 3.11068 4.72497 0
M  V30 1158 H 104.468 3.89891 5.2233 0
M  V30 1159 N 107.901 -0.206675 1.56239 0
M  V30 1160 C 108.864 -1.23976 1.92776 0
M  V30 1161 C 109.864 -1.39041 0.807729 0
M  V30 1162 O 111.054 -1.37051 1.0753 0
M  V30 1163 C 108.186 -2.61112 2.19165 0
M  V30 1164 H 109.379 -0.927764 2.85189 0
M  V30 1165 H 106.932 -0.447718 1.4975 0
M  V30 1166 H 107.667 -2.97386 1.29352 0
M  V30 1167 H 107.452 -2.51552 3.00772 0
M  V30 1168 H 108.942 -3.35633 2.48476 0
M  V30 1169 N 109.379 -1.50304 -0.473955 0
M  V30 1170 C 110.625 -1.61389 -1.22806 0
M  V30 1171 C 110.958 -0.311955 -1.91678 0
M  V30 1172 O 110.233 0.686384 -1.81986 0
M  V30 1173 C 110.516 -2.79219 -2.27396 0
M  V30 1174 C 110.369 -4.19286 -1.62848 0
M  V30 1175 C 111.688 -2.92614 -3.28732 0
M  V30 1176 H 108.807 -0.587399 -0.445119 0
M  V30 1177 H 111.449 -1.82681 -0.522265 0
M  V30 1178 H 109.599 -2.61195 -2.87592 0
M  V30 1179 H 111.271 -4.48892 -1.06271 0
M  V30 1180 H 109.514 -4.23677 -0.931693 0
M  V30 1181 H 110.185 -4.97655 -2.38838 0
M  V30 1182 H 112.661 -3.09105 -2.78556 0
M  V30 1183 H 111.537 -3.76688 -3.99246 0
M  V30 1184 H 111.798 -2.03107 -3.92683 0
M  V30 1185 N 110.857 0.726932 -1.39834 0
M  V30 1186 C 111.804 1.841 -1.39197 0
M  V30 1187 C 112.774 1.642 -0.250502 0
M  V30 1188 O 113.959 1.85494 -0.446846 0
M  V30 1189 C 111.099 3.21697 -1.24919 0
M  V30 1190 C 110.212 3.53247 -2.48678 0
M  V30 1191 C 109.347 4.80289 -2.26928 0
M  V30 1192 C 108.386 5.04707 -3.4632 0
M  V30 1193 N 107.523 6.22956 -3.23836 0
M  V30 1194 H 112.363 1.83979 -2.34427 0
M  V30 1195 H 109.9 0.898876 -1.16442 0
M  V30 1196 H 111.858 4.01137 -1.1465 0
M  V30 1197 H 110.488 3.21076 -0.333153 0
M  V30 1198 H 109.54 2.68447 -2.69519 0
M  V30 1199 H 110.852 3.67205 -3.37582 0
M  V30 1200 H 110.006 5.67725 -2.13947 0
M  V30 1201 H 108.745 4.68519 -1.35431 0
M  V30 1202 H 107.75 4.1573 -3.5979 0
M  V30 1203 H 108.975 5.18357 -4.38729 0
M  V30 1204 H 106.921 6.12459 -2.35011 0
M  V30 1205 H 106.838 6.37539 -4.063 0
M  V30 1206 H 108.106 7.1321 -3.14566 0
M  V30 1207 N 112.336 1.25143 0.95797 0
M  V30 1208 C 113.585 1.0909 1.69654 0
M  V30 1209 C 113.898 -0.368548 1.92097 0
M  V30 1210 O 115.104 -0.649455 2.63618 0
M  V30 1211 C 113.56 1.90395 3.05414 0
M  V30 1212 C 113.168 3.4081 2.90779 0
M  V30 1213 C 114.912 1.82901 3.83076 0
M  V30 1214 C 112.819 4.14423 4.21909 0
M  V30 1215 H 111.749 0.404625 0.636235 0
M  V30 1216 H 114.4 1.4931 1.06672 0
M  V30 1217 H 112.782 1.42996 3.69281 0
M  V30 1218 H 113.956 3.95859 2.35865 0
M  V30 1219 H 112.271 3.49361 2.26575 0
M  V30 1220 H 114.868 2.35196 4.80195 0
M  V30 1221 H 115.211 0.796224 4.08615 0
M  V30 1222 H 115.744 2.28033 3.25954 0
M  V30 1223 H 112.483 5.18102 4.01561 0
M  V30 1224 H 112.003 3.64159 4.76601 0
M  V30 1225 H 113.682 4.21956 4.90471 0
M  V30 1226 N 113.814 -1.1601 1.06675 0
M  V30 1227 C 115.061 -1.86633 0.785781 0
M  V30 1228 C 115.389 -1.81929 -0.687896 0
M  V30 1229 O 114.644 -1.23253 -1.52011 0
M  V30 1230 C 114.943 -3.35547 1.23057 0
M  V30 1231 C 114.609 -3.60448 2.70902 0
M  V30 1232 C 113.271 -3.66954 3.11285 0
M  V30 1233 C 115.623 -3.7071 3.66365 0
M  V30 1234 C 112.951 -3.81225 4.45965 0
M  V30 1235 C 115.303 -3.86503 5.00797 0
M  V30 1236 C 113.967 -3.91252 5.40813 0
M  V30 1237 H 113.237 -0.682937 0.287538 0
M  V30 1238 H 115.884 -1.37146 1.33654 0
M  V30 1239 H 114.189 -3.87193 0.59907 0
M  V30 1240 H 115.886 -3.88583 0.990163 0
M  V30 1241 H 112.476 -3.56021 2.38636 0
M  V30 1242 H 116.66 -3.64991 3.36296 0
M  V30 1243 H 111.916 -3.83155 4.76447 0
M  V30 1244 H 116.09 -3.93385 5.74649 0
M  V30 1245 H 113.717 -4.02062 6.45174 0
M  V30 1246 N 115.292 -0.849877 -1.32721 0
M  V30 1247 C 116.222 -0.306308 -2.31482 0
M  V30 1248 C 117.203 0.591952 -1.59468 0
M  V30 1249 O 118.388 0.513199 -1.87296 0
M  V30 1250 C 115.518 0.510204 -3.43532 0
M  V30 1251 C 114.472 -0.293209 -4.26994 0
M  V30 1252 C 113.798 0.647743 -5.30762 0
M  V30 1253 C 115.098 -1.51634 -4.99804 0
M  V30 1254 H 116.792 -1.13153 -2.77195 0
M  V30 1255 H 114.338 -0.545553 -1.33266 0
M  V30 1256 H 116.291 0.900856 -4.11658 0
M  V30 1257 H 115.015 1.36874 -2.96535 0
M  V30 1258 H 113.674 -0.665555 -3.60508 0
M  V30 1259 H 113.322 1.50299 -4.8002 0
M  V30 1260 H 113.022 0.11422 -5.87489 0
M  V30 1261 H 114.546 1.03567 -6.01753 0
M  V30 1262 H 115.96 -1.19824 -5.60638 0
M  V30 1263 H 114.357 -1.98745 -5.66234 0
M  V30 1264 H 115.427 -2.28018 -4.27943 0
M  V30 1265 N 116.77 1.45427 -0.607355 0
M  V30 1266 C 117.68 2.34325 0.113463 0
M  V30 1267 C 118.696 1.51226 0.860617 0
M  V30 1268 O 119.872 1.84029 0.818255 0
M  V30 1269 C 116.937 3.28839 1.09844 0
M  V30 1270 C 115.998 4.27844 0.353271 0
M  V30 1271 C 115.231 5.17842 1.29133 0
M  V30 1272 O 115.454 5.11264 2.52913 0
M  V30 1273 O 114.388 5.96713 0.788523 0
M  V30 1274 H 118.214 2.97364 -0.617094 0
M  V30 1275 H 115.799 1.44807 -0.367619 0
M  V30 1276 H 117.681 3.8708 1.66575 0
M  V30 1277 H 116.356 2.68365 1.81003 0
M  V30 1278 H 115.263 3.7322 -0.256494 0
M  V30 1279 H 116.596 4.91173 -0.317822 0
M  V30 1280 N 118.248 0.346503 1.53744 0
M  V30 1281 C 119.473 -0.253074 2.0585 0
M  V30 1282 C 119.898 -1.43202 1.21962 0
M  V30 1283 O 119.256 -1.79783 0.234073 0
M  V30 1284 C 119.304 -0.643193 3.54817 0
M  V30 1285 O 118.408 -1.74286 3.73762 0
M  V30 1286 H 117.749 -0.0413583 0.662711 0
M  V30 1287 H 120.279 0.501574 1.98357 0
M  V30 1288 H 120.289 -0.919526 3.97503 0
M  V30 1289 H 118.964 0.218966 4.15323 0
M  V30 1290 H 117.541 -1.46356 3.42979 0
M  V30 1291 N 119.726 -1.57421 0.075193 0
M  V30 1292 C 120.676 -2.09441 -0.901025 0
M  V30 1293 C 121.66 -1.00486 -1.25663 0
M  V30 1294 O 122.852 -1.2679 -1.23504 0
M  V30 1295 C 119.981 -2.66233 -2.16737 0
M  V30 1296 C 119.067 -3.82198 -1.83808 0
M  V30 1297 N 119.458 -4.91028 -1.21345 0
M  V30 1298 C 117.756 -3.91558 -2.13538 0
M  V30 1299 C 118.457 -5.71852 -1.06585 0
M  V30 1300 N 117.433 -5.20233 -1.57667 0
M  V30 1301 H 121.235 -2.90972 -0.413815 0
M  V30 1302 H 118.749 -1.6189 -0.128601 0
M  V30 1303 H 120.746 -3.01819 -2.87595 0
M  V30 1304 H 119.406 -1.8615 -2.66042 0
M  V30 1305 H 120.417 -5.10323 -0.88268 0
M  V30 1306 H 117.094 -3.22454 -2.65197 0
M  V30 1307 H 118.484 -6.69401 -0.578933 0
M  V30 1308 N 121.204 0.198386 -1.56346 0
M  V30 1309 C 122.452 0.91747 -1.80075 0
M  V30 1310 C 122.773 1.83929 -0.647692 0
M  V30 1311 O 122.043 1.93029 0.334166 0
M  V30 1312 H 120.623 0.341774 -0.664228 0
M  V30 1313 H 123.285 0.204684 -1.93822 0
M  V30 1314 H 122.381 1.51055 -2.7311 0
M  V30 1315 N 122.682 1.50554 0.465978 0
M  V30 1316 C 123.931 1.61038 1.21448 0
M  V30 1317 C 124.244 0.31865 1.92987 0
M  V30 1318 O 125.45 0.302469 2.6981 0
M  V30 1319 C 123.906 2.84283 2.20706 0
M  V30 1320 C 123.514 4.20352 1.54946 0
M  V30 1321 C 125.258 3.04115 2.96166 0
M  V30 1322 C 123.165 5.34778 2.5252 0
M  V30 1323 H 122.095 0.599718 0.457005 0
M  V30 1324 H 124.746 1.7699 0.484424 0
M  V30 1325 H 123.128 2.61901 2.97025 0
M  V30 1326 H 124.302 4.53008 0.843811 0
M  V30 1327 H 122.617 4.06167 0.917475 0
M  V30 1328 H 125.214 3.86774 3.69202 0
M  V30 1329 H 125.557 2.16045 3.55852 0
M  V30 1330 H 126.09 3.26702 2.26959 0
M  V30 1331 H 122.829 6.25018 1.97566 0
M  V30 1332 H 122.349 5.06534 3.21222 0
M  V30 1333 H 124.028 5.65561 3.14245 0
M  V30 1334 N 124.16 -0.719506 1.40217 0
M  V30 1335 C 125.385 -1.51371 1.4178 0
M  V30 1336 C 125.81 -1.88091 0.0182355 0
M  V30 1337 O 125.168 -1.52997 -0.972707 0
M  V30 1338 C 125.216 -2.768 2.31115 0
M  V30 1339 O 124.32 -3.73349 1.7517 0
M  V30 1340 H 123.661 -0.456529 0.482159 0
M  V30 1341 H 126.191 -0.88644 1.844 0
M  V30 1342 H 126.201 -3.25371 2.46167 0
M  V30 1343 H 124.876 -2.49407 3.3282 0
M  V30 1344 H 123.453 -3.32179 1.69444 0
M  V30 1345 N 125.638 -1.25649 -0.95132 0
M  V30 1346 C 126.868 -1.13179 -1.72841 0
M  V30 1347 C 127.276 0.316827 -1.86528 0
M  V30 1348 O 126.619 1.22948 -1.3649 0
M  V30 1349 C 126.681 -1.71644 -3.15878 0
M  V30 1350 C 126.345 -3.20667 -3.25609 0
M  V30 1351 C 127.342 -4.17616 -3.09666 0
M  V30 1352 C 125.027 -3.6094 -3.49324 0
M  V30 1353 C 127.021 -5.52817 -3.17289 0
M  V30 1354 C 124.708 -4.96278 -3.56584 0
M  V30 1355 C 125.706 -5.92025 -3.40581 0
M  V30 1356 O 125.394 -7.24899 -3.47528 0
M  V30 1357 H 125.126 -0.395389 -0.54831 0
M  V30 1358 H 127.68 -1.66566 -1.20187 0
M  V30 1359 H 125.91 -1.12707 -3.69911 0
M  V30 1360 H 127.599 -1.54225 -3.75459 0
M  V30 1361 H 128.365 -3.87842 -2.91211 0
M  V30 1362 H 124.244 -2.86907 -3.6084 0
M  V30 1363 H 127.788 -6.2753 -3.04716 0
M  V30 1364 H 123.685 -5.25716 -3.74556 0
M  V30 1365 H 124.453 -7.33039 -3.64138 0
M  V30 1366 N 127.117 1.15442 -1.07289 0
M  V30 1367 C 128.027 2.23786 -0.704057 0
M  V30 1368 C 129.043 1.7166 0.284413 0
M  V30 1369 O 130.219 2.00972 0.131205 0
M  V30 1370 C 127.284 3.46535 -0.106792 0
M  V30 1371 C 126.345 4.13654 -1.14842 0
M  V30 1372 C 125.578 5.30544 -0.57956 0
M  V30 1373 O 125.801 5.67187 0.604585 0
M  V30 1374 O 124.735 5.87154 -1.32414 0
M  V30 1375 H 128.561 2.57664 -1.60757 0
M  V30 1376 H 126.146 1.23152 -0.845803 0
M  V30 1377 H 128.028 4.20804 0.224048 0
M  V30 1378 H 126.703 3.14407 0.770049 0
M  V30 1379 H 125.61 3.4131 -1.5316 0
M  V30 1380 H 126.943 4.49861 -1.99714 0
M  V30 1381 N 128.595 0.856903 1.32268 0
M  V30 1382 C 129.823 0.475439 2.01363 0
M  V30 1383 C 130.238 -0.928486 1.64392 0
M  V30 1384 O 129.595 -1.60624 0.866387 0
M  V30 1385 C 129.646 0.607545 3.56358 0
M  V30 1386 O 129.367 1.95617 3.92002 0
M  V30 1387 C 130.868 0.225382 4.42727 0
M  V30 1388 H 128.088 0.186636 0.644521 0
M  V30 1389 H 130.632 1.15446 1.68797 0
M  V30 1390 H 128.787 -0.0237719 3.87393 0
M  V30 1391 H 129.201 1.95455 4.86721 0
M  V30 1392 H 130.675 0.368813 5.50767 0
M  V30 1393 H 131.152 -0.834369 4.31202 0
M  V30 1394 H 131.758 0.831864 4.17085 0
M  V30 1395 N 130.073 -1.45103 0.615059 0
M  V30 1396 C 131.006 -2.27717 -0.148408 0
M  V30 1397 C 131.984 -1.37584 -0.866572 0
M  V30 1398 O 133.168 -1.67017 -0.87393 0
M  V30 1399 C 130.295 -3.16136 -1.21557 0
M  V30 1400 C 129.341 -4.22263 -0.599712 0
M  V30 1401 S 130.174 -5.3215 0.598081 0
M  V30 1402 C 131.33 -6.24137 -0.469484 0
M  V30 1403 H 131.563 -2.92121 0.552483 0
M  V30 1404 H 129.096 -1.49054 0.402778 0
M  V30 1405 H 131.054 -3.67633 -1.82638 0
M  V30 1406 H 129.715 -2.50982 -1.88857 0
M  V30 1407 H 128.908 -4.84081 -1.4029 0
M  V30 1408 H 128.51 -3.73945 -0.063876 0
M  V30 1409 H 130.802 -6.63984 -1.34652 0
M  V30 1410 H 131.745 -7.0801 0.112725 0
M  V30 1411 H 132.153 -5.58971 -0.788168 0
M  V30 1412 N 131.551 -0.354651 -1.53558 0
M  V30 1413 C 132.8 0.239504 -2.00273 0
M  V30 1414 C 133.113 1.50759 -1.24623 0
M  V30 1415 O 134.319 2.17968 -1.61871 0
M  V30 1416 C 132.775 0.477341 -3.5672 0
M  V30 1417 C 132.383 -0.775488 -4.41237 0
M  V30 1418 C 134.127 1.02975 -4.11821 0
M  V30 1419 C 132.034 -0.507838 -5.89216 0
M  V30 1420 H 130.964 0.0932743 -0.748208 0
M  V30 1421 H 133.615 -0.471701 -1.77334 0
M  V30 1422 H 131.997 1.24953 -3.7577 0
M  V30 1423 H 133.171 -1.54963 -4.33962 0
M  V30 1424 H 131.486 -1.25033 -3.97185 0
M  V30 1425 H 134.083 1.24513 -5.2 0
M  V30 1426 H 134.426 1.98862 -3.65731 0
M  V30 1427 H 134.959 0.317994 -3.96527 0
M  V30 1428 H 131.698 -1.43674 -6.39561 0
M  V30 1429 H 131.218 0.228011 -5.99366 0
M  V30 1430 H 132.897 -0.129238 -6.46871 0
M  V30 1431 N 133.029 1.57378 -0.0835403 0
M  V30 1432 C 133.939 2.16897 0.894021 0
M  V30 1433 C 134.955 1.13528 1.31861 0
M  V30 1434 O 136.131 1.45848 1.3889 0
M  V30 1435 C 133.196 2.72831 2.13925 0
M  V30 1436 C 132.257 3.91115 1.76997 0
M  V30 1437 C 131.49 4.44371 2.95584 0
M  V30 1438 O 131.713 3.96596 4.09961 0
M  V30 1439 O 130.647 5.35549 2.74719 0
M  V30 1440 H 134.473 3.00814 0.417679 0
M  V30 1441 H 132.058 1.48741 0.140181 0
M  V30 1442 H 133.94 3.0863 2.86924 0
M  V30 1443 H 132.615 1.91967 2.60635 0
M  V30 1444 H 131.522 3.60148 1.01214 0
M  V30 1445 H 132.855 4.73307 1.3506 0
M  V30 1446 N 134.507 -0.190092 1.56449 0
M  V30 1447 C 135.784 -0.935886 1.71757 0
M  V30 1448 C 136.164 -2.01173 0.639726 0
M  V30 1449 O 135.512 -2.25827 -0.348502 0
M  V30 1450 C 135.722 -1.51775 3.1427 0
M  V30 1451 C 137.07 -1.99794 3.74656 0
M  V30 1452 O 138.094 -1.61607 3.1743 0
M  V30 1453 O 136.953 -2.70079 4.751 0
M  V30 1454 H 134.047 -0.439229 0.700719 0
M  V30 1455 H 136.593 -0.179395 1.68749 0
M  V30 1456 H 135.365 -0.742505 3.84191 0
M  V30 1457 H 134.988 -2.33894 3.21527 0
M  V30 1458 N 135.985 -1.50799 -0.457987 0
M  V30 1459 C 137.231 -1.62683 -1.21088 0
M  V30 1460 C 137.564 -0.332268 -1.91336 0
M  V30 1461 O 136.839 0.667043 -1.82704 0
M  V30 1462 C 137.122 -2.81615 -2.24422 0
M  V30 1463 C 136.975 -4.20989 -1.58392 0
M  V30 1464 C 138.294 -2.96085 -3.2561 0
M  V30 1465 H 135.413 -0.592087 -0.438864 0
M  V30 1466 H 138.055 -1.83225 -0.50286 0
M  V30 1467 H 136.205 -2.64231 -2.84806 0
M  V30 1468 H 137.877 -4.49994 -1.01504 0
M  V30 1469 H 136.12 -4.24641 -0.886704 0
M  V30 1470 H 136.791 -5.0016 -2.33547 0
M  V30 1471 H 139.267 -3.12042 -2.75262 0
M  V30 1472 H 138.143 -3.80902 -3.95228 0
M  V30 1473 H 138.404 -2.0726 -3.90507 0
M  V30 1474 N 137.463 0.71206 -1.40597 0
M  V30 1475 C 138.395 1.83704 -1.37061 0
M  V30 1476 C 139.408 1.60453 -0.275426 0
M  V30 1477 O 140.597 1.70262 -0.53602 0
M  V30 1478 C 137.697 3.20172 -1.11099 0
M  V30 1479 C 136.87 3.7059 -2.3234 0
M  V30 1480 C 135.929 4.85681 -2.02485 0
M  V30 1481 O 134.955 4.9815 -2.75382 0
M  V30 1482 N 136.157 5.71735 -1.00497 0
M  V30 1483 H 138.922 1.87235 -2.34016 0
M  V30 1484 H 136.483 0.893739 -1.34996 0
M  V30 1485 H 138.475 3.94768 -0.891064 0
M  V30 1486 H 137.045 3.11767 -0.227989 0
M  V30 1487 H 136.265 2.87085 -2.7014 0
M  V30 1488 H 137.553 4.01011 -3.13157 0
M  V30 1489 H 136.951 5.64275 -0.401298 0
M  V30 1490 H 135.508 6.463 -0.844942 0
M  V30 1491 N 138.941 1.26152 0.944643 0
M  V30 1492 C 140.166 1.14363 1.7302 0
M  V30 1493 C 140.591 -0.29772 1.85729 0
M  V30 1494 O 139.949 -1.2157 1.34501 0
M  V30 1495 C 139.997 1.81378 3.11664 0
M  V30 1496 O 139.101 1.10022 3.97453 0
M  V30 1497 H 138.442 0.398694 0.53098 0
M  V30 1498 H 140.972 1.66906 1.18337 0
M  V30 1499 H 140.982 1.88064 3.62072 0
M  V30 1500 H 139.657 2.86237 3.0173 0
M  V30 1501 H 138.234 1.11287 3.55907 0
M  V30 1502 N 140.419 -1.14872 1.07899 0
M  V30 1503 C 141.349 -2.2193 0.725887 0
M  V30 1504 C 142.33 -1.67622 -0.28927 0
M  V30 1505 O 143.515 -1.93533 -0.160787 0
M  V30 1506 C 140.645 -3.47061 0.128856 0
M  V30 1507 C 139.599 -4.14363 1.07178 0
M  V30 1508 C 138.925 -5.33636 0.337229 0
M  V30 1509 C 140.225 -4.63492 2.40775 0
M  V30 1510 H 141.919 -2.51724 1.62097 0
M  V30 1511 H 139.465 -1.20991 0.780838 0
M  V30 1512 H 141.418 -4.21199 -0.130147 0
M  V30 1513 H 140.142 -3.16617 -0.80134 0
M  V30 1514 H 138.801 -3.42173 1.3158 0
M  V30 1515 H 138.449 -4.99449 -0.596606 0
M  V30 1516 H 138.149 -5.79609 0.965788 0
M  V30 1517 H 139.673 -6.10539 0.0861567 0
M  V30 1518 H 141.087 -5.2913 2.20669 0
M  V30 1519 H 139.484 -5.20148 2.99276 0
M  V30 1520 H 140.554 -3.78834 3.02676 0
M  V30 1521 N 141.898 -0.863906 -1.31812 0
M  V30 1522 C 142.828 -0.330843 -2.31144 0
M  V30 1523 C 143.809 0.575005 -1.60087 0
M  V30 1524 O 144.994 0.493304 -1.8783 0
M  V30 1525 C 142.124 0.47374 -3.44054 0
M  V30 1526 C 141.078 -0.338481 -4.26659 0
M  V30 1527 C 140.404 0.591412 -5.31419 0
M  V30 1528 C 141.704 -1.56926 -4.98168 0
M  V30 1529 H 143.398 -1.16086 -2.75979 0
M  V30 1530 H 140.944 -0.559657 -1.32679 0
M  V30 1531 H 142.897 0.857143 -4.12591 0
M  V30 1532 H 141.621 1.33721 -2.9797 0
M  V30 1533 H 140.28 -0.703754 -3.59782 0
M  V30 1534 H 139.928 1.45199 -4.81587 0
M  V30 1535 H 139.628 0.0519022 -5.87577 0
M  V30 1536 H 141.152 0.97179 -6.02817 0
M  V30 1537 H 142.566 -1.25764 -5.59336 0
M  V30 1538 H 140.963 -2.04739 -5.64094 0
M  V30 1539 H 142.033 -2.32544 -4.25501 0
M  V30 1540 N 143.376 1.44774 -0.622745 0
M  V30 1541 C 144.653 1.95522 -0.0551974 0
M  V30 1542 C 145.033 1.5649 1.41683 0
M  V30 1543 O 144.381 0.834848 2.12703 0
M  V30 1544 C 144.591 3.4796 -0.269242 0
M  V30 1545 C 145.939 4.24306 -0.158014 0
M  V30 1546 O 146.963 3.55637 -0.200162 0
M  V30 1547 O 145.822 5.46471 -0.0558693 0
M  V30 1548 H 142.916 0.826556 0.0271015 0
M  V30 1549 H 145.462 1.54866 -0.693864 0
M  V30 1550 H 144.234 3.6939 -1.29099 0
M  V30 1551 H 143.857 3.95543 0.403966 0
M  V30 1552 N 144.854 0.36279 1.53368 0
M  V30 1553 C 145.764 -0.492994 2.29362 0
M  V30 1554 C 146.78 -1.09507 1.35219 0
M  V30 1555 O 147.956 -1.10662 1.68273 0
M  V30 1556 C 145.021 -1.61855 3.066 0
M  V30 1557 C 144.082 -1.04429 4.16405 0
M  V30 1558 C 143.315 -2.11621 4.89951 0
M  V30 1559 O 143.538 -3.32684 4.63333 0
M  V30 1560 O 142.472 -1.74835 5.75948 0
M  V30 1561 H 146.298 0.125331 3.03441 0
M  V30 1562 H 143.883 0.127253 1.48857 0
M  V30 1563 H 145.765 -2.27302 3.54841 0
M  V30 1564 H 144.44 -2.22233 2.3536 0
M  V30 1565 H 143.347 -0.353819 3.72423 0
M  V30 1566 H 144.68 -0.485113 4.89804 0
M  V30 1567 N 146.332 -1.57332 0.0918853 0
M  V30 1568 C 147.242 -2.17368 -0.882505 0
M  V30 1569 C 148.258 -1.14226 -1.31257 0
M  V30 1570 O 149.434 -1.46582 -1.38115 0
M  V30 1571 C 146.499 -2.73962 -2.12476 0
M  V30 1572 C 145.56 -3.92048 -1.7492 0
M  V30 1573 C 144.793 -4.45933 -2.93223 0
M  V30 1574 O 145.016 -3.98764 -4.07852 0
M  V30 1575 O 143.95 -5.36999 -2.71875 0
M  V30 1576 H 147.776 -3.01031 -0.40172 0
M  V30 1577 H 145.361 -1.48813 -0.132291 0
M  V30 1578 H 147.243 -3.10147 -2.85283 0
M  V30 1579 H 145.918 -1.93347 -2.59613 0
M  V30 1580 H 144.825 -3.6068 -0.993025 0
M  V30 1581 H 146.158 -4.74017 -1.32548 0
M  V30 1582 N 147.81 0.181792 -1.56548 0
M  V30 1583 C 148.742 1.24956 -1.92142 0
M  V30 1584 C 149.755 1.41022 -0.813422 0
M  V30 1585 O 150.944 1.41212 -1.09186 0
M  V30 1586 C 148.044 2.61981 -2.14987 0
M  V30 1587 C 147.217 2.6735 -3.46183 0
M  V30 1588 C 146.276 3.85664 -3.5798 0
M  V30 1589 O 145.302 3.72148 -4.30691 0
M  V30 1590 N 146.504 5.01683 -2.92053 0
M  V30 1591 H 149.269 0.947329 -2.84334 0
M  V30 1592 H 146.83 0.371629 -1.57577 0
M  V30 1593 H 148.822 3.3958 -2.20154 0
M  V30 1594 H 147.392 2.84637 -1.2923 0
M  V30 1595 H 146.612 1.75925 -3.52766 0
M  V30 1596 H 147.9 2.67939 -4.32534 0
M  V30 1597 H 147.298 5.15564 -2.32832 0
M  V30 1598 H 145.855 5.77181 -3.0283 0
M  V30 1599 N 149.288 1.51039 0.449983 0
M  V30 1600 C 150.198 1.74261 1.57067 0
M  V30 1601 C 151.214 0.626363 1.62335 0
M  V30 1602 O 152.39 0.907162 1.79812 0
M  V30 1603 C 149.455 1.85114 2.93144 0
M  V30 1604 C 148.516 3.0893 2.98095 0
M  V30 1605 C 147.749 3.19256 4.27681 0
M  V30 1606 O 147.972 2.35835 5.19363 0
M  V30 1607 O 146.906 4.12144 4.38658 0
M  V30 1608 H 150.732 2.69303 1.40391 0
M  V30 1609 H 148.317 1.35389 0.631688 0
M  V30 1610 H 150.199 1.94311 3.73926 0
M  V30 1611 H 148.874 0.932588 3.09975 0
M  V30 1612 H 147.781 3.0522 2.16314 0
M  V30 1613 H 149.114 4.00433 2.86206 0
M  V30 1614 N 150.766 -0.704594 1.40972 0
M  V30 1615 C 151.698 -1.82974 1.38033 0
M  V30 1616 C 152.711 -1.60305 0.283931 0
M  V30 1617 O 153.9 -1.69975 0.545042 0
M  V30 1618 C 151 -3.19578 1.12795 0
M  V30 1619 C 150.173 -3.69352 2.34302 0
M  V30 1620 C 149.232 -4.84601 2.05058 0
M  V30 1621 O 148.258 -4.96682 2.7802 0
M  V30 1622 N 149.46 -5.71194 1.03528 0
M  V30 1623 H 152.225 -1.85991 2.35005 0
M  V30 1624 H 149.786 -0.886567 1.35468 0
M  V30 1625 H 151.778 -3.9429 0.911987 0
M  V30 1626 H 150.348 -3.11642 0.24452 0
M  V30 1627 H 149.568 -2.85649 2.71659 0
M  V30 1628 H 150.856 -3.99345 3.1528 0
M  V30 1629 H 150.254 -5.64054 0.431217 0
M  V30 1630 H 148.811 -6.45843 0.879205 0
M  V30 1631 N 152.244 -1.26651 -0.937939 0
M  V30 1632 C 153.177 -1.02811 -2.03728 0
M  V30 1633 C 154.155 0.0481915 -1.62529 0
M  V30 1634 O 155.339 -0.0948839 -1.88261 0
M  V30 1635 C 152.466 -0.557517 -3.3408 0
M  V30 1636 C 151.512 -1.62686 -3.94253 0
M  V30 1637 S 152.345 -3.21667 -4.28125 0
M  V30 1638 C 153.501 -2.76384 -5.61572 0
M  V30 1639 H 153.734 -1.95891 -2.23638 0
M  V30 1640 H 151.267 -1.10367 -1.07974 0
M  V30 1641 H 153.225 -0.292674 -4.09455 0
M  V30 1642 H 151.886 0.353062 -3.12109 0
M  V30 1643 H 151.079 -1.24866 -4.88287 0
M  V30 1644 H 150.681 -1.84324 -3.25424 0
M  V30 1645 H 152.973 -2.2105 -6.40424 0
M  V30 1646 H 153.916 -3.69123 -6.0428 0
M  V30 1647 H 154.324 -2.15847 -5.21604 0
M  V30 1648 N 153.722 1.14298 -1.08507 0
M  V30 1649 C 154.969 1.85359 -0.815373 0
M  V30 1650 C 155.297 1.83001 0.658865 0
M  V30 1651 O 154.552 1.25655 1.50031 0
M  V30 1652 C 154.851 3.33547 -1.28379 0
M  V30 1653 C 154.517 3.56093 -2.76602 0
M  V30 1654 C 153.179 3.61955 -3.17084 0
M  V30 1655 C 155.531 3.64834 -3.72217 0
M  V30 1656 C 152.859 3.74082 -4.51973 0
M  V30 1657 C 155.211 3.78487 -5.06883 0
M  V30 1658 C 153.875 3.82598 -5.46969 0
M  V30 1659 H 153.145 0.678276 -0.298366 0
M  V30 1660 H 155.792 1.35002 -1.35819 0
M  V30 1661 H 154.097 3.86191 -0.660593 0
M  V30 1662 H 155.794 3.86959 -1.05186 0
M  V30 1663 H 152.384 3.52179 -2.4427 0
M  V30 1664 H 156.568 3.59595 -3.42061 0
M  V30 1665 H 151.824 3.75527 -4.82483 0
M  V30 1666 H 155.998 3.84193 -5.80834 0
M  V30 1667 H 153.625 3.91747 -6.51489 0
M  V30 1668 N 155.201 0.870884 1.31352 0
M  V30 1669 C 156.164 0.332243 2.26779 0
M  V30 1670 C 157.164 -0.517302 1.52252 0
M  V30 1671 O 158.354 -0.326477 1.71113 0
M  V30 1672 C 155.486 -0.528066 3.36785 0
M  V30 1673 H 156.679 1.17469 2.75937 0
M  V30 1674 H 154.232 0.64655 1.423 0
M  V30 1675 H 154.967 -1.39167 2.92922 0
M  V30 1676 H 154.752 0.0802582 3.92018 0
M  V30 1677 H 156.242 -0.897179 4.07849 0
M  V30 1678 N 156.679 -1.44442 0.630414 0
M  V30 1679 C 157.926 -2.02052 0.134617 0
M  V30 1680 C 158.254 -1.49576 -1.24327 0
M  V30 1681 O 157.509 -0.669806 -1.83881 0
M  V30 1682 C 157.808 -3.57332 0.0697835 0
M  V30 1683 C 157.474 -4.29058 1.38635 0
M  V30 1684 C 156.136 -4.4837 1.74694 0
M  V30 1685 C 158.488 -4.69872 2.25543 0
M  V30 1686 C 155.816 -5.05756 2.97369 0
M  V30 1687 C 158.168 -5.28616 3.47487 0
M  V30 1688 C 156.832 -5.46147 3.8377 0
M  V30 1689 H 156.102 -0.739361 0.0492598 0
M  V30 1690 H 158.749 -1.73217 0.816586 0
M  V30 1691 H 157.054 -3.85577 -0.695553 0
M  V30 1692 H 158.751 -3.99637 -0.330344 0
M  V30 1693 H 155.341 -4.14357 1.09574 0
M  V30 1694 H 159.525 -4.54666 1.98979 0
M  V30 1695 H 154.781 -5.17515 3.25558 0
M  V30 1696 H 158.955 -5.59192 4.15063 0
M  V30 1697 H 156.582 -5.9038 4.7891 0
M  V30 1698 N 158.157 -0.370918 -1.53173 0
M  V30 1699 C 159.573 -0.0200818 -1.59587 0
M  V30 1700 C 159.773 1.46279 -1.38581 0
M  V30 1701 O 158.829 2.22506 -1.19363 0
M  V30 1702 C 160.142 -0.4808 -2.96831 0
M  V30 1703 C 161.69 -0.435477 -3.09956 0
M  V30 1704 C 162.165 -0.872092 -4.4962 0
M  V30 1705 N 163.656 -0.827364 -4.55751 0
M  V30 1706 C 164.391 -1.13683 -5.62018 0
M  V30 1707 N 163.887 -1.51584 -6.76014 0
M  V30 1708 N 165.68 -1.05927 -5.52029 0
M  V30 1709 H 157.831 -1.33652 -1.65079 0
M  V30 1710 H 160.094 -0.546634 -0.774529 0
M  V30 1711 H 159.8 -1.51577 -3.1736 0
M  V30 1712 H 159.674 0.129796 -3.76977 0
M  V30 1713 H 162.061 0.590371 -2.89134 0
M  V30 1714 H 162.142 -1.08164 -2.31806 0
M  V30 1715 H 161.786 -1.89608 -4.71181 0
M  V30 1716 H 161.716 -0.203127 -5.26208 0
M  V30 1717 H 164.207 -0.548216 -3.73902 0
M  V30 1718 H 164.52 -1.73609 -7.53047 0
M  V30 1719 H 162.865 -1.55454 -6.77391 0
M  V30 1720 H 166.056 -0.762321 -4.61851 0
M  V30 1721 H 166.229 -1.30378 -6.34749 0
M  V30 1722 N 159.635 1.57281 -0.100228 0
M  V30 1723 C 160.86 1.99302 0.573881 0
M  V30 1724 C 161.285 0.979059 1.60611 0
M  V30 1725 O 160.643 -0.0517803 1.81226 0
M  V30 1726 C 160.691 3.40274 1.19358 0
M  V30 1727 O 159.795 3.41676 2.30935 0
M  V30 1728 H 159.136 0.647944 0.145138 0
M  V30 1729 H 161.666 2.03779 -0.183156 0
M  V30 1730 H 161.676 3.78078 1.53365 0
M  V30 1731 H 160.351 4.13594 0.437385 0
M  V30 1732 H 158.928 3.15672 1.98509 0
M  V30 1733 N 161.113 -0.173488 1.56642 0
M  V30 1734 C 162.529 -0.525174 1.50712 0
M  V30 1735 C 162.729 -1.8476 0.804107 0
M  V30 1736 O 161.785 -2.49869 0.363574 0
M  V30 1737 C 163.098 -0.559937 2.95441 0
M  V30 1738 C 164.646 -0.647288 3.06234 0
M  V30 1739 C 165.121 -0.712963 4.52417 0
M  V30 1740 N 166.612 -0.775911 4.56655 0
M  V30 1741 C 167.347 -0.847264 5.67106 0
M  V30 1742 N 166.843 -0.879585 6.87194 0
M  V30 1743 N 168.636 -0.886117 5.55071 0
M  V30 1744 H 160.787 0.693681 2.00753 0
M  V30 1745 H 163.05 0.249841 0.914485 0
M  V30 1746 H 162.756 0.343049 3.50023 0
M  V30 1747 H 162.63 -1.40718 3.49969 0
M  V30 1748 H 165.017 -1.5407 2.51687 0
M  V30 1749 H 165.098 0.226586 2.54794 0
M  V30 1750 H 164.742 0.176183 5.07594 0
M  V30 1751 H 164.672 -1.60295 5.0161 0
M  V30 1752 H 167.163 -0.759304 3.70193 0
M  V30 1753 H 167.476 -0.935144 7.67121 0
M  V30 1754 H 165.821 -0.847898 6.89808 0
M  V30 1755 H 169.012 -0.857853 4.60172 0
M  V30 1756 H 169.185 -0.938263 6.41171 0
M  V30 1757 N 162.591 -1.51276 -0.441967 0
M  V30 1758 C 163.554 -1.7167 -1.51862 0
M  V30 1759 C 164.554 -0.586793 -1.49711 0
M  V30 1760 O 165.744 -0.854276 -1.51815 0
M  V30 1761 C 162.876 -1.76889 -2.91416 0
M  V30 1762 H 164.069 -2.67754 -1.35084 0
M  V30 1763 H 161.622 -1.41196 -0.670333 0
M  V30 1764 H 162.357 -0.826026 -3.13604 0
M  V30 1765 H 162.142 -2.59001 -2.94382 0
M  V30 1766 H 163.632 -1.94522 -3.69528 0
M  V30 1767 N 164.069 0.697108 -1.41344 0
M  V30 1768 C 165.485 1.00751 -1.2378 0
M  V30 1769 C 165.685 2.01105 -0.126066 0
M  V30 1770 O 164.741 2.47295 0.51004 0
M  V30 1771 C 166.054 1.53359 -2.58653 0
M  V30 1772 C 167.602 1.6525 -2.65822 0
M  V30 1773 C 168.077 2.2126 -4.01009 0
M  V30 1774 N 169.568 2.28622 -4.02847 0
M  V30 1775 C 170.303 2.72984 -5.04249 0
M  V30 1776 N 169.799 3.16962 -6.16041 0
M  V30 1777 N 171.592 2.72534 -4.91611 0
M  V30 1778 H 163.743 0.0322662 -2.12375 0
M  V30 1779 H 166.006 0.0768853 -0.944877 0
M  V30 1780 H 165.712 0.870773 -3.4075 0
M  V30 1781 H 165.586 2.51597 -2.81032 0
M  V30 1782 H 167.973 2.30644 -1.84086 0
M  V30 1783 H 168.054 0.655614 -2.47256 0
M  V30 1784 H 167.698 1.56482 -4.83193 0
M  V30 1785 H 167.628 3.21698 -4.16915 0
M  V30 1786 H 170.119 1.97585 -3.22131 0
M  V30 1787 H 170.432 3.49434 -6.89287 0
M  V30 1788 H 168.777 3.14875 -6.1958 0
M  V30 1789 H 171.968 2.37525 -4.0336 0
M  V30 1790 H 172.141 3.06789 -5.70775 0
M  V30 1791 N 165.547 1.27147 0.931209 0
M  V30 1792 C 166.772 1.16191 1.71797 0
M  V30 1793 C 167.197 -0.278004 1.86034 0
M  V30 1794 O 166.555 -1.20137 1.35782 0
M  V30 1795 C 166.603 1.84673 3.09723 0
M  V30 1796 O 165.707 1.14231 3.96264 0
M  V30 1797 H 165.048 0.404303 0.526721 0
M  V30 1798 H 167.578 1.68152 1.1656 0
M  V30 1799 H 167.588 1.91893 3.60057 0
M  V30 1800 H 166.263 2.89421 2.98677 0
M  V30 1801 H 164.84 1.15056 3.54706 0
M  V30 1802 N 167.025 -1.13721 1.09112 0
M  V30 1803 C 168.253 -1.88773 0.846899 0
M  V30 1804 C 168.668 -1.7896 -0.601572 0
M  V30 1805 O 168.025 -1.15394 -1.41388 0
M  V30 1806 C 168.076 -3.3849 1.26913 0
M  V30 1807 O 167.797 -3.48043 2.66079 0
M  V30 1808 C 169.298 -4.30518 1.05682 0
M  V30 1809 H 166.518 -0.59772 0.304914 0
M  V30 1810 H 169.062 -1.43977 1.45227 0
M  V30 1811 H 167.217 -3.80881 0.707723 0
M  V30 1812 H 167.631 -4.4109 2.83795 0
M  V30 1813 H 169.105 -5.3391 1.40156 0
M  V30 1814 H 169.582 -4.392 -0.00563416 0
M  V30 1815 H 170.188 -3.93893 1.60402 0
M  V30 1816 N 168.503 -0.877838 -1.30888 0
M  V30 1817 C 169.78 -0.413052 -1.91189 0
M  V30 1818 C 170.16 1.1056 -1.79832 0
M  V30 1819 O 169.508 1.93771 -1.21099 0
M  V30 1820 C 169.718 -0.903191 -3.3711 0
M  V30 1821 C 171.066 -0.93395 -4.14201 0
M  V30 1822 O 172.09 -0.849373 -3.45925 0
M  V30 1823 O 170.949 -1.05772 -5.36167 0
M  V30 1824 H 168.043 -0.125035 -0.817493 0
M  V30 1825 H 170.589 -0.966269 -1.39504 0
M  V30 1826 H 169.361 -1.94692 -3.39427 0
M  V30 1827 H 168.984 -0.328732 -3.96239 0
M  V30 1828 N 169.982 1.44106 -0.638065 0
M  V30 1829 C 171.21 2.06336 -0.152615 0
M  V30 1830 C 171.625 1.47731 1.17563 0
M  V30 1831 O 170.982 0.602806 1.72257 0
M  V30 1832 C 171.033 3.61479 -0.0391491 0
M  V30 1833 O 170.754 4.17903 -1.31487 0
M  V30 1834 C 172.255 4.40757 0.474176 0
M  V30 1835 H 169.475 0.665862 -0.0828776 0
M  V30 1836 H 172.019 1.84862 -0.87443 0
M  V30 1837 H 170.174 3.82191 0.633142 0
M  V30 1838 H 170.588 5.11416 -1.16421 0
M  V30 1839 H 172.062 5.49707 0.502562 0
M  V30 1840 H 172.539 4.12697 1.50258 0
M  V30 1841 H 173.145 4.24979 -0.165102 0
M  V30 1842 N 171.46 0.379036 1.52974 0
M  V30 1843 C 172.707 -0.206421 2.01445 0
M  V30 1844 C 173.035 -1.47668 1.26587 0
M  V30 1845 O 172.29 -1.92514 0.351675 0
M  V30 1846 C 172.589 -0.53096 3.53434 0
M  V30 1847 C 172.255 0.646546 4.46241 0
M  V30 1848 C 170.917 0.969604 4.7133 0
M  V30 1849 C 173.269 1.43479 5.01062 0
M  V30 1850 C 170.597 2.08263 5.48492 0
M  V30 1851 C 172.949 2.53834 5.7944 0
M  V30 1852 C 171.613 2.86659 6.02812 0
M  V30 1853 H 170.883 -0.0755349 0.73714 0
M  V30 1854 H 173.53 0.514271 1.84465 0
M  V30 1855 H 171.835 -1.33285 3.68432 0
M  V30 1856 H 173.532 -0.996417 3.88423 0
M  V30 1857 H 170.122 0.384734 4.2687 0
M  V30 1858 H 174.306 1.19844 4.81613 0
M  V30 1859 H 169.562 2.34078 5.64816 0
M  V30 1860 H 173.736 3.15319 6.20924 0
M  V30 1861 H 171.363 3.73026 6.62387 0
M  V30 1862 N 172.938 -1.57226 0.108567 0
M  V30 1863 C 173.886 -2.16002 -0.862885 0
M  V30 1864 C 174.88 -1.10644 -1.28274 0
M  V30 1865 O 176.086 -1.28966 -1.2557 0
M  V30 1866 H 172.461 -0.691148 -0.296342 0
M  V30 1867 H 174.432 -2.96427 -0.342575 0
M  V30 1868 C 173.181 -2.76576 -2.10716 0
M  V30 1869 H 172.504 -3.5734 -1.793 0
M  V30 1870 H 173.944 -3.21253 -2.76717 0
M  V30 1871 C 172.403 -1.73137 -2.89007 0
M  V30 1872 O 172.933 -1.17842 -3.84026 0
M  V30 1873 N 171.139 -1.43317 -2.52801 0
M  V30 1874 H 170.686 -1.88473 -1.75601 0
M  V30 1875 H 170.644 -0.743485 -3.05483 0
M  V30 1876 N 174.416 0.165178 -1.56732 0
M  V30 1877 C 175.646 0.894919 -1.86212 0
M  V30 1878 C 176.054 1.76066 -0.692627 0
M  V30 1879 O 175.397 1.80387 0.347303 0
M  V30 1880 C 175.459 1.8174 -3.10179 0
M  V30 1881 C 175.123 1.13064 -4.42793 0
M  V30 1882 C 176.12 0.493169 -5.17556 0
M  V30 1883 C 173.805 1.12556 -4.89527 0
M  V30 1884 C 175.799 -0.140209 -6.37246 0
M  V30 1885 C 173.486 0.488366 -6.09145 0
M  V30 1886 C 174.484 -0.143411 -6.82849 0
M  V30 1887 O 174.172 -0.77055 -8.00199 0
M  V30 1888 H 173.904 0.265114 -0.621844 0
M  V30 1889 H 176.458 0.168242 -2.0471 0
M  V30 1890 H 174.688 2.58455 -2.87642 0
M  V30 1891 H 176.377 2.4175 -3.26055 0
M  V30 1892 H 177.143 0.489023 -4.82528 0
M  V30 1893 H 173.022 1.60672 -4.32094 0
M  V30 1894 H 176.566 -0.633932 -6.94714 0
M  V30 1895 H 172.463 0.490116 -6.43637 0
M  V30 1896 H 173.231 -0.670408 -8.1575 0
M  V30 1897 N 175.894 1.51508 0.433938 0
M  V30 1898 C 176.857 1.72473 1.50949 0
M  V30 1899 C 177.857 0.594725 1.49398 0
M  V30 1900 O 179.047 0.862315 1.5136 0
M  V30 1901 C 176.179 1.78431 2.90474 0
M  V30 1902 H 177.372 2.68467 1.33662 0
M  V30 1903 H 174.925 1.41549 0.662836 0
M  V30 1904 H 175.66 0.842645 3.13161 0
M  V30 1905 H 175.445 2.60558 2.93005 0
M  V30 1906 H 176.935 1.96479 3.68491 0
M  V30 1907 N 177.372 -0.689602 1.41712 0
M  V30 1908 C 178.6 -1.47827 1.44758 0
M  V30 1909 C 179.015 -1.88721 0.0545703 0
M  V30 1910 O 178.372 -1.57176 -0.927463 0
M  V30 1911 C 178.423 -2.73698 2.3616 0
M  V30 1912 O 178.144 -2.34524 3.7004 0
M  V30 1913 C 179.645 -3.67389 2.48072 0
M  V30 1914 H 176.865 -0.455357 0.49284 0
M  V30 1915 H 179.409 -0.848574 1.86063 0
M  V30 1916 H 177.564 -3.32891 1.98148 0
M  V30 1917 H 177.978 -3.15701 4.18847 0
M  V30 1918 H 179.452 -4.52475 3.16181 0
M  V30 1919 H 179.929 -4.12284 1.51388 0
M  V30 1920 H 180.535 -3.14097 2.86746 0
M  V30 1921 N 178.85 -1.27639 -0.924453 0
M  V30 1922 C 180.08 -1.16819 -1.70402 0
M  V30 1923 C 180.488 0.277191 -1.87158 0
M  V30 1924 O 179.831 1.20025 -1.39067 0
M  V30 1925 C 179.893 -1.78305 -3.12166 0
M  V30 1926 C 179.557 -3.27502 -3.18734 0
M  V30 1927 C 180.554 -4.2409 -3.00738 0
M  V30 1928 C 178.239 -3.68269 -3.4159 0
M  V30 1929 C 180.233 -5.59422 -3.05492 0
M  V30 1930 C 177.92 -5.0373 -3.45977 0
M  V30 1931 C 178.918 -5.99116 -3.27946 0
M  V30 1932 O 178.606 -7.32108 -3.32074 0
M  V30 1933 H 178.338 -0.406931 -0.539799 0
M  V30 1934 H 180.892 -1.69078 -1.16626 0
M  V30 1935 H 179.122 -1.20528 -3.67437 0
M  V30 1936 H 180.811 -1.62154 -3.72103 0
M  V30 1937 H 181.577 -3.93931 -2.82919 0
M  V30 1938 H 177.456 -2.94496 -3.54673 0
M  V30 1939 H 181 -6.33852 -2.91337 0
M  V30 1940 H 176.897 -5.33543 -3.63321 0
M  V30 1941 H 177.665 -7.40598 -3.48507 0
M  V30 1942 N 180.328 1.1314 -1.09713 0
M  V30 1943 C 181.278 2.16709 -0.708593 0
M  V30 1944 C 182.262 1.58471 0.278523 0
M  V30 1945 O 183.454 1.76779 0.088427 0
M  V30 1946 C 180.583 3.43039 -0.133923 0
M  V30 1947 C 179.669 4.08277 -1.14763 0
M  V30 1948 N 180.06 4.48637 -2.33577 0
M  V30 1949 C 178.358 4.34954 -0.986446 0
M  V30 1950 C 179.059 4.9952 -2.98085 0
M  V30 1951 N 178.035 4.94561 -2.25632 0
M  V30 1952 H 181.837 2.45672 -1.61315 0
M  V30 1953 H 179.351 1.29967 -0.973775 0
M  V30 1954 H 181.348 4.16583 0.162465 0
M  V30 1955 H 180.008 3.15549 0.765447 0
M  V30 1956 H 181.019 4.41246 -2.7115 0
M  V30 1957 H 177.696 4.17258 -0.142008 0
M  V30 1958 H 179.086 5.40521 -3.99108 0
M  V30 1959 N 181.806 0.884767 1.30421 0
M  V30 1960 C 183.034 0.518044 2.0031 0
M  V30 1961 C 183.449 -0.893408 1.66324 0
M  V30 1962 O 182.806 -1.5875 0.900262 0
M  V30 1963 C 182.857 0.682997 3.54989 0
M  V30 1964 O 182.578 2.03888 3.87764 0
M  V30 1965 C 184.079 0.31924 4.42149 0
M  V30 1966 H 181.299 0.200265 0.640418 0
M  V30 1967 H 183.843 1.19001 1.6631 0
M  V30 1968 H 181.998 0.0584052 3.87356 0
M  V30 1969 H 182.412 2.05735 4.82466 0
M  V30 1970 H 183.886 0.485555 5.4986 0
M  V30 1971 H 184.363 -0.742717 4.32875 0
M  V30 1972 H 184.969 0.920147 4.15227 0
M  V30 1973 N 183.284 -1.43765 0.645699 0
M  V30 1974 C 184.214 -2.33471 -0.0370477 0
M  V30 1975 C 185.195 -1.49042 -0.819779 0
M  V30 1976 O 186.38 -1.77726 -0.782758 0
M  V30 1977 C 183.51 -3.32311 -1.0093 0
M  V30 1978 C 182.464 -4.2667 -0.337201 0
M  V30 1979 C 181.79 -5.1549 -1.42037 0
M  V30 1980 C 183.09 -5.16657 0.765706 0
M  V30 1981 H 184.784 -2.90809 0.712069 0
M  V30 1982 H 182.33 -1.39834 0.343876 0
M  V30 1983 H 184.283 -3.9396 -1.49578 0
M  V30 1984 H 183.007 -2.73213 -1.78948 0
M  V30 1985 H 181.666 -3.66374 0.128771 0
M  V30 1986 H 181.314 -4.52735 -2.1918 0
M  V30 1987 H 181.014 -5.79438 -0.975966 0
M  V30 1988 H 182.538 -5.80012 -1.90838 0
M  V30 1989 H 183.952 -5.72158 0.361702 0
M  V30 1990 H 182.349 -5.89286 1.13413 0
M  V30 1991 H 183.419 -4.56796 1.62683 0
M  V30 1992 N 184.763 -0.387143 -1.52771 0
M  V30 1993 C 185.673 0.456442 -2.30117 0
M  V30 1994 C 186.689 1.07342 -1.36944 0
M  V30 1995 O 187.865 1.07971 -1.70013 0
M  V30 1996 C 184.93 1.56957 -3.09136 0
M  V30 1997 C 183.991 0.977916 -4.18014 0
M  V30 1998 C 183.224 2.038 -4.93256 0
M  V30 1999 O 183.447 3.25271 -4.68567 0
M  V30 2000 O 182.381 1.6565 -5.78657 0
M  V30 2001 H 186.207 -0.17359 -3.03203 0
M  V30 2002 H 183.792 -0.150919 -1.48636 0
M  V30 2003 H 185.674 2.21628 -3.58412 0
M  V30 2004 H 184.349 2.18461 -2.38865 0
M  V30 2005 H 183.256 0.294525 -3.72939 0
M  V30 2006 H 184.589 0.407128 -4.90513 0
M  V30 2007 N 186.241 1.57166 -0.116904 0
M  V30 2008 C 187.151 2.18745 0.847812 0
M  V30 2009 C 188.167 1.163 1.29423 0
M  V30 2010 O 189.343 1.48761 1.35765 0
M  V30 2011 C 186.408 2.77307 2.0809 0
M  V30 2012 C 185.469 3.94781 1.68661 0
M  V30 2013 C 184.702 4.50541 2.86091 0
M  V30 2014 O 184.925 4.05202 4.01456 0
M  V30 2015 O 183.859 5.41256 2.63298 0
M  V30 2016 H 187.685 3.01632 0.353778 0
M  V30 2017 H 185.27 1.49005 0.108599 0
M  V30 2018 H 187.152 3.14647 2.80313 0
M  V30 2019 H 185.827 1.97452 2.56504 0
M  V30 2020 H 184.734 3.62214 0.935518 0
M  V30 2021 H 186.067 4.76065 1.24991 0
M  V30 2022 N 187.719 -0.156864 1.56817 0
M  V30 2023 C 188.968 -0.869504 1.81996 0
M  V30 2024 C 189.281 -1.82777 0.696545 0
M  V30 2025 O 190.487 -2.58384 0.833658 0
M  V30 2026 C 188.943 -1.59679 3.22538 0
M  V30 2027 C 188.551 -0.681431 4.42787 0
M  V30 2028 C 190.295 -2.2968 3.56997 0
M  V30 2029 C 188.202 -1.40978 5.74351 0
M  V30 2030 H 187.132 -0.328438 0.678708 0
M  V30 2031 H 189.783 -0.1223 1.83092 0
M  V30 2032 H 188.165 -2.38927 3.158 0
M  V30 2033 H 189.339 0.0751166 4.60739 0
M  V30 2034 H 187.654 -0.0903431 4.16302 0
M  V30 2035 H 190.251 -2.84794 4.52544 0
M  V30 2036 H 190.594 -3.05707 2.82576 0
M  V30 2037 H 191.127 -1.57361 3.65352 0
M  V30 2038 H 187.866 -0.691561 6.51842 0
M  V30 2039 H 187.386 -2.13929 5.60352 0
M  V30 2040 H 189.065 -1.95337 6.16808 0
M  V30 2041 N 189.197 -1.51736 -0.425897 0
M  V30 2042 C 190.427 -1.68549 -1.19476 0
M  V30 2043 C 190.835 -0.387288 -1.85194 0
M  V30 2044 O 190.178 0.645142 -1.71999 0
M  V30 2045 C 190.24 -2.75275 -2.31223 0
M  V30 2046 C 189.904 -4.17534 -1.8578 0
M  V30 2047 C 190.901 -5.01936 -1.35485 0
M  V30 2048 C 188.586 -4.6369 -1.93123 0
M  V30 2049 C 190.58 -6.30559 -0.931347 0
M  V30 2050 C 188.267 -5.92307 -1.50384 0
M  V30 2051 C 189.265 -6.75569 -1.00473 0
M  V30 2052 O 188.953 -8.0178 -0.583452 0
M  V30 2053 H 188.685 -0.568525 -0.365725 0
M  V30 2054 H 191.239 -1.98982 -0.509444 0
M  V30 2055 H 189.469 -2.40182 -3.03067 0
M  V30 2056 H 191.158 -2.80853 -2.93047 0
M  V30 2057 H 191.924 -4.67475 -1.29197 0
M  V30 2058 H 187.803 -3.98997 -2.30916 0
M  V30 2059 H 191.347 -6.95498 -0.541084 0
M  V30 2060 H 187.244 -6.2628 -1.56346 0
M  V30 2061 H 188.012 -8.1543 -0.708275 0
M  V30 2062 N 190.675 0.682077 -1.42076 0
M  V30 2063 C 191.952 1.43755 -1.32642 0
M  V30 2064 C 192.332 2.11063 0.0396611 0
M  V30 2065 O 191.68 2.02701 1.05474 0
M  V30 2066 C 191.89 2.44596 -2.48946 0
M  V30 2067 C 193.238 3.09454 -2.9073 0
M  V30 2068 O 194.262 2.54922 -2.48783 0
M  V30 2069 O 193.121 4.08253 -3.63307 0
M  V30 2070 H 190.215 0.640857 -0.522715 0
M  V30 2071 H 192.761 0.711415 -1.54068 0
M  V30 2072 H 191.533 1.93609 -3.40046 0
M  V30 2073 H 191.156 3.24701 -2.29467 0
M  V30 2074 N 192.153 1.28127 0.917671 0
M  V30 2075 C 193.4 1.15052 1.66641 0
M  V30 2076 C 193.728 -0.301677 1.92146 0
M  V30 2077 O 192.983 -1.23622 1.51711 0
M  V30 2078 C 193.282 1.89018 3.03327 0
M  V30 2079 C 192.948 3.38832 2.97496 0
M  V30 2080 C 191.61 3.79693 2.95613 0
M  V30 2081 C 193.962 4.34378 2.88036 0
M  V30 2082 C 191.29 5.14447 2.82066 0
M  V30 2083 C 193.642 5.69201 2.7603 0
M  V30 2084 C 192.306 6.09343 2.72502 0
M  V30 2085 H 191.576 0.421006 0.609783 0
M  V30 2086 H 194.223 1.58855 1.06945 0
M  V30 2087 H 192.528 1.37752 3.66785 0
M  V30 2088 H 194.225 1.76321 3.60156 0
M  V30 2089 H 190.815 3.06342 2.99754 0
M  V30 2090 H 194.999 4.03775 2.88581 0
M  V30 2091 H 190.255 5.44681 2.77728 0
M  V30 2092 H 194.429 6.42901 2.67678 0
M  V30 2093 H 192.056 7.13712 2.61762 0
M  V30 2094 N 193.631 -1.12557 1.10312 0
M  V30 2095 C 194.561 -2.20341 0.772798 0
M  V30 2096 C 195.542 -1.68198 -0.25365 0
M  V30 2097 O 196.727 -1.93831 -0.119699 0
M  V30 2098 C 193.857 -3.46709 0.202443 0
M  V30 2099 C 192.811 -4.11996 1.15943 0
M  V30 2100 C 192.137 -5.328 0.450345 0
M  V30 2101 C 193.437 -4.5828 2.50552 0
M  V30 2102 H 195.131 -2.48229 1.674 0
M  V30 2103 H 192.677 -1.19308 0.806326 0
M  V30 2104 H 194.63 -4.2138 -0.0407752 0
M  V30 2105 H 193.354 -3.18245 -0.734001 0
M  V30 2106 H 192.013 -3.39305 1.38808 0
M  V30 2107 H 191.661 -5.00602 -0.490531 0
M  V30 2108 H 191.361 -5.7743 1.08851 0
M  V30 2109 H 192.885 -6.10219 0.215642 0
M  V30 2110 H 194.299 -5.2433 2.31843 0
M  V30 2111 H 192.696 -5.13683 3.10242 0
M  V30 2112 H 193.766 -3.72329 3.10643 0
M  V30 2113 N 195.109 -0.891671 -1.2995 0
M  V30 2114 C 196.386 -0.433307 -1.9074 0
M  V30 2115 C 196.766 1.08646 -1.80995 0
M  V30 2116 O 196.114 1.92476 -1.23147 0
M  V30 2117 C 196.324 -0.938895 -3.36134 0
M  V30 2118 C 197.672 -0.977829 -4.13187 0
M  V30 2119 O 198.696 -0.886015 -3.45005 0
M  V30 2120 O 197.555 -1.11453 -5.35015 0
M  V30 2121 H 194.649 -0.133699 -0.816121 0
M  V30 2122 H 197.195 -0.981011 -1.38471 0
M  V30 2123 H 195.967 -1.98281 -3.37343 0
M  V30 2124 H 195.59 -0.37074 -3.95868 0
M  V30 2125 N 196.587 1.43421 -0.653314 0
M  V30 2126 C 197.517 2.33487 0.0246656 0
M  V30 2127 C 198.498 1.49475 0.811863 0
M  V30 2128 O 199.683 1.78139 0.773322 0
M  V30 2129 C 196.813 3.32841 0.99166 0
M  V30 2130 C 195.767 4.26842 0.314568 0
M  V30 2131 C 195.093 5.16236 1.39302 0
M  V30 2132 C 196.393 5.16243 -0.793095 0
M  V30 2133 H 198.087 2.90427 -0.727481 0
M  V30 2134 H 195.633 1.39649 -0.351287 0
M  V30 2135 H 197.586 3.94747 1.47487 0
M  V30 2136 H 196.31 2.74158 1.77497 0
M  V30 2137 H 194.969 3.663 -0.148199 0
M  V30 2138 H 194.617 4.53891 2.16776 0
M  V30 2139 H 194.317 5.79948 0.945223 0
M  V30 2140 H 195.841 5.81015 1.87759 0
M  V30 2141 H 197.255 5.71958 -0.392039 0
M  V30 2142 H 195.652 5.88676 -1.16536 0
M  V30 2143 H 196.722 4.55927 -1.65103 0
M  V30 2144 N 198.065 0.39524 1.52563 0
M  V30 2145 C 198.995 -0.428384 2.29537 0
M  V30 2146 C 199.976 -1.05831 1.33169 0
M  V30 2147 O 201.161 -1.06995 1.62067 0
M  V30 2148 C 198.291 -1.55274 3.10656 0
M  V30 2149 C 197.245 -1.04855 4.14957 0
M  V30 2150 C 196.571 -2.26543 4.84337 0
M  V30 2151 C 197.871 -0.112324 5.22179 0
M  V30 2152 H 199.565 0.213867 2.98635 0
M  V30 2153 H 197.111 0.104298 1.43622 0
M  V30 2154 H 199.064 -2.1358 3.63265 0
M  V30 2155 H 197.788 -2.22266 2.39302 0
M  V30 2156 H 196.447 -0.487985 3.63338 0
M  V30 2157 H 196.095 -2.92059 4.09525 0
M  V30 2158 H 195.795 -1.93466 5.54837 0
M  V30 2159 H 197.319 -2.85481 5.39753 0
M  V30 2160 H 198.733 -0.603752 5.70112 0
M  V30 2161 H 197.13 0.128968 5.99961 0
M  V30 2162 H 198.2 0.837052 4.77621 0
M  V30 2163 N 199.544 -1.57102 0.125237 0
M  V30 2164 C 200.79 -1.95697 -0.532035 0
M  V30 2165 C 201.123 -1.009 -1.6593 0
M  V30 2166 O 200.398 -0.047347 -1.94442 0
M  V30 2167 C 200.681 -3.44181 -1.05884 0
M  V30 2168 C 200.534 -4.49752 0.0654392 0
M  V30 2169 C 201.853 -3.94655 -1.9477 0
M  V30 2170 H 198.972 -0.711571 -0.191925 0
M  V30 2171 H 201.614 -1.88923 0.20206 0
M  V30 2172 H 199.764 -3.50085 -1.68442 0
M  V30 2173 H 201.436 -4.55943 0.700982 0
M  V30 2174 H 199.679 -4.27653 0.727709 0
M  V30 2175 H 200.35 -5.50924 -0.344505 0
M  V30 2176 H 202.826 -3.91094 -1.42074 0
M  V30 2177 H 201.702 -4.99057 -2.28546 0
M  V30 2178 H 201.963 -3.35718 -2.87656 0
M  V30 2179 N 201.022 0.148545 -1.56898 0
M  V30 2180 C 201.985 1.16736 -1.97244 0
M  V30 2181 C 202.985 1.35947 -0.858777 0
M  V30 2182 O 204.175 1.32966 -1.12542 0
M  V30 2183 C 201.307 2.52798 -2.28705 0
M  V30 2184 H 202.5 0.821279 -2.88435 0
M  V30 2185 H 200.053 0.391831 -1.51309 0
M  V30 2186 H 200.788 2.92381 -1.403 0
M  V30 2187 H 200.573 2.40216 -3.09901 0
M  V30 2188 H 202.063 3.26179 -2.60762 0
M  V30 2189 N 202.5 1.5196 0.417844 0
M  V30 2190 C 203.41 1.77554 1.53336 0
M  V30 2191 C 204.426 0.660655 1.6097 0
M  V30 2192 O 205.602 0.945099 1.77848 0
M  V30 2193 C 202.667 1.91291 2.89152 0
M  V30 2194 C 201.728 3.15183 2.91475 0
M  V30 2195 C 200.961 3.28256 4.20813 0
M  V30 2196 O 201.184 2.46798 5.14244 0
M  V30 2197 O 200.118 4.21356 4.29817 0
M  V30 2198 H 203.944 2.7222 1.34647 0
M  V30 2199 H 201.529 1.36698 0.602828 0
M  V30 2200 H 203.411 2.02199 3.69721 0
M  V30 2201 H 202.086 0.998129 3.07927 0
M  V30 2202 H 200.993 3.09739 2.09791 0
M  V30 2203 H 202.326 4.06414 2.77648 0
M  V30 2204 N 203.978 -0.674533 1.42435 0
M  V30 2205 C 204.926 -1.80934 1.46169 0
M  V30 2206 C 205.92 -1.66006 0.3374 0
M  V30 2207 O 207.126 -1.72611 0.510425 0
M  V30 2208 H 203.501 -0.596594 0.457798 0
M  V30 2209 H 205.472 -1.74903 2.41767 0
M  V30 2210 C 204.221 -3.19088 1.38123 0
M  V30 2211 H 203.544 -3.31203 2.23931 0
M  V30 2212 H 204.984 -3.9851 1.44797 0
M  V30 2213 C 203.443 -3.36763 0.0960517 0
M  V30 2214 O 203.973 -3.92581 -0.851073 0
M  V30 2215 N 202.179 -2.90597 0.0131186 0
M  V30 2216 H 201.726 -2.45359 0.784639 0
M  V30 2217 H 201.684 -3.028 -0.846133 0
M  V30 2218 N 205.456 -1.28612 -0.910864 0
M  V30 2219 C 206.867 -1.14406 -1.47541 0
M  V30 2220 C 207.218 0.264901 -1.94403 0
M  V30 2221 O 206.343 1.15942 -1.82719 0
M  V30 2222 C 206.938 -2.07073 -2.68153 0
M  V30 2223 C 205.497 -1.96923 -3.20778 0
M  V30 2224 C 204.644 -1.98646 -1.93481 0
M  V30 2225 H 207.595 -1.41259 -0.723291 0
M  V30 2226 H 207.616 -1.63642 -3.43514 0
M  V30 2227 H 207.128 -3.09611 -2.34015 0
M  V30 2228 H 205.229 -0.97433 -3.59635 0
M  V30 2229 H 205.342 -2.84026 -3.85832 0
M  V30 2230 H 203.706 -1.43093 -2.10705 0
M  V30 2231 H 204.489 -3.02868 -1.61634 0
M  V30 2232 N 206.934 1.1197 -1.10907 0
M  V30 2233 C 207.884 2.15946 -0.731538 0
M  V30 2234 C 208.868 1.58758 0.261699 0
M  V30 2235 O 210.06 1.76863 0.0696722 0
M  V30 2236 C 207.189 3.42877 -0.170299 0
M  V30 2237 C 206.275 4.07037 -1.19087 0
M  V30 2238 N 206.666 4.46135 -2.38322 0
M  V30 2239 C 204.964 4.33884 -1.03252 0
M  V30 2240 C 205.665 4.96331 -3.03366 0
M  V30 2241 N 204.641 4.9214 -2.30865 0
M  V30 2242 H 208.443 2.43947 -1.63912 0
M  V30 2243 H 205.957 1.28927 -0.987505 0
M  V30 2244 H 207.954 4.16732 0.118271 0
M  V30 2245 H 206.614 3.16343 0.731935 0
M  V30 2246 H 207.625 4.38345 -2.75815 0
M  V30 2247 H 204.302 4.17084 -0.186256 0
M  V30 2248 H 205.692 5.36257 -4.04818 0
M  V30 2249 N 208.412 0.89855 1.29475 0
M  V30 2250 C 209.342 0.39201 2.30186 0
M  V30 2251 C 210.323 -0.532359 1.61555 0
M  V30 2252 O 211.508 -0.443331 1.89072 0
M  V30 2253 C 208.638 -0.382353 3.45189 0
M  V30 2254 C 207.592 0.451483 4.25612 0
M  V30 2255 C 206.918 -0.450307 5.328 0
M  V30 2256 C 208.218 1.70079 4.93832 0
M  V30 2257 H 209.912 1.23362 2.72804 0
M  V30 2258 H 207.458 0.594638 1.31149 0
M  V30 2259 H 209.411 -0.747451 4.14718 0
M  V30 2260 H 208.135 -1.25774 3.01411 0
M  V30 2261 H 206.794 0.798897 3.57789 0
M  V30 2262 H 206.442 -1.32379 4.85268 0
M  V30 2263 H 206.142 0.103902 5.87508 0
M  V30 2264 H 207.666 -0.811623 6.05182 0
M  V30 2265 H 209.08 1.40549 5.55805 0
M  V30 2266 H 207.477 2.19623 5.58467 0
M  V30 2267 H 208.547 2.43744 4.19186 0
M  V30 2268 N 209.89 -1.43072 0.660911 0
M  V30 2269 C 211.136 -2.0202 0.177708 0
M  V30 2270 C 211.469 -1.52066 -1.20787 0
M  V30 2271 O 210.744 -0.716987 -1.80802 0
M  V30 2272 C 211.027 -3.59561 0.197019 0
M  V30 2273 C 210.88 -4.19727 1.61706 0
M  V30 2274 C 212.199 -4.37664 -0.462396 0
M  V30 2275 H 209.318 -0.734034 0.0660494 0
M  V30 2276 H 211.96 -1.70272 0.843058 0
M  V30 2277 H 210.11 -3.86739 -0.369527 0
M  V30 2278 H 211.782 -4.03553 2.23479 0
M  V30 2279 H 210.025 -3.76084 2.16201 0
M  V30 2280 H 210.696 -5.28834 1.58237 0
M  V30 2281 H 213.172 -4.16095 0.0197215 0
M  V30 2282 H 212.048 -5.47305 -0.418188 0
M  V30 2283 H 212.309 -4.14493 -1.53778 0
M  V30 2284 N 211.368 -0.403325 -1.52352 0
M  V30 2285 C 212.593 0.176499 -2.06648 0
M  V30 2286 C 213.018 1.38577 -1.27193 0
M  V30 2287 O 212.376 1.7879 -0.300637 0
M  V30 2288 C 212.424 0.511061 -3.5696 0
M  V30 2289 O 211.528 1.60294 -3.79973 0
M  V30 2290 H 210.869 0.0167337 -0.663789 0
M  V30 2291 H 213.399 -0.574848 -1.96359 0
M  V30 2292 H 213.409 0.771362 -4.00642 0
M  V30 2293 H 212.084 -0.37296 -4.14224 0
M  V30 2294 H 210.661 1.33526 -3.48174 0
M  V30 2295 N 212.846 1.57033 -0.133567 0
M  V30 2296 C 213.793 2.16074 0.811208 0
M  V30 2297 C 214.763 1.08979 1.2535 0
M  V30 2298 O 215.948 1.36958 1.32843 0
M  V30 2299 C 213.088 2.77595 2.05024 0
M  V30 2300 C 212.201 3.99042 1.65498 0
M  V30 2301 C 211.336 4.48603 2.84479 0
M  V30 2302 C 210.375 5.62547 2.41262 0
M  V30 2303 N 209.512 6.06787 3.53206 0
M  V30 2304 H 214.352 2.96477 0.300906 0
M  V30 2305 H 211.889 1.46462 0.136822 0
M  V30 2306 H 213.847 3.11402 2.77642 0
M  V30 2307 H 212.477 1.99859 2.53488 0
M  V30 2308 H 211.529 3.71302 0.826981 0
M  V30 2309 H 212.841 4.81629 1.29748 0
M  V30 2310 H 211.995 4.84395 3.65303 0
M  V30 2311 H 210.734 3.64995 3.23465 0
M  V30 2312 H 209.739 5.26345 1.58874 0
M  V30 2313 H 210.964 6.47931 2.03377 0
M  V30 2314 H 208.91 5.26117 3.91838 0
M  V30 2315 H 208.827 6.84266 3.21427 0
M  V30 2316 H 210.095 6.4722 4.34427 0
M  V30 2317 N 214.325 -0.140222 1.56975 0
M  V30 2318 C 215.574 -0.850152 1.82908 0
M  V30 2319 C 215.887 -1.82028 0.715892 0
M  V30 2320 O 217.093 -2.57485 0.861016 0
M  V30 2321 C 215.549 -1.5625 3.24213 0
M  V30 2322 C 215.157 -0.63443 4.43485 0
M  V30 2323 C 216.901 -2.25881 3.59413 0
M  V30 2324 C 214.808 -1.34879 5.75814 0
M  V30 2325 H 213.738 -0.321221 0.682153 0
M  V30 2326 H 216.389 -0.102874 1.83211 0
M  V30 2327 H 214.771 -2.35565 3.18316 0
M  V30 2328 H 215.945 0.12398 4.60633 0
M  V30 2329 H 214.26 -0.0461836 4.16374 0
M  V30 2330 H 216.857 -2.79978 4.5554 0
M  V30 2331 H 217.2 -3.02693 2.85802 0
M  V30 2332 H 217.733 -1.53477 3.67001 0
M  V30 2333 H 214.472 -0.622385 6.52539 0
M  V30 2334 H 213.992 -2.07974 5.6259 0
M  V30 2335 H 215.671 -1.88784 6.18845 0
M  V30 2336 N 215.803 -1.52179 -0.40978 0
M  V30 2337 C 216.735 -1.71703 -1.51825 0
M  V30 2338 C 217.748 -0.597445 -1.51441 0
M  V30 2339 O 218.937 -0.872582 -1.55719 0
M  V30 2340 C 216.037 -1.74171 -2.90719 0
M  V30 2341 C 215.21 -3.03156 -3.15302 0
M  V30 2342 C 214.269 -2.97445 -4.34065 0
M  V30 2343 O 213.295 -3.71352 -4.31377 0
M  V30 2344 N 214.497 -2.15191 -5.39141 0
M  V30 2345 H 217.262 -2.67334 -1.35472 0
M  V30 2346 H 214.823 -1.50409 -0.599069 0
M  V30 2347 H 216.815 -1.67884 -3.68235 0
M  V30 2348 H 215.385 -0.860166 -3.00533 0
M  V30 2349 H 214.605 -3.23097 -2.25836 0
M  V30 2350 H 215.893 -3.88484 -3.28569 0
M  V30 2351 H 215.291 -1.54573 -5.44173 0
M  V30 2352 H 213.848 -2.1476 -6.15403 0
M  V30 2353 N 217.281 0.66697 -1.42791 0
M  V30 2354 C 218.53 1.42278 -1.42968 0
M  V30 2355 C 218.843 1.9553 -0.0524489 0
M  V30 2356 O 220.049 2.71414 0.068363 0
M  V30 2357 C 218.505 2.57418 -2.51524 0
M  V30 2358 C 218.113 2.10832 -3.9529 0
M  V30 2359 C 219.857 3.34878 -2.60877 0
M  V30 2360 C 217.764 3.23101 -4.95338 0
M  V30 2361 H 216.694 0.534533 -0.531781 0
M  V30 2362 H 219.345 0.721302 -1.68729 0
M  V30 2363 H 217.727 3.29971 -2.18941 0
M  V30 2364 H 218.901 1.4538 -4.37266 0
M  V30 2365 H 217.216 1.46289 -3.89857 0
M  V30 2366 H 219.813 4.18505 -3.32802 0
M  V30 2367 H 220.156 3.81993 -1.6549 0
M  V30 2368 H 220.689 2.69398 -2.92693 0
M  V30 2369 H 217.428 2.80969 -5.9223 0
M  V30 2370 H 216.948 3.87309 -4.57987 0
M  V30 2371 H 218.627 3.88447 -5.17415 0
M  V30 2372 N 218.759 1.29093 0.90403 0
M  V30 2373 C 220.007 1.16583 1.65085 0
M  V30 2374 C 220.328 -0.283933 1.92922 0
M  V30 2375 O 219.598 -1.19509 1.55224 0
M  V30 2376 H 218.178 0.428467 0.611903 0
M  V30 2377 H 220.84 1.61959 1.08422 0
M  V30 2378 H 219.936 1.71266 2.6091 0
M  V30 2379 N 220.237 -1.11381 1.11499 0
M  V30 2380 C 221.185 -2.19522 0.768956 0
M  V30 2381 C 222.179 -1.67693 -0.239857 0
M  V30 2382 O 223.385 -1.79727 -0.0990755 0
M  V30 2383 H 219.76 -0.715711 0.230786 0
M  V30 2384 H 221.731 -2.45954 1.68964 0
M  V30 2385 C 220.48 -3.46945 0.229073 0
M  V30 2386 H 219.803 -3.8718 0.996596 0
M  V30 2387 H 221.243 -4.23993 0.0251441 0
M  V30 2388 C 219.702 -3.2042 -1.04079 0
M  V30 2389 O 220.232 -3.41178 -2.12038 0
M  V30 2390 N 218.438 -2.74151 -0.963823 0
M  V30 2391 H 217.985 -2.57459 -0.0851722 0
M  V30 2392 H 217.943 -2.56781 -1.81414 0
M  V30 2393 N 221.715 -0.905404 -1.28997 0
M  V30 2394 C 222.943 -0.549846 -1.9946 0
M  V30 2395 C 223.358 0.866834 -1.67724 0
M  V30 2396 O 222.715 1.57298 -0.925404 0
M  V30 2397 C 222.766 -0.739387 -3.53858 0
M  V30 2398 O 222.487 -2.10031 -3.84472 0
M  V30 2399 C 223.988 -0.389541 -4.41585 0
M  V30 2400 H 221.208 -0.210429 -0.637151 0
M  V30 2401 H 223.752 -1.21632 -1.64396 0
M  V30 2402 H 221.907 -0.120023 -3.87214 0
M  V30 2403 H 222.321 -2.13385 -4.79132 0
M  V30 2404 H 223.795 -0.572972 -5.49018 0
M  V30 2405 H 224.272 0.673756 -4.34001 0
M  V30 2406 H 224.878 -0.986089 -4.1371 0
M  V30 2407 N 223.193 1.4272 -0.668489 0
M  V30 2408 C 224.423 2.05668 -0.196063 0
M  V30 2409 C 224.831 1.5028 1.14946 0
M  V30 2410 O 224.174 0.6348 1.72383 0
M  V30 2411 C 224.236 3.59469 -0.0468879 0
M  V30 2412 C 223.9 4.37518 -1.32012 0
M  V30 2413 C 224.897 4.68584 -2.25222 0
M  V30 2414 C 222.582 4.77266 -1.56596 0
M  V30 2415 C 224.576 5.38326 -3.41297 0
M  V30 2416 C 222.263 5.4675 -2.72962 0
M  V30 2417 C 223.261 5.77204 -3.65137 0
M  V30 2418 O 222.949 6.45264 -4.79468 0
M  V30 2419 H 222.681 0.669382 -0.0943599 0
M  V30 2420 H 225.235 1.83954 -0.913788 0
M  V30 2421 H 223.465 3.79817 0.726357 0
M  V30 2422 H 225.154 4.04071 0.384852 0
M  V30 2423 H 225.92 4.38382 -2.07477 0
M  V30 2424 H 221.799 4.52959 -0.857249 0
M  V30 2425 H 225.343 5.62014 -4.13263 0
M  V30 2426 H 221.24 5.76369 -2.90635 0
M  V30 2427 H 222.008 6.63753 -4.78931 0
M  V30 2428 N 224.671 0.411399 1.52136 0
M  V30 2429 C 225.581 -0.419774 2.30814 0
M  V30 2430 C 226.597 -1.0515 1.38634 0
M  V30 2431 O 227.773 -1.05252 1.71709 0
M  V30 2432 C 224.838 -1.52019 3.11594 0
M  V30 2433 C 223.899 -0.91129 4.19516 0
M  V30 2434 C 223.132 -1.95927 4.96436 0
M  V30 2435 O 223.355 -3.17775 4.73683 0
M  V30 2436 O 222.289 -1.56423 5.81219 0
M  V30 2437 H 226.115 0.221805 3.02889 0
M  V30 2438 H 223.7 0.174547 1.48377 0
M  V30 2439 H 225.582 -2.15898 3.61892 0
M  V30 2440 H 224.257 -2.14633 2.42311 0
M  V30 2441 H 223.164 -0.235157 3.7336 0
M  V30 2442 H 224.497 -0.32904 4.91099 0
M  V30 2443 N 226.149 -1.5696 0.141893 0
M  V30 2444 C 227.397 -1.95573 -0.509484 0
M  V30 2445 C 227.718 -1.02746 -1.65736 0
M  V30 2446 O 226.988 -0.0880311 -1.95702 0
M  V30 2447 H 225.568 -0.722115 -0.191205 0
M  V30 2448 H 228.23 -1.93697 0.216196 0
M  V30 2449 H 227.326 -2.99171 -0.889 0
M  V30 2450 N 227.627 0.131896 -1.57047 0
M  V30 2451 C 229.043 0.485031 -1.52051 0
M  V30 2452 C 229.243 1.82563 -0.85281 0
M  V30 2453 O 228.299 2.48817 -0.429694 0
M  V30 2454 C 229.612 0.481409 -2.96821 0
M  V30 2455 C 231.16 0.565868 -3.07842 0
M  V30 2456 C 231.635 0.592762 -4.54148 0
M  V30 2457 N 233.126 0.654564 -4.58552 0
M  V30 2458 C 233.861 0.696608 -5.69153 0
M  V30 2459 N 233.357 0.697078 -6.89284 0
M  V30 2460 N 235.15 0.738639 -5.57226 0
M  V30 2461 H 227.301 -0.746664 -1.98843 0
M  V30 2462 H 229.564 -0.273999 -0.90754 0
M  V30 2463 H 229.27 -0.435731 -3.4899 0
M  V30 2464 H 229.144 1.3139 -3.53577 0
M  V30 2465 H 231.531 1.47343 -2.55684 0
M  V30 2466 H 231.612 -0.29406 -2.54104 0
M  V30 2467 H 231.256 -0.310701 -5.06949 0
M  V30 2468 H 231.186 1.46939 -5.05684 0
M  V30 2469 H 233.677 0.660887 -3.72076 0
M  V30 2470 H 233.99 0.731426 -7.69331 0
M  V30 2471 H 232.335 0.66471 -6.91814 0
M  V30 2472 H 235.526 0.735545 -4.62285 0
M  V30 2473 H 235.699 0.767938 -6.43434 0
M  V30 2474 N 229.106 1.52395 0.401703 0
M  V30 2475 C 230.517 1.58899 0.980202 0
M  V30 2476 C 230.868 0.434032 1.91339 0
M  V30 2477 O 229.993 -0.444619 2.11783 0
M  V30 2478 C 230.588 2.87994 1.78451 0
M  V30 2479 C 229.147 2.96953 2.31292 0
M  V30 2480 C 228.294 2.53903 1.11483 0
M  V30 2481 H 231.245 1.57657 0.18168 0
M  V30 2482 H 231.266 2.73765 2.64259 0
M  V30 2483 H 230.778 3.72035 1.10506 0
M  V30 2484 H 228.879 2.17422 3.02586 0
M  V30 2485 H 228.992 4.01344 2.61649 0
M  V30 2486 H 227.356 2.07925 1.47104 0
M  V30 2487 H 228.139 3.40326 0.450928 0
M  V30 2488 N 230.584 -0.659388 1.43143 0
M  V30 2489 C 231.833 -1.41518 1.43721 0
M  V30 2490 C 232.146 -1.95499 0.0628176 0
M  V30 2491 O 233.352 -2.71446 -0.0539683 0
M  V30 2492 C 231.808 -2.5608 2.52885 0
M  V30 2493 C 231.416 -2.08733 3.96402 0
M  V30 2494 C 233.16 -3.3349 2.62649 0
M  V30 2495 C 231.067 -3.20469 4.97045 0
M  V30 2496 H 229.997 -0.531705 0.534608 0
M  V30 2497 H 232.648 -0.712343 1.69109 0
M  V30 2498 H 231.03 -3.28805 2.20688 0
M  V30 2499 H 232.204 -1.43059 4.3803 0
M  V30 2500 H 230.519 -1.44219 3.90627 0
M  V30 2501 H 233.116 -4.16734 3.35017 0
M  V30 2502 H 233.459 -3.8111 1.67513 0
M  V30 2503 H 233.992 -2.67842 2.94118 0
M  V30 2504 H 230.731 -2.77824 5.93712 0
M  V30 2505 H 230.251 -3.84874 4.60034 0
M  V30 2506 H 231.93 -3.85698 5.19467 0
M  V30 2507 N 232.062 -1.29571 -0.897171 0
M  V30 2508 C 233.292 -1.20408 -1.67886 0
M  V30 2509 C 233.7 0.237429 -1.87704 0
M  V30 2510 O 233.043 1.17048 -1.41582 0
M  V30 2511 C 233.105 -1.84887 -3.08314 0
M  V30 2512 C 232.769 -3.34189 -3.11716 0
M  V30 2513 C 233.766 -4.30374 -2.91675 0
M  V30 2514 C 231.451 -3.75431 -3.33701 0
M  V30 2515 C 233.445 -5.65776 -2.93557 0
M  V30 2516 C 231.132 -5.10955 -3.35214 0
M  V30 2517 C 232.13 -6.05938 -3.15164 0
M  V30 2518 O 231.818 -7.38987 -3.1647 0
M  V30 2519 H 231.55 -0.418289 -0.531046 0
M  V30 2520 H 234.104 -1.71514 -1.13014 0
M  V30 2521 H 232.334 -1.28295 -3.64798 0
M  V30 2522 H 234.023 -1.70011 -3.6858 0
M  V30 2523 H 234.789 -3.99844 -2.74499 0
M  V30 2524 H 230.668 -3.01953 -3.48347 0
M  V30 2525 H 234.212 -6.39889 -2.77826 0
M  V30 2526 H 230.109 -5.4113 -3.51922 0
M  V30 2527 H 230.877 -7.47823 -3.3272 0
M  V30 2528 N 233.54 1.10788 -1.12088 0
M  V30 2529 C 234.786 1.82942 -0.875226 0
M  V30 2530 C 235.119 1.84779 0.597538 0
M  V30 2531 O 234.394 1.30578 1.44152 0
M  V30 2532 C 234.677 3.29789 -1.44606 0
M  V30 2533 C 234.53 3.36307 -2.98693 0
M  V30 2534 C 235.849 4.26064 -1.10261 0
M  V30 2535 H 232.968 0.664195 -0.319397 0
M  V30 2536 H 235.61 1.29867 -1.38689 0
M  V30 2537 H 233.76 3.75118 -1.01089 0
M  V30 2538 H 235.432 2.99487 -3.50864 0
M  V30 2539 H 233.675 2.76318 -3.34411 0
M  V30 2540 H 234.346 4.39694 -3.33726 0
M  V30 2541 H 236.822 3.88951 -1.4784 0
M  V30 2542 H 235.698 5.27183 -1.52869 0
M  V30 2543 H 235.959 4.42098 -0.0142953 0
M  V30 2544 N 235.018 0.912232 1.28515 0
M  V30 2545 C 235.948 0.416403 2.29757 0
M  V30 2546 C 236.929 -0.515194 1.6211 0
M  V30 2547 O 238.114 -0.423253 1.89532 0
M  V30 2548 C 235.244 -0.34572 3.45575 0
M  V30 2549 C 234.198 0.496599 4.25109 0
M  V30 2550 C 233.524 -0.393771 5.33248 0
M  V30 2551 C 234.824 1.75307 4.92001 0
M  V30 2552 H 236.518 1.26249 2.7148 0
M  V30 2553 H 234.064 0.608515 1.30511 0
M  V30 2554 H 236.017 -0.703422 4.15488 0
M  V30 2555 H 234.741 -1.2257 3.02728 0
M  V30 2556 H 233.4 0.8368 3.56922 0
M  V30 2557 H 233.048 -1.27225 4.86644 0
M  V30 2558 H 232.748 0.166209 5.87365 0
M  V30 2559 H 234.272 -0.747389 6.06009 0
M  V30 2560 H 235.686 1.46437 5.54283 0
M  V30 2561 H 234.083 2.25534 5.56106 0
M  V30 2562 H 235.153 2.48176 4.16577 0
M  V30 2563 N 236.496 -1.42363 0.676048 0
M  V30 2564 C 237.443 -2.308 -0.00150904 0
M  V30 2565 C 238.413 -1.46032 -0.791444 0
M  V30 2566 O 239.598 -1.74861 -0.76344 0
M  V30 2567 C 236.738 -3.31883 -0.945919 0
M  V30 2568 C 235.851 -4.31741 -0.149675 0
M  V30 2569 C 234.986 -5.19898 -1.08995 0
M  V30 2570 C 234.025 -6.11434 -0.285465 0
M  V30 2571 N 233.162 -6.92138 -1.17851 0
M  V30 2572 H 238.002 -2.88187 0.758455 0
M  V30 2573 H 235.539 -1.41952 0.38576 0
M  V30 2574 H 237.497 -3.89019 -1.50731 0
M  V30 2575 H 236.127 -2.76093 -1.6725 0
M  V30 2576 H 235.179 -3.76713 0.528359 0
M  V30 2577 H 236.491 -4.96534 0.474866 0
M  V30 2578 H 235.645 -5.81772 -1.72123 0
M  V30 2579 H 234.384 -4.55284 -1.74837 0
M  V30 2580 H 233.389 -5.48627 0.359018 0
M  V30 2581 H 234.614 -6.78097 0.368883 0
M  V30 2582 H 232.56 -6.30152 -1.82332 0
M  V30 2583 H 232.477 -7.53542 -0.609082 0
M  V30 2584 H 233.745 -7.58499 -1.79722 0
M  V30 2585 N 237.974 -0.419461 -1.51915 0
M  V30 2586 C 239.221 0.152939 -2.01922 0
M  V30 2587 C 239.549 1.4426 -1.30458 0
M  V30 2588 O 238.804 1.91514 -0.402593 0
M  V30 2589 C 239.103 0.437067 -3.54717 0
M  V30 2590 C 238.769 -0.764632 -4.44369 0
M  V30 2591 C 237.431 -1.09423 -4.68594 0
M  V30 2592 C 239.783 -1.56713 -4.97082 0
M  V30 2593 C 237.111 -2.22732 -5.42777 0
M  V30 2594 C 239.463 -2.69107 -5.72507 0
M  V30 2595 C 238.127 -3.02541 -5.95 0
M  V30 2596 H 237.397 0.0559644 -0.738884 0
M  V30 2597 H 240.044 -0.562998 -1.83037 0
M  V30 2598 H 238.349 1.23469 -3.71837 0
M  V30 2599 H 240.046 0.893083 -3.90928 0
M  V30 2600 H 236.636 -0.497775 -4.257 0
M  V30 2601 H 240.82 -1.32571 -4.78266 0
M  V30 2602 H 236.076 -2.48971 -5.58411 0
M  V30 2603 H 240.25 -3.31671 -6.12346 0
M  V30 2604 H 237.877 -3.90457 -6.52264 0
M  V30 2605 N 239.452 1.56882 -0.150215 0
M  V30 2606 C 240.677 2.01027 0.510184 0
M  V30 2607 C 241.102 1.02966 1.57415 0
M  V30 2608 O 240.46 0.00590158 1.81299 0
M  V30 2609 C 240.508 3.43899 1.08472 0
M  V30 2610 O 239.612 3.4885 2.19948 0
M  V30 2611 H 238.953 0.652233 0.124451 0
M  V30 2612 H 241.483 2.03093 -0.247894 0
M  V30 2613 H 241.493 3.82766 1.41259 0
M  V30 2614 H 240.168 4.14776 0.305582 0
M  V30 2615 H 238.745 3.21827 1.88366 0
M  V30 2616 N 240.93 -0.123565 1.57115 0
M  V30 2617 C 242.158 -0.846461 1.88793 0
M  V30 2618 C 242.573 -1.73652 0.740976 0
M  V30 2619 O 241.93 -1.80207 -0.288393 0
M  V30 2620 C 241.981 -1.6837 3.19897 0
M  V30 2621 O 241.702 -0.829477 4.30176 0
M  V30 2622 C 243.203 -2.51214 3.65248 0
M  V30 2623 H 240.423 -0.243573 0.625231 0
M  V30 2624 H 242.967 -0.109324 2.04208 0
M  V30 2625 H 241.122 -2.37364 3.06165 0
M  V30 2626 H 241.536 -1.40651 5.0529 0
M  V30 2627 H 243.01 -3.05497 4.59756 0
M  V30 2628 H 243.487 -3.28359 2.9168 0
M  V30 2629 H 244.093 -1.8747 3.81752 0
M  V30 2630 N 242.408 -1.52605 -0.393616 0
M  V30 2631 C 243.656 -1.67093 -1.13685 0
M  V30 2632 C 243.977 -0.411011 -1.90619 0
M  V30 2633 O 243.247 0.574491 -1.87287 0
M  V30 2634 H 241.827 -0.615923 -0.422668 0
M  V30 2635 H 244.489 -1.89704 -0.447039 0
M  V30 2636 H 243.585 -2.51922 -1.84232 0
M  V30 2637 N 243.887 0.651787 -1.4349 0
M  V30 2638 C 245.135 1.40888 -1.44897 0
M  V30 2639 C 245.456 1.94856 -0.0749086 0
M  V30 2640 O 244.726 1.74518 0.889956 0
M  V30 2641 H 243.306 0.522887 -0.533478 0
M  V30 2642 H 245.968 0.768609 -1.79104 0
M  V30 2643 H 245.064 2.25052 -2.16236 0
M  V30 2644 N 245.365 1.30045 0.890287 0
M  V30 2645 C 246.59 1.21598 1.68014 0
M  V30 2646 C 247.015 -0.218678 1.86825 0
M  V30 2647 O 246.373 -1.15756 1.39536 0
M  V30 2648 C 246.421 1.94434 3.03691 0
M  V30 2649 O 245.525 1.2678 3.92429 0
M  V30 2650 H 244.866 0.420856 0.513592 0
M  V30 2651 H 247.396 1.71775 1.11151 0
M  V30 2652 H 247.406 2.03251 3.5377 0
M  V30 2653 H 246.081 2.98777 2.89318 0
M  V30 2654 H 244.658 1.26282 3.50866 0
M  V30 2655 N 246.843 -1.10192 1.12674 0
M  V30 2656 C 247.79 -2.16606 0.796906 0
M  V30 2657 C 248.76 -1.64394 -0.237476 0
M  V30 2658 O 249.945 -1.90474 -0.111484 0
M  V30 2659 C 247.085 -3.44116 0.26043 0
M  V30 2660 C 246.198 -4.10268 1.35293 0
M  V30 2661 C 245.333 -5.25507 0.775621 0
M  V30 2662 C 244.372 -5.83567 1.84706 0
M  V30 2663 N 243.509 -6.90179 1.28829 0
M  V30 2664 H 248.349 -2.44163 1.70846 0
M  V30 2665 H 245.886 -1.19846 0.85295 0
M  V30 2666 H 247.844 -4.17143 -0.0686814 0
M  V30 2667 H 246.474 -3.16901 -0.614274 0
M  V30 2668 H 245.526 -3.35184 1.79877 0
M  V30 2669 H 246.838 -4.4946 2.16303 0
M  V30 2670 H 245.992 -6.05398 0.397327 0
M  V30 2671 H 244.731 -4.87656 -0.0656581 0
M  V30 2672 H 243.736 -5.02344 2.23452 0
M  V30 2673 H 244.961 -6.23482 2.69161 0
M  V30 2674 H 242.907 -6.54322 0.468881 0
M  V30 2675 H 242.824 -7.28097 2.03497 0
M  V30 2676 H 244.092 -7.73844 0.937311 0
M  V30 2677 N 248.321 -0.919034 -1.28029 0
M  V30 2678 C 249.737 -0.617972 -1.4715 0
M  V30 2679 C 249.937 0.835242 -1.83374 0
M  V30 2680 O 248.993 1.61388 -1.94191 0
M  V30 2681 C 250.306 -1.56041 -2.57044 0
M  V30 2682 C 251.854 -1.56769 -2.7091 0
M  V30 2683 C 252.329 -2.49688 -3.83953 0
M  V30 2684 N 253.82 -2.47845 -3.91314 0
M  V30 2685 C 254.555 -3.16437 -4.78179 0
M  V30 2686 N 254.051 -3.94376 -5.69596 0
M  V30 2687 N 255.844 -3.05498 -4.71834 0
M  V30 2688 H 247.995 -1.85866 -1.02798 0
M  V30 2689 H 250.258 -0.797506 -0.512531 0
M  V30 2690 H 249.964 -2.59671 -2.372 0
M  V30 2691 H 249.838 -1.29551 -3.54255 0
M  V30 2692 H 252.225 -0.538745 -2.90141 0
M  V30 2693 H 252.306 -1.87305 -1.74214 0
M  V30 2694 H 251.95 -3.52688 -3.65477 0
M  V30 2695 H 251.88 -2.16453 -4.80058 0
M  V30 2696 H 254.371 -1.91234 -3.25941 0
M  V30 2697 H 254.684 -4.43721 -6.32718 0
M  V30 2698 H 253.029 -3.98481 -5.69419 0
M  V30 2699 H 256.22 -2.44108 -3.99411 0
M  V30 2700 H 256.393 -3.59225 -5.39316 0
M  V30 2701 N 249.799 1.42003 -0.683588 0
M  V30 2702 C 251.21 1.84501 -0.285736 0
M  V30 2703 C 251.561 1.57213 1.17382 0
M  V30 2704 O 250.686 1.03642 1.89966 0
M  V30 2705 C 251.281 3.34912 -0.511821 0
M  V30 2706 C 249.84 3.76025 -0.168005 0
M  V30 2707 C 248.987 2.6551 -0.799983 0
M  V30 2708 H 251.938 1.31724 -0.885119 0
M  V30 2709 H 251.959 3.79784 0.233292 0
M  V30 2710 H 251.471 3.54741 -1.57418 0
M  V30 2711 H 249.572 3.61801 0.890567 0
M  V30 2712 H 249.685 4.75141 -0.614661 0
M  V30 2713 H 248.049 2.53654 -0.230568 0
M  V30 2714 H 248.832 2.8816 -1.86597 0
M  V30 2715 N 251.277 0.427512 1.51691 0
M  V30 2716 C 252.24 -0.377132 2.26076 0
M  V30 2717 C 253.24 -0.958089 1.29141 0
M  V30 2718 O 254.43 -0.83408 1.52934 0
M  V30 2719 C 251.562 -1.53262 3.04506 0
M  V30 2720 H 252.755 0.27464 2.9864 0
M  V30 2721 H 250.308 0.180445 1.55255 0
M  V30 2722 H 251.043 -2.22072 2.36335 0
M  V30 2723 H 250.828 -1.12232 3.75694 0
M  V30 2724 H 252.318 -2.10135 3.60878 0
M  V30 2725 N 252.755 -1.56801 0.158532 0
M  V30 2726 C 254.004 -1.95665 -0.489702 0
M  V30 2727 C 254.317 -1.04654 -1.65248 0
M  V30 2728 O 255.523 -1.33146 -2.3661 0
M  V30 2729 C 253.979 -3.47874 -0.922582 0
M  V30 2730 C 253.587 -4.47489 0.213893 0
M  V30 2731 C 255.331 -3.95583 -1.53996 0
M  V30 2732 C 253.238 -5.90921 -0.237903 0
M  V30 2733 H 252.168 -0.730516 -0.186716 0
M  V30 2734 H 254.819 -1.81861 0.244722 0
M  V30 2735 H 253.201 -3.57051 -1.71261 0
M  V30 2736 H 254.375 -4.50017 0.991036 0
M  V30 2737 H 252.69 -4.09764 0.740407 0
M  V30 2738 H 255.287 -5.0019 -1.8898 0
M  V30 2739 H 255.63 -3.37789 -2.43319 0
M  V30 2740 H 256.163 -3.8937 -0.814611 0
M  V30 2741 H 252.902 -6.52559 0.620236 0
M  V30 2742 H 252.422 -5.91729 -0.980676 0
M  V30 2743 H 254.101 -6.43352 -0.686067 0
M  V30 2744 N 254.233 0.115231 -1.57178 0
M  V30 2745 C 255.479 0.818565 -1.86202 0
M  V30 2746 C 255.834 1.77316 -0.746785 0
M  V30 2747 O 255.127 1.89923 0.25291 0
M  V30 2748 C 255.321 1.60324 -3.19423 0
M  V30 2749 C 255.15 0.726138 -4.43799 0
M  V30 2750 C 253.92 0.379535 -5.03873 0
M  V30 2751 C 256.118 0.0420774 -5.14283 0
M  V30 2752 N 254.1 -0.507841 -6.11796 0
M  V30 2753 C 255.471 -0.704152 -6.15988 0
M  V30 2754 C 257.526 -0.0339486 -4.97888 0
M  V30 2755 C 256.229 -1.51927 -7.03072 0
M  V30 2756 C 258.255 -0.835906 -5.85463 0
M  V30 2757 C 257.617 -1.57031 -6.86673 0
M  V30 2758 H 253.716 0.276343 -0.731545 0
M  V30 2759 H 256.3 0.0821032 -1.94527 0
M  V30 2760 H 254.471 2.31072 -3.12186 0
M  V30 2761 H 256.203 2.2522 -3.36241 0
M  V30 2762 H 252.958 0.722634 -4.68054 0
M  V30 2763 H 253.382 -0.94349 -6.70393 0
M  V30 2764 H 258.024 0.519496 -4.19596 0
M  V30 2765 H 255.742 -2.08386 -7.80769 0
M  V30 2766 H 259.328 -0.89714 -5.74841 0
M  V30 2767 H 258.208 -2.18088 -7.53264 0
M  V30 2768 N 255.711 1.52812 0.385517 0
M  V30 2769 C 256.96 1.67249 1.12741 0
M  V30 2770 C 257.273 0.4205 1.91027 0
M  V30 2771 O 258.479 0.445064 2.67827 0
M  V30 2772 C 256.935 2.95583 2.05326 0
M  V30 2773 C 256.543 4.27974 1.32447 0
M  V30 2774 C 258.287 3.19386 2.7963 0
M  V30 2775 C 256.194 5.47412 2.23818 0
M  V30 2776 H 255.124 0.6231 0.424573 0
M  V30 2777 H 257.775 1.79309 0.389924 0
M  V30 2778 H 256.157 2.77277 2.82725 0
M  V30 2779 H 257.331 4.56844 0.602495 0
M  V30 2780 H 255.646 4.10459 0.700885 0
M  V30 2781 H 258.243 4.05801 3.48181 0
M  V30 2782 H 258.586 2.34604 3.43899 0
M  V30 2783 H 259.119 3.38274 2.09322 0
M  V30 2784 H 255.858 6.34612 1.64157 0
M  V30 2785 H 255.378 5.22849 2.93921 0
M  V30 2786 H 257.057 5.81423 2.83824 0
M  V30 2787 N 257.189 -0.644168 1.43834 0
M  V30 2788 C 258.466 -1.40188 1.36406 0
M  V30 2789 C 258.846 -2.11094 0.0163124 0
M  V30 2790 O 258.194 -2.05426 -1.00062 0
M  V30 2791 C 258.404 -2.3791 2.55343 0
M  V30 2792 C 259.752 -3.01637 2.98832 0
M  V30 2793 O 260.776 -2.48237 2.55455 0
M  V30 2794 O 259.635 -3.98477 3.74003 0
M  V30 2795 H 256.729 -0.626773 0.539523 0
M  V30 2796 H 259.275 -0.670317 1.559 0
M  V30 2797 H 258.047 -1.84525 3.4506 0
M  V30 2798 H 257.67 -3.18503 2.37995 0
M  V30 2799 N 258.668 -1.30515 -0.883378 0
M  V30 2800 C 259.896 -1.22359 -1.66841 0
M  V30 2801 C 260.311 0.213296 -1.87591 0
M  V30 2802 O 259.668 1.14075 -1.42454 0
M  V30 2803 C 259.719 -1.95011 -3.04389 0
M  V30 2804 O 259.44 -3.3309 -2.84575 0
M  V30 2805 C 260.941 -1.93532 -3.98824 0
M  V30 2806 H 258.161 -0.423371 -0.520575 0
M  V30 2807 H 260.705 -1.72167 -1.10357 0
M  V30 2808 H 258.86 -1.48997 -3.57601 0
M  V30 2809 H 259.274 -3.69907 -3.71846 0
M  V30 2810 H 260.748 -2.48902 -4.92699 0
M  V30 2811 H 261.225 -0.914627 -4.29571 0
M  V30 2812 H 261.831 -2.39364 -3.51547 0
M  V30 2813 N 260.146 1.09593 -1.13257 0
M  V30 2814 C 261.394 1.81375 -0.891492 0
M  V30 2815 C 261.715 1.86049 0.584009 0
M  V30 2816 O 260.985 1.34481 1.42449 0
M  V30 2817 H 259.565 0.671708 -0.326828 0
M  V30 2818 H 262.227 1.3256 -1.42877 0
M  V30 2819 H 261.323 2.84612 -1.28071 0
M  V30 2820 N 261.624 0.925811 1.2754 0
M  V30 2821 C 262.873 0.561084 1.93739 0
M  V30 2822 C 263.186 -0.901685 1.73577 0
M  V30 2823 O 264.392 -1.37511 2.34101 0
M  V30 2824 C 262.848 0.952668 3.47062 0
M  V30 2825 C 262.456 2.43599 3.75983 0
M  V30 2826 C 264.2 0.659103 4.19352 0
M  V30 2827 C 262.107 2.76707 5.22673 0
M  V30 2828 H 261.037 0.206122 0.725279 0
M  V30 2829 H 263.688 1.12637 1.44863 0
M  V30 2830 H 262.07 0.316053 3.94737 0
M  V30 2831 H 263.244 3.12035 3.39073 0
M  V30 2832 H 261.559 2.70125 3.16893 0
M  V30 2833 H 264.156 0.882985 5.27359 0
M  V30 2834 H 264.499 -0.403607 4.14339 0
M  V30 2835 H 265.032 1.25473 3.77494 0
M  V30 2836 H 261.771 3.8188 5.32774 0
M  V30 2837 H 261.291 2.12919 5.60737 0
M  V30 2838 H 262.97 2.6435 5.90532 0
M  V30 2839 N 263.102 -1.41638 0.69111 0
M  V30 2840 C 264.052 -2.28 -0.000107832 0
M  V30 2841 C 265.036 -1.41964 -0.757304 0
M  V30 2842 O 266.228 -1.65274 -0.633532 0
M  V30 2843 C 263.357 -3.30209 -0.938983 0
M  V30 2844 C 262.443 -4.23725 -0.17827 0
M  V30 2845 N 262.834 -4.99017 0.825563 0
M  V30 2846 C 261.132 -4.44071 -0.414392 0
M  V30 2847 C 261.833 -5.67431 1.28052 0
M  V30 2848 N 260.809 -5.40197 0.607304 0
M  V30 2849 H 264.611 -2.83644 0.769617 0
M  V30 2850 H 262.125 -1.53797 0.521562 0
M  V30 2851 H 264.122 -3.90898 -1.44929 0
M  V30 2852 H 262.782 -2.76126 -1.70836 0
M  V30 2853 H 263.793 -5.03671 1.20566 0
M  V30 2854 H 260.47 -4.01004 -1.162 0
M  V30 2855 H 261.86 -6.37801 2.11327 0
M  V30 2856 N 264.58 -0.43555 -1.51462 0
M  V30 2857 C 265.805 0.132627 -2.06976 0
M  V30 2858 C 266.23 1.35848 -1.30104 0
M  V30 2859 O 265.588 1.78112 -0.338493 0
M  V30 2860 C 265.636 0.43523 -3.57964 0
M  V30 2861 O 264.74 1.52198 -3.83288 0
M  V30 2862 H 264.081 0.00265 -0.663995 0
M  V30 2863 H 266.611 -0.616369 -1.95095 0
M  V30 2864 H 266.621 0.686206 -4.02188 0
M  V30 2865 H 265.296 -0.460739 -4.1334 0
M  V30 2866 H 263.873 1.2611 -3.50928 0
M  V30 2867 N 266.058 1.56714 -0.166846 0
M  V30 2868 C 267.474 1.58473 0.189372 0
M  V30 2869 C 267.674 1.18201 1.63189 0
M  V30 2870 O 266.73 0.891528 2.36237 0
M  V30 2871 C 268.043 3.00573 -0.0873872 0
M  V30 2872 C 269.591 3.1299 -0.0252443 0
M  V30 2873 C 270.066 4.57174 -0.274934 0
M  V30 2874 N 271.557 4.62665 -0.222553 0
M  V30 2875 C 272.292 5.72072 -0.389985 0
M  V30 2876 N 271.788 6.90054 -0.616229 0
M  V30 2877 N 273.581 5.61153 -0.326202 0
M  V30 2878 H 265.732 1.8118 -1.10849 0
M  V30 2879 H 267.995 0.839525 -0.440342 0
M  V30 2880 H 267.701 3.34497 -1.0865 0
M  V30 2881 H 267.575 3.72019 0.623037 0
M  V30 2882 H 269.962 2.78895 0.96444 0
M  V30 2883 H 270.043 2.43989 -0.768309 0
M  V30 2884 H 269.687 4.91976 -1.26181 0
M  V30 2885 H 269.617 5.24328 0.48869 0
M  V30 2886 H 272.108 3.77863 -0.0531512 0
M  V30 2887 H 272.421 7.69311 -0.733559 0
M  V30 2888 H 270.766 6.91927 -0.652791 0
M  V30 2889 H 273.957 4.67859 -0.150072 0
M  V30 2890 H 274.13 6.46364 -0.460116 0
M  V30 2891 N 267.536 -0.106894 1.57237 0
M  V30 2892 C 268.446 -1.14911 2.0453 0
M  V30 2893 C 269.462 -1.44592 0.96795 0
M  V30 2894 O 270.638 -1.55468 1.2803 0
M  V30 2895 C 267.703 -2.45272 2.45036 0
M  V30 2896 C 266.764 -2.22879 3.66911 0
M  V30 2897 C 265.997 -3.47024 4.05475 0
M  V30 2898 O 266.22 -4.54804 3.44252 0
M  V30 2899 O 265.154 -3.3731 4.98504 0
M  V30 2900 H 268.98 -0.777461 2.9358 0
M  V30 2901 H 266.565 -0.318563 1.45964 0
M  V30 2902 H 268.447 -3.22055 2.71769 0
M  V30 2903 H 267.122 -2.81886 1.59129 0
M  V30 2904 H 266.029 -1.43915 3.45311 0
M  V30 2905 H 267.362 -1.91163 4.53561 0
M  V30 2906 N 269.014 -1.53014 -0.377408 0
M  V30 2907 C 270.26 -1.69821 -1.11948 0
M  V30 2908 C 270.615 -0.438581 -1.87335 0
M  V30 2909 O 269.908 0.568094 -1.82984 0
M  V30 2910 C 270.102 -2.87982 -2.11663 0
M  V30 2911 C 269.931 -4.25315 -1.46072 0
M  V30 2912 C 268.701 -4.90354 -1.21986 0
M  V30 2913 C 270.899 -5.06281 -0.904664 0
M  V30 2914 N 268.881 -6.11641 -0.526215 0
M  V30 2915 C 270.252 -6.19069 -0.339726 0
M  V30 2916 C 272.307 -4.91395 -0.8022 0
M  V30 2917 C 271.01 -7.18598 0.317669 0
M  V30 2918 C 273.036 -5.91187 -0.158606 0
M  V30 2919 C 272.398 -7.03289 0.39551 0
M  V30 2920 H 268.497 -0.674785 -0.395207 0
M  V30 2921 H 271.081 -1.90389 -0.407437 0
M  V30 2922 H 269.252 -2.68974 -2.80192 0
M  V30 2923 H 270.984 -2.93669 -2.78461 0
M  V30 2924 H 267.739 -4.49286 -1.49798 0
M  V30 2925 H 268.163 -6.76719 -0.195098 0
M  V30 2926 H 272.805 -4.04925 -1.21639 0
M  V30 2927 H 270.523 -8.04669 0.743836 0
M  V30 2928 H 274.109 -5.81744 -0.0804138 0
M  V30 2929 H 272.989 -7.79183 0.885648 0
M  V30 2930 N 270.492 0.636531 -1.44174 0
M  V30 2931 C 271.738 1.39826 -1.4689 0
M  V30 2932 C 272.071 1.93947 -0.0990585 0
M  V30 2933 O 271.346 1.73325 0.882544 0
M  V30 2934 C 271.629 2.56751 -2.5249 0
M  V30 2935 C 271.482 2.08014 -3.98811 0
M  V30 2936 C 272.801 3.58946 -2.54649 0
M  V30 2937 H 269.92 0.507075 -0.53483 0
M  V30 2938 H 272.562 0.720188 -1.75822 0
M  V30 2939 H 270.712 3.14597 -2.2795 0
M  V30 2940 H 272.384 1.5504 -4.34466 0
M  V30 2941 H 270.627 1.39242 -4.10846 0
M  V30 2942 H 271.298 2.92169 -4.68339 0
M  V30 2943 H 273.774 3.1089 -2.76563 0
M  V30 2944 H 272.65 4.38286 -3.3045 0
M  V30 2945 H 272.911 4.12655 -1.58646 0
M  V30 2946 N 271.97 1.30982 0.876444 0
M  V30 2947 C 273.198 1.23242 1.6619 0
M  V30 2948 C 273.613 -0.203345 1.87702 0
M  V30 2949 O 272.97 -1.13317 1.43057 0
M  V30 2950 C 273.021 1.96623 3.03351 0
M  V30 2951 O 272.742 3.34594 2.82804 0
M  V30 2952 C 274.243 1.95644 3.97792 0
M  V30 2953 H 271.463 0.426126 0.518322 0
M  V30 2954 H 274.007 1.7275 1.09442 0
M  V30 2955 H 272.162 1.50892 3.56806 0
M  V30 2956 H 272.576 3.71873 3.69879 0
M  V30 2957 H 274.05 2.51511 4.91372 0
M  V30 2958 H 274.527 0.937395 4.2908 0
M  V30 2959 H 275.133 2.41225 3.50272 0
M  V30 2960 N 273.449 -1.08991 1.13837 0
M  V30 2961 C 274.381 -2.15606 0.777612 0
M  V30 2962 C 275.394 -1.61533 -0.202739 0
M  V30 2963 O 276.583 -1.78491 0.0181055 0
M  V30 2964 C 273.683 -3.3864 0.132623 0
M  V30 2965 C 272.856 -4.22115 1.1462 0
M  V30 2966 C 271.915 -5.23564 0.526074 0
M  V30 2967 O 270.941 -5.56678 1.18735 0
M  V30 2968 N 272.143 -5.76266 -0.699866 0
M  V30 2969 H 274.908 -2.47159 1.69506 0
M  V30 2970 H 272.469 -1.24747 1.03198 0
M  V30 2971 H 274.461 -4.03626 -0.29459 0
M  V30 2972 H 273.031 -3.04938 -0.687849 0
M  V30 2973 H 272.251 -3.53199 1.75055 0
M  V30 2974 H 273.539 -4.74709 1.83109 0
M  V30 2975 H 272.937 -5.51585 -1.25581 0
M  V30 2976 H 271.494 -6.42963 -1.06968 0
M  V30 2977 N 274.927 -0.932562 -1.27047 0
M  V30 2978 C 275.89 -0.440064 -2.24936 0
M  V30 2979 C 276.89 0.444071 -1.54547 0
M  V30 2980 O 278.08 0.244465 -1.72476 0
M  V30 2981 C 275.212 0.36678 -3.38921 0
M  V30 2982 H 276.405 -1.305 -2.70018 0
M  V30 2983 H 273.958 -0.713707 -1.39054 0
M  V30 2984 H 274.693 1.25033 -2.99228 0
M  V30 2985 H 274.478 -0.267204 -3.91188 0
M  V30 2986 H 275.968 0.701567 -4.11665 0
M  V30 2987 N 276.405 1.4127 -0.698611 0
M  V30 2988 C 277.63 2.06024 -0.238512 0
M  V30 2989 C 278.055 1.5224 1.10475 0
M  V30 2990 O 277.413 0.650623 1.69223 0
M  V30 2991 C 277.461 3.59988 -0.209952 0
M  V30 2992 O 276.565 4.04282 0.814235 0
M  V30 2993 H 275.906 0.653829 -0.115775 0
M  V30 2994 H 278.436 1.8098 -0.954326 0
M  V30 2995 H 278.446 4.07979 -0.0418436 0
M  V30 2996 H 277.121 3.98503 -1.1903 0
M  V30 2997 H 275.698 3.6779 0.615234 0
M  V30 2998 N 277.883 0.443576 1.51229 0
M  V30 2999 C 279.131 -0.120557 2.0174 0
M  V30 3000 C 279.452 -1.42665 1.32935 0
M  V30 3001 O 278.722 -1.9028 0.465866 0
M  V30 3002 H 277.302 -0.0475426 0.745486 0
M  V30 3003 H 279.964 0.587711 1.85828 0
M  V30 3004 H 279.06 -0.291972 3.10731 0
M  V30 3005 N 279.361 -1.56624 0.175154 0
M  V30 3006 C 280.607 -1.9729 -0.469506 0
M  V30 3007 C 280.94 -1.06128 -1.62636 0
M  V30 3008 O 280.215 -0.109183 -1.94193 0
M  V30 3009 C 280.498 -3.47375 -0.948804 0
M  V30 3010 C 280.351 -4.49317 0.208491 0
M  V30 3011 C 281.67 -4.00652 -1.82116 0
M  V30 3012 H 278.789 -0.717317 -0.16919 0
M  V30 3013 H 281.431 -1.88184 0.262062 0
M  V30 3014 H 279.581 -3.55267 -1.57219 0
M  V30 3015 H 281.253 -4.53482 0.845682 0
M  V30 3016 H 279.496 -4.25121 0.863395 0
M  V30 3017 H 280.167 -5.51741 -0.169059 0
M  V30 3018 H 282.643 -3.95416 -1.2956 0
M  V30 3019 H 281.519 -5.06075 -2.12554 0
M  V30 3020 H 281.78 -3.44699 -2.7683 0
M  V30 3021 N 280.839 0.0985539 -1.57292 0
M  V30 3022 C 282.085 0.798769 -1.87059 0
M  V30 3023 C 282.44 1.76514 -0.76555 0
M  V30 3024 O 281.733 1.90181 0.232752 0
M  V30 3025 C 281.927 1.56927 -3.21105 0
M  V30 3026 C 281.756 0.679026 -4.44544 0
M  V30 3027 C 280.526 0.326071 -5.04247 0
M  V30 3028 C 282.724 -0.0124715 -5.14298 0
M  V30 3029 N 280.706 -0.572702 -6.11223 0
M  V30 3030 C 282.077 -0.769446 -6.15207 0
M  V30 3031 C 284.132 -0.0867545 -4.97824 0
M  V30 3032 C 282.835 -1.59376 -7.01421 0
M  V30 3033 C 284.861 -0.897955 -5.84543 0
M  V30 3034 C 284.223 -1.64306 -6.84969 0
M  V30 3035 H 280.322 0.268568 -0.734435 0
M  V30 3036 H 282.906 0.0614664 -1.94603 0
M  V30 3037 H 281.077 2.27748 -3.1462 0
M  V30 3038 H 282.809 2.21641 -3.38611 0
M  V30 3039 H 279.564 0.67295 -4.68795 0
M  V30 3040 H 279.988 -1.01454 -6.69355 0
M  V30 3041 H 284.63 0.474963 -4.20124 0
M  V30 3042 H 282.348 -2.16655 -7.78515 0
M  V30 3043 H 285.934 -0.958059 -5.73858 0
M  V30 3044 H 284.814 -2.26065 -7.50909 0
M  V30 3045 N 282.317 1.53212 0.369288 0
M  V30 3046 C 283.564 1.69215 1.11232 0
M  V30 3047 C 283.892 0.442048 1.8941 0
M  V30 3048 O 283.147 -0.575944 1.87033 0
M  V30 3049 C 283.446 2.89101 2.10132 0
M  V30 3050 C 283.112 4.25758 1.48463 0
M  V30 3051 C 281.774 4.6292 1.31372 0
M  V30 3052 C 284.126 5.10757 1.03811 0
M  V30 3053 C 281.454 5.82722 0.68207 0
M  V30 3054 C 283.806 6.31201 0.420487 0
M  V30 3055 C 282.47 6.67079 0.237038 0
M  V30 3056 H 281.74 0.619201 0.407027 0
M  V30 3057 H 284.387 1.87391 0.394552 0
M  V30 3058 H 282.692 2.65421 2.88199 0
M  V30 3059 H 284.389 2.98676 2.6757 0
M  V30 3060 H 280.979 3.96494 1.62758 0
M  V30 3061 H 285.163 4.82599 1.1581 0
M  V30 3062 H 280.419 6.09113 0.528316 0
M  V30 3063 H 284.593 6.96368 0.0662874 0
M  V30 3064 H 282.22 7.59774 -0.254477 0
M  V30 3065 N 283.795 -0.628877 1.44509 0
M  V30 3066 C 284.758 -1.72263 1.51188 0
M  V30 3067 C 285.758 -1.55907 0.39367 0
M  V30 3068 O 286.948 -1.61361 0.656377 0
M  V30 3069 C 284.08 -3.11365 1.38798 0
M  V30 3070 H 285.273 -1.67714 2.4862 0
M  V30 3071 H 282.826 -0.842737 1.31634 0
M  V30 3072 H 283.561 -3.21507 0.424693 0
M  V30 3073 H 283.346 -3.24644 2.19884 0
M  V30 3074 H 284.836 -3.91075 1.46458 0
M  V30 3075 N 285.273 -1.31445 -0.869486 0
M  V30 3076 C 286.22 -1.19135 -1.97675 0
M  V30 3077 C 287.19 -0.0770266 -1.65921 0
M  V30 3078 O 288.375 -0.249972 -1.89155 0
M  V30 3079 C 285.515 -0.905149 -3.33018 0
M  V30 3080 C 284.628 -2.10285 -3.77365 0
M  V30 3081 C 283.763 -1.75339 -5.01427 0
M  V30 3082 C 282.802 -2.91515 -5.38224 0
M  V30 3083 N 281.939 -2.56762 -6.53466 0
M  V30 3084 H 286.779 -2.13853 -2.07535 0
M  V30 3085 H 284.316 -1.06379 -1.01597 0
M  V30 3086 H 286.274 -0.719765 -4.10944 0
M  V30 3087 H 284.904 0.00519624 -3.228 0
M  V30 3088 H 283.956 -2.39899 -2.95216 0
M  V30 3089 H 285.268 -2.97237 -4.00564 0
M  V30 3090 H 284.422 -1.53266 -5.87022 0
M  V30 3091 H 283.161 -0.855801 -4.80133 0
M  V30 3092 H 282.166 -3.14237 -4.51149 0
M  V30 3093 H 283.391 -3.81985 -5.61484 0
M  V30 3094 H 281.337 -1.69526 -6.33717 0
M  V30 3095 H 281.254 -3.37243 -6.76612 0
M  V30 3096 H 282.522 -2.38083 -7.42251 0
M  V30 3097 N 286.751 1.08385 -1.14413 0
M  V30 3098 C 287.698 2.15311 -0.831265 0
M  V30 3099 C 288.668 1.64751 0.211292 0
M  V30 3100 O 289.853 1.90627 0.0811674 0
M  V30 3101 C 286.993 3.43658 -0.315143 0
M  V30 3102 C 286.106 4.08064 -1.41802 0
M  V30 3103 C 285.241 5.24207 -0.859126 0
M  V30 3104 C 284.28 5.80554 -1.93967 0
M  V30 3105 N 283.417 6.88042 -1.39793 0
M  V30 3106 H 288.257 2.41415 -1.74708 0
M  V30 3107 H 285.794 1.18474 -0.871909 0
M  V30 3108 H 287.752 4.172 0.00230884 0
M  V30 3109 H 286.382 3.17839 0.56378 0
M  V30 3110 H 285.434 3.3228 -1.85187 0
M  V30 3111 H 286.746 4.45962 -2.23427 0
M  V30 3112 H 285.9 6.04689 -0.49359 0
M  V30 3113 H 284.639 4.87699 -0.011932 0
M  V30 3114 H 283.644 4.98725 -2.31415 0
M  V30 3115 H 284.869 6.19121 -2.79046 0
M  V30 3116 H 282.815 6.53493 -0.572919 0
M  V30 3117 H 282.732 7.24767 -2.15054 0
M  V30 3118 H 284 7.72255 -1.0603 0
M  V30 3119 N 288.23 0.939286 1.26551 0
M  V30 3120 C 289.479 0.581601 1.93133 0
M  V30 3121 C 289.792 -0.883224 1.74524 0
M  V30 3122 O 290.998 -1.3502 2.35546 0
M  V30 3123 C 289.454 0.989425 3.46032 0
M  V30 3124 C 289.062 2.47573 3.73379 0
M  V30 3125 C 290.806 0.703544 4.18629 0
M  V30 3126 C 288.713 2.82235 5.19709 0
M  V30 3127 H 287.643 0.213803 0.723052 0
M  V30 3128 H 290.294 1.14167 1.4366 0
M  V30 3129 H 288.676 0.357902 3.94379 0
M  V30 3130 H 289.85 3.15614 3.35744 0
M  V30 3131 H 288.165 2.73471 3.1401 0
M  V30 3132 H 290.762 0.938869 5.26393 0
M  V30 3133 H 291.105 -0.359639 4.14744 0
M  V30 3134 H 291.638 1.2947 3.76141 0
M  V30 3135 H 288.377 3.87509 5.28694 0
M  V30 3136 H 287.897 2.18854 5.58447 0
M  V30 3137 H 289.576 2.70599 5.87695 0
M  V30 3138 N 289.708 -1.40897 0.706093 0
M  V30 3139 C 290.936 -2.05373 0.250887 0
M  V30 3140 C 291.351 -1.53172 -1.10381 0
M  V30 3141 O 290.708 -0.684305 -1.69185 0
M  V30 3142 C 290.759 -3.6088 0.211571 0
M  V30 3143 O 290.48 -4.11153 1.51276 0
M  V30 3144 C 291.981 -4.42517 -0.263346 0
M  V30 3145 H 289.201 -0.66115 0.114552 0
M  V30 3146 H 291.745 -1.80479 0.961635 0
M  V30 3147 H 289.9 -3.84777 -0.450073 0
M  V30 3148 H 290.314 -5.05279 1.40689 0
M  V30 3149 H 291.788 -5.51479 -0.239718 0
M  V30 3150 H 292.265 -4.19396 -1.30397 0
M  V30 3151 H 292.871 -4.23708 0.367677 0
M  V30 3152 N 291.186 -0.45159 -1.50991 0
M  V30 3153 C 292.118 0.388634 -2.25881 0
M  V30 3154 C 293.131 0.974041 -1.30446 0
M  V30 3155 O 294.32 0.865758 -1.56099 0
M  V30 3156 C 291.42 1.5571 -3.01011 0
M  V30 3157 C 290.593 1.08801 -4.23652 0
M  V30 3158 C 289.652 2.12825 -4.8124 0
M  V30 3159 O 288.678 1.71678 -5.42693 0
M  V30 3160 N 289.88 3.45453 -4.66522 0
M  V30 3161 H 292.645 -0.25329 -2.98628 0
M  V30 3162 H 290.206 -0.281268 -1.59438 0
M  V30 3163 H 292.198 2.24952 -3.3642 0
M  V30 3164 H 290.768 2.10409 -2.31186 0
M  V30 3165 H 289.988 0.22215 -3.93574 0
M  V30 3166 H 291.276 0.752213 -5.03209 0
M  V30 3167 H 290.674 3.81605 -4.17605 0
M  V30 3168 H 289.231 4.10549 -5.06254 0
M  V30 3169 N 292.664 1.56529 -0.183458 0
M  V30 3170 C 293.941 1.88959 0.50536 0
M  V30 3171 C 294.321 1.09523 1.80466 0
M  V30 3172 O 293.669 0.19278 2.27685 0
M  V30 3173 C 293.879 3.41162 0.73547 0
M  V30 3174 C 295.227 4.11155 1.06005 0
M  V30 3175 O 296.251 3.46548 0.823594 0
M  V30 3176 O 295.11 5.25318 1.50675 0
M  V30 3177 H 292.204 0.78441 0.261973 0
M  V30 3178 H 294.75 1.68231 -0.222802 0
M  V30 3179 H 293.522 3.90874 -0.182561 0
M  V30 3180 H 293.145 3.67543 1.51651 0
M  V30 3181 N 294.142 -0.090211 1.57342 0
M  V30 3182 C 295.372 -0.805055 1.90269 0
M  V30 3183 C 295.78 -1.72561 0.775842 0
M  V30 3184 O 295.123 -1.81839 -0.260843 0
M  V30 3185 C 295.185 -1.66734 3.18497 0
M  V30 3186 C 294.849 -0.918092 4.47683 0
M  V30 3187 C 295.846 -0.245674 5.19319 0
M  V30 3188 C 293.531 -0.890724 4.94339 0
M  V30 3189 C 295.525 0.444088 6.35851 0
M  V30 3190 C 293.212 -0.197179 6.10782 0
M  V30 3191 C 294.21 0.469044 6.81388 0
M  V30 3192 O 293.898 1.15146 7.95611 0
M  V30 3193 H 293.63 -0.235143 0.633785 0
M  V30 3194 H 296.184 -0.0703805 2.05279 0
M  V30 3195 H 294.414 -2.44437 2.99646 0
M  V30 3196 H 296.103 -2.25919 3.37217 0
M  V30 3197 H 296.869 -0.258246 4.84312 0
M  V30 3198 H 292.748 -1.39873 4.39268 0
M  V30 3199 H 296.292 0.964667 6.90898 0
M  V30 3200 H 292.189 -0.18247 6.45242 0
M  V30 3201 H 292.957 1.05885 8.11622 0
M  V30 3202 N 295.62 -1.53406 -0.361157 0
M  V30 3203 C 296.868 -1.69467 -1.10115 0
M  V30 3204 C 297.189 -0.451352 -1.89705 0
M  V30 3205 O 296.459 0.534636 -1.88463 0
M  V30 3206 H 295.039 -0.624749 -0.409508 0
M  V30 3207 H 297.701 -1.90609 -0.406699 0
M  V30 3208 H 296.797 -2.55774 -1.78847 0
M  V30 3209 N 297.098 0.621204 -1.44841 0
M  V30 3210 C 298.03 1.74615 -1.48466 0
M  V30 3211 C 299.043 1.58377 -0.37691 0
M  V30 3212 O 300.232 1.66508 -0.643215 0
M  V30 3213 C 297.332 3.12459 -1.31236 0
M  V30 3214 C 296.505 3.55064 -2.55438 0
M  V30 3215 C 295.564 4.71821 -2.32963 0
M  V30 3216 O 294.59 4.79628 -3.06505 0
M  V30 3217 N 295.792 5.64186 -1.36654 0
M  V30 3218 H 298.557 1.71973 -2.45449 0
M  V30 3219 H 296.118 0.806077 -1.40407 0
M  V30 3220 H 298.11 3.88302 -1.14032 0
M  V30 3221 H 296.68 3.09686 -0.4258 0
M  V30 3222 H 295.9 2.69324 -2.87851 0
M  V30 3223 H 297.188 3.80284 -3.38026 0
M  V30 3224 H 296.586 5.6058 -0.759344 0
M  V30 3225 H 295.143 6.39618 -1.25425 0
M  V30 3226 N 298.576 1.31904 0.862503 0
M  V30 3227 C 299.853 1.12644 1.59908 0
M  V30 3228 C 300.233 -0.316104 2.0872 0
M  V30 3229 O 299.581 -1.31145 1.87118 0
M  V30 3230 C 299.791 2.1472 2.7513 0
M  V30 3231 C 301.139 2.47637 3.44907 0
M  V30 3232 O 302.163 2.13205 2.85346 0
M  V30 3233 O 301.022 3.06632 4.52371 0
M  V30 3234 H 298.116 0.43416 0.703871 0
M  V30 3235 H 300.662 1.43408 0.907314 0
M  V30 3236 H 299.434 3.1172 2.3653 0
M  V30 3237 H 299.057 1.84905 3.51989 0
M  V30 3238 N 300.054 -1.07777 1.14986 0
M  V30 3239 C 301.017 -2.13041 0.845358 0
M  V30 3240 C 302.017 -1.60071 -0.152931 0
M  V30 3241 O 303.207 -1.74033 0.0761879 0
M  V30 3242 C 300.339 -3.39896 0.261383 0
M  V30 3243 H 301.532 -2.41485 1.77834 0
M  V30 3244 H 299.085 -1.23595 0.956757 0
M  V30 3245 H 299.82 -3.17091 -0.68 0
M  V30 3246 H 299.605 -3.79642 0.980514 0
M  V30 3247 H 301.095 -4.17548 0.0657687 0
M  V30 3248 N 301.532 -0.945985 -1.26051 0
M  V30 3249 C 302.495 -0.463897 -2.24456 0
M  V30 3250 C 303.495 0.427655 -1.55009 0
M  V30 3251 O 304.685 0.226157 -1.72726 0
M  V30 3252 C 301.817 0.330812 -3.39291 0
M  V30 3253 H 303.01 -1.33357 -2.68619 0
M  V30 3254 H 300.563 -0.728416 -1.38289 0
M  V30 3255 H 301.298 1.21852 -3.00537 0
M  V30 3256 H 301.083 -0.308679 -3.90883 0
M  V30 3257 H 302.573 0.657865 -4.12386 0
M  V30 3258 N 303.011 1.40521 -0.713556 0
M  V30 3259 C 304.258 2.00923 -0.25219 0
M  V30 3260 C 304.586 1.56571 1.15395 0
M  V30 3261 O 303.841 0.775874 1.79663 0
M  V30 3262 C 304.14 3.56317 -0.278 0
M  V30 3263 C 303.806 4.20246 -1.63415 0
M  V30 3264 C 302.468 4.37422 -2.00538 0
M  V30 3265 C 304.82 4.55923 -2.52554 0
M  V30 3266 C 302.148 4.87558 -3.2635 0
M  V30 3267 C 304.5 5.07458 -3.77716 0
M  V30 3268 C 303.164 5.22843 -4.14959 0
M  V30 3269 H 302.434 0.735231 -0.0922829 0
M  V30 3270 H 305.081 1.68161 -0.916188 0
M  V30 3271 H 303.386 3.88976 0.469567 0
M  V30 3272 H 305.083 4.00883 0.0967819 0
M  V30 3273 H 301.673 4.07263 -1.33546 0
M  V30 3274 H 305.857 4.42291 -2.25149 0
M  V30 3275 H 301.113 4.97654 -3.55176 0
M  V30 3276 H 305.287 5.34041 -4.4696 0
M  V30 3277 H 302.914 5.61454 -5.12516 0
M  V30 3278 N 304.489 0.459591 1.5075 0
M  V30 3279 C 305.717 -0.0973749 2.06671 0
M  V30 3280 C 306.132 -1.34524 1.32472 0
M  V30 3281 O 305.489 -1.7827 0.390634 0
M  V30 3282 C 305.54 -0.39714 3.59312 0
M  V30 3283 O 305.261 0.801214 4.30711 0
M  V30 3284 C 306.762 -1.00234 4.31819 0
M  V30 3285 H 303.982 0.00195854 0.670997 0
M  V30 3286 H 306.526 0.645072 1.94059 0
M  V30 3287 H 304.681 -1.08951 3.71764 0
M  V30 3288 H 305.095 0.538857 5.21725 0
M  V30 3289 H 306.569 -1.16193 5.39632 0
M  V30 3290 H 307.046 -1.98939 3.91561 0
M  V30 3291 H 307.652 -0.348699 4.23868 0
M  V30 3292 N 305.967 -1.56429 0.191757 0
M  V30 3293 C 306.93 -2.17707 -0.716688 0
M  V30 3294 C 307.93 -1.13061 -1.14341 0
M  V30 3295 O 309.12 -1.38464 -1.05704 0
M  V30 3296 C 306.252 -2.77644 -1.97804 0
M  V30 3297 H 307.445 -2.99342 -0.1829 0
M  V30 3298 H 304.998 -1.56193 -0.0578566 0
M  V30 3299 H 305.733 -1.99799 -2.55443 0
M  V30 3300 H 305.518 -3.54246 -1.68083 0
M  V30 3301 H 307.008 -3.24708 -2.62592 0
M  V30 3302 N 307.445 0.0818655 -1.57387 0
M  V30 3303 C 308.694 0.781681 -1.85937 0
M  V30 3304 C 309.007 1.79246 -0.782957 0
M  V30 3305 O 310.213 2.54112 -0.955987 0
M  V30 3306 C 308.669 1.44109 -3.29789 0
M  V30 3307 C 308.277 0.469396 -4.45534 0
M  V30 3308 C 310.021 2.12386 -3.67549 0
M  V30 3309 C 307.928 1.13415 -5.80423 0
M  V30 3310 H 306.858 0.295682 -0.693605 0
M  V30 3311 H 309.509 0.0348051 -1.83467 0
M  V30 3312 H 307.891 2.23588 -3.2684 0
M  V30 3313 H 309.065 -0.294856 -4.59856 0
M  V30 3314 H 307.38 -0.108383 -4.16259 0
M  V30 3315 H 309.977 2.62878 -4.65617 0
M  V30 3316 H 310.32 2.91877 -2.96839 0
M  V30 3317 H 310.853 1.39751 -3.72444 0
M  V30 3318 H 307.592 0.379771 -6.54399 0
M  V30 3319 H 307.112 1.8695 -5.69921 0
M  V30 3320 H 308.791 1.65686 -6.25426 0
M  V30 3321 N 308.923 1.53595 0.353017 0
M  V30 3322 C 309.853 1.83902 1.43883 0
M  V30 3323 C 310.834 0.693421 1.55324 0
M  V30 3324 O 312.019 0.944452 1.69687 0
M  V30 3325 C 309.149 2.04016 2.8106 0
M  V30 3326 C 308.103 3.19814 2.84434 0
M  V30 3327 C 307.429 3.25244 4.24406 0
M  V30 3328 C 308.729 4.58133 2.50822 0
M  V30 3329 H 310.423 2.74835 1.1877 0
M  V30 3330 H 307.969 1.32242 0.569917 0
M  V30 3331 H 309.922 2.238 3.57059 0
M  V30 3332 H 308.646 1.09804 3.07588 0
M  V30 3333 H 307.305 2.9987 2.10887 0
M  V30 3334 H 306.953 2.28646 4.48029 0
M  V30 3335 H 306.653 4.03054 4.27576 0
M  V30 3336 H 308.177 3.47228 5.0226 0
M  V30 3337 H 309.591 4.77995 3.16534 0
M  V30 3338 H 307.988 5.38276 2.6529 0
M  V30 3339 H 309.058 4.62387 1.46034 0
M  V30 3340 N 310.401 -0.613514 1.45168 0
M  V30 3341 C 311.678 -1.37263 1.39349 0
M  V30 3342 C 312.058 -2.11012 0.0610848 0
M  V30 3343 O 311.406 -2.07502 -0.956825 0
M  V30 3344 C 311.616 -2.3244 2.60332 0
M  V30 3345 C 312.964 -2.9523 3.05163 0
M  V30 3346 O 313.988 -2.42762 2.60663 0
M  V30 3347 O 312.847 -3.90454 3.82372 0
M  V30 3348 H 309.941 -0.615188 0.552696 0
M  V30 3349 H 312.487 -0.637097 1.57287 0
M  V30 3350 H 311.259 -1.77164 3.48896 0
M  V30 3351 H 310.882 -3.13383 2.44698 0
M  V30 3352 N 311.879 -1.3236 -0.855495 0
M  V30 3353 C 313.107 -1.2587 -1.64208 0
M  V30 3354 C 313.522 0.173457 -1.88002 0
M  V30 3355 O 312.879 1.11027 -1.44842 0
M  V30 3356 C 312.93 -2.01424 -3.00184 0
M  V30 3357 O 312.651 -3.39051 -2.77445 0
M  V30 3358 C 314.152 -2.01948 -3.94629 0
M  V30 3359 H 311.372 -0.434318 -0.511477 0
M  V30 3360 H 313.916 -1.74469 -1.0668 0
M  V30 3361 H 312.071 -1.56549 -3.5436 0
M  V30 3362 H 312.485 -3.77711 -3.63916 0
M  V30 3363 H 313.959 -2.59297 -4.87308 0
M  V30 3364 H 314.436 -1.00554 -4.27534 0
M  V30 3365 H 315.042 -2.46767 -3.4639 0
M  V30 3366 N 313.357 1.07166 -1.15556 0
M  V30 3367 C 314.287 2.16403 -0.877046 0
M  V30 3368 C 315.268 1.69217 0.173111 0
M  V30 3369 O 316.453 1.94181 0.027084 0
M  V30 3370 C 313.583 3.45349 -0.367632 0
M  V30 3371 C 312.537 4.05995 -1.35468 0
M  V30 3372 C 311.863 5.30045 -0.704038 0
M  V30 3373 C 313.163 4.45804 -2.72132 0
M  V30 3374 H 314.857 2.39959 -1.79053 0
M  V30 3375 H 312.403 1.15325 -0.862331 0
M  V30 3376 H 314.356 4.21095 -0.160317 0
M  V30 3377 H 313.08 3.21385 0.581326 0
M  V30 3378 H 311.739 3.32296 -1.54839 0
M  V30 3379 H 311.387 5.02373 0.251128 0
M  V30 3380 H 311.087 5.71579 -1.36277 0
M  V30 3381 H 312.611 6.08495 -0.50654 0
M  V30 3382 H 314.025 5.12671 -2.56595 0
M  V30 3383 H 312.422 4.98296 -3.34397 0
M  V30 3384 H 313.492 3.57083 -3.28054 0
M  V30 3385 N 314.835 0.952656 1.25548 0
M  V30 3386 C 316.112 0.523818 1.88456 0
M  V30 3387 C 316.492 -0.998871 1.85973 0
M  V30 3388 O 315.84 -1.86381 1.3219 0
M  V30 3389 C 316.05 1.0982 3.31271 0
M  V30 3390 C 317.398 1.17385 4.08051 0
M  V30 3391 O 318.422 1.04961 3.40384 0
M  V30 3392 O 317.281 1.36852 5.29088 0
M  V30 3393 H 314.375 0.172485 0.808813 0
M  V30 3394 H 316.921 1.04596 1.33633 0
M  V30 3395 H 315.693 2.1415 3.27499 0
M  V30 3396 H 315.316 0.559191 3.93648 0
M  V30 3397 N 316.313 -1.40141 0.720998 0
M  V30 3398 C 317.562 -2.0002 0.259804 0
M  V30 3399 C 317.875 -1.57839 -1.15526 0
M  V30 3400 O 319.081 -2.10455 -1.71525 0
M  V30 3401 C 317.537 -3.57516 0.413566 0
M  V30 3402 C 317.145 -4.08667 1.83562 0
M  V30 3403 C 318.889 -4.24498 0.0134387 0
M  V30 3404 C 316.796 -5.58686 1.93968 0
M  V30 3405 H 315.726 -0.748195 0.0933806 0
M  V30 3406 H 318.377 -1.60313 0.892866 0
M  V30 3407 H 316.759 -3.9495 -0.288169 0
M  V30 3408 H 317.933 -3.82598 2.56817 0
M  V30 3409 H 316.248 -3.543 2.1877 0
M  V30 3410 H 318.845 -5.34654 0.0703954 0
M  V30 3411 H 319.188 -4.03375 -1.02927 0
M  V30 3412 H 319.721 -3.92188 0.665815 0
M  V30 3413 H 316.46 -5.8467 2.96379 0
M  V30 3414 H 315.98 -5.86602 1.25131 0
M  V30 3415 H 317.659 -6.23875 1.71431 0
M  V30 3416 N 317.792 -0.46758 -1.50504 0
M  V30 3417 C 319.039 0.0886219 -2.02306 0
M  V30 3418 C 319.367 1.40037 -1.34981 0
M  V30 3419 O 318.622 1.90136 -0.463318 0
M  V30 3420 C 318.921 0.323995 -3.55928 0
M  V30 3421 C 318.587 -0.905618 -4.41712 0
M  V30 3422 C 317.249 -1.24275 -4.64875 0
M  V30 3423 C 319.601 -1.72448 -4.91845 0
M  V30 3424 C 316.929 -2.39888 -5.35417 0
M  V30 3425 C 319.281 -2.87185 -5.63656 0
M  V30 3426 C 317.945 -3.21317 -5.85074 0
M  V30 3427 H 317.215 0.0324291 -0.74029 0
M  V30 3428 H 319.862 -0.620945 -1.81153 0
M  V30 3429 H 318.167 1.11577 -3.75577 0
M  V30 3430 H 319.864 0.76826 -3.93572 0
M  V30 3431 H 316.454 -0.632956 -4.239 0
M  V30 3432 H 320.638 -1.4772 -4.73806 0
M  V30 3433 H 315.894 -2.66611 -5.50208 0
M  V30 3434 H 320.068 -3.50985 -6.01484 0
M  V30 3435 H 317.695 -4.1101 -6.39511 0
M  V30 3436 N 319.27 1.56325 -0.20005 0
M  V30 3437 C 320.2 2.22318 0.713916 0
M  V30 3438 C 321.181 1.18788 1.21752 0
M  V30 3439 O 322.366 1.47309 1.26545 0
M  V30 3440 C 319.496 2.88639 1.93144 0
M  V30 3441 C 318.45 3.98457 1.56255 0
M  V30 3442 C 317.776 4.51967 2.85709 0
M  V30 3443 C 319.076 5.16612 0.768747 0
M  V30 3444 H 320.77 2.98952 0.163755 0
M  V30 3445 H 318.316 1.43792 0.0773219 0
M  V30 3446 H 320.269 3.33491 2.57608 0
M  V30 3447 H 318.993 2.09419 2.50621 0
M  V30 3448 H 317.652 3.54305 0.941471 0
M  V30 3449 H 317.3 3.69503 3.41287 0
M  V30 3450 H 317 5.26071 2.6177 0
M  V30 3451 H 318.524 4.99523 3.51154 0
M  V30 3452 H 319.938 5.57977 1.3166 0
M  V30 3453 H 318.335 5.96812 0.627286 0
M  V30 3454 H 319.405 4.84358 -0.229168 0
M  V30 3455 N 320.748 -0.0735177 1.57428 0
M  V30 3456 C 321.658 -1.10547 2.06922 0
M  V30 3457 C 322.674 -1.42506 0.998402 0
M  V30 3458 O 323.85 -1.52717 1.31299 0
M  V30 3459 C 320.915 -2.40019 2.50184 0
M  V30 3460 C 319.976 -2.15046 3.71556 0
M  V30 3461 C 319.209 -3.38345 4.12745 0
M  V30 3462 O 319.432 -4.47399 3.53822 0
M  V30 3463 O 318.366 -3.2666 5.05546 0
M  V30 3464 H 322.192 -0.715013 2.95163 0
M  V30 3465 H 319.777 -0.287531 1.46607 0
M  V30 3466 H 321.659 -3.16218 2.78539 0
M  V30 3467 H 320.334 -2.78447 1.65072 0
M  V30 3468 H 319.241 -1.36558 3.48285 0
M  V30 3469 H 320.574 -1.81499 4.57514 0
M  V30 3470 N 322.226 -1.5378 -0.344866 0
M  V30 3471 C 323.475 -1.7018 -1.08267 0
M  V30 3472 C 323.788 -0.471 -1.89845 0
M  V30 3473 O 324.994 -0.515917 -2.66553 0
M  V30 3474 C 323.45 -3.00923 -1.97417 0
M  V30 3475 C 323.058 -4.31335 -1.21053 0
M  V30 3476 C 324.802 -3.26688 -2.71063 0
M  V30 3477 C 322.709 -5.53153 -2.09225 0
M  V30 3478 H 321.639 -0.634138 -0.407903 0
M  V30 3479 H 324.29 -1.8028 -0.342246 0
M  V30 3480 H 322.672 -2.84676 -2.75274 0
M  V30 3481 H 323.846 -4.58281 -0.481159 0
M  V30 3482 H 322.161 -4.12173 -0.591813 0
M  V30 3483 H 324.758 -4.1489 -3.37299 0
M  V30 3484 H 325.101 -2.43639 -3.37558 0
M  V30 3485 H 325.634 -3.43705 -2.0028 0
M  V30 3486 H 322.373 -6.38741 -1.47274 0
M  V30 3487 H 321.893 -5.30458 -2.79955 0
M  V30 3488 H 323.572 -5.88744 -2.68308 0
M  V30 3489 N 323.704 0.605807 -1.45491 0
M  V30 3490 C 324.95 1.36679 -1.49823 0
M  V30 3491 C 325.283 1.93693 -0.140175 0
M  V30 3492 O 324.558 1.75158 0.845581 0
M  V30 3493 C 324.841 2.51337 -2.57879 0
M  V30 3494 C 324.694 1.99508 -4.03134 0
M  V30 3495 C 326.013 3.53463 -2.62205 0
M  V30 3496 H 323.132 0.495617 -0.545466 0
M  V30 3497 H 325.774 0.682732 -1.7731 0
M  V30 3498 H 323.924 3.09691 -2.34571 0
M  V30 3499 H 325.596 1.45789 -4.37656 0
M  V30 3500 H 323.839 1.30496 -4.13707 0
M  V30 3501 H 324.51 2.82169 -4.74431 0
M  V30 3502 H 326.986 3.04953 -2.83095 0
M  V30 3503 H 325.862 4.31178 -3.39672 0
M  V30 3504 H 326.123 4.09197 -1.67363 0
M  V30 3505 N 325.182 1.32811 0.848464 0
M  V30 3506 C 326.41 1.26739 1.63538 0
M  V30 3507 C 326.825 -0.163484 1.88091 0
M  V30 3508 O 326.182 -1.10258 1.45429 0
M  V30 3509 C 326.233 2.03013 2.99112 0
M  V30 3510 O 325.954 3.40518 2.75643 0
M  V30 3511 C 327.455 2.04038 3.93552 0
M  V30 3512 H 324.675 0.437024 0.509167 0
M  V30 3513 H 327.219 1.75033 1.05753 0
M  V30 3514 H 325.374 1.58426 3.53525 0
M  V30 3515 H 325.788 3.79635 3.61908 0
M  V30 3516 H 327.262 2.61877 4.85926 0
M  V30 3517 H 327.739 1.0282 4.26995 0
M  V30 3518 H 328.345 2.486 3.45077 0
M  V30 3519 N 326.66 -1.06551 1.16123 0
M  V30 3520 C 327.608 -2.16063 0.861371 0
M  V30 3521 C 328.602 -1.6856 -0.168517 0
M  V30 3522 O 329.808 -1.79986 -0.0227579 0
M  V30 3523 H 326.183 -0.705278 0.260934 0
M  V30 3524 H 328.154 -2.38567 1.79244 0
M  V30 3525 C 326.903 -3.45661 0.376018 0
M  V30 3526 H 326.226 -3.82604 1.15992 0
M  V30 3527 H 327.666 -4.23504 0.204951 0
M  V30 3528 C 326.125 -3.24546 -0.903954 0
M  V30 3529 O 326.655 -3.49865 -1.97377 0
M  V30 3530 N 324.861 -2.77992 -0.846679 0
M  V30 3531 H 324.408 -2.57589 0.0241017 0
M  V30 3532 H 324.366 -2.64244 -1.70359 0
M  V30 3533 N 328.138 -0.959301 -1.25041 0
M  V30 3534 C 329.549 -0.65667 -1.74771 0
M  V30 3535 C 329.9 0.827852 -1.77879 0
M  V30 3536 O 329.025 1.64783 -1.40269 0
M  V30 3537 C 329.62 -1.1853 -3.1739 0
M  V30 3538 C 328.179 -0.932734 -3.6466 0
M  V30 3539 C 327.326 -1.32558 -2.43564 0
M  V30 3540 H 330.277 -1.13558 -1.10862 0
M  V30 3541 H 330.298 -0.547582 -3.76539 0
M  V30 3542 H 329.81 -2.26576 -3.15095 0
M  V30 3543 H 327.911 0.13257 -3.72364 0
M  V30 3544 H 328.024 -1.57248 -4.52559 0
M  V30 3545 H 326.388 -0.743956 -2.43593 0
M  V30 3546 H 327.171 -2.41537 -2.43957 0
M  V30 3547 N 329.616 1.39756 -0.72842 0
M  V30 3548 C 330.893 1.94574 -0.200079 0
M  V30 3549 C 331.273 1.66569 1.29684 0
M  V30 3550 O 330.621 0.990326 2.05924 0
M  V30 3551 C 330.831 3.45004 -0.526608 0
M  V30 3552 C 332.179 4.21965 -0.472318 0
M  V30 3553 O 333.203 3.53173 -0.463413 0
M  V30 3554 O 332.062 5.44552 -0.461075 0
M  V30 3555 H 329.156 0.826289 -0.0342851 0
M  V30 3556 H 331.702 1.49293 -0.806829 0
M  V30 3557 H 330.474 3.58796 -1.56144 0
M  V30 3558 H 330.097 3.97449 0.109449 0
M  V30 3559 N 331.094 0.475555 1.50254 0
M  V30 3560 C 332.342 -0.077738 2.0195 0
M  V30 3561 C 332.663 -1.39813 1.35931 0
M  V30 3562 O 331.933 -1.89249 0.506123 0
M  V30 3563 H 330.513 -0.031719 0.746326 0
M  V30 3564 H 333.175 0.626995 1.84539 0
M  V30 3565 H 332.271 -0.225995 3.11281 0
M  V30 3566 N 332.573 -1.56217 0.208337 0
M  V30 3567 C 333.82 -1.97949 -0.42692 0
M  V30 3568 C 334.148 -1.09562 -1.60706 0
M  V30 3569 O 333.403 -0.137616 -1.95216 0
M  V30 3570 C 333.702 -3.45441 -0.916797 0
M  V30 3571 C 333.368 -4.50646 0.151391 0
M  V30 3572 C 332.03 -4.79139 0.444867 0
M  V30 3573 C 334.382 -5.13811 0.874492 0
M  V30 3574 C 331.71 -5.68084 1.46619 0
M  V30 3575 C 334.062 -6.03861 1.88506 0
M  V30 3576 C 332.726 -6.30704 2.18559 0
M  V30 3577 H 331.996 -0.724345 -0.156221 0
M  V30 3578 H 334.643 -1.89006 0.308084 0
M  V30 3579 H 332.948 -3.51521 -1.73032 0
M  V30 3580 H 334.645 -3.75094 -1.41794 0
M  V30 3581 H 331.235 -4.28511 -0.0875068 0
M  V30 3582 H 335.419 -4.91879 0.660996 0
M  V30 3583 H 330.675 -5.87151 1.7048 0
M  V30 3584 H 334.849 -6.51861 2.45051 0
M  V30 3585 H 332.476 -6.99424 2.97843 0
M  V30 3586 N 334.051 0.0651679 -1.57465 0
M  V30 3587 C 335.014 1.06117 -2.03155 0
M  V30 3588 C 336.014 1.31204 -0.929632 0
M  V30 3589 O 337.204 1.26813 -1.19432 0
M  V30 3590 C 334.336 2.4032 -2.41783 0
M  V30 3591 H 335.529 0.667231 -2.92383 0
M  V30 3592 H 333.082 0.311075 -1.53173 0
M  V30 3593 H 333.817 2.84532 -1.55601 0
M  V30 3594 H 333.602 2.23451 -3.22199 0
M  V30 3595 H 335.092 3.11898 -2.77685 0
M  V30 3596 N 335.529 1.53961 0.336706 0
M  V30 3597 C 336.776 1.71536 1.07618 0
M  V30 3598 C 337.104 0.482125 1.8843 0
M  V30 3599 O 336.359 -0.536142 1.88213 0
M  V30 3600 C 336.658 2.93493 2.03953 0
M  V30 3601 C 336.324 4.28811 1.39399 0
M  V30 3602 C 334.986 4.65602 1.21523 0
M  V30 3603 C 337.338 5.12844 0.929541 0
M  V30 3604 C 334.666 5.84037 0.558312 0
M  V30 3605 C 337.018 6.31951 0.286505 0
M  V30 3606 C 335.682 6.67432 0.0954869 0
M  V30 3607 H 334.952 0.627696 0.393801 0
M  V30 3608 H 337.599 1.88186 0.354715 0
M  V30 3609 H 335.904 2.71475 2.82504 0
M  V30 3610 H 337.601 3.04285 2.61174 0
M  V30 3611 H 334.191 3.99858 1.54311 0
M  V30 3612 H 338.375 4.84947 1.05548 0
M  V30 3613 H 333.631 6.10097 0.398995 0
M  V30 3614 H 337.805 6.96352 -0.0814376 0
M  V30 3615 H 335.432 7.59063 -0.415579 0
M  V30 3616 N 337.007 -0.598083 1.45811 0
M  V30 3617 C 338.235 -1.38322 1.53866 0
M  V30 3618 C 338.65 -1.87992 0.174479 0
M  V30 3619 O 338.007 -1.62756 -0.825627 0
M  V30 3620 C 338.058 -2.58125 2.53089 0
M  V30 3621 O 337.779 -2.10516 3.84206 0
M  V30 3622 C 339.28 -3.50869 2.70935 0
M  V30 3623 H 336.5 -0.423093 0.520801 0
M  V30 3624 H 339.044 -0.728527 1.91083 0
M  V30 3625 H 337.199 -3.19615 2.18917 0
M  V30 3626 H 337.613 -2.88425 4.38077 0
M  V30 3627 H 339.087 -4.31451 3.44317 0
M  V30 3628 H 339.564 -4.01822 1.77301 0
M  V30 3629 H 340.17 -2.95225 3.06141 0
M  V30 3630 N 338.485 -1.33259 -0.841409 0
M  V30 3631 C 339.435 -1.19872 -1.93945 0
M  V30 3632 C 340.419 -0.102269 -1.60575 0
M  V30 3633 O 341.611 -0.330114 -1.73894 0
M  V30 3634 C 338.74 -0.937517 -3.30251 0
M  V30 3635 C 337.826 -2.07629 -3.69799 0
M  V30 3636 N 338.217 -3.32604 -3.81062 0
M  V30 3637 C 336.515 -1.98242 -3.9952 0
M  V30 3638 C 337.216 -4.07275 -4.15333 0
M  V30 3639 N 336.192 -3.35691 -4.27566 0
M  V30 3640 H 339.994 -2.14604 -2.00805 0
M  V30 3641 H 337.508 -1.2523 -1.03398 0
M  V30 3642 H 339.505 -0.822545 -4.08705 0
M  V30 3643 H 338.165 0.00128798 -3.247 0
M  V30 3644 H 339.176 -3.67382 -3.65035 0
M  V30 3645 H 335.853 -1.12005 -4.02195 0
M  V30 3646 H 337.243 -5.1511 -4.31406 0
M  V30 3647 N 339.963 1.05934 -1.16686 0
M  V30 3648 C 341.188 1.83029 -0.975455 0
M  V30 3649 C 341.613 1.82096 0.471452 0
M  V30 3650 O 340.971 1.22443 1.33706 0
M  V30 3651 C 341.019 3.27372 -1.51195 0
M  V30 3652 O 340.123 4.06054 -0.720701 0
M  V30 3653 H 339.464 0.566194 -0.346872 0
M  V30 3654 H 341.994 1.33541 -1.55009 0
M  V30 3655 H 342.004 3.78186 -1.53099 0
M  V30 3656 H 340.679 3.27366 -2.56523 0
M  V30 3657 H 339.256 3.64812 -0.772458 0
M  V30 3658 N 341.441 0.965919 1.2453 0
M  V30 3659 C 342.669 0.644385 1.96609 0
M  V30 3660 C 343.084 -0.785823 1.71669 0
M  V30 3661 O 342.441 -1.52703 0.999399 0
M  V30 3662 C 342.492 0.907375 3.49927 0
M  V30 3663 O 342.213 2.28136 3.74013 0
M  V30 3664 C 343.714 0.599784 4.39224 0
M  V30 3665 H 340.934 0.240588 0.626385 0
M  V30 3666 H 343.478 1.29337 1.58405 0
M  V30 3667 H 341.633 0.304631 3.862 0
M  V30 3668 H 342.047 2.36002 4.68405 0
M  V30 3669 H 343.521 0.834263 5.45659 0
M  V30 3670 H 343.998 -0.465921 4.36722 0
M  V30 3671 H 344.604 1.18235 4.08535 0
M  V30 3672 N 342.919 -1.39368 0.735821 0
M  V30 3673 C 343.867 -2.32443 0.0855131 0
M  V30 3674 C 344.861 -1.53104 -0.724954 0
M  V30 3675 O 346.067 -1.68762 -0.626047 0
M  V30 3676 H 342.442 -0.751948 0.00885257 0
M  V30 3677 H 344.413 -2.84916 0.886883 0
M  V30 3678 C 343.162 -3.38206 -0.806983 0
M  V30 3679 H 342.485 -3.99335 -0.19274 0
M  V30 3680 H 343.925 -4.05779 -1.2296 0
M  V30 3681 C 342.384 -2.75321 -1.94165 0
M  V30 3682 O 342.914 -2.63231 -3.03435 0
M  V30 3683 N 341.12 -2.33396 -1.73132 0
M  V30 3684 H 340.667 -2.4343 -0.842596 0
M  V30 3685 H 340.625 -1.91661 -2.49225 0
M  V30 3686 N 344.397 -0.483516 -1.5 0
M  V30 3687 C 345.813 -0.138404 -1.58999 0
M  V30 3688 C 346.013 1.35597 -1.4905 0
M  V30 3689 O 345.069 2.13039 -1.35539 0
M  V30 3690 C 346.382 -0.699658 -2.92447 0
M  V30 3691 C 347.93 -0.664195 -3.05872 0
M  V30 3692 C 348.405 -1.20321 -4.41913 0
M  V30 3693 N 349.896 -1.16315 -4.48358 0
M  V30 3694 C 350.631 -1.55058 -5.52037 0
M  V30 3695 N 350.127 -2.01311 -6.62907 0
M  V30 3696 N 351.92 -1.46584 -5.42651 0
M  V30 3697 H 344.071 -1.45529 -1.5471 0
M  V30 3698 H 346.334 -0.60258 -0.731848 0
M  V30 3699 H 346.04 -1.747 -3.05242 0
M  V30 3700 H 345.914 -0.150194 -3.76901 0
M  V30 3701 H 348.301 0.374272 -2.92717 0
M  V30 3702 H 348.382 -1.25061 -2.23144 0
M  V30 3703 H 348.026 -2.24037 -4.55818 0
M  V30 3704 H 347.956 -0.592896 -5.23252 0
M  V30 3705 H 350.447 -0.824058 -3.68806 0
M  V30 3706 H 350.76 -2.2899 -7.38095 0
M  V30 3707 H 349.105 -2.05273 -6.63994 0
M  V30 3708 H 352.296 -1.10281 -4.54924 0
M  V30 3709 H 352.469 -1.77103 -6.23329 0
M  V30 3710 N 345.875 1.56104 -0.216619 0
M  V30 3711 C 346.808 2.16026 0.735395 0
M  V30 3712 C 347.786 1.1032 1.1945 0
M  V30 3713 O 348.97 1.38549 1.27814 0
M  V30 3714 C 346.097 2.73656 1.99575 0
M  V30 3715 C 345.143 3.92146 1.67702 0
M  V30 3716 S 345.976 5.29397 0.806145 0
M  V30 3717 C 347.132 5.90463 2.07617 0
M  V30 3718 H 347.365 2.96439 0.226072 0
M  V30 3719 H 344.898 1.544 -0.00136639 0
M  V30 3720 H 346.856 3.075 2.71945 0
M  V30 3721 H 345.517 1.93245 2.47619 0
M  V30 3722 H 344.71 4.30954 2.61332 0
M  V30 3723 H 344.312 3.59423 1.03398 0
M  V30 3724 H 346.604 6.06136 3.02664 0
M  V30 3725 H 347.547 6.86589 1.73207 0
M  V30 3726 H 347.955 5.19252 2.21445 0
M  V30 3727 N 347.353 -0.0568162 1.57498 0
M  V30 3728 C 348.599 -0.748893 1.89111 0
M  V30 3729 C 348.954 -1.74422 0.81208 0
M  V30 3730 O 348.247 -1.90731 -0.182247 0
M  V30 3731 C 348.441 -1.48359 3.25153 0
M  V30 3732 C 348.27 -0.560924 4.46188 0
M  V30 3733 C 347.04 -0.192264 5.04934 0
M  V30 3734 C 349.238 0.148824 5.14085 0
M  V30 3735 N 347.22 0.734555 6.0949 0
M  V30 3736 C 348.591 0.932286 6.12951 0
M  V30 3737 C 350.646 0.218713 4.97419 0
M  V30 3738 C 349.349 1.77917 6.96949 0
M  V30 3739 C 351.375 1.05262 5.81957 0
M  V30 3740 C 350.737 1.82409 6.80372 0
M  V30 3741 H 346.836 -0.249002 0.741298 0
M  V30 3742 H 349.42 -0.00984926 1.94698 0
M  V30 3743 H 347.591 -2.19326 3.20547 0
M  V30 3744 H 349.323 -2.12586 3.44368 0
M  V30 3745 H 346.078 -0.548421 4.70414 0
M  V30 3746 H 346.502 1.19165 6.6643 0
M  V30 3747 H 351.144 -0.363407 4.21235 0
M  V30 3748 H 348.862 2.3722 7.72497 0
M  V30 3749 H 352.448 1.10987 5.71116 0
M  V30 3750 H 351.328 2.45895 7.44651 0
M  V30 3751 N 348.832 -1.54138 -0.328536 0
M  V30 3752 C 350.248 -1.44736 -0.672574 0
M  V30 3753 C 350.448 -0.616217 -1.91846 0
M  V30 3754 O 349.504 -0.113067 -2.52247 0
M  V30 3755 C 350.817 -2.884 -0.851217 0
M  V30 3756 C 352.365 -2.98271 -0.948877 0
M  V30 3757 C 352.84 -4.43074 -1.15973 0
M  V30 3758 N 354.331 -4.46665 -1.22658 0
M  V30 3759 C 355.066 -5.55857 -1.40751 0
M  V30 3760 N 354.562 -6.75026 -1.5592 0
M  V30 3761 N 356.355 -5.43495 -1.4342 0
M  V30 3762 H 348.506 -2.06661 0.490421 0
M  V30 3763 H 350.769 -0.934812 0.157579 0
M  V30 3764 H 350.475 -3.51699 -0.00704236 0
M  V30 3765 H 350.349 -3.34225 -1.74853 0
M  V30 3766 H 352.736 -2.35102 -1.78356 0
M  V30 3767 H 352.817 -2.55785 -0.0281435 0
M  V30 3768 H 352.461 -5.06827 -0.329915 0
M  V30 3769 H 352.391 -4.83165 -2.09426 0
M  V30 3770 H 354.882 -3.60797 -1.124 0
M  V30 3771 H 355.195 -7.54004 -1.69404 0
M  V30 3772 H 353.54 -6.77944 -1.53027 0
M  V30 3773 H 356.731 -4.49349 -1.31162 0
M  V30 3774 H 356.904 -6.28649 -1.57178 0
M  V30 3775 N 350.31 0.590341 -1.46126 0
M  V30 3776 C 351.257 1.69994 -1.56111 0
M  V30 3777 C 352.227 1.61065 -0.405867 0
M  V30 3778 O 353.412 1.8039 -0.621613 0
M  V30 3779 C 350.552 3.08326 -1.55013 0
M  V30 3780 C 349.665 3.27936 -2.81215 0
M  V30 3781 C 348.8 4.56473 -2.71673 0
M  V30 3782 C 347.839 4.694 -3.92849 0
M  V30 3783 N 346.976 5.89254 -3.81738 0
M  V30 3784 H 351.816 1.60797 -2.50895 0
M  V30 3785 H 349.353 0.783799 -1.24479 0
M  V30 3786 H 351.311 3.88383 -1.52362 0
M  V30 3787 H 349.941 3.16439 -0.637667 0
M  V30 3788 H 348.993 2.41536 -2.93879 0
M  V30 3789 H 350.305 3.33357 -3.71045 0
M  V30 3790 H 349.459 5.44748 -2.67085 0
M  V30 3791 H 348.198 4.53477 -1.7947 0
M  V30 3792 H 347.203 3.79544 -3.97777 0
M  V30 3793 H 348.428 4.7418 -4.86138 0
M  V30 3794 H 346.374 5.87271 -2.92317 0
M  V30 3795 H 346.291 5.95911 -4.65217 0
M  V30 3796 H 347.559 6.79981 -3.81112 0
M  V30 3797 N 351.788 1.33704 0.83433 0
M  V30 3798 C 353.016 1.28467 1.62185 0
M  V30 3799 C 353.431 -0.143526 1.88254 0
M  V30 3800 O 352.788 -1.08709 1.4659 0
M  V30 3801 C 352.839 2.06174 2.96942 0
M  V30 3802 O 352.56 3.43422 2.72016 0
M  V30 3803 C 354.061 2.08201 3.91366 0
M  V30 3804 H 351.281 0.4424 0.504503 0
M  V30 3805 H 353.825 1.76145 1.03891 0
M  V30 3806 H 351.98 1.62167 3.51825 0
M  V30 3807 H 352.394 3.83453 3.57861 0
M  V30 3808 H 353.868 2.67017 4.83121 0
M  V30 3809 H 354.345 1.07343 4.2588 0
M  V30 3810 H 354.951 2.52246 3.42421 0
M  V30 3811 N 353.266 -1.05314 1.17247 0
M  V30 3812 C 354.682 -1.30452 0.919473 0
M  V30 3813 C 354.882 -1.9703 -0.42209 0
M  V30 3814 O 353.938 -2.24311 -1.15935 0
M  V30 3815 C 355.251 -2.17551 2.07586 0
M  V30 3816 C 356.799 -2.30937 2.11275 0
M  V30 3817 C 357.274 -3.21396 3.26296 0
M  V30 3818 N 358.765 -3.28981 3.26076 0
M  V30 3819 C 359.5 -3.99095 4.11716 0
M  V30 3820 N 358.996 -4.71648 5.07465 0
M  V30 3821 N 360.789 -3.95247 3.9967 0
M  V30 3822 H 352.94 -0.604988 2.03602 0
M  V30 3823 H 355.203 -0.329368 0.888944 0
M  V30 3824 H 354.909 -1.75921 3.0454 0
M  V30 3825 H 354.783 -3.18182 2.02584 0
M  V30 3826 H 357.17 -2.71809 1.14907 0
M  V30 3827 H 357.251 -1.2994 2.20339 0
M  V30 3828 H 356.895 -2.81238 4.22927 0
M  V30 3829 H 356.825 -4.22395 3.14467 0
M  V30 3830 H 359.316 -2.77286 2.5675 0
M  V30 3831 H 359.629 -5.22705 5.6921 0
M  V30 3832 H 357.974 -4.70594 5.11435 0
M  V30 3833 H 361.165 -3.37691 3.24164 0
M  V30 3834 H 361.338 -4.4962 4.66632 0
M  V30 3835 N 354.744 -0.972509 -1.24016 0
M  V30 3836 C 355.969 -0.654417 -1.96805 0
M  V30 3837 C 356.394 0.770398 -1.716 0
M  V30 3838 O 355.752 1.52361 -0.982647 0
M  V30 3839 C 355.8 -0.941031 -3.48105 0
M  V30 3840 O 354.904 -0.0289472 -4.1239 0
M  V30 3841 H 354.245 -0.24692 -0.616382 0
M  V30 3842 H 356.775 -1.30396 -1.57664 0
M  V30 3843 H 356.785 -0.87452 -3.98517 0
M  V30 3844 H 355.46 -1.97939 -3.65777 0
M  V30 3845 H 354.037 -0.149192 -3.72601 0
M  V30 3846 N 356.222 1.38976 -0.743202 0
M  V30 3847 C 357.172 2.27843 -0.084513 0
M  V30 3848 C 358.156 1.44677 0.704094 0
M  V30 3849 O 359.348 1.67511 0.571755 0
M  V30 3850 C 356.477 3.33466 0.815781 0
M  V30 3851 C 355.563 4.24095 0.0208844 0
M  V30 3852 N 355.954 4.95609 -1.0102 0
M  V30 3853 C 354.252 4.45303 0.249293 0
M  V30 3854 C 354.953 5.62287 -1.49024 0
M  V30 3855 N 353.929 5.37571 -0.807377 0
M  V30 3856 H 357.731 2.80593 -0.87436 0
M  V30 3857 H 355.245 1.51755 -0.578283 0
M  V30 3858 H 357.242 3.96008 1.30321 0
M  V30 3859 H 355.902 2.82276 1.6047 0
M  V30 3860 H 356.913 4.98849 -1.39176 0
M  V30 3861 H 353.59 4.0504 1.01237 0
M  V30 3862 H 354.98 6.29519 -2.34853 0
M  V30 3863 N 357.7 0.491464 1.49741 0
M  V30 3864 C 358.928 -0.0535151 2.06831 0
M  V30 3865 C 359.343 -1.31683 1.35296 0
M  V30 3866 O 358.7 -1.77402 0.42836 0
M  V30 3867 C 358.751 -0.320835 3.60073 0
M  V30 3868 O 358.472 0.892394 4.28915 0
M  V30 3869 C 359.973 -0.910519 4.33848 0
M  V30 3870 H 357.193 0.0161909 0.670805 0
M  V30 3871 H 359.737 0.68609 1.92647 0
M  V30 3872 H 357.892 -1.0104 3.73991 0
M  V30 3873 H 358.306 0.649401 5.20464 0
M  V30 3874 H 359.78 -1.04721 5.41976 0
M  V30 3875 H 360.257 -1.90589 3.95692 0
M  V30 3876 H 360.863 -0.258712 4.24512 0
M  V30 3877 N 359.178 -1.55987 0.224894 0
M  V30 3878 C 360.141 -2.19178 -0.670348 0
M  V30 3879 C 361.141 -1.15461 -1.11917 0
M  V30 3880 O 362.331 -1.40675 -1.02743 0
M  V30 3881 C 359.463 -2.81777 -1.9187 0
M  V30 3882 H 360.656 -2.99662 -0.119364 0
M  V30 3883 H 358.209 -1.5628 -0.0247128 0
M  V30 3884 H 358.944 -2.05172 -2.51147 0
M  V30 3885 H 358.729 -3.57732 -1.60531 0
M  V30 3886 H 360.219 -3.30205 -2.55645 0
M  V30 3887 N 360.656 0.0484629 -1.57525 0
M  V30 3888 C 361.904 0.741657 -1.88 0
M  V30 3889 C 362.225 1.76918 -0.820054 0
M  V30 3890 O 361.495 1.95335 0.148661 0
M  V30 3891 H 360.075 0.276908 -0.69378 0
M  V30 3892 H 362.737 0.019013 -1.94891 0
M  V30 3893 H 361.833 1.24336 -2.86264 0
M  V30 3894 N 362.134 1.5431 0.320358 0
M  V30 3895 C 363.359 1.76954 1.08175 0
M  V30 3896 C 363.784 0.518193 1.80821 0
M  V30 3897 O 363.142 -0.530411 1.73368 0
M  V30 3898 C 363.19 2.96451 2.05303 0
M  V30 3899 O 362.294 2.68221 3.13259 0
M  V30 3900 H 361.635 0.586275 0.311733 0
M  V30 3901 H 364.165 2.01342 0.363676 0
M  V30 3902 H 364.175 3.23887 2.48116 0
M  V30 3903 H 362.85 3.87196 1.51829 0
M  V30 3904 H 361.427 2.51744 2.75099 0
M  V30 3905 N 363.613 -0.582584 1.46437 0
M  V30 3906 C 364.543 -1.70187 1.59871 0
M  V30 3907 C 365.524 -1.64066 0.449042 0
M  V30 3908 O 366.709 -1.82081 0.6753 0
M  V30 3909 C 363.839 -3.08827 1.58881 0
M  V30 3910 C 362.793 -3.29779 2.72819 0
M  V30 3911 C 362.119 -4.68947 2.5689 0
M  V30 3912 C 363.419 -3.17601 4.1464 0
M  V30 3913 H 365.113 -1.592 2.53566 0
M  V30 3914 H 362.659 -0.764472 1.22032 0
M  V30 3915 H 364.612 -3.86951 1.66873 0
M  V30 3916 H 363.336 -3.20713 0.617306 0
M  V30 3917 H 361.995 -2.54054 2.64296 0
M  V30 3918 H 361.643 -4.77599 1.57823 0
M  V30 3919 H 361.343 -4.83919 3.33312 0
M  V30 3920 H 362.867 -5.4924 2.66773 0
M  V30 3921 H 364.281 -3.8557 4.24274 0
M  V30 3922 H 362.678 -3.44094 4.9165 0
M  V30 3923 H 363.748 -2.14681 4.34788 0
M  V30 3924 N 365.091 -1.34144 -0.827227 0
M  V30 3925 C 366.331 -1.27603 -1.59677 0
M  V30 3926 C 366.695 0.153035 -1.91389 0
M  V30 3927 O 367.896 0.342566 -2.66608 0
M  V30 3928 C 366.167 -2.13784 -2.86411 0
M  V30 3929 S 367.726 -2.24552 -3.76991 0
M  V30 3930 H 364.544 -0.453789 -0.547354 0
M  V30 3931 H 367.146 -1.69309 -0.977479 0
M  V30 3932 H 365.85 -3.16627 -2.61104 0
M  V30 3933 H 365.381 -1.72959 -3.5334 0
M  V30 3934 H 367.396 -1.41514 -4.75593 0
M  V30 3935 N 366.569 1.04691 -1.17803 0
M  V30 3936 C 367.818 1.77176 -0.963931 0
M  V30 3937 C 368.131 1.88888 0.508015 0
M  V30 3938 O 369.337 2.58164 0.840465 0
M  V30 3939 C 367.793 3.18518 -1.67555 0
M  V30 3940 C 367.401 3.14919 -3.18637 0
M  V30 3941 C 369.145 3.95424 -1.54402 0
M  V30 3942 C 367.052 4.51081 -3.82466 0
M  V30 3943 H 365.982 0.664116 -0.357023 0
M  V30 3944 H 368.633 1.17303 -1.4111 0
M  V30 3945 H 367.015 3.78748 -1.15613 0
M  V30 3946 H 368.189 2.64178 -3.77554 0
M  V30 3947 H 366.504 2.51512 -3.31859 0
M  V30 3948 H 369.101 4.96106 -1.99456 0
M  V30 3949 H 369.444 4.13343 -0.495329 0
M  V30 3950 H 369.977 3.41754 -2.0359 0
M  V30 3951 H 366.716 4.38368 -4.87354 0
M  V30 3952 H 366.236 5.01951 -3.28337 0
M  V30 3953 H 367.915 5.2001 -3.84965 0
M  V30 3954 N 368.047 0.979072 1.23499 0
M  V30 3955 C 369.295 0.645941 1.91499 0
M  V30 3956 C 369.616 -0.822948 1.76784 0
M  V30 3957 O 368.886 -1.58854 1.14639 0
M  V30 3958 H 367.466 0.235919 0.708767 0
M  V30 3959 H 370.128 1.2426 1.50152 0
M  V30 3960 H 369.224 0.896411 2.9895 0
M  V30 3961 N 369.525 -1.3858 0.750561 0
M  V30 3962 C 370.771 -2.00481 0.305825 0
M  V30 3963 C 371.104 -1.5944 -1.10872 0
M  V30 3964 O 370.379 -0.83052 -1.75877 0
M  V30 3965 C 370.662 -3.5758 0.425287 0
M  V30 3966 C 370.515 -4.08594 1.88072 0
M  V30 3967 C 371.834 -4.39719 -0.183122 0
M  V30 3968 H 368.953 -0.728348 0.112598 0
M  V30 3969 H 371.595 -1.64566 0.949638 0
M  V30 3970 H 369.745 -3.88306 -0.122828 0
M  V30 3971 H 371.417 -3.88523 2.48691 0
M  V30 3972 H 369.66 -3.61574 2.39681 0
M  V30 3973 H 370.331 -5.177 1.91548 0
M  V30 3974 H 372.807 -4.15128 0.284303 0
M  V30 3975 H 371.683 -5.48856 -0.0692757 0
M  V30 3976 H 371.944 -4.23434 -1.27106 0
M  V30 3977 N 371.003 -0.499398 -1.49478 0
M  V30 3978 C 372.28 0.108629 -1.95298 0
M  V30 3979 C 372.66 1.54282 -1.44084 0
M  V30 3980 O 372.008 2.18944 -0.653908 0
M  V30 3981 C 372.218 0.0229111 -3.48992 0
M  V30 3982 C 373.566 0.197643 -4.2414 0
M  V30 3983 O 374.59 0.0981735 -3.56065 0
M  V30 3984 O 373.449 0.401669 -5.45022 0
M  V30 3985 H 370.543 0.096181 -0.821388 0
M  V30 3986 H 373.089 -0.561822 -1.6013 0
M  V30 3987 H 371.861 -0.977321 -3.78899 0
M  V30 3988 H 371.484 0.733579 -3.90774 0
M  V30 3989 N 372.481 1.55866 -0.233164 0
M  V30 3990 C 373.892 1.847 0.272554 0
M  V30 3991 C 374.243 1.15477 1.58617 0
M  V30 3992 O 373.368 0.42841 2.12117 0
M  V30 3993 C 373.963 3.35071 0.501299 0
M  V30 3994 C 372.522 3.6418 0.951304 0
M  V30 3995 C 371.669 2.77292 0.0208209 0
M  V30 3996 H 374.62 1.52005 -0.456074 0
M  V30 3997 H 374.641 3.55906 1.34577 0
M  V30 3998 H 374.153 3.85424 -0.454936 0
M  V30 3999 H 372.254 3.19293 1.92049 0
M  V30 4000 H 372.367 4.72071 0.817675 0
M  V30 4001 H 370.731 2.49131 0.529723 0
M  V30 4002 H 371.514 3.30448 -0.93054 0
M  V30 4003 N 373.959 -0.0401083 1.57549 0
M  V30 4004 C 374.907 -1.06264 2.06908 0
M  V30 4005 C 375.901 -1.38132 0.980608 0
M  V30 4006 O 377.107 -1.37167 1.16556 0
M  V30 4007 H 373.482 -0.360166 0.660139 0
M  V30 4008 H 375.453 -0.620445 2.91878 0
M  V30 4009 C 374.202 -2.35846 2.55483 0
M  V30 4010 H 373.525 -2.12183 3.38849 0
M  V30 4011 H 374.965 -3.05765 2.93741 0
M  V30 4012 C 373.424 -3.0404 1.45126 0
M  V30 4013 O 373.954 -3.93424 0.811216 0
M  V30 4014 N 372.16 -2.65184 1.18852 0
M  V30 4015 H 371.707 -1.92584 1.71083 0
M  V30 4016 H 371.665 -3.1113 0.452244 0
M  V30 4017 N 375.437 -1.54477 -0.31217 0
M  V30 4018 C 376.853 -1.45442 -0.657185 0
M  V30 4019 C 377.053 -0.63653 -1.91182 0
M  V30 4020 O 376.109 -0.139815 -2.52113 0
M  V30 4021 C 377.422 -2.89287 -0.82058 0
M  V30 4022 C 378.97 -2.9926 -0.917188 0
M  V30 4023 C 379.445 -4.44279 -1.11267 0
M  V30 4024 N 380.936 -4.4794 -1.17914 0
M  V30 4025 C 381.671 -5.57318 -1.34848 0
M  V30 4026 N 381.167 -6.76642 -1.48752 0
M  V30 4027 N 382.96 -5.44986 -1.37647 0
M  V30 4028 H 375.111 -2.06129 0.512313 0
M  V30 4029 H 377.374 -0.933088 0.167485 0
M  V30 4030 H 377.08 -3.51687 0.0302604 0
M  V30 4031 H 376.954 -3.36061 -1.71298 0
M  V30 4032 H 379.341 -2.36981 -1.75852 0
M  V30 4033 H 379.422 -2.558 -0.00101257 0
M  V30 4034 H 379.066 -5.07149 -0.27614 0
M  V30 4035 H 378.996 -4.85359 -2.04289 0
M  V30 4036 H 381.487 -3.61969 -1.08567 0
M  V30 4037 H 381.8 -7.55758 -1.61397 0
M  V30 4038 H 380.145 -6.79529 -1.45828 0
M  V30 4039 H 383.336 -4.50715 -1.26388 0
M  V30 4040 H 383.509 -6.3028 -1.50501 0
M  V30 4041 N 376.915 0.57481 -1.46744 0
M  V30 4042 C 377.863 1.70435 -1.58286 0
M  V30 4043 C 378.857 1.63287 -0.450956 0
M  V30 4044 O 380.063 1.68685 -0.628121 0
M  V30 4045 H 376.438 0.56364 -0.497809 0
M  V30 4046 H 378.409 1.57833 -2.53242 0
M  V30 4047 C 377.158 3.08815 -1.59776 0
M  V30 4048 H 376.481 3.1499 -2.46214 0
M  V30 4049 H 377.921 3.87588 -1.71905 0
M  V30 4050 C 376.38 3.35301 -0.327812 0
M  V30 4051 O 376.91 3.97511 0.57861 0
M  V30 4052 N 375.116 2.89816 -0.213274 0
M  V30 4053 H 374.663 2.39371 -0.951798 0
M  V30 4054 H 374.621 3.0791 0.63553 0
M  V30 4055 N 378.394 1.34581 0.820102 0
M  V30 4056 C 379.64 1.28294 1.57836 0
M  V30 4057 C 379.995 -0.145099 1.91852 0
M  V30 4058 O 379.288 -1.09209 1.57429 0
M  V30 4059 C 379.482 2.10997 2.8847 0
M  V30 4060 C 379.311 3.61698 2.67216 0
M  V30 4061 C 378.081 4.3097 2.63805 0
M  V30 4062 C 380.279 4.55638 2.38534 0
M  V30 4063 N 378.261 5.67502 2.34126 0
M  V30 4064 C 379.632 5.80194 2.18574 0
M  V30 4065 C 381.687 4.44523 2.24285 0
M  V30 4066 C 380.39 6.94886 1.8581 0
M  V30 4067 C 382.416 5.5905 1.92916 0
M  V30 4068 C 381.778 6.82627 1.73782 0
M  V30 4069 H 377.877 0.524697 0.579842 0
M  V30 4070 H 380.461 1.69323 0.961139 0
M  V30 4071 H 378.632 1.7226 3.48111 0
M  V30 4072 H 380.364 1.96333 3.53886 0
M  V30 4073 H 377.119 3.83438 2.77978 0
M  V30 4074 H 377.543 6.39525 2.22118 0
M  V30 4075 H 382.185 3.49599 2.37782 0
M  V30 4076 H 379.903 7.89789 1.7105 0
M  V30 4077 H 383.489 5.52396 1.82619 0
M  V30 4078 H 382.369 7.69748 1.49861 0
M  V30 4079 N 379.872 -1.04064 1.18357 0
M  V30 4080 C 381.149 -1.74252 0.888581 0
M  V30 4081 C 381.529 -2.02138 -0.60856 0
M  V30 4082 O 380.877 -1.66656 -1.56327 0
M  V30 4083 C 381.087 -3.0277 1.73584 0
M  V30 4084 C 382.435 -3.76506 1.96286 0
M  V30 4085 O 383.459 -3.12668 1.70637 0
M  V30 4086 O 382.318 -4.91243 2.39464 0
M  V30 4087 H 379.412 -0.758271 0.330082 0
M  V30 4088 H 381.958 -1.1013 1.2911 0
M  V30 4089 H 380.73 -2.78299 2.75073 0
M  V30 4090 H 380.353 -3.74631 1.33183 0
M  V30 4091 N 381.35 -0.985608 -1.22978 0
M  V30 4092 C 382.313 -0.535071 -2.22867 0
M  V30 4093 C 383.313 0.378123 -1.56291 0
M  V30 4094 O 384.503 0.171092 -1.73358 0
M  V30 4095 C 381.635 0.222702 -3.40172 0
M  V30 4096 H 382.828 -1.41835 -2.6424 0
M  V30 4097 H 380.381 -0.772042 -1.35901 0
M  V30 4098 H 381.116 1.12229 -3.04262 0
M  V30 4099 H 380.901 -0.43288 -3.89703 0
M  V30 4100 H 382.391 0.526335 -4.1427 0
M  V30 4101 N 382.828 1.3818 -0.7579 0
M  V30 4102 C 384.076 1.99624 -0.315361 0
M  V30 4103 C 384.397 1.60464 1.10799 0
M  V30 4104 O 383.667 0.863507 1.75842 0
M  V30 4105 H 382.247 0.73831 -0.113611 0
M  V30 4106 H 384.909 1.68878 -0.972952 0
M  V30 4107 H 384.005 3.09754 -0.381931 0
M  V30 4108 N 384.306 0.507319 1.49211 0
M  V30 4109 C 385.553 -0.0349529 2.0247 0
M  V30 4110 C 385.881 -1.36409 1.38647 0
M  V30 4111 O 385.136 -1.88841 0.513566 0
M  V30 4112 C 385.435 -0.229513 3.56662 0
M  V30 4113 C 385.101 1.02241 4.39156 0
M  V30 4114 C 383.763 1.36557 4.61417 0
M  V30 4115 C 386.115 1.85428 4.871 0
M  V30 4116 C 383.443 2.53999 5.28868 0
M  V30 4117 C 385.795 3.02028 5.55843 0
M  V30 4118 C 384.459 3.36717 5.76349 0
M  V30 4119 H 383.729 -0.0127902 0.74089 0
M  V30 4120 H 386.376 0.668756 1.79443 0
M  V30 4121 H 384.681 -1.0158 3.78403 0
M  V30 4122 H 386.378 -0.663641 3.9547 0
M  V30 4123 H 382.968 0.745124 4.22073 0
M  V30 4124 H 387.152 1.6023 4.69723 0
M  V30 4125 H 382.408 2.81105 5.42946 0
M  V30 4126 H 386.582 3.66808 5.91967 0
M  V30 4127 H 384.209 4.27821 6.28389 0
M  V30 4128 N 385.784 -1.5574 0.241426 0
M  V30 4129 C 387.032 -1.98417 -0.384075 0
M  V30 4130 C 387.353 -1.13078 -1.58866 0
M  V30 4131 O 386.623 -0.212312 -1.94746 0
M  V30 4132 H 385.203 -0.732813 -0.144894 0
M  V30 4133 H 387.865 -1.9193 0.338943 0
M  V30 4134 H 386.961 -3.04219 -0.696939 0
M  V30 4135 N 387.262 0.0317525 -1.57568 0
M  V30 4136 C 388.192 1.03274 -2.0942 0
M  V30 4137 C 389.173 1.3788 -0.996143 0
M  V30 4138 O 390.358 1.46811 -1.27122 0
M  V30 4139 C 387.488 2.33448 -2.57137 0
M  V30 4140 C 386.442 2.13091 -3.71182 0
M  V30 4141 C 385.768 3.49001 -4.05095 0
M  V30 4142 C 387.068 1.51928 -4.99715 0
M  V30 4143 H 388.762 0.60112 -2.93303 0
M  V30 4144 H 386.308 0.287705 -1.41097 0
M  V30 4145 H 388.261 3.03802 -2.92032 0
M  V30 4146 H 386.985 2.78665 -1.70333 0
M  V30 4147 H 385.644 1.45171 -3.36632 0
M  V30 4148 H 385.292 3.91862 -3.15362 0
M  V30 4149 H 384.992 3.36207 -4.81911 0
M  V30 4150 H 386.516 4.20721 -4.42522 0
M  V30 4151 H 387.93 2.12196 -5.32584 0
M  V30 4152 H 386.327 1.49716 -5.81124 0
M  V30 4153 H 387.397 0.484811 -4.8247 0
M  V30 4154 N 388.74 1.54641 0.303973 0
M  V30 4155 C 389.965 1.78092 1.06292 0
M  V30 4156 C 390.39 0.537342 1.80262 0
M  V30 4157 O 389.748 -0.511993 1.7392 0
M  V30 4158 C 389.796 2.98612 2.02147 0
M  V30 4159 O 388.9 2.71528 3.10397 0
M  V30 4160 H 388.241 0.589548 0.305497 0
M  V30 4161 H 390.771 2.01716 0.3423 0
M  V30 4162 H 390.781 3.265 2.44667 0
M  V30 4163 H 389.456 3.88785 1.47714 0
M  V30 4164 H 388.033 2.54648 2.72413 0
M  V30 4165 N 390.218 -0.567019 1.47046 0
M  V30 4166 C 391.466 -1.322 1.52864 0
M  V30 4167 C 391.787 -1.94088 0.188388 0
M  V30 4168 O 391.057 -1.7941 -0.786693 0
M  V30 4169 H 389.637 -0.490894 0.563056 0
M  V30 4170 H 392.299 -0.662879 1.83281 0
M  V30 4171 H 391.395 -2.12062 2.2899 0
M  V30 4172 N 391.696 -1.35014 -0.812953 0
M  V30 4173 C 392.659 -1.27292 -1.90602 0
M  V30 4174 C 393.659 -0.185817 -1.59723 0
M  V30 4175 O 394.849 -0.439102 -1.68575 0
M  V30 4176 C 391.981 -0.967676 -3.26877 0
M  V30 4177 H 393.174 -2.24479 -1.9887 0
M  V30 4178 H 390.727 -1.19446 -1.00808 0
M  V30 4179 H 391.462 0.0005954 -3.243 0
M  V30 4180 H 391.247 -1.75412 -3.50675 0
M  V30 4181 H 392.737 -0.939085 -4.06904 0
M  V30 4182 N 393.175 1.03435 -1.18907 0
M  V30 4183 C 394.4 1.80919 -1.01406 0
M  V30 4184 C 394.825 1.83055 0.432721 0
M  V30 4185 O 394.183 1.25252 1.31079 0
M  V30 4186 C 394.231 3.24091 -1.58105 0
M  V30 4187 O 393.335 4.04434 -0.806669 0
M  V30 4188 H 392.676 0.558709 -0.358803 0
M  V30 4189 H 395.206 1.30223 -1.57807 0
M  V30 4190 H 395.216 3.74853 -1.61087 0
M  V30 4191 H 393.891 3.21851 -2.6341 0
M  V30 4192 H 392.468 3.63091 -0.849666 0
M  V30 4193 N 394.653 0.992116 1.22453 0
M  V30 4194 C 395.878 0.685644 1.95739 0
M  V30 4195 C 396.303 -0.743 1.72804 0
M  V30 4196 O 395.661 -1.50778 1.00676 0
M  V30 4197 C 395.709 0.996293 3.46564 0
M  V30 4198 O 394.813 0.0945512 4.12292 0
M  V30 4199 H 394.154 0.256694 0.612376 0
M  V30 4200 H 396.684 1.32888 1.5557 0
M  V30 4201 H 396.694 0.93781 3.97076 0
M  V30 4202 H 395.369 2.03733 3.62582 0
M  V30 4203 H 393.946 0.208451 3.72317 0
M  V30 4204 N 396.131 -1.37776 0.765217 0
M  V30 4205 C 397.079 -2.32209 0.134798 0
M  V30 4206 C 398.073 -1.54607 -0.692315 0
M  V30 4207 O 399.279 -1.70052 -0.590109 0
M  V30 4208 H 395.654 -0.751591 0.0248005 0
M  V30 4209 H 397.625 -2.8297 0.947119 0
M  V30 4210 C 396.374 -3.39841 -0.735063 0
M  V30 4211 H 395.697 -3.99654 -0.107991 0
M  V30 4212 H 397.137 -4.08296 -1.14326 0
M  V30 4213 C 395.596 -2.79378 -1.88281 0
M  V30 4214 O 396.126 -2.69608 -2.97783 0
M  V30 4215 N 394.332 -2.37016 -1.68142 0
M  V30 4216 H 393.879 -2.45162 -0.790772 0
M  V30 4217 H 393.837 -1.96905 -2.45104 0
M  V30 4218 N 397.609 -0.515225 -1.4894 0
M  V30 4219 C 399.02 -0.0710067 -1.86565 0
M  V30 4220 C 399.371 1.34733 -1.42623 0
M  V30 4221 O 398.496 2.00653 -0.810379 0
M  V30 4222 C 399.091 -0.122083 -3.3858 0
M  V30 4223 C 397.65 0.266863 -3.75453 0
M  V30 4224 C 396.797 -0.488376 -2.72966 0
M  V30 4225 H 399.748 -0.727266 -1.41055 0
M  V30 4226 H 399.769 0.669818 -3.74558 0
M  V30 4227 H 399.281 -1.15448 -3.70531 0
M  V30 4228 H 397.382 1.30196 -3.49113 0
M  V30 4229 H 397.495 -0.0624811 -4.79059 0
M  V30 4230 H 395.859 0.0635622 -2.54621 0
M  V30 4231 H 396.642 -1.52113 -3.07761 0
M  V30 4232 N 399.087 1.5561 -0.249682 0
M  V30 4233 C 400.327 2.00916 0.37579 0
M  V30 4234 C 400.691 1.13409 1.54927 0
M  V30 4235 O 401.892 1.48183 2.24266 0
M  V30 4236 C 400.163 3.48949 0.772633 0
M  V30 4237 S 401.722 4.16261 1.38824 0
M  V30 4238 H 398.54 0.70112 0.118117 0
M  V30 4239 H 401.142 1.92052 -0.365567 0
M  V30 4240 H 399.846 4.103 -0.090683 0
M  V30 4241 H 399.377 3.61745 1.5461 0
M  V30 4242 H 401.392 4.17778 2.67724 0
M  V30 4243 N 400.565 -0.0233959 1.57583 0
M  V30 4244 C 401.79 -0.728376 1.94189 0
M  V30 4245 C 402.215 -1.67793 0.850119 0
M  V30 4246 O 401.573 -1.80262 -0.19371 0
M  V30 4247 C 401.621 -1.45669 3.29868 0
M  V30 4248 O 400.725 -2.57013 3.22518 0
M  V30 4249 H 400.066 -0.195493 0.63457 0
M  V30 4250 H 402.596 0.0228214 2.04587 0
M  V30 4251 H 402.606 -1.82535 3.6489 0
M  V30 4252 H 401.281 -0.760314 4.08891 0
M  V30 4253 H 399.858 -2.22648 2.99136 0
M  V30 4254 N 402.043 -1.548 -0.295768 0
M  V30 4255 C 402.953 -1.89177 -1.38742 0
M  V30 4256 C 403.969 -0.786481 -1.55211 0
M  V30 4257 O 405.145 -1.08344 -1.69775 0
M  V30 4258 C 402.21 -2.13663 -2.73036 0
M  V30 4259 C 401.271 -3.37349 -2.65508 0
M  V30 4260 C 400.504 -3.60658 -3.93398 0
M  V30 4261 O 400.727 -2.86882 -4.93006 0
M  V30 4262 O 399.661 -4.54179 -3.94975 0
M  V30 4263 H 403.487 -2.82059 -1.12589 0
M  V30 4264 H 401.072 -1.41056 -0.492295 0
M  V30 4265 H 402.954 -2.3094 -3.52484 0
M  V30 4266 H 401.629 -1.23967 -2.99022 0
M  V30 4267 H 400.536 -3.25431 -1.84514 0
M  V30 4268 H 401.869 -4.27192 -2.44474 0
M  V30 4269 N 403.521 0.559213 -1.47345 0
M  V30 4270 C 404.749 1.34194 -1.57479 0
M  V30 4271 C 405.164 1.87463 -0.224261 0
M  V30 4272 O 404.521 1.64888 0.782185 0
M  V30 4273 C 404.572 2.51324 -2.59843 0
M  V30 4274 O 404.293 2.00256 -3.89653 0
M  V30 4275 C 405.794 3.43563 -2.80142 0
M  V30 4276 H 403.014 0.409136 -0.531835 0
M  V30 4277 H 405.558 0.677609 -1.92947 0
M  V30 4278 H 403.713 3.13699 -2.27314 0
M  V30 4279 H 404.127 2.76708 -4.4557 0
M  V30 4280 H 405.601 4.2217 -3.55635 0
M  V30 4281 H 406.078 3.9698 -1.87892 0
M  V30 4282 H 406.684 2.87005 -3.1386 0
M  V30 4283 N 404.999 1.35443 0.805782 0
M  V30 4284 C 406.229 1.31687 1.59192 0
M  V30 4285 C 406.637 -0.10756 1.88894 0
M  V30 4286 O 405.98 -1.07017 1.49309 0
M  V30 4287 C 406.042 2.05686 2.94845 0
M  V30 4288 C 405.706 3.54868 2.87954 0
M  V30 4289 C 406.703 4.49444 2.61335 0
M  V30 4290 C 404.388 3.97528 3.07046 0
M  V30 4291 C 406.382 5.84655 2.53885 0
M  V30 4292 C 404.069 5.32833 2.99219 0
M  V30 4293 C 405.067 6.26209 2.72674 0
M  V30 4294 O 404.755 7.59032 2.64811 0
M  V30 4295 H 404.487 0.453878 0.50097 0
M  V30 4296 H 407.041 1.78892 1.0093 0
M  V30 4297 H 405.271 1.5312 3.55093 0
M  V30 4298 H 406.96 1.94998 3.55993 0
M  V30 4299 H 407.726 4.17804 2.46303 0
M  V30 4300 H 403.605 3.25233 3.26718 0
M  V30 4301 H 407.149 6.57508 2.33086 0
M  V30 4302 H 403.046 5.64087 3.13809 0
M  V30 4303 H 403.814 7.68967 2.80413 0
M  V30 4304 N 406.477 -1.02803 1.19454 0
M  V30 4305 C 407.427 -2.0945 0.900827 0
M  V30 4306 C 408.411 -1.60335 -0.134715 0
M  V30 4307 O 409.603 -1.76857 0.0710924 0
M  V30 4308 C 406.732 -3.4044 0.442229 0
M  V30 4309 C 405.818 -3.96286 1.51056 0
M  V30 4310 N 406.209 -4.25785 2.73021 0
M  V30 4311 C 404.507 -4.24307 1.37404 0
M  V30 4312 C 405.208 -4.70654 3.41848 0
M  V30 4313 N 404.184 -4.72238 2.69243 0
M  V30 4314 H 407.986 -2.3015 1.82779 0
M  V30 4315 H 405.5 -1.20672 1.08683 0
M  V30 4316 H 407.497 -4.16354 0.21326 0
M  V30 4317 H 406.157 -3.21159 -0.478238 0
M  V30 4318 H 407.168 -4.15041 3.09776 0
M  V30 4319 H 403.845 -4.14285 0.517103 0
M  V30 4320 H 405.235 -5.02392 4.46152 0
M  V30 4321 N 407.956 -0.998596 -1.21925 0
M  V30 4322 C 409.204 -0.676325 -1.90448 0
M  V30 4323 C 409.525 0.794719 -1.78071 0
M  V30 4324 O 408.795 1.5701 -1.17152 0
M  V30 4325 H 407.375 -0.247165 -0.704925 0
M  V30 4326 H 410.037 -1.26633 -1.48156 0
M  V30 4327 H 409.133 -0.943858 -2.97486 0
M  V30 4328 N 409.434 1.37368 -0.772513 0
M  V30 4329 C 410.381 2.30262 -0.157488 0
M  V30 4330 C 411.351 1.51137 0.688965 0
M  V30 4331 O 412.536 1.79704 0.641168 0
M  V30 4332 C 409.676 3.37611 0.715045 0
M  V30 4333 C 408.789 4.31746 -0.148098 0
M  V30 4334 C 407.924 5.26171 0.729213 0
M  V30 4335 C 406.963 6.11948 -0.136418 0
M  V30 4336 N 406.1 6.98613 0.698914 0
M  V30 4337 H 410.94 2.82277 -0.955179 0
M  V30 4338 H 408.477 1.38957 -0.482631 0
M  V30 4339 H 410.435 3.98479 1.23575 0
M  V30 4340 H 409.065 2.86959 1.47833 0
M  V30 4341 H 408.117 3.72178 -0.786613 0
M  V30 4342 H 409.429 4.92084 -0.81579 0
M  V30 4343 H 408.583 5.92247 1.31637 0
M  V30 4344 H 407.322 4.66246 1.43059 0
M  V30 4345 H 406.327 5.4485 -0.736102 0
M  V30 4346 H 407.552 6.73945 -0.835134 0
M  V30 4347 H 405.498 6.41215 1.38489 0
M  V30 4348 H 405.415 7.55948 0.0885358 0
M  V30 4349 H 406.683 7.69077 1.27044 0
M  V30 4350 N 410.912 0.523116 1.48665 0
M  V30 4351 C 412.159 -0.0134763 2.02496 0
M  V30 4352 C 412.487 -1.3493 1.40086 0
M  V30 4353 O 411.742 -1.88286 0.533567 0
M  V30 4354 C 412.041 -0.191671 3.56886 0
M  V30 4355 C 411.707 1.06893 4.38046 0
M  V30 4356 C 410.369 1.41443 4.59943 0
M  V30 4357 C 412.721 1.90584 4.85106 0
M  V30 4358 C 410.049 2.59594 5.26144 0
M  V30 4359 C 412.401 3.07907 5.52609 0
M  V30 4360 C 411.065 3.42811 5.72745 0
M  V30 4361 H 410.335 -0.00493133 0.740984 0
M  V30 4362 H 412.982 0.687751 1.78724 0
M  V30 4363 H 411.287 -0.97561 3.79459 0
M  V30 4364 H 412.984 -0.621659 3.96152 0
M  V30 4365 H 409.574 0.789848 4.21259 0
M  V30 4366 H 413.758 1.65203 4.67997 0
M  V30 4367 H 409.014 2.86847 5.39934 0
M  V30 4368 H 413.188 3.73066 5.88043 0
M  V30 4369 H 410.815 4.34462 6.23816 0
M  V30 4370 N 412.39 -1.55475 0.257931 0
M  V30 4371 C 413.353 -2.20551 -0.623706 0
M  V30 4372 C 414.353 -1.17809 -1.09443 0
M  V30 4373 O 415.543 -1.42823 -0.997362 0
M  V30 4374 C 412.675 -2.85784 -1.8585 0
M  V30 4375 H 413.868 -2.99848 -0.0557743 0
M  V30 4376 H 411.421 -1.56298 0.0084422 0
M  V30 4377 H 412.156 -2.10453 -2.46739 0
M  V30 4378 H 411.941 -3.61057 -1.52907 0
M  V30 4379 H 413.431 -3.35553 -2.48584 0
M  V30 4380 N 413.868 0.0150385 -1.57593 0
M  V30 4381 C 414.816 1.02958 -2.08572 0
M  V30 4382 C 415.81 1.36554 -1.00246 0
M  V30 4383 O 417.016 1.35295 -1.18724 0
M  V30 4384 H 413.391 0.349619 -0.665786 0
M  V30 4385 H 415.362 0.573932 -2.92829 0
M  V30 4386 C 414.111 2.31752 -2.59203 0
M  V30 4387 H 413.434 2.06765 -3.42182 0
M  V30 4388 H 414.874 3.01053 -2.98568 0
M  V30 4389 C 413.333 3.01692 -1.49945 0
M  V30 4390 O 413.863 3.92083 -0.873704 0
M  V30 4391 N 412.069 2.6326 -1.23056 0
M  V30 4392 H 411.616 1.89838 -1.74125 0
M  V30 4393 H 411.574 3.10372 -0.501685 0
M  V30 4394 N 415.346 1.54954 0.287554 0
M  V30 4395 C 416.571 1.79209 1.04397 0
M  V30 4396 C 416.996 0.556431 1.79682 0
M  V30 4397 O 416.354 -0.493518 1.74454 0
M  V30 4398 C 416.402 3.00739 1.98969 0
M  V30 4399 O 415.506 2.74805 3.075 0
M  V30 4400 H 414.847 0.592755 0.299227 0
M  V30 4401 H 417.377 2.02068 0.320886 0
M  V30 4402 H 417.387 3.29077 2.4119 0
M  V30 4403 H 416.062 3.90329 1.43582 0
M  V30 4404 H 414.639 2.57523 2.69697 0
M  V30 4405 N 416.824 -0.551391 1.4764 0
M  V30 4406 C 417.734 -1.68525 1.63207 0
M  V30 4407 C 418.75 -1.6621 0.514815 0
M  V30 4408 O 419.926 -1.85551 0.783113 0
M  V30 4409 C 416.991 -3.05025 1.64805 0
M  V30 4410 C 416.052 -3.18362 2.88 0
M  V30 4411 C 415.285 -4.4835 2.89513 0
M  V30 4412 O 415.508 -5.34163 2.00065 0
M  V30 4413 O 414.442 -4.65602 3.81443 0
M  V30 4414 H 418.268 -1.58333 2.59161 0
M  V30 4415 H 415.853 -0.722063 1.30792 0
M  V30 4416 H 417.735 -3.86245 1.68502 0
M  V30 4417 H 416.41 -3.15587 0.720197 0
M  V30 4418 H 415.317 -2.36518 2.89845 0
M  V30 4419 H 416.65 -3.12707 3.80099 0
M  V30 4420 N 418.302 -1.35869 -0.798587 0
M  V30 4421 C 419.548 -1.2978 -1.55836 0
M  V30 4422 C 419.881 0.125322 -1.93795 0
M  V30 4423 O 419.156 1.07658 -1.61987 0
M  V30 4424 C 419.439 -2.21188 -2.84162 0
M  V30 4425 C 419.292 -3.72155 -2.52628 0
M  V30 4426 C 420.611 -2.11545 -3.85923 0
M  V30 4427 H 417.73 -0.472769 -0.565383 0
M  V30 4428 H 420.372 -1.66341 -0.918192 0
M  V30 4429 H 418.522 -1.90139 -3.38791 0
M  V30 4430 H 420.194 -4.13682 -2.04121 0
M  V30 4431 H 418.437 -3.92042 -1.85704 0
M  V30 4432 H 419.108 -4.31511 -3.44242 0
M  V30 4433 H 421.584 -2.38855 -3.40716 0
M  V30 4434 H 420.46 -2.77688 -4.73477 0
M  V30 4435 H 420.721 -1.09987 -4.282 0
M  V30 4436 N 419.78 1.02168 -1.19998 0
M  V30 4437 C 420.69 2.14069 -0.959774 0
M  V30 4438 C 421.706 1.73804 0.082655 0
M  V30 4439 O 422.882 2.01133 -0.103633 0
M  V30 4440 C 419.947 3.42936 -0.509459 0
M  V30 4441 C 419.008 3.97474 -1.62213 0
M  V30 4442 C 418.241 5.2019 -1.19321 0
M  V30 4443 O 418.464 5.70369 -0.0597726 0
M  V30 4444 O 417.398 5.67749 -1.99863 0
M  V30 4445 H 421.224 2.37199 -1.89658 0
M  V30 4446 H 418.809 1.12469 -0.983411 0
M  V30 4447 H 420.691 4.20551 -0.267322 0
M  V30 4448 H 419.366 3.21234 0.398821 0
M  V30 4449 H 418.273 3.21161 -1.9185 0
M  V30 4450 H 419.606 4.23555 -2.50723 0
M  V30 4451 N 421.258 1.00505 1.21394 0
M  V30 4452 C 422.504 0.688793 1.90745 0
M  V30 4453 C 422.837 -0.778486 1.77914 0
M  V30 4454 O 422.112 -1.56433 1.15581 0
M  V30 4455 C 422.395 1.11063 3.42545 0
M  V30 4456 C 422.248 2.63737 3.64367 0
M  V30 4457 C 423.567 0.673059 4.34923 0
M  V30 4458 H 420.686 0.251702 0.692687 0
M  V30 4459 H 423.328 1.25074 1.43026 0
M  V30 4460 H 421.478 0.632508 3.83317 0
M  V30 4461 H 423.15 3.19313 3.32922 0
M  V30 4462 H 421.393 3.05248 3.08231 0
M  V30 4463 H 422.064 2.88305 4.70727 0
M  V30 4464 H 424.54 1.08392 4.01734 0
M  V30 4465 H 423.416 0.996383 5.39781 0
M  V30 4466 H 423.677 -0.425808 4.40045 0
M  V30 4467 N 422.737 -1.36956 0.779787 0
M  V30 4468 C 423.684 -2.30175 0.169697 0
M  V30 4469 C 424.654 -1.51501 -0.68094 0
M  V30 4470 O 425.839 -1.80042 -0.631629 0
M  V30 4471 C 422.979 -3.37985 -0.697131 0
M  V30 4472 C 422.092 -4.31661 0.170992 0
M  V30 4473 C 421.227 -5.2655 -0.701298 0
M  V30 4474 C 420.266 -6.11867 0.168869 0
M  V30 4475 N 419.403 -6.98973 -0.661855 0
M  V30 4476 H 424.243 -2.81767 0.970135 0
M  V30 4477 H 421.78 -1.38699 0.489994 0
M  V30 4478 H 423.738 -3.99128 -1.2146 0
M  V30 4479 H 422.368 -2.87739 -1.46309 0
M  V30 4480 H 421.42 -3.71756 0.80634 0
M  V30 4481 H 422.732 -4.91644 0.841875 0
M  V30 4482 H 421.886 -5.92937 -1.28494 0
M  V30 4483 H 420.625 -4.66998 -1.40584 0
M  V30 4484 H 419.63 -5.44452 0.764986 0
M  V30 4485 H 420.855 -6.73493 0.870863 0
M  V30 4486 H 418.801 -6.41941 -1.35086 0
M  V30 4487 H 418.718 -7.55984 -0.0484447 0
M  V30 4488 H 419.986 -7.6974 -1.22963 0
M  V30 4489 N 424.215 -0.530993 -1.48385 0
M  V30 4490 C 425.44 0.000729535 -2.074 0
M  V30 4491 C 425.865 1.27298 -1.3848 0
M  V30 4492 O 425.223 1.75599 -0.451081 0
M  V30 4493 C 425.271 0.206697 -3.60007 0
M  V30 4494 O 424.375 1.27514 -3.92191 0
M  V30 4495 H 423.716 -0.039583 -0.662819 0
M  V30 4496 H 426.246 -0.739194 -1.9078 0
M  V30 4497 H 426.256 0.42904 -4.05738 0
M  V30 4498 H 424.931 -0.722675 -4.09573 0
M  V30 4499 H 423.508 1.03537 -3.58238 0
M  V30 4500 N 425.693 1.55336 -0.266172 0
M  V30 4501 C 426.942 1.98574 0.353749 0
M  V30 4502 C 427.255 1.15789 1.57646 0
M  V30 4503 O 428.461 1.49129 2.26876 0
M  V30 4504 C 426.917 3.53403 0.680747 0
M  V30 4505 C 426.525 4.44953 -0.52165 0
M  V30 4506 C 428.269 4.05251 1.26379 0
M  V30 4507 C 426.176 5.91156 -0.169736 0
M  V30 4508 H 425.106 0.741643 0.135949 0
M  V30 4509 H 427.757 1.79743 -0.369421 0
M  V30 4510 H 426.139 3.68001 1.46257 0
M  V30 4511 H 427.313 4.42121 -1.29869 0
M  V30 4512 H 425.628 4.03691 -1.02093 0
M  V30 4513 H 428.225 5.12021 1.54074 0
M  V30 4514 H 428.568 3.53749 2.19471 0
M  V30 4515 H 429.101 3.94057 0.544447 0
M  V30 4516 H 425.84 6.46736 -1.0683 0
M  V30 4517 H 425.36 5.97079 0.570717 0
M  V30 4518 H 427.039 6.4655 0.241245 0
M  V30 4519 N 427.171 -0.0066808 1.57599 0
M  V30 4520 C 428.417 -0.693947 1.90558 0
M  V30 4521 C 428.75 -1.73792 0.866594 0
M  V30 4522 O 428.025 -1.94156 -0.115548 0
M  V30 4523 C 428.308 -1.34317 3.34112 0
M  V30 4524 C 428.161 -0.311189 4.48722 0
M  V30 4525 C 429.48 -2.27116 3.7697 0
M  V30 4526 H 426.599 -0.250803 0.693013 0
M  V30 4527 H 429.241 0.043242 1.89951 0
M  V30 4528 H 427.391 -1.9715 3.3476 0
M  V30 4529 H 429.063 0.316944 4.6021 0
M  V30 4530 H 427.306 0.367253 4.32243 0
M  V30 4531 H 427.977 -0.804366 5.46108 0
M  V30 4532 H 430.453 -1.74306 3.77831 0
M  V30 4533 H 429.329 -2.69511 4.78179 0
M  V30 4534 H 429.59 -3.14743 3.10466 0
M  V30 4535 N 428.649 -1.55105 -0.279332 0
M  V30 4536 C 429.926 -1.66119 -1.03267 0
M  V30 4537 C 430.306 -0.523525 -2.04505 0
M  V30 4538 O 429.654 0.477194 -2.23462 0
M  V30 4539 C 429.864 -3.05067 -1.69515 0
M  V30 4540 C 431.212 -3.62606 -2.20912 0
M  V30 4541 O 432.236 -3.07659 -1.79512 0
M  V30 4542 O 431.095 -4.58861 -2.96831 0
M  V30 4543 H 428.189 -0.674429 -0.478618 0
M  V30 4544 H 430.735 -1.67446 -0.275694 0
M  V30 4545 H 429.507 -3.79311 -0.9612 0
M  V30 4546 H 429.13 -3.07611 -2.51915 0
M  V30 4547 N 430.127 0.543554 -1.4793 0
M  V30 4548 C 431.374 1.30008 -1.55255 0
M  V30 4549 C 431.702 1.93245 -0.220612 0
M  V30 4550 O 430.957 1.79141 0.787843 0
M  V30 4551 C 431.256 2.42078 -2.62932 0
M  V30 4552 C 430.922 1.96583 -4.0579 0
M  V30 4553 C 429.584 1.83893 -4.44676 0
M  V30 4554 C 431.936 1.62034 -4.95373 0
M  V30 4555 C 429.264 1.34969 -5.70964 0
M  V30 4556 C 431.616 1.14577 -6.22137 0
M  V30 4557 C 430.28 1.00493 -6.59892 0
M  V30 4558 H 429.55 0.475735 -0.568117 0
M  V30 4559 H 432.197 0.608075 -1.81589 0
M  V30 4560 H 430.502 3.16892 -2.30406 0
M  V30 4561 H 432.199 3.00236 -2.65818 0
M  V30 4562 H 428.789 2.07407 -3.75074 0
M  V30 4563 H 432.973 1.70705 -4.66019 0
M  V30 4564 H 428.229 1.2274 -5.98953 0
M  V30 4565 H 432.403 0.869109 -6.90955 0
M  V30 4566 H 430.03 0.623624 -7.57638 0
M  V30 4567 N 431.605 1.3629 0.791371 0
M  V30 4568 C 432.851 1.30605 1.55146 0
M  V30 4569 C 433.184 -0.115042 1.93859 0
M  V30 4570 O 432.459 -1.06798 1.62556 0
M  V30 4571 C 432.742 2.22692 2.82985 0
M  V30 4572 C 432.595 3.73489 2.50651 0
M  V30 4573 C 433.914 2.13588 3.84796 0
M  V30 4574 H 431.033 0.475761 0.562868 0
M  V30 4575 H 433.675 1.66825 0.909358 0
M  V30 4576 H 431.825 1.91933 3.37778 0
M  V30 4577 H 433.497 4.14758 2.01924 0
M  V30 4578 H 431.74 3.93021 1.83622 0
M  V30 4579 H 432.411 4.3333 3.41949 0
M  V30 4580 H 434.887 2.40659 3.39445 0
M  V30 4581 H 433.763 2.80195 4.71998 0
M  V30 4582 H 434.024 1.12256 4.27611 0
M  V30 4583 N 433.083 -1.0153 1.20538 0
M  V30 4584 C 434.03 -2.10098 0.955383 0
M  V30 4585 C 435 -1.65702 -0.114878 0
M  V30 4586 O 436.185 -1.90776 0.0301118 0
M  V30 4587 C 433.325 -3.41236 0.514969 0
M  V30 4588 C 432.438 -3.99102 1.65353 0
M  V30 4589 C 431.573 -5.18306 1.16329 0
M  V30 4590 C 430.612 -5.68258 2.27485 0
M  V30 4591 N 429.749 -6.78722 1.7967 0
M  V30 4592 H 434.589 -2.30818 1.88486 0
M  V30 4593 H 432.126 -1.13189 0.939499 0
M  V30 4594 H 434.084 -4.16504 0.240935 0
M  V30 4595 H 432.714 -3.20585 -0.377512 0
M  V30 4596 H 431.766 -3.20918 2.04245 0
M  V30 4597 H 433.078 -4.32177 2.49047 0
M  V30 4598 H 432.232 -6.00782 0.845302 0
M  V30 4599 H 430.971 -4.86799 0.296254 0
M  V30 4600 H 429.976 -4.84385 2.60099 0
M  V30 4601 H 431.201 -6.01798 3.14667 0
M  V30 4602 H 429.147 -6.49042 0.95295 0
M  V30 4603 H 429.064 -7.10996 2.56944 0
M  V30 4604 H 430.332 -7.64759 1.50875 0
M  V30 4605 N 434.561 -1.01147 -1.20859 0
M  V30 4606 C 435.838 -0.613136 -1.85742 0
M  V30 4607 C 436.218 0.909004 -1.90526 0
M  V30 4608 O 435.566 1.79862 -1.40932 0
M  V30 4609 C 435.776 -1.255 -3.25654 0
M  V30 4610 C 437.124 -1.3672 -4.01986 0
M  V30 4611 O 438.148 -1.21082 -3.34989 0
M  V30 4612 O 437.007 -1.6194 -5.21956 0
M  V30 4613 H 434.101 -0.210878 -0.799662 0
M  V30 4614 H 436.647 -1.10853 -1.2849 0
M  V30 4615 H 435.419 -2.29532 -3.16908 0
M  V30 4616 H 435.042 -0.746369 -3.90532 0
M  V30 4617 N 436.039 1.36541 -0.78704 0
M  V30 4618 C 436.989 2.27459 -0.156957 0
M  V30 4619 C 437.973 1.46843 0.657709 0
M  V30 4620 O 439.165 1.69245 0.518173 0
M  V30 4621 C 436.294 3.35893 0.709278 0
M  V30 4622 C 435.38 4.23947 -0.114049 0
M  V30 4623 N 435.771 4.92145 -1.16736 0
M  V30 4624 C 434.069 4.4587 0.107497 0
M  V30 4625 C 434.77 5.57261 -1.66837 0
M  V30 4626 N 433.746 5.3473 -0.977992 0
M  V30 4627 H 437.548 2.77669 -0.963185 0
M  V30 4628 H 435.062 1.49839 -0.62627 0
M  V30 4629 H 437.059 3.99953 1.17656 0
M  V30 4630 H 435.719 2.87238 1.51408 0
M  V30 4631 H 436.73 4.94169 -1.54976 0
M  V30 4632 H 433.407 4.08056 0.882994 0
M  V30 4633 H 434.797 6.21728 -2.54762 0
M  V30 4634 N 437.518 0.538854 1.48102 0
M  V30 4635 C 438.766 0.00798599 2.02098 0
M  V30 4636 C 439.087 -1.33922 1.41739 0
M  V30 4637 O 438.357 -1.86932 0.585934 0
M  V30 4638 H 436.937 -3.62179e-05 0.747 0
M  V30 4639 H 439.599 0.7047 1.81714 0
M  V30 4640 H 438.695 -0.0937672 3.11959 0
M  V30 4641 N 438.996 -1.55193 0.274407 0
M  V30 4642 C 439.944 -2.23924 -0.629362 0
M  V30 4643 C 440.938 -1.23602 -1.1584 0
M  V30 4644 O 442.144 -1.41535 -1.11211 0
M  V30 4645 H 438.519 -0.718637 -0.221507 0
M  V30 4646 H 440.49 -2.98388 -0.0268322 0
M  V30 4647 C 439.239 -2.97329 -1.80252 0
M  V30 4648 H 438.562 -3.74313 -1.40462 0
M  V30 4649 H 440.002 -3.48743 -2.41152 0
M  V30 4650 C 438.461 -2.0276 -2.69054 0
M  V30 4651 O 438.991 -1.57836 -3.69392 0
M  V30 4652 N 437.197 -1.69275 -2.36208 0
M  V30 4653 H 436.744 -2.06004 -1.54661 0
M  V30 4654 H 436.702 -1.06271 -2.95895 0
M  V30 4655 N 440.474 -0.00167713 -1.576 0
M  V30 4656 C 441.723 0.682021 -1.89819 0
M  V30 4657 C 442.036 1.74844 -0.876871 0
M  V30 4658 O 443.242 2.48688 -1.08934 0
M  V30 4659 C 441.698 1.26425 -3.36964 0
M  V30 4660 C 441.306 0.232568 -4.47396 0
M  V30 4661 C 443.05 1.92604 -3.78291 0
M  V30 4662 C 440.957 0.824882 -5.85619 0
M  V30 4663 H 439.887 0.258499 -0.708304 0
M  V30 4664 H 442.538 -0.0624957 -1.83394 0
M  V30 4665 H 440.92 2.05949 -3.38232 0
M  V30 4666 H 442.094 -0.5382 -4.57646 0
M  V30 4667 H 440.409 -0.32888 -4.15099 0
M  V30 4668 H 443.006 2.37827 -4.78897 0
M  V30 4669 H 443.349 2.75732 -3.11894 0
M  V30 4670 H 443.882 1.19812 -3.79328 0
M  V30 4671 H 440.621 0.0323542 -6.55492 0
M  V30 4672 H 440.141 1.56477 -5.79029 0
M  V30 4673 H 441.82 1.32301 -6.33329 0
M  V30 4674 N 441.952 1.55251 0.271103 0
M  V30 4675 C 442.899 1.88261 1.33516 0
M  V30 4676 C 443.869 0.734296 1.48988 0
M  V30 4677 O 445.054 0.985741 1.63364 0
M  V30 4678 C 442.194 2.16168 2.69008 0
M  V30 4679 C 441.307 3.43678 2.61743 0
M  V30 4680 C 440.442 3.61276 3.89427 0
M  V30 4681 C 439.481 4.82472 3.7668 0
M  V30 4682 N 438.618 4.96717 4.96202 0
M  V30 4683 H 443.458 2.79015 1.04665 0
M  V30 4684 H 440.995 1.38137 0.505618 0
M  V30 4685 H 442.953 2.30349 3.47844 0
M  V30 4686 H 441.583 1.28646 2.96057 0
M  V30 4687 H 440.635 3.37959 1.74607 0
M  V30 4688 H 441.947 4.3265 2.48224 0
M  V30 4689 H 441.101 3.75284 4.76704 0
M  V30 4690 H 439.84 2.70492 4.05814 0
M  V30 4691 H 438.845 4.68465 2.87786 0
M  V30 4692 H 440.07 5.74692 3.61809 0
M  V30 4693 H 438.016 4.08865 5.12997 0
M  V30 4694 H 437.933 5.79738 4.85222 0
M  V30 4695 H 439.201 5.15113 5.85046 0
M  V30 4696 N 443.43 -0.535701 1.48216 0
M  V30 4697 C 444.393 -1.623 1.61838 0
M  V30 4698 C 445.393 -1.53087 0.492024 0
M  V30 4699 O 446.583 -1.5686 0.757668 0
M  V30 4700 C 443.715 -3.01907 1.58319 0
M  V30 4701 H 444.908 -1.51564 2.58783 0
M  V30 4702 H 442.461 -0.757317 1.36727 0
M  V30 4703 H 443.196 -3.18155 0.628299 0
M  V30 4704 H 442.981 -3.10003 2.40085 0
M  V30 4705 H 444.471 -3.80969 1.71033 0
M  V30 4706 N 444.908 -1.36708 -0.784132 0
M  V30 4707 C 446.155 -1.31231 -1.54222 0
M  V30 4708 C 446.483 0.106864 -1.94206 0
M  V30 4709 O 445.738 1.07734 -1.63376 0
M  V30 4710 C 446.037 -2.18571 -2.82774 0
M  V30 4711 C 445.703 -3.67039 -2.61903 0
M  V30 4712 C 444.365 -4.07503 -2.55919 0
M  V30 4713 C 446.717 -4.61149 -2.4288 0
M  V30 4714 C 444.045 -5.40211 -2.28886 0
M  V30 4715 C 446.397 -5.94081 -2.17373 0
M  V30 4716 C 445.061 -6.33664 -2.09825 0
M  V30 4717 H 444.331 -0.48021 -0.56434 0
M  V30 4718 H 446.978 -1.68807 -0.904233 0
M  V30 4719 H 445.283 -1.73949 -3.51068 0
M  V30 4720 H 446.98 -2.11655 -3.40592 0
M  V30 4721 H 443.57 -3.34941 -2.67418 0
M  V30 4722 H 447.754 -4.30756 -2.46501 0
M  V30 4723 H 443.01 -5.69855 -2.21529 0
M  V30 4724 H 447.184 -6.66566 -2.01649 0
M  V30 4725 H 444.811 -7.36423 -1.88641 0
M  V30 4726 N 446.386 1.0089 -1.21074 0
M  V30 4727 C 447.635 1.74019 -1.01981 0
M  V30 4728 C 447.948 1.90408 0.447665 0
M  V30 4729 O 449.154 2.60707 0.757906 0
M  V30 4730 C 447.61 3.13026 -1.77603 0
M  V30 4731 C 447.218 3.04623 -3.28495 0
M  V30 4732 C 448.962 3.90312 -1.66904 0
M  V30 4733 C 446.869 4.38685 -3.96623 0
M  V30 4734 H 445.799 0.652422 -0.377971 0
M  V30 4735 H 448.45 1.12755 -1.44771 0
M  V30 4736 H 446.832 3.74878 -1.27604 0
M  V30 4737 H 448.006 2.52032 -3.85767 0
M  V30 4738 H 446.321 2.40827 -3.39693 0
M  V30 4739 H 448.918 4.8951 -2.15138 0
M  V30 4740 H 449.261 4.11558 -0.62658 0
M  V30 4741 H 449.794 3.35104 -2.14359 0
M  V30 4742 H 446.533 4.22641 -5.01054 0
M  V30 4743 H 446.053 4.91252 -3.4414 0
M  V30 4744 H 447.732 5.075 -4.01314 0
M  V30 4745 N 447.864 1.01787 1.20321 0
M  V30 4746 C 449.089 0.727009 1.9424 0
M  V30 4747 C 449.514 -0.706179 1.74341 0
M  V30 4748 O 448.872 -1.48609 1.03852 0
M  V30 4749 C 448.92 1.06958 3.44372 0
M  V30 4750 O 448.024 0.181983 4.11998 0
M  V30 4751 H 447.365 0.269626 0.606793 0
M  V30 4752 H 449.895 1.36158 1.52716 0
M  V30 4753 H 449.905 1.02182 3.94997 0
M  V30 4754 H 448.58 2.11378 3.58179 0
M  V30 4755 H 447.157 0.287378 3.71791 0
M  V30 4756 N 449.342 -1.36122 0.79427 0
M  V30 4757 C 450.591 -1.98361 0.365464 0
M  V30 4758 C 450.904 -1.6374 -1.06997 0
M  V30 4759 O 452.11 -2.19251 -1.60129 0
M  V30 4760 C 450.566 -3.54821 0.602496 0
M  V30 4761 C 450.174 -3.98362 2.04967 0
M  V30 4762 C 451.918 -4.2383 0.238437 0
M  V30 4763 C 449.825 -5.47619 2.2331 0
M  V30 4764 H 448.755 -0.742193 0.13291 0
M  V30 4765 H 451.406 -1.55354 0.976589 0
M  V30 4766 H 449.788 -3.95922 -0.078409 0
M  V30 4767 H 450.962 -3.68447 2.76737 0
M  V30 4768 H 449.277 -3.42206 2.37243 0
M  V30 4769 H 451.874 -5.33529 0.353705 0
M  V30 4770 H 452.217 -4.08264 -0.814006 0
M  V30 4771 H 452.75 -3.88108 0.872769 0
M  V30 4772 H 449.489 -5.68138 3.26955 0
M  V30 4773 H 449.009 -5.79145 1.5605 0
M  V30 4774 H 450.688 -6.13911 2.0426 0
M  V30 4775 N 450.82 -0.546701 -1.47814 0
M  V30 4776 C 451.77 0.227042 -2.26867 0
M  V30 4777 C 452.754 0.894844 -1.33721 0
M  V30 4778 O 453.946 0.794887 -1.58147 0
M  V30 4779 C 451.075 1.26299 -3.19223 0
M  V30 4780 C 450.161 0.59913 -4.19847 0
M  V30 4781 N 450.552 -0.324777 -5.04756 0
M  V30 4782 C 448.85 0.854331 -4.37741 0
M  V30 4783 C 449.551 -0.709386 -5.77358 0
M  V30 4784 N 448.527 -0.0666153 -5.43559 0
M  V30 4785 H 452.329 -0.483476 -2.89896 0
M  V30 4786 H 449.843 -0.365893 -1.58224 0
M  V30 4787 H 451.84 1.83116 -3.74532 0
M  V30 4788 H 450.5 1.97471 -2.57751 0
M  V30 4789 H 451.511 -0.698351 -5.1317 0
M  V30 4790 H 448.188 1.55536 -3.87447 0
M  V30 4791 H 449.578 -1.46796 -6.55668 0
M  V30 4792 N 452.299 1.55045 -0.282633 0
M  V30 4793 C 453.524 2.04628 0.337977 0
M  V30 4794 C 453.949 1.15937 1.48123 0
M  V30 4795 O 453.307 0.159532 1.80597 0
M  V30 4796 C 453.355 3.51854 0.78936 0
M  V30 4797 O 452.459 3.66236 1.89592 0
M  V30 4798 H 451.8 0.660434 0.0687261 0
M  V30 4799 H 454.33 2.00261 -0.419124 0
M  V30 4800 H 454.34 3.93361 1.08311 0
M  V30 4801 H 453.015 4.15873 -0.0470419 0
M  V30 4802 H 451.592 3.36633 1.60413 0
M  V30 4803 N 453.777 0.010035 1.57597 0
M  V30 4804 C 455.007 -0.682422 1.95004 0
M  V30 4805 C 455.415 -1.67278 0.884014 0
M  V30 4806 O 454.758 -1.83129 -0.144672 0
M  V30 4807 C 454.82 -1.46141 3.28456 0
M  V30 4808 C 454.484 -0.631523 4.52615 0
M  V30 4809 C 455.481 0.0850905 5.1983 0
M  V30 4810 C 453.166 -0.574539 4.99003 0
M  V30 4811 C 455.16 0.847566 6.3174 0
M  V30 4812 C 452.847 0.191655 6.10799 0
M  V30 4813 C 453.845 0.901432 6.77025 0
M  V30 4814 O 453.533 1.65511 7.86677 0
M  V30 4815 H 453.265 -0.194361 0.647456 0
M  V30 4816 H 455.819 0.060312 2.05311 0
M  V30 4817 H 454.049 -2.24885 3.14585 0
M  V30 4818 H 455.738 -2.04016 3.50902 0
M  V30 4819 H 456.504 0.0502812 4.84974 0
M  V30 4820 H 452.383 -1.11654 4.47274 0
M  V30 4821 H 455.927 1.4021 6.83364 0
M  V30 4822 H 451.824 0.228249 6.45096 0
M  V30 4823 H 452.592 1.57287 8.03245 0
M  V30 4824 N 455.255 -1.55392 -0.262866 0
M  V30 4825 C 456.48 -1.80847 -1.01533 0
M  V30 4826 C 456.905 -0.584946 -1.78774 0
M  V30 4827 O 456.263 0.465701 -1.75217 0
M  V30 4828 C 456.311 -3.03866 -1.94159 0
M  V30 4829 O 455.415 -2.79662 -3.03089 0
M  V30 4830 H 454.756 -0.597441 -0.289759 0
M  V30 4831 H 457.286 -2.02553 -0.288698 0
M  V30 4832 H 457.296 -3.32872 -2.35924 0
M  V30 4833 H 455.971 -3.92564 -1.37354 0
M  V30 4834 H 454.548 -2.61781 -2.65566 0
M  V30 4835 N 456.733 0.527833 -1.48498 0
M  V30 4836 C 457.665 1.6482 -1.5927 0
M  V30 4837 C 458.678 1.55659 -0.476869 0
M  V30 4838 O 459.867 1.62081 -0.747806 0
M  V30 4839 C 456.967 3.0348 -1.50842 0
M  V30 4840 C 456.14 3.381 -2.77502 0
M  V30 4841 C 455.199 4.5605 -2.62497 0
M  V30 4842 O 454.225 4.59165 -3.36387 0
M  V30 4843 N 455.427 5.54353 -1.72257 0
M  V30 4844 H 458.192 1.56015 -2.55889 0
M  V30 4845 H 455.753 0.715152 -1.45249 0
M  V30 4846 H 457.745 3.80264 -1.38496 0
M  V30 4847 H 456.315 3.06352 -0.621887 0
M  V30 4848 H 455.535 2.50473 -3.04396 0
M  V30 4849 H 456.823 3.58017 -3.61527 0
M  V30 4850 H 456.221 5.54617 -1.11431 0
M  V30 4851 H 454.778 6.30347 -1.65849 0
M  V30 4852 N 458.211 1.37122 0.776871 0
M  V30 4853 C 459.141 1.35164 1.90402 0
M  V30 4854 C 460.122 0.221069 1.68657 0
M  V30 4855 O 461.307 0.420642 1.8959 0
M  V30 4856 C 458.437 1.15274 3.27611 0
M  V30 4857 C 457.391 2.25289 3.63908 0
M  V30 4858 C 456.717 1.90527 4.99603 0
M  V30 4859 C 458.017 3.67446 3.71188 0
M  V30 4860 H 459.711 2.29482 1.92297 0
M  V30 4861 H 457.257 1.10465 0.923773 0
M  V30 4862 H 459.21 1.12536 4.06096 0
M  V30 4863 H 457.934 0.174102 3.26136 0
M  V30 4864 H 456.593 2.27174 2.87728 0
M  V30 4865 H 456.241 0.91206 4.94662 0
M  V30 4866 H 455.941 2.64193 5.24858 0
M  V30 4867 H 457.465 1.89367 5.80493 0
M  V30 4868 H 458.879 3.67719 4.39836 0
M  V30 4869 H 457.276 4.40123 4.07936 0
M  V30 4870 H 458.346 4.01443 2.71977 0
M  V30 4871 N 459.689 -1.00246 1.21608 0
M  V30 4872 C 460.619 -2.10921 1.00172 0
M  V30 4873 C 461.6 -1.69938 -0.0741587 0
M  V30 4874 O 462.785 -1.94009 0.0861753 0
M  V30 4875 C 459.915 -3.42618 0.568355 0
M  V30 4876 C 458.869 -3.97407 1.58909 0
M  V30 4877 C 458.195 -5.25038 1.01187 0
M  V30 4878 C 459.495 -4.2918 2.97661 0
M  V30 4879 H 461.189 -2.29112 1.92739 0
M  V30 4880 H 458.735 -1.10101 0.928102 0
M  V30 4881 H 460.688 -4.19444 0.405555 0
M  V30 4882 H 459.412 -3.24227 -0.392961 0
M  V30 4883 H 458.071 -3.22703 1.73949 0
M  V30 4884 H 457.719 -5.02982 0.0421965 0
M  V30 4885 H 457.419 -5.62661 1.6937 0
M  V30 4886 H 458.943 -6.04507 0.860448 0
M  V30 4887 H 460.357 -4.96839 2.86049 0
M  V30 4888 H 458.754 -4.77952 3.6288 0
M  V30 4889 H 459.824 -3.3735 3.48315 0
M  V30 4890 N 461.167 -1.02423 -1.1978 0
M  V30 4891 C 462.1 -0.545641 -2.21581 0
M  V30 4892 C 463.078 0.411024 -1.57319 0
M  V30 4893 O 464.262 0.329223 -1.85603 0
M  V30 4894 C 461.389 0.204973 -3.38079 0
M  V30 4895 C 460.435 -0.70241 -4.20676 0
M  V30 4896 S 461.268 -2.17595 -4.89298 0
M  V30 4897 C 462.424 -1.43572 -6.09211 0
M  V30 4898 H 462.657 -1.4082 -2.61834 0
M  V30 4899 H 460.19 -0.833771 -1.29952 0
M  V30 4900 H 462.148 0.631924 -4.05607 0
M  V30 4901 H 460.809 1.0432 -2.9627 0
M  V30 4902 H 460.002 -0.123193 -5.03849 0
M  V30 4903 H 459.604 -1.06747 -3.58442 0
M  V30 4904 H 461.896 -0.719806 -6.73665 0
M  V30 4905 H 462.839 -2.24388 -6.71607 0
M  V30 4906 H 463.247 -0.935252 -5.56699 0
M  V30 4907 N 462.645 1.35699 -0.801477 0
M  V30 4908 C 463.875 2.02862 -0.3912 0
M  V30 4909 C 464.283 1.60552 1.00099 0
M  V30 4910 O 463.626 0.796215 1.65548 0
M  V30 4911 C 463.688 3.57386 -0.389299 0
M  V30 4912 C 463.352 4.22943 -1.73113 0
M  V30 4913 C 464.349 4.44984 -2.68859 0
M  V30 4914 C 462.034 4.60167 -2.01373 0
M  V30 4915 C 464.028 5.03345 -3.91053 0
M  V30 4916 C 461.715 5.18243 -3.23832 0
M  V30 4917 C 462.713 5.39773 -4.1849 0
M  V30 4918 O 462.401 5.96626 -5.38788 0
M  V30 4919 H 462.133 0.657341 -0.157732 0
M  V30 4920 H 464.687 1.74407 -1.08496 0
M  V30 4921 H 462.917 3.85011 0.361031 0
M  V30 4922 H 464.606 4.059 -0.0020365 0
M  V30 4923 H 465.372 4.1661 -2.48316 0
M  V30 4924 H 461.251 4.42726 -1.28508 0
M  V30 4925 H 464.795 5.20065 -4.64949 0
M  V30 4926 H 460.692 5.46044 -3.44248 0
M  V30 4927 H 461.46 6.15082 -5.40015 0
M  V30 4928 N 464.123 0.554532 1.47522 0
M  V30 4929 C 465.534 0.120446 1.86311 0
M  V30 4930 C 465.885 -1.30904 1.46145 0
M  V30 4931 O 465.01 -1.98434 0.863294 0
M  V30 4932 C 465.605 0.211808 3.38137 0
M  V30 4933 C 464.164 -0.167224 3.76028 0
M  V30 4934 C 463.311 0.560576 2.71575 0
M  V30 4935 H 466.262 0.764408 1.39077 0
M  V30 4936 H 466.283 -0.570275 3.76202 0
M  V30 4937 H 465.795 1.25232 3.6734 0
M  V30 4938 H 463.896 -1.20894 3.52442 0
M  V30 4939 H 464.009 0.189473 4.78725 0
M  V30 4940 H 462.373 0.00396836 2.547 0
M  V30 4941 H 463.156 1.60219 3.0362 0
M  V30 4942 N 465.601 -1.54893 0.290851 0
M  V30 4943 C 466.831 -2.04047 -0.323818 0
M  V30 4944 C 467.239 -1.16809 -1.48837 0
M  V30 4945 O 466.582 -0.184145 -1.82775 0
M  V30 4946 C 466.644 -3.49248 -0.852395 0
M  V30 4947 C 466.308 -4.56623 0.185557 0
M  V30 4948 C 467.305 -5.09985 1.01053 0
M  V30 4949 C 464.99 -5.01252 0.324332 0
M  V30 4950 C 466.984 -6.06507 1.96031 0
M  V30 4951 C 464.671 -5.97596 1.27757 0
M  V30 4952 C 465.669 -6.50107 2.09405 0
M  V30 4953 O 465.357 -7.44565 3.03114 0
M  V30 4954 H 465.089 -0.671735 -0.0758129 0
M  V30 4955 H 467.643 -2.00947 0.425393 0
M  V30 4956 H 465.873 -3.49639 -1.65195 0
M  V30 4957 H 467.562 -3.81654 -1.38185 0
M  V30 4958 H 468.328 -4.76307 0.914129 0
M  V30 4959 H 464.207 -4.60015 -0.301213 0
M  V30 4960 H 467.751 -6.47418 2.598 0
M  V30 4961 H 463.648 -6.30691 1.37473 0
M  V30 4962 H 464.416 -7.62334 2.97976 0
M  V30 4963 N 467.08 -0.0183926 -1.57589 0
M  V30 4964 C 468.328 0.661253 -1.90976 0
M  V30 4965 C 468.649 1.73281 -0.894353 0
M  V30 4966 O 467.919 1.9579 0.0656788 0
M  V30 4967 H 466.499 0.247233 -0.704901 0
M  V30 4968 H 469.161 -0.0636639 -1.94796 0
M  V30 4969 H 468.257 1.12083 -2.9128 0
M  V30 4970 N 468.558 1.5553 0.254621 0
M  V30 4971 C 469.788 1.80784 1.00004 0
M  V30 4972 C 470.196 0.59071 1.79742 0
M  V30 4973 O 469.539 -0.449988 1.78103 0
M  V30 4974 C 469.601 2.99268 1.99196 0
M  V30 4975 C 469.265 4.35595 1.38224 0
M  V30 4976 C 470.262 5.13884 0.788611 0
M  V30 4977 C 467.947 4.82281 1.40393 0
M  V30 4978 C 469.941 6.37004 0.224783 0
M  V30 4979 C 467.628 6.05351 0.836243 0
M  V30 4980 C 468.626 6.82551 0.24769 0
M  V30 4981 O 468.314 8.03297 -0.311249 0
M  V30 4982 H 468.046 0.60565 0.300274 0
M  V30 4983 H 470.6 2.03411 0.285143 0
M  V30 4984 H 468.83 2.72377 2.74496 0
M  V30 4985 H 470.519 3.11682 2.60018 0
M  V30 4986 H 471.285 4.78938 0.764423 0
M  V30 4987 H 467.164 4.22189 1.85142 0
M  V30 4988 H 470.708 6.97203 -0.235235 0
M  V30 4989 H 466.605 6.39776 0.857733 0
M  V30 4990 H 467.373 8.1825 -0.20237 0
M  V30 4991 N 470.036 -0.519951 1.48776 0
M  V30 4992 C 470.983 -1.62352 1.64044 0
M  V30 4993 C 471.953 -1.58945 0.482251 0
M  V30 4994 O 473.138 -1.77219 0.706971 0
M  V30 4995 C 470.278 -3.00579 1.69547 0
M  V30 4996 C 469.391 -3.14145 2.96541 0
M  V30 4997 C 468.526 -4.42991 2.93142 0
M  V30 4998 C 467.565 -4.50122 4.14797 0
M  V30 4999 N 466.702 -5.7037 4.09418 0
M  V30 5000 H 471.542 -1.48643 2.58281 0
M  V30 5001 H 469.079 -0.723516 1.28077 0
M  V30 5002 H 471.037 -3.80671 1.70719 0
M  V30 5003 H 469.667 -3.13036 0.787918 0
M  V30 5004 H 468.719 -2.27239 3.05068 0
M  V30 5005 H 470.031 -3.15275 3.86527 0
M  V30 5006 H 469.185 -5.31385 2.92772 0
M  V30 5007 H 467.924 -4.44398 2.00902 0
M  V30 5008 H 466.929 -3.60133 4.15433 0
M  V30 5009 H 468.154 -4.50445 5.08208 0
M  V30 5010 H 466.1 -5.72655 3.20004 0
M  V30 5011 H 466.017 -5.73036 4.93119 0
M  V30 5012 H 467.285 -6.61023 4.13121 0
M  V30 5013 N 471.514 -1.37532 -0.769588 0
M  V30 5014 C 472.742 -1.36059 -1.55871 0
M  V30 5015 C 473.157 0.053544 -1.88724 0
M  V30 5016 O 472.514 1.01591 -1.5161 0
M  V30 5017 C 472.565 -2.20107 -2.86767 0
M  V30 5018 O 472.286 -3.56009 -2.55321 0
M  V30 5019 C 473.787 -2.26636 -3.80987 0
M  V30 5020 H 471.007 -0.465967 -0.482821 0
M  V30 5021 H 473.551 -1.80901 -0.953686 0
M  V30 5022 H 471.706 -1.78768 -3.43687 0
M  V30 5023 H 472.12 -4.0009 -3.39158 0
M  V30 5024 H 473.594 -2.89763 -4.69831 0
M  V30 5025 H 474.071 -1.2754 -4.20274 0
M  V30 5026 H 474.677 -2.68296 -3.29996 0
M  V30 5027 N 472.992 0.995999 -1.22138 0
M  V30 5028 C 473.902 2.11985 -1.00496 0
M  V30 5029 C 474.918 1.7394 0.0457701 0
M  V30 5030 O 476.094 2.00868 -0.146273 0
M  V30 5031 C 473.159 3.41779 -0.582086 0
M  V30 5032 C 472.22 3.93943 -1.70608 0
M  V30 5033 C 471.453 5.17542 -1.30328 0
M  V30 5034 O 471.676 5.70114 -0.180743 0
M  V30 5035 O 470.61 5.63382 -2.11861 0
M  V30 5036 H 474.436 2.33123 -1.94647 0
M  V30 5037 H 472.021 1.10358 -1.00705 0
M  V30 5038 H 473.903 4.1989 -0.356467 0
M  V30 5039 H 472.578 3.22007 0.330592 0
M  V30 5040 H 471.485 3.17019 -1.98619 0
M  V30 5041 H 472.818 4.18141 -2.59651 0
M  V30 5042 N 474.47 1.03057 1.19235 0
M  V30 5043 C 475.881 0.757449 1.70645 0
M  V30 5044 C 476.232 -0.722735 1.82403 0
M  V30 5045 O 475.357 -1.56325 1.49638 0
M  V30 5046 C 475.952 1.36833 3.09939 0
M  V30 5047 C 474.511 1.14375 3.58602 0
M  V30 5048 C 473.658 1.46533 2.35422 0
M  V30 5049 H 476.609 1.19828 1.04052 0
M  V30 5050 H 476.63 0.766184 3.72706 0
M  V30 5051 H 476.142 2.44562 3.01349 0
M  V30 5052 H 474.243 0.0847542 3.72504 0
M  V30 5053 H 474.356 1.83366 4.42622 0
M  V30 5054 H 472.72 0.884712 2.38841 0
M  V30 5055 H 473.503 2.55349 2.2946 0
M  V30 5056 N 475.948 -1.35272 0.808662 0
M  V30 5057 C 477.194 -1.99003 0.390581 0
M  V30 5058 C 477.527 -1.63999 -1.0401 0
M  V30 5059 O 476.802 -0.904368 -1.72196 0
M  V30 5060 C 477.085 -3.55454 0.576566 0
M  V30 5061 C 476.938 -4.00249 2.05233 0
M  V30 5062 C 478.257 -4.401 0.00354277 0
M  V30 5063 H 475.376 -0.722917 0.143388 0
M  V30 5064 H 478.018 -1.6039 1.01858 0
M  V30 5065 H 476.168 -3.88477 0.0419766 0
M  V30 5066 H 477.84 -3.77626 2.64946 0
M  V30 5067 H 476.083 -3.51082 2.54801 0
M  V30 5068 H 476.754 -5.0911 2.13333 0
M  V30 5069 H 479.23 -4.13548 0.460117 0
M  V30 5070 H 478.106 -5.48656 0.163575 0
M  V30 5071 H 478.367 -4.28444 -1.09032 0
M  V30 5072 N 477.426 -0.562348 -1.47226 0
M  V30 5073 C 478.837 -0.130325 -1.86245 0
M  V30 5074 C 479.188 1.30128 -1.46838 0
M  V30 5075 O 478.313 1.97974 -0.873805 0
M  V30 5076 C 478.908 -0.229738 -3.3802 0
M  V30 5077 C 477.467 0.14728 -3.76112 0
M  V30 5078 C 476.614 -0.574971 -2.71274 0
M  V30 5079 H 479.565 -0.771773 -1.3867 0
M  V30 5080 H 479.586 0.550316 -3.76499 0
M  V30 5081 H 479.098 -1.27178 -3.66671 0
M  V30 5082 H 477.199 1.19023 -3.53078 0
M  V30 5083 H 477.312 -0.214858 -4.78618 0
M  V30 5084 H 475.676 -0.0174756 -2.54694 0
M  V30 5085 H 476.459 -1.61827 -3.02766 0
M  V30 5086 N 478.904 1.54736 -0.299062 0
M  V30 5087 C 480.181 1.92187 0.363802 0
M  V30 5088 C 480.561 1.22607 1.71845 0
M  V30 5089 O 479.909 0.361141 2.25628 0
M  V30 5090 C 480.119 3.45678 0.480377 0
M  V30 5091 C 481.467 4.17885 0.752147 0
M  V30 5092 O 482.491 3.51702 0.564264 0
M  V30 5093 O 481.35 5.35048 1.11294 0
M  V30 5094 H 478.444 0.801681 0.203066 0
M  V30 5095 H 480.99 1.66115 -0.346978 0
M  V30 5096 H 479.762 3.88443 -0.471999 0
M  V30 5097 H 479.385 3.77779 1.2397 0
M  V30 5098 N 480.382 0.0267497 1.57577 0
M  V30 5099 C 481.314 -0.984594 2.06974 0
M  V30 5100 C 482.327 -1.29032 0.992705 0
M  V30 5101 O 483.516 -1.25539 1.26895 0
M  V30 5102 C 480.616 -2.31262 2.47732 0
M  V30 5103 C 479.789 -2.1924 3.78487 0
M  V30 5104 C 478.848 -3.34956 4.05821 0
M  V30 5105 O 477.874 -3.11948 4.76106 0
M  V30 5106 N 479.076 -4.58672 3.55809 0
M  V30 5107 H 481.841 -0.563143 2.94362 0
M  V30 5108 H 479.402 -0.160061 1.61107 0
M  V30 5109 H 481.394 -3.07496 2.63112 0
M  V30 5110 H 479.964 -2.65056 1.65723 0
M  V30 5111 H 479.184 -1.27747 3.72927 0
M  V30 5112 H 480.472 -2.08409 4.64158 0
M  V30 5113 H 479.87 -4.8026 2.98942 0
M  V30 5114 H 478.427 -5.32083 3.76472 0
M  V30 5115 N 481.861 -1.55662 -0.24637 0
M  V30 5116 C 483.138 -1.68272 -0.997198 0
M  V30 5117 C 483.518 -0.566785 -2.03349 0
M  V30 5118 O 482.866 0.429688 -2.24424 0
M  V30 5119 C 483.076 -3.08594 -1.63006 0
M  V30 5120 C 484.424 -3.6721 -2.13171 0
M  V30 5121 O 485.448 -3.11397 -1.72946 0
M  V30 5122 O 484.307 -4.65054 -2.87031 0
M  V30 5123 H 481.401 -0.684429 -0.464205 0
M  V30 5124 H 483.947 -1.67993 -0.240114 0
M  V30 5125 H 482.719 -3.81264 -0.880527 0
M  V30 5126 H 482.342 -3.12886 -2.45333 0
M  V30 5127 N 483.339 0.512053 -1.4905 0
M  V30 5128 C 484.249 1.64139 -1.67617 0
M  V30 5129 C 485.265 1.64786 -0.558701 0
M  V30 5130 O 486.441 1.8341 -0.832034 0
M  V30 5131 C 483.506 3.00548 -1.72835 0
M  V30 5132 C 482.567 3.10615 -2.96339 0
M  V30 5133 C 481.8 4.40517 -3.01298 0
M  V30 5134 O 482.023 5.28671 -2.14157 0
M  V30 5135 O 480.957 4.55325 -3.93653 0
M  V30 5136 H 484.783 1.51407 -2.63267 0
M  V30 5137 H 482.368 0.687131 -1.32661 0
M  V30 5138 H 484.25 3.81641 -1.78683 0
M  V30 5139 H 482.925 3.13566 -0.803616 0
M  V30 5140 H 481.832 2.2875 -2.96014 0
M  V30 5141 H 483.165 3.0252 -3.88256 0
M  V30 5142 N 484.817 1.37938 0.762283 0
M  V30 5143 C 485.747 1.37176 1.88958 0
M  V30 5144 C 486.728 0.238945 1.68413 0
M  V30 5145 O 487.913 0.440726 1.89133 0
M  V30 5146 C 485.043 1.18742 3.2637 0
M  V30 5147 C 483.997 2.29136 3.61498 0
M  V30 5148 C 483.323 1.95816 4.97554 0
M  V30 5149 C 484.623 3.71363 3.6727 0
M  V30 5150 H 486.317 2.31509 1.89853 0
M  V30 5151 H 483.863 1.11438 0.912005 0
M  V30 5152 H 485.816 1.16837 4.04879 0
M  V30 5153 H 484.54 0.208683 3.25933 0
M  V30 5154 H 483.199 2.30213 2.85303 0
M  V30 5155 H 482.847 0.964475 4.93667 0
M  V30 5156 H 482.547 2.69745 5.22026 0
M  V30 5157 H 484.071 1.95513 5.78452 0
M  V30 5158 H 485.485 3.72364 4.35911 0
M  V30 5159 H 483.882 4.44425 4.03245 0
M  V30 5160 H 484.952 4.04305 2.67704 0
M  V30 5161 N 486.295 -0.989507 1.22664 0
M  V30 5162 C 487.572 -1.70326 0.961688 0
M  V30 5163 C 487.952 -2.04537 -0.522279 0
M  V30 5164 O 487.3 -1.73136 -1.49118 0
M  V30 5165 C 487.51 -2.95135 1.86269 0
M  V30 5166 C 488.858 -3.67842 2.12078 0
M  V30 5167 O 489.882 -3.0515 1.83745 0
M  V30 5168 O 488.741 -4.80644 2.60083 0
M  V30 5169 H 485.835 -0.743589 0.361946 0
M  V30 5170 H 488.381 -1.04555 1.33665 0
M  V30 5171 H 487.153 -2.66382 2.8663 0
M  V30 5172 H 486.776 -3.68645 1.48952 0
M  V30 5173 N 487.773 -1.03688 -1.18687 0
M  V30 5174 C 488.705 -0.582696 -2.21669 0
M  V30 5175 C 489.718 0.345656 -1.59088 0
M  V30 5176 O 490.907 0.140776 -1.77944 0
M  V30 5177 C 488.007 0.169204 -3.38477 0
M  V30 5178 C 487.18 -0.766079 -4.30639 0
M  V30 5179 C 486.239 -0.0581541 -5.26168 0
M  V30 5180 O 485.265 -0.687346 -5.65035 0
M  V30 5181 N 486.467 1.20981 -5.67753 0
M  V30 5182 H 489.232 -1.46843 -2.61261 0
M  V30 5183 H 486.793 -0.916896 -1.33434 0
M  V30 5184 H 488.785 0.652543 -3.99405 0
M  V30 5185 H 487.355 0.956435 -2.97609 0
M  V30 5186 H 486.575 -1.42935 -3.67373 0
M  V30 5187 H 487.863 -1.40146 -4.89118 0
M  V30 5188 H 487.261 1.74159 -5.38224 0
M  V30 5189 H 485.818 1.6375 -6.30896 0
M  V30 5190 N 489.251 1.34841 -0.815825 0
M  V30 5191 C 490.181 2.32187 -0.247298 0
M  V30 5192 C 491.162 1.5791 0.632344 0
M  V30 5193 O 492.347 1.8593 0.560698 0
M  V30 5194 C 489.477 3.42122 0.597466 0
M  V30 5195 C 488.431 4.27602 -0.184446 0
M  V30 5196 C 487.757 5.28942 0.782609 0
M  V30 5197 C 489.057 5.03502 -1.38865 0
M  V30 5198 H 490.751 2.79985 -1.06061 0
M  V30 5199 H 488.297 1.34611 -0.511461 0
M  V30 5200 H 490.25 4.09232 1.00533 0
M  V30 5201 H 488.974 2.92956 1.44376 0
M  V30 5202 H 487.633 3.62085 -0.573592 0
M  V30 5203 H 487.281 4.7604 1.62466 0
M  V30 5204 H 486.981 5.87008 0.263695 0
M  V30 5205 H 488.505 5.98922 1.18848 0
M  V30 5206 H 489.919 5.63506 -1.05518 0
M  V30 5207 H 488.316 5.71108 -1.8427 0
M  V30 5208 H 489.386 4.33608 -2.17054 0
M  V30 5209 N 490.729 0.570148 1.46925 0
M  V30 5210 C 491.954 0.0542592 2.07329 0
M  V30 5211 C 492.379 -1.23582 1.41806 0
M  V30 5212 O 491.737 -1.74341 0.497479 0
M  V30 5213 C 491.785 -0.111175 3.60429 0
M  V30 5214 O 490.889 -1.17071 3.95434 0
M  V30 5215 H 490.23 0.0571425 0.661537 0
M  V30 5216 H 492.76 0.789516 1.88753 0
M  V30 5217 H 492.77 -0.321315 4.06733 0
M  V30 5218 H 491.445 0.831012 4.07513 0
M  V30 5219 H 490.022 -0.940029 3.60857 0
M  V30 5220 N 492.207 -1.54576 0.307264 0
M  V30 5221 C 493.154 -2.23751 -0.56604 0
M  V30 5222 C 494.124 -1.22235 -1.12462 0
M  V30 5223 O 495.309 -1.50873 -1.16799 0
M  V30 5224 C 492.449 -2.98661 -1.72903 0
M  V30 5225 C 491.562 -4.14963 -1.20124 0
M  V30 5226 C 490.697 -4.77441 -2.3286 0
M  V30 5227 C 489.736 -5.85875 -1.77247 0
M  V30 5228 N 488.873 -6.42282 -2.8358 0
M  V30 5229 H 493.713 -2.97984 0.0304578 0
M  V30 5230 H 491.25 -1.47076 0.0268015 0
M  V30 5231 H 493.208 -3.40329 -2.41313 0
M  V30 5232 H 491.838 -2.26793 -2.29706 0
M  V30 5233 H 490.89 -3.78193 -0.409198 0
M  V30 5234 H 492.202 -4.93066 -0.754171 0
M  V30 5235 H 491.356 -5.21993 -3.09205 0
M  V30 5236 H 490.095 -3.98684 -2.80896 0
M  V30 5237 H 489.1 -5.40741 -0.993926 0
M  V30 5238 H 490.325 -6.6652 -1.30107 0
M  V30 5239 H 488.271 -5.66406 -3.30939 0
M  V30 5240 H 488.188 -7.1575 -2.43388 0
M  V30 5241 H 489.456 -6.91492 -3.59804 0
M  V30 5242 N 493.685 -0.035106 -1.57561 0
M  V30 5243 C 494.648 0.929819 -2.09492 0
M  V30 5244 C 495.648 1.25026 -1.01119 0
M  V30 5245 O 496.838 1.18961 -1.27255 0
M  V30 5246 C 493.97 2.24457 -2.56577 0
M  V30 5247 H 495.163 0.479935 -2.96035 0
M  V30 5248 H 492.716 0.213033 -1.54841 0
M  V30 5249 H 493.451 2.74061 -1.73382 0
M  V30 5250 H 493.236 2.02508 -3.35757 0
M  V30 5251 H 494.726 2.93607 -2.96959 0
M  V30 5252 N 495.163 1.55791 0.238111 0
M  V30 5253 C 496.126 1.90239 1.27835 0
M  V30 5254 C 497.126 0.779552 1.4064 0
M  V30 5255 O 498.316 1.04747 1.3919 0
M  V30 5256 C 495.448 2.13859 2.65475 0
M  V30 5257 H 496.641 2.83262 0.985034 0
M  V30 5258 H 494.194 1.48818 0.477799 0
M  V30 5259 H 494.929 1.23334 2.99932 0
M  V30 5260 H 494.714 2.95643 2.57561 0
M  V30 5261 H 496.204 2.41664 3.40571 0
M  V30 5262 N 496.642 -0.504142 1.49319 0
M  V30 5263 C 497.888 -1.26033 1.58882 0
M  V30 5264 C 498.221 -1.92268 0.273274 0
M  V30 5265 O 497.496 -1.80567 -0.72291 0
M  V30 5266 C 497.779 -2.32976 2.7458 0
M  V30 5267 C 497.632 -1.71263 4.1592 0
M  V30 5268 C 498.951 -3.34561 2.85932 0
M  V30 5269 H 496.07 -0.456863 0.578312 0
M  V30 5270 H 498.712 -0.558965 1.81592 0
M  V30 5271 H 496.862 -2.92796 2.55348 0
M  V30 5272 H 498.534 -1.15294 4.4666 0
M  V30 5273 H 496.777 -1.01686 4.21714 0
M  V30 5274 H 497.448 -2.48816 4.92742 0
M  V30 5275 H 499.924 -2.84727 3.0343 0
M  V30 5276 H 498.8 -4.06754 3.68568 0
M  V30 5277 H 499.061 -3.96695 1.95154 0
M  V30 5278 N 498.12 -1.38341 -0.754957 0
M  V30 5279 C 499.348 -1.37704 -1.54419 0
M  V30 5280 C 499.763 0.0335243 -1.8877 0
M  V30 5281 O 499.12 0.999773 -1.52679 0
M  V30 5282 C 499.171 -2.23136 -2.84416 0
M  V30 5283 O 498.892 -3.58697 -2.51531 0
M  V30 5284 C 500.393 -2.30664 -3.78562 0
M  V30 5285 H 497.613 -0.471061 -0.477852 0
M  V30 5286 H 500.157 -1.81902 -0.934446 0
M  V30 5287 H 498.312 -1.82403 -3.41772 0
M  V30 5288 H 498.726 -4.03665 -3.34896 0
M  V30 5289 H 500.2 -2.9473 -4.66732 0
M  V30 5290 H 500.677 -1.3199 -4.18898 0
M  V30 5291 H 501.283 -2.71781 -3.27131 0
M  V30 5292 N 499.598 0.982988 -1.23187 0
M  V30 5293 C 500.561 2.05649 -1.01198 0
M  V30 5294 C 501.561 1.6078 0.0252464 0
M  V30 5295 O 502.751 1.72878 -0.214243 0
M  V30 5296 C 499.883 3.36744 -0.530656 0
M  V30 5297 H 501.076 2.2659 -1.96461 0
M  V30 5298 H 498.629 1.15602 -1.05195 0
M  V30 5299 H 499.364 3.21492 0.425873 0
M  V30 5300 H 499.149 3.7065 -1.2791 0
M  V30 5301 H 500.639 4.15705 -0.397366 0
M  V30 5302 N 501.076 1.04316 1.18135 0
M  V30 5303 C 502.006 0.657299 2.24058 0
M  V30 5304 C 502.987 -0.340678 1.66654 0
M  V30 5305 O 504.172 -0.220223 1.92947 0
M  V30 5306 C 501.302 0.0220715 3.47293 0
M  V30 5307 C 500.256 0.943857 4.17463 0
M  V30 5308 C 499.582 0.172973 5.3442 0
M  V30 5309 C 500.882 2.26409 4.70677 0
M  V30 5310 H 502.576 1.5428 2.56589 0
M  V30 5311 H 500.122 0.743263 1.23335 0
M  V30 5312 H 502.075 -0.259607 4.206 0
M  V30 5313 H 500.799 -0.898323 3.14003 0
M  V30 5314 H 499.458 1.20996 3.46057 0
M  V30 5315 H 499.106 -0.749907 4.97379 0
M  V30 5316 H 498.806 0.787098 5.82304 0
M  V30 5317 H 500.33 -0.101628 6.10515 0
M  V30 5318 H 501.744 2.04294 5.35665 0
M  V30 5319 H 500.141 2.8314 5.29105 0
M  V30 5320 H 501.211 2.90883 3.87962 0
M  V30 5321 N 502.554 -1.34406 0.822964 0
M  V30 5322 C 503.517 -2.2783 0.250271 0
M  V30 5323 C 504.517 -1.50288 -0.571854 0
M  V30 5324 O 505.707 -1.69825 -0.387952 0
M  V30 5325 C 502.839 -3.34663 -0.649137 0
M  V30 5326 H 504.032 -2.79992 1.07444 0
M  V30 5327 H 501.585 -1.44539 0.594829 0
M  V30 5328 H 502.32 -2.87714 -1.49637 0
M  V30 5329 H 502.105 -3.92052 -0.0611199 0
M  V30 5330 H 503.595 -4.04349 -1.04363 0
M  V30 5331 N 504.032 -0.577932 -1.46621 0
M  V30 5332 C 505.257 -0.0652536 -2.07297 0
M  V30 5333 C 505.682 1.22828 -1.4246 0
M  V30 5334 O 505.04 1.74075 -0.506718 0
M  V30 5335 C 505.088 0.0920589 -3.60482 0
M  V30 5336 O 504.192 1.14972 -3.96049 0
M  V30 5337 H 503.533 -0.06065 -0.661224 0
M  V30 5338 H 506.063 -0.799515 -1.88332 0
M  V30 5339 H 506.073 0.299741 -4.06897 0
M  V30 5340 H 504.748 -0.852612 -4.07067 0
M  V30 5341 H 503.325 0.920879 -3.61351 0
M  V30 5342 N 505.51 1.54411 -0.315457 0
M  V30 5343 C 506.44 2.27002 0.547039 0
M  V30 5344 C 507.421 1.27492 1.12605 0
M  V30 5345 O 508.606 1.5629 1.15269 0
M  V30 5346 C 505.736 3.02171 1.71201 0
M  V30 5347 C 504.69 4.0895 1.26268 0
M  V30 5348 C 504.016 4.71915 2.51396 0
M  V30 5349 C 505.316 5.20891 0.383419 0
M  V30 5350 H 507.01 2.99343 -0.0584517 0
M  V30 5351 H 504.556 1.4397 -0.0295527 0
M  V30 5352 H 506.509 3.51681 2.32161 0
M  V30 5353 H 505.233 2.27433 2.34397 0
M  V30 5354 H 503.892 3.60312 0.676062 0
M  V30 5355 H 503.54 3.93801 3.12937 0
M  V30 5356 H 503.24 5.44039 2.22026 0
M  V30 5357 H 504.764 5.24195 3.13133 0
M  V30 5358 H 506.178 5.66206 0.899082 0
M  V30 5359 H 504.575 5.99821 0.182857 0
M  V30 5360 H 505.645 4.81324 -0.587821 0
M  V30 5361 N 506.988 0.0434614 1.5754 0
M  V30 5362 C 508.218 -0.640905 1.96408 0
M  V30 5363 C 508.626 -1.65365 0.919297 0
M  V30 5364 O 507.969 -1.83395 -0.105795 0
M  V30 5365 C 508.031 -1.39141 3.31482 0
M  V30 5366 C 507.695 -0.535375 4.53853 0
M  V30 5367 C 508.692 0.195335 5.19533 0
M  V30 5368 C 506.377 -0.468564 5.0011 0
M  V30 5369 C 508.371 0.981377 6.298 0
M  V30 5370 C 506.058 0.321171 6.10255 0
M  V30 5371 C 507.056 1.04484 6.74961 0
M  V30 5372 O 506.744 1.8216 7.8299 0
M  V30 5373 H 506.476 -0.180584 0.651433 0
M  V30 5374 H 509.03 0.103848 2.05137 0
M  V30 5375 H 507.26 -2.18162 3.19284 0
M  V30 5376 H 508.949 -1.96526 3.55151 0
M  V30 5377 H 509.715 0.15314 4.84758 0
M  V30 5378 H 505.594 -1.02142 4.49542 0
M  V30 5379 H 509.138 1.54674 6.80237 0
M  V30 5380 H 505.035 0.365032 6.44467 0
M  V30 5381 H 505.803 1.74289 7.99728 0
M  V30 5382 N 508.466 -1.55915 -0.229846 0
M  V30 5383 C 509.714 -1.7819 -0.953565 0
M  V30 5384 C 510.035 -0.610504 -1.85197 0
M  V30 5385 O 509.305 0.372988 -1.92316 0
M  V30 5386 H 507.885 -0.657208 -0.355087 0
M  V30 5387 H 510.547 -1.9337 -0.243693 0
M  V30 5388 H 509.643 -2.70011 -1.56527 0
M  V30 5389 N 509.944 0.496216 -1.49584 0
M  V30 5390 C 511.172 1.27394 -1.63029 0
M  V30 5391 C 511.587 1.86344 -0.303569 0
M  V30 5392 O 510.944 1.68057 0.711547 0
M  V30 5393 C 510.995 2.40077 -2.70269 0
M  V30 5394 O 510.716 1.83549 -3.97796 0
M  V30 5395 C 512.217 3.31372 -2.94462 0
M  V30 5396 H 509.437 0.386211 -0.54871 0
M  V30 5397 H 511.981 0.595163 -1.95648 0
M  V30 5398 H 510.136 3.03775 -2.40415 0
M  V30 5399 H 510.55 2.57561 -4.56905 0
M  V30 5400 H 512.024 4.06707 -3.73221 0
M  V30 5401 H 512.501 3.88654 -2.0456 0
M  V30 5402 H 513.107 2.73435 -3.25751 0
M  V30 5403 N 511.423 1.38739 0.74761 0
M  V30 5404 C 512.37 1.36449 1.86146 0
M  V30 5405 C 513.34 0.226098 1.64554 0
M  V30 5406 O 514.525 0.41926 1.86137 0
M  V30 5407 C 511.665 1.2013 3.23516 0
M  V30 5408 C 510.778 2.43407 3.56899 0
M  V30 5409 C 509.913 2.19773 4.83605 0
M  V30 5410 C 508.952 3.3879 5.09792 0
M  V30 5411 N 508.089 3.14553 6.27695 0
M  V30 5412 H 512.929 2.3167 1.87438 0
M  V30 5413 H 510.466 1.15094 0.916063 0
M  V30 5414 H 512.424 1.08683 4.02795 0
M  V30 5415 H 511.054 0.285453 3.21535 0
M  V30 5416 H 510.106 2.65504 2.72418 0
M  V30 5417 H 511.418 3.32094 3.72176 0
M  V30 5418 H 510.572 2.05496 5.70838 0
M  V30 5419 H 509.311 1.28461 4.70478 0
M  V30 5420 H 508.316 3.53579 4.21025 0
M  V30 5421 H 509.541 4.30986 5.24812 0
M  V30 5422 H 507.487 2.25893 6.1588 0
M  V30 5423 H 507.404 3.96791 6.435 0
M  V30 5424 H 508.672 3.03943 7.17801 0
M  V30 5425 N 512.901 -0.976442 1.23707 0
M  V30 5426 C 514.148 -1.71827 1.07153 0
M  V30 5427 C 514.476 -1.9053 -0.390982 0
M  V30 5428 O 513.731 -1.45779 -1.30564 0
M  V30 5429 C 514.03 -3.11814 1.74662 0
M  V30 5430 C 513.696 -3.12978 3.24585 0
M  V30 5431 C 512.358 -3.13003 3.6549 0
M  V30 5432 C 514.71 -3.07986 4.20469 0
M  V30 5433 C 512.038 -3.05757 5.00729 0
M  V30 5434 C 514.39 -3.02282 5.55705 0
M  V30 5435 C 513.054 -3.00631 5.95968 0
M  V30 5436 H 512.324 -0.628758 0.392102 0
M  V30 5437 H 514.971 -1.14239 1.53693 0
M  V30 5438 H 513.276 -3.72812 1.20492 0
M  V30 5439 H 514.973 -3.67989 1.59328 0
M  V30 5440 H 511.563 -3.13718 2.92026 0
M  V30 5441 H 515.747 -3.07103 3.89874 0
M  V30 5442 H 511.003 -3.02834 5.31132 0
M  V30 5443 H 515.177 -2.97376 6.29714 0
M  V30 5444 H 512.804 -2.94771 7.00724 0
M  V30 5445 N 514.379 -1.04941 -1.1758 0
M  V30 5446 C 515.327 -0.64204 -2.23563 0
M  V30 5447 C 516.321 0.335453 -1.66045 0
M  V30 5448 O 517.527 0.20179 -1.78865 0
M  V30 5449 H 513.902 -0.18944 -0.727748 0
M  V30 5450 H 515.873 -1.54609 -2.55223 0
M  V30 5451 C 514.622 -0.0301051 -3.47687 0
M  V30 5452 H 513.945 -0.773339 -3.92249 0
M  V30 5453 H 515.385 0.217592 -4.23441 0
M  V30 5454 C 513.844 1.2225 -3.13937 0
M  V30 5455 O 514.374 2.3122 -3.28482 0
M  V30 5456 N 512.58 1.11917 -2.68185 0
M  V30 5457 H 512.127 0.232403 -2.5655 0
M  V30 5458 H 512.085 1.95814 -2.45976 0
M  V30 5459 N 515.857 1.33968 -0.830081 0
M  V30 5460 C 517.087 2.01987 -0.434142 0
M  V30 5461 C 517.495 1.62639 0.96671 0
M  V30 5462 O 516.838 0.831151 1.63822 0
M  V30 5463 C 516.9 3.5648 -0.465018 0
M  V30 5464 C 516.564 4.19176 -1.82045 0
M  V30 5465 C 517.561 4.39181 -2.78237 0
M  V30 5466 C 515.246 4.55792 -2.11089 0
M  V30 5467 C 517.24 4.94937 -4.01642 0
M  V30 5468 C 514.927 5.11258 -3.34752 0
M  V30 5469 C 515.925 5.30775 -4.29845 0
M  V30 5470 O 515.613 5.85064 -5.51322 0
M  V30 5471 H 515.345 0.653847 -0.171639 0
M  V30 5472 H 517.899 1.72066 -1.12171 0
M  V30 5473 H 516.129 3.8569 0.279284 0
M  V30 5474 H 517.818 4.05804 -0.0881334 0
M  V30 5475 H 518.584 4.11249 -2.57097 0
M  V30 5476 H 514.463 4.39901 -1.3787 0
M  V30 5477 H 518.007 5.10086 -4.75876 0
M  V30 5478 H 513.904 5.38619 -3.55753 0
M  V30 5479 H 514.672 6.03489 -5.5294 0
M  V30 5480 N 517.335 0.585699 1.46312 0
M  V30 5481 C 518.583 0.072278 2.01971 0
M  V30 5482 C 518.904 -1.29345 1.45928 0
M  V30 5483 O 518.174 -1.84973 0.645109 0
M  V30 5484 H 516.754 0.023729 0.746623 0
M  V30 5485 H 519.416 0.762155 1.7938 0
M  V30 5486 H 518.512 0.00552767 3.121 0
M  V30 5487 N 518.813 -1.54241 0.323641 0
M  V30 5488 C 520.038 -2.05452 -0.283605 0
M  V30 5489 C 520.463 -1.19823 -1.44997 0
M  V30 5490 O 519.821 -0.207358 -1.8011 0
M  V30 5491 C 519.869 -3.53823 -0.695795 0
M  V30 5492 O 518.973 -3.71134 -1.79815 0
M  V30 5493 H 518.314 -0.662024 -0.0511917 0
M  V30 5494 H 520.844 -1.99079 0.472073 0
M  V30 5495 H 520.854 -3.96094 -0.978434 0
M  V30 5496 H 519.529 -4.15602 0.157287 0
M  V30 5497 H 518.106 -3.40768 -1.51431 0
M  V30 5498 N 520.291 -0.0518155 -1.57515 0
M  V30 5499 C 521.54 0.621286 -1.91893 0
M  V30 5500 C 521.853 1.71966 -0.932052 0
M  V30 5501 O 523.059 2.45096 -1.16791 0
M  V30 5502 C 521.515 1.15641 -3.40816 0
M  V30 5503 C 521.123 0.0901146 -4.47909 0
M  V30 5504 C 522.867 1.80472 -3.84227 0
M  V30 5505 C 520.774 0.638154 -5.87947 0
M  V30 5506 H 519.704 0.235835 -0.716169 0
M  V30 5507 H 522.355 -0.120809 -1.83102 0
M  V30 5508 H 520.737 1.95084 -3.44613 0
M  V30 5509 H 521.911 -0.683525 -4.55702 0
M  V30 5510 H 520.226 -0.460774 -4.13843 0
M  V30 5511 H 522.823 2.22471 -4.86221 0
M  V30 5512 H 523.166 2.65669 -3.20508 0
M  V30 5513 H 523.699 1.07683 -3.82948 0
M  V30 5514 H 520.438 -0.176202 -6.55263 0
M  V30 5515 H 519.958 1.37976 -5.83714 0
M  V30 5516 H 521.637 1.12085 -6.37217 0
M  V30 5517 N 521.769 1.56035 0.221574 0
M  V30 5518 C 523.018 1.78245 0.944016 0
M  V30 5519 C 523.331 0.620371 1.85501 0
M  V30 5520 O 524.537 0.726103 2.6161 0
M  V30 5521 C 522.993 3.15659 1.7288 0
M  V30 5522 C 522.601 4.39591 0.863942 0
M  V30 5523 C 524.345 3.47195 2.44246 0
M  V30 5524 C 522.252 5.6803 1.64607 0
M  V30 5525 H 521.182 0.664547 0.356222 0
M  V30 5526 H 523.833 1.8243 0.197904 0
M  V30 5527 H 522.215 3.0565 2.51781 0
M  V30 5528 H 523.389 4.60655 0.115464 0
M  V30 5529 H 521.704 4.15572 0.262407 0
M  V30 5530 H 524.301 4.40381 3.03263 0
M  V30 5531 H 524.644 2.69693 3.1713 0
M  V30 5532 H 525.177 3.58533 1.72334 0
M  V30 5533 H 521.916 6.48425 0.960507 0
M  V30 5534 H 521.436 5.51027 2.36917 0
M  V30 5535 H 523.115 6.08203 2.20675 0
M  V30 5536 N 523.247 -0.488276 1.49845 0
M  V30 5537 C 524.194 -1.58836 1.67451 0
M  V30 5538 C 525.164 -1.57886 0.515857 0
M  V30 5539 O 526.349 -1.75679 0.744403 0
M  V30 5540 C 523.489 -2.96915 1.75885 0
M  V30 5541 C 522.602 -3.07784 3.03138 0
M  V30 5542 C 521.737 -4.36673 3.02473 0
M  V30 5543 C 520.776 -4.41222 4.24252 0
M  V30 5544 N 519.913 -5.61557 4.21424 0
M  V30 5545 H 524.753 -1.43131 2.61376 0
M  V30 5546 H 522.29 -0.696186 1.29583 0
M  V30 5547 H 524.248 -3.76965 1.78755 0
M  V30 5548 H 522.878 -3.11295 0.85414 0
M  V30 5549 H 521.93 -2.20717 3.09819 0
M  V30 5550 H 523.242 -3.07005 3.93128 0
M  V30 5551 H 522.396 -5.25055 3.03977 0
M  V30 5552 H 521.135 -4.40037 2.10283 0
M  V30 5553 H 520.14 -3.5124 4.22978 0
M  V30 5554 H 521.365 -4.39564 5.17649 0
M  V30 5555 H 519.311 -5.65738 3.32078 0
M  V30 5556 H 519.228 -5.62447 5.05163 0
M  V30 5557 H 520.496 -6.52111 4.2705 0
M  V30 5558 N 524.725 -1.39134 -0.740242 0
M  V30 5559 C 525.688 -1.37217 -1.83587 0
M  V30 5560 C 526.688 -0.270221 -1.58513 0
M  V30 5561 O 527.878 -0.527843 -1.6601 0
M  V30 5562 C 525.01 -1.13959 -3.21288 0
M  V30 5563 H 526.203 -2.34705 -1.86691 0
M  V30 5564 H 523.756 -1.24622 -0.94335 0
M  V30 5565 H 524.491 -0.17131 -3.23847 0
M  V30 5566 H 524.276 -1.93754 -3.40884 0
M  V30 5567 H 525.766 -1.15346 -4.01354 0
M  V30 5568 N 526.204 0.969867 -1.24223 0
M  V30 5569 C 527.453 1.70687 -1.07466 0
M  V30 5570 C 527.766 1.91736 0.386861 0
M  V30 5571 O 528.972 2.62986 0.674581 0
M  V30 5572 C 527.428 3.07217 -1.87472 0
M  V30 5573 C 527.036 2.94018 -3.3802 0
M  V30 5574 C 528.78 3.84804 -1.79237 0
M  V30 5575 C 526.687 4.25844 -4.10379 0
M  V30 5576 H 525.617 0.640067 -0.398536 0
M  V30 5577 H 528.268 1.08092 -1.48285 0
M  V30 5578 H 526.65 3.70628 -1.39466 0
M  V30 5579 H 527.824 2.39632 -3.9359 0
M  V30 5580 H 526.139 2.29898 -3.47183 0
M  V30 5581 H 528.736 4.82417 -2.30603 0
M  V30 5582 H 529.079 4.09356 -0.757197 0
M  V30 5583 H 529.612 3.28115 -2.24912 0
M  V30 5584 H 526.351 4.06486 -5.14246 0
M  V30 5585 H 525.871 4.80054 -3.59594 0
M  V30 5586 H 527.55 4.94475 -4.17257 0
M  V30 5587 N 527.682 1.05563 1.17022 0
M  V30 5588 C 528.912 0.787307 1.91011 0
M  V30 5589 C 529.32 -0.661256 1.77268 0
M  V30 5590 O 528.663 -1.46379 1.10991 0
M  V30 5591 C 528.725 1.09313 3.42478 0
M  V30 5592 C 528.389 2.53863 3.80004 0
M  V30 5593 C 529.386 3.52081 3.82538 0
M  V30 5594 C 527.071 2.88969 4.10855 0
M  V30 5595 C 529.065 4.83449 4.15399 0
M  V30 5596 C 526.752 4.2054 4.43384 0
M  V30 5597 C 527.75 5.17589 4.45635 0
M  V30 5598 O 527.438 6.46799 4.77395 0
M  V30 5599 H 527.17 0.285463 0.61277 0
M  V30 5600 H 529.724 1.41051 1.49311 0
M  V30 5601 H 527.954 0.412833 3.8449 0
M  V30 5602 H 529.643 0.810224 3.97731 0
M  V30 5603 H 530.409 3.26299 3.58823 0
M  V30 5604 H 526.288 2.1409 4.08272 0
M  V30 5605 H 529.832 5.59194 4.1707 0
M  V30 5606 H 525.729 4.46083 4.66563 0
M  V30 5607 H 526.497 6.51677 4.95237 0
M  V30 5608 N 529.16 -1.33526 0.837174 0
M  V30 5609 C 530.092 -2.28077 0.226579 0
M  V30 5610 C 531.105 -1.51666 -0.591717 0
M  V30 5611 O 532.294 -1.73511 -0.419064 0
M  V30 5612 C 529.394 -3.31597 -0.69978 0
M  V30 5613 C 528.567 -4.37329 0.0788067 0
M  V30 5614 C 527.626 -5.20526 -0.770637 0
M  V30 5615 O 526.652 -5.68811 -0.210453 0
M  V30 5616 N 527.854 -5.41639 -2.08825 0
M  V30 5617 H 530.619 -2.81115 1.03897 0
M  V30 5618 H 528.18 -1.46201 0.695476 0
M  V30 5619 H 530.172 -3.84158 -1.27298 0
M  V30 5620 H 528.742 -2.78848 -1.41288 0
M  V30 5621 H 527.962 -3.8529 0.833381 0
M  V30 5622 H 529.25 -5.05079 0.614238 0
M  V30 5623 H 528.648 -5.04108 -2.56693 0
M  V30 5624 H 527.205 -5.97263 -2.60998 0
M  V30 5625 N 530.638 -0.59345 -1.46 0
M  V30 5626 C 531.601 0.123538 -2.28867 0
M  V30 5627 C 532.601 0.808628 -1.38989 0
M  V30 5628 O 533.791 0.658945 -1.61256 0
M  V30 5629 C 530.923 1.1847 -3.19653 0
M  V30 5630 H 532.116 -0.604843 -2.93737 0
M  V30 5631 H 529.669 -0.351875 -1.52288 0
M  V30 5632 H 530.404 1.94431 -2.59552 0
M  V30 5633 H 530.189 0.69783 -3.8584 0
M  V30 5634 H 531.679 1.68726 -3.81997 0
M  V30 5635 N 532.116 1.54067 -0.331816 0
M  V30 5636 C 533.341 2.05599 0.272705 0
M  V30 5637 C 533.766 1.2059 1.44359 0
M  V30 5638 O 533.124 0.216907 1.79998 0
M  V30 5639 C 533.172 3.54188 0.677021 0
M  V30 5640 O 532.276 3.72082 1.77844 0
M  V30 5641 H 531.617 0.662286 0.0476801 0
M  V30 5642 H 534.147 1.98826 -0.482624 0
M  V30 5643 H 534.157 3.96608 0.957415 0
M  V30 5644 H 532.832 4.15513 -0.179325 0
M  V30 5645 H 531.409 3.41566 1.49622 0
M  V30 5646 N 533.594 0.0601682 1.57485 0
M  V30 5647 C 534.842 -0.610386 1.92662 0
M  V30 5648 C 535.163 -1.70849 0.939981 0
M  V30 5649 O 534.433 -1.95895 -0.0137455 0
M  V30 5650 H 533.013 -0.228457 0.711208 0
M  V30 5651 H 535.675 0.115288 1.94559 0
M  V30 5652 H 534.771 -1.0432 2.94149 0
M  V30 5653 N 535.072 -1.5615 -0.213296 0
M  V30 5654 C 536.297 -1.83986 -0.957282 0
M  V30 5655 C 536.722 -0.641526 -1.76822 0
M  V30 5656 O 536.08 0.409722 -1.7661 0
M  V30 5657 C 536.128 -3.09889 -1.84393 0
M  V30 5658 O 535.232 -2.89163 -2.94038 0
M  V30 5659 H 534.573 -0.606357 -0.270605 0
M  V30 5660 H 537.103 -2.03369 -0.224111 0
M  V30 5661 H 537.113 -3.40209 -2.25215 0
M  V30 5662 H 535.788 -3.96735 -1.24795 0
M  V30 5663 H 534.365 -2.70097 -2.57103 0
M  V30 5664 N 536.55 0.480323 -1.50102 0
M  V30 5665 C 537.778 1.25657 -1.64371 0
M  V30 5666 C 538.193 1.86011 -0.323316 0
M  V30 5667 O 537.55 1.68803 0.693682 0
M  V30 5668 C 537.601 2.37197 -2.728 0
M  V30 5669 O 537.322 1.7932 -3.9972 0
M  V30 5670 C 538.823 3.2823 -2.9796 0
M  V30 5671 H 536.043 0.380369 -0.552775 0
M  V30 5672 H 538.587 0.574379 -1.96268 0
M  V30 5673 H 536.742 3.01208 -2.43623 0
M  V30 5674 H 537.156 2.52701 -4.59611 0
M  V30 5675 H 538.63 4.02725 -3.77513 0
M  V30 5676 H 539.107 3.86462 -2.08671 0
M  V30 5677 H 539.713 2.69964 -3.28633 0
M  V30 5678 N 538.028 1.39524 0.732853 0
M  V30 5679 C 539.277 1.36175 1.48792 0
M  V30 5680 C 539.59 -0.0388195 1.95561 0
M  V30 5681 O 540.796 -0.194899 2.708 0
M  V30 5682 C 539.252 2.39242 2.68871 0
M  V30 5683 C 538.86 3.85024 2.29042 0
M  V30 5684 C 540.604 2.44972 3.46683 0
M  V30 5685 C 538.511 4.79727 3.45856 0
M  V30 5686 H 537.441 0.506267 0.558757 0
M  V30 5687 H 540.092 1.65181 0.799226 0
M  V30 5688 H 538.474 2.0331 3.39825 0
M  V30 5689 H 539.648 4.30008 1.6562 0
M  V30 5690 H 537.963 3.82609 1.64316 0
M  V30 5691 H 540.56 3.12918 4.33574 0
M  V30 5692 H 540.903 1.4749 3.89297 0
M  V30 5693 H 541.436 2.79808 2.82759 0
M  V30 5694 H 538.175 5.78479 3.08289 0
M  V30 5695 H 537.695 4.39421 4.08251 0
M  V30 5696 H 539.374 4.98731 4.12161 0
M  V30 5697 N 539.506 -0.963266 1.24736 0
M  V30 5698 C 540.783 -1.68248 0.9976 0
M  V30 5699 C 541.163 -2.05599 -0.478776 0
M  V30 5700 O 540.511 -1.7626 -1.45412 0
M  V30 5701 C 540.721 -2.91118 1.92487 0
M  V30 5702 C 542.069 -3.63261 2.19833 0
M  V30 5703 O 543.093 -3.01184 1.90176 0
M  V30 5704 O 541.952 -4.75019 2.7022 0
M  V30 5705 H 539.046 -0.735744 0.377637 0
M  V30 5706 H 541.592 -1.01696 1.35853 0
M  V30 5707 H 540.364 -2.60242 2.92215 0
M  V30 5708 H 539.987 -3.65402 1.56738 0
M  V30 5709 N 540.985 -1.06182 -1.16461 0
M  V30 5710 C 542.231 -0.788825 -1.87481 0
M  V30 5711 C 542.586 0.677298 -1.80085 0
M  V30 5712 O 541.879 1.48976 -1.20486 0
M  V30 5713 C 542.073 -1.21633 -3.36066 0
M  V30 5714 C 541.902 -2.72247 -3.57927 0
M  V30 5715 C 540.672 -3.39696 -3.74079 0
M  V30 5716 C 542.87 -3.70461 -3.56739 0
M  V30 5717 N 540.852 -4.79072 -3.83879 0
M  V30 5718 C 542.223 -4.95616 -3.72511 0
M  V30 5719 C 544.278 -3.63788 -3.39945 0
M  V30 5720 C 542.981 -6.14895 -3.73225 0
M  V30 5721 C 545.007 -4.82517 -3.41953 0
M  V30 5722 C 544.369 -6.065 -3.58242 0
M  V30 5723 H 540.468 -0.341034 -0.703719 0
M  V30 5724 H 543.052 -1.35575 -1.39741 0
M  V30 5725 H 541.223 -0.67725 -3.8245 0
M  V30 5726 H 542.955 -0.892119 -3.94745 0
M  V30 5727 H 539.71 -2.90097 -3.74354 0
M  V30 5728 H 540.134 -5.51573 -3.92551 0
M  V30 5729 H 544.776 -2.68888 -3.26281 0
M  V30 5730 H 542.494 -7.10129 -3.85672 0
M  V30 5731 H 546.08 -4.79017 -3.30203 0
M  V30 5732 H 544.96 -6.96833 -3.59712 0
M  V30 5733 N 542.463 1.3308 -0.844243 0
M  V30 5734 C 543.691 2.01808 -0.456203 0
M  V30 5735 C 544.106 1.63498 0.944131 0
M  V30 5736 O 543.463 0.85102 1.61443 0
M  V30 5737 C 543.514 3.56922 -0.573513 0
M  V30 5738 O 543.235 3.93851 -1.91868 0
M  V30 5739 C 544.736 4.42922 -0.183125 0
M  V30 5740 H 541.956 0.646273 -0.180477 0
M  V30 5741 H 544.5 1.69891 -1.1383 0
M  V30 5742 H 542.655 3.87352 0.0607367 0
M  V30 5743 H 543.069 4.88564 -1.90802 0
M  V30 5744 H 544.543 5.51093 -0.316241 0
M  V30 5745 H 545.02 4.30386 0.875477 0
M  V30 5746 H 545.626 4.1786 -0.792027 0
M  V30 5747 N 543.941 0.601185 1.45683 0
M  V30 5748 C 545.171 0.0999093 2.06358 0
M  V30 5749 C 545.579 -1.21831 1.44754 0
M  V30 5750 O 544.922 -1.75157 0.553695 0
M  V30 5751 C 544.984 -0.12085 3.59297 0
M  V30 5752 C 544.648 1.11459 4.432 0
M  V30 5753 C 545.645 2.03118 4.7858 0
M  V30 5754 C 543.33 1.34162 4.84051 0
M  V30 5755 C 545.324 3.15814 5.53661 0
M  V30 5756 C 543.011 2.4716 5.58888 0
M  V30 5757 C 544.009 3.37814 5.93608 0
M  V30 5758 O 543.697 4.48846 6.66928 0
M  V30 5759 H 543.429 0.0630316 0.673055 0
M  V30 5760 H 545.983 0.826982 1.88016 0
M  V30 5761 H 544.213 -0.902744 3.76015 0
M  V30 5762 H 545.902 -0.572925 4.01836 0
M  V30 5763 H 546.668 1.86801 4.47583 0
M  V30 5764 H 542.547 0.645018 4.56465 0
M  V30 5765 H 546.091 3.86596 5.8068 0
M  V30 5766 H 541.988 2.63432 5.89299 0
M  V30 5767 H 542.756 4.47446 6.85371 0
M  V30 5768 N 545.419 -1.53889 0.339982 0
M  V30 5769 C 546.644 -2.05741 -0.261798 0
M  V30 5770 C 547.069 -1.21354 -1.43718 0
M  V30 5771 O 546.427 -0.22645 -1.7988 0
M  V30 5772 C 546.475 -3.54542 -0.658228 0
M  V30 5773 O 545.579 -3.7302 -1.75869 0
M  V30 5774 H 544.92 -0.662529 -0.0441672 0
M  V30 5775 H 547.45 -1.98568 0.493161 0
M  V30 5776 H 547.46 -3.9711 -0.936368 0
M  V30 5777 H 546.135 -4.15412 0.201358 0
M  V30 5778 H 544.712 -3.42355 -1.47809 0
M  V30 5779 N 546.897 -0.0685191 -1.57451 0
M  V30 5780 C 547.829 0.929372 -2.09512 0
M  V30 5781 C 548.842 1.26354 -1.02657 0
M  V30 5782 O 550.031 1.2213 -1.30179 0
M  V30 5783 C 547.131 2.24612 -2.53777 0
M  V30 5784 C 546.304 2.09128 -3.84167 0
M  V30 5785 C 545.363 3.24079 -4.14559 0
M  V30 5786 O 544.389 2.99215 -4.8421 0
M  V30 5787 N 545.591 4.49077 -3.67845 0
M  V30 5788 H 548.356 0.484901 -2.95751 0
M  V30 5789 H 545.917 0.11729 -1.61475 0
M  V30 5790 H 547.909 3.00412 -2.71172 0
M  V30 5791 H 546.479 2.60569 -1.72692 0
M  V30 5792 H 545.699 1.17815 -3.76182 0
M  V30 5793 H 546.987 1.9603 -4.69521 0
M  V30 5794 H 546.385 4.72165 -3.11571 0
M  V30 5795 H 544.942 5.21915 -3.90446 0
M  V30 5796 N 548.375 1.56261 0.205012 0
M  V30 5797 C 549.623 1.79684 0.925096 0
M  V30 5798 C 549.944 0.63989 1.84202 0
M  V30 5799 O 549.214 -0.342345 1.92885 0
M  V30 5800 H 547.794 0.662774 0.344587 0
M  V30 5801 H 550.456 1.93734 0.212899 0
M  V30 5802 H 549.552 2.72467 1.52211 0
M  V30 5803 N 549.853 -0.472356 1.50355 0
M  V30 5804 C 551.102 -1.2213 1.60522 0
M  V30 5805 C 551.415 -1.9312 0.310466 0
M  V30 5806 O 552.621 -2.69936 0.291029 0
M  V30 5807 C 551.077 -2.21909 2.83345 0
M  V30 5808 C 550.685 -1.56727 4.19691 0
M  V30 5809 C 552.429 -2.97453 3.02856 0
M  V30 5810 C 550.336 -2.54785 5.33703 0
M  V30 5811 H 549.266 -0.459543 0.597776 0
M  V30 5812 H 551.917 -0.491922 1.76783 0
M  V30 5813 H 550.299 -2.98133 2.60639 0
M  V30 5814 H 551.473 -0.863007 4.52646 0
M  V30 5815 H 549.788 -0.934685 4.05774 0
M  V30 5816 H 552.385 -3.70838 3.85205 0
M  V30 5817 H 552.728 -3.56764 2.14534 0
M  V30 5818 H 553.261 -2.28342 3.25737 0
M  V30 5819 H 550 -2.00214 6.24175 0
M  V30 5820 H 549.52 -3.23367 5.05167 0
M  V30 5821 H 551.199 -3.16639 5.64224 0
M  V30 5822 N 551.331 -1.39911 -0.725443 0
M  V30 5823 C 552.278 -1.39393 -1.83952 0
M  V30 5824 C 553.248 -0.252249 -1.64173 0
M  V30 5825 O 554.433 -0.44882 -1.85446 0
M  V30 5826 C 551.573 -1.25262 -3.21564 0
M  V30 5827 C 550.686 -2.49054 -3.52982 0
M  V30 5828 C 549.821 -2.27439 -4.80047 0
M  V30 5829 C 548.86 -3.46857 -5.04338 0
M  V30 5830 N 547.997 -3.24499 -6.22611 0
M  V30 5831 H 552.837 -2.34622 -1.83729 0
M  V30 5832 H 550.374 -1.16537 -0.897636 0
M  V30 5833 H 552.332 -1.15077 -4.01015 0
M  V30 5834 H 550.962 -0.33657 -3.21041 0
M  V30 5835 H 550.014 -2.69805 -2.6816 0
M  V30 5836 H 551.326 -3.37973 -3.66846 0
M  V30 5837 H 550.48 -2.14551 -5.67497 0
M  V30 5838 H 549.219 -1.35929 -4.68374 0
M  V30 5839 H 548.224 -3.60232 -4.15346 0
M  V30 5840 H 549.449 -4.3928 -5.17889 0
M  V30 5841 H 547.395 -2.35663 -6.12208 0
M  V30 5842 H 547.312 -4.06978 -6.37106 0
M  V30 5843 H 548.58 -3.15325 -7.12875 0
M  V30 5844 N 552.809 0.956637 -1.25245 0
M  V30 5845 C 554.039 1.7332 -1.12445 0
M  V30 5846 C 554.447 1.86392 0.324732 0
M  V30 5847 O 553.79 1.35967 1.23526 0
M  V30 5848 C 553.852 3.16603 -1.70303 0
M  V30 5849 C 553.516 3.26966 -3.19284 0
M  V30 5850 C 554.513 3.11434 -4.16299 0
M  V30 5851 C 552.198 3.50851 -3.59456 0
M  V30 5852 C 554.192 3.1963 -5.51467 0
M  V30 5853 C 551.879 3.58684 -4.94761 0
M  V30 5854 C 552.877 3.43087 -5.90576 0
M  V30 5855 O 552.565 3.50598 -7.2342 0
M  V30 5856 H 552.297 0.549981 -0.393061 0
M  V30 5857 H 554.851 1.20892 -1.66055 0
M  V30 5858 H 553.081 3.70385 -1.11138 0
M  V30 5859 H 554.77 3.76109 -1.52632 0
M  V30 5860 H 555.536 2.92853 -3.86604 0
M  V30 5861 H 551.415 3.62053 -2.85375 0
M  V30 5862 H 554.959 3.07373 -6.26233 0
M  V30 5863 H 550.856 3.76782 -5.24124 0
M  V30 5864 H 551.624 3.67242 -7.31489 0
M  V30 5865 N 554.287 1.06798 1.15896 0
M  V30 5866 C 555.512 0.808739 1.90982 0
M  V30 5867 C 555.937 -0.6316 1.77179 0
M  V30 5868 O 555.295 -1.4407 1.10061 0
M  V30 5869 C 555.343 1.21468 3.39526 0
M  V30 5870 O 554.447 0.356562 4.10856 0
M  V30 5871 H 553.788 0.29512 0.594811 0
M  V30 5872 H 556.318 1.42513 1.46804 0
M  V30 5873 H 556.328 1.18844 3.90308 0
M  V30 5874 H 555.003 2.26379 3.48891 0
M  V30 5875 H 553.58 0.444808 3.70238 0
M  V30 5876 N 555.766 -1.3263 0.851289 0
M  V30 5877 C 557.013 -1.97368 0.453023 0
M  V30 5878 C 557.341 -1.67384 -0.990596 0
M  V30 5879 O 556.596 -0.952665 -1.70947 0
M  V30 5880 C 556.895 -3.51713 0.635015 0
M  V30 5881 C 556.561 -4.01676 2.04859 0
M  V30 5882 C 555.223 -4.15031 2.43522 0
M  V30 5883 C 557.575 -4.28206 2.97135 0
M  V30 5884 C 554.903 -4.52257 3.73739 0
M  V30 5885 C 557.255 -4.66889 4.26846 0
M  V30 5886 C 555.919 -4.7845 4.65448 0
M  V30 5887 H 555.189 -0.722219 0.165773 0
M  V30 5888 H 557.836 -1.58092 1.0807 0
M  V30 5889 H 556.141 -3.91726 -0.0759081 0
M  V30 5890 H 557.838 -3.99823 0.306964 0
M  V30 5891 H 554.428 -3.91764 1.73836 0
M  V30 5892 H 558.612 -4.174 2.68498 0
M  V30 5893 H 553.868 -4.59402 4.03435 0
M  V30 5894 H 558.042 -4.86372 4.98413 0
M  V30 5895 H 555.669 -5.07052 5.66395 0
M  V30 5896 N 557.244 -0.608902 -1.45362 0
M  V30 5897 C 558.472 -0.111013 -2.06602 0
M  V30 5898 C 558.887 1.20516 -1.45332 0
M  V30 5899 O 558.244 1.73437 -0.567978 0
M  V30 5900 C 558.295 0.033688 -3.61484 0
M  V30 5901 O 558.016 -1.23041 -4.20467 0
M  V30 5902 C 559.517 0.562882 -4.39712 0
M  V30 5903 H 556.737 -0.0694453 -0.667397 0
M  V30 5904 H 559.281 -0.837008 -1.86586 0
M  V30 5905 H 557.436 0.710016 -3.80838 0
M  V30 5906 H 557.85 -1.06094 -5.13658 0
M  V30 5907 H 559.324 0.613213 -5.48583 0
M  V30 5908 H 559.801 1.58543 -4.09586 0
M  V30 5909 H 560.407 -0.0794454 -4.25226 0
M  V30 5910 N 558.722 1.53707 -0.348139 0
M  V30 5911 C 559.969 2.00988 0.246966 0
M  V30 5912 C 560.297 1.23586 1.50189 0
M  V30 5913 O 559.552 0.312817 1.93184 0
M  V30 5914 C 559.851 3.52292 0.602061 0
M  V30 5915 C 559.517 4.47453 -0.556509 0
M  V30 5916 C 558.179 4.73188 -0.874446 0
M  V30 5917 C 560.531 5.03851 -1.33354 0
M  V30 5918 C 557.859 5.52577 -1.9717 0
M  V30 5919 C 560.211 5.84437 -2.42108 0
M  V30 5920 C 558.875 6.08465 -2.74456 0
M  V30 5921 H 558.145 0.735469 0.0903712 0
M  V30 5922 H 560.792 1.85464 -0.477001 0
M  V30 5923 H 559.097 3.65672 1.40681 0
M  V30 5924 H 560.794 3.86337 1.07447 0
M  V30 5925 H 557.384 4.27558 -0.298652 0
M  V30 5926 H 561.568 4.8393 -1.10117 0
M  V30 5927 H 556.824 5.69418 -2.22651 0
M  V30 5928 H 560.998 6.27151 -3.02745 0
M  V30 5929 H 558.625 6.69768 -3.59604 0
M  V30 5930 N 560.2 0.0768682 1.57412 0
M  V30 5931 C 561.11 -0.903207 2.16516 0
M  V30 5932 C 562.126 -1.32341 1.12968 0
M  V30 5933 O 563.302 -1.39507 1.45258 0
M  V30 5934 C 560.367 -2.1508 2.71922 0
M  V30 5935 C 559.428 -1.78653 3.90361 0
M  V30 5936 C 558.661 -2.97465 4.43114 0
M  V30 5937 O 558.884 -4.11638 3.94854 0
M  V30 5938 O 557.818 -2.76987 5.3438 0
M  V30 5939 H 561.644 -0.430427 3.00634 0
M  V30 5940 H 559.229 -0.146485 1.4868 0
M  V30 5941 H 561.111 -2.8823 3.07411 0
M  V30 5942 H 559.786 -2.61446 1.9086 0
M  V30 5943 H 558.693 -1.0274 3.59716 0
M  V30 5944 H 560.026 -1.37066 4.7273 0
M  V30 5945 N 561.678 -1.56367 -0.196722 0
M  V30 5946 C 562.608 -1.97442 -1.24655 0
M  V30 5947 C 563.589 -0.846147 -1.47561 0
M  V30 5948 O 564.774 -1.11035 -1.59326 0
M  V30 5949 C 561.904 -2.31253 -2.59112 0
M  V30 5950 C 560.858 -3.46804 -2.50821 0
M  V30 5951 C 560.184 -3.66286 -3.89536 0
M  V30 5952 C 561.484 -4.8104 -2.03465 0
M  V30 5953 H 563.178 -2.85388 -0.905216 0
M  V30 5954 H 560.724 -1.37304 -0.434002 0
M  V30 5955 H 562.677 -2.58583 -3.32736 0
M  V30 5956 H 561.401 -1.40188 -2.94983 0
M  V30 5957 H 560.06 -3.19563 -1.79653 0
M  V30 5958 H 559.708 -2.72555 -4.22756 0
M  V30 5959 H 559.408 -4.4402 -3.84864 0
M  V30 5960 H 560.932 -3.9599 -4.64784 0
M  V30 5961 H 562.346 -5.07411 -2.66846 0
M  V30 5962 H 560.743 -5.62232 -2.09798 0
M  V30 5963 H 561.813 -4.74732 -0.98781 0
M  V30 5964 N 563.156 0.464375 -1.50603 0
M  V30 5965 C 564.572 0.798684 -1.38178 0
M  V30 5966 C 564.772 1.96568 -0.44308 0
M  V30 5967 O 563.828 2.52252 0.111814 0
M  V30 5968 C 565.141 1.10444 -2.79683 0
M  V30 5969 C 566.689 1.2105 -2.88645 0
M  V30 5970 C 567.164 1.54934 -4.30998 0
M  V30 5971 N 568.655 1.61913 -4.3398 0
M  V30 5972 C 569.39 1.8965 -5.41129 0
M  V30 5973 N 568.886 2.15361 -6.58477 0
M  V30 5974 N 570.679 1.91207 -5.28579 0
M  V30 5975 H 562.83 -0.304603 -2.10204 0
M  V30 5976 H 565.093 -0.0737804 -0.945125 0
M  V30 5977 H 564.799 0.319934 -3.50242 0
M  V30 5978 H 564.673 2.03896 -3.17342 0
M  V30 5979 H 567.06 1.98567 -2.18301 0
M  V30 5980 H 567.141 0.255613 -2.5452 0
M  V30 5981 H 566.785 0.779549 -5.01882 0
M  V30 5982 H 566.715 2.51584 -4.62615 0
M  V30 5983 H 569.206 1.44055 -3.49366 0
M  V30 5984 H 569.519 2.35818 -7.35941 0
M  V30 5985 H 567.864 2.1274 -6.6164 0
M  V30 5986 H 571.055 1.70622 -4.35897 0
M  V30 5987 H 571.228 2.12488 -6.12171 0
M  V30 5988 N 564.634 1.40294 0.718013 0
M  V30 5989 C 565.911 1.2894 1.47084 0
M  V30 5990 C 566.291 -0.0933625 2.10893 0
M  V30 5991 O 565.639 -1.10598 1.99951 0
M  V30 5992 C 565.849 2.4264 2.50852 0
M  V30 5993 C 567.197 2.8276 3.16752 0
M  V30 5994 O 568.221 2.42215 2.61171 0
M  V30 5995 O 567.08 3.528 4.17366 0
M  V30 5996 H 564.174 0.506236 0.653952 0
M  V30 5997 H 566.72 1.52208 0.750394 0
M  V30 5998 H 565.492 3.35009 2.022 0
M  V30 5999 H 565.115 2.21129 3.30435 0
M  V30 6000 N 566.112 -0.949982 1.2575 0
M  V30 6001 C 567.34 -1.72972 1.13527 0
M  V30 6002 C 567.755 -1.8623 -0.310453 0
M  V30 6003 O 567.112 -1.36336 -1.2132 0
M  V30 6004 C 567.163 -3.14108 1.78936 0
M  V30 6005 O 566.884 -3.01493 3.17858 0
M  V30 6006 C 568.385 -4.08338 1.72554 0
M  V30 6007 H 565.605 -0.541864 0.395758 0
M  V30 6008 H 568.149 -1.19151 1.66202 0
M  V30 6009 H 566.304 -3.64858 1.30221 0
M  V30 6010 H 566.718 -3.90559 3.50092 0
M  V30 6011 H 568.192 -5.04963 2.22973 0
M  V30 6012 H 568.669 -4.33742 0.690251 0
M  V30 6013 H 569.275 -3.63506 2.2078 0
M  V30 6014 N 567.59 -1.07411 -1.15328 0
M  V30 6015 C 568.838 -0.796073 -1.85761 0
M  V30 6016 C 569.159 0.679864 -1.82764 0
M  V30 6017 O 568.429 1.49242 -1.269 0
M  V30 6018 H 567.009 -0.291495 -0.687779 0
M  V30 6019 H 569.671 -1.35799 -1.39802 0
M  V30 6020 H 568.767 -1.13114 -2.90881 0
M  V30 6021 N 569.068 1.32177 -0.85831 0
M  V30 6022 C 570.484 1.49873 -0.548656 0
M  V30 6023 C 570.684 1.79278 0.919874 0
M  V30 6024 O 569.74 1.86451 1.70271 0
M  V30 6025 C 571.053 2.64043 -1.4388 0
M  V30 6026 C 572.601 2.77928 -1.43961 0
M  V30 6027 C 573.076 3.95182 -2.31506 0
M  V30 6028 N 574.567 4.0245 -2.29321 0
M  V30 6029 C 575.302 4.9242 -2.93786 0
M  V30 6030 N 574.798 5.87373 -3.67376 0
M  V30 6031 N 576.591 4.85572 -2.83155 0
M  V30 6032 H 568.742 1.11357 -1.80868 0
M  V30 6033 H 571.005 0.549175 -0.772729 0
M  V30 6034 H 570.711 2.49055 -2.48324 0
M  V30 6035 H 570.585 3.59912 -1.12885 0
M  V30 6036 H 572.972 2.92338 -0.402813 0
M  V30 6037 H 573.053 1.82762 -1.78974 0
M  V30 6038 H 572.697 3.81531 -3.35256 0
M  V30 6039 H 572.627 4.89633 -1.93823 0
M  V30 6040 H 575.118 3.34507 -1.75822 0
M  V30 6041 H 575.431 6.52728 -4.13722 0
M  V30 6042 H 573.776 5.87388 -3.71484 0
M  V30 6043 H 576.967 4.10363 -2.25211 0
M  V30 6044 H 577.14 5.55486 -3.33676 0
M  V30 6045 N 570.547 0.616602 1.45037 0
M  V30 6046 C 571.777 0.121791 2.06241 0
M  V30 6047 C 572.185 -1.20289 1.46038 0
M  V30 6048 O 571.528 -1.7456 0.572242 0
M  V30 6049 C 571.59 -0.0827345 3.59405 0
M  V30 6050 C 571.254 1.16153 4.41993 0
M  V30 6051 C 572.251 2.08183 4.76399 0
M  V30 6052 C 569.936 1.39288 4.82601 0
M  V30 6053 C 571.93 3.21668 5.5028 0
M  V30 6054 C 569.617 2.53073 5.56235 0
M  V30 6055 C 570.615 3.44091 5.89992 0
M  V30 6056 O 570.303 4.55894 6.6213 0
M  V30 6057 H 570.035 0.0701667 0.672349 0
M  V30 6058 H 572.589 0.846877 1.87129 0
M  V30 6059 H 570.819 -0.862812 3.76952 0
M  V30 6060 H 572.508 -0.530273 4.02421 0
M  V30 6061 H 573.274 1.91538 4.45576 0
M  V30 6062 H 569.153 0.693396 4.55755 0
M  V30 6063 H 572.697 3.92733 5.76547 0
M  V30 6064 H 568.594 2.69667 5.86472 0
M  V30 6065 H 569.362 4.5469 6.80587 0
M  V30 6066 N 572.025 -1.5352 0.356285 0
M  V30 6067 C 573.273 -2.00719 -0.235837 0
M  V30 6068 C 573.594 -1.24551 -1.5004 0
M  V30 6069 O 572.864 -0.356185 -1.92635 0
M  V30 6070 H 571.444 -0.741542 -0.0901366 0
M  V30 6071 H 574.106 -1.88887 0.480378 0
M  V30 6072 H 573.202 -3.08551 -0.469357 0
M  V30 6073 N 573.503 -0.0852151 -1.57369 0
M  V30 6074 C 574.75 0.580806 -1.93992 0
M  V30 6075 C 575.078 1.68801 -0.966252 0
M  V30 6076 O 574.333 1.95694 0.0158649 0
M  V30 6077 C 574.632 1.18482 -3.3719 0
M  V30 6078 C 574.298 0.2024 -4.50446 0
M  V30 6079 C 572.96 -0.0678318 -4.81152 0
M  V30 6080 C 575.312 -0.46895 -5.19086 0
M  V30 6081 C 572.64 -1.01627 -5.77831 0
M  V30 6082 C 574.992 -1.4058 -6.16782 0
M  V30 6083 C 573.656 -1.68436 -6.45899 0
M  V30 6084 H 572.926 0.212532 -0.709867 0
M  V30 6085 H 575.573 -0.158947 -1.90839 0
M  V30 6086 H 573.878 2.0006 -3.36873 0
M  V30 6087 H 575.575 1.70767 -3.62822 0
M  V30 6088 H 572.165 0.423208 -4.26505 0
M  V30 6089 H 576.349 -0.273307 -4.95547 0
M  V30 6090 H 571.605 -1.2392 -5.9871 0
M  V30 6091 H 575.779 -1.93188 -6.69068 0
M  V30 6092 H 573.406 -2.42088 -7.20623 0
M  V30 6093 N 574.981 1.5647 0.188427 0
M  V30 6094 C 575.911 1.98101 1.23606 0
M  V30 6095 C 576.892 0.853961 1.47111 0
M  V30 6096 O 578.077 1.11879 1.58735 0
M  V30 6097 C 575.207 2.32624 2.57882 0
M  V30 6098 C 574.161 3.48129 2.48978 0
M  V30 6099 C 573.487 3.68347 3.87588 0
M  V30 6100 C 574.787 4.82112 2.00911 0
M  V30 6101 H 576.481 2.85864 0.890068 0
M  V30 6102 H 574.027 1.37532 0.426714 0
M  V30 6103 H 575.98 2.60343 3.3136 0
M  V30 6104 H 574.704 1.41751 2.94235 0
M  V30 6105 H 573.363 3.20511 1.77956 0
M  V30 6106 H 573.011 2.74793 4.21305 0
M  V30 6107 H 572.711 4.46055 3.82503 0
M  V30 6108 H 574.235 3.98449 4.62678 0
M  V30 6109 H 575.649 5.08819 2.64151 0
M  V30 6110 H 574.046 5.63337 2.06814 0
M  V30 6111 H 575.116 4.75249 0.96262 0
M  V30 6112 N 576.459 -0.456382 1.50847 0
M  V30 6113 C 577.389 -1.56025 1.73719 0
M  V30 6114 C 578.37 -1.5967 0.586473 0
M  V30 6115 O 579.555 -1.75702 0.827185 0
M  V30 6116 C 576.685 -2.94251 1.84483 0
M  V30 6117 C 575.639 -3.05471 2.99786 0
M  V30 6118 C 574.965 -4.45489 2.95709 0
M  V30 6119 C 576.265 -2.81318 4.40065 0
M  V30 6120 H 577.959 -1.37138 2.66146 0
M  V30 6121 H 575.505 -0.658299 1.28072 0
M  V30 6122 H 577.458 -3.71417 1.99067 0
M  V30 6123 H 576.182 -3.14328 0.886891 0
M  V30 6124 H 574.841 -2.30741 2.84876 0
M  V30 6125 H 574.489 -4.62505 1.97732 0
M  V30 6126 H 574.189 -4.53929 3.73125 0
M  V30 6127 H 575.713 -5.24655 3.12362 0
M  V30 6128 H 577.127 -3.48226 4.55425 0
M  V30 6129 H 575.524 -3.01188 5.19043 0
M  V30 6130 H 576.594 -1.7706 4.51418 0
M  V30 6131 N 577.937 -1.40673 -0.710563 0
M  V30 6132 C 579.348 -1.34975 -1.28991 0
M  V30 6133 C 579.699 -0.0256272 -1.96183 0
M  V30 6134 O 578.824 0.876339 -1.97862 0
M  V30 6135 C 579.419 -2.44467 -2.34567 0
M  V30 6136 C 577.978 -2.42213 -2.88114 0
M  V30 6137 C 577.125 -2.25085 -1.61963 0
M  V30 6138 H 580.076 -1.50406 -0.506343 0
M  V30 6139 H 580.097 -2.12663 -3.15523 0
M  V30 6140 H 579.609 -3.40825 -1.85634 0
M  V30 6141 H 577.71 -1.49568 -3.41263 0
M  V30 6142 H 577.823 -3.37983 -3.39565 0
M  V30 6143 H 576.187 -1.72691 -1.87216 0
M  V30 6144 H 576.97 -3.23449 -1.15047 0
M  V30 6145 N 579.415 0.9433 -1.26252 0
M  V30 6146 C 580.378 2.02326 -1.07689 0
M  V30 6147 C 581.378 1.60779 -0.0259174 0
M  V30 6148 O 582.568 1.72108 -0.269134 0
M  V30 6149 C 579.7 3.34886 -0.63752 0
M  V30 6150 H 580.893 2.20225 -2.0357 0
M  V30 6151 H 578.446 1.12197 -1.08819 0
M  V30 6152 H 579.181 3.22684 0.323377 0
M  V30 6153 H 578.966 3.66393 -1.39637 0
M  V30 6154 H 580.456 4.14231 -0.529418 0
M  V30 6155 N 580.893 1.08022 1.14757 0
M  V30 6156 C 582.118 0.82895 1.90114 0
M  V30 6157 C 582.543 -0.612772 1.77839 0
M  V30 6158 O 581.901 -1.42895 1.11583 0
M  V30 6159 C 581.949 1.25062 3.38219 0
M  V30 6160 O 581.053 0.400119 4.10454 0
M  V30 6161 H 580.394 0.301412 0.591648 0
M  V30 6162 H 582.924 1.44062 1.45284 0
M  V30 6163 H 582.934 1.22977 3.89025 0
M  V30 6164 H 581.609 2.30067 3.46471 0
M  V30 6165 H 580.186 0.484052 3.69745 0
M  V30 6166 N 582.371 -1.3172 0.865308 0
M  V30 6167 C 583.303 -2.27545 0.274906 0
M  V30 6168 C 584.316 -1.52887 -0.559413 0
M  V30 6169 O 585.505 -1.74361 -0.382166 0
M  V30 6170 C 582.605 -3.33006 -0.629286 0
M  V30 6171 C 581.778 -4.37063 0.171553 0
M  V30 6172 C 580.837 -5.22044 -0.660052 0
M  V30 6173 O 579.863 -5.69129 -0.0897527 0
M  V30 6174 N 581.065 -5.45946 -1.97289 0
M  V30 6175 H 583.83 -2.78848 1.09836 0
M  V30 6176 H 581.391 -1.44693 0.726331 0
M  V30 6177 H 583.383 -3.86772 -1.19121 0
M  V30 6178 H 581.953 -2.81782 -1.35342 0
M  V30 6179 H 581.173 -3.83436 0.914919 0
M  V30 6180 H 582.461 -5.03662 0.721235 0
M  V30 6181 H 581.859 -5.0944 -2.45942 0
M  V30 6182 H 580.416 -6.02665 -2.4827 0
M  V30 6183 N 583.85 -0.624285 -1.44708 0
M  V30 6184 C 585.099 -0.123539 -2.01321 0
M  V30 6185 C 585.412 1.25966 -1.49639 0
M  V30 6186 O 586.618 1.85405 -1.98336 0
M  V30 6187 C 585.074 -0.170124 -3.59498 0
M  V30 6188 C 584.682 -1.55421 -4.20176 0
M  V30 6189 C 586.426 0.274513 -4.23611 0
M  V30 6190 C 584.332 -1.55628 -5.70556 0
M  V30 6191 H 583.263 -0.0424183 -0.752806 0
M  V30 6192 H 585.913 -0.782076 -1.65999 0
M  V30 6193 H 584.296 0.555385 -3.92086 0
M  V30 6194 H 585.47 -2.30276 -3.99136 0
M  V30 6195 H 583.784 -1.94235 -3.68323 0
M  V30 6196 H 586.382 0.292402 -5.339 0
M  V30 6197 H 586.725 1.3005 -3.95465 0
M  V30 6198 H 587.258 -0.398275 -3.95801 0
M  V30 6199 H 583.997 -2.56041 -6.03426 0
M  V30 6200 H 583.517 -0.850563 -5.93739 0
M  V30 6201 H 585.196 -1.28721 -6.34066 0
M  V30 6202 N 585.328 1.53329 -0.364422 0
M  V30 6203 C 586.577 2.00421 0.226747 0
M  V30 6204 C 586.89 1.25581 1.49963 0
M  V30 6205 O 588.096 1.63256 2.16933 0
M  V30 6206 C 586.552 3.57017 0.454618 0
M  V30 6207 C 586.16 4.40734 -0.803568 0
M  V30 6208 C 587.904 4.12468 1.00351 0
M  V30 6209 C 585.811 5.8888 -0.545345 0
M  V30 6210 H 584.741 0.748787 0.0885082 0
M  V30 6211 H 587.392 1.7703 -0.482983 0
M  V30 6212 H 585.774 3.76558 1.22558 0
M  V30 6213 H 586.948 4.32967 -1.57723 0
M  V30 6214 H 585.263 3.96381 -1.27559 0
M  V30 6215 H 587.86 5.20783 1.212 0
M  V30 6216 H 588.203 3.6699 1.9653 0
M  V30 6217 H 588.736 3.96721 0.29274 0
M  V30 6218 H 585.475 6.38633 -1.47743 0
M  V30 6219 H 584.995 5.99499 0.189842 0
M  V30 6220 H 586.674 6.46776 -0.170425 0
M  V30 6221 N 586.806 0.0935595 1.57322 0
M  V30 6222 C 588.217 -0.435807 1.81542 0
M  V30 6223 C 588.568 -1.68263 1.00907 0
M  V30 6224 O 587.693 -2.15087 0.237983 0
M  V30 6225 C 588.288 -0.797436 3.29282 0
M  V30 6226 C 586.847 -1.27155 3.54272 0
M  V30 6227 C 585.994 -0.267455 2.76007 0
M  V30 6228 H 588.945 0.31902 1.5546 0
M  V30 6229 H 588.966 -1.6571 3.42521 0
M  V30 6230 H 588.478 0.110206 3.87943 0
M  V30 6231 H 586.579 -2.19696 3.00939 0
M  V30 6232 H 586.692 -1.23445 4.62923 0
M  V30 6233 H 585.056 -0.749282 2.43429 0
M  V30 6234 H 585.839 0.632839 3.37417 0
M  V30 6235 N 588.284 -1.56567 -0.180126 0
M  V30 6236 C 589.512 -1.85618 -0.913972 0
M  V30 6237 C 589.927 -0.677892 -1.7621 0
M  V30 6238 O 589.284 0.353171 -1.7905 0
M  V30 6239 C 589.335 -3.13619 -1.79793 0
M  V30 6240 O 589.056 -4.26906 -0.98402 0
M  V30 6241 C 590.557 -3.55954 -2.64219 0
M  V30 6242 H 587.777 -0.616043 -0.265954 0
M  V30 6243 H 590.321 -2.03681 -0.182872 0
M  V30 6244 H 588.476 -2.97409 -2.48247 0
M  V30 6245 H 588.89 -4.9989 -1.58776 0
M  V30 6246 H 590.364 -4.48444 -3.21873 0
M  V30 6247 H 590.841 -2.79653 -3.38661 0
M  V30 6248 H 591.447 -3.74746 -2.01111 0
M  V30 6249 N 589.762 0.448376 -1.51087 0
M  V30 6250 C 590.725 1.52588 -1.71025 0
M  V30 6251 C 591.725 1.49958 -0.580442 0
M  V30 6252 O 592.915 1.52176 -0.847833 0
M  V30 6253 C 590.047 2.92163 -1.75652 0
M  V30 6254 H 591.24 1.36218 -2.67179 0
M  V30 6255 H 588.793 0.676313 -1.4091 0
M  V30 6256 H 589.528 3.13951 -0.812724 0
M  V30 6257 H 589.313 2.95478 -2.57751 0
M  V30 6258 H 590.803 3.70349 -1.92953 0
M  V30 6259 N 591.24 1.41047 0.703093 0
M  V30 6260 C 592.187 1.42302 1.81711 0
M  V30 6261 C 593.157 0.278336 1.63751 0
M  V30 6262 O 594.342 0.478266 1.84709 0
M  V30 6263 C 591.482 1.30362 3.19531 0
M  V30 6264 C 590.595 2.54638 3.48975 0
M  V30 6265 C 589.73 2.35047 4.76368 0
M  V30 6266 C 588.769 3.54837 4.98756 0
M  V30 6267 N 587.906 3.34363 6.1737 0
M  V30 6268 H 592.746 2.37516 1.79973 0
M  V30 6269 H 590.283 1.1795 0.878983 0
M  V30 6270 H 592.241 1.21443 3.99134 0
M  V30 6271 H 590.871 0.387602 3.20464 0
M  V30 6272 H 589.923 2.74037 2.63833 0
M  V30 6273 H 591.235 3.43766 3.61423 0
M  V30 6274 H 590.389 2.23552 5.64012 0
M  V30 6275 H 589.128 1.43363 4.66153 0
M  V30 6276 H 588.133 3.66795 4.09563 0
M  V30 6277 H 589.358 4.47464 5.10835 0
M  V30 6278 H 587.304 2.45373 6.08382 0
M  V30 6279 H 587.221 4.17063 6.30551 0
M  V30 6280 H 588.489 3.26626 7.07768 0
M  V30 6281 N 592.718 -0.936591 1.26751 0
M  V30 6282 C 593.628 -2.06949 1.10496 0
M  V30 6283 C 594.644 -1.7396 0.037271 0
M  V30 6284 O 595.82 -1.99941 0.241944 0
M  V30 6285 C 592.885 -3.38612 0.744491 0
M  V30 6286 C 591.946 -3.85355 1.89209 0
M  V30 6287 C 591.179 -5.10735 1.54873 0
M  V30 6288 O 591.402 -5.68602 0.452546 0
M  V30 6289 O 590.336 -5.52632 2.38499 0
M  V30 6290 H 594.162 -2.23571 2.05547 0
M  V30 6291 H 591.747 -1.05428 1.05855 0
M  V30 6292 H 593.629 -4.17711 0.556396 0
M  V30 6293 H 592.304 -3.23218 -0.176582 0
M  V30 6294 H 591.211 -3.07182 2.13518 0
M  V30 6295 H 592.544 -4.05277 2.79305 0
M  V30 6296 N 594.196 -1.08629 -1.14182 0
M  V30 6297 C 595.424 -0.838889 -1.8913 0
M  V30 6298 C 595.839 0.609153 -1.78703 0
M  V30 6299 O 595.196 1.41876 -1.14794 0
M  V30 6300 C 595.247 -1.25477 -3.39025 0
M  V30 6301 O 594.968 -2.64601 -3.49167 0
M  V30 6302 C 596.469 -1.03856 -4.30963 0
M  V30 6303 H 593.689 -0.302377 -0.599007 0
M  V30 6304 H 596.233 -1.44615 -1.44592 0
M  V30 6305 H 594.388 -0.691571 -3.81177 0
M  V30 6306 H 594.802 -2.81922 -4.42289 0
M  V30 6307 H 596.276 -1.37892 -5.345 0
M  V30 6308 H 596.753 0.0242522 -4.39193 0
M  V30 6309 H 597.359 -1.58731 -3.94569 0
M  V30 6310 N 595.674 1.31259 -0.872281 0
M  V30 6311 C 596.92 1.973 -0.494414 0
M  V30 6312 C 597.275 1.67684 0.94339 0
M  V30 6313 O 596.568 0.964186 1.65572 0
M  V30 6314 C 596.762 3.50659 -0.690889 0
M  V30 6315 C 596.591 3.95179 -2.14624 0
M  V30 6316 C 595.361 4.21405 -2.7883 0
M  V30 6317 C 597.559 4.08948 -3.11875 0
M  V30 6318 N 595.541 4.52295 -4.15093 0
M  V30 6319 C 596.912 4.43576 -4.33174 0
M  V30 6320 C 598.967 3.91334 -3.07835 0
M  V30 6321 C 597.67 4.62429 -5.50956 0
M  V30 6322 C 599.696 4.11381 -4.24876 0
M  V30 6323 C 599.058 4.46343 -5.44938 0
M  V30 6324 H 595.157 0.747411 -0.230002 0
M  V30 6325 H 597.741 1.58741 -1.12736 0
M  V30 6326 H 595.912 3.88301 -0.0875162 0
M  V30 6327 H 597.644 4.03722 -0.281179 0
M  V30 6328 H 594.399 4.14131 -2.29767 0
M  V30 6329 H 594.823 4.71897 -4.8543 0
M  V30 6330 H 599.465 3.6339 -2.16119 0
M  V30 6331 H 597.183 4.8922 -6.43187 0
M  V30 6332 H 600.769 3.99235 -4.23205 0
M  V30 6333 H 599.649 4.6154 -6.33996 0
M  V30 6334 N 597.152 0.631951 1.44375 0
M  V30 6335 C 598.082 -0.0593243 2.33425 0
M  V30 6336 C 599.063 -0.833964 1.48253 0
M  V30 6337 O 600.248 -0.799682 1.76971 0
M  V30 6338 C 597.378 -1.04096 3.31333 0
M  V30 6339 C 596.332 -0.377899 4.26328 0
M  V30 6340 C 595.658 -1.4695 5.14111 0
M  V30 6341 C 596.958 0.716371 5.17364 0
M  V30 6342 H 598.652 0.684287 2.91475 0
M  V30 6343 H 596.198 0.330518 1.40156 0
M  V30 6344 H 598.151 -1.53331 3.92514 0
M  V30 6345 H 596.875 -1.81547 2.71493 0
M  V30 6346 H 595.534 0.0938054 3.6648 0
M  V30 6347 H 595.182 -2.2349 4.50623 0
M  V30 6348 H 594.882 -1.03121 5.78481 0
M  V30 6349 H 596.406 -1.96363 5.78164 0
M  V30 6350 H 597.82 0.307089 5.72477 0
M  V30 6351 H 596.217 1.07784 5.90341 0
M  V30 6352 H 597.287 1.58316 4.58327 0
M  V30 6353 N 598.631 -1.53133 0.372548 0
M  V30 6354 C 599.594 -2.24569 -0.458389 0
M  V30 6355 C 600.594 -1.25603 -1.00402 0
M  V30 6356 O 601.784 -1.49827 -0.888672 0
M  V30 6357 C 598.916 -2.98783 -1.6414 0
M  V30 6358 H 600.109 -2.99436 0.166799 0
M  V30 6359 H 597.662 -1.55805 0.124357 0
M  V30 6360 H 598.397 -2.28176 -2.30448 0
M  V30 6361 H 598.182 -3.71404 -1.25704 0
M  V30 6362 H 599.672 -3.53068 -2.23008 0
M  V30 6363 N 600.109 -0.101901 -1.5727 0
M  V30 6364 C 601.039 0.851544 -2.17419 0
M  V30 6365 C 602.02 1.28942 -1.10941 0
M  V30 6366 O 603.205 1.35509 -1.39107 0
M  V30 6367 C 600.335 2.10816 -2.75996 0
M  V30 6368 C 599.289 1.80867 -3.87906 0
M  V30 6369 C 598.615 3.13413 -4.33216 0
M  V30 6370 C 599.915 1.0903 -5.10793 0
M  V30 6371 H 601.609 0.350381 -2.97343 0
M  V30 6372 H 599.155 0.16709 -1.43027 0
M  V30 6373 H 601.108 2.77959 -3.16729 0
M  V30 6374 H 599.832 2.63227 -1.93337 0
M  V30 6375 H 598.491 1.16119 -3.47724 0
M  V30 6376 H 598.139 3.63725 -3.47438 0
M  V30 6377 H 597.839 2.94155 -5.08671 0
M  V30 6378 H 599.363 3.81704 -4.76586 0
M  V30 6379 H 600.777 1.66295 -5.48652 0
M  V30 6380 H 599.174 0.99927 -5.91722 0
M  V30 6381 H 600.244 0.0741704 -4.84843 0
M  V30 6382 N 601.587 1.56661 0.17182 0
M  V30 6383 C 602.517 1.99401 1.21498 0
M  V30 6384 C 603.498 0.869516 1.46197 0
M  V30 6385 O 604.683 1.13556 1.57539 0
M  V30 6386 C 601.813 2.35346 2.55401 0
M  V30 6387 C 600.767 3.5075 2.45272 0
M  V30 6388 C 600.093 3.72437 3.8366 0
M  V30 6389 C 601.393 4.84216 1.95787 0
M  V30 6390 H 603.087 2.86792 0.859699 0
M  V30 6391 H 600.633 1.37977 0.412103 0
M  V30 6392 H 602.586 2.63843 3.2858 0
M  V30 6393 H 601.31 1.44864 2.92715 0
M  V30 6394 H 599.969 3.2238 1.74547 0
M  V30 6395 H 599.617 2.79246 4.18367 0
M  V30 6396 H 599.317 4.50087 3.77751 0
M  V30 6397 H 600.841 4.03334 4.58426 0
M  V30 6398 H 602.255 5.11592 2.5874 0
M  V30 6399 H 600.652 5.65498 2.00827 0
M  V30 6400 H 601.722 4.76243 0.912159 0
M  V30 6401 N 603.065 -0.440357 1.51323 0
M  V30 6402 C 604.293 -1.21255 1.67645 0
M  V30 6403 C 604.708 -1.85088 0.37252 0
M  V30 6404 O 604.065 -1.70582 -0.648683 0
M  V30 6405 C 604.116 -2.29881 2.78993 0
M  V30 6406 O 603.837 -1.68659 4.04334 0
M  V30 6407 C 605.338 -3.20214 3.06558 0
M  V30 6408 H 602.558 -0.36558 0.562666 0
M  V30 6409 H 605.102 -0.52214 1.97722 0
M  V30 6410 H 603.257 -2.94643 2.51524 0
M  V30 6411 H 603.671 -2.40426 4.6615 0
M  V30 6412 H 605.145 -3.92575 3.88058 0
M  V30 6413 H 605.622 -3.80794 2.18844 0
M  V30 6414 H 606.228 -2.61156 3.35675 0
M  V30 6415 N 604.543 -1.41418 -0.695603 0
M  V30 6416 C 605.792 -1.40073 -1.4513 0
M  V30 6417 C 606.105 -0.0130439 -1.95596 0
M  V30 6418 O 607.311 0.123032 -2.71221 0
M  V30 6419 C 605.767 -2.46286 -2.62433 0
M  V30 6420 C 605.375 -3.90962 -2.18753 0
M  V30 6421 C 607.119 -2.54077 -3.40066 0
M  V30 6422 C 605.026 -4.88728 -3.33015 0
M  V30 6423 H 603.956 -0.520903 -0.545138 0
M  V30 6424 H 606.607 -1.67242 -0.75515 0
M  V30 6425 H 604.989 -2.12248 -3.34315 0
M  V30 6426 H 606.163 -4.34248 -1.54161 0
M  V30 6427 H 604.478 -3.86831 -1.54114 0
M  V30 6428 H 607.075 -3.24303 -4.25125 0
M  V30 6429 H 607.418 -1.5776 -3.8525 0
M  V30 6430 H 607.951 -2.87206 -2.75241 0
M  V30 6431 H 604.69 -5.86449 -2.92844 0
M  V30 6432 H 604.21 -4.50091 -3.96457 0
M  V30 6433 H 605.889 -5.09483 -3.98793 0
M  V30 6434 N 606.021 0.929856 -1.27246 0
M  V30 6435 C 606.954 2.03069 -1.04106 0
M  V30 6436 C 607.932 1.62556 0.0378417 0
M  V30 6437 O 609.116 1.88197 -0.106869 0
M  V30 6438 C 606.243 3.33718 -0.578778 0
M  V30 6439 C 605.289 3.93209 -1.65193 0
M  V30 6440 S 606.122 4.26068 -3.24386 0
M  V30 6441 C 607.278 5.598 -2.79954 0
M  V30 6442 H 607.511 2.22386 -1.97311 0
M  V30 6443 H 605.044 1.07269 -1.11053 0
M  V30 6444 H 607.002 4.09261 -0.31874 0
M  V30 6445 H 605.663 3.12328 0.333182 0
M  V30 6446 H 604.856 4.87482 -1.27973 0
M  V30 6447 H 604.458 3.24243 -1.86393 0
M  V30 6448 H 606.75 6.39004 -2.25123 0
M  V30 6449 H 607.693 6.01917 -3.72963 0
M  V30 6450 H 608.101 5.20219 -2.19164 0
M  V30 6451 N 607.499 1.09233 1.13605 0
M  V30 6452 C 608.409 0.741939 2.22559 0
M  V30 6453 C 609.425 -0.255236 1.72118 0
M  V30 6454 O 610.601 -0.0970747 2.01166 0
M  V30 6455 C 607.666 0.165595 3.46304 0
M  V30 6456 C 606.727 1.21846 4.11645 0
M  V30 6457 C 605.96 0.669526 5.29484 0
M  V30 6458 O 606.183 -0.508228 5.68131 0
M  V30 6459 O 605.117 1.42361 5.84822 0
M  V30 6460 H 608.943 1.65107 2.54899 0
M  V30 6461 H 606.528 0.866584 1.21699 0
M  V30 6462 H 608.41 -0.152592 4.21124 0
M  V30 6463 H 607.085 -0.716573 3.15669 0
M  V30 6464 H 605.992 1.58931 3.38662 0
M  V30 6465 H 607.325 2.07321 4.46407 0
M  V30 6466 N 608.977 -1.30795 0.87923 0
M  V30 6467 C 609.927 -2.25838 0.313276 0
M  V30 6468 C 610.911 -1.51025 -0.55499 0
M  V30 6469 O 612.103 -1.72413 -0.400353 0
M  V30 6470 C 609.232 -3.39981 -0.476204 0
M  V30 6471 C 608.318 -4.22154 0.405826 0
M  V30 6472 N 608.709 -4.82934 1.50362 0
M  V30 6473 C 607.007 -4.45552 0.199909 0
M  V30 6474 C 607.708 -5.44444 2.0483 0
M  V30 6475 N 606.684 -5.26723 1.34403 0
M  V30 6476 H 610.486 -2.70374 1.15218 0
M  V30 6477 H 608 -1.45168 0.728003 0
M  V30 6478 H 609.997 -4.07108 -0.898251 0
M  V30 6479 H 608.657 -2.96986 -1.31261 0
M  V30 6480 H 609.668 -4.82319 1.8865 0
M  V30 6481 H 606.345 -4.13169 -0.599795 0
M  V30 6482 H 607.735 -6.02701 2.96986 0
M  V30 6483 N 610.455 -0.639598 -1.44038 0
M  V30 6484 C 611.683 -0.154811 -2.0632 0
M  V30 6485 C 612.098 1.17406 -1.47856 0
M  V30 6486 O 611.455 1.72193 -0.604638 0
M  V30 6487 C 611.506 -0.0429958 -3.61474 0
M  V30 6488 O 611.227 -1.31932 -4.17763 0
M  V30 6489 C 612.728 0.469486 -4.40807 0
M  V30 6490 H 609.948 -0.0835862 -0.665773 0
M  V30 6491 H 612.492 -0.876397 -1.84769 0
M  V30 6492 H 610.647 0.629075 -3.82258 0
M  V30 6493 H 611.061 -1.16965 -5.11292 0
M  V30 6494 H 612.535 0.496712 -5.49761 0
M  V30 6495 H 613.012 1.49819 -4.12857 0
M  V30 6496 H 613.618 -0.169624 -4.24962 0
M  V30 6497 N 611.933 1.52934 -0.380664 0
M  V30 6498 C 612.863 2.29118 0.450268 0
M  V30 6499 C 613.844 1.32153 1.07096 0
M  V30 6500 O 615.029 1.61038 1.08537 0
M  V30 6501 C 612.159 3.09161 1.58231 0
M  V30 6502 C 611.113 4.13938 1.0881 0
M  V30 6503 C 610.439 4.82153 2.31155 0
M  V30 6504 C 611.739 5.22048 0.162146 0
M  V30 6505 H 613.433 2.98826 -0.185361 0
M  V30 6506 H 610.979 1.43715 -0.0905886 0
M  V30 6507 H 612.932 3.61211 2.17036 0
M  V30 6508 H 611.656 2.3717 2.2454 0
M  V30 6509 H 610.315 3.62855 0.522633 0
M  V30 6510 H 609.963 4.06719 2.95953 0
M  V30 6511 H 609.663 5.52966 1.98752 0
M  V30 6512 H 611.187 5.37004 2.90618 0
M  V30 6513 H 612.601 5.6951 0.658126 0
M  V30 6514 H 610.998 6.00057 -0.0717122 0
M  V30 6515 H 612.068 4.78398 -0.791438 0
M  V30 6516 N 613.412 0.11024 1.57214 0
M  V30 6517 C 614.36 -0.860586 2.16094 0
M  V30 6518 C 615.354 -1.28156 1.1078 0
M  V30 6519 O 616.56 -1.25433 1.29099 0
M  V30 6520 H 612.935 -0.295606 0.691463 0
M  V30 6521 H 614.906 -0.33942 2.96463 0
M  V30 6522 C 613.655 -2.10421 2.768 0
M  V30 6523 H 612.978 -1.7892 3.5753 0
M  V30 6524 H 614.418 -2.76375 3.21547 0
M  V30 6525 C 612.877 -2.88823 1.73444 0
M  V30 6526 O 613.407 -3.839 1.18251 0
M  V30 6527 N 611.613 -2.52649 1.43586 0
M  V30 6528 H 611.16 -1.754 1.8866 0
M  V30 6529 H 611.118 -3.05403 0.746735 0
M  V30 6530 N 614.89 -1.56749 -0.16351 0
M  V30 6531 C 615.84 -1.93424 -1.20712 0
M  V30 6532 C 616.824 -0.803469 -1.39403 0
M  V30 6533 O 618.016 -1.06675 -1.41243 0
M  V30 6534 C 615.145 -2.30431 -2.54473 0
M  V30 6535 C 614.231 -3.5004 -2.39443 0
M  V30 6536 N 614.622 -4.67058 -1.9414 0
M  V30 6537 C 612.92 -3.548 -2.70246 0
M  V30 6538 C 613.621 -5.49184 -1.9176 0
M  V30 6539 N 612.597 -4.9044 -2.34457 0
M  V30 6540 H 616.399 -2.8138 -0.848681 0
M  V30 6541 H 613.913 -1.58089 -0.371717 0
M  V30 6542 H 615.91 -2.54903 -3.29894 0
M  V30 6543 H 614.57 -1.43818 -2.91112 0
M  V30 6544 H 615.581 -4.91128 -1.64357 0
M  V30 6545 H 612.258 -2.78685 -3.10871 0
M  V30 6546 H 613.648 -6.5297 -1.58366 0
M  V30 6547 N 616.368 0.432326 -1.51554 0
M  V30 6548 C 617.779 1.01202 -1.56892 0
M  V30 6549 C 618.13 1.92175 -0.395394 0
M  V30 6550 O 617.255 2.10844 0.487198 0
M  V30 6551 C 617.85 1.84217 -2.8434 0
M  V30 6552 C 616.409 2.37228 -2.92233 0
M  V30 6553 C 615.556 1.16576 -2.51606 0
M  V30 6554 H 618.507 0.213407 -1.57259 0
M  V30 6555 H 618.528 2.69721 -2.68385 0
M  V30 6556 H 618.04 1.17979 -3.69733 0
M  V30 6557 H 616.141 3.06905 -2.11282 0
M  V30 6558 H 616.254 2.69682 -3.95991 0
M  V30 6559 H 614.618 1.51263 -2.04919 0
M  V30 6560 H 615.401 0.519404 -3.39348 0
M  V30 6561 N 617.846 1.41785 0.688094 0
M  V30 6562 C 619.076 1.44705 1.47459 0
M  V30 6563 C 619.484 0.052916 1.89126 0
M  V30 6564 O 618.827 -0.939781 1.57841 0
M  V30 6565 C 618.889 2.29935 2.76352 0
M  V30 6566 C 618.553 3.77996 2.56843 0
M  V30 6567 C 619.55 4.69976 2.22304 0
M  V30 6568 C 617.235 4.2212 2.7225 0
M  V30 6569 C 619.229 6.04068 2.03421 0
M  V30 6570 C 616.916 5.56275 2.52985 0
M  V30 6571 C 617.914 6.47065 2.18621 0
M  V30 6572 O 617.602 7.78744 1.9953 0
M  V30 6573 H 617.334 0.494703 0.460701 0
M  V30 6574 H 619.888 1.86802 0.854057 0
M  V30 6575 H 618.118 1.82664 3.40839 0
M  V30 6576 H 619.807 2.24467 3.38186 0
M  V30 6577 H 620.573 4.37175 2.10008 0
M  V30 6578 H 616.452 3.51752 2.97979 0
M  V30 6579 H 619.996 6.74897 1.76523 0
M  V30 6580 H 615.893 5.88653 2.64873 0
M  V30 6581 H 616.661 7.89966 2.14234 0
M  V30 6582 O 619.363 -0.830368 1.38518 0
M  V30 6583 H 620.054 -1.47302 1.25785 0
M  V30 END ATOM
M  V30 BEGIN BOND
M  V30 END BOND
M  V30 END CTAB
M  END
$$$$
