drugbank_target|O60502 Protein O-GlcNAcase (DB00428)
 OpenBabel12092121033D

  0  0  0     0  0            999 V3000
M  V30 BEGIN CTAB
M  V30 COUNTS 14305 14471 0 0 0
M  V30 BEGIN ATOM
M  V30 1 H -0.908 1.98254 -0.117106 0
M  V30 2 N 0 1.576 0 0
M  V30 3 C 0.933 2.03868 1.02534 0
M  V30 4 C 1.911 0.928543 1.3348 0
M  V30 5 O 3.095 1.19667 1.45644 0
M  V30 6 C 0.222 2.43627 2.35294 0
M  V30 7 C -0.732 3.65373 2.2001 0
M  V30 8 S 0.101 5.13292 1.52614 0
M  V30 9 C 1.257 5.56322 2.86805 0
M  V30 10 H 1.49 2.90518 0.631377 0
M  V30 11 H -0.977 1.52953 0.210867 0
M  V30 12 H 0.981 2.67203 3.11629 0
M  V30 13 H -0.358 1.57376 2.7183 0
M  V30 14 H -1.165 3.90944 3.18086 0
M  V30 15 H -1.563 3.418 1.51819 0
M  V30 16 H 0.729 5.58782 3.83104 0
M  V30 17 H 1.672 6.56266 2.65933 0
M  V30 18 H 2.08 4.83886 2.90714 0
M  V30 19 N 1.4781 -0.272755 1.55222 0
M  V30 20 C 2.7241 -1.00581 1.761 0
M  V30 21 C 3.0571 -1.85932 0.560625 0
M  V30 22 O 2.3321 -1.89416 -0.441801 0
M  V30 23 C 2.6151 -1.88816 3.06628 0
M  V30 24 C 2.4681 -1.06457 4.37021 0
M  V30 25 C 3.7871 -2.8752 3.33197 0
M  V30 26 H 0.9061 -0.364244 0.640699 0
M  V30 27 H 3.5481 -0.278189 1.87952 0
M  V30 28 H 1.6981 -2.50856 2.96654 0
M  V30 29 H 3.3701 -0.464863 4.58952 0
M  V30 30 H 1.6131 -0.368043 4.32236 0
M  V30 31 H 2.2841 -1.71514 5.24678 0
M  V30 32 H 4.7601 -2.35615 3.42965 0
M  V30 33 H 3.6361 -3.46399 4.25792 0
M  V30 34 H 3.8971 -3.62657 2.52849 0
M  V30 35 N 2.9562 -1.48159 -0.537278 0
M  V30 36 C 3.8882 -1.58218 -1.65831 0
M  V30 37 C 4.9012 -0.466948 -1.5596 0
M  V30 38 O 6.0902 -0.73747 -1.62553 0
M  V30 39 C 3.1902 -1.48906 -3.04434 0
M  V30 40 C 2.3632 -2.75343 -3.3986 0
M  V30 41 C 1.4222 -2.59588 -4.57712 0
M  V30 42 O 0.4482 -3.33457 -4.61297 0
M  V30 43 N 1.6502 -1.68724 -5.55439 0
M  V30 44 H 4.4152 -2.54891 -1.57641 0
M  V30 45 H 1.9762 -1.4479 -0.724386 0
M  V30 46 H 3.9682 -1.36072 -3.81139 0
M  V30 47 H 2.5382 -0.602368 -3.06741 0
M  V30 48 H 1.7582 -3.02795 -2.52406 0
M  V30 49 H 3.0462 -3.5924 -3.60311 0
M  V30 50 H 2.4442 -1.07898 -5.55315 0
M  V30 51 H 1.0012 -1.61832 -6.3139 0
M  V30 52 N 4.4343 0.785586 -1.36625 0
M  V30 53 C 5.3813 1.89838 -1.31264 0
M  V30 54 C 6.3513 1.65115 -0.180633 0
M  V30 55 O 7.5363 1.87222 -0.36777 0
M  V30 56 C 4.6763 3.26706 -1.11163 0
M  V30 57 C 3.7893 3.63476 -2.33472 0
M  V30 58 C 2.9243 4.89481 -2.06353 0
M  V30 59 C 1.9633 5.18941 -3.24602 0
M  V30 60 N 1.1003 6.36131 -2.97123 0
M  V30 61 H 5.9403 1.93756 -2.26413 0
M  V30 62 H 3.4773 0.947454 -1.12524 0
M  V30 63 H 5.4353 4.05639 -0.975337 0
M  V30 64 H 4.0653 3.222 -0.196674 0
M  V30 65 H 3.1173 2.79636 -2.57891 0
M  V30 66 H 4.4293 3.81193 -3.21704 0
M  V30 67 H 3.5833 5.76288 -1.89675 0
M  V30 68 H 2.3223 4.73841 -1.15437 0
M  V30 69 H 1.3273 4.30615 -3.41834 0
M  V30 70 H 2.5523 5.36498 -4.16349 0
M  V30 71 H 0.4983 6.21875 -2.08823 0
M  V30 72 H 0.4153 6.54198 -3.78894 0
M  V30 73 H 1.6833 7.2591 -2.84033 0
M  V30 74 N 5.9124 1.20967 1.01018 0
M  V30 75 C 6.8224 0.980157 2.13143 0
M  V30 76 C 7.8384 -0.0660665 1.73875 0
M  V30 77 O 9.0144 0.122821 2.01025 0
M  V30 78 C 6.0794 0.54216 3.42435 0
M  V30 79 C 5.1404 1.65999 3.95908 0
M  V30 80 C 4.3734 1.2428 5.19028 0
M  V30 81 O 4.5964 0.114196 5.70286 0
M  V30 82 O 3.5304 2.05271 5.65816 0
M  V30 83 H 7.3564 1.91913 2.35379 0
M  V30 84 H 4.9414 0.994099 1.11526 0
M  V30 85 H 6.8234 0.30744 4.20277 0
M  V30 86 H 5.4984 -0.36815 3.216 0
M  V30 87 H 4.4054 1.94906 3.19316 0
M  V30 88 H 5.7384 2.54753 4.21143 0
M  V30 89 N 7.3905 -1.2043 1.01659 0
M  V30 90 C 8.6155 -1.94318 0.724942 0
M  V30 91 C 9.0405 -1.74266 -0.708034 0
M  V30 92 O 8.3985 -1.03694 -1.48719 0
M  V30 93 C 8.4465 -3.44486 1.06591 0
M  V30 94 O 7.5505 -4.12017 0.177599 0
M  V30 95 H 6.8915 -0.60708 0.26898 0
M  V30 96 H 9.4215 -1.52861 1.35995 0
M  V30 97 H 9.4315 -3.95106 1.01762 0
M  V30 98 H 8.1065 -3.58404 2.10997 0
M  V30 99 H 6.6835 -3.71821 0.283421 0
M  V30 100 N 8.8686 -0.792821 -1.36206 0
M  V30 101 C 9.8006 -0.151469 -2.28699 0
M  V30 102 C 10.8136 0.641262 -1.49638 0
M  V30 103 O 12.0026 0.475885 -1.72039 0
M  V30 104 C 9.1026 0.808424 -3.29117 0
M  V30 105 C 8.2756 0.0650202 -4.37352 0
M  V30 106 C 7.3346 0.941358 -5.17711 0
M  V30 107 O 6.3606 0.397352 -5.67811 0
M  V30 108 N 7.5626 2.2652 -5.3448 0
M  V30 109 H 10.3276 -0.945982 -2.84379 0
M  V30 110 H 7.8886 -0.647032 -1.48409 0
M  V30 111 H 9.8806 1.3986 -3.79765 0
M  V30 112 H 8.4506 1.5038 -2.74052 0
M  V30 113 H 7.6706 -0.706255 -3.87822 0
M  V30 114 H 8.9586 -0.447847 -5.06825 0
M  V30 115 H 8.3566 2.73128 -4.95396 0
M  V30 116 H 6.9136 2.80493 -5.88359 0
M  V30 117 N 10.3467 1.47872 -0.545128 0
M  V30 118 C 11.3097 2.28337 0.198717 0
M  V30 119 C 12.3097 1.36255 0.853888 0
M  V30 120 O 13.4997 1.59003 0.711606 0
M  V30 121 C 10.6317 3.15585 1.28915 0
M  V30 122 H 11.8247 2.95567 -0.507941 0
M  V30 123 H 9.3777 1.53362 -0.301616 0
M  V30 124 H 10.1127 2.53019 2.02859 0
M  V30 125 H 9.8977 3.83337 0.824309 0
M  V30 126 H 11.3877 3.76243 1.81194 0
M  V30 127 N 11.8248 0.280983 1.55075 0
M  V30 128 C 13.0528 -0.337293 2.04132 0
M  V30 129 C 13.4678 -1.4903 1.15912 0
M  V30 130 O 12.8248 -1.81606 0.180459 0
M  V30 131 C 12.8758 -0.812706 3.52246 0
M  V30 132 O 12.5968 0.294387 4.3711 0
M  V30 133 C 14.0978 -1.4982 4.17216 0
M  V30 134 H 11.3178 -0.0761638 0.666663 0
M  V30 135 H 13.8618 0.414787 2.00249 0
M  V30 136 H 12.0168 -1.51486 3.56554 0
M  V30 137 H 12.4308 -0.0721325 5.2445 0
M  V30 138 H 13.9048 -1.7822 5.22438 0
M  V30 139 H 14.3818 -2.43168 3.65741 0
M  V30 140 H 14.9878 -0.839742 4.16927 0
M  V30 141 N 13.3029 -1.57598 0.00835791 0
M  V30 142 C 14.2329 -2.1198 -0.979113 0
M  V30 143 C 15.2139 -1.03091 -1.35301 0
M  V30 144 O 16.3989 -1.30818 -1.43528 0
M  V30 145 C 13.5289 -2.62995 -2.26828 0
M  V30 146 C 12.4829 -3.76485 -2.03576 0
M  V30 147 C 11.8089 -4.13846 -3.38579 0
M  V30 148 C 13.1089 -5.0342 -1.39161 0
M  V30 149 H 14.8029 -2.94738 -0.526281 0
M  V30 150 H 12.3489 -1.41783 -0.251704 0
M  V30 151 H 14.3019 -2.99669 -2.96271 0
M  V30 152 H 13.0259 -1.7737 -2.7424 0
M  V30 153 H 11.6849 -3.40217 -1.36557 0
M  V30 154 H 11.3329 -3.25232 -3.83709 0
M  V30 155 H 11.0329 -4.90312 -3.23834 0
M  V30 156 H 12.5569 -4.53086 -4.09323 0
M  V30 157 H 13.9709 -5.37812 -1.98573 0
M  V30 158 H 12.3679 -5.84746 -1.34878 0
M  V30 159 H 13.4379 -4.83548 -0.361868 0
M  V30 160 N 14.781 0.264519 -1.55364 0
M  V30 161 C 15.691 1.34902 -1.91934 0
M  V30 162 C 16.707 1.53595 -0.817593 0
M  V30 163 O 17.883 1.67558 -1.11742 0
M  V30 164 C 14.948 2.68676 -2.19121 0
M  V30 165 C 14.009 2.58657 -3.4263 0
M  V30 166 C 13.242 3.86051 -3.68511 0
M  V30 167 O 13.465 4.87126 -2.96757 0
M  V30 168 O 12.399 3.85744 -4.62045 0
M  V30 169 H 16.225 1.06883 -2.8427 0
M  V30 170 H 13.81 0.463775 -1.42019 0
M  V30 171 H 15.692 3.47759 -2.37995 0
M  V30 172 H 14.367 2.96463 -1.29966 0
M  V30 173 H 13.274 1.7792 -3.29082 0
M  V30 174 H 14.607 2.35818 -4.32031 0
M  V30 175 N 16.2591 1.48442 0.529413 0
M  V30 176 C 17.1691 1.6569 1.66084 0
M  V30 177 C 18.1851 0.539432 1.65427 0
M  V30 178 O 19.3611 0.810572 1.84368 0
M  V30 179 C 16.4261 1.69315 3.02545 0
M  V30 180 C 15.4871 2.92694 3.14052 0
M  V30 181 C 14.7201 2.96137 4.44003 0
M  V30 182 O 14.9431 2.07973 5.31134 0
M  V30 183 O 13.8771 3.88312 4.59888 0
M  V30 184 H 17.7031 2.61483 1.54469 0
M  V30 185 H 15.2881 1.3185 0.702567 0
M  V30 186 H 17.1701 1.74217 3.83701 0
M  V30 187 H 15.8451 0.766966 3.14483 0
M  V30 188 H 14.7521 2.93324 2.32189 0
M  V30 189 H 16.0851 3.84699 3.0703 0
M  V30 190 N 17.7372 -0.778329 1.37039 0
M  V30 191 C 19.1532 -1.07796 1.17695 0
M  V30 192 C 19.3532 -2.01498 0.00860115 0
M  V30 193 O 18.4092 -2.43901 -0.653352 0
M  V30 194 C 19.7222 -1.68178 2.49272 0
M  V30 195 C 21.2702 -1.80467 2.55735 0
M  V30 196 C 21.7452 -2.44263 3.87427 0
M  V30 197 N 23.2362 -2.51721 3.88833 0
M  V30 198 C 23.9712 -3.01919 4.87476 0
M  V30 199 N 23.4672 -3.5234 5.96513 0
M  V30 200 N 25.2602 -3.00733 4.74885 0
M  V30 201 H 17.4112 -0.156032 2.11826 0
M  V30 202 H 19.6742 -0.131844 0.938787 0
M  V30 203 H 19.3802 -1.06796 3.35093 0
M  V30 204 H 19.2542 -2.67554 2.65885 0
M  V30 205 H 21.6412 -2.40984 1.70325 0
M  V30 206 H 21.7222 -0.798656 2.43013 0
M  V30 207 H 21.3662 -1.84388 4.73248 0
M  V30 208 H 21.2962 -3.45458 3.9745 0
M  V30 209 H 23.7872 -2.1603 3.10063 0
M  V30 210 H 24.1002 -3.89027 6.67741 0
M  V30 211 H 22.4452 -3.50462 6.00168 0
M  V30 212 H 25.6362 -2.60638 3.88826 0
M  V30 213 H 25.8092 -3.39545 5.51918 0
M  V30 214 N 19.2153 -1.21501 -1.00376 0
M  V30 215 C 20.1253 -0.991447 -2.12621 0
M  V30 216 C 21.1413 0.0568446 -1.73907 0
M  V30 217 O 22.3173 -0.13348 -2.00957 0
M  V30 218 C 19.3823 -0.560312 -3.42142 0
M  V30 219 C 18.4433 -1.68096 -3.95022 0
M  V30 220 C 17.6763 -1.2703 -5.18362 0
M  V30 221 O 17.8993 -0.144438 -5.70217 0
M  V30 222 O 16.8333 -2.08269 -5.64719 0
M  V30 223 H 20.6593 -1.93158 -2.34358 0
M  V30 224 H 18.2443 -0.999999 -1.10997 0
M  V30 225 H 20.1263 -0.329724 -4.20108 0
M  V30 226 H 18.8013 0.351089 -3.2179 0
M  V30 227 H 17.7083 -1.96597 -3.18278 0
M  V30 228 H 19.0413 -2.56983 -4.19786 0
M  V30 229 N 20.6934 1.19889 -1.02296 0
M  V30 230 C 21.9184 1.9393 -0.735237 0
M  V30 231 C 22.3434 1.74639 0.698782 0
M  V30 232 O 21.7014 1.04481 1.48167 0
M  V30 233 C 21.7494 3.43916 -1.08417 0
M  V30 234 O 20.8534 4.11917 -0.199446 0
M  V30 235 H 20.1944 0.605645 -0.272196 0
M  V30 236 H 22.7244 1.52137 -1.36804 0
M  V30 237 H 22.7344 3.9456 -1.03856 0
M  V30 238 H 21.4094 3.5728 -2.12894 0
M  V30 239 H 19.9864 3.71666 -0.303136 0
M  V30 240 N 22.1715 0.800033 1.35784 0
M  V30 241 C 23.0815 0.207204 2.33683 0
M  V30 242 C 24.0975 -0.64631 1.61551 0
M  V30 243 O 25.2735 -0.559604 1.93469 0
M  V30 244 C 22.3385 -0.639659 3.40748 0
M  V30 245 C 21.3995 0.233585 4.28664 0
M  V30 246 C 20.6325 -0.572954 5.30616 0
M  V30 247 O 20.8555 -1.80816 5.40982 0
M  V30 248 O 19.7895 0.0327285 6.01891 0
M  V30 249 H 23.6155 1.01692 2.86169 0
M  V30 250 H 21.2005 0.561691 1.38439 0
M  V30 251 H 23.0825 -1.12223 4.06182 0
M  V30 252 H 21.7575 -1.42708 2.90544 0
M  V30 253 H 20.6645 0.763147 3.66233 0
M  V30 254 H 21.9975 0.984784 4.82248 0
M  V30 255 N 23.6496 -1.47581 0.552962 0
M  V30 256 C 24.5796 -2.32762 -0.185451 0
M  V30 257 C 25.5606 -1.43527 -0.912905 0
M  V30 258 O 26.7456 -1.72388 -0.894201 0
M  V30 259 C 23.8756 -3.25219 -1.21859 0
M  V30 260 C 22.8296 -4.23661 -0.607864 0
M  V30 261 C 22.1556 -5.05413 -1.74533 0
M  V30 262 C 23.4556 -5.20481 0.435582 0
M  V30 263 H 25.1496 -2.94749 0.525684 0
M  V30 264 H 22.6956 -1.41738 0.254251 0
M  V30 265 H 24.6486 -3.8365 -1.7433 0
M  V30 266 H 23.3726 -2.61279 -1.95961 0
M  V30 267 H 22.0316 -3.66451 -0.104489 0
M  V30 268 H 21.6796 -4.3788 -2.47529 0
M  V30 269 H 21.3796 -5.72059 -1.34249 0
M  V30 270 H 22.9036 -5.66701 -2.27338 0
M  V30 271 H 24.3176 -5.733 -0.00290157 0
M  V30 272 H 22.7146 -5.95305 0.757067 0
M  V30 273 H 23.7846 -4.66217 1.33303 0
M  V30 274 N 25.1277 -0.289203 -1.54924 0
M  V30 275 C 26.3527 0.329299 -2.04769 0
M  V30 276 C 26.7777 1.4763 -1.16564 0
M  V30 277 O 26.1357 1.80527 -0.167186 0
M  V30 278 C 26.1837 0.774438 -3.52186 0
M  V30 279 O 25.2877 1.88038 -3.67036 0
M  V30 280 H 24.6287 0.0659259 -0.660719 0
M  V30 281 H 27.1587 -0.42761 -2.00082 0
M  V30 282 H 27.1687 1.06642 -3.93816 0
M  V30 283 H 25.8437 -0.0646707 -4.1585 0
M  V30 284 H 24.4207 1.58985 -3.3731 0
M  V30 285 N 26.6058 1.57591 -0.0167156 0
M  V30 286 C 27.8308 1.9598 0.67872 0
M  V30 287 C 28.2558 0.892546 1.65575 0
M  V30 288 O 27.6138 -0.147772 1.80697 0
M  V30 289 C 27.6618 3.33468 1.37227 0
M  V30 290 O 26.7658 3.28954 2.48722 0
M  V30 291 H 26.1068 0.639339 0.17928 0
M  V30 292 H 28.6368 2.04463 -0.0748802 0
M  V30 293 H 28.6468 3.69417 1.7319 0
M  V30 294 H 27.3218 4.10694 0.656007 0
M  V30 295 H 25.8988 3.04705 2.14963 0
M  V30 296 N 28.0839 -0.256276 1.55502 0
M  V30 297 C 29.0319 -1.33694 1.90338 0
M  V30 298 C 30.0259 -1.50299 0.781441 0
M  V30 299 O 31.2319 -1.51885 0.965966 0
M  V30 300 H 27.6069 -0.447483 0.60437 0
M  V30 301 H 29.5779 -1.01574 2.8058 0
M  V30 302 C 28.3269 -2.68724 2.20642 0
M  V30 303 H 27.6499 -2.56743 3.06469 0
M  V30 304 H 29.0899 -3.43237 2.48926 0
M  V30 305 C 27.5489 -3.21101 1.01959 0
M  V30 306 O 28.0789 -4.0084 0.262762 0
M  V30 307 N 26.2849 -2.79003 0.812746 0
M  V30 308 H 25.8319 -2.14271 1.42989 0
M  V30 309 H 25.7899 -3.14393 0.0203076 0
M  V30 310 N 29.562 -1.4872 -0.521534 0
M  V30 311 C 30.973 -1.50607 -1.10337 0
M  V30 312 C 31.324 -0.280612 -1.94183 0
M  V30 313 O 30.449 0.611507 -2.0758 0
M  V30 314 C 31.044 -2.72903 -2.00772 0
M  V30 315 C 29.603 -2.77634 -2.54158 0
M  V30 316 C 28.75 -2.44241 -1.31307 0
M  V30 317 H 31.701 -1.55714 -0.306388 0
M  V30 318 H 31.722 -2.519 -2.85178 0
M  V30 319 H 31.234 -3.62077 -1.39721 0
M  V30 320 H 29.335 -1.92689 -3.18907 0
M  V30 321 H 29.448 -3.79283 -2.92714 0
M  V30 322 H 27.812 -1.95577 -1.63161 0
M  V30 323 H 28.595 -3.35666 -0.719943 0
M  V30 324 N 31.0401 0.771051 -1.3745 0
M  V30 325 C 32.0031 1.86598 -1.33093 0
M  V30 326 C 33.0031 1.59076 -0.234845 0
M  V30 327 O 34.1931 1.67145 -0.490732 0
M  V30 328 C 31.3251 3.23747 -1.06773 0
M  V30 329 H 32.5181 1.91873 -2.30488 0
M  V30 330 H 30.0711 0.970876 -1.2249 0
M  V30 331 H 30.8061 3.24148 -0.099129 0
M  V30 332 H 30.5911 3.45115 -1.86112 0
M  V30 333 H 32.0811 4.03824 -1.06377 0
M  V30 334 N 32.5182 1.22032 0.997298 0
M  V30 335 C 33.4812 0.987909 2.06816 0
M  V30 336 C 34.4812 -0.0440084 1.6074 0
M  V30 337 O 35.6712 0.194053 1.73116 0
M  V30 338 C 32.8032 0.49132 3.37341 0
M  V30 339 H 33.9962 1.93803 2.28868 0
M  V30 340 H 31.5492 1.03838 1.16822 0
M  V30 341 H 32.2842 -0.463364 3.20973 0
M  V30 342 H 32.0692 1.23575 3.72118 0
M  V30 343 H 33.5592 0.348824 4.16141 0
M  V30 344 N 33.9963 -1.19345 1.0293 0
M  V30 345 C 35.2213 -1.93538 0.745511 0
M  V30 346 C 35.6463 -1.75007 -0.689511 0
M  V30 347 O 35.0043 -1.05265 -1.47611 0
M  V30 348 C 35.0523 -3.43336 1.10239 0
M  V30 349 O 34.1563 -4.11806 0.221289 0
M  V30 350 H 33.4973 -0.604193 0.275404 0
M  V30 351 H 36.0273 -1.5141 1.37609 0
M  V30 352 H 36.0373 -3.94004 1.05947 0
M  V30 353 H 34.7123 -3.56146 2.14786 0
M  V30 354 H 33.2893 -3.715 0.322842 0
M  V30 355 N 35.4744 -0.807222 -1.35358 0
M  V30 356 C 36.4374 -0.223665 -2.28106 0
M  V30 357 C 37.4374 0.589354 -1.4961 0
M  V30 358 O 38.6274 0.407745 -1.69361 0
M  V30 359 C 35.7594 0.688149 -3.33882 0
M  V30 360 H 36.9524 -1.04169 -2.81227 0
M  V30 361 H 34.5054 -0.577921 -1.45223 0
M  V30 362 H 35.2404 1.52984 -2.85948 0
M  V30 363 H 35.0254 0.10687 -3.91954 0
M  V30 364 H 36.5154 1.09075 -4.03104 0
M  V30 365 N 36.9525 1.47285 -0.560781 0
M  V30 366 C 38.2005 2.02064 -0.0379868 0
M  V30 367 C 38.5215 1.43711 1.31803 0
M  V30 368 O 37.7915 0.61362 1.86042 0
M  V30 369 H 36.3715 0.746918 -0.0110531 0
M  V30 370 H 39.0335 1.80648 -0.731598 0
M  V30 371 H 38.1295 3.12064 0.0474463 0
M  V30 372 N 38.4306 0.297415 1.54768 0
M  V30 373 C 39.3936 -0.567375 2.22066 0
M  V30 374 C 40.3936 -1.06409 1.20556 0
M  V30 375 O 41.5836 -0.960691 1.45315 0
M  V30 376 C 38.7156 -1.78517 2.90421 0
M  V30 377 H 39.9086 0.0205534 2.99893 0
M  V30 378 H 37.4616 0.0482163 1.56226 0
M  V30 379 H 38.1966 -2.41303 2.16664 0
M  V30 380 H 37.9816 -1.43669 3.64831 0
M  V30 381 H 39.4716 -2.39964 3.41771 0
M  V30 382 N 39.9087 -1.5758 0.0250728 0
M  V30 383 C 41.1337 -1.96337 -0.668317 0
M  V30 384 C 41.5587 -0.901314 -1.651 0
M  V30 385 O 40.9167 0.138187 -1.80773 0
M  V30 386 C 40.9647 -3.34191 -1.35457 0
M  V30 387 O 40.0687 -3.30269 -2.46974 0
M  V30 388 H 39.4097 -0.640281 -0.175887 0
M  V30 389 H 41.9397 -2.0442 0.0857224 0
M  V30 390 H 41.9497 -3.70331 -1.71228 0
M  V30 391 H 40.6247 -4.11036 -0.634218 0
M  V30 392 H 39.2017 -3.05841 -2.13344 0
M  V30 393 N 41.3868 0.248026 -1.55636 0
M  V30 394 C 42.3168 1.31079 -1.93237 0
M  V30 395 C 43.2978 1.50264 -0.797174 0
M  V30 396 O 44.4828 1.62891 -1.05737 0
M  V30 397 C 41.6128 2.66575 -2.22609 0
M  V30 398 C 40.5668 2.62087 -3.3837 0
M  V30 399 C 39.8928 4.01369 -3.53281 0
M  V30 400 C 41.1928 2.19171 -4.7409 0
M  V30 401 H 42.8868 0.998556 -2.82257 0
M  V30 402 H 40.4328 0.47891 -1.35803 0
M  V30 403 H 42.3858 3.41057 -2.47503 0
M  V30 404 H 41.1098 2.99432 -1.30414 0
M  V30 405 H 39.7688 1.90063 -3.13483 0
M  V30 406 H 39.4168 4.31489 -2.58508 0
M  V30 407 H 39.1168 3.99254 -4.31127 0
M  V30 408 H 40.6408 4.77552 -3.80495 0
M  V30 409 H 42.0548 2.83384 -4.98363 0
M  V30 410 H 40.4518 2.2817 -5.5503 0
M  V30 411 H 41.5218 1.14336 -4.71227 0
M  V30 412 N 42.8649 1.48995 0.513639 0
M  V30 413 C 43.7749 1.67443 1.64317 0
M  V30 414 C 44.7909 0.556947 1.64846 0
M  V30 415 O 45.9669 0.830082 1.83498 0
M  V30 416 C 43.0319 1.72515 3.00732 0
M  V30 417 C 42.0929 2.96009 3.1093 0
M  V30 418 C 41.3259 3.00829 4.40837 0
M  V30 419 O 41.5489 2.13594 5.28898 0
M  V30 420 O 40.4829 3.93168 4.55744 0
M  V30 421 H 44.3089 2.63106 1.51687 0
M  V30 422 H 41.8939 1.32588 0.688543 0
M  V30 423 H 43.7759 1.78277 3.81831 0
M  V30 424 H 42.4509 0.800278 3.13651 0
M  V30 425 H 41.3579 2.9577 2.29065 0
M  V30 426 H 42.6909 3.87934 3.02933 0
M  V30 427 N 44.343 -0.763751 1.37857 0
M  V30 428 C 45.754 -1.3405 1.29952 0
M  V30 429 C 46.105 -1.96138 -0.0492898 0
M  V30 430 O 45.23 -1.94372 -0.951239 0
M  V30 431 C 45.825 -2.43729 2.35333 0
M  V30 432 C 44.384 -2.97151 2.31037 0
M  V30 433 C 43.531 -1.70438 2.18738 0
M  V30 434 H 46.482 -0.563396 1.48363 0
M  V30 435 H 46.503 -3.23412 2.00462 0
M  V30 436 H 46.015 -1.9851 3.33489 0
M  V30 437 H 44.116 -3.46724 1.3643 0
M  V30 438 H 44.229 -3.52221 3.24772 0
M  V30 439 H 42.593 -1.93673 1.65418 0
M  V30 440 H 43.376 -1.27312 3.18821 0
M  V30 441 N 45.8211 -1.22559 -0.990812 0
M  V30 442 C 47.2321 -1.04791 -1.54518 0
M  V30 443 C 47.5831 0.387998 -1.92325 0
M  V30 444 O 46.7081 1.27328 -1.74976 0
M  V30 445 C 47.3031 -1.896 -2.80779 0
M  V30 446 C 45.8621 -1.76124 -3.32652 0
M  V30 447 C 45.0091 -1.8594 -2.05722 0
M  V30 448 H 47.9601 -1.36374 -0.811662 0
M  V30 449 H 47.9811 -1.41464 -3.53225 0
M  V30 450 H 47.4931 -2.94101 -2.53231 0
M  V30 451 H 45.5941 -0.743643 -3.65104 0
M  V30 452 H 45.7071 -2.58913 -4.03114 0
M  V30 453 H 44.0711 -1.29403 -2.19379 0
M  V30 454 H 44.8541 -2.91976 -1.80568 0
M  V30 455 N 47.2992 1.18797 -1.03562 0
M  V30 456 C 48.2622 2.20464 -0.626769 0
M  V30 457 C 49.2622 1.57721 0.313173 0
M  V30 458 O 50.4522 1.73917 0.0992615 0
M  V30 459 C 47.5842 3.40802 0.0818498 0
M  V30 460 H 48.7772 2.58149 -1.5264 0
M  V30 461 H 46.3302 1.32593 -0.827578 0
M  V30 462 H 47.0652 3.08642 0.995518 0
M  V30 463 H 46.8502 3.8758 -0.593652 0
M  V30 464 H 48.3402 4.16092 0.354584 0
M  V30 465 N 48.7773 0.814389 1.34928 0
M  V30 466 C 49.7403 0.235759 2.27984 0
M  V30 467 C 50.7403 -0.581412 1.49921 0
M  V30 468 O 51.9303 -0.398758 1.69575 0
M  V30 469 C 49.0623 -0.670433 3.34242 0
M  V30 470 H 50.2553 1.05659 2.80671 0
M  V30 471 H 47.8083 0.585614 1.44915 0
M  V30 472 H 48.5433 -1.51466 2.86755 0
M  V30 473 H 48.3283 -0.0860822 3.92005 0
M  V30 474 H 49.8183 -1.06935 4.03676 0
M  V30 475 N 50.2554 -1.46986 0.568584 0
M  V30 476 C 51.6664 -1.86188 0.138219 0
M  V30 477 C 52.0174 -1.47388 -1.29504 0
M  V30 478 O 51.1424 -0.88219 -1.97602 0
M  V30 479 C 51.7374 -3.3792 0.244065 0
M  V30 480 C 50.2964 -3.76171 -0.131335 0
M  V30 481 C 49.4434 -2.71027 0.586465 0
M  V30 482 H 52.3944 -1.38342 0.777645 0
M  V30 483 H 52.4154 -3.76729 -0.534351 0
M  V30 484 H 51.9274 -3.66128 1.28731 0
M  V30 485 H 50.0284 -3.5358 -1.17526 0
M  V30 486 H 50.1414 -4.78523 0.235146 0
M  V30 487 H 48.5054 -2.54684 0.0282722 0
M  V30 488 H 49.2884 -3.02077 1.63109 0
M  V30 489 N 51.7335 -0.305618 -1.54608 0
M  V30 490 C 52.6965 0.555591 -2.22364 0
M  V30 491 C 53.6965 1.05768 -1.21119 0
M  V30 492 O 54.8865 0.952972 -1.45822 0
M  V30 493 C 52.0185 1.76974 -2.91364 0
M  V30 494 H 53.2115 -0.0364572 -2.99878 0
M  V30 495 H 50.7645 -0.0565007 -1.56198 0
M  V30 496 H 51.4995 2.40151 -2.17941 0
M  V30 497 H 51.2845 1.41732 -3.65588 0
M  V30 498 H 52.7745 2.38148 -3.43038 0
M  V30 499 N 53.2116 1.57565 -0.0334293 0
M  V30 500 C 54.6226 1.79746 0.504798 0
M  V30 501 C 54.9736 0.944091 1.71992 0
M  V30 502 O 54.0986 0.155694 2.15839 0
M  V30 503 C 54.6936 3.25997 0.922567 0
M  V30 504 C 53.2526 3.49159 1.40588 0
M  V30 505 C 52.3996 2.74785 0.372633 0
M  V30 506 H 55.3506 1.56565 -0.259436 0
M  V30 507 H 55.3716 3.35945 1.78666 0
M  V30 508 H 54.8836 3.88081 0.0379825 0
M  V30 509 H 52.9846 2.92332 2.31025 0
M  V30 510 H 53.0976 4.57873 1.41028 0
M  V30 511 H 51.4616 2.40391 0.841672 0
M  V30 512 H 52.2446 3.39587 -0.503559 0
M  V30 513 N 54.6897 -0.239769 1.55765 0
M  V30 514 C 55.9377 -0.964892 1.77579 0
M  V30 515 C 56.2587 -1.85582 0.598699 0
M  V30 516 O 55.5287 -1.92075 -0.385226 0
M  V30 517 H 54.1087 -0.359265 0.654933 0
M  V30 518 H 56.7707 -0.256001 1.93211 0
M  V30 519 H 55.8667 -1.58243 2.69009 0
M  V30 520 N 56.1678 -1.49265 -0.50573 0
M  V30 521 C 57.0778 -1.68312 -1.63427 0
M  V30 522 C 58.0938 -0.565682 -1.64548 0
M  V30 523 O 59.2698 -0.839801 -1.83055 0
M  V30 524 C 56.3348 -1.74107 -2.99813 0
M  V30 525 C 55.3958 -2.97653 -3.09356 0
M  V30 526 C 54.6288 -3.03163 -4.39236 0
M  V30 527 O 54.8518 -2.16396 -5.27758 0
M  V30 528 O 53.7858 -3.9558 -4.53652 0
M  V30 529 H 57.6118 -2.63907 -1.50289 0
M  V30 530 H 55.1968 -1.32951 -0.681502 0
M  V30 531 H 57.0788 -1.803 -3.80881 0
M  V30 532 H 55.7538 -0.816901 -3.13223 0
M  V30 533 H 54.6608 -2.96981 -2.27493 0
M  V30 534 H 55.9938 -3.89535 -3.00871 0
M  V30 535 N 57.6459 0.756429 -1.3826 0
M  V30 536 C 58.9229 1.50584 -1.24835 0
M  V30 537 C 59.3029 2.10556 0.151485 0
M  V30 538 O 58.6509 1.96825 1.1607 0
M  V30 539 C 58.8609 2.57448 -2.3563 0
M  V30 540 C 60.2089 3.24429 -2.73917 0
M  V30 541 O 61.2329 2.67751 -2.34921 0
M  V30 542 O 60.0919 4.26937 -3.41156 0
M  V30 543 H 57.1859 0.667664 -0.48801 0
M  V30 544 H 59.7319 0.792083 -1.5008 0
M  V30 545 H 58.5039 2.11362 -3.29305 0
M  V30 546 H 58.1269 3.36408 -2.11933 0
M  V30 547 N 59.124 1.23083 0.984299 0
M  V30 548 C 60.072 1.00593 2.09723 0
M  V30 549 C 61.066 -0.0538014 1.69315 0
M  V30 550 O 62.272 0.0993719 1.79725 0
M  V30 551 H 58.647 0.30817 0.685956 0
M  V30 552 H 60.618 1.95012 2.2586 0
M  V30 553 C 59.367 0.609601 3.42314 0
M  V30 554 H 58.69 1.41675 3.73856 0
M  V30 555 H 60.13 0.491726 4.21139 0
M  V30 556 C 58.589 -0.681745 3.2993 0
M  V30 557 O 59.119 -1.73192 3.62446 0
M  V30 558 N 57.325 -0.656178 2.83095 0
M  V30 559 H 56.872 0.198759 2.56832 0
M  V30 560 H 56.83 -1.52044 2.75191 0
M  V30 561 N 60.6021 -1.18246 1.0419 0
M  V30 562 C 62.0131 -1.69914 0.773698 0
M  V30 563 C 62.3641 -1.83085 -0.705297 0
M  V30 564 O 61.4891 -1.51123 -1.5489 0
M  V30 565 C 62.0841 -3.08619 1.39784 0
M  V30 566 C 60.6431 -3.57494 1.17792 0
M  V30 567 C 59.7901 -2.34013 1.48773 0
M  V30 568 H 62.7411 -1.02904 1.20816 0
M  V30 569 H 62.7621 -3.71958 0.801714 0
M  V30 570 H 62.2741 -2.99001 2.47426 0
M  V30 571 H 60.3751 -3.72406 0.120295 0
M  V30 572 H 60.4881 -4.40852 1.87581 0
M  V30 573 H 58.8521 -2.37986 0.907463 0
M  V30 574 H 59.6351 -2.27013 2.57527 0
M  V30 575 N 62.0802 -0.821533 -1.34494 0
M  V30 576 C 63.0432 -0.247847 -2.27856 0
M  V30 577 C 64.0432 0.573453 -1.50227 0
M  V30 578 O 65.2332 0.389759 -1.69784 0
M  V30 579 C 62.3652 0.652698 -3.34593 0
M  V30 580 H 63.5582 -1.07146 -2.80107 0
M  V30 581 H 61.1112 -0.593291 -1.44602 0
M  V30 582 H 61.8462 1.49943 -2.87555 0
M  V30 583 H 61.6312 0.065292 -3.92046 0
M  V30 584 H 63.1212 1.04793 -4.04238 0
M  V30 585 N 63.5583 1.46682 -0.576371 0
M  V30 586 C 64.8063 2.02013 -0.0594163 0
M  V30 587 C 65.1273 1.45101 1.30271 0
M  V30 588 O 64.3973 0.633317 1.8538 0
M  V30 589 H 62.9773 0.746759 -0.0189745 0
M  V30 590 H 65.6393 1.79862 -0.750717 0
M  V30 591 H 64.7353 3.12097 0.014345 0
M  V30 592 N 65.0364 0.313813 1.54444 0
M  V30 593 C 65.9994 -0.54379 2.22656 0
M  V30 594 C 66.9994 -1.05124 1.21678 0
M  V30 595 O 68.1894 -0.945225 1.46325 0
M  V30 596 C 65.3214 -1.75427 2.92298 0
M  V30 597 H 66.5144 0.0523599 2.99854 0
M  V30 598 H 64.0674 0.0647834 1.56166 0
M  V30 599 H 64.8024 -2.38991 2.19211 0
M  V30 600 H 64.5874 -1.39791 3.66334 0
M  V30 601 H 66.0774 -2.36325 3.44297 0
M  V30 602 N 66.5145 -1.57545 0.0417849 0
M  V30 603 C 67.7625 -1.91937 -0.632829 0
M  V30 604 C 68.0835 -0.919978 -1.71934 0
M  V30 605 O 67.3535 0.0366064 -1.95866 0
M  V30 606 H 65.9335 -0.708493 -0.236742 0
M  V30 607 H 68.5955 -1.9468 0.0925745 0
M  V30 608 H 67.6915 -2.92912 -1.07746 0
M  V30 609 N 67.9926 0.231505 -1.5589 0
M  V30 610 C 69.2406 0.955461 -1.78088 0
M  V30 611 C 69.5616 1.85262 -0.608533 0
M  V30 612 O 68.8316 1.92277 0.375035 0
M  V30 613 H 67.4116 0.355787 -0.656829 0
M  V30 614 H 70.0736 0.245751 -1.93344 0
M  V30 615 H 69.1696 1.56814 -2.69844 0
M  V30 616 N 69.4707 1.49531 0.497807 0
M  V30 617 C 70.4337 1.65916 1.58128 0
M  V30 618 C 71.4337 0.530825 1.51786 0
M  V30 619 O 72.6237 0.797342 1.54881 0
M  V30 620 C 69.7557 1.65951 2.9778 0
M  V30 621 H 70.9487 2.62556 1.44929 0
M  V30 622 H 68.5017 1.38611 0.722275 0
M  V30 623 H 69.2367 0.709065 3.16453 0
M  V30 624 H 69.0217 2.47897 3.03792 0
M  V30 625 H 70.5117 1.80673 3.76493 0
M  V30 626 N 70.9488 -0.749086 1.3866 0
M  V30 627 C 71.9118 -1.84457 1.36045 0
M  V30 628 C 72.9118 -1.58682 0.260122 0
M  V30 629 O 74.1018 -1.66343 0.517261 0
M  V30 630 C 71.2338 -3.22008 1.11911 0
M  V30 631 H 72.4268 -1.88182 2.33512 0
M  V30 632 H 69.9798 -0.951266 1.24019 0
M  V30 633 H 70.7148 -3.2395 0.150686 0
M  V30 634 H 70.4998 -3.42111 1.91579 0
M  V30 635 H 71.9898 -4.0208 1.12788 0
M  V30 636 N 72.4269 -1.23603 -0.977757 0
M  V30 637 C 73.6729 -1.07129 -1.72195 0
M  V30 638 C 74.0059 0.390501 -1.90233 0
M  V30 639 O 73.2809 1.28902 -1.45653 0
M  V30 640 C 73.5639 -1.80031 -3.11867 0
M  V30 641 C 73.4169 -3.33899 -3.01383 0
M  V30 642 C 74.7359 -1.56492 -4.11337 0
M  V30 643 H 71.8549 -0.390571 -0.624999 0
M  V30 644 H 74.4969 -1.52142 -1.13811 0
M  V30 645 H 72.6469 -1.41768 -3.6171 0
M  V30 646 H 74.3189 -3.81699 -2.59043 0
M  V30 647 H 72.5619 -3.62796 -2.37827 0
M  V30 648 H 73.2329 -3.801 -4.00285 0
M  V30 649 H 75.7089 -1.89757 -3.70313 0
M  V30 650 H 74.5849 -2.09973 -5.07151 0
M  V30 651 H 74.8459 -0.500874 -4.39254 0
M  V30 652 N 73.905 1.17692 -1.04816 0
M  V30 653 C 74.868 2.19787 -0.650117 0
M  V30 654 C 75.868 1.58044 0.296427 0
M  V30 655 O 77.058 1.74012 0.0808097 0
M  V30 656 C 74.19 3.40869 0.0456987 0
M  V30 657 H 75.383 2.56516 -1.5537 0
M  V30 658 H 72.936 1.31708 -0.841594 0
M  V30 659 H 73.671 3.09681 0.962726 0
M  V30 660 H 73.456 3.86928 -0.634727 0
M  V30 661 H 74.946 4.16445 0.310432 0
M  V30 662 N 75.3831 0.828654 1.34056 0
M  V30 663 C 76.6311 0.41863 1.97717 0
M  V30 664 C 76.9521 -1.02314 1.66002 0
M  V30 665 O 76.2221 -1.71119 0.953683 0
M  V30 666 H 74.8021 0.151809 0.731412 0
M  V30 667 H 77.4641 1.05936 1.63596 0
M  V30 668 H 76.5601 0.542318 3.07352 0
M  V30 669 N 76.8612 -1.46375 0.584142 0
M  V30 670 C 77.8242 -2.28784 -0.138108 0
M  V30 671 C 78.8242 -1.38471 -0.817462 0
M  V30 672 O 80.0142 -1.60833 -0.669199 0
M  V30 673 C 77.1462 -3.18892 -1.20503 0
M  V30 674 H 78.3392 -2.94117 0.586127 0
M  V30 675 H 75.8922 -1.52509 0.342171 0
M  V30 676 H 76.6272 -2.58309 -1.96079 0
M  V30 677 H 76.4122 -3.85388 -0.722384 0
M  V30 678 H 77.9022 -3.80914 -1.71155 0
M  V30 679 N 78.3393 -0.321999 -1.54275 0
M  V30 680 C 79.3023 0.531975 -2.22941 0
M  V30 681 C 80.3023 1.04478 -1.22234 0
M  V30 682 O 81.4923 0.937452 -1.46825 0
M  V30 683 C 78.6243 1.73874 -2.93224 0
M  V30 684 H 79.8173 -0.0682612 -2.99822 0
M  V30 685 H 77.3703 -0.0730644 -1.56129 0
M  V30 686 H 78.1053 2.37825 -2.20476 0
M  V30 687 H 77.8903 1.37847 -3.6707 0
M  V30 688 H 79.3803 2.34496 -3.45545 0
M  V30 689 N 79.8174 1.5752 -0.0501392 0
M  V30 690 C 81.0654 1.9227 0.622642 0
M  V30 691 C 81.3864 0.929083 1.71444 0
M  V30 692 O 80.6564 -0.0262186 1.95882 0
M  V30 693 H 79.2364 0.709739 0.232981 0
M  V30 694 H 81.8984 1.94628 -0.102898 0
M  V30 695 H 80.9944 2.93479 1.06191 0
M  V30 696 N 81.2955 -0.223234 1.56011 0
M  V30 697 C 82.5435 -0.946003 1.78592 0
M  V30 698 C 82.8645 -1.84936 0.618349 0
M  V30 699 O 82.1345 -1.92473 -0.364833 0
M  V30 700 H 80.7145 -0.352298 0.658707 0
M  V30 701 H 83.3765 -0.235494 1.93472 0
M  V30 702 H 82.4725 -1.55381 2.70672 0
M  V30 703 N 82.7736 -1.49793 -0.48987 0
M  V30 704 C 83.7366 -1.66752 -1.57246 0
M  V30 705 C 84.7366 -0.538867 -1.51502 0
M  V30 706 O 85.9266 -0.805545 -1.54456 0
M  V30 707 C 83.0586 -1.67528 -2.96896 0
M  V30 708 H 84.2516 -2.63321 -1.43534 0
M  V30 709 H 81.8046 -1.38992 -0.714914 0
M  V30 710 H 82.5396 -0.725837 -3.16073 0
M  V30 711 H 82.3246 -2.49504 -3.02473 0
M  V30 712 H 83.8146 -1.82667 -3.7553 0
M  V30 713 N 84.2517 0.741722 -1.39055 0
M  V30 714 C 85.6677 1.04638 -1.20512 0
M  V30 715 C 85.8677 2.01405 -0.0620218 0
M  V30 716 O 84.9237 2.45547 0.588457 0
M  V30 717 C 86.2367 1.6151 -2.53643 0
M  V30 718 C 87.7847 1.73623 -2.6043 0
M  V30 719 C 88.2597 2.33906 -3.93767 0
M  V30 720 N 89.7507 2.41323 -3.9537 0
M  V30 721 C 90.4857 2.88888 -4.95309 0
M  V30 722 N 89.9817 3.36401 -6.05645 0
M  V30 723 N 91.7747 2.88037 -4.82692 0
M  V30 724 H 83.9257 0.0998155 -2.12165 0
M  V30 725 H 86.1887 0.106907 -0.941953 0
M  V30 726 H 85.8947 0.978739 -3.37807 0
M  V30 727 H 85.7687 2.60411 -2.72885 0
M  V30 728 H 88.1557 2.36384 -1.76655 0
M  V30 729 H 88.2367 0.733945 -2.45045 0
M  V30 730 H 87.8807 1.71776 -4.7797 0
M  V30 731 H 87.8107 3.34799 -4.06469 0
M  V30 732 H 90.3017 2.07734 -3.15682 0
M  V30 733 H 90.6147 3.71186 -6.77821 0
M  V30 734 H 88.9597 3.34427 -6.09248 0
M  V30 735 H 92.1507 2.50237 -3.95599 0
M  V30 736 H 92.3237 3.24792 -5.60726 0
M  V30 737 N 85.7298 1.2412 0.971189 0
M  V30 738 C 87.1458 1.00584 1.23916 0
M  V30 739 C 87.3458 -0.287481 1.99439 0
M  V30 740 O 86.4018 -1.00454 2.31658 0
M  V30 741 C 87.7148 2.21864 2.0297 0
M  V30 742 C 89.2628 2.26452 2.16076 0
M  V30 743 C 89.7378 3.47343 2.98524 0
M  V30 744 N 91.2288 3.47639 3.06107 0
M  V30 745 C 91.9638 4.37837 3.70251 0
M  V30 746 N 91.4598 5.38286 4.36142 0
M  V30 747 N 93.2528 4.25558 3.67228 0
M  V30 748 H 85.4038 2.07236 0.465499 0
M  V30 749 H 87.6668 0.909236 0.268315 0
M  V30 750 H 87.3728 3.15771 1.54861 0
M  V30 751 H 87.2468 2.23698 3.03709 0
M  V30 752 H 89.6338 1.33078 2.6339 0
M  V30 753 H 89.7148 2.28645 1.14696 0
M  V30 754 H 89.3588 4.41029 2.51905 0
M  V30 755 H 89.2888 3.42393 4.00093 0
M  V30 756 H 91.7798 2.74966 2.59233 0
M  V30 757 H 92.0928 6.03352 4.82894 0
M  V30 758 H 90.4378 5.42176 4.34822 0
M  V30 759 H 93.6288 3.46322 3.14927 0
M  V30 760 H 93.8018 4.96054 4.16935 0
M  V30 761 N 87.2079 -1.17134 1.05439 0
M  V30 762 C 88.4549 -1.87456 0.765942 0
M  V30 763 C 88.7829 -1.81189 -0.707153 0
M  V30 764 O 88.0379 -1.21633 -1.5331 0
M  V30 765 C 88.3369 -3.36833 1.19491 0
M  V30 766 C 88.0029 -3.63301 2.67063 0
M  V30 767 C 86.6649 -3.70234 3.07376 0
M  V30 768 C 89.0169 -3.74575 3.62413 0
M  V30 769 C 86.3449 -3.85933 4.41896 0
M  V30 770 C 88.6969 -3.91793 4.9667 0
M  V30 771 C 87.3609 -3.96966 5.36633 0
M  V30 772 H 86.6309 -0.685948 0.280278 0
M  V30 773 H 89.2779 -1.38556 1.32192 0
M  V30 774 H 87.5829 -3.87807 0.557969 0
M  V30 775 H 89.2799 -3.89611 0.948893 0
M  V30 776 H 85.8699 -3.58532 2.34846 0
M  V30 777 H 90.0539 -3.68537 3.32406 0
M  V30 778 H 85.3099 -3.88187 4.72357 0
M  V30 779 H 89.4839 -3.99458 5.70444 0
M  V30 780 H 87.1109 -4.08883 6.40874 0
M  V30 781 N 88.686 -0.835752 -1.33615 0
M  V30 782 C 89.616 -0.281739 -2.31794 0
M  V30 783 C 90.597 0.608833 -1.58831 0
M  V30 784 O 91.782 0.533035 -1.86741 0
M  V30 785 C 88.912 0.546612 -3.42971 0
M  V30 786 C 87.866 -0.247904 -4.27281 0
M  V30 787 C 87.192 0.704001 -5.30045 0
M  V30 788 C 88.492 -1.46324 -5.01385 0
M  V30 789 H 90.186 -1.10206 -2.78379 0
M  V30 790 H 87.732 -0.531388 -1.33837 0
M  V30 791 H 89.685 0.944467 -4.1068 0
M  V30 792 H 88.409 1.40011 -2.95067 0
M  V30 793 H 87.068 -0.627281 -3.61194 0
M  V30 794 H 86.716 1.55381 -4.78399 0
M  V30 795 H 86.416 0.176524 -5.87335 0
M  V30 796 H 87.94 1.09944 -6.0062 0
M  V30 797 H 89.354 -1.13871 -5.61877 0
M  V30 798 H 87.751 -1.92728 -5.6831 0
M  V30 799 H 88.821 -2.23467 -4.30338 0
M  V30 800 N 90.1641 1.46063 -0.591896 0
M  V30 801 C 91.4041 2.04228 -0.0838014 0
M  V30 802 C 91.7681 1.45231 1.25587 0
M  V30 803 O 92.9691 1.94653 1.85375 0
M  V30 804 C 91.2401 3.57389 -0.0286282 0
M  V30 805 S 92.7991 4.3678 0.420557 0
M  V30 806 H 89.6171 0.709762 -0.0419319 0
M  V30 807 H 92.2191 1.78983 -0.786465 0
M  V30 808 H 90.9231 3.97843 -1.00743 0
M  V30 809 H 90.4541 3.87185 0.69652 0
M  V30 810 H 92.4691 4.67131 1.67341 0
M  V30 811 N 91.6422 0.330177 1.54103 0
M  V30 812 C 92.8902 -0.269871 2.0029 0
M  V30 813 C 93.2112 -1.52133 1.21986 0
M  V30 814 O 92.4812 -1.93212 0.323438 0
M  V30 815 H 91.0612 -0.10271 0.739905 0
M  V30 816 H 93.7232 0.448249 1.89675 0
M  V30 817 H 92.8192 -0.52166 3.07709 0
M  V30 818 N 93.1203 -1.57491 0.0584922 0
M  V30 819 C 94.3663 -1.93264 -0.614558 0
M  V30 820 C 94.6993 -0.937717 -1.7006 0
M  V30 821 O 93.9743 0.0351652 -1.94468 0
M  V30 822 C 94.2573 -3.3938 -1.20386 0
M  V30 823 C 94.1103 -4.49625 -0.125375 0
M  V30 824 C 95.4293 -3.86039 -2.11334 0
M  V30 825 H 92.5483 -0.702791 -0.221933 0
M  V30 826 H 95.1903 -1.8961 0.12175 0
M  V30 827 H 93.3403 -3.42626 -1.83139 0
M  V30 828 H 95.0123 -4.58506 0.506971 0
M  V30 829 H 93.2553 -4.30354 0.545672 0
M  V30 830 H 93.9263 -5.48967 -0.577861 0
M  V30 831 H 96.4023 -3.84716 -1.58534 0
M  V30 832 H 95.2783 -4.88914 -2.49507 0
M  V30 833 H 95.5393 -3.23215 -3.01636 0
M  V30 834 N 94.5984 0.214957 -1.56127 0
M  V30 835 C 95.8444 0.939762 -1.79712 0
M  V30 836 C 96.1774 1.83723 -0.629247 0
M  V30 837 O 95.4524 1.90925 0.371197 0
M  V30 838 C 95.7354 1.77306 -3.13424 0
M  V30 839 C 95.5884 0.90164 -4.40671 0
M  V30 840 C 96.9074 2.74956 -3.43638 0
M  V30 841 H 94.0264 0.340214 -0.653776 0
M  V30 842 H 96.6684 0.20824 -1.88855 0
M  V30 843 H 94.8184 2.39673 -3.0576 0
M  V30 844 H 96.4904 0.294206 -4.60361 0
M  V30 845 H 94.7334 0.207368 -4.33304 0
M  V30 846 H 95.4044 1.51923 -5.30682 0
M  V30 847 H 97.8804 2.22724 -3.51473 0
M  V30 848 H 96.7564 3.30358 -4.38355 0
M  V30 849 H 97.0174 3.53023 -2.66134 0
M  V30 850 N 96.0765 1.50051 0.48192 0
M  V30 851 C 96.9865 1.7089 1.60728 0
M  V30 852 C 98.0025 0.591788 1.63627 0
M  V30 853 O 99.1785 0.868817 1.81696 0
M  V30 854 C 96.2435 1.78855 2.97005 0
M  V30 855 C 95.3045 3.02537 3.04581 0
M  V30 856 C 94.5375 3.10112 4.34357 0
M  V30 857 O 94.7605 2.24765 5.24249 0
M  V30 858 O 93.6945 4.02747 4.47301 0
M  V30 859 H 97.5205 2.66264 1.46072 0
M  V30 860 H 95.1055 1.34018 0.660264 0
M  V30 861 H 96.9875 1.86336 3.77964 0
M  V30 862 H 95.6625 0.866628 3.11883 0
M  V30 863 H 94.5695 3.00563 2.22739 0
M  V30 864 H 95.9025 3.94272 2.94636 0
M  V30 865 N 97.5546 -0.734337 1.39446 0
M  V30 866 C 98.8026 -1.49096 1.36436 0
M  V30 867 C 99.1236 -1.94961 -0.0388255 0
M  V30 868 O 98.3936 -1.69033 -0.990191 0
M  V30 869 H 96.9736 -0.5531 0.502085 0
M  V30 870 H 99.6356 -0.871725 1.74319 0
M  V30 871 H 98.7316 -2.37276 2.02747 0
M  V30 872 N 99.0327 -1.24633 -0.964593 0
M  V30 873 C 100.28 -1.08788 -1.70796 0
M  V30 874 C 100.608 0.372783 -1.90894 0
M  V30 875 O 99.8627 1.29167 -1.47018 0
M  V30 876 C 100.162 -1.7763 -3.10133 0
M  V30 877 C 99.8277 -3.27557 -3.09866 0
M  V30 878 C 98.4897 -3.6846 -3.09501 0
M  V30 879 C 100.842 -4.23389 -3.03959 0
M  V30 880 C 98.1697 -5.03624 -3.00965 0
M  V30 881 C 100.522 -5.58565 -2.96965 0
M  V30 882 C 99.1857 -5.98809 -2.9493 0
M  V30 883 H 98.4557 -0.398084 -0.624988 0
M  V30 884 H 101.103 -1.54777 -1.12767 0
M  V30 885 H 99.4077 -1.24044 -3.71645 0
M  V30 886 H 101.105 -1.62832 -3.66451 0
M  V30 887 H 97.6947 -2.95006 -3.10917 0
M  V30 888 H 101.879 -3.92787 -3.03368 0
M  V30 889 H 97.1347 -5.33998 -2.97752 0
M  V30 890 H 101.309 -6.32523 -2.91354 0
M  V30 891 H 98.9357 -7.03505 -2.88071 0
M  V30 892 N 100.511 1.16574 -1.06058 0
M  V30 893 C 101.741 1.90675 -0.795397 0
M  V30 894 C 102.149 1.77547 0.653735 0
M  V30 895 O 101.492 1.11611 1.45907 0
M  V30 896 C 101.554 3.42011 -1.10764 0
M  V30 897 C 101.218 3.78924 -2.55471 0
M  V30 898 C 102.215 3.81042 -3.53699 0
M  V30 899 C 99.8998 4.09626 -2.90708 0
M  V30 900 C 101.894 4.13346 -4.85205 0
M  V30 901 C 99.5808 4.41597 -4.22416 0
M  V30 902 C 100.579 4.43436 -5.19474 0
M  V30 903 O 100.267 4.74649 -6.48817 0
M  V30 904 H 99.9988 0.611554 -0.288058 0
M  V30 905 H 102.553 1.48711 -1.41683 0
M  V30 906 H 100.783 3.84312 -0.429128 0
M  V30 907 H 102.472 3.97384 -0.827077 0
M  V30 908 H 103.238 3.57437 -3.27817 0
M  V30 909 H 99.1168 4.07361 -2.15819 0
M  V30 910 H 102.661 4.14696 -5.60957 0
M  V30 911 H 98.5578 4.64667 -4.48056 0
M  V30 912 H 99.3258 4.9247 -6.5377 0
M  V30 913 N 101.989 0.842826 1.3317 0
M  V30 914 C 103.237 0.439577 1.97262 0
M  V30 915 C 103.558 -1.00548 1.67078 0
M  V30 916 O 102.828 -1.70098 0.971779 0
M  V30 917 H 101.408 0.159558 0.72976 0
M  V30 918 H 104.07 1.07665 1.62463 0
M  V30 919 H 103.166 0.574886 3.0676 0
M  V30 920 N 103.467 -1.45747 0.599634 0
M  V30 921 C 104.883 -1.57424 0.26264 0
M  V30 922 C 105.083 -1.59222 -1.23493 0
M  V30 923 O 104.139 -1.51825 -2.01756 0
M  V30 924 C 105.452 -2.86061 0.926795 0
M  V30 925 C 107 -2.99722 0.901967 0
M  V30 926 C 107.475 -4.31119 1.54598 0
M  V30 927 N 108.966 -4.37858 1.5111 0
M  V30 928 C 109.701 -5.3818 1.97863 0
M  V30 929 N 109.197 -6.45083 2.52666 0
M  V30 930 N 110.99 -5.29487 1.88679 0
M  V30 931 H 103.141 -1.42823 1.57211 0
M  V30 932 H 105.404 -0.68235 0.658105 0
M  V30 933 H 105.11 -2.90605 1.98095 0
M  V30 934 H 104.984 -3.74563 0.445238 0
M  V30 935 H 107.371 -2.9475 -0.143617 0
M  V30 936 H 107.452 -2.12652 1.42171 0
M  V30 937 H 107.096 -4.36849 2.59085 0
M  V30 938 H 107.026 -5.16992 1.00132 0
M  V30 939 H 109.517 -3.61209 1.11068 0
M  V30 940 H 109.83 -7.17869 2.86155 0
M  V30 941 H 108.175 -6.45856 2.56701 0
M  V30 942 H 111.366 -4.44877 1.4561 0
M  V30 943 H 111.539 -6.07524 2.25429 0
M  V30 944 N 104.945 -0.338344 -1.53925 0
M  V30 945 C 106.356 0.146651 -1.86123 0
M  V30 946 C 106.707 1.5042 -1.2597 0
M  V30 947 O 105.832 2.08723 -0.571294 0
M  V30 948 C 106.427 0.272879 -3.37699 0
M  V30 949 C 104.986 0.702103 -3.69794 0
M  V30 950 C 104.133 -0.167304 -2.76795 0
M  V30 951 H 107.084 -0.558123 -1.48562 0
M  V30 952 H 107.105 1.10128 -3.64214 0
M  V30 953 H 106.617 -0.715307 -3.81451 0
M  V30 954 H 104.718 1.6995 -3.31584 0
M  V30 955 H 104.831 0.495604 -4.7653 0
M  V30 956 H 103.195 0.359527 -2.5215 0
M  V30 957 H 103.978 -1.15253 -3.23375 0
M  V30 958 N 106.423 1.57458 -0.0668435 0
M  V30 959 C 107.669 1.94401 0.598316 0
M  V30 960 C 108.024 0.946335 1.67518 0
M  V30 961 O 107.317 -0.0321442 1.91573 0
M  V30 962 C 107.511 3.35784 1.22409 0
M  V30 963 C 107.34 4.49212 0.209367 0
M  V30 964 C 106.11 5.04887 -0.204218 0
M  V30 965 C 108.308 5.11335 -0.551431 0
M  V30 966 N 106.29 6.01854 -1.21016 0
M  V30 967 C 107.661 6.03754 -1.41 0
M  V30 968 C 109.716 4.94173 -0.608038 0
M  V30 969 C 108.419 6.80854 -2.32013 0
M  V30 970 C 110.445 5.71912 -1.50566 0
M  V30 971 C 109.807 6.63976 -2.35191 0
M  V30 972 H 105.906 0.758538 0.190114 0
M  V30 973 H 108.49 1.94175 -0.142832 0
M  V30 974 H 106.661 3.36757 1.93518 0
M  V30 975 H 108.393 3.59976 1.84931 0
M  V30 976 H 105.148 4.73266 0.177908 0
M  V30 977 H 105.572 6.55035 -1.71049 0
M  V30 978 H 110.214 4.22788 0.032022 0
M  V30 979 H 107.932 7.5152 -2.97057 0
M  V30 980 H 111.518 5.60656 -1.55423 0
M  V30 981 H 110.398 7.2308 -3.03522 0
M  V30 982 N 107.901 -0.206675 1.56239 0
M  V30 983 C 109.147 -0.930218 1.80208 0
M  V30 984 C 109.48 -1.83387 0.638981 0
M  V30 985 O 108.755 -1.91119 -0.361066 0
M  V30 986 C 109.038 -1.75641 3.1436 0
M  V30 987 C 108.891 -0.878257 4.41142 0
M  V30 988 C 110.21 -2.73129 3.45092 0
M  V30 989 H 107.329 -0.336742 0.655571 0
M  V30 990 H 109.971 -0.198222 1.88963 0
M  V30 991 H 108.121 -2.38048 3.07027 0
M  V30 992 H 109.793 -0.269787 4.6051 0
M  V30 993 H 108.036 -0.184385 4.33408 0
M  V30 994 H 108.707 -1.49106 5.3148 0
M  V30 995 H 111.183 -2.20856 3.52649 0
M  V30 996 H 110.059 -3.28028 4.40101 0
M  V30 997 H 110.32 -3.51606 2.68003 0
M  V30 998 N 109.379 -1.50304 -0.473955 0
M  V30 999 C 110.312 -1.63595 -1.59097 0
M  V30 1000 C 111.29 -0.484142 -1.55225 0
M  V30 1001 O 112.474 -0.703271 -1.7489 0
M  V30 1002 C 109.601 -1.61589 -2.97669 0
M  V30 1003 C 108.647 -2.82295 -3.19705 0
M  V30 1004 S 109.48 -4.43635 -2.99913 0
M  V30 1005 C 110.636 -4.44317 -4.40832 0
M  V30 1006 H 110.869 -2.58082 -1.47583 0
M  V30 1007 H 108.402 -1.39531 -0.661087 0
M  V30 1008 H 110.36 -1.61116 -3.7756 0
M  V30 1009 H 109.021 -0.683421 -3.06575 0
M  V30 1010 H 108.214 -2.77188 -4.20931 0
M  V30 1011 H 107.816 -2.8032 -2.47582 0
M  V30 1012 H 110.108 -4.17703 -5.33414 0
M  V30 1013 H 111.051 -5.45911 -4.50984 0
M  V30 1014 H 111.459 -3.74059 -4.22777 0
M  V30 1015 N 110.857 0.726932 -1.39834 0
M  V30 1016 C 111.767 1.87131 -1.41489 0
M  V30 1017 C 112.783 1.71239 -0.308757 0
M  V30 1018 O 113.959 1.93701 -0.551529 0
M  V30 1019 C 111.024 3.22811 -1.26468 0
M  V30 1020 C 110.085 3.51039 -2.47124 0
M  V30 1021 C 109.318 4.80245 -2.3281 0
M  V30 1022 O 109.541 5.54537 -1.33585 0
M  V30 1023 O 108.475 5.08554 -3.21957 0
M  V30 1024 H 112.301 1.8869 -2.3797 0
M  V30 1025 H 109.886 0.875837 -1.21035 0
M  V30 1026 H 111.768 4.03877 -1.20255 0
M  V30 1027 H 110.443 3.22005 -0.330862 0
M  V30 1028 H 109.35 2.70027 -2.58914 0
M  V30 1029 H 110.683 3.56632 -3.39227 0
M  V30 1030 N 112.336 1.25143 0.95797 0
M  V30 1031 C 113.268 1.01023 2.05735 0
M  V30 1032 C 114.281 -0.0236902 1.62783 0
M  V30 1033 O 115.47 0.21448 1.77207 0
M  V30 1034 C 112.57 0.504595 3.35122 0
M  V30 1035 C 111.743 1.6039 4.06932 0
M  V30 1036 C 110.802 1.09922 5.14591 0
M  V30 1037 O 109.828 1.79293 5.40225 0
M  V30 1038 N 111.03 -0.0612545 5.80468 0
M  V30 1039 H 113.795 1.95683 2.26998 0
M  V30 1040 H 111.356 1.16303 1.12629 0
M  V30 1041 H 113.348 0.151516 4.04416 0
M  V30 1042 H 111.918 -0.347989 3.10657 0
M  V30 1043 H 111.138 2.12872 3.31782 0
M  V30 1044 H 112.426 2.34252 4.51667 0
M  V30 1045 H 111.824 -0.640985 5.62057 0
M  V30 1046 H 110.381 -0.355395 6.5083 0
M  V30 1047 N 113.814 -1.1601 1.06675 0
M  V30 1048 C 115.23 -1.38622 0.790948 0
M  V30 1049 C 115.43 -1.92109 -0.607965 0
M  V30 1050 O 114.486 -2.12239 -1.36787 0
M  V30 1051 C 115.799 -2.36347 1.85905 0
M  V30 1052 C 117.347 -2.50023 1.88301 0
M  V30 1053 C 117.822 -3.51033 2.94176 0
M  V30 1054 N 119.313 -3.58563 2.93235 0
M  V30 1055 C 120.048 -4.36521 3.71803 0
M  V30 1056 N 119.544 -5.17869 4.602 0
M  V30 1057 N 121.337 -4.31541 3.60178 0
M  V30 1058 H 113.488 -0.796294 1.96908 0
M  V30 1059 H 115.751 -0.412597 0.853503 0
M  V30 1060 H 115.457 -2.04147 2.86386 0
M  V30 1061 H 115.331 -3.36042 1.71334 0
M  V30 1062 H 117.718 -2.81524 0.884769 0
M  V30 1063 H 117.799 -1.5035 2.06951 0
M  V30 1064 H 117.443 -3.20268 3.94196 0
M  V30 1065 H 117.373 -4.50445 2.72776 0
M  V30 1066 H 119.864 -3.00496 2.29152 0
M  V30 1067 H 120.177 -5.74578 5.16797 0
M  V30 1068 H 118.522 -5.17199 4.64253 0
M  V30 1069 H 121.713 -3.67051 2.90502 0
M  V30 1070 H 121.886 -4.9205 4.21653 0
M  V30 1071 N 115.292 -0.849877 -1.32721 0
M  V30 1072 C 116.239 -0.289033 -2.28983 0
M  V30 1073 C 117.209 0.601324 -1.54833 0
M  V30 1074 O 118.394 0.537253 -1.8308 0
M  V30 1075 C 115.534 0.520623 -3.4115 0
M  V30 1076 C 114.647 -0.394989 -4.3019 0
M  V30 1077 C 113.782 0.426834 -5.29482 0
M  V30 1078 C 112.821 -0.486476 -6.10164 0
M  V30 1079 N 111.958 0.297879 -7.01468 0
M  V30 1080 H 116.798 -1.11519 -2.76347 0
M  V30 1081 H 114.335 -0.56138 -1.35967 0
M  V30 1082 H 116.293 1.00563 -4.04899 0
M  V30 1083 H 114.923 1.31165 -2.9495 0
M  V30 1084 H 113.975 -0.99836 -3.67065 0
M  V30 1085 H 115.287 -1.09612 -4.86607 0
M  V30 1086 H 114.441 0.975205 -5.98811 0
M  V30 1087 H 113.18 1.16136 -4.73671 0
M  V30 1088 H 112.185 -1.04677 -5.39743 0
M  V30 1089 H 113.41 -1.21953 -6.6806 0
M  V30 1090 H 111.356 1.01558 -6.48091 0
M  V30 1091 H 111.273 -0.344318 -7.55216 0
M  V30 1092 H 112.541 0.828131 -7.75089 0
M  V30 1093 N 116.77 1.45427 -0.607355 0
M  V30 1094 C 117.68 2.34325 0.113463 0
M  V30 1095 C 118.696 1.51226 0.860617 0
M  V30 1096 O 119.872 1.84029 0.818255 0
M  V30 1097 C 116.937 3.28839 1.09844 0
M  V30 1098 C 115.998 4.27844 0.353271 0
M  V30 1099 C 115.231 5.17842 1.29133 0
M  V30 1100 O 115.454 5.11264 2.52913 0
M  V30 1101 O 114.388 5.96713 0.788523 0
M  V30 1102 H 118.214 2.97364 -0.617094 0
M  V30 1103 H 115.799 1.44807 -0.367619 0
M  V30 1104 H 117.681 3.8708 1.66575 0
M  V30 1105 H 116.356 2.68365 1.81003 0
M  V30 1106 H 115.263 3.7322 -0.256494 0
M  V30 1107 H 116.596 4.91173 -0.317822 0
M  V30 1108 N 118.248 0.346503 1.53744 0
M  V30 1109 C 119.178 -0.501193 2.28058 0
M  V30 1110 C 120.159 -1.10014 1.29734 0
M  V30 1111 O 121.344 -1.12097 1.58581 0
M  V30 1112 C 118.474 -1.65078 3.05559 0
M  V30 1113 C 117.428 -1.18003 4.11411 0
M  V30 1114 C 116.754 -2.41837 4.76884 0
M  V30 1115 C 118.054 -0.278394 5.21558 0
M  V30 1116 H 119.748 0.11875 2.99164 0
M  V30 1117 H 117.294 0.0585531 1.43881 0
M  V30 1118 H 119.247 -2.25028 3.56287 0
M  V30 1119 H 117.971 -2.29767 2.32109 0
M  V30 1120 H 116.63 -0.603331 3.61601 0
M  V30 1121 H 116.278 -3.0494 4.00026 0
M  V30 1122 H 115.978 -2.1102 5.48402 0
M  V30 1123 H 117.502 -3.02508 5.30397 0
M  V30 1124 H 118.916 -0.784823 5.67903 0
M  V30 1125 H 117.313 -0.0619707 6.00068 0
M  V30 1126 H 118.383 0.684677 4.80042 0
M  V30 1127 N 119.726 -1.57421 0.075193 0
M  V30 1128 C 120.973 -1.93618 -0.593146 0
M  V30 1129 C 121.301 -0.955484 -1.69413 0
M  V30 1130 O 120.556 0.0283251 -1.9568 0
M  V30 1131 C 120.855 -3.36428 -1.20626 0
M  V30 1132 C 120.521 -4.50307 -0.231078 0
M  V30 1133 C 119.183 -4.81186 0.0371936 0
M  V30 1134 C 121.535 -5.19374 0.435888 0
M  V30 1135 C 118.863 -5.78466 0.979461 0
M  V30 1136 C 121.215 -6.17665 1.3665 0
M  V30 1137 C 119.879 -6.46958 1.6432 0
M  V30 1138 H 119.149 -0.708499 -0.217047 0
M  V30 1139 H 121.796 -1.90937 0.146793 0
M  V30 1140 H 120.101 -3.35592 -2.02201 0
M  V30 1141 H 121.798 -3.61727 -1.73073 0
M  V30 1142 H 118.388 -4.26227 -0.450357 0
M  V30 1143 H 122.572 -4.95711 0.241748 0
M  V30 1144 H 117.828 -5.99487 1.20106 0
M  V30 1145 H 122.002 -6.70284 1.88924 0
M  V30 1146 H 119.629 -7.2215 2.37494 0
M  V30 1147 N 121.204 0.198386 -1.56346 0
M  V30 1148 C 122.62 0.549085 -1.49857 0
M  V30 1149 C 122.82 1.86016 -0.774611 0
M  V30 1150 O 121.876 2.50416 -0.323776 0
M  V30 1151 C 123.189 0.606868 -2.94512 0
M  V30 1152 C 124.737 0.695925 -3.05165 0
M  V30 1153 C 125.212 0.784848 -4.51225 0
M  V30 1154 N 126.703 0.848463 -4.55363 0
M  V30 1155 C 127.438 0.937378 -5.65686 0
M  V30 1156 N 126.934 0.9888 -6.85707 0
M  V30 1157 N 128.727 0.974312 -5.53592 0
M  V30 1158 H 120.878 -0.661655 -2.01831 0
M  V30 1159 H 123.141 -0.235261 -0.918344 0
M  V30 1160 H 122.847 -0.28732 -3.50524 0
M  V30 1161 H 122.721 1.46268 -3.47686 0
M  V30 1162 H 125.108 1.58055 -2.49204 0
M  V30 1163 H 125.189 -0.186022 -2.55123 0
M  V30 1164 H 124.833 -0.0954072 -5.0781 0
M  V30 1165 H 124.763 1.68255 -4.98997 0
M  V30 1166 H 127.254 0.818103 -3.68938 0
M  V30 1167 H 127.567 1.05707 -7.65536 0
M  V30 1168 H 125.912 0.957534 -6.88372 0
M  V30 1169 H 129.103 0.930954 -4.58749 0
M  V30 1170 H 129.276 1.04015 -6.39597 0
M  V30 1171 N 122.682 1.50554 0.465978 0
M  V30 1172 C 124.098 1.38093 0.800154 0
M  V30 1173 C 124.298 0.440988 1.96615 0
M  V30 1174 O 123.354 -0.114499 2.5224 0
M  V30 1175 C 124.667 2.79565 1.10742 0
M  V30 1176 C 126.215 2.88516 1.21357 0
M  V30 1177 C 126.69 4.30833 1.55393 0
M  V30 1178 N 128.181 4.33807 1.62375 0
M  V30 1179 C 128.916 5.40927 1.90225 0
M  V30 1180 N 128.412 6.58247 2.16062 0
M  V30 1181 N 130.205 5.28376 1.9177 0
M  V30 1182 H 122.356 2.10237 -0.302366 0
M  V30 1183 H 124.619 0.945203 -0.0727746 0
M  V30 1184 H 124.325 3.50208 0.323661 0
M  V30 1185 H 124.199 3.17125 2.04234 0
M  V30 1186 H 126.586 2.1809 1.98799 0
M  V30 1187 H 126.667 2.54492 0.258321 0
M  V30 1188 H 126.311 5.01799 0.784889 0
M  V30 1189 H 126.241 4.62347 2.52076 0
M  V30 1190 H 128.732 3.49212 1.44427 0
M  V30 1191 H 129.045 7.3569 2.36601 0
M  V30 1192 H 127.39 6.61413 2.13444 0
M  V30 1193 H 130.581 4.35715 1.71085 0
M  V30 1194 H 130.754 6.11944 2.13139 0
M  V30 1195 N 124.16 -0.719506 1.40217 0
M  V30 1196 C 125.09 -1.8465 1.42922 0
M  V30 1197 C 126.071 -1.67599 0.29062 0
M  V30 1198 O 127.256 -1.87688 0.498677 0
M  V30 1199 C 124.386 -3.22565 1.28722 0
M  V30 1200 C 123.34 -3.54281 2.40144 0
M  V30 1201 C 122.666 -4.91298 2.11023 0
M  V30 1202 C 123.966 -3.55676 3.82481 0
M  V30 1203 H 125.66 -1.82644 2.37237 0
M  V30 1204 H 123.206 -0.877305 1.1419 0
M  V30 1205 H 125.159 -4.01095 1.29232 0
M  V30 1206 H 123.883 -3.25137 0.308811 0
M  V30 1207 H 122.542 -2.78088 2.38877 0
M  V30 1208 H 122.19 -4.90468 1.11582 0
M  V30 1209 H 121.89 -5.13485 2.8567 0
M  V30 1210 H 123.414 -5.72166 2.13209 0
M  V30 1211 H 124.828 -4.24254 3.85592 0
M  V30 1212 H 123.225 -3.89388 4.56614 0
M  V30 1213 H 124.295 -2.55144 4.12346 0
M  V30 1214 N 125.638 -1.25649 -0.95132 0
M  V30 1215 C 126.57 -1.02112 -2.05197 0
M  V30 1216 C 127.583 0.0150571 -1.62793 0
M  V30 1217 O 128.772 -0.223874 -1.77091 0
M  V30 1218 C 125.872 -0.522361 -3.3485 0
M  V30 1219 C 125.045 -1.62546 -4.06076 0
M  V30 1220 C 124.104 -1.12649 -5.14001 0
M  V30 1221 O 123.13 -1.82156 -5.39266 0
M  V30 1222 N 124.332 0.03047 -5.80492 0
M  V30 1223 H 127.097 -1.96885 -2.25957 0
M  V30 1224 H 124.658 -1.16899 -1.1201 0
M  V30 1225 H 126.65 -0.172961 -4.0433 0
M  V30 1226 H 125.22 0.33151 -3.10837 0
M  V30 1227 H 124.44 -2.14628 -3.30649 0
M  V30 1228 H 125.728 -2.36644 -4.50419 0
M  V30 1229 H 125.126 0.611169 -5.62389 0
M  V30 1230 H 123.683 0.320875 -6.5101 0
M  V30 1231 N 127.117 1.15442 -1.07289 0
M  V30 1232 C 128.064 2.20161 -0.692653 0
M  V30 1233 C 129.034 1.63073 0.31564 0
M  V30 1234 O 130.219 1.89725 0.202235 0
M  V30 1235 C 127.359 3.44967 -0.0959509 0
M  V30 1236 C 126.472 4.16256 -1.15564 0
M  V30 1237 C 125.607 5.28609 -0.524011 0
M  V30 1238 C 124.646 5.91715 -1.56653 0
M  V30 1239 N 123.783 6.9554 -0.957531 0
M  V30 1240 H 128.623 2.52037 -1.59002 0
M  V30 1241 H 126.16 1.2378 -0.794798 0
M  V30 1242 H 128.118 4.16341 0.267628 0
M  V30 1243 H 126.748 3.1361 0.764772 0
M  V30 1244 H 125.8 3.43385 -1.6368 0
M  V30 1245 H 127.112 4.59268 -1.94613 0
M  V30 1246 H 126.266 6.06604 -0.108032 0
M  V30 1247 H 125.005 4.86787 0.29825 0
M  V30 1248 H 124.01 5.12433 -1.9923 0
M  V30 1249 H 125.235 6.35614 -2.39107 0
M  V30 1250 H 123.181 6.55814 -0.156162 0
M  V30 1251 H 123.098 7.36977 -1.68526 0
M  V30 1252 H 124.366 7.77435 -0.567032 0
M  V30 1253 N 128.595 0.856903 1.32268 0
M  V30 1254 C 129.841 0.471355 1.97863 0
M  V30 1255 C 130.196 -0.962896 1.66572 0
M  V30 1256 O 129.489 -1.66686 0.944797 0
M  V30 1257 C 129.683 0.649919 3.51441 0
M  V30 1258 C 129.512 2.09997 3.97657 0
M  V30 1259 C 128.282 2.73893 4.2463 0
M  V30 1260 C 130.48 3.07081 4.1256 0
M  V30 1261 N 128.462 4.09786 4.57109 0
M  V30 1262 C 129.833 4.27968 4.48602 0
M  V30 1263 C 131.888 3.03247 3.949 0
M  V30 1264 C 130.591 5.45521 4.68827 0
M  V30 1265 C 132.617 4.20046 4.16311 0
M  V30 1266 C 131.979 5.39692 4.52672 0
M  V30 1267 H 128.078 0.221263 0.750044 0
M  V30 1268 H 130.662 1.10876 1.60045 0
M  V30 1269 H 128.833 0.0421938 3.88377 0
M  V30 1270 H 130.565 0.234044 4.04023 0
M  V30 1271 H 127.32 2.24918 4.16784 0
M  V30 1272 H 127.744 4.7989 4.7753 0
M  V30 1273 H 132.386 2.11863 3.65888 0
M  V30 1274 H 130.104 6.37434 4.96693 0
M  V30 1275 H 133.69 4.18517 4.04147 0
M  V30 1276 H 132.57 6.28566 4.68907 0
M  V30 1277 N 130.073 -1.45103 0.615059 0
M  V30 1278 C 130.983 -2.34382 -0.101034 0
M  V30 1279 C 131.999 -1.51681 -0.852585 0
M  V30 1280 O 133.175 -1.8446 -0.808484 0
M  V30 1281 C 130.24 -3.29417 -1.08099 0
M  V30 1282 C 129.301 -4.28025 -0.330577 0
M  V30 1283 C 128.534 -5.1852 -1.26385 0
M  V30 1284 O 128.757 -5.12598 -2.50198 0
M  V30 1285 O 127.691 -5.97122 -0.756866 0
M  V30 1286 H 131.517 -2.97033 0.632855 0
M  V30 1287 H 129.102 -1.4461 0.375293 0
M  V30 1288 H 130.984 -3.87958 -1.6452 0
M  V30 1289 H 129.659 -2.69321 -1.79577 0
M  V30 1290 H 128.566 -3.73078 0.276283 0
M  V30 1291 H 129.899 -4.90997 0.343866 0
M  V30 1292 N 131.551 -0.354651 -1.53558 0
M  V30 1293 C 132.481 0.489091 -2.2832 0
M  V30 1294 C 133.462 1.09324 -1.30316 0
M  V30 1295 O 134.647 1.11255 -1.59173 0
M  V30 1296 C 131.777 1.63456 -3.0643 0
M  V30 1297 C 130.731 1.1582 -4.12031 0
M  V30 1298 C 130.057 2.39305 -4.7816 0
M  V30 1299 C 131.357 0.250731 -5.21698 0
M  V30 1300 H 133.051 -0.134614 -2.99097 0
M  V30 1301 H 130.597 -0.0661826 -1.43848 0
M  V30 1302 H 132.55 2.23136 -3.57475 0
M  V30 1303 H 131.274 2.28533 -2.33325 0
M  V30 1304 H 129.933 0.584146 -3.61916 0
M  V30 1305 H 129.581 3.02814 -4.01637 0
M  V30 1306 H 129.281 2.08109 -5.49513 0
M  V30 1307 H 130.805 2.99691 -5.31994 0
M  V30 1308 H 132.219 0.754695 -5.68311 0
M  V30 1309 H 130.616 0.0301468 -6.00092 0
M  V30 1310 H 131.686 -0.710125 -4.79672 0
M  V30 1311 N 133.029 1.57378 -0.0835403 0
M  V30 1312 C 133.977 2.14602 0.89714 0
M  V30 1313 C 134.971 1.08589 1.30018 0
M  V30 1314 O 136.177 1.26952 1.27606 0
M  V30 1315 H 132.552 0.686346 0.3073 0
M  V30 1316 H 134.523 2.95845 0.38969 0
M  V30 1317 C 133.272 2.73188 2.15089 0
M  V30 1318 H 132.595 3.54442 1.84962 0
M  V30 1319 H 134.035 3.1681 2.81793 0
M  V30 1320 C 132.494 1.68517 2.91725 0
M  V30 1321 O 133.024 1.11718 3.85852 0
M  V30 1322 N 131.23 1.39277 2.55049 0
M  V30 1323 H 130.777 1.85655 1.78577 0
M  V30 1324 H 130.735 0.694791 3.06627 0
M  V30 1325 N 134.507 -0.190092 1.56449 0
M  V30 1326 C 135.735 -0.925772 1.85033 0
M  V30 1327 C 136.15 -1.76638 0.666658 0
M  V30 1328 O 135.507 -1.78822 -0.364565 0
M  V30 1329 C 135.558 -1.81786 3.12468 0
M  V30 1330 O 135.279 -1.01118 4.26271 0
M  V30 1331 C 136.78 -2.6648 3.54265 0
M  V30 1332 H 134 -0.269872 0.614337 0
M  V30 1333 H 136.544 -0.195837 2.0356 0
M  V30 1334 H 134.699 -2.50136 2.95822 0
M  V30 1335 H 135.113 -1.61956 4.98869 0
M  V30 1336 H 136.587 -3.24722 4.46385 0
M  V30 1337 H 137.064 -3.40434 2.77491 0
M  V30 1338 H 137.67 -2.03493 3.73458 0
M  V30 1339 N 135.985 -1.50799 -0.457987 0
M  V30 1340 C 137.215 -1.65977 -1.23025 0
M  V30 1341 C 137.623 -0.347918 -1.85974 0
M  V30 1342 O 136.966 0.68148 -1.70592 0
M  V30 1343 C 137.028 -2.70309 -2.3701 0
M  V30 1344 C 136.692 -4.135 -1.94594 0
M  V30 1345 C 137.689 -4.98949 -1.46101 0
M  V30 1346 C 135.374 -4.5949 -2.02915 0
M  V30 1347 C 137.368 -6.28442 -1.06489 0
M  V30 1348 C 135.055 -5.88984 -1.62914 0
M  V30 1349 C 136.053 -6.73286 -1.1478 0
M  V30 1350 O 135.741 -8.00362 -0.75339 0
M  V30 1351 H 135.473 -0.56064 -0.377702 0
M  V30 1352 H 138.027 -1.97857 -0.551537 0
M  V30 1353 H 136.257 -2.337 -3.08093 0
M  V30 1354 H 137.946 -2.74574 -2.98938 0
M  V30 1355 H 138.712 -4.6463 -1.39084 0
M  V30 1356 H 134.591 -3.94009 -2.39328 0
M  V30 1357 H 138.135 -6.94194 -0.688488 0
M  V30 1358 H 134.032 -6.22822 -1.69595 0
M  V30 1359 H 134.8 -8.13744 -0.88108 0
M  V30 1360 N 137.463 0.71206 -1.40597 0
M  V30 1361 C 138.393 1.83889 -1.43899 0
M  V30 1362 C 139.374 1.67442 -0.299504 0
M  V30 1363 O 140.559 1.87421 -0.508624 0
M  V30 1364 C 137.689 3.21877 -1.30431 0
M  V30 1365 C 136.643 3.53002 -2.42019 0
M  V30 1366 C 135.969 4.90172 -2.13626 0
M  V30 1367 C 137.269 3.53643 -3.84362 0
M  V30 1368 H 138.963 1.81383 -2.38203 0
M  V30 1369 H 136.509 0.871237 -1.14654 0
M  V30 1370 H 138.462 4.00404 -1.31357 0
M  V30 1371 H 137.186 3.24968 -0.326049 0
M  V30 1372 H 135.845 2.76818 -2.40349 0
M  V30 1373 H 135.493 4.89869 -1.14182 0
M  V30 1374 H 135.193 5.11962 -2.88389 0
M  V30 1375 H 136.717 5.71028 -2.1624 0
M  V30 1376 H 138.131 4.22203 -3.87837 0
M  V30 1377 H 136.528 3.86961 -4.58673 0
M  V30 1378 H 137.598 2.52954 -4.13693 0
M  V30 1379 N 138.941 1.26152 0.944643 0
M  V30 1380 C 140.171 1.14094 1.72239 0
M  V30 1381 C 140.579 -0.306931 1.86694 0
M  V30 1382 O 139.922 -1.22222 1.3714 0
M  V30 1383 C 139.984 1.73316 3.14963 0
M  V30 1384 C 139.648 3.2239 3.23904 0
M  V30 1385 C 140.645 4.19252 3.07447 0
M  V30 1386 C 138.33 3.62788 3.47405 0
M  V30 1387 C 140.324 5.54491 3.14353 0
M  V30 1388 C 138.011 4.98162 3.53947 0
M  V30 1389 C 139.009 5.93823 3.37436 0
M  V30 1390 O 138.697 7.26732 3.43679 0
M  V30 1391 H 138.429 0.398292 0.546205 0
M  V30 1392 H 140.983 1.67201 1.19301 0
M  V30 1393 H 139.213 1.14667 3.69308 0
M  V30 1394 H 140.902 1.56214 3.74636 0
M  V30 1395 H 141.668 3.8938 2.8915 0
M  V30 1396 H 137.547 2.88816 3.59313 0
M  V30 1397 H 141.091 6.29137 3.01384 0
M  V30 1398 H 136.988 5.27695 3.71763 0
M  V30 1399 H 137.756 7.3496 3.60245 0
M  V30 1400 N 140.419 -1.14872 1.07899 0
M  V30 1401 C 141.382 -2.17986 0.708161 0
M  V30 1402 C 142.382 -1.58775 -0.25442 0
M  V30 1403 O 143.572 -1.74166 -0.034645 0
M  V30 1404 C 140.704 -3.40871 0.0446929 0
M  V30 1405 H 141.897 -2.52306 1.62116 0
M  V30 1406 H 139.45 -1.2943 0.876218 0
M  V30 1407 H 140.185 -3.12124 -0.880281 0
M  V30 1408 H 139.97 -3.8511 0.737091 0
M  V30 1409 H 141.46 -4.17121 -0.19991 0
M  V30 1410 N 141.898 -0.863906 -1.31812 0
M  V30 1411 C 143.309 -0.52522 -1.7916 0
M  V30 1412 C 143.66 0.957518 -1.71248 0
M  V30 1413 O 142.785 1.74734 -1.27659 0
M  V30 1414 C 143.38 -0.9466 -3.25307 0
M  V30 1415 C 141.939 -0.659668 -3.70574 0
M  V30 1416 C 141.086 -1.14126 -2.52726 0
M  V30 1417 H 144.037 -1.05022 -1.1898 0
M  V30 1418 H 144.058 -0.266766 -3.79564 0
M  V30 1419 H 143.57 -2.02579 -3.31034 0
M  V30 1420 H 141.671 0.408416 -3.70355 0
M  V30 1421 H 141.784 -1.23245 -4.62977 0
M  V30 1422 H 140.148 -0.561216 -2.4844 0
M  V30 1423 H 140.931 -2.22775 -2.61201 0
M  V30 1424 N 143.376 1.44774 -0.622745 0
M  V30 1425 C 144.323 2.30635 0.0871679 0
M  V30 1426 C 145.293 1.42994 0.845097 0
M  V30 1427 O 146.478 1.71907 0.827812 0
M  V30 1428 C 143.618 3.28144 1.06844 0
M  V30 1429 C 142.731 4.30888 0.309809 0
M  V30 1430 C 141.866 5.15494 1.28215 0
M  V30 1431 C 140.905 6.09953 0.512198 0
M  V30 1432 N 140.042 6.87287 1.43458 0
M  V30 1433 H 144.882 2.90803 -0.650974 0
M  V30 1434 H 142.419 1.43286 -0.33281 0
M  V30 1435 H 144.377 3.83157 1.65066 0
M  V30 1436 H 143.007 2.69695 1.77382 0
M  V30 1437 H 142.059 3.78414 -0.388181 0
M  V30 1438 H 143.371 4.97955 -0.290254 0
M  V30 1439 H 142.525 5.74983 1.93596 0
M  V30 1440 H 141.264 4.48481 1.91614 0
M  V30 1441 H 140.269 5.49581 -0.155151 0
M  V30 1442 H 141.494 6.78999 -0.116958 0
M  V30 1443 H 139.44 6.2295 2.05594 0
M  V30 1444 H 139.357 7.50763 0.888335 0
M  V30 1445 H 140.625 7.51306 2.07749 0
M  V30 1446 N 144.854 0.36279 1.53368 0
M  V30 1447 C 146.131 -0.284021 1.93527 0
M  V30 1448 C 146.511 -1.66628 1.29608 0
M  V30 1449 O 145.859 -2.23942 0.45413 0
M  V30 1450 C 146.069 -0.337028 3.47369 0
M  V30 1451 C 147.417 -0.578708 4.20638 0
M  V30 1452 O 148.441 -0.418352 3.53735 0
M  V30 1453 O 147.3 -0.89074 5.39192 0
M  V30 1454 H 144.394 -0.169743 0.809393 0
M  V30 1455 H 146.94 0.41537 1.64538 0
M  V30 1456 H 145.712 0.632217 3.86159 0
M  V30 1457 H 145.335 -1.08243 3.82582 0
M  V30 1458 N 146.332 -1.57332 0.0918853 0
M  V30 1459 C 147.609 -1.85691 -0.614668 0
M  V30 1460 C 147.989 -0.988146 -1.86545 0
M  V30 1461 O 147.337 -0.0597055 -2.28422 0
M  V30 1462 C 147.547 -3.36294 -0.933126 0
M  V30 1463 C 148.895 -4.04275 -1.29796 0
M  V30 1464 O 149.919 -3.41157 -1.02424 0
M  V30 1465 O 148.778 -5.1564 -1.81047 0
M  V30 1466 H 145.872 -0.767802 -0.307261 0
M  V30 1467 H 148.418 -1.69244 0.12434 0
M  V30 1468 H 147.19 -3.91273 -0.0456404 0
M  V30 1469 H 146.813 -3.58076 -1.72822 0
M  V30 1470 N 147.81 0.181792 -1.56548 0
M  V30 1471 C 149.04 0.914618 -1.85252 0
M  V30 1472 C 149.448 1.76791 -0.673914 0
M  V30 1473 O 148.791 1.80009 0.366416 0
M  V30 1474 C 148.853 1.85019 -3.08234 0
M  V30 1475 C 148.517 1.17754 -4.41569 0
M  V30 1476 C 149.514 0.548035 -5.17003 0
M  V30 1477 C 147.199 1.17742 -4.88305 0
M  V30 1478 C 149.193 -0.0726128 -6.37359 0
M  V30 1479 C 146.88 0.552946 -6.08593 0
M  V30 1480 C 147.878 -0.070978 -6.82963 0
M  V30 1481 O 147.566 -0.685635 -8.00971 0
M  V30 1482 H 147.298 0.271695 -0.618998 0
M  V30 1483 H 149.852 0.189944 -2.0452 0
M  V30 1484 H 148.082 2.61491 -2.84885 0
M  V30 1485 H 149.771 2.45195 -3.23472 0
M  V30 1486 H 150.537 0.540174 -4.81982 0
M  V30 1487 H 146.416 1.65246 -4.30366 0
M  V30 1488 H 149.96 -0.560213 -6.95347 0
M  V30 1489 H 145.857 0.558354 -6.43081 0
M  V30 1490 H 146.625 -0.58385 -8.16415 0
M  V30 1491 N 149.288 1.51039 0.449983 0
M  V30 1492 C 150.235 1.71439 1.54523 0
M  V30 1493 C 151.205 0.555871 1.56522 0
M  V30 1494 O 152.39 0.788871 1.73728 0
M  V30 1495 C 149.53 1.83384 2.92343 0
M  V30 1496 C 148.643 3.10873 2.9997 0
M  V30 1497 C 147.778 3.13488 4.28834 0
M  V30 1498 C 146.817 4.35343 4.30282 0
M  V30 1499 N 145.954 4.35579 5.5065 0
M  V30 1500 H 150.794 2.64934 1.36433 0
M  V30 1501 H 148.331 1.31312 0.662982 0
M  V30 1502 H 150.289 1.88291 3.72293 0
M  V30 1503 H 148.919 0.933086 3.0902 0
M  V30 1504 H 147.971 3.15336 2.12761 0
M  V30 1505 H 149.283 4.00814 2.96901 0
M  V30 1506 H 148.437 3.17241 5.17149 0
M  V30 1507 H 147.176 2.21414 4.34543 0
M  V30 1508 H 146.181 4.3178 3.40362 0
M  V30 1509 H 147.406 5.28668 4.26248 0
M  V30 1510 H 145.352 3.46369 5.57104 0
M  V30 1511 H 145.269 5.19313 5.49409 0
M  V30 1512 H 146.537 4.43507 6.41032 0
M  V30 1513 N 150.766 -0.704594 1.40972 0
M  V30 1514 C 151.716 -1.81051 1.38581 0
M  V30 1515 C 152.7 -1.58759 0.261585 0
M  V30 1516 O 153.892 -1.69745 0.501556 0
M  V30 1517 C 151.021 -3.19279 1.26157 0
M  V30 1518 C 150.107 -3.47296 2.43405 0
M  V30 1519 N 150.498 -3.46064 3.68881 0
M  V30 1520 C 148.796 -3.77804 2.37023 0
M  V30 1521 C 149.497 -3.72733 4.46592 0
M  V30 1522 N 148.473 -3.9203 3.76581 0
M  V30 1523 H 152.275 -1.78448 2.33525 0
M  V30 1524 H 149.789 -0.904198 1.349 0
M  V30 1525 H 151.786 -3.98488 1.22526 0
M  V30 1526 H 150.446 -3.231 0.321902 0
M  V30 1527 H 151.457 -3.26656 4.01891 0
M  V30 1528 H 148.134 -3.8905 1.51481 0
M  V30 1529 H 149.524 -3.77993 5.55492 0
M  V30 1530 N 152.244 -1.26651 -0.937939 0
M  V30 1531 C 153.66 -1.03834 -1.21205 0
M  V30 1532 C 153.86 0.234502 -2.00131 0
M  V30 1533 O 152.916 0.942767 -2.3424 0
M  V30 1534 C 154.229 -2.27167 -1.97017 0
M  V30 1535 C 155.777 -2.32101 -2.09996 0
M  V30 1536 C 156.252 -3.55136 -2.8921 0
M  V30 1537 N 157.743 -3.55632 -2.96783 0
M  V30 1538 C 158.478 -4.475 -3.58512 0
M  V30 1539 N 157.974 -5.4966 -4.21717 0
M  V30 1540 N 159.767 -4.35145 -3.55816 0
M  V30 1541 H 151.918 -2.08398 -0.410391 0
M  V30 1542 H 154.181 -0.916031 -0.244114 0
M  V30 1543 H 153.887 -3.19765 -1.46434 0
M  V30 1544 H 153.761 -2.31672 -2.97671 0
M  V30 1545 H 156.148 -1.40015 -2.59769 0
M  V30 1546 H 156.229 -2.31605 -1.08594 0
M  V30 1547 H 155.873 -4.47553 -2.40123 0
M  V30 1548 H 155.803 -3.5288 -3.90875 0
M  V30 1549 H 158.294 -2.81743 -2.51852 0
M  V30 1550 H 158.607 -6.15943 -4.66727 0
M  V30 1551 H 156.952 -5.53514 -4.20294 0
M  V30 1552 H 160.143 -3.5455 -3.05634 0
M  V30 1553 H 160.316 -5.06934 -4.03636 0
M  V30 1554 N 153.722 1.14298 -1.08507 0
M  V30 1555 C 154.655 2.18447 -0.660004 0
M  V30 1556 C 155.633 1.59242 0.328749 0
M  V30 1557 O 156.817 1.87062 0.232367 0
M  V30 1558 C 153.944 3.38688 0.0290807 0
M  V30 1559 C 152.99 4.1646 -0.919982 0
M  V30 1560 S 153.823 4.77334 -2.42718 0
M  V30 1561 C 154.979 6.00931 -1.75024 0
M  V30 1562 H 155.212 2.54166 -1.54231 0
M  V30 1563 H 152.745 1.25446 -0.900149 0
M  V30 1564 H 154.703 4.08342 0.420378 0
M  V30 1565 H 153.364 3.01289 0.887895 0
M  V30 1566 H 152.557 5.02529 -0.384751 0
M  V30 1567 H 152.159 3.52414 -1.25223 0
M  V30 1568 H 154.451 6.69017 -1.06877 0
M  V30 1569 H 155.394 6.59044 -2.58971 0
M  V30 1570 H 155.802 5.51089 -1.22317 0
M  V30 1571 N 155.201 0.870884 1.31352 0
M  V30 1572 C 156.448 0.482273 1.96673 0
M  V30 1573 C 156.776 -0.965638 1.68836 0
M  V30 1574 O 156.031 -1.69514 0.977937 0
M  V30 1575 C 156.33 0.687157 3.50732 0
M  V30 1576 C 155.996 2.108 3.9859 0
M  V30 1577 C 154.658 2.49656 4.1137 0
M  V30 1578 C 157.01 3.03459 4.23748 0
M  V30 1579 C 154.338 3.80412 4.46659 0
M  V30 1580 C 156.69 4.3373 4.60501 0
M  V30 1581 C 155.354 4.725 4.71487 0
M  V30 1582 H 154.624 0.176476 0.719679 0
M  V30 1583 H 157.271 1.10405 1.56471 0
M  V30 1584 H 155.576 -0.0177476 3.91796 0
M  V30 1585 H 157.273 0.366284 3.99324 0
M  V30 1586 H 153.863 1.79633 3.8914 0
M  V30 1587 H 158.047 2.74665 4.13368 0
M  V30 1588 H 153.303 4.1021 4.53362 0
M  V30 1589 H 157.477 5.05578 4.78919 0
M  V30 1590 H 155.104 5.73859 4.98588 0
M  V30 1591 N 156.679 -1.44442 0.630414 0
M  V30 1592 C 157.925 -2.02894 0.143332 0
M  V30 1593 C 158.28 -1.48697 -1.22094 0
M  V30 1594 O 157.573 -0.661171 -1.79831 0
M  V30 1595 C 157.767 -3.57332 0.0697835 0
M  V30 1596 C 157.596 -4.26512 1.42539 0
M  V30 1597 C 156.366 -4.63516 2.01198 0
M  V30 1598 C 158.564 -4.57004 2.35907 0
M  V30 1599 N 156.546 -5.17661 3.30001 0
M  V30 1600 C 157.917 -5.12223 3.49324 0
M  V30 1601 C 159.972 -4.38955 2.34995 0
M  V30 1602 C 158.675 -5.51295 4.62024 0
M  V30 1603 C 160.701 -4.79075 3.46758 0
M  V30 1604 C 160.063 -5.34407 4.58899 0
M  V30 1605 H 156.162 -0.776041 0.0963523 0
M  V30 1606 H 158.746 -1.75945 0.833752 0
M  V30 1607 H 156.917 -3.83894 -0.589915 0
M  V30 1608 H 158.649 -4.02451 -0.42606 0
M  V30 1609 H 155.404 -4.47811 1.54151 0
M  V30 1610 H 155.828 -5.4921 3.95851 0
M  V30 1611 H 160.47 -3.95469 1.49545 0
M  V30 1612 H 158.188 -5.93736 5.48182 0
M  V30 1613 H 161.774 -4.66824 3.47227 0
M  V30 1614 H 160.654 -5.64878 5.4395 0
M  V30 1615 N 158.157 -0.370918 -1.53173 0
M  V30 1616 C 159.573 -0.0200818 -1.59587 0
M  V30 1617 C 159.773 1.46279 -1.38581 0
M  V30 1618 O 158.829 2.22506 -1.19363 0
M  V30 1619 C 160.142 -0.4808 -2.96831 0
M  V30 1620 C 161.69 -0.435477 -3.09956 0
M  V30 1621 C 162.165 -0.872092 -4.4962 0
M  V30 1622 N 163.656 -0.827364 -4.55751 0
M  V30 1623 C 164.391 -1.13683 -5.62018 0
M  V30 1624 N 163.887 -1.51584 -6.76014 0
M  V30 1625 N 165.68 -1.05927 -5.52029 0
M  V30 1626 H 157.831 -1.33652 -1.65079 0
M  V30 1627 H 160.094 -0.546634 -0.774529 0
M  V30 1628 H 159.8 -1.51577 -3.1736 0
M  V30 1629 H 159.674 0.129796 -3.76977 0
M  V30 1630 H 162.061 0.590371 -2.89134 0
M  V30 1631 H 162.142 -1.08164 -2.31806 0
M  V30 1632 H 161.786 -1.89608 -4.71181 0
M  V30 1633 H 161.716 -0.203127 -5.26208 0
M  V30 1634 H 164.207 -0.548216 -3.73902 0
M  V30 1635 H 164.52 -1.73609 -7.53047 0
M  V30 1636 H 162.865 -1.55454 -6.77391 0
M  V30 1637 H 166.056 -0.762321 -4.61851 0
M  V30 1638 H 166.229 -1.30378 -6.34749 0
M  V30 1639 N 159.635 1.57281 -0.100228 0
M  V30 1640 C 160.545 2.17833 0.870965 0
M  V30 1641 C 161.561 1.14921 1.30649 0
M  V30 1642 O 162.737 1.47313 1.37335 0
M  V30 1643 C 159.802 2.75085 2.1102 0
M  V30 1644 C 158.863 3.9297 1.72838 0
M  V30 1645 C 158.096 4.47482 2.90854 0
M  V30 1646 O 158.319 4.00922 4.05731 0
M  V30 1647 O 157.253 5.38433 2.69023 0
M  V30 1648 H 161.079 3.0124 0.38575 0
M  V30 1649 H 158.664 1.48881 0.124397 0
M  V30 1650 H 160.546 3.11656 2.83634 0
M  V30 1651 H 159.221 1.94721 2.58584 0
M  V30 1652 H 158.128 3.61201 0.973883 0
M  V30 1653 H 159.461 4.74713 1.30033 0
M  V30 1654 N 161.113 -0.173488 1.56642 0
M  V30 1655 C 162.046 -1.24353 1.91342 0
M  V30 1656 C 163.024 -1.4289 0.775965 0
M  V30 1657 O 164.208 -1.57932 1.02907 0
M  V30 1658 C 161.335 -2.60683 2.16245 0
M  V30 1659 C 160.381 -2.58894 3.38934 0
M  V30 1660 S 161.214 -2.0819 4.93373 0
M  V30 1661 C 162.37 -3.46302 5.21369 0
M  V30 1662 H 162.603 -0.947345 2.81803 0
M  V30 1663 H 160.136 -0.377958 1.49703 0
M  V30 1664 H 162.094 -3.39149 2.31275 0
M  V30 1665 H 160.755 -2.87502 1.26496 0
M  V30 1666 H 159.948 -3.59188 3.53553 0
M  V30 1667 H 159.55 -1.88522 3.2301 0
M  V30 1668 H 161.842 -4.42287 5.13214 0
M  V30 1669 H 162.785 -3.3656 6.23003 0
M  V30 1670 H 163.193 -3.42214 4.48943 0
M  V30 1671 N 162.591 -1.51276 -0.441967 0
M  V30 1672 C 163.821 -1.67273 -1.21257 0
M  V30 1673 C 164.229 -0.367624 -1.85594 0
M  V30 1674 O 163.572 0.663349 -1.71305 0
M  V30 1675 C 163.634 -2.72807 -2.34129 0
M  V30 1676 C 163.298 -4.1554 -1.90198 0
M  V30 1677 C 164.295 -5.00471 -1.40801 0
M  V30 1678 C 161.98 -4.61616 -1.9803 0
M  V30 1679 C 163.974 -6.29536 -0.998174 0
M  V30 1680 C 161.661 -5.90679 -1.56658 0
M  V30 1681 C 162.659 -6.74466 -1.07633 0
M  V30 1682 O 162.347 -8.01116 -0.668459 0
M  V30 1683 H 162.079 -0.564614 -0.371734 0
M  V30 1684 H 164.633 -1.9843 -0.530521 0
M  V30 1685 H 162.863 -2.36954 -3.05597 0
M  V30 1686 H 164.552 -2.77729 -2.96009 0
M  V30 1687 H 165.318 -4.66079 -1.34148 0
M  V30 1688 H 161.197 -3.96526 -2.35135 0
M  V30 1689 H 164.741 -6.94885 -0.61482 0
M  V30 1690 H 160.638 -6.24586 -1.62979 0
M  V30 1691 H 161.406 -8.14633 -0.794722 0
M  V30 1692 N 164.069 0.697108 -1.41344 0
M  V30 1693 C 165.294 1.49096 -1.44171 0
M  V30 1694 C 165.719 1.88038 -0.0481568 0
M  V30 1695 O 165.077 1.54525 0.948243 0
M  V30 1696 C 165.125 2.73088 -2.3549 0
M  V30 1697 O 164.229 3.70514 -1.81088 0
M  V30 1698 H 163.57 0.448801 -0.489361 0
M  V30 1699 H 166.1 0.856992 -1.85787 0
M  V30 1700 H 166.11 3.21413 -2.51312 0
M  V30 1701 H 164.785 2.44081 -3.36745 0
M  V30 1702 H 163.362 3.29441 -1.74708 0
M  V30 1703 N 165.547 1.27147 0.931209 0
M  V30 1704 C 166.793 1.13446 1.68101 0
M  V30 1705 C 167.126 -0.319628 1.91552 0
M  V30 1706 O 166.401 -1.23407 1.50336 0
M  V30 1707 C 166.684 1.91482 3.0497 0
M  V30 1708 C 166.537 3.44855 2.88782 0
M  V30 1709 C 167.856 1.71651 4.05246 0
M  V30 1710 H 164.975 0.413498 0.610072 0
M  V30 1711 H 167.617 1.56261 1.08086 0
M  V30 1712 H 165.767 1.55095 3.56199 0
M  V30 1713 H 167.439 3.9105 2.44698 0
M  V30 1714 H 165.682 3.71373 2.24198 0
M  V30 1715 H 166.353 3.94694 3.85902 0
M  V30 1716 H 168.829 2.0337 3.63015 0
M  V30 1717 H 167.705 2.28651 4.99009 0
M  V30 1718 H 167.966 0.663555 4.37092 0
M  V30 1719 N 167.025 -1.13721 1.09112 0
M  V30 1720 C 167.935 -2.22638 0.73957 0
M  V30 1721 C 168.951 -1.72091 -0.257068 0
M  V30 1722 O 170.127 -2.01155 -0.0992154 0
M  V30 1723 C 167.192 -3.46322 0.16191 0
M  V30 1724 C 166.253 -4.11775 1.21408 0
M  V30 1725 C 165.486 -5.29555 0.663891 0
M  V30 1726 O 165.709 -5.68077 -0.514274 0
M  V30 1727 O 164.643 -5.84973 1.41738 0
M  V30 1728 H 168.469 -2.55074 1.64836 0
M  V30 1729 H 166.054 -1.21791 0.865289 0
M  V30 1730 H 167.936 -4.21107 -0.157073 0
M  V30 1731 H 166.611 -3.15593 -0.719932 0
M  V30 1732 H 165.518 -3.3883 1.58571 0
M  V30 1733 H 166.851 -4.46627 2.06845 0
M  V30 1734 N 168.503 -0.877838 -1.30888 0
M  V30 1735 C 169.413 -0.343096 -2.32078 0
M  V30 1736 C 170.429 0.551022 -1.65045 0
M  V30 1737 O 171.605 0.445854 -1.96403 0
M  V30 1738 C 168.67 0.439905 -3.43898 0
M  V30 1739 C 167.731 -0.483111 -4.26573 0
M  V30 1740 C 166.964 0.262616 -5.33053 0
M  V30 1741 O 167.187 1.48967 -5.50604 0
M  V30 1742 O 166.121 -0.383593 -6.00676 0
M  V30 1743 H 169.947 -1.18203 -2.79753 0
M  V30 1744 H 167.532 -0.64145 -1.34929 0
M  V30 1745 H 169.414 0.883504 -4.12034 0
M  V30 1746 H 168.089 1.25526 -2.98371 0
M  V30 1747 H 166.996 -0.975374 -3.61161 0
M  V30 1748 H 168.329 -1.26427 -4.75686 0
M  V30 1749 N 169.982 1.44106 -0.638065 0
M  V30 1750 C 170.945 2.29138 0.0531013 0
M  V30 1751 C 171.945 1.41409 0.765506 0
M  V30 1752 O 173.135 1.63206 0.609046 0
M  V30 1753 C 170.267 3.23144 1.08584 0
M  V30 1754 H 171.46 2.91739 -0.694883 0
M  V30 1755 H 169.013 1.51134 -0.398538 0
M  V30 1756 H 169.748 2.65408 1.86357 0
M  V30 1757 H 169.533 3.87804 0.578852 0
M  V30 1758 H 171.023 3.87004 1.56899 0
M  V30 1759 N 171.46 0.379036 1.52974 0
M  V30 1760 C 172.37 -0.468639 2.29872 0
M  V30 1761 C 173.386 -1.08067 1.36373 0
M  V30 1762 O 174.562 -1.08871 1.69438 0
M  V30 1763 C 171.627 -1.58594 3.083 0
M  V30 1764 C 170.688 -1.00007 4.17489 0
M  V30 1765 C 169.921 -2.06413 4.92168 0
M  V30 1766 O 170.144 -3.27751 4.66835 0
M  V30 1767 O 169.078 -1.68717 5.7777 0
M  V30 1768 H 172.904 0.157508 3.03291 0
M  V30 1769 H 170.489 0.143035 1.48714 0
M  V30 1770 H 172.371 -2.23525 3.57232 0
M  V30 1771 H 171.046 -2.19724 2.37703 0
M  V30 1772 H 169.953 -0.314299 3.72777 0
M  V30 1773 H 171.286 -0.433135 4.90291 0
M  V30 1774 N 172.938 -1.57226 0.108567 0
M  V30 1775 C 173.87 -2.11809 -0.875752 0
M  V30 1776 C 174.883 -1.05839 -1.23701 0
M  V30 1777 O 176.072 -1.33245 -1.18778 0
M  V30 1778 C 173.172 -2.59411 -2.18081 0
M  V30 1779 C 172.345 -3.89364 -1.99284 0
M  V30 1780 C 171.404 -4.22672 -3.13424 0
M  V30 1781 O 170.43 -4.91668 -2.86795 0
M  V30 1782 N 171.632 -3.79154 -4.3957 0
M  V30 1783 H 174.397 -2.9689 -0.409477 0
M  V30 1784 H 171.958 -1.61721 -0.076158 0
M  V30 1785 H 173.95 -2.7873 -2.93414 0
M  V30 1786 H 172.52 -1.79268 -2.5609 0
M  V30 1787 H 171.74 -3.79059 -1.08203 0
M  V30 1788 H 173.028 -4.74358 -1.84017 0
M  V30 1789 H 172.426 -3.23486 -4.64083 0
M  V30 1790 H 170.983 -4.03602 -5.11809 0
M  V30 1791 N 174.416 0.165178 -1.56732 0
M  V30 1792 C 175.346 1.20651 -1.99914 0
M  V30 1793 C 176.327 1.45827 -0.875705 0
M  V30 1794 O 177.512 1.57057 -1.14223 0
M  V30 1795 C 174.642 2.54401 -2.36427 0
M  V30 1796 C 173.596 2.43782 -3.51787 0
M  V30 1797 C 172.922 3.82078 -3.7406 0
M  V30 1798 C 174.222 1.93732 -4.85041 0
M  V30 1799 H 175.916 0.847534 -2.87154 0
M  V30 1800 H 173.462 0.40625 -1.38151 0
M  V30 1801 H 175.415 3.27458 -2.65234 0
M  V30 1802 H 174.139 2.92098 -1.46103 0
M  V30 1803 H 172.798 1.73178 -3.23117 0
M  V30 1804 H 172.446 4.17179 -2.81017 0
M  V30 1805 H 172.146 3.7584 -4.51684 0
M  V30 1806 H 173.67 4.56712 -4.05274 0
M  V30 1807 H 175.084 2.56569 -5.12684 0
M  V30 1808 H 173.481 1.98428 -5.66345 0
M  V30 1809 H 174.551 0.891962 -4.76626 0
M  V30 1810 N 175.894 1.51508 0.433938 0
M  V30 1811 C 176.827 1.67756 1.54704 0
M  V30 1812 C 177.805 0.525127 1.53887 0
M  V30 1813 O 178.989 0.749393 1.72963 0
M  V30 1814 C 176.116 1.69424 2.9328 0
M  V30 1815 C 175.162 2.90673 3.12108 0
M  V30 1816 S 175.995 4.51431 2.88046 0
M  V30 1817 C 177.151 4.55849 4.28897 0
M  V30 1818 H 177.384 2.61904 1.40689 0
M  V30 1819 H 174.917 1.41235 0.62386 0
M  V30 1820 H 176.875 1.7107 3.73156 0
M  V30 1821 H 175.536 0.764464 3.04655 0
M  V30 1822 H 174.729 2.88251 4.13434 0
M  V30 1823 H 174.331 2.86786 2.40062 0
M  V30 1824 H 176.623 4.31699 5.22152 0
M  V30 1825 H 177.566 5.57676 4.36351 0
M  V30 1826 H 177.974 3.85137 4.12711 0
M  V30 1827 N 177.372 -0.689602 1.41712 0
M  V30 1828 C 178.6 -1.47827 1.44758 0
M  V30 1829 C 179.015 -1.88721 0.0545703 0
M  V30 1830 O 178.372 -1.57176 -0.927463 0
M  V30 1831 C 178.423 -2.73698 2.3616 0
M  V30 1832 O 178.144 -2.34524 3.7004 0
M  V30 1833 C 179.645 -3.67389 2.48072 0
M  V30 1834 H 176.865 -0.455357 0.49284 0
M  V30 1835 H 179.409 -0.848574 1.86063 0
M  V30 1836 H 177.564 -3.32891 1.98148 0
M  V30 1837 H 177.978 -3.15701 4.18847 0
M  V30 1838 H 179.452 -4.52475 3.16181 0
M  V30 1839 H 179.929 -4.12284 1.51388 0
M  V30 1840 H 180.535 -3.14097 2.86746 0
M  V30 1841 N 178.85 -1.27639 -0.924453 0
M  V30 1842 C 179.78 -1.13166 -2.04244 0
M  V30 1843 C 180.761 -0.032256 -1.70069 0
M  V30 1844 O 181.946 -0.207328 -1.9309 0
M  V30 1845 C 179.076 -0.781496 -3.38393 0
M  V30 1846 C 178.03 -1.83449 -3.86692 0
M  V30 1847 C 177.356 -1.33822 -5.17683 0
M  V30 1848 C 178.656 -3.23917 -4.09726 0
M  V30 1849 H 180.35 -2.06689 -2.1661 0
M  V30 1850 H 177.896 -0.995136 -1.04082 0
M  V30 1851 H 179.849 -0.667057 -4.16087 0
M  V30 1852 H 178.573 0.189439 -3.2605 0
M  V30 1853 H 177.232 -1.93789 -3.11193 0
M  V30 1854 H 176.88 -0.35665 -5.01734 0
M  V30 1855 H 176.58 -2.04224 -5.50968 0
M  V30 1856 H 178.104 -1.23679 -5.97943 0
M  V30 1857 H 179.518 -3.16559 -4.77978 0
M  V30 1858 H 177.915 -3.92059 -4.54324 0
M  V30 1859 H 178.985 -3.68729 -3.14908 0
M  V30 1860 N 180.328 1.1314 -1.09713 0
M  V30 1861 C 181.577 1.83838 -0.829851 0
M  V30 1862 C 181.89 1.84599 0.646728 0
M  V30 1863 O 183.096 2.51218 1.02965 0
M  V30 1864 C 181.552 3.30069 -1.43466 0
M  V30 1865 C 181.16 3.37688 -2.94399 0
M  V30 1866 C 182.904 4.05788 -1.24645 0
M  V30 1867 C 180.811 4.78209 -3.47952 0
M  V30 1868 H 179.741 0.68877 -0.306777 0
M  V30 1869 H 182.392 1.27448 -1.3202 0
M  V30 1870 H 180.774 3.8628 -0.871996 0
M  V30 1871 H 181.948 2.91456 -3.56918 0
M  V30 1872 H 180.263 2.75436 -3.12289 0
M  V30 1873 H 182.86 5.09535 -1.62107 0
M  V30 1874 H 183.203 4.15878 -0.187357 0
M  V30 1875 H 183.736 3.55915 -1.77678 0
M  V30 1876 H 180.475 4.73311 -4.53495 0
M  V30 1877 H 179.995 5.24924 -2.90198 0
M  V30 1878 H 181.674 5.47133 -3.45332 0
M  V30 1879 N 181.806 0.884767 1.30421 0
M  V30 1880 C 183.031 0.517288 2.00845 0
M  V30 1881 C 183.456 -0.886779 1.65885 0
M  V30 1882 O 182.814 -1.58768 0.875354 0
M  V30 1883 C 182.862 0.698994 3.5376 0
M  V30 1884 O 181.966 -0.255208 4.1161 0
M  V30 1885 H 181.307 0.203872 0.631927 0
M  V30 1886 H 183.837 1.19225 1.66272 0
M  V30 1887 H 183.847 0.597912 4.03595 0
M  V30 1888 H 182.522 1.72271 3.78544 0
M  V30 1889 H 181.099 -0.10784 3.72744 0
M  V30 1890 N 183.284 -1.43765 0.645699 0
M  V30 1891 C 184.247 -2.29163 -0.0409488 0
M  V30 1892 C 185.247 -1.41813 -0.757996 0
M  V30 1893 O 186.437 -1.63527 -0.600382 0
M  V30 1894 C 183.569 -3.23716 -1.06869 0
M  V30 1895 H 184.762 -2.91366 0.710345 0
M  V30 1896 H 182.315 -1.5092 0.406547 0
M  V30 1897 H 183.05 -2.66393 -1.84947 0
M  V30 1898 H 182.835 -3.88105 -0.558277 0
M  V30 1899 H 184.325 -3.87831 -1.54845 0
M  V30 1900 N 184.763 -0.387143 -1.52771 0
M  V30 1901 C 185.726 0.436939 -2.24997 0
M  V30 1902 C 186.726 0.991991 -1.26555 0
M  V30 1903 O 187.916 0.874335 -1.50669 0
M  V30 1904 C 185.048 1.61281 -3.00335 0
M  V30 1905 H 186.241 -0.195365 -2.99263 0
M  V30 1906 H 183.794 -0.139218 -1.55679 0
M  V30 1907 H 184.529 2.2826 -2.30364 0
M  V30 1908 H 184.314 1.22154 -3.72587 0
M  V30 1909 H 185.804 2.19629 -3.5518 0
M  V30 1910 N 186.241 1.57166 -0.116904 0
M  V30 1911 C 187.657 1.5779 0.239693 0
M  V30 1912 C 187.857 1.1295 1.66867 0
M  V30 1913 O 186.913 0.81592 2.38954 0
M  V30 1914 C 188.226 3.00699 0.00828202 0
M  V30 1915 C 189.774 3.12912 0.0743438 0
M  V30 1916 C 190.249 4.57817 -0.129348 0
M  V30 1917 N 191.74 4.63139 -0.075247 0
M  V30 1918 C 192.475 5.73023 -0.207788 0
M  V30 1919 N 191.971 6.91665 -0.396382 0
M  V30 1920 N 193.764 5.61906 -0.14751 0
M  V30 1921 H 185.915 1.84615 -1.05029 0
M  V30 1922 H 188.178 0.85311 -0.41341 0
M  V30 1923 H 187.884 3.37784 -0.979531 0
M  V30 1924 H 187.758 3.69848 0.741077 0
M  V30 1925 H 190.145 2.75686 1.05268 0
M  V30 1926 H 190.226 2.4631 -0.690297 0
M  V30 1927 H 189.87 4.95742 -1.10465 0
M  V30 1928 H 189.8 5.22507 0.655253 0
M  V30 1929 H 192.291 3.7784 0.0670898 0
M  V30 1930 H 192.604 7.71255 -0.488437 0
M  V30 1931 H 190.949 6.93654 -0.432329 0
M  V30 1932 H 194.14 4.681 -0.00115036 0
M  V30 1933 H 194.313 6.47501 -0.254247 0
M  V30 1934 N 187.719 -0.156864 1.56817 0
M  V30 1935 C 188.629 -1.2136 2.00771 0
M  V30 1936 C 189.645 -1.47598 0.921459 0
M  V30 1937 O 190.821 -1.59462 1.2302 0
M  V30 1938 C 187.886 -2.52943 2.37109 0
M  V30 1939 C 186.947 -2.34439 3.59634 0
M  V30 1940 C 186.18 -3.59748 3.94229 0
M  V30 1941 O 186.403 -4.65526 3.29609 0
M  V30 1942 O 185.337 -3.52998 4.8752 0
M  V30 1943 H 189.163 -0.870468 2.90958 0
M  V30 1944 H 186.748 -0.36484 1.44877 0
M  V30 1945 H 188.63 -3.30538 2.61386 0
M  V30 1946 H 187.305 -2.86806 1.5008 0
M  V30 1947 H 186.212 -1.54828 3.40557 0
M  V30 1948 H 187.545 -2.05496 4.4725 0
M  V30 1949 N 189.197 -1.51736 -0.425897 0
M  V30 1950 C 190.427 -1.68549 -1.19476 0
M  V30 1951 C 190.835 -0.387288 -1.85194 0
M  V30 1952 O 190.178 0.645142 -1.71999 0
M  V30 1953 C 190.24 -2.75275 -2.31223 0
M  V30 1954 C 189.904 -4.17534 -1.8578 0
M  V30 1955 C 190.901 -5.01936 -1.35485 0
M  V30 1956 C 188.586 -4.6369 -1.93123 0
M  V30 1957 C 190.58 -6.30559 -0.931347 0
M  V30 1958 C 188.267 -5.92307 -1.50384 0
M  V30 1959 C 189.265 -6.75569 -1.00473 0
M  V30 1960 O 188.953 -8.0178 -0.583452 0
M  V30 1961 H 188.685 -0.568525 -0.365725 0
M  V30 1962 H 191.239 -1.98982 -0.509444 0
M  V30 1963 H 189.469 -2.40182 -3.03067 0
M  V30 1964 H 191.158 -2.80853 -2.93047 0
M  V30 1965 H 191.924 -4.67475 -1.29197 0
M  V30 1966 H 187.803 -3.98997 -2.30916 0
M  V30 1967 H 191.347 -6.95498 -0.541084 0
M  V30 1968 H 187.244 -6.2628 -1.56346 0
M  V30 1969 H 188.012 -8.1543 -0.708275 0
M  V30 1970 N 190.675 0.682077 -1.42076 0
M  V30 1971 C 191.585 1.82535 -1.47371 0
M  V30 1972 C 192.601 1.7017 -0.363079 0
M  V30 1973 O 193.777 1.91848 -0.612875 0
M  V30 1974 C 190.842 3.18624 -1.36674 0
M  V30 1975 C 189.903 3.42999 -2.58167 0
M  V30 1976 C 189.136 4.72595 -2.4797 0
M  V30 1977 O 189.359 5.50006 -1.5116 0
M  V30 1978 O 188.293 4.98054 -3.37974 0
M  V30 1979 H 192.119 1.81023 -2.43853 0
M  V30 1980 H 189.704 0.836887 -1.2376 0
M  V30 1981 H 191.586 3.99847 -1.33043 0
M  V30 1982 H 190.261 3.20789 -0.433138 0
M  V30 1983 H 189.168 2.61653 -2.67373 0
M  V30 1984 H 190.501 3.45659 -3.50401 0
M  V30 1985 N 192.153 1.28127 0.917671 0
M  V30 1986 C 193.402 1.14432 1.66097 0
M  V30 1987 C 193.715 -0.307247 1.93172 0
M  V30 1988 O 194.921 -0.565259 2.65551 0
M  V30 1989 C 193.377 2.00015 2.99202 0
M  V30 1990 C 192.985 3.49889 2.79789 0
M  V30 1991 C 194.729 1.94996 3.77064 0
M  V30 1992 C 192.636 4.27636 4.08511 0
M  V30 1993 H 191.566 0.424662 0.62304 0
M  V30 1994 H 194.217 1.52628 1.01868 0
M  V30 1995 H 192.599 1.54672 3.64544 0
M  V30 1996 H 193.773 4.03162 2.23152 0
M  V30 1997 H 192.088 3.56392 2.15345 0
M  V30 1998 H 194.685 2.50354 4.72469 0
M  V30 1999 H 195.028 0.925819 4.05875 0
M  V30 2000 H 195.561 2.38287 3.18534 0
M  V30 2001 H 192.3 5.30615 3.84874 0
M  V30 2002 H 191.82 3.79137 4.64774 0
M  V30 2003 H 193.499 4.37346 4.76799 0
M  V30 2004 N 193.631 -1.12557 1.10312 0
M  V30 2005 C 194.541 -2.21841 0.763142 0
M  V30 2006 C 195.557 -1.72354 -0.238801 0
M  V30 2007 O 196.733 -2.01249 -0.0778746 0
M  V30 2008 C 193.798 -3.46131 0.198632 0
M  V30 2009 C 192.859 -4.10464 1.25769 0
M  V30 2010 C 192.092 -5.28821 0.72002 0
M  V30 2011 O 192.315 -5.6859 -0.453993 0
M  V30 2012 O 191.249 -5.83437 1.47935 0
M  V30 2013 H 195.075 -2.53312 1.67532 0
M  V30 2014 H 192.66 -1.20867 0.878157 0
M  V30 2015 H 194.542 -4.2125 -0.112401 0
M  V30 2016 H 193.217 -3.16338 -0.686419 0
M  V30 2017 H 192.124 -3.3713 1.62156 0
M  V30 2018 H 193.457 -4.44408 2.11571 0
M  V30 2019 N 195.109 -0.891671 -1.2995 0
M  V30 2020 C 196.356 -0.513501 -1.95881 0
M  V30 2021 C 196.684 0.938655 -1.70351 0
M  V30 2022 O 195.939 1.67936 -1.00478 0
M  V30 2023 C 196.238 -0.742868 -3.49594 0
M  V30 2024 C 195.904 -2.17114 -3.95186 0
M  V30 2025 C 194.566 -2.56169 -4.07346 0
M  V30 2026 C 196.918 -3.10162 -4.18866 0
M  V30 2027 C 194.246 -3.87469 -4.4055 0
M  V30 2028 C 196.598 -4.41001 -4.53542 0
M  V30 2029 C 195.262 -4.79941 -4.63911 0
M  V30 2030 H 194.532 -0.187903 -0.71678 0
M  V30 2031 H 197.179 -1.1288 -1.54694 0
M  V30 2032 H 195.484 -0.044586 -3.91775 0
M  V30 2033 H 197.181 -0.429767 -3.9869 0
M  V30 2034 H 193.771 -1.85801 -3.86233 0
M  V30 2035 H 197.955 -2.81206 -4.08946 0
M  V30 2036 H 193.211 -4.17371 -4.46779 0
M  V30 2037 H 197.385 -5.13133 -4.70815 0
M  V30 2038 H 195.012 -5.81719 -4.89395 0
M  V30 2039 N 196.587 1.43421 -0.653314 0
M  V30 2040 C 197.836 2.01032 -0.164076 0
M  V30 2041 C 198.149 1.52147 1.22926 0
M  V30 2042 O 199.355 2.02031 1.81371 0
M  V30 2043 C 197.811 3.59082 -0.24252 0
M  V30 2044 C 197.419 4.1696 -1.63855 0
M  V30 2045 C 199.163 4.24079 0.18911 0
M  V30 2046 C 197.07 5.67304 -1.67092 0
M  V30 2047 H 196 0.751798 -0.0575769 0
M  V30 2048 H 198.651 1.6439 -0.815362 0
M  V30 2049 H 197.033 3.93125 0.476276 0
M  V30 2050 H 198.207 3.94416 -2.38271 0
M  V30 2051 H 196.522 3.64335 -2.01616 0
M  V30 2052 H 199.119 5.34381 0.184775 0
M  V30 2053 H 199.462 3.98005 1.22056 0
M  V30 2054 H 199.995 3.94918 -0.477938 0
M  V30 2055 H 196.734 5.98145 -2.68146 0
M  V30 2056 H 196.254 5.91904 -0.970014 0
M  V30 2057 H 197.933 6.31344 -1.4147 0
M  V30 2058 N 198.065 0.39524 1.52563 0
M  V30 2059 C 199.295 -0.184675 2.05773 0
M  V30 2060 C 199.703 -1.40571 1.26635 0
M  V30 2061 O 199.046 -1.81105 0.30769 0
M  V30 2062 C 199.108 -0.613551 3.54226 0
M  V30 2063 C 198.772 0.49484 4.54313 0
M  V30 2064 C 199.769 1.3541 5.01956 0
M  V30 2065 C 197.454 0.663565 4.97898 0
M  V30 2066 C 199.448 2.36716 5.91814 0
M  V30 2067 C 197.135 1.67996 5.87555 0
M  V30 2068 C 198.133 2.53017 6.34406 0
M  V30 2069 O 197.821 3.52917 7.22291 0
M  V30 2070 H 197.553 -0.030077 0.675331 0
M  V30 2071 H 200.107 0.560708 1.97599 0
M  V30 2072 H 198.337 -1.411 3.60038 0
M  V30 2073 H 200.026 -1.11981 3.90148 0
M  V30 2074 H 200.792 1.23509 4.6901 0
M  V30 2075 H 196.671 0.0114913 4.60999 0
M  V30 2076 H 200.215 3.03113 6.28306 0
M  V30 2077 H 196.112 1.79933 6.19915 0
M  V30 2078 H 196.88 3.48996 7.40367 0
M  V30 2079 N 199.544 -1.57102 0.125237 0
M  V30 2080 C 200.507 -2.14471 -0.80838 0
M  V30 2081 C 201.507 -1.0811 -1.19033 0
M  V30 2082 O 202.697 -1.33856 -1.11482 0
M  V30 2083 C 199.829 -2.69005 -2.09402 0
M  V30 2084 H 201.022 -2.98297 -0.309696 0
M  V30 2085 H 198.575 -1.55807 -0.124051 0
M  V30 2086 H 199.31 -1.88785 -2.63687 0
M  V30 2087 H 199.095 -3.46799 -1.82957 0
M  V30 2088 H 200.585 -3.13278 -2.76128 0
M  V30 2089 N 201.022 0.148545 -1.56898 0
M  V30 2090 C 202.271 0.85984 -1.82454 0
M  V30 2091 C 202.584 1.82406 -0.706229 0
M  V30 2092 O 203.79 2.57938 -0.847349 0
M  V30 2093 C 202.246 1.57967 -3.2338 0
M  V30 2094 C 201.854 0.65794 -4.43142 0
M  V30 2095 C 203.598 2.27784 -3.58211 0
M  V30 2096 C 201.505 1.3793 -5.75091 0
M  V30 2097 H 200.435 0.324834 -0.68044 0
M  V30 2098 H 203.086 0.112588 -1.83154 0
M  V30 2099 H 201.468 2.37249 -3.17063 0
M  V30 2100 H 202.642 -0.0995497 -4.60692 0
M  V30 2101 H 200.957 0.0682643 -4.16344 0
M  V30 2102 H 203.554 2.8239 -4.54048 0
M  V30 2103 H 203.897 3.04204 -2.84193 0
M  V30 2104 H 204.43 1.55421 -3.66182 0
M  V30 2105 H 201.169 0.656982 -6.52199 0
M  V30 2106 H 200.689 2.10954 -5.61479 0
M  V30 2107 H 202.368 1.92063 -6.17835 0
M  V30 2108 N 202.5 1.5196 0.417844 0
M  V30 2109 C 203.725 1.69717 1.1921 0
M  V30 2110 C 204.15 0.402148 1.83751 0
M  V30 2111 O 203.508 -0.639593 1.69643 0
M  V30 2112 C 203.556 2.82794 2.2374 0
M  V30 2113 O 202.66 2.47756 3.29683 0
M  V30 2114 H 202.001 0.565263 0.348387 0
M  V30 2115 H 204.531 1.98621 0.490985 0
M  V30 2116 H 204.541 3.07452 2.68212 0
M  V30 2117 H 203.216 3.76756 1.76146 0
M  V30 2118 H 201.793 2.33739 2.90552 0
M  V30 2119 N 203.978 -0.674533 1.42435 0
M  V30 2120 C 205.389 -1.25514 1.38214 0
M  V30 2121 C 205.74 -1.96055 0.0755464 0
M  V30 2122 O 204.865 -2.00028 -0.8257 0
M  V30 2123 C 205.46 -2.28269 2.50357 0
M  V30 2124 C 204.019 -2.81856 2.49467 0
M  V30 2125 C 203.166 -1.56182 2.29134 0
M  V30 2126 H 206.117 -0.467902 1.51646 0
M  V30 2127 H 206.138 -3.10009 2.20624 0
M  V30 2128 H 205.65 -1.769 3.45439 0
M  V30 2129 H 203.751 -3.37346 1.58204 0
M  V30 2130 H 203.864 -3.30854 3.46515 0
M  V30 2131 H 202.228 -1.82761 1.774 0
M  V30 2132 H 203.011 -1.06778 3.26272 0
M  V30 2133 N 205.456 -1.28612 -0.910864 0
M  V30 2134 C 206.704 -1.15705 -1.65701 0
M  V30 2135 C 207.025 0.29416 -1.92769 0
M  V30 2136 O 206.295 1.20331 -1.54588 0
M  V30 2137 H 204.875 -0.425216 -0.614167 0
M  V30 2138 H 207.537 -1.61381 -1.0928 0
M  V30 2139 H 206.633 -1.6988 -2.61815 0
M  V30 2140 N 206.934 1.1197 -1.10907 0
M  V30 2141 C 207.864 2.19928 -0.784473 0
M  V30 2142 C 208.845 1.6833 0.244726 0
M  V30 2143 O 210.03 1.93892 0.109418 0
M  V30 2144 C 207.16 3.46597 -0.220827 0
M  V30 2145 C 206.114 4.11376 -1.18127 0
M  V30 2146 C 205.44 5.32554 -0.478594 0
M  V30 2147 C 206.74 4.56945 -2.52979 0
M  V30 2148 H 208.434 2.47337 -1.68715 0
M  V30 2149 H 205.98 1.18879 -0.812642 0
M  V30 2150 H 207.933 4.21396 0.0184278 0
M  V30 2151 H 206.657 3.1863 0.717113 0
M  V30 2152 H 205.316 3.38564 -1.40606 0
M  V30 2153 H 204.964 5.00856 0.463976 0
M  V30 2154 H 204.664 5.76844 -1.11912 0
M  V30 2155 H 206.188 6.10096 -0.248 0
M  V30 2156 H 207.602 5.23093 -2.3462 0
M  V30 2157 H 205.999 5.1203 -3.12962 0
M  V30 2158 H 207.069 3.70676 -3.12614 0
M  V30 2159 N 208.412 0.89855 1.29475 0
M  V30 2160 C 209.689 0.443416 1.90508 0
M  V30 2161 C 210.069 -1.07685 1.81569 0
M  V30 2162 O 209.417 -1.9182 1.24166 0
M  V30 2163 C 209.627 0.956708 3.35631 0
M  V30 2164 C 210.975 0.999728 4.12663 0
M  V30 2165 O 211.999 0.904299 3.4453 0
M  V30 2166 O 210.858 1.14289 5.34416 0
M  V30 2167 H 207.952 0.138025 0.815401 0
M  V30 2168 H 210.498 0.98834 1.37949 0
M  V30 2169 H 209.27 2.00067 3.36287 0
M  V30 2170 H 208.893 0.391728 3.95666 0
M  V30 2171 N 209.89 -1.43072 0.660911 0
M  V30 2172 C 211.139 -2.00942 0.174735 0
M  V30 2173 C 211.452 -1.52797 -1.22117 0
M  V30 2174 O 212.658 -2.02991 -1.80297 0
M  V30 2175 C 211.114 -3.58948 0.261559 0
M  V30 2176 C 210.722 -4.16085 1.66064 0
M  V30 2177 C 212.466 -4.24173 -0.166617 0
M  V30 2178 C 210.373 -5.6641 1.70098 0
M  V30 2179 H 209.303 -0.751483 0.0615631 0
M  V30 2180 H 211.954 -1.63955 0.824069 0
M  V30 2181 H 210.336 -3.93372 -0.455421 0
M  V30 2182 H 211.51 -3.93147 2.40359 0
M  V30 2183 H 209.825 -3.6326 2.03546 0
M  V30 2184 H 212.422 -5.34471 -0.156433 0
M  V30 2185 H 212.765 -3.98647 -1.19943 0
M  V30 2186 H 213.298 -3.94659 0.498875 0
M  V30 2187 H 210.037 -5.96715 2.71315 0
M  V30 2188 H 209.557 -5.91382 1.00139 0
M  V30 2189 H 211.236 -6.30585 1.44816 0
M  V30 2190 N 211.368 -0.403325 -1.52352 0
M  V30 2191 C 212.596 0.174012 -2.06167 0
M  V30 2192 C 213.011 1.39347 -1.27388 0
M  V30 2193 O 212.368 1.79597 -0.324201 0
M  V30 2194 C 212.419 0.530223 -3.5759 0
M  V30 2195 O 212.14 -0.640806 -4.33388 0
M  V30 2196 C 213.641 1.16192 -4.27802 0
M  V30 2197 H 210.861 0.0229464 -0.670608 0
M  V30 2198 H 213.405 -0.572604 -1.9632 0
M  V30 2199 H 211.56 1.22673 -3.67464 0
M  V30 2200 H 211.974 -0.344851 -5.23365 0
M  V30 2201 H 213.448 1.36141 -5.34948 0
M  V30 2202 H 213.925 2.13335 -3.83907 0
M  V30 2203 H 214.531 0.505775 -4.22282 0
M  V30 2204 N 212.846 1.57033 -0.133567 0
M  V30 2205 C 214.093 1.95686 0.520877 0
M  V30 2206 C 214.421 1.0177 1.6575 0
M  V30 2207 O 213.676 0.0443195 1.9565 0
M  V30 2208 C 213.975 3.40674 1.08057 0
M  V30 2209 C 213.641 4.50855 0.0637899 0
M  V30 2210 C 212.303 4.80716 -0.215757 0
M  V30 2211 C 214.655 5.17398 -0.62835 0
M  V30 2212 C 211.983 5.74433 -1.19348 0
M  V30 2213 C 214.335 6.12167 -1.5948 0
M  V30 2214 C 212.999 6.40414 -1.88218 0
M  V30 2215 H 212.269 0.716067 0.190602 0
M  V30 2216 H 214.916 1.9026 -0.217556 0
M  V30 2217 H 213.221 3.42865 1.89606 0
M  V30 2218 H 214.918 3.67902 1.59529 0
M  V30 2219 H 211.508 4.27605 0.291855 0
M  V30 2220 H 215.692 4.94472 -0.425562 0
M  V30 2221 H 210.948 5.94616 -1.42272 0
M  V30 2222 H 215.122 6.6281 -2.13671 0
M  V30 2223 H 212.749 7.12838 -2.64133 0
M  V30 2224 N 214.325 -0.140222 1.56975 0
M  V30 2225 C 215.55 -0.870414 1.88251 0
M  V30 2226 C 215.975 -1.73637 0.723312 0
M  V30 2227 O 215.333 -1.78329 -0.32689 0
M  V30 2228 C 215.381 -1.69737 3.18154 0
M  V30 2229 O 214.485 -2.80229 3.02565 0
M  V30 2230 H 213.826 -0.242025 0.61832 0
M  V30 2231 H 216.356 -0.128999 2.04193 0
M  V30 2232 H 216.366 -2.09099 3.50345 0
M  V30 2233 H 215.041 -1.06152 4.02125 0
M  V30 2234 H 213.618 -2.44224 2.81796 0
M  V30 2235 N 215.803 -1.52179 -0.40978 0
M  V30 2236 C 216.751 -1.76086 -1.51975 0
M  V30 2237 C 217.745 -0.627964 -1.57331 0
M  V30 2238 O 218.951 -0.809993 -1.60745 0
M  V30 2239 H 215.326 -0.556829 -0.505416 0
M  V30 2240 H 217.297 -2.69077 -1.28996 0
M  V30 2241 C 216.046 -1.92799 -2.8935 0
M  V30 2242 H 215.369 -2.79392 -2.85972 0
M  V30 2243 H 216.809 -2.13527 -3.66309 0
M  V30 2244 C 215.268 -0.694923 -3.29655 0
M  V30 2245 O 215.798 0.13751 -4.01465 0
M  V30 2246 N 214.004 -0.53101 -2.85707 0
M  V30 2247 H 213.551 -1.20952 -2.27439 0
M  V30 2248 H 213.509 0.292718 -3.13034 0
M  V30 2249 N 217.281 0.66697 -1.42791 0
M  V30 2250 C 218.692 1.2478 -1.38877 0
M  V30 2251 C 219.043 1.96012 -0.0859426 0
M  V30 2252 O 218.168 2.00463 0.815081 0
M  V30 2253 C 218.763 2.26938 -2.51564 0
M  V30 2254 C 217.322 2.80529 -2.50959 0
M  V30 2255 C 216.469 1.54965 -2.29959 0
M  V30 2256 H 219.42 0.459853 -1.51892 0
M  V30 2257 H 219.441 3.08834 -2.22265 0
M  V30 2258 H 218.953 1.75065 -3.46372 0
M  V30 2259 H 217.054 3.36502 -1.59991 0
M  V30 2260 H 217.167 3.29012 -3.48265 0
M  V30 2261 H 215.531 1.81817 -1.78366 0
M  V30 2262 H 216.314 1.05047 -3.26833 0
M  V30 2263 N 218.759 1.29093 0.90403 0
M  V30 2264 C 219.706 1.13853 2.00764 0
M  V30 2265 C 220.676 0.0330084 1.66067 0
M  V30 2266 O 221.861 0.199733 1.89752 0
M  V30 2267 C 219.001 0.816537 3.35301 0
M  V30 2268 C 218.114 2.00206 3.82807 0
M  V30 2269 C 217.249 1.61983 5.059 0
M  V30 2270 C 216.288 2.77143 5.45764 0
M  V30 2271 N 215.425 2.39346 6.60044 0
M  V30 2272 H 220.265 2.08276 2.13132 0
M  V30 2273 H 217.802 1.03648 1.04381 0
M  V30 2274 H 219.76 0.610557 4.12708 0
M  V30 2275 H 218.39 -0.090779 3.22672 0
M  V30 2276 H 217.442 2.31988 3.01473 0
M  V30 2277 H 218.754 2.86512 4.08304 0
M  V30 2278 H 217.908 1.37649 5.90879 0
M  V30 2279 H 216.647 0.728202 4.82233 0
M  V30 2280 H 215.652 3.02165 4.59322 0
M  V30 2281 H 216.877 3.66964 5.71414 0
M  V30 2282 H 214.823 1.52665 6.37989 0
M  V30 2283 H 214.74 3.19185 6.85315 0
M  V30 2284 H 216.008 2.1832 7.48303 0
M  V30 2285 N 220.237 -1.11381 1.11499 0
M  V30 2286 C 221.147 -2.21019 0.786628 0
M  V30 2287 C 222.163 -1.72597 -0.220507 0
M  V30 2288 O 223.339 -2.01321 -0.0565251 0
M  V30 2289 C 220.404 -3.459 0.235333 0
M  V30 2290 C 219.465 -4.09107 1.30115 0
M  V30 2291 C 218.698 -5.28027 0.776068 0
M  V30 2292 O 218.921 -5.6904 -0.393661 0
M  V30 2293 O 217.855 -5.81835 1.54114 0
M  V30 2294 H 221.681 -2.51521 1.70209 0
M  V30 2295 H 219.266 -1.19928 0.890928 0
M  V30 2296 H 221.148 -4.21346 -0.067715 0
M  V30 2297 H 219.823 -3.17049 -0.652828 0
M  V30 2298 H 218.73 -3.35391 1.65722 0
M  V30 2299 H 220.063 -4.42139 2.16273 0
M  V30 2300 N 221.715 -0.905404 -1.28997 0
M  V30 2301 C 222.961 -0.535039 -1.95615 0
M  V30 2302 C 223.294 0.917404 -1.71165 0
M  V30 2303 O 222.569 1.65123 -1.02785 0
M  V30 2304 C 222.852 -0.834918 -3.50287 0
M  V30 2305 C 222.705 -2.33948 -3.84172 0
M  V30 2306 C 224.024 -0.325318 -4.38896 0
M  V30 2307 H 221.143 -0.195861 -0.710498 0
M  V30 2308 H 223.785 -1.13313 -1.52513 0
M  V30 2309 H 221.935 -0.325904 -3.87131 0
M  V30 2310 H 223.607 -2.91847 -3.57243 0
M  V30 2311 H 221.85 -2.79789 -3.31513 0
M  V30 2312 H 222.521 -2.49987 -4.92149 0
M  V30 2313 H 224.997 -0.761256 -4.09077 0
M  V30 2314 H 223.873 -0.564295 -5.45992 0
M  V30 2315 H 224.134 0.774144 -4.35269 0
M  V30 2316 N 223.193 1.4272 -0.668489 0
M  V30 2317 C 224.418 2.06484 -0.194758 0
M  V30 2318 C 224.843 1.49862 1.13679 0
M  V30 2319 O 224.201 0.614582 1.70565 0
M  V30 2320 C 224.249 3.60353 -0.133546 0
M  V30 2321 O 223.353 4.02464 0.899806 0
M  V30 2322 H 222.694 0.656137 -0.10188 0
M  V30 2323 H 225.224 1.82964 -0.915722 0
M  V30 2324 H 225.234 4.07976 0.0447041 0
M  V30 2325 H 223.909 4.00938 -1.1055 0
M  V30 2326 H 222.486 3.66402 0.693109 0
M  V30 2327 N 224.671 0.411399 1.52136 0
M  V30 2328 C 225.899 -0.163076 2.06256 0
M  V30 2329 C 226.314 -1.3867 1.28125 0
M  V30 2330 O 225.671 -1.79423 0.333721 0
M  V30 2331 C 225.722 -0.511252 3.57867 0
M  V30 2332 O 225.443 0.66378 4.33042 0
M  V30 2333 C 226.944 -1.13921 4.28412 0
M  V30 2334 H 224.164 -0.0193897 0.67072 0
M  V30 2335 H 226.708 0.583007 1.96013 0
M  V30 2336 H 224.863 -1.20723 3.6811 0
M  V30 2337 H 225.277 0.372601 5.23175 0
M  V30 2338 H 226.751 -1.33302 5.35663 0
M  V30 2339 H 227.228 -2.11296 3.85033 0
M  V30 2340 H 227.834 -0.483373 4.22544 0
M  V30 2341 N 226.149 -1.5696 0.141893 0
M  V30 2342 C 227.079 -2.19516 -0.795936 0
M  V30 2343 C 228.06 -1.14187 -1.26077 0
M  V30 2344 O 229.245 -1.42511 -1.31925 0
M  V30 2345 C 226.375 -2.81272 -2.03723 0
M  V30 2346 C 225.329 -3.92384 -1.70936 0
M  V30 2347 C 224.655 -4.41052 -3.02287 0
M  V30 2348 C 225.955 -5.13403 -0.959954 0
M  V30 2349 H 227.649 -2.98138 -0.274596 0
M  V30 2350 H 225.195 -1.43406 -0.130636 0
M  V30 2351 H 227.148 -3.237 -2.69808 0
M  V30 2352 H 225.872 -1.99973 -2.58221 0
M  V30 2353 H 224.531 -3.50566 -1.07232 0
M  V30 2354 H 224.179 -3.56582 -3.54765 0
M  V30 2355 H 223.879 -5.15993 -2.81114 0
M  V30 2356 H 225.403 -4.86146 -3.69451 0
M  V30 2357 H 226.817 -5.52706 -1.52279 0
M  V30 2358 H 225.214 -5.94073 -0.848357 0
M  V30 2359 H 226.284 -4.84875 0.0492434 0
M  V30 2360 N 227.627 0.131896 -1.57047 0
M  V30 2361 C 228.574 1.16236 -1.99393 0
M  V30 2362 C 229.544 1.41863 -0.863943 0
M  V30 2363 O 230.729 1.53946 -1.12718 0
M  V30 2364 C 227.869 2.48708 -2.39245 0
M  V30 2365 C 226.982 2.30127 -3.65603 0
M  V30 2366 C 226.117 3.55738 -3.94492 0
M  V30 2367 C 225.156 3.32259 -5.14073 0
M  V30 2368 N 224.293 4.50039 -5.38896 0
M  V30 2369 H 229.133 0.794251 -2.87221 0
M  V30 2370 H 226.67 0.380707 -1.42088 0
M  V30 2371 H 228.628 3.25969 -2.60384 0
M  V30 2372 H 227.258 2.83437 -1.54478 0
M  V30 2373 H 226.31 1.43845 -3.52154 0
M  V30 2374 H 227.622 2.08746 -4.5302 0
M  V30 2375 H 226.776 4.41423 -4.1621 0
M  V30 2376 H 225.515 3.80138 -3.05526 0
M  V30 2377 H 224.52 2.44963 -4.92212 0
M  V30 2378 H 225.745 3.09242 -6.04604 0
M  V30 2379 H 223.691 4.74584 -4.52886 0
M  V30 2380 H 223.608 4.31716 -6.2061 0
M  V30 2381 H 224.876 5.36895 -5.65123 0
M  V30 2382 N 229.106 1.52395 0.401703 0
M  V30 2383 C 230.522 1.41363 0.740864 0
M  V30 2384 C 230.722 0.523982 1.94568 0
M  V30 2385 O 229.778 -0.00741204 2.52499 0
M  V30 2386 C 231.091 2.84011 0.987847 0
M  V30 2387 C 232.639 2.93404 1.09011 0
M  V30 2388 C 233.114 4.37036 1.3698 0
M  V30 2389 N 234.605 4.40304 1.43829 0
M  V30 2390 C 235.34 5.48508 1.67112 0
M  V30 2391 N 234.836 6.66819 1.87949 0
M  V30 2392 N 236.629 5.36034 1.69187 0
M  V30 2393 H 228.78 2.08765 -0.391262 0
M  V30 2394 H 231.043 0.941265 -0.112798 0
M  V30 2395 H 230.749 3.51265 0.174835 0
M  V30 2396 H 230.623 3.25502 1.906 0
M  V30 2397 H 233.01 2.26325 1.8937 0
M  V30 2398 H 233.091 2.55359 0.15015 0
M  V30 2399 H 232.735 5.04676 0.571353 0
M  V30 2400 H 232.665 4.72623 2.3224 0
M  V30 2401 H 235.156 3.55024 1.29486 0
M  V30 2402 H 235.469 7.45063 2.05185 0
M  V30 2403 H 233.814 6.6987 1.85199 0
M  V30 2404 H 237.005 4.42579 1.52451 0
M  V30 2405 H 237.178 6.20434 1.86993 0
M  V30 2406 N 230.584 -0.659388 1.43143 0
M  V30 2407 C 231.531 -1.77249 1.47822 0
M  V30 2408 C 232.501 -1.62818 0.328558 0
M  V30 2409 O 233.686 -1.83151 0.534838 0
M  V30 2410 C 230.826 -3.15371 1.40126 0
M  V30 2411 C 229.939 -3.4098 2.65249 0
M  V30 2412 C 229.074 -4.68915 2.49584 0
M  V30 2413 C 228.113 -4.87608 3.70006 0
M  V30 2414 N 227.25 -6.06796 3.53189 0
M  V30 2415 H 232.09 -1.72584 2.42938 0
M  V30 2416 H 229.627 -0.842297 1.20598 0
M  V30 2417 H 231.585 -3.9521 1.33659 0
M  V30 2418 H 230.215 -3.19121 0.485964 0
M  V30 2419 H 229.267 -2.55282 2.8202 0
M  V30 2420 H 230.579 -3.50681 3.54717 0
M  V30 2421 H 229.733 -5.56871 2.4079 0
M  V30 2422 H 228.472 -4.61524 1.5763 0
M  V30 2423 H 227.477 -3.9809 3.79215 0
M  V30 2424 H 228.702 -4.96834 4.62961 0
M  V30 2425 H 226.648 -6.00549 2.63965 0
M  V30 2426 H 226.565 -6.17428 4.36255 0
M  V30 2427 H 227.833 -6.9739 3.48236 0
M  V30 2428 N 232.062 -1.29571 -0.897171 0
M  V30 2429 C 232.992 -1.17473 -2.01798 0
M  V30 2430 C 233.973 -0.068323 -1.69963 0
M  V30 2431 O 235.158 -0.248239 -1.92607 0
M  V30 2432 C 232.288 -0.853099 -3.36659 0
M  V30 2433 C 231.242 -1.9161 -3.82713 0
M  V30 2434 C 230.568 -1.44773 -5.14728 0
M  V30 2435 C 231.868 -3.32535 -4.02763 0
M  V30 2436 H 233.562 -2.11237 -2.12177 0
M  V30 2437 H 231.108 -1.01699 -1.01948 0
M  V30 2438 H 233.061 -0.755165 -4.14578 0
M  V30 2439 H 231.785 0.120236 -3.26379 0
M  V30 2440 H 230.444 -2.00346 -3.07013 0
M  V30 2441 H 230.092 -0.462995 -5.00865 0
M  V30 2442 H 229.792 -2.15865 -5.46513 0
M  V30 2443 H 231.316 -1.36334 -5.95185 0
M  V30 2444 H 232.73 -3.26626 -4.71156 0
M  V30 2445 H 231.127 -4.01607 -4.45905 0
M  V30 2446 H 232.197 -3.75326 -3.07016 0
M  V30 2447 N 233.54 1.10788 -1.12088 0
M  V30 2448 C 234.817 1.79136 -0.785476 0
M  V30 2449 C 235.197 1.98246 0.725377 0
M  V30 2450 O 234.545 1.57258 1.65778 0
M  V30 2451 C 234.755 3.12375 -1.55636 0
M  V30 2452 C 236.103 3.8731 -1.74001 0
M  V30 2453 O 237.127 3.22085 -1.52117 0
M  V30 2454 O 235.986 5.04369 -2.10415 0
M  V30 2455 H 233.08 0.776226 -0.285311 0
M  V30 2456 H 235.626 1.1747 -1.2247 0
M  V30 2457 H 234.398 2.93863 -2.5838 0
M  V30 2458 H 234.021 3.81758 -1.11114 0
M  V30 2459 N 235.018 0.912232 1.28515 0
M  V30 2460 C 235.95 0.35676 2.26406 0
M  V30 2461 C 236.963 -0.503933 1.54804 0
M  V30 2462 O 238.152 -0.319059 1.75625 0
M  V30 2463 C 235.252 -0.508825 3.35058 0
M  V30 2464 C 234.425 0.329007 4.36161 0
M  V30 2465 C 233.484 -0.471422 5.24084 0
M  V30 2466 O 232.51 0.115482 5.69083 0
M  V30 2467 N 233.712 -1.77479 5.52704 0
M  V30 2468 H 236.477 1.19818 2.74707 0
M  V30 2469 H 234.038 0.778022 1.4198 0
M  V30 2470 H 236.03 -1.051 3.90815 0
M  V30 2471 H 234.6 -1.25095 2.86478 0
M  V30 2472 H 233.82 1.05256 3.79888 0
M  V30 2473 H 235.108 0.90234 5.00735 0
M  V30 2474 H 234.506 -2.27417 5.17975 0
M  V30 2475 H 233.063 -2.26382 6.11224 0
M  V30 2476 N 236.496 -1.42363 0.676048 0
M  V30 2477 C 237.742 -2.0182 0.199125 0
M  V30 2478 C 238.075 -1.53339 -1.19168 0
M  V30 2479 O 237.35 -0.736124 -1.80032 0
M  V30 2480 C 237.633 -3.59331 0.235144 0
M  V30 2481 C 237.486 -4.17989 1.66149 0
M  V30 2482 C 238.805 -4.3813 -0.41595 0
M  V30 2483 H 235.924 -0.733293 0.0738311 0
M  V30 2484 H 238.566 -1.69368 0.86107 0
M  V30 2485 H 236.716 -3.87109 -0.328487 0
M  V30 2486 H 238.388 -4.0116 2.27747 0
M  V30 2487 H 236.631 -3.7377 2.20178 0
M  V30 2488 H 237.302 -5.27126 1.63837 0
M  V30 2489 H 239.778 -4.16051 0.0638529 0
M  V30 2490 H 238.654 -5.47717 -0.360115 0
M  V30 2491 H 238.915 -4.16101 -1.49373 0
M  V30 2492 N 237.974 -0.419461 -1.51915 0
M  V30 2493 C 239.199 0.154572 -2.06823 0
M  V30 2494 C 239.624 1.3722 -1.28656 0
M  V30 2495 O 238.982 1.78461 -0.319583 0
M  V30 2496 C 239.03 0.473172 -3.57482 0
M  V30 2497 O 238.134 1.56255 -3.81652 0
M  V30 2498 H 237.475 0.0096924 -0.663929 0
M  V30 2499 H 240.005 -0.595642 -1.95738 0
M  V30 2500 H 240.015 0.728825 -4.01438 0
M  V30 2501 H 238.69 -0.416873 -4.13805 0
M  V30 2502 H 237.267 1.29825 -3.49571 0
M  V30 2503 N 239.452 1.56882 -0.150215 0
M  V30 2504 C 240.384 2.14057 0.819286 0
M  V30 2505 C 241.397 1.09082 1.20851 0
M  V30 2506 O 242.586 1.36347 1.15203 0
M  V30 2507 C 239.686 2.65102 2.11127 0
M  V30 2508 C 238.859 3.94511 1.88891 0
M  V30 2509 C 237.918 4.30834 3.02107 0
M  V30 2510 O 236.944 4.99099 2.73659 0
M  V30 2511 N 238.146 3.90676 4.29363 0
M  V30 2512 H 240.911 2.97871 0.330618 0
M  V30 2513 H 238.472 1.61866 0.0332538 0
M  V30 2514 H 240.464 2.86411 2.85921 0
M  V30 2515 H 239.034 1.85994 2.51247 0
M  V30 2516 H 238.254 3.81795 0.981152 0
M  V30 2517 H 239.542 4.7907 1.71376 0
M  V30 2518 H 238.94 3.35677 4.55343 0
M  V30 2519 H 237.497 4.1703 5.00928 0
M  V30 2520 N 240.93 -0.123565 1.57115 0
M  V30 2521 C 242.177 -0.832153 1.84612 0
M  V30 2522 C 242.505 -1.80093 0.734627 0
M  V30 2523 O 241.76 -1.93766 -0.27442 0
M  V30 2524 C 242.059 -1.62016 3.18568 0
M  V30 2525 C 241.725 -0.796084 4.43817 0
M  V30 2526 C 240.387 -0.568816 4.77826 0
M  V30 2527 C 242.739 -0.221364 5.2073 0
M  V30 2528 C 240.067 0.243499 5.86194 0
M  V30 2529 C 242.419 0.578117 6.29953 0
M  V30 2530 C 241.083 0.815744 6.62497 0
M  V30 2531 H 240.353 -0.304507 0.675542 0
M  V30 2532 H 243 -0.0947248 1.91266 0
M  V30 2533 H 241.305 -2.42837 3.0747 0
M  V30 2534 H 243.002 -2.17231 3.37064 0
M  V30 2535 H 239.592 -0.983307 4.17168 0
M  V30 2536 H 243.776 -0.384173 4.94811 0
M  V30 2537 H 239.032 0.436871 6.09837 0
M  V30 2538 H 243.206 1.03046 6.88734 0
M  V30 2539 H 240.833 1.44701 7.46301 0
M  V30 2540 N 242.408 -1.52605 -0.393616 0
M  V30 2541 C 243.656 -1.67093 -1.13685 0
M  V30 2542 C 243.977 -0.411011 -1.90619 0
M  V30 2543 O 243.247 0.574491 -1.87287 0
M  V30 2544 H 241.827 -0.615923 -0.422668 0
M  V30 2545 H 244.489 -1.89704 -0.447039 0
M  V30 2546 H 243.585 -2.51922 -1.84232 0
M  V30 2547 N 243.887 0.651787 -1.4349 0
M  V30 2548 C 245.127 1.42345 -1.46688 0
M  V30 2549 C 245.491 1.91793 -0.0891023 0
M  V30 2550 O 246.692 2.688 0.00423594 0
M  V30 2551 C 244.963 2.57221 -2.48137 0
M  V30 2552 S 246.522 3.45725 -2.70221 0
M  V30 2553 H 243.34 0.485878 -0.51908 0
M  V30 2554 H 245.942 0.756578 -1.80267 0
M  V30 2555 H 244.646 2.1917 -3.46976 0
M  V30 2556 H 244.177 3.28757 -2.16061 0
M  V30 2557 H 246.192 4.53996 -2.00255 0
M  V30 2558 N 245.365 1.30045 0.890287 0
M  V30 2559 C 246.781 1.08261 1.17268 0
M  V30 2560 C 246.981 -0.160063 2.00863 0
M  V30 2561 O 246.037 -0.855181 2.37577 0
M  V30 2562 C 247.35 2.34323 1.8845 0
M  V30 2563 C 248.898 2.39735 2.01237 0
M  V30 2564 C 249.373 3.65625 2.7583 0
M  V30 2565 N 250.864 3.66402 2.83379 0
M  V30 2566 C 251.599 4.60498 3.41657 0
M  V30 2567 N 251.095 5.64933 4.01026 0
M  V30 2568 N 252.888 4.48051 3.39421 0
M  V30 2569 H 245.039 2.09777 0.332762 0
M  V30 2570 H 247.302 0.92446 0.209948 0
M  V30 2571 H 247.008 3.2498 1.34465 0
M  V30 2572 H 246.882 2.4256 2.88867 0
M  V30 2573 H 249.269 1.4956 2.54393 0
M  V30 2574 H 249.35 2.35476 0.999232 0
M  V30 2575 H 248.994 4.56156 2.23347 0
M  V30 2576 H 248.924 3.67144 3.77509 0
M  V30 2577 H 251.415 2.90896 2.41222 0
M  V30 2578 H 251.728 6.32841 4.43545 0
M  V30 2579 H 250.073 5.68732 3.99461 0
M  V30 2580 H 253.264 3.65649 2.92264 0
M  V30 2581 H 253.437 5.21565 3.84544 0
M  V30 2582 N 246.843 -1.10192 1.12674 0
M  V30 2583 C 248.068 -1.86523 0.906853 0
M  V30 2584 C 248.493 -1.80221 -0.538711 0
M  V30 2585 O 247.851 -1.17396 -1.38158 0
M  V30 2586 C 247.899 -3.32758 1.3894 0
M  V30 2587 O 247.003 -4.08449 0.5695 0
M  V30 2588 H 246.344 -0.578678 0.325619 0
M  V30 2589 H 248.874 -1.39203 1.49946 0
M  V30 2590 H 248.884 -3.83608 1.38958 0
M  V30 2591 H 247.559 -3.36661 2.44197 0
M  V30 2592 H 246.136 -3.67427 0.636528 0
M  V30 2593 N 248.321 -0.919034 -1.28029 0
M  V30 2594 C 249.568 -0.554934 -1.94748 0
M  V30 2595 C 249.896 0.90231 -1.72304 0
M  V30 2596 O 249.151 1.65767 -1.04018 0
M  V30 2597 C 249.45 -0.816855 -3.4794 0
M  V30 2598 C 249.116 -2.25448 -3.90492 0
M  V30 2599 C 247.778 -2.64752 -4.01821 0
M  V30 2600 C 250.13 -3.18977 -4.12193 0
M  V30 2601 C 247.458 -3.96727 -4.32232 0
M  V30 2602 C 249.81 -4.50523 -4.44086 0
M  V30 2603 C 248.474 -4.89673 -4.53626 0
M  V30 2604 H 247.744 -0.203065 -0.712633 0
M  V30 2605 H 250.391 -1.16136 -1.52265 0
M  V30 2606 H 248.696 -0.127677 -3.91592 0
M  V30 2607 H 250.393 -0.514238 -3.97689 0
M  V30 2608 H 246.983 -1.93952 -3.82205 0
M  V30 2609 H 251.167 -2.89817 -4.02889 0
M  V30 2610 H 246.423 -4.26754 -4.37825 0
M  V30 2611 H 250.597 -5.23005 -4.59825 0
M  V30 2612 H 248.224 -5.91969 -4.76946 0
M  V30 2613 N 249.799 1.42003 -0.683588 0
M  V30 2614 C 250.762 2.29191 -0.0198243 0
M  V30 2615 C 251.762 1.43773 0.72013 0
M  V30 2616 O 252.952 1.65061 0.556815 0
M  V30 2617 C 250.084 3.26435 0.982487 0
M  V30 2618 H 251.277 2.8938 -0.787345 0
M  V30 2619 H 248.83 1.49789 -0.446418 0
M  V30 2620 H 249.565 2.71203 1.77819 0
M  V30 2621 H 249.35 3.89449 0.455182 0
M  V30 2622 H 250.84 3.918 1.44508 0
M  V30 2623 N 251.277 0.427512 1.51691 0
M  V30 2624 C 252.207 -0.3796 2.30394 0
M  V30 2625 C 253.188 -1.02982 1.35384 0
M  V30 2626 O 254.373 -1.03534 1.643 0
M  V30 2627 C 251.503 -1.48649 3.1388 0
M  V30 2628 C 250.457 -0.960294 4.17088 0
M  V30 2629 C 249.783 -2.16219 4.89033 0
M  V30 2630 C 251.083 -0.00153679 5.223 0
M  V30 2631 H 252.777 0.277164 2.98114 0
M  V30 2632 H 250.323 0.134739 1.43368 0
M  V30 2633 H 252.276 -2.05826 3.67714 0
M  V30 2634 H 251 -2.1714 2.43962 0
M  V30 2635 H 249.659 -0.410806 3.64291 0
M  V30 2636 H 249.307 -2.83307 4.15628 0
M  V30 2637 H 249.007 -1.81654 5.58816 0
M  V30 2638 H 250.531 -2.73968 5.45687 0
M  V30 2639 H 251.945 -0.482687 5.71264 0
M  V30 2640 H 250.342 0.256199 5.99553 0
M  V30 2641 H 251.412 0.938174 4.75738 0
M  V30 2642 N 252.755 -1.56801 0.158532 0
M  V30 2643 C 253.685 -2.20347 -0.772609 0
M  V30 2644 C 254.666 -1.15518 -1.24859 0
M  V30 2645 O 255.851 -1.43902 -1.30406 0
M  V30 2646 C 252.981 -2.83417 -2.00729 0
M  V30 2647 C 251.935 -3.94174 -1.66765 0
M  V30 2648 C 251.261 -4.44233 -2.97592 0
M  V30 2649 C 252.561 -5.14392 -0.905447 0
M  V30 2650 H 254.255 -2.98413 -0.242959 0
M  V30 2651 H 251.801 -1.43537 -0.115419 0
M  V30 2652 H 253.754 -3.26543 -2.6636 0
M  V30 2653 H 252.478 -2.02701 -2.56086 0
M  V30 2654 H 251.137 -3.51684 -1.03508 0
M  V30 2655 H 250.785 -3.60325 -3.50963 0
M  V30 2656 H 250.485 -5.18945 -2.75626 0
M  V30 2657 H 252.009 -4.90037 -3.64274 0
M  V30 2658 H 253.423 -5.5429 -1.46408 0
M  V30 2659 H 251.82 -5.9494 -0.7853 0
M  V30 2660 H 252.89 -4.84795 0.100668 0
M  V30 2661 N 254.233 0.115231 -1.57178 0
M  V30 2662 C 255.48 0.822351 -1.8505 0
M  V30 2663 C 255.808 1.79701 -0.744168 0
M  V30 2664 O 255.063 1.93909 0.26414 0
M  V30 2665 C 255.362 1.60324 -3.19423 0
M  V30 2666 C 255.028 0.772536 -4.44233 0
M  V30 2667 C 253.69 0.543468 -4.78121 0
M  V30 2668 C 256.042 0.193746 -5.2084 0
M  V30 2669 C 253.37 -0.274583 -5.86057 0
M  V30 2670 C 255.722 -0.611517 -6.29637 0
M  V30 2671 C 254.386 -0.850867 -6.62055 0
M  V30 2672 H 253.656 0.30092 -0.677147 0
M  V30 2673 H 256.303 0.0845802 -1.91313 0
M  V30 2674 H 254.608 2.41203 -3.08753 0
M  V30 2675 H 256.305 2.1544 -3.38211 0
M  V30 2676 H 252.895 0.96117 -4.17683 0
M  V30 2677 H 257.079 0.357926 -4.95008 0
M  V30 2678 H 252.335 -0.469206 -6.09597 0
M  V30 2679 H 256.509 -1.06697 -6.88178 0
M  V30 2680 H 254.136 -1.48657 -7.45523 0
M  V30 2681 N 255.711 1.52812 0.385517 0
M  V30 2682 C 256.988 1.5861 1.14465 0
M  V30 2683 C 257.368 0.381402 2.07626 0
M  V30 2684 O 256.716 -0.629999 2.19643 0
M  V30 2685 C 256.926 2.92664 1.90128 0
M  V30 2686 C 258.274 3.46526 2.45367 0
M  V30 2687 O 259.298 2.94562 2.0028 0
M  V30 2688 O 258.157 4.37323 3.27736 0
M  V30 2689 H 255.251 0.639855 0.523941 0
M  V30 2690 H 257.797 1.65149 0.390389 0
M  V30 2691 H 256.569 3.71788 1.22022 0
M  V30 2692 H 256.192 2.89527 2.72507 0
M  V30 2693 N 257.189 -0.644168 1.43834 0
M  V30 2694 C 258.466 -1.40188 1.36406 0
M  V30 2695 C 258.846 -2.11094 0.0163124 0
M  V30 2696 O 258.194 -2.05426 -1.00062 0
M  V30 2697 C 258.404 -2.3791 2.55343 0
M  V30 2698 C 259.752 -3.01637 2.98832 0
M  V30 2699 O 260.776 -2.48237 2.55455 0
M  V30 2700 O 259.635 -3.98477 3.74003 0
M  V30 2701 H 256.729 -0.626773 0.539523 0
M  V30 2702 H 259.275 -0.670317 1.559 0
M  V30 2703 H 258.047 -1.84525 3.4506 0
M  V30 2704 H 257.67 -3.18503 2.37995 0
M  V30 2705 N 258.668 -1.30515 -0.883378 0
M  V30 2706 C 259.917 -1.18795 -1.63005 0
M  V30 2707 C 260.23 0.255923 -1.93919 0
M  V30 2708 O 261.436 0.494654 -2.66956 0
M  V30 2709 C 259.892 -2.07878 -2.93794 0
M  V30 2710 C 259.5 -3.57184 -2.70414 0
M  V30 2711 C 261.244 -2.04924 -3.71761 0
M  V30 2712 C 259.151 -4.38317 -3.97029 0
M  V30 2713 H 258.081 -0.441031 -0.611562 0
M  V30 2714 H 260.732 -1.55275 -0.977854 0
M  V30 2715 H 259.114 -1.64283 -3.60315 0
M  V30 2716 H 260.288 -4.08937 -2.12384 0
M  V30 2717 H 258.603 -3.61976 -2.0582 0
M  V30 2718 H 261.2 -2.62792 -4.65665 0
M  V30 2719 H 261.543 -1.0331 -4.03277 0
M  V30 2720 H 262.076 -2.46649 -3.12104 0
M  V30 2721 H 258.815 -5.40632 -3.70671 0
M  V30 2722 H 258.335 -3.91326 -4.54559 0
M  V30 2723 H 260.014 -4.49834 -4.65036 0
M  V30 2724 N 260.146 1.09593 -1.13257 0
M  V30 2725 C 261.423 1.78293 -0.804432 0
M  V30 2726 C 261.803 1.99004 0.70431 0
M  V30 2727 O 261.151 1.59007 1.641 0
M  V30 2728 C 261.361 3.10707 -1.5894 0
M  V30 2729 C 262.709 3.85443 -1.78099 0
M  V30 2730 O 263.733 3.20454 -1.55525 0
M  V30 2731 O 262.592 5.02108 -2.15753 0
M  V30 2732 H 259.686 0.773156 -0.293528 0
M  V30 2733 H 262.232 1.16164 -1.23709 0
M  V30 2734 H 261.004 2.91106 -2.61482 0
M  V30 2735 H 260.627 3.80558 -1.15157 0
M  V30 2736 N 261.624 0.925811 1.2754 0
M  V30 2737 C 262.574 0.394488 2.24561 0
M  V30 2738 C 263.558 -0.500183 1.52928 0
M  V30 2739 O 264.75 -0.337936 1.73744 0
M  V30 2740 C 261.879 -0.353328 3.41477 0
M  V30 2741 C 260.965 0.557752 4.20416 0
M  V30 2742 N 261.356 1.67674 4.77199 0
M  V30 2743 C 259.654 0.360404 4.44541 0
M  V30 2744 C 260.355 2.24324 5.36706 0
M  V30 2745 N 259.331 1.53305 5.21535 0
M  V30 2746 H 263.133 1.2489 2.66045 0
M  V30 2747 H 260.647 0.779864 1.4245 0
M  V30 2748 H 262.644 -0.7509 4.10082 0
M  V30 2749 H 261.304 -1.20469 3.01525 0
M  V30 2750 H 262.315 2.05915 4.75204 0
M  V30 2751 H 258.992 -0.450454 4.15063 0
M  V30 2752 H 260.382 3.18521 5.91603 0
M  V30 2753 N 263.102 -1.41638 0.69111 0
M  V30 2754 C 264.05 -2.32597 0.0115199 0
M  V30 2755 C 265.044 -1.5072 -0.773296 0
M  V30 2756 O 266.25 -1.66685 -0.67942 0
M  V30 2757 H 262.625 -0.751849 -0.0150746 0
M  V30 2758 H 264.596 -2.87593 0.795791 0
M  V30 2759 C 263.345 -3.35467 -0.914172 0
M  V30 2760 H 262.668 -3.9852 -0.319687 0
M  V30 2761 H 264.108 -4.01662 -1.35808 0
M  V30 2762 C 262.567 -2.69004 -2.02826 0
M  V30 2763 O 263.097 -2.53444 -3.11655 0
M  V30 2764 N 261.303 -2.2777 -1.80469 0
M  V30 2765 H 260.85 -2.40626 -0.919615 0
M  V30 2766 H 260.808 -1.83635 -2.55197 0
M  V30 2767 N 264.58 -0.43555 -1.51462 0
M  V30 2768 C 265.513 0.421989 -2.24264 0
M  V30 2769 C 266.491 1.02619 -1.26127 0
M  V30 2770 O 267.675 1.069 -1.55257 0
M  V30 2771 C 264.802 1.588 -2.99166 0
M  V30 2772 C 263.848 1.10465 -4.11946 0
M  V30 2773 S 264.681 0.048146 -5.35478 0
M  V30 2774 C 265.837 1.21887 -6.13917 0
M  V30 2775 H 266.07 -0.196102 -2.96653 0
M  V30 2776 H 263.603 -0.220054 -1.52824 0
M  V30 2777 H 265.561 2.25647 -3.42919 0
M  V30 2778 H 264.222 2.1775 -2.26371 0
M  V30 2779 H 263.415 1.97654 -4.63626 0
M  V30 2780 H 263.017 0.51445 -3.70445 0
M  V30 2781 H 265.309 2.13756 -6.42895 0
M  V30 2782 H 266.252 0.742076 -7.04201 0
M  V30 2783 H 266.66 1.45663 -5.45383 0
M  V30 2784 N 266.058 1.56714 -0.166846 0
M  V30 2785 C 267.298 1.98641 0.481763 0
M  V30 2786 C 267.662 1.05038 1.6072 0
M  V30 2787 O 268.863 1.36087 2.31805 0
M  V30 2788 C 267.134 3.44362 0.956517 0
M  V30 2789 S 268.693 4.08317 1.60694 0
M  V30 2790 H 265.511 0.693873 0.155116 0
M  V30 2791 H 268.113 1.93719 -0.263251 0
M  V30 2792 H 266.817 4.10204 0.126936 0
M  V30 2793 H 266.348 3.53041 1.73568 0
M  V30 2794 H 268.363 4.02999 2.89494 0
M  V30 2795 N 267.536 -0.106894 1.57237 0
M  V30 2796 C 268.499 -1.11466 2.0027 0
M  V30 2797 C 269.499 -1.33623 0.894519 0
M  V30 2798 O 270.689 -1.29935 1.16028 0
M  V30 2799 C 267.821 -2.46646 2.35327 0
M  V30 2800 H 269.014 -0.744516 2.90512 0
M  V30 2801 H 266.567 -0.351576 1.52295 0
M  V30 2802 H 267.302 -2.88558 1.48003 0
M  V30 2803 H 267.087 -2.31915 3.16161 0
M  V30 2804 H 268.577 -3.19151 2.69318 0
M  V30 2805 N 269.014 -1.53014 -0.377408 0
M  V30 2806 C 269.977 -1.77957 -1.44444 0
M  V30 2807 C 270.977 -0.649763 -1.47087 0
M  V30 2808 O 272.167 -0.917897 -1.48055 0
M  V30 2809 C 269.299 -1.89089 -2.83651 0
M  V30 2810 H 270.492 -2.73243 -1.23606 0
M  V30 2811 H 268.045 -1.43912 -0.609844 0
M  V30 2812 H 268.78 -0.958293 -3.09818 0
M  V30 2813 H 268.565 -2.71254 -2.83132 0
M  V30 2814 H 270.055 -2.1002 -3.60945 0
M  V30 2815 N 270.492 0.636531 -1.44174 0
M  V30 2816 C 271.769 1.39463 -1.37148 0
M  V30 2817 C 272.149 2.11082 -0.027507 0
M  V30 2818 O 271.497 2.05954 0.989716 0
M  V30 2819 C 271.707 2.36552 -2.56601 0
M  V30 2820 C 273.055 3.00048 -3.00427 0
M  V30 2821 O 274.079 2.46878 -2.56767 0
M  V30 2822 O 272.938 3.96488 -3.76111 0
M  V30 2823 H 270.032 0.623903 -0.542839 0
M  V30 2824 H 272.578 0.662039 -1.56253 0
M  V30 2825 H 271.35 1.82692 -3.46034 0
M  V30 2826 H 270.973 3.17236 -2.39681 0
M  V30 2827 N 271.97 1.30982 0.876444 0
M  V30 2828 C 272.917 1.18085 1.98304 0
M  V30 2829 C 273.887 0.0682263 1.6596 0
M  V30 2830 O 275.072 0.239937 1.89285 0
M  V30 2831 C 272.212 0.887475 3.33493 0
M  V30 2832 C 271.325 2.08281 3.78475 0
M  V30 2833 C 270.46 1.72678 5.0235 0
M  V30 2834 C 269.499 2.88657 5.39762 0
M  V30 2835 N 268.636 2.53292 6.54819 0
M  V30 2836 H 273.476 2.1275 2.08666 0
M  V30 2837 H 271.013 1.05839 1.02159 0
M  V30 2838 H 272.971 0.697961 4.1132 0
M  V30 2839 H 271.601 -0.022315 3.22792 0
M  V30 2840 H 270.653 2.3833 2.96484 0
M  V30 2841 H 271.965 2.95108 4.02135 0
M  V30 2842 H 271.119 1.50151 5.87826 0
M  V30 2843 H 269.858 0.830327 4.8058 0
M  V30 2844 H 268.863 3.1184 4.52809 0
M  V30 2845 H 270.088 3.79002 5.63502 0
M  V30 2846 H 268.034 1.66163 6.34607 0
M  V30 2847 H 267.951 3.3365 6.7839 0
M  V30 2848 H 269.219 2.34143 7.43503 0
M  V30 2849 N 273.449 -1.08991 1.13837 0
M  V30 2850 C 274.359 -2.19301 0.833333 0
M  V30 2851 C 275.375 -1.73026 -0.183847 0
M  V30 2852 O 276.551 -2.01395 -0.0138092 0
M  V30 2853 C 273.616 -3.45323 0.308651 0
M  V30 2854 C 272.677 -4.06255 1.38764 0
M  V30 2855 C 271.91 -5.26262 0.887896 0
M  V30 2856 O 272.133 -5.69747 -0.27287 0
M  V30 2857 O 271.067 -5.78435 1.66421 0
M  V30 2858 H 274.893 -2.47854 1.75506 0
M  V30 2859 H 272.478 -1.18012 0.916166 0
M  V30 2860 H 274.36 -4.21394 0.0216739 0
M  V30 2861 H 273.035 -3.18362 -0.585431 0
M  V30 2862 H 271.942 -3.318 1.72799 0
M  V30 2863 H 273.275 -4.37452 2.25602 0
M  V30 2864 N 274.927 -0.932562 -1.27047 0
M  V30 2865 C 276.173 -0.576412 -1.94436 0
M  V30 2866 C 276.506 0.880891 -1.73072 0
M  V30 2867 O 275.781 1.62905 -1.06264 0
M  V30 2868 C 276.064 -0.909031 -3.48437 0
M  V30 2869 C 275.917 -2.42044 -3.79123 0
M  V30 2870 C 277.236 -0.418341 -4.38107 0
M  V30 2871 H 274.355 -0.210888 -0.706184 0
M  V30 2872 H 276.997 -1.16522 -1.50075 0
M  V30 2873 H 275.147 -0.407947 -3.86352 0
M  V30 2874 H 276.819 -2.99359 -3.50973 0
M  V30 2875 H 275.062 -2.86758 -3.25503 0
M  V30 2876 H 275.733 -2.6037 -4.86736 0
M  V30 2877 H 278.209 -0.847856 -4.0737 0
M  V30 2878 H 277.085 -0.679981 -5.44672 0
M  V30 2879 H 277.346 0.681642 -4.36814 0
M  V30 2880 N 276.405 1.4127 -0.698611 0
M  V30 2881 C 277.652 2.0118 -0.230865 0
M  V30 2882 C 277.98 1.55338 1.17049 0
M  V30 2883 O 277.235 0.756775 1.80475 0
M  V30 2884 C 277.534 3.56592 -0.240192 0
M  V30 2885 C 277.2 4.21955 -1.58948 0
M  V30 2886 C 275.862 4.39524 -1.95887 0
M  V30 2887 C 278.214 4.58576 -2.47704 0
M  V30 2888 C 275.542 4.90992 -3.2116 0
M  V30 2889 C 277.894 5.11435 -3.72313 0
M  V30 2890 C 276.558 5.27215 -4.0939 0
M  V30 2891 H 275.828 0.736169 -0.0844796 0
M  V30 2892 H 278.475 1.69124 -0.8983 0
M  V30 2893 H 276.78 3.88456 0.510797 0
M  V30 2894 H 278.477 4.00758 0.139296 0
M  V30 2895 H 275.067 4.08657 -1.29219 0
M  V30 2896 H 279.251 4.44654 -2.20445 0
M  V30 2897 H 274.507 5.01393 -3.49878 0
M  V30 2898 H 278.681 5.38752 -4.4127 0
M  V30 2899 H 276.308 5.66859 -5.06533 0
M  V30 2900 N 277.883 0.443576 1.51229 0
M  V30 2901 C 279.108 -0.121648 2.07043 0
M  V30 2902 C 279.533 -1.35156 1.30823 0
M  V30 2903 O 278.891 -1.7793 0.347934 0
M  V30 2904 C 278.939 -0.41624 3.5819 0
M  V30 2905 O 278.043 -1.50163 3.8409 0
M  V30 2906 H 277.384 0.000871367 0.663999 0
M  V30 2907 H 279.914 0.626706 1.94765 0
M  V30 2908 H 279.924 -0.664867 4.02546 0
M  V30 2909 H 278.599 0.482653 4.1309 0
M  V30 2910 H 277.176 -1.24248 3.51592 0
M  V30 2911 N 279.361 -1.56624 0.175154 0
M  V30 2912 C 280.586 -2.01813 -0.478137 0
M  V30 2913 C 281.011 -1.05457 -1.55757 0
M  V30 2914 O 280.369 -0.0347439 -1.81267 0
M  V30 2915 C 280.417 -3.45581 -1.02987 0
M  V30 2916 O 279.521 -3.52305 -2.14371 0
M  V30 2917 H 278.862 -0.65413 -0.114059 0
M  V30 2918 H 281.392 -2.02673 0.280173 0
M  V30 2919 H 281.402 -3.84965 -1.35151 0
M  V30 2920 H 280.077 -4.1521 -0.239556 0
M  V30 2921 H 278.654 -3.24783 -1.83222 0
M  V30 2922 N 280.839 0.0985539 -1.57292 0
M  V30 2923 C 282.086 0.802678 -1.85912 0
M  V30 2924 C 282.414 1.78901 -0.763186 0
M  V30 2925 O 281.669 1.94178 0.243559 0
M  V30 2926 C 281.968 1.56927 -3.21105 0
M  V30 2927 C 281.634 0.725376 -4.45027 0
M  V30 2928 C 280.296 0.492726 -4.78671 0
M  V30 2929 C 282.648 0.138493 -5.21016 0
M  V30 2930 C 279.976 -0.336727 -5.85733 0
M  V30 2931 C 282.328 -0.678264 -6.28953 0
M  V30 2932 C 280.992 -0.921039 -6.61115 0
M  V30 2933 H 280.262 0.293721 -0.680301 0
M  V30 2934 H 282.909 0.0642841 -1.91392 0
M  V30 2935 H 281.214 2.37914 -3.11294 0
M  V30 2936 H 282.911 2.11841 -3.40477 0
M  V30 2937 H 279.501 0.916815 -4.18679 0
M  V30 2938 H 283.685 0.305404 -4.95359 0
M  V30 2939 H 278.941 -0.533836 -6.09065 0
M  V30 2940 H 283.115 -1.1399 -6.87007 0
M  V30 2941 H 280.742 -1.56556 -7.43905 0
M  V30 2942 N 282.317 1.53212 0.369288 0
M  V30 2943 C 283.28 1.7872 1.43498 0
M  V30 2944 C 284.28 0.657554 1.46741 0
M  V30 2945 O 285.47 0.925736 1.47566 0
M  V30 2946 C 282.602 1.90591 2.82645 0
M  V30 2947 H 283.795 2.73894 1.22156 0
M  V30 2948 H 281.348 1.44233 0.602203 0
M  V30 2949 H 282.083 0.974709 3.09306 0
M  V30 2950 H 281.868 2.72751 2.8169 0
M  V30 2951 H 283.358 2.11931 3.59826 0
M  V30 2952 N 283.795 -0.628877 1.44509 0
M  V30 2953 C 284.745 -1.7345 1.47983 0
M  V30 2954 C 285.729 -1.5715 0.345373 0
M  V30 2955 O 286.921 -1.66848 0.590829 0
M  V30 2956 C 284.05 -3.12143 1.42904 0
M  V30 2957 C 283.136 -3.33906 2.61472 0
M  V30 2958 N 283.527 -3.26024 3.86706 0
M  V30 2959 C 281.825 -3.64709 2.56716 0
M  V30 2960 C 282.526 -3.48536 4.65722 0
M  V30 2961 N 281.502 -3.71517 3.96832 0
M  V30 2962 H 285.304 -1.65818 2.42655 0
M  V30 2963 H 282.818 -0.831419 1.39503 0
M  V30 2964 H 284.815 -3.91433 1.43476 0
M  V30 2965 H 283.475 -3.2094 0.492717 0
M  V30 2966 H 284.486 -3.04893 4.18641 0
M  V30 2967 H 281.163 -3.80473 1.71891 0
M  V30 2968 H 282.553 -3.48016 5.74747 0
M  V30 2969 N 285.273 -1.31445 -0.869486 0
M  V30 2970 C 286.236 -1.19094 -1.9583 0
M  V30 2971 C 287.236 -0.117906 -1.60367 0
M  V30 2972 O 288.426 -0.367208 -1.70286 0
M  V30 2973 C 285.558 -0.828165 -3.30688 0
M  V30 2974 H 286.751 -2.15842 -2.08212 0
M  V30 2975 H 284.304 -1.15063 -1.05784 0
M  V30 2976 H 285.039 0.138142 -3.24006 0
M  V30 2977 H 284.824 -1.6038 -3.578 0
M  V30 2978 H 286.314 -0.765658 -4.10521 0
M  V30 2979 N 286.751 1.08385 -1.14413 0
M  V30 2980 C 287.683 2.1519 -0.789036 0
M  V30 2981 C 288.696 1.61638 0.19417 0
M  V30 2982 O 289.885 1.78479 -0.0275711 0
M  V30 2983 C 286.985 3.38565 -0.15058 0
M  V30 2984 C 286.158 4.21501 -1.16857 0
M  V30 2985 C 285.217 5.23277 -0.553832 0
M  V30 2986 O 284.243 5.56041 -1.21686 0
M  V30 2987 N 285.445 5.76629 0.669296 0
M  V30 2988 H 288.21 2.46257 -1.70814 0
M  V30 2989 H 285.771 1.24198 -1.03858 0
M  V30 2990 H 287.763 4.03777 0.273181 0
M  V30 2991 H 286.333 3.05299 0.671667 0
M  V30 2992 H 285.553 3.52265 -1.76926 0
M  V30 2993 H 286.841 4.73731 -1.85624 0
M  V30 2994 H 286.239 5.52243 1.22654 0
M  V30 2995 H 284.796 6.43521 1.03556 0
M  V30 2996 N 288.23 0.939286 1.26551 0
M  V30 2997 C 289.476 0.586715 1.94128 0
M  V30 2998 C 289.809 -0.8717 1.73537 0
M  V30 2999 O 289.084 -1.62339 1.07127 0
M  V30 3000 C 289.367 0.927497 3.4795 0
M  V30 3001 C 289.22 2.44052 3.77834 0
M  V30 3002 C 290.539 0.441569 4.37879 0
M  V30 3003 H 287.658 0.21463 0.705055 0
M  V30 3004 H 290.3 1.17316 1.49455 0
M  V30 3005 H 288.45 0.428431 3.8613 0
M  V30 3006 H 290.122 3.01216 3.4938 0
M  V30 3007 H 288.365 2.8848 3.23978 0
M  V30 3008 H 289.036 2.62947 4.85348 0
M  V30 3009 H 291.512 0.869448 4.06915 0
M  V30 3010 H 290.388 0.708856 5.44304 0
M  V30 3011 H 290.649 -0.658467 4.37169 0
M  V30 3012 N 289.708 -1.40897 0.706093 0
M  V30 3013 C 290.933 -2.05895 0.249435 0
M  V30 3014 C 291.358 -1.52823 -1.09666 0
M  V30 3015 O 290.716 -0.659589 -1.68876 0
M  V30 3016 C 290.764 -3.59872 0.22904 0
M  V30 3017 O 289.868 -4.04708 -0.792784 0
M  V30 3018 H 289.209 -0.653206 0.119241 0
M  V30 3019 H 291.739 -1.80471 0.96391 0
M  V30 3020 H 291.749 -4.07951 0.0634791 0
M  V30 3021 H 290.424 -3.97866 1.21141 0
M  V30 3022 H 289.001 -3.68111 -0.59572 0
M  V30 3023 N 291.186 -0.45159 -1.50991 0
M  V30 3024 C 292.435 0.111653 -2.01391 0
M  V30 3025 C 292.748 1.42529 -1.33959 0
M  V30 3026 O 293.954 2.07232 -1.75405 0
M  V30 3027 C 292.41 0.249514 -3.59034 0
M  V30 3028 C 292.018 -1.05453 -4.35412 0
M  V30 3029 C 293.762 0.765762 -4.17536 0
M  V30 3030 C 291.669 -0.881529 -5.84793 0
M  V30 3031 H 290.599 0.0455022 -0.752626 0
M  V30 3032 H 293.25 -0.583524 -1.73975 0
M  V30 3033 H 291.632 1.00803 -3.82955 0
M  V30 3034 H 292.806 -1.82248 -4.23229 0
M  V30 3035 H 291.121 -1.50039 -3.88429 0
M  V30 3036 H 293.718 0.911913 -5.26866 0
M  V30 3037 H 294.061 1.75201 -3.77638 0
M  V30 3038 H 294.594 0.0651744 -3.97747 0
M  V30 3039 H 291.333 -1.84057 -6.29129 0
M  V30 3040 H 290.853 -0.153625 -5.99603 0
M  V30 3041 H 292.532 -0.540363 -6.4474 0
M  V30 3042 N 292.664 1.56529 -0.183458 0
M  V30 3043 C 293.892 2.01623 0.464285 0
M  V30 3044 C 294.307 1.06366 1.55986 0
M  V30 3045 O 293.664 0.0665398 1.82379 0
M  V30 3046 C 293.715 3.46475 1.03139 0
M  V30 3047 O 293.436 4.38095 -0.0204675 0
M  V30 3048 C 294.937 4.0703 1.75617 0
M  V30 3049 H 292.157 0.660596 0.117704 0
M  V30 3050 H 294.701 2.02451 -0.288751 0
M  V30 3051 H 292.856 3.46383 1.73486 0
M  V30 3052 H 293.27 5.22973 0.399952 0
M  V30 3053 H 294.744 5.10271 2.10542 0
M  V30 3054 H 295.221 3.49819 2.65563 0
M  V30 3055 H 295.827 4.1086 1.09882 0
M  V30 3056 N 294.142 -0.090211 1.57342 0
M  V30 3057 C 295.09 -1.12792 2.03422 0
M  V30 3058 C 296.084 -1.41182 0.936166 0
M  V30 3059 O 297.29 -1.40805 1.12133 0
M  V30 3060 H 293.665 -0.380986 0.648347 0
M  V30 3061 H 295.636 -0.71299 2.89757 0
M  V30 3062 C 294.385 -2.43855 2.47851 0
M  V30 3063 H 293.708 -2.22855 3.31927 0
M  V30 3064 H 295.148 -3.14955 2.83865 0
M  V30 3065 C 293.607 -3.08503 1.3538 0
M  V30 3066 O 294.137 -3.95805 0.685641 0
M  V30 3067 N 292.343 -2.68831 1.10355 0
M  V30 3068 H 291.89 -1.97929 1.64869 0
M  V30 3069 H 291.848 -3.12412 0.353031 0
M  V30 3070 N 295.62 -1.53406 -0.361157 0
M  V30 3071 C 296.53 -1.83122 -1.4664 0
M  V30 3072 C 297.546 -0.719943 -1.58407 0
M  V30 3073 O 298.722 -1.01046 -1.74218 0
M  V30 3074 C 295.787 -2.01891 -2.81853 0
M  V30 3075 C 294.848 -3.25784 -2.79577 0
M  V30 3076 C 294.081 -3.43648 -4.0834 0
M  V30 3077 O 294.304 -2.65714 -5.0473 0
M  V30 3078 O 293.238 -4.37018 -4.13883 0
M  V30 3079 H 297.064 -2.7703 -1.24451 0
M  V30 3080 H 294.649 -1.38841 -0.551678 0
M  V30 3081 H 296.531 -2.15782 -3.61962 0
M  V30 3082 H 295.206 -1.11173 -3.0401 0
M  V30 3083 H 294.113 -3.17312 -1.98151 0
M  V30 3084 H 295.446 -4.16439 -2.62373 0
M  V30 3085 N 297.098 0.621204 -1.44841 0
M  V30 3086 C 298.347 1.37658 -1.47422 0
M  V30 3087 C 298.66 1.95264 -0.114629 0
M  V30 3088 O 299.866 2.71494 -0.0180199 0
M  V30 3089 C 298.322 2.49285 -2.59586 0
M  V30 3090 C 297.93 1.98149 -4.01797 0
M  V30 3091 C 299.674 3.26409 -2.71399 0
M  V30 3092 C 297.581 3.07178 -5.05367 0
M  V30 3093 H 296.511 0.517344 -0.548517 0
M  V30 3094 H 299.162 0.667257 -1.70938 0
M  V30 3095 H 297.544 3.22839 -2.29328 0
M  V30 3096 H 298.718 1.31395 -4.41669 0
M  V30 3097 H 297.033 1.33812 -3.94314 0
M  V30 3098 H 299.63 4.07706 -3.45948 0
M  V30 3099 H 299.973 3.76535 -1.77559 0
M  V30 3100 H 300.506 2.5995 -3.01116 0
M  V30 3101 H 297.245 2.61985 -6.00869 0
M  V30 3102 H 296.765 3.72542 -4.70077 0
M  V30 3103 H 298.444 3.71789 -5.29511 0
M  V30 3104 N 298.576 1.31904 0.862503 0
M  V30 3105 C 299.806 1.24817 1.64634 0
M  V30 3106 C 300.214 -0.187579 1.88268 0
M  V30 3107 O 299.557 -1.13253 1.44635 0
M  V30 3108 C 299.619 1.92996 3.03303 0
M  V30 3109 C 299.283 3.42336 3.02746 0
M  V30 3110 C 300.28 4.37956 2.80162 0
M  V30 3111 C 297.965 3.84147 3.2363 0
M  V30 3112 C 299.959 5.73361 2.78453 0
M  V30 3113 C 297.646 5.19663 3.21549 0
M  V30 3114 C 298.644 6.14081 2.98988 0
M  V30 3115 O 298.332 7.47118 2.96766 0
M  V30 3116 H 298.064 0.432222 0.519769 0
M  V30 3117 H 300.618 1.7445 1.08427 0
M  V30 3118 H 298.848 1.37922 3.61268 0
M  V30 3119 H 300.537 1.79723 3.63943 0
M  V30 3120 H 301.303 4.06981 2.63802 0
M  V30 3121 H 297.182 3.11083 3.40218 0
M  V30 3122 H 300.726 6.4703 2.60763 0
M  V30 3123 H 296.623 5.5027 3.37451 0
M  V30 3124 H 297.391 7.56382 3.12775 0
M  V30 3125 N 300.054 -1.07777 1.14986 0
M  V30 3126 C 300.986 -2.14769 0.800436 0
M  V30 3127 C 301.999 -1.61739 -0.185595 0
M  V30 3128 O 303.188 -1.78462 0.0370358 0
M  V30 3129 C 300.288 -3.38481 0.168533 0
M  V30 3130 C 299.461 -4.20876 1.1909 0
M  V30 3131 C 298.52 -5.22976 0.581575 0
M  V30 3132 O 297.546 -5.55388 1.24633 0
M  V30 3133 N 298.748 -5.76976 -0.638706 0
M  V30 3134 H 301.513 -2.45348 1.72118 0
M  V30 3135 H 299.074 -1.23645 1.04515 0
M  V30 3136 H 301.066 -4.03916 -0.251764 0
M  V30 3137 H 299.636 -3.05651 -0.655467 0
M  V30 3138 H 298.856 -3.51322 1.78791 0
M  V30 3139 H 300.144 -4.7274 1.88133 0
M  V30 3140 H 299.542 -5.52886 -1.19723 0
M  V30 3141 H 298.099 -6.44061 -1.00142 0
M  V30 3142 N 301.532 -0.945985 -1.26051 0
M  V30 3143 C 302.762 -0.612136 -1.97323 0
M  V30 3144 C 303.17 0.818171 -1.70595 0
M  V30 3145 O 302.513 1.55777 -0.973613 0
M  V30 3146 C 302.575 -0.780347 -3.50929 0
M  V30 3147 C 302.239 -2.18619 -4.01317 0
M  V30 3148 C 303.236 -3.16209 -4.12683 0
M  V30 3149 C 300.921 -2.50805 -4.35203 0
M  V30 3150 C 302.915 -4.44085 -4.57238 0
M  V30 3151 C 300.602 -3.78912 -4.79446 0
M  V30 3152 C 301.6 -4.75365 -4.90425 0
M  V30 3153 O 301.288 -6.01191 -5.3369 0
M  V30 3154 H 301.02 -0.229134 -0.635982 0
M  V30 3155 H 303.574 -1.27036 -1.61404 0
M  V30 3156 H 301.804 -0.0649864 -3.86645 0
M  V30 3157 H 303.493 -0.448842 -4.03411 0
M  V30 3158 H 304.259 -2.92668 -3.86744 0
M  V30 3159 H 300.138 -1.76463 -4.2589 0
M  V30 3160 H 303.682 -5.19373 -4.65723 0
M  V30 3161 H 299.579 -4.02265 -5.0483 0
M  V30 3162 H 300.347 -6.04442 -5.51899 0
M  V30 3163 N 303.011 1.40521 -0.713556 0
M  V30 3164 C 303.941 2.33381 -0.0743864 0
M  V30 3165 C 304.922 1.52784 0.747735 0
M  V30 3166 O 306.107 1.81258 0.697071 0
M  V30 3167 C 303.237 3.36748 0.849598 0
M  V30 3168 C 302.191 4.27793 0.133247 0
M  V30 3169 C 301.517 5.21679 1.17281 0
M  V30 3170 C 302.817 5.12415 -1.01134 0
M  V30 3171 H 304.511 2.87081 -0.850007 0
M  V30 3172 H 302.057 1.38034 -0.410201 0
M  V30 3173 H 304.01 4.00648 1.30612 0
M  V30 3174 H 302.734 2.81439 1.65709 0
M  V30 3175 H 301.393 3.65342 -0.303426 0
M  V30 3176 H 301.041 4.62677 1.9733 0
M  V30 3177 H 300.741 5.83435 0.698397 0
M  V30 3178 H 302.265 5.88456 1.62947 0
M  V30 3179 H 303.679 5.69781 -0.634274 0
M  V30 3180 H 302.076 5.83203 -1.41399 0
M  V30 3181 H 303.146 4.48514 -1.84292 0
M  V30 3182 N 304.489 0.459591 1.5075 0
M  V30 3183 C 305.737 -0.0991532 2.01857 0
M  V30 3184 C 306.058 -1.41247 1.34441 0
M  V30 3185 O 305.328 -1.89775 0.486022 0
M  V30 3186 H 303.908 -0.039633 0.745948 0
M  V30 3187 H 306.57 0.607387 1.85194 0
M  V30 3188 H 305.666 -0.258998 3.11023 0
M  V30 3189 N 305.967 -1.56429 0.191757 0
M  V30 3190 C 306.877 -2.22541 -0.742481 0
M  V30 3191 C 307.893 -1.22342 -1.23727 0
M  V30 3192 O 309.069 -1.55069 -1.28513 0
M  V30 3193 C 306.134 -2.8692 -1.94623 0
M  V30 3194 C 305.195 -4.02378 -1.49633 0
M  V30 3195 C 304.428 -4.63678 -2.6427 0
M  V30 3196 O 304.651 -4.23895 -3.81666 0
M  V30 3197 O 303.585 -5.53202 -2.37174 0
M  V30 3198 H 307.411 -3.02977 -0.209462 0
M  V30 3199 H 304.996 -1.49353 -0.0373832 0
M  V30 3200 H 306.878 -3.27663 -2.64982 0
M  V30 3201 H 305.553 -2.09466 -2.46791 0
M  V30 3202 H 304.46 -3.66265 -0.761636 0
M  V30 3203 H 305.793 -4.81487 -1.02134 0
M  V30 3204 N 307.445 0.0818655 -1.57387 0
M  V30 3205 C 308.856 0.634871 -1.75574 0
M  V30 3206 C 309.207 1.78435 -0.815809 0
M  V30 3207 O 308.332 2.164 0.0025366 0
M  V30 3208 C 308.927 1.15845 -3.18379 0
M  V30 3209 C 307.486 1.65741 -3.37945 0
M  V30 3210 C 306.633 0.572549 -2.71325 0
M  V30 3211 H 309.584 -0.144268 -1.58043 0
M  V30 3212 H 309.605 2.02751 -3.21982 0
M  V30 3213 H 309.117 0.321631 -3.86765 0
M  V30 3214 H 307.218 2.51781 -2.74658 0
M  V30 3215 H 307.331 1.74129 -4.46336 0
M  V30 3216 H 305.695 1.01518 -2.33594 0
M  V30 3217 H 306.478 -0.253918 -3.4236 0
M  V30 3218 N 308.923 1.53595 0.353017 0
M  V30 3219 C 309.833 1.83897 1.45667 0
M  V30 3220 C 310.849 0.728334 1.58023 0
M  V30 3221 O 312.025 1.01968 1.73679 0
M  V30 3222 C 309.09 2.03383 2.80778 0
M  V30 3223 C 308.151 3.27262 2.77845 0
M  V30 3224 C 307.384 3.45809 4.06512 0
M  V30 3225 O 307.607 2.68387 5.03314 0
M  V30 3226 O 306.541 4.39207 4.11559 0
M  V30 3227 H 310.367 2.77686 1.2298 0
M  V30 3228 H 307.952 1.39132 0.544308 0
M  V30 3229 H 309.834 2.17698 3.60812 0
M  V30 3230 H 308.509 1.12783 3.03417 0
M  V30 3231 H 307.416 3.18359 1.96465 0
M  V30 3232 H 308.749 4.17824 2.60161 0
M  V30 3233 N 310.401 -0.613514 1.45168 0
M  V30 3234 C 311.629 -1.39946 1.5239 0
M  V30 3235 C 312.044 -1.88167 0.154531 0
M  V30 3236 O 311.401 -1.61872 -0.842843 0
M  V30 3237 C 311.452 -2.60795 2.50337 0
M  V30 3238 O 311.173 -2.1458 3.81952 0
M  V30 3239 C 312.674 -3.53723 2.67198 0
M  V30 3240 H 309.894 -0.428593 0.516284 0
M  V30 3241 H 312.438 -0.748753 1.903 0
M  V30 3242 H 310.593 -3.21919 2.15515 0
M  V30 3243 H 311.007 -2.93055 4.34993 0
M  V30 3244 H 312.481 -4.35079 3.39721 0
M  V30 3245 H 312.958 -4.0368 1.73029 0
M  V30 3246 H 313.564 -2.98456 3.02992 0
M  V30 3247 N 311.879 -1.3236 -0.855495 0
M  V30 3248 C 313.126 -1.22872 -1.60962 0
M  V30 3249 C 313.454 0.209658 -1.93367 0
M  V30 3250 O 312.709 1.16243 -1.57436 0
M  V30 3251 C 313.008 -2.03275 -2.93963 0
M  V30 3252 C 312.674 -3.5264 -2.80991 0
M  V30 3253 C 311.336 -3.93364 -2.7716 0
M  V30 3254 C 313.688 -4.47626 -2.66983 0
M  V30 3255 C 311.016 -5.27319 -2.572 0
M  V30 3256 C 313.368 -5.81723 -2.48558 0
M  V30 3257 C 312.032 -6.2165 -2.4312 0
M  V30 3258 H 311.302 -0.44962 -0.589001 0
M  V30 3259 H 313.949 -1.63777 -0.992442 0
M  V30 3260 H 312.254 -1.55095 -3.59795 0
M  V30 3261 H 313.951 -1.93303 -3.51333 0
M  V30 3262 H 310.541 -3.20295 -2.84797 0
M  V30 3263 H 314.725 -4.17084 -2.68988 0
M  V30 3264 H 309.981 -5.57311 -2.51424 0
M  V30 3265 H 314.155 -6.5494 -2.36699 0
M  V30 3266 H 311.782 -7.25388 -2.27412 0
M  V30 3267 N 313.357 1.07166 -1.15556 0
M  V30 3268 C 314.287 2.16403 -0.877046 0
M  V30 3269 C 315.268 1.69217 0.173111 0
M  V30 3270 O 316.453 1.94181 0.027084 0
M  V30 3271 C 313.583 3.45349 -0.367632 0
M  V30 3272 C 312.537 4.05995 -1.35468 0
M  V30 3273 C 311.863 5.30045 -0.704038 0
M  V30 3274 C 313.163 4.45804 -2.72132 0
M  V30 3275 H 314.857 2.39959 -1.79053 0
M  V30 3276 H 312.403 1.15325 -0.862331 0
M  V30 3277 H 314.356 4.21095 -0.160317 0
M  V30 3278 H 313.08 3.21385 0.581326 0
M  V30 3279 H 311.739 3.32296 -1.54839 0
M  V30 3280 H 311.387 5.02373 0.251128 0
M  V30 3281 H 311.087 5.71579 -1.36277 0
M  V30 3282 H 312.611 6.08495 -0.50654 0
M  V30 3283 H 314.025 5.12671 -2.56595 0
M  V30 3284 H 312.422 4.98296 -3.34397 0
M  V30 3285 H 313.492 3.57083 -3.28054 0
M  V30 3286 N 314.835 0.952656 1.25548 0
M  V30 3287 C 316.082 0.606373 1.93208 0
M  V30 3288 C 316.41 -0.85631 1.74636 0
M  V30 3289 O 315.665 -1.62951 1.08376 0
M  V30 3290 C 315.964 0.908818 3.45652 0
M  V30 3291 C 315.63 2.35722 3.84378 0
M  V30 3292 C 314.292 2.75312 3.9466 0
M  V30 3293 C 316.644 3.29793 4.03591 0
M  V30 3294 C 313.972 4.08047 4.21562 0
M  V30 3295 C 316.324 4.62138 4.31985 0
M  V30 3296 C 314.988 5.01528 4.40484 0
M  V30 3297 H 314.258 0.221888 0.706998 0
M  V30 3298 H 316.905 1.20132 1.49133 0
M  V30 3299 H 315.21 0.231456 3.91116 0
M  V30 3300 H 316.907 0.619498 3.96186 0
M  V30 3301 H 313.497 2.04017 3.76928 0
M  V30 3302 H 317.681 3.00397 3.95064 0
M  V30 3303 H 312.937 4.38212 4.26357 0
M  V30 3304 H 317.111 5.35012 4.45797 0
M  V30 3305 H 314.738 6.04406 4.61083 0
M  V30 3306 N 316.313 -1.40141 0.720998 0
M  V30 3307 C 317.553 -2.02644 0.267335 0
M  V30 3308 C 317.917 -1.55948 -1.12001 0
M  V30 3309 O 319.118 -2.10552 -1.67097 0
M  V30 3310 C 317.389 -3.55679 0.350281 0
M  V30 3311 S 318.948 -4.38793 -0.0256004 0
M  V30 3312 H 315.766 -0.703105 0.105664 0
M  V30 3313 H 318.368 -1.71175 0.944416 0
M  V30 3314 H 317.072 -3.87157 1.36153 0
M  V30 3315 H 316.603 -3.91883 -0.345096 0
M  V30 3316 H 318.618 -4.803 -1.24604 0
M  V30 3317 N 317.792 -0.46758 -1.50504 0
M  V30 3318 C 319.203 -0.0116166 -1.86696 0
M  V30 3319 C 319.554 1.39202 -1.38265 0
M  V30 3320 O 318.679 2.0313 -0.746132 0
M  V30 3321 C 319.274 -0.0143044 -3.38797 0
M  V30 3322 C 317.833 0.386175 -3.74414 0
M  V30 3323 C 316.98 -0.401287 -2.74381 0
M  V30 3324 H 319.931 -0.682022 -1.43297 0
M  V30 3325 H 319.952 0.788641 -3.72237 0
M  V30 3326 H 319.464 -1.03602 -3.74016 0
M  V30 3327 H 317.565 1.41237 -3.44794 0
M  V30 3328 H 317.678 0.0899596 -4.79016 0
M  V30 3329 H 316.042 0.144536 -2.5429 0
M  V30 3330 H 316.825 -1.42244 -3.12444 0
M  V30 3331 N 319.27 1.56325 -0.20005 0
M  V30 3332 C 320.498 2.02105 0.442874 0
M  V30 3333 C 320.913 1.08014 1.5485 0
M  V30 3334 O 320.27 0.0858797 1.82298 0
M  V30 3335 C 320.321 3.47549 0.994583 0
M  V30 3336 O 320.042 4.38049 -0.0669322 0
M  V30 3337 C 321.543 4.0887 1.7129 0
M  V30 3338 H 318.763 0.661807 0.110691 0
M  V30 3339 H 321.307 2.02134 -0.310207 0
M  V30 3340 H 319.462 3.48204 1.69803 0
M  V30 3341 H 319.876 5.23368 0.344462 0
M  V30 3342 H 321.35 5.12475 2.05118 0
M  V30 3343 H 321.827 3.52615 2.61838 0
M  V30 3344 H 322.433 4.12002 1.05518 0
M  V30 3345 N 320.748 -0.0735177 1.57428 0
M  V30 3346 C 321.658 -1.10547 2.06922 0
M  V30 3347 C 322.674 -1.42506 0.998402 0
M  V30 3348 O 323.85 -1.52717 1.31299 0
M  V30 3349 C 320.915 -2.40019 2.50184 0
M  V30 3350 C 319.976 -2.15046 3.71556 0
M  V30 3351 C 319.209 -3.38345 4.12745 0
M  V30 3352 O 319.432 -4.47399 3.53822 0
M  V30 3353 O 318.366 -3.2666 5.05546 0
M  V30 3354 H 322.192 -0.715013 2.95163 0
M  V30 3355 H 319.777 -0.287531 1.46607 0
M  V30 3356 H 321.659 -3.16218 2.78539 0
M  V30 3357 H 320.334 -2.78447 1.65072 0
M  V30 3358 H 319.241 -1.36558 3.48285 0
M  V30 3359 H 320.574 -1.81499 4.57514 0
M  V30 3360 N 322.226 -1.5378 -0.344866 0
M  V30 3361 C 323.456 -1.74646 -1.10374 0
M  V30 3362 C 323.864 -0.48491 -1.8288 0
M  V30 3363 O 323.207 0.553062 -1.75177 0
M  V30 3364 C 323.269 -2.87145 -2.16306 0
M  V30 3365 C 322.933 -4.26795 -1.63386 0
M  V30 3366 C 323.93 -5.08412 -1.08688 0
M  V30 3367 C 321.615 -4.73276 -1.68272 0
M  V30 3368 C 323.609 -6.34609 -0.595792 0
M  V30 3369 C 321.296 -5.99446 -1.18776 0
M  V30 3370 C 322.294 -6.79946 -0.645215 0
M  V30 3371 O 321.982 -8.03745 -0.157626 0
M  V30 3372 H 321.714 -0.587112 -0.335075 0
M  V30 3373 H 324.268 -2.01403 -0.403252 0
M  V30 3374 H 322.498 -2.55909 -2.89909 0
M  V30 3375 H 324.187 -2.95992 -2.77747 0
M  V30 3376 H 324.953 -4.73666 -1.04236 0
M  V30 3377 H 320.832 -4.10677 -2.09442 0
M  V30 3378 H 324.376 -6.97389 -0.171654 0
M  V30 3379 H 320.273 -6.33687 -1.22928 0
M  V30 3380 H 321.041 -8.18038 -0.275037 0
M  V30 3381 N 323.704 0.605807 -1.45491 0
M  V30 3382 C 324.944 1.37606 -1.51142 0
M  V30 3383 C 325.308 1.91413 -0.150075 0
M  V30 3384 O 326.509 2.68677 -0.0812828 0
M  V30 3385 C 324.78 2.49197 -2.56195 0
M  V30 3386 S 326.339 3.36953 -2.81083 0
M  V30 3387 H 323.157 0.469118 -0.534275 0
M  V30 3388 H 325.759 0.698845 -1.82583 0
M  V30 3389 H 324.463 2.0802 -3.53773 0
M  V30 3390 H 323.994 3.21717 -2.26411 0
M  V30 3391 H 326.009 4.47395 -2.14598 0
M  V30 3392 N 325.182 1.32811 0.848464 0
M  V30 3393 C 326.43 1.23479 1.59991 0
M  V30 3394 C 326.751 -0.201853 1.93952 0
M  V30 3395 O 326.021 -1.12818 1.60153 0
M  V30 3396 H 324.601 0.454034 0.593179 0
M  V30 3397 H 327.263 1.66412 1.01455 0
M  V30 3398 H 326.359 1.82178 2.53412 0
M  V30 3399 N 326.66 -1.06551 1.16123 0
M  V30 3400 C 327.888 -1.83005 0.965237 0
M  V30 3401 C 328.303 -1.82423 -0.486542 0
M  V30 3402 O 327.66 -1.24152 -1.33763 0
M  V30 3403 C 327.711 -3.29733 1.48183 0
M  V30 3404 O 327.432 -3.30416 2.87674 0
M  V30 3405 C 328.933 -4.22926 1.32848 0
M  V30 3406 H 326.153 -0.577118 0.342309 0
M  V30 3407 H 328.697 -1.3445 1.54089 0
M  V30 3408 H 326.852 -3.75609 0.948517 0
M  V30 3409 H 327.266 -4.22149 3.11272 0
M  V30 3410 H 328.74 -5.23916 1.73827 0
M  V30 3411 H 329.217 -4.38346 0.273692 0
M  V30 3412 H 329.823 -3.82894 1.85127 0
M  V30 3413 N 328.138 -0.959301 -1.25041 0
M  V30 3414 C 329.385 -0.616611 -1.92884 0
M  V30 3415 C 329.713 0.847036 -1.75087 0
M  V30 3416 O 328.968 1.62374 -1.09239 0
M  V30 3417 C 329.267 -0.927136 -3.45165 0
M  V30 3418 C 328.933 -2.37757 -3.83122 0
M  V30 3419 C 327.595 -2.77402 -3.93194 0
M  V30 3420 C 329.947 -3.31929 -4.01836 0
M  V30 3421 C 327.275 -4.10277 -4.19392 0
M  V30 3422 C 329.627 -4.64423 -4.29528 0
M  V30 3423 C 328.291 -5.03857 -4.37818 0
M  V30 3424 H 327.561 -0.225634 -0.705812 0
M  V30 3425 H 330.208 -1.20921 -1.48493 0
M  V30 3426 H 328.513 -0.252195 -3.90987 0
M  V30 3427 H 330.21 -0.6405 -3.95852 0
M  V30 3428 H 326.8 -2.06013 -3.75841 0
M  V30 3429 H 330.984 -3.02488 -3.93465 0
M  V30 3430 H 326.24 -4.40467 -4.24027 0
M  V30 3431 H 330.414 -5.37369 -4.42953 0
M  V30 3432 H 328.041 -6.06843 -4.57871 0
M  V30 3433 N 329.616 1.39756 -0.72842 0
M  V30 3434 C 330.856 2.025 -0.278078 0
M  V30 3435 C 331.22 1.5654 1.11173 0
M  V30 3436 O 332.421 2.11435 1.65978 0
M  V30 3437 C 330.692 3.55489 -0.369139 0
M  V30 3438 S 332.251 4.388 0.00232983 0
M  V30 3439 H 329.069 0.702534 -0.109391 0
M  V30 3440 H 331.671 1.70672 -0.95348 0
M  V30 3441 H 330.375 3.86429 -1.38204 0
M  V30 3442 H 329.906 3.92061 0.324308 0
M  V30 3443 H 331.921 4.80954 1.22055 0
M  V30 3444 N 331.094 0.475555 1.50254 0
M  V30 3445 C 332.324 -0.0753399 2.06463 0
M  V30 3446 C 332.732 -1.33661 1.33908 0
M  V30 3447 O 332.075 -1.79219 0.403257 0
M  V30 3448 C 332.137 -0.424921 3.5698 0
M  V30 3449 C 331.801 0.734965 4.51051 0
M  V30 3450 C 332.798 1.61827 4.94073 0
M  V30 3451 C 330.483 0.926557 4.9368 0
M  V30 3452 C 332.477 2.67754 5.78434 0
M  V30 3453 C 330.164 1.98904 5.77824 0
M  V30 3454 C 331.162 2.8629 6.20103 0
M  V30 3455 O 330.85 3.90708 7.02568 0
M  V30 3456 H 330.582 0.00576308 0.675975 0
M  V30 3457 H 333.136 0.664662 1.94349 0
M  V30 3458 H 331.366 -1.21817 3.67012 0
M  V30 3459 H 333.055 -0.911422 3.95535 0
M  V30 3460 H 333.821 1.48196 4.61804 0
M  V30 3461 H 329.7 0.25584 4.6029 0
M  V30 3462 H 333.244 3.35992 6.11355 0
M  V30 3463 H 329.141 2.12541 6.09505 0
M  V30 3464 H 329.909 3.87751 7.20827 0
M  V30 3465 N 332.573 -1.56217 0.208337 0
M  V30 3466 C 333.984 -1.84243 -0.301904 0
M  V30 3467 C 334.335 -1.12939 -1.60434 0
M  V30 3468 O 333.46 -0.39461 -2.12772 0
M  V30 3469 C 334.055 -3.34231 -0.554543 0
M  V30 3470 C 332.614 -3.62621 -1.00912 0
M  V30 3471 C 331.761 -2.77224 -0.064933 0
M  V30 3472 H 334.712 -1.52712 0.431833 0
M  V30 3473 H 334.733 -3.5372 -1.40223 0
M  V30 3474 H 334.245 -3.86099 0.393561 0
M  V30 3475 H 332.346 -3.16197 -1.97104 0
M  V30 3476 H 332.459 -4.7071 -0.892674 0
M  V30 3477 H 330.823 -2.48256 -0.56929 0
M  V30 3478 H 331.606 -3.31887 0.877851 0
M  V30 3479 N 334.051 0.0651679 -1.57465 0
M  V30 3480 C 334.999 1.09542 -2.05191 0
M  V30 3481 C 335.993 1.39675 -0.958509 0
M  V30 3482 O 337.199 1.39003 -1.14359 0
M  V30 3483 H 333.574 0.370623 -0.654326 0
M  V30 3484 H 335.545 0.666802 -2.90854 0
M  V30 3485 C 334.294 2.39881 -2.51699 0
M  V30 3486 H 333.617 2.17547 -3.3543 0
M  V30 3487 H 335.057 3.104 -2.88839 0
M  V30 3488 C 333.516 3.0631 -1.40271 0
M  V30 3489 O 334.046 3.94664 -0.748523 0
M  V30 3490 N 332.252 2.67041 -1.14618 0
M  V30 3491 H 331.799 1.95281 -1.67997 0
M  V30 3492 H 331.757 3.1181 -0.402688 0
M  V30 3493 N 335.529 1.53961 0.336706 0
M  V30 3494 C 336.775 1.7179 1.07777 0
M  V30 3495 C 337.108 0.483263 1.88091 0
M  V30 3496 O 336.383 -0.519747 1.87427 0
M  V30 3497 C 336.666 2.98558 2.01334 0
M  V30 3498 C 336.519 4.32245 1.24437 0
M  V30 3499 C 337.838 3.21023 3.01052 0
M  V30 3500 H 334.957 0.625089 0.390426 0
M  V30 3501 H 337.599 1.86641 0.35567 0
M  V30 3502 H 335.749 2.86028 2.62908 0
M  V30 3503 H 337.421 4.56637 0.654243 0
M  V30 3504 H 335.664 4.30344 0.546458 0
M  V30 3505 H 336.335 5.17137 1.93063 0
M  V30 3506 H 338.811 3.32929 2.49595 0
M  V30 3507 H 337.687 4.11104 3.6371 0
M  V30 3508 H 337.948 2.37637 3.72802 0
M  V30 3509 N 337.007 -0.598083 1.45811 0
M  V30 3510 C 338.232 -1.3881 1.54099 0
M  V30 3511 C 338.657 -1.8726 0.177578 0
M  V30 3512 O 338.015 -1.6069 -0.839541 0
M  V30 3513 C 338.063 -2.56217 2.53743 0
M  V30 3514 O 337.167 -3.5716 2.06182 0
M  V30 3515 H 336.508 -0.414024 0.519115 0
M  V30 3516 H 339.038 -0.726971 1.91249 0
M  V30 3517 H 339.048 -3.03337 2.72856 0
M  V30 3518 H 337.723 -2.20303 3.5276 0
M  V30 3519 H 336.3 -3.16624 1.96987 0
M  V30 3520 N 338.485 -1.33259 -0.841409 0
M  V30 3521 C 339.417 -1.19136 -1.95804 0
M  V30 3522 C 340.43 -0.122965 -1.62335 0
M  V30 3523 O 341.619 -0.373154 -1.74556 0
M  V30 3524 C 338.719 -0.804268 -3.29218 0
M  V30 3525 C 337.892 -1.96376 -3.90839 0
M  V30 3526 C 336.951 -1.55806 -5.02604 0
M  V30 3527 O 335.977 -2.27203 -5.21888 0
M  V30 3528 N 337.179 -0.461609 -5.78662 0
M  V30 3529 H 339.944 -2.15326 -2.08458 0
M  V30 3530 H 337.505 -1.25971 -1.017 0
M  V30 3531 H 339.497 -0.51501 -4.0141 0
M  V30 3532 H 338.067 0.0668809 -3.12528 0
M  V30 3533 H 337.287 -2.41879 -3.11269 0
M  V30 3534 H 338.575 -2.73966 -4.28742 0
M  V30 3535 H 337.973 0.132343 -5.65545 0
M  V30 3536 H 336.53 -0.232013 -6.51387 0
M  V30 3537 N 339.963 1.05934 -1.16686 0
M  V30 3538 C 341.188 1.83029 -0.975455 0
M  V30 3539 C 341.613 1.82096 0.471452 0
M  V30 3540 O 340.971 1.22443 1.33706 0
M  V30 3541 C 341.019 3.27372 -1.51195 0
M  V30 3542 O 340.123 4.06054 -0.720701 0
M  V30 3543 H 339.464 0.566194 -0.346872 0
M  V30 3544 H 341.994 1.33541 -1.55009 0
M  V30 3545 H 342.004 3.78186 -1.53099 0
M  V30 3546 H 340.679 3.27366 -2.56523 0
M  V30 3547 H 339.256 3.64812 -0.772458 0
M  V30 3548 N 341.441 0.965919 1.2453 0
M  V30 3549 C 342.852 0.665929 1.7442 0
M  V30 3550 C 343.203 -0.818407 1.78316 0
M  V30 3551 O 342.328 -1.64037 1.41141 0
M  V30 3552 C 342.923 1.20211 3.16757 0
M  V30 3553 C 341.482 0.952059 3.6416 0
M  V30 3554 C 340.629 1.33848 2.42858 0
M  V30 3555 H 343.58 1.14144 1.10258 0
M  V30 3556 H 343.601 0.567544 3.76244 0
M  V30 3557 H 343.113 2.28244 3.13889 0
M  V30 3558 H 341.214 -0.112821 3.72429 0
M  V30 3559 H 341.327 1.59645 4.51719 0
M  V30 3560 H 339.691 0.756864 2.43195 0
M  V30 3561 H 340.474 2.42827 2.42673 0
M  V30 3562 N 342.919 -1.39368 0.735821 0
M  V30 3563 C 344.149 -2.04498 0.293967 0
M  V30 3564 C 344.557 -1.55593 -1.07645 0
M  V30 3565 O 343.9 -0.716324 -1.69158 0
M  V30 3566 C 343.962 -3.58836 0.218342 0
M  V30 3567 C 343.626 -4.30721 1.52736 0
M  V30 3568 C 344.623 -4.57305 2.47322 0
M  V30 3569 C 342.308 -4.69251 1.79189 0
M  V30 3570 C 344.302 -5.21429 3.66593 0
M  V30 3571 C 341.989 -5.33104 2.98737 0
M  V30 3572 C 342.987 -5.59125 3.9226 0
M  V30 3573 O 342.675 -6.21653 5.09708 0
M  V30 3574 H 342.407 -0.664118 0.126189 0
M  V30 3575 H 344.961 -1.79385 1.00051 0
M  V30 3576 H 343.191 -3.8285 -0.544314 0
M  V30 3577 H 344.88 -4.05447 -0.191626 0
M  V30 3578 H 345.646 -4.27983 2.28156 0
M  V30 3579 H 341.525 -4.48354 1.07239 0
M  V30 3580 H 345.069 -5.41656 4.39607 0
M  V30 3581 H 340.966 -5.61846 3.17803 0
M  V30 3582 H 341.734 -6.40146 5.10054 0
M  V30 3583 N 344.397 -0.483516 -1.5 0
M  V30 3584 C 345.327 0.293829 -2.31644 0
M  V30 3585 C 346.308 0.978864 -1.39112 0
M  V30 3586 O 347.493 0.973644 -1.68029 0
M  V30 3587 C 344.623 1.36897 -3.19181 0
M  V30 3588 C 343.577 0.804833 -4.20365 0
M  V30 3589 C 342.903 1.9792 -4.96721 0
M  V30 3590 C 344.203 -0.192313 -5.21946 0
M  V30 3591 H 345.897 -0.387616 -2.9688 0
M  V30 3592 H 343.443 -0.187856 -1.42769 0
M  V30 3593 H 345.396 1.92037 -3.751 0
M  V30 3594 H 344.12 2.07936 -2.51853 0
M  V30 3595 H 342.779 0.275319 -3.65565 0
M  V30 3596 H 342.427 2.67686 -4.25856 0
M  V30 3597 H 342.127 1.60789 -5.65173 0
M  V30 3598 H 343.651 2.53526 -5.55479 0
M  V30 3599 H 345.065 0.270333 -5.72662 0
M  V30 3600 H 343.462 -0.478543 -5.98189 0
M  V30 3601 H 344.532 -1.11409 -4.71928 0
M  V30 3602 N 345.875 1.56104 -0.216619 0
M  V30 3603 C 347.291 1.58995 0.13886 0
M  V30 3604 C 347.491 1.23333 1.59346 0
M  V30 3605 O 346.547 0.966234 2.33281 0
M  V30 3606 C 347.86 3.00143 -0.182968 0
M  V30 3607 C 349.408 3.12751 -0.124807 0
M  V30 3608 C 349.883 4.56068 -0.420241 0
M  V30 3609 N 351.374 4.61723 -0.369634 0
M  V30 3610 C 352.109 5.70542 -0.571789 0
M  V30 3611 N 351.605 6.87744 -0.835453 0
M  V30 3612 N 353.398 5.59831 -0.504563 0
M  V30 3613 H 345.549 1.77562 -1.16557 0
M  V30 3614 H 347.812 0.825091 -0.466828 0
M  V30 3615 H 347.518 3.30871 -1.19237 0
M  V30 3616 H 347.392 3.73813 0.504367 0
M  V30 3617 H 349.779 2.81822 0.875223 0
M  V30 3618 H 349.86 2.41421 -0.845544 0
M  V30 3619 H 349.504 4.87713 -1.41769 0
M  V30 3620 H 349.434 5.25617 0.321631 0
M  V30 3621 H 351.925 3.77502 -0.173338 0
M  V30 3622 H 352.238 7.66587 -0.977938 0
M  V30 3623 H 350.583 6.895 -0.872592 0
M  V30 3624 H 353.774 4.67145 -0.298842 0
M  V30 3625 H 353.947 6.44573 -0.665519 0
M  V30 3626 N 347.353 -0.0568162 1.57498 0
M  V30 3627 C 348.581 -0.765626 1.92213 0
M  V30 3628 C 348.996 -1.70353 0.813961 0
M  V30 3629 O 348.353 -1.81268 -0.211701 0
M  V30 3630 C 348.404 -1.5465 3.2675 0
M  V30 3631 O 348.125 -0.646278 4.33307 0
M  V30 3632 C 349.626 -2.35497 3.75574 0
M  V30 3633 H 346.846 -0.216835 0.634999 0
M  V30 3634 H 349.39 -0.0226146 2.04487 0
M  V30 3635 H 347.545 -2.24165 3.15957 0
M  V30 3636 H 347.959 -1.19093 5.108 0
M  V30 3637 H 349.433 -2.85722 4.72299 0
M  V30 3638 H 349.91 -3.15692 3.05344 0
M  V30 3639 H 350.516 -1.7111 3.8936 0
M  V30 3640 N 348.832 -1.54138 -0.328536 0
M  V30 3641 C 350.078 -1.7236 -1.06865 0
M  V30 3642 C 350.411 -0.493231 -1.87832 0
M  V30 3643 O 349.686 0.5098 -1.877 0
M  V30 3644 C 349.969 -2.99621 -1.99747 0
M  V30 3645 C 349.822 -4.32899 -1.22143 0
M  V30 3646 C 351.141 -3.22615 -2.99345 0
M  V30 3647 H 348.26 -0.627151 -0.387105 0
M  V30 3648 H 350.902 -1.86827 -0.345767 0
M  V30 3649 H 349.052 -2.87418 -2.61387 0
M  V30 3650 H 350.724 -4.56978 -0.630017 0
M  V30 3651 H 348.967 -4.30628 -0.523628 0
M  V30 3652 H 349.638 -5.18154 -1.90318 0
M  V30 3653 H 352.114 -3.34248 -2.47826 0
M  V30 3654 H 350.99 -4.13027 -3.61524 0
M  V30 3655 H 351.251 -2.3961 -3.71536 0
M  V30 3656 N 350.31 0.590341 -1.46126 0
M  V30 3657 C 351.558 1.34616 -1.50742 0
M  V30 3658 C 351.879 1.94363 -0.157486 0
M  V30 3659 O 351.149 1.78136 0.815136 0
M  V30 3660 H 349.729 0.499789 -0.555175 0
M  V30 3661 H 352.391 0.691953 -1.82203 0
M  V30 3662 H 351.487 2.15678 -2.25587 0
M  V30 3663 N 351.788 1.33704 0.83433 0
M  V30 3664 C 352.698 1.26382 1.97648 0
M  V30 3665 C 353.714 0.173548 1.73132 0
M  V30 3666 O 354.89 0.397962 1.97429 0
M  V30 3667 C 351.955 1.00769 3.31733 0
M  V30 3668 C 351.016 2.1884 3.69334 0
M  V30 3669 C 350.249 1.9444 4.9702 0
M  V30 3670 O 350.472 0.896961 5.63303 0
M  V30 3671 O 349.406 2.81093 5.32231 0
M  V30 3672 H 353.232 2.22444 2.06767 0
M  V30 3673 H 350.817 1.13795 0.968037 0
M  V30 3674 H 352.699 0.882186 4.12062 0
M  V30 3675 H 351.374 0.0773783 3.23608 0
M  V30 3676 H 350.281 2.36946 2.89495 0
M  V30 3677 H 351.614 3.10221 3.82131 0
M  V30 3678 N 353.266 -1.05314 1.17247 0
M  V30 3679 C 354.213 -2.13031 0.888058 0
M  V30 3680 C 355.183 -1.65253 -0.167537 0
M  V30 3681 O 356.368 -1.90775 -0.0305974 0
M  V30 3682 C 353.508 -3.42702 0.406147 0
M  V30 3683 C 352.621 -4.04161 1.52572 0
M  V30 3684 C 351.756 -5.21744 0.997808 0
M  V30 3685 C 350.795 -5.75207 2.09291 0
M  V30 3686 N 349.932 -6.84094 1.57986 0
M  V30 3687 H 354.772 -2.36698 1.81048 0
M  V30 3688 H 352.309 -1.16121 0.903013 0
M  V30 3689 H 354.267 -4.17059 0.108305 0
M  V30 3690 H 352.897 -3.19222 -0.479313 0
M  V30 3691 H 351.949 -3.27253 1.93931 0
M  V30 3692 H 353.261 -4.39881 2.35172 0
M  V30 3693 H 352.415 -6.03168 0.653739 0
M  V30 3694 H 351.154 -4.87495 0.141232 0
M  V30 3695 H 350.159 -4.92414 2.44557 0
M  V30 3696 H 351.384 -6.11505 2.95362 0
M  V30 3697 H 349.33 -6.51745 0.74598 0
M  V30 3698 H 349.247 -7.18811 2.34195 0
M  V30 3699 H 350.515 -7.69172 1.26468 0
M  V30 3700 N 354.744 -0.972509 -1.24016 0
M  V30 3701 C 355.674 -0.525548 -2.27509 0
M  V30 3702 C 356.655 0.437262 -1.64384 0
M  V30 3703 O 357.84 0.332343 -1.91335 0
M  V30 3704 C 354.97 0.180448 -3.46831 0
M  V30 3705 C 353.924 -0.698859 -4.22256 0
M  V30 3706 C 353.25 0.138903 -5.3452 0
M  V30 3707 C 354.55 -1.98582 -4.83076 0
M  V30 3708 H 356.244 -1.39058 -2.65148 0
M  V30 3709 H 353.79 -0.67009 -1.27459 0
M  V30 3710 H 355.743 0.504387 -4.18371 0
M  V30 3711 H 354.467 1.07987 -3.08231 0
M  V30 3712 H 353.126 -1.00614 -3.52523 0
M  V30 3713 H 352.774 1.03862 -4.9216 0
M  V30 3714 H 352.474 -0.446259 -5.85903 0
M  V30 3715 H 353.998 0.457404 -6.08884 0
M  V30 3716 H 355.412 -1.72715 -5.46665 0
M  V30 3717 H 353.809 -2.5181 -5.44713 0
M  V30 3718 H 354.879 -2.67769 -4.04262 0
M  V30 3719 N 356.222 1.38976 -0.743202 0
M  V30 3720 C 357.152 2.33171 -0.123873 0
M  V30 3721 C 358.133 1.54336 0.71516 0
M  V30 3722 O 359.318 1.82696 0.658467 0
M  V30 3723 C 356.448 3.38474 0.777978 0
M  V30 3724 C 355.402 4.27979 0.0424758 0
M  V30 3725 C 354.728 5.2405 1.06189 0
M  V30 3726 C 356.028 5.10155 -1.1198 0
M  V30 3727 H 357.722 2.85213 -0.910709 0
M  V30 3728 H 355.268 1.37133 -0.439388 0
M  V30 3729 H 357.221 4.03328 1.22084 0
M  V30 3730 H 355.945 2.84891 1.59702 0
M  V30 3731 H 354.604 3.64616 -0.380853 0
M  V30 3732 H 354.252 4.66758 1.87472 0
M  V30 3733 H 353.952 5.84785 0.574485 0
M  V30 3734 H 355.476 5.9178 1.50428 0
M  V30 3735 H 356.89 5.68307 -0.75499 0
M  V30 3736 H 355.287 5.80073 -1.53738 0
M  V30 3737 H 356.357 4.44504 -1.93764 0
M  V30 3738 N 357.7 0.491464 1.49741 0
M  V30 3739 C 359.111 0.0413169 1.86654 0
M  V30 3740 C 359.462 -1.36985 1.40462 0
M  V30 3741 O 358.587 -2.01917 0.778354 0
M  V30 3742 C 359.182 0.0682023 3.38731 0
M  V30 3743 C 357.741 -0.32656 3.74981 0
M  V30 3744 C 356.888 0.444888 2.73708 0
M  V30 3745 H 359.839 0.704733 1.42194 0
M  V30 3746 H 359.86 -0.729322 3.73445 0
M  V30 3747 H 359.372 1.09539 3.72321 0
M  V30 3748 H 357.473 -1.35734 3.46997 0
M  V30 3749 H 357.586 -0.013741 4.79098 0
M  V30 3750 H 355.95 -0.104062 2.54487 0
M  V30 3751 H 356.733 1.47197 3.10142 0
M  V30 3752 N 359.178 -1.55987 0.224894 0
M  V30 3753 C 360.426 -1.97998 -0.405099 0
M  V30 3754 C 360.747 -1.11387 -1.60056 0
M  V30 3755 O 360.017 -0.191645 -1.9496 0
M  V30 3756 H 358.597 -0.731235 -0.152658 0
M  V30 3757 H 361.259 -1.92279 0.318567 0
M  V30 3758 H 360.355 -3.03463 -0.729167 0
M  V30 3759 N 360.656 0.0484629 -1.57525 0
M  V30 3760 C 361.905 0.742065 -1.87553 0
M  V30 3761 C 362.218 1.77545 -0.820802 0
M  V30 3762 O 363.424 2.52027 -1.00967 0
M  V30 3763 C 361.88 1.37081 -3.32771 0
M  V30 3764 C 361.488 0.374786 -4.4643 0
M  V30 3765 C 363.232 2.04542 -3.71972 0
M  V30 3766 C 361.139 1.01077 -5.82698 0
M  V30 3767 H 360.069 0.280903 -0.699721 0
M  V30 3768 H 362.72 -0.00411877 -1.835 0
M  V30 3769 H 361.102 2.16605 -3.31509 0
M  V30 3770 H 362.276 -0.392331 -4.59127 0
M  V30 3771 H 360.591 -0.196653 -4.15935 0
M  V30 3772 H 363.188 2.52943 -4.71088 0
M  V30 3773 H 363.531 2.85515 -3.02964 0
M  V30 3774 H 364.064 1.31819 -3.75325 0
M  V30 3775 H 360.803 0.240878 -6.55057 0
M  V30 3776 H 360.323 1.74819 -5.73758 0
M  V30 3777 H 362.002 1.52383 -6.28799 0
M  V30 3778 N 362.134 1.5431 0.320358 0
M  V30 3779 C 363.044 1.86946 1.41734 0
M  V30 3780 C 364.06 0.761689 1.56443 0
M  V30 3781 O 365.236 1.05629 1.71477 0
M  V30 3782 C 362.301 2.09293 2.76401 0
M  V30 3783 C 361.362 3.33082 2.70841 0
M  V30 3784 C 360.595 3.54353 3.99086 0
M  V30 3785 O 360.818 2.79002 4.97508 0
M  V30 3786 O 359.752 4.47838 4.0215 0
M  V30 3787 H 363.578 2.80232 1.17062 0
M  V30 3788 H 361.163 1.40255 0.514673 0
M  V30 3789 H 363.045 2.25303 3.56113 0
M  V30 3790 H 361.72 1.19194 3.00956 0
M  V30 3791 H 360.627 3.22454 1.89668 0
M  V30 3792 H 361.96 4.23249 2.5124 0
M  V30 3793 N 363.613 -0.582584 1.46437 0
M  V30 3794 C 364.859 -1.34278 1.51978 0
M  V30 3795 C 365.192 -1.93446 0.170973 0
M  V30 3796 O 364.467 -1.76481 -0.817608 0
M  V30 3797 C 364.75 -2.47203 2.61845 0
M  V30 3798 C 364.603 -1.93069 4.06257 0
M  V30 3799 C 365.922 -3.49247 2.67795 0
M  V30 3800 H 363.041 -0.486876 0.553282 0
M  V30 3801 H 365.683 -0.654437 1.78374 0
M  V30 3802 H 363.833 -3.0592 2.39469 0
M  V30 3803 H 365.505 -1.38808 4.3992 0
M  V30 3804 H 363.748 -1.23898 4.1573 0
M  V30 3805 H 364.419 -2.74586 4.7886 0
M  V30 3806 H 366.895 -3.00411 2.8791 0
M  V30 3807 H 365.771 -4.25719 3.46489 0
M  V30 3808 H 366.032 -4.06482 1.73852 0
M  V30 3809 N 365.091 -1.34144 -0.827227 0
M  V30 3810 C 366.021 -1.28005 -1.95287 0
M  V30 3811 C 367.002 -0.158321 -1.69362 0
M  V30 3812 O 368.187 -0.349987 -1.9102 0
M  V30 3813 C 365.317 -1.03036 -3.31664 0
M  V30 3814 C 364.271 -2.11628 -3.72019 0
M  V30 3815 C 363.597 -1.71854 -5.0633 0
M  V30 3816 C 364.897 -3.53417 -3.8457 0
M  V30 3817 H 366.591 -2.22187 -2.00682 0
M  V30 3818 H 364.137 -1.0696 -0.964135 0
M  V30 3819 H 366.09 -0.973863 -4.09993 0
M  V30 3820 H 364.814 -0.0529391 -3.26557 0
M  V30 3821 H 363.473 -2.16339 -2.95961 0
M  V30 3822 H 363.121 -0.727841 -4.97706 0
M  V30 3823 H 362.821 -2.44531 -5.34302 0
M  V30 3824 H 364.345 -1.67692 -5.87122 0
M  V30 3825 H 365.759 -3.51142 -4.5318 0
M  V30 3826 H 364.156 -4.24679 -4.2399 0
M  V30 3827 H 365.226 -3.91072 -2.86689 0
M  V30 3828 N 366.569 1.04691 -1.17803 0
M  V30 3829 C 367.815 1.78181 -0.980977 0
M  V30 3830 C 368.17 1.86191 0.484825 0
M  V30 3831 O 367.463 1.35436 1.35527 0
M  V30 3832 C 367.657 3.21467 -1.56186 0
M  V30 3833 C 367.486 3.27422 -3.08261 0
M  V30 3834 C 366.256 3.36415 -3.77032 0
M  V30 3835 C 368.454 3.15947 -4.0581 0
M  V30 3836 N 366.436 3.31554 -5.16667 0
M  V30 3837 C 367.807 3.18514 -5.31929 0
M  V30 3838 C 369.862 2.99945 -3.97413 0
M  V30 3839 C 368.565 3.06723 -6.50625 0
M  V30 3840 C 370.591 2.89497 -5.15699 0
M  V30 3841 C 369.953 2.92702 -6.40706 0
M  V30 3842 H 366.052 0.6641 -0.412911 0
M  V30 3843 H 368.636 1.24762 -1.49474 0
M  V30 3844 H 366.807 3.73245 -1.07436 0
M  V30 3845 H 368.539 3.8322 -1.30093 0
M  V30 3846 H 365.294 3.41887 -3.27735 0
M  V30 3847 H 365.718 3.3258 -5.89678 0
M  V30 3848 H 370.36 2.96302 -3.01604 0
M  V30 3849 H 368.078 3.0912 -7.46639 0
M  V30 3850 H 371.664 2.78179 -5.10987 0
M  V30 3851 H 370.544 2.84697 -7.30696 0
M  V30 3852 N 368.047 0.979072 1.23499 0
M  V30 3853 C 369.275 0.665202 1.95915 0
M  V30 3854 C 369.69 -0.767571 1.72493 0
M  V30 3855 O 369.047 -1.51635 1.01554 0
M  V30 3856 C 369.098 0.944438 3.48945 0
M  V30 3857 O 368.819 2.3209 3.71572 0
M  V30 3858 C 370.32 0.646336 4.38563 0
M  V30 3859 H 367.54 0.247218 0.623798 0
M  V30 3860 H 370.084 1.31009 1.57025 0
M  V30 3861 H 368.239 0.345575 3.85856 0
M  V30 3862 H 368.653 2.40957 4.65876 0
M  V30 3863 H 370.127 0.892091 5.44744 0
M  V30 3864 H 370.604 -0.419575 4.37191 0
M  V30 3865 H 371.21 1.22562 4.07258 0
M  V30 3866 N 369.525 -1.3858 0.750561 0
M  V30 3867 C 370.773 -1.99789 0.30477 0
M  V30 3868 C 371.094 -1.59874 -1.11649 0
M  V30 3869 O 370.364 -0.85417 -1.76297 0
M  V30 3870 H 368.944 -0.738902 0.109694 0
M  V30 3871 H 371.606 -1.69391 0.963983 0
M  V30 3872 H 370.702 -3.09952 0.365499 0
M  V30 3873 N 371.003 -0.499398 -1.49478 0
M  V30 3874 C 372.414 -0.051215 -1.8663 0
M  V30 3875 C 372.765 1.36238 -1.41186 0
M  V30 3876 O 371.89 2.01502 -0.789051 0
M  V30 3877 C 372.485 -0.0861651 -3.3869 0
M  V30 3878 C 371.044 0.30667 -3.75149 0
M  V30 3879 C 370.191 -0.459397 -2.73468 0
M  V30 3880 H 373.142 -0.712264 -1.41818 0
M  V30 3881 H 373.163 0.709507 -3.73826 0
M  V30 3882 H 372.675 -1.11512 -3.71735 0
M  V30 3883 H 370.776 1.33892 -3.47712 0
M  V30 3884 H 370.889 -0.0116669 -4.79099 0
M  V30 3885 H 369.253 0.0905645 -2.54539 0
M  V30 3886 H 370.036 -1.4884 -3.09357 0
M  V30 3887 N 372.481 1.55866 -0.233164 0
M  V30 3888 C 373.428 2.20796 0.67215 0
M  V30 3889 C 374.398 1.16731 1.18166 0
M  V30 3890 O 375.583 1.45129 1.23864 0
M  V30 3891 C 372.723 2.90072 1.86955 0
M  V30 3892 C 371.836 4.08759 1.39786 0
M  V30 3893 C 370.971 4.65787 2.55374 0
M  V30 3894 C 370.01 5.76752 2.04998 0
M  V30 3895 N 369.147 6.28021 3.13901 0
M  V30 3896 H 373.987 2.9779 0.111749 0
M  V30 3897 H 371.524 1.47036 0.0434007 0
M  V30 3898 H 373.482 3.28428 2.57276 0
M  V30 3899 H 372.112 2.15575 2.40265 0
M  V30 3900 H 371.164 3.7581 0.589173 0
M  V30 3901 H 372.476 4.88906 0.98856 0
M  V30 3902 H 371.63 5.06646 3.33758 0
M  V30 3903 H 370.369 3.84828 2.99598 0
M  V30 3904 H 369.374 5.35383 1.25079 0
M  V30 3905 H 370.599 6.59553 1.61759 0
M  V30 3906 H 368.545 5.49971 3.57586 0
M  V30 3907 H 368.462 7.03323 2.7726 0
M  V30 3908 H 369.73 6.73538 3.92386 0
M  V30 3909 N 373.959 -0.0401083 1.57549 0
M  V30 3910 C 375.205 -0.734211 1.89043 0
M  V30 3911 C 375.538 -1.75591 0.829535 0
M  V30 3912 O 374.813 -1.93868 -0.156706 0
M  V30 3913 C 375.096 -1.41374 3.31188 0
M  V30 3914 C 374.949 -0.406299 4.47961 0
M  V30 3915 C 376.268 -2.35061 3.72068 0
M  V30 3916 H 373.387 -0.265447 0.687537 0
M  V30 3917 H 376.029 0.00294087 1.9 0
M  V30 3918 H 374.179 -2.04206 3.30503 0
M  V30 3919 H 375.851 0.219255 4.60779 0
M  V30 3920 H 374.094 0.275485 4.32924 0
M  V30 3921 H 374.765 -0.920022 5.44279 0
M  V30 3922 H 377.241 -1.82282 3.74049 0
M  V30 3923 H 376.117 -2.79593 4.72355 0
M  V30 3924 H 376.378 -3.21258 3.0372 0
M  V30 3925 N 375.437 -1.54477 -0.31217 0
M  V30 3926 C 376.683 -1.73483 -1.0503 0
M  V30 3927 C 377.016 -0.513125 -1.87298 0
M  V30 3928 O 376.291 0.489864 -1.8823 0
M  V30 3929 C 376.574 -3.01723 -1.96558 0
M  V30 3930 C 376.427 -4.3417 -1.17545 0
M  V30 3931 C 377.746 -3.25772 -2.95907 0
M  V30 3932 H 374.865 -0.631222 -0.380432 0
M  V30 3933 H 377.507 -1.87184 -0.325932 0
M  V30 3934 H 375.657 -2.90174 -2.58324 0
M  V30 3935 H 377.329 -4.5762 -0.581513 0
M  V30 3936 H 375.572 -4.31159 -0.477925 0
M  V30 3937 H 376.243 -5.20143 -1.84811 0
M  V30 3938 H 378.719 -3.36857 -2.44267 0
M  V30 3939 H 377.595 -4.16838 -3.57123 0
M  V30 3940 H 377.856 -2.43537 -3.68974 0
M  V30 3941 N 376.915 0.57481 -1.46744 0
M  V30 3942 C 378.14 1.36341 -1.56288 0
M  V30 3943 C 378.565 1.86954 -0.207347 0
M  V30 3944 O 377.923 1.62006 0.813871 0
M  V30 3945 C 377.971 2.52147 -2.57787 0
M  V30 3946 O 377.075 3.53834 -2.11838 0
M  V30 3947 H 376.416 0.405713 -0.525636 0
M  V30 3948 H 378.946 0.696453 -1.92382 0
M  V30 3949 H 378.956 2.98958 -2.77648 0
M  V30 3950 H 377.631 2.14663 -3.5622 0
M  V30 3951 H 376.208 3.1345 -2.01999 0
M  V30 3952 N 378.394 1.34581 0.820102 0
M  V30 3953 C 379.341 1.2639 1.93117 0
M  V30 3954 C 380.311 0.138554 1.65521 0
M  V30 3955 O 381.496 0.320004 1.88097 0
M  V30 3956 C 378.636 1.02812 3.29429 0
M  V30 3957 C 377.749 2.24146 3.693 0
M  V30 3958 C 376.884 1.93829 4.94574 0
M  V30 3959 C 375.923 3.1129 5.27034 0
M  V30 3960 N 375.06 2.80838 6.43486 0
M  V30 3961 H 379.9 2.21408 1.99455 0
M  V30 3962 H 377.437 1.10077 0.975784 0
M  V30 3963 H 379.395 0.871788 4.0799 0
M  V30 3964 H 378.025 0.114612 3.22596 0
M  V30 3965 H 377.077 2.50691 2.86109 0
M  V30 3966 H 378.389 3.11899 3.89257 0
M  V30 3967 H 377.543 1.74948 5.80929 0
M  V30 3968 H 376.282 1.03341 4.76626 0
M  V30 3969 H 375.287 3.30764 4.39175 0
M  V30 3970 H 376.512 4.02561 5.4692 0
M  V30 3971 H 374.458 1.92929 6.26988 0
M  V30 3972 H 374.375 3.62123 6.63629 0
M  V30 3973 H 375.643 2.65467 7.32903 0
M  V30 3974 N 379.872 -1.04064 1.18357 0
M  V30 3975 C 380.782 -2.15569 0.925596 0
M  V30 3976 C 381.798 -1.7365 -0.110295 0
M  V30 3977 O 382.974 -2.01273 0.0716218 0
M  V30 3978 C 380.039 -3.43704 0.454836 0
M  V30 3979 C 379.1 -4.00004 1.55869 0
M  V30 3980 C 378.333 -5.22023 1.1103 0
M  V30 3981 O 378.556 -5.70392 -0.0309756 0
M  V30 3982 O 377.49 -5.70856 1.90805 0
M  V30 3983 H 381.316 -2.40187 1.8586 0
M  V30 3984 H 378.901 -1.1402 0.965394 0
M  V30 3985 H 380.783 -4.20923 0.200382 0
M  V30 3986 H 379.458 -3.20559 -0.449876 0
M  V30 3987 H 378.365 -3.24172 1.86716 0
M  V30 3988 H 379.698 -4.2749 2.43953 0
M  V30 3989 N 381.35 -0.985608 -1.22978 0
M  V30 3990 C 382.599 -0.652881 -1.90841 0
M  V30 3991 C 382.912 0.817842 -1.77681 0
M  V30 3992 O 384.118 1.26185 -2.40395 0
M  V30 3993 C 382.574 -1.11717 -3.42122 0
M  V30 3994 C 382.182 -2.6126 -3.63933 0
M  V30 3995 C 383.926 -0.85843 -4.1573 0
M  V30 3996 C 381.833 -3.0133 -5.08876 0
M  V30 3997 H 380.763 -0.240491 -0.714619 0
M  V30 3998 H 383.414 -1.1942 -1.39324 0
M  V30 3999 H 381.796 -0.504027 -3.92779 0
M  V30 4000 H 382.97 -3.27858 -3.23799 0
M  V30 4001 H 381.285 -2.84937 -3.03644 0
M  V30 4002 H 383.882 -1.13359 -5.22546 0
M  V30 4003 H 384.225 0.205461 -4.15793 0
M  V30 4004 H 384.758 -1.43341 -3.71077 0
M  V30 4005 H 381.497 -4.06864 -5.13947 0
M  V30 4006 H 381.017 -2.3943 -5.49939 0
M  V30 4007 H 382.696 -2.92224 -5.77247 0
M  V30 4008 N 382.828 1.3818 -0.7579 0
M  V30 4009 C 384.239 1.82726 -0.383134 0
M  V30 4010 C 384.59 1.63214 1.08884 0
M  V30 4011 O 383.715 1.13566 1.84205 0
M  V30 4012 C 384.31 3.31728 -0.688631 0
M  V30 4013 C 382.869 3.74606 -0.367091 0
M  V30 4014 C 382.016 2.60896 -0.939599 0
M  V30 4015 H 384.967 1.26847 -0.953699 0
M  V30 4016 H 384.988 3.80487 0.0316492 0
M  V30 4017 H 384.5 3.45898 -1.76001 0
M  V30 4018 H 382.601 3.66013 0.697532 0
M  V30 4019 H 382.714 4.71215 -0.865658 0
M  V30 4020 H 381.078 2.52075 -0.3647 0
M  V30 4021 H 381.861 2.77864 -2.0161 0
M  V30 4022 N 384.306 0.507319 1.49211 0
M  V30 4023 C 385.552 -0.0350047 2.0277 0
M  V30 4024 C 385.885 -1.3606 1.38569 0
M  V30 4025 O 385.16 -1.87321 0.523542 0
M  V30 4026 C 385.443 -0.180916 3.59645 0
M  V30 4027 C 385.296 1.16825 4.34364 0
M  V30 4028 C 386.615 -0.918558 4.30407 0
M  V30 4029 H 383.734 -0.0112473 0.736914 0
M  V30 4030 H 386.376 0.659956 1.7817 0
M  V30 4031 H 384.526 -0.772826 3.80736 0
M  V30 4032 H 386.198 1.79952 4.24753 0
M  V30 4033 H 384.441 1.75594 3.96673 0
M  V30 4034 H 385.112 1.01939 5.42506 0
M  V30 4035 H 387.588 -0.41649 4.1401 0
M  V30 4036 H 386.464 -0.989505 5.39907 0
M  V30 4037 H 386.725 -1.96373 3.96093 0
M  V30 4038 N 385.784 -1.5574 0.241426 0
M  V30 4039 C 386.694 -2.2479 -0.671305 0
M  V30 4040 C 387.71 -1.26217 -1.19772 0
M  V30 4041 O 388.886 -1.59079 -1.23514 0
M  V30 4042 C 385.951 -2.92966 -1.85396 0
M  V30 4043 C 385.012 -4.06935 -1.36756 0
M  V30 4044 C 384.245 -4.71851 -2.49384 0
M  V30 4045 O 384.468 -4.35823 -3.67987 0
M  V30 4046 O 383.402 -5.60467 -2.19454 0
M  V30 4047 H 387.228 -3.0349 -0.112966 0
M  V30 4048 H 384.813 -1.49397 0.0101513 0
M  V30 4049 H 386.695 -3.35927 -2.54423 0
M  V30 4050 H 385.37 -2.17211 -2.40002 0
M  V30 4051 H 384.277 -3.68503 -0.644726 0
M  V30 4052 H 385.61 -4.84492 -0.867647 0
M  V30 4053 N 387.262 0.0317525 -1.57568 0
M  V30 4054 C 388.487 0.738664 -1.938 0
M  V30 4055 C 388.912 1.68242 -0.841208 0
M  V30 4056 O 388.27 1.80157 0.203267 0
M  V30 4057 C 388.318 1.47417 -3.29091 0
M  V30 4058 O 387.422 2.5872 -3.2115 0
M  V30 4059 H 386.763 0.198856 -0.633524 0
M  V30 4060 H 389.293 -0.0119713 -2.04596 0
M  V30 4061 H 389.303 1.84468 -3.63917 0
M  V30 4062 H 387.978 0.781988 -4.08482 0
M  V30 4063 H 386.555 2.24231 -2.97951 0
M  V30 4064 N 388.74 1.54641 0.303973 0
M  V30 4065 C 389.989 1.7299 1.03717 0
M  V30 4066 C 390.302 0.521168 1.88529 0
M  V30 4067 O 391.508 0.586408 2.65092 0
M  V30 4068 C 389.964 3.06051 1.89369 0
M  V30 4069 C 389.572 4.34393 1.09574 0
M  V30 4070 C 391.316 3.3376 2.62306 0
M  V30 4071 C 389.223 5.58506 1.94486 0
M  V30 4072 H 388.153 0.64473 0.390947 0
M  V30 4073 H 390.804 1.81124 0.294328 0
M  V30 4074 H 389.186 2.91874 2.67629 0
M  V30 4075 H 390.36 4.59396 0.359485 0
M  V30 4076 H 388.675 4.13597 0.482324 0
M  V30 4077 H 391.272 4.23687 3.26181 0
M  V30 4078 H 391.615 2.52503 3.3098 0
M  V30 4079 H 392.148 3.48894 1.91097 0
M  V30 4080 H 388.887 6.42422 1.30287 0
M  V30 4081 H 388.407 5.37694 2.65792 0
M  V30 4082 H 390.086 5.95651 2.52605 0
M  V30 4083 N 390.218 -0.567019 1.47046 0
M  V30 4084 C 391.128 -1.70247 1.6141 0
M  V30 4085 C 392.144 -1.66746 0.497157 0
M  V30 4086 O 393.32 -1.86371 0.763389 0
M  V30 4087 C 390.385 -3.06756 1.61561 0
M  V30 4088 C 389.446 -3.21399 2.84607 0
M  V30 4089 C 388.679 -4.51396 2.84741 0
M  V30 4090 O 388.902 -5.36255 1.94388 0
M  V30 4091 O 387.836 -4.69621 3.76483 0
M  V30 4092 H 391.662 -1.61073 2.57467 0
M  V30 4093 H 389.247 -0.735894 1.30019 0
M  V30 4094 H 391.129 -3.8801 1.64396 0
M  V30 4095 H 389.804 -3.16333 0.686684 0
M  V30 4096 H 388.711 -2.39579 2.8732 0
M  V30 4097 H 390.044 -3.16721 3.76761 0
M  V30 4098 N 391.696 -1.35014 -0.812953 0
M  V30 4099 C 392.606 -1.2951 -1.95613 0
M  V30 4100 C 393.622 -0.20107 -1.72834 0
M  V30 4101 O 394.798 -0.42932 -1.96771 0
M  V30 4102 C 391.863 -1.06033 -3.30088 0
M  V30 4103 C 390.924 -2.24688 -3.65805 0
M  V30 4104 C 390.157 -2.02322 -4.93864 0
M  V30 4105 O 390.38 -0.986464 -5.61805 0
M  V30 4106 O 389.314 -2.89525 -5.27692 0
M  V30 4107 H 393.14 -2.25705 -2.03202 0
M  V30 4108 H 390.725 -1.15321 -0.949811 0
M  V30 4109 H 392.607 -0.94763 -4.10607 0
M  V30 4110 H 391.282 -0.128852 -3.23443 0
M  V30 4111 H 390.189 -2.41521 -2.85689 0
M  V30 4112 H 391.522 -3.16261 -3.77147 0
M  V30 4113 N 393.175 1.03435 -1.18907 0
M  V30 4114 C 394.421 1.77005 -0.989798 0
M  V30 4115 C 394.754 1.88205 0.478816 0
M  V30 4116 O 394.029 1.39481 1.35556 0
M  V30 4117 C 394.312 3.19925 -1.65287 0
M  V30 4118 C 394.165 3.1663 -3.19477 0
M  V30 4119 C 395.484 4.18189 -1.37134 0
M  V30 4120 H 392.603 0.642538 -0.360991 0
M  V30 4121 H 395.245 1.20784 -1.46667 0
M  V30 4122 H 393.395 3.67929 -1.24741 0
M  V30 4123 H 395.067 2.76567 -3.692 0
M  V30 4124 H 393.31 2.54491 -3.51307 0
M  V30 4125 H 393.981 4.1758 -3.61013 0
M  V30 4126 H 396.457 3.78761 -1.72276 0
M  V30 4127 H 395.333 5.16394 -1.86087 0
M  V30 4128 H 395.594 4.41112 -0.295424 0
M  V30 4129 N 394.653 0.992116 1.22453 0
M  V30 4130 C 395.878 0.685644 1.95739 0
M  V30 4131 C 396.303 -0.743 1.72804 0
M  V30 4132 O 395.661 -1.50778 1.00676 0
M  V30 4133 C 395.709 0.996293 3.46564 0
M  V30 4134 O 394.813 0.0945512 4.12292 0
M  V30 4135 H 394.154 0.256694 0.612376 0
M  V30 4136 H 396.684 1.32888 1.5557 0
M  V30 4137 H 396.694 0.93781 3.97076 0
M  V30 4138 H 395.369 2.03733 3.62582 0
M  V30 4139 H 393.946 0.208451 3.72317 0
M  V30 4140 N 396.131 -1.37776 0.765217 0
M  V30 4141 C 397.078 -2.30342 0.145274 0
M  V30 4142 C 398.048 -1.5077 -0.696971 0
M  V30 4143 O 399.233 -1.79362 -0.650689 0
M  V30 4144 C 396.373 -3.37227 -0.732939 0
M  V30 4145 C 395.486 -4.31819 0.125199 0
M  V30 4146 C 394.621 -5.25777 -0.757107 0
M  V30 4147 C 393.66 -6.12012 0.103963 0
M  V30 4148 N 392.797 -6.98232 -0.735953 0
M  V30 4149 H 397.637 -2.8278 0.940195 0
M  V30 4150 H 395.174 -1.39211 0.475255 0
M  V30 4151 H 397.132 -3.97818 -1.25686 0
M  V30 4152 H 395.762 -2.86171 -1.49353 0
M  V30 4153 H 394.814 -3.7259 0.766865 0
M  V30 4154 H 396.126 -4.92509 0.789683 0
M  V30 4155 H 395.28 -5.91541 -1.34776 0
M  V30 4156 H 394.019 -4.65481 -1.45529 0
M  V30 4157 H 393.024 -5.45233 0.707197 0
M  V30 4158 H 394.249 -6.74379 0.799381 0
M  V30 4159 H 392.195 -6.40472 -1.41887 0
M  V30 4160 H 392.112 -7.55891 -0.128624 0
M  V30 4161 H 393.38 -7.68393 -1.31121 0
M  V30 4162 N 397.609 -0.515225 -1.4894 0
M  V30 4163 C 398.858 0.0261361 -2.01683 0
M  V30 4164 C 399.171 1.36719 -1.39883 0
M  V30 4165 O 400.377 1.99606 -1.84037 0
M  V30 4166 C 398.833 0.0970111 -3.59769 0
M  V30 4167 C 398.441 -1.23825 -4.30548 0
M  V30 4168 C 400.185 0.587981 -4.20408 0
M  V30 4169 C 398.092 -1.12877 -5.80528 0
M  V30 4170 H 397.022 0.0135398 -0.753878 0
M  V30 4171 H 399.673 -0.656787 -1.71343 0
M  V30 4172 H 398.055 0.844694 -3.86886 0
M  V30 4173 H 399.229 -2.00034 -4.15118 0
M  V30 4174 H 397.544 -1.66379 -3.81716 0
M  V30 4175 H 400.141 0.68763 -5.3026 0
M  V30 4176 H 400.484 1.59026 -3.84729 0
M  V30 4177 H 401.017 -0.103582 -3.97665 0
M  V30 4178 H 397.756 -2.10575 -6.20756 0
M  V30 4179 H 397.276 -0.407799 -5.98412 0
M  V30 4180 H 398.955 -0.813332 -6.41868 0
M  V30 4181 N 399.087 1.5561 -0.249682 0
M  V30 4182 C 400.336 1.98187 0.37479 0
M  V30 4183 C 400.649 1.14111 1.58865 0
M  V30 4184 O 401.855 1.46714 2.28445 0
M  V30 4185 C 400.311 3.52661 0.718192 0
M  V30 4186 C 399.919 4.45481 -0.474428 0
M  V30 4187 C 401.663 4.03888 1.3067 0
M  V30 4188 C 399.57 5.91303 -0.107026 0
M  V30 4189 H 398.5 0.740159 0.143808 0
M  V30 4190 H 401.151 1.80125 -0.350336 0
M  V30 4191 H 399.533 3.66429 1.50152 0
M  V30 4192 H 400.707 4.43473 -1.25172 0
M  V30 4193 H 399.022 4.04751 -0.978052 0
M  V30 4194 H 401.619 5.10358 1.59496 0
M  V30 4195 H 401.962 3.51401 2.23211 0
M  V30 4196 H 402.495 3.93457 0.586211 0
M  V30 4197 H 399.234 6.47833 -0.999642 0
M  V30 4198 H 398.754 5.9644 0.634013 0
M  V30 4199 H 400.433 6.46258 0.309807 0
M  V30 4200 N 400.565 -0.0233959 1.57583 0
M  V30 4201 C 401.512 -1.02224 2.06927 0
M  V30 4202 C 402.482 -1.35575 0.959617 0
M  V30 4203 O 403.667 -1.45815 1.23055 0
M  V30 4204 C 400.807 -2.31636 2.5581 0
M  V30 4205 C 399.92 -2.04394 3.80588 0
M  V30 4206 C 399.055 -3.27717 4.18061 0
M  V30 4207 C 398.094 -2.96056 5.3574 0
M  V30 4208 N 397.231 -4.11847 5.68618 0
M  V30 4209 H 402.071 -0.594504 2.9201 0
M  V30 4210 H 399.608 -0.281921 1.44373 0
M  V30 4211 H 401.566 -3.07258 2.82221 0
M  V30 4212 H 400.196 -2.72122 1.73636 0
M  V30 4213 H 399.248 -1.19244 3.61227 0
M  V30 4214 H 400.56 -1.77042 4.66323 0
M  V30 4215 H 399.714 -4.11702 4.4563 0
M  V30 4216 H 398.453 -3.58188 3.30988 0
M  V30 4217 H 397.458 -2.10474 5.07918 0
M  V30 4218 H 398.683 -2.66857 6.24471 0
M  V30 4219 H 396.629 -4.42258 4.84504 0
M  V30 4220 H 396.546 -3.87938 6.48876 0
M  V30 4221 H 397.814 -4.96689 6.00766 0
M  V30 4222 N 402.043 -1.548 -0.295768 0
M  V30 4223 C 403.459 -1.4613 -0.641722 0
M  V30 4224 C 403.659 -0.656771 -1.90496 0
M  V30 4225 O 402.715 -0.166547 -2.5195 0
M  V30 4226 C 404.028 -2.90141 -0.789852 0
M  V30 4227 C 405.576 -3.00216 -0.885396 0
M  V30 4228 C 406.051 -4.45434 -1.06548 0
M  V30 4229 N 407.542 -4.49166 -1.13156 0
M  V30 4230 C 408.277 -5.58717 -1.28929 0
M  V30 4231 N 407.773 -6.78182 -1.41567 0
M  V30 4232 N 409.566 -5.46415 -1.31859 0
M  V30 4233 H 401.717 -2.05574 0.534147 0
M  V30 4234 H 403.98 -0.931259 0.177372 0
M  V30 4235 H 403.686 -3.51635 0.0675598 0
M  V30 4236 H 403.56 -3.37859 -1.67724 0
M  V30 4237 H 405.947 -2.38833 -1.73329 0
M  V30 4238 H 406.028 -2.55787 0.0261185 0
M  V30 4239 H 405.672 -5.07413 -0.222335 0
M  V30 4240 H 405.602 -4.87499 -1.9913 0
M  V30 4241 H 408.093 -3.631 -1.04721 0
M  V30 4242 H 408.406 -7.57428 -1.53372 0
M  V30 4243 H 406.751 -6.81037 -1.38613 0
M  V30 4244 H 409.942 -4.5203 -1.21601 0
M  V30 4245 H 410.115 -6.31841 -1.43808 0
M  V30 4246 N 403.521 0.559213 -1.47345 0
M  V30 4247 C 404.484 1.64854 -1.59235 0
M  V30 4248 C 405.484 1.53851 -0.467607 0
M  V30 4249 O 406.674 1.58045 -0.732617 0
M  V30 4250 C 403.806 3.04388 -1.53496 0
M  V30 4251 H 404.999 1.55662 -2.56339 0
M  V30 4252 H 402.552 0.778973 -1.35505 0
M  V30 4253 H 403.287 3.19115 -0.577604 0
M  V30 4254 H 403.072 3.13783 -2.35123 0
M  V30 4255 H 404.562 3.83642 -1.6495 0
M  V30 4256 N 404.999 1.35443 0.805782 0
M  V30 4257 C 406.41 1.25768 1.37983 0
M  V30 4258 C 406.761 -0.10958 1.95894 0
M  V30 4259 O 405.886 -1.01056 1.91355 0
M  V30 4260 C 406.481 2.27727 2.5085 0
M  V30 4261 C 405.04 2.2179 3.04115 0
M  V30 4262 C 404.187 2.13393 1.77084 0
M  V30 4263 H 407.138 1.4656 0.608752 0
M  V30 4264 H 407.159 1.90422 3.29424 0
M  V30 4265 H 406.671 3.27227 2.08671 0
M  V30 4266 H 404.772 1.25703 3.50756 0
M  V30 4267 H 404.885 3.13788 3.62042 0
M  V30 4268 H 403.249 1.59384 1.98668 0
M  V30 4269 H 404.032 3.14755 1.37056 0
M  V30 4270 N 406.477 -1.02803 1.19454 0
M  V30 4271 C 407.723 -1.76478 0.999171 0
M  V30 4272 C 408.056 -1.88456 -0.468828 0
M  V30 4273 O 407.331 -1.40198 -1.34814 0
M  V30 4274 C 407.614 -3.19044 1.66981 0
M  V30 4275 C 407.467 -3.14932 3.21151 0
M  V30 4276 C 408.786 -4.17456 1.39349 0
M  V30 4277 H 405.905 -0.640614 0.364393 0
M  V30 4278 H 408.547 -1.20005 1.47305 0
M  V30 4279 H 406.697 -3.67263 1.2669 0
M  V30 4280 H 408.369 -2.74605 3.70661 0
M  V30 4281 H 406.612 -2.52625 3.52652 0
M  V30 4282 H 407.283 -4.1566 3.63223 0
M  V30 4283 H 409.759 -3.77842 1.74283 0
M  V30 4284 H 408.635 -5.154 1.88823 0
M  V30 4285 H 408.896 -4.40949 0.318813 0
M  V30 4286 N 407.956 -0.998596 -1.21925 0
M  V30 4287 C 409.205 -0.673085 -1.90138 0
M  V30 4288 C 409.518 0.79895 -1.78539 0
M  V30 4289 O 410.724 1.23628 -2.4172 0
M  V30 4290 C 409.18 -1.15339 -3.40918 0
M  V30 4291 C 408.788 -2.65106 -3.61141 0
M  V30 4292 C 410.532 -0.902476 -4.14796 0
M  V30 4293 C 408.439 -3.0671 -5.05651 0
M  V30 4294 H 407.369 -0.248057 -0.712028 0
M  V30 4295 H 410.02 -1.20891 -1.38049 0
M  V30 4296 H 408.402 -0.545658 -3.92223 0
M  V30 4297 H 409.576 -3.31274 -3.20304 0
M  V30 4298 H 407.891 -2.88142 -3.00605 0
M  V30 4299 H 410.488 -1.18895 -5.21314 0
M  V30 4300 H 410.831 0.161349 -4.15987 0
M  V30 4301 H 411.364 -1.47269 -3.69536 0
M  V30 4302 H 408.103 -4.12292 -5.09603 0
M  V30 4303 H 407.623 -2.45249 -5.47369 0
M  V30 4304 H 409.302 -2.9833 -5.74115 0
M  V30 4305 N 409.434 1.37368 -0.772513 0
M  V30 4306 C 410.68 2.00423 -0.3467 0
M  V30 4307 C 411.035 1.60224 1.06518 0
M  V30 4308 O 410.328 0.838712 1.72268 0
M  V30 4309 C 410.522 3.54817 -0.428876 0
M  V30 4310 C 410.351 4.10011 -1.84719 0
M  V30 4311 C 409.121 4.40927 -2.46803 0
M  V30 4312 C 411.319 4.30955 -2.80681 0
M  V30 4313 N 409.301 4.8184 -3.80399 0
M  V30 4314 C 410.672 4.74486 -3.99078 0
M  V30 4315 C 412.727 4.1309 -2.77958 0
M  V30 4316 C 411.43 5.02023 -5.15136 0
M  V30 4317 C 413.456 4.41764 -3.9319 0
M  V30 4318 C 412.818 4.85535 -5.10328 0
M  V30 4319 H 408.917 0.762413 -0.173927 0
M  V30 4320 H 411.501 1.66666 -1.00651 0
M  V30 4321 H 409.672 3.87881 0.200757 0
M  V30 4322 H 411.404 4.04696 0.0190668 0
M  V30 4323 H 408.159 4.30033 -1.98415 0
M  V30 4324 H 408.583 5.06604 -4.49089 0
M  V30 4325 H 413.225 3.7842 -1.88568 0
M  V30 4326 H 410.943 5.35582 -6.05126 0
M  V30 4327 H 414.529 4.29528 -3.92425 0
M  V30 4328 H 413.409 5.07296 -5.98013 0
M  V30 4329 N 410.912 0.523116 1.48665 0
M  V30 4330 C 412.189 -0.0775449 1.95446 0
M  V30 4331 C 412.569 -1.5197 1.4652 0
M  V30 4332 O 411.917 -2.17876 0.688657 0
M  V30 4333 C 412.127 0.0326135 3.48985 0
M  V30 4334 C 413.475 -0.130141 4.24401 0
M  V30 4335 O 414.499 -0.0415142 3.56176 0
M  V30 4336 O 413.358 -0.31491 5.45592 0
M  V30 4337 H 410.452 -0.0831012 0.822814 0
M  V30 4338 H 412.998 0.587227 1.59216 0
M  V30 4339 H 411.77 1.03748 3.77296 0
M  V30 4340 H 411.393 -0.671317 3.91892 0
M  V30 4341 N 412.39 -1.55475 0.257931 0
M  V30 4342 C 413.338 -2.23244 -0.653076 0
M  V30 4343 C 414.332 -1.22366 -1.17144 0
M  V30 4344 O 415.538 -1.40347 -1.12706 0
M  V30 4345 H 411.913 -0.716247 -0.229117 0
M  V30 4346 H 413.884 -2.98343 -0.0584788 0
M  V30 4347 C 412.633 -2.95401 -1.83395 0
M  V30 4348 H 411.956 -3.72802 -1.44424 0
M  V30 4349 H 413.396 -3.46165 -2.44838 0
M  V30 4350 C 411.855 -1.99895 -2.71189 0
M  V30 4351 O 412.385 -1.53909 -3.71046 0
M  V30 4352 N 410.591 -1.6676 -2.3799 0
M  V30 4353 H 410.138 -2.04352 -1.56837 0
M  V30 4354 H 410.096 -1.03127 -2.97005 0
M  V30 4355 N 413.868 0.0150385 -1.57593 0
M  V30 4356 C 415.117 0.702115 -1.89085 0
M  V30 4357 C 415.43 1.75764 -0.858277 0
M  V30 4358 O 416.636 2.49829 -1.0629 0
M  V30 4359 C 415.092 1.29992 -3.35604 0
M  V30 4360 C 414.7 0.280007 -4.47124 0
M  V30 4361 C 416.444 1.96606 -3.76227 0
M  V30 4362 C 414.351 0.886949 -5.84711 0
M  V30 4363 H 413.281 0.265997 -0.705522 0
M  V30 4364 H 415.932 -0.0430408 -1.8345 0
M  V30 4365 H 414.314 2.09525 -3.36029 0
M  V30 4366 H 415.488 -0.489631 -4.58191 0
M  V30 4367 H 413.803 -0.284835 -4.15425 0
M  V30 4368 H 416.4 2.42893 -4.76347 0
M  V30 4369 H 416.743 2.79024 -3.08952 0
M  V30 4370 H 417.276 1.23828 -3.78036 0
M  V30 4371 H 414.015 0.101876 -6.55421 0
M  V30 4372 H 413.535 1.6261 -5.77337 0
M  V30 4373 H 415.214 1.39011 -6.3189 0
M  V30 4374 N 415.346 1.54954 0.287554 0
M  V30 4375 C 416.296 1.8322 1.357 0
M  V30 4376 C 417.28 0.690152 1.45347 0
M  V30 4377 O 418.472 0.951137 1.49273 0
M  V30 4378 C 415.601 2.09481 2.71979 0
M  V30 4379 C 414.687 3.29906 2.66502 0
M  V30 4380 N 415.078 4.50154 2.30641 0
M  V30 4381 C 413.376 3.32203 2.97585 0
M  V30 4382 C 414.077 5.32209 2.34794 0
M  V30 4383 N 413.053 4.70258 2.72688 0
M  V30 4384 H 416.855 2.73746 1.0696 0
M  V30 4385 H 414.369 1.54635 0.496167 0
M  V30 4386 H 416.366 2.27882 3.49107 0
M  V30 4387 H 415.026 1.2023 3.0162 0
M  V30 4388 H 416.037 4.76515 2.02865 0
M  V30 4389 H 412.714 2.53101 3.32034 0
M  V30 4390 H 414.104 6.38321 2.09753 0
M  V30 4391 N 416.824 -0.551391 1.4764 0
M  V30 4392 C 417.787 -1.64007 1.60107 0
M  V30 4393 C 418.787 -1.53601 0.47576 0
M  V30 4394 O 419.977 -1.57655 0.740988 0
M  V30 4395 C 417.109 -3.03569 1.55108 0
M  V30 4396 H 418.302 -1.543 2.57161 0
M  V30 4397 H 415.855 -0.771776 1.35917 0
M  V30 4398 H 416.59 -3.18804 0.594519 0
M  V30 4399 H 416.375 -3.12532 2.36783 0
M  V30 4400 H 417.865 -3.82762 1.66982 0
M  V30 4401 N 418.302 -1.35869 -0.798587 0
M  V30 4402 C 419.25 -1.29491 -1.93222 0
M  V30 4403 C 420.244 -0.18836 -1.6835 0
M  V30 4404 O 421.45 -0.354822 -1.76468 0
M  V30 4405 H 417.825 -0.402901 -0.63496 0
M  V30 4406 H 419.796 -2.25247 -1.9572 0
M  V30 4407 C 418.545 -1.09184 -3.30112 0
M  V30 4408 H 417.868 -1.93574 -3.49813 0
M  V30 4409 H 419.308 -1.08766 -4.09812 0
M  V30 4410 C 417.767 0.203959 -3.36282 0
M  V30 4411 O 418.297 1.19699 -3.83451 0
M  V30 4412 N 416.503 0.245488 -2.89561 0
M  V30 4413 H 416.05 -0.563223 -2.51367 0
M  V30 4414 H 416.008 1.11219 -2.94071 0
M  V30 4415 N 419.78 1.02168 -1.19998 0
M  V30 4416 C 421.057 1.72816 -0.916191 0
M  V30 4417 C 421.437 2.03081 0.576325 0
M  V30 4418 O 420.785 1.69122 1.53656 0
M  V30 4419 C 420.995 2.9997 -1.78378 0
M  V30 4420 C 422.343 3.73336 -2.02251 0
M  V30 4421 O 423.367 3.09914 -1.75589 0
M  V30 4422 O 422.226 4.87371 -2.47249 0
M  V30 4423 H 419.32 0.752924 -0.342103 0
M  V30 4424 H 421.866 1.08062 -1.30846 0
M  V30 4425 H 420.638 2.73888 -2.79466 0
M  V30 4426 H 420.261 3.72464 -1.39126 0
M  V30 4427 N 421.258 1.00505 1.21394 0
M  V30 4428 C 422.488 0.705584 1.94178 0
M  V30 4429 C 422.896 -0.735846 1.74304 0
M  V30 4430 O 422.239 -1.50954 1.04683 0
M  V30 4431 C 422.301 0.94689 3.46806 0
M  V30 4432 C 421.965 2.37517 3.90429 0
M  V30 4433 C 422.962 3.35539 3.97127 0
M  V30 4434 C 420.647 2.71284 4.22742 0
M  V30 4435 C 422.641 4.65395 4.3553 0
M  V30 4436 C 420.328 4.01356 4.60822 0
M  V30 4437 C 421.326 4.98223 4.67186 0
M  V30 4438 O 421.014 6.25969 5.04399 0
M  V30 4439 H 420.746 0.259216 0.624326 0
M  V30 4440 H 423.3 1.34592 1.55159 0
M  V30 4441 H 421.53 0.249386 3.85895 0
M  V30 4442 H 423.219 0.640804 4.0081 0
M  V30 4443 H 423.985 3.10786 3.7234 0
M  V30 4444 H 419.864 1.96581 4.16985 0
M  V30 4445 H 423.408 5.41002 4.40412 0
M  V30 4446 H 419.305 4.25893 4.85063 0
M  V30 4447 H 420.073 6.30085 5.22431 0
M  V30 4448 N 422.737 -1.36956 0.779787 0
M  V30 4449 C 424.014 -1.93697 0.272156 0
M  V30 4450 C 424.394 -1.71267 -1.23413 0
M  V30 4451 O 423.742 -1.06607 -2.02107 0
M  V30 4452 C 423.952 -3.42812 0.654291 0
M  V30 4453 C 425.3 -4.19921 0.628602 0
M  V30 4454 O 426.324 -3.51209 0.594172 0
M  V30 4455 O 425.183 -5.42465 0.662864 0
M  V30 4456 H 422.277 -0.824447 0.0649286 0
M  V30 4457 H 424.823 -1.46196 0.861682 0
M  V30 4458 H 423.595 -3.52754 1.69353 0
M  V30 4459 H 423.218 -3.97582 0.0381369 0
M  V30 4460 N 424.215 -0.530993 -1.48385 0
M  V30 4461 C 425.147 0.268353 -2.27624 0
M  V30 4462 C 426.16 0.903525 -1.35426 0
M  V30 4463 O 427.349 0.781796 -1.60469 0
M  V30 4464 C 424.449 1.39535 -3.08842 0
M  V30 4465 C 423.622 0.861913 -4.28824 0
M  V30 4466 C 422.681 1.87016 -4.91845 0
M  V30 4467 O 421.707 1.4267 -5.5103 0
M  V30 4468 N 422.909 3.20238 -4.84178 0
M  V30 4469 H 425.674 -0.41123 -2.96865 0
M  V30 4470 H 423.235 -0.365387 -1.57723 0
M  V30 4471 H 425.227 2.06803 -3.47871 0
M  V30 4472 H 423.797 1.97859 -2.42014 0
M  V30 4473 H 423.017 0.0132126 -3.94198 0
M  V30 4474 H 424.305 0.484415 -5.06489 0
M  V30 4475 H 423.703 3.58932 -4.37246 0
M  V30 4476 H 422.26 3.83136 -5.27305 0
M  V30 4477 N 425.693 1.55336 -0.266172 0
M  V30 4478 C 426.64 2.22172 0.625165 0
M  V30 4479 C 427.61 1.19211 1.15663 0
M  V30 4480 O 428.795 1.47723 1.20758 0
M  V30 4481 C 425.935 2.93972 1.8076 0
M  V30 4482 C 425.048 4.11632 1.31084 0
M  V30 4483 C 424.183 4.71099 2.45436 0
M  V30 4484 C 423.222 5.8097 1.92718 0
M  V30 4485 N 422.359 6.34538 3.00509 0
M  V30 4486 H 427.199 2.9796 0.0485582 0
M  V30 4487 H 424.736 1.47095 0.0122024 0
M  V30 4488 H 426.694 3.33811 2.50251 0
M  V30 4489 H 425.324 2.20623 2.35638 0
M  V30 4490 H 424.376 3.76975 0.509326 0
M  V30 4491 H 425.688 4.90893 0.884633 0
M  V30 4492 H 424.842 5.13612 3.22936 0
M  V30 4493 H 423.581 3.91096 2.91368 0
M  V30 4494 H 422.586 5.37916 1.13695 0
M  V30 4495 H 423.811 6.62836 1.47733 0
M  V30 4496 H 421.757 5.57433 3.45839 0
M  V30 4497 H 421.674 7.09046 2.62279 0
M  V30 4498 H 422.942 6.81709 3.78011 0
M  V30 4499 N 427.171 -0.0066808 1.57599 0
M  V30 4500 C 428.587 -0.36267 1.55425 0
M  V30 4501 C 428.787 -1.75209 0.995187 0
M  V30 4502 O 427.843 -2.44616 0.626058 0
M  V30 4503 C 429.156 -0.244017 2.99708 0
M  V30 4504 C 430.704 -0.319451 3.11366 0
M  V30 4505 C 431.179 -0.229998 4.57422 0
M  V30 4506 N 432.67 -0.288105 4.62303 0
M  V30 4507 C 433.405 -0.242127 5.72889 0
M  V30 4508 N 432.901 -0.147133 6.92644 0
M  V30 4509 N 434.694 -0.293502 5.61333 0
M  V30 4510 H 426.845 0.902314 1.92281 0
M  V30 4511 H 429.108 0.34525 0.882896 0
M  V30 4512 H 428.814 0.711678 3.44424 0
M  V30 4513 H 428.688 -1.02877 3.629 0
M  V30 4514 H 431.075 -1.26559 2.66584 0
M  V30 4515 H 431.156 0.495055 2.50964 0
M  V30 4516 H 430.8 0.712566 5.02877 0
M  V30 4517 H 430.73 -1.0629 5.15761 0
M  V30 4518 H 433.221 -0.363126 3.76151 0
M  V30 4519 H 433.534 -0.117763 7.7271 0
M  V30 4520 H 431.879 -0.112857 6.94908 0
M  V30 4521 H 435.07 -0.365864 4.66668 0
M  V30 4522 H 435.243 -0.254204 6.47501 0
M  V30 4523 N 428.649 -1.55105 -0.279332 0
M  V30 4524 C 429.579 -1.90557 -1.34945 0
M  V30 4525 C 430.56 -0.766738 -1.51839 0
M  V30 4526 O 431.745 -1.02434 -1.64988 0
M  V30 4527 C 428.875 -2.17193 -2.71006 0
M  V30 4528 C 427.829 -3.33021 -2.68851 0
M  V30 4529 C 427.155 -3.45123 -4.08405 0
M  V30 4530 C 428.455 -4.69578 -2.28678 0
M  V30 4531 H 430.149 -2.80188 -1.05522 0
M  V30 4532 H 427.695 -1.34811 -0.506173 0
M  V30 4533 H 429.648 -2.40581 -3.45975 0
M  V30 4534 H 428.372 -1.24355 -3.01999 0
M  V30 4535 H 427.031 -3.0959 -1.9634 0
M  V30 4536 H 426.679 -2.49762 -4.3661 0
M  V30 4537 H 426.379 -4.22995 -4.07859 0
M  V30 4538 H 427.903 -3.70796 -4.85121 0
M  V30 4539 H 429.317 -4.92553 -2.93368 0
M  V30 4540 H 427.714 -5.5032 -2.39306 0
M  V30 4541 H 428.784 -4.68828 -1.23807 0
M  V30 4542 N 430.127 0.543554 -1.4793 0
M  V30 4543 C 431.374 1.30008 -1.55255 0
M  V30 4544 C 431.702 1.93245 -0.220612 0
M  V30 4545 O 430.957 1.79141 0.787843 0
M  V30 4546 C 431.256 2.42078 -2.62932 0
M  V30 4547 C 430.922 1.96583 -4.0579 0
M  V30 4548 C 429.584 1.83893 -4.44676 0
M  V30 4549 C 431.936 1.62034 -4.95373 0
M  V30 4550 C 429.264 1.34969 -5.70964 0
M  V30 4551 C 431.616 1.14577 -6.22137 0
M  V30 4552 C 430.28 1.00493 -6.59892 0
M  V30 4553 H 429.55 0.475735 -0.568117 0
M  V30 4554 H 432.197 0.608075 -1.81589 0
M  V30 4555 H 430.502 3.16892 -2.30406 0
M  V30 4556 H 432.199 3.00236 -2.65818 0
M  V30 4557 H 428.789 2.07407 -3.75074 0
M  V30 4558 H 432.973 1.70705 -4.66019 0
M  V30 4559 H 428.229 1.2274 -5.98953 0
M  V30 4560 H 432.403 0.869109 -6.90955 0
M  V30 4561 H 430.03 0.623624 -7.57638 0
M  V30 4562 N 431.605 1.3629 0.791371 0
M  V30 4563 C 432.535 1.33137 1.91825 0
M  V30 4564 C 433.516 0.203168 1.68882 0
M  V30 4565 O 434.701 0.400509 1.90025 0
M  V30 4566 C 431.831 1.11793 3.28816 0
M  V30 4567 C 430.785 2.21417 3.66277 0
M  V30 4568 C 430.111 1.85218 5.01596 0
M  V30 4569 C 431.411 3.63489 3.75064 0
M  V30 4570 H 433.105 2.2743 1.9472 0
M  V30 4571 H 430.651 1.09479 0.935437 0
M  V30 4572 H 432.604 1.08222 4.07266 0
M  V30 4573 H 431.328 0.139501 3.26302 0
M  V30 4574 H 429.987 2.2411 2.90121 0
M  V30 4575 H 429.635 0.859544 4.95602 0
M  V30 4576 H 429.335 2.58611 5.27631 0
M  V30 4577 H 430.859 1.832 5.82469 0
M  V30 4578 H 432.273 3.63034 4.43711 0
M  V30 4579 H 430.67 4.35771 4.12582 0
M  V30 4580 H 431.74 3.98536 2.76219 0
M  V30 4581 N 433.083 -1.0153 1.20538 0
M  V30 4582 C 434.331 -1.74803 1.01432 0
M  V30 4583 C 434.652 -1.8963 -0.454456 0
M  V30 4584 O 433.922 -1.43975 -1.32846 0
M  V30 4585 H 432.502 -0.647598 0.372324 0
M  V30 4586 H 435.164 -1.22402 1.5167 0
M  V30 4587 H 434.26 -2.75114 1.47373 0
M  V30 4588 N 434.561 -1.01147 -1.20859 0
M  V30 4589 C 435.972 -0.730205 -1.71828 0
M  V30 4590 C 436.323 0.751662 -1.8123 0
M  V30 4591 O 435.448 1.58686 -1.47132 0
M  V30 4592 C 436.043 -1.31885 -3.12077 0
M  V30 4593 C 434.602 -1.08656 -3.60376 0
M  V30 4594 C 433.749 -1.42769 -2.37723 0
M  V30 4595 H 436.7 -1.18158 -1.05945 0
M  V30 4596 H 436.721 -0.706793 -3.73878 0
M  V30 4597 H 436.233 -2.39737 -3.05201 0
M  V30 4598 H 434.334 -0.0254814 -3.72591 0
M  V30 4599 H 434.447 -1.76301 -4.45483 0
M  V30 4600 H 432.811 -0.846603 -2.40218 0
M  V30 4601 H 433.594 -2.51666 -2.33493 0
M  V30 4602 N 436.039 1.36541 -0.78704 0
M  V30 4603 C 437.269 2.03266 -0.369662 0
M  V30 4604 C 437.677 1.59481 1.01796 0
M  V30 4605 O 437.02 0.778612 1.66383 0
M  V30 4606 C 437.082 3.57779 -0.351371 0
M  V30 4607 C 436.746 4.24756 -1.68617 0
M  V30 4608 C 437.743 4.47811 -2.64124 0
M  V30 4609 C 435.428 4.62277 -1.96481 0
M  V30 4610 C 437.422 5.07464 -3.85693 0
M  V30 4611 C 435.109 5.21649 -3.18317 0
M  V30 4612 C 436.107 5.44182 -4.12741 0
M  V30 4613 O 435.795 6.02307 -5.32429 0
M  V30 4614 H 435.527 0.658977 -0.150751 0
M  V30 4615 H 438.081 1.75548 -1.0664 0
M  V30 4616 H 436.311 3.84606 0.401847 0
M  V30 4617 H 438 4.05879 0.0410147 0
M  V30 4618 H 438.766 4.19221 -2.43883 0
M  V30 4619 H 434.645 4.44065 -1.23805 0
M  V30 4620 H 438.189 5.24968 -4.59407 0
M  V30 4621 H 434.086 5.49664 -3.38437 0
M  V30 4622 H 434.854 6.20775 -5.33461 0
M  V30 4623 N 437.518 0.538854 1.48102 0
M  V30 4624 C 438.465 -0.219042 2.29758 0
M  V30 4625 C 439.435 -0.925562 1.37922 0
M  V30 4626 O 440.62 -0.924855 1.66886 0
M  V30 4627 C 437.76 -1.25452 3.2149 0
M  V30 4628 C 436.873 -0.555943 4.28408 0
M  V30 4629 C 436.008 -1.57512 5.0731 0
M  V30 4630 C 435.047 -0.860498 6.06021 0
M  V30 4631 N 434.184 -1.82564 6.77949 0
M  V30 4632 H 439.024 0.483449 2.94052 0
M  V30 4633 H 436.561 0.250247 1.44956 0
M  V30 4634 H 438.519 -1.86727 3.7308 0
M  V30 4635 H 437.149 -1.92528 2.591 0
M  V30 4636 H 436.201 0.170938 3.80016 0
M  V30 4637 H 437.513 0.00474616 4.988 0
M  V30 4638 H 436.667 -2.26191 5.62959 0
M  V30 4639 H 435.406 -2.16972 4.36778 0
M  V30 4640 H 434.411 -0.159686 5.49568 0
M  V30 4641 H 435.636 -0.271897 6.78555 0
M  V30 4642 H 433.582 -2.40915 6.10161 0
M  V30 4643 H 433.499 -1.31662 7.44447 0
M  V30 4644 H 434.767 -2.50414 7.38182 0
M  V30 4645 N 438.996 -1.55193 0.274407 0
M  V30 4646 C 440.244 -1.99187 -0.341902 0
M  V30 4647 C 440.565 -1.16422 -1.56431 0
M  V30 4648 O 439.835 -0.253573 -1.94252 0
M  V30 4649 H 438.415 -0.735721 -0.129317 0
M  V30 4650 H 441.077 -1.91168 0.379578 0
M  V30 4651 H 440.173 -3.05629 -0.632253 0
M  V30 4652 N 440.474 -0.00167713 -1.576 0
M  V30 4653 C 441.89 0.354422 -1.55615 0
M  V30 4654 C 442.09 1.74679 -1.00447 0
M  V30 4655 O 441.146 2.4428 -0.639022 0
M  V30 4656 C 442.459 0.22812 -2.99833 0
M  V30 4657 C 444.007 0.302934 -3.11531 0
M  V30 4658 C 444.482 0.205737 -4.57538 0
M  V30 4659 N 445.973 0.263584 -4.62449 0
M  V30 4660 C 446.708 0.211742 -5.73009 0
M  V30 4661 N 446.204 0.110399 -6.92712 0
M  V30 4662 N 447.997 0.263729 -5.61481 0
M  V30 4663 H 440.148 -0.912498 -1.918 0
M  V30 4664 H 442.411 -0.349928 -0.881053 0
M  V30 4665 H 442.117 -0.729934 -3.44042 0
M  V30 4666 H 441.991 1.00951 -3.6344 0
M  V30 4667 H 444.378 1.25143 -2.67251 0
M  V30 4668 H 444.459 -0.508357 -2.50698 0
M  V30 4669 H 444.103 -0.739225 -5.02492 0
M  V30 4670 H 444.033 1.03554 -5.16318 0
M  V30 4671 H 446.524 0.343173 -3.76339 0
M  V30 4672 H 446.837 0.0767828 -7.72762 0
M  V30 4673 H 445.182 0.0760025 -6.94958 0
M  V30 4674 H 448.373 0.34111 -4.66855 0
M  V30 4675 H 448.546 0.219862 -6.47627 0
M  V30 4676 N 441.952 1.55251 0.271103 0
M  V30 4677 C 443.177 1.80306 1.02491 0
M  V30 4678 C 443.602 0.575457 1.79081 0
M  V30 4679 O 442.96 -0.474987 1.74967 0
M  V30 4680 C 443.008 3.02832 1.95768 0
M  V30 4681 O 442.112 2.78051 3.04568 0
M  V30 4682 H 441.453 0.595896 0.292923 0
M  V30 4683 H 443.983 2.02397 0.299436 0
M  V30 4684 H 443.993 3.31616 2.37686 0
M  V30 4685 H 442.668 3.9183 1.39434 0
M  V30 4686 H 441.245 2.60369 2.66951 0
M  V30 4687 N 443.43 -0.535701 1.48216 0
M  V30 4688 C 444.658 -1.31671 1.59594 0
M  V30 4689 C 445.073 -1.87083 0.254056 0
M  V30 4690 O 444.43 -1.66112 -0.755854 0
M  V30 4691 C 444.481 -2.47158 2.63809 0
M  V30 4692 O 444.202 -1.94032 3.92789 0
M  V30 4693 C 445.703 -3.39062 2.85573 0
M  V30 4694 H 442.923 -0.400623 0.538277 0
M  V30 4695 H 445.467 -0.646827 1.94001 0
M  V30 4696 H 443.622 -3.10043 2.32276 0
M  V30 4697 H 444.036 -2.69585 4.49916 0
M  V30 4698 H 445.51 -4.16459 3.62306 0
M  V30 4699 H 445.987 -3.93941 1.94184 0
M  V30 4700 H 446.593 -2.81975 3.18387 0
M  V30 4701 N 444.908 -1.36708 -0.784132 0
M  V30 4702 C 445.818 -1.3363 -1.92822 0
M  V30 4703 C 446.834 -0.237686 -1.72369 0
M  V30 4704 O 448.01 -0.470962 -1.95816 0
M  V30 4705 C 445.075 -1.13011 -3.27764 0
M  V30 4706 C 444.136 -2.32397 -3.60957 0
M  V30 4707 C 443.369 -2.12752 -4.89461 0
M  V30 4708 O 443.592 -1.10541 -5.59586 0
M  V30 4709 O 442.526 -3.00653 -5.21432 0
M  V30 4710 H 446.352 -2.29964 -1.98369 0
M  V30 4711 H 443.937 -1.1731 -0.925136 0
M  V30 4712 H 445.819 -1.03451 -4.08504 0
M  V30 4713 H 444.494 -0.19743 -3.23097 0
M  V30 4714 H 443.401 -2.47527 -2.80502 0
M  V30 4715 H 444.734 -3.2419 -3.70354 0
M  V30 4716 N 446.386 1.0089 -1.21074 0
M  V30 4717 C 447.316 2.1145 -0.990523 0
M  V30 4718 C 448.297 1.69897 0.0831699 0
M  V30 4719 O 449.482 1.94052 -0.0758853 0
M  V30 4720 C 446.612 3.42914 -0.550177 0
M  V30 4721 C 445.566 3.98244 -1.56799 0
M  V30 4722 C 444.892 5.25568 -0.984013 0
M  V30 4723 C 446.192 4.30752 -2.95381 0
M  V30 4724 H 447.886 2.3013 -1.91521 0
M  V30 4725 H 445.432 1.10592 -0.92225 0
M  V30 4726 H 447.385 4.19653 -0.383305 0
M  V30 4727 H 446.109 3.24014 0.41015 0
M  V30 4728 H 444.768 3.23621 -1.72236 0
M  V30 4729 H 444.416 5.02998 -0.0155216 0
M  V30 4730 H 444.116 5.63551 -1.66384 0
M  V30 4731 H 445.64 6.04955 -0.828378 0
M  V30 4732 H 447.054 4.98349 -2.8341 0
M  V30 4733 H 445.451 4.79869 -3.60341 0
M  V30 4734 H 446.521 3.39192 -3.46521 0
M  V30 4735 N 447.864 1.01787 1.20321 0
M  V30 4736 C 449.113 0.703249 1.89043 0
M  V30 4737 C 449.426 -0.770445 1.79787 0
M  V30 4738 O 450.632 -1.19767 2.43656 0
M  V30 4739 C 449.088 1.20749 3.3904 0
M  V30 4740 C 448.696 2.70817 3.56878 0
M  V30 4741 C 450.44 0.968352 4.13308 0
M  V30 4742 C 448.347 3.14716 5.00708 0
M  V30 4743 H 447.277 0.259354 0.707991 0
M  V30 4744 H 449.928 1.23072 1.36108 0
M  V30 4745 H 448.31 0.607989 3.91305 0
M  V30 4746 H 449.484 3.36327 3.14993 0
M  V30 4747 H 447.799 2.92888 2.95983 0
M  V30 4748 H 450.396 1.27173 5.19356 0
M  V30 4749 H 450.739 -0.095149 4.16191 0
M  V30 4750 H 451.272 1.53129 3.67146 0
M  V30 4751 H 448.011 4.20347 5.02979 0
M  V30 4752 H 447.531 2.53927 5.43398 0
M  V30 4753 H 449.21 3.07426 5.69296 0
M  V30 4754 N 449.342 -1.36122 0.79427 0
M  V30 4755 C 450.753 -1.81646 0.431446 0
M  V30 4756 C 451.104 -1.66043 -1.04518 0
M  V30 4757 O 450.229 -1.1841 -1.8113 0
M  V30 4758 C 450.824 -3.29785 0.776341 0
M  V30 4759 C 449.383 -3.73501 0.466282 0
M  V30 4760 C 448.53 -2.58313 1.00844 0
M  V30 4761 H 451.481 -1.24274 0.986995 0
M  V30 4762 H 451.502 -3.80437 0.0692413 0
M  V30 4763 H 451.014 -3.4111 1.8511 0
M  V30 4764 H 449.115 -3.67733 -0.600245 0
M  V30 4765 H 449.228 -4.68754 0.990288 0
M  V30 4766 H 447.592 -2.5102 0.431406 0
M  V30 4767 H 448.375 -2.72421 2.08906 0
M  V30 4768 N 450.82 -0.546701 -1.47814 0
M  V30 4769 C 452.236 -0.205717 -1.58269 0
M  V30 4770 C 452.436 1.29153 -1.54667 0
M  V30 4771 O 451.492 2.07098 -1.44453 0
M  V30 4772 C 452.805 -0.823065 -2.89216 0
M  V30 4773 C 454.353 -0.793328 -3.02779 0
M  V30 4774 C 454.828 -1.38955 -4.36412 0
M  V30 4775 N 456.319 -1.35227 -4.43021 0
M  V30 4776 C 457.054 -1.78333 -5.44963 0
M  V30 4777 N 456.55 -2.29246 -6.53772 0
M  V30 4778 N 458.343 -1.69467 -5.35945 0
M  V30 4779 H 450.494 -1.5196 -1.48398 0
M  V30 4780 H 452.757 -0.633078 -0.705632 0
M  V30 4781 H 452.463 -1.8749 -2.97558 0
M  V30 4782 H 452.337 -0.309915 -3.75925 0
M  V30 4783 H 454.724 0.249784 -2.94041 0
M  V30 4784 H 454.805 -1.34412 -2.17639 0
M  V30 4785 H 454.449 -2.43168 -4.45906 0
M  V30 4786 H 454.379 -0.814291 -5.20266 0
M  V30 4787 H 456.87 -0.979739 -3.64979 0
M  V30 4788 H 457.183 -2.60089 -7.27718 0
M  V30 4789 H 455.528 -2.3325 -6.5469 0
M  V30 4790 H 458.719 -1.29477 -4.49837 0
M  V30 4791 H 458.892 -2.03381 -6.15256 0
M  V30 4792 N 452.299 1.55045 -0.282633 0
M  V30 4793 C 453.229 2.2579 0.595066 0
M  V30 4794 C 454.21 1.25074 1.15284 0
M  V30 4795 O 455.395 1.5381 1.18559 0
M  V30 4796 C 452.525 2.98472 1.77572 0
M  V30 4797 C 451.479 4.0618 1.34914 0
M  V30 4798 C 450.805 4.66477 2.6135 0
M  V30 4799 C 452.105 5.1996 0.493821 0
M  V30 4800 H 453.799 2.994 0.00505653 0
M  V30 4801 H 451.345 1.44 0.000992001 0
M  V30 4802 H 453.298 3.46677 2.39568 0
M  V30 4803 H 452.022 2.2241 2.39168 0
M  V30 4804 H 450.681 3.58797 0.752338 0
M  V30 4805 H 450.329 3.87074 3.2122 0
M  V30 4806 H 450.029 5.39207 2.33516 0
M  V30 4807 H 451.553 5.17435 3.24181 0
M  V30 4808 H 452.967 5.64172 1.01898 0
M  V30 4809 H 451.364 5.99299 0.310047 0
M  V30 4810 H 452.434 4.82462 -0.485593 0
M  V30 4811 N 453.777 0.010035 1.57597 0
M  V30 4812 C 454.724 -0.978122 2.09049 0
M  V30 4813 C 455.694 -1.33509 0.988159 0
M  V30 4814 O 456.879 -1.43172 1.26121 0
M  V30 4815 C 454.019 -2.26158 2.60666 0
M  V30 4816 C 453.132 -1.96275 3.84838 0
M  V30 4817 C 452.267 -3.18776 4.24918 0
M  V30 4818 C 451.306 -2.84625 5.41899 0
M  V30 4819 N 450.443 -3.99693 5.77226 0
M  V30 4820 H 455.283 -0.532431 2.93205 0
M  V30 4821 H 452.82 -0.251234 1.44939 0
M  V30 4822 H 454.778 -3.01202 2.88675 0
M  V30 4823 H 453.408 -2.68378 1.79369 0
M  V30 4824 H 452.46 -1.11555 3.63675 0
M  V30 4825 H 453.772 -1.67111 4.69974 0
M  V30 4826 H 452.926 -4.02157 4.54262 0
M  V30 4827 H 451.665 -3.51087 3.38511 0
M  V30 4828 H 450.67 -1.99653 5.12268 0
M  V30 4829 H 451.895 -2.53551 6.29991 0
M  V30 4830 H 449.841 -4.31882 4.93776 0
M  V30 4831 H 449.758 -3.74087 6.56959 0
M  V30 4832 H 451.026 -4.83834 6.11167 0
M  V30 4833 N 455.255 -1.55392 -0.262866 0
M  V30 4834 C 456.503 -1.76127 -0.991147 0
M  V30 4835 C 456.824 -0.571083 -1.8645 0
M  V30 4836 O 456.094 0.413698 -1.91482 0
M  V30 4837 H 454.674 -0.649528 -0.368948 0
M  V30 4838 H 457.336 -1.9281 -0.284655 0
M  V30 4839 H 456.432 -2.6663 -1.62219 0
M  V30 4840 N 456.733 0.527833 -1.48498 0
M  V30 4841 C 457.979 1.28545 -1.56857 0
M  V30 4842 C 458.312 1.92678 -0.242651 0
M  V30 4843 O 457.587 1.79394 0.751545 0
M  V30 4844 C 457.87 2.37314 -2.70839 0
M  V30 4845 C 457.723 1.77858 -4.13142 0
M  V30 4846 C 459.042 3.39068 -2.80573 0
M  V30 4847 H 456.161 0.466006 -0.570971 0
M  V30 4848 H 458.803 0.587784 -1.8068 0
M  V30 4849 H 456.953 2.96821 -2.50658 0
M  V30 4850 H 458.625 1.22385 -4.44769 0
M  V30 4851 H 456.868 1.08383 -4.20042 0
M  V30 4852 H 457.539 2.56624 -4.88721 0
M  V30 4853 H 460.015 2.89518 -2.98862 0
M  V30 4854 H 458.891 4.12566 -3.6205 0
M  V30 4855 H 459.152 3.9975 -1.88818 0
M  V30 4856 N 458.211 1.37122 0.776871 0
M  V30 4857 C 459.141 1.35164 1.90402 0
M  V30 4858 C 460.122 0.221069 1.68657 0
M  V30 4859 O 461.307 0.420642 1.8959 0
M  V30 4860 C 458.437 1.15274 3.27611 0
M  V30 4861 C 457.391 2.25289 3.63908 0
M  V30 4862 C 456.717 1.90527 4.99603 0
M  V30 4863 C 458.017 3.67446 3.71188 0
M  V30 4864 H 459.711 2.29482 1.92297 0
M  V30 4865 H 457.257 1.10465 0.923773 0
M  V30 4866 H 459.21 1.12536 4.06096 0
M  V30 4867 H 457.934 0.174102 3.26136 0
M  V30 4868 H 456.593 2.27174 2.87728 0
M  V30 4869 H 456.241 0.91206 4.94662 0
M  V30 4870 H 455.941 2.64193 5.24858 0
M  V30 4871 H 457.465 1.89367 5.80493 0
M  V30 4872 H 458.879 3.67719 4.39836 0
M  V30 4873 H 457.276 4.40123 4.07936 0
M  V30 4874 H 458.346 4.01443 2.71977 0
M  V30 4875 N 459.689 -1.00246 1.21608 0
M  V30 4876 C 460.917 -1.77631 1.06089 0
M  V30 4877 C 461.332 -1.84746 -0.38916 0
M  V30 4878 O 460.689 -1.31068 -1.26994 0
M  V30 4879 C 460.74 -3.21415 1.65453 0
M  V30 4880 O 460.461 -3.14703 3.04785 0
M  V30 4881 C 461.962 -4.15289 1.55079 0
M  V30 4882 H 459.182 -0.558162 0.37242 0
M  V30 4883 H 461.726 -1.26093 1.60999 0
M  V30 4884 H 459.881 -3.70053 1.14629 0
M  V30 4885 H 460.295 -4.05056 3.33212 0
M  V30 4886 H 461.769 -5.13965 2.01355 0
M  V30 4887 H 462.246 -4.36279 0.505665 0
M  V30 4888 H 462.852 -3.72543 2.05163 0
M  V30 4889 N 461.167 -1.02423 -1.1978 0
M  V30 4890 C 462.115 -0.594474 -2.24875 0
M  V30 4891 C 463.109 0.370598 -1.65296 0
M  V30 4892 O 464.315 0.239684 -1.78397 0
M  V30 4893 H 460.69 -0.173961 -0.731602 0
M  V30 4894 H 462.661 -1.4916 -2.58445 0
M  V30 4895 C 461.41 0.0436512 -3.47673 0
M  V30 4896 H 460.733 -0.689963 -3.93801 0
M  V30 4897 H 462.173 0.307362 -4.22884 0
M  V30 4898 C 460.632 1.28881 -3.11274 0
M  V30 4899 O 461.162 2.38135 -3.23503 0
M  V30 4900 N 459.368 1.1758 -2.6575 0
M  V30 4901 H 458.915 0.286769 -2.55999 0
M  V30 4902 H 458.873 2.00988 -2.41767 0
M  V30 4903 N 462.645 1.35699 -0.801477 0
M  V30 4904 C 464.056 1.81415 -0.441073 0
M  V30 4905 C 464.407 1.66595 1.03636 0
M  V30 4906 O 463.532 1.19369 1.80499 0
M  V30 4907 C 464.127 3.29369 -0.793819 0
M  V30 4908 C 462.686 3.73248 -0.486083 0
M  V30 4909 C 461.833 2.57775 -1.02213 0
M  V30 4910 H 464.784 1.23749 -0.993572 0
M  V30 4911 H 464.805 3.80395 -0.0894158 0
M  V30 4912 H 464.317 3.40123 -1.86917 0
M  V30 4913 H 462.418 3.68046 0.580735 0
M  V30 4914 H 462.531 4.68222 -1.01513 0
M  V30 4915 H 460.895 2.50788 -0.444712 0
M  V30 4916 H 461.678 2.71309 -2.10348 0
M  V30 4917 N 464.123 0.554532 1.47522 0
M  V30 4918 C 465.071 -0.207765 2.3167 0
M  V30 4919 C 466.065 -0.911914 1.4276 0
M  V30 4920 O 467.271 -0.833504 1.59539 0
M  V30 4921 H 463.646 -0.0858726 0.747081 0
M  V30 4922 H 465.617 0.521178 2.93813 0
M  V30 4923 C 464.366 -1.2263 3.25357 0
M  V30 4924 H 463.689 -0.693887 3.93732 0
M  V30 4925 H 465.129 -1.73062 3.87073 0
M  V30 4926 C 463.588 -2.27278 2.4869 0
M  V30 4927 O 464.118 -3.34156 2.22941 0
M  V30 4928 N 462.324 -2.01134 2.09746 0
M  V30 4929 H 461.871 -1.14232 2.30887 0
M  V30 4930 H 461.829 -2.71369 1.58765 0
M  V30 4931 N 465.601 -1.54893 0.290851 0
M  V30 4932 C 466.841 -2.01842 -0.322388 0
M  V30 4933 C 467.205 -1.17477 -1.51865 0
M  V30 4934 O 468.406 -1.54077 -2.20258 0
M  V30 4935 C 466.677 -3.50874 -0.679844 0
M  V30 4936 S 468.236 -4.19796 -1.27739 0
M  V30 4937 H 465.054 -0.704005 -0.0994866 0
M  V30 4938 H 467.656 -1.91015 0.416358 0
M  V30 4939 H 466.36 -4.09915 0.199435 0
M  V30 4940 H 465.891 -3.65717 -1.44964 0
M  V30 4941 H 467.906 -4.24729 -2.56554 0
M  V30 4942 N 467.08 -0.0183926 -1.57589 0
M  V30 4943 C 467.99 0.982943 -2.13015 0
M  V30 4944 C 469.006 1.36443 -1.07979 0
M  V30 4945 O 470.182 1.44802 -1.3998 0
M  V30 4946 C 467.247 2.25024 -2.63752 0
M  V30 4947 C 466.308 1.93018 -3.83461 0
M  V30 4948 C 465.541 3.13706 -4.31769 0
M  V30 4949 O 465.764 4.2601 -3.79305 0
M  V30 4950 O 464.698 2.96629 -5.23732 0
M  V30 4951 H 468.524 0.541709 -2.9883 0
M  V30 4952 H 466.109 0.201565 -1.48034 0
M  V30 4953 H 467.991 2.99441 -2.96502 0
M  V30 4954 H 466.666 2.68349 -1.81026 0
M  V30 4955 H 465.573 1.16019 -3.55655 0
M  V30 4956 H 466.906 1.54516 -4.67317 0
M  V30 4957 N 468.558 1.5553 0.254621 0
M  V30 4958 C 469.805 1.77 0.983736 0
M  V30 4959 C 470.133 0.58133 1.85609 0
M  V30 4960 O 469.388 -0.435621 1.9079 0
M  V30 4961 C 469.687 3.03891 1.88109 0
M  V30 4962 C 469.353 4.35597 1.16472 0
M  V30 4963 C 468.015 4.7139 0.966714 0
M  V30 4964 C 470.367 5.1705 0.656387 0
M  V30 4965 C 467.695 5.86176 0.247942 0
M  V30 4966 C 470.047 6.32581 -0.0488807 0
M  V30 4967 C 468.711 6.67 -0.258438 0
M  V30 4968 H 467.981 0.647688 0.359974 0
M  V30 4969 H 470.628 1.89802 0.254463 0
M  V30 4970 H 468.933 2.86068 2.67717 0
M  V30 4971 H 470.63 3.17701 2.44677 0
M  V30 4972 H 467.22 4.07475 1.32899 0
M  V30 4973 H 471.404 4.8986 0.796933 0
M  V30 4974 H 466.66 6.11354 0.075035 0
M  V30 4975 H 470.834 6.94942 -0.450444 0
M  V30 4976 H 468.461 7.55793 -0.817358 0
M  V30 4977 N 470.036 -0.519951 1.48776 0
M  V30 4978 C 470.946 -1.65025 1.66745 0
M  V30 4979 C 471.962 -1.6508 0.549954 0
M  V30 4980 O 473.138 -1.83848 0.822295 0
M  V30 4981 C 470.203 -3.0146 1.71238 0
M  V30 4982 C 469.264 -3.12182 2.94688 0
M  V30 4983 C 468.497 -4.42109 2.98958 0
M  V30 4984 O 468.72 -5.29799 2.1135 0
M  V30 4985 O 467.654 -4.57406 3.91233 0
M  V30 4986 H 471.48 -1.52801 2.62461 0
M  V30 4987 H 469.065 -0.694157 1.32294 0
M  V30 4988 H 470.947 -3.82584 1.76657 0
M  V30 4989 H 469.622 -3.13988 0.786975 0
M  V30 4990 H 468.529 -2.30316 2.94797 0
M  V30 4991 H 469.862 -3.04574 3.86646 0
M  V30 4992 N 471.514 -1.37532 -0.769588 0
M  V30 4993 C 472.477 -1.33292 -1.86456 0
M  V30 4994 C 473.477 -0.236537 -1.59051 0
M  V30 4995 O 474.667 -0.492511 -1.67093 0
M  V30 4996 C 471.799 -1.07118 -3.23633 0
M  V30 4997 H 472.992 -2.30692 -1.91628 0
M  V30 4998 H 470.545 -1.22593 -0.969572 0
M  V30 4999 H 471.28 -0.102578 -3.24138 0
M  V30 5000 H 471.065 -1.86479 -3.44917 0
M  V30 5001 H 472.555 -1.06806 -4.03711 0
M  V30 5002 N 472.992 0.995999 -1.22138 0
M  V30 5003 C 473.94 2.10673 -0.985876 0
M  V30 5004 C 474.934 1.69255 0.0699553 0
M  V30 5005 O 476.14 1.79812 -0.0822176 0
M  V30 5006 H 472.515 0.688865 -0.30161 0
M  V30 5007 H 474.486 2.27711 -1.92848 0
M  V30 5008 C 473.235 3.42881 -0.576909 0
M  V30 5009 H 472.558 3.75191 -1.38101 0
M  V30 5010 H 473.998 4.21589 -0.451518 0
M  V30 5011 C 472.457 3.29265 0.713196 0
M  V30 5012 O 472.987 3.60777 1.76643 0
M  V30 5013 N 471.193 2.82456 0.683162 0
M  V30 5014 H 470.74 2.5701 -0.174242 0
M  V30 5015 H 470.698 2.73727 1.54663 0
M  V30 5016 N 474.47 1.03057 1.19235 0
M  V30 5017 C 475.7 0.746613 1.92638 0
M  V30 5018 C 476.108 -0.698708 1.75826 0
M  V30 5019 O 475.451 -1.487 1.07861 0
M  V30 5020 C 475.513 1.02024 3.44719 0
M  V30 5021 C 475.177 2.45745 3.85303 0
M  V30 5022 C 476.174 3.43887 3.8992 0
M  V30 5023 C 473.859 2.8019 4.16892 0
M  V30 5024 C 475.853 4.74529 4.2556 0
M  V30 5025 C 473.54 4.1104 4.52205 0
M  V30 5026 C 474.538 5.0802 4.56513 0
M  V30 5027 O 474.226 6.36527 4.91008 0
M  V30 5028 H 473.958 0.272401 0.618687 0
M  V30 5029 H 476.512 1.37853 1.52269 0
M  V30 5030 H 474.742 0.331184 3.85279 0
M  V30 5031 H 476.431 0.725677 3.9936 0
M  V30 5032 H 477.197 3.18614 3.65664 0
M  V30 5033 H 473.076 2.05382 4.12722 0
M  V30 5034 H 476.62 5.50222 4.28838 0
M  V30 5035 H 472.517 4.36086 4.7592 0
M  V30 5036 H 473.285 6.41025 5.08949 0
M  V30 5037 N 475.948 -1.35272 0.808662 0
M  V30 5038 C 477.194 -1.99003 0.390581 0
M  V30 5039 C 477.527 -1.63999 -1.0401 0
M  V30 5040 O 476.802 -0.904368 -1.72196 0
M  V30 5041 C 477.085 -3.55454 0.576566 0
M  V30 5042 C 476.938 -4.00249 2.05233 0
M  V30 5043 C 478.257 -4.401 0.00354277 0
M  V30 5044 H 475.376 -0.722917 0.143388 0
M  V30 5045 H 478.018 -1.6039 1.01858 0
M  V30 5046 H 476.168 -3.88477 0.0419766 0
M  V30 5047 H 477.84 -3.77626 2.64946 0
M  V30 5048 H 476.083 -3.51082 2.54801 0
M  V30 5049 H 476.754 -5.0911 2.13333 0
M  V30 5050 H 479.23 -4.13548 0.460117 0
M  V30 5051 H 478.106 -5.48656 0.163575 0
M  V30 5052 H 478.367 -4.28444 -1.09032 0
M  V30 5053 N 477.426 -0.562348 -1.47226 0
M  V30 5054 C 478.389 0.172056 -2.28553 0
M  V30 5055 C 479.389 0.837928 -1.37242 0
M  V30 5056 O 480.579 0.693001 -1.59822 0
M  V30 5057 C 477.711 1.25223 -3.17068 0
M  V30 5058 H 478.904 -0.542401 -2.94954 0
M  V30 5059 H 476.457 -0.319493 -1.53 0
M  V30 5060 H 477.192 1.99892 -2.55369 0
M  V30 5061 H 476.977 0.779515 -3.84273 0
M  V30 5062 H 478.467 1.76791 -3.78332 0
M  V30 5063 N 478.904 1.54736 -0.299062 0
M  V30 5064 C 480.153 1.99279 0.311549 0
M  V30 5065 C 480.466 1.19107 1.55154 0
M  V30 5066 O 481.672 1.53908 2.23662 0
M  V30 5067 C 480.128 3.54768 0.605632 0
M  V30 5068 C 479.736 4.43746 -0.615914 0
M  V30 5069 C 481.48 4.07841 1.17754 0
M  V30 5070 C 479.387 5.90663 -0.29509 0
M  V30 5071 H 478.317 0.744359 0.120187 0
M  V30 5072 H 480.968 1.78919 -0.407464 0
M  V30 5073 H 479.35 3.71021 1.38419 0
M  V30 5074 H 480.524 4.39267 -1.39218 0
M  V30 5075 H 478.839 4.01434 -1.10633 0
M  V30 5076 H 481.436 5.15174 1.43179 0
M  V30 5077 H 481.779 3.58324 2.11918 0
M  V30 5078 H 482.312 3.95123 0.460739 0
M  V30 5079 H 479.051 6.44325 -1.20524 0
M  V30 5080 H 478.571 5.98155 0.44394 0
M  V30 5081 H 480.25 6.46916 0.104048 0
M  V30 5082 N 480.382 0.0267497 1.57577 0
M  V30 5083 C 481.332 -0.965003 2.06571 0
M  V30 5084 C 482.316 -1.28694 0.965746 0
M  V30 5085 O 483.508 -1.27345 1.22932 0
M  V30 5086 C 480.637 -2.24821 2.59443 0
M  V30 5087 C 479.723 -1.95474 3.76365 0
M  V30 5088 N 480.114 -1.36387 4.87065 0
M  V30 5089 C 478.412 -2.25478 3.84806 0
M  V30 5090 C 479.113 -1.24119 5.68304 0
M  V30 5091 N 478.089 -1.7359 5.15138 0
M  V30 5092 H 481.891 -0.503095 2.89562 0
M  V30 5093 H 479.405 -0.178322 1.61418 0
M  V30 5094 H 481.402 -2.9674 2.92833 0
M  V30 5095 H 480.062 -2.7164 1.77881 0
M  V30 5096 H 481.073 -1.03919 5.07367 0
M  V30 5097 H 477.75 -2.74987 3.14147 0
M  V30 5098 H 479.14 -0.784504 6.67304 0
M  V30 5099 N 481.861 -1.55662 -0.24637 0
M  V30 5100 C 483.089 -1.81575 -0.991876 0
M  V30 5101 C 483.504 -0.602545 -1.78927 0
M  V30 5102 O 482.861 0.428795 -1.77391 0
M  V30 5103 C 482.912 -3.05711 -1.92933 0
M  V30 5104 O 482.633 -4.22348 -1.1642 0
M  V30 5105 C 484.134 -3.44428 -2.79078 0
M  V30 5106 H 481.354 -0.604209 -0.291844 0
M  V30 5107 H 483.898 -2.02722 -0.269095 0
M  V30 5108 H 482.053 -2.86612 -2.60638 0
M  V30 5109 H 482.467 -4.92706 -1.79835 0
M  V30 5110 H 483.941 -4.34388 -3.40603 0
M  V30 5111 H 484.418 -2.65037 -3.50217 0
M  V30 5112 H 485.024 -3.65879 -2.16824 0
M  V30 5113 N 483.339 0.512053 -1.4905 0
M  V30 5114 C 484.269 1.62365 -1.67809 0
M  V30 5115 C 485.25 1.61737 -0.526809 0
M  V30 5116 O 486.435 1.78651 -0.761404 0
M  V30 5117 C 483.565 3.00895 -1.73435 0
M  V30 5118 C 482.519 3.16387 -2.88242 0
M  V30 5119 C 481.845 4.56157 -2.78971 0
M  V30 5120 C 483.145 2.97457 -4.29321 0
M  V30 5121 H 484.839 1.46921 -2.60873 0
M  V30 5122 H 482.385 0.705379 -1.2554 0
M  V30 5123 H 484.338 3.78549 -1.85145 0
M  V30 5124 H 483.062 3.17403 -0.769619 0
M  V30 5125 H 481.721 2.41155 -2.76116 0
M  V30 5126 H 481.369 4.69525 -1.8043 0
M  V30 5127 H 481.069 4.67465 -3.5602 0
M  V30 5128 H 482.593 5.35886 -2.92675 0
M  V30 5129 H 484.007 3.64888 -4.42187 0
M  V30 5130 H 482.404 3.20245 -5.07507 0
M  V30 5131 H 483.474 1.93692 -4.44535 0
M  V30 5132 N 484.817 1.37938 0.762283 0
M  V30 5133 C 485.78 1.34279 1.85747 0
M  V30 5134 C 486.78 0.244969 1.58923 0
M  V30 5135 O 487.97 0.501365 1.66829 0
M  V30 5136 C 485.102 1.08833 3.23061 0
M  V30 5137 H 486.295 2.31705 1.90401 0
M  V30 5138 H 483.848 1.23105 0.963057 0
M  V30 5139 H 484.583 0.119767 3.24079 0
M  V30 5140 H 484.368 1.88306 3.43923 0
M  V30 5141 H 485.858 1.08946 4.03138 0
M  V30 5142 N 486.295 -0.989507 1.22664 0
M  V30 5143 C 487.523 -1.76496 1.07967 0
M  V30 5144 C 487.938 -1.85148 -0.369543 0
M  V30 5145 O 487.295 -1.32408 -1.25596 0
M  V30 5146 C 487.346 -3.19642 1.68853 0
M  V30 5147 O 487.067 -3.11453 3.08105 0
M  V30 5148 C 488.568 -4.13621 1.59475 0
M  V30 5149 H 485.788 -0.55418 0.378319 0
M  V30 5150 H 488.332 -1.24378 1.62328 0
M  V30 5151 H 486.487 -3.68816 1.18547 0
M  V30 5152 H 486.901 -4.01499 3.37489 0
M  V30 5153 H 488.375 -5.11801 2.06795 0
M  V30 5154 H 488.852 -4.35718 0.55191 0
M  V30 5155 H 489.458 -3.70346 2.09103 0
M  V30 5156 N 487.773 -1.03688 -1.18687 0
M  V30 5157 C 489.019 -0.74888 -1.89112 0
M  V30 5158 C 489.374 0.715345 -1.78607 0
M  V30 5159 O 488.667 1.51498 -1.17299 0
M  V30 5160 C 488.861 -1.14477 -3.3857 0
M  V30 5161 C 488.69 -2.64594 -3.63621 0
M  V30 5162 C 487.46 -3.31685 -3.812 0
M  V30 5163 C 489.658 -3.62811 -3.64517 0
M  V30 5164 N 487.64 -4.70822 -3.93955 0
M  V30 5165 C 489.011 -4.87603 -3.8294 0
M  V30 5166 C 491.066 -3.56495 -3.47585 0
M  V30 5167 C 489.769 -6.0684 -3.86184 0
M  V30 5168 C 491.795 -4.75155 -3.52111 0
M  V30 5169 C 491.157 -5.98765 -3.71026 0
M  V30 5170 H 487.256 -0.32603 -0.710794 0
M  V30 5171 H 489.84 -1.3258 -1.42586 0
M  V30 5172 H 488.011 -0.595974 -3.838 0
M  V30 5173 H 489.743 -0.808187 -3.96548 0
M  V30 5174 H 486.498 -2.82091 -3.80423 0
M  V30 5175 H 486.922 -5.43122 -4.04163 0
M  V30 5176 H 491.564 -2.61907 -3.31911 0
M  V30 5177 H 489.282 -7.01788 -4.00648 0
M  V30 5178 H 492.868 -4.71905 -3.40289 0
M  V30 5179 H 491.748 -6.89047 -3.74412 0
M  V30 5180 N 489.251 1.34841 -0.815825 0
M  V30 5181 C 490.481 2.02436 -0.412695 0
M  V30 5182 C 490.889 1.61604 0.983906 0
M  V30 5183 O 490.232 0.813729 1.64694 0
M  V30 5184 C 490.294 3.56953 -0.427182 0
M  V30 5185 C 489.958 4.21083 -1.77589 0
M  V30 5186 C 490.955 4.42107 -2.73564 0
M  V30 5187 C 488.64 4.58006 -2.06243 0
M  V30 5188 C 490.634 4.99169 -3.9637 0
M  V30 5189 C 488.321 5.1478 -3.2931 0
M  V30 5190 C 489.319 5.35304 -4.24191 0
M  V30 5191 O 489.007 5.90878 -5.45086 0
M  V30 5192 H 488.739 0.655631 -0.164695 0
M  V30 5193 H 491.293 1.73246 -1.1034 0
M  V30 5194 H 489.523 3.85372 0.320175 0
M  V30 5195 H 491.212 4.05875 -0.0450875 0
M  V30 5196 H 491.978 4.13953 -2.52721 0
M  V30 5197 H 487.857 4.41339 -1.33196 0
M  V30 5198 H 491.401 5.15105 -4.70439 0
M  V30 5199 H 487.298 5.42362 -3.5002 0
M  V30 5200 H 488.066 6.0932 -5.46508 0
M  V30 5201 N 490.729 0.570148 1.46925 0
M  V30 5202 C 491.676 -0.170257 2.30171 0
M  V30 5203 C 492.646 -0.896099 1.39855 0
M  V30 5204 O 493.831 -0.889248 1.68811 0
M  V30 5205 C 490.971 -1.18605 3.24079 0
M  V30 5206 C 490.084 -0.464947 4.29491 0
M  V30 5207 C 489.219 -1.46716 5.10537 0
M  V30 5208 C 488.258 -0.731758 6.0771 0
M  V30 5209 N 487.395 -1.68142 6.81669 0
M  V30 5210 H 492.235 0.545713 2.92961 0
M  V30 5211 H 489.772 0.280938 1.44392 0
M  V30 5212 H 491.73 -1.78771 3.76957 0
M  V30 5213 H 490.36 -1.86989 2.63125 0
M  V30 5214 H 489.412 0.251506 3.79568 0
M  V30 5215 H 490.724 0.110548 4.98677 0
M  V30 5216 H 489.878 -2.14199 5.6763 0
M  V30 5217 H 488.617 -2.07658 4.41282 0
M  V30 5218 H 487.622 -0.0430787 5.49783 0
M  V30 5219 H 488.847 -0.127904 6.7898 0
M  V30 5220 H 486.793 -2.27918 6.15134 0
M  V30 5221 H 486.71 -1.15841 7.47072 0
M  V30 5222 H 487.978 -2.347 7.43328 0
M  V30 5223 N 492.207 -1.54576 0.307264 0
M  V30 5224 C 493.432 -2.05139 -0.305379 0
M  V30 5225 C 493.857 -1.18278 -1.46259 0
M  V30 5226 O 493.215 -0.188243 -1.8032 0
M  V30 5227 C 493.263 -3.53066 -0.733283 0
M  V30 5228 O 492.367 -3.69206 -1.83741 0
M  V30 5229 H 491.708 -0.661444 -0.0582105 0
M  V30 5230 H 494.238 -1.99569 0.450931 0
M  V30 5231 H 494.248 -3.95034 -1.02039 0
M  V30 5232 H 492.923 -4.15746 0.113198 0
M  V30 5233 H 491.5 -3.39143 -1.55037 0
M  V30 5234 N 493.685 -0.035106 -1.57561 0
M  V30 5235 C 494.633 0.962707 -2.11742 0
M  V30 5236 C 495.627 1.33296 -1.0454 0
M  V30 5237 O 496.833 1.31449 -1.22968 0
M  V30 5238 H 493.208 0.32826 -0.676572 0
M  V30 5239 H 495.179 0.48048 -2.94506 0
M  V30 5240 C 493.928 2.23388 -2.66445 0
M  V30 5241 H 493.251 1.95774 -3.48587 0
M  V30 5242 H 494.691 2.91402 -3.07995 0
M  V30 5243 C 493.15 2.96769 -1.59467 0
M  V30 5244 O 493.68 3.89105 -0.998 0
M  V30 5245 N 491.886 2.59212 -1.31369 0
M  V30 5246 H 491.433 1.84202 -1.80076 0
M  V30 5247 H 491.391 3.08618 -0.600173 0
M  V30 5248 N 495.163 1.55791 0.238111 0
M  V30 5249 C 496.096 1.86036 1.32158 0
M  V30 5250 C 497.074 0.716216 1.45976 0
M  V30 5251 O 498.258 0.962882 1.62052 0
M  V30 5252 C 495.385 2.05281 2.69402 0
M  V30 5253 C 494.431 3.27939 2.72687 0
M  V30 5254 S 495.264 4.84342 2.28413 0
M  V30 5255 C 496.42 5.06604 3.67565 0
M  V30 5256 H 496.653 2.77644 1.06306 0
M  V30 5257 H 494.186 1.48012 0.439537 0
M  V30 5258 H 496.144 2.17053 3.48423 0
M  V30 5259 H 494.805 1.14499 2.92487 0
M  V30 5260 H 493.998 3.38398 3.73501 0
M  V30 5261 H 493.6 3.14938 2.01717 0
M  V30 5262 H 495.892 4.94486 4.6313 0
M  V30 5263 H 496.835 6.08554 3.62033 0
M  V30 5264 H 497.243 4.34409 3.60485 0
M  V30 5265 N 496.642 -0.504142 1.49319 0
M  V30 5266 C 497.59 -1.62689 1.66238 0
M  V30 5267 C 498.584 -1.6095 0.528349 0
M  V30 5268 O 499.79 -1.65496 0.707887 0
M  V30 5269 H 496.165 -0.539247 0.524134 0
M  V30 5270 H 498.136 -1.45571 2.60484 0
M  V30 5271 C 496.885 -3.00841 1.74328 0
M  V30 5272 H 496.208 -3.02884 2.60963 0
M  V30 5273 H 497.648 -3.78945 1.90202 0
M  V30 5274 C 496.107 -3.33355 0.487416 0
M  V30 5275 O 496.637 -3.99819 -0.388294 0
M  V30 5276 N 494.843 -2.88469 0.351306 0
M  V30 5277 H 494.39 -2.34557 1.06492 0
M  V30 5278 H 494.348 -3.10591 -0.487899 0
M  V30 5279 N 498.12 -1.38341 -0.754957 0
M  V30 5280 C 499.368 -1.34208 -1.51105 0
M  V30 5281 C 499.689 0.0677634 -1.94882 0
M  V30 5282 O 498.959 1.01517 -1.67544 0
M  V30 5283 H 497.539 -0.493819 -0.560493 0
M  V30 5284 H 500.201 -1.73005 -0.897507 0
M  V30 5285 H 499.297 -1.99203 -2.4026 0
M  V30 5286 N 499.598 0.982988 -1.23187 0
M  V30 5287 C 500.844 1.72648 -1.06398 0
M  V30 5288 C 501.177 1.90066 0.398561 0
M  V30 5289 O 500.452 1.45105 1.29518 0
M  V30 5290 C 500.735 3.12627 -1.78707 0
M  V30 5291 C 500.588 3.02795 -3.32618 0
M  V30 5292 C 501.907 4.11997 -1.54747 0
M  V30 5293 H 499.026 0.626649 -0.387918 0
M  V30 5294 H 501.668 1.14455 -1.51658 0
M  V30 5295 H 499.818 3.62308 -1.40234 0
M  V30 5296 H 501.49 2.60659 -3.80598 0
M  V30 5297 H 499.733 2.39362 -3.61785 0
M  V30 5298 H 500.404 4.01893 -3.78399 0
M  V30 5299 H 502.88 3.71114 -1.88186 0
M  V30 5300 H 501.756 5.08037 -2.07821 0
M  V30 5301 H 502.017 4.39462 -0.482249 0
M  V30 5302 N 501.076 1.04316 1.18135 0
M  V30 5303 C 502.492 0.762858 1.40188 0
M  V30 5304 C 502.692 -0.646547 1.90846 0
M  V30 5305 O 501.748 -1.41036 2.0944 0
M  V30 5306 C 503.061 1.81106 2.40044 0
M  V30 5307 C 504.609 1.83226 2.53766 0
M  V30 5308 C 505.084 2.87044 3.56889 0
M  V30 5309 N 506.575 2.85951 3.64398 0
M  V30 5310 C 507.31 3.62932 4.43923 0
M  V30 5311 N 506.806 4.49672 5.27036 0
M  V30 5312 N 508.599 3.51411 4.38711 0
M  V30 5313 H 500.75 1.95264 0.835805 0
M  V30 5314 H 503.013 0.845017 0.429709 0
M  V30 5315 H 502.719 2.82214 2.09876 0
M  V30 5316 H 502.593 1.64529 3.39426 0
M  V30 5317 H 504.98 0.827869 2.8325 0
M  V30 5318 H 505.061 2.03879 1.54489 0
M  V30 5319 H 504.705 3.87663 3.28145 0
M  V30 5320 H 504.635 2.63645 4.5585 0
M  V30 5321 H 507.126 2.23051 3.05052 0
M  V30 5322 H 507.439 5.05116 5.84874 0
M  V30 5323 H 505.784 4.53738 5.26447 0
M  V30 5324 H 508.975 2.83047 3.72829 0
M  V30 5325 H 509.148 4.11654 5.00445 0
M  V30 5326 N 502.554 -1.34406 0.822964 0
M  V30 5327 C 503.501 -2.29519 0.24284 0
M  V30 5328 C 504.471 -1.5359 -0.632397 0
M  V30 5329 O 505.656 -1.8196 -0.57403 0
M  V30 5330 C 502.796 -3.40032 -0.58925 0
M  V30 5331 C 501.909 -4.30899 0.308236 0
M  V30 5332 C 501.044 -5.28515 -0.533425 0
M  V30 5333 C 500.083 -6.1102 0.363444 0
M  V30 5334 N 499.22 -7.00725 -0.439147 0
M  V30 5335 H 504.06 -2.78537 1.05929 0
M  V30 5336 H 501.597 -1.3707 0.533872 0
M  V30 5337 H 503.555 -4.0279 -1.087 0
M  V30 5338 H 502.185 -2.92248 -1.37081 0
M  V30 5339 H 501.237 -3.69002 0.924203 0
M  V30 5340 H 502.549 -4.88717 0.997862 0
M  V30 5341 H 501.703 -5.96725 -1.09565 0
M  V30 5342 H 500.442 -4.71235 -1.25656 0
M  V30 5343 H 499.447 -5.41743 0.937812 0
M  V30 5344 H 500.672 -6.70381 1.08469 0
M  V30 5345 H 498.618 -6.45913 -1.14595 0
M  V30 5346 H 498.535 -7.55756 0.19209 0
M  V30 5347 H 499.803 -7.73263 -0.984124 0
M  V30 5348 N 504.032 -0.577932 -1.46621 0
M  V30 5349 C 505.309 0.00495287 -1.95599 0
M  V30 5350 C 505.689 1.46428 -1.5206 0
M  V30 5351 O 505.037 2.1517 -0.769046 0
M  V30 5352 C 505.247 -0.162114 -3.48623 0
M  V30 5353 C 506.595 -0.0274623 -4.24591 0
M  V30 5354 O 507.619 -0.0907067 -3.56084 0
M  V30 5355 O 506.478 0.1122 -5.46385 0
M  V30 5356 H 503.572 0.0525057 -0.825332 0
M  V30 5357 H 506.118 -0.645914 -1.56927 0
M  V30 5358 H 504.89 -1.17679 -3.73185 0
M  V30 5359 H 504.513 0.525407 -3.94113 0
M  V30 5360 N 505.51 1.54411 -0.315457 0
M  V30 5361 C 506.756 2.00716 0.289972 0
M  V30 5362 C 507.089 1.2034 1.5242 0
M  V30 5363 O 506.364 0.283579 1.92422 0
M  V30 5364 C 506.647 3.54507 0.632196 0
M  V30 5365 C 506.5 4.45615 -0.61218 0
M  V30 5366 C 507.819 4.15421 1.45305 0
M  V30 5367 H 504.938 0.729637 0.10392 0
M  V30 5368 H 507.58 1.8506 -0.430427 0
M  V30 5369 H 505.73 3.67979 1.24595 0
M  V30 5370 H 507.402 4.44026 -1.25053 0
M  V30 5371 H 505.645 4.15621 -1.24264 0
M  V30 5372 H 506.316 5.51022 -0.328379 0
M  V30 5373 H 508.792 4.05474 0.934331 0
M  V30 5374 H 507.668 5.23157 1.66127 0
M  V30 5375 H 507.929 3.68223 2.44671 0
M  V30 5376 N 506.988 0.0434614 1.5754 0
M  V30 5377 C 508.234 -0.632971 1.92669 0
M  V30 5378 C 508.567 -1.70947 0.921446 0
M  V30 5379 O 507.842 -1.94426 -0.0537202 0
M  V30 5380 C 508.125 -1.23619 3.38216 0
M  V30 5381 C 507.978 -0.168274 4.49485 0
M  V30 5382 C 509.297 -2.15008 3.84005 0
M  V30 5383 H 506.416 -0.228629 0.700641 0
M  V30 5384 H 509.058 0.103651 1.89717 0
M  V30 5385 H 507.208 -1.864 3.40863 0
M  V30 5386 H 508.88 0.463196 4.58969 0
M  V30 5387 H 507.123 0.504581 4.30855 0
M  V30 5388 H 507.794 -0.630218 5.48391 0
M  V30 5389 H 510.27 -1.62198 3.83185 0
M  V30 5390 H 509.146 -2.54161 4.86511 0
M  V30 5391 H 509.407 -3.04707 3.20322 0
M  V30 5392 N 508.466 -1.55915 -0.229846 0
M  V30 5393 C 509.399 -1.86734 -1.3117 0
M  V30 5394 C 510.377 -0.723947 -1.45595 0
M  V30 5395 O 511.561 -0.971462 -1.61539 0
M  V30 5396 C 508.688 -2.06707 -2.68309 0
M  V30 5397 C 507.734 -3.2938 -2.70944 0
M  V30 5398 S 508.567 -4.85547 -2.25842 0
M  V30 5399 C 509.723 -5.08546 -3.64873 0
M  V30 5400 H 509.956 -2.78204 -1.04832 0
M  V30 5401 H 507.489 -1.48243 -0.431681 0
M  V30 5402 H 509.447 -2.18898 -3.47267 0
M  V30 5403 H 508.108 -1.16049 -2.91876 0
M  V30 5404 H 507.301 -3.40374 -3.71701 0
M  V30 5405 H 506.903 -3.16004 -2.00044 0
M  V30 5406 H 509.195 -4.96935 -4.60502 0
M  V30 5407 H 510.138 -6.10465 -3.58801 0
M  V30 5408 H 510.546 -4.36314 -3.58176 0
M  V30 5409 N 509.944 0.496216 -1.49584 0
M  V30 5410 C 511.172 1.27394 -1.63029 0
M  V30 5411 C 511.587 1.86344 -0.303569 0
M  V30 5412 O 510.944 1.68057 0.711547 0
M  V30 5413 C 510.995 2.40077 -2.70269 0
M  V30 5414 O 510.716 1.83549 -3.97796 0
M  V30 5415 C 512.217 3.31372 -2.94462 0
M  V30 5416 H 509.437 0.386211 -0.54871 0
M  V30 5417 H 511.981 0.595163 -1.95648 0
M  V30 5418 H 510.136 3.03775 -2.40415 0
M  V30 5419 H 510.55 2.57561 -4.56905 0
M  V30 5420 H 512.024 4.06707 -3.73221 0
M  V30 5421 H 512.501 3.88654 -2.0456 0
M  V30 5422 H 513.107 2.73435 -3.25751 0
M  V30 5423 N 511.423 1.38739 0.74761 0
M  V30 5424 C 512.7 1.25791 1.49786 0
M  V30 5425 C 513.08 -0.138075 2.10648 0
M  V30 5426 O 512.428 -1.14815 1.9756 0
M  V30 5427 C 512.638 2.37265 2.55942 0
M  V30 5428 C 513.986 2.75978 3.22679 0
M  V30 5429 O 515.01 2.36621 2.6625 0
M  V30 5430 O 513.869 3.43867 4.24756 0
M  V30 5431 H 510.963 0.492251 0.664543 0
M  V30 5432 H 513.509 1.50582 0.782511 0
M  V30 5433 H 512.281 3.30644 2.0926 0
M  V30 5434 H 511.904 2.14071 3.35051 0
M  V30 5435 N 512.901 -0.976442 1.23707 0
M  V30 5436 C 514.126 -1.75875 1.09922 0
M  V30 5437 C 514.551 -1.84911 -0.34489 0
M  V30 5438 O 513.909 -1.31363 -1.24954 0
M  V30 5439 C 513.957 -3.16179 1.73388 0
M  V30 5440 O 513.061 -4.00124 0.99871 0
M  V30 5441 H 512.402 -0.540954 0.385052 0
M  V30 5442 H 514.932 -1.22546 1.6384 0
M  V30 5443 H 514.942 -3.66741 1.78788 0
M  V30 5444 H 513.617 -3.08917 2.78466 0
M  V30 5445 H 512.194 -3.58624 1.02193 0
M  V30 5446 N 514.379 -1.04941 -1.1758 0
M  V30 5447 C 515.289 -0.658826 -2.25159 0
M  V30 5448 C 516.305 0.318941 -1.71052 0
M  V30 5449 O 517.481 0.171669 -2.00667 0
M  V30 5450 C 514.546 -0.0369522 -3.4668 0
M  V30 5451 C 513.607 -1.06484 -4.15884 0
M  V30 5452 C 512.84 -0.472551 -5.31604 0
M  V30 5453 O 513.063 0.718736 -5.65854 0
M  V30 5454 O 511.997 -1.20557 -5.89703 0
M  V30 5455 H 515.823 -1.55533 -2.60851 0
M  V30 5456 H 513.408 -0.820819 -1.24832 0
M  V30 5457 H 515.29 0.308784 -4.20267 0
M  V30 5458 H 513.965 0.833238 -3.12792 0
M  V30 5459 H 512.872 -1.46253 -3.44327 0
M  V30 5460 H 514.205 -1.9061 -4.53794 0
M  V30 5461 N 515.857 1.33968 -0.830081 0
M  V30 5462 C 517.134 1.92554 -0.343858 0
M  V30 5463 C 517.514 1.7573 1.16971 0
M  V30 5464 O 516.862 1.14035 1.98011 0
M  V30 5465 C 517.072 3.40147 -0.781073 0
M  V30 5466 C 518.42 4.17299 -0.78402 0
M  V30 5467 O 519.444 3.48762 -0.724112 0
M  V30 5468 O 518.303 5.39631 -0.863739 0
M  V30 5469 H 515.397 0.821469 -0.0954827 0
M  V30 5470 H 517.943 1.42897 -0.915348 0
M  V30 5471 H 516.715 3.46225 -1.82329 0
M  V30 5472 H 516.338 3.97166 -0.18567 0
M  V30 5473 N 517.335 0.585699 1.46312 0
M  V30 5474 C 518.56 0.0762461 2.0726 0
M  V30 5475 C 518.985 -1.22071 1.43109 0
M  V30 5476 O 518.343 -1.73804 0.515942 0
M  V30 5477 C 518.391 -0.0729404 3.60526 0
M  V30 5478 O 517.495 -1.1287 3.96654 0
M  V30 5479 H 516.836 0.0641558 0.660893 0
M  V30 5480 H 519.366 0.809492 1.87905 0
M  V30 5481 H 519.376 -0.278158 4.07051 0
M  V30 5482 H 518.051 0.874188 4.06609 0
M  V30 5483 H 516.628 -0.901703 3.61834 0
M  V30 5484 N 518.813 -1.54241 0.323641 0
M  V30 5485 C 520.041 -2.04985 -0.280871 0
M  V30 5486 C 520.456 -1.19978 -1.45777 0
M  V30 5487 O 519.813 -0.230471 -1.81039 0
M  V30 5488 C 519.864 -3.54353 -0.715258 0
M  V30 5489 O 519.585 -4.36132 0.414817 0
M  V30 5490 C 521.086 -4.21189 -1.38257 0
M  V30 5491 H 518.306 -0.66851 -0.0577502 0
M  V30 5492 H 520.85 -1.99029 0.469852 0
M  V30 5493 H 519.005 -3.60596 -1.41596 0
M  V30 5494 H 519.419 -5.2445 0.0725227 0
M  V30 5495 H 520.893 -5.27154 -1.63745 0
M  V30 5496 H 521.37 -3.72307 -2.32989 0
M  V30 5497 H 521.976 -4.19085 -0.724447 0
M  V30 5498 N 520.291 -0.0518155 -1.57515 0
M  V30 5499 C 521.537 0.622745 -1.93002 0
M  V30 5500 C 521.87 1.70456 -0.930499 0
M  V30 5501 O 521.145 1.94452 0.0434086 0
M  V30 5502 C 521.428 1.21824 -3.38867 0
M  V30 5503 C 521.281 0.144434 -4.49568 0
M  V30 5504 C 522.6 2.12968 -3.8514 0
M  V30 5505 H 519.719 0.22491 -0.701844 0
M  V30 5506 H 522.361 -0.113711 -1.89659 0
M  V30 5507 H 520.511 1.8459 -3.41846 0
M  V30 5508 H 522.183 -0.48753 -4.58717 0
M  V30 5509 H 520.426 -0.527424 -4.30582 0
M  V30 5510 H 521.097 0.601127 -5.48717 0
M  V30 5511 H 523.573 1.60163 -3.8404 0
M  V30 5512 H 522.449 2.51578 -4.87852 0
M  V30 5513 H 522.71 3.03004 -3.21934 0
M  V30 5514 N 521.769 1.56035 0.221574 0
M  V30 5515 C 522.994 1.83476 0.967026 0
M  V30 5516 C 523.419 0.632139 1.7716 0
M  V30 5517 O 522.777 -0.419082 1.7639 0
M  V30 5518 C 522.825 3.08907 1.86034 0
M  V30 5519 O 521.929 2.876 2.95567 0
M  V30 5520 H 521.27 0.604913 0.273817 0
M  V30 5521 H 523.8 2.03247 0.234893 0
M  V30 5522 H 523.81 3.3901 2.27016 0
M  V30 5523 H 522.485 3.96068 1.26898 0
M  V30 5524 H 521.062 2.6873 2.58532 0
M  V30 5525 N 523.247 -0.488276 1.49845 0
M  V30 5526 C 524.496 -1.23826 1.59217 0
M  V30 5527 C 524.809 -1.93439 0.289966 0
M  V30 5528 O 526.015 -2.70229 0.262382 0
M  V30 5529 C 524.471 -2.24902 2.80976 0
M  V30 5530 C 524.079 -1.6117 4.18005 0
M  V30 5531 C 525.823 -3.00648 2.99685 0
M  V30 5532 C 523.73 -2.60431 5.3097 0
M  V30 5533 H 522.66 -0.465858 0.592868 0
M  V30 5534 H 525.311 -0.510645 1.76252 0
M  V30 5535 H 523.693 -3.0088 2.57463 0
M  V30 5536 H 524.867 -0.910968 4.51706 0
M  V30 5537 H 523.182 -0.97767 4.0476 0
M  V30 5538 H 525.779 -3.74903 3.81251 0
M  V30 5539 H 526.122 -3.5902 2.10738 0
M  V30 5540 H 526.655 -2.31784 3.23297 0
M  V30 5541 H 523.394 -2.06823 6.22017 0
M  V30 5542 H 522.914 -3.28707 5.01709 0
M  V30 5543 H 524.593 -3.22606 5.60834 0
M  V30 5544 N 524.725 -1.39134 -0.740242 0
M  V30 5545 C 525.657 -1.33332 -1.86428 0
M  V30 5546 C 526.67 -0.243042 -1.60976 0
M  V30 5547 O 527.859 -0.501608 -1.71307 0
M  V30 5548 C 524.959 -1.04626 -3.22346 0
M  V30 5549 C 524.132 -2.24826 -3.75196 0
M  V30 5550 C 523.191 -1.92659 -4.89662 0
M  V30 5551 O 522.217 -2.6529 -5.03597 0
M  V30 5552 N 523.419 -0.889575 -5.73643 0
M  V30 5553 H 526.184 -2.30196 -1.91911 0
M  V30 5554 H 523.745 -1.33168 -0.920756 0
M  V30 5555 H 525.737 -0.811347 -3.96484 0
M  V30 5556 H 524.307 -0.165129 -3.12164 0
M  V30 5557 H 523.527 -2.64301 -2.9247 0
M  V30 5558 H 524.815 -3.05015 -4.07239 0
M  V30 5559 H 524.213 -0.287529 -5.64969 0
M  V30 5560 H 522.77 -0.714557 -6.47871 0
M  V30 5561 N 526.204 0.969867 -1.24223 0
M  V30 5562 C 527.453 1.70687 -1.07466 0
M  V30 5563 C 527.766 1.91736 0.386861 0
M  V30 5564 O 528.972 2.62986 0.674581 0
M  V30 5565 C 527.428 3.07217 -1.87472 0
M  V30 5566 C 527.036 2.94018 -3.3802 0
M  V30 5567 C 528.78 3.84804 -1.79237 0
M  V30 5568 C 526.687 4.25844 -4.10379 0
M  V30 5569 H 525.617 0.640067 -0.398536 0
M  V30 5570 H 528.268 1.08092 -1.48285 0
M  V30 5571 H 526.65 3.70628 -1.39466 0
M  V30 5572 H 527.824 2.39632 -3.9359 0
M  V30 5573 H 526.139 2.29898 -3.47183 0
M  V30 5574 H 528.736 4.82417 -2.30603 0
M  V30 5575 H 529.079 4.09356 -0.757197 0
M  V30 5576 H 529.612 3.28115 -2.24912 0
M  V30 5577 H 526.351 4.06486 -5.14246 0
M  V30 5578 H 525.871 4.80054 -3.59594 0
M  V30 5579 H 527.55 4.94475 -4.17257 0
M  V30 5580 N 527.682 1.05563 1.17022 0
M  V30 5581 C 528.629 0.659893 2.21165 0
M  V30 5582 C 529.599 -0.339813 1.62587 0
M  V30 5583 O 530.784 -0.230378 1.89404 0
M  V30 5584 C 527.924 0.0447297 3.45071 0
M  V30 5585 C 527.037 1.09372 4.17926 0
M  V30 5586 C 526.172 0.445481 5.29329 0
M  V30 5587 C 525.211 1.47852 5.93975 0
M  V30 5588 N 524.348 0.854172 6.96885 0
M  V30 5589 H 529.188 1.55243 2.54369 0
M  V30 5590 H 526.725 0.776336 1.24946 0
M  V30 5591 H 528.683 -0.329404 4.15898 0
M  V30 5592 H 527.313 -0.811244 3.1244 0
M  V30 5593 H 526.365 1.58564 3.45777 0
M  V30 5594 H 527.677 1.87773 4.62107 0
M  V30 5595 H 526.831 0.0179688 6.06697 0
M  V30 5596 H 525.57 -0.370481 4.86291 0
M  V30 5597 H 524.575 1.91601 5.15334 0
M  V30 5598 H 525.8 2.29645 6.39093 0
M  V30 5599 H 523.746 0.0587882 6.55974 0
M  V30 5600 H 523.663 1.57567 7.39397 0
M  V30 5601 H 524.931 0.451559 7.78191 0
M  V30 5602 N 529.16 -1.33526 0.837174 0
M  V30 5603 C 530.09 -2.31764 0.284206 0
M  V30 5604 C 531.071 -1.58896 -0.607142 0
M  V30 5605 O 532.256 -1.86798 -0.531047 0
M  V30 5606 C 529.386 -3.43029 -0.542962 0
M  V30 5607 C 528.34 -4.27255 0.252451 0
M  V30 5608 C 527.666 -5.3012 -0.69836 0
M  V30 5609 C 528.966 -5.01229 1.46858 0
M  V30 5610 H 530.66 -2.78262 1.10502 0
M  V30 5611 H 528.206 -1.3378 0.532812 0
M  V30 5612 H 530.159 -4.1078 -0.940096 0
M  V30 5613 H 528.883 -2.95216 -1.39697 0
M  V30 5614 H 527.542 -3.61127 0.631124 0
M  V30 5615 H 527.19 -4.78564 -1.54872 0
M  V30 5616 H 526.89 -5.87353 -0.170274 0
M  V30 5617 H 528.414 -6.00737 -1.09305 0
M  V30 5618 H 529.828 -5.61756 1.14469 0
M  V30 5619 H 528.225 -5.68104 1.93333 0
M  V30 5620 H 529.295 -4.301 2.23924 0
M  V30 5621 N 530.638 -0.59345 -1.46 0
M  V30 5622 C 531.548 0.135817 -2.34207 0
M  V30 5623 C 532.564 0.875008 -1.50398 0
M  V30 5624 O 533.74 0.835778 -1.83239 0
M  V30 5625 C 530.805 1.12977 -3.27776 0
M  V30 5626 C 529.866 0.394081 -4.27487 0
M  V30 5627 C 529.099 1.34068 -5.16586 0
M  V30 5628 O 529.322 2.5778 -5.08828 0
M  V30 5629 O 528.256 0.845426 -5.95933 0
M  V30 5630 H 532.082 -0.588691 -2.9794 0
M  V30 5631 H 529.667 -0.353784 -1.45151 0
M  V30 5632 H 531.549 1.70261 -3.85473 0
M  V30 5633 H 530.224 1.83556 -2.66625 0
M  V30 5634 H 529.131 -0.220869 -3.73447 0
M  V30 5635 H 530.464 -0.270939 -4.91454 0
M  V30 5636 N 532.116 1.54067 -0.331816 0
M  V30 5637 C 533.064 2.26105 0.54582 0
M  V30 5638 C 534.058 1.27816 1.11173 0
M  V30 5639 O 535.264 1.45565 1.05882 0
M  V30 5640 H 531.639 0.726363 0.194683 0
M  V30 5641 H 533.61 2.98282 -0.083931 0
M  V30 5642 C 532.359 3.03814 1.69092 0
M  V30 5643 H 531.682 3.79269 1.26473 0
M  V30 5644 H 533.122 3.57453 2.28043 0
M  V30 5645 C 531.581 2.12606 2.61343 0
M  V30 5646 O 532.111 1.71437 3.6328 0
M  V30 5647 N 530.317 1.77925 2.29763 0
M  V30 5648 H 529.864 2.11602 1.46909 0
M  V30 5649 H 529.822 1.1718 2.91747 0
M  V30 5650 N 533.594 0.0601682 1.57485 0
M  V30 5651 C 534.504 -0.926121 2.15546 0
M  V30 5652 C 535.52 -1.33532 1.11558 0
M  V30 5653 O 536.696 -1.4104 1.4377 0
M  V30 5654 C 533.761 -2.17952 2.69625 0
M  V30 5655 C 532.822 -1.82783 3.88444 0
M  V30 5656 C 532.055 -3.02148 4.39935 0
M  V30 5657 O 532.278 -4.15803 3.90466 0
M  V30 5658 O 531.212 -2.82639 5.31412 0
M  V30 5659 H 535.038 -0.462289 3.00161 0
M  V30 5660 H 532.623 -0.162246 1.48516 0
M  V30 5661 H 534.505 -2.91474 3.04337 0
M  V30 5662 H 533.18 -2.63456 1.88077 0
M  V30 5663 H 532.087 -1.06549 3.58606 0
M  V30 5664 H 533.42 -1.42072 4.7125 0
M  V30 5665 N 535.072 -1.5615 -0.213296 0
M  V30 5666 C 536.32 -1.79191 -0.934612 0
M  V30 5667 C 536.641 -0.630112 -1.84539 0
M  V30 5668 O 535.911 0.35257 -1.92701 0
M  V30 5669 H 534.491 -0.660937 -0.348097 0
M  V30 5670 H 537.153 -1.93618 -0.22317 0
M  V30 5671 H 536.249 -2.71656 -1.53654 0
M  V30 5672 N 536.55 0.480323 -1.50102 0
M  V30 5673 C 537.775 1.26126 -1.64642 0
M  V30 5674 C 538.2 1.85257 -0.325823 0
M  V30 5675 O 537.558 1.66854 0.709194 0
M  V30 5676 C 537.606 2.35243 -2.73301 0
M  V30 5677 O 536.71 3.39646 -2.33911 0
M  V30 5678 H 536.051 0.371463 -0.550374 0
M  V30 5679 H 538.581 0.572696 -1.96421 0
M  V30 5680 H 538.591 2.80695 -2.96098 0
M  V30 5681 H 537.266 1.91574 -3.6915 0
M  V30 5682 H 535.843 2.99969 -2.21525 0
M  V30 5683 N 538.028 1.39524 0.732853 0
M  V30 5684 C 539.305 1.27373 1.48444 0
M  V30 5685 C 539.685 -0.115725 2.10783 0
M  V30 5686 O 539.033 -1.12713 1.98766 0
M  V30 5687 C 539.243 2.39966 2.53412 0
M  V30 5688 C 540.591 2.79384 3.19733 0
M  V30 5689 O 541.615 2.39431 2.63725 0
M  V30 5690 O 540.474 3.48353 4.21085 0
M  V30 5691 H 537.568 0.499272 0.659285 0
M  V30 5692 H 540.114 1.51403 0.766496 0
M  V30 5693 H 538.886 3.32845 2.05742 0
M  V30 5694 H 538.509 2.17612 3.32762 0
M  V30 5695 N 539.506 -0.963266 1.24736 0
M  V30 5696 C 540.416 -2.09246 1.06082 0
M  V30 5697 C 541.432 -1.74 0.000363101 0
M  V30 5698 O 542.608 -2.0041 0.199479 0
M  V30 5699 C 539.673 -3.40115 0.672498 0
M  V30 5700 C 538.734 -3.89282 1.80993 0
M  V30 5701 C 537.967 -5.13905 1.44004 0
M  V30 5702 O 538.19 -5.69434 0.331835 0
M  V30 5703 O 537.124 -5.57566 2.26723 0
M  V30 5704 H 540.95 -2.27881 2.00759 0
M  V30 5705 H 538.535 -1.07649 1.03595 0
M  V30 5706 H 540.417 -4.18797 0.467668 0
M  V30 5707 H 539.092 -3.22771 -0.245102 0
M  V30 5708 H 537.999 -3.11642 2.06955 0
M  V30 5709 H 539.332 -4.1111 2.70646 0
M  V30 5710 N 540.985 -1.06182 -1.16461 0
M  V30 5711 C 542.262 -0.691364 -1.82974 0
M  V30 5712 C 542.642 0.827377 -1.9421 0
M  V30 5713 O 541.99 1.73723 -1.48434 0
M  V30 5714 C 542.2 -1.39199 -3.20038 0
M  V30 5715 C 543.548 -1.53647 -3.95825 0
M  V30 5716 O 544.572 -1.35181 -3.29552 0
M  V30 5717 O 543.431 -1.83932 -5.14618 0
M  V30 5718 H 540.525 -0.244605 -0.789998 0
M  V30 5719 H 543.071 -1.16203 -1.23673 0
M  V30 5720 H 541.843 -2.42766 -3.06888 0
M  V30 5721 H 541.466 -0.911335 -3.87015 0
M  V30 5722 N 542.463 1.3308 -0.844243 0
M  V30 5723 C 543.712 1.96868 -0.438833 0
M  V30 5724 C 544.025 1.67599 1.00846 0
M  V30 5725 O 545.231 2.25043 1.51881 0
M  V30 5726 C 543.687 3.5234 -0.73377 0
M  V30 5727 C 543.295 3.90481 -2.1961 0
M  V30 5728 C 545.039 4.22653 -0.395574 0
M  V30 5729 C 542.946 5.38954 -2.43481 0
M  V30 5730 H 541.876 0.736749 -0.160364 0
M  V30 5731 H 544.527 1.51623 -1.03358 0
M  V30 5732 H 542.909 3.95941 -0.068589 0
M  V30 5733 H 544.083 3.57922 -2.90221 0
M  V30 5734 H 542.398 3.33165 -2.4978 0
M  V30 5735 H 544.995 5.31848 -0.551477 0
M  V30 5736 H 545.338 4.11004 0.661921 0
M  V30 5737 H 545.871 3.84601 -1.01621 0
M  V30 5738 H 542.61 5.55612 -3.47816 0
M  V30 5739 H 542.13 5.72954 -1.77437 0
M  V30 5740 H 543.809 6.05907 -2.26905 0
M  V30 5741 N 543.941 0.601185 1.45683 0
M  V30 5742 C 544.851 -0.123395 2.34275 0
M  V30 5743 C 545.867 -0.86702 1.5086 0
M  V30 5744 O 547.043 -0.826049 1.8368 0
M  V30 5745 C 544.108 -1.11237 3.2837 0
M  V30 5746 C 543.169 -0.371405 4.2769 0
M  V30 5747 C 542.402 -1.31327 5.1729 0
M  V30 5748 O 542.625 -2.55078 5.10188 0
M  V30 5749 O 541.559 -0.813811 5.96373 0
M  V30 5750 H 545.385 0.604483 2.97623 0
M  V30 5751 H 542.97 0.361477 1.44961 0
M  V30 5752 H 544.852 -1.68214 3.8637 0
M  V30 5753 H 543.527 -1.82139 2.67595 0
M  V30 5754 H 542.434 0.24067 3.73325 0
M  V30 5755 H 543.767 0.296998 4.91303 0
M  V30 5756 N 545.419 -1.53889 0.339982 0
M  V30 5757 C 546.647 -2.05271 -0.259114 0
M  V30 5758 C 547.062 -1.21517 -1.44496 0
M  V30 5759 O 546.419 -0.24966 -1.80784 0
M  V30 5760 C 546.47 -3.55092 -0.677634 0
M  V30 5761 O 546.191 -4.35667 0.461051 0
M  V30 5762 C 547.692 -4.22631 -1.33782 0
M  V30 5763 H 544.912 -0.669085 -0.0506566 0
M  V30 5764 H 547.456 -1.9852 0.490935 0
M  V30 5765 H 545.611 -3.62077 -1.37763 0
M  V30 5766 H 546.025 -5.24343 0.128144 0
M  V30 5767 H 547.499 -5.28861 -1.58145 0
M  V30 5768 H 547.976 -3.74758 -2.29027 0
M  V30 5769 H 548.582 -4.19829 -0.679957 0
M  V30 5770 N 546.897 -0.0685191 -1.57451 0
M  V30 5771 C 548.174 0.642167 -1.84758 0
M  V30 5772 C 548.554 1.87991 -0.960344 0
M  V30 5773 O 547.902 2.28485 -0.0257894 0
M  V30 5774 C 548.112 0.982946 -3.34872 0
M  V30 5775 C 549.46 1.35784 -4.02303 0
M  V30 5776 O 550.484 1.07477 -3.39598 0
M  V30 5777 O 549.343 1.88681 -5.12895 0
M  V30 5778 H 546.437 0.318625 -0.763156 0
M  V30 5779 H 548.983 -0.0992015 -1.6941 0
M  V30 5780 H 547.755 0.10372 -3.91163 0
M  V30 5781 H 547.378 1.78119 -3.55471 0
M  V30 5782 N 548.375 1.56261 0.205012 0
M  V30 5783 C 549.621 1.80306 0.9283 0
M  V30 5784 C 549.954 0.640932 1.83319 0
M  V30 5785 O 549.229 -0.359032 1.91158 0
M  V30 5786 C 549.512 3.14547 1.75306 0
M  V30 5787 C 549.365 4.41236 0.873562 0
M  V30 5788 C 550.684 3.45382 2.72762 0
M  V30 5789 H 547.803 0.655929 0.336044 0
M  V30 5790 H 550.445 1.88984 0.196211 0
M  V30 5791 H 548.595 3.0728 2.37721 0
M  V30 5792 H 550.267 4.60539 0.264887 0
M  V30 5793 H 548.51 4.33427 0.179773 0
M  V30 5794 H 549.181 5.31639 1.48541 0
M  V30 5795 H 551.657 3.52884 2.20481 0
M  V30 5796 H 550.533 4.40449 3.2756 0
M  V30 5797 H 550.794 2.68377 3.51321 0
M  V30 5798 N 549.853 -0.472356 1.50355 0
M  V30 5799 C 550.783 -1.57859 1.72055 0
M  V30 5800 C 551.764 -1.60283 0.569505 0
M  V30 5801 O 552.949 -1.7657 0.808503 0
M  V30 5802 C 550.079 -2.96191 1.81351 0
M  V30 5803 C 549.033 -3.08633 2.96529 0
M  V30 5804 C 548.359 -4.486 2.90968 0
M  V30 5805 C 549.659 -2.85969 4.37057 0
M  V30 5806 H 551.353 -1.39953 2.64676 0
M  V30 5807 H 548.899 -0.671846 1.27367 0
M  V30 5808 H 550.852 -3.73507 1.95117 0
M  V30 5809 H 549.576 -3.15251 0.853502 0
M  V30 5810 H 548.235 -2.33749 2.82413 0
M  V30 5811 H 547.883 -4.64577 1.92815 0
M  V30 5812 H 547.583 -4.57861 3.68289 0
M  V30 5813 H 549.107 -5.27938 3.0678 0
M  V30 5814 H 550.521 -3.53036 4.51706 0
M  V30 5815 H 548.918 -3.06677 5.15819 0
M  V30 5816 H 549.988 -1.81838 4.49514 0
M  V30 5817 N 551.331 -1.39911 -0.725443 0
M  V30 5818 C 552.561 -1.40744 -1.51244 0
M  V30 5819 C 552.969 -0.00275403 -1.892 0
M  V30 5820 O 552.312 0.981299 -1.55294 0
M  V30 5821 C 552.374 -2.22527 -2.82351 0
M  V30 5822 C 552.038 -3.71053 -2.66774 0
M  V30 5823 C 553.035 -4.63916 -2.34686 0
M  V30 5824 C 550.72 -4.14753 -2.83347 0
M  V30 5825 C 552.714 -5.98463 -2.19366 0
M  V30 5826 C 550.401 -5.49372 -2.67644 0
M  V30 5827 C 551.399 -6.41042 -2.357 0
M  V30 5828 O 551.087 -7.73181 -2.20107 0
M  V30 5829 H 550.819 -0.482314 -0.473655 0
M  V30 5830 H 553.373 -1.84472 -0.903284 0
M  V30 5831 H 551.603 -1.73563 -3.45562 0
M  V30 5832 H 553.292 -2.15421 -3.44018 0
M  V30 5833 H 554.058 -4.31453 -2.21525 0
M  V30 5834 H 549.937 -3.43728 -3.072 0
M  V30 5835 H 553.481 -6.69979 -1.94354 0
M  V30 5836 H 549.378 -5.81424 -2.80387 0
M  V30 5837 H 550.146 -7.84008 -2.35103 0
M  V30 5838 N 552.809 0.956637 -1.25245 0
M  V30 5839 C 554.034 1.74104 -1.12706 0
M  V30 5840 C 554.459 1.85436 0.315429 0
M  V30 5841 O 553.817 1.33334 1.22848 0
M  V30 5842 C 553.865 3.1338 -1.78396 0
M  V30 5843 O 552.969 3.98485 -1.06224 0
M  V30 5844 H 552.31 0.53476 -0.393609 0
M  V30 5845 H 554.84 1.19924 -1.65769 0
M  V30 5846 H 554.85 3.6385 -1.846 0
M  V30 5847 H 553.525 3.04448 -2.83345 0
M  V30 5848 H 552.102 3.56952 -1.07886 0
M  V30 5849 N 554.287 1.06798 1.15896 0
M  V30 5850 C 555.698 0.811355 1.68149 0
M  V30 5851 C 556.049 -0.664339 1.8461 0
M  V30 5852 O 555.174 -1.51485 1.54535 0
M  V30 5853 C 555.769 1.46624 3.05429 0
M  V30 5854 C 554.328 1.25726 3.54781 0
M  V30 5855 C 553.475 1.53949 2.3064 0
M  V30 5856 H 556.426 1.23078 1.00187 0
M  V30 5857 H 556.447 0.88437 3.7008 0
M  V30 5858 H 555.959 2.54025 2.93416 0
M  V30 5859 H 554.06 0.20322 3.72045 0
M  V30 5860 H 554.173 1.97354 4.36564 0
M  V30 5861 H 552.537 0.96025 2.35905 0
M  V30 5862 H 553.32 2.6252 2.2122 0
M  V30 5863 N 555.766 -1.3263 0.851289 0
M  V30 5864 C 556.698 -2.27824 0.250757 0
M  V30 5865 C 557.711 -1.52285 -0.575598 0
M  V30 5866 O 558.9 -1.73946 -0.400638 0
M  V30 5867 C 556 -3.3232 -0.664571 0
M  V30 5868 C 555.173 -4.37221 0.125187 0
M  V30 5869 C 554.232 -5.21314 -0.715385 0
M  V30 5870 O 553.258 -5.69002 -0.150111 0
M  V30 5871 N 554.46 -5.43823 -2.03069 0
M  V30 5872 H 557.225 -2.79997 1.06873 0
M  V30 5873 H 554.786 -1.45455 0.710943 0
M  V30 5874 H 556.778 -3.85486 -1.23216 0
M  V30 5875 H 555.348 -2.80331 -1.38323 0
M  V30 5876 H 554.568 -3.84384 0.874199 0
M  V30 5877 H 555.856 -5.04399 0.667774 0
M  V30 5878 H 555.254 -5.06803 -2.51332 0
M  V30 5879 H 553.811 -5.99998 -2.54648 0
M  V30 5880 N 557.244 -0.608902 -1.45362 0
M  V30 5881 C 558.177 0.158059 -2.27652 0
M  V30 5882 C 559.155 0.872397 -1.37215 0
M  V30 5883 O 560.339 0.881002 -1.66645 0
M  V30 5884 C 557.466 1.22896 -3.15617 0
M  V30 5885 C 556.512 0.617607 -4.22005 0
M  V30 5886 S 557.345 -0.575518 -5.32398 0
M  V30 5887 C 558.501 0.495938 -6.23932 0
M  V30 5888 H 558.734 -0.540095 -2.92353 0
M  V30 5889 H 556.267 -0.396456 -1.49223 0
M  V30 5890 H 558.225 1.84195 -3.66855 0
M  V30 5891 H 556.886 1.89919 -2.50179 0
M  V30 5892 H 556.079 1.42341 -4.83482 0
M  V30 5893 H 555.681 0.0797273 -3.73915 0
M  V30 5894 H 557.973 1.37465 -6.63408 0
M  V30 5895 H 558.916 -0.0827108 -7.08052 0
M  V30 5896 H 559.324 0.811856 -5.58631 0
M  V30 5897 N 558.722 1.53707 -0.348139 0
M  V30 5898 C 559.685 2.23812 0.494058 0
M  V30 5899 C 560.685 1.23989 1.02388 0
M  V30 5900 O 561.875 1.48395 0.912396 0
M  V30 5901 C 559.007 2.96133 1.68872 0
M  V30 5902 H 560.2 2.99663 -0.119141 0
M  V30 5903 H 557.753 1.55983 -0.0995539 0
M  V30 5904 H 558.488 2.24481 2.34049 0
M  V30 5905 H 558.273 3.69357 1.31596 0
M  V30 5906 H 559.763 3.49475 2.28597 0
M  V30 5907 N 560.2 0.0768682 1.57412 0
M  V30 5908 C 561.13 -0.886026 2.16037 0
M  V30 5909 C 562.111 -1.30691 1.08876 0
M  V30 5910 O 563.296 -1.37705 1.36934 0
M  V30 5911 C 560.426 -2.1518 2.72608 0
M  V30 5912 C 559.38 -1.87015 3.8498 0
M  V30 5913 C 558.706 -3.20266 4.28175 0
M  V30 5914 C 560.006 -1.17143 5.08994 0
M  V30 5915 H 561.7 -0.397642 2.96748 0
M  V30 5916 H 559.246 -0.189823 1.42743 0
M  V30 5917 H 561.199 -2.82962 3.12266 0
M  V30 5918 H 559.923 -2.66269 1.89125 0
M  V30 5919 H 558.582 -1.21636 3.45833 0
M  V30 5920 H 558.23 -3.69207 3.41607 0
M  V30 5921 H 557.93 -3.0221 5.03927 0
M  V30 5922 H 559.454 -3.89237 4.70454 0
M  V30 5923 H 560.868 -1.75003 5.45937 0
M  V30 5924 H 559.265 -1.09328 5.90057 0
M  V30 5925 H 560.335 -0.151295 4.84664 0
M  V30 5926 N 561.678 -1.56367 -0.196722 0
M  V30 5927 C 562.625 -1.94417 -1.24382 0
M  V30 5928 C 563.595 -0.804543 -1.45315 0
M  V30 5929 O 564.78 -1.06256 -1.58475 0
M  V30 5930 C 561.92 -2.28757 -2.58388 0
M  V30 5931 C 561.033 -3.55775 -2.45047 0
M  V30 5932 C 560.168 -3.79445 -3.71746 0
M  V30 5933 C 559.207 -4.99894 -3.53231 0
M  V30 5934 N 558.344 -5.19826 -4.71938 0
M  V30 5935 H 563.184 -2.83691 -0.912338 0
M  V30 5936 H 560.721 -1.40392 -0.439135 0
M  V30 5937 H 562.679 -2.46682 -3.36457 0
M  V30 5938 H 561.309 -1.42625 -2.89582 0
M  V30 5939 H 560.361 -3.45905 -1.58284 0
M  V30 5940 H 561.673 -4.44 -2.27299 0
M  V30 5941 H 560.827 -3.97601 -4.58256 0
M  V30 5942 H 559.566 -2.89546 -3.92446 0
M  V30 5943 H 558.571 -4.81662 -2.65107 0
M  V30 5944 H 559.796 -5.913 -3.33978 0
M  V30 5945 H 557.742 -4.32875 -4.92905 0
M  V30 5946 H 557.659 -6.02228 -4.57009 0
M  V30 5947 H 558.927 -5.42439 -5.59803 0
M  V30 5948 N 563.156 0.464375 -1.50603 0
M  V30 5949 C 564.086 1.56944 -1.72889 0
M  V30 5950 C 565.067 1.59979 -0.577997 0
M  V30 5951 O 566.252 1.76138 -0.817855 0
M  V30 5952 C 563.382 2.95225 -1.8292 0
M  V30 5953 C 562.336 3.07056 -2.98162 0
M  V30 5954 C 561.662 4.47051 -2.93343 0
M  V30 5955 C 562.962 2.83648 -4.38567 0
M  V30 5956 H 564.656 1.38547 -2.65415 0
M  V30 5957 H 562.202 0.665082 -1.27721 0
M  V30 5958 H 564.155 3.72467 -1.97095 0
M  V30 5959 H 562.879 3.14793 -0.870209 0
M  V30 5960 H 561.538 2.32248 -2.83648 0
M  V30 5961 H 561.186 4.63547 -1.95276 0
M  V30 5962 H 560.886 4.55902 -3.70712 0
M  V30 5963 H 562.41 5.26304 -3.09575 0
M  V30 5964 H 563.824 3.50636 -4.53572 0
M  V30 5965 H 562.221 3.03937 -5.17438 0
M  V30 5966 H 563.291 1.79451 -4.50472 0
M  V30 5967 N 564.634 1.40294 0.718013 0
M  V30 5968 C 565.597 1.4012 1.81381 0
M  V30 5969 C 566.597 0.295405 1.58063 0
M  V30 5970 O 567.787 0.554187 1.6515 0
M  V30 5971 C 564.919 1.19056 3.19435 0
M  V30 5972 H 566.112 2.37645 1.82933 0
M  V30 5973 H 563.665 1.26107 0.923405 0
M  V30 5974 H 564.4 0.222809 3.23534 0
M  V30 5975 H 564.185 1.99152 3.37758 0
M  V30 5976 H 565.675 1.21716 3.99468 0
M  V30 5977 N 566.112 -0.949982 1.2575 0
M  V30 5978 C 567.042 -2.06483 1.09028 0
M  V30 5979 C 568.023 -1.701 -0.00201532 0
M  V30 5980 O 569.208 -1.93469 0.168383 0
M  V30 5981 C 566.338 -3.39899 0.71316 0
M  V30 5982 C 565.292 -3.90309 1.75621 0
M  V30 5983 C 564.618 -5.20274 1.23365 0
M  V30 5984 C 565.918 -4.16169 3.15596 0
M  V30 5985 H 567.612 -2.20731 2.02283 0
M  V30 5986 H 565.158 -1.06066 0.973964 0
M  V30 5987 H 567.111 -4.17346 0.58309 0
M  V30 5988 H 565.835 -3.25602 -0.255091 0
M  V30 5989 H 564.494 -3.15035 1.8748 0
M  V30 5990 H 564.142 -5.02351 0.255491 0
M  V30 5991 H 563.842 -5.54971 1.93082 0
M  V30 5992 H 565.366 -6.00314 1.11607 0
M  V30 5993 H 566.78 -4.84259 3.06864 0
M  V30 5994 H 565.177 -4.62131 3.82825 0
M  V30 5995 H 566.247 -3.22273 3.6231 0
M  V30 5996 N 567.59 -1.07411 -1.15328 0
M  V30 5997 C 568.818 -0.818782 -1.90009 0
M  V30 5998 C 569.233 0.628072 -1.78047 0
M  V30 5999 O 568.59 1.43085 -1.13282 0
M  V30 6000 C 568.641 -1.21874 -3.40337 0
M  V30 6001 O 568.362 -2.60883 -3.51954 0
M  V30 6002 C 569.863 -0.992796 -4.3204 0
M  V30 6003 H 567.083 -0.296007 -0.60218 0
M  V30 6004 H 569.627 -1.43073 -1.46117 0
M  V30 6005 H 567.782 -0.651103 -3.81889 0
M  V30 6006 H 568.196 -2.77216 -4.45255 0
M  V30 6007 H 569.67 -1.32215 -5.35932 0
M  V30 6008 H 570.147 0.0708331 -4.39143 0
M  V30 6009 H 570.753 -1.54537 -3.9623 0
M  V30 6010 N 569.068 1.32177 -0.85831 0
M  V30 6011 C 569.978 2.32561 -0.308606 0
M  V30 6012 C 570.994 1.64209 0.575462 0
M  V30 6013 O 572.17 1.95719 0.474961 0
M  V30 6014 C 569.235 3.43207 0.490909 0
M  V30 6015 C 568.296 4.27243 -0.419733 0
M  V30 6016 C 567.529 5.32605 0.341719 0
M  V30 6017 O 567.752 5.48332 1.57125 0
M  V30 6018 O 566.686 6.0118 -0.294379 0
M  V30 6019 H 570.512 2.81477 -1.14037 0
M  V30 6020 H 568.097 1.35866 -0.621349 0
M  V30 6021 H 569.979 4.10677 0.944574 0
M  V30 6022 H 568.654 2.96474 1.29941 0
M  V30 6023 H 567.561 3.62569 -0.921652 0
M  V30 6024 H 568.894 4.7751 -1.19352 0
M  V30 6025 N 570.547 0.616602 1.45037 0
M  V30 6026 C 571.793 0.123965 2.03022 0
M  V30 6027 C 572.148 -1.23508 1.47525 0
M  V30 6028 O 571.441 -1.80453 0.643981 0
M  V30 6029 C 571.635 0.0356829 3.57382 0
M  V30 6030 C 571.464 1.38462 4.27853 0
M  V30 6031 C 570.234 1.96766 4.65415 0
M  V30 6032 C 572.432 2.31536 4.59234 0
M  V30 6033 N 570.414 3.25046 5.20786 0
M  V30 6034 C 571.785 3.4442 5.15533 0
M  V30 6035 C 573.84 2.30796 4.41178 0
M  V30 6036 C 572.543 4.56742 5.55679 0
M  V30 6037 C 574.569 3.42171 4.82362 0
M  V30 6038 C 573.931 4.53778 5.38762 0
M  V30 6039 H 570.03 0.0889428 0.776925 0
M  V30 6040 H 572.614 0.816925 1.76733 0
M  V30 6041 H 570.785 -0.62652 3.83314 0
M  V30 6042 H 572.517 -0.464443 4.02026 0
M  V30 6043 H 569.272 1.4987 4.49261 0
M  V30 6044 H 569.696 3.90592 5.52962 0
M  V30 6045 H 574.338 1.45765 3.96878 0
M  V30 6046 H 572.056 5.42491 5.9894 0
M  V30 6047 H 575.642 3.42757 4.70116 0
M  V30 6048 H 574.522 5.38536 5.70043 0
M  V30 6049 N 572.025 -1.5352 0.356285 0
M  V30 6050 C 572.955 -2.28372 -0.486661 0
M  V30 6051 C 573.936 -1.30432 -1.09185 0
M  V30 6052 O 575.121 -1.59291 -1.11085 0
M  V30 6053 C 572.251 -3.06604 -1.63129 0
M  V30 6054 C 571.205 -4.12154 -1.15381 0
M  V30 6055 C 570.531 -4.78415 -2.38796 0
M  V30 6056 C 571.831 -5.21724 -0.245179 0
M  V30 6057 H 573.525 -2.99083 0.137797 0
M  V30 6058 H 571.071 -1.43841 0.0677134 0
M  V30 6059 H 573.024 -3.57712 -2.22755 0
M  V30 6060 H 571.748 -2.33568 -2.28284 0
M  V30 6061 H 570.407 -3.61978 -0.580294 0
M  V30 6062 H 570.055 -4.01959 -3.02387 0
M  V30 6063 H 569.755 -5.49734 -2.07524 0
M  V30 6064 H 571.279 -5.32313 -2.99125 0
M  V30 6065 H 572.693 -5.68391 -0.748646 0
M  V30 6066 H 571.09 -6.00095 -0.0237608 0
M  V30 6067 H 572.16 -4.79596 0.715229 0
M  V30 6068 N 573.503 -0.0852151 -1.57369 0
M  V30 6069 C 574.435 0.907099 -2.10486 0
M  V30 6070 C 575.448 1.25259 -1.03991 0
M  V30 6071 O 576.637 1.20743 -1.31467 0
M  V30 6072 C 573.737 2.21908 -2.56145 0
M  V30 6073 C 572.91 2.05042 -3.86363 0
M  V30 6074 C 571.969 3.19664 -4.17973 0
M  V30 6075 O 570.995 2.94062 -4.87356 0
M  V30 6076 N 572.197 4.45151 -3.72587 0
M  V30 6077 H 574.962 0.453505 -2.96249 0
M  V30 6078 H 572.523 0.100157 -1.6159 0
M  V30 6079 H 574.515 2.97519 -2.74343 0
M  V30 6080 H 573.085 2.58723 -1.75446 0
M  V30 6081 H 572.305 1.13819 -3.77411 0
M  V30 6082 H 573.593 1.91039 -4.71574 0
M  V30 6083 H 572.991 4.68834 -3.16561 0
M  V30 6084 H 571.548 5.17744 -3.9596 0
M  V30 6085 N 574.981 1.5647 0.188427 0
M  V30 6086 C 575.891 1.98285 1.2538 0
M  V30 6087 C 576.907 0.891535 1.49424 0
M  V30 6088 O 578.083 1.19782 1.61908 0
M  V30 6089 C 575.148 2.31965 2.57669 0
M  V30 6090 C 574.209 3.54838 2.41638 0
M  V30 6091 C 573.442 3.86901 3.67618 0
M  V30 6092 O 573.665 3.20163 4.72072 0
M  V30 6093 O 572.599 4.80309 3.62749 0
M  V30 6094 H 576.425 2.89145 0.928912 0
M  V30 6095 H 574.01 1.44112 0.393955 0
M  V30 6096 H 575.892 2.54673 3.35737 0
M  V30 6097 H 574.567 1.44271 2.89771 0
M  V30 6098 H 573.474 3.37369 1.61658 0
M  V30 6099 H 574.807 4.43019 2.14465 0
M  V30 6100 N 576.459 -0.456382 1.50847 0
M  V30 6101 C 577.706 -1.20736 1.62571 0
M  V30 6102 C 578.034 -1.9163 0.332904 0
M  V30 6103 O 577.289 -1.8343 -0.682058 0
M  V30 6104 C 577.588 -2.26336 2.76599 0
M  V30 6105 C 577.254 -1.7259 4.16562 0
M  V30 6106 C 575.916 -1.57654 4.54641 0
M  V30 6107 C 578.268 -1.32877 5.03977 0
M  V30 6108 C 575.596 -1.0145 5.77862 0
M  V30 6109 C 577.948 -0.7811 6.27759 0
M  V30 6110 C 576.612 -0.618488 6.64628 0
M  V30 6111 H 575.882 -0.441803 0.594888 0
M  V30 6112 H 578.529 -0.501169 1.84826 0
M  V30 6113 H 576.834 -3.0292 2.48489 0
M  V30 6114 H 578.531 -2.84227 2.82871 0
M  V30 6115 H 575.121 -1.85187 3.86528 0
M  V30 6116 H 579.305 -1.43245 4.75179 0
M  V30 6117 H 574.561 -0.876109 6.0509 0
M  V30 6118 H 578.735 -0.464783 6.94847 0
M  V30 6119 H 576.362 -0.180838 7.59985 0
M  V30 6120 N 577.937 -1.40673 -0.710563 0
M  V30 6121 C 579.185 -1.38947 -1.46759 0
M  V30 6122 C 579.506 0.00572879 -1.94999 0
M  V30 6123 O 578.776 0.961358 -1.70689 0
M  V30 6124 H 577.356 -0.5114 -0.544499 0
M  V30 6125 H 580.018 -1.75773 -0.842012 0
M  V30 6126 H 579.114 -2.06745 -2.33801 0
M  V30 6127 N 579.415 0.9433 -1.26252 0
M  V30 6128 C 580.661 1.69175 -1.11837 0
M  V30 6129 C 580.994 1.91238 0.337891 0
M  V30 6130 O 580.269 1.49152 1.24836 0
M  V30 6131 C 580.552 3.06783 -1.88563 0
M  V30 6132 C 580.405 2.9206 -3.42083 0
M  V30 6133 C 581.724 4.06865 -1.67776 0
M  V30 6134 H 578.843 0.61399 -0.407658 0
M  V30 6135 H 581.485 1.09572 -1.55222 0
M  V30 6136 H 579.635 3.57663 -1.51689 0
M  V30 6137 H 581.307 2.48419 -3.88698 0
M  V30 6138 H 579.55 2.27731 -3.69217 0
M  V30 6139 H 580.221 3.89651 -3.90994 0
M  V30 6140 H 582.697 3.64939 -1.99897 0
M  V30 6141 H 581.573 5.01168 -2.23879 0
M  V30 6142 H 581.834 4.37705 -0.621816 0
M  V30 6143 N 580.893 1.08022 1.14757 0
M  V30 6144 C 582.304 0.829144 1.67279 0
M  V30 6145 C 582.655 -0.644721 1.85305 0
M  V30 6146 O 581.78 -1.49838 1.56133 0
M  V30 6147 C 582.375 1.49855 3.03857 0
M  V30 6148 C 580.934 1.29482 3.53428 0
M  V30 6149 C 580.081 1.56386 2.28995 0
M  V30 6150 H 583.032 1.24134 0.988762 0
M  V30 6151 H 583.053 0.923572 3.69121 0
M  V30 6152 H 582.565 2.57123 2.90705 0
M  V30 6153 H 580.666 0.242669 3.71809 0
M  V30 6154 H 580.779 2.01974 4.34446 0
M  V30 6155 H 579.143 0.985217 2.34874 0
M  V30 6156 H 579.926 2.64851 2.18423 0
M  V30 6157 N 582.371 -1.3172 0.865308 0
M  V30 6158 C 583.321 -2.26157 0.289305 0
M  V30 6159 C 584.305 -1.50428 -0.570977 0
M  V30 6160 O 585.497 -1.71978 -0.418617 0
M  V30 6161 C 582.626 -3.39457 -0.512237 0
M  V30 6162 C 581.712 -4.22561 0.361028 0
M  V30 6163 N 582.103 -4.84501 1.45231 0
M  V30 6164 C 580.401 -4.45739 0.152641 0
M  V30 6165 C 581.102 -5.46586 1.99043 0
M  V30 6166 N 580.078 -5.28119 1.28809 0
M  V30 6167 H 583.88 -2.71581 1.12344 0
M  V30 6168 H 581.394 -1.45932 0.712565 0
M  V30 6169 H 583.391 -4.06133 -0.941379 0
M  V30 6170 H 582.051 -2.95577 -1.34404 0
M  V30 6171 H 583.062 -4.84293 1.83524 0
M  V30 6172 H 579.739 -4.1251 -0.643583 0
M  V30 6173 H 581.129 -6.05817 2.90577 0
M  V30 6174 N 583.85 -0.624285 -1.44708 0
M  V30 6175 C 584.782 0.12305 -2.28869 0
M  V30 6176 C 585.795 0.81557 -1.40898 0
M  V30 6177 O 586.984 0.678162 -1.65116 0
M  V30 6178 C 584.084 1.19612 -3.1709 0
M  V30 6179 C 583.257 0.587452 -4.33437 0
M  V30 6180 C 582.316 1.55358 -5.02743 0
M  V30 6181 O 581.341 1.07338 -5.58988 0
M  V30 6182 N 582.543 2.88798 -5.03563 0
M  V30 6183 H 585.308 -0.599193 -2.93649 0
M  V30 6184 H 582.87 -0.464954 -1.5508 0
M  V30 6185 H 584.861 1.84261 -3.60319 0
M  V30 6186 H 583.432 1.82067 -2.54107 0
M  V30 6187 H 582.652 -0.237509 -3.93484 0
M  V30 6188 H 583.94 0.161326 -5.08544 0
M  V30 6189 H 583.338 3.30399 -4.59188 0
M  V30 6190 H 581.894 3.48826 -5.50603 0
M  V30 6191 N 585.328 1.53329 -0.364422 0
M  V30 6192 C 586.558 2.05359 0.226096 0
M  V30 6193 C 586.966 1.23777 1.43094 0
M  V30 6194 O 586.309 0.271139 1.81688 0
M  V30 6195 C 586.371 3.52918 0.684794 0
M  V30 6196 C 586.035 4.55218 -0.403206 0
M  V30 6197 C 587.032 5.04583 -1.2527 0
M  V30 6198 C 584.717 4.99134 -0.563117 0
M  V30 6199 C 586.711 5.96463 -2.24745 0
M  V30 6200 C 584.398 5.9082 -1.56124 0
M  V30 6201 C 585.396 6.39375 -2.40184 0
M  V30 6202 O 585.084 7.29255 -3.38293 0
M  V30 6203 H 584.816 0.674588 0.0436772 0
M  V30 6204 H 587.37 1.98688 -0.520782 0
M  V30 6205 H 585.6 3.57122 1.48326 0
M  V30 6206 H 587.289 3.87812 1.19818 0
M  V30 6207 H 588.055 4.71403 -1.14034 0
M  V30 6208 H 583.934 4.60928 0.0813909 0
M  V30 6209 H 587.478 6.34285 -2.90393 0
M  V30 6210 H 583.375 6.23414 -1.67407 0
M  V30 6211 H 584.143 7.47249 -3.34009 0
M  V30 6212 N 586.806 0.0935595 1.57322 0
M  V30 6213 C 588.031 -0.582324 1.99057 0
M  V30 6214 C 588.456 -1.61025 0.972242 0
M  V30 6215 O 587.814 -1.81202 -0.0594622 0
M  V30 6216 C 587.862 -1.20799 3.39765 0
M  V30 6217 O 586.966 -2.32382 3.40694 0
M  V30 6218 H 586.307 -0.147884 0.647323 0
M  V30 6219 H 588.837 0.174516 2.03854 0
M  V30 6220 H 588.847 -1.54966 3.77425 0
M  V30 6221 H 587.522 -0.454914 4.13405 0
M  V30 6222 H 586.099 -1.99845 3.14827 0
M  V30 6223 N 588.284 -1.56567 -0.180126 0
M  V30 6224 C 589.509 -1.85975 -0.918041 0
M  V30 6225 C 589.934 -0.678888 -1.75422 0
M  V30 6226 O 589.292 0.372168 -1.77439 0
M  V30 6227 C 589.34 -3.13731 -1.77779 0
M  V30 6228 O 588.444 -2.95335 -2.87838 0
M  V30 6229 H 587.785 -0.61196 -0.257683 0
M  V30 6230 H 590.315 -2.03798 -0.180923 0
M  V30 6231 H 590.325 -3.4491 -2.17948 0
M  V30 6232 H 589 -3.99293 -1.16352 0
M  V30 6233 H 587.577 -2.7549 -2.51316 0
M  V30 6234 N 589.762 0.448376 -1.51087 0
M  V30 6235 C 591.178 0.783984 -1.39017 0
M  V30 6236 C 591.378 1.96087 -0.463904 0
M  V30 6237 O 590.434 2.52357 0.0850534 0
M  V30 6238 C 591.747 1.07471 -2.80839 0
M  V30 6239 C 593.295 1.17981 -2.89913 0
M  V30 6240 C 593.77 1.50354 -4.32617 0
M  V30 6241 N 595.261 1.57301 -4.35673 0
M  V30 6242 C 595.996 1.839 -5.4311 0
M  V30 6243 N 595.492 2.08365 -6.60724 0
M  V30 6244 N 597.285 1.8559 -5.30578 0
M  V30 6245 H 589.436 -0.326881 -2.0987 0
M  V30 6246 H 591.699 -0.0838006 -0.944289 0
M  V30 6247 H 591.405 0.282768 -3.50561 0
M  V30 6248 H 591.279 2.00519 -3.19487 0
M  V30 6249 H 593.666 1.9624 -2.20395 0
M  V30 6250 H 593.747 0.228603 -2.54776 0
M  V30 6251 H 593.391 0.726273 -5.0268 0
M  V30 6252 H 593.321 2.46663 -4.65258 0
M  V30 6253 H 595.812 1.40342 -3.50874 0
M  V30 6254 H 596.125 2.27999 -7.38401 0
M  V30 6255 H 594.47 2.0571 -6.63859 0
M  V30 6256 H 597.661 1.65989 -4.37682 0
M  V30 6257 H 597.834 2.05983 -6.1439 0
M  V30 6258 N 591.24 1.41047 0.703093 0
M  V30 6259 C 592.172 1.38228 1.82827 0
M  V30 6260 C 593.185 0.285637 1.60275 0
M  V30 6261 O 594.374 0.54685 1.69917 0
M  V30 6262 C 591.474 1.13136 3.19458 0
M  V30 6263 C 590.647 2.34695 3.69103 0
M  V30 6264 C 589.706 2.05574 4.84382 0
M  V30 6265 O 588.732 2.78549 4.96386 0
M  V30 6266 N 589.934 1.04135 5.71083 0
M  V30 6267 H 592.699 2.35203 1.85741 0
M  V30 6268 H 590.26 1.35562 0.885125 0
M  V30 6269 H 592.252 0.916183 3.94193 0
M  V30 6270 H 590.822 0.247836 3.11616 0
M  V30 6271 H 590.042 2.71963 2.85359 0
M  V30 6272 H 591.33 3.15705 3.99009 0
M  V30 6273 H 590.728 0.43722 5.64008 0
M  V30 6274 H 589.285 0.886078 6.45749 0
M  V30 6275 N 592.718 -0.936591 1.26751 0
M  V30 6276 C 593.964 -1.6858 1.12733 0
M  V30 6277 C 594.297 -1.91414 -0.327745 0
M  V30 6278 O 593.572 -1.49812 -1.24043 0
M  V30 6279 C 593.855 -3.05779 1.90187 0
M  V30 6280 C 593.708 -2.90242 3.43627 0
M  V30 6281 C 595.027 -4.0597 1.69931 0
M  V30 6282 H 592.146 -0.61182 0.410908 0
M  V30 6283 H 594.788 -1.08747 1.55801 0
M  V30 6284 H 592.938 -3.56853 1.53584 0
M  V30 6285 H 594.61 -2.46354 3.9001 0
M  V30 6286 H 592.853 -2.2577 3.70419 0
M  V30 6287 H 593.524 -3.87572 3.93055 0
M  V30 6288 H 596 -3.63874 2.0183 0
M  V30 6289 H 594.876 -4.99974 2.26534 0
M  V30 6290 H 595.137 -4.37369 0.64502 0
M  V30 6291 N 594.196 -1.08629 -1.14182 0
M  V30 6292 C 595.159 -0.722027 -2.1753 0
M  V30 6293 C 596.159 0.244305 -1.58933 0
M  V30 6294 O 597.349 0.0235545 -1.74184 0
M  V30 6295 C 594.481 -0.0663966 -3.40835 0
M  V30 6296 H 595.674 -1.63719 -2.51269 0
M  V30 6297 H 593.227 -0.884442 -1.28869 0
M  V30 6298 H 593.962 0.860389 -3.12678 0
M  V30 6299 H 593.747 -0.761598 -3.84632 0
M  V30 6300 H 595.237 0.173346 -4.1724 0
M  V30 6301 N 595.674 1.31259 -0.872281 0
M  V30 6302 C 596.624 2.26 -0.301295 0
M  V30 6303 C 597.608 1.50729 0.562991 0
M  V30 6304 O 598.8 1.72198 0.40949 0
M  V30 6305 C 595.929 3.39724 0.494227 0
M  V30 6306 C 595.015 4.22363 -0.383432 0
M  V30 6307 N 595.406 4.83724 -1.47799 0
M  V30 6308 C 593.704 4.45652 -0.176278 0
M  V30 6309 C 594.405 5.45523 -2.01939 0
M  V30 6310 N 593.381 5.27428 -1.31608 0
M  V30 6311 H 597.183 2.70981 -1.13782 0
M  V30 6312 H 594.697 1.45552 -0.720294 0
M  V30 6313 H 596.694 4.06626 0.919828 0
M  V30 6314 H 595.354 2.96286 1.32834 0
M  V30 6315 H 596.365 4.83313 -1.8609 0
M  V30 6316 H 593.042 4.12845 0.621698 0
M  V30 6317 H 594.432 6.04268 -2.93786 0
M  V30 6318 N 597.152 0.631951 1.44375 0
M  V30 6319 C 598.377 0.142146 2.06912 0
M  V30 6320 C 598.802 -1.17456 1.4692 0
M  V30 6321 O 598.16 -1.72074 0.570975 0
M  V30 6322 C 598.208 0.0417952 3.60576 0
M  V30 6323 O 597.312 -1.00194 4.00044 0
M  V30 6324 H 596.653 0.0851491 0.658518 0
M  V30 6325 H 599.183 0.868863 1.85235 0
M  V30 6326 H 599.193 -0.148517 4.0773 0
M  V30 6327 H 597.868 1.0031 4.03622 0
M  V30 6328 H 596.445 -0.786131 3.64519 0
M  V30 6329 N 598.631 -1.53133 0.372548 0
M  V30 6330 C 599.879 -2.00958 -0.214534 0
M  V30 6331 C 600.2 -1.26135 -1.48711 0
M  V30 6332 O 599.47 -0.376597 -1.92246 0
M  V30 6333 H 598.05 -0.742456 -0.0822664 0
M  V30 6334 H 600.712 -1.88367 0.500385 0
M  V30 6335 H 599.808 -3.09031 -0.436605 0
M  V30 6336 N 600.109 -0.101901 -1.5727 0
M  V30 6337 C 601.072 0.840129 -2.13247 0
M  V30 6338 C 602.072 1.20625 -1.06331 0
M  V30 6339 O 603.262 1.13456 -1.32186 0
M  V30 6340 C 600.394 2.13372 -2.65867 0
M  V30 6341 H 601.587 0.353945 -2.97804 0
M  V30 6342 H 599.14 0.147167 -1.55606 0
M  V30 6343 H 599.875 2.66461 -1.84849 0
M  V30 6344 H 599.66 1.88085 -3.44044 0
M  V30 6345 H 601.15 2.80748 -3.09145 0
M  V30 6346 N 601.587 1.56661 0.17182 0
M  V30 6347 C 602.534 1.96371 1.21273 0
M  V30 6348 C 603.504 0.82756 1.44016 0
M  V30 6349 O 604.689 1.08764 1.56764 0
M  V30 6350 C 601.829 2.32838 2.54716 0
M  V30 6351 C 600.942 3.59628 2.39356 0
M  V30 6352 C 600.077 3.85311 3.65662 0
M  V30 6353 C 599.116 5.0545 3.45234 0
M  V30 6354 N 598.253 5.27268 4.63608 0
M  V30 6355 H 603.093 2.85106 0.86709 0
M  V30 6356 H 600.63 1.41073 0.416744 0
M  V30 6357 H 602.588 2.52004 3.3249 0
M  V30 6358 H 601.218 1.47214 2.87277 0
M  V30 6359 H 600.27 3.4838 1.52761 0
M  V30 6360 H 601.582 4.4756 2.20207 0
M  V30 6361 H 600.736 4.04841 4.51872 0
M  V30 6362 H 599.475 2.95753 3.8779 0
M  V30 6363 H 598.48 4.85819 2.5741 0
M  V30 6364 H 599.705 5.96538 3.24529 0
M  V30 6365 H 597.651 4.40662 4.85956 0
M  V30 6366 H 597.568 6.09422 4.4737 0
M  V30 6367 H 598.836 5.51277 5.51103 0
M  V30 6368 N 603.065 -0.440357 1.51323 0
M  V30 6369 C 604.028 -1.51679 1.71832 0
M  V30 6370 C 605.028 -1.49648 0.588386 0
M  V30 6371 O 606.218 -1.51724 0.855891 0
M  V30 6372 C 603.35 -2.91228 1.77199 0
M  V30 6373 H 604.543 -1.34799 2.67898 0
M  V30 6374 H 602.096 -0.66883 1.41267 0
M  V30 6375 H 602.831 -3.13516 0.829363 0
M  V30 6376 H 602.616 -2.94107 2.59314 0
M  V30 6377 H 604.106 -3.69321 1.94915 0
M  V30 6378 N 604.543 -1.41418 -0.695603 0
M  V30 6379 C 605.768 -1.44329 -1.48942 0
M  V30 6380 C 606.193 -0.0501579 -1.88033 0
M  V30 6381 O 605.551 0.946598 -1.54626 0
M  V30 6382 C 605.599 -2.3578 -2.72837 0
M  V30 6383 O 604.703 -1.81482 -3.70322 0
M  V30 6384 H 604.044 -0.489838 -0.44828 0
M  V30 6385 H 606.574 -1.85878 -0.855014 0
M  V30 6386 H 606.584 -2.51654 -3.21145 0
M  V30 6387 H 605.259 -3.37005 -2.43722 0
M  V30 6388 H 603.836 -1.75058 -3.29255 0
M  V30 6389 N 606.021 0.929856 -1.27246 0
M  V30 6390 C 607.267 1.6798 -1.13625 0
M  V30 6391 C 607.6 1.91586 0.317589 0
M  V30 6392 O 606.875 1.50467 1.23247 0
M  V30 6393 C 607.158 3.04766 -1.91806 0
M  V30 6394 C 607.011 2.88415 -3.45162 0
M  V30 6395 C 608.33 4.05063 -1.72082 0
M  V30 6396 H 605.449 0.609632 -0.414147 0
M  V30 6397 H 608.091 1.0792 -1.56376 0
M  V30 6398 H 606.241 3.56034 -1.55474 0
M  V30 6399 H 607.913 2.44282 -3.91311 0
M  V30 6400 H 606.156 2.23802 -3.71611 0
M  V30 6401 H 606.827 3.85482 -3.95105 0
M  V30 6402 H 609.303 3.62798 -2.03757 0
M  V30 6403 H 608.179 4.98765 -2.29182 0
M  V30 6404 H 608.44 4.37021 -0.668206 0
M  V30 6405 N 607.499 1.09233 1.13605 0
M  V30 6406 C 608.745 0.828385 1.8511 0
M  V30 6407 C 609.078 -0.64437 1.83198 0
M  V30 6408 O 608.353 -1.47428 1.26867 0
M  V30 6409 C 608.636 1.36167 3.33363 0
M  V30 6410 C 608.489 2.90038 3.438 0
M  V30 6411 C 609.808 0.993819 4.28732 0
M  V30 6412 H 606.927 0.30239 0.672108 0
M  V30 6413 H 609.569 1.35339 1.33355 0
M  V30 6414 H 607.719 0.9151 3.77569 0
M  V30 6415 H 609.391 3.43128 3.08319 0
M  V30 6416 H 607.634 3.27271 2.84739 0
M  V30 6417 H 608.305 3.22428 4.48045 0
M  V30 6418 H 610.781 1.37893 3.92587 0
M  V30 6419 H 609.657 1.39403 5.30903 0
M  V30 6420 H 609.918 -0.0982206 4.41991 0
M  V30 6421 N 608.977 -1.30795 0.87923 0
M  V30 6422 C 610.254 -1.91145 0.415086 0
M  V30 6423 C 610.634 -1.7995 -1.10368 0
M  V30 6424 O 609.982 -1.21305 -1.93642 0
M  V30 6425 C 610.192 -3.37014 0.906778 0
M  V30 6426 C 611.54 -4.14101 0.938358 0
M  V30 6427 O 612.564 -3.45834 0.853053 0
M  V30 6428 O 611.423 -5.36054 1.06342 0
M  V30 6429 H 608.517 -0.81736 0.125905 0
M  V30 6430 H 611.063 -1.39401 0.967753 0
M  V30 6431 H 609.835 -3.3922 1.95053 0
M  V30 6432 H 609.458 -3.96204 0.332948 0
M  V30 6433 N 610.455 -0.639598 -1.44038 0
M  V30 6434 C 611.703 -0.147188 -2.01563 0
M  V30 6435 C 612.024 1.2384 -1.50628 0
M  V30 6436 O 611.294 1.82452 -0.713316 0
M  V30 6437 H 609.874 -0.0514231 -0.745228 0
M  V30 6438 H 612.536 -0.828205 -1.76428 0
M  V30 6439 H 611.632 -0.121358 -3.11864 0
M  V30 6440 N 611.933 1.52934 -0.380664 0
M  V30 6441 C 613.161 2.05886 0.204599 0
M  V30 6442 C 613.576 1.25305 1.41223 0
M  V30 6443 O 612.933 0.297504 1.80059 0
M  V30 6444 C 612.984 3.56764 0.583249 0
M  V30 6445 O 612.705 4.34292 -0.576398 0
M  V30 6446 C 614.206 4.2603 1.2253 0
M  V30 6447 H 611.426 0.670193 0.0328991 0
M  V30 6448 H 613.97 1.97148 -0.543397 0
M  V30 6449 H 612.125 3.65603 1.28115 0
M  V30 6450 H 612.539 5.23819 -0.267119 0
M  V30 6451 H 614.013 5.32868 1.44068 0
M  V30 6452 H 614.49 3.80698 2.19011 0
M  V30 6453 H 615.096 4.21485 0.568407 0
M  V30 6454 N 613.412 0.11024 1.57214 0
M  V30 6455 C 614.823 -0.416527 1.81994 0
M  V30 6456 C 615.174 -1.67183 1.02686 0
M  V30 6457 O 614.299 -2.14823 0.260782 0
M  V30 6458 C 614.894 -0.762466 3.30109 0
M  V30 6459 C 613.453 -1.23391 3.556 0
M  V30 6460 C 612.6 -0.238166 2.76275 0
M  V30 6461 H 615.551 0.335491 1.55113 0
M  V30 6462 H 615.572 -1.62068 3.44259 0
M  V30 6463 H 615.084 0.151346 3.87805 0
M  V30 6464 H 613.185 -2.16492 3.03253 0
M  V30 6465 H 613.298 -1.18528 4.64207 0
M  V30 6466 H 611.662 -0.723421 2.4421 0
M  V30 6467 H 612.445 0.668591 3.36727 0
M  V30 6468 N 614.89 -1.56749 -0.16351 0
M  V30 6469 C 615.82 -2.00042 -1.20438 0
M  V30 6470 C 616.801 -0.877256 -1.45733 0
M  V30 6471 O 617.986 -1.1439 -1.56935 0
M  V30 6472 C 615.116 -2.36697 -2.54149 0
M  V30 6473 C 614.07 -3.52046 -2.43408 0
M  V30 6474 C 613.396 -3.74466 -3.81679 0
M  V30 6475 C 614.696 -4.85247 -1.93216 0
M  V30 6476 H 616.39 -2.87244 -0.844477 0
M  V30 6477 H 613.936 -1.38194 -0.40478 0
M  V30 6478 H 615.889 -2.65582 -3.27176 0
M  V30 6479 H 614.613 -1.46414 -2.91943 0
M  V30 6480 H 613.272 -3.23301 -1.72834 0
M  V30 6481 H 612.92 -2.81461 -4.1688 0
M  V30 6482 H 612.62 -4.52084 -3.75359 0
M  V30 6483 H 614.144 -4.0576 -4.5628 0
M  V30 6484 H 615.558 -5.12957 -2.56023 0
M  V30 6485 H 613.955 -5.66556 -1.97825 0
M  V30 6486 H 615.025 -4.7672 -0.88689 0
M  V30 6487 N 616.368 0.432326 -1.51554 0
M  V30 6488 C 617.614 1.18309 -1.64714 0
M  V30 6489 C 617.947 1.90745 -0.364696 0
M  V30 6490 O 617.222 1.8381 0.635936 0
M  V30 6491 C 617.505 2.1961 -2.85383 0
M  V30 6492 C 617.358 1.51223 -4.23617 0
M  V30 6493 C 618.677 3.20538 -3.01569 0
M  V30 6494 H 615.796 0.428751 -0.599451 0
M  V30 6495 H 618.438 0.471689 -1.84052 0
M  V30 6496 H 616.588 2.8028 -2.69027 0
M  V30 6497 H 618.26 0.938516 -4.51652 0
M  V30 6498 H 616.503 0.814501 -4.26085 0
M  V30 6499 H 617.174 2.25024 -5.04052 0
M  V30 6500 H 619.65 2.69926 -3.16669 0
M  V30 6501 H 618.526 3.88706 -3.87555 0
M  V30 6502 H 618.787 3.86933 -2.13859 0
M  V30 6503 N 617.846 1.41785 0.688094 0
M  V30 6504 C 618.809 1.43936 1.78368 0
M  V30 6505 C 619.809 0.328866 1.57401 0
M  V30 6506 O 620.999 0.589093 1.63937 0
M  V30 6507 C 618.131 1.25804 3.16838 0
M  V30 6508 H 619.324 2.41472 1.77852 0
M  V30 6509 H 616.877 1.28037 0.896448 0
M  V30 6510 H 617.612 0.291386 3.22988 0
M  V30 6511 H 617.397 2.06272 3.33458 0
M  V30 6512 H 618.887 1.30162 3.96797 0
M  V30 6513 N 619.324 -0.923095 1.27737 0
M  V30 6514 C 620.287 -2.00587 1.10894 0
M  V30 6515 C 621.287 -1.60718 0.0514927 0
M  V30 6516 O 622.477 -1.71658 0.296481 0
M  V30 6517 C 619.609 -3.33829 0.690717 0
M  V30 6518 H 620.802 -2.16959 2.07048 0
M  V30 6519 H 618.355 -1.10451 1.1059 0
M  V30 6520 H 619.09 -3.23157 -0.272 0
M  V30 6521 H 618.875 -3.64125 1.45448 0
M  V30 6522 H 620.365 -4.13336 0.595252 0
M  V30 6523 N 620.802 -1.09834 -1.13024 0
M  V30 6524 C 622.213 -0.855651 -1.65938 0
M  V30 6525 C 622.564 0.615159 -1.86307 0
M  V30 6526 O 621.689 1.47335 -1.58497 0
M  V30 6527 C 622.284 -1.5467 -3.01434 0
M  V30 6528 C 620.843 -1.35088 -3.51323 0
M  V30 6529 C 619.99 -1.6001 -2.26478 0
M  V30 6530 H 622.941 -1.25691 -0.968889 0
M  V30 6531 H 622.962 -0.982179 -3.67605 0
M  V30 6532 H 622.474 -2.61715 -2.86578 0
M  V30 6533 H 620.575 -0.30179 -3.71376 0
M  V30 6534 H 620.688 -2.0886 -4.31178 0
M  V30 6535 H 619.052 -1.02246 -2.33276 0
M  V30 6536 H 619.835 -2.68293 -2.14182 0
M  V30 6537 N 622.28 1.30327 -0.886154 0
M  V30 6538 C 623.505 2.0079 -0.519425 0
M  V30 6539 C 623.93 1.65979 0.885013 0
M  V30 6540 O 623.288 0.877043 1.58675 0
M  V30 6541 C 623.336 3.53686 -0.702758 0
M  V30 6542 O 622.44 4.11637 0.250828 0
M  V30 6543 H 621.781 0.63171 -0.204544 0
M  V30 6544 H 624.311 1.66145 -1.19402 0
M  V30 6545 H 624.321 4.03531 -0.602207 0
M  V30 6546 H 622.996 3.78361 -1.72673 0
M  V30 6547 H 621.573 3.72755 0.103873 0
M  V30 6548 N 623.758 0.647228 1.43697 0
M  V30 6549 C 624.688 -0.0345631 2.33474 0
M  V30 6550 C 625.669 -0.818193 1.4913 0
M  V30 6551 O 626.854 -0.780867 1.77809 0
M  V30 6552 C 623.984 -1.00576 3.32418 0
M  V30 6553 C 622.938 -0.33266 4.26705 0
M  V30 6554 C 622.264 -1.41489 5.1564 0
M  V30 6555 C 623.564 0.771204 5.16575 0
M  V30 6556 H 625.258 0.715163 2.90733 0
M  V30 6557 H 622.804 0.345364 1.39797 0
M  V30 6558 H 624.757 -1.49159 3.94119 0
M  V30 6559 H 623.481 -1.78657 2.73403 0
M  V30 6560 H 622.14 0.13267 3.6636 0
M  V30 6561 H 621.788 -2.18698 4.52968 0
M  V30 6562 H 621.488 -0.969799 5.79542 0
M  V30 6563 H 623.012 -1.9022 5.80214 0
M  V30 6564 H 624.426 0.36779 5.72119 0
M  V30 6565 H 622.823 1.1404 5.89165 0
M  V30 6566 H 623.893 1.63169 4.56622 0
M  V30 6567 N 625.236 -1.5273 0.388769 0
M  V30 6568 C 626.184 -2.27975 -0.461527 0
M  V30 6569 C 627.178 -1.31854 -1.06352 0
M  V30 6570 O 628.384 -1.49394 -1.00406 0
M  V30 6571 H 624.759 -0.733088 -0.16759 0
M  V30 6572 H 626.73 -2.97765 0.194579 0
M  V30 6573 C 625.479 -3.09881 -1.577 0
M  V30 6574 H 624.802 -3.83701 -1.12309 0
M  V30 6575 H 626.242 -3.6567 -2.14619 0
M  V30 6576 C 624.701 -2.22159 -2.53272 0
M  V30 6577 O 625.231 -1.84802 -3.56667 0
M  V30 6578 N 623.437 -1.8633 -2.23001 0
M  V30 6579 H 622.984 -2.16909 -1.38954 0
M  V30 6580 H 622.942 -1.27927 -2.87197 0
M  V30 6581 N 626.714 -0.118576 -1.57153 0
M  V30 6582 C 627.677 0.817464 -2.14127 0
M  V30 6583 C 628.677 1.1949 -1.07604 0
M  V30 6584 O 629.867 1.12048 -1.33382 0
M  V30 6585 C 626.999 2.10541 -2.68115 0
M  V30 6586 H 628.192 0.322339 -2.98163 0
M  V30 6587 H 625.745 0.130655 -1.55753 0
M  V30 6588 H 626.48 2.64485 -1.87665 0
M  V30 6589 H 626.265 1.84425 -3.4602 0
M  V30 6590 H 627.755 2.77453 -3.12105 0
M  V30 6591 N 628.193 1.56834 0.155195 0
M  V30 6592 C 629.421 1.87049 0.884326 0
M  V30 6593 C 629.836 0.705839 1.7511 0
M  V30 6594 O 629.193 -0.324641 1.79589 0
M  V30 6595 C 629.244 3.1644 1.74781 0
M  V30 6596 O 628.965 4.28417 0.915978 0
M  V30 6597 C 630.466 3.60113 2.58522 0
M  V30 6598 H 627.686 0.620196 0.25612 0
M  V30 6599 H 630.23 2.03946 0.150445 0
M  V30 6600 H 628.385 3.01321 2.43484 0
M  V30 6601 H 628.799 5.02353 1.50803 0
M  V30 6602 H 630.273 4.53508 3.14698 0
M  V30 6603 H 630.75 2.85005 3.34169 0
M  V30 6604 H 631.356 3.77898 1.95124 0
M  V30 6605 N 629.671 -0.424282 1.51781 0
M  V30 6606 C 630.899 -1.1947 1.68921 0
M  V30 6607 C 631.314 -1.84683 0.39213 0
M  V30 6608 O 630.671 -1.71261 -0.630554 0
M  V30 6609 C 630.722 -2.26909 2.81416 0
M  V30 6610 O 630.443 -1.64361 4.061 0
M  V30 6611 C 631.944 -3.16945 3.09937 0
M  V30 6612 H 629.164 -0.359591 0.566511 0
M  V30 6613 H 631.708 -0.501139 1.98265 0
M  V30 6614 H 629.863 -2.91959 2.54635 0
M  V30 6615 H 630.277 -2.35468 4.68674 0
M  V30 6616 H 631.751 -3.88437 3.922 0
M  V30 6617 H 632.228 -3.78451 2.22871 0
M  V30 6618 H 632.834 -2.57581 3.38426 0
M  V30 6619 N 631.149 -1.42148 -0.680565 0
M  V30 6620 C 632.395 -1.42521 -1.44277 0
M  V30 6621 C 632.728 -0.0393718 -1.9416 0
M  V30 6622 O 632.003 0.935425 -1.70529 0
M  V30 6623 C 632.286 -2.44475 -2.64394 0
M  V30 6624 C 632.139 -3.92226 -2.20179 0
M  V30 6625 C 633.458 -2.43491 -3.66606 0
M  V30 6626 H 630.577 -0.518985 -0.523282 0
M  V30 6627 H 633.219 -1.73524 -0.773914 0
M  V30 6628 H 631.369 -2.18168 -3.21458 0
M  V30 6629 H 633.041 -4.29493 -1.68327 0
M  V30 6630 H 631.284 -4.0637 -1.5181 0
M  V30 6631 H 631.955 -4.59133 -3.06433 0
M  V30 6632 H 634.431 -2.66872 -3.19247 0
M  V30 6633 H 633.307 -3.16816 -4.4824 0
M  V30 6634 H 633.568 -1.45881 -4.17338 0
M  V30 6635 N 632.627 0.916307 -1.28225 0
M  V30 6636 C 633.873 1.66765 -1.154 0
M  V30 6637 C 634.206 1.91912 0.297251 0
M  V30 6638 O 633.481 1.51766 1.21644 0
M  V30 6639 C 633.764 3.02715 -1.95028 0
M  V30 6640 C 633.617 2.84738 -3.48201 0
M  V30 6641 C 634.936 4.03215 -1.76369 0
M  V30 6642 H 632.055 0.605205 -0.42059 0
M  V30 6643 H 634.697 1.06255 -1.57512 0
M  V30 6644 H 632.847 3.54365 -1.59242 0
M  V30 6645 H 634.519 2.40118 -3.9388 0
M  V30 6646 H 632.762 2.19848 -3.73964 0
M  V30 6647 H 633.433 3.8127 -3.99171 0
M  V30 6648 H 635.909 3.60617 -2.07593 0
M  V30 6649 H 634.785 4.96306 -2.34459 0
M  V30 6650 H 635.046 4.36288 -0.71452 0
M  V30 6651 N 634.105 1.10431 1.1244 0
M  V30 6652 C 635.333 0.868872 1.87772 0
M  V30 6653 C 635.748 -0.580645 1.7965 0
M  V30 6654 O 635.105 -1.40031 1.17036 0
M  V30 6655 C 635.156 1.30855 3.36986 0
M  V30 6656 O 634.877 2.70123 3.44914 0
M  V30 6657 C 636.378 1.107 4.29256 0
M  V30 6658 H 633.598 0.311868 0.59412 0
M  V30 6659 H 636.142 1.46897 1.42273 0
M  V30 6660 H 634.297 0.752126 3.80029 0
M  V30 6661 H 634.711 2.88923 4.37748 0
M  V30 6662 H 636.185 1.46378 5.32238 0
M  V30 6663 H 636.662 0.0456228 4.39176 0
M  V30 6664 H 637.268 1.64988 3.91994 0
M  V30 6665 N 635.583 -1.29855 0.893053 0
M  V30 6666 C 636.811 -1.99976 0.530788 0
M  V30 6667 C 637.226 -1.66889 -0.882799 0
M  V30 6668 O 636.583 -0.910352 -1.58173 0
M  V30 6669 C 636.634 -3.54547 0.705587 0
M  V30 6670 O 636.355 -3.86458 2.06353 0
M  V30 6671 C 637.856 -4.41937 0.347387 0
M  V30 6672 H 635.076 -0.639129 0.204339 0
M  V30 6673 H 637.62 -1.65549 1.20057 0
M  V30 6674 H 635.775 -3.87311 0.0830685 0
M  V30 6675 H 636.189 -4.81146 2.08803 0
M  V30 6676 H 637.663 -5.4954 0.520557 0
M  V30 6677 H 638.14 -4.33339 -0.715139 0
M  V30 6678 H 638.746 -4.14633 0.946567 0
M  V30 6679 N 637.061 -0.65484 -1.43351 0
M  V30 6680 C 638.307 -0.169142 -2.02093 0
M  V30 6681 C 638.64 1.21431 -1.51553 0
M  V30 6682 O 637.915 1.81105 -0.709317 0
M  V30 6683 C 638.198 -0.181775 -3.59641 0
M  V30 6684 C 638.051 -1.59926 -4.20409 0
M  V30 6685 C 639.37 0.480945 -4.37464 0
M  V30 6686 H 636.489 -0.0629371 -0.734308 0
M  V30 6687 H 639.131 -0.835833 -1.70628 0
M  V30 6688 H 637.281 0.385918 -3.86578 0
M  V30 6689 H 638.953 -2.21766 -4.04497 0
M  V30 6690 H 637.196 -2.14605 -3.76998 0
M  V30 6691 H 637.867 -1.55994 -5.295 0
M  V30 6692 H 640.343 -0.00208273 -4.161 0
M  V30 6693 H 639.219 0.441384 -5.47122 0
M  V30 6694 H 639.48 1.55533 -4.13838 0
M  V30 6695 N 638.539 1.52521 -0.396863 0
M  V30 6696 C 639.769 2.05792 0.182485 0
M  V30 6697 C 640.177 1.26784 1.40436 0
M  V30 6698 O 639.52 0.309617 1.81072 0
M  V30 6699 C 639.582 3.54291 0.609781 0
M  V30 6700 C 639.246 4.5426 -0.499674 0
M  V30 6701 C 640.243 5.01812 -1.35944 0
M  V30 6702 C 637.928 4.97827 -0.668864 0
M  V30 6703 C 639.922 5.91562 -2.37346 0
M  V30 6704 C 637.609 5.87376 -1.68621 0
M  V30 6705 C 638.607 6.34137 -2.53692 0
M  V30 6706 O 638.295 7.21915 -3.53686 0
M  V30 6707 H 638.027 0.675362 0.0293583 0
M  V30 6708 H 640.581 1.97539 -0.56281 0
M  V30 6709 H 638.811 3.60188 1.40717 0
M  V30 6710 H 640.5 3.90267 1.11565 0
M  V30 6711 H 641.266 4.68879 -1.24008 0
M  V30 6712 H 637.145 4.60997 -0.0163971 0
M  V30 6713 H 640.689 6.27983 -3.03782 0
M  V30 6714 H 636.586 6.19723 -1.80593 0
M  V30 6715 H 637.354 7.39996 -3.49784 0
M  V30 6716 N 640.017 0.126909 1.57088 0
M  V30 6717 C 640.949 -0.850973 2.12817 0
M  V30 6718 C 641.962 -1.22457 1.07276 0
M  V30 6719 O 643.151 -1.17215 1.34622 0
M  V30 6720 C 640.251 -2.15039 2.61938 0
M  V30 6721 C 639.424 -1.94726 3.91664 0
M  V30 6722 C 638.483 -3.0847 4.26301 0
M  V30 6723 O 637.509 -2.81038 4.94981 0
M  V30 6724 N 638.711 -4.35116 3.84259 0
M  V30 6725 H 641.476 -0.3748 2.97347 0
M  V30 6726 H 639.037 -0.0572793 1.61799 0
M  V30 6727 H 641.029 -2.90141 2.82135 0
M  V30 6728 H 639.599 -2.5398 1.82244 0
M  V30 6729 H 638.819 -1.03772 3.80296 0
M  V30 6730 H 640.107 -1.78469 4.76473 0
M  V30 6731 H 639.505 -4.60276 3.2888 0
M  V30 6732 H 638.062 -5.07064 4.09548 0
M  V30 6733 N 641.495 -1.56914 -0.146875 0
M  V30 6734 C 642.405 -2.0154 -1.20079 0
M  V30 6735 C 643.421 -0.930838 -1.47008 0
M  V30 6736 O 644.597 -1.24032 -1.58676 0
M  V30 6737 C 641.662 -2.38715 -2.51428 0
M  V30 6738 C 640.723 -3.6112 -2.32145 0
M  V30 6739 C 639.956 -3.96512 -3.57231 0
M  V30 6740 O 640.179 -3.32566 -4.63418 0
M  V30 6741 O 639.113 -4.89758 -3.49887 0
M  V30 6742 H 642.939 -2.91506 -0.851924 0
M  V30 6743 H 640.524 -1.45106 -0.355607 0
M  V30 6744 H 642.406 -2.63485 -3.28867 0
M  V30 6745 H 641.081 -1.51903 -2.85845 0
M  V30 6746 H 639.988 -3.41536 -1.52656 0
M  V30 6747 H 641.321 -4.48549 -2.02644 0
M  V30 6748 N 642.974 0.416227 -1.52004 0
M  V30 6749 C 644.385 0.995319 -1.57957 0
M  V30 6750 C 644.736 1.91744 -0.415754 0
M  V30 6751 O 643.861 2.11349 0.464808 0
M  V30 6752 C 644.456 1.81191 -2.86278 0
M  V30 6753 C 643.015 2.34115 -2.94732 0
M  V30 6754 C 642.162 1.139 -2.52828 0
M  V30 6755 H 645.113 0.196716 -1.57476 0
M  V30 6756 H 645.134 2.66859 -2.71231 0
M  V30 6757 H 644.646 1.14051 -3.70963 0
M  V30 6758 H 642.747 3.04647 -2.14525 0
M  V30 6759 H 642.86 2.65466 -3.98829 0
M  V30 6760 H 641.224 1.49081 -2.06511 0
M  V30 6761 H 642.007 0.483383 -3.3988 0
M  V30 6762 N 644.452 1.42507 0.673017 0
M  V30 6763 C 645.701 1.42364 1.42883 0
M  V30 6764 C 646.014 0.0441598 1.9555 0
M  V30 6765 O 647.22 -0.0798679 2.71382 0
M  V30 6766 C 645.676 2.5043 2.58482 0
M  V30 6767 C 645.284 3.94392 2.12506 0
M  V30 6768 C 647.028 2.59455 3.35981 0
M  V30 6769 C 644.935 4.93964 3.25198 0
M  V30 6770 H 643.865 0.52951 0.536782 0
M  V30 6771 H 646.516 1.68422 0.728448 0
M  V30 6772 H 644.898 2.1754 3.30896 0
M  V30 6773 H 646.072 4.36645 1.47233 0
M  V30 6774 H 644.387 3.89233 1.4794 0
M  V30 6775 H 646.984 3.31025 4.19912 0
M  V30 6776 H 647.327 1.63869 3.82691 0
M  V30 6777 H 647.86 2.91549 2.70637 0
M  V30 6778 H 644.599 5.91034 2.83477 0
M  V30 6779 H 644.119 4.56341 3.89247 0
M  V30 6780 H 645.798 5.15763 3.90637 0
M  V30 6781 N 645.93 -0.909495 1.28709 0
M  V30 6782 C 646.863 -2.01388 1.07323 0
M  V30 6783 C 647.841 -1.62596 -0.0119757 0
M  V30 6784 O 649.025 -1.88003 0.136796 0
M  V30 6785 C 646.152 -3.32755 0.631797 0
M  V30 6786 C 645.198 -3.90532 1.71428 0
M  V30 6787 S 646.031 -4.20853 3.31124 0
M  V30 6788 C 647.187 -5.55276 2.88825 0
M  V30 6789 H 647.42 -2.19219 2.00824 0
M  V30 6790 H 644.953 -1.05489 1.12745 0
M  V30 6791 H 646.911 -4.08702 0.38381 0
M  V30 6792 H 645.572 -3.12818 -0.283451 0
M  V30 6793 H 644.765 -4.85385 1.35712 0
M  V30 6794 H 644.367 -3.21237 1.91528 0
M  V30 6795 H 646.659 -6.35341 2.3526 0
M  V30 6796 H 647.602 -5.95907 3.82492 0
M  V30 6797 H 648.01 -5.16666 2.27412 0
M  V30 6798 N 647.408 -1.11026 -1.11852 0
M  V30 6799 C 648.633 -0.879064 -1.87849 0
M  V30 6800 C 649.058 0.565406 -1.79401 0
M  V30 6801 O 648.416 1.39886 -1.15333 0
M  V30 6802 C 648.464 -1.33985 -3.34784 0
M  V30 6803 O 647.568 -0.508803 -4.09249 0
M  V30 6804 H 646.909 -0.316992 -0.583448 0
M  V30 6805 H 649.439 -1.47863 -1.41413 0
M  V30 6806 H 649.449 -1.33248 -3.85628 0
M  V30 6807 H 648.124 -2.39172 -3.40249 0
M  V30 6808 H 646.701 -0.581913 -3.68332 0
M  V30 6809 N 648.886 1.2938 -0.899927 0
M  V30 6810 C 649.818 2.26737 -0.335139 0
M  V30 6811 C 650.831 1.54316 0.518681 0
M  V30 6812 O 652.02 1.75313 0.335803 0
M  V30 6813 C 649.12 3.34558 0.540774 0
M  V30 6814 C 648.293 4.36455 -0.287372 0
M  V30 6815 C 647.352 5.2361 0.52141 0
M  V30 6816 O 646.378 5.69167 -0.0611735 0
M  V30 6817 N 647.58 5.50985 1.82745 0
M  V30 6818 H 650.345 2.75838 -1.17191 0
M  V30 6819 H 647.906 1.42716 -0.764438 0
M  V30 6820 H 649.898 3.89794 1.08825 0
M  V30 6821 H 648.468 2.85272 1.27823 0
M  V30 6822 H 647.688 3.80875 -1.01626 0
M  V30 6823 H 648.976 5.01573 -0.854518 0
M  V30 6824 H 648.374 5.15781 2.32349 0
M  V30 6825 H 646.931 6.09036 2.32204 0
M  V30 6826 N 650.364 0.662433 1.43002 0
M  V30 6827 C 651.612 0.179237 2.01304 0
M  V30 6828 C 651.933 -1.21428 1.52579 0
M  V30 6829 O 651.203 -1.81294 0.742252 0
M  V30 6830 H 649.783 0.0632725 0.744316 0
M  V30 6831 H 652.445 0.856169 1.75088 0
M  V30 6832 H 651.541 0.170957 3.11631 0
M  V30 6833 N 651.842 -1.52309 0.404946 0
M  V30 6834 C 652.805 -2.25491 -0.410651 0
M  V30 6835 C 653.805 -1.27704 -0.977154 0
M  V30 6836 O 654.995 -1.51679 -0.856691 0
M  V30 6837 C 652.127 -3.02197 -1.57765 0
M  V30 6838 H 653.32 -2.99015 0.230277 0
M  V30 6839 H 650.873 -1.55506 0.157377 0
M  V30 6840 H 651.608 -2.33013 -2.25556 0
M  V30 6841 H 651.393 -3.73987 -1.17797 0
M  V30 6842 H 652.883 -3.57719 -2.15469 0
M  V30 6843 N 653.32 -0.135238 -1.57019 0
M  V30 6844 C 654.283 0.794707 -2.14981 0
M  V30 6845 C 655.283 1.18342 -1.08866 0
M  V30 6846 O 656.473 1.10627 -1.34563 0
M  V30 6847 C 653.605 2.07685 -2.70333 0
M  V30 6848 H 654.798 0.290696 -2.98488 0
M  V30 6849 H 652.351 0.114128 -1.55883 0
M  V30 6850 H 653.086 2.6248 -1.9046 0
M  V30 6851 H 652.871 1.80745 -3.47957 0
M  V30 6852 H 654.361 2.74127 -3.1503 0
M  V30 6853 N 654.798 1.5699 0.138552 0
M  V30 6854 C 655.728 2.01933 1.17241 0
M  V30 6855 C 656.709 0.90033 1.44319 0
M  V30 6856 O 657.894 1.16872 1.55095 0
M  V30 6857 C 655.024 2.40711 2.50351 0
M  V30 6858 C 653.978 3.55874 2.37776 0
M  V30 6859 C 653.304 3.80491 3.75674 0
M  V30 6860 C 654.604 4.8826 1.85472 0
M  V30 6861 H 656.298 2.88551 0.798672 0
M  V30 6862 H 653.844 1.3882 0.382743 0
M  V30 6863 H 655.797 2.70754 3.22909 0
M  V30 6864 H 654.521 1.5104 2.89576 0
M  V30 6865 H 653.18 3.2601 1.67669 0
M  V30 6866 H 652.828 2.88057 4.12349 0
M  V30 6867 H 652.528 4.57998 3.68119 0
M  V30 6868 H 654.052 4.12967 4.49767 0
M  V30 6869 H 655.466 5.16965 2.4783 0
M  V30 6870 H 653.863 5.69631 1.88787 0
M  V30 6871 H 654.933 4.78071 0.810935 0
M  V30 6872 N 656.276 -0.40816 1.52223 0
M  V30 6873 C 657.501 -1.18127 1.70472 0
M  V30 6874 C 657.926 -1.83491 0.41384 0
M  V30 6875 O 657.284 -1.70047 -0.628778 0
M  V30 6876 C 657.332 -2.21935 2.84213 0
M  V30 6877 O 656.436 -3.28099 2.4985 0
M  V30 6878 H 655.777 -0.344781 0.56747 0
M  V30 6879 H 658.307 -0.478328 1.9893 0
M  V30 6880 H 658.317 -2.66248 3.09153 0
M  V30 6881 H 656.992 -1.73744 3.7787 0
M  V30 6882 H 655.569 -2.89058 2.35584 0
M  V30 6883 N 657.755 -1.42862 -0.66545 0
M  V30 6884 C 659.003 -1.43546 -1.42264 0
M  V30 6885 C 659.324 -0.0563116 -1.94919 0
M  V30 6886 O 658.594 0.906568 -1.73661 0
M  V30 6887 H 657.174 -0.528464 -0.527953 0
M  V30 6888 H 659.836 -1.78363 -0.785665 0
M  V30 6889 H 658.932 -2.14079 -2.27105 0
M  V30 6890 N 659.233 0.902656 -1.29189 0
M  V30 6891 C 660.143 2.03946 -1.15944 0
M  V30 6892 C 661.159 1.738 -0.0833803 0
M  V30 6893 O 662.335 1.9923 -0.29487 0
M  V30 6894 C 659.4 3.36519 -0.834006 0
M  V30 6895 C 658.461 3.80203 -1.9936 0
M  V30 6896 C 657.694 5.06449 -1.68359 0
M  V30 6897 O 657.917 5.67202 -0.603141 0
M  V30 6898 O 656.851 5.46114 -2.53067 0
M  V30 6899 H 660.677 2.18043 -2.11403 0
M  V30 6900 H 658.262 1.02584 -1.08613 0
M  V30 6901 H 660.144 4.16089 -0.666949 0
M  V30 6902 H 658.819 3.23573 0.0908245 0
M  V30 6903 H 657.726 3.01413 -2.21588 0
M  V30 6904 H 659.059 3.97729 -2.89952 0
M  V30 6905 N 660.711 1.11618 1.11262 0
M  V30 6906 C 662.122 0.881942 1.64556 0
M  V30 6907 C 662.473 -0.585442 1.87262 0
M  V30 6908 O 661.598 -1.44795 1.60821 0
M  V30 6909 C 662.193 1.59446 2.98935 0
M  V30 6910 C 660.752 1.40661 3.4913 0
M  V30 6911 C 659.899 1.63593 2.23903 0
M  V30 6912 H 662.85 1.27217 0.94877 0
M  V30 6913 H 662.871 1.04054 3.65996 0
M  V30 6914 H 662.383 2.66241 2.82378 0
M  V30 6915 H 660.484 0.360835 3.70849 0
M  V30 6916 H 660.597 2.15693 4.27801 0
M  V30 6917 H 658.961 1.05944 2.3162 0
M  V30 6918 H 659.744 2.71666 2.09886 0
M  V30 6919 N 662.189 -1.289 0.906776 0
M  V30 6920 C 663.417 -1.99401 0.551969 0
M  V30 6921 C 663.832 -1.67816 -0.865048 0
M  V30 6922 O 663.189 -0.927078 -1.57199 0
M  V30 6923 C 663.24 -3.53779 0.743152 0
M  V30 6924 O 662.961 -3.84248 2.1044 0
M  V30 6925 C 664.462 -4.41543 0.39424 0
M  V30 6926 H 661.682 -0.636926 0.211106 0
M  V30 6927 H 664.226 -1.64266 1.21807 0
M  V30 6928 H 662.381 -3.87201 0.124143 0
M  V30 6929 H 662.795 -4.78904 2.13895 0
M  V30 6930 H 664.269 -5.48957 0.578814 0
M  V30 6931 H 664.746 -4.34073 -0.669137 0
M  V30 6932 H 665.352 -4.13605 0.990491 0
M  V30 6933 N 663.667 -0.670007 -1.42649 0
M  V30 6934 C 664.895 -0.19854 -2.05945 0
M  V30 6935 C 665.31 1.14243 -1.50313 0
M  V30 6936 O 664.667 1.70872 -0.641027 0
M  V30 6937 C 664.718 -0.11966 -3.61302 0
M  V30 6938 O 664.439 -1.40764 -4.1487 0
M  V30 6939 C 665.94 0.375878 -4.41704 0
M  V30 6940 H 663.16 -0.0976894 -0.663851 0
M  V30 6941 H 665.704 -0.915392 -1.82868 0
M  V30 6942 H 663.859 0.547851 -3.83507 0
M  V30 6943 H 664.273 -1.27784 -5.08696 0
M  V30 6944 H 665.747 0.379988 -5.50691 0
M  V30 6945 H 666.224 1.41028 -4.15942 0
M  V30 6946 H 666.83 -0.259727 -4.24506 0
M  V30 6947 N 665.145 1.52092 -0.413018 0
M  V30 6948 C 666.075 2.30021 0.401567 0
M  V30 6949 C 667.056 1.34395 1.04269 0
M  V30 6950 O 668.241 1.63304 1.05097 0
M  V30 6951 C 665.371 3.12447 1.51638 0
M  V30 6952 C 664.325 4.16153 1.00005 0
M  V30 6953 C 663.651 4.86948 2.20875 0
M  V30 6954 C 664.951 5.22275 0.0513757 0
M  V30 6955 H 666.645 2.98365 -0.248704 0
M  V30 6956 H 664.191 1.4349 -0.121052 0
M  V30 6957 H 666.144 3.65733 2.09326 0
M  V30 6958 H 664.868 2.41879 2.19458 0
M  V30 6959 H 663.527 3.63882 0.445549 0
M  V30 6960 H 663.175 4.12905 2.8726 0
M  V30 6961 H 662.875 5.57057 1.86978 0
M  V30 6962 H 664.399 5.43048 2.79162 0
M  V30 6963 H 665.813 5.70778 0.537176 0
M  V30 6964 H 664.21 5.9977 -0.198977 0
M  V30 6965 H 665.28 4.76611 -0.892736 0
M  V30 6966 N 666.623 0.143563 1.56945 0
M  V30 6967 C 667.851 -0.515447 2.00377 0
M  V30 6968 C 668.266 -1.58643 1.02361 0
M  V30 6969 O 667.623 -1.82489 0.0201039 0
M  V30 6970 C 667.674 -1.11923 3.43737 0
M  V30 6971 O 667.395 -0.0910318 4.38005 0
M  V30 6972 C 668.896 -1.85918 4.02429 0
M  V30 6973 H 666.116 -0.134478 0.657386 0
M  V30 6974 H 668.66 0.237135 2.0312 0
M  V30 6975 H 666.815 -1.82245 3.41856 0
M  V30 6976 H 667.229 -0.532916 5.21786 0
M  V30 6977 H 668.703 -2.2346 5.04747 0
M  V30 6978 H 669.18 -2.7438 3.42947 0
M  V30 6979 H 669.786 -1.20303 4.07931 0
M  V30 6980 N 668.101 -1.57061 -0.130224 0
M  V30 6981 C 669.048 -1.99517 -1.16024 0
M  V30 6982 C 670.018 -0.865452 -1.41771 0
M  V30 6983 O 671.203 -1.12882 -1.53826 0
M  V30 6984 C 668.343 -2.3951 -2.48453 0
M  V30 6985 C 667.456 -3.65848 -2.29737 0
M  V30 6986 C 666.591 -3.9487 -3.55318 0
M  V30 6987 C 665.63 -5.14426 -3.31711 0
M  V30 6988 N 664.767 -5.39375 -4.49466 0
M  V30 6989 H 669.607 -2.87305 -0.791194 0
M  V30 6990 H 667.144 -1.42129 -0.379195 0
M  V30 6991 H 669.102 -2.60731 -3.25692 0
M  V30 6992 H 667.732 -1.54779 -2.83272 0
M  V30 6993 H 666.784 -3.52307 -1.4347 0
M  V30 6994 H 668.096 -4.53241 -2.08263 0
M  V30 6995 H 667.25 -4.16679 -4.4098 0
M  V30 6996 H 665.989 -3.05931 -3.79813 0
M  V30 6997 H 664.994 -4.92473 -2.44439 0
M  V30 6998 H 666.219 -6.04933 -3.08598 0
M  V30 6999 H 664.165 -4.53391 -4.74102 0
M  V30 7000 H 664.082 -6.21069 -4.31055 0
M  V30 7001 H 665.35 -5.65694 -5.36293 0
M  V30 7002 N 669.579 0.400081 -1.52437 0
M  V30 7003 C 670.489 1.51253 -1.79331 0
M  V30 7004 C 671.505 1.60188 -0.679396 0
M  V30 7005 O 672.681 1.76733 -0.965791 0
M  V30 7006 C 669.746 2.869 -1.94652 0
M  V30 7007 C 668.807 2.87777 -3.18564 0
M  V30 7008 C 668.04 4.16954 -3.33145 0
M  V30 7009 O 668.263 5.11329 -2.52783 0
M  V30 7010 O 667.197 4.2487 -4.26343 0
M  V30 7011 H 671.023 1.31461 -2.73773 0
M  V30 7012 H 668.608 0.586834 -1.37392 0
M  V30 7013 H 670.49 3.67336 -2.065 0
M  V30 7014 H 669.165 3.06741 -1.034 0
M  V30 7015 H 668.072 2.06162 -3.12167 0
M  V30 7016 H 669.405 2.72886 -4.09627 0
M  V30 7017 N 671.057 1.43213 0.657864 0
M  V30 7018 C 671.967 1.50448 1.80007 0
M  V30 7019 C 672.983 0.39191 1.69529 0
M  V30 7020 O 674.159 0.645349 1.90781 0
M  V30 7021 C 671.224 1.42062 3.16258 0
M  V30 7022 C 670.285 2.63951 3.38568 0
M  V30 7023 C 669.518 2.55956 4.68318 0
M  V30 7024 O 669.741 1.60473 5.47361 0
M  V30 7025 O 668.675 3.46378 4.92245 0
M  V30 7026 H 672.501 2.4689 1.76858 0
M  V30 7027 H 670.086 1.25163 0.81576 0
M  V30 7028 H 671.968 1.3981 3.97531 0
M  V30 7029 H 670.643 0.487524 3.20008 0
M  V30 7030 H 669.55 2.71776 2.57077 0
M  V30 7031 H 670.883 3.56217 3.39662 0
M  V30 7032 N 672.536 -0.895792 1.29666 0
M  V30 7033 C 673.446 -2.03329 1.17024 0
M  V30 7034 C 674.462 -1.73753 0.0925962 0
M  V30 7035 O 675.638 -1.99071 0.305431 0
M  V30 7036 C 672.703 -3.36072 0.851841 0
M  V30 7037 C 671.764 -3.7914 2.01373 0
M  V30 7038 C 670.997 -5.05549 1.71043 0
M  V30 7039 O 671.22 -5.66874 0.633213 0
M  V30 7040 O 670.154 -5.44764 2.5596 0
M  V30 7041 H 673.98 -2.16918 2.12556 0
M  V30 7042 H 671.565 -1.02007 1.09156 0
M  V30 7043 H 673.447 -4.15729 0.689006 0
M  V30 7044 H 672.122 -3.23616 -0.0736634 0
M  V30 7045 H 671.029 -3.00233 2.23183 0
M  V30 7046 H 672.362 -3.96186 2.92058 0
M  V30 7047 N 674.014 -1.12206 -1.10668 0
M  V30 7048 C 674.961 -0.787716 -2.16942 0
M  V30 7049 C 675.931 0.244442 -1.64291 0
M  V30 7050 O 677.116 0.119558 -1.90425 0
M  V30 7051 C 674.256 -0.24584 -3.44223 0
M  V30 7052 C 673.369 -1.33552 -4.10838 0
M  V30 7053 C 672.504 -0.753337 -5.25831 0
M  V30 7054 C 671.543 -1.82231 -5.84344 0
M  V30 7055 N 670.68 -1.25902 -6.90719 0
M  V30 7056 H 675.52 -1.69809 -2.44885 0
M  V30 7057 H 673.057 -0.847862 -1.20207 0
M  V30 7058 H 675.015 0.0863639 -4.17111 0
M  V30 7059 H 673.645 0.627702 -3.16638 0
M  V30 7060 H 672.697 -1.78454 -3.35944 0
M  V30 7061 H 674.009 -2.14396 -4.50373 0
M  V30 7062 H 673.163 -0.37166 -6.05561 0
M  V30 7063 H 671.902 0.0863297 -4.87624 0
M  V30 7064 H 670.907 -2.2132 -5.03287 0
M  V30 7065 H 672.132 -2.66515 -6.24617 0
M  V30 7066 H 670.078 -0.44114 -6.54515 0
M  V30 7067 H 669.995 -2.00408 -7.28953 0
M  V30 7068 H 671.263 -0.904498 -7.74235 0
M  V30 7069 N 675.492 1.28418 -0.913599 0
M  V30 7070 C 676.439 2.27301 -0.400373 0
M  V30 7071 C 677.409 1.57582 0.52509 0
M  V30 7072 O 678.594 1.85482 0.447318 0
M  V30 7073 C 675.734 3.43284 0.35361 0
M  V30 7074 C 674.847 4.27752 -0.604341 0
M  V30 7075 C 673.982 5.30934 0.168075 0
M  V30 7076 C 673.021 6.07065 -0.783499 0
M  V30 7077 N 672.158 7.02086 -0.0446112 0
M  V30 7078 H 676.998 2.70579 -1.24865 0
M  V30 7079 H 674.535 1.33067 -0.627028 0
M  V30 7080 H 676.493 4.09322 0.806945 0
M  V30 7081 H 675.123 3.00997 1.16623 0
M  V30 7082 H 674.175 3.61759 -1.17621 0
M  V30 7083 H 675.487 4.80682 -1.33216 0
M  V30 7084 H 674.641 6.02855 0.681979 0
M  V30 7085 H 673.38 4.78771 0.928947 0
M  V30 7086 H 672.385 5.33995 -1.30878 0
M  V30 7087 H 673.61 6.61317 -1.54392 0
M  V30 7088 H 671.556 6.52273 0.698272 0
M  V30 7089 H 671.473 7.52637 -0.712258 0
M  V30 7090 H 672.741 7.78205 0.449102 0
M  V30 7091 N 676.97 0.677563 1.42291 0
M  V30 7092 C 677.902 -0.0380218 2.29168 0
M  V30 7093 C 678.915 -0.762714 1.43828 0
M  V30 7094 O 680.104 -0.616413 1.67519 0
M  V30 7095 C 677.204 -1.07761 3.21311 0
M  V30 7096 C 676.377 -0.42618 4.35319 0
M  V30 7097 C 675.436 -1.36592 5.08162 0
M  V30 7098 O 674.462 -0.865174 5.62586 0
M  V30 7099 N 675.664 -2.69909 5.13935 0
M  V30 7100 H 678.429 0.707766 2.91223 0
M  V30 7101 H 675.99 0.52219 1.53247 0
M  V30 7102 H 677.982 -1.70761 3.6691 0
M  V30 7103 H 676.552 -1.72511 2.60689 0
M  V30 7104 H 675.772 0.383385 3.92331 0
M  V30 7105 H 677.06 0.0275277 5.08793 0
M  V30 7106 H 676.458 -3.13129 4.71134 0
M  V30 7107 H 675.015 -3.2815 5.6317 0
M  V30 7108 N 678.448 -1.51871 0.421078 0
M  V30 7109 C 679.859 -1.86644 -0.0457991 0
M  V30 7110 C 680.21 -1.33919 -1.43388 0
M  V30 7111 O 679.335 -0.683316 -2.05328 0
M  V30 7112 C 679.93 -3.38681 -0.0898844 0
M  V30 7113 C 678.489 -3.73049 -0.501127 0
M  V30 7114 C 677.636 -2.75485 0.316723 0
M  V30 7115 H 680.587 -1.45327 0.637635 0
M  V30 7116 H 680.608 -3.69636 -0.902734 0
M  V30 7117 H 680.12 -3.77025 0.920513 0
M  V30 7118 H 678.221 -3.40288 -1.51773 0
M  V30 7119 H 678.334 -4.78512 -0.237217 0
M  V30 7120 H 676.698 -2.53725 -0.222663 0
M  V30 7121 H 677.481 -3.16671 1.32569 0
M  V30 7122 N 679.926 -0.151884 -1.56866 0
M  V30 7123 C 681.203 0.543328 -1.87902 0
M  V30 7124 C 681.583 1.82636 -1.05864 0
M  V30 7125 O 680.931 2.28028 -0.146868 0
M  V30 7126 C 681.141 0.804056 -3.39611 0
M  V30 7127 C 682.489 1.14267 -4.08935 0
M  V30 7128 O 683.513 0.893248 -3.44818 0
M  V30 7129 O 682.372 1.61229 -5.22176 0
M  V30 7130 H 679.466 0.277724 -0.778973 0
M  V30 7131 H 682.012 -0.188862 -1.68646 0
M  V30 7132 H 680.784 -0.103772 -3.91162 0
M  V30 7133 H 680.407 1.59025 -3.64413 0
M  V30 7134 N 681.404 1.57128 0.121893 0
M  V30 7135 C 682.314 2.03425 1.16857 0
M  V30 7136 C 683.33 0.954108 1.45509 0
M  V30 7137 O 684.506 1.26541 1.56682 0
M  V30 7138 C 681.571 2.42685 2.47599 0
M  V30 7139 C 680.632 3.64767 2.2637 0
M  V30 7140 C 679.865 4.02145 3.50878 0
M  V30 7141 O 680.088 3.39897 4.58068 0
M  V30 7142 O 679.022 4.95262 3.42051 0
M  V30 7143 H 682.848 2.92825 0.80544 0
M  V30 7144 H 680.433 1.45654 0.332477 0
M  V30 7145 H 682.315 2.68684 3.24634 0
M  V30 7146 H 680.99 1.56432 2.83392 0
M  V30 7147 H 679.897 3.43922 1.47203 0
M  V30 7148 H 681.23 4.51716 1.95482 0
M  V30 7149 N 682.882 -0.391992 1.52647 0
M  V30 7150 C 683.792 -1.503 1.80131 0
M  V30 7151 C 684.808 -1.59825 0.687882 0
M  V30 7152 O 685.984 -1.76218 0.975149 0
M  V30 7153 C 683.049 -2.85863 1.96171 0
M  V30 7154 C 682.11 -2.86084 3.20085 0
M  V30 7155 C 681.343 -4.15181 3.35351 0
M  V30 7156 O 681.566 -5.09981 2.55491 0
M  V30 7157 O 680.5 -4.22603 4.28591 0
M  V30 7158 H 684.326 -1.30007 2.74466 0
M  V30 7159 H 681.911 -0.579539 1.37701 0
M  V30 7160 H 683.793 -3.66236 2.08445 0
M  V30 7161 H 682.468 -3.06189 1.05025 0
M  V30 7162 H 681.375 -2.04504 3.13256 0
M  V30 7163 H 682.708 -2.7071 4.11068 0
M  V30 7164 N 684.36 -1.4356 -0.65026 0
M  V30 7165 C 685.771 -1.40324 -1.2315 0
M  V30 7166 C 686.122 -0.108812 -1.95898 0
M  V30 7167 O 685.247 0.79163 -2.01401 0
M  V30 7168 C 685.842 -2.54195 -2.23987 0
M  V30 7169 C 684.401 -2.54215 -2.77582 0
M  V30 7170 C 683.548 -2.31752 -1.5227 0
M  V30 7171 H 686.499 -1.52418 -0.442095 0
M  V30 7172 H 686.52 -2.25854 -3.0622 0
M  V30 7173 H 686.032 -3.48392 -1.71011 0
M  V30 7174 H 684.133 -1.63907 -3.34612 0
M  V30 7175 H 684.246 -3.52081 -3.24925 0
M  V30 7176 H 682.61 -1.80476 -1.79723 0
M  V30 7177 H 683.393 -3.28037 -1.01225 0
M  V30 7178 N 685.838 0.888903 -1.30139 0
M  V30 7179 C 686.771 1.99655 -1.10514 0
M  V30 7180 C 687.749 1.62594 -0.0138934 0
M  V30 7181 O 688.933 1.87762 -0.166689 0
M  V30 7182 C 686.06 3.31708 -0.684655 0
M  V30 7183 C 685.106 3.87755 -1.77619 0
M  V30 7184 S 685.939 4.15532 -3.37777 0
M  V30 7185 C 687.095 5.5061 -2.97622 0
M  V30 7186 H 687.328 2.15996 -2.04287 0
M  V30 7187 H 684.861 1.03682 -1.14409 0
M  V30 7188 H 686.819 4.08039 -0.448782 0
M  V30 7189 H 685.48 3.1323 0.233648 0
M  V30 7190 H 684.673 4.83164 -1.43417 0
M  V30 7191 H 684.275 3.18149 -1.96614 0
M  V30 7192 H 686.567 6.31518 -2.45338 0
M  V30 7193 H 687.51 5.89747 -3.91924 0
M  V30 7194 H 687.918 5.12983 -2.35603 0
M  V30 7195 N 687.317 1.12792 1.10072 0
M  V30 7196 C 688.594 0.796867 1.78632 0
M  V30 7197 C 688.974 -0.712739 1.98704 0
M  V30 7198 O 688.322 -1.64773 1.5831 0
M  V30 7199 C 688.532 1.57622 3.11378 0
M  V30 7200 C 689.88 1.76463 3.86194 0
M  V30 7201 O 690.904 1.54165 3.2111 0
M  V30 7202 O 689.763 2.13623 5.03018 0
M  V30 7203 H 686.857 0.290248 0.774394 0
M  V30 7204 H 689.403 1.23215 1.16688 0
M  V30 7205 H 688.175 2.60246 2.92212 0
M  V30 7206 H 687.798 1.13543 3.81043 0
M  V30 7207 N 688.795 -1.27931 0.920396 0
M  V30 7208 C 689.728 -2.2537 0.358285 0
M  V30 7209 C 690.706 -1.53328 -0.541242 0
M  V30 7210 O 691.89 -1.82196 -0.483399 0
M  V30 7211 C 689.017 -3.35178 -0.487193 0
M  V30 7212 C 688.063 -4.25079 0.347881 0
M  V30 7213 S 688.896 -5.05792 1.75883 0
M  V30 7214 C 690.052 -6.19089 0.920832 0
M  V30 7215 H 690.285 -2.72701 1.18413 0
M  V30 7216 H 687.818 -1.36474 0.722088 0
M  V30 7217 H 689.776 -3.98895 -0.96916 0
M  V30 7218 H 688.437 -2.865 -1.28749 0
M  V30 7219 H 687.63 -5.03113 -0.298912 0
M  V30 7220 H 687.232 -3.66119 0.763748 0
M  V30 7221 H 689.524 -6.77326 0.15349 0
M  V30 7222 H 690.467 -6.8803 1.67394 0
M  V30 7223 H 690.875 -5.62573 0.466069 0
M  V30 7224 N 690.273 -0.685099 -1.4193 0
M  V30 7225 C 691.519 -0.211971 -2.01689 0
M  V30 7226 C 691.852 1.18189 -1.54094 0
M  V30 7227 O 691.127 1.79559 -0.747572 0
M  V30 7228 C 691.41 -0.258019 -3.59174 0
M  V30 7229 C 691.263 -1.68807 -4.16922 0
M  V30 7230 C 692.582 0.388044 -4.38386 0
M  V30 7231 H 689.701 -0.0784987 -0.732808 0
M  V30 7232 H 692.343 -0.871837 -1.68816 0
M  V30 7233 H 690.493 0.303832 -3.8731 0
M  V30 7234 H 692.165 -2.30296 -3.99702 0
M  V30 7235 H 690.408 -2.22553 -3.72361 0
M  V30 7236 H 691.079 -1.6719 -5.26072 0
M  V30 7237 H 693.555 -0.0903432 -4.16002 0
M  V30 7238 H 692.431 0.325232 -5.47936 0
M  V30 7239 H 692.692 1.4672 -4.17044 0
M  V30 7240 N 691.751 1.51645 -0.429126 0
M  V30 7241 C 692.997 2.02314 0.140286 0
M  V30 7242 C 693.33 1.31314 1.43074 0
M  V30 7243 O 692.605 0.425531 1.89788 0
M  V30 7244 C 692.888 3.5822 0.36749 0
M  V30 7245 C 692.741 4.39846 -0.941039 0
M  V30 7246 C 694.06 4.25055 1.14089 0
M  V30 7247 H 691.179 0.735335 0.0495112 0
M  V30 7248 H 693.821 1.81358 -0.566514 0
M  V30 7249 H 691.971 3.76207 0.969556 0
M  V30 7250 H 693.643 4.33527 -1.57646 0
M  V30 7251 H 691.886 4.05259 -1.54751 0
M  V30 7252 H 692.557 5.47069 -0.73621 0
M  V30 7253 H 695.033 4.11288 0.630986 0
M  V30 7254 H 693.909 5.34038 1.26863 0
M  V30 7255 H 694.17 3.85358 2.16683 0
M  V30 7256 N 693.229 0.160201 1.56784 0
M  V30 7257 C 694.139 -0.787167 2.21 0
M  V30 7258 C 695.155 -1.26167 1.19825 0
M  V30 7259 O 696.331 -1.31611 1.52448 0
M  V30 7260 C 693.396 -2.00364 2.8294 0
M  V30 7261 C 692.457 -1.5771 3.99282 0
M  V30 7262 C 691.69 -2.73558 4.58259 0
M  V30 7263 O 691.913 -3.90129 4.16119 0
M  V30 7264 O 690.847 -2.48271 5.48311 0
M  V30 7265 H 694.673 -0.270462 3.02493 0
M  V30 7266 H 692.258 -0.0674666 1.49248 0
M  V30 7267 H 694.14 -2.71529 3.22257 0
M  V30 7268 H 692.815 -2.50961 2.04451 0
M  V30 7269 H 691.722 -0.835274 3.64656 0
M  V30 7270 H 693.055 -1.11815 4.79331 0
M  V30 7271 N 694.707 -1.5719 -0.113559 0
M  V30 7272 C 695.654 -2.00736 -1.13901 0
M  V30 7273 C 696.624 -0.88044 -1.40846 0
M  V30 7274 O 697.809 -1.14507 -1.5262 0
M  V30 7275 C 694.949 -2.42132 -2.45899 0
M  V30 7276 C 694.062 -3.68264 -2.25844 0
M  V30 7277 C 693.197 -3.98617 -3.5111 0
M  V30 7278 C 692.236 -5.17915 -3.26236 0
M  V30 7279 N 691.373 -5.44111 -4.4372 0
M  V30 7280 H 696.213 -2.88128 -0.760677 0
M  V30 7281 H 693.75 -1.42523 -0.364099 0
M  V30 7282 H 695.708 -2.6417 -3.22908 0
M  V30 7283 H 694.338 -1.57775 -2.81615 0
M  V30 7284 H 693.39 -3.53809 -1.39726 0
M  V30 7285 H 694.702 -4.55425 -2.03444 0
M  V30 7286 H 693.856 -4.21333 -4.36536 0
M  V30 7287 H 692.595 -3.09942 -3.76546 0
M  V30 7288 H 691.6 -4.95038 -2.39202 0
M  V30 7289 H 692.825 -6.08172 -3.02165 0
M  V30 7290 H 690.771 -4.58394 -4.69266 0
M  V30 7291 H 690.688 -6.25606 -4.24444 0
M  V30 7292 H 691.956 -5.71351 -5.30263 0
M  V30 7293 N 696.185 0.383891 -1.52853 0
M  V30 7294 C 697.117 1.48889 -1.74255 0
M  V30 7295 C 698.13 1.50405 -0.623063 0
M  V30 7296 O 699.319 1.54215 -0.898887 0
M  V30 7297 C 696.419 2.87721 -1.79081 0
M  V30 7298 C 695.592 3.10111 -3.08464 0
M  V30 7299 C 694.651 4.28954 -3.0477 0
M  V30 7300 O 693.677 4.25012 -3.78621 0
M  V30 7301 N 694.879 5.35411 -2.24311 0
M  V30 7302 H 697.644 1.30915 -2.69595 0
M  V30 7303 H 695.205 0.573454 -1.51404 0
M  V30 7304 H 697.197 3.65333 -1.7411 0
M  V30 7305 H 695.767 2.99029 -0.911052 0
M  V30 7306 H 694.987 2.20319 -3.26884 0
M  V30 7307 H 696.275 3.21928 -3.94005 0
M  V30 7308 H 695.673 5.41471 -1.63787 0
M  V30 7309 H 694.23 6.1167 -2.25175 0
M  V30 7310 N 697.663 1.43903 0.642637 0
M  V30 7311 C 698.573 1.52349 1.78401 0
M  V30 7312 C 699.589 0.409869 1.69104 0
M  V30 7313 O 700.765 0.665548 1.90085 0
M  V30 7314 C 697.83 1.45408 3.14734 0
M  V30 7315 C 696.891 2.67528 3.35749 0
M  V30 7316 C 696.124 2.60909 4.65577 0
M  V30 7317 O 696.347 1.6627 5.45628 0
M  V30 7318 O 695.281 3.5158 4.88544 0
M  V30 7319 H 699.107 2.48752 1.7423 0
M  V30 7320 H 696.692 1.26021 0.802439 0
M  V30 7321 H 698.574 1.44019 3.96026 0
M  V30 7322 H 697.249 0.521437 3.19473 0
M  V30 7323 H 696.156 2.74487 2.5418 0
M  V30 7324 H 697.489 3.598 3.35864 0
M  V30 7325 N 699.141 -0.881989 1.30609 0
M  V30 7326 C 700.051 -2.02076 1.19174 0
M  V30 7327 C 701.067 -1.73645 0.11102 0
M  V30 7328 O 702.243 -1.98735 0.326528 0
M  V30 7329 C 699.308 -3.3515 0.887438 0
M  V30 7330 C 698.369 -3.76983 2.05383 0
M  V30 7331 C 697.602 -5.03707 1.76395 0
M  V30 7332 O 697.825 -5.66171 0.693302 0
M  V30 7333 O 696.759 -5.42019 2.61723 0
M  V30 7334 H 700.585 -2.14652 2.14845 0
M  V30 7335 H 698.17 -1.00843 1.10232 0
M  V30 7336 H 700.052 -4.14975 0.73306 0
M  V30 7337 H 698.727 -3.23676 -0.0393354 0
M  V30 7338 H 697.634 -2.97849 2.26355 0
M  V30 7339 H 698.967 -3.93066 2.96243 0
M  V30 7340 N 700.619 -1.13374 -1.09472 0
M  V30 7341 C 701.847 -0.918351 -1.85402 0
M  V30 7342 C 702.262 0.53281 -1.81126 0
M  V30 7343 O 701.619 1.36879 -1.20708 0
M  V30 7344 C 701.67 -1.39743 -3.33398 0
M  V30 7345 O 701.391 -2.79172 -3.37631 0
M  V30 7346 C 702.892 -1.22042 -4.2617 0
M  V30 7347 H 700.112 -0.327511 -0.585643 0
M  V30 7348 H 702.656 -1.50617 -1.38328 0
M  V30 7349 H 700.811 -0.852619 -3.77901 0
M  V30 7350 H 701.225 -3.00428 -4.29934 0
M  V30 7351 H 702.699 -1.60438 -5.2817 0
M  V30 7352 H 703.176 -0.162047 -4.38901 0
M  V30 7353 H 703.782 -1.75323 -3.87482 0
M  V30 7354 N 702.098 1.27442 -0.927168 0
M  V30 7355 C 703.375 1.89473 -0.485742 0
M  V30 7356 C 703.755 1.83922 1.03614 0
M  V30 7357 O 703.103 1.28409 1.89007 0
M  V30 7358 C 703.313 3.33417 -1.03123 0
M  V30 7359 C 704.661 4.10333 -1.0914 0
M  V30 7360 O 705.685 3.4243 -0.98082 0
M  V30 7361 O 704.544 5.31737 -1.26165 0
M  V30 7362 H 701.638 0.812124 -0.156154 0
M  V30 7363 H 704.184 1.35713 -1.01882 0
M  V30 7364 H 702.956 3.31747 -2.07508 0
M  V30 7365 H 702.579 3.94695 -0.479767 0
M  V30 7366 N 703.576 0.692616 1.41565 0
M  V30 7367 C 704.526 0.00231847 2.28 0
M  V30 7368 C 705.51 -0.755793 1.42044 0
M  V30 7369 O 706.702 -0.631772 1.65341 0
M  V30 7370 C 703.831 -0.935468 3.30309 0
M  V30 7371 C 702.917 -0.173761 4.23744 0
M  V30 7372 N 703.308 0.830872 4.98929 0
M  V30 7373 C 701.606 -0.409666 4.44115 0
M  V30 7374 C 702.307 1.28656 5.67294 0
M  V30 7375 N 701.283 0.613053 5.40132 0
M  V30 7376 H 705.085 0.772635 2.83562 0
M  V30 7377 H 702.599 0.523198 1.53741 0
M  V30 7378 H 704.596 -1.44513 3.91052 0
M  V30 7379 H 703.256 -1.70542 2.76307 0
M  V30 7380 H 704.267 1.21101 5.03542 0
M  V30 7381 H 700.944 -1.15773 4.01127 0
M  V30 7382 H 702.334 2.12006 6.37576 0
M  V30 7383 N 705.054 -1.51416 0.437162 0
M  V30 7384 C 706.001 -2.27743 -0.374374 0
M  V30 7385 C 706.971 -1.31327 -1.01698 0
M  V30 7386 O 708.156 -1.60229 -1.03592 0
M  V30 7387 C 705.296 -3.12241 -1.46969 0
M  V30 7388 C 704.409 -4.23651 -0.845236 0
M  V30 7389 C 703.544 -4.95458 -1.91559 0
M  V30 7390 C 702.583 -5.98789 -1.26956 0
M  V30 7391 N 701.72 -6.64005 -2.28126 0
M  V30 7392 H 706.56 -2.96654 0.282892 0
M  V30 7393 H 704.097 -1.46319 0.151352 0
M  V30 7394 H 706.055 -3.59556 -2.11602 0
M  V30 7395 H 704.685 -2.45445 -2.09659 0
M  V30 7396 H 703.737 -3.803 -0.0872059 0
M  V30 7397 H 705.049 -4.97683 -0.333582 0
M  V30 7398 H 704.203 -5.46321 -2.63854 0
M  V30 7399 H 702.942 -4.21055 -2.46097 0
M  V30 7400 H 701.947 -5.47219 -0.53207 0
M  V30 7401 H 703.172 -6.75149 -0.731509 0
M  V30 7402 H 701.118 -5.92415 -2.81745 0
M  V30 7403 H 701.035 -7.33802 -1.81852 0
M  V30 7404 H 702.303 -7.19498 -2.99905 0
M  V30 7405 N 706.532 -0.168513 -1.56696 0
M  V30 7406 C 707.48 0.779791 -2.19139 0
M  V30 7407 C 708.474 1.23957 -1.1546 0
M  V30 7408 O 709.68 1.20555 -1.33666 0
M  V30 7409 H 706.055 0.269739 -0.701958 0
M  V30 7410 H 708.026 0.229156 -2.97519 0
M  V30 7411 C 706.775 2.00003 -2.84419 0
M  V30 7412 H 706.098 1.65527 -3.63924 0
M  V30 7413 H 707.538 2.64251 -3.31583 0
M  V30 7414 C 705.997 2.82187 -1.84044 0
M  V30 7415 O 706.527 3.79247 -1.32418 0
M  V30 7416 N 704.733 2.47145 -1.52864 0
M  V30 7417 H 704.28 1.68277 -1.9504 0
M  V30 7418 H 704.238 3.02422 -0.859569 0
M  V30 7419 N 708.01 1.57248 0.105221 0
M  V30 7420 C 709.287 1.76566 0.841647 0
M  V30 7421 C 709.667 0.747566 1.9742 0
M  V30 7422 O 709.015 -0.225886 2.27381 0
M  V30 7423 C 709.225 3.22016 1.3456 0
M  V30 7424 C 710.573 3.84911 1.79244 0
M  V30 7425 O 711.597 3.25703 1.44207 0
M  V30 7426 O 710.456 4.89008 2.43995 0
M  V30 7427 H 707.55 0.723443 0.400698 0
M  V30 7428 H 710.096 1.69472 0.0878893 0
M  V30 7429 H 708.868 3.87644 0.533685 0
M  V30 7430 H 708.491 3.33703 2.16167 0
M  V30 7431 N 709.488 -0.375779 1.53054 0
M  V30 7432 C 710.436 -1.48015 1.79428 0
M  V30 7433 C 711.43 -1.55893 0.662854 0
M  V30 7434 O 712.636 -1.58901 0.845599 0
M  V30 7435 H 709.011 -0.492887 0.56795 0
M  V30 7436 H 710.982 -1.22971 2.71884 0
M  V30 7437 C 709.731 -2.84984 1.99197 0
M  V30 7438 H 709.054 -2.79677 2.85693 0
M  V30 7439 H 710.494 -3.61462 2.21633 0
M  V30 7440 C 708.953 -3.28025 0.768183 0
M  V30 7441 O 709.483 -4.01671 -0.0480482 0
M  V30 7442 N 707.689 -2.84454 0.594521 0
M  V30 7443 H 707.236 -2.24688 1.25988 0
M  V30 7444 H 707.194 -3.13609 -0.222916 0
M  V30 7445 N 710.966 -1.44241 -0.634997 0
M  V30 7446 C 711.898 -1.46793 -1.76024 0
M  V30 7447 C 712.911 -0.361781 -1.58729 0
M  V30 7448 O 714.1 -0.627297 -1.67114 0
M  V30 7449 C 711.2 -1.28248 -3.13697 0
M  V30 7450 C 710.373 -2.52038 -3.57485 0
M  V30 7451 C 709.432 -2.2845 -4.74022 0
M  V30 7452 O 708.458 -3.01915 -4.82531 0
M  V30 7453 N 709.66 -1.31264 -5.65464 0
M  V30 7454 H 712.425 -2.43797 -1.74307 0
M  V30 7455 H 709.986 -1.39631 -0.819438 0
M  V30 7456 H 711.978 -1.10321 -3.89373 0
M  V30 7457 H 710.548 -0.39623 -3.10079 0
M  V30 7458 H 709.768 -2.85268 -2.72059 0
M  V30 7459 H 711.056 -3.34382 -3.83492 0
M  V30 7460 H 710.454 -0.705817 -5.6128 0
M  V30 7461 H 709.011 -1.19316 -6.40786 0
M  V30 7462 N 712.444 0.87505 -1.31075 0
M  V30 7463 C 713.693 1.62245 -1.19831 0
M  V30 7464 C 714.006 1.94078 0.24357 0
M  V30 7465 O 715.212 2.67265 0.477646 0
M  V30 7466 C 713.668 2.92464 -2.09744 0
M  V30 7467 C 713.276 2.68134 -3.58898 0
M  V30 7468 C 715.02 3.70449 -2.07287 0
M  V30 7469 C 712.927 3.9423 -4.40836 0
M  V30 7470 H 711.857 0.608741 -0.444916 0
M  V30 7471 H 714.508 0.967947 -1.55894 0
M  V30 7472 H 712.89 3.59262 -1.66574 0
M  V30 7473 H 714.064 2.09776 -4.10281 0
M  V30 7474 H 712.379 2.03511 -3.6328 0
M  V30 7475 H 714.976 4.63983 -2.65752 0
M  V30 7476 H 715.319 4.02611 -1.05876 0
M  V30 7477 H 715.852 3.10528 -2.48631 0
M  V30 7478 H 712.591 3.67221 -5.42982 0
M  V30 7479 H 712.111 4.52058 -3.94213 0
M  V30 7480 H 713.79 4.62162 -4.52786 0
M  V30 7481 N 713.922 1.13953 1.08869 0
M  V30 7482 C 714.852 0.844824 2.17681 0
M  V30 7483 C 715.833 -0.198213 1.68941 0
M  V30 7484 O 717.018 -0.0559073 1.9412 0
M  V30 7485 C 714.148 0.316325 3.45856 0
M  V30 7486 C 713.102 1.29426 4.07962 0
M  V30 7487 C 712.428 0.625275 5.31031 0
M  V30 7488 C 713.728 2.65484 4.49795 0
M  V30 7489 H 715.422 1.75471 2.42591 0
M  V30 7490 H 712.968 0.845116 1.16592 0
M  V30 7491 H 714.921 0.0977876 4.21287 0
M  V30 7492 H 713.645 -0.628972 3.20486 0
M  V30 7493 H 712.304 1.49889 3.34558 0
M  V30 7494 H 711.952 -0.325678 5.01945 0
M  V30 7495 H 711.652 1.27777 5.73539 0
M  V30 7496 H 713.176 0.416152 6.0918 0
M  V30 7497 H 714.59 2.48957 5.16424 0
M  V30 7498 H 712.987 3.26963 5.03205 0
M  V30 7499 H 714.057 3.22717 3.61914 0
M  V30 7500 N 715.4 -1.26948 0.933913 0
M  V30 7501 C 716.625 -1.98724 0.593589 0
M  V30 7502 C 717.05 -1.6915 -0.822801 0
M  V30 7503 O 716.408 -0.93533 -1.5531 0
M  V30 7504 C 716.456 -3.50834 0.833542 0
M  V30 7505 O 715.56 -4.12284 -0.0978788 0
M  V30 7506 H 714.901 -0.623683 0.227849 0
M  V30 7507 H 717.431 -1.61599 1.25486 0
M  V30 7508 H 717.441 -4.01018 0.75156 0
M  V30 7509 H 716.116 -3.71691 1.86597 0
M  V30 7510 H 714.693 -3.72884 0.0345443 0
M  V30 7511 N 716.879 -0.700114 -1.41195 0
M  V30 7512 C 717.789 -0.0382854 -2.34569 0
M  V30 7513 C 718.805 0.761036 -1.56474 0
M  V30 7514 O 719.981 0.697553 -1.88934 0
M  V30 7515 C 717.046 0.883522 -3.35253 0
M  V30 7516 C 716.107 0.0758957 -4.29233 0
M  V30 7517 C 715.34 0.9538 -5.25108 0
M  V30 7518 O 715.563 2.19326 -5.26547 0
M  V30 7519 O 714.497 0.401049 -6.00562 0
M  V30 7520 H 718.323 -0.808073 -2.92752 0
M  V30 7521 H 715.908 -0.460479 -1.42127 0
M  V30 7522 H 717.79 1.41199 -3.9704 0
M  V30 7523 H 716.465 1.63272 -2.79506 0
M  V30 7524 H 715.372 -0.497274 -3.7078 0
M  V30 7525 H 716.705 -0.634741 -4.8809 0
M  V30 7526 N 718.357 1.51182 -0.445186 0
M  V30 7527 C 719.606 2.01342 0.120189 0
M  V30 7528 C 719.919 1.33353 1.43095 0
M  V30 7529 O 721.125 1.74525 2.07974 0
M  V30 7530 C 719.581 3.58925 0.264732 0
M  V30 7531 C 719.189 4.35855 -1.03606 0
M  V30 7532 C 720.933 4.17208 0.783455 0
M  V30 7533 C 718.84 5.85162 -0.856731 0
M  V30 7534 H 717.77 0.752426 0.0486922 0
M  V30 7535 H 720.421 1.74221 -0.576143 0
M  V30 7536 H 718.803 3.82525 1.02425 0
M  V30 7537 H 719.977 4.23997 -1.80452 0
M  V30 7538 H 718.292 3.89062 -1.48391 0
M  V30 7539 H 720.889 5.26475 0.934239 0
M  V30 7540 H 721.232 3.76892 1.768 0
M  V30 7541 H 721.765 3.97715 0.0820346 0
M  V30 7542 H 718.504 6.29904 -1.81388 0
M  V30 7543 H 718.024 5.99663 -0.128206 0
M  V30 7544 H 719.703 6.44963 -0.513027 0
M  V30 7545 N 719.835 0.176821 1.56605 0
M  V30 7546 C 721.081 -0.467406 1.9734 0
M  V30 7547 C 721.414 -1.62523 1.06301 0
M  V30 7548 O 720.689 -1.94182 0.11125 0
M  V30 7549 C 720.972 -0.945106 3.47476 0
M  V30 7550 C 720.825 0.213273 4.49294 0
M  V30 7551 C 722.144 -1.8169 4.00845 0
M  V30 7552 H 719.263 -0.168426 0.717497 0
M  V30 7553 H 721.905 0.264065 1.88156 0
M  V30 7554 H 720.055 -1.56841 3.55434 0
M  V30 7555 H 721.727 0.850508 4.53392 0
M  V30 7556 H 719.97 0.867918 4.25029 0
M  V30 7557 H 720.641 -0.163187 5.51759 0
M  V30 7558 H 723.117 -1.29139 3.95553 0
M  V30 7559 H 721.993 -2.12015 5.06301 0
M  V30 7560 H 722.254 -2.76463 3.44994 0
M  V30 7561 N 721.313 -1.57302 -0.09688 0
M  V30 7562 C 722.223 -2.05258 -1.13606 0
M  V30 7563 C 723.239 -0.977137 -1.43972 0
M  V30 7564 O 724.415 -1.29018 -1.54649 0
M  V30 7565 C 721.48 -2.46593 -2.43706 0
M  V30 7566 C 720.541 -3.68322 -2.20538 0
M  V30 7567 C 719.774 -4.07676 -3.44435 0
M  V30 7568 O 719.997 -3.47141 -4.52603 0
M  V30 7569 O 718.931 -5.00641 -3.34129 0
M  V30 7570 H 722.757 -2.94069 -0.758752 0
M  V30 7571 H 720.342 -1.46164 -0.309263 0
M  V30 7572 H 722.224 -2.73814 -3.20318 0
M  V30 7573 H 720.899 -1.6092 -2.80867 0
M  V30 7574 H 719.806 -3.4622 -1.41713 0
M  V30 7575 H 721.139 -4.54769 -1.88271 0
M  V30 7576 N 722.791 0.367657 -1.53252 0
M  V30 7577 C 723.754 1.43308 -1.78873 0
M  V30 7578 C 724.754 1.46671 -0.659115 0
M  V30 7579 O 725.944 1.47468 -0.927306 0
M  V30 7580 C 723.076 2.82442 -1.90892 0
M  V30 7581 H 724.269 1.21864 -2.74024 0
M  V30 7582 H 721.822 0.600668 -1.44297 0
M  V30 7583 H 722.557 3.09202 -0.978 0
M  V30 7584 H 722.342 2.81399 -2.73051 0
M  V30 7585 H 723.832 3.59601 -2.12314 0
M  V30 7586 N 724.269 1.44576 0.627338 0
M  V30 7587 C 725.216 1.51734 1.73912 0
M  V30 7588 C 726.186 0.364745 1.62046 0
M  V30 7589 O 727.371 0.575503 1.81914 0
M  V30 7590 C 724.511 1.47116 3.12171 0
M  V30 7591 C 723.624 2.72778 3.34986 0
M  V30 7592 C 722.759 2.59968 4.63239 0
M  V30 7593 C 721.798 3.80776 4.79245 0
M  V30 7594 N 720.935 3.66618 5.98778 0
M  V30 7595 H 725.775 2.46722 1.6713 0
M  V30 7596 H 723.312 1.22444 0.815224 0
M  V30 7597 H 725.27 1.42429 3.92135 0
M  V30 7598 H 723.9 0.556928 3.17959 0
M  V30 7599 H 722.952 2.87637 2.48936 0
M  V30 7600 H 724.264 3.62441 3.42692 0
M  V30 7601 H 723.418 2.53135 5.51369 0
M  V30 7602 H 722.157 1.67872 4.57898 0
M  V30 7603 H 721.162 3.87989 3.89544 0
M  V30 7604 H 722.387 4.73913 4.86398 0
M  V30 7605 H 720.333 2.77277 5.9452 0
M  V30 7606 H 720.25 4.499 6.07557 0
M  V30 7607 H 721.518 3.63684 6.89459 0
M  V30 7608 N 725.747 -0.868086 1.31537 0
M  V30 7609 C 726.68 -1.97871 1.13676 0
M  V30 7610 C 727.658 -1.62551 0.0397589 0
M  V30 7611 O 728.842 -1.87473 0.196539 0
M  V30 7612 C 725.969 -3.30577 0.73734 0
M  V30 7613 C 725.015 -3.8488 1.83765 0
M  V30 7614 S 725.848 -4.10106 3.44345 0
M  V30 7615 C 727.004 -5.45806 3.06344 0
M  V30 7616 H 727.237 -2.12719 2.07697 0
M  V30 7617 H 724.77 -1.01849 1.16044 0
M  V30 7618 H 726.728 -4.07274 0.513641 0
M  V30 7619 H 725.389 -3.13562 -0.183787 0
M  V30 7620 H 724.582 -4.80821 1.51085 0
M  V30 7621 H 724.184 -3.14981 2.01651 0
M  V30 7622 H 726.476 -6.27535 2.55354 0
M  V30 7623 H 727.419 -5.83437 4.01257 0
M  V30 7624 H 727.827 -5.0917 2.43734 0
M  V30 7625 N 727.225 -1.14528 -1.08264 0
M  V30 7626 C 728.188 -0.83632 -2.13397 0
M  V30 7627 C 729.188 0.159715 -1.60005 0
M  V30 7628 O 730.378 -0.0688098 -1.74064 0
M  V30 7629 C 727.51 -0.246973 -3.40004 0
M  V30 7630 H 728.703 -1.76808 -2.42237 0
M  V30 7631 H 726.256 -0.951509 -1.24 0
M  V30 7632 H 726.991 0.693436 -3.168 0
M  V30 7633 H 726.776 -0.964412 -3.80055 0
M  V30 7634 H 728.266 -0.0480679 -4.17572 0
M  V30 7635 N 728.703 1.26451 -0.940633 0
M  V30 7636 C 729.613 2.30128 -0.455881 0
M  V30 7637 C 730.629 1.67536 0.469867 0
M  V30 7638 O 731.805 1.98344 0.349529 0
M  V30 7639 C 728.87 3.45634 0.271648 0
M  V30 7640 C 727.931 4.23709 -0.690594 0
M  V30 7641 C 727.164 5.337 0.00231047 0
M  V30 7642 O 727.387 5.57215 1.21935 0
M  V30 7643 O 726.321 5.98091 -0.676111 0
M  V30 7644 H 730.147 2.73655 -1.31707 0
M  V30 7645 H 727.732 1.3164 -0.706497 0
M  V30 7646 H 729.614 4.15853 0.681486 0
M  V30 7647 H 728.289 3.04138 1.10824 0
M  V30 7648 H 727.196 3.55974 -1.15037 0
M  V30 7649 H 728.529 4.68953 -1.49478 0
M  V30 7650 N 730.181 0.707592 1.40822 0
M  V30 7651 C 731.091 0.0507246 2.34545 0
M  V30 7652 C 732.107 -0.752727 1.56876 0
M  V30 7653 O 733.283 -0.687524 1.89302 0
M  V30 7654 C 730.348 -0.865731 3.35717 0
M  V30 7655 C 729.409 -0.0531313 4.29267 0
M  V30 7656 C 728.642 -0.925939 5.25606 0
M  V30 7657 O 728.865 -2.16531 5.27703 0
M  V30 7658 O 727.799 -0.369194 6.00767 0
M  V30 7659 H 731.625 0.823587 2.9232 0
M  V30 7660 H 729.21 0.46801 1.4188 0
M  V30 7661 H 731.092 -1.39091 3.97783 0
M  V30 7662 H 729.767 -1.61788 2.80368 0
M  V30 7663 H 728.674 0.516931 3.70511 0
M  V30 7664 H 730.007 0.660617 4.87747 0
M  V30 7665 N 731.66 -1.50943 0.453197 0
M  V30 7666 C 732.59 -2.31005 -0.34044 0
M  V30 7667 C 733.571 -1.37112 -1.00669 0
M  V30 7668 O 734.756 -1.66033 -1.0073 0
M  V30 7669 C 731.886 -3.16358 -1.433 0
M  V30 7670 C 730.84 -4.18658 -0.889363 0
M  V30 7671 C 730.166 -4.92633 -2.07887 0
M  V30 7672 C 731.466 -5.22227 0.0871142 0
M  V30 7673 H 733.16 -2.97601 0.327723 0
M  V30 7674 H 730.706 -1.43119 0.159054 0
M  V30 7675 H 732.659 -3.71155 -1.99555 0
M  V30 7676 H 731.383 -2.47613 -2.12968 0
M  V30 7677 H 730.042 -3.64936 -0.348915 0
M  V30 7678 H 729.69 -4.20376 -2.76211 0
M  V30 7679 H 729.39 -5.61819 -1.72143 0
M  V30 7680 H 730.914 -5.50258 -2.64666 0
M  V30 7681 H 732.328 -5.72001 -0.385656 0
M  V30 7682 H 730.725 -5.99032 0.357926 0
M  V30 7683 H 731.795 -4.74077 1.01879 0
M  V30 7684 N 733.138 -0.185124 -1.56509 0
M  V30 7685 C 734.085 0.739729 -2.18624 0
M  V30 7686 C 735.055 1.217 -1.13042 0
M  V30 7687 O 736.24 1.28268 -1.41251 0
M  V30 7688 C 733.38 1.95787 -2.84186 0
M  V30 7689 C 732.493 1.52289 -4.04267 0
M  V30 7690 C 731.628 2.69576 -4.57714 0
M  V30 7691 C 730.667 2.22636 -5.70175 0
M  V30 7692 N 729.804 3.33065 -6.18071 0
M  V30 7693 H 734.644 0.203269 -2.97306 0
M  V30 7694 H 732.181 0.0885946 -1.46833 0
M  V30 7695 H 734.139 2.67253 -3.20361 0
M  V30 7696 H 732.769 2.4678 -2.08085 0
M  V30 7697 H 731.821 0.704458 -3.7382 0
M  V30 7698 H 733.133 1.13843 -4.85635 0
M  V30 7699 H 732.287 3.4918 -4.96143 0
M  V30 7700 H 731.026 3.1129 -3.75433 0
M  V30 7701 H 730.031 1.41483 -5.31284 0
M  V30 7702 H 731.256 1.81964 -6.54267 0
M  V30 7703 H 729.202 3.74328 -5.38715 0
M  V30 7704 H 729.119 2.98756 -6.94464 0
M  V30 7705 H 730.387 4.12912 -6.61153 0
M  V30 7706 N 734.616 1.57351 0.0885366 0
M  V30 7707 C 736.027 1.75303 0.642308 0
M  V30 7708 C 736.378 0.808238 1.78779 0
M  V30 7709 O 735.503 -0.01171 2.16397 0
M  V30 7710 C 736.098 3.17885 1.17194 0
M  V30 7711 C 734.657 3.37239 1.67172 0
M  V30 7712 C 733.804 2.7108 0.584045 0
M  V30 7713 H 736.755 1.58103 -0.137567 0
M  V30 7714 H 736.776 3.2112 2.04114 0
M  V30 7715 H 736.288 3.86625 0.338024 0
M  V30 7716 H 734.389 2.73588 2.52943 0
M  V30 7717 H 734.502 4.45594 1.76019 0
M  V30 7718 H 732.866 2.33161 1.02508 0
M  V30 7719 H 733.649 3.42464 -0.239403 0
M  V30 7720 N 736.094 -0.359525 1.53444 0
M  V30 7721 C 737.027 -1.46338 1.75101 0
M  V30 7722 C 738.005 -1.51142 0.599559 0
M  V30 7723 O 739.189 -1.69102 0.832862 0
M  V30 7724 C 736.316 -2.84667 1.83527 0
M  V30 7725 C 735.362 -2.9756 3.05549 0
M  V30 7726 S 736.195 -2.65685 4.64943 0
M  V30 7727 C 737.351 -4.06153 4.76225 0
M  V30 7728 H 737.584 -1.27747 2.68455 0
M  V30 7729 H 735.117 -0.554231 1.4411 0
M  V30 7730 H 737.075 -3.64368 1.89067 0
M  V30 7731 H 735.736 -3.00564 0.912147 0
M  V30 7732 H 734.929 -3.98883 3.08072 0
M  V30 7733 H 734.531 -2.25789 2.98153 0
M  V30 7734 H 736.823 -5.00475 4.56652 0
M  V30 7735 H 737.766 -4.08632 5.78295 0
M  V30 7736 H 738.174 -3.93435 4.04808 0
M  V30 7737 N 737.572 -1.44907 -0.619662 0
M  V30 7738 C 738.849 -1.38766 -1.37852 0
M  V30 7739 C 739.229 -0.0521393 -2.11036 0
M  V30 7740 O 738.577 0.965613 -2.07095 0
M  V30 7741 C 738.787 -2.59344 -2.33541 0
M  V30 7742 C 740.135 -3.03909 -2.96521 0
M  V30 7743 O 741.159 -2.59631 -2.43865 0
M  V30 7744 O 740.018 -3.80713 -3.92071 0
M  V30 7745 H 737.112 -0.550083 -0.617525 0
M  V30 7746 H 739.658 -1.57015 -0.643759 0
M  V30 7747 H 738.43 -3.48142 -1.78642 0
M  V30 7748 H 738.053 -2.43367 -3.14417 0
M  V30 7749 N 739.05 0.861098 -1.31996 0
M  V30 7750 C 740.278 1.6474 -1.25173 0
M  V30 7751 C 740.693 1.87926 0.181425 0
M  V30 7752 O 740.05 1.4437 1.1164 0
M  V30 7753 C 740.101 3.01036 -2.0015 0
M  V30 7754 O 739.822 2.7888 -3.37872 0
M  V30 7755 C 741.323 3.95481 -2.00273 0
M  V30 7756 H 738.543 0.513314 -0.432146 0
M  V30 7757 H 741.087 1.07419 -1.74016 0
M  V30 7758 H 739.242 3.55021 -1.55046 0
M  V30 7759 H 739.656 3.65514 -3.76165 0
M  V30 7760 H 741.13 4.88403 -2.57229 0
M  V30 7761 H 741.607 4.27957 -0.987407 0
M  V30 7762 H 742.213 3.47433 -2.45296 0
M  V30 7763 N 740.528 1.15101 1.07655 0
M  V30 7764 C 741.805 0.834578 1.76902 0
M  V30 7765 C 742.185 -0.670431 2.00171 0
M  V30 7766 O 741.533 -1.61378 1.6177 0
M  V30 7767 C 741.743 1.64191 3.07965 0
M  V30 7768 C 743.091 1.84615 3.82364 0
M  V30 7769 O 744.115 1.60941 3.17768 0
M  V30 7770 O 742.974 2.24244 4.98374 0
M  V30 7771 H 740.068 0.306608 0.768063 0
M  V30 7772 H 742.614 1.25663 1.14048 0
M  V30 7773 H 741.386 2.66386 2.86626 0
M  V30 7774 H 741.009 1.216 3.78549 0
M  V30 7775 N 742.006 -1.2595 0.947325 0
M  V30 7776 C 742.953 -2.26159 0.460497 0
M  V30 7777 C 743.923 -1.58919 -0.483125 0
M  V30 7778 O 745.108 -1.86603 -0.397983 0
M  V30 7779 C 742.248 -3.441 -0.26247 0
M  V30 7780 C 741.361 -4.25999 0.717539 0
M  V30 7781 C 740.496 -5.31193 -0.0272486 0
M  V30 7782 C 739.535 -6.04774 0.944177 0
M  V30 7783 N 738.672 -7.01721 0.230741 0
M  V30 7784 H 743.512 -2.67173 1.31995 0
M  V30 7785 H 741.049 -1.31358 0.662088 0
M  V30 7786 H 743.007 -4.11317 -0.698137 0
M  V30 7787 H 741.637 -3.03983 -1.08602 0
M  V30 7788 H 740.689 -3.58513 1.27171 0
M  V30 7789 H 742.001 -4.76981 1.45913 0
M  V30 7790 H 741.155 -6.04451 -0.521903 0
M  V30 7791 H 739.894 -4.81066 -0.801682 0
M  V30 7792 H 738.899 -5.30338 1.4499 0
M  V30 7793 H 740.124 -6.56991 1.71872 0
M  V30 7794 H 738.07 -6.53895 -0.525088 0
M  V30 7795 H 737.987 -7.50484 0.911556 0
M  V30 7796 H 739.255 -7.79122 -0.242616 0
M  V30 7797 N 743.484 -0.715051 -1.40445 0
M  V30 7798 C 744.394 -0.0631624 -2.34515 0
M  V30 7799 C 745.41 0.744397 -1.57273 0
M  V30 7800 O 746.586 0.677475 -1.89663 0
M  V30 7801 C 743.651 0.847915 -3.36172 0
M  V30 7802 C 742.712 0.0303655 -4.29289 0
M  V30 7803 C 741.945 0.898051 -5.2609 0
M  V30 7804 O 742.168 2.13729 -5.28844 0
M  V30 7805 O 741.102 0.337328 -6.00954 0
M  V30 7806 H 744.928 -0.839078 -2.91879 0
M  V30 7807 H 742.513 -0.475527 -1.4163 0
M  V30 7808 H 744.395 1.3698 -3.98515 0
M  V30 7809 H 743.07 1.60299 -2.81222 0
M  V30 7810 H 741.977 -0.536573 -3.70232 0
M  V30 7811 H 743.31 -0.686474 -4.87389 0
M  V30 7812 N 744.962 1.50701 -0.461195 0
M  V30 7813 C 746.187 2.07171 0.0974773 0
M  V30 7814 C 746.612 1.32391 1.3362 0
M  V30 7815 O 745.97 0.368676 1.77512 0
M  V30 7816 C 746.018 3.58651 0.374409 0
M  V30 7817 O 745.122 3.85816 1.4567 0
M  V30 7818 H 744.463 0.663944 -0.00862047 0
M  V30 7819 H 746.993 1.94021 -0.649394 0
M  V30 7820 H 747.003 4.03295 0.617843 0
M  V30 7821 H 745.678 4.12498 -0.530829 0
M  V30 7822 H 744.255 3.53018 1.20136 0
M  V30 7823 N 746.441 0.193421 1.56409 0
M  V30 7824 C 747.69 -0.445995 1.96707 0
M  V30 7825 C 748.003 -1.62876 1.08309 0
M  V30 7826 O 749.209 -2.33586 1.38383 0
M  V30 7827 C 747.665 -0.844863 3.49843 0
M  V30 7828 C 747.273 0.31352 4.46902 0
M  V30 7829 C 749.017 -1.45146 3.98915 0
M  V30 7830 C 746.924 -0.106214 5.91305 0
M  V30 7831 H 745.854 -0.170398 0.734493 0
M  V30 7832 H 748.505 0.285172 1.81271 0
M  V30 7833 H 746.887 -1.63265 3.60778 0
M  V30 7834 H 748.061 1.09103 4.47698 0
M  V30 7835 H 746.376 0.8315 4.08014 0
M  V30 7836 H 748.973 -1.77792 5.04276 0
M  V30 7837 H 749.316 -2.35734 3.43126 0
M  V30 7838 H 749.849 -0.727675 3.91088 0
M  V30 7839 H 746.588 0.765442 6.51016 0
M  V30 7840 H 746.108 -0.848623 5.93766 0
M  V30 7841 H 747.787 -0.542588 6.44721 0
M  V30 7842 N 747.919 -1.57396 -0.0801906 0
M  V30 7843 C 748.882 -2.02133 -1.0805 0
M  V30 7844 C 749.882 -0.91707 -1.32085 0
M  V30 7845 O 751.072 -1.18217 -1.27947 0
M  V30 7846 C 748.204 -2.39479 -2.42616 0
M  V30 7847 H 749.397 -2.91733 -0.6951 0
M  V30 7848 H 746.95 -1.52869 -0.325677 0
M  V30 7849 H 747.685 -1.52879 -2.86004 0
M  V30 7850 H 747.47 -3.20052 -2.26515 0
M  V30 7851 H 748.96 -2.74697 -3.14534 0
M  V30 7852 N 749.397 0.351382 -1.53633 0
M  V30 7853 C 750.307 1.45471 -1.84052 0
M  V30 7854 C 751.323 1.57945 -0.730015 0
M  V30 7855 O 752.499 1.73571 -1.02153 0
M  V30 7856 C 749.564 2.80562 -2.03681 0
M  V30 7857 C 748.625 2.77497 -3.27558 0
M  V30 7858 C 747.858 4.06144 -3.46241 0
M  V30 7859 O 748.081 5.03028 -2.68922 0
M  V30 7860 O 747.015 4.11092 -4.39645 0
M  V30 7861 H 750.841 1.22684 -2.77817 0
M  V30 7862 H 748.426 0.542827 -1.3919 0
M  V30 7863 H 750.308 3.6058 -2.18082 0
M  V30 7864 H 748.983 3.03296 -1.13106 0
M  V30 7865 H 747.89 1.96126 -3.18568 0
M  V30 7866 H 749.223 2.59716 -4.18101 0
M  V30 7867 N 750.875 1.45233 0.611969 0
M  V30 7868 C 752.1 1.52767 1.40274 0
M  V30 7869 C 752.525 0.159701 1.87421 0
M  V30 7870 O 751.883 -0.854837 1.59882 0
M  V30 7871 C 751.931 2.51286 2.58626 0
M  V30 7872 O 751.035 2.02764 3.59111 0
M  V30 7873 H 750.376 0.515141 0.418958 0
M  V30 7874 H 752.906 1.90547 0.745188 0
M  V30 7875 H 752.916 2.69949 3.05927 0
M  V30 7876 H 751.591 3.50641 2.23659 0
M  V30 7877 H 750.168 1.93957 3.18489 0
M  V30 7878 N 752.353 -0.854086 1.3245 0
M  V30 7879 C 753.3 -1.96271 1.21434 0
M  V30 7880 C 754.27 -1.6582 0.0963851 0
M  V30 7881 O 755.455 -1.88851 0.27203 0
M  V30 7882 C 752.595 -3.31939 0.943952 0
M  V30 7883 C 751.708 -3.74885 2.14675 0
M  V30 7884 C 750.843 -4.99347 1.81179 0
M  V30 7885 C 749.882 -5.34785 2.97777 0
M  V30 7886 N 749.019 -6.50425 2.6437 0
M  V30 7887 H 753.859 -2.05025 2.16261 0
M  V30 7888 H 751.396 -1.00348 1.07558 0
M  V30 7889 H 753.354 -4.10076 0.767675 0
M  V30 7890 H 751.984 -3.22784 0.0324763 0
M  V30 7891 H 751.036 -2.92396 2.43328 0
M  V30 7892 H 752.348 -3.97068 3.01891 0
M  V30 7893 H 751.502 -5.85193 1.60107 0
M  V30 7894 H 750.241 -4.79101 0.911777 0
M  V30 7895 H 749.246 -4.47451 3.1948 0
M  V30 7896 H 750.471 -5.56988 3.88511 0
M  V30 7897 H 748.417 -6.31695 1.7691 0
M  V30 7898 H 748.334 -6.7263 3.45116 0
M  V30 7899 H 749.602 -7.39422 2.46729 0
M  V30 7900 N 753.831 -1.1567 -1.07043 0
M  V30 7901 C 755.056 -0.957946 -1.83952 0
M  V30 7902 C 755.481 0.488807 -1.81638 0
M  V30 7903 O 754.839 1.34869 -1.21162 0
M  V30 7904 C 754.887 -1.48064 -3.288 0
M  V30 7905 O 753.991 -0.681921 -4.06723 0
M  V30 7906 H 753.332 -0.341453 -0.569479 0
M  V30 7907 H 755.862 -1.53728 -1.35015 0
M  V30 7908 H 755.872 -1.49484 -3.7963 0
M  V30 7909 H 754.547 -2.53388 -3.29799 0
M  V30 7910 H 753.124 -0.737612 -3.65532 0
M  V30 7911 N 755.309 1.25446 -0.953992 0
M  V30 7912 C 756.72 1.75047 -0.649255 0
M  V30 7913 C 757.071 1.77527 0.835385 0
M  V30 7914 O 756.196 1.39569 1.65377 0
M  V30 7915 C 756.791 3.17889 -1.17183 0
M  V30 7916 C 755.35 3.65052 -0.917267 0
M  V30 7917 C 754.497 2.44124 -1.31525 0
M  V30 7918 H 757.448 1.11342 -1.13087 0
M  V30 7919 H 757.469 3.76768 -0.531616 0
M  V30 7920 H 756.981 3.16052 -2.25239 0
M  V30 7921 H 755.082 3.72305 0.148354 0
M  V30 7922 H 755.195 4.53222 -1.55328 0
M  V30 7923 H 753.559 2.43906 -0.733624 0
M  V30 7924 H 754.342 2.44979 -2.405 0
M  V30 7925 N 756.787 0.722489 1.40064 0
M  V30 7926 C 757.697 0.0755984 2.34478 0
M  V30 7927 C 758.713 -0.736046 1.57665 0
M  V30 7928 O 759.889 -0.667407 1.9002 0
M  V30 7929 C 756.954 -0.830075 3.36616 0
M  V30 7930 C 756.015 -0.00759884 4.29299 0
M  V30 7931 C 755.248 -0.870139 5.26559 0
M  V30 7932 O 755.471 -2.10921 5.2997 0
M  V30 7933 O 754.405 -0.305454 6.01124 0
M  V30 7934 H 758.231 0.854545 2.9143 0
M  V30 7935 H 755.816 0.483032 1.41376 0
M  V30 7936 H 757.698 -1.34864 3.99236 0
M  V30 7937 H 756.373 -1.58805 2.82069 0
M  V30 7938 H 755.28 0.556199 3.69942 0
M  V30 7939 H 756.613 0.712312 4.87018 0
M  V30 7940 N 758.265 -1.50454 0.469181 0
M  V30 7941 C 759.198 -2.25149 -0.371928 0
M  V30 7942 C 760.176 -1.28382 -0.997845 0
M  V30 7943 O 761.36 -1.57599 -1.03415 0
M  V30 7944 C 758.487 -3.02629 -1.52097 0
M  V30 7945 C 757.533 -4.14305 -1.01262 0
M  V30 7946 S 758.366 -5.35453 0.0711459 0
M  V30 7947 C 759.522 -6.1648 -1.08181 0
M  V30 7948 H 759.755 -2.96142 0.262134 0
M  V30 7949 H 757.288 -1.52296 0.254042 0
M  V30 7950 H 759.246 -3.47861 -2.17952 0
M  V30 7951 H 757.907 -2.31165 -2.12654 0
M  V30 7952 H 757.1 -4.67913 -1.87278 0
M  V30 7953 H 756.702 -3.71499 -0.431804 0
M  V30 7954 H 758.994 -6.47497 -1.99382 0
M  V30 7955 H 759.937 -7.05679 -0.585028 0
M  V30 7956 H 760.345 -5.48492 -1.33478 0
M  V30 7957 N 759.743 -0.201713 -1.56304 0
M  V30 7958 C 760.968 0.443815 -2.02596 0
M  V30 7959 C 761.393 1.53945 -1.08086 0
M  V30 7960 O 760.751 1.81182 -0.0655056 0
M  V30 7961 C 760.799 0.971066 -3.47279 0
M  V30 7962 O 759.903 2.0836 -3.55893 0
M  V30 7963 H 759.244 0.10294 -0.655972 0
M  V30 7964 H 761.774 -0.314533 -2.02168 0
M  V30 7965 H 761.784 1.28598 -3.87204 0
M  V30 7966 H 760.459 0.169048 -4.15556 0
M  V30 7967 H 759.036 1.77683 -3.27846 0
M  V30 7968 N 761.222 1.57436 0.0718424 0
M  V30 7969 C 762.155 1.98982 1.11721 0
M  V30 7970 C 763.133 0.866731 1.37574 0
M  V30 7971 O 764.317 1.12903 1.50948 0
M  V30 7972 C 761.444 2.32648 2.46155 0
M  V30 7973 C 760.49 3.54964 2.36437 0
M  V30 7974 S 761.323 5.05802 1.75854 0
M  V30 7975 C 762.479 5.42669 3.11867 0
M  V30 7976 H 762.712 2.87338 0.763154 0
M  V30 7977 H 760.245 1.51833 0.280372 0
M  V30 7978 H 762.203 2.52719 3.23486 0
M  V30 7979 H 760.864 1.44821 2.78722 0
M  V30 7980 H 760.057 3.76038 3.35577 0
M  V30 7981 H 759.659 3.34524 1.67242 0
M  V30 7982 H 761.951 5.40737 4.08178 0
M  V30 7983 H 762.894 6.43461 2.95573 0
M  V30 7984 H 763.302 4.70131 3.1247 0
M  V30 7985 N 762.7 -0.34323 1.53817 0
M  V30 7986 C 763.632 -1.44216 1.78141 0
M  V30 7987 C 764.645 -1.48701 0.662721 0
M  V30 7988 O 765.834 -1.51778 0.939458 0
M  V30 7989 C 762.934 -2.82872 1.86646 0
M  V30 7990 C 762.107 -3.01824 3.16577 0
M  V30 7991 C 761.166 -4.20723 3.16036 0
M  V30 7992 O 760.192 -4.14824 3.89756 0
M  V30 7993 N 761.394 -5.29276 2.38427 0
M  V30 7994 H 764.159 -1.23721 2.72971 0
M  V30 7995 H 761.72 -0.53311 1.52871 0
M  V30 7996 H 763.712 -3.60588 1.83735 0
M  V30 7997 H 762.282 -2.96509 0.990014 0
M  V30 7998 H 761.502 -2.11575 3.3261 0
M  V30 7999 H 762.79 -3.11369 4.02402 0
M  V30 8000 H 762.188 -5.36938 1.78085 0
M  V30 8001 H 760.745 -6.05484 2.41313 0
M  V30 8002 N 764.178 -1.45556 -0.604258 0
M  V30 8003 C 765.088 -1.57025 -1.74299 0
M  V30 8004 C 766.104 -0.45456 -1.67958 0
M  V30 8005 O 767.28 -0.715711 -1.88254 0
M  V30 8006 C 764.345 -1.53702 -3.10768 0
M  V30 8007 C 763.406 -2.76335 -3.28538 0
M  V30 8008 C 762.639 -2.73161 -4.58496 0
M  V30 8009 O 762.862 -1.80678 -5.41028 0
M  V30 8010 O 761.796 -3.64409 -4.79051 0
M  V30 8011 H 765.622 -2.53284 -1.67573 0
M  V30 8012 H 763.207 -1.28104 -0.768745 0
M  V30 8013 H 765.089 -1.54468 -3.92068 0
M  V30 8014 H 763.764 -0.605957 -3.17978 0
M  V30 8015 H 762.671 -2.8113 -2.46813 0
M  V30 8016 H 764.004 -3.68578 -3.26207 0
M  V30 8017 N 765.656 0.84705 -1.32902 0
M  V30 8018 C 766.933 1.58583 -1.14503 0
M  V30 8019 C 767.313 2.09075 0.291724 0
M  V30 8020 O 766.661 1.88636 1.28952 0
M  V30 8021 C 766.871 2.72605 -2.17916 0
M  V30 8022 C 768.219 3.41993 -2.51646 0
M  V30 8023 O 769.243 2.82838 -2.1652 0
M  V30 8024 O 768.102 4.48761 -3.1189 0
M  V30 8025 H 765.196 0.698756 -0.442345 0
M  V30 8026 H 767.742 0.890516 -1.44457 0
M  V30 8027 H 766.514 2.32876 -3.14459 0
M  V30 8028 H 766.137 3.49807 -1.89 0
M  V30 8029 N 767.134 1.16236 1.06428 0
M  V30 8030 C 768.374 0.95369 1.80787 0
M  V30 8031 C 768.738 -0.509495 1.85117 0
M  V30 8032 O 769.939 -0.836822 2.55442 0
M  V30 8033 C 768.21 1.56235 3.21443 0
M  V30 8034 S 769.769 1.49812 4.12434 0
M  V30 8035 H 766.587 0.343004 0.622792 0
M  V30 8036 H 769.189 1.47957 1.27785 0
M  V30 8037 H 767.893 2.62 3.15886 0
M  V30 8038 H 767.424 1.03574 3.79521 0
M  V30 8039 H 769.439 0.49745 4.937 0
M  V30 8040 N 768.612 -1.24939 0.960631 0
M  V30 8041 C 769.861 -1.92118 0.614298 0
M  V30 8042 C 770.174 -1.75998 -0.853474 0
M  V30 8043 O 771.38 -2.37804 -1.31003 0
M  V30 8044 C 769.836 -3.44303 1.04801 0
M  V30 8045 C 769.444 -3.69123 2.53875 0
M  V30 8046 C 771.188 -4.17375 0.774497 0
M  V30 8047 C 769.095 -5.14843 2.91016 0
M  V30 8048 H 768.025 -0.719319 0.226045 0
M  V30 8049 H 770.676 -1.41701 1.16589 0
M  V30 8050 H 769.058 -3.93715 0.42479 0
M  V30 8051 H 770.232 -3.30339 3.21267 0
M  V30 8052 H 768.547 -3.09323 2.78762 0
M  V30 8053 H 771.144 -5.24723 1.02808 0
M  V30 8054 H 771.487 -4.15294 -0.289192 0
M  V30 8055 H 772.02 -3.7389 1.35835 0
M  V30 8056 H 768.759 -5.2204 3.96427 0
M  V30 8057 H 768.279 -5.54652 2.28302 0
M  V30 8058 H 769.958 -5.83017 2.80535 0
M  V30 8059 N 770.09 -0.729906 -1.39679 0
M  V30 8060 C 771.315 -0.284345 -2.05442 0
M  V30 8061 C 771.74 1.07056 -1.54663 0
M  V30 8062 O 771.098 1.67732 -0.688157 0
M  V30 8063 C 771.146 -0.290089 -3.59431 0
M  V30 8064 O 770.25 0.723978 -4.05995 0
M  V30 8065 H 769.591 -0.130311 -0.651088 0
M  V30 8066 H 772.121 -0.994403 -1.78809 0
M  V30 8067 H 772.131 -0.132712 -4.07784 0
M  V30 8068 H 770.806 -1.27877 -3.95753 0
M  V30 8069 H 769.383 0.533154 -3.69069 0
M  V30 8070 N 771.568 1.50203 -0.477153 0
M  V30 8071 C 772.845 1.95115 0.137609 0
M  V30 8072 C 773.225 1.41778 1.56404 0
M  V30 8073 O 772.573 0.621333 2.1989 0
M  V30 8074 C 772.783 3.4892 0.0747168 0
M  V30 8075 C 774.131 4.238 0.260585 0
M  V30 8076 O 775.155 3.5588 0.151021 0
M  V30 8077 O 774.014 5.44366 0.482534 0
M  V30 8078 H 771.108 0.81987 0.108364 0
M  V30 8079 H 773.654 1.60946 -0.537989 0
M  V30 8080 H 772.426 3.80308 -0.920966 0
M  V30 8081 H 772.049 3.89642 0.791509 0
M  V30 8082 N 773.046 0.209999 1.56195 0
M  V30 8083 C 774.295 -0.425106 1.97169 0
M  V30 8084 C 774.608 -1.61718 1.10031 0
M  V30 8085 O 775.814 -2.32105 1.40853 0
M  V30 8086 C 774.27 -0.80771 3.50719 0
M  V30 8087 C 773.878 0.360902 4.46544 0
M  V30 8088 C 775.622 -1.40906 4.00432 0
M  V30 8089 C 773.529 -0.0434919 5.91384 0
M  V30 8090 H 772.459 -0.162598 0.736259 0
M  V30 8091 H 775.11 0.304382 1.80958 0
M  V30 8092 H 773.492 -1.59429 3.62489 0
M  V30 8093 H 774.666 1.13846 4.46515 0
M  V30 8094 H 772.981 0.874729 4.07109 0
M  V30 8095 H 775.578 -1.72433 5.06133 0
M  V30 8096 H 775.921 -2.32081 3.45607 0
M  V30 8097 H 776.454 -0.686154 3.91838 0
M  V30 8098 H 773.193 0.834448 6.50167 0
M  V30 8099 H 772.713 -0.785598 5.94633 0
M  V30 8100 H 774.392 -0.474176 6.4526 0
M  V30 8101 N 774.524 -1.57472 -0.0634922 0
M  V30 8102 C 775.487 -2.03268 -1.059 0
M  V30 8103 C 776.487 -0.931028 -1.31105 0
M  V30 8104 O 777.677 -1.19567 -1.26686 0
M  V30 8105 C 774.809 -2.42039 -2.40062 0
M  V30 8106 H 776.002 -2.92454 -0.664119 0
M  V30 8107 H 773.555 -1.53206 -0.309444 0
M  V30 8108 H 774.29 -1.55904 -2.84367 0
M  V30 8109 H 774.075 -3.22437 -2.23108 0
M  V30 8110 H 775.565 -2.78017 -3.11603 0
M  V30 8111 N 776.003 0.335068 -1.53997 0
M  V30 8112 C 777.414 0.910191 -1.6301 0
M  V30 8113 C 777.765 1.89271 -0.516809 0
M  V30 8114 O 776.89 2.13516 0.352123 0
M  V30 8115 C 777.485 1.65761 -2.9548 0
M  V30 8116 C 776.044 2.18163 -3.06728 0
M  V30 8117 C 775.191 1.00338 -2.5851 0
M  V30 8118 H 778.142 0.112965 -1.58297 0
M  V30 8119 H 778.163 2.52107 -2.84995 0
M  V30 8120 H 777.675 0.94227 -3.76488 0
M  V30 8121 H 775.776 2.92847 -2.30372 0
M  V30 8122 H 775.889 2.43952 -4.1234 0
M  V30 8123 H 774.253 1.37925 -2.14124 0
M  V30 8124 H 775.036 0.30254 -3.41964 0
M  V30 8125 N 777.481 1.45874 0.596531 0
M  V30 8126 C 778.414 1.49889 1.72071 0
M  V30 8127 C 779.392 0.354224 1.58695 0
M  V30 8128 O 780.576 0.556355 1.80103 0
M  V30 8129 C 777.703 1.3644 3.10003 0
M  V30 8130 C 776.749 2.54913 3.41938 0
M  V30 8131 S 777.582 4.17336 3.35545 0
M  V30 8132 C 778.738 4.06372 4.76039 0
M  V30 8133 H 778.971 2.45005 1.68404 0
M  V30 8134 H 776.504 1.33592 0.77412 0
M  V30 8135 H 778.462 1.29368 3.89582 0
M  V30 8136 H 777.123 0.427762 3.11174 0
M  V30 8137 H 776.316 2.41458 4.42396 0
M  V30 8138 H 775.918 2.58904 2.69898 0
M  V30 8139 H 778.21 3.72199 5.66105 0
M  V30 8140 H 779.153 5.0678 4.9455 0
M  V30 8141 H 779.561 3.37846 4.52239 0
M  V30 8142 N 778.959 -0.83999 1.33349 0
M  V30 8143 C 779.891 -1.95678 1.19344 0
M  V30 8144 C 780.904 -1.62322 0.124692 0
M  V30 8145 O 782.093 -1.74516 0.375012 0
M  V30 8146 C 779.193 -3.29133 0.807771 0
M  V30 8147 C 778.366 -3.9063 1.96792 0
M  V30 8148 C 777.425 -5.02438 1.56341 0
M  V30 8149 O 776.451 -5.21646 2.27759 0
M  V30 8150 N 777.653 -5.78612 0.467767 0
M  V30 8151 H 780.418 -2.08229 2.15548 0
M  V30 8152 H 777.979 -1.01566 1.26079 0
M  V30 8153 H 779.971 -4.01355 0.519282 0
M  V30 8154 H 778.541 -3.12535 -0.063555 0
M  V30 8155 H 777.761 -3.11011 2.4221 0
M  V30 8156 H 779.049 -4.2845 2.74422 0
M  V30 8157 H 778.447 -5.65559 -0.126324 0
M  V30 8158 H 777.004 -6.51362 0.238945 0
M  V30 8159 N 780.437 -1.16799 -1.0581 0
M  V30 8160 C 781.665 -0.97687 -1.82387 0
M  V30 8161 C 782.08 0.474917 -1.82729 0
M  V30 8162 O 781.437 1.3297 -1.25001 0
M  V30 8163 C 781.488 -1.50279 -3.28783 0
M  V30 8164 O 781.209 -2.89772 -3.28578 0
M  V30 8165 C 782.71 -1.35538 -4.22071 0
M  V30 8166 H 779.93 -0.345977 -0.574927 0
M  V30 8167 H 782.474 -1.54942 -1.33466 0
M  V30 8168 H 780.629 -0.972414 -3.74997 0
M  V30 8169 H 781.043 -3.13954 -4.20159 0
M  V30 8170 H 782.517 -1.7716 -5.22799 0
M  V30 8171 H 782.994 -0.301598 -4.38163 0
M  V30 8172 H 783.6 -1.87562 -3.81708 0
M  V30 8173 N 781.915 1.24427 -0.967243 0
M  V30 8174 C 783.192 1.87831 -0.545776 0
M  V30 8175 C 783.572 1.87126 0.977099 0
M  V30 8176 O 782.92 1.34357 1.84826 0
M  V30 8177 C 783.13 3.29967 -1.13679 0
M  V30 8178 C 784.478 4.06654 -1.22139 0
M  V30 8179 O 785.502 3.39136 -1.08926 0
M  V30 8180 O 784.361 5.27455 -1.43017 0
M  V30 8181 H 781.455 0.806745 -0.181912 0
M  V30 8182 H 784.001 1.32403 -1.06148 0
M  V30 8183 H 782.773 3.24977 -2.17958 0
M  V30 8184 H 782.396 3.92969 -0.605093 0
M  V30 8185 N 783.393 0.737304 1.3929 0
M  V30 8186 C 784.303 0.100464 2.34385 0
M  V30 8187 C 785.319 -0.719282 1.58437 0
M  V30 8188 O 786.495 -0.647216 1.90717 0
M  V30 8189 C 783.56 -0.794325 3.37478 0
M  V30 8190 C 782.621 0.0379345 4.29283 0
M  V30 8191 C 781.854 -0.814241 5.27452 0
M  V30 8192 O 782.077 -2.05288 5.32177 0
M  V30 8193 O 781.011 -0.241679 6.01415 0
M  V30 8194 H 784.837 0.885407 2.90507 0
M  V30 8195 H 782.422 0.497999 1.40856 0
M  V30 8196 H 784.304 -1.30622 4.00644 0
M  V30 8197 H 782.979 -1.55804 2.83737 0
M  V30 8198 H 781.886 0.595405 3.69331 0
M  V30 8199 H 783.219 0.763926 4.86236 0
M  V30 8200 N 784.871 -1.49948 0.485112 0
M  V30 8201 C 785.803 -2.26691 -0.338222 0
M  V30 8202 C 786.816 -1.32584 -0.944742 0
M  V30 8203 O 788.005 -1.57989 -0.830772 0
M  V30 8204 C 785.105 -3.04405 -1.48966 0
M  V30 8205 C 784.278 -4.25971 -0.993371 0
M  V30 8206 C 783.337 -4.85861 -2.02052 0
M  V30 8207 O 782.363 -5.46382 -1.59547 0
M  V30 8208 N 783.565 -4.74101 -3.34975 0
M  V30 8209 H 786.33 -2.97989 0.319748 0
M  V30 8210 H 783.891 -1.58772 0.316714 0
M  V30 8211 H 785.883 -3.41348 -2.17403 0
M  V30 8212 H 784.453 -2.35815 -2.05207 0
M  V30 8213 H 783.673 -3.93971 -0.134424 0
M  V30 8214 H 784.961 -5.0476 -0.639934 0
M  V30 8215 H 784.359 -4.26002 -3.72208 0
M  V30 8216 H 782.916 -5.15274 -3.9917 0
M  V30 8217 N 786.349 -0.21828 -1.56081 0
M  V30 8218 C 787.577 0.419258 -2.02608 0
M  V30 8219 C 787.992 1.53578 -1.09814 0
M  V30 8220 O 787.349 1.82185 -0.107149 0
M  V30 8221 C 787.4 0.953955 -3.48686 0
M  V30 8222 O 787.121 -0.11805 -4.37941 0
M  V30 8223 C 788.622 1.66506 -4.10841 0
M  V30 8224 H 785.842 0.10296 -0.663054 0
M  V30 8225 H 788.386 -0.333776 -2.01758 0
M  V30 8226 H 786.541 1.65727 -3.50162 0
M  V30 8227 H 786.955 0.283359 -5.23734 0
M  V30 8228 H 788.429 1.99123 -5.14834 0
M  V30 8229 H 788.906 2.57705 -3.55647 0
M  V30 8230 H 789.512 1.00703 -4.13206 0
M  V30 8231 N 787.827 1.57504 0.0551401 0
M  V30 8232 C 788.775 2.05884 1.08233 0
M  V30 8233 C 789.769 0.967383 1.39061 0
M  V30 8234 O 790.975 1.15242 1.38273 0
M  V30 8235 H 787.35 0.656673 0.366449 0
M  V30 8236 H 789.321 2.91273 0.648269 0
M  V30 8237 C 788.07 2.53221 2.38273 0
M  V30 8238 H 787.393 3.36809 2.15406 0
M  V30 8239 H 788.833 2.9081 3.08554 0
M  V30 8240 C 787.292 1.42218 3.05411 0
M  V30 8241 O 787.822 0.773638 3.9418 0
M  V30 8242 N 786.028 1.16316 2.66306 0
M  V30 8243 H 785.575 1.69237 1.94207 0
M  V30 8244 H 785.533 0.422534 3.11548 0
M  V30 8245 N 789.305 -0.326896 1.54172 0
M  V30 8246 C 790.252 -1.40216 1.83325 0
M  V30 8247 C 791.222 -1.51538 0.680107 0
M  V30 8248 O 792.407 -1.66811 0.926206 0
M  V30 8249 C 789.547 -2.76626 2.0633 0
M  V30 8250 C 788.66 -2.73963 3.34019 0
M  V30 8251 C 787.795 -4.02198 3.47002 0
M  V30 8252 C 786.834 -3.93828 4.68578 0
M  V30 8253 N 785.971 -5.13787 4.78506 0
M  V30 8254 H 790.811 -1.14656 2.7506 0
M  V30 8255 H 788.348 -0.555089 1.36225 0
M  V30 8256 H 790.306 -3.55922 2.17659 0
M  V30 8257 H 788.936 -3.00503 1.1789 0
M  V30 8258 H 787.988 -1.86677 3.31445 0
M  V30 8259 H 789.3 -2.6366 4.2342 0
M  V30 8260 H 788.454 -4.89923 3.57855 0
M  V30 8261 H 787.193 -4.15302 2.55687 0
M  V30 8262 H 786.198 -3.04487 4.57786 0
M  V30 8263 H 787.423 -3.82292 5.61275 0
M  V30 8264 H 785.369 -5.27403 3.90105 0
M  V30 8265 H 785.286 -5.05807 5.61868 0
M  V30 8266 H 786.554 -6.03236 4.93686 0
M  V30 8267 N 790.784 -1.46188 -0.588786 0
M  V30 8268 C 791.694 -1.58865 -1.72624 0
M  V30 8269 C 792.71 -0.472348 -1.67466 0
M  V30 8270 O 793.886 -0.735638 -1.87484 0
M  V30 8271 C 790.951 -1.56989 -3.0912 0
M  V30 8272 C 790.012 -2.79804 -3.25589 0
M  V30 8273 C 789.245 -2.78009 -4.55573 0
M  V30 8274 O 789.468 -1.86406 -5.39082 0
M  V30 8275 O 788.402 -3.6947 -4.75159 0
M  V30 8276 H 792.228 -2.55047 -1.64878 0
M  V30 8277 H 789.813 -1.28912 -0.755115 0
M  V30 8278 H 791.695 -1.58618 -3.90408 0
M  V30 8279 H 790.37 -0.639648 -3.17317 0
M  V30 8280 H 789.277 -2.83732 -2.43818 0
M  V30 8281 H 790.61 -3.72017 -3.22279 0
M  V30 8282 N 792.262 0.832906 -1.33792 0
M  V30 8283 C 793.194 1.95042 -1.2038 0
M  V30 8284 C 794.207 1.62253 -0.133299 0
M  V30 8285 O 795.396 1.74315 -0.384261 0
M  V30 8286 C 792.496 3.287 -0.825215 0
M  V30 8287 C 791.669 3.89581 -1.98861 0
M  V30 8288 C 790.728 5.01602 -1.59003 0
M  V30 8289 O 789.754 5.20431 -2.30522 0
M  V30 8290 N 790.956 5.78356 -0.498446 0
M  V30 8291 H 793.721 2.07083 -2.16649 0
M  V30 8292 H 791.282 1.00896 -1.26616 0
M  V30 8293 H 793.274 4.01074 -0.540559 0
M  V30 8294 H 791.844 3.12565 0.0469796 0
M  V30 8295 H 791.064 3.09723 -2.43856 0
M  V30 8296 H 792.352 4.26989 -2.76691 0
M  V30 8297 H 791.75 5.65618 0.0963297 0
M  V30 8298 H 790.307 6.51226 -0.273485 0
M  V30 8299 N 793.74 1.17359 1.05189 0
M  V30 8300 C 794.987 0.961987 1.78191 0
M  V30 8301 C 795.315 -0.509363 1.87712 0
M  V30 8302 O 794.57 -1.39425 1.37329 0
M  V30 8303 C 794.869 1.54821 3.22126 0
M  V30 8304 C 794.535 3.04378 3.32663 0
M  V30 8305 C 793.197 3.45201 3.35246 0
M  V30 8306 C 795.549 4.00387 3.33677 0
M  V30 8307 C 792.877 4.80629 3.36471 0
M  V30 8308 C 795.229 5.35715 3.36441 0
M  V30 8309 C 793.893 5.76002 3.37311 0
M  V30 8310 H 793.163 0.352016 0.652047 0
M  V30 8311 H 795.81 1.46249 1.23627 0
M  V30 8312 H 794.115 0.969432 3.79617 0
M  V30 8313 H 795.812 1.36004 3.77232 0
M  V30 8314 H 792.402 2.71836 3.31366 0
M  V30 8315 H 796.586 3.69906 3.30882 0
M  V30 8316 H 791.842 5.11155 3.35455 0
M  V30 8317 H 796.016 6.09886 3.36173 0
M  V30 8318 H 793.643 6.80919 3.38013 0
M  V30 8319 N 795.218 -1.23913 0.973828 0
M  V30 8320 C 796.464 -1.92436 0.640026 0
M  V30 8321 C 796.797 -1.75875 -0.823512 0
M  V30 8322 O 796.072 -1.11563 -1.59323 0
M  V30 8323 C 796.355 -3.4526 1.0231 0
M  V30 8324 C 796.208 -3.70961 2.54378 0
M  V30 8325 C 797.527 -4.36495 0.562155 0
M  V30 8326 H 794.646 -0.698868 0.233992 0
M  V30 8327 H 797.288 -1.46163 1.21393 0
M  V30 8328 H 795.438 -3.84802 0.534751 0
M  V30 8329 H 797.11 -3.40941 3.10737 0
M  V30 8330 H 795.353 -3.15899 2.97305 0
M  V30 8331 H 796.024 -4.77912 2.76232 0
M  V30 8332 H 798.5 -4.04363 0.981333 0
M  V30 8333 H 797.376 -5.42142 0.858689 0
M  V30 8334 H 797.637 -4.38818 -0.537659 0
M  V30 8335 N 796.696 -0.74468 -1.38897 0
M  V30 8336 C 798.107 -0.36568 -1.83084 0
M  V30 8337 C 798.458 1.10436 -1.62168 0
M  V30 8338 O 797.583 1.85281 -1.11804 0
M  V30 8339 C 798.178 -0.656946 -3.3237 0
M  V30 8340 C 796.737 -0.331329 -3.74939 0
M  V30 8341 C 795.884 -0.914661 -2.61781 0
M  V30 8342 H 798.835 -0.941551 -1.27752 0
M  V30 8343 H 798.856 0.0679546 -3.80439 0
M  V30 8344 H 798.368 -1.72693 -3.47561 0
M  V30 8345 H 796.469 0.732426 -3.6533 0
M  V30 8346 H 796.582 -0.820655 -4.72019 0
M  V30 8347 H 794.946 -0.34063 -2.52412 0
M  V30 8348 H 795.729 -1.98949 -2.79775 0
M  V30 8349 N 798.174 1.49689 -0.493057 0
M  V30 8350 C 799.422 2.02027 0.0541642 0
M  V30 8351 C 799.743 1.37554 1.38217 0
M  V30 8352 O 799.013 0.528174 1.88646 0
M  V30 8353 H 797.593 0.746646 0.0230069 0
M  V30 8354 H 800.255 1.83795 -0.648489 0
M  V30 8355 H 799.351 3.11523 0.189652 0
M  V30 8356 N 799.652 0.226554 1.55963 0
M  V30 8357 C 801.063 -0.280381 1.84583 0
M  V30 8358 C 801.414 -1.59105 1.14804 0
M  V30 8359 O 800.539 -2.12297 0.419414 0
M  V30 8360 C 801.134 -0.515499 3.34855 0
M  V30 8361 C 799.693 -0.966733 3.63774 0
M  V30 8362 C 798.84 -0.0325753 2.77281 0
M  V30 8363 H 801.791 0.449626 1.52197 0
M  V30 8364 H 801.812 -1.36085 3.55332 0
M  V30 8365 H 801.324 0.438594 3.85614 0
M  V30 8366 H 799.425 -1.93401 3.18476 0
M  V30 8367 H 799.538 -0.837679 4.7172 0
M  V30 8368 H 797.902 -0.540279 2.48904 0
M  V30 8369 H 798.685 0.916524 3.30839 0
M  V30 8370 N 801.13 -1.57531 -0.0467866 0
M  V30 8371 C 802.078 -2.06455 -1.0714 0
M  V30 8372 C 803.072 -0.974744 -1.38546 0
M  V30 8373 O 804.278 -1.15974 -1.37659 0
M  V30 8374 H 800.653 -0.658607 -0.362962 0
M  V30 8375 H 802.624 -2.91613 -0.632813 0
M  V30 8376 C 801.373 -2.54481 -2.36927 0
M  V30 8377 H 800.696 -3.37946 -2.13617 0
M  V30 8378 H 802.136 -2.92442 -3.07007 0
M  V30 8379 C 800.595 -1.43836 -3.04652 0
M  V30 8380 O 801.125 -0.794531 -3.93764 0
M  V30 8381 N 799.331 -1.17727 -2.65686 0
M  V30 8382 H 798.878 -1.70265 -1.93307 0
M  V30 8383 H 798.836 -0.439051 -3.11319 0
M  V30 8384 N 802.608 0.318715 -1.54344 0
M  V30 8385 C 803.518 1.41535 -1.87097 0
M  V30 8386 C 804.534 1.56361 -0.763353 0
M  V30 8387 O 805.71 1.71365 -1.05811 0
M  V30 8388 C 802.775 2.76178 -2.09587 0
M  V30 8389 C 801.836 2.70486 -3.3337 0
M  V30 8390 C 801.069 3.98708 -3.54778 0
M  V30 8391 O 801.292 4.9721 -2.79532 0
M  V30 8392 O 800.226 4.01674 -4.48266 0
M  V30 8393 H 804.052 1.16764 -2.80357 0
M  V30 8394 H 801.637 0.51318 -1.4031 0
M  V30 8395 H 803.519 3.55873 -2.25682 0
M  V30 8396 H 802.194 3.00829 -1.19514 0
M  V30 8397 H 801.101 1.89325 -3.22656 0
M  V30 8398 H 802.434 2.50789 -4.23516 0
M  V30 8399 N 804.086 1.46499 0.581025 0
M  V30 8400 C 805.033 1.5719 1.68997 0
M  V30 8401 C 806.003 0.416114 1.60803 0
M  V30 8402 O 807.188 0.633086 1.79991 0
M  V30 8403 C 804.328 1.56973 3.07333 0
M  V30 8404 C 803.441 2.83298 3.26139 0
M  V30 8405 C 802.576 2.74574 4.54734 0
M  V30 8406 C 801.615 3.9583 4.66889 0
M  V30 8407 N 800.752 3.85482 5.86811 0
M  V30 8408 H 805.592 2.51914 1.59196 0
M  V30 8409 H 803.129 1.24975 0.775857 0
M  V30 8410 H 805.087 1.54832 3.87405 0
M  V30 8411 H 803.717 0.657803 3.16027 0
M  V30 8412 H 802.769 2.95411 2.3966 0
M  V30 8413 H 804.081 3.7316 3.30988 0
M  V30 8414 H 803.235 2.70548 5.43036 0
M  V30 8415 H 801.974 1.82354 4.52325 0
M  V30 8416 H 800.979 4.00186 3.77003 0
M  V30 8417 H 802.204 4.89148 4.71075 0
M  V30 8418 H 800.15 2.96051 5.85397 0
M  V30 8419 H 800.067 4.69002 5.92936 0
M  V30 8420 H 801.335 3.85434 6.7754 0
M  V30 8421 N 805.565 -0.825799 1.34232 0
M  V30 8422 C 806.976 -1.39835 1.23706 0
M  V30 8423 C 807.327 -1.95709 -0.138649 0
M  V30 8424 O 806.452 -1.89833 -1.03886 0
M  V30 8425 C 807.047 -2.54203 2.23978 0
M  V30 8426 C 805.606 -3.07374 2.17251 0
M  V30 8427 C 804.753 -1.80232 2.10741 0
M  V30 8428 H 807.704 -0.630442 1.4564 0
M  V30 8429 H 807.725 -3.32214 1.8551 0
M  V30 8430 H 807.237 -2.13506 3.24094 0
M  V30 8431 H 805.338 -3.52583 1.20483 0
M  V30 8432 H 805.451 -3.6666 3.08379 0
M  V30 8433 H 803.815 -2.01012 1.56417 0
M  V30 8434 H 804.598 -1.41713 3.12686 0
M  V30 8435 N 807.043 -1.17915 -1.04565 0
M  V30 8436 C 807.973 -0.925033 -2.14395 0
M  V30 8437 C 808.954 0.135375 -1.6956 0
M  V30 8438 O 810.139 -0.0161774 -1.94193 0
M  V30 8439 C 807.269 -0.444469 -3.44444 0
M  V30 8440 C 806.223 -1.44478 -4.02877 0
M  V30 8441 C 805.549 -0.821933 -5.28345 0
M  V30 8442 C 806.849 -2.81995 -4.39632 0
M  V30 8443 H 808.543 -1.84354 -2.35911 0
M  V30 8444 H 806.089 -0.887806 -1.13375 0
M  V30 8445 H 808.042 -0.254078 -4.20633 0
M  V30 8446 H 806.766 0.509592 -3.226 0
M  V30 8447 H 805.425 -1.62203 -3.28764 0
M  V30 8448 H 805.073 0.139161 -5.02807 0
M  V30 8449 H 804.773 -1.48976 -5.68401 0
M  V30 8450 H 806.297 -0.641959 -6.07216 0
M  V30 8451 H 807.711 -2.67952 -5.06828 0
M  V30 8452 H 806.108 -3.45414 -4.90723 0
M  V30 8453 H 807.178 -3.35927 -3.49687 0
M  V30 8454 N 808.521 1.23394 -0.980386 0
M  V30 8455 C 809.751 1.9556 -0.666319 0
M  V30 8456 C 810.159 1.72786 0.770815 0
M  V30 8457 O 809.502 1.0162 1.53033 0
M  V30 8458 C 809.564 3.48643 -0.876825 0
M  V30 8459 C 809.228 3.95135 -2.29602 0
M  V30 8460 C 810.225 4.03806 -3.2747 0
M  V30 8461 C 807.91 4.28122 -2.62711 0
M  V30 8462 C 809.904 4.44818 -4.56526 0
M  V30 8463 C 807.591 4.68814 -3.9199 0
M  V30 8464 C 808.589 4.77129 -4.88709 0
M  V30 8465 O 808.277 5.16908 -6.15679 0
M  V30 8466 H 808.009 0.629422 -0.246585 0
M  V30 8467 H 810.563 1.57839 -1.31438 0
M  V30 8468 H 808.793 3.86319 -0.171587 0
M  V30 8469 H 810.482 4.0202 -0.55992 0
M  V30 8470 H 811.248 3.78526 -3.03222 0
M  V30 8471 H 807.127 4.20861 -1.8814 0
M  V30 8472 H 810.671 4.51223 -5.32018 0
M  V30 8473 H 806.568 4.93545 -4.16033 0
M  V30 8474 H 807.336 5.3502 -6.19432 0
M  V30 8475 N 809.999 0.752036 1.385 0
M  V30 8476 C 811.227 0.318274 2.04437 0
M  V30 8477 C 811.642 -1.05285 1.56718 0
M  V30 8478 O 810.999 -1.66844 0.73956 0
M  V30 8479 C 811.05 0.330106 3.5999 0
M  V30 8480 O 810.771 1.64712 4.05957 0
M  V30 8481 C 812.272 -0.117713 4.43144 0
M  V30 8482 H 809.492 0.136228 0.657026 0
M  V30 8483 H 812.036 1.02045 1.7722 0
M  V30 8484 H 810.191 -0.323323 3.86048 0
M  V30 8485 H 810.605 1.57225 5.0038 0
M  V30 8486 H 812.079 -0.0582735 5.51969 0
M  V30 8487 H 812.556 -1.16538 4.23457 0
M  V30 8488 H 813.162 0.506784 4.2227 0
M  V30 8489 N 811.477 -1.49425 0.500989 0
M  V30 8490 C 812.44 -2.27646 -0.266416 0
M  V30 8491 C 813.44 -1.3366 -0.893961 0
M  V30 8492 O 814.63 -1.5682 -0.758495 0
M  V30 8493 C 811.762 -3.11618 -1.38227 0
M  V30 8494 H 812.955 -2.96945 0.419973 0
M  V30 8495 H 810.508 -1.5419 0.255954 0
M  V30 8496 H 811.243 -2.46885 -2.10281 0
M  V30 8497 H 811.028 -3.80721 -0.937746 0
M  V30 8498 H 812.518 -3.70698 -1.92283 0
M  V30 8499 N 812.955 -0.234822 -1.55841 0
M  V30 8500 C 813.865 0.680828 -2.24504 0
M  V30 8501 C 814.881 1.20306 -1.25708 0
M  V30 8502 O 816.057 1.24188 -1.58554 0
M  V30 8503 C 813.122 1.86636 -2.92178 0
M  V30 8504 C 812.183 1.3848 -4.06352 0
M  V30 8505 C 811.416 2.51382 -4.70789 0
M  V30 8506 O 811.639 3.69831 -4.34259 0
M  V30 8507 O 810.573 2.21828 -5.59532 0
M  V30 8508 H 814.399 0.12583 -3.03439 0
M  V30 8509 H 811.984 -0.00381817 -1.494 0
M  V30 8510 H 813.866 2.55845 -3.34845 0
M  V30 8511 H 812.541 2.40921 -2.16192 0
M  V30 8512 H 811.448 0.660341 -3.68226 0
M  V30 8513 H 812.781 0.888177 -4.8412 0
M  V30 8514 N 814.433 1.57553 0.0384317 0
M  V30 8515 C 815.844 1.77258 0.586211 0
M  V30 8516 C 816.195 0.864706 1.76117 0
M  V30 8517 O 815.32 0.057141 2.16325 0
M  V30 8518 C 815.915 3.21453 1.07021 0
M  V30 8519 C 814.474 3.42387 1.56358 0
M  V30 8520 C 813.621 2.72801 0.497508 0
M  V30 8521 H 816.572 1.57585 -0.187796 0
M  V30 8522 H 816.593 3.27451 1.93794 0
M  V30 8523 H 816.105 3.87505 0.214851 0
M  V30 8524 H 814.206 2.81497 2.44111 0
M  V30 8525 H 814.319 4.50968 1.61754 0
M  V30 8526 H 812.683 2.36305 0.95038 0
M  V30 8527 H 813.466 3.41529 -0.348234 0
M  V30 8528 N 815.911 -0.310526 1.54511 0
M  V30 8529 C 817.157 -1.04846 1.73595 0
M  V30 8530 C 817.49 -1.87244 0.515118 0
M  V30 8531 O 816.765 -1.88282 -0.48786 0
M  V30 8532 C 817.048 -1.96237 3.01932 0
M  V30 8533 C 816.901 -1.17082 4.34295 0
M  V30 8534 C 818.22 -2.9556 3.26086 0
M  V30 8535 H 815.339 -0.37976 0.631626 0
M  V30 8536 H 817.981 -0.32394 1.87218 0
M  V30 8537 H 816.131 -2.58015 2.90449 0
M  V30 8538 H 817.803 -0.576643 4.57682 0
M  V30 8539 H 816.046 -0.473336 4.3121 0
M  V30 8540 H 816.717 -1.84257 5.20339 0
M  V30 8541 H 819.193 -2.43908 3.37117 0
M  V30 8542 H 818.069 -3.5668 4.17218 0
M  V30 8543 H 818.33 -3.68715 2.4393 0
M  V30 8544 N 817.389 -1.46805 -0.573248 0
M  V30 8545 C 818.617 -1.56191 -1.3569 0
M  V30 8546 C 819.032 -0.206362 -1.87669 0
M  V30 8547 O 818.389 0.797883 -1.64134 0
M  V30 8548 C 818.44 -2.57433 -2.53792 0
M  V30 8549 O 818.161 -3.87724 -2.03965 0
M  V30 8550 C 819.662 -2.76851 -3.4622 0
M  V30 8551 H 816.882 -0.527907 -0.414192 0
M  V30 8552 H 819.426 -1.92292 -0.695989 0
M  V30 8553 H 817.581 -2.24311 -3.15854 0
M  V30 8554 H 817.995 -4.42909 -2.80948 0
M  V30 8555 H 819.469 -3.5159 -4.25545 0
M  V30 8556 H 819.946 -1.84095 -3.98755 0
M  V30 8557 H 820.552 -3.11107 -2.89987 0
M  V30 8558 N 818.867 0.818669 -1.34668 0
M  V30 8559 C 819.797 1.94468 -1.29245 0
M  V30 8560 C 820.778 1.69257 -0.169101 0
M  V30 8561 O 821.963 1.90794 -0.362143 0
M  V30 8562 C 819.093 3.31001 -1.05145 0
M  V30 8563 C 818.047 3.70663 -2.13992 0
M  V30 8564 C 817.373 5.05226 -1.75074 0
M  V30 8565 C 818.673 3.82312 -3.55858 0
M  V30 8566 H 820.367 1.99263 -2.2346 0
M  V30 8567 H 817.913 0.957304 -1.07572 0
M  V30 8568 H 819.866 4.09364 -0.999949 0
M  V30 8569 H 818.59 3.26517 -0.0737312 0
M  V30 8570 H 817.249 2.94578 -2.18219 0
M  V30 8571 H 816.897 4.97233 -0.759518 0
M  V30 8572 H 816.597 5.32734 -2.47928 0
M  V30 8573 H 818.121 5.86042 -1.71427 0
M  V30 8574 H 819.535 4.50935 -3.5402 0
M  V30 8575 H 817.932 4.21278 -4.2737 0
M  V30 8576 H 819.002 2.84193 -3.9289 0
M  V30 8577 N 820.346 1.18468 1.03938 0
M  V30 8578 C 821.256 0.927889 2.1547 0
M  V30 8579 C 822.272 -0.108447 1.73662 0
M  V30 8580 O 823.448 0.0737636 2.01265 0
M  V30 8581 C 820.513 0.458494 3.43655 0
M  V30 8582 C 819.574 1.56295 3.99838 0
M  V30 8583 C 818.807 1.11586 5.21904 0
M  V30 8584 O 819.03 -0.0249057 5.70395 0
M  V30 8585 O 817.964 1.91412 5.70653 0
M  V30 8586 H 821.79 1.86116 2.39989 0
M  V30 8587 H 819.375 0.966607 1.13917 0
M  V30 8588 H 821.257 0.204861 4.20902 0
M  V30 8589 H 819.932 -0.446464 3.20606 0
M  V30 8590 H 818.839 1.87061 3.23974 0
M  V30 8591 H 820.172 2.44408 4.2723 0
M  V30 8592 N 821.824 -1.22873 0.986916 0
M  V30 8593 C 823.101 -1.86939 0.575589 0
M  V30 8594 C 823.481 -1.88656 -0.947205 0
M  V30 8595 O 822.829 -1.3728 -1.82665 0
M  V30 8596 C 823.039 -3.28117 1.18914 0
M  V30 8597 C 824.387 -4.04659 1.28593 0
M  V30 8598 O 825.411 -3.3736 1.14308 0
M  V30 8599 O 824.27 -5.25112 1.51391 0
M  V30 8600 H 821.364 -0.803748 0.194724 0
M  V30 8601 H 823.91 -1.30698 1.08241 0
M  V30 8602 H 822.682 -3.21468 2.231 0
M  V30 8603 H 822.305 -3.91956 0.667535 0
M  V30 8604 N 823.302 -0.75937 -1.38099 0
M  V30 8605 C 824.232 -0.151077 -2.33011 0
M  V30 8606 C 825.213 0.697099 -1.5516 0
M  V30 8607 O 826.398 0.637101 -1.83452 0
M  V30 8608 C 823.528 0.738423 -3.39359 0
M  V30 8609 C 822.482 -0.0074741 -4.27999 0
M  V30 8610 C 821.808 1.00066 -5.25253 0
M  V30 8611 C 823.108 -1.17926 -5.08813 0
M  V30 8612 H 824.802 -0.943933 -2.84131 0
M  V30 8613 H 822.348 -0.455362 -1.36611 0
M  V30 8614 H 824.301 1.17369 -4.04725 0
M  V30 8615 H 823.025 1.56366 -2.86735 0
M  V30 8616 H 821.684 -0.423379 -3.64147 0
M  V30 8617 H 821.332 1.82012 -4.68914 0
M  V30 8618 H 821.032 0.506199 -5.85416 0
M  V30 8619 H 822.556 1.43512 -5.93495 0
M  V30 8620 H 823.97 -0.821262 -5.67387 0
M  V30 8621 H 822.367 -1.60497 -5.78239 0
M  V30 8622 H 823.437 -1.98938 -4.42212 0
M  V30 8623 N 824.78 1.49157 -0.508906 0
M  V30 8624 C 825.712 2.272 0.302115 0
M  V30 8625 C 826.725 1.3407 0.923529 0
M  V30 8626 O 827.914 1.5929 0.805532 0
M  V30 8627 C 825.014 3.06736 1.44105 0
M  V30 8628 C 824.187 4.27497 0.925477 0
M  V30 8629 C 823.246 4.89014 1.94297 0
M  V30 8630 O 822.272 5.48851 1.50834 0
M  V30 8631 N 823.474 4.7937 3.2739 0
M  V30 8632 H 826.239 2.97443 -0.367115 0
M  V30 8633 H 823.8 1.58248 -0.341933 0
M  V30 8634 H 825.792 3.44763 2.11944 0
M  V30 8635 H 824.362 2.3905 2.0143 0
M  V30 8636 H 823.582 3.94135 0.0717301 0
M  V30 8637 H 824.87 5.05714 0.55955 0
M  V30 8638 H 824.268 4.31869 3.65384 0
M  V30 8639 H 822.825 5.21559 3.90922 0
M  V30 8640 N 826.258 0.243083 1.55714 0
M  V30 8641 C 827.188 -0.652336 2.24203 0
M  V30 8642 C 828.169 -1.1843 1.221 0
M  V30 8643 O 829.354 -1.22435 1.50743 0
M  V30 8644 C 826.484 -1.85111 2.93856 0
M  V30 8645 C 825.438 -1.45208 4.02615 0
M  V30 8646 C 824.764 -2.73137 4.59674 0
M  V30 8647 C 826.064 -0.625988 5.18535 0
M  V30 8648 H 827.758 -0.0812504 2.9929 0
M  V30 8649 H 825.304 -0.0376388 1.43951 0
M  V30 8650 H 827.257 -2.48314 3.40468 0
M  V30 8651 H 825.981 -2.44751 2.16251 0
M  V30 8652 H 824.64 -0.843406 3.56766 0
M  V30 8653 H 824.288 -3.30967 3.78774 0
M  V30 8654 H 823.988 -2.47163 5.33089 0
M  V30 8655 H 825.512 -3.37245 5.09017 0
M  V30 8656 H 826.926 -1.16223 5.61396 0
M  V30 8657 H 825.323 -0.462465 5.98315 0
M  V30 8658 H 826.393 0.362652 4.83542 0
M  V30 8659 N 827.736 -1.57571 -0.0300757 0
M  V30 8660 C 828.666 -2.0953 -1.03051 0
M  V30 8661 C 829.647 -0.99761 -1.37774 0
M  V30 8662 O 830.832 -1.27279 -1.46676 0
M  V30 8663 C 827.962 -2.57385 -2.33174 0
M  V30 8664 C 826.916 -3.71409 -2.12696 0
M  V30 8665 C 826.242 -4.05467 -3.4857 0
M  V30 8666 C 827.542 -4.99877 -1.51396 0
M  V30 8667 H 829.236 -2.93367 -0.597999 0
M  V30 8668 H 826.782 -1.41127 -0.286203 0
M  V30 8669 H 828.735 -2.92355 -3.03491 0
M  V30 8670 H 827.459 -1.70629 -2.78484 0
M  V30 8671 H 826.118 -3.36786 -1.44813 0
M  V30 8672 H 825.766 -3.15779 -3.91526 0
M  V30 8673 H 825.466 -4.82269 -3.35694 0
M  V30 8674 H 826.99 -4.4297 -4.2025 0
M  V30 8675 H 828.404 -5.3281 -2.11629 0
M  V30 8676 H 826.801 -5.81283 -1.49098 0
M  V30 8677 H 827.871 -4.82522 -0.479676 0
M  V30 8678 N 829.214 0.302327 -1.54673 0
M  V30 8679 C 830.177 1.35592 -1.8479 0
M  V30 8680 C 831.177 1.43743 -0.72073 0
M  V30 8681 O 832.367 1.43402 -0.989017 0
M  V30 8682 C 829.499 2.74091 -2.02699 0
M  V30 8683 H 830.692 1.10132 -2.78946 0
M  V30 8684 H 828.245 0.538926 -1.46715 0
M  V30 8685 H 828.98 3.04775 -1.10826 0
M  V30 8686 H 828.765 2.69565 -2.8474 0
M  V30 8687 H 830.255 3.50272 -2.27374 0
M  V30 8688 N 830.692 1.47107 0.565454 0
M  V30 8689 C 831.969 1.43787 1.32607 0
M  V30 8690 C 832.349 0.130428 2.10697 0
M  V30 8691 O 831.697 -0.888086 2.10536 0
M  V30 8692 C 831.907 2.67833 2.23755 0
M  V30 8693 C 833.255 3.14704 2.85037 0
M  V30 8694 O 834.279 2.68503 2.34061 0
M  V30 8695 O 833.138 3.95002 3.77671 0
M  V30 8696 H 830.232 0.572623 0.596684 0
M  V30 8697 H 832.778 1.59296 0.58504 0
M  V30 8698 H 831.55 3.54532 1.65597 0
M  V30 8699 H 831.173 2.54869 3.05168 0
M  V30 8700 N 832.17 -0.811516 1.35101 0
M  V30 8701 C 833.1 -1.9378 1.30275 0
M  V30 8702 C 834.081 -1.69165 0.178075 0
M  V30 8703 O 835.266 -1.90599 0.372256 0
M  V30 8704 C 832.396 -3.30439 1.06899 0
M  V30 8705 C 831.35 -3.69523 2.15955 0
M  V30 8706 C 830.676 -5.0429 1.77751 0
M  V30 8707 C 831.976 -3.80419 3.57881 0
M  V30 8708 H 833.67 -1.98075 2.24514 0
M  V30 8709 H 831.216 -0.951586 1.08078 0
M  V30 8710 H 833.169 -4.08828 1.02164 0
M  V30 8711 H 831.893 -3.26473 0.0910462 0
M  V30 8712 H 830.552 -2.93416 2.19778 0
M  V30 8713 H 830.2 -4.96823 0.785876 0
M  V30 8714 H 829.9 -5.31411 2.5075 0
M  V30 8715 H 831.424 -5.85125 1.74533 0
M  V30 8716 H 832.838 -4.49051 3.56407 0
M  V30 8717 H 831.235 -4.19005 4.29598 0
M  V30 8718 H 832.305 -2.82105 3.94391 0
M  V30 8719 N 833.648 -1.19017 -1.03309 0
M  V30 8720 C 834.895 -0.990214 -1.76638 0
M  V30 8721 C 835.223 0.479435 -1.88498 0
M  V30 8722 O 834.478 1.37223 -1.39529 0
M  V30 8723 C 834.777 -1.59927 -3.19622 0
M  V30 8724 C 834.443 -3.09632 -3.27779 0
M  V30 8725 C 833.105 -3.50491 -3.29712 0
M  V30 8726 C 835.457 -4.05644 -3.27264 0
M  V30 8727 C 832.785 -4.85921 -3.28782 0
M  V30 8728 C 835.137 -5.41 -3.27875 0
M  V30 8729 C 833.801 -5.81295 -3.28104 0
M  V30 8730 H 833.071 -0.362345 -0.646364 0
M  V30 8731 H 835.718 -1.48197 -1.21284 0
M  V30 8732 H 834.023 -1.0297 -3.78027 0
M  V30 8733 H 835.72 -1.41989 -3.7502 0
M  V30 8734 H 832.31 -2.77073 -3.26999 0
M  V30 8735 H 836.494 -3.75124 -3.24955 0
M  V30 8736 H 831.75 -5.16427 -3.27281 0
M  V30 8737 H 835.924 -6.15157 -3.26428 0
M  V30 8738 H 833.551 -6.86211 -3.27138 0
M  V30 8739 N 835.127 1.22348 -0.993418 0
M  V30 8740 C 836.357 1.94842 -0.687023 0
M  V30 8741 C 836.765 1.73594 0.752445 0
M  V30 8742 O 836.108 1.03238 1.51946 0
M  V30 8743 C 836.17 3.47694 -0.913754 0
M  V30 8744 C 835.834 3.92678 -2.33781 0
M  V30 8745 C 836.831 4.0031 -3.31734 0
M  V30 8746 C 834.516 4.25311 -2.67237 0
M  V30 8747 C 836.51 4.39951 -4.61218 0
M  V30 8748 C 834.197 4.64631 -3.9694 0
M  V30 8749 C 835.195 4.71919 -4.93742 0
M  V30 8750 O 834.883 5.10349 -6.21127 0
M  V30 8751 H 834.615 0.626771 -0.253247 0
M  V30 8752 H 837.169 1.56436 -1.33105 0
M  V30 8753 H 835.399 3.86115 -0.212552 0
M  V30 8754 H 837.088 4.01403 -0.602528 0
M  V30 8755 H 837.854 3.75288 -3.07219 0
M  V30 8756 H 833.733 4.18842 -1.92594 0
M  V30 8757 H 837.277 4.45555 -5.36774 0
M  V30 8758 H 833.174 4.89104 -4.21245 0
M  V30 8759 H 833.942 5.2842 -6.25072 0
M  V30 8760 N 836.605 0.766683 1.37694 0
M  V30 8761 C 837.535 0.163432 2.32927 0
M  V30 8762 C 838.516 -0.688861 1.55527 0
M  V30 8763 O 839.701 -0.627363 1.83787 0
M  V30 8764 C 836.831 -0.720416 3.39746 0
M  V30 8765 C 835.785 0.0301718 4.27989 0
M  V30 8766 C 835.111 -0.972788 5.25776 0
M  V30 8767 C 836.411 1.20623 5.0818 0
M  V30 8768 H 838.105 0.958988 2.83626 0
M  V30 8769 H 835.651 0.462601 1.36367 0
M  V30 8770 H 837.604 -1.15221 4.05342 0
M  V30 8771 H 836.328 -1.54844 2.8756 0
M  V30 8772 H 834.987 0.442685 3.63917 0
M  V30 8773 H 834.635 -1.79522 4.69873 0
M  V30 8774 H 834.335 -0.475145 5.85676 0
M  V30 8775 H 835.859 -1.40362 5.94248 0
M  V30 8776 H 837.273 0.851341 5.66944 0
M  V30 8777 H 835.67 1.63561 5.7738 0
M  V30 8778 H 836.74 2.01281 4.41151 0
M  V30 8779 N 838.083 -1.48885 0.516809 0
M  V30 8780 C 839.494 -1.86557 0.0729921 0
M  V30 8781 C 839.845 -1.42767 -1.34581 0
M  V30 8782 O 838.97 -0.812514 -2.00567 0
M  V30 8783 C 839.565 -3.38567 0.125686 0
M  V30 8784 C 838.124 -3.75481 -0.262867 0
M  V30 8785 C 837.271 -2.72913 0.491281 0
M  V30 8786 H 840.222 -1.40978 0.728767 0
M  V30 8787 H 840.243 -3.74629 -0.665831 0
M  V30 8788 H 839.755 -3.70408 1.15842 0
M  V30 8789 H 837.856 -3.49251 -1.29824 0
M  V30 8790 H 837.969 -4.79052 0.067579 0
M  V30 8791 H 836.333 -2.54627 -0.0608525 0
M  V30 8792 H 837.116 -3.07599 1.5244 0
M  V30 8793 N 839.561 -0.251338 -1.55583 0
M  V30 8794 C 840.791 0.375642 -2.03156 0
M  V30 8795 C 841.199 1.51761 -1.12983 0
M  V30 8796 O 840.542 1.83184 -0.13757 0
M  V30 8797 C 840.604 0.941001 -3.46966 0
M  V30 8798 C 840.268 -0.0692886 -4.56947 0
M  V30 8799 C 841.265 -0.88041 -5.12391 0
M  V30 8800 C 838.95 -0.196661 -5.01915 0
M  V30 8801 C 840.944 -1.80532 -6.11299 0
M  V30 8802 C 838.631 -1.12507 -6.00654 0
M  V30 8803 C 839.629 -1.92792 -6.55225 0
M  V30 8804 O 839.317 -2.84067 -7.52038 0
M  V30 8805 H 839.049 0.0928836 -0.669588 0
M  V30 8806 H 841.603 -0.374115 -2.01964 0
M  V30 8807 H 839.833 1.7404 -3.45322 0
M  V30 8808 H 841.522 1.47853 -3.78014 0
M  V30 8809 H 842.288 -0.792615 -4.78479 0
M  V30 8810 H 838.167 0.418187 -4.59099 0
M  V30 8811 H 841.711 -2.43239 -6.5382 0
M  V30 8812 H 837.608 -1.21377 -6.33986 0
M  V30 8813 H 838.376 -2.78479 -7.6967 0
M  V30 8814 N 841.039 1.57585 0.0217189 0
M  V30 8815 C 841.949 2.10444 1.03684 0
M  V30 8816 C 842.965 1.04472 1.39146 0
M  V30 8817 O 844.141 1.36249 1.48317 0
M  V30 8818 C 841.206 2.5794 2.31664 0
M  V30 8819 C 840.267 3.78425 2.02714 0
M  V30 8820 C 839.5 4.23646 3.24592 0
M  V30 8821 O 839.723 3.6834 4.35525 0
M  V30 8822 O 838.657 5.16013 3.09862 0
M  V30 8823 H 842.483 2.97354 0.617584 0
M  V30 8824 H 840.068 1.47473 0.239174 0
M  V30 8825 H 841.95 2.88785 3.06889 0
M  V30 8826 H 840.625 1.74138 2.7287 0
M  V30 8827 H 839.532 3.52587 1.25033 0
M  V30 8828 H 840.865 4.63234 1.66359 0
M  V30 8829 N 842.517 -0.29412 1.54831 0
M  V30 8830 C 843.467 -1.36476 1.82643 0
M  V30 8831 C 844.451 -1.45638 0.683984 0
M  V30 8832 O 845.643 -1.49675 0.944801 0
M  V30 8833 C 842.772 -2.72865 2.08326 0
M  V30 8834 C 841.858 -2.67898 3.28773 0
M  V30 8835 N 842.249 -2.32547 4.49172 0
M  V30 8836 C 840.547 -2.98991 3.30939 0
M  V30 8837 C 841.248 -2.37048 5.31209 0
M  V30 8838 N 840.224 -2.74679 4.69097 0
M  V30 8839 H 844.026 -1.08119 2.7329 0
M  V30 8840 H 841.54 -0.502718 1.54423 0
M  V30 8841 H 843.537 -3.5007 2.264 0
M  V30 8842 H 842.197 -3.02127 1.1895 0
M  V30 8843 H 843.208 -2.04883 4.7565 0
M  V30 8844 H 839.885 -3.33104 2.51691 0
M  V30 8845 H 841.275 -2.12457 6.37426 0
M  V30 8846 N 843.995 -1.47404 -0.557645 0
M  V30 8847 C 845.243 -1.53703 -1.31224 0
M  V30 8848 C 845.564 -0.200742 -1.93964 0
M  V30 8849 O 844.834 0.775253 -1.79907 0
M  V30 8850 H 843.414 -0.566171 -0.487299 0
M  V30 8851 H 846.076 -1.83699 -0.651195 0
M  V30 8852 H 845.172 -2.30335 -2.10599 0
M  V30 8853 N 845.473 0.80434 -1.35529 0
M  V30 8854 C 846.884 1.37849 -1.25915 0
M  V30 8855 C 847.235 1.95905 0.107495 0
M  V30 8856 O 846.36 1.91462 1.00852 0
M  V30 8857 C 846.955 2.50608 -2.27994 0
M  V30 8858 C 845.514 3.03879 -2.22114 0
M  V30 8859 C 844.661 1.76856 -2.13582 0
M  V30 8860 H 847.612 0.607192 -1.46625 0
M  V30 8861 H 847.633 3.29221 -1.90772 0
M  V30 8862 H 847.145 2.08323 -3.27449 0
M  V30 8863 H 845.246 3.50622 -1.26077 0
M  V30 8864 H 845.359 3.61707 -3.14173 0
M  V30 8865 H 843.723 1.98498 -1.59595 0
M  V30 8866 H 844.506 1.36721 -3.14901 0
M  V30 8867 N 846.951 1.19563 1.02676 0
M  V30 8868 C 847.898 0.935291 2.11 0
M  V30 8869 C 848.868 -0.130685 1.65585 0
M  V30 8870 O 850.053 0.0119062 1.90796 0
M  V30 8871 C 847.193 0.482384 3.41712 0
M  V30 8872 C 846.306 1.61537 4.00662 0
M  V30 8873 C 845.441 1.11378 5.19392 0
M  V30 8874 C 844.48 2.22052 5.70403 0
M  V30 8875 N 843.617 1.73185 6.80405 0
M  V30 8876 H 848.457 1.86275 2.32606 0
M  V30 8877 H 845.994 0.928656 1.14081 0
M  V30 8878 H 847.952 0.20118 4.16715 0
M  V30 8879 H 846.582 -0.408086 3.2021 0
M  V30 8880 H 845.634 2.01173 3.22852 0
M  V30 8881 H 846.946 2.44912 4.34534 0
M  V30 8882 H 846.1 0.787935 6.01562 0
M  V30 8883 H 844.839 0.249789 4.8706 0
M  V30 8884 H 843.844 2.55465 4.86845 0
M  V30 8885 H 845.069 3.08911 6.04774 0
M  V30 8886 H 843.015 0.890973 6.49921 0
M  V30 8887 H 842.932 2.50148 7.13416 0
M  V30 8888 H 844.2 1.4357 7.66164 0
M  V30 8889 N 848.429 -1.21819 0.999893 0
M  V30 8890 C 849.677 -1.90375 0.678351 0
M  V30 8891 C 849.998 -1.78155 -0.792824 0
M  V30 8892 O 849.268 -1.17319 -1.56885 0
M  V30 8893 H 847.848 -0.704661 0.247915 0
M  V30 8894 H 850.51 -1.48021 1.2679 0
M  V30 8895 H 849.606 -2.97385 0.947023 0
M  V30 8896 N 849.908 -0.773975 -1.37286 0
M  V30 8897 C 850.871 -0.167974 -2.28584 0
M  V30 8898 C 851.871 0.625662 -1.48129 0
M  V30 8899 O 853.061 0.448924 -1.68316 0
M  V30 8900 C 850.193 0.769364 -3.32105 0
M  V30 8901 H 851.386 -0.972806 -2.83684 0
M  V30 8902 H 848.939 -0.542335 -1.46589 0
M  V30 8903 H 849.674 1.59912 -2.82132 0
M  V30 8904 H 849.459 0.202419 -3.91577 0
M  V30 8905 H 850.949 1.18872 -4.00324 0
M  V30 8906 N 851.386 1.48609 -0.524698 0
M  V30 8907 C 852.318 2.27508 0.278 0
M  V30 8908 C 853.331 1.35042 0.909258 0
M  V30 8909 O 854.52 1.60136 0.788592 0
M  V30 8910 C 851.62 3.08247 1.40843 0
M  V30 8911 C 850.793 4.28455 0.880083 0
M  V30 8912 C 849.852 4.91048 1.891 0
M  V30 8913 O 848.878 5.5042 1.45005 0
M  V30 8914 N 850.08 4.82816 3.22288 0
M  V30 8915 H 852.845 2.97037 -0.398642 0
M  V30 8916 H 850.406 1.57876 -0.358698 0
M  V30 8917 H 852.398 3.46992 2.08276 0
M  V30 8918 H 850.968 2.41173 1.98883 0
M  V30 8919 H 850.188 3.94189 0.0299228 0
M  V30 8920 H 851.476 5.06279 0.505881 0
M  V30 8921 H 850.874 4.3572 3.60783 0
M  V30 8922 H 849.431 5.25676 3.85368 0
M  V30 8923 N 852.864 0.259585 1.55447 0
M  V30 8924 C 853.797 -0.675542 2.17972 0
M  V30 8925 C 854.775 -1.16362 1.13572 0
M  V30 8926 O 855.959 -1.23944 1.42021 0
M  V30 8927 C 853.086 -1.91952 2.79056 0
M  V30 8928 C 852.132 -1.56824 3.96621 0
M  V30 8929 S 852.965 -0.659846 5.31419 0
M  V30 8930 C 854.121 -1.91255 5.95963 0
M  V30 8931 H 854.354 -0.144236 2.9695 0
M  V30 8932 H 851.887 0.0439448 1.54337 0
M  V30 8933 H 853.845 -2.63362 3.14882 0
M  V30 8934 H 852.506 -2.42196 2 0
M  V30 8935 H 851.699 -2.49348 4.37997 0
M  V30 8936 H 851.301 -0.934472 3.62138 0
M  V30 8937 H 853.593 -2.85834 6.14252 0
M  V30 8938 H 854.536 -1.54207 6.91105 0
M  V30 8939 H 854.944 -2.07042 5.25161 0
M  V30 8940 N 854.342 -1.57594 -0.0133615 0
M  V30 8941 C 855.272 -2.10611 -1.00823 0
M  V30 8942 C 856.253 -1.01217 -1.36708 0
M  V30 8943 O 857.438 -1.28827 -1.45318 0
M  V30 8944 C 854.568 -2.59844 -2.30431 0
M  V30 8945 C 853.522 -3.73644 -2.08745 0
M  V30 8946 C 852.848 -4.09141 -3.4425 0
M  V30 8947 C 854.148 -5.01454 -1.46086 0
M  V30 8948 H 855.842 -2.93985 -0.566849 0
M  V30 8949 H 853.388 -1.41423 -0.271219 0
M  V30 8950 H 855.341 -2.95557 -3.00373 0
M  V30 8951 H 854.065 -1.73573 -2.76658 0
M  V30 8952 H 852.724 -3.38303 -1.41232 0
M  V30 8953 H 852.372 -3.19914 -3.88155 0
M  V30 8954 H 852.072 -4.85802 -3.3056 0
M  V30 8955 H 853.596 -4.47402 -4.15528 0
M  V30 8956 H 855.01 -5.35024 -2.05966 0
M  V30 8957 H 853.407 -5.82832 -1.42924 0
M  V30 8958 H 854.477 -4.83003 -0.428471 0
M  V30 8959 N 855.82 0.285905 -1.54985 0
M  V30 8960 C 857.236 0.632405 -1.46536 0
M  V30 8961 C 857.436 1.90074 -0.668888 0
M  V30 8962 O 856.492 2.51839 -0.182586 0
M  V30 8963 C 857.805 0.771361 -2.90638 0
M  V30 8964 C 859.353 0.866262 -3.00774 0
M  V30 8965 C 859.828 1.0371 -4.46103 0
M  V30 8966 N 861.319 1.10294 -4.49877 0
M  V30 8967 C 862.054 1.25369 -5.59527 0
M  V30 8968 N 861.55 1.37246 -6.7907 0
M  V30 8969 N 863.343 1.28377 -5.47244 0
M  V30 8970 H 855.494 -0.547226 -2.0523 0
M  V30 8971 H 857.757 -0.183298 -0.930111 0
M  V30 8972 H 857.463 -0.0899485 -3.51585 0
M  V30 8973 H 857.337 1.65569 -3.3892 0
M  V30 8974 H 859.724 1.71805 -2.39931 0
M  V30 8975 H 859.805 -0.0424049 -2.55765 0
M  V30 8976 H 859.449 0.190021 -5.07544 0
M  V30 8977 H 859.379 1.96022 -4.88757 0
M  V30 8978 H 861.87 1.02407 -3.6376 0
M  V30 8979 H 862.183 1.48546 -7.58389 0
M  V30 8980 H 860.528 1.34274 -6.81906 0
M  V30 8981 H 863.719 1.1872 -4.52795 0
M  V30 8982 H 863.892 1.39782 -6.32744 0
M  V30 8983 N 857.298 1.47698 0.54982 0
M  V30 8984 C 858.208 1.63386 1.68351 0
M  V30 8985 C 859.224 0.516583 1.66155 0
M  V30 8986 O 860.4 0.785088 1.85468 0
M  V30 8987 C 857.465 1.6513 3.04849 0
M  V30 8988 C 856.526 2.88338 3.18056 0
M  V30 8989 C 855.759 2.8999 4.48042 0
M  V30 8990 O 855.982 2.00633 5.3395 0
M  V30 8991 O 854.916 3.81938 4.65196 0
M  V30 8992 H 858.742 2.59329 1.58057 0
M  V30 8993 H 856.327 1.30869 0.72067 0
M  V30 8994 H 858.209 1.68913 3.86065 0
M  V30 8995 H 856.884 0.723555 3.1551 0
M  V30 8996 H 855.791 2.90097 2.36209 0
M  V30 8997 H 857.124 3.80431 3.12302 0
M  V30 8998 N 858.776 -0.797141 1.35954 0
M  V30 8999 C 860.023 -1.55468 1.29754 0
M  V30 9000 C 860.351 -1.94095 -0.125391 0
M  V30 9001 O 859.606 -1.62341 -1.09288 0
M  V30 9002 C 859.905 -2.84847 2.15863 0
M  V30 9003 C 859.571 -2.65394 3.64523 0
M  V30 9004 C 858.233 -2.59796 4.05042 0
M  V30 9005 C 860.585 -2.4727 4.58811 0
M  V30 9006 C 857.913 -2.3403 5.38002 0
M  V30 9007 C 860.265 -2.23032 5.91979 0
M  V30 9008 C 858.929 -2.15862 6.31633 0
M  V30 9009 H 858.199 -0.568897 0.474803 0
M  V30 9010 H 860.846 -0.920299 1.67937 0
M  V30 9011 H 859.151 -3.52712 1.70591 0
M  V30 9012 H 860.848 -3.42597 2.08395 0
M  V30 9013 H 857.438 -2.70602 3.32374 0
M  V30 9014 H 861.622 -2.506 4.28384 0
M  V30 9015 H 856.878 -2.26956 5.67715 0
M  V30 9016 H 861.052 -2.08001 6.64612 0
M  V30 9017 H 858.679 -1.9566 7.34589 0
M  V30 9018 N 860.254 -1.20106 -1.0204 0
M  V30 9019 C 861.186 -0.904236 -2.10609 0
M  V30 9020 C 862.199 0.106487 -1.62451 0
M  V30 9021 O 863.388 -0.124035 -1.78069 0
M  V30 9022 C 860.488 -0.333423 -3.37256 0
M  V30 9023 C 859.661 -1.39476 -4.14566 0
M  V30 9024 C 858.72 -0.835961 -5.19517 0
M  V30 9025 O 857.746 -1.51573 -5.48648 0
M  V30 9026 N 858.948 0.356531 -5.79404 0
M  V30 9027 H 861.713 -1.8388 -2.36661 0
M  V30 9028 H 859.274 -1.10422 -1.184 0
M  V30 9029 H 861.266 0.0544571 -4.04663 0
M  V30 9030 H 859.836 0.505608 -3.08484 0
M  V30 9031 H 859.056 -1.95714 -3.42184 0
M  V30 9032 H 860.344 -2.10967 -4.63001 0
M  V30 9033 H 859.742 0.926143 -5.58067 0
M  V30 9034 H 858.299 0.686093 -6.48179 0
M  V30 9035 N 861.732 1.21287 -1.00634 0
M  V30 9036 C 862.978 1.90957 -0.70051 0
M  V30 9037 C 863.333 1.76729 0.760567 0
M  V30 9038 O 862.626 1.13405 1.54434 0
M  V30 9039 C 862.82 3.41374 -1.05824 0
M  V30 9040 C 862.649 3.70237 -2.55254 0
M  V30 9041 C 861.419 3.89518 -3.21876 0
M  V30 9042 C 863.617 3.73633 -3.53417 0
M  V30 9043 N 861.599 4.05809 -4.60643 0
M  V30 9044 C 862.97 3.95225 -4.777 0
M  V30 9045 C 865.025 3.56545 -3.47534 0
M  V30 9046 C 863.728 4.01502 -5.96815 0
M  V30 9047 C 865.754 3.64089 -4.6604 0
M  V30 9048 C 865.116 3.86144 -5.89128 0
M  V30 9049 H 861.215 0.718861 -0.307835 0
M  V30 9050 H 863.799 1.45913 -1.28908 0
M  V30 9051 H 861.97 3.85193 -0.498106 0
M  V30 9052 H 863.702 3.98476 -0.707006 0
M  V30 9053 H 860.457 3.87479 -2.72318 0
M  V30 9054 H 860.881 4.17854 -5.32661 0
M  V30 9055 H 865.523 3.38469 -2.53375 0
M  V30 9056 H 863.241 4.18378 -6.91365 0
M  V30 9057 H 866.827 3.52188 -4.63092 0
M  V30 9058 H 865.707 3.91827 -6.79295 0
M  V30 9059 N 863.21 0.781244 1.36873 0
M  V30 9060 C 864.14 0.188128 2.32741 0
M  V30 9061 C 865.121 -0.672326 1.56249 0
M  V30 9062 O 866.306 -0.607835 1.84442 0
M  V30 9063 C 863.436 -0.684341 3.40491 0
M  V30 9064 C 862.39 0.0755641 4.27933 0
M  V30 9065 C 861.716 -0.916968 5.26779 0
M  V30 9066 C 863.016 1.26006 5.06873 0
M  V30 9067 H 864.71 0.989016 2.82593 0
M  V30 9068 H 862.256 0.477038 1.35869 0
M  V30 9069 H 864.209 -1.10915 4.06541 0
M  V30 9070 H 862.933 -1.51785 2.89187 0
M  V30 9071 H 861.592 0.481258 3.63427 0
M  V30 9072 H 861.24 -1.74528 4.71751 0
M  V30 9073 H 860.94 -0.413 5.86147 0
M  V30 9074 H 862.464 -1.34052 5.95703 0
M  V30 9075 H 863.878 0.911425 5.66009 0
M  V30 9076 H 862.275 1.69676 5.75613 0
M  V30 9077 H 863.345 2.05948 4.38991 0
M  V30 9078 N 864.689 -1.48329 0.532571 0
M  V30 9079 C 866.105 -1.58458 0.190605 0
M  V30 9080 C 866.305 -1.53427 -1.30623 0
M  V30 9081 O 865.361 -1.4247 -2.08467 0
M  V30 9082 C 866.674 -2.89989 0.79543 0
M  V30 9083 C 868.222 -3.03523 0.7644 0
M  V30 9084 C 868.697 -4.37718 1.34785 0
M  V30 9085 N 870.188 -4.44292 1.30993 0
M  V30 9086 C 870.923 -5.4664 1.73124 0
M  V30 9087 N 870.419 -6.5593 2.22997 0
M  V30 9088 N 872.212 -5.37538 1.64346 0
M  V30 9089 H 864.363 -1.49842 1.50537 0
M  V30 9090 H 866.626 -0.71164 0.626316 0
M  V30 9091 H 866.332 -2.99333 1.84642 0
M  V30 9092 H 866.206 -3.76203 0.27403 0
M  V30 9093 H 868.593 -2.93789 -0.277831 0
M  V30 9094 H 868.674 -2.18912 1.3233 0
M  V30 9095 H 868.318 -4.48206 2.38902 0
M  V30 9096 H 868.248 -5.21019 0.764609 0
M  V30 9097 H 870.739 -3.65897 0.944868 0
M  V30 9098 H 871.052 -7.30167 2.53133 0
M  V30 9099 H 869.397 -6.56886 2.26992 0
M  V30 9100 H 872.588 -4.51052 1.25178 0
M  V30 9101 H 872.761 -6.17169 1.97501 0
M  V30 9102 N 866.167 -0.267825 -1.55308 0
M  V30 9103 C 867.13 0.60965 -2.20943 0
M  V30 9104 C 868.13 1.0869 -1.18504 0
M  V30 9105 O 869.32 0.988248 -1.43455 0
M  V30 9106 C 866.452 1.84027 -2.86961 0
M  V30 9107 H 867.645 0.0366806 -2.99878 0
M  V30 9108 H 865.198 -0.0183941 -1.56289 0
M  V30 9109 H 865.933 2.45394 -2.1202 0
M  V30 9110 H 865.718 1.50605 -3.62023 0
M  V30 9111 H 867.208 2.46442 -3.37129 0
M  V30 9112 N 867.645 1.57599 0.00500368 0
M  V30 9113 C 868.593 2.09223 1.01628 0
M  V30 9114 C 869.587 1.01113 1.35913 0
M  V30 9115 O 870.793 1.19583 1.34536 0
M  V30 9116 H 867.168 0.667999 0.345372 0
M  V30 9117 H 869.139 2.93188 0.555274 0
M  V30 9118 C 867.888 2.60674 2.30097 0
M  V30 9119 H 867.211 3.43491 2.04582 0
M  V30 9120 H 868.651 3.00479 2.99146 0
M  V30 9121 C 867.11 1.51862 3.00731 0
M  V30 9122 O 867.64 0.898651 3.91519 0
M  V30 9123 N 865.846 1.24729 2.62471 0
M  V30 9124 H 865.393 1.7533 1.88725 0
M  V30 9125 H 865.351 0.521437 3.10046 0
M  V30 9126 N 869.123 -0.277682 1.55134 0
M  V30 9127 C 870.348 -1.03254 1.7987 0
M  V30 9128 C 870.773 -1.79324 0.567861 0
M  V30 9129 O 870.131 -1.74764 -0.4824 0
M  V30 9130 C 870.179 -1.9705 3.02 0
M  V30 9131 O 869.283 -3.05744 2.76757 0
M  V30 9132 H 868.624 -0.295447 0.594649 0
M  V30 9133 H 871.154 -0.308013 2.02268 0
M  V30 9134 H 871.164 -2.3909 3.30606 0
M  V30 9135 H 869.839 -1.41094 3.91236 0
M  V30 9136 H 868.416 -2.68052 2.59235 0
M  V30 9137 N 870.601 -1.47988 -0.541979 0
M  V30 9138 C 871.826 -1.59286 -1.32826 0
M  V30 9139 C 872.251 -0.24894 -1.86445 0
M  V30 9140 O 871.609 0.777581 -1.63778 0
M  V30 9141 C 871.657 -2.6334 -2.46343 0
M  V30 9142 O 870.761 -2.19667 -3.49028 0
M  V30 9143 H 870.102 -0.534543 -0.393903 0
M  V30 9144 H 872.632 -1.93885 -0.653427 0
M  V30 9145 H 872.642 -2.84238 -2.92699 0
M  V30 9146 H 871.317 -3.60913 -2.06675 0
M  V30 9147 H 869.894 -2.08932 -3.08872 0
M  V30 9148 N 872.079 0.78992 -1.36375 0
M  V30 9149 C 873.325 1.55007 -1.3077 0
M  V30 9150 C 873.658 1.93871 0.112979 0
M  V30 9151 O 872.933 1.6267 1.06625 0
M  V30 9152 C 873.216 2.82748 -2.22993 0
M  V30 9153 C 873.069 2.50253 -3.73756 0
M  V30 9154 C 874.388 3.84569 -2.13998 0
M  V30 9155 H 871.507 0.562362 -0.476359 0
M  V30 9156 H 874.149 0.907582 -1.66922 0
M  V30 9157 H 872.299 3.37573 -1.92292 0
M  V30 9158 H 873.971 2.01482 -4.14973 0
M  V30 9159 H 872.214 1.83203 -3.93216 0
M  V30 9160 H 872.885 3.41487 -4.33694 0
M  V30 9161 H 875.361 3.39188 -2.4102 0
M  V30 9162 H 874.237 4.717 -2.80697 0
M  V30 9163 H 874.498 4.27491 -1.12711 0
M  V30 9164 N 873.557 1.20646 1.01402 0
M  V30 9165 C 874.803 1.0197 1.753 0
M  V30 9166 C 875.136 -0.446803 1.8899 0
M  V30 9167 O 874.411 -1.33169 1.41762 0
M  V30 9168 C 874.694 1.70693 3.17074 0
M  V30 9169 C 874.547 3.24805 3.11162 0
M  V30 9170 C 875.866 1.44212 4.15802 0
M  V30 9171 H 872.985 0.371844 0.636318 0
M  V30 9172 H 875.627 1.48696 1.18277 0
M  V30 9173 H 873.777 1.30968 3.65759 0
M  V30 9174 H 875.449 3.73841 2.70261 0
M  V30 9175 H 873.692 3.55576 2.48492 0
M  V30 9176 H 874.363 3.68049 4.11393 0
M  V30 9177 H 876.839 1.7868 3.75783 0
M  V30 9178 H 875.715 1.94825 5.13161 0
M  V30 9179 H 875.976 0.370252 4.40547 0
M  V30 9180 N 875.035 -1.20752 1.01276 0
M  V30 9181 C 876.26 -1.94547 0.718769 0
M  V30 9182 C 876.685 -1.7404 -0.713563 0
M  V30 9183 O 876.043 -1.03221 -1.49047 0
M  V30 9184 C 876.091 -3.44823 1.05497 0
M  V30 9185 O 875.195 -4.12072 0.164516 0
M  V30 9186 H 874.536 -0.607931 0.267051 0
M  V30 9187 H 877.066 -1.53292 1.35509 0
M  V30 9188 H 877.076 -3.95427 1.00507 0
M  V30 9189 H 875.751 -3.59072 2.09858 0
M  V30 9190 H 874.328 -3.71909 0.271615 0
M  V30 9191 N 876.513 -0.788492 -1.36457 0
M  V30 9192 C 877.759 -0.360995 -1.99561 0
M  V30 9193 C 878.092 1.06433 -1.62437 0
M  V30 9194 O 877.367 1.7352 -0.878705 0
M  V30 9195 C 877.65 -0.523735 -3.56271 0
M  V30 9196 C 877.503 -1.99268 -4.03252 0
M  V30 9197 C 878.822 0.0617908 -4.40057 0
M  V30 9198 H 875.941 -0.13264 -0.724966 0
M  V30 9199 H 878.583 -0.994659 -1.61884 0
M  V30 9200 H 876.733 0.0156979 -3.88497 0
M  V30 9201 H 878.405 -2.59311 -3.81518 0
M  V30 9202 H 876.648 -2.49561 -3.54826 0
M  V30 9203 H 877.319 -2.05752 -5.12221 0
M  V30 9204 H 879.795 -0.398674 -4.14186 0
M  V30 9205 H 878.671 -0.0821089 -5.48839 0
M  V30 9206 H 878.932 1.15381 -4.26778 0
M  V30 9207 N 877.991 1.48044 -0.54043 0
M  V30 9208 C 878.939 2.31461 0.229862 0
M  V30 9209 C 879.933 1.41884 0.925495 0
M  V30 9210 O 881.139 1.58736 0.848689 0
M  V30 9211 H 877.514 0.746227 0.0929975 0
M  V30 9212 H 879.485 2.94297 -0.493118 0
M  V30 9213 C 878.234 3.24172 1.25729 0
M  V30 9214 H 877.557 3.93052 0.731426 0
M  V30 9215 H 878.997 3.85404 1.76747 0
M  V30 9216 C 877.456 2.4651 2.2964 0
M  V30 9217 O 877.986 2.19742 3.36268 0
M  V30 9218 N 876.192 2.07817 2.03127 0
M  V30 9219 H 875.739 2.29786 1.1643 0
M  V30 9220 H 875.697 1.56168 2.72872 0
M  V30 9221 N 879.47 0.276058 1.55163 0
M  V30 9222 C 880.71 -0.341634 2.01525 0
M  V30 9223 C 881.074 -1.52979 1.16023 0
M  V30 9224 O 882.275 -2.21718 1.51968 0
M  V30 9225 C 880.546 -0.713294 3.5021 0
M  V30 9226 S 882.105 -1.31739 4.18558 0
M  V30 9227 H 878.923 -0.1062 0.703024 0
M  V30 9228 H 881.525 0.398112 1.91404 0
M  V30 9229 H 880.229 0.160311 4.10087 0
M  V30 9230 H 879.76 -1.48448 3.64317 0
M  V30 9231 H 881.775 -2.60595 4.22261 0
M  V30 9232 N 880.948 -1.576 0.00335426 0
M  V30 9233 C 881.895 -2.08632 -0.986975 0
M  V30 9234 C 882.865 -0.982491 -1.33927 0
M  V30 9235 O 884.05 -1.25513 -1.43705 0
M  V30 9236 C 881.19 -2.59705 -2.27261 0
M  V30 9237 C 880.303 -3.84002 -1.97905 0
M  V30 9238 C 879.438 -4.23563 -3.20574 0
M  V30 9239 C 878.477 -5.40688 -2.8692 0
M  V30 9240 N 877.614 -5.75526 -4.02136 0
M  V30 9241 H 882.454 -2.92977 -0.544855 0
M  V30 9242 H 879.991 -1.44831 -0.257376 0
M  V30 9243 H 881.949 -2.87395 -3.02423 0
M  V30 9244 H 880.579 -1.7823 -2.69136 0
M  V30 9245 H 879.631 -3.63199 -1.13096 0
M  V30 9246 H 880.943 -4.69261 -1.69102 0
M  V30 9247 H 880.097 -4.52554 -4.04079 0
M  V30 9248 H 878.836 -3.37019 -3.52518 0
M  V30 9249 H 877.841 -5.11417 -2.01822 0
M  V30 9250 H 879.066 -6.2891 -2.5622 0
M  V30 9251 H 877.012 -4.9194 -4.33971 0
M  V30 9252 H 876.929 -6.55367 -3.76869 0
M  V30 9253 H 878.197 -6.0911 -4.8642 0
M  V30 9254 N 882.426 0.269451 -1.5528 0
M  V30 9255 C 883.674 0.998604 -1.75705 0
M  V30 9256 C 883.995 1.86691 -0.563175 0
M  V30 9257 O 883.265 1.91305 0.421811 0
M  V30 9258 H 881.845 0.371698 -0.647958 0
M  V30 9259 H 884.507 0.292826 -1.92688 0
M  V30 9260 H 883.603 1.63348 -2.6594 0
M  V30 9261 N 883.904 1.48273 0.534124 0
M  V30 9262 C 884.851 1.62487 1.6391 0
M  V30 9263 C 885.821 0.467062 1.59398 0
M  V30 9264 O 887.006 0.690029 1.77885 0
M  V30 9265 C 884.146 1.66671 3.02183 0
M  V30 9266 C 883.259 2.9353 3.16961 0
M  V30 9267 C 882.394 2.88902 4.45768 0
M  V30 9268 C 881.433 4.10483 4.54059 0
M  V30 9269 N 880.57 4.03956 5.74251 0
M  V30 9270 H 885.41 2.56851 1.51101 0
M  V30 9271 H 882.947 1.27381 0.735704 0
M  V30 9272 H 884.905 1.67079 3.82283 0
M  V30 9273 H 883.535 0.758011 3.13774 0
M  V30 9274 H 882.587 3.02886 2.3014 0
M  V30 9275 H 883.899 3.83501 3.18949 0
M  V30 9276 H 883.053 2.87688 5.34154 0
M  V30 9277 H 881.792 1.96652 4.46295 0
M  V30 9278 H 880.797 4.11977 3.64081 0
M  V30 9279 H 882.022 5.03887 4.55274 0
M  V30 9280 H 879.968 3.14525 5.75682 0
M  V30 9281 H 879.885 4.87628 5.77715 0
M  V30 9282 H 881.153 4.06795 6.64935 0
M  V30 9283 N 885.382 -0.782676 1.36792 0
M  V30 9284 C 886.659 -1.52939 1.21939 0
M  V30 9285 C 887.039 -2.10228 -0.191639 0
M  V30 9286 O 886.387 -1.94574 -1.19805 0
M  V30 9287 C 886.597 -2.61898 2.30674 0
M  V30 9288 C 887.945 -3.29598 2.67676 0
M  V30 9289 O 888.969 -2.72186 2.29768 0
M  V30 9290 O 887.828 -4.3337 3.32946 0
M  V30 9291 H 884.922 -0.676856 0.47518 0
M  V30 9292 H 887.468 -0.82058 1.48542 0
M  V30 9293 H 886.24 -2.17607 3.25212 0
M  V30 9294 H 885.863 -3.40391 2.05475 0
M  V30 9295 N 886.86 -1.21182 -1.00761 0
M  V30 9296 C 888.085 -1.05411 -1.78615 0
M  V30 9297 C 888.51 0.391837 -1.83973 0
M  V30 9298 O 887.868 1.28256 -1.28141 0
M  V30 9299 C 887.916 -1.65285 -3.20489 0
M  V30 9300 O 887.02 -0.896558 -4.02536 0
M  V30 9301 H 886.361 -0.37116 -0.550578 0
M  V30 9302 H 888.891 -1.60669 -1.26676 0
M  V30 9303 H 888.901 -1.69397 -3.71172 0
M  V30 9304 H 887.576 -2.70514 -3.15904 0
M  V30 9305 H 886.153 -0.930335 -3.61108 0
M  V30 9306 N 888.338 1.20213 -1.01915 0
M  V30 9307 C 889.248 2.26763 -0.601311 0
M  V30 9308 C 890.264 1.70185 0.362369 0
M  V30 9309 O 891.44 2.00165 0.222682 0
M  V30 9310 C 888.505 3.46662 0.0512879 0
M  V30 9311 C 887.566 4.18459 -0.958659 0
M  V30 9312 C 886.799 5.32634 -0.337107 0
M  V30 9313 O 887.022 5.63841 0.86251 0
M  V30 9314 O 885.956 5.9258 -1.05511 0
M  V30 9315 H 889.782 2.64725 -1.48844 0
M  V30 9316 H 887.367 1.2688 -0.788784 0
M  V30 9317 H 889.249 4.19345 0.41564 0
M  V30 9318 H 887.924 3.1057 0.912572 0
M  V30 9319 H 886.831 3.47937 -1.37442 0
M  V30 9320 H 888.164 4.58498 -1.78999 0
M  V30 9321 N 889.816 0.795718 1.36037 0
M  V30 9322 C 890.763 0.196548 2.29962 0
M  V30 9323 C 891.733 -0.663213 1.52285 0
M  V30 9324 O 892.918 -0.610574 1.80767 0
M  V30 9325 C 890.058 -0.657639 3.38776 0
M  V30 9326 C 889.171 0.221358 4.31433 0
M  V30 9327 C 888.306 -0.6398 5.27333 0
M  V30 9328 C 887.345 0.240265 6.11628 0
M  V30 9329 N 886.482 -0.580237 6.99698 0
M  V30 9330 H 891.322 1.00295 2.80615 0
M  V30 9331 H 888.859 0.506147 1.38118 0
M  V30 9332 H 890.817 -1.16793 4.00519 0
M  V30 9333 H 889.447 -1.42941 2.89426 0
M  V30 9334 H 888.499 0.84967 3.70789 0
M  V30 9335 H 889.811 0.899195 4.90628 0
M  V30 9336 H 888.965 -1.21566 5.94396 0
M  V30 9337 H 887.704 -1.35124 4.68607 0
M  V30 9338 H 886.709 0.828474 5.43522 0
M  V30 9339 H 887.934 0.949403 6.72431 0
M  V30 9340 H 885.88 -1.27585 6.43473 0
M  V30 9341 H 885.797 0.0397853 7.5599 0
M  V30 9342 H 887.065 -1.13972 7.71123 0
M  V30 9343 N 891.294 -1.47756 0.548274 0
M  V30 9344 C 892.543 -2.01691 0.0187961 0
M  V30 9345 C 892.856 -1.42894 -1.33569 0
M  V30 9346 O 894.062 -1.88438 -1.95457 0
M  V30 9347 C 892.518 -3.59896 -0.016847 0
M  V30 9348 C 892.126 -4.27683 1.33385 0
M  V30 9349 C 893.87 -4.21614 -0.494188 0
M  V30 9350 C 891.777 -5.7787 1.2578 0
M  V30 9351 H 890.707 -0.753993 0.00325648 0
M  V30 9352 H 893.358 -1.69838 0.694792 0
M  V30 9353 H 891.74 -3.88672 -0.758304 0
M  V30 9354 H 892.914 -4.10559 2.09232 0
M  V30 9355 H 891.229 -3.77915 1.7484 0
M  V30 9356 H 893.826 -5.3166 -0.569342 0
M  V30 9357 H 894.169 -3.88176 -1.50417 0
M  V30 9358 H 894.702 -3.97336 0.192138 0
M  V30 9359 H 891.441 -6.15912 2.2435 0
M  V30 9360 H 890.961 -5.97355 0.540997 0
M  V30 9361 H 892.64 -6.39897 0.956109 0
M  V30 9362 N 892.772 -0.284283 -1.55015 0
M  V30 9363 C 893.682 0.60906 -2.26556 0
M  V30 9364 C 894.698 1.16246 -1.29472 0
M  V30 9365 O 895.874 1.1908 -1.62425 0
M  V30 9366 C 892.939 1.77246 -2.97968 0
M  V30 9367 C 892 1.25482 -4.10552 0
M  V30 9368 C 891.233 2.36277 -4.78549 0
M  V30 9369 O 891.456 3.55829 -4.45805 0
M  V30 9370 O 890.39 2.03914 -5.66306 0
M  V30 9371 H 894.216 0.0292298 -3.03686 0
M  V30 9372 H 891.801 -0.0513466 -1.49312 0
M  V30 9373 H 893.683 2.45062 -3.42815 0
M  V30 9374 H 892.358 2.33921 -2.23747 0
M  V30 9375 H 891.265 0.542859 -3.7014 0
M  V30 9376 H 892.598 0.733708 -4.86701 0
M  V30 9377 N 894.251 1.57596 -0.0117121 0
M  V30 9378 C 895.161 2.12596 0.991964 0
M  V30 9379 C 896.177 1.07399 1.36899 0
M  V30 9380 O 897.353 1.39365 1.45394 0
M  V30 9381 C 894.418 2.62796 2.2614 0
M  V30 9382 C 893.479 3.8264 1.94642 0
M  V30 9383 C 892.712 4.30435 3.15533 0
M  V30 9384 O 892.935 3.77495 4.27614 0
M  V30 9385 O 891.869 5.22469 2.98847 0
M  V30 9386 H 895.695 2.98597 0.554371 0
M  V30 9387 H 893.28 1.47947 0.207839 0
M  V30 9388 H 895.162 2.9523 3.00695 0
M  V30 9389 H 893.837 1.79886 2.69114 0
M  V30 9390 H 892.744 3.5516 1.17526 0
M  V30 9391 H 894.077 4.66658 1.56496 0
M  V30 9392 N 895.729 -0.261212 1.5542 0
M  V30 9393 C 896.975 -0.988533 1.77763 0
M  V30 9394 C 897.33 -1.83504 0.578286 0
M  V30 9395 O 896.623 -1.8674 -0.428808 0
M  V30 9396 C 896.817 -1.89395 3.03091 0
M  V30 9397 C 896.646 -1.13658 4.351 0
M  V30 9398 C 895.416 -0.847467 4.98143 0
M  V30 9399 C 897.614 -0.52118 5.11652 0
M  V30 9400 N 895.596 -0.0645324 6.13866 0
M  V30 9401 C 896.967 0.127016 6.1987 0
M  V30 9402 C 899.022 -0.430206 4.96038 0
M  V30 9403 C 897.725 0.857433 7.14171 0
M  V30 9404 C 899.751 0.286645 5.90705 0
M  V30 9405 C 899.113 0.923534 6.9832 0
M  V30 9406 H 895.212 -0.343317 0.702608 0
M  V30 9407 H 897.796 -0.263035 1.92915 0
M  V30 9408 H 895.967 -2.5916 2.89293 0
M  V30 9409 H 897.699 -2.55576 3.13788 0
M  V30 9410 H 894.454 -1.15569 4.59283 0
M  V30 9411 H 894.878 0.31461 6.76269 0
M  V30 9412 H 899.52 -0.908278 4.12929 0
M  V30 9413 H 897.238 1.34715 7.96792 0
M  V30 9414 H 900.824 0.357511 5.80701 0
M  V30 9415 H 899.704 1.46939 7.70311 0
M  V30 9416 N 897.207 -1.48554 -0.526253 0
M  V30 9417 C 898.623 -1.34757 -0.855138 0
M  V30 9418 C 898.823 -0.36142 -1.98232 0
M  V30 9419 O 897.879 0.216026 -2.51574 0
M  V30 9420 C 899.192 -2.74877 -1.21915 0
M  V30 9421 C 900.74 -2.83393 -1.32882 0
M  V30 9422 C 901.215 -4.24223 -1.72624 0
M  V30 9423 N 902.706 -4.26913 -1.7972 0
M  V30 9424 C 903.441 -5.32824 -2.11863 0
M  V30 9425 N 902.937 -6.49008 -2.42405 0
M  V30 9426 N 904.73 -5.20221 -2.12901 0
M  V30 9427 H 896.881 -2.11284 0.217422 0
M  V30 9428 H 899.144 -0.947367 0.0346362 0
M  V30 9429 H 898.85 -3.48619 -0.464486 0
M  V30 9430 H 898.724 -3.0864 -2.16844 0
M  V30 9431 H 901.111 -2.09904 -2.07424 0
M  V30 9432 H 901.192 -2.53245 -0.360638 0
M  V30 9433 H 900.836 -4.98229 -0.986411 0
M  V30 9434 H 900.766 -4.51817 -2.70498 0
M  V30 9435 H 903.257 -3.4311 -1.58379 0
M  V30 9436 H 903.57 -7.25561 -2.66048 0
M  V30 9437 H 901.915 -6.52277 -2.39917 0
M  V30 9438 H 905.106 -4.28469 -1.885 0
M  V30 9439 H 905.279 -6.02861 -2.37619 0
M  V30 9440 N 898.685 0.775411 -1.37205 0
M  V30 9441 C 899.91 1.5696 -1.35567 0
M  V30 9442 C 900.335 1.88012 0.0575554 0
M  V30 9443 O 899.693 1.48954 1.03355 0
M  V30 9444 C 899.741 2.85886 -2.19776 0
M  V30 9445 O 898.845 3.80103 -1.59987 0
M  V30 9446 H 898.186 0.475583 -0.463375 0
M  V30 9447 H 900.716 0.96001 -1.80679 0
M  V30 9448 H 900.726 3.35024 -2.32859 0
M  V30 9449 H 899.401 2.62613 -3.22502 0
M  V30 9450 H 897.978 3.38736 -1.55924 0
M  V30 9451 N 900.163 1.21714 1.00117 0
M  V30 9452 C 901.579 0.97532 1.26332 0
M  V30 9453 C 901.779 -0.336029 1.98678 0
M  V30 9454 O 900.835 -1.06073 2.29139 0
M  V30 9455 C 902.148 2.16848 2.0832 0
M  V30 9456 C 903.696 2.21115 2.21533 0
M  V30 9457 C 904.171 3.3996 3.06906 0
M  V30 9458 N 905.662 3.40071 3.14494 0
M  V30 9459 C 906.397 4.28678 3.80818 0
M  V30 9460 N 905.893 5.2749 4.49139 0
M  V30 9461 N 907.686 4.16476 3.77497 0
M  V30 9462 H 899.837 2.06039 0.515897 0
M  V30 9463 H 902.1 0.902423 0.290408 0
M  V30 9464 H 901.806 3.119 1.62515 0
M  V30 9465 H 901.68 2.16226 3.09073 0
M  V30 9466 H 904.067 1.26616 2.66557 0
M  V30 9467 H 904.148 2.2578 1.20238 0
M  V30 9468 H 903.792 4.34755 2.62585 0
M  V30 9469 H 903.722 3.32534 4.08324 0
M  V30 9470 H 906.213 2.68563 2.65861 0
M  V30 9471 H 906.526 5.91397 4.97463 0
M  V30 9472 H 904.871 5.31412 4.47914 0
M  V30 9473 H 908.062 3.38539 3.23278 0
M  V30 9474 H 908.235 4.85739 4.28908 0
M  V30 9475 N 901.641 -1.19671 1.02551 0
M  V30 9476 C 902.604 -2.20987 0.608055 0
M  V30 9477 C 903.604 -1.5745 -0.326534 0
M  V30 9478 O 904.794 -1.73827 -0.114003 0
M  V30 9479 C 901.926 -3.4072 -0.11074 0
M  V30 9480 H 903.119 -2.59434 1.50446 0
M  V30 9481 H 900.672 -1.3329 0.816307 0
M  V30 9482 H 901.407 -3.07787 -1.02165 0
M  V30 9483 H 901.192 -3.88069 0.560772 0
M  V30 9484 H 902.682 -4.15776 -0.389848 0
M  V30 9485 N 903.119 -0.802921 -1.35613 0
M  V30 9486 C 904.082 -0.216422 -2.28176 0
M  V30 9487 C 905.082 0.594101 -1.49422 0
M  V30 9488 O 906.272 0.41312 -1.6923 0
M  V30 9489 C 903.404 0.698746 -3.33662 0
M  V30 9490 H 904.597 -1.03276 -2.81557 0
M  V30 9491 H 902.15 -0.573307 -1.45406 0
M  V30 9492 H 902.885 1.53891 -2.85461 0
M  V30 9493 H 902.67 0.119314 -3.91918 0
M  V30 9494 H 904.16 1.10354 -4.02755 0
M  V30 9495 N 904.597 1.47463 -0.556102 0
M  V30 9496 C 905.544 2.29998 0.192213 0
M  V30 9497 C 906.514 1.38993 0.909403 0
M  V30 9498 O 907.699 1.67954 0.905316 0
M  V30 9499 C 904.839 3.22932 1.21692 0
M  V30 9500 C 903.952 4.29027 0.505908 0
M  V30 9501 C 903.087 5.09114 1.51581 0
M  V30 9502 C 902.126 6.06984 0.789714 0
M  V30 9503 N 901.263 6.80033 1.74639 0
M  V30 9504 H 906.103 2.93468 -0.517734 0
M  V30 9505 H 903.64 1.44654 -0.267147 0
M  V30 9506 H 905.598 3.75234 1.8236 0
M  V30 9507 H 904.228 2.61329 1.89491 0
M  V30 9508 H 903.28 3.7979 -0.215276 0
M  V30 9509 H 904.592 4.9876 -0.062958 0
M  V30 9510 H 903.746 5.6556 2.19606 0
M  V30 9511 H 902.485 4.3928 2.11859 0
M  V30 9512 H 901.49 5.49717 0.0955382 0
M  V30 9513 H 902.715 6.78827 0.192688 0
M  V30 9514 H 900.661 6.12931 2.33777 0
M  V30 9515 H 900.578 7.45933 1.22965 0
M  V30 9516 H 901.846 7.41054 2.41782 0
M  V30 9517 N 906.075 0.2925 1.54862 0
M  V30 9518 C 907.322 -0.319263 1.99967 0
M  V30 9519 C 907.65 -1.54547 1.18092 0
M  V30 9520 O 906.905 -1.94186 0.242969 0
M  V30 9521 C 907.204 -0.728674 3.49893 0
M  V30 9522 C 906.87 0.394836 4.49168 0
M  V30 9523 C 905.532 0.703289 4.76033 0
M  V30 9524 C 907.884 1.15103 5.08331 0
M  V30 9525 C 905.212 1.77121 5.59325 0
M  V30 9526 C 907.564 2.20881 5.92785 0
M  V30 9527 C 906.228 2.52342 6.17964 0
M  V30 9528 H 905.498 -0.116827 0.731733 0
M  V30 9529 H 908.145 0.40983 1.87063 0
M  V30 9530 H 906.45 -1.53772 3.60363 0
M  V30 9531 H 908.147 -1.21305 3.82212 0
M  V30 9532 H 904.737 0.144319 4.28357 0
M  V30 9533 H 908.921 0.92599 4.87585 0
M  V30 9534 H 904.177 2.01978 5.77074 0
M  V30 9535 H 908.351 2.79939 6.37657 0
M  V30 9536 H 905.978 3.35225 6.82296 0
M  V30 9537 N 907.553 -1.57587 0.0200696 0
M  V30 9538 C 908.463 -2.13119 -0.980676 0
M  V30 9539 C 909.479 -1.08124 -1.36328 0
M  V30 9540 O 910.655 -1.40134 -1.44653 0
M  V30 9541 C 907.72 -2.63991 -2.24743 0
M  V30 9542 C 906.781 -3.83667 -1.9261 0
M  V30 9543 C 906.014 -4.32103 -3.13246 0
M  V30 9544 O 906.237 -3.79758 -4.25606 0
M  V30 9545 O 905.171 -5.24047 -2.96072 0
M  V30 9546 H 908.997 -2.98887 -0.538528 0
M  V30 9547 H 906.582 -1.48055 -0.19999 0
M  V30 9548 H 908.464 -2.9682 -2.99125 0
M  V30 9549 H 907.139 -1.81311 -2.68157 0
M  V30 9550 H 906.046 -3.55778 -1.15641 0
M  V30 9551 H 907.379 -4.67482 -1.54019 0
M  V30 9552 N 909.032 0.252966 -1.55557 0
M  V30 9553 C 909.942 1.33472 -1.92931 0
M  V30 9554 C 910.958 1.52983 -0.828985 0
M  V30 9555 O 912.134 1.66723 -1.12984 0
M  V30 9556 C 909.199 2.6704 -2.21112 0
M  V30 9557 C 908.26 2.56103 -3.44542 0
M  V30 9558 C 907.493 3.83302 -3.71369 0
M  V30 9559 O 907.716 4.84907 -3.00368 0
M  V30 9560 O 906.65 3.823 -4.64898 0
M  V30 9561 H 910.476 1.04768 -2.85057 0
M  V30 9562 H 908.061 0.453208 -1.4236 0
M  V30 9563 H 909.943 3.45981 -2.40572 0
M  V30 9564 H 908.618 2.95489 -1.32166 0
M  V30 9565 H 907.525 1.7547 -3.30396 0
M  V30 9566 H 908.858 2.32601 -4.33772 0
M  V30 9567 N 910.51 1.48831 0.518367 0
M  V30 9568 C 911.443 1.588 1.63884 0
M  V30 9569 C 912.421 0.437847 1.56594 0
M  V30 9570 O 913.605 0.651042 1.769 0
M  V30 9571 C 910.732 1.52681 3.02335 0
M  V30 9572 C 909.778 2.7268 3.27945 0
M  V30 9573 S 910.611 4.34536 3.12951 0
M  V30 9574 C 911.767 4.31034 4.53828 0
M  V30 9575 H 912 2.53587 1.5518 0
M  V30 9576 H 909.533 1.37507 0.702218 0
M  V30 9577 H 911.491 1.49837 3.82177 0
M  V30 9578 H 910.152 0.592107 3.08469 0
M  V30 9579 H 909.345 2.64569 4.28974 0
M  V30 9580 H 908.947 2.72847 2.55794 0
M  V30 9581 H 911.239 4.01683 5.45579 0
M  V30 9582 H 912.182 5.32282 4.66991 0
M  V30 9583 H 912.59 3.61343 4.33695 0
M  V30 9584 N 911.988 -0.768124 1.37614 0
M  V30 9585 C 913.228 -1.53979 1.34424 0
M  V30 9586 C 913.592 -1.91874 -0.0696803 0
M  V30 9587 O 914.793 -2.67845 -0.22633 0
M  V30 9588 C 913.064 -2.76845 2.26034 0
M  V30 9589 S 914.623 -3.66871 2.4073 0
M  V30 9590 H 911.441 -0.527108 0.477157 0
M  V30 9591 H 914.043 -0.902945 1.73399 0
M  V30 9592 H 912.747 -2.47091 3.2768 0
M  V30 9593 H 912.278 -3.45486 1.88157 0
M  V30 9594 H 914.293 -4.6899 1.62057 0
M  V30 9595 N 913.466 -1.22244 -0.994698 0
M  V30 9596 C 914.714 -1.04384 -1.73056 0
M  V30 9597 C 915.035 0.422204 -1.90374 0
M  V30 9598 O 914.305 1.30383 -1.46209 0
M  V30 9599 H 912.885 -0.383263 -0.641185 0
M  V30 9600 H 915.547 -1.53725 -1.1981 0
M  V30 9601 H 914.643 -1.52021 -2.72573 0
M  V30 9602 N 914.944 1.19125 -1.03184 0
M  V30 9603 C 915.874 2.24675 -0.635889 0
M  V30 9604 C 916.855 1.66321 0.356565 0
M  V30 9605 O 918.04 1.92728 0.238625 0
M  V30 9606 C 915.17 3.47298 0.011069 0
M  V30 9607 C 914.124 4.18345 -0.903979 0
M  V30 9608 C 913.45 5.34561 -0.12197 0
M  V30 9609 C 914.75 4.72816 -2.21907 0
M  V30 9610 H 916.444 2.5805 -1.51825 0
M  V30 9611 H 913.99 1.24039 -0.73146 0
M  V30 9612 H 915.943 4.20333 0.299729 0
M  V30 9613 H 914.667 3.13131 0.928245 0
M  V30 9614 H 913.326 3.47196 -1.17688 0
M  V30 9615 H 912.974 4.9664 0.797334 0
M  V30 9616 H 912.674 5.83029 -0.731498 0
M  V30 9617 H 914.198 6.10391 0.159881 0
M  V30 9618 H 915.612 5.3759 -1.99173 0
M  V30 9619 H 914.009 5.31782 -2.78078 0
M  V30 9620 H 915.079 3.9072 -2.87168 0
M  V30 9621 N 916.422 0.810101 1.35185 0
M  V30 9622 C 917.668 0.392698 1.98962 0
M  V30 9623 C 918.001 -1.03835 1.64109 0
M  V30 9624 O 917.276 -1.721 0.9062 0
M  V30 9625 C 917.559 0.580349 3.55393 0
M  V30 9626 C 917.412 2.05658 4.00031 0
M  V30 9627 C 918.731 0.00822618 4.40099 0
M  V30 9628 H 915.85 0.144157 0.722764 0
M  V30 9629 H 918.492 1.02029 1.60281 0
M  V30 9630 H 916.642 0.0461106 3.88473 0
M  V30 9631 H 918.314 2.65348 3.77344 0
M  V30 9632 H 916.557 2.55174 3.50811 0
M  V30 9633 H 917.228 2.13875 5.08883 0
M  V30 9634 H 919.704 0.464517 4.13499 0
M  V30 9635 H 918.58 0.169414 5.48638 0
M  V30 9636 H 918.841 -1.08576 4.2856 0
M  V30 9637 N 917.9 -1.47166 0.563914 0
M  V30 9638 C 918.833 -2.27058 -0.227989 0
M  V30 9639 C 919.811 -1.34468 -0.914179 0
M  V30 9640 O 920.995 -1.63857 -0.931829 0
M  V30 9641 C 918.122 -3.11689 -1.32543 0
M  V30 9642 C 917.168 -4.19906 -0.747084 0
M  V30 9643 S 918.001 -5.33916 0.41153 0
M  V30 9644 C 919.157 -6.22112 -0.687566 0
M  V30 9645 H 919.39 -2.93876 0.449939 0
M  V30 9646 H 916.923 -1.50372 0.350382 0
M  V30 9647 H 918.881 -3.61017 -1.95389 0
M  V30 9648 H 917.542 -2.44221 -1.97522 0
M  V30 9649 H 916.735 -4.78876 -1.57141 0
M  V30 9650 H 916.337 -3.73493 -0.194671 0
M  V30 9651 H 918.629 -6.58867 -1.578 0
M  V30 9652 H 919.572 -7.07971 -0.135058 0
M  V30 9653 H 919.98 -5.55871 -0.983255 0
M  V30 9654 N 919.378 -0.300708 -1.54705 0
M  V30 9655 C 920.626 0.308044 -1.99739 0
M  V30 9656 C 920.947 1.54433 -1.19061 0
M  V30 9657 O 920.217 1.93794 -0.286507 0
M  V30 9658 H 918.797 0.116811 -0.73781 0
M  V30 9659 H 921.459 -0.41197 -1.90496 0
M  V30 9660 H 920.555 0.580287 -3.06658 0
M  V30 9661 N 920.856 1.57574 -0.0284266 0
M  V30 9662 C 921.789 2.05684 0.988401 0
M  V30 9663 C 922.767 0.952468 1.31783 0
M  V30 9664 O 923.951 1.22274 1.43462 0
M  V30 9665 C 921.078 2.47832 2.30862 0
M  V30 9666 C 920.124 3.69282 2.13384 0
M  V30 9667 S 920.957 5.15962 1.43331 0
M  V30 9668 C 922.113 5.61404 2.76723 0
M  V30 9669 H 922.346 2.9161 0.578873 0
M  V30 9670 H 919.879 1.53309 0.183244 0
M  V30 9671 H 921.837 2.7278 3.06759 0
M  V30 9672 H 920.498 1.62253 2.68947 0
M  V30 9673 H 919.691 3.96618 3.10983 0
M  V30 9674 H 919.293 3.44482 1.45629 0
M  V30 9675 H 921.585 5.65601 3.72963 0
M  V30 9676 H 922.528 6.60956 2.54053 0
M  V30 9677 H 922.936 4.89051 2.81939 0
M  V30 9678 N 922.334 -0.244713 1.55689 0
M  V30 9679 C 923.581 -0.972446 1.77622 0
M  V30 9680 C 923.909 -1.85235 0.593137 0
M  V30 9681 O 923.164 -1.91064 -0.423464 0
M  V30 9682 C 923.463 -1.8617 3.05083 0
M  V30 9683 C 923.129 -1.13696 4.3633 0
M  V30 9684 C 921.791 -0.936679 4.71996 0
M  V30 9685 C 924.143 -0.623451 5.17458 0
M  V30 9686 C 921.471 -0.210612 5.86322 0
M  V30 9687 C 923.823 0.0891587 6.32537 0
M  V30 9688 C 922.487 0.300904 6.66821 0
M  V30 9689 H 921.757 -0.355843 0.649967 0
M  V30 9690 H 924.404 -0.242372 1.8996 0
M  V30 9691 H 922.709 -2.6589 2.87767 0
M  V30 9692 H 924.406 -2.4265 3.19253 0
M  V30 9693 H 920.996 -1.30301 4.08313 0
M  V30 9694 H 925.18 -0.765725 4.90357 0
M  V30 9695 H 920.436 -0.0361062 6.11389 0
M  V30 9696 H 924.61 0.494685 6.94641 0
M  V30 9697 H 922.237 0.865466 7.55257 0
M  V30 9698 N 923.813 -1.49104 -0.510467 0
M  V30 9699 C 925.041 -1.61806 -1.28944 0
M  V30 9700 C 925.456 -0.285774 -1.86625 0
M  V30 9701 O 924.813 0.727551 -1.67371 0
M  V30 9702 C 924.864 -2.67966 -2.42645 0
M  V30 9703 O 924.585 -3.96026 -1.87337 0
M  V30 9704 C 926.086 -2.91286 -3.34166 0
M  V30 9705 H 923.306 -0.544999 -0.391429 0
M  V30 9706 H 925.85 -1.95071 -0.613805 0
M  V30 9707 H 924.005 -2.37505 -3.06056 0
M  V30 9708 H 924.419 -4.54427 -2.61909 0
M  V30 9709 H 925.893 -3.69323 -4.1025 0
M  V30 9710 H 926.37 -2.00842 -3.90588 0
M  V30 9711 H 926.976 -3.23127 -2.76531 0
M  V30 9712 N 925.291 0.760815 -1.38019 0
M  V30 9713 C 926.707 1.06289 -1.19058 0
M  V30 9714 C 926.907 2.01471 -0.0342603 0
M  V30 9715 O 925.963 2.44713 0.62224 0
M  V30 9716 C 927.276 1.6499 -2.51394 0
M  V30 9717 C 928.824 1.77196 -2.58013 0
M  V30 9718 C 929.299 2.3931 -3.90506 0
M  V30 9719 N 930.79 2.46749 -3.92007 0
M  V30 9720 C 931.525 2.95687 -4.91281 0
M  V30 9721 N 931.021 3.44715 -6.00952 0
M  V30 9722 N 932.814 2.94661 -4.78677 0
M  V30 9723 H 924.965 0.129045 -2.12008 0
M  V30 9724 H 927.228 0.119878 -0.94039 0
M  V30 9725 H 926.934 1.0252 -3.36426 0
M  V30 9726 H 926.808 2.64146 -2.6927 0
M  V30 9727 H 929.195 2.38796 -1.7338 0
M  V30 9728 H 929.276 0.767645 -2.4401 0
M  V30 9729 H 928.92 1.78346 -4.75558 0
M  V30 9730 H 928.85 3.40369 -4.01817 0
M  V30 9731 H 931.341 2.12064 -3.12789 0
M  V30 9732 H 931.654 3.80492 -6.72641 0
M  V30 9733 H 929.999 3.42791 -6.04582 0
M  V30 9734 H 933.19 2.55665 -3.92113 0
M  V30 9735 H 933.363 3.32489 -5.56197 0
M  V30 9736 N 926.769 1.22769 0.988202 0
M  V30 9737 C 927.699 1.02627 2.09738 0
M  V30 9738 C 928.68 -0.0543211 1.70013 0
M  V30 9739 O 929.865 0.108811 1.93895 0
M  V30 9740 C 926.995 0.608302 3.41931 0
M  V30 9741 C 925.949 1.63536 3.95525 0
M  V30 9742 C 925.275 1.07308 5.23822 0
M  V30 9743 C 926.575 3.02649 4.25677 0
M  V30 9744 H 928.269 1.954 2.26847 0
M  V30 9745 H 925.815 0.940888 1.09011 0
M  V30 9746 H 927.768 0.454478 4.18942 0
M  V30 9747 H 926.492 -0.355095 3.24664 0
M  V30 9748 H 925.151 1.77704 3.20651 0
M  V30 9749 H 924.799 0.100894 5.02899 0
M  V30 9750 H 924.499 1.75925 5.60646 0
M  V30 9751 H 926.023 0.930938 6.03462 0
M  V30 9752 H 927.437 2.91828 4.93467 0
M  V30 9753 H 925.834 3.68434 4.73684 0
M  V30 9754 H 926.904 3.52228 3.33262 0
M  V30 9755 N 928.247 -1.18576 1.03814 0
M  V30 9756 C 929.472 -1.92978 0.759873 0
M  V30 9757 C 929.897 -1.75514 -0.676486 0
M  V30 9758 O 929.255 -1.06359 -1.46824 0
M  V30 9759 C 929.303 -3.42507 1.12788 0
M  V30 9760 O 928.407 -4.1163 0.251886 0
M  V30 9761 H 927.748 -0.602129 0.279886 0
M  V30 9762 H 930.278 -1.50383 1.3873 0
M  V30 9763 H 930.288 -3.93206 1.08872 0
M  V30 9764 H 928.963 -3.5454 2.17427 0
M  V30 9765 H 927.54 -3.7125 0.350441 0
M  V30 9766 N 929.725 -0.817259 -1.34754 0
M  V30 9767 C 930.673 -0.223352 -2.31525 0
M  V30 9768 C 931.667 0.632785 -1.57137 0
M  V30 9769 O 932.873 0.524757 -1.72181 0
M  V30 9770 H 929.248 -0.0534765 -0.750096 0
M  V30 9771 H 931.219 -1.05446 -2.79148 0
M  V30 9772 C 929.968 0.604784 -3.424 0
M  V30 9773 H 929.291 -0.0446664 -3.99775 0
M  V30 9774 H 930.731 0.986543 -4.12363 0
M  V30 9775 C 929.19 1.77478 -2.86362 0
M  V30 9776 O 929.72 2.87273 -2.8078 0
M  V30 9777 N 927.926 1.58971 -2.43263 0
M  V30 9778 H 927.473 0.696598 -2.48003 0
M  V30 9779 H 927.431 2.37408 -2.06119 0
M  V30 9780 N 931.203 1.46865 -0.571711 0
M  V30 9781 C 932.443 2.04324 -0.0556487 0
M  V30 9782 C 932.807 1.43486 1.27576 0
M  V30 9783 O 934.008 1.92079 1.8804 0
M  V30 9784 C 932.279 3.57394 0.0206263 0
M  V30 9785 S 933.838 4.36159 0.480709 0
M  V30 9786 H 930.656 0.710273 -0.0321467 0
M  V30 9787 H 933.258 1.8005 -0.761725 0
M  V30 9788 H 931.962 3.99193 -0.952509 0
M  V30 9789 H 931.493 3.86188 0.749812 0
M  V30 9790 H 933.508 4.6478 1.73763 0
M  V30 9791 N 932.681 0.308908 1.54543 0
M  V30 9792 C 933.644 -0.550857 2.22482 0
M  V30 9793 C 934.644 -1.0551 1.21344 0
M  V30 9794 O 935.834 -0.949866 1.46025 0
M  V30 9795 C 932.966 -1.76354 2.9174 0
M  V30 9796 H 934.159 0.0428395 2.99869 0
M  V30 9797 H 931.712 0.059825 1.56185 0
M  V30 9798 H 932.447 -2.39686 2.18451 0
M  V30 9799 H 932.232 -1.40954 3.65889 0
M  V30 9800 H 933.722 -2.37417 3.43545 0
M  V30 9801 N 934.159 -1.57557 0.0367827 0
M  V30 9802 C 935.107 -2.11844 -0.960454 0
M  V30 9803 C 936.101 -1.04681 -1.33185 0
M  V30 9804 O 937.307 -1.23108 -1.31318 0
M  V30 9805 H 933.682 -0.676921 -0.32754 0
M  V30 9806 H 935.653 -2.94557 -0.477346 0
M  V30 9807 C 934.402 -2.66683 -2.23105 0
M  V30 9808 H 933.725 -3.48795 -1.95403 0
M  V30 9809 H 935.165 -3.08305 -2.91074 0
M  V30 9810 C 933.624 -1.59782 -2.96599 0
M  V30 9811 O 934.154 -1.00214 -3.88999 0
M  V30 9812 N 932.36 -1.31644 -2.59072 0
M  V30 9813 H 931.907 -1.80272 -1.8401 0
M  V30 9814 H 931.865 -0.603457 -3.08554 0
M  V30 9815 N 935.637 0.236453 -1.55816 0
M  V30 9816 C 937.053 0.585465 -1.48474 0
M  V30 9817 C 937.253 1.8785 -0.72902 0
M  V30 9818 O 936.309 2.51131 -0.262614 0
M  V30 9819 C 937.622 0.678506 -2.92945 0
M  V30 9820 C 939.17 0.770135 -3.03378 0
M  V30 9821 C 939.645 0.894649 -4.49177 0
M  V30 9822 N 941.136 0.959253 -4.53158 0
M  V30 9823 C 941.871 1.07505 -5.63232 0
M  V30 9824 N 941.367 1.15572 -6.83092 0
M  V30 9825 N 943.16 1.10902 -5.51051 0
M  V30 9826 H 935.311 -0.612241 -2.03385 0
M  V30 9827 H 937.574 -0.212796 -0.923808 0
M  V30 9828 H 937.28 -0.201757 -3.51121 0
M  V30 9829 H 937.154 1.54703 -3.44016 0
M  V30 9830 H 939.541 1.64085 -2.45276 0
M  V30 9831 H 939.622 -0.123753 -2.555 0
M  V30 9832 H 939.266 0.0284537 -5.07892 0
M  V30 9833 H 939.196 1.80373 -4.94745 0
M  V30 9834 H 941.687 0.907827 -3.66834 0
M  V30 9835 H 942 1.24343 -7.62731 0
M  V30 9836 H 940.345 1.12511 -6.85833 0
M  V30 9837 H 943.536 1.04255 -4.56343 0
M  V30 9838 H 943.709 1.19581 -6.36871 0
M  V30 9839 N 937.115 1.49373 0.502552 0
M  V30 9840 C 938.343 1.62488 1.28084 0
M  V30 9841 C 938.758 0.295667 1.86471 0
M  V30 9842 O 938.115 -0.718664 1.67754 0
M  V30 9843 C 938.166 2.69249 2.4122 0
M  V30 9844 O 937.887 3.97014 1.85234 0
M  V30 9845 C 939.388 2.93054 3.32617 0
M  V30 9846 H 936.608 0.547068 0.388533 0
M  V30 9847 H 939.152 1.95394 0.603452 0
M  V30 9848 H 937.307 2.39125 3.04792 0
M  V30 9849 H 937.721 4.55809 2.59496 0
M  V30 9850 H 939.195 3.71493 4.08285 0
M  V30 9851 H 939.672 2.02911 3.89517 0
M  V30 9852 H 940.278 3.24589 2.74813 0
M  V30 9853 N 938.594 -0.753485 1.38421 0
M  V30 9854 C 939.843 -1.50797 1.33952 0
M  V30 9855 C 940.156 -1.95482 -0.0678464 0
M  V30 9856 O 941.362 -2.7048 -0.235078 0
M  V30 9857 C 939.818 -2.72393 2.35224 0
M  V30 9858 C 939.426 -2.34733 3.81582 0
M  V30 9859 C 941.17 -3.50281 2.39798 0
M  V30 9860 C 939.077 -3.52939 4.7454 0
M  V30 9861 H 938.007 -0.566211 0.497916 0
M  V30 9862 H 940.658 -0.823659 1.63976 0
M  V30 9863 H 939.04 -3.42806 1.98243 0
M  V30 9864 H 940.214 -1.71985 4.27502 0
M  V30 9865 H 938.529 -1.69978 3.80127 0
M  V30 9866 H 941.126 -4.38172 3.06447 0
M  V30 9867 H 941.469 -3.91444 1.41695 0
M  V30 9868 H 942.002 -2.86881 2.75579 0
M  V30 9869 H 938.741 -3.16843 5.73839 0
M  V30 9870 H 938.261 -4.1473 4.33312 0
M  V30 9871 H 939.94 -4.19519 4.92557 0
M  V30 9872 N 940.072 -1.23292 -0.981677 0
M  V30 9873 C 941.002 -1.03738 -2.09191 0
M  V30 9874 C 941.983 0.0453041 -1.7004 0
M  V30 9875 O 943.168 -0.119092 -1.93834 0
M  V30 9876 C 940.298 -0.626426 -3.41604 0
M  V30 9877 C 939.252 -1.65631 -3.94652 0
M  V30 9878 C 938.578 -1.10084 -5.23245 0
M  V30 9879 C 939.878 -3.04903 -4.24066 0
M  V30 9880 H 941.572 -1.966 -2.25807 0
M  V30 9881 H 939.118 -0.946656 -1.0851 0
M  V30 9882 H 941.071 -0.476689 -4.18695 0
M  V30 9883 H 939.795 0.337873 -3.24848 0
M  V30 9884 H 938.454 -1.79402 -3.19704 0
M  V30 9885 H 938.102 -0.127562 -5.02838 0
M  V30 9886 H 937.802 -1.78896 -5.59705 0
M  V30 9887 H 939.326 -0.962928 -6.02959 0
M  V30 9888 H 940.74 -2.94441 -4.91912 0
M  V30 9889 H 939.137 -3.70941 -4.71724 0
M  V30 9890 H 940.207 -3.53991 -3.31389 0
M  V30 9891 N 941.55 1.18024 -1.04442 0
M  V30 9892 C 942.78 1.91753 -0.769044 0
M  V30 9893 C 943.188 1.76629 0.678141 0
M  V30 9894 O 942.531 1.09589 1.47431 0
M  V30 9895 C 942.593 3.43505 -1.0604 0
M  V30 9896 C 942.257 3.82409 -2.50225 0
M  V30 9897 C 943.254 3.8588 -3.48414 0
M  V30 9898 C 940.939 4.13594 -2.85036 0
M  V30 9899 C 942.933 4.19993 -4.79463 0
M  V30 9900 C 940.62 4.47377 -4.1629 0
M  V30 9901 C 941.618 4.50553 -5.13314 0
M  V30 9902 O 941.306 4.83546 -6.42214 0
M  V30 9903 H 941.038 0.615466 -0.279603 0
M  V30 9904 H 943.592 1.5065 -1.3962 0
M  V30 9905 H 941.822 3.84866 -0.376125 0
M  V30 9906 H 943.511 3.98486 -0.772235 0
M  V30 9907 H 944.277 3.6192 -3.2286 0
M  V30 9908 H 940.156 4.10297 -2.10185 0
M  V30 9909 H 943.7 4.22387 -5.55189 0
M  V30 9910 H 939.597 4.70798 -4.4161 0
M  V30 9911 H 940.365 5.01433 -6.46921 0
M  V30 9912 N 943.028 0.824394 1.34319 0
M  V30 9913 C 944.305 0.335692 1.92698 0
M  V30 9914 C 944.685 -1.17715 1.75232 0
M  V30 9915 O 944.033 -1.98493 1.13194 0
M  V30 9916 C 944.243 0.766647 3.40475 0
M  V30 9917 C 945.591 0.766323 4.17627 0
M  V30 9918 O 946.615 0.709321 3.49066 0
M  V30 9919 O 945.474 0.840856 5.39992 0
M  V30 9920 H 942.568 0.0919996 0.821867 0
M  V30 9921 H 945.114 0.909282 1.43283 0
M  V30 9922 H 943.886 1.80859 3.46995 0
M  V30 9923 H 943.509 0.168833 3.97241 0
M  V30 9924 N 944.506 -1.46559 0.579492 0
M  V30 9925 C 945.439 -2.27287 -0.203894 0
M  V30 9926 C 946.417 -1.3543 -0.899865 0
M  V30 9927 O 947.601 -1.64836 -0.914398 0
M  V30 9928 C 944.728 -3.13077 -1.2923 0
M  V30 9929 C 943.774 -4.20675 -0.702505 0
M  V30 9930 S 944.607 -5.3345 0.468136 0
M  V30 9931 C 945.763 -6.22806 -0.621544 0
M  V30 9932 H 945.996 -2.93382 0.481083 0
M  V30 9933 H 943.529 -1.49992 0.366311 0
M  V30 9934 H 945.487 -3.63069 -1.91548 0
M  V30 9935 H 944.148 -2.46302 -1.94921 0
M  V30 9936 H 943.341 -4.80516 -1.52053 0
M  V30 9937 H 942.943 -3.73678 -0.155046 0
M  V30 9938 H 945.235 -6.60503 -1.50803 0
M  V30 9939 H 946.178 -7.08075 -0.059961 0
M  V30 9940 H 946.586 -5.56882 -0.924242 0
M  V30 9941 N 945.984 -0.3171 -1.54377 0
M  V30 9942 C 947.214 0.289138 -2.04567 0
M  V30 9943 C 947.622 1.46833 -1.19318 0
M  V30 9944 O 946.965 1.82436 -0.215141 0
M  V30 9945 C 947.027 0.792994 -3.50645 0
M  V30 9946 C 946.691 -0.263033 -4.56242 0
M  V30 9947 C 947.688 -1.09694 -5.08196 0
M  V30 9948 C 945.373 -0.409364 -5.00629 0
M  V30 9949 C 947.367 -2.06297 -6.03092 0
M  V30 9950 C 945.054 -1.37882 -5.95342 0
M  V30 9951 C 946.052 -2.20409 -6.46459 0
M  V30 9952 O 945.74 -3.15708 -7.39313 0
M  V30 9953 H 945.472 0.0644005 -0.672925 0
M  V30 9954 H 948.026 -0.459438 -2.00196 0
M  V30 9955 H 946.256 1.59237 -3.52392 0
M  V30 9956 H 947.945 1.31687 -3.83944 0
M  V30 9957 H 948.711 -0.994842 -4.74687 0
M  V30 9958 H 944.59 0.223091 -4.6046 0
M  V30 9959 H 948.134 -2.70751 -6.42915 0
M  V30 9960 H 944.031 -1.48158 -6.28267 0
M  V30 9961 H 944.799 -3.10873 -7.57166 0
M  V30 9962 N 947.462 1.57535 -0.0451378 0
M  V30 9963 C 948.687 1.97172 0.64326 0
M  V30 9964 C 949.112 0.922266 1.63939 0
M  V30 9965 O 948.47 -0.115155 1.80934 0
M  V30 9966 C 948.518 3.35889 1.3119 0
M  V30 9967 O 947.622 3.33387 2.42748 0
M  V30 9968 H 946.963 0.642469 0.167719 0
M  V30 9969 H 949.493 2.04295 -0.111747 0
M  V30 9970 H 949.503 3.72481 1.66499 0
M  V30 9971 H 948.178 4.1181 0.581823 0
M  V30 9972 H 946.755 3.08533 2.09432 0
M  V30 9973 N 948.94 -0.228186 1.55939 0
M  V30 9974 C 950.17 -0.969211 1.82455 0
M  V30 9975 C 950.578 -1.78714 0.621133 0
M  V30 9976 O 949.921 -1.78841 -0.419694 0
M  V30 9977 C 949.983 -1.94088 3.02605 0
M  V30 9978 C 949.647 -1.30811 4.37878 0
M  V30 9979 C 950.644 -0.701275 5.15149 0
M  V30 9980 C 948.329 -1.32187 4.84595 0
M  V30 9981 C 950.323 -0.116631 6.37293 0
M  V30 9982 C 948.01 -0.733375 6.06683 0
M  V30 9983 C 949.008 -0.131804 6.82873 0
M  V30 9984 O 948.696 0.447549 8.02653 0
M  V30 9985 H 948.428 -0.289951 0.610659 0
M  V30 9986 H 950.982 -0.250576 2.03866 0
M  V30 9987 H 949.212 -2.69833 2.76996 0
M  V30 9988 H 950.901 -2.5469 3.1605 0
M  V30 9989 H 951.667 -0.683022 4.80166 0
M  V30 9990 H 947.546 -1.77949 4.25271 0
M  V30 9991 H 951.09 0.353539 6.96704 0
M  V30 9992 H 946.987 -0.749019 6.4114 0
M  V30 9993 H 947.755 0.341224 8.17788 0
M  V30 9994 N 950.418 -1.49637 -0.494624 0
M  V30 9995 C 951.664 -1.59681 -1.25019 0
M  V30 9996 C 951.997 -0.285511 -1.9209 0
M  V30 9997 O 951.272 0.711398 -1.81023 0
M  V30 9998 C 951.555 -2.76058 -2.31222 0
M  V30 9999 C 951.408 -4.17002 -1.68611 0
M  V30 10000 C 952.727 -2.88056 -3.32734 0
M  V30 10001 H 949.846 -0.581209 -0.453172 0
M  V30 10002 H 952.488 -1.81944 -0.547391 0
M  V30 10003 H 950.638 -2.57207 -2.91164 0
M  V30 10004 H 952.31 -4.47385 -1.12447 0
M  V30 10005 H 950.553 -4.22352 -0.989991 0
M  V30 10006 H 951.224 -4.94316 -2.45674 0
M  V30 10007 H 953.7 -3.05237 -2.82789 0
M  V30 10008 H 952.576 -3.71151 -4.04399 0
M  V30 10009 H 952.837 -1.97676 -3.95445 0
M  V30 10010 N 951.896 0.746133 -1.38819 0
M  V30 10011 C 953.142 1.50669 -1.3664 0
M  V30 10012 C 953.497 1.92356 0.0411513 0
M  V30 10013 O 952.79 1.63104 1.00537 0
M  V30 10014 C 952.984 2.76639 -2.26286 0
M  V30 10015 C 952.813 2.47268 -3.75618 0
M  V30 10016 C 951.583 2.40116 -4.44603 0
M  V30 10017 C 953.781 2.13548 -4.67869 0
M  V30 10018 N 951.763 2.03098 -5.79331 0
M  V30 10019 C 953.134 1.86883 -5.91164 0
M  V30 10020 C 955.189 1.99922 -4.56 0
M  V30 10021 C 953.892 1.47965 -7.03917 0
M  V30 10022 C 955.918 1.62406 -5.68664 0
M  V30 10023 C 955.28 1.36618 -6.91025 0
M  V30 10024 H 951.379 0.550624 -0.555282 0
M  V30 10025 H 953.963 0.868179 -1.74272 0
M  V30 10026 H 952.134 3.38287 -1.9083 0
M  V30 10027 H 953.866 3.42753 -2.1518 0
M  V30 10028 H 950.621 2.56839 -3.97908 0
M  V30 10029 H 951.045 1.87214 -6.506 0
M  V30 10030 H 955.687 2.18531 -3.61945 0
M  V30 10031 H 953.405 1.28096 -7.97883 0
M  V30 10032 H 956.991 1.52483 -5.61462 0
M  V30 10033 H 955.871 1.08021 -7.76725 0
M  V30 10034 N 953.375 1.23811 0.975125 0
M  V30 10035 C 954.652 0.9815 1.69192 0
M  V30 10036 C 955.032 -0.498373 2.05133 0
M  V30 10037 O 954.38 -1.47087 1.74864 0
M  V30 10038 C 954.59 1.89701 2.92941 0
M  V30 10039 C 955.938 2.16357 3.65342 0
M  V30 10040 O 956.962 1.87293 3.02985 0
M  V30 10041 O 955.821 2.65675 4.77576 0
M  V30 10042 H 952.915 0.370599 0.739314 0
M  V30 10043 H 955.461 1.34876 1.02988 0
M  V30 10044 H 954.233 2.89719 2.63018 0
M  V30 10045 H 953.856 1.53244 3.66881 0
M  V30 10046 N 954.853 -1.17469 1.05066 0
M  V30 10047 C 956.102 -1.87032 0.755114 0
M  V30 10048 C 956.415 -1.81844 -0.720572 0
M  V30 10049 O 957.621 -2.46866 -1.13002 0
M  V30 10050 C 956.077 -3.35581 1.30052 0
M  V30 10051 C 955.685 -3.49274 2.80556 0
M  V30 10052 C 957.429 -4.1048 1.08196 0
M  V30 10053 C 955.336 -4.91838 3.28404 0
M  V30 10054 H 954.266 -0.70057 0.278779 0
M  V30 10055 H 956.917 -1.32663 1.26779 0
M  V30 10056 H 955.299 -3.89479 0.715667 0
M  V30 10057 H 956.473 -3.05598 3.44886 0
M  V30 10058 H 954.788 -2.87793 3.00939 0
M  V30 10059 H 957.385 -5.15652 1.41447 0
M  V30 10060 H 957.728 -4.16295 0.0196603 0
M  V30 10061 H 958.261 -3.62784 1.63195 0
M  V30 10062 H 955 -4.91196 4.34058 0
M  V30 10063 H 954.52 -5.36189 2.68815 0
M  V30 10064 H 956.199 -5.60602 3.23009 0
M  V30 10065 N 956.331 -0.831506 -1.3388 0
M  V30 10066 C 957.278 -0.257449 -2.2936 0
M  V30 10067 C 958.248 0.622604 -1.5399 0
M  V30 10068 O 959.433 0.562432 -1.82322 0
M  V30 10069 C 956.573 0.567587 -3.404 0
M  V30 10070 C 955.686 -0.335666 -4.30694 0
M  V30 10071 C 954.821 0.499762 -5.28844 0
M  V30 10072 C 953.86 -0.402343 -6.10776 0
M  V30 10073 N 952.997 0.39452 -7.00991 0
M  V30 10074 H 957.837 -1.077 -2.77857 0
M  V30 10075 H 955.374 -0.542589 -1.36727 0
M  V30 10076 H 957.332 1.06133 -4.03474 0
M  V30 10077 H 955.962 1.35217 -2.93115 0
M  V30 10078 H 955.014 -0.94768 -3.68406 0
M  V30 10079 H 956.326 -1.02896 -4.88072 0
M  V30 10080 H 955.48 1.05763 -5.9741 0
M  V30 10081 H 954.219 1.22652 -4.72025 0
M  V30 10082 H 953.224 -0.972288 -5.41135 0
M  V30 10083 H 954.449 -1.12735 -6.69677 0
M  V30 10084 H 952.395 1.1048 -6.4663 0
M  V30 10085 H 952.312 -0.240209 -7.55618 0
M  V30 10086 H 953.58 0.934867 -7.73874 0
M  V30 10087 N 957.809 1.4625 -0.587256 0
M  V30 10088 C 959.034 2.07252 -0.0784517 0
M  V30 10089 C 959.459 1.43239 1.21919 0
M  V30 10090 O 958.817 0.517791 1.73749 0
M  V30 10091 C 958.865 3.60534 0.0691037 0
M  V30 10092 O 957.969 3.96773 1.12448 0
M  V30 10093 H 957.31 0.660825 -0.064859 0
M  V30 10094 H 959.84 1.87819 -0.811491 0
M  V30 10095 H 959.85 4.0708 0.273826 0
M  V30 10096 H 958.525 4.06516 -0.878514 0
M  V30 10097 H 957.102 3.6193 0.897852 0
M  V30 10098 N 959.287 0.325282 1.54207 0
M  V30 10099 C 960.536 -0.27768 1.99779 0
M  V30 10100 C 960.849 -1.5311 1.21723 0
M  V30 10101 O 962.055 -2.21017 1.57682 0
M  V30 10102 C 960.511 -0.545329 3.55745 0
M  V30 10103 C 960.119 0.691143 4.42637 0
M  V30 10104 C 961.863 -1.10815 4.09781 0
M  V30 10105 C 959.77 0.395302 5.90077 0
M  V30 10106 H 958.7 -0.107536 0.746292 0
M  V30 10107 H 961.351 0.437773 1.78202 0
M  V30 10108 H 959.733 -1.32101 3.73317 0
M  V30 10109 H 960.907 1.46653 4.3684 0
M  V30 10110 H 959.222 1.1743 3.99499 0
M  V30 10111 H 961.819 -1.34414 5.1753 0
M  V30 10112 H 962.162 -2.05806 3.6187 0
M  V30 10113 H 962.695 -0.393608 3.95848 0
M  V30 10114 H 959.434 1.31443 6.42186 0
M  V30 10115 H 958.954 -0.34235 5.98822 0
M  V30 10116 H 960.633 0.00576877 6.47 0
M  V30 10117 N 960.765 -1.57509 0.0534917 0
M  V30 10118 C 961.698 -2.0723 -0.955554 0
M  V30 10119 C 962.676 -0.973313 -1.30251 0
M  V30 10120 O 963.86 -1.24541 -1.41498 0
M  V30 10121 C 960.987 -2.51473 -2.2689 0
M  V30 10122 C 960.033 -3.7263 -2.07482 0
M  V30 10123 S 960.866 -5.18177 -1.35104 0
M  V30 10124 C 962.022 -5.65736 -2.67757 0
M  V30 10125 H 962.255 -2.92494 -0.532407 0
M  V30 10126 H 959.788 -1.53581 -0.158831 0
M  V30 10127 H 961.746 -2.77626 -3.02381 0
M  V30 10128 H 960.407 -1.66511 -2.66332 0
M  V30 10129 H 959.6 -4.01515 -3.04633 0
M  V30 10130 H 959.202 -3.46756 -1.4013 0
M  V30 10131 H 961.494 -5.71463 -3.63918 0
M  V30 10132 H 962.437 -6.64914 -2.43506 0
M  V30 10133 H 962.845 -4.93475 -2.74123 0
M  V30 10134 N 962.243 0.219913 -1.56058 0
M  V30 10135 C 963.468 0.965073 -1.83579 0
M  V30 10136 C 963.893 1.77092 -0.634024 0
M  V30 10137 O 963.251 1.76434 0.417205 0
M  V30 10138 C 963.299 1.85705 -3.09105 0
M  V30 10139 O 962.403 2.95261 -2.87914 0
M  V30 10140 H 961.744 0.273173 -0.605204 0
M  V30 10141 H 964.274 0.23273 -2.03272 0
M  V30 10142 H 964.284 2.26655 -3.39252 0
M  V30 10143 H 962.959 1.26476 -3.96203 0
M  V30 10144 H 961.536 2.58246 -2.69005 0
M  V30 10145 N 963.721 1.49897 0.486681 0
M  V30 10146 C 964.654 1.6224 1.60479 0
M  V30 10147 C 965.632 0.470964 1.5563 0
M  V30 10148 O 966.816 0.688418 1.75479 0
M  V30 10149 C 963.943 1.59059 2.99028 0
M  V30 10150 C 962.989 2.79575 3.22087 0
M  V30 10151 S 963.822 4.41077 3.03664 0
M  V30 10152 C 964.978 4.40564 4.44583 0
M  V30 10153 H 965.211 2.56822 1.49766 0
M  V30 10154 H 962.744 1.38966 0.672893 0
M  V30 10155 H 964.702 1.5791 3.78913 0
M  V30 10156 H 963.363 0.657405 3.07143 0
M  V30 10157 H 962.556 2.73609 4.23266 0
M  V30 10158 H 962.158 2.78211 2.49949 0
M  V30 10159 H 964.45 4.13166 5.36936 0
M  V30 10160 H 965.393 5.42068 4.55596 0
M  V30 10161 H 965.801 3.70461 4.25933 0
M  V30 10162 N 965.199 -0.738761 1.39212 0
M  V30 10163 C 966.445 -1.50046 1.36433 0
M  V30 10164 C 966.778 -1.94157 -0.0409474 0
M  V30 10165 O 966.053 -1.66515 -1.00514 0
M  V30 10166 C 966.336 -2.74277 2.33333 0
M  V30 10167 C 966.189 -2.36209 3.82786 0
M  V30 10168 C 967.508 -3.76361 2.28123 0
M  V30 10169 H 964.627 -0.544294 0.496903 0
M  V30 10170 H 967.269 -0.845005 1.70175 0
M  V30 10171 H 965.419 -3.30204 2.04689 0
M  V30 10172 H 967.091 -1.85942 4.22165 0
M  V30 10173 H 965.334 -1.68483 3.99745 0
M  V30 10174 H 966.005 -3.25156 4.46069 0
M  V30 10175 H 968.481 -3.30009 2.53443 0
M  V30 10176 H 967.357 -4.60957 2.9801 0
M  V30 10177 H 967.618 -4.23013 1.28499 0
M  V30 10178 N 966.677 -1.24326 -0.968545 0
M  V30 10179 C 967.624 -1.0349 -2.06297 0
M  V30 10180 C 968.594 0.0515333 -1.6602 0
M  V30 10181 O 969.779 -0.102924 -1.90522 0
M  V30 10182 C 966.919 -0.64487 -3.39021 0
M  V30 10183 C 966.032 -1.80469 -3.92498 0
M  V30 10184 C 965.167 -1.36032 -5.13487 0
M  V30 10185 C 964.206 -2.49014 -5.59159 0
M  V30 10186 N 963.343 -2.05451 -6.71367 0
M  V30 10187 H 968.183 -1.97161 -2.23454 0
M  V30 10188 H 965.72 -0.982028 -1.0952 0
M  V30 10189 H 967.678 -0.399771 -4.1528 0
M  V30 10190 H 966.308 0.254845 -3.21792 0
M  V30 10191 H 965.36 -2.16348 -3.12886 0
M  V30 10192 H 966.672 -2.65365 -4.22354 0
M  V30 10193 H 965.826 -1.07405 -5.97117 0
M  V30 10194 H 964.565 -0.481887 -4.85313 0
M  V30 10195 H 963.57 -2.78402 -4.74102 0
M  V30 10196 H 964.795 -3.37413 -5.89346 0
M  V30 10197 H 962.741 -1.20004 -6.4493 0
M  V30 10198 H 962.658 -2.83901 -7.00668 0
M  V30 10199 H 963.926 -1.79962 -7.58442 0
M  V30 10200 N 968.156 1.1691 -1.05688 0
M  V30 10201 C 969.381 1.91745 -0.790478 0
M  V30 10202 C 969.806 1.76568 0.648478 0
M  V30 10203 O 969.164 1.08682 1.45114 0
M  V30 10204 C 969.212 3.4067 -1.18222 0
M  V30 10205 O 968.316 4.11177 -0.317341 0
M  V30 10206 H 967.657 0.5976 -0.28943 0
M  V30 10207 H 970.187 1.48157 -1.41105 0
M  V30 10208 H 970.197 3.91424 -1.15114 0
M  V30 10209 H 968.872 3.51036 -2.2304 0
M  V30 10210 H 967.449 3.70645 -0.409459 0
M  V30 10211 N 969.634 0.838594 1.33437 0
M  V30 10212 C 970.881 0.434169 1.97791 0
M  V30 10213 C 971.209 -1.00652 1.66431 0
M  V30 10214 O 970.464 -1.71848 0.936309 0
M  V30 10215 C 970.763 0.601425 3.52303 0
M  V30 10216 C 970.429 2.01017 4.03612 0
M  V30 10217 C 969.091 2.39551 4.17336 0
M  V30 10218 C 971.443 2.93035 4.31022 0
M  V30 10219 C 968.771 3.69406 4.55802 0
M  V30 10220 C 971.123 4.22372 4.7094 0
M  V30 10221 C 969.787 4.60862 4.82869 0
M  V30 10222 H 969.057 0.158874 0.723768 0
M  V30 10223 H 971.704 1.06556 1.59116 0
M  V30 10224 H 970.009 -0.113284 3.91636 0
M  V30 10225 H 971.706 0.268798 4.00098 0
M  V30 10226 H 968.296 1.7009 3.93405 0
M  V30 10227 H 972.48 2.64503 4.19943 0
M  V30 10228 H 967.736 3.99033 4.63231 0
M  V30 10229 H 971.91 4.93749 4.91106 0
M  V30 10230 H 969.537 5.6153 5.12433 0
M  V30 10231 N 971.112 -1.45937 0.595003 0
M  V30 10232 C 972.358 -2.0262 0.0854317 0
M  V30 10233 C 972.691 -1.46402 -1.27594 0
M  V30 10234 O 971.966 -0.633823 -1.83883 0
M  V30 10235 C 972.249 -3.60085 0.0329075 0
M  V30 10236 C 972.102 -4.26663 1.42405 0
M  V30 10237 C 973.421 -4.35101 -0.661426 0
M  V30 10238 H 970.54 -0.736282 0.0325196 0
M  V30 10239 H 973.182 -1.73938 0.764563 0
M  V30 10240 H 971.332 -3.84652 -0.545439 0
M  V30 10241 H 973.004 -4.13321 2.04851 0
M  V30 10242 H 971.247 -3.85549 1.98833 0
M  V30 10243 H 971.918 -5.35497 1.33965 0
M  V30 10244 H 974.394 -4.15753 -0.169977 0
M  V30 10245 H 973.27 -5.44829 -0.667243 0
M  V30 10246 H 973.531 -4.07053 -1.72513 0
M  V30 10247 N 972.59 -0.333456 -1.54032 0
M  V30 10248 C 973.522 0.562174 -2.22199 0
M  V30 10249 C 974.535 1.07202 -1.22522 0
M  V30 10250 O 975.724 0.983897 -1.48935 0
M  V30 10251 C 972.824 1.78525 -2.88066 0
M  V30 10252 C 971.997 1.41242 -4.13968 0
M  V30 10253 C 971.056 2.49408 -4.63338 0
M  V30 10254 O 970.082 2.13138 -5.27789 0
M  V30 10255 N 971.284 3.805 -4.38406 0
M  V30 10256 H 974.049 -0.0215629 -2.99692 0
M  V30 10257 H 971.61 -0.157111 -1.61136 0
M  V30 10258 H 973.602 2.50298 -3.18014 0
M  V30 10259 H 972.172 2.2766 -2.14219 0
M  V30 10260 H 971.392 0.525887 -3.90676 0
M  V30 10261 H 972.68 1.13916 -4.95884 0
M  V30 10262 H 972.078 4.12761 -3.86839 0
M  V30 10263 H 970.635 4.48474 -4.72984 0
M  V30 10264 N 974.068 1.57479 -0.061844 0
M  V30 10265 C 975.314 1.9421 0.604485 0
M  V30 10266 C 975.669 0.941011 1.67818 0
M  V30 10267 O 974.962 -0.0382264 1.91562 0
M  V30 10268 C 975.156 3.35394 1.23474 0
M  V30 10269 C 974.985 4.49144 0.223628 0
M  V30 10270 C 973.755 5.04949 -0.188187 0
M  V30 10271 C 975.953 5.11508 -0.535193 0
M  V30 10272 N 973.935 6.02235 -1.19105 0
M  V30 10273 C 975.306 6.04199 -1.39082 0
M  V30 10274 C 977.361 4.94364 -0.592346 0
M  V30 10275 C 976.064 6.81587 -2.2985 0
M  V30 10276 C 978.09 5.72388 -1.48749 0
M  V30 10277 C 977.452 6.6472 -2.33082 0
M  V30 10278 H 973.551 0.757931 0.192522 0
M  V30 10279 H 976.135 1.9422 -0.136667 0
M  V30 10280 H 974.306 3.36141 1.94587 0
M  V30 10281 H 976.038 3.59387 1.86073 0
M  V30 10282 H 972.793 4.73207 0.192933 0
M  V30 10283 H 973.217 6.55575 -1.68969 0
M  V30 10284 H 977.859 4.22776 0.045445 0
M  V30 10285 H 975.577 7.5246 -2.94669 0
M  V30 10286 H 979.163 5.61146 -1.53642 0
M  V30 10287 H 978.043 7.2404 -3.01225 0
M  V30 10288 N 975.546 -0.211634 1.56173 0
M  V30 10289 C 976.476 -1.26533 1.96244 0
M  V30 10290 C 977.457 -1.48362 0.832028 0
M  V30 10291 O 978.642 -1.60378 1.0951 0
M  V30 10292 C 975.772 -2.61307 2.2877 0
M  V30 10293 C 974.726 -2.54119 3.44395 0
M  V30 10294 C 974.052 -3.93014 3.62552 0
M  V30 10295 C 975.352 -2.08046 4.79076 0
M  V30 10296 H 977.046 -0.932407 2.84511 0
M  V30 10297 H 974.592 -0.447084 1.36884 0
M  V30 10298 H 976.545 -3.35188 2.55396 0
M  V30 10299 H 975.269 -2.96307 1.37367 0
M  V30 10300 H 973.928 -1.82694 3.17834 0
M  V30 10301 H 973.576 -4.25338 2.68508 0
M  V30 10302 H 973.276 -3.89083 4.40327 0
M  V30 10303 H 974.8 -4.68542 3.91537 0
M  V30 10304 H 976.214 -2.71676 5.04842 0
M  V30 10305 H 974.611 -2.15154 5.60204 0
M  V30 10306 H 975.681 -1.03306 4.73768 0
M  V30 10307 N 977.024 -1.50153 -0.478725 0
M  V30 10308 C 978.272 -1.60443 -1.22892 0
M  V30 10309 C 978.593 -0.303276 -1.92627 0
M  V30 10310 O 977.863 0.678798 -1.83764 0
M  V30 10311 H 976.443 -0.591205 -0.456602 0
M  V30 10312 H 979.105 -1.86893 -0.552905 0
M  V30 10313 H 978.201 -2.41175 -1.98094 0
M  V30 10314 N 978.502 0.731368 -1.39602 0
M  V30 10315 C 979.742 1.5036 -1.3846 0
M  V30 10316 C 980.106 1.91991 0.018784 0
M  V30 10317 O 981.307 2.68351 0.155236 0
M  V30 10318 C 979.578 2.70755 -2.33295 0
M  V30 10319 S 981.137 3.6036 -2.50372 0
M  V30 10320 H 977.955 0.514271 -0.490964 0
M  V30 10321 H 980.557 0.856654 -1.75732 0
M  V30 10322 H 979.261 2.38316 -3.34116 0
M  V30 10323 H 978.792 3.40376 -1.97251 0
M  V30 10324 H 980.807 4.64529 -1.74435 0
M  V30 10325 N 979.98 1.24838 0.961938 0
M  V30 10326 C 981.396 1.01502 1.23165 0
M  V30 10327 C 981.596 -0.272651 1.99647 0
M  V30 10328 O 980.652 -0.987297 2.32398 0
M  V30 10329 C 981.965 2.23366 2.01316 0
M  V30 10330 C 983.513 2.28051 2.14387 0
M  V30 10331 C 983.988 3.49552 2.95935 0
M  V30 10332 N 985.479 3.49904 3.03515 0
M  V30 10333 C 986.214 4.40577 3.66987 0
M  V30 10334 N 985.71 5.41512 4.3213 0
M  V30 10335 N 987.503 4.28275 3.64056 0
M  V30 10336 H 979.654 2.07576 0.450086 0
M  V30 10337 H 981.917 0.911205 0.261551 0
M  V30 10338 H 981.623 3.16913 1.5251 0
M  V30 10339 H 981.497 2.25949 3.02038 0
M  V30 10340 H 983.884 1.35032 2.62393 0
M  V30 10341 H 983.965 2.29491 1.12994 0
M  V30 10342 H 983.609 4.42889 2.4862 0
M  V30 10343 H 983.539 3.45357 3.97538 0
M  V30 10344 H 986.03 2.76885 2.57183 0
M  V30 10345 H 986.343 6.06924 4.78396 0
M  V30 10346 H 984.688 5.45393 4.3078 0
M  V30 10347 H 987.879 3.48653 3.12344 0
M  V30 10348 H 988.052 4.99138 4.13237 0
M  V30 10349 N 981.458 -1.16348 1.06306 0
M  V30 10350 C 982.683 -1.91323 0.800636 0
M  V30 10351 C 983.108 -1.7691 -0.639105 0
M  V30 10352 O 982.466 -1.0945 -1.44535 0
M  V30 10353 C 982.514 -3.40038 1.20027 0
M  V30 10354 O 981.618 -4.11003 0.339142 0
M  V30 10355 H 980.959 -0.596057 0.292595 0
M  V30 10356 H 983.489 -1.47406 1.41889 0
M  V30 10357 H 983.499 -3.90808 1.17188 0
M  V30 10358 H 982.174 -3.49848 2.24898 0
M  V30 10359 H 980.751 -3.70423 0.42911 0
M  V30 10360 N 982.937 -0.845659 -1.3299 0
M  V30 10361 C 983.887 -0.2557 -2.26562 0
M  V30 10362 C 984.871 0.593245 -1.49564 0
M  V30 10363 O 986.063 0.444101 -1.71338 0
M  V30 10364 C 983.192 0.562573 -3.38659 0
M  V30 10365 C 982.278 -0.298259 -4.2305 0
M  V30 10366 N 982.669 -1.38023 -4.86604 0
M  V30 10367 C 980.967 -0.0864539 -4.45916 0
M  V30 10368 C 981.668 -1.90907 -5.49481 0
M  V30 10369 N 980.644 -1.20955 -5.29973 0
M  V30 10370 H 984.446 -1.083 -2.73219 0
M  V30 10371 H 981.96 -0.690823 -1.46974 0
M  V30 10372 H 983.957 1.00157 -4.0469 0
M  V30 10373 H 982.617 1.38777 -2.93549 0
M  V30 10374 H 983.628 -1.76314 -4.86964 0
M  V30 10375 H 980.305 0.70475 -4.11509 0
M  V30 10376 H 981.695 -2.81552 -6.10064 0
M  V30 10377 N 984.415 1.45619 -0.602734 0
M  V30 10378 C 985.64 2.07157 -0.100429 0
M  V30 10379 C 986.065 1.44524 1.20393 0
M  V30 10380 O 985.423 0.536191 1.7319 0
M  V30 10381 C 985.471 3.60587 0.0308604 0
M  V30 10382 O 984.575 3.97944 1.08234 0
M  V30 10383 H 983.916 0.6601 -0.0718643 0
M  V30 10384 H 986.446 1.86948 -0.831366 0
M  V30 10385 H 986.456 4.07348 0.230634 0
M  V30 10386 H 985.131 4.05561 -0.921581 0
M  V30 10387 H 983.708 3.62862 0.859414 0
M  V30 10388 N 985.893 0.34162 1.53853 0
M  V30 10389 C 987.118 -0.259608 2.05769 0
M  V30 10390 C 987.543 -1.43588 1.21507 0
M  V30 10391 O 986.901 -1.79856 0.228364 0
M  V30 10392 C 986.949 -0.654455 3.54611 0
M  V30 10393 O 986.053 -1.75472 3.73207 0
M  V30 10394 H 985.394 -0.0434621 0.662576 0
M  V30 10395 H 987.924 0.495274 1.98515 0
M  V30 10396 H 987.934 -0.932142 3.97209 0
M  V30 10397 H 986.609 0.205779 4.15391 0
M  V30 10398 H 985.186 -1.47444 3.42512 0
M  V30 10399 N 987.371 -1.57444 0.0701946 0
M  V30 10400 C 988.334 -2.11511 -0.882923 0
M  V30 10401 C 989.334 -1.03879 -1.22743 0
M  V30 10402 O 990.524 -1.29874 -1.16097 0
M  V30 10403 C 987.656 -2.61514 -2.18686 0
M  V30 10404 H 988.849 -2.9703 -0.413873 0
M  V30 10405 H 986.402 -1.55278 -0.178488 0
M  V30 10406 H 987.137 -1.79443 -2.70131 0
M  V30 10407 H 986.922 -3.40185 -1.94978 0
M  V30 10408 H 988.412 -3.03425 -2.86919 0
M  V30 10409 N 988.849 0.203349 -1.56283 0
M  V30 10410 C 989.781 1.27592 -1.90402 0
M  V30 10411 C 990.794 1.4213 -0.79391 0
M  V30 10412 O 991.983 1.42703 -1.07229 0
M  V30 10413 C 989.083 2.64919 -2.11356 0
M  V30 10414 C 988.256 2.72095 -3.42466 0
M  V30 10415 C 987.315 3.9056 -3.52631 0
M  V30 10416 O 986.341 3.78048 -4.25521 0
M  V30 10417 N 987.543 5.0566 -2.85111 0
M  V30 10418 H 990.308 0.986423 -2.83001 0
M  V30 10419 H 987.869 0.39331 -1.5705 0
M  V30 10420 H 989.861 3.42581 -2.15453 0
M  V30 10421 H 988.431 2.86391 -1.25295 0
M  V30 10422 H 987.651 1.8077 -3.50308 0
M  V30 10423 H 988.939 2.73874 -4.28801 0
M  V30 10424 H 988.337 5.18723 -2.25705 0
M  V30 10425 H 986.894 5.81299 -2.94847 0
M  V30 10426 N 990.327 1.50405 0.470755 0
M  V30 10427 C 991.574 1.61411 1.22281 0
M  V30 10428 C 991.902 0.314603 1.91939 0
M  V30 10429 O 991.157 -0.699531 1.82771 0
M  V30 10430 C 991.456 2.74426 2.28965 0
M  V30 10431 C 991.122 4.14896 1.76557 0
M  V30 10432 C 989.784 4.53116 1.61985 0
M  V30 10433 C 992.136 5.02686 1.3768 0
M  V30 10434 C 989.464 5.76868 1.0696 0
M  V30 10435 C 991.816 6.26985 0.840967 0
M  V30 10436 C 990.48 6.64008 0.68188 0
M  V30 10437 H 989.75 0.590645 0.447459 0
M  V30 10438 H 992.397 1.84339 0.518783 0
M  V30 10439 H 990.702 2.45588 3.05277 0
M  V30 10440 H 992.399 2.80146 2.86914 0
M  V30 10441 H 988.989 3.84743 1.88867 0
M  V30 10442 H 993.173 4.7379 1.47772 0
M  V30 10443 H 988.429 6.04227 0.933808 0
M  V30 10444 H 992.603 6.94372 0.531066 0
M  V30 10445 H 990.23 7.59778 0.25335 0
M  V30 10446 N 991.805 -0.723954 1.39988 0
M  V30 10447 C 992.735 -1.85103 1.42335 0
M  V30 10448 C 993.716 -1.6769 0.285297 0
M  V30 10449 O 994.901 -1.87846 0.492716 0
M  V30 10450 C 992.031 -3.22972 1.27697 0
M  V30 10451 C 990.985 -3.55041 2.39018 0
M  V30 10452 C 990.311 -4.91965 2.09462 0
M  V30 10453 C 991.611 -3.56889 3.8135 0
M  V30 10454 H 993.305 -1.83396 2.36656 0
M  V30 10455 H 990.851 -0.880926 1.13911 0
M  V30 10456 H 992.804 -4.01503 1.27958 0
M  V30 10457 H 991.528 -3.25233 0.298487 0
M  V30 10458 H 990.187 -2.78845 2.37993 0
M  V30 10459 H 989.835 -4.90819 1.10025 0
M  V30 10460 H 989.535 -5.14389 2.84038 0
M  V30 10461 H 991.059 -5.7284 2.11391 0
M  V30 10462 H 992.473 -4.25476 3.84243 0
M  V30 10463 H 990.87 -3.90836 4.55376 0
M  V30 10464 H 991.94 -2.56452 4.11534 0
M  V30 10465 N 993.283 -1.25346 -0.955304 0
M  V30 10466 C 994.532 -1.0945 -1.69421 0
M  V30 10467 C 994.845 0.364459 -1.92175 0
M  V30 10468 O 996.051 0.643843 -2.63755 0
M  V30 10469 C 994.507 -1.91045 -3.05008 0
M  V30 10470 C 994.115 -3.41428 -2.90053 0
M  V30 10471 C 995.859 -1.83716 -3.82686 0
M  V30 10472 C 993.766 -4.1532 -4.21026 0
M  V30 10473 H 992.696 -0.405978 -0.635372 0
M  V30 10474 H 995.347 -1.49536 -1.06354 0
M  V30 10475 H 993.729 -1.43781 -3.68975 0
M  V30 10476 H 994.903 -3.9636 -2.35022 0
M  V30 10477 H 993.218 -3.49842 -2.25831 0
M  V30 10478 H 995.815 -2.36217 -4.79693 0
M  V30 10479 H 996.158 -0.804919 -4.08444 0
M  V30 10480 H 996.691 -2.28726 -3.25468 0
M  V30 10481 H 993.43 -5.18955 -4.00457 0
M  V30 10482 H 992.95 -3.65172 -4.75825 0
M  V30 10483 H 994.629 -4.22999 -4.89572 0
M  V30 10484 N 994.761 1.15782 -1.06922 0
M  V30 10485 C 996.009 1.86097 -0.788192 0
M  V30 10486 C 996.33 1.82475 0.687606 0
M  V30 10487 O 995.6 1.26266 1.49778 0
M  V30 10488 H 994.18 0.689008 -0.288577 0
M  V30 10489 H 996.842 1.40377 -1.35205 0
M  V30 10490 H 995.938 2.91358 -1.1188 0
M  V30 10491 N 996.239 0.8527 1.3254 0
M  V30 10492 C 997.516 0.376491 1.91942 0
M  V30 10493 C 997.896 -1.13972 1.7769 0
M  V30 10494 O 997.244 -1.96047 1.17379 0
M  V30 10495 C 997.454 0.838694 3.38773 0
M  V30 10496 C 998.802 0.854736 4.15908 0
M  V30 10497 O 999.826 0.783203 3.47483 0
M  V30 10498 O 998.685 0.955207 5.38087 0
M  V30 10499 H 995.779 0.109412 0.81973 0
M  V30 10500 H 998.325 0.93947 1.41322 0
M  V30 10501 H 997.097 1.88179 3.43081 0
M  V30 10502 H 996.72 0.253055 3.96794 0
M  V30 10503 N 997.718 -1.45297 0.610449 0
M  V30 10504 C 998.65 -2.28742 -0.144884 0
M  V30 10505 C 999.663 -1.40114 -0.828977 0
M  V30 10506 O 1000.85 -1.64461 -0.693887 0
M  V30 10507 C 997.952 -3.15934 -1.22632 0
M  V30 10508 C 997.125 -4.32857 -0.628785 0
M  V30 10509 C 996.184 -5.01237 -1.60148 0
M  V30 10510 O 995.21 -5.57938 -1.12667 0
M  V30 10511 N 996.412 -5.00785 -2.9359 0
M  V30 10512 H 999.177 -2.94207 0.571145 0
M  V30 10513 H 996.738 -1.55517 0.450134 0
M  V30 10514 H 998.73 -3.58545 -1.87691 0
M  V30 10515 H 997.3 -2.52358 -1.84483 0
M  V30 10516 H 996.52 -3.93693 0.199951 0
M  V30 10517 H 997.808 -5.08367 -0.209845 0
M  V30 10518 H 997.206 -4.56014 -3.34765 0
M  V30 10519 H 995.763 -5.4725 -3.54064 0
M  V30 10520 N 999.196 -0.349774 -1.5367 0
M  V30 10521 C 1000.11 0.512421 -2.28935 0
M  V30 10522 C 1001.12 1.1065 -1.34286 0
M  V30 10523 O 1002.3 1.12084 -1.67329 0
M  V30 10524 C 999.363 1.64449 -3.05217 0
M  V30 10525 C 998.424 1.07956 -4.15505 0
M  V30 10526 C 997.657 2.15768 -4.88139 0
M  V30 10527 O 997.88 3.366 -4.60496 0
M  V30 10528 O 996.814 1.79712 -5.74445 0
M  V30 10529 H 1000.64 -0.0996001 -3.03537 0
M  V30 10530 H 998.225 -0.114629 -1.4896 0
M  V30 10531 H 1000.11 2.30302 -3.52901 0
M  V30 10532 H 998.782 2.24221 -2.33467 0
M  V30 10533 H 997.689 0.385381 -3.7211 0
M  V30 10534 H 999.022 0.526621 -4.89375 0
M  V30 10535 N 1000.67 1.57404 -0.0785433 0
M  V30 10536 C 1002.08 1.81118 0.45311 0
M  V30 10537 C 1002.44 0.992963 1.69218 0
M  V30 10538 O 1001.56 0.217448 2.15305 0
M  V30 10539 C 1002.16 3.28506 0.82882 0
M  V30 10540 C 1000.71 3.53042 1.3053 0
M  V30 10541 C 999.862 2.75739 0.29378 0
M  V30 10542 H 1002.81 1.55758 -0.304171 0
M  V30 10543 H 1002.83 3.40924 1.68971 0
M  V30 10544 H 1002.35 3.88031 -0.0731826 0
M  V30 10545 H 1000.45 2.98829 2.22558 0
M  V30 10546 H 1000.56 4.61724 1.27857 0
M  V30 10547 H 998.924 2.42703 0.772477 0
M  V30 10548 H 999.707 3.38005 -0.600613 0
M  V30 10549 N 1002.15 -0.195058 1.56388 0
M  V30 10550 C 1003.4 -0.912248 1.81795 0
M  V30 10551 C 1003.75 -1.80886 0.655596 0
M  V30 10552 O 1003.05 -1.88391 -0.34922 0
M  V30 10553 C 1003.24 -1.7637 3.10851 0
M  V30 10554 C 1003.07 -0.951012 4.39529 0
M  V30 10555 C 1001.84 -0.635425 5.01289 0
M  V30 10556 C 1004.04 -0.303702 5.13403 0
M  V30 10557 N 1002.02 0.195887 6.13587 0
M  V30 10558 C 1003.39 0.38981 6.18773 0
M  V30 10559 C 1005.44 -0.219433 4.97416 0
M  V30 10560 C 1004.15 1.15957 7.09892 0
M  V30 10561 C 1006.17 0.536925 5.88958 0
M  V30 10562 C 1005.54 1.21888 6.93774 0
M  V30 10563 H 1001.63 -0.313208 0.716537 0
M  V30 10564 H 1004.22 -0.180977 1.93857 0
M  V30 10565 H 1002.39 -2.46657 3.00025 0
M  V30 10566 H 1004.12 -2.42037 3.24346 0
M  V30 10567 H 1000.88 -0.959855 4.63771 0
M  V30 10568 H 1001.3 0.601155 6.74326 0
M  V30 10569 H 1005.94 -0.732323 4.16409 0
M  V30 10570 H 1003.66 1.68389 7.90361 0
M  V30 10571 H 1007.25 0.603485 5.78662 0
M  V30 10572 H 1006.13 1.79478 7.63385 0
M  V30 10573 N 1003.63 -1.50653 -0.462772 0
M  V30 10574 C 1004.59 -1.69561 -1.54213 0
M  V30 10575 C 1005.59 -0.566106 -1.50505 0
M  V30 10576 O 1006.78 -0.833273 -1.52978 0
M  V30 10577 C 1003.91 -1.72856 -2.93826 0
M  V30 10578 H 1005.11 -2.65867 -1.38761 0
M  V30 10579 H 1002.66 -1.40259 -0.689728 0
M  V30 10580 H 1003.4 -0.78273 -3.14712 0
M  V30 10581 H 1003.18 -2.54919 -2.97924 0
M  V30 10582 H 1004.67 -1.89411 -3.72174 0
M  V30 10583 N 1005.11 0.71652 -1.4037 0
M  V30 10584 C 1006.36 1.47638 -1.38597 0
M  V30 10585 C 1006.68 1.94496 0.0120141 0
M  V30 10586 O 1005.94 1.68437 0.996373 0
M  V30 10587 C 1006.24 2.71777 -2.32103 0
M  V30 10588 C 1005.9 2.43689 -3.79376 0
M  V30 10589 C 1004.57 2.35739 -4.195 0
M  V30 10590 C 1006.92 2.20099 -4.72447 0
M  V30 10591 C 1004.25 2.02265 -5.50732 0
M  V30 10592 C 1006.6 1.88138 -6.03976 0
M  V30 10593 C 1005.26 1.78669 -6.43143 0
M  V30 10594 H 1004.53 0.540246 -0.507163 0
M  V30 10595 H 1007.18 0.820822 -1.73017 0
M  V30 10596 H 1005.48 3.42166 -1.90865 0
M  V30 10597 H 1007.18 3.29864 -2.28015 0
M  V30 10598 H 1003.77 2.50763 -3.47585 0
M  V30 10599 H 1007.95 2.25198 -4.42266 0
M  V30 10600 H 1003.21 1.93471 -5.79982 0
M  V30 10601 H 1007.38 1.68898 -6.75608 0
M  V30 10602 H 1005.01 1.52498 -7.44747 0
M  V30 10603 N 1006.59 1.25851 0.948643 0
M  V30 10604 C 1008 1.02802 1.22081 0
M  V30 10605 C 1008.2 -0.251461 1.99925 0
M  V30 10606 O 1007.26 -0.962592 2.33432 0
M  V30 10607 C 1008.57 2.25489 1.98936 0
M  V30 10608 C 1010.12 2.30312 2.11956 0
M  V30 10609 C 1010.59 3.52671 2.92211 0
M  V30 10610 N 1012.09 3.53103 2.99787 0
M  V30 10611 C 1012.82 4.44445 3.62294 0
M  V30 10612 N 1012.32 5.46065 4.26362 0
M  V30 10613 N 1014.11 4.32113 3.59493 0
M  V30 10614 H 1006.26 2.08042 0.428044 0
M  V30 10615 H 1008.52 0.913928 0.251872 0
M  V30 10616 H 1008.23 3.18513 1.4914 0
M  V30 10617 H 1008.1 2.2914 2.99624 0
M  V30 10618 H 1010.49 1.37808 2.60946 0
M  V30 10619 H 1010.57 2.30676 1.10554 0
M  V30 10620 H 1010.22 4.45501 2.43909 0
M  V30 10621 H 1010.15 3.49554 3.93853 0
M  V30 10622 H 1012.64 2.79597 2.54232 0
M  V30 10623 H 1012.95 6.11964 4.71932 0
M  V30 10624 H 1011.29 5.49931 4.24972 0
M  V30 10625 H 1014.49 3.51946 3.08629 0
M  V30 10626 H 1014.66 5.03493 4.0792 0
M  V30 10627 N 1008.06 -1.15214 1.07534 0
M  V30 10628 C 1009.31 -1.85676 0.79805 0
M  V30 10629 C 1009.63 -1.82837 -0.677919 0
M  V30 10630 O 1008.9 -1.27059 -1.49107 0
M  V30 10631 H 1007.48 -0.687468 0.292227 0
M  V30 10632 H 1010.15 -1.39658 1.35947 0
M  V30 10633 H 1009.24 -2.9076 1.13423 0
M  V30 10634 N 1009.54 -0.859717 -1.32086 0
M  V30 10635 C 1010.79 -0.464662 -1.96686 0
M  V30 10636 C 1011.11 0.98412 -1.68345 0
M  V30 10637 O 1010.38 1.68847 -0.993361 0
M  V30 10638 H 1008.96 -0.168838 -0.727669 0
M  V30 10639 H 1011.62 -1.09726 -1.61079 0
M  V30 10640 H 1010.72 -0.613904 -3.06003 0
M  V30 10641 N 1011.02 1.44971 -0.618145 0
M  V30 10642 C 1011.95 2.33357 0.0815955 0
M  V30 10643 C 1012.93 1.47451 0.848072 0
M  V30 10644 O 1014.12 1.762 0.816532 0
M  V30 10645 C 1011.25 3.30324 1.07253 0
M  V30 10646 C 1010.2 4.25948 0.418563 0
M  V30 10647 C 1009.53 5.12685 1.51849 0
M  V30 10648 C 1010.83 5.18024 -0.66697 0
M  V30 10649 H 1012.52 2.92115 -0.656442 0
M  V30 10650 H 1010.07 1.40465 -0.317129 0
M  V30 10651 H 1012.02 3.91033 1.57069 0
M  V30 10652 H 1010.74 2.69748 1.8413 0
M  V30 10653 H 1009.4 3.66553 -0.0588308 0
M  V30 10654 H 1009.05 4.4847 2.2778 0
M  V30 10655 H 1008.75 5.7747 1.08637 0
M  V30 10656 H 1010.27 5.76264 2.01871 0
M  V30 10657 H 1011.69 5.72744 -0.252448 0
M  V30 10658 H 1010.09 5.91343 -1.02146 0
M  V30 10659 H 1011.16 4.59817 -1.53936 0
M  V30 10660 N 1012.5 0.357919 1.53482 0
M  V30 10661 C 1013.46 -0.479797 2.24122 0
M  V30 10662 C 1014.46 -1.01596 1.24639 0
M  V30 10663 O 1015.65 -0.902928 1.48973 0
M  V30 10664 C 1012.78 -1.66983 2.97203 0
M  V30 10665 H 1013.98 0.138219 2.99581 0
M  V30 10666 H 1011.53 0.109484 1.55916 0
M  V30 10667 H 1012.26 -2.32615 2.25966 0
M  V30 10668 H 1012.05 -1.29242 3.70188 0
M  V30 10669 H 1013.54 -2.26367 3.50924 0
M  V30 10670 N 1013.98 -1.5736 0.0868897 0
M  V30 10671 C 1015.22 -1.9367 -0.577598 0
M  V30 10672 C 1015.55 -0.968844 -1.69229 0
M  V30 10673 O 1014.82 -0.0195061 -1.9589 0
M  V30 10674 H 1013.4 -0.714983 -0.216353 0
M  V30 10675 H 1016.06 -1.94335 0.148294 0
M  V30 10676 H 1015.15 -2.95877 -0.993128 0
M  V30 10677 N 1015.45 0.186762 -1.56489 0
M  V30 10678 C 1016.36 1.25169 -1.98419 0
M  V30 10679 C 1017.38 1.49329 -0.893124 0
M  V30 10680 O 1018.56 1.61781 -1.19954 0
M  V30 10681 C 1015.62 2.57422 -2.32239 0
M  V30 10682 C 1014.68 2.4126 -3.55095 0
M  V30 10683 C 1013.92 3.67206 -3.87292 0
M  V30 10684 O 1014.14 4.71731 -3.20665 0
M  V30 10685 O 1013.07 3.62238 -4.80695 0
M  V30 10686 H 1016.9 0.925834 -2.89244 0
M  V30 10687 H 1014.48 0.392421 -1.44154 0
M  V30 10688 H 1016.37 3.35466 -2.5503 0
M  V30 10689 H 1015.04 2.89618 -1.44579 0
M  V30 10690 H 1013.95 1.61299 -3.37541 0
M  V30 10691 H 1015.28 2.13994 -4.43247 0
M  V30 10692 N 1016.93 1.50896 0.454776 0
M  V30 10693 C 1018.18 1.62699 1.20562 0
M  V30 10694 C 1018.51 0.334943 1.91594 0
M  V30 10695 O 1017.76 -0.680106 1.83502 0
M  V30 10696 C 1018.06 2.76839 2.26042 0
M  V30 10697 C 1017.73 4.16745 1.72147 0
M  V30 10698 C 1016.39 4.54809 1.5717 0
M  V30 10699 C 1018.74 5.04118 1.32341 0
M  V30 10700 C 1016.07 5.7797 1.00835 0
M  V30 10701 C 1018.42 6.27842 0.774419 0
M  V30 10702 C 1017.09 6.64694 0.611415 0
M  V30 10703 H 1016.36 0.595358 0.441169 0
M  V30 10704 H 1019 1.84879 0.499202 0
M  V30 10705 H 1017.31 2.48812 3.02655 0
M  V30 10706 H 1019 2.83173 2.83926 0
M  V30 10707 H 1015.59 3.86725 1.84775 0
M  V30 10708 H 1019.78 4.75331 1.42739 0
M  V30 10709 H 1015.03 6.05183 0.869669 0
M  V30 10710 H 1019.21 6.94896 0.457389 0
M  V30 10711 H 1016.84 7.60004 0.172751 0
M  V30 10712 N 1018.41 -0.709066 1.40748 0
M  V30 10713 C 1019.34 -1.83412 1.37451 0
M  V30 10714 C 1020.36 -1.60394 0.27884 0
M  V30 10715 O 1021.54 -1.70147 0.539642 0
M  V30 10716 C 1018.64 -3.19935 1.1178 0
M  V30 10717 C 1017.82 -3.70095 2.33128 0
M  V30 10718 C 1016.88 -4.85249 2.03518 0
M  V30 10719 O 1015.9 -4.97563 2.76442 0
M  V30 10720 N 1017.1 -5.7152 1.01714 0
M  V30 10721 H 1019.87 -1.86736 2.34414 0
M  V30 10722 H 1017.43 -0.890863 1.35186 0
M  V30 10723 H 1019.42 -3.94578 0.899464 0
M  V30 10724 H 1017.99 -3.11718 0.234624 0
M  V30 10725 H 1017.21 -2.8651 2.70751 0
M  V30 10726 H 1018.5 -4.00344 3.1401 0
M  V30 10727 H 1017.9 -5.64188 0.413307 0
M  V30 10728 H 1016.46 -6.46119 0.858696 0
M  V30 10729 N 1019.89 -1.26353 -0.941956 0
M  V30 10730 C 1021.31 -1.03448 -1.21534 0
M  V30 10731 C 1021.51 0.240855 -2.00055 0
M  V30 10732 O 1020.56 0.950199 -2.33939 0
M  V30 10733 C 1021.87 -2.2654 -1.97737 0
M  V30 10734 C 1023.42 -2.31433 -2.10731 0
M  V30 10735 C 1023.9 -3.54216 -2.90336 0
M  V30 10736 N 1025.39 -3.54688 -2.9791 0
M  V30 10737 C 1026.12 -4.4636 -3.59931 0
M  V30 10738 N 1025.62 -5.48319 -4.2346 0
M  V30 10739 N 1027.41 -4.34013 -3.57196 0
M  V30 10740 H 1019.56 -2.08266 -0.417005 0
M  V30 10741 H 1021.83 -0.915251 -0.247021 0
M  V30 10742 H 1021.53 -3.19299 -1.47449 0
M  V30 10743 H 1021.41 -2.30726 -2.98405 0
M  V30 10744 H 1023.79 -1.3919 -2.60212 0
M  V30 10745 H 1023.87 -2.31259 -1.09329 0
M  V30 10746 H 1023.52 -4.46788 -2.41543 0
M  V30 10747 H 1023.45 -3.51637 -3.91993 0
M  V30 10748 H 1025.94 -2.80942 -2.52745 0
M  V30 10749 H 1026.25 -6.14458 -4.6868 0
M  V30 10750 H 1024.6 -5.52177 -4.22049 0
M  V30 10751 H 1027.79 -3.53578 -3.06758 0
M  V30 10752 H 1027.96 -5.0565 -4.05244 0
M  V30 10753 N 1021.37 1.14642 -1.08144 0
M  V30 10754 C 1022.3 2.21775 -0.730609 0
M  V30 10755 C 1023.28 1.67683 0.285702 0
M  V30 10756 O 1024.46 1.93567 0.156667 0
M  V30 10757 C 1021.59 3.47033 -0.136242 0
M  V30 10758 C 1020.55 4.14134 -1.0806 0
M  V30 10759 C 1019.87 5.33563 -0.348585 0
M  V30 10760 C 1021.17 4.62978 -2.41761 0
M  V30 10761 H 1022.87 2.51378 -1.62633 0
M  V30 10762 H 1020.41 1.20825 -0.783411 0
M  V30 10763 H 1022.37 4.21226 0.121182 0
M  V30 10764 H 1021.09 3.16786 0.7946 0
M  V30 10765 H 1019.75 3.41892 -1.32308 0
M  V30 10766 H 1019.4 4.99575 0.585974 0
M  V30 10767 H 1019.1 5.79402 -0.978122 0
M  V30 10768 H 1020.62 6.10519 -0.0991508 0
M  V30 10769 H 1022.04 5.28659 -2.21795 0
M  V30 10770 H 1020.43 5.1951 -3.00383 0
M  V30 10771 H 1021.5 3.78189 -3.03482 0
M  V30 10772 N 1022.85 0.866709 1.31628 0
M  V30 10773 C 1023.78 0.335762 2.31073 0
M  V30 10774 C 1024.76 -0.571597 1.60209 0
M  V30 10775 O 1025.94 -0.489306 1.87935 0
M  V30 10776 C 1023.07 -0.466416 3.44154 0
M  V30 10777 C 1022.03 0.347561 4.26586 0
M  V30 10778 C 1021.35 -0.5801 5.31544 0
M  V30 10779 C 1022.65 1.57986 4.97833 0
M  V30 10780 H 1024.35 1.16673 2.75731 0
M  V30 10781 H 1021.89 0.56248 1.3256 0
M  V30 10782 H 1023.84 -0.84836 4.12772 0
M  V30 10783 H 1022.57 -1.33086 2.98254 0
M  V30 10784 H 1021.23 0.71141 3.59631 0
M  V30 10785 H 1020.88 -1.44174 4.81895 0
M  V30 10786 H 1020.58 -0.0393965 5.87587 0
M  V30 10787 H 1022.1 -0.958958 6.03023 0
M  V30 10788 H 1023.51 1.26954 5.59067 0
M  V30 10789 H 1021.91 2.05939 5.63657 0
M  V30 10790 H 1022.98 2.3345 4.25005 0
M  V30 10791 N 1024.32 -1.44642 0.625825 0
M  V30 10792 C 1025.73 -1.85502 0.211175 0
M  V30 10793 C 1026.09 -1.52356 -1.2362 0
M  V30 10794 O 1025.21 -0.959051 -1.93988 0
M  V30 10795 C 1025.81 -3.36702 0.37648 0
M  V30 10796 C 1024.36 -3.76396 0.0163795 0
M  V30 10797 C 1023.51 -2.68517 0.692368 0
M  V30 10798 H 1026.46 -1.35183 0.831333 0
M  V30 10799 H 1026.48 -3.78536 -0.386106 0
M  V30 10800 H 1026 -3.60795 1.42999 0
M  V30 10801 H 1024.1 -3.57919 -1.0356 0
M  V30 10802 H 1024.21 -4.77231 0.422742 0
M  V30 10803 H 1022.57 -2.54377 0.128191 0
M  V30 10804 H 1023.36 -2.95444 1.74837 0
M  V30 10805 N 1025.8 -0.366053 -1.5329 0
M  V30 10806 C 1027.05 0.224614 -2.00445 0
M  V30 10807 C 1027.36 1.49829 -1.2574 0
M  V30 10808 O 1028.57 2.16759 -1.63487 0
M  V30 10809 C 1027.03 0.450818 -3.57065 0
M  V30 10810 C 1026.63 -0.808257 -4.40649 0
M  V30 10811 C 1028.38 0.999116 -4.12575 0
M  V30 10812 C 1026.28 -0.551612 -5.88822 0
M  V30 10813 H 1025.21 0.0877114 -0.748881 0
M  V30 10814 H 1027.87 -0.484866 -1.76978 0
M  V30 10815 H 1026.25 1.22157 -3.76688 0
M  V30 10816 H 1027.42 -1.58184 -4.32798 0
M  V30 10817 H 1025.74 -1.27981 -3.96245 0
M  V30 10818 H 1028.33 1.20646 -5.20911 0
M  V30 10819 H 1028.68 1.96139 -3.67199 0
M  V30 10820 H 1029.21 0.288518 -3.96752 0
M  V30 10821 H 1025.95 -1.48423 -6.38475 0
M  V30 10822 H 1025.47 0.183462 -5.99519 0
M  V30 10823 H 1027.15 -0.177307 -6.46757 0
M  V30 10824 N 1027.28 1.57312 -0.0952337 0
M  V30 10825 C 1028.56 1.85822 0.610715 0
M  V30 10826 C 1028.94 0.992114 1.86334 0
M  V30 10827 O 1028.28 0.0645669 2.28409 0
M  V30 10828 C 1028.49 3.36492 0.925967 0
M  V30 10829 C 1029.84 4.0455 1.28936 0
M  V30 10830 O 1030.87 3.41374 1.01698 0
M  V30 10831 O 1029.73 5.16024 1.79949 0
M  V30 10832 H 1026.82 0.768454 0.305626 0
M  V30 10833 H 1029.37 1.69217 -0.127941 0
M  V30 10834 H 1028.14 3.91282 0.0373127 0
M  V30 10835 H 1027.76 3.58443 1.7206 0
M  V30 10836 N 1028.76 -0.17846 1.56586 0
M  V30 10837 C 1030.01 -0.894464 1.81228 0
M  V30 10838 C 1030.33 -1.83089 0.671062 0
M  V30 10839 O 1029.6 -1.93439 -0.309557 0
M  V30 10840 H 1028.18 -0.333288 0.668527 0
M  V30 10841 H 1030.84 -0.179986 1.94067 0
M  V30 10842 H 1029.93 -1.47565 2.75011 0
M  V30 10843 N 1030.24 -1.51135 -0.446768 0
M  V30 10844 C 1031.2 -1.71187 -1.52406 0
M  V30 10845 C 1032.2 -0.582037 -1.49897 0
M  V30 10846 O 1033.39 -0.849452 -1.52085 0
M  V30 10847 C 1030.52 -1.75962 -2.91976 0
M  V30 10848 H 1031.71 -2.67324 -1.35934 0
M  V30 10849 H 1029.27 -1.40982 -0.674813 0
M  V30 10850 H 1030 -0.816065 -3.13864 0
M  V30 10851 H 1029.79 -2.58065 -2.95203 0
M  V30 10852 H 1031.28 -1.93347 -3.70144 0
M  V30 10853 N 1031.71 0.701592 -1.41122 0
M  V30 10854 C 1032.66 1.83691 -1.4269 0
M  V30 10855 C 1033.66 1.6662 -0.305658 0
M  V30 10856 O 1034.86 1.73554 -0.477392 0
M  V30 10857 H 1031.24 0.605222 -0.44633 0
M  V30 10858 H 1033.21 1.79485 -2.38386 0
M  V30 10859 C 1031.96 3.21666 -1.32008 0
M  V30 10860 H 1031.28 3.35416 -2.17569 0
M  V30 10861 H 1032.72 4.012 -1.37165 0
M  V30 10862 C 1031.18 3.36885 -0.0317678 0
M  V30 10863 O 1031.71 3.90885 0.925836 0
M  V30 10864 N 1029.91 2.90569 0.0423401 0
M  V30 10865 H 1029.46 2.46812 -0.737673 0
M  V30 10866 H 1029.42 3.0113 0.903764 0
M  V30 10867 N 1033.19 1.2685 0.935242 0
M  V30 10868 C 1034.47 1.03483 1.65984 0
M  V30 10869 C 1034.85 -0.432859 2.06614 0
M  V30 10870 O 1034.2 -1.4145 1.79455 0
M  V30 10871 C 1034.41 1.98924 2.86758 0
M  V30 10872 C 1035.75 2.2787 3.58274 0
M  V30 10873 O 1036.78 1.96838 2.96873 0
M  V30 10874 O 1035.64 2.80734 4.68882 0
M  V30 10875 H 1032.73 0.393932 0.72715 0
M  V30 10876 H 1035.28 1.38085 0.986445 0
M  V30 10877 H 1034.05 2.9794 2.53668 0
M  V30 10878 H 1033.67 1.64839 3.6182 0
M  V30 10879 N 1034.67 -1.14067 1.0875 0
M  V30 10880 C 1035.6 -2.21385 0.74236 0
M  V30 10881 C 1036.58 -1.67833 -0.276805 0
M  V30 10882 O 1037.77 -1.93647 -0.1464 0
M  V30 10883 C 1034.9 -3.46956 0.154644 0
M  V30 10884 C 1033.85 -4.13555 1.10255 0
M  V30 10885 C 1033.18 -5.3337 0.376877 0
M  V30 10886 C 1034.48 -4.6169 2.44213 0
M  V30 10887 H 1036.17 -2.50512 1.63964 0
M  V30 10888 H 1033.72 -1.20408 0.789807 0
M  V30 10889 H 1035.67 -4.21284 -0.0988419 0
M  V30 10890 H 1034.39 -3.17203 -0.777789 0
M  V30 10891 H 1033.05 -3.41186 1.34119 0
M  V30 10892 H 1032.7 -4.99879 -0.559472 0
M  V30 10893 H 1032.4 -5.78875 1.00884 0
M  V30 10894 H 1033.92 -6.10458 0.131527 0
M  V30 10895 H 1035.34 -5.27475 2.24595 0
M  V30 10896 H 1033.74 -5.17909 3.03134 0
M  V30 10897 H 1034.81 -3.76574 3.05483 0
M  V30 10898 N 1036.15 -0.873678 -1.31166 0
M  V30 10899 C 1037.4 -0.486457 -1.9657 0
M  V30 10900 C 1037.72 0.962042 -1.69041 0
M  V30 10901 O 1036.98 1.69305 -0.981543 0
M  V30 10902 C 1037.28 -0.69462 -3.50585 0
M  V30 10903 C 1036.94 -2.11647 -3.98141 0
M  V30 10904 C 1035.61 -2.50531 -4.10838 0
M  V30 10905 C 1037.96 -3.0436 -4.23101 0
M  V30 10906 C 1035.29 -3.81361 -4.45848 0
M  V30 10907 C 1037.64 -4.34709 -4.59577 0
M  V30 10908 C 1036.3 -4.73502 -4.70481 0
M  V30 10909 H 1035.57 -0.178007 -0.719301 0
M  V30 10910 H 1038.22 -1.10737 -1.56235 0
M  V30 10911 H 1036.52 0.00940878 -3.91799 0
M  V30 10912 H 1038.22 -0.374782 -3.99245 0
M  V30 10913 H 1034.81 -1.8046 -3.88757 0
M  V30 10914 H 1038.99 -2.75544 -4.12782 0
M  V30 10915 H 1034.25 -4.11174 -4.52488 0
M  V30 10916 H 1038.42 -5.06596 -4.77842 0
M  V30 10917 H 1036.05 -5.74919 -4.97365 0
M  V30 10918 N 1037.63 1.44308 -0.633487 0
M  V30 10919 C 1038.87 2.02023 -0.138917 0
M  V30 10920 C 1039.2 1.49841 1.24008 0
M  V30 10921 O 1038.46 0.673718 1.83738 0
M  V30 10922 C 1038.76 3.57316 -0.0773886 0
M  V30 10923 C 1038.42 4.28762 -1.39548 0
M  V30 10924 C 1037.08 4.47997 -1.75648 0
M  V30 10925 C 1039.44 4.69391 -2.26542 0
M  V30 10926 C 1036.76 5.05121 -2.98445 0
M  V30 10927 C 1039.12 5.27876 -3.48612 0
M  V30 10928 C 1037.78 5.45329 -3.84932 0
M  V30 10929 H 1037.05 0.739254 -0.0508333 0
M  V30 10930 H 1039.7 1.73043 -0.820271 0
M  V30 10931 H 1038 3.85724 0.687345 0
M  V30 10932 H 1039.7 3.99706 0.321837 0
M  V30 10933 H 1036.29 4.14122 -1.10456 0
M  V30 10934 H 1040.47 4.54241 -1.99946 0
M  V30 10935 H 1035.73 5.16821 -3.26658 0
M  V30 10936 H 1039.9 5.58307 -4.16253 0
M  V30 10937 H 1037.53 5.8936 -4.80166 0
M  V30 10938 N 1039.1 0.374177 1.53094 0
M  V30 10939 C 1040.04 -0.503065 2.23611 0
M  V30 10940 C 1041.05 -1.03915 1.25321 0
M  V30 10941 O 1042.24 -0.944064 1.51492 0
M  V30 10942 C 1039.34 -1.70825 2.92698 0
M  V30 10943 C 1038.51 -1.30217 4.17567 0
M  V30 10944 C 1037.57 -2.37036 4.69788 0
M  V30 10945 O 1036.6 -1.99069 5.33254 0
M  V30 10946 N 1037.8 -3.68743 4.4834 0
M  V30 10947 H 1040.56 0.101013 2.9953 0
M  V30 10948 H 1038.12 0.199778 1.60663 0
M  V30 10949 H 1040.12 -2.41779 3.24538 0
M  V30 10950 H 1038.69 -2.219 2.2018 0
M  V30 10951 H 1037.91 -0.422121 3.91933 0
M  V30 10952 H 1039.19 -1.00728 4.9873 0
M  V30 10953 H 1038.59 -4.0236 3.97647 0
M  V30 10954 H 1037.15 -4.35776 4.84709 0
M  V30 10955 N 1040.58 -1.57259 0.103575 0
M  V30 10956 C 1041.99 -1.81816 -0.424239 0
M  V30 10957 C 1042.34 -1.01976 -1.67617 0
M  V30 10958 O 1041.47 -0.251673 -2.14932 0
M  V30 10959 C 1042.06 -3.29783 -0.776453 0
M  V30 10960 C 1040.62 -3.55074 -1.24897 0
M  V30 10961 C 1039.77 -2.76172 -0.249875 0
M  V30 10962 H 1042.72 -1.55254 0.328913 0
M  V30 10963 H 1042.74 -3.43569 -1.63526 0
M  V30 10964 H 1042.25 -3.87865 0.134906 0
M  V30 10965 H 1040.36 -3.02332 -2.17775 0
M  V30 10966 H 1040.47 -4.637 -1.20495 0
M  V30 10967 H 1038.83 -2.43902 -0.733767 0
M  V30 10968 H 1039.62 -3.37007 0.65431 0
M  V30 10969 N 1042.06 0.170153 -1.56679 0
M  V30 10970 C 1043.47 0.732502 -1.7173 0
M  V30 10971 C 1043.82 1.82736 -0.71428 0
M  V30 10972 O 1042.95 2.16044 0.124102 0
M  V30 10973 C 1043.54 1.33548 -3.11368 0
M  V30 10974 C 1042.1 1.84464 -3.281 0
M  V30 10975 C 1041.25 0.724069 -2.6768 0
M  V30 10976 H 1044.2 -0.0552543 -1.58604 0
M  V30 10977 H 1044.22 2.20519 -3.10083 0
M  V30 10978 H 1043.73 0.5384 -3.84347 0
M  V30 10979 H 1041.83 2.66813 -2.6008 0
M  V30 10980 H 1041.95 1.98928 -4.35849 0
M  V30 10981 H 1040.31 1.14481 -2.27522 0
M  V30 10982 H 1041.09 -0.0611861 -3.43245 0
M  V30 10983 N 1043.54 1.5137 0.438746 0
M  V30 10984 C 1044.95 1.56462 1.01866 0
M  V30 10985 C 1045.3 0.387244 1.9234 0
M  V30 10986 O 1044.43 -0.496131 2.10636 0
M  V30 10987 C 1045.02 2.83557 1.85421 0
M  V30 10988 C 1043.58 2.91224 2.38464 0
M  V30 10989 C 1042.73 2.51109 1.17641 0
M  V30 10990 H 1045.68 1.57167 0.220072 0
M  V30 10991 H 1045.7 2.6724 2.70857 0
M  V30 10992 H 1045.21 3.69229 1.19546 0
M  V30 10993 H 1043.31 2.09979 3.07798 0
M  V30 10994 H 1043.42 3.94844 2.71358 0
M  V30 10995 H 1041.79 2.04276 1.5213 0
M  V30 10996 H 1042.57 3.39125 0.533785 0
M  V30 10997 N 1045.02 -0.694098 1.41492 0
M  V30 10998 C 1045.95 -1.82042 1.46229 0
M  V30 10999 C 1046.93 -1.67047 0.320803 0
M  V30 11000 O 1048.11 -1.86758 0.53245 0
M  V30 11001 C 1045.24 -3.2019 1.34519 0
M  V30 11002 C 1044.2 -3.49892 2.46495 0
M  V30 11003 C 1043.52 -4.87411 2.1985 0
M  V30 11004 C 1044.82 -3.4872 3.88834 0
M  V30 11005 H 1046.52 -1.78335 2.40493 0
M  V30 11006 H 1044.06 -0.856566 1.15754 0
M  V30 11007 H 1046.02 -3.98699 1.36445 0
M  V30 11008 H 1044.74 -3.24527 0.367406 0
M  V30 11009 H 1043.4 -2.73734 2.43854 0
M  V30 11010 H 1043.05 -4.88375 1.20411 0
M  V30 11011 H 1042.75 -5.08248 2.94885 0
M  V30 11012 H 1044.27 -5.68228 2.23494 0
M  V30 11013 H 1045.68 -4.1723 3.93182 0
M  V30 11014 H 1044.08 -3.81089 4.63564 0
M  V30 11015 H 1045.15 -2.47665 4.16881 0
M  V30 11016 N 1046.49 -1.27344 -0.928501 0
M  V30 11017 C 1047.72 -1.16447 -1.7102 0
M  V30 11018 C 1048.14 0.278799 -1.8673 0
M  V30 11019 O 1047.49 1.18989 -1.38376 0
M  V30 11020 C 1047.55 -1.84242 -3.11026 0
M  V30 11021 O 1047.27 -3.2293 -2.96054 0
M  V30 11022 C 1048.77 -1.7946 -4.05351 0
M  V30 11023 H 1045.99 -0.404898 -0.535069 0
M  V30 11024 H 1048.53 -1.68201 -1.16313 0
M  V30 11025 H 1046.69 -1.36395 -3.62595 0
M  V30 11026 H 1047.1 -3.5667 -3.8456 0
M  V30 11027 H 1048.57 -2.31511 -5.01105 0
M  V30 11028 H 1049.05 -0.763771 -4.32508 0
M  V30 11029 H 1049.66 -2.26918 -3.59706 0
M  V30 11030 N 1047.97 1.13488 -1.09353 0
M  V30 11031 C 1049.38 1.66299 -0.848609 0
M  V30 11032 C 1049.73 1.86044 0.623051 0
M  V30 11033 O 1048.86 1.57871 1.48005 0
M  V30 11034 C 1049.45 3.02087 -1.53391 0
M  V30 11035 C 1048.01 3.51893 -1.33598 0
M  V30 11036 C 1047.16 2.27154 -1.59048 0
M  V30 11037 H 1050.11 0.974208 -1.25279 0
M  V30 11038 H 1050.13 3.68018 -0.966587 0
M  V30 11039 H 1049.64 2.87684 -2.60498 0
M  V30 11040 H 1047.75 3.715 -0.286045 0
M  V30 11041 H 1047.86 4.32059 -2.0703 0
M  V30 11042 H 1046.22 2.33708 -1.01256 0
M  V30 11043 H 1047.01 2.15317 -2.67383 0
M  V30 11044 N 1049.45 0.880621 1.30701 0
M  V30 11045 C 1050.68 0.511682 2.00473 0
M  V30 11046 C 1051.09 -0.898684 1.6604 0
M  V30 11047 O 1050.45 -1.59035 0.895218 0
M  V30 11048 C 1050.5 0.671723 3.55204 0
M  V30 11049 O 1050.22 2.02656 3.8841 0
M  V30 11050 C 1051.72 0.3052 4.42248 0
M  V30 11051 H 1048.94 0.198231 0.64105 0
M  V30 11052 H 1051.49 1.18472 1.66687 0
M  V30 11053 H 1049.64 0.0461066 3.87373 0
M  V30 11054 H 1050.06 2.04202 4.83117 0
M  V30 11055 H 1051.53 0.468095 5.50012 0
M  V30 11056 H 1052.01 -0.756456 4.32637 0
M  V30 11057 H 1052.61 0.906959 4.15517 0
M  V30 11058 N 1050.93 -1.4397 0.641131 0
M  V30 11059 C 1052.15 -2.06818 0.155318 0
M  V30 11060 C 1052.58 -1.47665 -1.16519 0
M  V30 11061 O 1051.94 -0.58192 -1.71707 0
M  V30 11062 C 1051.99 -3.60542 0.0647537 0
M  V30 11063 O 1051.09 -4.00674 -0.976447 0
M  V30 11064 H 1050.43 -0.657962 0.0893404 0
M  V30 11065 H 1052.96 -1.84678 0.88064 0
M  V30 11066 H 1052.97 -4.07816 -0.122552 0
M  V30 11067 H 1051.65 -4.02975 1.02878 0
M  V30 11068 H 1050.22 -3.65013 -0.762905 0
M  V30 11069 N 1052.41 -0.382291 -1.52893 0
M  V30 11070 C 1053.35 0.456234 -2.26246 0
M  V30 11071 C 1054.32 1.06366 -1.27575 0
M  V30 11072 O 1055.51 1.09301 -1.5639 0
M  V30 11073 C 1052.65 1.5813 -3.06739 0
M  V30 11074 C 1051.76 0.997416 -4.20328 0
M  V30 11075 C 1050.9 2.09296 -4.8823 0
M  V30 11076 C 1049.94 1.4846 -5.93823 0
M  V30 11077 N 1049.07 2.51916 -6.55349 0
M  V30 11078 H 1053.91 -0.175761 -2.97481 0
M  V30 11079 H 1051.45 -0.0985046 -1.4677 0
M  V30 11080 H 1053.41 2.24426 -3.51694 0
M  V30 11081 H 1052.04 2.18371 -2.37727 0
M  V30 11082 H 1051.09 0.224251 -3.79738 0
M  V30 11083 H 1052.4 0.512784 -4.96157 0
M  V30 11084 H 1051.56 2.83377 -5.36453 0
M  V30 11085 H 1050.3 2.61116 -4.1191 0
M  V30 11086 H 1049.3 0.729001 -5.44946 0
M  V30 11087 H 1050.53 0.97443 -6.72073 0
M  V30 11088 H 1048.47 3.02919 -5.81873 0
M  V30 11089 H 1048.39 2.08188 -7.26769 0
M  V30 11090 H 1049.66 3.25649 -7.08218 0
M  V30 11091 N 1053.89 1.57202 -0.111913 0
M  V30 11092 C 1055.13 1.95239 0.548607 0
M  V30 11093 C 1055.46 0.994897 1.6678 0
M  V30 11094 O 1054.74 0.0308603 1.94476 0
M  V30 11095 C 1055.02 3.43271 1.08798 0
M  V30 11096 C 1054.88 4.49792 -0.0273064 0
M  V30 11097 C 1056.19 3.92989 1.98109 0
M  V30 11098 H 1053.31 0.709919 0.197951 0
M  V30 11099 H 1055.96 1.89087 -0.186036 0
M  V30 11100 H 1054.11 3.48644 1.71404 0
M  V30 11101 H 1055.78 4.56521 -0.662302 0
M  V30 11102 H 1054.02 4.28254 -0.691426 0
M  V30 11103 H 1054.69 5.50612 0.391201 0
M  V30 11104 H 1057.17 3.89875 1.45385 0
M  V30 11105 H 1056.04 4.97101 2.32769 0
M  V30 11106 H 1056.3 3.33267 2.90492 0
M  V30 11107 N 1055.36 -0.161842 1.56767 0
M  V30 11108 C 1056.59 -0.890953 1.86402 0
M  V30 11109 C 1057 -1.75918 0.696373 0
M  V30 11110 O 1056.34 -1.80461 -0.343463 0
M  V30 11111 C 1056.41 -1.81079 3.10565 0
M  V30 11112 C 1056.07 -1.12121 4.43032 0
M  V30 11113 C 1057.07 -0.482152 5.17659 0
M  V30 11114 C 1054.75 -1.11514 4.89765 0
M  V30 11115 C 1056.75 0.153772 6.37214 0
M  V30 11116 C 1054.43 -0.4754 6.09248 0
M  V30 11117 C 1055.43 0.157944 6.82817 0
M  V30 11118 O 1055.12 0.787579 8.00033 0
M  V30 11119 H 1054.85 -0.26379 0.622407 0
M  V30 11120 H 1057.41 -0.163884 2.04745 0
M  V30 11121 H 1055.64 -2.57842 2.88192 0
M  V30 11122 H 1057.32 -2.41056 3.26568 0
M  V30 11123 H 1058.09 -0.478752 4.82631 0
M  V30 11124 H 1053.97 -1.59752 4.32435 0
M  V30 11125 H 1057.51 0.648716 6.94577 0
M  V30 11126 H 1053.41 -0.476416 6.43739 0
M  V30 11127 H 1054.18 0.687769 8.15605 0
M  V30 11128 N 1056.84 -1.516 -0.430713 0
M  V30 11129 C 1058.07 -1.68414 -1.20185 0
M  V30 11130 C 1058.48 -0.384297 -1.84847 0
M  V30 11131 O 1057.84 0.637808 -1.70992 0
M  V30 11132 C 1057.89 -2.80451 -2.28099 0
M  V30 11133 O 1057.61 -4.05399 -1.66081 0
M  V30 11134 C 1059.11 -3.0859 -3.18256 0
M  V30 11135 H 1056.33 -0.564982 -0.361989 0
M  V30 11136 H 1058.88 -1.9805 -0.50954 0
M  V30 11137 H 1057.03 -2.53395 -2.93036 0
M  V30 11138 H 1057.45 -4.67671 -2.37453 0
M  V30 11139 H 1058.92 -3.9055 -3.90096 0
M  V30 11140 H 1059.4 -2.21264 -3.79393 0
M  V30 11141 H 1060 -3.37331 -2.59014 0
M  V30 11142 N 1058.32 0.686584 -1.41858 0
M  V30 11143 C 1059.57 1.44235 -1.40994 0
M  V30 11144 C 1059.88 1.95583 -0.0254979 0
M  V30 11145 O 1061.09 2.71294 0.10576 0
M  V30 11146 C 1059.54 2.6086 -2.47952 0
M  V30 11147 C 1059.15 2.16259 -3.92347 0
M  V30 11148 C 1060.9 3.38441 -2.56237 0
M  V30 11149 C 1058.8 3.29896 -4.90838 0
M  V30 11150 H 1057.73 0.54181 -0.524364 0
M  V30 11151 H 1060.38 0.744486 -1.67719 0
M  V30 11152 H 1058.77 3.32957 -2.14373 0
M  V30 11153 H 1059.94 1.51392 -4.35221 0
M  V30 11154 H 1058.25 1.51648 -3.87804 0
M  V30 11155 H 1060.85 4.23052 -3.27003 0
M  V30 11156 H 1061.19 3.84238 -1.6021 0
M  V30 11157 H 1061.73 2.73406 -2.88953 0
M  V30 11158 H 1058.47 2.89104 -5.88302 0
M  V30 11159 H 1057.99 3.93584 -4.52606 0
M  V30 11160 H 1059.67 3.95541 -5.12012 0
M  V30 11161 N 1059.8 1.27835 0.921735 0
M  V30 11162 C 1061.21 1.05369 1.19873 0
M  V30 11163 C 1061.41 -0.208997 2.00413 0
M  V30 11164 O 1060.47 -0.912861 2.35421 0
M  V30 11165 C 1061.78 2.29658 1.94108 0
M  V30 11166 C 1063.33 2.34756 2.07023 0
M  V30 11167 C 1063.81 3.5879 2.84664 0
M  V30 11168 N 1065.3 3.59383 2.9223 0
M  V30 11169 C 1066.03 4.52029 3.52785 0
M  V30 11170 N 1065.53 5.54986 4.14683 0
M  V30 11171 N 1067.32 4.39641 3.50246 0
M  V30 11172 H 1059.47 2.08903 0.383819 0
M  V30 11173 H 1061.73 0.919065 0.232429 0
M  V30 11174 H 1061.44 3.21604 1.4235 0
M  V30 11175 H 1061.31 2.35444 2.94696 0
M  V30 11176 H 1063.7 1.43312 2.57965 0
M  V30 11177 H 1063.78 2.32969 1.05636 0
M  V30 11178 H 1063.43 4.50574 2.34404 0
M  V30 11179 H 1063.36 3.57829 3.86349 0
M  V30 11180 H 1065.85 2.84927 2.48244 0
M  V30 11181 H 1066.16 6.21837 4.58845 0
M  V30 11182 H 1064.51 5.58822 4.13211 0
M  V30 11183 H 1067.7 3.58413 3.01094 0
M  V30 11184 H 1067.87 5.12033 3.97148 0
M  V30 11185 N 1061.28 -1.12907 1.09954 0
M  V30 11186 C 1062.69 -1.65847 0.857417 0
M  V30 11187 C 1063.04 -1.86372 -0.613176 0
M  V30 11188 O 1062.16 -1.58654 -1.47166 0
M  V30 11189 C 1062.76 -3.01269 1.54991 0
M  V30 11190 C 1061.32 -3.51179 1.35462 0
M  V30 11191 C 1060.46 -2.26307 1.60251 0
M  V30 11192 H 1063.41 -0.96755 1.25794 0
M  V30 11193 H 1063.44 -3.675 0.986091 0
M  V30 11194 H 1062.95 -2.86299 2.6202 0
M  V30 11195 H 1061.05 -3.71343 0.305742 0
M  V30 11196 H 1061.16 -4.30955 2.09318 0
M  V30 11197 H 1059.53 -2.33167 1.02494 0
M  V30 11198 H 1060.31 -2.13896 2.68521 0
M  V30 11199 N 1062.75 -0.88754 -1.30232 0
M  V30 11200 C 1063.98 -0.521549 -1.99909 0
M  V30 11201 C 1064.39 0.895086 -1.66688 0
M  V30 11202 O 1063.73 1.60053 -0.90159 0
M  V30 11203 C 1063.8 -0.619564 -3.54121 0
M  V30 11204 C 1063.46 -2.00097 -4.10865 0
M  V30 11205 C 1064.46 -2.97068 -4.26669 0
M  V30 11206 C 1062.14 -2.30706 -4.46184 0
M  V30 11207 C 1064.14 -4.2278 -4.77007 0
M  V30 11208 C 1061.82 -3.56663 -4.96221 0
M  V30 11209 C 1062.82 -4.52515 -5.11585 0
M  V30 11210 O 1062.51 -5.76237 -5.60541 0
M  V30 11211 H 1062.24 -0.199904 -0.645766 0
M  V30 11212 H 1064.8 -1.19546 -1.67027 0
M  V30 11213 H 1063.03 0.111334 -3.8654 0
M  V30 11214 H 1064.71 -0.26448 -4.05037 0
M  V30 11215 H 1065.48 -2.74734 -3.99683 0
M  V30 11216 H 1061.36 -1.56865 -4.33491 0
M  V30 11217 H 1064.9 -4.97603 -4.88914 0
M  V30 11218 H 1060.8 -3.78834 -5.22643 0
M  V30 11219 H 1061.57 -5.78655 -5.78879 0
M  V30 11220 N 1064.23 1.43628 -0.648757 0
M  V30 11221 C 1065.48 2.01864 -0.160336 0
M  V30 11222 C 1065.81 1.51148 1.22412 0
M  V30 11223 O 1065.06 0.693168 1.83013 0
M  V30 11224 C 1065.36 3.57214 -0.115282 0
M  V30 11225 C 1065.03 4.27258 -1.44088 0
M  V30 11226 C 1063.69 4.46109 -1.8039 0
M  V30 11227 C 1066.04 4.66962 -2.31508 0
M  V30 11228 C 1063.37 5.01928 -3.03785 0
M  V30 11229 C 1065.72 5.24148 -3.54191 0
M  V30 11230 C 1064.39 5.41216 -3.90694 0
M  V30 11231 H 1063.66 0.738674 -0.0586712 0
M  V30 11232 H 1066.3 1.72163 -0.838578 0
M  V30 11233 H 1064.61 3.86431 0.646395 0
M  V30 11234 H 1066.3 4.00025 0.279425 0
M  V30 11235 H 1062.89 4.12928 -1.14842 0
M  V30 11236 H 1067.08 4.52095 -2.04753 0
M  V30 11237 H 1062.33 5.13328 -3.32122 0
M  V30 11238 H 1066.51 5.53861 -4.22151 0
M  V30 11239 H 1064.14 5.84234 -4.8639 0
M  V30 11240 N 1065.71 0.390394 1.52688 0
M  V30 11241 C 1067.12 -0.083394 1.86514 0
M  V30 11242 C 1067.47 -1.46057 1.31003 0
M  V30 11243 O 1066.6 -2.06663 0.641809 0
M  V30 11244 C 1067.19 -0.158102 3.38431 0
M  V30 11245 C 1065.75 -0.576186 3.71964 0
M  V30 11246 C 1064.9 0.261156 2.76068 0
M  V30 11247 H 1067.85 0.608226 1.46582 0
M  V30 11248 H 1067.87 -0.977023 3.67742 0
M  V30 11249 H 1067.38 0.844365 3.78803 0
M  V30 11250 H 1065.48 -1.58598 3.37161 0
M  V30 11251 H 1065.6 -0.333577 4.77937 0
M  V30 11252 H 1063.96 -0.273737 2.53225 0
M  V30 11253 H 1064.74 1.26162 3.19277 0
M  V30 11254 N 1067.19 -1.57141 0.120249 0
M  V30 11255 C 1068.14 -2.15379 -0.829497 0
M  V30 11256 C 1069.11 -1.07913 -1.2627 0
M  V30 11257 O 1070.29 -1.35827 -1.33999 0
M  V30 11258 C 1067.43 -2.75847 -2.0737 0
M  V30 11259 C 1066.54 -3.97624 -1.68875 0
M  V30 11260 C 1065.68 -4.46175 -2.88272 0
M  V30 11261 C 1064.72 -5.60481 -2.46023 0
M  V30 11262 N 1063.85 -6.0377 -3.58337 0
M  V30 11263 H 1068.69 -2.96211 -0.326031 0
M  V30 11264 H 1066.23 -1.46341 -0.149235 0
M  V30 11265 H 1068.19 -3.09037 -2.80272 0
M  V30 11266 H 1066.82 -1.97703 -2.55174 0
M  V30 11267 H 1065.87 -3.70588 -0.858431 0
M  V30 11268 H 1067.18 -4.80512 -1.33827 0
M  V30 11269 H 1066.34 -4.8128 -3.69397 0
M  V30 11270 H 1065.08 -3.6224 -3.26548 0
M  V30 11271 H 1064.08 -5.24979 -1.63331 0
M  V30 11272 H 1065.31 -6.46184 -2.08863 0
M  V30 11273 H 1063.25 -5.22776 -3.96284 0
M  V30 11274 H 1063.17 -6.81517 -3.27217 0
M  V30 11275 H 1064.44 -6.43514 -4.39898 0
M  V30 11276 N 1068.67 0.153526 -1.5685 0
M  V30 11277 C 1069.94 0.895545 -1.73895 0
M  V30 11278 C 1070.32 1.99625 -0.686504 0
M  V30 11279 O 1069.67 2.26579 0.2957 0
M  V30 11280 C 1069.88 1.44399 -3.17726 0
M  V30 11281 C 1071.23 1.90996 -3.79217 0
M  V30 11282 O 1072.25 1.54155 -3.21115 0
M  V30 11283 O 1071.11 2.58917 -4.81274 0
M  V30 11284 H 1068.21 0.422755 -0.710779 0
M  V30 11285 H 1070.75 0.139961 -1.69122 0
M  V30 11286 H 1069.52 0.652635 -3.85819 0
M  V30 11287 H 1069.15 2.26326 -3.26898 0
M  V30 11288 N 1070.14 1.51827 0.422667 0
M  V30 11289 C 1071.05 1.77066 1.53899 0
M  V30 11290 C 1072.07 0.655541 1.61179 0
M  V30 11291 O 1073.25 0.939448 1.78147 0
M  V30 11292 C 1070.31 1.90372 2.89758 0
M  V30 11293 C 1069.37 3.14256 2.92475 0
M  V30 11294 C 1068.61 3.26918 4.21853 0
M  V30 11295 O 1068.83 2.45164 5.15025 0
M  V30 11296 O 1067.76 4.19989 4.31153 0
M  V30 11297 H 1071.59 2.71791 1.35511 0
M  V30 11298 H 1069.17 1.36506 0.607165 0
M  V30 11299 H 1071.06 2.01024 3.70361 0
M  V30 11300 H 1069.73 0.988347 3.08242 0
M  V30 11301 H 1068.64 3.09072 2.10773 0
M  V30 11302 H 1069.97 4.0553 2.78937 0
M  V30 11303 N 1071.62 -0.679052 1.4222 0
M  V30 11304 C 1072.59 -1.77448 1.45069 0
M  V30 11305 C 1073.59 -1.57189 0.338882 0
M  V30 11306 O 1074.78 -1.63559 0.599519 0
M  V30 11307 C 1071.91 -3.1603 1.27819 0
M  V30 11308 H 1073.1 -1.7631 2.426 0
M  V30 11309 H 1070.65 -0.888277 1.28605 0
M  V30 11310 H 1071.39 -3.22796 0.311946 0
M  V30 11311 H 1071.17 -3.32138 2.08391 0
M  V30 11312 H 1072.66 -3.9596 1.32686 0
M  V30 11313 N 1073.1 -1.28322 -0.914942 0
M  V30 11314 C 1074.33 -1.1837 -1.70304 0
M  V30 11315 C 1074.75 0.254291 -1.86373 0
M  V30 11316 O 1074.11 1.18398 -1.37301 0
M  V30 11317 C 1074.16 -1.88603 -3.07346 0
M  V30 11318 O 1073.26 -1.19268 -3.94777 0
M  V30 11319 H 1072.6 -0.410978 -0.52153 0
M  V30 11320 H 1075.13 -1.69622 -1.14409 0
M  V30 11321 H 1075.14 -1.96463 -3.57584 0
M  V30 11322 H 1073.82 -2.93201 -2.94967 0
M  V30 11323 H 1072.39 -1.19563 -3.53212 0
M  V30 11324 N 1074.58 1.12322 -1.10551 0
M  V30 11325 C 1075.82 1.8413 -0.849932 0
M  V30 11326 C 1076.16 1.83938 0.622946 0
M  V30 11327 O 1075.43 1.28579 1.45937 0
M  V30 11328 C 1075.72 3.31751 -1.40048 0
M  V30 11329 C 1075.57 3.40391 -2.9403 0
M  V30 11330 C 1076.89 4.27543 -1.04379 0
M  V30 11331 H 1074.01 0.668533 -0.310213 0
M  V30 11332 H 1076.65 1.31766 -1.36886 0
M  V30 11333 H 1074.8 3.76475 -0.959102 0
M  V30 11334 H 1076.47 3.04294 -3.46703 0
M  V30 11335 H 1074.71 2.809 -3.30571 0
M  V30 11336 H 1075.38 4.44252 -3.27635 0
M  V30 11337 H 1077.86 3.90951 -1.42466 0
M  V30 11338 H 1076.74 5.2924 -1.4559 0
M  V30 11339 H 1077 4.42075 0.0466316 0
M  V30 11340 N 1076.06 0.894434 1.2976 0
M  V30 11341 C 1077.29 0.532143 1.99629 0
M  V30 11342 C 1077.69 -0.886234 1.6716 0
M  V30 11343 O 1077.04 -1.59573 0.910065 0
M  V30 11344 C 1077.1 0.638335 3.53787 0
M  V30 11345 C 1076.76 2.02273 4.09798 0
M  V30 11346 C 1077.76 2.99327 4.25087 0
M  V30 11347 C 1075.45 2.33069 4.44954 0
M  V30 11348 C 1077.44 4.25304 4.74758 0
M  V30 11349 C 1075.13 3.59289 4.94322 0
M  V30 11350 C 1076.12 4.55222 5.09178 0
M  V30 11351 O 1075.81 5.79202 5.57477 0
M  V30 11352 H 1075.54 0.203326 0.644697 0
M  V30 11353 H 1078.1 1.2043 1.6639 0
M  V30 11354 H 1076.33 -0.0908338 3.86593 0
M  V30 11355 H 1078.02 0.285956 4.04891 0
M  V30 11356 H 1078.78 2.76849 3.9822 0
M  V30 11357 H 1074.66 1.59162 4.32653 0
M  V30 11358 H 1078.21 5.00189 4.86269 0
M  V30 11359 H 1074.1 3.816 5.20626 0
M  V30 11360 H 1074.87 5.81717 5.75802 0
M  V30 11361 N 1077.53 -1.43282 0.656365 0
M  V30 11362 C 1078.48 -2.30776 -0.0333155 0
M  V30 11363 C 1079.45 -1.44928 -0.811493 0
M  V30 11364 O 1080.64 -1.73792 -0.787465 0
M  V30 11365 C 1077.78 -3.30548 -0.991566 0
M  V30 11366 C 1076.89 -4.31493 -0.209159 0
M  V30 11367 C 1076.02 -5.18346 -1.16149 0
M  V30 11368 C 1075.06 -6.10983 -0.369699 0
M  V30 11369 N 1074.2 -6.90449 -1.27378 0
M  V30 11370 H 1079.04 -2.89204 0.718668 0
M  V30 11371 H 1076.58 -1.4247 0.366161 0
M  V30 11372 H 1078.54 -3.86905 -1.56078 0
M  V30 11373 H 1077.17 -2.73762 -1.71039 0
M  V30 11374 H 1076.22 -3.77405 0.476394 0
M  V30 11375 H 1077.53 -4.97142 0.406394 0
M  V30 11376 H 1076.68 -5.79345 -1.80124 0
M  V30 11377 H 1075.42 -4.52831 -1.81095 0
M  V30 11378 H 1074.43 -5.49069 0.283377 0
M  V30 11379 H 1075.65 -6.78541 0.275399 0
M  V30 11380 H 1073.6 -6.27579 -1.90999 0
M  V30 11381 H 1073.52 -7.52631 -0.71287 0
M  V30 11382 H 1074.78 -7.5595 -1.90158 0
M  V30 11383 N 1079.01 -0.398486 -1.52479 0
M  V30 11384 C 1080.26 0.182046 -2.00877 0
M  V30 11385 C 1080.58 1.47128 -1.2889 0
M  V30 11386 O 1081.78 2.13242 -1.68048 0
M  V30 11387 C 1080.24 0.374978 -3.57941 0
M  V30 11388 C 1079.85 -0.901544 -4.38835 0
M  V30 11389 C 1081.59 0.911378 -4.14601 0
M  V30 11390 C 1079.5 -0.676385 -5.87519 0
M  V30 11391 H 1078.43 0.0718068 -0.750573 0
M  V30 11392 H 1081.08 -0.522297 -1.7591 0
M  V30 11393 H 1079.46 1.14139 -3.79194 0
M  V30 11394 H 1080.63 -1.67329 -4.29346 0
M  V30 11395 H 1078.95 -1.36357 -3.93441 0
M  V30 11396 H 1081.55 1.09569 -5.23353 0
M  V30 11397 H 1081.89 1.88306 -3.71277 0
M  V30 11398 H 1082.42 0.204296 -3.97275 0
M  V30 11399 H 1079.16 -1.61933 -6.35184 0
M  V30 11400 H 1078.68 0.0562542 -5.99774 0
M  V30 11401 H 1080.36 -0.314454 -6.46235 0
M  V30 11402 N 1080.49 1.57075 -0.12858 0
M  V30 11403 C 1081.73 1.97408 0.530059 0
M  V30 11404 C 1082.1 1.01087 1.63234 0
M  V30 11405 O 1083.3 1.30394 2.35055 0
M  V30 11406 C 1081.57 3.41928 1.04021 0
M  V30 11407 S 1083.13 4.04277 1.70603 0
M  V30 11408 H 1079.94 0.689884 0.17199 0
M  V30 11409 H 1082.55 1.94304 -0.215933 0
M  V30 11410 H 1081.25 4.09772 0.226928 0
M  V30 11411 H 1080.78 3.48703 1.82125 0
M  V30 11412 H 1082.8 3.95819 2.99235 0
M  V30 11413 N 1081.97 -0.145205 1.5693 0
M  V30 11414 C 1083.39 -0.497905 1.51635 0
M  V30 11415 C 1083.59 -1.8328 0.837301 0
M  V30 11416 O 1082.64 -2.49172 0.408584 0
M  V30 11417 C 1083.95 -0.506557 2.96403 0
M  V30 11418 C 1085.5 -0.591947 3.07352 0
M  V30 11419 C 1085.98 -0.631244 4.53629 0
M  V30 11420 N 1087.47 -0.693417 4.5798 0
M  V30 11421 C 1088.2 -0.744836 5.68542 0
M  V30 11422 N 1087.7 -0.755492 6.88668 0
M  V30 11423 N 1089.49 -0.785854 5.5658 0
M  V30 11424 H 1081.64 0.729779 1.99469 0
M  V30 11425 H 1083.91 0.266295 0.90983 0
M  V30 11426 H 1083.61 0.406127 3.49347 0
M  V30 11427 H 1083.49 -1.34383 3.5245 0
M  V30 11428 H 1085.87 -1.49505 2.54425 0
M  V30 11429 H 1085.95 0.272507 2.54344 0
M  V30 11430 H 1085.6 0.26771 5.07194 0
M  V30 11431 H 1085.53 -1.51221 5.0442 0
M  V30 11432 H 1088.02 -0.692408 3.71503 0
M  V30 11433 H 1088.33 -0.796624 7.68683 0
M  V30 11434 H 1086.68 -0.723339 6.91226 0
M  V30 11435 H 1089.87 -0.774712 4.61645 0
M  V30 11436 H 1090.04 -0.822461 6.42759 0
M  V30 11437 N 1083.45 -1.52049 -0.414609 0
M  V30 11438 C 1084.36 -1.7788 -1.52958 0
M  V30 11439 C 1085.37 -0.66408 -1.60829 0
M  V30 11440 O 1086.55 -0.948882 -1.77646 0
M  V30 11441 C 1083.61 -1.91906 -2.88744 0
M  V30 11442 C 1082.68 -3.15803 -2.90804 0
M  V30 11443 C 1081.91 -3.29151 -4.20114 0
M  V30 11444 O 1082.13 -2.47892 -5.13718 0
M  V30 11445 O 1081.07 -4.2227 -4.28919 0
M  V30 11446 H 1084.89 -2.72506 -1.34067 0
M  V30 11447 H 1082.48 -1.36826 -0.599918 0
M  V30 11448 H 1084.36 -2.02986 -3.6929 0
M  V30 11449 H 1083.03 -1.00468 -3.07714 0
M  V30 11450 H 1081.94 -3.10185 -2.09131 0
M  V30 11451 H 1083.27 -4.07004 -2.76783 0
M  V30 11452 N 1084.93 0.6715 -1.42579 0
M  V30 11453 C 1085.86 1.79625 -1.40749 0
M  V30 11454 C 1086.84 1.6032 -0.271312 0
M  V30 11455 O 1088.02 1.82749 -0.46205 0
M  V30 11456 C 1085.15 3.16672 -1.20153 0
M  V30 11457 C 1084.19 3.54718 -2.36807 0
M  V30 11458 S 1085.03 3.56771 -3.99343 0
M  V30 11459 C 1086.18 4.96505 -3.81095 0
M  V30 11460 H 1086.42 1.80903 -2.35926 0
M  V30 11461 H 1083.95 0.842469 -1.2939 0
M  V30 11462 H 1085.91 3.95776 -1.08956 0
M  V30 11463 H 1084.57 3.12976 -0.265545 0
M  V30 11464 H 1083.76 4.54341 -2.18152 0
M  V30 11465 H 1083.36 2.82982 -2.44535 0
M  V30 11466 H 1085.65 5.84674 -3.4229 0
M  V30 11467 H 1086.6 5.20207 -4.80406 0
M  V30 11468 H 1087.01 4.69178 -3.13898 0
M  V30 11469 N 1086.4 1.28806 0.908124 0
M  V30 11470 C 1087.63 1.1898 1.689 0
M  V30 11471 C 1088.04 -0.253334 1.87496 0
M  V30 11472 O 1087.38 -1.18245 1.40584 0
M  V30 11473 C 1087.45 1.82266 3.0987 0
M  V30 11474 C 1087.11 3.31534 3.14538 0
M  V30 11475 C 1088.11 4.27886 2.95313 0
M  V30 11476 C 1085.79 3.72589 3.36872 0
M  V30 11477 C 1087.79 5.63267 2.98343 0
M  V30 11478 C 1085.47 5.08095 3.39534 0
M  V30 11479 C 1086.47 6.03244 3.2029 0
M  V30 11480 O 1086.16 7.36277 3.22724 0
M  V30 11481 H 1085.89 0.413772 0.534574 0
M  V30 11482 H 1088.45 1.7055 1.14464 0
M  V30 11483 H 1086.68 1.25197 3.65872 0
M  V30 11484 H 1088.36 1.6688 3.70008 0
M  V30 11485 H 1089.13 3.97502 2.77879 0
M  V30 11486 H 1085.01 2.98989 3.50894 0
M  V30 11487 H 1088.55 6.37511 2.83241 0
M  V30 11488 H 1084.45 5.38126 3.56497 0
M  V30 11489 H 1085.22 7.44976 3.39048 0
M  V30 11490 N 1087.88 -1.11734 1.11145 0
M  V30 11491 C 1089.16 -1.79795 0.770261 0
M  V30 11492 C 1089.54 -1.97624 -0.742158 0
M  V30 11493 O 1088.89 -1.55847 -1.67105 0
M  V30 11494 C 1089.1 -3.13684 1.52982 0
M  V30 11495 C 1090.44 -3.88771 1.70711 0
M  V30 11496 O 1091.47 -3.23363 1.49381 0
M  V30 11497 O 1090.33 -5.06134 2.06132 0
M  V30 11498 H 1087.42 -0.778617 0.27872 0
M  V30 11499 H 1089.97 -1.18504 1.2147 0
M  V30 11500 H 1088.74 -2.96043 2.55879 0
M  V30 11501 H 1088.36 -3.82687 1.07873 0
M  V30 11502 N 1089.36 -0.901303 -1.29284 0
M  V30 11503 C 1090.64 -0.44747 -1.90413 0
M  V30 11504 C 1091.02 1.07298 -1.81797 0
M  V30 11505 O 1090.36 1.91555 -1.24574 0
M  V30 11506 C 1090.57 -0.963849 -3.35427 0
M  V30 11507 C 1091.92 -1.00851 -4.12449 0
M  V30 11508 O 1092.95 -0.91163 -3.44337 0
M  V30 11509 O 1091.81 -1.15426 -5.34171 0
M  V30 11510 H 1088.9 -0.13976 -0.815105 0
M  V30 11511 H 1091.45 -0.991274 -1.37738 0
M  V30 11512 H 1090.22 -2.00782 -3.3586 0
M  V30 11513 H 1089.84 -0.400149 -3.95581 0
M  V30 11514 N 1090.84 1.42931 -0.663954 0
M  V30 11515 C 1092.09 2.01284 -0.181379 0
M  V30 11516 C 1092.41 1.52708 1.21265 0
M  V30 11517 O 1091.68 0.744181 1.81215 0
M  V30 11518 H 1090.26 0.744248 -0.0640646 0
M  V30 11519 H 1092.92 1.74997 -0.858031 0
M  V30 11520 H 1092.01 3.11613 -0.174273 0
M  V30 11521 N 1092.32 0.406567 1.52266 0
M  V30 11522 C 1093.56 -0.170305 2.02084 0
M  V30 11523 C 1093.89 -1.45008 1.29176 0
M  V30 11524 O 1093.17 -1.90399 0.39731 0
M  V30 11525 C 1093.45 -0.420627 3.57635 0
M  V30 11526 C 1093.31 0.87564 4.41194 0
M  V30 11527 C 1094.62 -1.20387 4.23314 0
M  V30 11528 H 1091.74 -0.0604219 0.734519 0
M  V30 11529 H 1094.39 0.539529 1.82179 0
M  V30 11530 H 1092.54 -1.0253 3.74726 0
M  V30 11531 H 1094.21 1.51192 4.35819 0
M  V30 11532 H 1092.45 1.48718 4.07511 0
M  V30 11533 H 1093.12 0.654916 5.48101 0
M  V30 11534 H 1095.6 -0.691972 4.10306 0
M  V30 11535 H 1094.47 -1.34776 5.32096 0
M  V30 11536 H 1094.73 -2.2238 3.82099 0
M  V30 11537 N 1093.79 -1.57004 0.136909 0
M  V30 11538 C 1095.04 -1.9541 -0.51569 0
M  V30 11539 C 1095.36 -1.02219 -1.66061 0
M  V30 11540 O 1094.63 -0.0818172 -1.95729 0
M  V30 11541 H 1093.21 -0.721504 -0.193497 0
M  V30 11542 H 1095.88 -1.93765 0.210046 0
M  V30 11543 H 1094.97 -2.98887 -0.898494 0
M  V30 11544 N 1095.27 0.136881 -1.57004 0
M  V30 11545 C 1096.2 1.17026 -2.02057 0
M  V30 11546 C 1097.18 1.44223 -0.901866 0
M  V30 11547 O 1098.37 1.54971 -1.17037 0
M  V30 11548 C 1095.5 2.50095 -2.40977 0
M  V30 11549 C 1094.45 2.37398 -3.56127 0
M  V30 11550 C 1093.78 3.75268 -3.80891 0
M  V30 11551 C 1095.08 1.84952 -4.88457 0
M  V30 11552 H 1096.77 0.795601 -2.88636 0
M  V30 11553 H 1094.32 0.381266 -1.38861 0
M  V30 11554 H 1096.27 3.22621 -2.71097 0
M  V30 11555 H 1095 2.89416 -1.51348 0
M  V30 11556 H 1093.65 1.67322 -3.26188 0
M  V30 11557 H 1093.3 4.12043 -2.88496 0
M  V30 11558 H 1093 3.67631 -4.5839 0
M  V30 11559 H 1094.53 4.49327 -4.13446 0
M  V30 11560 H 1095.94 2.4728 -5.17229 0
M  V30 11561 H 1094.34 1.88181 -5.69832 0
M  V30 11562 H 1095.41 0.805848 -4.78157 0
M  V30 11563 N 1096.75 1.52266 0.40654 0
M  V30 11564 C 1098.16 1.58587 0.985241 0
M  V30 11565 C 1098.51 0.427955 1.91476 0
M  V30 11566 O 1097.64 -0.451341 2.11641 0
M  V30 11567 C 1098.23 2.87426 1.79365 0
M  V30 11568 C 1096.79 2.96217 2.32233 0
M  V30 11569 C 1095.94 2.53548 1.12288 0
M  V30 11570 H 1098.89 1.57598 0.186685 0
M  V30 11571 H 1098.91 2.72925 2.65127 0
M  V30 11572 H 1098.42 3.71682 1.11687 0
M  V30 11573 H 1096.52 2.1646 3.03275 0
M  V30 11574 H 1096.64 4.00511 2.62922 0
M  V30 11575 H 1095 2.07457 1.47763 0
M  V30 11576 H 1095.78 3.40181 0.461731 0
M  V30 11577 N 1098.23 -0.663929 1.42933 0
M  V30 11578 C 1099.48 -1.42393 1.43981 0
M  V30 11579 C 1099.8 -1.94407 0.0601802 0
M  V30 11580 O 1099.06 -1.72019 -0.933172 0
M  V30 11581 C 1099.36 -2.62976 2.4203 0
M  V30 11582 C 1099.02 -2.29441 3.88159 0
M  V30 11583 C 1097.69 -2.20007 4.27961 0
M  V30 11584 C 1100.04 -2.02413 4.8029 0
M  V30 11585 C 1097.37 -1.81686 5.57859 0
M  V30 11586 C 1099.72 -1.65592 6.10542 0
M  V30 11587 C 1098.38 -1.54676 6.49332 0
M  V30 11588 H 1097.65 -0.521051 0.526865 0
M  V30 11589 H 1100.3 -0.756042 1.75944 0
M  V30 11590 H 1098.6 -3.34847 2.03433 0
M  V30 11591 H 1100.3 -3.21174 2.40101 0
M  V30 11592 H 1096.89 -2.3769 3.56653 0
M  V30 11593 H 1101.07 -2.08628 4.5032 0
M  V30 11594 H 1096.33 -1.71812 5.86763 0
M  V30 11595 H 1100.5 -1.43707 6.81411 0
M  V30 11596 H 1098.13 -1.24752 7.49894 0
M  V30 11597 N 1099.71 -1.29285 -0.901281 0
M  V30 11598 C 1100.64 -1.10086 -2.01032 0
M  V30 11599 C 1101.65 -0.0488364 -1.62727 0
M  V30 11600 O 1102.84 -0.293194 -1.76076 0
M  V30 11601 C 1099.94 -0.653357 -3.32542 0
M  V30 11602 C 1099.11 -1.78355 -3.99385 0
M  V30 11603 C 1098.17 -1.32733 -5.09184 0
M  V30 11604 O 1097.2 -2.03177 -5.31703 0
M  V30 11605 N 1098.4 -0.197345 -5.80164 0
M  V30 11606 H 1101.17 -2.056 -2.18057 0
M  V30 11607 H 1098.73 -1.21204 -1.07337 0
M  V30 11608 H 1100.72 -0.331491 -4.0334 0
M  V30 11609 H 1099.29 0.209278 -3.11899 0
M  V30 11610 H 1098.51 -2.27438 -3.21972 0
M  V30 11611 H 1099.8 -2.54137 -4.40785 0
M  V30 11612 H 1099.19 0.390011 -5.64354 0
M  V30 11613 H 1097.75 0.0651642 -6.51767 0
M  V30 11614 N 1101.18 1.11143 -1.11736 0
M  V30 11615 C 1102.41 1.87285 -0.891007 0
M  V30 11616 C 1102.83 1.79758 0.553971 0
M  V30 11617 O 1102.19 1.16221 1.39149 0
M  V30 11618 C 1102.24 3.33924 -1.36114 0
M  V30 11619 O 1101.34 4.08917 -0.534851 0
M  V30 11620 H 1100.69 0.581418 -0.320701 0
M  V30 11621 H 1103.22 1.40469 -1.4876 0
M  V30 11622 H 1103.23 3.84772 -1.35701 0
M  V30 11623 H 1101.9 3.38719 -2.41334 0
M  V30 11624 H 1100.48 3.67954 -0.605355 0
M  V30 11625 N 1102.66 0.908147 1.28804 0
M  V30 11626 C 1103.59 0.34957 2.26519 0
M  V30 11627 C 1104.61 -0.508845 1.54643 0
M  V30 11628 O 1105.8 -0.324633 1.75523 0
M  V30 11629 C 1102.9 -0.519461 3.34895 0
M  V30 11630 C 1102.07 0.315157 4.36263 0
M  V30 11631 C 1101.13 -0.488059 5.23932 0
M  V30 11632 O 1100.15 0.0974133 5.69117 0
M  V30 11633 N 1101.36 -1.79233 5.52137 0
M  V30 11634 H 1104.12 1.18945 2.75086 0
M  V30 11635 H 1101.68 0.77351 1.42227 0
M  V30 11636 H 1103.67 -1.0634 3.90479 0
M  V30 11637 H 1102.24 -1.26004 2.8608 0
M  V30 11638 H 1101.46 1.04049 3.8022 0
M  V30 11639 H 1102.75 0.886438 5.01019 0
M  V30 11640 H 1102.15 -2.2906 5.1725 0
M  V30 11641 H 1100.71 -2.28322 6.10502 0
M  V30 11642 N 1104.14 -1.42577 0.671525 0
M  V30 11643 C 1105.55 -1.84736 0.270084 0
M  V30 11644 C 1105.9 -1.56212 -1.18711 0
M  V30 11645 O 1105.03 -1.02028 -1.90838 0
M  V30 11646 C 1105.62 -3.35334 0.483409 0
M  V30 11647 C 1104.18 -3.76154 0.136119 0
M  V30 11648 C 1103.33 -2.66179 0.777444 0
M  V30 11649 H 1106.28 -1.3247 0.873919 0
M  V30 11650 H 1106.3 -3.79573 -0.265483 0
M  V30 11651 H 1105.81 -3.56063 1.54405 0
M  V30 11652 H 1103.91 -3.61033 -0.921209 0
M  V30 11653 H 1104.03 -4.75645 0.574356 0
M  V30 11654 H 1102.39 -2.53841 0.209055 0
M  V30 11655 H 1103.17 -2.89732 1.84148 0
M  V30 11656 N 1105.62 -0.414636 -1.52048 0
M  V30 11657 C 1106.9 0.218172 -1.94379 0
M  V30 11658 C 1107.28 1.62133 -1.35189 0
M  V30 11659 O 1106.62 2.22271 -0.529877 0
M  V30 11660 C 1106.83 0.218932 -3.48313 0
M  V30 11661 C 1108.18 0.435604 -4.2236 0
M  V30 11662 O 1109.21 0.298049 -3.54951 0
M  V30 11663 O 1108.06 0.707217 -5.41905 0
M  V30 11664 H 1105.16 0.142173 -0.814688 0
M  V30 11665 H 1107.7 -0.470977 -1.63033 0
M  V30 11666 H 1106.48 -0.76292 -3.83791 0
M  V30 11667 H 1106.1 0.951949 -3.86036 0
M  V30 11668 N 1107.1 1.56929 -0.145233 0
M  V30 11669 C 1108.03 2.19685 0.791263 0
M  V30 11670 C 1109.01 1.14455 1.25833 0
M  V30 11671 O 1110.19 1.42791 1.31622 0
M  V30 11672 C 1107.32 2.81705 2.03124 0
M  V30 11673 C 1106.28 3.92746 1.70101 0
M  V30 11674 C 1105.6 4.41694 3.01347 0
M  V30 11675 C 1106.9 5.13606 0.949025 0
M  V30 11676 H 1108.6 2.98196 0.26825 0
M  V30 11677 H 1106.14 1.43434 0.127584 0
M  V30 11678 H 1108.1 3.24273 2.69119 0
M  V30 11679 H 1106.82 2.00523 2.57795 0
M  V30 11680 H 1105.48 3.50794 1.06486 0
M  V30 11681 H 1105.13 3.57336 3.54006 0
M  V30 11682 H 1104.83 5.1659 2.80016 0
M  V30 11683 H 1106.35 4.86931 3.68416 0
M  V30 11684 H 1107.76 5.53029 1.51102 0
M  V30 11685 H 1106.16 5.94252 0.835711 0
M  V30 11686 H 1107.23 4.84863 -0.0595631 0
M  V30 11687 N 1108.58 -0.128553 1.57075 0
M  V30 11688 C 1109.82 -0.836536 1.83535 0
M  V30 11689 C 1110.14 -1.81491 0.7294 0
M  V30 11690 O 1111.34 -2.56838 0.880128 0
M  V30 11691 C 1109.8 -1.53836 3.25365 0
M  V30 11692 C 1109.41 -0.601454 4.43944 0
M  V30 11693 C 1111.15 -2.23204 3.61082 0
M  V30 11694 C 1109.06 -1.30596 5.768 0
M  V30 11695 H 1107.99 -0.316142 0.684522 0
M  V30 11696 H 1110.64 -0.0892555 1.83283 0
M  V30 11697 H 1109.02 -2.33192 3.20058 0
M  V30 11698 H 1110.2 0.158209 4.60528 0
M  V30 11699 H 1108.51 -0.0152393 4.16397 0
M  V30 11700 H 1111.11 -2.76585 4.57608 0
M  V30 11701 H 1111.45 -3.0056 2.88044 0
M  V30 11702 H 1111.98 -1.50746 3.68131 0
M  V30 11703 H 1108.72 -0.573874 6.52983 0
M  V30 11704 H 1108.24 -2.03787 5.6412 0
M  V30 11705 H 1109.92 -1.8418 6.20231 0
M  V30 11706 N 1110.05 -1.5248 -0.398459 0
M  V30 11707 C 1111.3 -1.66731 -1.14215 0
M  V30 11708 C 1111.62 -0.404957 -1.90749 0
M  V30 11709 O 1110.89 0.580434 -1.87104 0
M  V30 11710 H 1109.47 -0.614577 -0.424622 0
M  V30 11711 H 1112.13 -1.89561 -0.453059 0
M  V30 11712 H 1111.23 -2.51336 -1.85031 0
M  V30 11713 N 1111.53 0.65634 -1.43283 0
M  V30 11714 C 1112.81 1.41339 -1.35213 0
M  V30 11715 C 1113.19 2.111 0.00158494 0
M  V30 11716 O 1112.54 2.0457 1.018 0
M  V30 11717 C 1112.75 2.40066 -2.53317 0
M  V30 11718 C 1114.09 3.04159 -2.96264 0
M  V30 11719 O 1115.12 2.50393 -2.53341 0
M  V30 11720 O 1113.98 4.01633 -3.70612 0
M  V30 11721 H 1111.07 0.631325 -0.534189 0
M  V30 11722 H 1113.62 0.68351 -1.55326 0
M  V30 11723 H 1112.39 1.87444 -3.43483 0
M  V30 11724 H 1112.01 3.20509 -2.35287 0
M  V30 11725 N 1113.01 1.29761 0.894412 0
M  V30 11726 C 1113.96 1.15341 1.99912 0
M  V30 11727 C 1114.93 0.0453488 1.66038 0
M  V30 11728 O 1116.11 0.213829 1.89598 0
M  V30 11729 C 1113.25 0.841432 3.34685 0
M  V30 11730 C 1112.36 2.03046 3.81309 0
M  V30 11731 C 1111.5 1.65739 5.04682 0
M  V30 11732 C 1110.54 2.81191 5.43689 0
M  V30 11733 N 1109.68 2.44244 6.58247 0
M  V30 11734 H 1114.52 2.09854 2.11578 0
M  V30 11735 H 1112.05 1.04421 1.03608 0
M  V30 11736 H 1114.01 0.641211 4.12243 0
M  V30 11737 H 1112.64 -0.066797 3.22731 0
M  V30 11738 H 1111.69 2.34222 2.9974 0
M  V30 11739 H 1113 2.89538 4.06164 0
M  V30 11740 H 1112.16 1.42036 5.8984 0
M  V30 11741 H 1110.9 0.764019 4.81678 0
M  V30 11742 H 1109.9 3.0557 4.57064 0
M  V30 11743 H 1111.13 3.712 5.68672 0
M  V30 11744 H 1109.07 1.57402 6.36837 0
M  V30 11745 H 1108.99 3.24269 6.82924 0
M  V30 11746 H 1110.26 2.23875 7.46659 0
M  V30 11747 N 1114.49 -1.10549 1.12324 0
M  V30 11748 C 1115.42 -2.18911 0.812416 0
M  V30 11749 C 1116.4 -1.68628 -0.22327 0
M  V30 11750 O 1117.58 -1.94015 -0.0847184 0
M  V30 11751 C 1114.71 -3.46288 0.264947 0
M  V30 11752 C 1113.67 -4.09838 1.23356 0
M  V30 11753 C 1112.99 -5.31901 0.546374 0
M  V30 11754 C 1114.29 -4.53686 2.58778 0
M  V30 11755 H 1115.99 -2.45169 1.71851 0
M  V30 11756 H 1113.53 -1.17834 0.827715 0
M  V30 11757 H 1115.49 -4.21385 0.0352364 0
M  V30 11758 H 1114.21 -3.19517 -0.676479 0
M  V30 11759 H 1112.87 -3.36746 1.44906 0
M  V30 11760 H 1112.52 -5.01406 -0.400157 0
M  V30 11761 H 1112.22 -5.75372 1.19249 0
M  V30 11762 H 1113.74 -6.09731 0.325673 0
M  V30 11763 H 1115.16 -5.20063 2.41263 0
M  V30 11764 H 1113.55 -5.08003 3.19457 0
M  V30 11765 H 1114.62 -3.66665 3.17309 0
M  V30 11766 N 1115.97 -0.914965 -1.28321 0
M  V30 11767 C 1117.21 -0.549562 -1.95212 0
M  V30 11768 C 1117.54 0.904658 -1.71842 0
M  V30 11769 O 1116.82 1.64354 -1.04009 0
M  V30 11770 C 1117.1 -0.860927 -3.49657 0
M  V30 11771 C 1116.96 -2.36797 -3.82423 0
M  V30 11772 C 1118.27 -0.357926 -4.38642 0
M  V30 11773 H 1115.39 -0.201136 -0.709023 0
M  V30 11774 H 1118.04 -1.14443 -1.51667 0
M  V30 11775 H 1116.19 -0.354665 -3.86878 0
M  V30 11776 H 1117.86 -2.94494 -3.55065 0
M  V30 11777 H 1116.1 -2.82245 -3.29424 0
M  V30 11778 H 1116.77 -2.53637 -4.90278 0
M  V30 11779 H 1119.25 -0.791636 -4.085 0
M  V30 11780 H 1118.12 -0.604855 -5.45557 0
M  V30 11781 H 1118.38 0.741775 -4.35833 0
M  V30 11782 N 1117.44 1.42219 -0.679077 0
M  V30 11783 C 1118.69 2.01081 -0.202718 0
M  V30 11784 C 1119.01 1.53986 1.19639 0
M  V30 11785 O 1118.28 0.763359 1.80415 0
M  V30 11786 H 1116.86 0.743526 -0.0719547 0
M  V30 11787 H 1119.52 1.74077 -0.876544 0
M  V30 11788 H 1118.62 3.11411 -0.207314 0
M  V30 11789 N 1118.92 0.422693 1.51826 0
M  V30 11790 C 1120.17 -0.148348 2.01555 0
M  V30 11791 C 1120.49 -1.44483 1.30956 0
M  V30 11792 O 1119.76 -1.90904 0.439599 0
M  V30 11793 H 1118.34 -0.0578116 0.74476 0
M  V30 11794 H 1121 0.562046 1.8662 0
M  V30 11795 H 1120.1 -0.334766 3.10299 0
M  V30 11796 N 1120.4 -1.5685 0.153553 0
M  V30 11797 C 1121.33 -2.20101 -0.779601 0
M  V30 11798 C 1122.31 -1.15121 -1.25225 0
M  V30 11799 O 1123.5 -1.43487 -1.30862 0
M  V30 11800 C 1120.63 -2.82778 -2.01628 0
M  V30 11801 C 1119.58 -3.93643 -1.68015 0
M  V30 11802 C 1118.91 -4.43286 -2.99001 0
M  V30 11803 C 1120.21 -5.14102 -0.921774 0
M  V30 11804 H 1121.9 -2.98334 -0.252432 0
M  V30 11805 H 1119.45 -1.43499 -0.119975 0
M  V30 11806 H 1121.4 -3.25696 -2.67395 0
M  V30 11807 H 1120.12 -2.01887 -2.56728 0
M  V30 11808 H 1118.78 -3.51354 -1.04624 0
M  V30 11809 H 1118.43 -3.59208 -3.52106 0
M  V30 11810 H 1118.13 -5.18068 -2.77272 0
M  V30 11811 H 1119.65 -4.88878 -3.65828 0
M  V30 11812 H 1121.07 -5.53823 -1.48167 0
M  V30 11813 H 1119.46 -5.94687 -0.804185 0
M  V30 11814 H 1120.53 -4.84825 0.0852757 0
M  V30 11815 N 1121.88 0.120221 -1.57141 0
M  V30 11816 C 1122.81 1.14876 -2.03287 0
M  V30 11817 C 1123.79 1.43259 -0.917112 0
M  V30 11818 O 1124.97 1.53721 -1.18674 0
M  V30 11819 C 1122.1 2.47525 -2.43616 0
M  V30 11820 C 1121.06 2.33607 -3.58625 0
M  V30 11821 C 1120.38 3.71207 -3.84849 0
M  V30 11822 C 1121.68 1.79761 -4.90391 0
M  V30 11823 H 1123.38 0.764943 -2.89463 0
M  V30 11824 H 1120.92 0.366516 -1.39258 0
M  V30 11825 H 1122.88 3.19728 -2.74504 0
M  V30 11826 H 1121.6 2.87794 -1.54409 0
M  V30 11827 H 1120.26 1.63853 -3.27945 0
M  V30 11828 H 1119.91 4.0896 -2.9285 0
M  V30 11829 H 1119.61 3.62749 -4.62263 0
M  V30 11830 H 1121.13 4.44917 -4.18188 0
M  V30 11831 H 1122.55 2.4178 -5.19822 0
M  V30 11832 H 1120.94 1.82126 -5.71795 0
M  V30 11833 H 1122.01 0.755087 -4.78985 0
M  V30 11834 N 1123.36 1.52689 0.390367 0
M  V30 11835 C 1124.58 1.71839 1.16129 0
M  V30 11836 C 1125.01 0.435226 1.82996 0
M  V30 11837 O 1124.36 -0.60889 1.70769 0
M  V30 11838 C 1124.41 2.86784 2.18603 0
M  V30 11839 O 1123.52 2.53662 3.25161 0
M  V30 11840 H 1122.86 0.571455 0.338135 0
M  V30 11841 H 1125.39 1.99475 0.45508 0
M  V30 11842 H 1125.4 3.12239 2.62622 0
M  V30 11843 H 1124.07 3.79872 1.69322 0
M  V30 11844 H 1122.65 2.38942 2.86289 0
M  V30 11845 N 1124.83 -0.648732 1.43629 0
M  V30 11846 C 1125.76 -1.77298 1.51947 0
M  V30 11847 C 1126.75 -1.65942 0.373785 0
M  V30 11848 O 1127.93 -1.8497 0.591596 0
M  V30 11849 C 1125.06 -3.15749 1.44638 0
M  V30 11850 C 1124.01 -3.41872 2.57502 0
M  V30 11851 C 1123.34 -4.8017 2.35246 0
M  V30 11852 C 1124.64 -3.36173 3.99731 0
M  V30 11853 H 1126.33 -1.70594 2.46045 0
M  V30 11854 H 1123.88 -0.819306 1.1842 0
M  V30 11855 H 1125.83 -3.94156 1.4906 0
M  V30 11856 H 1124.56 -3.23194 0.470466 0
M  V30 11857 H 1123.22 -2.65838 2.5244 0
M  V30 11858 H 1122.86 -4.84297 1.35887 0
M  V30 11859 H 1122.56 -4.9861 3.10906 0
M  V30 11860 H 1124.09 -5.6083 2.41459 0
M  V30 11861 H 1125.5 -4.0451 4.06257 0
M  V30 11862 H 1123.9 -3.66148 4.75453 0
M  V30 11863 H 1124.97 -2.34277 4.24549 0
M  V30 11864 N 1126.31 -1.30234 -0.887518 0
M  V30 11865 C 1127.54 -1.21955 -1.67755 0
M  V30 11866 C 1127.96 0.214701 -1.86871 0
M  V30 11867 O 1127.32 1.15459 -1.39782 0
M  V30 11868 C 1127.37 -1.95079 -3.03276 0
M  V30 11869 O 1126.47 -1.27615 -3.92158 0
M  V30 11870 H 1125.81 -0.421948 -0.512695 0
M  V30 11871 H 1128.34 -1.72011 -1.10785 0
M  V30 11872 H 1128.35 -2.04004 -3.53336 0
M  V30 11873 H 1127.03 -2.99392 -2.88682 0
M  V30 11874 H 1125.61 -1.27029 -3.50597 0
M  V30 11875 N 1127.79 1.09952 -1.12909 0
M  V30 11876 C 1128.72 2.18477 -0.824014 0
M  V30 11877 C 1129.7 1.68744 0.214324 0
M  V30 11878 O 1130.89 1.94057 0.0744281 0
M  V30 11879 C 1128.02 3.46143 -0.283308 0
M  V30 11880 C 1126.97 4.09178 -1.25528 0
M  V30 11881 C 1126.3 5.31604 -0.574574 0
M  V30 11882 C 1127.6 4.52308 -2.6118 0
M  V30 11883 H 1129.29 2.44254 -1.73148 0
M  V30 11884 H 1126.84 1.17394 -0.833952 0
M  V30 11885 H 1128.79 4.21361 -0.057583 0
M  V30 11886 H 1127.51 3.19872 0.659525 0
M  V30 11887 H 1126.17 3.35973 -1.4669 0
M  V30 11888 H 1125.82 5.01611 0.37356 0
M  V30 11889 H 1125.52 5.74732 -1.22299 0
M  V30 11890 H 1127.04 6.0955 -0.358004 0
M  V30 11891 H 1128.46 5.18776 -2.44017 0
M  V30 11892 H 1126.86 5.06302 -3.22147 0
M  V30 11893 H 1127.93 3.64977 -3.19249 0
M  V30 11894 N 1129.27 0.921757 1.27833 0
M  V30 11895 C 1130.55 0.477706 1.89677 0
M  V30 11896 C 1130.93 -1.04392 1.83481 0
M  V30 11897 O 1130.27 -1.89549 1.27606 0
M  V30 11898 C 1130.48 1.01709 3.33851 0
M  V30 11899 C 1131.83 1.074 4.10792 0
M  V30 11900 O 1132.86 0.966295 3.42843 0
M  V30 11901 O 1131.71 1.23909 5.32268 0
M  V30 11902 H 1128.81 0.15271 0.812778 0
M  V30 11903 H 1131.35 1.01306 1.36144 0
M  V30 11904 H 1130.13 2.061 3.32623 0
M  V30 11905 H 1129.75 0.463031 3.94895 0
M  V30 11906 N 1130.75 -1.41857 0.686609 0
M  V30 11907 C 1131.98 -2.05401 0.222238 0
M  V30 11908 C 1132.38 -1.51731 -1.13023 0
M  V30 11909 O 1131.73 -0.656701 -1.71561 0
M  V30 11910 C 1131.79 -3.59381 0.0926608 0
M  V30 11911 C 1131.45 -4.35801 1.37573 0
M  V30 11912 C 1132.45 -4.65678 2.31171 0
M  V30 11913 C 1130.14 -4.75233 1.62661 0
M  V30 11914 C 1132.13 -5.33936 3.48125 0
M  V30 11915 C 1129.82 -5.43229 2.79902 0
M  V30 11916 C 1130.81 -5.72507 3.72458 0
M  V30 11917 O 1130.5 -6.39106 4.87646 0
M  V30 11918 H 1130.23 -0.668126 0.102876 0
M  V30 11919 H 1132.79 -1.82775 0.93714 0
M  V30 11920 H 1131.02 -3.80711 -0.67793 0
M  V30 11921 H 1132.71 -4.04529 -0.333364 0
M  V30 11922 H 1133.47 -4.35704 2.13042 0
M  V30 11923 H 1129.35 -4.51831 0.914862 0
M  V30 11924 H 1132.9 -5.56706 4.20386 0
M  V30 11925 H 1128.79 -5.72621 2.97951 0
M  V30 11926 H 1129.56 -6.576 4.87344 0
M  V30 11927 N 1132.22 -0.430739 -1.51599 0
M  V30 11928 C 1133.46 0.137184 -2.03939 0
M  V30 11929 C 1133.83 1.40533 -1.30823 0
M  V30 11930 O 1135.03 2.05307 -1.73501 0
M  V30 11931 C 1133.3 0.357395 -3.55609 0
M  V30 11932 S 1134.86 0.889669 -4.29686 0
M  V30 11933 H 1131.68 0.0349429 -0.710141 0
M  V30 11934 H 1134.28 -0.588628 -1.86428 0
M  V30 11935 H 1132.98 -0.572011 -4.06394 0
M  V30 11936 H 1132.51 1.11047 -3.77402 0
M  V30 11937 H 1134.53 2.16797 -4.46333 0
M  V30 11938 N 1133.7 1.56767 -0.161869 0
M  V30 11939 C 1134.95 1.96594 0.485496 0
M  V30 11940 C 1135.28 1.04743 1.63887 0
M  V30 11941 O 1134.53 0.079602 1.95538 0
M  V30 11942 C 1134.83 3.42567 1.01894 0
M  V30 11943 C 1134.5 4.50897 -0.0175419 0
M  V30 11944 C 1133.16 4.80249 -0.302429 0
M  V30 11945 C 1135.51 5.16181 -0.721572 0
M  V30 11946 C 1132.84 5.72187 -1.2969 0
M  V30 11947 C 1135.19 6.09191 -1.70496 0
M  V30 11948 C 1133.86 6.36915 -1.99739 0
M  V30 11949 H 1133.13 0.719388 0.177656 0
M  V30 11950 H 1135.77 1.89837 -0.251839 0
M  V30 11951 H 1134.08 3.4623 1.83391 0
M  V30 11952 H 1135.77 3.70719 1.52867 0
M  V30 11953 H 1132.36 4.28062 0.21468 0
M  V30 11954 H 1136.55 4.93624 -0.514681 0
M  V30 11955 H 1131.8 5.91953 -1.52974 0
M  V30 11956 H 1135.98 6.58849 -2.25591 0
M  V30 11957 H 1133.61 7.07958 -2.76948 0
M  V30 11958 N 1135.18 -0.111886 1.57202 0
M  V30 11959 C 1136.43 -0.819623 1.85499 0
M  V30 11960 C 1136.76 -1.7919 0.748629 0
M  V30 11961 O 1136.03 -1.92952 -0.244918 0
M  V30 11962 C 1136.32 -1.56324 3.24399 0
M  V30 11963 C 1136.17 -0.610081 4.45643 0
M  V30 11964 C 1137.49 -2.51777 3.60966 0
M  V30 11965 H 1134.61 -0.296512 0.674722 0
M  V30 11966 H 1137.25 -0.0836741 1.89816 0
M  V30 11967 H 1135.4 -2.1906 3.2085 0
M  V30 11968 H 1137.07 0.00898038 4.61299 0
M  V30 11969 H 1135.32 0.0778488 4.3373 0
M  V30 11970 H 1135.99 -1.16718 5.39519 0
M  V30 11971 H 1138.46 -1.99143 3.65351 0
M  V30 11972 H 1137.34 -3.00835 4.59118 0
M  V30 11973 H 1137.6 -3.34769 2.8876 0
M  V30 11974 N 1136.66 -1.52894 -0.382264 0
M  V30 11975 C 1137.59 -1.81122 -1.47367 0
M  V30 11976 C 1138.57 -0.663653 -1.56619 0
M  V30 11977 O 1139.75 -0.911898 -1.71459 0
M  V30 11978 C 1136.88 -1.98615 -2.84902 0
M  V30 11979 C 1135.84 -3.14328 -2.90485 0
M  V30 11980 C 1135.16 -3.17086 -4.30535 0
M  V30 11981 C 1136.46 -4.53263 -2.59519 0
M  V30 11982 H 1138.16 -2.72518 -1.23993 0
M  V30 11983 H 1135.7 -1.3113 -0.595049 0
M  V30 11984 H 1137.66 -2.16946 -3.61265 0
M  V30 11985 H 1136.38 -1.03915 -3.09628 0
M  V30 11986 H 1135.04 -2.95791 -2.16572 0
M  V30 11987 H 1134.69 -2.20055 -4.52311 0
M  V30 11988 H 1134.39 -3.94821 -4.3519 0
M  V30 11989 H 1135.91 -3.3758 -5.08795 0
M  V30 11990 H 1137.33 -4.71867 -3.25598 0
M  V30 11991 H 1135.72 -5.33115 -2.75514 0
M  V30 11992 H 1136.79 -4.59516 -1.54831 0
M  V30 11993 N 1138.14 0.641106 -1.43971 0
M  V30 11994 C 1139.05 1.78239 -1.52538 0
M  V30 11995 C 1140.06 1.6906 -0.411668 0
M  V30 11996 O 1141.24 1.90014 -0.66757 0
M  V30 11997 C 1138.3 3.14579 -1.45743 0
M  V30 11998 C 1137.37 3.35464 -2.67885 0
M  V30 11999 C 1136.6 4.65299 -2.61404 0
M  V30 12000 O 1136.82 5.45451 -1.66851 0
M  V30 12001 O 1135.76 4.8817 -3.521 0
M  V30 12002 H 1139.58 1.73965 -2.48937 0
M  V30 12003 H 1137.17 0.801098 -1.26106 0
M  V30 12004 H 1139.05 3.95873 -1.4444 0
M  V30 12005 H 1137.72 3.19417 -0.524837 0
M  V30 12006 H 1136.63 2.53888 -2.74758 0
M  V30 12007 H 1137.96 3.35481 -3.60157 0
M  V30 12008 N 1139.62 1.30703 0.880598 0
M  V30 12009 C 1140.89 1.1043 1.61445 0
M  V30 12010 C 1141.27 -0.344837 2.08264 0
M  V30 12011 O 1140.62 -1.33711 1.85293 0
M  V30 12012 C 1140.83 2.10908 2.78063 0
M  V30 12013 C 1142.18 2.42861 3.48287 0
M  V30 12014 O 1143.2 2.09252 2.88257 0
M  V30 12015 O 1142.06 3.00369 4.56553 0
M  V30 12016 H 1139.16 0.424419 0.709787 0
M  V30 12017 H 1141.7 1.42144 0.926991 0
M  V30 12018 H 1140.47 3.08431 2.40803 0
M  V30 12019 H 1140.1 1.80036 3.54503 0
M  V30 12020 N 1141.09 -1.09351 1.1349 0
M  V30 12021 C 1142 -2.19564 0.826366 0
M  V30 12022 C 1143.02 -1.72967 -0.189339 0
M  V30 12023 O 1144.2 -2.0139 -0.0202033 0
M  V30 12024 C 1141.26 -3.4542 0.297685 0
M  V30 12025 C 1140.32 -4.06694 1.37473 0
M  V30 12026 C 1139.55 -5.26542 0.871183 0
M  V30 12027 O 1139.78 -5.69657 -0.290958 0
M  V30 12028 O 1138.71 -5.78961 1.64584 0
M  V30 12029 H 1142.54 -2.4841 1.74718 0
M  V30 12030 H 1140.12 -1.18302 0.912414 0
M  V30 12031 H 1142 -4.21399 0.00829479 0
M  V30 12032 H 1140.68 -3.18175 -0.595536 0
M  V30 12033 H 1139.59 -3.32347 1.71745 0
M  V30 12034 H 1140.92 -4.38166 2.24212 0
M  V30 12035 N 1142.57 -0.928524 -1.27343 0
M  V30 12036 C 1143.85 -0.487758 -1.89421 0
M  V30 12037 C 1144.23 1.03418 -1.84032 0
M  V30 12038 O 1143.58 1.8887 -1.2861 0
M  V30 12039 C 1143.79 -1.03478 -3.33307 0
M  V30 12040 C 1145.13 -1.09577 -4.10217 0
M  V30 12041 O 1146.16 -0.984463 -3.42326 0
M  V30 12042 O 1145.02 -1.2673 -5.31603 0
M  V30 12043 H 1142.11 -0.157018 -0.811957 0
M  V30 12044 H 1144.66 -1.02027 -1.35605 0
M  V30 12045 H 1143.43 -2.07861 -3.31526 0
M  V30 12046 H 1143.05 -0.483967 -3.94644 0
M  V30 12047 N 1144.05 1.41491 -0.694123 0
M  V30 12048 C 1145.3 2.00854 -0.224033 0
M  V30 12049 C 1145.62 1.55246 1.17999 0
M  V30 12050 O 1144.89 0.782452 1.79595 0
M  V30 12051 H 1143.47 0.742721 -0.0798368 0
M  V30 12052 H 1146.13 1.73137 -0.894958 0
M  V30 12053 H 1145.23 3.11173 -0.240332 0
M  V30 12054 N 1145.53 0.438773 1.51369 0
M  V30 12055 C 1146.78 -0.128723 2.01289 0
M  V30 12056 C 1147.09 -1.43659 1.32745 0
M  V30 12057 O 1148.3 -2.08712 1.73642 0
M  V30 12058 C 1146.75 -0.279945 3.5881 0
M  V30 12059 C 1146.36 1.01758 4.3629 0
M  V30 12060 C 1148.1 -0.801133 4.16872 0
M  V30 12061 C 1146.01 0.831918 5.85519 0
M  V30 12062 H 1144.94 -0.0518814 0.752213 0
M  V30 12063 H 1147.59 0.568753 1.74463 0
M  V30 12064 H 1145.97 -1.04046 3.82087 0
M  V30 12065 H 1147.15 1.78653 4.24758 0
M  V30 12066 H 1145.46 1.46741 3.89687 0
M  V30 12067 H 1148.06 -0.956548 5.26074 0
M  V30 12068 H 1148.4 -1.78396 3.76139 0
M  V30 12069 H 1148.94 -0.0988934 3.97677 0
M  V30 12070 H 1145.67 1.78716 6.30667 0
M  V30 12071 H 1145.19 0.102785 5.99712 0
M  V30 12072 H 1146.87 0.485681 6.45174 0
M  V30 12073 N 1147.01 -1.56678 0.170181 0
M  V30 12074 C 1148.25 -1.98743 -0.477534 0
M  V30 12075 C 1148.61 -1.0538 -1.60497 0
M  V30 12076 O 1149.81 -1.3658 -2.31515 0
M  V30 12077 C 1148.08 -3.44565 -0.949186 0
M  V30 12078 S 1149.64 -4.08658 -1.59824 0
M  V30 12079 H 1146.46 -0.694202 -0.153639 0
M  V30 12080 H 1149.06 -1.93663 0.267373 0
M  V30 12081 H 1147.76 -4.1023 -0.118205 0
M  V30 12082 H 1147.3 -3.53409 -1.72816 0
M  V30 12083 H 1149.31 -4.03614 -2.88635 0
M  V30 12084 N 1148.48 0.103547 -1.57259 0
M  V30 12085 C 1149.73 0.806979 -1.8529 0
M  V30 12086 C 1150.05 1.79679 -0.757653 0
M  V30 12087 O 1149.32 1.94695 0.216913 0
M  V30 12088 H 1147.9 0.301012 -0.683667 0
M  V30 12089 H 1150.56 0.0871886 -1.94705 0
M  V30 12090 H 1149.66 1.34275 -2.81738 0
M  V30 12091 N 1149.96 1.53094 0.37415 0
M  V30 12092 C 1151.19 1.72508 1.13687 0
M  V30 12093 C 1151.6 0.449922 1.83773 0
M  V30 12094 O 1150.94 -0.586391 1.74089 0
M  V30 12095 C 1151 2.82965 2.21746 0
M  V30 12096 C 1150.67 4.23599 1.71501 0
M  V30 12097 C 1151.67 5.06245 1.1837 0
M  V30 12098 C 1149.35 4.69978 1.77273 0
M  V30 12099 C 1151.34 6.33357 0.71679 0
M  V30 12100 C 1149.03 5.9707 1.30194 0
M  V30 12101 C 1150.03 6.7859 0.774856 0
M  V30 12102 O 1149.72 8.03298 0.310981 0
M  V30 12103 H 1149.45 0.580611 0.346218 0
M  V30 12104 H 1152 2.00596 0.441614 0
M  V30 12105 H 1150.23 2.5033 2.9474 0
M  V30 12106 H 1151.92 2.90638 2.83345 0
M  V30 12107 H 1152.69 4.71591 1.13256 0
M  V30 12108 H 1148.57 4.06605 2.17241 0
M  V30 12109 H 1152.11 6.96934 0.30471 0
M  V30 12110 H 1148.01 6.31225 1.34999 0
M  V30 12111 H 1148.78 8.17364 0.431098 0
M  V30 12112 N 1151.44 -0.633461 1.44309 0
M  V30 12113 C 1152.4 -1.72743 1.50641 0
M  V30 12114 C 1153.4 -1.56031 0.388718 0
M  V30 12115 O 1154.59 -1.61568 0.651251 0
M  V30 12116 C 1151.72 -3.11804 1.37809 0
M  V30 12117 H 1152.92 -1.68503 2.48086 0
M  V30 12118 H 1150.47 -0.846912 1.31366 0
M  V30 12119 H 1151.21 -3.2164 0.414483 0
M  V30 12120 H 1150.99 -3.2534 2.18852 0
M  V30 12121 H 1152.48 -3.91538 1.45216 0
M  V30 12122 N 1152.92 -1.31168 -0.873655 0
M  V30 12123 C 1153.85 -1.21094 -1.99646 0
M  V30 12124 C 1154.83 -0.0989684 -1.69812 0
M  V30 12125 O 1156.01 -0.282939 -1.92128 0
M  V30 12126 C 1153.14 -0.913684 -3.35066 0
M  V30 12127 C 1152.1 -1.98482 -3.79195 0
M  V30 12128 C 1151.42 -1.54033 -5.12033 0
M  V30 12129 C 1152.72 -3.39745 -3.96699 0
M  V30 12130 H 1154.42 -2.1503 -2.08333 0
M  V30 12131 H 1151.96 -1.03521 -1.00097 0
M  V30 12132 H 1153.92 -0.829821 -4.13149 0
M  V30 12133 H 1152.64 0.0613471 -3.26542 0
M  V30 12134 H 1151.3 -2.05851 -3.03349 0
M  V30 12135 H 1150.95 -0.553261 -4.99948 0
M  V30 12136 H 1150.65 -2.25688 -5.4253 0
M  V30 12137 H 1152.17 -1.47047 -5.92629 0
M  V30 12138 H 1153.59 -3.35071 -4.65188 0
M  V30 12139 H 1151.98 -4.09585 -4.38589 0
M  V30 12140 H 1153.05 -3.80802 -3.00196 0
M  V30 12141 N 1154.4 1.08748 -1.14068 0
M  V30 12142 C 1155.64 1.80707 -0.904947 0
M  V30 12143 C 1155.97 1.86478 0.570167 0
M  V30 12144 O 1155.24 1.35536 1.41445 0
M  V30 12145 H 1153.82 0.669261 -0.331811 0
M  V30 12146 H 1156.48 1.31494 -1.43859 0
M  V30 12147 H 1155.57 2.83653 -1.30182 0
M  V30 12148 N 1155.87 0.935264 1.26849 0
M  V30 12149 C 1157.1 0.596249 1.98122 0
M  V30 12150 C 1157.52 -0.827452 1.69702 0
M  V30 12151 O 1156.87 -1.55095 0.961864 0
M  V30 12152 C 1156.93 0.821773 3.52036 0
M  V30 12153 O 1156.65 2.18947 3.79465 0
M  V30 12154 C 1158.15 0.492498 4.40556 0
M  V30 12155 H 1155.37 0.225242 0.632066 0
M  V30 12156 H 1157.91 1.25435 1.61512 0
M  V30 12157 H 1156.07 0.210363 3.86828 0
M  V30 12158 H 1156.48 2.24509 4.74021 0
M  V30 12159 H 1157.95 0.700953 5.47531 0
M  V30 12160 H 1158.43 -0.57228 4.35456 0
M  V30 12161 H 1159.04 1.08238 4.11296 0
M  V30 12162 N 1157.35 -1.41121 0.701616 0
M  V30 12163 C 1158.6 -2.01428 0.235495 0
M  V30 12164 C 1158.93 -1.55463 -1.16382 0
M  V30 12165 O 1158.21 -0.768477 -1.78675 0
M  V30 12166 C 1158.49 -3.58849 0.299919 0
M  V30 12167 C 1158.34 -4.14924 1.73661 0
M  V30 12168 C 1159.66 -4.38809 -0.336856 0
M  V30 12169 H 1156.78 -0.731842 0.0870456 0
M  V30 12170 H 1159.42 -1.67787 0.891479 0
M  V30 12171 H 1157.57 -3.87638 -0.258611 0
M  V30 12172 H 1159.24 -3.96987 2.34945 0
M  V30 12173 H 1157.49 -3.69738 2.26884 0
M  V30 12174 H 1158.16 -5.24085 1.73318 0
M  V30 12175 H 1160.63 -4.15868 0.138886 0
M  V30 12176 H 1159.51 -5.48278 -0.261264 0
M  V30 12177 H 1159.77 -4.18728 -1.41843 0
M  V30 12178 N 1158.83 -0.446794 -1.51134 0
M  V30 12179 C 1160.11 0.176892 -1.94798 0
M  V30 12180 C 1160.49 1.59229 -1.38598 0
M  V30 12181 O 1159.84 2.21097 -0.576905 0
M  V30 12182 C 1160.05 0.145 -3.48699 0
M  V30 12183 C 1161.39 0.345917 -4.23189 0
M  V30 12184 O 1162.42 0.222691 -3.55503 0
M  V30 12185 O 1161.28 0.592112 -5.43283 0
M  V30 12186 H 1158.37 0.12486 -0.81752 0
M  V30 12187 H 1160.92 -0.505453 -1.61998 0
M  V30 12188 H 1159.69 -0.844156 -3.82086 0
M  V30 12189 H 1159.31 0.869851 -3.87968 0
M  V30 12190 N 1160.31 1.56586 -0.178487 0
M  V30 12191 C 1161.55 1.9739 0.465306 0
M  V30 12192 C 1161.89 1.06474 1.6241 0
M  V30 12193 O 1161.16 0.113316 1.9417 0
M  V30 12194 C 1161.45 3.47577 0.941408 0
M  V30 12195 C 1161.3 4.49271 -0.218054 0
M  V30 12196 C 1162.62 4.01038 1.81263 0
M  V30 12197 H 1159.74 0.717676 0.167663 0
M  V30 12198 H 1162.38 1.88128 -0.266067 0
M  V30 12199 H 1160.53 3.556 1.56463 0
M  V30 12200 H 1162.2 4.53301 -0.855332 0
M  V30 12201 H 1160.44 4.24936 -0.872441 0
M  V30 12202 H 1161.11 5.51776 0.157315 0
M  V30 12203 H 1163.59 3.9569 1.28718 0
M  V30 12204 H 1162.47 5.06526 2.11476 0
M  V30 12205 H 1162.73 3.45288 2.76096 0
M  V30 12206 N 1161.79 -0.095206 1.57312 0
M  V30 12207 C 1163.01 -0.81227 1.90289 0
M  V30 12208 C 1163.43 -1.72287 0.772178 0
M  V30 12209 O 1162.79 -1.80698 -0.255841 0
M  V30 12210 C 1162.84 -1.62572 3.22882 0
M  V30 12211 O 1162.56 -0.75175 4.31602 0
M  V30 12212 C 1164.06 -2.44585 3.6972 0
M  V30 12213 H 1161.28 -0.232256 0.629522 0
M  V30 12214 H 1163.82 -0.0724733 2.04372 0
M  V30 12215 H 1161.98 -2.31803 3.10397 0
M  V30 12216 H 1162.39 -1.31514 5.07744 0
M  V30 12217 H 1163.87 -2.97155 4.65191 0
M  V30 12218 H 1164.34 -3.23044 2.97555 0
M  V30 12219 H 1164.95 -1.80554 3.85072 0
M  V30 12220 N 1163.26 -1.53291 -0.366026 0
M  V30 12221 C 1164.68 -1.61144 -0.942849 0
M  V30 12222 C 1165.03 -0.478571 -1.90274 0
M  V30 12223 O 1164.15 0.395069 -2.12763 0
M  V30 12224 C 1164.75 -2.92081 -1.71681 0
M  V30 12225 C 1163.31 -3.0227 -2.24298 0
M  V30 12226 C 1162.45 -2.56436 -1.05526 0
M  V30 12227 H 1165.4 -1.58038 -0.144835 0
M  V30 12228 H 1165.42 -2.79858 -2.57798 0
M  V30 12229 H 1164.94 -3.74513 -1.01793 0
M  V30 12230 H 1163.04 -2.24425 -2.97429 0
M  V30 12231 H 1163.15 -4.07341 -2.5221 0
M  V30 12232 H 1161.51 -2.11301 -1.42211 0
M  V30 12233 H 1162.3 -3.41285 -0.371376 0
M  V30 12234 N 1164.74 0.6258 -1.44643 0
M  V30 12235 C 1165.99 1.38525 -1.47706 0
M  V30 12236 C 1166.32 1.94179 -0.111703 0
M  V30 12237 O 1165.57 1.74432 0.887237 0
M  V30 12238 C 1165.87 2.56466 -2.48917 0
M  V30 12239 C 1165.54 2.19069 -3.94106 0
M  V30 12240 C 1164.2 2.08583 -4.33643 0
M  V30 12241 C 1166.55 1.89608 -4.85488 0
M  V30 12242 C 1163.88 1.66831 -5.6248 0
M  V30 12243 C 1166.23 1.49347 -6.14718 0
M  V30 12244 C 1164.9 1.37406 -6.53204 0
M  V30 12245 H 1164.17 0.506899 -0.540494 0
M  V30 12246 H 1166.81 0.709128 -1.77887 0
M  V30 12247 H 1165.12 3.29335 -2.12239 0
M  V30 12248 H 1166.81 3.14695 -2.48532 0
M  V30 12249 H 1163.4 2.28151 -3.62829 0
M  V30 12250 H 1167.59 1.96616 -4.55693 0
M  V30 12251 H 1162.84 1.56195 -5.91112 0
M  V30 12252 H 1167.02 1.2559 -6.84982 0
M  V30 12253 H 1164.65 1.04826 -7.52938 0
M  V30 12254 N 1166.22 1.31629 0.866686 0
M  V30 12255 C 1167.47 1.20861 1.61479 0
M  V30 12256 C 1167.78 -0.231208 1.94229 0
M  V30 12257 O 1168.99 -0.460618 2.67564 0
M  V30 12258 C 1167.44 2.11602 2.91123 0
M  V30 12259 C 1167.05 3.60598 2.65844 0
M  V30 12260 C 1168.8 2.09642 3.69121 0
M  V30 12261 C 1166.7 4.43337 3.91415 0
M  V30 12262 H 1165.63 0.448783 0.605896 0
M  V30 12263 H 1168.28 1.56507 0.958001 0
M  V30 12264 H 1166.67 1.68858 3.58194 0
M  V30 12265 H 1167.84 4.11609 2.07159 0
M  V30 12266 H 1166.16 3.64568 2.01194 0
M  V30 12267 H 1168.75 2.68701 4.62281 0
M  V30 12268 H 1169.1 1.08438 4.01929 0
M  V30 12269 H 1169.63 2.50603 3.08938 0
M  V30 12270 H 1166.37 5.45309 3.63756 0
M  V30 12271 H 1165.89 3.97083 4.49539 0
M  V30 12272 H 1167.57 4.5572 4.5927 0
M  V30 12273 N 1167.7 -1.08142 1.14644 0
M  V30 12274 C 1168.65 -2.15133 0.835845 0
M  V30 12275 C 1169.62 -1.64795 -0.207785 0
M  V30 12276 O 1170.8 -1.90644 -0.07711 0
M  V30 12277 C 1167.94 -3.4359 0.322456 0
M  V30 12278 C 1167.05 -4.07761 1.42671 0
M  V30 12279 C 1166.19 -5.24022 0.870281 0
M  V30 12280 C 1165.23 -5.8014 1.95202 0
M  V30 12281 N 1164.37 -6.87743 1.41257 0
M  V30 12282 H 1169.21 -2.41042 1.75222 0
M  V30 12283 H 1166.74 -1.18288 0.874428 0
M  V30 12284 H 1168.7 -4.17199 0.00657059 0
M  V30 12285 H 1167.33 -3.17958 -0.557014 0
M  V30 12286 H 1166.38 -3.31885 1.85893 0
M  V30 12287 H 1167.69 -4.45485 2.24375 0
M  V30 12288 H 1166.85 -6.04582 0.506459 0
M  V30 12289 H 1165.59 -4.87695 0.0223118 0
M  V30 12290 H 1164.59 -4.98232 2.32476 0
M  V30 12291 H 1165.82 -6.18525 2.80363 0
M  V30 12292 H 1163.76 -6.5337 0.586826 0
M  V30 12293 H 1163.68 -7.24308 2.16596 0
M  V30 12294 H 1164.95 -7.72028 1.07674 0
M  V30 12295 N 1169.18 -0.941978 -1.26351 0
M  V30 12296 C 1170.12 -0.450906 -2.26353 0
M  V30 12297 C 1171.09 0.489857 -1.58712 0
M  V30 12298 O 1172.28 0.40589 -1.86433 0
M  V30 12299 C 1169.42 0.277054 -3.43986 0
M  V30 12300 C 1168.53 -0.699474 -4.263 0
M  V30 12301 C 1167.67 0.0497661 -5.31177 0
M  V30 12302 C 1166.71 -0.918531 -6.05169 0
M  V30 12303 N 1165.84 -0.200993 -7.01812 0
M  V30 12304 H 1170.68 -1.30861 -2.6773 0
M  V30 12305 H 1168.22 -0.656514 -1.31637 0
M  V30 12306 H 1170.18 0.715567 -4.11018 0
M  V30 12307 H 1168.81 1.09889 -3.0352 0
M  V30 12308 H 1167.86 -1.2565 -3.59049 0
M  V30 12309 H 1169.17 -1.4389 -4.77595 0
M  V30 12310 H 1168.33 0.547521 -6.04224 0
M  V30 12311 H 1167.07 0.822068 -4.80722 0
M  V30 12312 H 1166.07 -1.4274 -5.30947 0
M  V30 12313 H 1167.3 -1.69085 -6.57713 0
M  V30 12314 H 1165.24 0.552803 -6.53667 0
M  V30 12315 H 1165.16 -0.879735 -7.50864 0
M  V30 12316 H 1166.43 0.275642 -7.79012 0
M  V30 12317 N 1170.66 1.40747 -0.709091 0
M  V30 12318 C 1171.9 2.02864 -0.250145 0
M  V30 12319 C 1172.26 1.54993 1.13319 0
M  V30 12320 O 1173.46 2.09128 1.68876 0
M  V30 12321 C 1171.73 3.55964 -0.320114 0
M  V30 12322 S 1173.29 4.38755 0.0628008 0
M  V30 12323 H 1170.11 0.703975 -0.0996992 0
M  V30 12324 H 1172.71 1.7197 -0.92987 0
M  V30 12325 H 1171.41 3.88297 -1.32866 0
M  V30 12326 H 1170.95 3.91577 0.378308 0
M  V30 12327 H 1172.96 4.79226 1.28672 0
M  V30 12328 N 1172.13 0.454803 1.50895 0
M  V30 12329 C 1173.08 -0.347769 2.28165 0
M  V30 12330 C 1174.05 -1.00158 1.32505 0
M  V30 12331 O 1175.24 -1.01715 1.61427 0
M  V30 12332 C 1172.38 -1.43315 3.13934 0
M  V30 12333 C 1171.49 -0.795736 4.24608 0
M  V30 12334 C 1170.62 -1.85763 4.9766 0
M  V30 12335 C 1169.66 -1.19959 6.0023 0
M  V30 12336 N 1168.8 -2.20361 6.66622 0
M  V30 12337 H 1173.64 0.317493 2.96304 0
M  V30 12338 H 1171.18 0.168418 1.46133 0
M  V30 12339 H 1173.13 -2.07391 3.62001 0
M  V30 12340 H 1171.76 -2.0678 2.47875 0
M  V30 12341 H 1170.82 -0.0428173 3.80376 0
M  V30 12342 H 1172.13 -0.275477 4.98039 0
M  V30 12343 H 1171.28 -2.5746 5.49363 0
M  V30 12344 H 1170.02 -2.41166 4.23899 0
M  V30 12345 H 1169.03 -0.46817 5.47803 0
M  V30 12346 H 1170.25 -0.652666 6.75956 0
M  V30 12347 H 1168.2 -2.74812 5.95663 0
M  V30 12348 H 1168.11 -1.73275 7.35875 0
M  V30 12349 H 1169.38 -2.91488 7.22949 0
M  V30 12350 N 1173.61 -1.56489 0.186789 0
M  V30 12351 C 1174.86 -1.96517 -0.45433 0
M  V30 12352 C 1175.17 -1.07618 -1.63333 0
M  V30 12353 O 1176.38 -1.37392 -2.3417 0
M  V30 12354 C 1174.84 -3.49482 -0.859685 0
M  V30 12355 C 1174.44 -4.47031 0.294572 0
M  V30 12356 C 1176.19 -3.98296 -1.46835 0
M  V30 12357 C 1174.09 -5.91254 -0.131279 0
M  V30 12358 H 1173.02 -0.733765 -0.17351 0
M  V30 12359 H 1175.68 -1.8139 0.277485 0
M  V30 12360 H 1174.06 -3.60082 -1.64793 0
M  V30 12361 H 1175.23 -4.48156 1.07205 0
M  V30 12362 H 1173.55 -4.08362 0.814197 0
M  V30 12363 H 1176.14 -5.03518 -1.79928 0
M  V30 12364 H 1176.49 -3.42123 -2.37186 0
M  V30 12365 H 1177.02 -3.90776 -0.744247 0
M  V30 12366 H 1173.76 -6.51334 0.737839 0
M  V30 12367 H 1173.28 -5.93401 -0.873786 0
M  V30 12368 H 1174.96 -6.44485 -0.569913 0
M  V30 12369 N 1175.09 0.086862 -1.5736 0
M  V30 12370 C 1176.31 0.806017 -1.91097 0
M  V30 12371 C 1176.74 1.71082 -0.78183 0
M  V30 12372 O 1176.1 1.79335 0.266175 0
M  V30 12373 C 1176.15 1.5884 -3.23732 0
M  V30 12374 O 1175.25 2.69798 -3.11902 0
M  V30 12375 H 1174.59 0.220899 -0.626179 0
M  V30 12376 H 1177.12 0.059619 -2.04513 0
M  V30 12377 H 1177.13 1.97088 -3.5724 0
M  V30 12378 H 1175.81 0.924426 -4.05496 0
M  V30 12379 H 1174.38 2.34519 -2.89923 0
M  V30 12380 N 1176.57 1.53483 0.357892 0
M  V30 12381 C 1177.81 1.71233 1.09776 0
M  V30 12382 C 1178.17 0.462401 1.86761 0
M  V30 12383 O 1177.46 -0.544746 1.83693 0
M  V30 12384 C 1177.66 2.90654 2.07978 0
M  V30 12385 C 1177.48 4.27141 1.40644 0
M  V30 12386 C 1176.25 4.91868 1.15732 0
M  V30 12387 C 1178.45 5.07392 0.840118 0
M  V30 12388 N 1176.43 6.12261 0.448282 0
M  V30 12389 C 1177.81 6.19451 0.260863 0
M  V30 12390 C 1179.86 4.92377 0.739558 0
M  V30 12391 C 1178.56 7.18135 -0.409153 0
M  V30 12392 C 1180.59 5.91341 0.0833084 0
M  V30 12393 C 1179.95 7.02728 -0.485038 0
M  V30 12394 H 1176.05 0.679764 0.386582 0
M  V30 12395 H 1178.63 1.90893 0.383158 0
M  V30 12396 H 1176.81 2.7252 2.76744 0
M  V30 12397 H 1178.54 2.97192 2.74698 0
M  V30 12398 H 1175.29 4.51157 1.44064 0
M  V30 12399 H 1175.72 6.76912 0.108905 0
M  V30 12400 H 1180.36 4.06441 1.16472 0
M  V30 12401 H 1178.08 8.03657 -0.846247 0
M  V30 12402 H 1181.66 5.818 0.00632482 0
M  V30 12403 H 1180.54 7.77992 -0.984802 0
M  V30 12404 N 1178.05 -0.61812 1.44973 0
M  V30 12405 C 1179.29 -1.37343 1.47715 0
M  V30 12406 C 1179.61 -1.95239 0.118784 0
M  V30 12407 O 1180.81 -2.7149 0.0237981 0
M  V30 12408 C 1179.27 -2.48732 2.60116 0
M  V30 12409 C 1178.88 -1.97294 4.02218 0
M  V30 12410 C 1180.62 -3.25831 2.72093 0
M  V30 12411 C 1178.53 -3.06102 5.06019 0
M  V30 12412 H 1177.46 -0.516175 0.549617 0
M  V30 12413 H 1180.11 -0.663617 1.7108 0
M  V30 12414 H 1178.49 -3.2235 2.30014 0
M  V30 12415 H 1179.67 -1.30455 4.41948 0
M  V30 12416 H 1177.98 -1.32972 3.94598 0
M  V30 12417 H 1180.58 -4.06968 3.46815 0
M  V30 12418 H 1180.92 -3.76156 1.7836 0
M  V30 12419 H 1181.45 -2.59309 3.01668 0
M  V30 12420 H 1178.19 -2.60706 6.01426 0
M  V30 12421 H 1177.71 -3.71541 4.70869 0
M  V30 12422 H 1179.39 -3.70662 5.30301 0
M  V30 12423 N 1179.52 -1.32087 -0.859693 0
M  V30 12424 C 1180.93 -1.20107 -1.42938 0
M  V30 12425 C 1181.29 0.188411 -1.95293 0
M  V30 12426 O 1180.41 1.08683 -1.87128 0
M  V30 12427 C 1181.01 -2.17436 -2.59821 0
M  V30 12428 C 1179.56 -2.09359 -3.12803 0
M  V30 12429 C 1178.71 -2.06086 -1.85537 0
M  V30 12430 H 1181.66 -1.43989 -0.667302 0
M  V30 12431 H 1181.68 -1.76996 -3.36828 0
M  V30 12432 H 1181.2 -3.18555 -2.21685 0
M  V30 12433 H 1179.3 -1.1147 -3.55535 0
M  V30 12434 H 1179.41 -2.98947 -3.74389 0
M  V30 12435 H 1177.77 -1.51251 -2.04928 0
M  V30 12436 H 1178.56 -3.08978 -1.49625 0
M  V30 12437 N 1181 1.07532 -1.15215 0
M  V30 12438 C 1182.25 1.80093 -0.925891 0
M  V30 12439 C 1182.58 1.86648 0.547079 0
M  V30 12440 O 1181.83 1.34492 1.42164 0
M  V30 12441 C 1182.13 3.2518 -1.483 0
M  V30 12442 C 1181.8 3.38728 -2.97614 0
M  V30 12443 C 1180.46 3.42133 -3.38376 0
M  V30 12444 C 1182.81 3.41676 -3.93583 0
M  V30 12445 C 1180.14 3.46086 -4.73752 0
M  V30 12446 C 1182.49 3.47166 -5.28828 0
M  V30 12447 C 1181.15 3.48847 -5.69089 0
M  V30 12448 H 1180.42 0.659007 -0.338808 0
M  V30 12449 H 1183.07 1.26548 -1.43728 0
M  V30 12450 H 1181.38 3.81493 -0.892751 0
M  V30 12451 H 1183.07 3.79895 -1.28376 0
M  V30 12452 H 1179.66 3.36775 -2.65105 0
M  V30 12453 H 1183.85 3.38268 -3.63165 0
M  V30 12454 H 1179.1 3.45686 -5.04293 0
M  V30 12455 H 1183.28 3.48393 -6.02989 0
M  V30 12456 H 1180.9 3.51663 -6.73971 0
M  V30 12457 N 1182.48 0.948665 1.2585 0
M  V30 12458 C 1183.41 0.408398 2.24516 0
M  V30 12459 C 1184.39 -0.506954 1.54495 0
M  V30 12460 O 1185.58 -0.442695 1.83228 0
M  V30 12461 C 1182.7 -0.41241 3.3618 0
M  V30 12462 C 1181.75 0.442483 4.24198 0
M  V30 12463 S 1182.58 1.87106 5.01749 0
M  V30 12464 C 1183.74 1.05851 6.16884 0
M  V30 12465 H 1183.97 1.24458 2.69995 0
M  V30 12466 H 1181.5 0.752309 1.34832 0
M  V30 12467 H 1183.46 -0.880064 4.00955 0
M  V30 12468 H 1182.12 -1.22335 2.89297 0
M  V30 12469 H 1181.32 -0.186767 5.03654 0
M  V30 12470 H 1180.92 0.845113 3.64327 0
M  V30 12471 H 1183.21 0.304329 6.76816 0
M  V30 12472 H 1184.15 1.82678 6.8413 0
M  V30 12473 H 1184.56 0.591269 5.61395 0
M  V30 12474 N 1183.96 -1.40369 0.716545 0
M  V30 12475 C 1184.89 -2.29186 0.0251905 0
M  V30 12476 C 1185.9 -1.45877 -0.722761 0
M  V30 12477 O 1187.09 -1.69155 -0.569982 0
M  V30 12478 C 1184.19 -3.24161 -0.988589 0
M  V30 12479 C 1183.37 -4.36329 -0.30597 0
M  V30 12480 C 1182.42 -5.11736 -1.22527 0
M  V30 12481 O 1181.45 -5.64758 -0.7097 0
M  V30 12482 N 1182.65 -5.21183 -2.55634 0
M  V30 12483 H 1185.42 -2.8916 0.787808 0
M  V30 12484 H 1182.98 -1.51749 0.564253 0
M  V30 12485 H 1184.97 -3.71479 -1.60578 0
M  V30 12486 H 1183.54 -2.65347 -1.65256 0
M  V30 12487 H 1182.76 -3.91125 0.491432 0
M  V30 12488 H 1184.05 -5.08523 0.167827 0
M  V30 12489 H 1183.45 -4.7959 -3.00017 0
M  V30 12490 H 1182 -5.72005 -3.12495 0
M  V30 12491 N 1185.44 -0.462799 -1.50652 0
M  V30 12492 C 1186.35 0.341191 -2.32106 0
M  V30 12493 C 1187.36 1.00384 -1.42123 0
M  V30 12494 O 1188.54 0.993635 -1.75182 0
M  V30 12495 C 1185.6 1.41356 -3.16575 0
M  V30 12496 C 1184.66 0.768375 -4.22368 0
M  V30 12497 C 1183.9 1.78964 -5.028 0
M  V30 12498 O 1184.12 3.01515 -4.84195 0
M  V30 12499 O 1183.05 1.36606 -5.86193 0
M  V30 12500 H 1186.88 -0.324482 -3.01962 0
M  V30 12501 H 1184.47 -0.224807 -1.47699 0
M  V30 12502 H 1186.35 2.0349 -3.69012 0
M  V30 12503 H 1185.02 2.06285 -2.49456 0
M  V30 12504 H 1183.93 0.108297 -3.73943 0
M  V30 12505 H 1185.26 0.162164 -4.91933 0
M  V30 12506 N 1186.91 1.56388 -0.195085 0
M  V30 12507 C 1187.86 2.19091 0.725793 0
M  V30 12508 C 1188.83 1.13814 1.20977 0
M  V30 12509 O 1190.02 1.42065 1.27366 0
M  V30 12510 C 1187.16 2.85427 1.93973 0
M  V30 12511 C 1186.27 4.05229 1.49712 0
M  V30 12512 C 1185.4 4.59421 2.66656 0
M  V30 12513 C 1184.44 5.71581 2.19001 0
M  V30 12514 N 1183.58 6.2018 3.29123 0
M  V30 12515 H 1188.42 2.97429 0.184334 0
M  V30 12516 H 1185.96 1.46886 0.0792434 0
M  V30 12517 H 1187.92 3.22057 2.65208 0
M  V30 12518 H 1186.55 2.09652 2.4545 0
M  V30 12519 H 1185.6 3.74261 0.680641 0
M  V30 12520 H 1186.91 4.8635 1.10749 0
M  V30 12521 H 1186.06 4.98357 3.46014 0
M  V30 12522 H 1184.8 3.77407 3.08893 0
M  V30 12523 H 1183.81 5.32174 1.38097 0
M  V30 12524 H 1185.03 6.55413 1.77795 0
M  V30 12525 H 1182.98 5.41088 3.70891 0
M  V30 12526 H 1182.9 6.96353 2.94328 0
M  V30 12527 H 1184.16 6.63769 4.08694 0
M  V30 12528 N 1188.39 -0.0785156 1.57404 0
M  V30 12529 C 1189.62 -0.790893 1.90862 0
M  V30 12530 C 1190.03 -1.7198 0.788644 0
M  V30 12531 O 1189.37 -1.82027 -0.247322 0
M  V30 12532 C 1189.44 -1.64362 3.19727 0
M  V30 12533 C 1189.1 -0.884796 4.48353 0
M  V30 12534 C 1190.1 -0.207074 5.19487 0
M  V30 12535 C 1187.78 -0.853962 4.94988 0
M  V30 12536 C 1189.78 0.491329 6.35504 0
M  V30 12537 C 1187.46 -0.151783 6.10911 0
M  V30 12538 C 1188.46 0.519669 6.8102 0
M  V30 12539 O 1188.15 1.21055 7.94733 0
M  V30 12540 H 1187.88 -0.230427 0.635515 0
M  V30 12541 H 1190.43 -0.0551231 2.05326 0
M  V30 12542 H 1188.66 -2.42203 3.01454 0
M  V30 12543 H 1190.35 -2.23406 3.38887 0
M  V30 12544 H 1191.12 -0.222247 4.84491 0
M  V30 12545 H 1187 -1.36605 4.40296 0
M  V30 12546 H 1190.54 1.01598 6.90162 0
M  V30 12547 H 1186.44 -0.134514 6.4536 0
M  V30 12548 H 1187.21 1.11914 8.10813 0
M  V30 12549 N 1189.87 -1.5367 -0.349747 0
M  V30 12550 C 1191.1 -1.74547 -1.11089 0
M  V30 12551 C 1191.51 -0.481741 -1.82551 0
M  V30 12552 O 1190.87 0.546272 -1.74132 0
M  V30 12553 C 1190.92 -2.92148 -2.12913 0
M  V30 12554 O 1190.64 -4.13633 -1.44358 0
M  V30 12555 C 1192.14 -3.25027 -3.01451 0
M  V30 12556 H 1189.36 -0.583376 -0.331532 0
M  V30 12557 H 1191.91 -2.00473 -0.403841 0
M  V30 12558 H 1190.06 -2.68572 -2.79192 0
M  V30 12559 H 1190.48 -4.79601 -2.12329 0
M  V30 12560 H 1191.95 -4.10679 -3.68845 0
M  V30 12561 H 1192.43 -2.41064 -3.67131 0
M  V30 12562 H 1193.03 -3.50586 -2.40768 0
M  V30 12563 N 1191.35 0.610423 -1.45298 0
M  V30 12564 C 1192.3 1.7213 -1.53753 0
M  V30 12565 C 1193.27 1.61609 -0.383632 0
M  V30 12566 O 1194.45 1.8123 -0.596694 0
M  V30 12567 C 1191.59 3.10433 -1.50749 0
M  V30 12568 C 1190.7 3.3178 -2.76669 0
M  V30 12569 C 1189.84 4.60173 -2.65356 0
M  V30 12570 C 1188.88 4.74769 -3.86343 0
M  V30 12571 N 1188.01 5.94459 -3.73581 0
M  V30 12572 H 1192.85 1.64239 -2.48655 0
M  V30 12573 H 1190.39 0.800879 -1.23387 0
M  V30 12574 H 1192.35 3.90446 -1.46996 0
M  V30 12575 H 1190.98 3.17288 -0.593998 0
M  V30 12576 H 1190.03 2.45563 -2.90522 0
M  V30 12577 H 1191.34 3.38439 -3.66416 0
M  V30 12578 H 1190.5 5.48377 -2.59553 0
M  V30 12579 H 1189.24 4.55907 -1.73204 0
M  V30 12580 H 1188.24 3.8499 -3.92509 0
M  V30 12581 H 1189.47 4.80834 -4.79557 0
M  V30 12582 H 1187.41 5.91243 -2.84196 0
M  V30 12583 H 1187.33 6.02265 -4.5696 0
M  V30 12584 H 1188.6 6.85168 -3.71705 0
M  V30 12585 N 1192.83 1.32541 0.852676 0
M  V30 12586 C 1194.24 1.20863 1.42299 0
M  V30 12587 C 1194.59 -0.178051 1.9539 0
M  V30 12588 O 1193.71 -1.07689 1.87702 0
M  V30 12589 C 1194.31 2.18811 2.58664 0
M  V30 12590 C 1192.87 2.11015 3.11689 0
M  V30 12591 C 1192.01 2.07067 1.84441 0
M  V30 12592 H 1194.97 1.44341 0.659657 0
M  V30 12593 H 1194.99 1.78779 3.35884 0
M  V30 12594 H 1194.5 3.19726 2.19993 0
M  V30 12595 H 1192.6 1.13354 3.54939 0
M  V30 12596 H 1192.71 3.00929 3.72799 0
M  V30 12597 H 1191.08 1.52335 2.04123 0
M  V30 12598 H 1191.86 3.09767 1.47984 0
M  V30 12599 N 1194.3 -1.0692 1.15784 0
M  V30 12600 C 1195.25 -2.16335 0.854506 0
M  V30 12601 C 1196.25 -1.68505 -0.173868 0
M  V30 12602 O 1197.45 -1.79977 -0.0284722 0
M  V30 12603 H 1193.83 -0.706103 0.258694 0
M  V30 12604 H 1195.8 -2.39135 1.78486 0
M  V30 12605 C 1194.55 -3.45778 0.365042 0
M  V30 12606 H 1193.87 -3.82971 1.14776 0
M  V30 12607 H 1195.31 -4.23567 0.191504 0
M  V30 12608 C 1193.77 -3.24258 -0.914253 0
M  V30 12609 O 1194.3 -3.49236 -1.98487 0
M  V30 12610 N 1192.51 -2.77722 -0.855501 0
M  V30 12611 H 1192.05 -2.57595 0.0159233 0
M  V30 12612 H 1192.01 -2.63702 -1.71198 0
M  V30 12613 N 1195.78 -0.955326 -1.25345 0
M  V30 12614 C 1197.03 -0.609278 -1.92697 0
M  V30 12615 C 1197.35 0.856535 -1.75181 0
M  V30 12616 O 1196.62 1.61013 -1.11587 0
M  V30 12617 H 1195.2 -0.22235 -0.713141 0
M  V30 12618 H 1197.86 -1.21372 -1.52496 0
M  V30 12619 H 1196.96 -0.839198 -3.00606 0
M  V30 12620 N 1197.26 1.39987 -0.723979 0
M  V30 12621 C 1198.54 1.94637 -0.1939 0
M  V30 12622 C 1198.92 1.66156 1.30212 0
M  V30 12623 O 1198.27 0.983783 2.06238 0
M  V30 12624 C 1198.48 3.4517 -0.515652 0
M  V30 12625 C 1199.82 4.22113 -0.458919 0
M  V30 12626 O 1200.85 3.53318 -0.452198 0
M  V30 12627 O 1199.71 5.44695 -0.443783 0
M  V30 12628 H 1196.8 0.826394 -0.0316615 0
M  V30 12629 H 1199.35 1.49548 -0.802085 0
M  V30 12630 H 1198.12 3.5929 -1.55004 0
M  V30 12631 H 1197.74 3.97413 0.122067 0
M  V30 12632 N 1198.74 0.470782 1.50404 0
M  V30 12633 C 1199.69 -0.32355 2.28521 0
M  V30 12634 C 1200.66 -0.987472 1.3356 0
M  V30 12635 O 1201.84 -0.999969 1.62497 0
M  V30 12636 C 1198.98 -1.39977 3.15437 0
M  V30 12637 C 1198.09 -0.750656 4.25428 0
M  V30 12638 C 1197.23 -1.80474 4.99602 0
M  V30 12639 C 1196.27 -1.13586 6.01469 0
M  V30 12640 N 1195.41 -2.13279 6.68922 0
M  V30 12641 H 1200.25 0.348902 2.9595 0
M  V30 12642 H 1197.78 0.183908 1.45946 0
M  V30 12643 H 1199.74 -2.0354 3.6418 0
M  V30 12644 H 1198.37 -2.04139 2.50054 0
M  V30 12645 H 1197.42 -0.00247092 3.804 0
M  V30 12646 H 1198.73 -0.222638 4.98303 0
M  V30 12647 H 1197.89 -2.51619 5.52062 0
M  V30 12648 H 1196.63 -2.36657 4.26433 0
M  V30 12649 H 1195.63 -0.410042 5.48269 0
M  V30 12650 H 1196.86 -0.580935 6.76611 0
M  V30 12651 H 1194.8 -2.68479 5.98544 0
M  V30 12652 H 1194.72 -1.65461 7.37671 0
M  V30 12653 H 1195.99 -2.83804 7.26 0
M  V30 12654 N 1200.22 -1.56282 0.203376 0
M  V30 12655 C 1201.13 -2.23086 -0.725922 0
M  V30 12656 C 1202.14 -1.23258 -1.22814 0
M  V30 12657 O 1203.32 -1.5602 -1.27357 0
M  V30 12658 C 1200.38 -2.88358 -1.92485 0
M  V30 12659 C 1199.45 -4.03479 -1.46639 0
M  V30 12660 C 1198.68 -4.65629 -2.60816 0
M  V30 12661 O 1198.9 -4.2672 -3.78506 0
M  V30 12662 O 1197.84 -5.54949 -2.33056 0
M  V30 12663 H 1201.66 -3.03124 -0.18694 0
M  V30 12664 H 1199.25 -1.49377 -0.0262829 0
M  V30 12665 H 1201.13 -3.29623 -2.62539 0
M  V30 12666 H 1199.8 -2.11294 -2.45228 0
M  V30 12667 H 1198.71 -3.66821 -0.734396 0
M  V30 12668 H 1200.04 -4.82232 -0.985535 0
M  V30 12669 N 1201.7 0.070167 -1.57444 0
M  V30 12670 C 1202.63 1.08351 -2.06839 0
M  V30 12671 C 1203.61 1.40269 -0.962224 0
M  V30 12672 O 1204.79 1.49867 -1.23505 0
M  V30 12673 C 1201.92 2.39649 -2.51368 0
M  V30 12674 C 1200.88 2.22079 -3.65875 0
M  V30 12675 C 1200.2 3.58776 -3.96464 0
M  V30 12676 C 1201.5 1.64069 -4.95862 0
M  V30 12677 H 1203.2 0.672465 -2.9175 0
M  V30 12678 H 1200.74 0.322027 -1.40353 0
M  V30 12679 H 1202.69 3.10833 -2.84537 0
M  V30 12680 H 1201.42 2.82736 -1.63487 0
M  V30 12681 H 1200.08 1.53337 -3.32992 0
M  V30 12682 H 1199.73 3.99436 -3.05712 0
M  V30 12683 H 1199.43 3.47859 -4.7357 0
M  V30 12684 H 1200.95 4.31387 -4.32131 0
M  V30 12685 H 1202.36 2.2512 -5.27251 0
M  V30 12686 H 1200.76 1.63843 -5.773 0
M  V30 12687 H 1201.83 0.60232 -4.81145 0
M  V30 12688 N 1203.17 1.53854 0.341593 0
M  V30 12689 C 1204.4 1.75447 1.10604 0
M  V30 12690 C 1204.82 0.493225 1.81518 0
M  V30 12691 O 1204.18 -0.554253 1.7262 0
M  V30 12692 C 1204.23 2.93593 2.09369 0
M  V30 12693 O 1203.33 2.63878 3.16926 0
M  V30 12694 H 1202.67 0.581923 0.319783 0
M  V30 12695 H 1205.2 2.00822 0.391388 0
M  V30 12696 H 1205.21 3.20437 2.52556 0
M  V30 12697 H 1203.89 3.85067 1.57151 0
M  V30 12698 H 1202.47 2.47929 2.78542 0
M  V30 12699 N 1204.65 -0.602709 1.4562 0
M  V30 12700 C 1205.56 -1.74132 1.5721 0
M  V30 12701 C 1206.58 -1.67909 0.456347 0
M  V30 12702 O 1207.75 -1.88178 0.717714 0
M  V30 12703 C 1204.82 -3.10604 1.54032 0
M  V30 12704 C 1203.88 -3.28244 2.76685 0
M  V30 12705 C 1203.11 -4.58205 2.73649 0
M  V30 12706 O 1203.34 -5.40836 1.81254 0
M  V30 12707 O 1202.27 -4.78663 3.64919 0
M  V30 12708 H 1206.1 -1.67304 2.53462 0
M  V30 12709 H 1203.68 -0.767381 1.28186 0
M  V30 12710 H 1205.56 -3.91904 1.54885 0
M  V30 12711 H 1204.24 -3.17913 0.60934 0
M  V30 12712 H 1203.14 -2.46514 2.81393 0
M  V30 12713 H 1204.48 -3.25814 3.68925 0
M  V30 12714 N 1206.13 -1.32992 -0.845635 0
M  V30 12715 C 1207.09 -1.22607 -1.9365 0
M  V30 12716 C 1208.09 -0.146812 -1.60128 0
M  V30 12717 O 1209.28 -0.397863 -1.69596 0
M  V30 12718 C 1206.41 -0.887677 -3.2914 0
M  V30 12719 H 1207.61 -2.19563 -2.04285 0
M  V30 12720 H 1205.16 -1.16952 -1.03691 0
M  V30 12721 H 1205.9 0.0796777 -3.24202 0
M  V30 12722 H 1205.68 -1.66808 -3.54849 0
M  V30 12723 H 1207.17 -0.83958 -4.09073 0
M  V30 12724 N 1207.61 1.06304 -1.1635 0
M  V30 12725 C 1208.52 2.17296 -0.884289 0
M  V30 12726 C 1209.53 1.73408 0.143414 0
M  V30 12727 O 1210.71 2.01373 -0.0331987 0
M  V30 12728 C 1207.77 3.44509 -0.389163 0
M  V30 12729 C 1206.84 4.02906 -1.48208 0
M  V30 12730 C 1206.07 5.24047 -1.01048 0
M  V30 12731 O 1206.29 5.70229 0.139821 0
M  V30 12732 O 1205.23 5.74394 -1.79876 0
M  V30 12733 H 1209.05 2.4369 -1.81243 0
M  V30 12734 H 1206.64 1.15841 -0.943459 0
M  V30 12735 H 1208.52 4.21229 -0.120018 0
M  V30 12736 H 1207.19 3.19642 0.510968 0
M  V30 12737 H 1206.1 3.27677 -1.80496 0
M  V30 12738 H 1207.43 4.32068 -2.35751 0
M  V30 12739 N 1209.09 0.96196 1.24836 0
M  V30 12740 C 1210.03 0.48686 2.25607 0
M  V30 12741 C 1211 -0.464546 1.59472 0
M  V30 12742 O 1212.19 -0.376179 1.87055 0
M  V30 12743 C 1209.33 -0.222294 3.44383 0
M  V30 12744 C 1208.44 0.767206 4.25133 0
M  V30 12745 C 1207.58 0.0347458 5.31189 0
M  V30 12746 C 1206.61 1.01469 6.03631 0
M  V30 12747 N 1205.75 0.312619 7.01404 0
M  V30 12748 H 1210.59 1.35104 2.65614 0
M  V30 12749 H 1208.13 0.677373 1.30576 0
M  V30 12750 H 1210.09 -0.650087 4.12104 0
M  V30 12751 H 1208.72 -1.05047 3.0523 0
M  V30 12752 H 1207.77 1.31346 3.57005 0
M  V30 12753 H 1209.08 1.5147 4.75245 0
M  V30 12754 H 1208.23 -0.451325 6.05019 0
M  V30 12755 H 1206.97 -0.745485 4.81969 0
M  V30 12756 H 1205.98 1.51169 5.28609 0
M  V30 12757 H 1207.2 1.79527 6.5494 0
M  V30 12758 H 1205.15 -0.44874 6.54463 0
M  V30 12759 H 1205.07 0.999079 7.49369 0
M  V30 12760 H 1206.33 -0.151673 7.79352 0
M  V30 12761 N 1210.56 -1.39601 0.731392 0
M  V30 12762 C 1211.81 -1.99821 0.274661 0
M  V30 12763 C 1212.13 -1.58693 -1.1435 0
M  V30 12764 O 1213.33 -2.11724 -1.69957 0
M  V30 12765 C 1211.79 -3.57199 0.440124 0
M  V30 12766 C 1211.4 -4.07292 1.86594 0
M  V30 12767 C 1213.14 -4.24476 0.0449851 0
M  V30 12768 C 1211.05 -5.57229 1.98115 0
M  V30 12769 H 1209.98 -0.747481 0.0989383 0
M  V30 12770 H 1212.63 -1.59645 0.904755 0
M  V30 12771 H 1211.01 -3.95153 -0.25881 0
M  V30 12772 H 1212.18 -3.80679 2.59654 0
M  V30 12773 H 1210.5 -3.52665 2.21397 0
M  V30 12774 H 1213.1 -5.34587 0.110126 0
M  V30 12775 H 1213.44 -4.04129 -0.999269 0
M  V30 12776 H 1213.97 -3.91683 0.694942 0
M  V30 12777 H 1210.71 -5.82452 3.00716 0
M  V30 12778 H 1210.23 -5.85656 1.29487 0
M  V30 12779 H 1211.91 -6.22584 1.76063 0
M  V30 12780 N 1212.04 -0.478751 -1.50152 0
M  V30 12781 C 1212.98 0.357584 -2.25381 0
M  V30 12782 C 1213.95 0.98965 -1.29014 0
M  V30 12783 O 1215.14 1.02409 -1.58255 0
M  V30 12784 C 1212.26 1.50167 -3.03591 0
M  V30 12785 C 1211.31 0.986215 -4.14941 0
M  V30 12786 S 1212.14 -0.105239 -5.35397 0
M  V30 12787 C 1213.3 1.04254 -6.17156 0
M  V30 12788 H 1213.53 -0.280985 -2.95969 0
M  V30 12789 H 1211.07 -0.263734 -1.52131 0
M  V30 12790 H 1213.02 2.15733 -3.49241 0
M  V30 12791 H 1211.68 2.11178 -2.32514 0
M  V30 12792 H 1210.88 1.84295 -4.69096 0
M  V30 12793 H 1210.48 0.408141 -3.71766 0
M  V30 12794 H 1212.77 1.95255 -6.48754 0
M  V30 12795 H 1213.71 0.540083 -7.06037 0
M  V30 12796 H 1214.12 1.29983 -5.49331 0
M  V30 12797 N 1213.52 1.56172 -0.211661 0
M  V30 12798 C 1214.45 2.22843 0.697375 0
M  V30 12799 C 1215.43 1.19689 1.20866 0
M  V30 12800 O 1216.62 1.48245 1.25447 0
M  V30 12801 C 1213.75 2.90067 1.90993 0
M  V30 12802 C 1212.7 3.99608 1.5329 0
M  V30 12803 C 1212.03 4.54078 2.82343 0
M  V30 12804 C 1213.33 5.17169 0.730333 0
M  V30 12805 H 1215.02 2.99065 0.141533 0
M  V30 12806 H 1212.57 1.43846 0.0666337 0
M  V30 12807 H 1214.52 3.35396 2.55123 0
M  V30 12808 H 1213.24 2.11276 2.49058 0
M  V30 12809 H 1211.9 3.54995 0.915115 0
M  V30 12810 H 1211.55 3.72029 3.38531 0
M  V30 12811 H 1211.25 5.28001 2.57853 0
M  V30 12812 H 1212.77 5.02119 3.47432 0
M  V30 12813 H 1214.19 5.5894 1.2751 0
M  V30 12814 H 1212.59 5.97262 0.582916 0
M  V30 12815 H 1213.66 4.84174 -0.265157 0
M  V30 12816 N 1215 -0.0618163 1.57479 0
M  V30 12817 C 1216.22 -0.775513 1.92355 0
M  V30 12818 C 1216.65 -1.69816 0.808949 0
M  V30 12819 O 1216.01 -1.79736 -0.23761 0
M  V30 12820 C 1216.05 -1.5367 3.26218 0
M  V30 12821 O 1215.16 -2.64802 3.16155 0
M  V30 12822 H 1214.5 -0.210909 0.629614 0
M  V30 12823 H 1217.03 -0.0270752 2.04582 0
M  V30 12824 H 1217.04 -1.91379 3.6033 0
M  V30 12825 H 1215.71 -0.859798 4.06916 0
M  V30 12826 H 1214.29 -2.29876 2.93618 0
M  V30 12827 N 1216.48 -1.54033 -0.333429 0
M  V30 12828 C 1217.72 -1.71765 -1.07252 0
M  V30 12829 C 1218.05 -0.486135 -1.88327 0
M  V30 12830 O 1217.31 0.532135 -1.88326 0
M  V30 12831 C 1217.61 -2.93926 -2.03328 0
M  V30 12832 C 1217.27 -4.29107 -1.38486 0
M  V30 12833 C 1215.93 -4.6586 -1.20532 0
M  V30 12834 C 1218.29 -5.13041 -0.918624 0
M  V30 12835 C 1215.61 -5.84155 -0.545881 0
M  V30 12836 C 1217.97 -6.3201 -0.273055 0
M  V30 12837 C 1216.63 -6.67451 -0.0812815 0
M  V30 12838 H 1215.9 -0.628532 -0.392464 0
M  V30 12839 H 1218.55 -1.88261 -0.350709 0
M  V30 12840 H 1216.85 -2.72075 -2.81926 0
M  V30 12841 H 1218.55 -3.0484 -2.60526 0
M  V30 12842 H 1215.14 -4.00185 -1.5346 0
M  V30 12843 H 1219.32 -4.8517 -1.04515 0
M  V30 12844 H 1214.58 -6.1018 -0.386009 0
M  V30 12845 H 1218.75 -6.96333 0.0962582 0
M  V30 12846 H 1216.38 -7.58973 0.431734 0
M  V30 12847 N 1217.95 0.594978 -1.45938 0
M  V30 12848 C 1218.9 1.69949 -1.51991 0
M  V30 12849 C 1219.89 1.56301 -0.381956 0
M  V30 12850 O 1221.08 1.65423 -0.62961 0
M  V30 12851 C 1218.21 3.08723 -1.5015 0
M  V30 12852 C 1217.3 3.27712 -2.69194 0
M  V30 12853 N 1217.69 3.1691 -3.9421 0
M  V30 12854 C 1215.98 3.58618 -2.65158 0
M  V30 12855 C 1216.69 3.37572 -4.7373 0
M  V30 12856 N 1215.66 3.62154 -4.05395 0
M  V30 12857 H 1219.46 1.60109 -2.46459 0
M  V30 12858 H 1216.98 0.798634 -1.41406 0
M  V30 12859 H 1218.97 3.87978 -1.52573 0
M  V30 12860 H 1217.63 3.19702 -0.567488 0
M  V30 12861 H 1218.65 2.95039 -4.25643 0
M  V30 12862 H 1215.32 3.76358 -1.80724 0
M  V30 12863 H 1216.71 3.34507 -5.82713 0
M  V30 12864 N 1219.43 1.33438 0.838571 0
M  V30 12865 C 1220.34 1.25753 1.98049 0
M  V30 12866 C 1221.36 0.168051 1.73187 0
M  V30 12867 O 1222.53 0.391691 1.97554 0
M  V30 12868 C 1219.6 0.997148 3.32051 0
M  V30 12869 C 1218.66 2.17667 3.70027 0
M  V30 12870 C 1217.89 1.92861 4.97635 0
M  V30 12871 O 1218.12 0.879072 5.63585 0
M  V30 12872 O 1217.05 2.79402 5.33121 0
M  V30 12873 H 1220.88 2.21786 2.07472 0
M  V30 12874 H 1218.46 1.13488 0.971645 0
M  V30 12875 H 1220.34 0.869099 4.1234 0
M  V30 12876 H 1219.02 0.0671036 3.2363 0
M  V30 12877 H 1217.93 2.36025 2.90246 0
M  V30 12878 H 1219.26 3.09006 3.83114 0
M  V30 12879 N 1220.91 -1.05686 1.16912 0
M  V30 12880 C 1221.82 -2.16824 0.8958 0
M  V30 12881 C 1222.84 -1.73482 -0.134215 0
M  V30 12882 O 1224.01 -2.01352 0.0438776 0
M  V30 12883 C 1221.08 -3.44298 0.407427 0
M  V30 12884 C 1220.14 -4.02114 1.50342 0
M  V30 12885 C 1219.37 -5.23503 1.03826 0
M  V30 12886 O 1219.59 -5.70295 -0.109579 0
M  V30 12887 O 1218.53 -5.73432 1.8292 0
M  V30 12888 H 1222.35 -2.42725 1.82533 0
M  V30 12889 H 1219.94 -1.15339 0.949589 0
M  V30 12890 H 1221.82 -4.21159 0.142356 0
M  V30 12891 H 1220.5 -3.19908 -0.494009 0
M  V30 12892 H 1219.4 -3.26715 1.82231 0
M  V30 12893 H 1220.74 -4.30811 2.38039 0
M  V30 12894 N 1222.39 -0.968567 -1.24324 0
M  V30 12895 C 1223.32 -0.457247 -2.24593 0
M  V30 12896 C 1224.33 0.434483 -1.56895 0
M  V30 12897 O 1225.52 0.240519 -1.76872 0
M  V30 12898 C 1222.62 0.359086 -3.36992 0
M  V30 12899 C 1221.8 -0.522945 -4.34263 0
M  V30 12900 C 1220.85 0.237528 -5.25664 0
M  V30 12901 O 1219.88 -0.368835 -5.68004 0
M  V30 12902 N 1221.08 1.52686 -5.6006 0
M  V30 12903 H 1223.85 -1.31934 -2.69098 0
M  V30 12904 H 1221.41 -0.840488 -1.38374 0
M  V30 12905 H 1223.4 0.87589 -3.95108 0
M  V30 12906 H 1221.97 1.12212 -2.91766 0
M  V30 12907 H 1221.19 -1.22071 -3.74823 0
M  V30 12908 H 1222.48 -1.12447 -4.96219 0
M  V30 12909 H 1221.88 2.0412 -5.2759 0
M  V30 12910 H 1220.43 1.98934 -6.207 0
M  V30 12911 N 1223.87 1.39211 -0.738786 0
M  V30 12912 C 1224.78 2.34374 -0.102958 0
M  V30 12913 C 1225.79 1.58514 0.717596 0
M  V30 12914 O 1226.97 1.90786 0.645186 0
M  V30 12915 C 1224.03 3.37562 0.790733 0
M  V30 12916 C 1223.09 4.29279 -0.0425028 0
M  V30 12917 C 1222.33 5.27539 0.808628 0
M  V30 12918 O 1222.55 5.32396 2.04722 0
M  V30 12919 O 1221.48 6.0144 0.235279 0
M  V30 12920 H 1225.31 2.90412 -0.888498 0
M  V30 12921 H 1222.9 1.40803 -0.499498 0
M  V30 12922 H 1224.78 4.00783 1.30196 0
M  V30 12923 H 1223.45 2.83903 1.55502 0
M  V30 12924 H 1222.36 3.69268 -0.599335 0
M  V30 12925 H 1223.69 4.86154 -0.7691 0
M  V30 12926 N 1225.34 0.486708 1.49896 0
M  V30 12927 C 1226.59 -0.0629451 2.02702 0
M  V30 12928 C 1226.92 -1.37956 1.36681 0
M  V30 12929 O 1226.2 -1.88025 0.497678 0
M  V30 12930 C 1226.48 -0.230461 3.59362 0
M  V30 12931 C 1226.33 1.10828 4.35933 0
M  V30 12932 C 1227.65 -0.977785 4.29101 0
M  V30 12933 H 1224.77 -0.0214017 0.736689 0
M  V30 12934 H 1227.41 0.635339 1.79063 0
M  V30 12935 H 1225.56 -0.825222 3.79634 0
M  V30 12936 H 1227.24 1.74082 4.27192 0
M  V30 12937 H 1225.48 1.7011 3.99055 0
M  V30 12938 H 1226.15 0.944532 5.43859 0
M  V30 12939 H 1228.63 -0.473505 4.13397 0
M  V30 12940 H 1227.5 -1.06382 5.38492 0
M  V30 12941 H 1227.76 -2.01813 3.9335 0
M  V30 12942 N 1226.82 -1.56058 0.219941 0
M  V30 12943 C 1227.75 -2.2321 -0.685547 0
M  V30 12944 C 1228.73 -1.20328 -1.20229 0
M  V30 12945 O 1229.92 -1.48909 -1.24659 0
M  V30 12946 C 1227.05 -2.91076 -1.89452 0
M  V30 12947 C 1226 -4.00415 -1.51169 0
M  V30 12948 C 1225.33 -4.55569 -2.79931 0
M  V30 12949 C 1226.63 -5.17549 -0.702896 0
M  V30 12950 H 1228.32 -2.99136 -0.125671 0
M  V30 12951 H 1225.87 -1.43879 -0.0590043 0
M  V30 12952 H 1227.82 -3.36744 -2.53341 0
M  V30 12953 H 1226.55 -2.12594 -2.47934 0
M  V30 12954 H 1225.21 -3.55475 -0.896275 0
M  V30 12955 H 1224.85 -3.73819 -3.36553 0
M  V30 12956 H 1224.55 -5.29361 -2.55049 0
M  V30 12957 H 1226.08 -5.03955 -3.44764 0
M  V30 12958 H 1227.49 -5.59608 -1.24544 0
M  V30 12959 H 1225.89 -5.97563 -0.551234 0
M  V30 12960 H 1226.96 -4.84027 0.29083 0
M  V30 12961 N 1228.3 0.053464 -1.57509 0
M  V30 12962 C 1229.71 0.603099 -1.76691 0
M  V30 12963 C 1230.06 1.76934 -0.847861 0
M  V30 12964 O 1229.19 2.16369 -0.0364962 0
M  V30 12965 C 1229.78 1.10084 -3.20417 0
M  V30 12966 C 1228.34 1.59618 -3.4088 0
M  V30 12967 C 1227.49 0.523516 -2.72313 0
M  V30 12968 H 1230.44 -0.172751 -1.57757 0
M  V30 12969 H 1230.46 1.9691 -3.25587 0
M  V30 12970 H 1229.97 0.251818 -3.87282 0
M  V30 12971 H 1228.07 2.46786 -2.79155 0
M  V30 12972 H 1228.19 1.6605 -4.49404 0
M  V30 12973 H 1226.55 0.972886 -2.35387 0
M  V30 12974 H 1227.33 -0.315629 -3.41846 0
M  V30 12975 N 1229.78 1.54207 0.325255 0
M  V30 12976 C 1230.69 1.86495 1.42326 0
M  V30 12977 C 1231.71 0.756718 1.56684 0
M  V30 12978 O 1232.88 1.05084 1.71812 0
M  V30 12979 C 1229.95 2.08414 2.77064 0
M  V30 12980 C 1229.01 3.32221 2.71897 0
M  V30 12981 C 1228.24 3.53085 4.00209 0
M  V30 12982 O 1228.46 2.77421 4.98391 0
M  V30 12983 O 1227.4 4.46559 4.0357 0
M  V30 12984 H 1231.22 2.79859 1.17951 0
M  V30 12985 H 1228.81 1.40091 0.519124 0
M  V30 12986 H 1230.69 2.24171 3.56827 0
M  V30 12987 H 1229.37 1.18238 3.01333 0
M  V30 12988 H 1228.27 3.21851 1.90691 0
M  V30 12989 H 1229.61 4.22449 2.52582 0
M  V30 12990 N 1231.26 -0.58723 1.46251 0
M  V30 12991 C 1232.49 -1.37174 1.5489 0
M  V30 12992 C 1232.9 -1.87857 0.188445 0
M  V30 12993 O 1232.26 -1.63365 -0.813509 0
M  V30 12994 C 1232.31 -2.56237 2.55 0
M  V30 12995 O 1232.03 -2.07655 3.8576 0
M  V30 12996 C 1233.53 -3.48846 2.73535 0
M  V30 12997 H 1230.75 -0.419211 0.523931 0
M  V30 12998 H 1233.29 -0.714307 1.91619 0
M  V30 12999 H 1231.45 -3.1798 2.21287 0
M  V30 13000 H 1231.86 -2.85161 4.40208 0
M  V30 13001 H 1233.34 -4.2888 3.47514 0
M  V30 13002 H 1233.81 -4.00493 1.80282 0
M  V30 13003 H 1234.42 -2.92942 3.08326 0
M  V30 13004 N 1232.74 -1.33881 -0.831482 0
M  V30 13005 C 1233.98 -1.25755 -1.58719 0
M  V30 13006 C 1234.31 0.174746 -1.93713 0
M  V30 13007 O 1233.57 1.13384 -1.59507 0
M  V30 13008 C 1233.86 -2.08544 -2.90249 0
M  V30 13009 C 1233.53 -3.57651 -2.74585 0
M  V30 13010 C 1232.19 -3.983 -2.7002 0
M  V30 13011 C 1234.54 -4.52369 -2.58866 0
M  V30 13012 C 1231.87 -5.31872 -2.47647 0
M  V30 13013 C 1234.22 -5.86112 -2.38025 0
M  V30 13014 C 1232.89 -6.25934 -2.31867 0
M  V30 13015 H 1232.16 -0.460171 -0.580796 0
M  V30 13016 H 1234.81 -1.6554 -0.96274 0
M  V30 13017 H 1233.11 -1.6156 -3.56939 0
M  V30 13018 H 1234.81 -1.99609 -3.47789 0
M  V30 13019 H 1231.4 -3.2538 -2.78973 0
M  V30 13020 H 1235.58 -4.21868 -2.61421 0
M  V30 13021 H 1230.84 -5.61756 -2.41331 0
M  V30 13022 H 1235.01 -6.59103 -2.24847 0
M  V30 13023 H 1232.64 -7.29372 -2.14291 0
M  V30 13024 N 1234.21 1.05064 -1.1747 0
M  V30 13025 C 1235.14 2.14786 -0.915936 0
M  V30 13026 C 1236.12 1.69502 0.142561 0
M  V30 13027 O 1237.31 1.94198 -0.00794522 0
M  V30 13028 C 1234.44 3.44629 -0.429864 0
M  V30 13029 C 1233.39 4.03486 -1.42769 0
M  V30 13030 C 1232.72 5.28689 -0.799528 0
M  V30 13031 C 1234.02 4.40823 -2.80129 0
M  V30 13032 H 1235.71 2.3669 -1.83352 0
M  V30 13033 H 1233.26 1.13751 -0.882992 0
M  V30 13034 H 1235.21 4.20737 -0.236245 0
M  V30 13035 H 1233.94 3.22381 0.523263 0
M  V30 13036 H 1232.6 3.29449 -1.60808 0
M  V30 13037 H 1232.24 5.02744 0.160474 0
M  V30 13038 H 1231.94 5.69028 -1.46565 0
M  V30 13039 H 1233.47 6.07483 -0.616212 0
M  V30 13040 H 1234.88 5.07959 -2.65801 0
M  V30 13041 H 1233.28 4.92183 -3.43331 0
M  V30 13042 H 1234.35 3.51108 -3.34441 0
M  V30 13043 N 1235.69 0.975146 1.23809 0
M  V30 13044 C 1236.65 0.516157 2.23312 0
M  V30 13045 C 1237.65 -0.39136 1.55965 0
M  V30 13046 O 1238.84 -0.185783 1.73206 0
M  V30 13047 C 1235.98 -0.251534 3.39971 0
M  V30 13048 H 1237.17 1.3959 2.65433 0
M  V30 13049 H 1234.72 0.760493 1.36551 0
M  V30 13050 H 1235.46 -1.14805 3.03299 0
M  V30 13051 H 1235.24 0.399825 3.90056 0
M  V30 13052 H 1236.73 -0.561438 4.13809 0
M  V30 13053 N 1237.17 -1.38817 0.746158 0
M  V30 13054 C 1238.12 -2.32373 0.102785 0
M  V30 13055 C 1239.11 -1.53638 -0.713556 0
M  V30 13056 O 1240.32 -1.69223 -0.613488 0
M  V30 13057 H 1236.69 -0.751861 0.0144405 0
M  V30 13058 H 1238.66 -2.84249 0.908032 0
M  V30 13059 C 1237.41 -3.38796 -0.781827 0
M  V30 13060 H 1236.74 -3.99467 -0.163057 0
M  V30 13061 H 1238.18 -4.06682 -1.19941 0
M  V30 13062 C 1236.63 -2.76756 -1.92113 0
M  V30 13063 O 1237.16 -2.65478 -3.0147 0
M  V30 13064 N 1235.37 -2.34676 -1.71392 0
M  V30 13065 H 1234.92 -2.44049 -0.824483 0
M  V30 13066 H 1234.88 -1.93508 -2.47794 0
M  V30 13067 N 1238.65 -0.49465 -1.49636 0
M  V30 13068 C 1239.89 0.0521172 -2.02433 0
M  V30 13069 C 1240.22 1.37579 -1.37485 0
M  V30 13070 O 1239.48 1.8927 -0.497538 0
M  V30 13071 C 1239.78 0.259743 -3.56455 0
M  V30 13072 C 1239.44 -0.985143 -4.40007 0
M  V30 13073 C 1238.1 -1.3264 -4.62558 0
M  V30 13074 C 1240.46 -1.81291 -4.88654 0
M  V30 13075 C 1237.78 -2.49506 -5.31003 0
M  V30 13076 C 1240.14 -2.97305 -5.58384 0
M  V30 13077 C 1238.8 -3.31818 -5.79183 0
M  V30 13078 H 1238.07 0.0190711 -0.740755 0
M  V30 13079 H 1240.72 -0.653519 -1.80004 0
M  V30 13080 H 1239.02 1.04785 -3.77528 0
M  V30 13081 H 1240.72 0.697146 -3.94893 0
M  V30 13082 H 1237.31 -0.709313 -4.2269 0
M  V30 13083 H 1241.49 -1.56242 -4.71065 0
M  V30 13084 H 1236.75 -2.76491 -5.4531 0
M  V30 13085 H 1240.92 -3.61777 -5.95055 0
M  V30 13086 H 1238.55 -4.22478 -6.31994 0
M  V30 13087 N 1240.13 1.55939 -0.228214 0
M  V30 13088 C 1241.54 1.84612 0.278417 0
M  V30 13089 C 1241.89 1.14973 1.58983 0
M  V30 13090 O 1241.01 0.421673 2.12252 0
M  V30 13091 C 1241.61 3.3491 0.511935 0
M  V30 13092 C 1240.17 3.63876 0.962861 0
M  V30 13093 C 1239.31 2.77284 0.0296246 0
M  V30 13094 H 1242.26 1.52149 -0.451245 0
M  V30 13095 H 1242.29 3.55477 1.35707 0
M  V30 13096 H 1241.8 3.85567 -0.442697 0
M  V30 13097 H 1239.9 3.18682 1.93062 0
M  V30 13098 H 1240.01 4.71809 0.832659 0
M  V30 13099 H 1238.38 2.48961 0.53763 0
M  V30 13100 H 1239.16 3.30742 -0.920044 0
M  V30 13101 N 1241.6 -0.0451101 1.57535 0
M  V30 13102 C 1242.83 -0.755068 1.93167 0
M  V30 13103 C 1243.25 -1.68949 0.826915 0
M  V30 13104 O 1242.61 -1.79978 -0.218534 0
M  V30 13105 C 1242.66 -1.50201 3.27829 0
M  V30 13106 O 1241.76 -2.61434 3.18945 0
M  V30 13107 H 1241.11 -0.204219 0.631815 0
M  V30 13108 H 1243.64 -0.00537504 2.04599 0
M  V30 13109 H 1243.65 -1.87547 3.6234 0
M  V30 13110 H 1242.32 -0.816591 4.07805 0
M  V30 13111 H 1240.9 -2.26749 2.96039 0
M  V30 13112 N 1243.08 -1.54377 -0.317073 0
M  V30 13113 C 1244.01 -1.8721 -1.39552 0
M  V30 13114 C 1244.99 -0.729483 -1.53664 0
M  V30 13115 O 1246.18 -0.983799 -1.67437 0
M  V30 13116 C 1243.31 -2.1052 -2.76222 0
M  V30 13117 C 1242.26 -3.26366 -2.76892 0
M  V30 13118 C 1241.59 -3.35061 -4.16699 0
M  V30 13119 C 1242.89 -4.63862 -2.40061 0
M  V30 13120 H 1244.58 -2.77532 -1.12323 0
M  V30 13121 H 1242.13 -1.33536 -0.538897 0
M  V30 13122 H 1244.08 -2.32073 -3.51739 0
M  V30 13123 H 1242.81 -1.16953 -3.04942 0
M  V30 13124 H 1241.46 -3.0471 -2.03831 0
M  V30 13125 H 1241.11 -2.39041 -4.4257 0
M  V30 13126 H 1240.81 -4.12923 -4.18053 0
M  V30 13127 H 1242.34 -3.58856 -4.94019 0
M  V30 13128 H 1243.75 -4.85252 -3.05292 0
M  V30 13129 H 1242.15 -5.44321 -2.52655 0
M  V30 13130 H 1243.22 -4.6567 -1.35202 0
M  V30 13131 N 1244.56 0.579466 -1.4656 0
M  V30 13132 C 1245.81 1.33379 -1.51304 0
M  V30 13133 C 1246.12 1.94855 -0.170507 0
M  V30 13134 O 1247.33 2.71331 -0.0957704 0
M  V30 13135 C 1245.78 2.41748 -2.66619 0
M  V30 13136 C 1245.39 1.8656 -4.07307 0
M  V30 13137 C 1247.14 3.18502 -2.80636 0
M  V30 13138 C 1245.04 2.92578 -5.13957 0
M  V30 13139 H 1243.97 0.501422 -0.56311 0
M  V30 13140 H 1246.62 0.618025 -1.72779 0
M  V30 13141 H 1245.01 3.16138 -2.3848 0
M  V30 13142 H 1246.18 1.18692 -4.45252 0
M  V30 13143 H 1244.5 1.22464 -3.97984 0
M  V30 13144 H 1247.09 3.9763 -3.57483 0
M  V30 13145 H 1247.44 3.71295 -1.8827 0
M  V30 13146 H 1247.97 2.51219 -3.08437 0
M  V30 13147 H 1244.71 2.44668 -6.08126 0
M  V30 13148 H 1244.23 3.58926 -4.80554 0
M  V30 13149 H 1245.91 3.56471 -5.39942 0
M  V30 13150 N 1246.04 1.3432 0.824371 0
M  V30 13151 C 1246.99 1.25776 1.93517 0
M  V30 13152 C 1247.96 0.133298 1.65564 0
M  V30 13153 O 1249.14 0.31403 1.88198 0
M  V30 13154 C 1246.28 1.01766 3.29754 0
M  V30 13155 C 1245.39 2.22973 3.7001 0
M  V30 13156 C 1244.53 1.92258 4.95187 0
M  V30 13157 C 1243.57 3.09616 5.2802 0
M  V30 13158 N 1242.7 2.78793 6.44375 0
M  V30 13159 H 1247.54 2.20774 2.00157 0
M  V30 13160 H 1245.08 1.09766 0.979274 0
M  V30 13161 H 1247.04 0.858831 4.08265 0
M  V30 13162 H 1245.67 0.10437 3.22631 0
M  V30 13163 H 1244.72 2.49781 2.86903 0
M  V30 13164 H 1246.03 3.10661 3.90245 0
M  V30 13165 H 1245.19 1.73102 5.81481 0
M  V30 13166 H 1243.93 1.01827 4.76951 0
M  V30 13167 H 1242.93 3.29368 4.40223 0
M  V30 13168 H 1244.16 4.00822 5.48196 0
M  V30 13169 H 1242.1 1.90938 6.27598 0
M  V30 13170 H 1242.02 3.60014 6.64775 0
M  V30 13171 H 1243.29 2.63139 7.33743 0
M  V30 13172 N 1247.52 -1.0444 1.18026 0
M  V30 13173 C 1248.45 -2.11888 0.847277 0
M  V30 13174 C 1249.43 -1.61496 -0.189171 0
M  V30 13175 O 1250.61 -1.88374 -0.0689859 0
M  V30 13176 C 1247.74 -3.3766 0.26525 0
M  V30 13177 C 1246.78 -4.06893 1.27829 0
M  V30 13178 S 1247.62 -4.54445 2.83267 0
M  V30 13179 C 1248.77 -5.83454 2.26565 0
M  V30 13180 H 1249.01 -2.39806 1.75727 0
M  V30 13181 H 1246.54 -1.17152 1.00572 0
M  V30 13182 H 1248.5 -4.1045 -0.0640578 0
M  V30 13183 H 1247.16 -3.07864 -0.622806 0
M  V30 13184 H 1246.35 -4.97287 0.819849 0
M  V30 13185 H 1245.95 -3.40203 1.55364 0
M  V30 13186 H 1248.25 -6.57203 1.64591 0
M  V30 13187 H 1249.19 -6.34056 3.15244 0
M  V30 13188 H 1249.6 -5.3838 1.69728 0
M  V30 13189 N 1248.99 -0.981699 -1.2329 0
M  V30 13190 C 1250.27 -0.567659 -1.87182 0
M  V30 13191 C 1250.65 0.955194 -1.88253 0
M  V30 13192 O 1250 1.83245 -1.36504 0
M  V30 13193 C 1250.21 -1.17522 -3.28618 0
M  V30 13194 C 1251.56 -1.26877 -4.052 0
M  V30 13195 O 1252.58 -1.12877 -3.37842 0
M  V30 13196 O 1251.44 -1.49163 -5.2575 0
M  V30 13197 H 1248.53 -0.191315 -0.804567 0
M  V30 13198 H 1251.08 -1.07686 -1.31155 0
M  V30 13199 H 1249.85 -2.21735 -3.22411 0
M  V30 13200 H 1249.48 -0.650913 -3.92236 0
M  V30 13201 N 1250.47 1.3842 -0.753509 0
M  V30 13202 C 1251.72 1.99359 -0.306416 0
M  V30 13203 C 1252.03 1.60492 1.11811 0
M  V30 13204 O 1253.24 2.14401 1.66567 0
M  V30 13205 C 1251.7 3.56453 -0.496895 0
M  V30 13206 C 1251.3 4.04272 -1.9305 0
M  V30 13207 C 1253.05 4.24351 -0.11251 0
M  V30 13208 C 1250.96 5.54007 -2.06955 0
M  V30 13209 H 1249.89 0.745812 -0.110818 0
M  V30 13210 H 1252.54 1.58185 -0.930039 0
M  V30 13211 H 1250.92 3.95515 0.195912 0
M  V30 13212 H 1252.09 3.765 -2.65677 0
M  V30 13213 H 1250.41 3.49098 -2.26979 0
M  V30 13214 H 1253 5.34344 -0.195161 0
M  V30 13215 H 1253.35 4.05668 0.934849 0
M  V30 13216 H 1253.88 3.90528 -0.757168 0
M  V30 13217 H 1250.62 5.77594 -3.09944 0
M  V30 13218 H 1250.14 5.83522 -1.38788 0
M  V30 13219 H 1251.82 6.19704 -1.85945 0
M  V30 13220 N 1251.95 0.502579 1.49372 0
M  V30 13221 C 1252.9 -0.294292 2.26093 0
M  V30 13222 C 1253.88 -0.934147 1.31006 0
M  V30 13223 O 1255.08 -0.841486 1.55718 0
M  V30 13224 C 1252.21 -1.3572 3.15333 0
M  V30 13225 C 1251.29 -0.723506 4.17883 0
M  V30 13226 N 1251.68 0.174787 5.05498 0
M  V30 13227 C 1249.98 -0.983906 4.35012 0
M  V30 13228 C 1250.68 0.537673 5.7921 0
M  V30 13229 N 1249.66 -0.0947799 5.43517 0
M  V30 13230 H 1253.46 0.397202 2.91204 0
M  V30 13231 H 1250.97 0.31876 1.59241 0
M  V30 13232 H 1252.97 -1.94154 3.6893 0
M  V30 13233 H 1251.63 -2.05036 2.51775 0
M  V30 13234 H 1252.64 0.545699 5.15017 0
M  V30 13235 H 1249.32 -1.66969 3.82658 0
M  V30 13236 H 1250.71 1.27266 6.59737 0
M  V30 13237 N 1253.43 -1.55816 0.23648 0
M  V30 13238 C 1254.38 -2.20938 -0.66745 0
M  V30 13239 C 1255.35 -1.16982 -1.17917 0
M  V30 13240 O 1256.53 -1.45392 -1.23555 0
M  V30 13241 C 1253.67 -2.90469 -1.86337 0
M  V30 13242 C 1252.78 -4.09056 -1.38915 0
M  V30 13243 C 1251.92 -4.6633 -2.54382 0
M  V30 13244 C 1250.96 -5.77187 -2.0377 0
M  V30 13245 N 1250.09 -6.28688 -3.12564 0
M  V30 13246 H 1254.93 -2.97814 -0.105411 0
M  V30 13247 H 1252.47 -1.47045 -0.0402712 0
M  V30 13248 H 1254.43 -3.28975 -2.56576 0
M  V30 13249 H 1253.06 -2.16086 -2.39806 0
M  V30 13250 H 1252.11 -3.75934 -0.581173 0
M  V30 13251 H 1253.42 -4.89115 -0.978152 0
M  V30 13252 H 1252.58 -5.07355 -3.32679 0
M  V30 13253 H 1251.32 -3.85464 -2.98778 0
M  V30 13254 H 1250.32 -5.35648 -1.23939 0
M  V30 13255 H 1251.55 -6.59896 -1.60355 0
M  V30 13256 H 1249.49 -5.50731 -3.56414 0
M  V30 13257 H 1249.41 -7.03911 -2.75762 0
M  V30 13258 H 1250.68 -6.74371 -3.90952 0
M  V30 13259 N 1254.91 0.036755 -1.57557 0
M  V30 13260 C 1255.85 1.03975 -2.06053 0
M  V30 13261 C 1256.82 1.36384 -0.948089 0
M  V30 13262 O 1258.01 1.46853 -1.21815 0
M  V30 13263 C 1255.15 2.33796 -2.53837 0
M  V30 13264 C 1254.26 2.07614 -3.78841 0
M  V30 13265 C 1253.4 3.3125 -4.15267 0
M  V30 13266 C 1252.44 3.00587 -5.33211 0
M  V30 13267 N 1251.57 4.16653 -5.65106 0
M  V30 13268 H 1256.41 0.61924 -2.91495 0
M  V30 13269 H 1253.95 0.294151 -1.44129 0
M  V30 13270 H 1255.91 3.09639 -2.79606 0
M  V30 13271 H 1254.54 2.73584 -1.71323 0
M  V30 13272 H 1253.59 1.22302 -3.60203 0
M  V30 13273 H 1254.9 1.80989 -4.64806 0
M  V30 13274 H 1254.06 4.15466 -4.42123 0
M  V30 13275 H 1252.79 3.60981 -3.27939 0
M  V30 13276 H 1251.8 2.14772 -5.06115 0
M  V30 13277 H 1253.02 2.72142 -6.22186 0
M  V30 13278 H 1250.97 4.4635 -4.80737 0
M  V30 13279 H 1250.89 3.93425 -6.45564 0
M  V30 13280 H 1252.16 5.01764 -5.96534 0
M  V30 13281 N 1256.39 1.54543 0.308881 0
M  V30 13282 C 1257.63 1.73706 1.04661 0
M  V30 13283 C 1257.96 0.517111 1.87189 0
M  V30 13284 O 1257.24 -0.485856 1.88334 0
M  V30 13285 C 1257.52 3.02141 1.95916 0
M  V30 13286 C 1257.38 4.34419 1.1662 0
M  V30 13287 C 1258.69 3.26401 2.95213 0
M  V30 13288 H 1255.81 0.63203 0.379087 0
M  V30 13289 H 1258.46 1.87253 0.321947 0
M  V30 13290 H 1256.61 2.90723 2.57706 0
M  V30 13291 H 1258.28 4.57743 0.571772 0
M  V30 13292 H 1256.52 4.3126 0.468747 0
M  V30 13293 H 1257.19 5.20535 1.83704 0
M  V30 13294 H 1259.67 3.37377 2.43549 0
M  V30 13295 H 1258.54 4.17597 3.56235 0
M  V30 13296 H 1258.8 2.44322 3.68455 0
M  V30 13297 N 1257.86 -0.571685 1.46866 0
M  V30 13298 C 1259.09 -1.35524 1.56336 0
M  V30 13299 C 1259.51 -1.87647 0.208359 0
M  V30 13300 O 1258.86 -1.64219 -0.796136 0
M  V30 13301 C 1258.91 -2.53518 2.57703 0
M  V30 13302 O 1258.64 -2.03552 3.87941 0
M  V30 13303 C 1260.14 -3.45925 2.77219 0
M  V30 13304 H 1257.36 -0.41363 0.528348 0
M  V30 13305 H 1259.9 -0.693943 1.92366 0
M  V30 13306 H 1258.06 -3.15615 2.24647 0
M  V30 13307 H 1258.47 -2.80476 4.43208 0
M  V30 13308 H 1259.94 -4.2517 3.52043 0
M  V30 13309 H 1260.42 -3.98559 1.8452 0
M  V30 13310 H 1261.03 -2.89655 3.11416 0
M  V30 13311 N 1259.34 -1.34755 -0.817236 0
M  V30 13312 C 1260.62 -1.18007 -1.55993 0
M  V30 13313 C 1261 0.245079 -2.09673 0
M  V30 13314 O 1260.35 1.24718 -1.91462 0
M  V30 13315 C 1260.56 -2.23934 -2.67684 0
M  V30 13316 C 1261.9 -2.59201 -3.36303 0
M  V30 13317 O 1262.93 -2.22767 -2.77945 0
M  V30 13318 O 1261.79 -3.21809 -4.41702 0
M  V30 13319 H 1258.88 -0.4578 -0.688729 0
M  V30 13320 H 1261.43 -1.46405 -0.858117 0
M  V30 13321 H 1260.2 -3.19568 -2.25813 0
M  V30 13322 H 1259.82 -1.96745 -3.4551 0
M  V30 13323 N 1260.82 1.03812 -1.18578 0
M  V30 13324 C 1262.23 1.58509 -0.986496 0
M  V30 13325 C 1262.58 1.90655 0.463136 0
M  V30 13326 O 1261.71 1.69847 1.34093 0
M  V30 13327 C 1262.3 2.88 -1.78441 0
M  V30 13328 C 1260.86 3.39304 -1.6294 0
M  V30 13329 C 1260.01 2.12857 -1.77727 0
M  V30 13330 H 1262.96 0.864528 -1.33085 0
M  V30 13331 H 1262.98 3.58502 -1.27501 0
M  V30 13332 H 1262.49 2.64572 -2.83942 0
M  V30 13333 H 1260.59 3.6774 -0.599864 0
M  V30 13334 H 1260.71 4.12959 -2.42902 0
M  V30 13335 H 1259.07 2.24285 -1.20699 0
M  V30 13336 H 1259.85 1.91882 -2.84669 0
M  V30 13337 N 1262.3 0.988223 1.22768 0
M  V30 13338 C 1263.52 0.679426 1.95955 0
M  V30 13339 C 1263.95 -0.748483 1.72567 0
M  V30 13340 O 1263.31 -1.51097 1.00197 0
M  V30 13341 C 1263.35 0.985284 3.46878 0
M  V30 13342 O 1262.46 0.0814607 4.1232 0
M  V30 13343 H 1261.8 0.254749 0.613188 0
M  V30 13344 H 1264.33 1.32393 1.55991 0
M  V30 13345 H 1264.34 0.925198 3.97371 0
M  V30 13346 H 1263.01 2.02581 3.63227 0
M  V30 13347 H 1261.59 0.196629 3.72381 0
M  V30 13348 N 1263.78 -1.38018 0.760839 0
M  V30 13349 C 1265.02 -2.00248 0.320716 0
M  V30 13350 C 1265.35 -1.60259 -1.09684 0
M  V30 13351 O 1264.63 -0.843567 -1.75255 0
M  V30 13352 C 1264.91 -3.57254 0.451849 0
M  V30 13353 C 1264.77 -4.07185 1.91103 0
M  V30 13354 C 1266.08 -4.39843 -0.150439 0
M  V30 13355 H 1263.2 -0.727491 0.118007 0
M  V30 13356 H 1265.85 -1.63855 0.961842 0
M  V30 13357 H 1264 -3.88386 -0.0939672 0
M  V30 13358 H 1265.67 -3.86665 2.51571 0
M  V30 13359 H 1263.91 -3.59782 2.42362 0
M  V30 13360 H 1264.58 -5.16262 1.9539 0
M  V30 13361 H 1267.06 -4.14905 0.315145 0
M  V30 13362 H 1265.93 -5.48893 -0.0284853 0
M  V30 13363 H 1266.19 -4.24367 -1.23956 0
M  V30 13364 N 1265.25 -0.510493 -1.49103 0
M  V30 13365 C 1266.22 0.251915 -2.27811 0
M  V30 13366 C 1267.22 0.885432 -1.34226 0
M  V30 13367 O 1268.41 0.748494 -1.573 0
M  V30 13368 C 1265.54 1.3624 -3.12492 0
M  V30 13369 H 1266.73 -0.438872 -2.96671 0
M  V30 13370 H 1264.28 -0.265767 -1.54024 0
M  V30 13371 H 1265.02 2.08705 -2.48219 0
M  V30 13372 H 1264.8 0.913485 -3.81311 0
M  V30 13373 H 1266.29 1.89919 -3.71915 0
M  V30 13374 N 1266.73 1.55688 -0.24474 0
M  V30 13375 C 1267.68 2.21289 0.655723 0
M  V30 13376 C 1268.65 1.17606 1.17295 0
M  V30 13377 O 1269.83 1.46045 1.22782 0
M  V30 13378 C 1266.97 2.91453 1.84794 0
M  V30 13379 C 1266.09 4.09787 1.36744 0
M  V30 13380 C 1265.22 4.67672 2.51905 0
M  V30 13381 C 1264.26 5.78259 2.00706 0
M  V30 13382 N 1263.4 6.30336 3.09225 0
M  V30 13383 H 1268.24 2.97865 0.0896156 0
M  V30 13384 H 1265.77 1.47064 0.0324725 0
M  V30 13385 H 1267.73 3.30331 2.54828 0
M  V30 13386 H 1266.36 2.17355 2.38656 0
M  V30 13387 H 1265.41 3.76237 0.561228 0
M  V30 13388 H 1266.73 4.89627 0.952199 0
M  V30 13389 H 1265.88 5.09113 3.29984 0
M  V30 13390 H 1264.62 3.87044 2.9673 0
M  V30 13391 H 1263.62 5.36298 1.21097 0
M  V30 13392 H 1264.85 6.60737 1.56853 0
M  V30 13393 H 1262.8 5.52614 3.53489 0
M  V30 13394 H 1262.71 7.05364 2.72025 0
M  V30 13395 H 1263.98 6.76435 3.8737 0
M  V30 13396 N 1268.21 -0.0283989 1.57574 0
M  V30 13397 C 1269.43 -0.734537 1.93957 0
M  V30 13398 C 1269.86 -1.68062 0.844787 0
M  V30 13399 O 1269.22 -1.802 -0.199432 0
M  V30 13400 C 1269.27 -1.46716 3.29404 0
M  V30 13401 O 1268.37 -2.58036 3.217 0
M  V30 13402 H 1267.71 -0.197507 0.633946 0
M  V30 13403 H 1270.24 0.0163258 2.04593 0
M  V30 13404 H 1270.25 -1.83693 3.64309 0
M  V30 13405 H 1268.93 -0.773292 4.08648 0
M  V30 13406 H 1267.5 -2.23597 2.98427 0
M  V30 13407 N 1269.69 -1.54705 -0.300681 0
M  V30 13408 C 1270.62 -1.80561 -1.39546 0
M  V30 13409 C 1271.6 -0.656825 -1.48743 0
M  V30 13410 O 1272.78 -0.896815 -1.658 0
M  V30 13411 C 1269.91 -1.94261 -2.77453 0
M  V30 13412 C 1268.96 -3.16687 -2.85678 0
M  V30 13413 S 1269.79 -4.74747 -2.47741 0
M  V30 13414 C 1270.94 -4.91384 -3.87676 0
M  V30 13415 H 1271.18 -2.73136 -1.17405 0
M  V30 13416 H 1268.71 -1.46121 -0.498809 0
M  V30 13417 H 1270.67 -2.0284 -3.56884 0
M  V30 13418 H 1269.33 -1.02623 -2.96862 0
M  V30 13419 H 1268.52 -3.23076 -3.8683 0
M  V30 13420 H 1268.12 -3.06556 -2.14241 0
M  V30 13421 H 1270.42 -4.75427 -4.82676 0
M  V30 13422 H 1271.36 -5.93475 -3.86256 0
M  V30 13423 H 1271.77 -4.19533 -3.77693 0
M  V30 13424 N 1271.17 0.563888 -1.47167 0
M  V30 13425 C 1272.1 1.68689 -1.53685 0
M  V30 13426 C 1273.08 1.57866 -0.389486 0
M  V30 13427 O 1274.26 1.78819 -0.596336 0
M  V30 13428 C 1271.39 3.06887 -1.43311 0
M  V30 13429 C 1270.43 3.36175 -2.62466 0
M  V30 13430 S 1271.27 3.26166 -4.24707 0
M  V30 13431 C 1272.42 4.66868 -4.16875 0
M  V30 13432 H 1272.66 1.62905 -2.48695 0
M  V30 13433 H 1270.19 0.74417 -1.35283 0
M  V30 13434 H 1272.15 3.86604 -1.38014 0
M  V30 13435 H 1270.81 3.10144 -0.496971 0
M  V30 13436 H 1270 4.36907 -2.51253 0
M  V30 13437 H 1269.6 2.64064 -2.64852 0
M  V30 13438 H 1271.9 5.57673 -3.84717 0
M  V30 13439 H 1272.84 4.83139 -5.1767 0
M  V30 13440 H 1273.25 4.44601 -3.47836 0
M  V30 13441 N 1272.64 1.35187 0.810078 0
M  V30 13442 C 1273.61 1.27698 1.90331 0
M  V30 13443 C 1274.61 0.189216 1.59683 0
M  V30 13444 O 1275.8 0.442689 1.68481 0
M  V30 13445 C 1272.93 0.974631 3.26671 0
M  V30 13446 H 1274.12 2.24902 1.98392 0
M  V30 13447 H 1271.68 1.1966 1.00554 0
M  V30 13448 H 1272.41 0.0063068 3.24299 0
M  V30 13449 H 1272.2 1.76158 3.50301 0
M  V30 13450 H 1273.69 0.947743 4.06703 0
M  V30 13451 N 1274.12 -1.03182 1.19127 0
M  V30 13452 C 1275.36 -1.78089 1.00318 0
M  V30 13453 C 1275.73 -1.86451 -0.458252 0
M  V30 13454 O 1276.93 -2.57653 -0.766061 0
M  V30 13455 C 1275.2 -3.17012 1.6504 0
M  V30 13456 S 1276.76 -4.08146 1.61129 0
M  V30 13457 H 1273.58 -0.613096 0.360048 0
M  V30 13458 H 1276.18 -1.23657 1.51424 0
M  V30 13459 H 1274.88 -3.08541 2.70612 0
M  V30 13460 H 1274.41 -3.7652 1.14001 0
M  V30 13461 H 1276.43 -4.92141 0.633408 0
M  V30 13462 N 1275.6 -0.99472 -1.22242 0
M  V30 13463 C 1276.53 -0.566499 -2.26524 0
M  V30 13464 C 1277.51 0.407541 -1.65146 0
M  V30 13465 O 1278.7 0.297777 -1.91903 0
M  V30 13466 C 1275.83 0.11786 -3.471 0
M  V30 13467 C 1274.78 -0.774908 -4.20927 0
M  V30 13468 C 1274.11 0.0424687 -5.34683 0
M  V30 13469 C 1275.41 -2.07263 -4.79416 0
M  V30 13470 H 1277.1 -1.43818 -2.62596 0
M  V30 13471 H 1274.65 -0.692971 -1.2623 0
M  V30 13472 H 1276.6 0.428842 -4.19212 0
M  V30 13473 H 1275.32 1.0241 -3.10129 0
M  V30 13474 H 1273.98 -1.06956 -3.50651 0
M  V30 13475 H 1273.63 0.949677 -4.93954 0
M  V30 13476 H 1273.33 -0.551867 -5.85003 0
M  V30 13477 H 1274.85 0.347504 -6.0961 0
M  V30 13478 H 1276.27 -1.82548 -5.4346 0
M  V30 13479 H 1274.67 -2.61594 -5.40082 0
M  V30 13480 H 1275.74 -2.75017 -3.99366 0
M  V30 13481 N 1277.08 1.37613 -0.768148 0
M  V30 13482 C 1278.01 2.3291 -0.165911 0
M  V30 13483 C 1278.99 1.556 0.687205 0
M  V30 13484 O 1280.17 1.83854 0.625407 0
M  V30 13485 C 1277.3 3.39822 0.7168 0
M  V30 13486 C 1276.26 4.27986 -0.0347264 0
M  V30 13487 C 1275.58 5.2588 0.967192 0
M  V30 13488 C 1276.88 5.08052 -1.21164 0
M  V30 13489 H 1278.58 2.83524 -0.962006 0
M  V30 13490 H 1276.12 1.36318 -0.464051 0
M  V30 13491 H 1278.08 4.05464 1.14789 0
M  V30 13492 H 1276.8 2.87725 1.54538 0
M  V30 13493 H 1275.46 3.6387 -0.446557 0
M  V30 13494 H 1275.11 4.70064 1.79022 0
M  V30 13495 H 1274.81 5.85726 0.468913 0
M  V30 13496 H 1276.33 5.94397 1.3973 0
M  V30 13497 H 1277.75 5.66853 -0.857373 0
M  V30 13498 H 1276.14 5.77206 -1.64176 0
M  V30 13499 H 1277.21 4.40936 -2.0175 0
M  V30 13500 N 1278.56 0.518393 1.4883 0
M  V30 13501 C 1279.78 -0.0183131 2.07392 0
M  V30 13502 C 1280.21 -1.28468 1.37396 0
M  V30 13503 O 1279.56 -1.75975 0.436177 0
M  V30 13504 C 1279.61 -0.237211 3.59819 0
M  V30 13505 O 1278.72 -1.30835 3.91096 0
M  V30 13506 H 1278.06 0.0339621 0.663131 0
M  V30 13507 H 1280.59 0.722993 1.914 0
M  V30 13508 H 1280.6 -0.463424 4.0536 0
M  V30 13509 H 1279.27 0.687925 4.10171 0
M  V30 13510 H 1277.85 -1.06571 3.57347 0
M  V30 13511 N 1280.03 -1.55556 0.252993 0
M  V30 13512 C 1281.26 -2.03945 -0.376965 0
M  V30 13513 C 1281.68 -1.13089 -1.50308 0
M  V30 13514 O 1281.04 -0.125039 -1.80868 0
M  V30 13515 C 1281.09 -3.50284 -0.856363 0
M  V30 13516 O 1280.19 -3.62551 -1.96546 0
M  V30 13517 H 1279.54 -0.659002 -0.081317 0
M  V30 13518 H 1282.07 -2.01024 0.380831 0
M  V30 13519 H 1282.08 -3.91222 -1.15798 0
M  V30 13520 H 1280.75 -4.15887 -0.0323302 0
M  V30 13521 H 1279.33 -3.33511 -1.66808 0
M  V30 13522 N 1281.51 0.0200419 -1.57587 0
M  V30 13523 C 1282.44 1.01715 -2.10181 0
M  V30 13524 C 1283.42 1.37136 -1.00636 0
M  V30 13525 O 1284.61 1.45862 -1.2821 0
M  V30 13526 C 1281.74 2.31531 -2.58865 0
M  V30 13527 C 1280.69 2.10327 -3.72755 0
M  V30 13528 C 1280.02 3.45981 -4.07678 0
M  V30 13529 C 1281.32 1.4821 -5.0083 0
M  V30 13530 H 1283.01 0.579307 -2.93742 0
M  V30 13531 H 1280.56 0.277211 -1.41307 0
M  V30 13532 H 1282.51 3.01623 -2.94281 0
M  V30 13533 H 1281.24 2.77392 -1.72399 0
M  V30 13534 H 1279.89 1.42665 -3.37701 0
M  V30 13535 H 1279.54 3.89508 -3.18265 0
M  V30 13536 H 1279.24 3.32616 -4.84397 0
M  V30 13537 H 1280.77 4.17421 -4.45637 0
M  V30 13538 H 1282.18 2.08232 -5.34146 0
M  V30 13539 H 1280.58 1.45393 -5.82221 0
M  V30 13540 H 1281.65 0.448942 -4.82817 0
M  V30 13541 N 1282.99 1.54862 0.292472 0
M  V30 13542 C 1283.94 1.86403 1.36098 0
M  V30 13543 C 1284.91 0.713694 1.49985 0
M  V30 13544 O 1286.09 0.963134 1.64707 0
M  V30 13545 C 1283.23 2.1244 2.71962 0
M  V30 13546 C 1282.35 3.40038 2.66454 0
M  V30 13547 C 1281.48 3.55875 3.94368 0
M  V30 13548 C 1280.52 4.77235 3.83293 0
M  V30 13549 N 1279.66 4.89832 5.03 0
M  V30 13550 H 1284.5 2.77546 1.085 0
M  V30 13551 H 1282.03 1.37427 0.524607 0
M  V30 13552 H 1283.99 2.25533 3.50985 0
M  V30 13553 H 1282.62 1.24554 2.97802 0
M  V30 13554 H 1281.67 3.35521 1.79248 0
M  V30 13555 H 1282.99 4.29188 2.54163 0
M  V30 13556 H 1282.14 3.68679 4.8183 0
M  V30 13557 H 1280.88 2.64874 4.09503 0
M  V30 13558 H 1279.88 4.64455 2.94214 0
M  V30 13559 H 1281.11 5.69651 3.69695 0
M  V30 13560 H 1279.05 4.01756 5.18582 0
M  V30 13561 H 1278.97 5.72996 4.93165 0
M  V30 13562 H 1280.24 5.07001 5.92089 0
M  V30 13563 N 1284.47 -0.556076 1.47464 0
M  V30 13564 C 1285.43 -1.64515 1.59586 0
M  V30 13565 C 1286.43 -1.53751 0.470881 0
M  V30 13566 O 1287.62 -1.57889 0.735979 0
M  V30 13567 C 1284.75 -3.0406 1.54143 0
M  V30 13568 H 1285.95 -1.55116 2.56669 0
M  V30 13569 H 1283.5 -0.776087 1.35671 0
M  V30 13570 H 1284.23 -3.18991 0.584395 0
M  V30 13571 H 1284.02 -3.13282 2.3579 0
M  V30 13572 H 1285.51 -3.8329 1.65766 0
M  V30 13573 N 1285.95 -1.35615 -0.802897 0
M  V30 13574 C 1286.9 -1.28877 -1.93632 0
M  V30 13575 C 1287.89 -0.183014 -1.68408 0
M  V30 13576 O 1289.1 -0.349218 -1.7658 0
M  V30 13577 H 1285.47 -0.400883 -0.636236 0
M  V30 13578 H 1287.44 -2.24624 -1.96435 0
M  V30 13579 C 1286.19 -1.08136 -3.30457 0
M  V30 13580 H 1285.51 -1.92463 -3.50426 0
M  V30 13581 H 1286.95 -1.07464 -4.10155 0
M  V30 13582 C 1285.41 0.214635 -3.36216 0
M  V30 13583 O 1285.94 1.20916 -3.8307 0
M  V30 13584 N 1284.15 0.25468 -2.89482 0
M  V30 13585 H 1283.7 -0.555239 -2.51545 0
M  V30 13586 H 1283.65 1.12152 -2.93716 0
M  V30 13587 N 1287.43 1.02549 -1.19673 0
M  V30 13588 C 1288.67 1.75656 -0.999463 0
M  V30 13589 C 1288.99 1.89238 0.470517 0
M  V30 13590 O 1288.26 1.42843 1.34062 0
M  V30 13591 H 1286.84 0.650732 -0.366821 0
M  V30 13592 H 1289.51 1.23684 -1.50627 0
M  V30 13593 H 1288.6 2.76353 -1.45035 0
M  V30 13594 N 1288.9 1.00119 1.21713 0
M  V30 13595 C 1290.13 0.700172 1.95224 0
M  V30 13596 C 1290.55 -0.730138 1.73351 0
M  V30 13597 O 1289.91 -1.50026 1.01794 0
M  V30 13598 C 1289.96 1.02202 3.45814 0
M  V30 13599 O 1289.06 0.125188 4.1221 0
M  V30 13600 H 1288.4 0.261238 0.610451 0
M  V30 13601 H 1290.93 1.34041 1.54578 0
M  V30 13602 H 1290.94 0.967293 3.96368 0
M  V30 13603 H 1289.62 2.06422 3.61058 0
M  V30 13604 H 1288.2 0.236114 3.72152 0
M  V30 13605 N 1290.38 -1.37203 0.775435 0
M  V30 13606 C 1291.8 -1.52962 0.455488 0
M  V30 13607 C 1292 -1.73284 -1.02834 0
M  V30 13608 O 1291.05 -1.75631 -1.81411 0
M  V30 13609 C 1292.37 -2.72389 1.27377 0
M  V30 13610 C 1293.91 -2.86252 1.26604 0
M  V30 13611 C 1294.39 -4.08666 2.06775 0
M  V30 13612 N 1295.88 -4.15786 2.04148 0
M  V30 13613 C 1296.62 -5.09548 2.6296 0
M  V30 13614 N 1296.11 -6.08845 3.30574 0
M  V30 13615 N 1297.9 -5.02059 2.5277 0
M  V30 13616 H 1290.06 -1.22265 1.73681 0
M  V30 13617 H 1292.32 -0.595638 0.737509 0
M  V30 13618 H 1292.02 -2.63849 2.32544 0
M  V30 13619 H 1291.9 -3.66171 0.905467 0
M  V30 13620 H 1294.29 -2.94261 0.222345 0
M  V30 13621 H 1294.37 -1.93418 1.67401 0
M  V30 13622 H 1294.01 -4.01419 3.11168 0
M  V30 13623 H 1293.94 -5.00621 1.63358 0
M  V30 13624 H 1296.43 -3.44683 1.54926 0
M  V30 13625 H 1296.74 -6.76926 3.72815 0
M  V30 13626 H 1295.09 -6.09113 3.34674 0
M  V30 13627 H 1298.28 -4.23431 1.99559 0
M  V30 13628 H 1298.45 -5.74947 2.98898 0
M  V30 13629 N 1291.86 -0.526279 -1.48553 0
M  V30 13630 C 1293.11 0.00914839 -2.02098 0
M  V30 13631 C 1293.43 1.35119 -1.40598 0
M  V30 13632 O 1292.7 1.87422 -0.570065 0
M  V30 13633 H 1291.28 0.00636935 -0.746973 0
M  V30 13634 H 1293.94 -0.689269 -1.82305 0
M  V30 13635 H 1293.04 0.120212 -3.11868 0
M  V30 13636 N 1293.34 1.5542 -0.261239 0
M  V30 13637 C 1294.3 2.20683 0.619011 0
M  V30 13638 C 1295.3 1.18042 1.09192 0
M  V30 13639 O 1296.49 1.43035 0.99432 0
M  V30 13640 C 1293.62 2.86179 1.85242 0
M  V30 13641 H 1294.82 2.99859 0.0493924 0
M  V30 13642 H 1292.37 1.56296 -0.0117687 0
M  V30 13643 H 1293.1 2.10978 2.4629 0
M  V30 13644 H 1292.89 3.61381 1.52138 0
M  V30 13645 H 1294.38 3.36081 2.47869 0
M  V30 13646 N 1294.82 -0.0116844 1.57596 0
M  V30 13647 C 1296.06 -0.698958 1.90055 0
M  V30 13648 C 1296.39 -1.74422 0.860659 0
M  V30 13649 O 1295.65 -1.95226 -0.136132 0
M  V30 13650 C 1295.94 -1.38985 3.29269 0
M  V30 13651 C 1295.61 -0.478916 4.48349 0
M  V30 13652 C 1294.27 -0.228071 4.80659 0
M  V30 13653 C 1296.62 0.14897 5.20987 0
M  V30 13654 C 1293.95 0.659147 5.82986 0
M  V30 13655 C 1296.3 1.02399 6.24257 0
M  V30 13656 C 1294.97 1.28413 6.55032 0
M  V30 13657 H 1294.24 -0.255767 0.69546 0
M  V30 13658 H 1296.89 0.0413339 1.91455 0
M  V30 13659 H 1295.19 -2.2039 3.23937 0
M  V30 13660 H 1296.89 -1.92747 3.51638 0
M  V30 13661 H 1293.48 -0.68459 4.23097 0
M  V30 13662 H 1297.66 -0.0318326 4.9629 0
M  V30 13663 H 1292.92 0.86882 6.05195 0
M  V30 13664 H 1297.09 1.51694 6.79678 0
M  V30 13665 H 1294.72 1.97332 7.34142 0
M  V30 13666 N 1296.29 -1.55015 -0.284256 0
M  V30 13667 C 1297.53 -1.76836 -1.02511 0
M  V30 13668 C 1297.9 -0.551675 -1.83904 0
M  V30 13669 O 1299.1 -0.647919 -2.60874 0
M  V30 13670 C 1297.37 -3.0312 -1.89348 0
M  V30 13671 S 1298.93 -3.46013 -2.69852 0
M  V30 13672 H 1295.75 -0.621436 -0.345453 0
M  V30 13673 H 1298.35 -1.93235 -0.296708 0
M  V30 13674 H 1297.05 -3.89778 -1.28458 0
M  V30 13675 H 1296.58 -2.89355 -2.66528 0
M  V30 13676 H 1298.6 -3.044 -3.91861 0
M  V30 13677 N 1297.77 0.548248 -1.47757 0
M  V30 13678 C 1298.68 1.68178 -1.63565 0
M  V30 13679 C 1299.7 1.661 -0.518351 0
M  V30 13680 O 1300.87 1.85384 -0.787061 0
M  V30 13681 C 1297.94 3.04673 -1.65454 0
M  V30 13682 C 1297 3.17749 -2.88677 0
M  V30 13683 C 1296.23 4.47733 -2.90466 0
M  V30 13684 O 1296.46 5.33736 -2.01201 0
M  V30 13685 O 1295.39 4.64789 -3.82433 0
M  V30 13686 H 1299.22 1.57781 -2.59497 0
M  V30 13687 H 1296.8 0.719277 -1.30946 0
M  V30 13688 H 1298.68 3.85885 -1.69324 0
M  V30 13689 H 1297.36 3.15433 -0.726912 0
M  V30 13690 H 1296.26 2.359 -2.90348 0
M  V30 13691 H 1297.6 3.11897 -3.80763 0
M  V30 13692 N 1299.25 1.36039 0.795694 0
M  V30 13693 C 1300.5 1.30112 1.5556 0
M  V30 13694 C 1300.83 -0.121197 1.93821 0
M  V30 13695 O 1300.1 -1.07313 1.62216 0
M  V30 13696 C 1300.39 2.21792 2.8369 0
M  V30 13697 C 1300.24 3.72691 2.51836 0
M  V30 13698 C 1301.56 2.12365 3.85472 0
M  V30 13699 H 1298.68 0.473971 0.564376 0
M  V30 13700 H 1301.32 1.66536 0.91465 0
M  V30 13701 H 1299.47 1.9086 3.38386 0
M  V30 13702 H 1301.14 4.14115 2.0324 0
M  V30 13703 H 1299.38 3.92436 1.84869 0
M  V30 13704 H 1300.06 4.32242 3.43323 0
M  V30 13705 H 1302.53 2.3958 3.40207 0
M  V30 13706 H 1301.41 2.78695 4.72885 0
M  V30 13707 H 1301.67 1.10898 4.27965 0
M  V30 13708 N 1300.73 -1.01913 1.20215 0
M  V30 13709 C 1302.14 -1.27766 0.956459 0
M  V30 13710 C 1302.34 -1.98158 -0.365486 0
M  V30 13711 O 1301.4 -2.27539 -1.09463 0
M  V30 13712 C 1302.71 -2.11516 2.13732 0
M  V30 13713 C 1304.26 -2.24792 2.17802 0
M  V30 13714 C 1304.74 -3.11919 3.35367 0
M  V30 13715 N 1306.23 -3.19507 3.35364 0
M  V30 13716 C 1306.96 -3.8714 4.22978 0
M  V30 13717 N 1306.46 -4.5692 5.20765 0
M  V30 13718 N 1308.25 -3.83638 4.10827 0
M  V30 13719 H 1300.4 -0.546426 2.05251 0
M  V30 13720 H 1302.67 -0.303772 0.898012 0
M  V30 13721 H 1302.37 -1.67127 3.09453 0
M  V30 13722 H 1302.25 -3.12249 2.11614 0
M  V30 13723 H 1304.63 -2.68407 1.22645 0
M  V30 13724 H 1304.71 -1.23576 2.2397 0
M  V30 13725 H 1304.36 -2.6901 4.30809 0
M  V30 13726 H 1304.29 -4.13215 3.26436 0
M  V30 13727 H 1306.78 -2.69819 2.64587 0
M  V30 13728 H 1307.09 -5.06188 5.83947 0
M  V30 13729 H 1305.44 -4.55753 5.24704 0
M  V30 13730 H 1308.63 -3.28268 3.33703 0
M  V30 13731 H 1308.8 -4.36071 4.79318 0
M  V30 13732 N 1302.21 -1.00763 -1.2118 0
M  V30 13733 C 1303.62 -0.724746 -1.72059 0
M  V30 13734 C 1303.97 0.757413 -1.80991 0
M  V30 13735 O 1303.09 1.59152 -1.46627 0
M  V30 13736 C 1303.69 -1.30893 -3.12494 0
M  V30 13737 C 1302.25 -1.07511 -3.60719 0
M  V30 13738 C 1301.39 -1.42014 -2.38175 0
M  V30 13739 H 1304.35 -1.17821 -1.0632 0
M  V30 13740 H 1304.37 -0.694919 -3.741 0
M  V30 13741 H 1303.88 -2.38767 -3.05961 0
M  V30 13742 H 1301.98 -0.0136518 -3.72597 0
M  V30 13743 H 1302.09 -1.74885 -4.4604 0
M  V30 13744 H 1300.46 -0.838972 -2.40486 0
M  V30 13745 H 1301.24 -2.50924 -2.34291 0
M  V30 13746 N 1303.68 1.3679 -0.7827 0
M  V30 13747 C 1304.96 1.93639 -0.276278 0
M  V30 13748 C 1305.34 1.7153 1.23048 0
M  V30 13749 O 1304.69 1.07037 2.01879 0
M  V30 13750 C 1304.9 3.42672 -0.661586 0
M  V30 13751 C 1306.25 4.19786 -0.637538 0
M  V30 13752 O 1307.27 3.51082 -0.601645 0
M  V30 13753 O 1306.13 5.42323 -0.674408 0
M  V30 13754 H 1303.22 0.824307 -0.0666832 0
M  V30 13755 H 1305.77 1.46012 -0.864792 0
M  V30 13756 H 1304.54 3.52393 -1.70103 0
M  V30 13757 H 1304.17 3.97573 -0.0465987 0
M  V30 13758 N 1305.16 0.53415 1.48272 0
M  V30 13759 C 1306.44 -0.0630181 1.95498 0
M  V30 13760 C 1306.82 -1.50877 1.47646 0
M  V30 13761 O 1306.17 -2.17358 0.704829 0
M  V30 13762 C 1306.38 0.0585475 3.48951 0
M  V30 13763 C 1307.73 -0.0985978 4.24486 0
M  V30 13764 O 1308.75 -0.0150438 3.56197 0
M  V30 13765 O 1307.61 -0.274356 5.45811 0
M  V30 13766 H 1304.7 -0.0769841 0.823409 0
M  V30 13767 H 1307.25 0.599043 1.58775 0
M  V30 13768 H 1306.02 1.06549 3.76514 0
M  V30 13769 H 1305.64 -0.642175 3.9238 0
M  V30 13770 N 1306.64 -1.55279 0.269478 0
M  V30 13771 C 1307.59 -2.22304 -0.620435 0
M  V30 13772 C 1308.56 -1.19457 -1.15409 0
M  V30 13773 O 1309.74 -1.4798 -1.20443 0
M  V30 13774 C 1306.88 -2.94356 -1.80134 0
M  V30 13775 C 1306 -4.1191 -1.30207 0
M  V30 13776 C 1305.13 -4.71621 -2.44433 0
M  V30 13777 C 1304.17 -5.81379 -1.91481 0
M  V30 13778 N 1303.31 -6.35176 -2.99158 0
M  V30 13779 H 1308.15 -2.9797 -0.0422165 0
M  V30 13780 H 1305.68 -1.47097 -0.00907173 0
M  V30 13781 H 1307.64 -3.34343 -2.4954 0
M  V30 13782 H 1306.27 -2.21124 -2.35168 0
M  V30 13783 H 1305.32 -3.77082 -0.501301 0
M  V30 13784 H 1306.64 -4.9108 -0.874183 0
M  V30 13785 H 1305.79 -5.14298 -3.21842 0
M  V30 13786 H 1304.53 -3.91715 -2.90535 0
M  V30 13787 H 1303.53 -5.38157 -1.12549 0
M  V30 13788 H 1304.76 -6.63149 -1.46322 0
M  V30 13789 H 1302.7 -5.58167 -3.44652 0
M  V30 13790 H 1302.62 -7.09602 -2.60769 0
M  V30 13791 H 1303.89 -6.82512 -3.7656 0
M  V30 13792 N 1308.12 0.00332656 -1.576 0
M  V30 13793 C 1309.53 0.359361 -1.55502 0
M  V30 13794 C 1309.73 1.74997 -0.998914 0
M  V30 13795 O 1308.79 2.44482 -0.631263 0
M  V30 13796 C 1310.1 0.237638 -2.9976 0
M  V30 13797 C 1311.65 0.312824 -3.11433 0
M  V30 13798 C 1312.13 0.220262 -4.5747 0
M  V30 13799 N 1313.62 0.278265 -4.62363 0
M  V30 13800 C 1314.35 0.229933 -5.72939 0
M  V30 13801 N 1313.85 0.132391 -6.92673 0
M  V30 13802 N 1315.64 0.281555 -5.61394 0
M  V30 13803 H 1307.79 -0.906404 -1.92089 0
M  V30 13804 H 1310.06 -0.347129 -0.88216 0
M  V30 13805 H 1309.76 -0.719007 -3.44272 0
M  V30 13806 H 1309.64 1.02105 -3.63118 0
M  V30 13807 H 1312.02 1.25991 -2.66852 0
M  V30 13808 H 1312.1 -0.500395 -2.50858 0
M  V30 13809 H 1311.75 -0.723267 -5.02724 0
M  V30 13810 H 1311.68 1.05192 -5.15987 0
M  V30 13811 H 1314.17 0.35512 -3.76228 0
M  V30 13812 H 1314.48 0.101317 -7.72734 0
M  V30 13813 H 1312.83 0.0980665 -6.94931 0
M  V30 13814 H 1316.02 0.355931 -4.66745 0
M  V30 13815 H 1316.19 0.240423 -6.47554 0
M  V30 13816 N 1309.6 1.55164 0.276031 0
M  V30 13817 C 1310.85 1.74833 1.0058 0
M  V30 13818 C 1311.16 0.555089 1.87558 0
M  V30 13819 O 1312.36 0.634127 2.63991 0
M  V30 13820 C 1310.82 3.09417 1.83818 0
M  V30 13821 C 1310.43 4.36299 1.01721 0
M  V30 13822 C 1312.17 3.38437 2.56244 0
M  V30 13823 C 1310.08 5.61923 1.8438 0
M  V30 13824 H 1309.01 0.651676 0.379254 0
M  V30 13825 H 1311.66 1.81626 0.26161 0
M  V30 13826 H 1310.04 2.96654 2.62321 0
M  V30 13827 H 1311.22 4.59969 0.276565 0
M  V30 13828 H 1309.53 4.144 0.407645 0
M  V30 13829 H 1312.13 4.29501 3.18485 0
M  V30 13830 H 1312.47 2.58432 3.26372 0
M  V30 13831 H 1313 3.52284 1.84773 0
M  V30 13832 H 1309.74 6.44667 1.18679 0
M  V30 13833 H 1309.26 5.424 2.56051 0
M  V30 13834 H 1310.94 6.0011 2.4182 0
M  V30 13835 N 1311.07 -0.540404 1.48045 0
M  V30 13836 C 1312 -1.65538 1.6468 0
M  V30 13837 C 1312.99 -1.62713 0.495847 0
M  V30 13838 O 1314.17 -1.80072 0.727172 0
M  V30 13839 C 1311.3 -3.0415 1.67661 0
M  V30 13840 C 1310.25 -3.2183 2.82152 0
M  V30 13841 C 1309.58 -4.61397 2.70216 0
M  V30 13842 C 1310.88 -3.05596 4.23567 0
M  V30 13843 H 1312.57 -1.51873 2.58021 0
M  V30 13844 H 1310.12 -0.729208 1.24171 0
M  V30 13845 H 1312.07 -3.82013 1.77887 0
M  V30 13846 H 1310.8 -3.18814 0.708907 0
M  V30 13847 H 1309.46 -2.4638 2.71463 0
M  V30 13848 H 1309.1 -4.72883 1.71437 0
M  V30 13849 H 1308.8 -4.74174 3.47035 0
M  V30 13850 H 1310.33 -5.41374 2.82395 0
M  V30 13851 H 1311.74 -3.73261 4.35143 0
M  V30 13852 H 1310.14 -3.29871 5.01303 0
M  V30 13853 H 1311.21 -2.0214 4.40758 0
M  V30 13854 N 1312.55 -1.36459 -0.788468 0
M  V30 13855 C 1313.46 -1.33017 -1.93245 0
M  V30 13856 C 1314.48 -0.232212 -1.72444 0
M  V30 13857 O 1315.65 -0.464743 -1.95965 0
M  V30 13858 C 1312.72 -1.1197 -3.28121 0
M  V30 13859 C 1311.78 -2.3125 -3.61693 0
M  V30 13860 C 1311.01 -2.11197 -4.90134 0
M  V30 13861 O 1311.24 -1.08764 -5.59934 0
M  V30 13862 O 1310.17 -2.98996 -5.22384 0
M  V30 13863 H 1314 -2.29333 -1.99098 0
M  V30 13864 H 1311.58 -1.17016 -0.928856 0
M  V30 13865 H 1313.46 -1.02154 -4.08831 0
M  V30 13866 H 1312.14 -0.187171 -3.23158 0
M  V30 13867 H 1311.05 -2.46635 -2.81286 0
M  V30 13868 H 1312.38 -3.23012 -3.71381 0
M  V30 13869 N 1314.03 1.01274 -1.20754 0
M  V30 13870 C 1315.28 1.74932 -1.02005 0
M  V30 13871 C 1315.61 1.89285 0.447372 0
M  V30 13872 O 1314.86 1.41838 1.34835 0
M  V30 13873 C 1315.16 3.16862 -1.65329 0
M  V30 13874 C 1314.83 3.22476 -3.15151 0
M  V30 13875 C 1313.49 3.23715 -3.56036 0
M  V30 13876 C 1315.84 3.20332 -4.11141 0
M  V30 13877 C 1313.17 3.20487 -4.91431 0
M  V30 13878 C 1315.52 3.18646 -5.46487 0
M  V30 13879 C 1314.18 3.18191 -5.8678 0
M  V30 13880 H 1313.45 0.640121 -0.373264 0
M  V30 13881 H 1316.1 1.18751 -1.50234 0
M  V30 13882 H 1314.41 3.76225 -1.09372 0
M  V30 13883 H 1316.1 3.72556 -1.48333 0
M  V30 13884 H 1312.69 3.22249 -2.82584 0
M  V30 13885 H 1316.88 3.18541 -3.80585 0
M  V30 13886 H 1312.13 3.18468 -5.21908 0
M  V30 13887 H 1316.31 3.1594 -6.20609 0
M  V30 13888 H 1313.93 3.15443 -6.91664 0
M  V30 13889 N 1315.51 1.01404 1.20644 0
M  V30 13890 C 1316.74 0.719995 1.93648 0
M  V30 13891 C 1317.15 -0.722872 1.74846 0
M  V30 13892 O 1316.49 -1.50172 1.05802 0
M  V30 13893 C 1316.55 0.972637 3.46092 0
M  V30 13894 C 1316.22 2.40412 3.88653 0
M  V30 13895 C 1317.21 3.38481 3.94622 0
M  V30 13896 C 1314.9 2.74418 4.20714 0
M  V30 13897 C 1316.89 4.68619 4.32059 0
M  V30 13898 C 1314.58 4.04769 4.57826 0
M  V30 13899 C 1315.58 5.01681 4.63471 0
M  V30 13900 O 1315.27 6.297 4.99733 0
M  V30 13901 H 1315 0.263849 0.622382 0
M  V30 13902 H 1317.55 1.35741 1.54154 0
M  V30 13903 H 1315.78 0.278057 3.85699 0
M  V30 13904 H 1317.47 0.670572 4.00323 0
M  V30 13905 H 1318.24 3.13545 3.7002 0
M  V30 13906 H 1314.12 1.99675 4.15513 0
M  V30 13907 H 1317.66 5.4426 4.3638 0
M  V30 13908 H 1313.56 4.29486 4.81884 0
M  V30 13909 H 1314.32 6.3395 5.17735 0
M  V30 13910 N 1316.99 -1.36373 0.789944 0
M  V30 13911 C 1318.21 -2.04011 0.373396 0
M  V30 13912 C 1318.64 -1.59171 -1.00231 0
M  V30 13913 O 1318 -0.760431 -1.64582 0
M  V30 13914 C 1318.04 -3.5783 0.446083 0
M  V30 13915 O 1317.15 -4.08759 -0.54678 0
M  V30 13916 H 1316.49 -0.644807 0.158495 0
M  V30 13917 H 1319.02 -1.74317 1.0712 0
M  V30 13918 H 1319.03 -4.06822 0.309877 0
M  V30 13919 H 1317.7 -3.89819 1.44962 0
M  V30 13920 H 1316.28 -3.71038 -0.372192 0
M  V30 13921 N 1318.47 -0.542005 -1.47987 0
M  V30 13922 C 1319.41 0.214151 -2.29804 0
M  V30 13923 C 1320.38 0.922625 -1.38119 0
M  V30 13924 O 1321.57 0.921301 -1.67083 0
M  V30 13925 C 1318.71 1.24768 -3.21756 0
M  V30 13926 C 1317.82 0.546824 -4.28525 0
M  V30 13927 C 1316.96 1.56432 -5.07644 0
M  V30 13928 C 1315.99 0.847598 -6.06203 0
M  V30 13929 N 1315.13 1.81121 -6.78336 0
M  V30 13930 H 1319.97 -0.489707 -2.93949 0
M  V30 13931 H 1317.51 -0.253331 -1.44902 0
M  V30 13932 H 1319.47 1.85933 -3.73477 0
M  V30 13933 H 1318.1 1.91976 -2.59509 0
M  V30 13934 H 1317.15 -0.179026 -3.79978 0
M  V30 13935 H 1318.46 -0.0153623 -4.98798 0
M  V30 13936 H 1317.61 2.24992 -5.63439 0
M  V30 13937 H 1316.35 2.16041 -4.37238 0
M  V30 13938 H 1315.36 0.147989 -5.49601 0
M  V30 13939 H 1316.58 0.257454 -6.78612 0
M  V30 13940 H 1314.53 2.39615 -6.10672 0
M  V30 13941 H 1314.45 1.30077 -7.44725 0
M  V30 13942 H 1315.71 2.48842 -7.38714 0
M  V30 13943 N 1319.94 1.55134 -0.277709 0
M  V30 13944 C 1320.87 2.256 0.602232 0
M  V30 13945 C 1321.85 1.24708 1.15681 0
M  V30 13946 O 1323.04 1.53433 1.19046 0
M  V30 13947 C 1320.17 2.97907 1.78519 0
M  V30 13948 C 1319.12 4.0575 1.36203 0
M  V30 13949 C 1318.45 4.65644 2.62829 0
M  V30 13950 C 1319.75 5.19801 0.510327 0
M  V30 13951 H 1321.44 2.99396 0.0145622 0
M  V30 13952 H 1318.99 1.43999 0.00556389 0
M  V30 13953 H 1320.94 3.45915 2.40668 0
M  V30 13954 H 1319.67 2.21649 2.39873 0
M  V30 13955 H 1318.33 3.58557 0.763726 0
M  V30 13956 H 1317.97 3.86053 3.22447 0
M  V30 13957 H 1317.67 5.38463 2.35227 0
M  V30 13958 H 1319.2 5.16403 3.25823 0
M  V30 13959 H 1320.61 5.63845 1.03689 0
M  V30 13960 H 1319.01 5.99197 0.329073 0
M  V30 13961 H 1320.08 4.82614 -0.470273 0
M  V30 13962 N 1321.42 0.00503138 1.57599 0
M  V30 13963 C 1322.67 -0.67742 1.90409 0
M  V30 13964 C 1322.99 -1.74033 0.87963 0
M  V30 13965 O 1322.26 -1.95727 -0.0822757 0
M  V30 13966 H 1320.84 -0.2532 0.702779 0
M  V30 13967 H 1323.5 0.0471466 1.94843 0
M  V30 13968 H 1322.6 -1.14548 2.90319 0
M  V30 13969 N 1322.9 -1.55308 -0.267798 0
M  V30 13970 C 1324.14 -1.77913 -1.0063 0
M  V30 13971 C 1324.5 -0.571149 -1.83308 0
M  V30 13972 O 1325.7 -0.675552 -2.60173 0
M  V30 13973 C 1323.98 -3.05112 -1.86123 0
M  V30 13974 S 1325.53 -3.48856 -2.66167 0
M  V30 13975 H 1322.35 -0.625065 -0.338843 0
M  V30 13976 H 1324.95 -1.93539 -0.276196 0
M  V30 13977 H 1323.66 -3.91118 -1.24317 0
M  V30 13978 H 1323.19 -2.92165 -2.63444 0
M  V30 13979 H 1325.2 -3.0854 -3.8861 0
M  V30 13980 N 1324.38 0.532545 -1.4833 0
M  V30 13981 C 1325.62 1.28851 -1.56217 0
M  V30 13982 C 1325.95 1.93076 -0.234967 0
M  V30 13983 O 1325.21 1.79722 0.774508 0
M  V30 13984 C 1325.51 2.40117 -2.64724 0
M  V30 13985 C 1325.17 1.93562 -4.0724 0
M  V30 13986 C 1323.83 1.80583 -4.46031 0
M  V30 13987 C 1326.19 1.58349 -4.96563 0
M  V30 13988 C 1323.51 1.30722 -5.71952 0
M  V30 13989 C 1325.87 1.09951 -6.22972 0
M  V30 13990 C 1324.53 0.955866 -6.60621 0
M  V30 13991 H 1323.8 0.4715 -0.571637 0
M  V30 13992 H 1326.45 0.594564 -1.82036 0
M  V30 13993 H 1324.75 3.15171 -2.32754 0
M  V30 13994 H 1326.45 2.98252 -2.68042 0
M  V30 13995 H 1323.04 2.04614 -3.76605 0
M  V30 13996 H 1327.22 1.67237 -4.67274 0
M  V30 13997 H 1322.48 1.18286 -5.99849 0
M  V30 13998 H 1326.65 0.817736 -6.91582 0
M  V30 13999 H 1324.28 0.567302 -7.5808 0
M  V30 14000 N 1325.86 1.36875 0.78122 0
M  V30 14001 C 1326.77 1.3404 1.92537 0
M  V30 14002 C 1327.78 0.241354 1.72318 0
M  V30 14003 O 1328.96 0.475128 1.95715 0
M  V30 14004 C 1326.02 1.13708 3.27523 0
M  V30 14005 C 1325.08 2.33165 3.60462 0
M  V30 14006 C 1324.32 2.13793 4.89007 0
M  V30 14007 O 1324.54 1.11732 5.5935 0
M  V30 14008 O 1323.47 3.01762 5.20791 0
M  V30 14009 H 1327.3 2.30386 1.97879 0
M  V30 14010 H 1324.88 1.17506 0.922637 0
M  V30 14011 H 1326.77 1.0432 4.08283 0
M  V30 14012 H 1325.44 0.204306 3.23055 0
M  V30 14013 H 1324.35 2.48123 2.79974 0
M  V30 14014 H 1325.68 3.24977 3.69663 0
M  V30 14015 N 1327.33 -1.00632 1.21289 0
M  V30 14016 C 1328.58 -1.73802 1.02351 0
M  V30 14017 C 1328.9 -1.90503 -0.443611 0
M  V30 14018 O 1330.1 -2.60868 -0.752356 0
M  V30 14019 C 1328.56 -3.12647 1.78269 0
M  V30 14020 C 1328.17 -3.03923 3.29142 0
M  V30 14021 C 1329.91 -3.89956 1.67735 0
M  V30 14022 C 1327.82 -4.3784 3.97556 0
M  V30 14023 H 1326.75 -0.651616 0.379358 0
M  V30 14024 H 1329.4 -1.12446 1.45011 0
M  V30 14025 H 1327.78 -3.74605 1.28401 0
M  V30 14026 H 1328.95 -2.51211 3.86303 0
M  V30 14027 H 1327.27 -2.40103 3.40205 0
M  V30 14028 H 1329.87 -4.89051 2.1618 0
M  V30 14029 H 1330.21 -4.11423 0.635338 0
M  V30 14030 H 1330.74 -3.34647 2.15072 0
M  V30 14031 H 1327.48 -4.21573 5.01952 0
M  V30 14032 H 1327 -4.90518 3.45184 0
M  V30 14033 H 1328.68 -5.06644 4.02393 0
M  V30 14034 N 1328.81 -1.02043 -1.20104 0
M  V30 14035 C 1329.77 -0.598682 -2.21243 0
M  V30 14036 C 1330.77 0.333205 -1.5731 0
M  V30 14037 O 1331.96 0.12137 -1.73777 0
M  V30 14038 C 1329.1 0.125183 -3.4067 0
M  V30 14039 H 1330.29 -1.49345 -2.60069 0
M  V30 14040 H 1327.84 -0.810649 -1.33634 0
M  V30 14041 H 1328.58 1.03469 -3.07351 0
M  V30 14042 H 1328.36 -0.544316 -3.88304 0
M  V30 14043 H 1329.85 0.407469 -4.15607 0
M  V30 14044 N 1330.29 1.35952 -0.797165 0
M  V30 14045 C 1331.24 2.29941 -0.198995 0
M  V30 14046 C 1332.21 1.52355 0.661592 0
M  V30 14047 O 1333.39 1.80832 0.60865 0
M  V30 14048 C 1330.53 3.38846 0.654033 0
M  V30 14049 C 1329.65 4.31409 -0.225949 0
M  V30 14050 C 1328.78 5.27401 0.634188 0
M  V30 14051 C 1327.82 6.11602 -0.246773 0
M  V30 14052 N 1326.96 6.9976 0.57279 0
M  V30 14053 H 1331.8 2.80508 -1.00594 0
M  V30 14054 H 1329.33 1.38064 -0.507617 0
M  V30 14055 H 1331.29 4.00643 1.16367 0
M  V30 14056 H 1329.92 2.89578 1.42633 0
M  V30 14057 H 1328.97 3.70699 -0.853616 0
M  V30 14058 H 1330.29 4.90532 -0.904416 0
M  V30 14059 H 1329.44 5.94525 1.20933 0
M  V30 14060 H 1328.18 4.68751 1.34625 0
M  V30 14061 H 1327.18 5.43434 -0.834258 0
M  V30 14062 H 1328.41 6.72329 -0.956559 0
M  V30 14063 H 1326.35 6.43609 1.26901 0
M  V30 14064 H 1326.27 7.55985 -0.0478303 0
M  V30 14065 H 1327.54 7.71244 1.13151 0
M  V30 14066 N 1331.77 0.549846 1.47697 0
M  V30 14067 C 1332.7 -0.249645 2.2683 0
M  V30 14068 C 1333.68 -0.926968 1.33589 0
M  V30 14069 O 1334.86 -0.947423 1.62961 0
M  V30 14070 C 1331.99 -1.35511 3.1041 0
M  V30 14071 C 1331.04 -0.787118 4.19174 0
M  V30 14072 S 1331.87 0.360564 5.34285 0
M  V30 14073 C 1333.03 -0.746898 6.21428 0
M  V30 14074 H 1333.26 0.421876 2.94292 0
M  V30 14075 H 1330.79 0.336017 1.50699 0
M  V30 14076 H 1332.75 -1.98825 3.59137 0
M  V30 14077 H 1331.41 -1.99844 2.42325 0
M  V30 14078 H 1330.6 -1.61704 4.77355 0
M  V30 14079 H 1330.21 -0.230301 3.7329 0
M  V30 14080 H 1332.5 -1.6408 6.57331 0
M  V30 14081 H 1333.44 -0.202608 7.0781 0
M  V30 14082 H 1333.85 -1.03625 5.54907 0
M  V30 14083 N 1333.25 -1.54984 0.285932 0
M  V30 14084 C 1334.16 -2.26621 -0.606648 0
M  V30 14085 C 1335.17 -1.29595 -1.16108 0
M  V30 14086 O 1336.35 -1.62551 -1.18908 0
M  V30 14087 C 1333.41 -2.98156 -1.76929 0
M  V30 14088 C 1332.47 -4.10685 -1.25045 0
M  V30 14089 C 1331.71 -4.788 -2.35768 0
M  V30 14090 O 1331.93 -4.46183 -3.55354 0
M  V30 14091 O 1330.86 -5.66523 -2.03312 0
M  V30 14092 H 1334.69 -3.03689 -0.0259981 0
M  V30 14093 H 1332.28 -1.49306 0.0529355 0
M  V30 14094 H 1334.16 -3.43076 -2.44697 0
M  V30 14095 H 1332.83 -2.23996 -2.33683 0
M  V30 14096 H 1331.74 -3.70198 -0.538919 0
M  V30 14097 H 1333.07 -4.86778 -0.728528 0
M  V30 14098 N 1334.72 -0.0133892 -1.57594 0
M  V30 14099 C 1335.97 0.667313 -1.90765 0
M  V30 14100 C 1336.29 1.73564 -0.888847 0
M  V30 14101 O 1335.56 1.95768 0.0718946 0
M  V30 14102 H 1334.14 0.24947 -0.704112 0
M  V30 14103 H 1336.81 -0.0574789 -1.94815 0
M  V30 14104 H 1335.9 1.13007 -2.90922 0
M  V30 14105 N 1336.2 1.55448 0.259558 0
M  V30 14106 C 1337.45 1.76686 0.98935 0
M  V30 14107 C 1337.78 0.575434 1.85793 0
M  V30 14108 O 1337.03 -0.441676 1.90651 0
M  V30 14109 C 1337.33 3.03292 1.89073 0
M  V30 14110 C 1337 4.35225 1.17855 0
M  V30 14111 C 1335.66 4.7108 0.981675 0
M  V30 14112 C 1338.01 5.16839 0.6728 0
M  V30 14113 C 1335.34 5.86094 0.266551 0
M  V30 14114 C 1337.69 6.32593 -0.0287965 0
M  V30 14115 C 1336.36 6.67078 -0.23726 0
M  V30 14116 H 1335.63 0.646542 0.362029 0
M  V30 14117 H 1338.27 1.8972 0.260488 0
M  V30 14118 H 1336.58 2.85217 2.68624 0
M  V30 14119 H 1338.27 3.16923 2.45685 0
M  V30 14120 H 1334.86 4.07051 1.34192 0
M  V30 14121 H 1339.05 4.89604 0.812481 0
M  V30 14122 H 1334.3 6.11327 0.0944447 0
M  V30 14123 H 1338.48 6.95081 -0.428378 0
M  V30 14124 H 1336.11 7.56049 -0.793358 0
M  V30 14125 N 1337.68 -0.524672 1.4861 0
M  V30 14126 C 1339.09 -1.10655 1.50374 0
M  V30 14127 C 1339.44 -1.94242 0.276512 0
M  V30 14128 O 1338.57 -2.07451 -0.615887 0
M  V30 14129 C 1339.16 -2.01348 2.72478 0
M  V30 14130 C 1337.72 -2.54743 2.77097 0
M  V30 14131 C 1336.87 -1.31822 2.43964 0
M  V30 14132 H 1339.82 -0.309674 1.55649 0
M  V30 14133 H 1339.84 -2.85709 2.51297 0
M  V30 14134 H 1339.35 -1.40485 3.61781 0
M  V30 14135 H 1337.45 -3.19313 1.92016 0
M  V30 14136 H 1337.57 -2.93514 3.78664 0
M  V30 14137 H 1335.93 -1.63574 1.95233 0
M  V30 14138 H 1336.71 -0.727026 3.35513 0
M  V30 14139 N 1339.16 -1.37287 -0.77395 0
M  V30 14140 C 1340.11 -1.32872 -1.88716 0
M  V30 14141 C 1341.08 -0.194655 -1.64955 0
M  V30 14142 O 1342.26 -0.383662 -1.86903 0
M  V30 14143 C 1339.4 -1.13934 -3.2575 0
M  V30 14144 C 1338.51 -2.36552 -3.61479 0
M  V30 14145 C 1337.65 -2.10504 -4.87711 0
M  V30 14146 C 1336.69 -3.28999 -5.16165 0
M  V30 14147 N 1335.82 -3.02517 -6.33584 0
M  V30 14148 H 1340.66 -2.28051 -1.91825 0
M  V30 14149 H 1338.2 -1.13325 -0.93786 0
M  V30 14150 H 1340.16 -1.00976 -4.04796 0
M  V30 14151 H 1338.79 -0.22404 -3.22022 0
M  V30 14152 H 1337.84 -2.60257 -2.77435 0
M  V30 14153 H 1339.15 -3.24931 -3.78446 0
M  V30 14154 H 1338.31 -1.94564 -5.74656 0
M  V30 14155 H 1337.05 -1.19459 -4.72843 0
M  V30 14156 H 1336.05 -3.4548 -4.27696 0
M  V30 14157 H 1337.28 -4.20892 -5.32942 0
M  V30 14158 H 1335.22 -2.14099 -6.20079 0
M  V30 14159 H 1335.14 -3.84439 -6.50955 0
M  V30 14160 H 1336.41 -2.9019 -7.23471 0
M  V30 14161 N 1340.64 0.999871 -1.21821 0
M  V30 14162 C 1341.91 1.71135 -0.947213 0
M  V30 14163 C 1342.29 2.04087 0.539601 0
M  V30 14164 O 1341.64 1.71866 1.5058 0
M  V30 14165 C 1341.85 2.96704 -1.8376 0
M  V30 14166 C 1343.2 3.69627 -2.08952 0
M  V30 14167 O 1344.22 3.06697 -1.81151 0
M  V30 14168 O 1343.08 4.82832 -2.55999 0
M  V30 14169 H 1340.18 0.746631 -0.355628 0
M  V30 14170 H 1342.72 1.05684 -1.32774 0
M  V30 14171 H 1341.49 2.68802 -2.84361 0
M  V30 14172 H 1341.12 3.69894 -1.45821 0
M  V30 14173 N 1342.11 1.02678 1.19562 0
M  V30 14174 C 1343.36 0.723086 1.89471 0
M  V30 14175 C 1343.69 -0.746269 1.79289 0
M  V30 14176 O 1342.97 -1.54322 1.18384 0
M  V30 14177 C 1343.25 1.17224 3.40486 0
M  V30 14178 C 1343.1 2.70266 3.5955 0
M  V30 14179 C 1344.42 0.751397 4.33638 0
M  V30 14180 H 1341.54 0.264155 0.688034 0
M  V30 14181 H 1344.18 1.27633 1.40747 0
M  V30 14182 H 1342.33 0.701544 3.82113 0
M  V30 14183 H 1344.01 3.25266 3.27108 0
M  V30 14184 H 1342.25 3.10758 3.02675 0
M  V30 14185 H 1342.92 2.96748 4.65451 0
M  V30 14186 H 1345.4 1.15621 3.99714 0
M  V30 14187 H 1344.27 1.09358 5.37896 0
M  V30 14188 H 1344.53 -0.346367 4.40741 0
M  V30 14189 N 1343.59 -1.35528 0.804364 0
M  V30 14190 C 1344.84 -1.99126 0.384261 0
M  V30 14191 C 1345.17 -1.63668 -1.0453 0
M  V30 14192 O 1344.45 -0.898896 -1.72482 0
M  V30 14193 C 1344.73 -3.55636 0.565278 0
M  V30 14194 C 1344.58 -4.00899 2.03961 0
M  V30 14195 C 1345.9 -4.40099 -0.0104301 0
M  V30 14196 H 1343.02 -0.723369 0.141092 0
M  V30 14197 H 1345.66 -1.60712 1.01348 0
M  V30 14198 H 1343.81 -3.88489 0.0296425 0
M  V30 14199 H 1345.48 -3.78465 2.63746 0
M  V30 14200 H 1343.73 -3.5189 2.53685 0
M  V30 14201 H 1344.4 -5.09785 2.11716 0
M  V30 14202 H 1346.87 -4.13692 0.446985 0
M  V30 14203 H 1345.75 -5.48705 0.146155 0
M  V30 14204 H 1346.01 -4.28096 -1.10392 0
M  V30 14205 N 1345.07 -0.557671 -1.47404 0
M  V30 14206 C 1346.32 -0.0316382 -2.01675 0
M  V30 14207 C 1346.63 1.32656 -1.43742 0
M  V30 14208 O 1347.84 1.94253 -1.89678 0
M  V30 14209 C 1346.3 -0.00606931 -3.59899 0
M  V30 14210 C 1345.9 -1.36106 -4.26825 0
M  V30 14211 C 1347.65 0.467332 -4.2192 0
M  V30 14212 C 1345.55 -1.29457 -5.77057 0
M  V30 14213 H 1344.48 -0.00805738 -0.753957 0
M  V30 14214 H 1347.14 -0.705592 -1.69392 0
M  V30 14215 H 1345.52 0.733541 -3.89147 0
M  V30 14216 H 1346.69 -2.11842 -4.09218 0
M  V30 14217 H 1345.01 -1.77243 -3.76794 0
M  V30 14218 H 1347.6 0.535478 -5.32012 0
M  V30 14219 H 1347.95 1.47942 -3.89126 0
M  V30 14220 H 1348.48 -0.217434 -3.97205 0
M  V30 14221 H 1345.22 -2.28267 -6.14471 0
M  V30 14222 H 1344.74 -0.579022 -5.96999 0
M  V30 14223 H 1346.42 -0.996834 -6.39275 0
M  V30 14224 N 1346.55 1.54831 -0.294147 0
M  V30 14225 C 1347.48 2.26226 0.57827 0
M  V30 14226 C 1348.46 1.25928 1.14351 0
M  V30 14227 O 1349.65 1.54687 1.17412 0
M  V30 14228 C 1346.78 2.99783 1.75349 0
M  V30 14229 C 1345.73 4.07171 1.31892 0
M  V30 14230 C 1345.06 4.68406 2.57876 0
M  V30 14231 C 1346.36 5.20313 0.455167 0
M  V30 14232 H 1348.05 2.99395 -0.0171936 0
M  V30 14233 H 1345.6 1.43997 -0.00970944 0
M  V30 14234 H 1347.55 3.48448 2.36986 0
M  V30 14235 H 1346.27 2.24181 2.37509 0
M  V30 14236 H 1344.93 3.59346 0.725653 0
M  V30 14237 H 1344.58 3.89451 3.18335 0
M  V30 14238 H 1344.28 5.40927 2.29502 0
M  V30 14239 H 1345.8 5.1983 3.20327 0
M  V30 14240 H 1347.22 5.64913 0.977026 0
M  V30 14241 H 1345.61 5.99512 0.265501 0
M  V30 14242 H 1346.68 4.82088 -0.521434 0
M  V30 14243 N 1348.03 0.0217466 1.57585 0
M  V30 14244 C 1349.28 -0.657187 1.91116 0
M  V30 14245 C 1349.6 -1.7309 0.898039 0
M  V30 14246 O 1348.87 -1.95803 -0.0615116 0
M  V30 14247 H 1347.45 -0.245732 0.705425 0
M  V30 14248 H 1350.11 0.0678096 1.94782 0
M  V30 14249 H 1349.2 -1.11462 2.91518 0
M  V30 14250 N 1349.51 -1.55583 -0.251311 0
M  V30 14251 C 1350.92 -1.47908 -0.599606 0
M  V30 14252 C 1351.12 -0.711061 -1.88537 0
M  V30 14253 O 1350.18 -0.238639 -2.5137 0
M  V30 14254 C 1351.49 -2.92284 -0.706429 0
M  V30 14255 C 1353.04 -3.02629 -0.799049 0
M  V30 14256 C 1353.51 -4.48303 -0.93747 0
M  V30 14257 N 1355 -4.52222 -1.00245 0
M  V30 14258 C 1355.74 -5.62181 -1.12874 0
M  V30 14259 N 1355.24 -6.81958 -1.22085 0
M  V30 14260 N 1357.03 -5.49968 -1.16155 0
M  V30 14261 H 1349.18 -2.0396 0.592806 0
M  V30 14262 H 1351.44 -0.925797 0.203971 0
M  V30 14263 H 1351.15 -3.51297 0.168243 0
M  V30 14264 H 1351.02 -3.42524 -1.57979 0
M  V30 14265 H 1353.41 -2.43699 -1.66418 0
M  V30 14266 H 1353.49 -2.55607 0.099367 0
M  V30 14267 H 1353.13 -5.07842 -0.0769166 0
M  V30 14268 H 1353.06 -4.93002 -1.85086 0
M  V30 14269 H 1355.56 -3.65951 -0.94279 0
M  V30 14270 H 1355.87 -7.6151 -1.31616 0
M  V30 14271 H 1354.21 -6.84728 -1.1905 0
M  V30 14272 H 1357.4 -4.55327 -1.08604 0
M  V30 14273 H 1357.58 -6.35701 -1.25653 0
M  V30 14274 N 1350.98 0.516783 -1.48886 0
M  V30 14275 C 1352.21 1.30103 -1.61518 0
M  V30 14276 C 1352.63 1.85996 -0.28055 0
M  V30 14277 O 1351.99 1.65075 0.749671 0
M  V30 14278 C 1352.04 2.41837 -2.67483 0
M  V30 14279 O 1351.14 3.45249 -2.25559 0
M  V30 14280 H 1350.48 0.384774 -0.541152 0
M  V30 14281 H 1353.01 0.620424 -1.94966 0
M  V30 14282 H 1353.02 2.87832 -2.89165 0
M  V30 14283 H 1351.7 2.00519 -3.64369 0
M  V30 14284 H 1350.28 3.05281 -2.14144 0
M  V30 14285 N 1352.46 1.37696 0.766659 0
M  V30 14286 C 1353.39 1.36576 1.89392 0
M  V30 14287 C 1354.37 0.233597 1.68488 0
M  V30 14288 O 1355.56 0.434719 1.89272 0
M  V30 14289 C 1352.69 1.17705 3.26746 0
M  V30 14290 C 1351.64 2.27987 3.62224 0
M  V30 14291 C 1350.97 1.94235 4.98174 0
M  V30 14292 C 1352.27 3.70195 3.68447 0
M  V30 14293 H 1353.96 2.30905 1.90587 0
M  V30 14294 H 1351.51 1.11148 0.915538 0
M  V30 14295 H 1353.46 1.15551 4.05248 0
M  V30 14296 H 1352.18 0.198334 3.25997 0
M  V30 14297 H 1350.84 2.29306 2.86032 0
M  V30 14298 H 1350.49 0.948796 4.93971 0
M  V30 14299 H 1350.19 2.68086 5.2288 0
M  V30 14300 H 1351.72 1.93676 5.7907 0
M  V30 14301 H 1353.13 3.70978 4.37091 0
M  V30 14302 H 1351.53 4.43142 4.04654 0
M  V30 14303 H 1352.6 4.03453 2.68986 0
M  V30 14304 O 1353.98 -0.906874 1.33634 0
M  V30 14305 H 1354.67 -1.54136 1.17311 0
M  V30 END ATOM
M  V30 BEGIN BOND
M  V30 END BOND
M  V30 END CTAB
M  END
$$$$
