drugbank_target|Q93LD7 Phosphotriesterase (DB04687; DB07674; DB07721)
 OpenBabel12092120303D

  0  0  0     0  0            999 V3000
M  V30 BEGIN CTAB
M  V30 COUNTS 5859 5915 0 0 0
M  V30 BEGIN ATOM
M  V30 1 H -0.908 1.98254 -0.117106 0
M  V30 2 N 0 1.576 0 0
M  V30 3 C 0.933 2.03868 1.02534 0
M  V30 4 C 1.911 0.928543 1.3348 0
M  V30 5 O 3.095 1.19667 1.45644 0
M  V30 6 C 0.222 2.43627 2.35294 0
M  V30 7 C -0.732 3.65373 2.2001 0
M  V30 8 S 0.101 5.13292 1.52614 0
M  V30 9 C 1.257 5.56322 2.86805 0
M  V30 10 H 1.49 2.90518 0.631377 0
M  V30 11 H -0.977 1.52953 0.210867 0
M  V30 12 H 0.981 2.67203 3.11629 0
M  V30 13 H -0.358 1.57376 2.7183 0
M  V30 14 H -1.165 3.90944 3.18086 0
M  V30 15 H -1.563 3.418 1.51819 0
M  V30 16 H 0.729 5.58782 3.83104 0
M  V30 17 H 1.672 6.56266 2.65933 0
M  V30 18 H 2.08 4.83886 2.90714 0
M  V30 19 N 1.4781 -0.272755 1.55222 0
M  V30 20 C 2.4101 -1.35946 1.8453 0
M  V30 21 C 3.4231 -1.45525 0.729818 0
M  V30 22 O 4.6121 -1.47337 1.00767 0
M  V30 23 C 1.7121 -2.74069 1.99347 0
M  V30 24 C 0.8851 -2.87079 3.30007 0
M  V30 25 C -0.0559 -4.05879 3.34886 0
M  V30 26 O -1.0299 -3.96626 4.08261 0
M  V30 27 N 0.1721 -5.17857 2.62307 0
M  V30 28 H 2.9371 -1.11149 2.78327 0
M  V30 29 H 0.4981 -0.462869 1.55142 0
M  V30 30 H 2.4901 -3.51838 1.99981 0
M  V30 31 H 1.0601 -2.91688 1.12415 0
M  V30 32 H 0.2801 -1.96193 3.41909 0
M  V30 33 H 1.5681 -2.92701 4.16177 0
M  V30 34 H 0.9661 -5.28261 2.02377 0
M  V30 35 H -0.4769 -5.93855 2.68663 0
M  V30 36 N 2.9562 -1.48159 -0.537278 0
M  V30 37 C 4.1842 -1.59454 -1.31841 0
M  V30 38 C 4.5992 -0.252065 -1.8711 0
M  V30 39 O 3.9562 0.757621 -1.66031 0
M  V30 40 C 4.0072 -2.63546 -2.47439 0
M  V30 41 O 3.7282 -3.92583 -1.94449 0
M  V30 42 C 5.2292 -2.85212 -3.39366 0
M  V30 43 H 2.4492 -0.53785 -0.401196 0
M  V30 44 H 4.9932 -1.93932 -0.648891 0
M  V30 45 H 3.1482 -2.31946 -3.1029 0
M  V30 46 H 3.5622 -4.49629 -2.70063 0
M  V30 47 H 5.0362 -3.61863 -4.16844 0
M  V30 48 H 5.5132 -1.93765 -3.94147 0
M  V30 49 H 6.1192 -3.18086 -2.82314 0
M  V30 50 N 4.4343 0.785586 -1.36625 0
M  V30 51 C 5.8503 1.08419 -1.17122 0
M  V30 52 C 6.0503 2.015 0.00208491 0
M  V30 53 O 5.1063 2.43551 0.666278 0
M  V30 54 C 6.4193 1.69498 -2.48377 0
M  V30 55 C 7.9673 1.81821 -2.54775 0
M  V30 56 C 8.4423 2.46315 -3.86126 0
M  V30 57 N 9.9333 2.53779 -3.87492 0
M  V30 58 C 10.6683 3.045 -4.85868 0
M  V30 59 N 10.1643 3.55499 -5.94637 0
M  V30 60 N 11.9573 3.03247 -4.73284 0
M  V30 61 H 4.1083 0.167264 -2.1174 0
M  V30 62 H 6.3713 0.13682 -0.938075 0
M  V30 63 H 6.0773 1.08571 -3.34522 0
M  V30 64 H 5.9513 2.6896 -2.64462 0
M  V30 65 H 8.3383 2.41884 -1.69045 0
M  V30 66 H 8.4193 0.811532 -2.42586 0
M  V30 67 H 8.0633 1.86895 -4.72263 0
M  V30 68 H 7.9933 3.47561 -3.95612 0
M  V30 69 H 10.4843 2.17672 -3.08913 0
M  V30 70 H 10.7973 3.92562 -6.65669 0
M  V30 71 H 9.1423 3.5364 -5.98301 0
M  V30 72 H 12.3333 2.62696 -3.87438 0
M  V30 73 H 12.5063 3.42467 -5.50109 0
M  V30 74 N 5.9124 1.20967 1.01018 0
M  V30 75 C 7.3284 0.965905 1.27053 0
M  V30 76 C 7.5284 -0.350785 1.98423 0
M  V30 77 O 6.5844 -1.07773 2.28344 0
M  V30 78 C 7.8974 2.15294 2.09926 0
M  V30 79 C 9.4454 2.19463 2.23171 0
M  V30 80 C 9.9204 3.3767 3.09424 0
M  V30 81 N 11.4114 3.37724 3.17012 0
M  V30 82 C 12.1464 4.25837 3.83993 0
M  V30 83 N 11.6424 5.24138 4.53047 0
M  V30 84 N 13.4354 4.1366 3.80581 0
M  V30 85 H 5.5864 2.0565 0.531194 0
M  V30 86 H 7.8494 0.90024 0.297106 0
M  V30 87 H 7.5554 3.10684 1.64828 0
M  V30 88 H 7.4294 2.13923 3.10672 0
M  V30 89 H 9.8164 1.24632 2.6749 0
M  V30 90 H 9.8974 2.2488 1.21912 0
M  V30 91 H 9.5414 4.32791 2.65808 0
M  V30 92 H 9.4714 3.29491 4.10784 0
M  V30 93 H 11.9624 2.6658 2.6785 0
M  V30 94 H 12.2754 5.87684 5.01844 0
M  V30 95 H 10.6204 5.28068 4.5185 0
M  V30 96 H 13.8114 3.36127 3.25785 0
M  V30 97 H 13.9844 4.82538 4.32505 0
M  V30 98 N 7.3905 -1.2043 1.01659 0
M  V30 99 C 8.6675 -1.8548 0.621004 0
M  V30 100 C 9.0475 -1.9091 -0.900919 0
M  V30 101 O 8.3955 -1.41694 -1.79263 0
M  V30 102 C 8.6055 -3.25119 1.2688 0
M  V30 103 C 9.9535 -4.01403 1.38423 0
M  V30 104 O 10.9775 -3.34473 1.22501 0
M  V30 105 O 9.8365 -5.21265 1.64151 0
M  V30 106 H 6.9305 -0.798761 0.214266 0
M  V30 107 H 9.4765 -1.28019 1.11396 0
M  V30 108 H 8.2485 -3.15932 2.30873 0
M  V30 109 H 7.8715 -3.90212 0.762917 0
M  V30 110 N 8.8686 -0.792821 -1.36206 0
M  V30 111 C 9.8316 -0.199459 -2.2833 0
M  V30 112 C 10.8316 0.605189 -1.48977 0
M  V30 113 O 12.0216 0.425685 -1.68919 0
M  V30 114 C 9.1536 0.723523 -3.33134 0
M  V30 115 H 10.3466 -1.01181 -2.82316 0
M  V30 116 H 7.8996 -0.562485 -1.45828 0
M  V30 117 H 8.6346 1.56008 -2.84309 0
M  V30 118 H 8.4196 0.148436 -3.91819 0
M  V30 119 H 9.9096 1.13344 -4.01924 0
M  V30 120 N 10.3467 1.47872 -0.545128 0
M  V30 121 C 11.2767 2.32661 0.197793 0
M  V30 122 C 12.2577 1.43041 0.920504 0
M  V30 123 O 13.4427 1.71912 0.90333 0
M  V30 124 C 10.5727 3.24569 1.23582 0
M  V30 125 C 9.5267 4.23333 0.630323 0
M  V30 126 C 8.8527 5.0448 1.77211 0
M  V30 127 C 10.1527 5.20704 -0.407974 0
M  V30 128 H 11.8467 2.95024 -0.510045 0
M  V30 129 H 9.3927 1.4187 -0.246731 0
M  V30 130 H 11.3457 3.8272 1.76362 0
M  V30 131 H 10.0697 2.60236 1.97344 0
M  V30 132 H 8.7287 3.6639 0.123922 0
M  V30 133 H 8.3767 4.36561 2.49847 0
M  V30 134 H 8.0767 5.71339 1.37281 0
M  V30 135 H 9.6007 5.65487 2.3034 0
M  V30 136 H 11.0147 5.7329 0.033305 0
M  V30 137 H 9.4117 5.95699 -0.725486 0
M  V30 138 H 10.4817 4.66917 -1.30828 0
M  V30 139 N 11.8248 0.280983 1.55075 0
M  V30 140 C 12.7718 -0.603937 2.22758 0
M  V30 141 C 13.7418 -1.1452 1.20309 0
M  V30 142 O 14.9268 -1.19343 1.48869 0
M  V30 143 C 12.0668 -1.77947 2.95684 0
M  V30 144 C 11.1798 -1.2715 4.12864 0
M  V30 145 C 10.3148 -2.4093 4.7342 0
M  V30 146 C 9.3538 -1.87165 5.82783 0
M  V30 147 N 8.4908 -2.94441 6.37377 0
M  V30 148 H 13.3308 -0.020124 2.97993 0
M  V30 149 H 10.8678 0.00183425 1.471 0
M  V30 150 H 12.8258 -2.47055 3.36184 0
M  V30 151 H 11.4558 -2.33522 2.22861 0
M  V30 152 H 10.5078 -0.473331 3.77444 0
M  V30 153 H 11.8198 -0.837751 4.91715 0
M  V30 154 H 10.9738 -3.18021 5.1667 0
M  V30 155 H 9.7128 -2.87623 3.93859 0
M  V30 156 H 8.7178 -1.08556 5.38976 0
M  V30 157 H 9.9428 -1.41401 6.64216 0
M  V30 158 H 7.8888 -3.40505 5.60707 0
M  V30 159 H 7.8058 -2.55501 7.11516 0
M  V30 160 H 9.0738 -3.71489 6.85285 0
M  V30 161 N 13.3029 -1.57598 0.00835791 0
M  V30 162 C 14.5279 -1.95617 -0.689103 0
M  V30 163 C 14.9529 -0.883753 -1.66046 0
M  V30 164 O 14.3109 0.157352 -1.80616 0
M  V30 165 C 14.3589 -3.32736 -1.38994 0
M  V30 166 O 13.4629 -3.27631 -2.50463 0
M  V30 167 H 12.8039 -0.638379 -0.182668 0
M  V30 168 H 15.3339 -2.045 0.064036 0
M  V30 169 H 15.3439 -3.68494 -1.75147 0
M  V30 170 H 14.0189 -4.1034 -0.677778 0
M  V30 171 H 12.5959 -3.03561 -2.16576 0
M  V30 172 N 14.781 0.264519 -1.55364 0
M  V30 173 C 15.744 1.31046 -1.88042 0
M  V30 174 C 16.744 1.41943 -0.755569 0
M  V30 175 O 17.934 1.40947 -1.02369 0
M  V30 176 C 15.066 2.69067 -2.09323 0
M  V30 177 H 16.259 1.03297 -2.81549 0
M  V30 178 H 13.812 0.502989 -1.47986 0
M  V30 179 H 14.547 3.01982 -1.18226 0
M  V30 180 H 14.332 2.62542 -2.91229 0
M  V30 181 H 15.822 3.44623 -2.35848 0
M  V30 182 N 16.2591 1.48442 0.529413 0
M  V30 183 C 17.2221 1.62524 1.61612 0
M  V30 184 C 18.2221 0.498509 1.52877 0
M  V30 185 O 19.4121 0.76431 1.56537 0
M  V30 186 C 16.5441 1.59597 3.01233 0
M  V30 187 H 17.7371 2.59423 1.50465 0
M  V30 188 H 15.2901 1.37047 0.751514 0
M  V30 189 H 16.0251 0.641781 3.17886 0
M  V30 190 H 15.8101 2.41397 3.08982 0
M  V30 191 H 17.3001 1.72646 3.80241 0
M  V30 192 N 17.7372 -0.778329 1.37039 0
M  V30 193 C 18.7002 -1.87301 1.32102 0
M  V30 194 C 19.7002 -1.59198 0.226405 0
M  V30 195 O 20.8902 -1.67403 0.481861 0
M  V30 196 C 18.0222 -3.24309 1.05055 0
M  V30 197 H 19.2152 -1.93093 2.29467 0
M  V30 198 H 16.7682 -0.977358 1.21973 0
M  V30 199 H 17.5032 -3.24196 0.0819373 0
M  V30 200 H 17.2882 -3.46098 1.84279 0
M  V30 201 H 18.7782 -4.04382 1.04234 0
M  V30 202 N 19.2153 -1.21501 -1.00376 0
M  V30 203 C 20.4643 -1.02718 -1.73586 0
M  V30 204 C 20.7773 0.439589 -1.90596 0
M  V30 205 O 21.9833 0.746848 -2.61026 0
M  V30 206 C 20.4393 -1.78929 -3.1227 0
M  V30 207 C 20.0473 -3.29783 -3.03228 0
M  V30 208 C 21.7913 -1.68557 -3.89601 0
M  V30 209 C 19.6983 -3.98479 -4.36999 0
M  V30 210 H 18.6283 -0.380733 -0.650814 0
M  V30 211 H 21.2793 -1.45248 -1.1214 0
M  V30 212 H 19.6613 -1.29192 -3.74333 0
M  V30 213 H 20.8353 -3.86832 -2.50395 0
M  V30 214 H 19.1503 -3.40711 -2.39385 0
M  V30 215 H 21.7473 -2.17211 -4.88593 0
M  V30 216 H 22.0903 -0.644021 -4.11288 0
M  V30 217 H 22.6233 -2.15778 -3.34193 0
M  V30 218 H 19.3623 -5.02841 -4.20513 0
M  V30 219 H 18.8823 -3.46219 -4.89788 0
M  V30 220 H 20.5613 -4.03462 -5.05794 0
M  V30 221 N 20.6934 1.19889 -1.02296 0
M  V30 222 C 21.9214 1.9339 -0.735399 0
M  V30 223 C 22.3364 1.75148 0.704887 0
M  V30 224 O 21.6934 1.06954 1.47875 0
M  V30 225 C 21.7444 3.45313 -1.06962 0
M  V30 226 O 21.4654 3.62964 -2.45334 0
M  V30 227 C 22.9664 4.35948 -0.804021 0
M  V30 228 H 20.1864 0.61448 -0.269546 0
M  V30 229 H 22.7304 1.522 -1.36585 0
M  V30 230 H 20.8854 3.84359 -0.484455 0
M  V30 231 H 21.2994 4.56886 -2.57595 0
M  V30 232 H 22.7734 5.41174 -1.0879 0
M  V30 233 H 23.2504 4.3842 0.261691 0
M  V30 234 H 23.8564 4.02574 -1.37164 0
M  V30 235 N 22.1715 0.800033 1.35784 0
M  V30 236 C 23.1015 0.220184 2.3246 0
M  V30 237 C 24.0825 -0.65073 1.57161 0
M  V30 238 O 25.2675 -0.582359 1.85263 0
M  V30 239 C 22.3975 -0.637353 3.41402 0
M  V30 240 C 21.3515 0.134531 4.27789 0
M  V30 241 C 20.6775 -0.844285 5.27992 0
M  V30 242 C 21.9775 1.32979 5.05088 0
M  V30 243 H 23.6715 1.02787 2.81203 0
M  V30 244 H 21.2175 0.495717 1.35199 0
M  V30 245 H 23.1705 -1.05302 4.08031 0
M  V30 246 H 21.8945 -1.47785 2.91251 0
M  V30 247 H 20.5535 0.531296 3.6273 0
M  V30 248 H 20.2015 -1.68011 4.74111 0
M  V30 249 H 19.9015 -0.332184 5.8666 0
M  V30 250 H 21.4255 -1.2583 5.97494 0
M  V30 251 H 22.8395 0.98934 5.64699 0
M  V30 252 H 21.2365 1.77593 5.7322 0
M  V30 253 H 22.3065 2.11978 4.36111 0
M  V30 254 N 23.6496 -1.47581 0.552962 0
M  V30 255 C 24.5796 -2.32762 -0.185451 0
M  V30 256 C 25.5606 -1.43527 -0.912905 0
M  V30 257 O 26.7456 -1.72388 -0.894201 0
M  V30 258 C 23.8756 -3.25219 -1.21859 0
M  V30 259 C 22.8296 -4.23661 -0.607864 0
M  V30 260 C 22.1556 -5.05413 -1.74533 0
M  V30 261 C 23.4556 -5.20481 0.435582 0
M  V30 262 H 25.1496 -2.94749 0.525684 0
M  V30 263 H 22.6956 -1.41738 0.254251 0
M  V30 264 H 24.6486 -3.8365 -1.7433 0
M  V30 265 H 23.3726 -2.61279 -1.95961 0
M  V30 266 H 22.0316 -3.66451 -0.104489 0
M  V30 267 H 21.6796 -4.3788 -2.47529 0
M  V30 268 H 21.3796 -5.72059 -1.34249 0
M  V30 269 H 22.9036 -5.66701 -2.27338 0
M  V30 270 H 24.3176 -5.733 -0.00290157 0
M  V30 271 H 22.7146 -5.95305 0.757067 0
M  V30 272 H 23.7846 -4.66217 1.33303 0
M  V30 273 N 25.1277 -0.289203 -1.54924 0
M  V30 274 C 26.3757 0.322879 -1.99504 0
M  V30 275 C 26.6967 1.55313 -1.1791 0
M  V30 276 O 25.9667 1.94001 -0.272097 0
M  V30 277 H 24.5467 0.122291 -0.736922 0
M  V30 278 H 27.2087 -0.397802 -1.90797 0
M  V30 279 H 26.3047 0.603061 -3.06218 0
M  V30 280 N 26.6058 1.57591 -0.0167156 0
M  V30 281 C 27.8538 1.90906 0.663285 0
M  V30 282 C 28.1748 0.892509 1.73376 0
M  V30 283 O 27.4448 -0.0677623 1.95783 0
M  V30 284 H 26.0248 0.704637 0.247983 0
M  V30 285 H 28.6868 1.94803 -0.0615909 0
M  V30 286 H 27.7828 2.9116 1.12393 0
M  V30 287 N 28.0839 -0.256276 1.55502 0
M  V30 288 C 29.0139 -1.32102 1.92539 0
M  V30 289 C 29.9949 -1.50684 0.789194 0
M  V30 290 O 31.1799 -1.63449 1.04872 0
M  V30 291 C 28.3099 -2.67752 2.21192 0
M  V30 292 C 27.2639 -2.63878 3.36975 0
M  V30 293 C 26.5899 -4.03236 3.51147 0
M  V30 294 C 27.8899 -2.21682 4.72921 0
M  V30 295 H 29.5839 -1.01351 2.81724 0
M  V30 296 H 27.1299 -0.486105 1.35547 0
M  V30 297 H 29.0829 -3.42365 2.45691 0
M  V30 298 H 27.8069 -3.0012 1.28824 0
M  V30 299 H 26.4659 -1.91722 3.12471 0
M  V30 300 H 26.1139 -4.32854 2.56216 0
M  V30 301 H 25.8139 -4.01535 4.29003 0
M  V30 302 H 27.3379 -4.79563 3.77957 0
M  V30 303 H 28.7519 -2.86023 4.96854 0
M  V30 304 H 27.1489 -2.3111 5.53812 0
M  V30 305 H 28.2189 -1.16833 4.70615 0
M  V30 306 N 29.562 -1.4872 -0.521534 0
M  V30 307 C 30.525 -1.63379 -1.60748 0
M  V30 308 C 31.525 -0.50661 -1.52611 0
M  V30 309 O 32.715 -0.772601 -1.5613 0
M  V30 310 C 29.847 -1.61192 -3.00383 0
M  V30 311 H 31.04 -2.60217 -1.49087 0
M  V30 312 H 28.593 -1.37444 -0.744235 0
M  V30 313 H 29.328 -0.65863 -3.17541 0
M  V30 314 H 29.113 -2.43032 -3.07698 0
M  V30 315 H 30.603 -1.7466 -3.7932 0
M  V30 316 N 31.0401 0.771051 -1.3745 0
M  V30 317 C 32.2881 1.52661 -1.32435 0
M  V30 318 C 32.6091 1.9479 0.0905024 0
M  V30 319 O 31.8791 1.66348 1.03466 0
M  V30 320 H 30.4591 0.566218 -0.487244 0
M  V30 321 H 33.1211 0.917636 -1.71946 0
M  V30 322 H 32.2171 2.42568 -1.96385 0
M  V30 323 N 32.5182 1.22032 0.997298 0
M  V30 324 C 33.7582 1.05375 1.75144 0
M  V30 325 C 34.1222 -0.404696 1.87686 0
M  V30 326 O 35.3232 -0.691998 2.5974 0
M  V30 327 C 33.5942 1.74046 3.12158 0
M  V30 328 S 35.1532 1.72745 4.03366 0
M  V30 329 H 31.9712 0.377449 0.602539 0
M  V30 330 H 34.5732 1.54902 1.19272 0
M  V30 331 H 33.2772 2.79332 3.00669 0
M  V30 332 H 32.8082 1.24731 3.73103 0
M  V30 333 H 34.8232 0.774015 4.90126 0
M  V30 334 N 33.9963 -1.19345 1.0293 0
M  V30 335 C 34.9593 -2.20793 0.615069 0
M  V30 336 C 35.9593 -1.57553 -0.321533 0
M  V30 337 O 37.1493 -1.73862 -0.108483 0
M  V30 338 C 34.2813 -3.40754 -0.0999222 0
M  V30 339 H 35.4743 -2.58955 1.51269 0
M  V30 340 H 33.0273 -1.3303 0.820534 0
M  V30 341 H 33.7623 -3.0811 -1.01187 0
M  V30 342 H 33.5473 -3.87889 0.57309 0
M  V30 343 H 35.0373 -4.15898 -0.376645 0
M  V30 344 N 35.4744 -0.807222 -1.35358 0
M  V30 345 C 36.6994 -0.399309 -2.0352 0
M  V30 346 C 37.1244 0.981986 -1.60433 0
M  V30 347 O 36.4824 1.63601 -0.781299 0
M  V30 348 C 36.5304 -0.491552 -3.57234 0
M  V30 349 O 35.6344 0.494754 -4.09421 0
M  V30 350 H 34.9754 -0.166682 -0.642739 0
M  V30 351 H 37.5054 -1.09328 -1.72941 0
M  V30 352 H 37.5154 -0.361588 -4.06395 0
M  V30 353 H 36.1904 -1.49907 -3.87944 0
M  V30 354 H 34.7674 0.324977 -3.71481 0
M  V30 355 N 36.9525 1.47285 -0.560781 0
M  V30 356 C 37.8855 2.27009 0.232821 0
M  V30 357 C 38.8635 1.34273 0.917039 0
M  V30 358 O 40.0475 1.63659 0.935315 0
M  V30 359 C 37.1745 3.11406 1.33206 0
M  V30 360 C 36.2205 4.19746 0.756019 0
M  V30 361 S 37.0535 5.34003 -0.400165 0
M  V30 362 C 38.2095 6.21964 0.700805 0
M  V30 363 H 38.4425 2.93971 -0.443683 0
M  V30 364 H 35.9755 1.50446 -0.347181 0
M  V30 365 H 37.9335 3.60601 1.96156 0
M  V30 366 H 36.5945 2.438 1.98041 0
M  V30 367 H 35.7875 4.78541 1.5816 0
M  V30 368 H 35.3895 3.73451 0.202619 0
M  V30 369 H 37.6815 6.58529 1.59202 0
M  V30 370 H 38.6245 7.07941 0.150126 0
M  V30 371 H 39.0325 5.5566 0.995083 0
M  V30 372 N 38.4306 0.297415 1.54768 0
M  V30 373 C 39.3936 -0.567375 2.22066 0
M  V30 374 C 40.3936 -1.06409 1.20556 0
M  V30 375 O 41.5836 -0.960691 1.45315 0
M  V30 376 C 38.7156 -1.78517 2.90421 0
M  V30 377 H 39.9086 0.0205534 2.99893 0
M  V30 378 H 37.4616 0.0482163 1.56226 0
M  V30 379 H 38.1966 -2.41303 2.16664 0
M  V30 380 H 37.9816 -1.43669 3.64831 0
M  V30 381 H 39.4716 -2.39964 3.41771 0
M  V30 382 N 39.9087 -1.5758 0.0250728 0
M  V30 383 C 41.3247 -1.56124 -0.331282 0
M  V30 384 C 41.5247 -1.03029 -1.73169 0
M  V30 385 O 40.5807 -0.675215 -2.43305 0
M  V30 386 C 41.8937 -3.00139 -0.183584 0
M  V30 387 C 43.4417 -3.11946 -0.256654 0
M  V30 388 C 43.9167 -4.57793 -0.137792 0
M  V30 389 N 45.4077 -4.6279 -0.194904 0
M  V30 390 C 46.1427 -5.7326 -0.126655 0
M  V30 391 N 45.6387 -6.928 -0.00755288 0
M  V30 392 N 47.4317 -5.61811 -0.180348 0
M  V30 393 H 39.5827 -1.90424 0.94087 0
M  V30 394 H 41.8457 -0.875761 0.362968 0
M  V30 395 H 41.5517 -3.4292 0.780927 0
M  V30 396 H 41.4257 -3.64899 -0.955448 0
M  V30 397 H 43.8127 -2.69079 -1.21162 0
M  V30 398 H 43.8937 -2.49915 0.545517 0
M  V30 399 H 43.5377 -5.01339 0.813739 0
M  V30 400 H 43.4677 -5.17798 -0.958775 0
M  V30 401 H 45.9587 -3.76807 -0.287267 0
M  V30 402 H 46.2717 -7.72791 0.0379428 0
M  V30 403 H 44.6167 -6.94995 0.0271731 0
M  V30 404 H 47.8077 -4.6731 -0.271767 0
M  V30 405 H 47.9807 -6.47882 -0.123697 0
M  V30 406 N 41.3868 0.248026 -1.55636 0
M  V30 407 C 42.7978 0.817177 -1.67866 0
M  V30 408 C 43.1488 1.86069 -0.622322 0
M  V30 409 O 42.2738 2.15157 0.231618 0
M  V30 410 C 42.8688 1.489 -3.04326 0
M  V30 411 C 41.4278 2.00587 -3.185 0
M  V30 412 C 40.5748 0.856573 -2.63739 0
M  V30 413 H 43.5258 0.0238579 -1.58682 0
M  V30 414 H 43.5468 2.35698 -2.98708 0
M  V30 415 H 43.0588 0.729279 -3.81186 0
M  V30 416 H 41.1598 2.79443 -2.4646 0
M  V30 417 H 41.2728 2.20402 -4.25393 0
M  V30 418 H 39.6368 1.25678 -2.21534 0
M  V30 419 H 40.4198 0.109953 -3.43124 0
M  V30 420 N 42.8649 1.48995 0.513639 0
M  V30 421 C 44.1139 1.57093 1.2651 0
M  V30 422 C 44.4269 0.257091 1.93903 0
M  V30 423 O 45.6329 0.216478 2.70636 0
M  V30 424 C 44.0889 2.77118 2.29638 0
M  V30 425 C 43.6969 4.15209 1.68241 0
M  V30 426 C 45.4409 2.94538 3.05692 0
M  V30 427 C 43.3479 5.26474 2.69406 0
M  V30 428 H 42.2779 0.584876 0.475854 0
M  V30 429 H 44.9289 1.7536 0.540487 0
M  V30 430 H 43.3109 2.52319 3.05207 0
M  V30 431 H 44.4849 4.50094 0.987505 0
M  V30 432 H 42.7999 4.03042 1.04623 0
M  V30 433 H 45.3969 3.74832 3.8132 0
M  V30 434 H 45.7399 2.04614 3.62545 0
M  V30 435 H 46.2729 3.19316 2.37238 0
M  V30 436 H 43.0119 6.18417 2.17351 0
M  V30 437 H 42.5319 4.96058 3.37175 0
M  V30 438 H 44.2109 5.55277 3.32078 0
M  V30 439 N 44.343 -0.763751 1.37857 0
M  V30 440 C 45.591 -1.51957 1.33243 0
M  V30 441 C 45.912 -1.94835 -0.0801709 0
M  V30 442 O 45.182 -1.66894 -1.02582 0
M  V30 443 H 43.762 -0.563626 0.49024 0
M  V30 444 H 46.424 -0.908504 1.7243 0
M  V30 445 H 45.52 -2.41523 1.97669 0
M  V30 446 N 45.8211 -1.22559 -0.990812 0
M  V30 447 C 47.0491 -1.07779 -1.76611 0
M  V30 448 C 47.4641 0.371513 -1.85109 0
M  V30 449 O 46.8211 1.25737 -1.32274 0
M  V30 450 C 46.8721 -1.68512 -3.19822 0
M  V30 451 O 46.5931 -3.07774 -3.1178 0
M  V30 452 C 48.0941 -1.59035 -4.13791 0
M  V30 453 H 45.3141 -0.377729 -0.554583 0
M  V30 454 H 47.8581 -1.62195 -1.24551 0
M  V30 455 H 46.0131 -1.18154 -3.68942 0
M  V30 456 H 46.4271 -3.37062 -4.01858 0
M  V30 457 H 47.9011 -2.0625 -5.1202 0
M  V30 458 H 48.3781 -0.547273 -4.35777 0
M  V30 459 H 48.9841 -2.08709 -3.70568 0
M  V30 460 N 47.2992 1.18797 -1.03562 0
M  V30 461 C 48.5472 1.88278 -0.734569 0
M  V30 462 C 48.8682 1.8043 0.739586 0
M  V30 463 O 48.1382 1.21925 1.53333 0
M  V30 464 H 46.7182 0.696991 -0.268725 0
M  V30 465 H 49.3802 1.44192 -1.31129 0
M  V30 466 H 48.4762 2.94443 -1.03489 0
M  V30 467 N 48.7773 0.814389 1.34928 0
M  V30 468 C 50.0543 0.321363 1.92942 0
M  V30 469 C 50.4343 -1.19014 1.74353 0
M  V30 470 O 49.7823 -1.99328 1.11716 0
M  V30 471 C 49.9923 0.741323 3.41036 0
M  V30 472 C 51.3403 0.735266 4.18185 0
M  V30 473 O 52.3643 0.68336 3.49584 0
M  V30 474 O 51.2233 0.800703 5.40602 0
M  V30 475 H 48.3173 0.0858893 0.822528 0
M  V30 476 H 50.8633 0.898609 1.43955 0
M  V30 477 H 49.6353 1.78276 3.4833 0
M  V30 478 H 49.2583 0.139307 3.97356 0
M  V30 479 N 50.2554 -1.46986 0.568584 0
M  V30 480 C 51.1854 -2.32946 -0.160753 0
M  V30 481 C 52.1664 -1.44487 -0.897631 0
M  V30 482 O 53.3514 -1.73327 -0.875867 0
M  V30 483 C 50.4814 -3.26494 -1.18403 0
M  V30 484 C 49.4354 -4.24282 -0.562895 0
M  V30 485 C 48.7614 -5.07236 -1.69163 0
M  V30 486 C 50.0614 -5.19989 0.490761 0
M  V30 487 H 51.7554 -2.94175 0.556916 0
M  V30 488 H 49.3014 -1.4146 0.26927 0
M  V30 489 H 51.2544 -3.85477 -1.70251 0
M  V30 490 H 49.9784 -2.63343 -1.93179 0
M  V30 491 H 48.6374 -3.66541 -0.0656164 0
M  V30 492 H 48.2854 -4.4048 -2.42871 0
M  V30 493 H 47.9854 -5.7345 -1.28174 0
M  V30 494 H 49.5094 -5.6908 -2.21314 0
M  V30 495 H 50.9234 -5.73271 0.0579047 0
M  V30 496 H 49.3204 -5.94469 0.820165 0
M  V30 497 H 50.3904 -4.64777 1.3824 0
M  V30 498 N 51.7335 -0.305618 -1.54608 0
M  V30 499 C 52.9825 0.303098 -1.9941 0
M  V30 500 C 53.2955 1.54648 -1.19764 0
M  V30 501 O 54.5015 2.23007 -1.54855 0
M  V30 502 C 52.9575 0.590588 -3.55021 0
M  V30 503 C 52.5655 -0.634719 -4.43481 0
M  V30 504 C 54.3095 1.16025 -4.08336 0
M  V30 505 C 52.2165 -0.320126 -5.90533 0
M  V30 506 H 51.1465 0.117031 -0.744862 0
M  V30 507 H 53.7975 -0.415045 -1.78745 0
M  V30 508 H 52.1795 1.36845 -3.71604 0
M  V30 509 H 53.3535 -1.41079 -4.38672 0
M  V30 510 H 51.6685 -1.12333 -4.00962 0
M  V30 511 H 54.2655 1.40994 -5.15776 0
M  V30 512 H 54.6085 2.10397 -3.5922 0
M  V30 513 H 55.1415 0.443985 -3.95315 0
M  V30 514 H 51.8805 -1.23254 -6.43808 0
M  V30 515 H 51.4005 0.418579 -5.98338 0
M  V30 516 H 53.0795 0.0766241 -6.46955 0
M  V30 517 N 53.2116 1.57565 -0.0334293 0
M  V30 518 C 54.1596 2.1164 0.96496 0
M  V30 519 C 55.1536 1.04398 1.33407 0
M  V30 520 O 56.3596 1.22828 1.3158 0
M  V30 521 H 52.7346 0.676222 0.32898 0
M  V30 522 H 54.7056 2.94455 0.483614 0
M  V30 523 C 53.4546 2.66207 2.23672 0
M  V30 524 H 52.7776 3.48378 1.96145 0
M  V30 525 H 54.2176 3.07685 2.9173 0
M  V30 526 C 52.6766 1.59151 2.96939 0
M  V30 527 O 53.2066 0.993858 3.89211 0
M  V30 528 N 51.4126 1.31093 2.59351 0
M  V30 529 H 50.9596 1.7988 1.84393 0
M  V30 530 H 50.9176 0.596889 3.08682 0
M  V30 531 N 54.6897 -0.239769 1.55765 0
M  V30 532 C 55.9177 -0.98417 1.81994 0
M  V30 533 C 56.3327 -1.7867 0.610124 0
M  V30 534 O 55.6897 -1.77571 -0.421271 0
M  V30 535 C 55.7407 -1.91635 3.06526 0
M  V30 536 O 55.4617 -1.14629 4.22838 0
M  V30 537 C 56.9627 -2.77616 3.45607 0
M  V30 538 H 54.1827 -0.28928 0.605441 0
M  V30 539 H 56.7267 -0.260499 2.02834 0
M  V30 540 H 54.8817 -2.5942 2.87715 0
M  V30 541 H 55.2957 -1.77745 4.93464 0
M  V30 542 H 56.7697 -3.38759 4.35828 0
M  V30 543 H 57.2467 -3.4909 2.6652 0
M  V30 544 H 57.8527 -2.15271 3.66795 0
M  V30 545 N 56.1678 -1.49265 -0.50573 0
M  V30 546 C 57.4138 -1.58748 -1.26202 0
M  V30 547 C 57.7468 -0.271227 -1.92297 0
M  V30 548 O 57.0218 0.724831 -1.80489 0
M  V30 549 C 57.3048 -2.74332 -2.33268 0
M  V30 550 C 57.1578 -4.15737 -1.71705 0
M  V30 551 C 58.4768 -2.85576 -3.34865 0
M  V30 552 H 55.5958 -0.577826 -0.457478 0
M  V30 553 H 58.2378 -1.81532 -0.560897 0
M  V30 554 H 56.3878 -2.55036 -2.93068 0
M  V30 555 H 58.0598 -4.46537 -1.15769 0
M  V30 556 H 56.3028 -4.21605 -1.02135 0
M  V30 557 H 56.9738 -4.92477 -2.49341 0
M  V30 558 H 59.4498 -3.03127 -2.8505 0
M  V30 559 H 58.3258 -3.68135 -4.07146 0
M  V30 560 H 58.5868 -1.94732 -3.96903 0
M  V30 561 N 57.6459 0.756429 -1.3826 0
M  V30 562 C 59.0619 1.0591 -1.19395 0
M  V30 563 C 59.2619 2.01459 -0.0406567 0
M  V30 564 O 58.3179 2.44909 0.614467 0
M  V30 565 C 59.6309 1.64191 -2.51916 0
M  V30 566 C 61.1789 1.76376 -2.58574 0
M  V30 567 C 61.6539 2.38069 -3.91264 0
M  V30 568 N 63.1449 2.45503 -3.92788 0
M  V30 569 C 63.8799 2.94126 -4.92217 0
M  V30 570 N 63.3759 3.42805 -6.02043 0
M  V30 571 N 65.1689 2.9314 -4.7961 0
M  V30 572 H 57.3199 0.122313 -2.12048 0
M  V30 573 H 59.5829 0.116892 -0.940766 0
M  V30 574 H 59.2889 1.01451 -3.3675 0
M  V30 575 H 59.1629 2.6329 -2.70108 0
M  V30 576 H 61.5499 2.38244 -1.74137 0
M  V30 577 H 61.6309 0.759894 -2.44252 0
M  V30 578 H 61.2749 1.76835 -4.76121 0
M  V30 579 H 61.2049 3.39091 -4.02895 0
M  V30 580 H 63.6959 2.1107 -3.13461 0
M  V30 581 H 64.0089 3.78354 -6.73846 0
M  V30 582 H 62.3539 3.4087 -6.05667 0
M  V30 583 H 65.5449 2.54419 -3.92923 0
M  V30 584 H 65.7179 3.30721 -5.5725 0
M  V30 585 N 59.124 1.23083 0.984299 0
M  V30 586 C 60.372 1.05848 1.72165 0
M  V30 587 C 60.693 -0.406049 1.90726 0
M  V30 588 O 59.963 -1.29139 1.47309 0
M  V30 589 H 58.543 0.388685 0.637913 0
M  V30 590 H 61.205 1.54736 1.18503 0
M  V30 591 H 60.301 1.54327 2.71274 0
M  V30 592 N 60.6021 -1.18246 1.0419 0
M  V30 593 C 62.0131 -1.69914 0.773698 0
M  V30 594 C 62.3641 -1.83085 -0.705297 0
M  V30 595 O 61.4891 -1.51123 -1.5489 0
M  V30 596 C 62.0841 -3.08619 1.39784 0
M  V30 597 C 60.6431 -3.57494 1.17792 0
M  V30 598 C 59.7901 -2.34013 1.48773 0
M  V30 599 H 62.7411 -1.02904 1.20816 0
M  V30 600 H 62.7621 -3.71958 0.801714 0
M  V30 601 H 62.2741 -2.99001 2.47426 0
M  V30 602 H 60.3751 -3.72406 0.120295 0
M  V30 603 H 60.4881 -4.40852 1.87581 0
M  V30 604 H 58.8521 -2.37986 0.907463 0
M  V30 605 H 59.6351 -2.27013 2.57527 0
M  V30 606 N 62.0802 -0.821533 -1.34494 0
M  V30 607 C 63.3292 -0.405355 -1.97585 0
M  V30 608 C 63.6422 1.03677 -1.65863 0
M  V30 609 O 64.8482 1.55679 -2.22433 0
M  V30 610 C 63.3042 -0.673861 -3.53535 0
M  V30 611 C 62.9122 -2.12951 -3.94152 0
M  V30 612 C 64.6562 -0.32378 -4.23263 0
M  V30 613 C 62.5632 -2.34298 -5.43009 0
M  V30 614 H 61.4932 -0.147836 -0.739365 0
M  V30 615 H 64.1442 -1.00769 -1.53355 0
M  V30 616 H 62.5262 -0.00137554 -3.96 0
M  V30 617 H 63.7002 -2.84104 -3.62797 0
M  V30 618 H 62.0152 -2.44089 -3.37356 0
M  V30 619 H 64.6122 -0.461126 -5.32708 0
M  V30 620 H 64.9552 0.731586 -4.09821 0
M  V30 621 H 65.4882 -0.950786 -3.8627 0
M  V30 622 H 62.2272 -3.38335 -5.61435 0
M  V30 623 H 61.7472 -1.67687 -5.75883 0
M  V30 624 H 63.4262 -2.16588 -6.09671 0
M  V30 625 N 63.5583 1.46682 -0.576371 0
M  V30 626 C 64.9693 1.86112 -0.148091 0
M  V30 627 C 65.3203 1.48073 1.2872 0
M  V30 628 O 64.4453 0.892656 1.97131 0
M  V30 629 C 65.0403 3.37786 -0.261982 0
M  V30 630 C 63.5993 3.76235 0.111384 0
M  V30 631 C 62.7463 2.70713 -0.60083 0
M  V30 632 H 65.6973 1.37927 -0.78497 0
M  V30 633 H 65.7183 3.77007 0.514364 0
M  V30 634 H 65.2303 3.6544 -1.30671 0
M  V30 635 H 63.3313 3.54198 1.15649 0
M  V30 636 H 63.4443 4.78391 -0.26052 0
M  V30 637 H 61.8083 2.54666 -0.0417783 0
M  V30 638 H 62.5913 3.01208 -1.64708 0
M  V30 639 N 65.0364 0.313813 1.54444 0
M  V30 640 C 66.2824 -0.292108 2.00685 0
M  V30 641 C 66.6154 -1.52548 1.20177 0
M  V30 642 O 65.8904 -1.92452 0.281531 0
M  V30 643 C 66.1734 -0.635968 3.5444 0
M  V30 644 C 66.0264 0.607437 4.4568 0
M  V30 645 C 67.3454 -1.45747 4.15266 0
M  V30 646 H 64.4644 -0.104697 0.729526 0
M  V30 647 H 67.1064 0.428457 1.85106 0
M  V30 648 H 65.2564 -1.24986 3.67846 0
M  V30 649 H 66.9284 1.24581 4.44159 0
M  V30 650 H 65.1714 1.23822 4.15753 0
M  V30 651 H 65.8424 0.322515 5.51057 0
M  V30 652 H 68.3184 -0.938645 4.05375 0
M  V30 653 H 67.1944 -1.66683 5.2298 0
M  V30 654 H 67.4554 -2.45063 3.67963 0
M  V30 655 N 66.5145 -1.57545 0.0417849 0
M  V30 656 C 67.7395 -1.97035 -0.647455 0
M  V30 657 C 68.1645 -0.918775 -1.64135 0
M  V30 658 O 67.5225 0.119006 -1.80909 0
M  V30 659 C 67.5705 -3.35609 -1.31905 0
M  V30 660 O 66.6745 -3.3287 -2.43457 0
M  V30 661 H 66.0155 -0.64211 -0.169086 0
M  V30 662 H 68.5455 -2.04318 0.107399 0
M  V30 663 H 68.5555 -3.72126 -1.67291 0
M  V30 664 H 67.2305 -4.11685 -0.590586 0
M  V30 665 H 65.8075 -3.08087 -2.10088 0
M  V30 666 N 67.9926 0.231505 -1.5589 0
M  V30 667 C 68.9026 1.308 -1.94752 0
M  V30 668 C 69.9186 1.51826 -0.849989 0
M  V30 669 O 71.0946 1.6515 -1.15271 0
M  V30 670 C 68.1596 2.63968 -2.24771 0
M  V30 671 C 67.2206 2.51331 -3.48039 0
M  V30 672 C 66.4536 3.78148 -3.76616 0
M  V30 673 O 66.6766 4.80722 -3.07022 0
M  V30 674 O 65.6106 3.75857 -4.70123 0
M  V30 675 H 69.4366 1.0083 -2.86474 0
M  V30 676 H 67.0216 0.433547 -1.42971 0
M  V30 677 H 68.9036 3.42633 -2.45318 0
M  V30 678 H 67.5786 2.9364 -1.36225 0
M  V30 679 H 66.4856 1.709 -3.32782 0
M  V30 680 H 67.8186 2.26601 -4.36936 0
M  V30 681 N 69.4707 1.49531 0.497807 0
M  V30 682 C 70.4337 1.65916 1.58128 0
M  V30 683 C 71.4337 0.530825 1.51786 0
M  V30 684 O 72.6237 0.797342 1.54881 0
M  V30 685 C 69.7557 1.65951 2.9778 0
M  V30 686 H 70.9487 2.62556 1.44929 0
M  V30 687 H 68.5017 1.38611 0.722275 0
M  V30 688 H 69.2367 0.709065 3.16453 0
M  V30 689 H 69.0217 2.47897 3.03792 0
M  V30 690 H 70.5117 1.80673 3.76493 0
M  V30 691 N 70.9488 -0.749086 1.3866 0
M  V30 692 C 72.1968 -1.50535 1.34847 0
M  V30 693 C 72.5178 -1.94909 -0.0595016 0
M  V30 694 O 71.7878 -1.67973 -1.00806 0
M  V30 695 H 70.3678 -0.558395 0.49619 0
M  V30 696 H 73.0298 -0.890165 1.73384 0
M  V30 697 H 72.1258 -2.39413 2.00219 0
M  V30 698 N 72.4269 -1.23603 -0.977757 0
M  V30 699 C 73.6739 -1.06971 -1.71941 0
M  V30 700 C 74.0019 0.393009 -1.90488 0
M  V30 701 O 73.2569 1.30719 -1.4564 0
M  V30 702 C 73.5559 -1.7433 -3.11999 0
M  V30 703 C 73.2219 -3.24252 -3.13323 0
M  V30 704 C 71.8839 -3.65156 -3.13392 0
M  V30 705 C 74.2359 -4.20141 -3.08433 0
M  V30 706 C 71.5639 -5.00403 -3.0629 0
M  V30 707 C 73.9159 -5.55384 -3.02873 0
M  V30 708 C 72.5799 -5.95647 -3.01265 0
M  V30 709 H 71.8499 -0.391433 -0.629175 0
M  V30 710 H 74.4969 -1.53572 -1.14403 0
M  V30 711 H 72.8019 -1.20096 -3.7294 0
M  V30 712 H 74.4989 -1.58936 -3.68158 0
M  V30 713 H 71.0889 -2.91692 -3.14029 0
M  V30 714 H 75.2729 -3.89547 -3.07517 0
M  V30 715 H 70.5289 -5.3081 -3.03399 0
M  V30 716 H 74.7029 -6.29398 -2.98046 0
M  V30 717 H 72.3299 -7.0041 -2.95516 0
M  V30 718 N 73.905 1.17692 -1.04816 0
M  V30 719 C 75.133 1.91786 -0.776254 0
M  V30 720 C 75.548 1.76604 0.667577 0
M  V30 721 O 74.905 1.10067 1.45573 0
M  V30 722 C 74.956 3.42967 -1.14263 0
M  V30 723 O 74.677 3.57678 -2.52978 0
M  V30 724 C 76.178 4.34144 -0.896311 0
M  V30 725 H 73.398 0.608624 -0.282519 0
M  V30 726 H 75.942 1.49268 -1.39783 0
M  V30 727 H 74.097 3.83245 -0.565874 0
M  V30 728 H 74.511 4.51319 -2.67229 0
M  V30 729 H 75.985 5.38744 -1.20244 0
M  V30 730 H 76.462 4.38876 0.168636 0
M  V30 731 H 77.068 3.99574 -1.45672 0
M  V30 732 N 75.3831 0.828654 1.34056 0
M  V30 733 C 76.3131 0.269443 2.3194 0
M  V30 734 C 77.2941 -0.617247 1.58506 0
M  V30 735 O 78.4791 -0.542931 1.86456 0
M  V30 736 C 75.6091 -0.564793 3.42677 0
M  V30 737 C 74.5631 0.225241 4.27407 0
M  V30 738 C 73.8891 -0.7321 5.29664 0
M  V30 739 C 75.1891 1.43663 5.02154 0
M  V30 740 H 76.8831 1.08728 2.7896 0
M  V30 741 H 74.4291 0.524283 1.34117 0
M  V30 742 H 76.3821 -0.966233 4.10173 0
M  V30 743 H 75.1061 -1.41574 2.9432 0
M  V30 744 H 73.7651 0.608117 3.61521 0
M  V30 745 H 73.4131 -1.57916 4.77568 0
M  V30 746 H 73.1131 -0.20767 5.87233 0
M  V30 747 H 74.6371 -1.13128 6.00029 0
M  V30 748 H 76.0511 1.1089 5.62473 0
M  V30 749 H 74.4481 1.89711 5.69324 0
M  V30 750 H 75.5181 2.21181 4.31517 0
M  V30 751 N 76.8612 -1.46375 0.584142 0
M  V30 752 C 78.0892 -2.06761 0.0759296 0
M  V30 753 C 78.5042 -1.43266 -1.22965 0
M  V30 754 O 77.8612 -0.538458 -1.74376 0
M  V30 755 C 77.9122 -3.61375 -0.0950384 0
M  V30 756 O 77.6332 -4.22495 1.15887 0
M  V30 757 C 79.1342 -4.38693 -0.637434 0
M  V30 758 H 76.3542 -0.668479 0.0581075 0
M  V30 759 H 78.8982 -1.8798 0.805218 0
M  V30 760 H 77.0532 -3.79578 -0.774554 0
M  V30 761 H 77.4672 -5.15385 0.973598 0
M  V30 762 H 78.9412 -5.47464 -0.706237 0
M  V30 763 H 79.4182 -4.06836 -1.65472 0
M  V30 764 H 80.0242 -4.25299 0.00725967 0
M  V30 765 N 78.3393 -0.321999 -1.54275 0
M  V30 766 C 79.2893 0.560185 -2.21011 0
M  V30 767 C 80.2733 1.08283 -1.19011 0
M  V30 768 O 81.4653 1.02011 -1.44647 0
M  V30 769 C 78.5943 1.72137 -2.97025 0
M  V30 770 C 77.6803 1.21369 -4.06363 0
M  V30 771 N 78.0713 0.425566 -5.04007 0
M  V30 772 C 76.3693 1.49255 -4.20284 0
M  V30 773 C 77.0703 0.152601 -5.815 0
M  V30 774 N 76.0463 0.738294 -5.38563 0
M  V30 775 H 79.8483 -0.049265 -2.93859 0
M  V30 776 H 77.3623 -0.127779 -1.61897 0
M  V30 777 H 79.3593 2.36512 -3.43319 0
M  V30 778 H 78.0193 2.33431 -2.25699 0
M  V30 779 H 79.0303 0.068551 -5.17855 0
M  V30 780 H 75.7073 2.11145 -3.60172 0
M  V30 781 H 77.0973 -0.481764 -6.70171 0
M  V30 782 N 79.8174 1.5752 -0.0501392 0
M  V30 783 C 80.7274 2.14952 0.939827 0
M  V30 784 C 81.7434 1.10706 1.34239 0
M  V30 785 O 82.9194 1.42869 1.41952 0
M  V30 786 C 79.9844 2.68232 2.19665 0
M  V30 787 C 79.0454 3.87272 1.85253 0
M  V30 788 C 78.2784 4.38002 3.04943 0
M  V30 789 O 78.5014 3.87811 4.18281 0
M  V30 790 O 77.4354 5.29602 2.86017 0
M  V30 791 H 81.2614 2.9986 0.481392 0
M  V30 792 H 78.8464 1.4841 0.171699 0
M  V30 793 H 80.7284 3.02475 2.93406 0
M  V30 794 H 79.4034 1.86395 2.64648 0
M  V30 795 H 78.3104 3.5792 1.0883 0
M  V30 796 H 79.6434 4.70336 1.4507 0
M  V30 797 N 81.2955 -0.223234 1.56011 0
M  V30 798 C 82.2455 -1.28008 1.88674 0
M  V30 799 C 83.2295 -1.42369 0.749663 0
M  V30 800 O 84.4215 -1.45212 1.01205 0
M  V30 801 C 81.5505 -2.63084 2.20548 0
M  V30 802 C 80.6365 -2.52632 3.40643 0
M  V30 803 N 81.0275 -2.11829 4.59306 0
M  V30 804 C 79.3255 -2.83594 3.44224 0
M  V30 805 C 80.0265 -2.12587 5.41463 0
M  V30 806 N 79.0025 -2.5301 4.81131 0
M  V30 807 H 82.8045 -0.955487 2.77935 0
M  V30 808 H 80.3185 -0.431801 1.56554 0
M  V30 809 H 82.3155 -3.39385 2.42122 0
M  V30 810 H 80.9755 -2.96391 1.32599 0
M  V30 811 H 81.9865 -1.82988 4.84496 0
M  V30 812 H 78.6635 -3.21284 2.66614 0
M  V30 813 H 80.0535 -1.83179 6.46448 0
M  V30 814 N 82.7736 -1.49793 -0.48987 0
M  V30 815 C 84.0226 -1.59085 -1.23995 0
M  V30 816 C 84.3356 -0.287907 -1.9347 0
M  V30 817 O 85.5416 -0.259506 -2.70257 0
M  V30 818 C 83.9976 -2.80736 -2.252 0
M  V30 819 C 83.6056 -4.17833 -1.61614 0
M  V30 820 C 85.3496 -2.99364 -3.00967 0
M  V30 821 C 83.2566 -5.30693 -2.60996 0
M  V30 822 H 82.1866 -0.592372 -0.466488 0
M  V30 823 H 84.8376 -1.76197 -0.51252 0
M  V30 824 H 83.2196 -2.57142 -3.01154 0
M  V30 825 H 84.3936 -4.51608 -0.915774 0
M  V30 826 H 82.7086 -4.04656 -0.981977 0
M  V30 827 H 85.3056 -3.80851 -3.75308 0
M  V30 828 H 85.6486 -2.10356 -3.59244 0
M  V30 829 H 86.1816 -3.2305 -2.32128 0
M  V30 830 H 82.9206 -6.21796 -2.07485 0
M  V30 831 H 82.4406 -5.01359 -3.2924 0
M  V30 832 H 84.1196 -5.6049 -3.23202 0
M  V30 833 N 84.2517 0.741722 -1.39055 0
M  V30 834 C 85.4917 1.51385 -1.37338 0
M  V30 835 C 85.8557 1.91972 0.0330513 0
M  V30 836 O 87.0567 2.68229 0.175174 0
M  V30 837 C 85.3277 2.72481 -2.31276 0
M  V30 838 S 86.8867 3.62211 -2.47687 0
M  V30 839 H 83.7047 0.517906 -0.487129 0
M  V30 840 H 86.3067 0.86969 -1.7509 0
M  V30 841 H 85.0107 2.40793 -3.32336 0
M  V30 842 H 84.5417 3.41832 -1.94716 0
M  V30 843 H 86.5567 4.65812 -1.70978 0
M  V30 844 N 85.7298 1.2412 0.971189 0
M  V30 845 C 86.9778 1.07668 1.71032 0
M  V30 846 C 87.2988 -0.385797 1.91146 0
M  V30 847 O 86.5688 -1.27569 1.4867 0
M  V30 848 H 85.1488 0.395429 0.633755 0
M  V30 849 H 87.8108 1.55984 1.16855 0
M  V30 850 H 86.9068 1.57195 2.69622 0
M  V30 851 N 87.2079 -1.17134 1.05439 0
M  V30 852 C 88.4329 -1.91913 0.786396 0
M  V30 853 C 88.8579 -1.7643 -0.652234 0
M  V30 854 O 88.2159 -1.08372 -1.45345 0
M  V30 855 C 88.2639 -3.40921 1.17497 0
M  V30 856 O 87.3679 -4.11244 0.308589 0
M  V30 857 H 86.7089 -0.598215 0.288158 0
M  V30 858 H 89.2389 -1.48457 1.4079 0
M  V30 859 H 89.2489 -3.91668 1.14281 0
M  V30 860 H 87.9239 -3.5151 2.22292 0
M  V30 861 H 86.5009 -3.70731 0.40157 0
M  V30 862 N 88.686 -0.835752 -1.33615 0
M  V30 863 C 89.911 -0.442389 -2.02627 0
M  V30 864 C 90.336 0.947735 -1.62479 0
M  V30 865 O 89.694 1.61907 -0.815826 0
M  V30 866 C 89.742 -0.567216 -3.56111 0
M  V30 867 O 88.846 0.407799 -4.10379 0
M  V30 868 H 88.187 -0.180278 -0.639059 0
M  V30 869 H 90.717 -1.12972 -1.70583 0
M  V30 870 H 90.727 -0.447708 -4.05536 0
M  V30 871 H 89.402 -1.58103 -3.84677 0
M  V30 872 H 87.979 0.246107 -3.72087 0
M  V30 873 N 90.1641 1.46063 -0.591896 0
M  V30 874 C 91.1271 2.28854 0.125973 0
M  V30 875 C 92.1271 1.38903 0.810107 0
M  V30 876 O 93.3171 1.61186 0.66066 0
M  V30 877 C 90.4491 3.19526 1.1881 0
M  V30 878 H 91.6421 2.93802 -0.601717 0
M  V30 879 H 89.1951 1.52325 -0.350254 0
M  V30 880 H 89.9301 2.59345 1.94707 0
M  V30 881 H 89.7151 3.85766 0.701936 0
M  V30 882 H 91.2051 3.81817 1.69132 0
M  V30 883 N 91.6422 0.330177 1.54103 0
M  V30 884 C 92.8902 -0.269871 2.0029 0
M  V30 885 C 93.2112 -1.52133 1.21986 0
M  V30 886 O 92.4812 -1.93212 0.323438 0
M  V30 887 H 91.0612 -0.10271 0.739905 0
M  V30 888 H 93.7232 0.448249 1.89675 0
M  V30 889 H 92.8192 -0.52166 3.07709 0
M  V30 890 N 93.1203 -1.57491 0.0584922 0
M  V30 891 C 94.3673 -1.92978 -0.613648 0
M  V30 892 C 94.6953 -0.937461 -1.70417 0
M  V30 893 O 93.9503 0.049078 -1.95638 0
M  V30 894 C 94.2493 -3.3513 -1.24188 0
M  V30 895 C 93.9153 -4.50037 -0.278826 0
M  V30 896 C 92.5773 -4.81198 -0.0138447 0
M  V30 897 C 94.9293 -5.19807 0.380777 0
M  V30 898 C 92.2573 -5.79473 0.918052 0
M  V30 899 C 94.6093 -6.19079 1.30091 0
M  V30 900 C 93.2733 -6.48665 1.57449 0
M  V30 901 H 92.5433 -0.706157 -0.22455 0
M  V30 902 H 95.1903 -1.91082 0.126533 0
M  V30 903 H 93.4953 -3.33429 -2.05749 0
M  V30 904 H 95.1923 -3.59871 -1.769 0
M  V30 905 H 91.7823 -4.25726 -0.495539 0
M  V30 906 H 95.9663 -4.95939 0.189158 0
M  V30 907 H 91.2223 -6.00727 1.1374 0
M  V30 908 H 95.3963 -6.7225 1.81804 0
M  V30 909 H 93.0233 -7.24628 2.29822 0
M  V30 910 N 94.5984 0.214957 -1.56127 0
M  V30 911 C 95.5284 1.2695 -1.95974 0
M  V30 912 C 96.5094 1.48539 -0.828868 0
M  V30 913 O 97.6944 1.60611 -1.09168 0
M  V30 914 C 94.8244 2.61794 -2.28214 0
M  V30 915 C 93.7784 2.54851 -3.43853 0
M  V30 916 C 93.1044 3.93785 -3.61715 0
M  V30 917 C 94.4044 2.09065 -4.78632 0
M  V30 918 H 96.0984 0.93846 -2.84312 0
M  V30 919 H 93.6444 0.449996 -1.36788 0
M  V30 920 H 95.5974 3.35731 -2.54682 0
M  V30 921 H 94.3214 2.96599 -1.36736 0
M  V30 922 H 92.9804 1.8337 -3.17444 0
M  V30 923 H 92.6284 4.25908 -2.67602 0
M  V30 924 H 92.3284 3.90019 -4.39498 0
M  V30 925 H 93.8524 4.69374 -3.90539 0
M  V30 926 H 95.2664 2.7275 -5.04262 0
M  V30 927 H 93.6634 2.16346 -5.59745 0
M  V30 928 H 94.7334 1.04315 -4.73547 0
M  V30 929 N 96.0765 1.50051 0.48192 0
M  V30 930 C 97.4925 1.37237 0.814756 0
M  V30 931 C 97.6925 0.420109 1.97072 0
M  V30 932 O 96.7485 -0.141246 2.52105 0
M  V30 933 C 98.0615 2.78375 1.13701 0
M  V30 934 C 99.6095 2.87213 1.2441 0
M  V30 935 C 100.084 4.29161 1.59954 0
M  V30 936 N 101.575 4.32061 1.66967 0
M  V30 937 C 102.31 5.38879 1.95952 0
M  V30 938 N 101.806 6.55918 2.23031 0
M  V30 939 N 103.599 5.26312 1.97363 0
M  V30 940 H 95.7505 2.10546 -0.28005 0
M  V30 941 H 98.0135 0.945921 -0.0627454 0
M  V30 942 H 97.7195 3.49845 0.360787 0
M  V30 943 H 97.5935 3.14941 2.07586 0
M  V30 944 H 99.9805 2.15969 2.01101 0
M  V30 945 H 100.061 2.54204 0.285299 0
M  V30 946 H 99.7055 5.00938 0.838067 0
M  V30 947 H 99.6355 4.59648 2.56966 0
M  V30 948 H 102.126 3.47661 1.48123 0
M  V30 949 H 102.439 7.33139 2.44391 0
M  V30 950 H 100.784 6.59112 2.20447 0
M  V30 951 H 103.975 4.33876 1.75697 0
M  V30 952 H 104.148 6.09649 2.19618 0
M  V30 953 N 97.5546 -0.734337 1.39446 0
M  V30 954 C 98.5176 -1.83004 1.37994 0
M  V30 955 C 99.5176 -1.58397 0.276938 0
M  V30 956 O 100.708 -1.65785 0.534875 0
M  V30 957 C 97.8396 -3.20802 1.1532 0
M  V30 958 H 99.0326 -1.85694 2.35494 0
M  V30 959 H 96.5856 -0.938059 1.25021 0
M  V30 960 H 97.3206 -3.23772 0.185036 0
M  V30 961 H 97.1056 -3.4006 1.95197 0
M  V30 962 H 98.5956 -4.00862 1.17046 0
M  V30 963 N 99.0327 -1.24633 -0.964593 0
M  V30 964 C 100.279 -1.09957 -1.71117 0
M  V30 965 C 100.634 0.357422 -1.89051 0
M  V30 966 O 99.9267 1.26029 -1.44317 0
M  V30 967 C 100.121 -1.7763 -3.10133 0
M  V30 968 C 99.9497 -3.29759 -3.05759 0
M  V30 969 C 98.7197 -3.98981 -3.10068 0
M  V30 970 C 100.918 -4.26305 -2.87695 0
M  V30 971 N 98.8997 -5.37966 -2.95747 0
M  V30 972 C 100.271 -5.52308 -2.81702 0
M  V30 973 C 102.326 -4.16842 -2.72299 0
M  V30 974 C 101.029 -6.69931 -2.61887 0
M  V30 975 C 103.055 -5.34147 -2.53853 0
M  V30 976 C 102.417 -6.59084 -2.48572 0
M  V30 977 H 98.5157 -0.457003 -0.634564 0
M  V30 978 H 101.1 -1.57592 -1.14337 0
M  V30 979 H 99.2707 -1.32504 -3.65099 0
M  V30 980 H 101.003 -1.55786 -3.73514 0
M  V30 981 H 97.7577 -3.50169 -3.18871 0
M  V30 982 H 98.1817 -6.10877 -2.91818 0
M  V30 983 H 102.824 -3.21007 -2.75163 0
M  V30 984 H 100.542 -7.65886 -2.57767 0
M  V30 985 H 104.128 -5.28678 -2.4288 0
M  V30 986 H 103.008 -7.48324 -2.34481 0
M  V30 987 N 100.511 1.16574 -1.06058 0
M  V30 988 C 101.922 1.68662 -0.800632 0
M  V30 989 C 102.273 1.84184 0.67608 0
M  V30 990 O 101.398 1.53568 1.52466 0
M  V30 991 C 101.993 3.06356 -1.44676 0
M  V30 992 C 100.552 3.55575 -1.23465 0
M  V30 993 C 99.6988 2.31616 -1.52477 0
M  V30 994 H 102.65 1.00969 -1.22438 0
M  V30 995 H 102.671 3.70636 -0.860788 0
M  V30 996 H 102.183 2.95027 -2.52152 0
M  V30 997 H 100.284 3.72167 -0.179527 0
M  V30 998 H 100.397 4.37812 -1.94571 0
M  V30 999 H 98.7608 2.36512 -0.945209 0
M  V30 1000 H 99.5438 2.22887 -2.61106 0
M  V30 1001 N 101.989 0.842826 1.3317 0
M  V30 1002 C 102.899 0.281444 2.32906 0
M  V30 1003 C 103.915 -0.594587 1.63526 0
M  V30 1004 O 105.091 -0.49777 1.95152 0
M  V30 1005 C 102.156 -0.530929 3.42611 0
M  V30 1006 C 101.217 0.369843 4.27704 0
M  V30 1007 C 100.45 -0.403853 5.3217 0
M  V30 1008 O 100.673 -1.63513 5.46461 0
M  V30 1009 O 99.6069 0.224199 6.01482 0
M  V30 1010 H 103.433 1.10744 2.82789 0
M  V30 1011 H 101.018 0.60545 1.36582 0
M  V30 1012 H 102.9 -0.992437 4.09547 0
M  V30 1013 H 101.575 -1.33392 2.94938 0
M  V30 1014 H 100.482 0.879275 3.6362 0
M  V30 1015 H 101.815 1.13771 4.78871 0
M  V30 1016 N 103.467 -1.45747 0.599634 0
M  V30 1017 C 104.714 -2.02292 0.0917284 0
M  V30 1018 C 105.042 -1.46906 -1.27472 0
M  V30 1019 O 104.297 -0.630652 -1.8526 0
M  V30 1020 C 104.596 -3.57399 -0.00602758 0
M  V30 1021 C 104.262 -4.31902 1.29503 0
M  V30 1022 C 102.924 -4.51974 1.65144 0
M  V30 1023 C 105.276 -4.74551 2.15525 0
M  V30 1024 C 102.604 -5.11949 2.86574 0
M  V30 1025 C 104.956 -5.35868 3.36196 0
M  V30 1026 C 103.62 -5.54165 3.72099 0
M  V30 1027 H 102.89 -0.740239 0.0335658 0
M  V30 1028 H 105.537 -1.7491 0.779661 0
M  V30 1029 H 103.842 -3.84014 -0.777183 0
M  V30 1030 H 105.539 -3.98846 -0.415038 0
M  V30 1031 H 102.129 -4.16588 1.00761 0
M  V30 1032 H 106.313 -4.58784 1.8929 0
M  V30 1033 H 101.569 -5.24305 3.14507 0
M  V30 1034 H 105.743 -5.6787 4.03109 0
M  V30 1035 H 103.37 -6.00406 4.6628 0
M  V30 1036 N 104.945 -0.338344 -1.53925 0
M  V30 1037 C 106.192 0.259758 -2.00827 0
M  V30 1038 C 106.52 1.50973 -1.22628 0
M  V30 1039 O 105.775 1.93379 -0.300509 0
M  V30 1040 C 106.074 0.62448 -3.51902 0
M  V30 1041 C 105.74 -0.528006 -4.47798 0
M  V30 1042 C 104.402 -0.844298 -4.73735 0
M  V30 1043 C 106.754 -1.30143 -5.0469 0
M  V30 1044 C 104.082 -1.93648 -5.53821 0
M  V30 1045 C 106.434 -2.38382 -5.85967 0
M  V30 1046 C 105.098 -2.70576 -6.10201 0
M  V30 1047 H 104.368 0.0950523 -0.734878 0
M  V30 1048 H 107.015 -0.465182 -1.85764 0
M  V30 1049 H 105.32 1.43006 -3.64769 0
M  V30 1050 H 107.017 1.09905 -3.85645 0
M  V30 1051 H 103.607 -0.271421 -4.2774 0
M  V30 1052 H 107.791 -1.07033 -4.84621 0
M  V30 1053 H 103.047 -2.19021 -5.70824 0
M  V30 1054 H 107.221 -2.98746 -6.29066 0
M  V30 1055 H 104.848 -3.55333 -6.72044 0
M  V30 1056 N 106.423 1.57458 -0.0668435 0
M  V30 1057 C 107.671 1.92919 0.602214 0
M  V30 1058 C 107.992 0.947215 1.70449 0
M  V30 1059 O 107.262 -0.00544117 1.95899 0
M  V30 1060 H 105.842 0.71217 0.22544 0
M  V30 1061 H 108.504 1.94508 -0.123535 0
M  V30 1062 H 107.6 2.94589 1.03073 0
M  V30 1063 N 107.901 -0.206675 1.56239 0
M  V30 1064 C 109.126 -0.949474 1.8439 0
M  V30 1065 C 109.551 -1.76549 0.649016 0
M  V30 1066 O 108.909 -1.76782 -0.402231 0
M  V30 1067 C 108.957 -1.83078 3.10668 0
M  V30 1068 O 108.061 -2.9281 2.90407 0
M  V30 1069 H 107.402 -0.268033 0.607499 0
M  V30 1070 H 109.932 -0.215488 2.03462 0
M  V30 1071 H 109.942 -2.2377 3.41161 0
M  V30 1072 H 108.617 -1.23112 3.97261 0
M  V30 1073 H 107.194 -2.55956 2.71184 0
M  V30 1074 N 109.379 -1.50304 -0.473955 0
M  V30 1075 C 110.795 -1.37667 -0.807466 0
M  V30 1076 C 110.995 -0.430555 -1.96846 0
M  V30 1077 O 110.051 0.127874 -2.52176 0
M  V30 1078 C 111.364 -2.78974 -1.12223 0
M  V30 1079 C 112.912 -2.87868 -1.22885 0
M  V30 1080 C 113.387 -4.30003 -1.57676 0
M  V30 1081 N 114.878 -4.3294 -1.64673 0
M  V30 1082 C 115.613 -5.3991 -1.93091 0
M  V30 1083 N 115.109 -6.57092 -2.1955 0
M  V30 1084 N 116.902 -5.27351 -1.94569 0
M  V30 1085 H 109.053 -2.10394 0.291212 0
M  V30 1086 H 111.316 -0.945575 0.0677609 0
M  V30 1087 H 111.022 -3.50031 -0.342229 0
M  V30 1088 H 110.896 -3.16038 -2.05913 0
M  V30 1089 H 113.283 -2.17032 -1.99953 0
M  V30 1090 H 113.364 -2.54352 -0.271814 0
M  V30 1091 H 113.008 -5.01375 -0.81149 0
M  V30 1092 H 112.938 -4.61004 -2.54525 0
M  V30 1093 H 115.429 -3.48441 -1.46277 0
M  V30 1094 H 115.742 -7.34425 -2.405 0
M  V30 1095 H 114.087 -6.60272 -2.16948 0
M  V30 1096 H 117.278 -4.34801 -1.73394 0
M  V30 1097 H 117.451 -6.10805 -2.16381 0
M  V30 1098 N 110.857 0.726932 -1.39834 0
M  V30 1099 C 111.804 1.841 -1.39197 0
M  V30 1100 C 112.774 1.642 -0.250502 0
M  V30 1101 O 113.959 1.85494 -0.446846 0
M  V30 1102 C 111.099 3.21697 -1.24919 0
M  V30 1103 C 110.212 3.53247 -2.48678 0
M  V30 1104 C 109.347 4.80289 -2.26928 0
M  V30 1105 C 108.386 5.04707 -3.4632 0
M  V30 1106 N 107.523 6.22956 -3.23836 0
M  V30 1107 H 112.363 1.83979 -2.34427 0
M  V30 1108 H 109.9 0.898876 -1.16442 0
M  V30 1109 H 111.858 4.01137 -1.1465 0
M  V30 1110 H 110.488 3.21076 -0.333153 0
M  V30 1111 H 109.54 2.68447 -2.69519 0
M  V30 1112 H 110.852 3.67205 -3.37582 0
M  V30 1113 H 110.006 5.67725 -2.13947 0
M  V30 1114 H 108.745 4.68519 -1.35431 0
M  V30 1115 H 107.75 4.1573 -3.5979 0
M  V30 1116 H 108.975 5.18357 -4.38729 0
M  V30 1117 H 106.921 6.12459 -2.35011 0
M  V30 1118 H 106.838 6.37539 -4.063 0
M  V30 1119 H 108.106 7.1321 -3.14566 0
M  V30 1120 N 112.336 1.25143 0.95797 0
M  V30 1121 C 113.299 1.05321 2.03569 0
M  V30 1122 C 114.299 0.007152 1.60798 0
M  V30 1123 O 115.489 0.24903 1.72411 0
M  V30 1124 C 112.621 0.598394 3.35607 0
M  V30 1125 H 113.814 2.00986 2.22586 0
M  V30 1126 H 111.367 1.07502 1.13459 0
M  V30 1127 H 112.102 -0.361014 3.22284 0
M  V30 1128 H 111.887 1.35351 3.67998 0
M  V30 1129 H 113.377 0.48104 4.1482 0
M  V30 1130 N 113.814 -1.1601 1.06675 0
M  V30 1131 C 114.744 -2.22688 0.702307 0
M  V30 1132 C 115.725 -1.67306 -0.307032 0
M  V30 1133 O 116.91 -1.93352 -0.181305 0
M  V30 1134 C 114.04 -3.47178 0.092038 0
M  V30 1135 C 112.994 -4.15477 1.02777 0
M  V30 1136 C 112.32 -5.33963 0.28061 0
M  V30 1137 C 113.62 -4.66019 2.35846 0
M  V30 1138 H 115.314 -2.53429 1.59419 0
M  V30 1139 H 112.86 -1.21813 0.767961 0
M  V30 1140 H 114.813 -4.21037 -0.174814 0
M  V30 1141 H 113.537 -3.15749 -0.834877 0
M  V30 1142 H 112.196 -3.43549 1.27944 0
M  V30 1143 H 111.844 -4.98788 -0.649545 0
M  V30 1144 H 111.544 -5.806 0.904258 0
M  V30 1145 H 113.068 -6.10596 0.021396 0
M  V30 1146 H 114.482 -5.3144 2.15045 0
M  V30 1147 H 112.879 -5.23293 2.93743 0
M  V30 1148 H 113.949 -3.82023 2.98641 0
M  V30 1149 N 115.292 -0.849877 -1.32721 0
M  V30 1150 C 116.255 -0.296122 -2.27279 0
M  V30 1151 C 117.255 0.541458 -1.5141 0
M  V30 1152 O 118.445 0.353658 -1.70572 0
M  V30 1153 C 115.577 0.581579 -3.35902 0
M  V30 1154 H 116.77 -1.13064 -2.77771 0
M  V30 1155 H 114.323 -0.62383 -1.43311 0
M  V30 1156 H 115.058 1.43809 -2.9067 0
M  V30 1157 H 114.843 -0.0178814 -3.92096 0
M  V30 1158 H 116.333 0.961951 -4.0637 0
M  V30 1159 N 116.77 1.45427 -0.607355 0
M  V30 1160 C 117.68 2.34325 0.113463 0
M  V30 1161 C 118.696 1.51226 0.860617 0
M  V30 1162 O 119.872 1.84029 0.818255 0
M  V30 1163 C 116.937 3.28839 1.09844 0
M  V30 1164 C 115.998 4.27844 0.353271 0
M  V30 1165 C 115.231 5.17842 1.29133 0
M  V30 1166 O 115.454 5.11264 2.52913 0
M  V30 1167 O 114.388 5.96713 0.788523 0
M  V30 1168 H 118.214 2.97364 -0.617094 0
M  V30 1169 H 115.799 1.44807 -0.367619 0
M  V30 1170 H 117.681 3.8708 1.66575 0
M  V30 1171 H 116.356 2.68365 1.81003 0
M  V30 1172 H 115.263 3.7322 -0.256494 0
M  V30 1173 H 116.596 4.91173 -0.317822 0
M  V30 1174 N 118.248 0.346503 1.53744 0
M  V30 1175 C 119.195 -0.508914 2.25119 0
M  V30 1176 C 120.165 -1.09315 1.25058 0
M  V30 1177 O 121.35 -1.12921 1.53797 0
M  V30 1178 C 118.49 -1.65246 3.02965 0
M  V30 1179 C 117.603 -1.09525 4.17886 0
M  V30 1180 C 116.738 -2.20634 4.83212 0
M  V30 1181 C 115.777 -1.62279 5.90196 0
M  V30 1182 N 114.914 -2.67143 6.49291 0
M  V30 1183 H 119.754 0.106283 2.9781 0
M  V30 1184 H 117.291 0.0642227 1.4696 0
M  V30 1185 H 119.249 -2.32574 3.4636 0
M  V30 1186 H 117.879 -2.2386 2.32565 0
M  V30 1187 H 116.931 -0.312818 3.79112 0
M  V30 1188 H 118.243 -0.628444 4.94825 0
M  V30 1189 H 117.397 -2.95821 5.29693 0
M  V30 1190 H 116.136 -2.70659 4.05703 0
M  V30 1191 H 115.141 -0.855989 5.43096 0
M  V30 1192 H 116.366 -1.13102 6.69615 0
M  V30 1193 H 114.312 -3.16417 5.74645 0
M  V30 1194 H 114.229 -2.25093 7.21713 0
M  V30 1195 H 115.497 -3.4209 7.00425 0
M  V30 1196 N 119.726 -1.57421 0.075193 0
M  V30 1197 C 120.689 -2.11791 -0.876203 0
M  V30 1198 C 121.689 -1.04268 -1.22412 0
M  V30 1199 O 122.879 -1.30242 -1.15684 0
M  V30 1200 C 120.011 -2.62207 -2.17854 0
M  V30 1201 H 121.204 -2.9716 -0.40444 0
M  V30 1202 H 118.757 -1.55333 -0.173557 0
M  V30 1203 H 119.492 -1.803 -2.6956 0
M  V30 1204 H 119.277 -3.40802 -1.93897 0
M  V30 1205 H 120.767 -3.04335 -2.85955 0
M  V30 1206 N 121.204 0.198386 -1.56346 0
M  V30 1207 C 122.45 0.920648 -1.80698 0
M  V30 1208 C 122.783 1.83045 -0.648697 0
M  V30 1209 O 122.058 1.91308 0.350925 0
M  V30 1210 C 122.341 1.73971 -3.15287 0
M  V30 1211 C 122.194 0.85485 -4.41602 0
M  V30 1212 C 123.513 2.71296 -3.46535 0
M  V30 1213 H 120.632 0.333261 -0.657348 0
M  V30 1214 H 123.274 0.188198 -1.89066 0
M  V30 1215 H 121.424 2.36416 -3.08285 0
M  V30 1216 H 123.096 0.245362 -4.60647 0
M  V30 1217 H 121.339 0.161398 -4.335 0
M  V30 1218 H 122.01 1.46286 -5.32264 0
M  V30 1219 H 124.486 2.18983 -3.53816 0
M  V30 1220 H 123.362 3.2569 -4.41834 0
M  V30 1221 H 123.623 3.5018 -2.69864 0
M  V30 1222 N 122.682 1.50554 0.465978 0
M  V30 1223 C 124.098 1.38093 0.800154 0
M  V30 1224 C 124.298 0.440988 1.96615 0
M  V30 1225 O 123.354 -0.114499 2.5224 0
M  V30 1226 C 124.667 2.79565 1.10742 0
M  V30 1227 C 126.215 2.88516 1.21357 0
M  V30 1228 C 126.69 4.30833 1.55393 0
M  V30 1229 N 128.181 4.33807 1.62375 0
M  V30 1230 C 128.916 5.40927 1.90225 0
M  V30 1231 N 128.412 6.58247 2.16062 0
M  V30 1232 N 130.205 5.28376 1.9177 0
M  V30 1233 H 122.356 2.10237 -0.302366 0
M  V30 1234 H 124.619 0.945203 -0.0727746 0
M  V30 1235 H 124.325 3.50208 0.323661 0
M  V30 1236 H 124.199 3.17125 2.04234 0
M  V30 1237 H 126.586 2.1809 1.98799 0
M  V30 1238 H 126.667 2.54492 0.258321 0
M  V30 1239 H 126.311 5.01799 0.784889 0
M  V30 1240 H 126.241 4.62347 2.52076 0
M  V30 1241 H 128.732 3.49212 1.44427 0
M  V30 1242 H 129.045 7.3569 2.36601 0
M  V30 1243 H 127.39 6.61413 2.13444 0
M  V30 1244 H 130.581 4.35715 1.71085 0
M  V30 1245 H 130.754 6.11944 2.13139 0
M  V30 1246 N 124.16 -0.719506 1.40217 0
M  V30 1247 C 125.408 -1.47641 1.3801 0
M  V30 1248 C 125.729 -1.94992 -0.018145 0
M  V30 1249 O 124.999 -1.70073 -0.972207 0
M  V30 1250 H 123.579 -0.547744 0.507923 0
M  V30 1251 H 126.241 -0.853187 1.75233 0
M  V30 1252 H 125.337 -2.35112 2.05253 0
M  V30 1253 N 125.638 -1.25649 -0.95132 0
M  V30 1254 C 126.568 -1.08808 -2.06599 0
M  V30 1255 C 127.549 0.00382547 -1.701 0
M  V30 1256 O 128.734 -0.166325 -1.93486 0
M  V30 1257 C 125.864 -0.709542 -3.39975 0
M  V30 1258 C 124.818 -1.75206 -3.90496 0
M  V30 1259 C 124.144 -1.22811 -5.20405 0
M  V30 1260 C 125.444 -3.15153 -4.16504 0
M  V30 1261 H 127.138 -2.02048 -2.20946 0
M  V30 1262 H 124.684 -0.972835 -1.06169 0
M  V30 1263 H 126.637 -0.578649 -4.17408 0
M  V30 1264 H 125.361 0.258556 -3.25575 0
M  V30 1265 H 124.02 -1.87145 -3.15234 0
M  V30 1266 H 123.668 -0.250145 -5.02378 0
M  V30 1267 H 123.368 -1.92492 -5.55176 0
M  V30 1268 H 124.892 -1.10968 -6.00432 0
M  V30 1269 H 126.306 -3.06349 -4.84586 0
M  V30 1270 H 124.703 -3.82333 -4.62538 0
M  V30 1271 H 125.773 -3.61966 -3.22658 0
M  V30 1272 N 127.117 1.15442 -1.07289 0
M  V30 1273 C 128.533 1.38201 -0.798288 0
M  V30 1274 C 128.733 1.92429 0.597769 0
M  V30 1275 O 127.789 2.12962 1.3566 0
M  V30 1276 C 129.102 2.35357 -1.87156 0
M  V30 1277 C 130.65 2.49021 -1.89624 0
M  V30 1278 C 131.125 3.49468 -2.96034 0
M  V30 1279 N 132.616 3.57003 -2.95132 0
M  V30 1280 C 133.351 4.34543 -3.74112 0
M  V30 1281 N 132.847 5.15421 -4.6294 0
M  V30 1282 N 134.64 4.29625 -3.62462 0
M  V30 1283 H 126.791 0.78584 -1.97328 0
M  V30 1284 H 129.054 0.408065 -0.855679 0
M  V30 1285 H 128.76 2.02626 -2.87464 0
M  V30 1286 H 128.634 3.35129 -1.73114 0
M  V30 1287 H 131.021 2.81051 -0.899687 0
M  V30 1288 H 131.102 1.4925 -2.07745 0
M  V30 1289 H 130.746 3.18173 -3.95889 0
M  V30 1290 H 130.676 4.48992 -2.75161 0
M  V30 1291 H 133.167 2.99276 -2.30743 0
M  V30 1292 H 133.48 5.7183 -5.19837 0
M  V30 1293 H 131.825 5.14729 -4.66989 0
M  V30 1294 H 135.016 3.65505 -2.92444 0
M  V30 1295 H 135.189 4.89807 -4.24256 0
M  V30 1296 N 128.595 0.856903 1.32268 0
M  V30 1297 C 129.545 0.274899 2.26337 0
M  V30 1298 C 130.529 -0.580543 1.50062 0
M  V30 1299 O 131.721 -0.429559 1.71708 0
M  V30 1300 C 128.85 -0.533841 3.39124 0
M  V30 1301 C 127.936 0.334114 4.22782 0
M  V30 1302 N 128.327 1.42143 4.85416 0
M  V30 1303 C 126.625 0.124256 4.45827 0
M  V30 1304 C 127.326 1.95559 5.47843 0
M  V30 1305 N 126.302 1.25444 5.28928 0
M  V30 1306 H 130.104 1.10612 2.72291 0
M  V30 1307 H 127.618 0.703258 1.46383 0
M  V30 1308 H 129.615 -0.96722 4.05525 0
M  V30 1309 H 128.275 -1.36283 2.94715 0
M  V30 1310 H 129.286 1.80436 4.85451 0
M  V30 1311 H 125.963 -0.669837 4.12092 0
M  V30 1312 H 127.353 2.86714 6.07655 0
M  V30 1313 N 130.073 -1.45103 0.615059 0
M  V30 1314 C 131.036 -2.29025 -0.0895485 0
M  V30 1315 C 132.036 -1.40174 -0.787906 0
M  V30 1316 O 133.226 -1.62217 -0.634933 0
M  V30 1317 C 130.358 -3.21376 -1.13711 0
M  V30 1318 H 131.551 -2.92807 0.648382 0
M  V30 1319 H 129.104 -1.51749 0.374444 0
M  V30 1320 H 129.839 -2.6241 -1.90556 0
M  V30 1321 H 129.624 -3.86834 -0.640475 0
M  V30 1322 H 131.114 -3.84459 -1.63036 0
M  V30 1323 N 131.551 -0.354651 -1.53558 0
M  V30 1324 C 132.967 -0.00315426 -1.596 0
M  V30 1325 C 133.167 1.47741 -1.37021 0
M  V30 1326 O 132.223 2.23759 -1.16996 0
M  V30 1327 C 133.536 -0.44929 -2.97325 0
M  V30 1328 C 135.084 -0.402578 -3.104 0
M  V30 1329 C 135.559 -0.824355 -4.5052 0
M  V30 1330 N 137.05 -0.778979 -4.56603 0
M  V30 1331 C 137.785 -1.07715 -5.63192 0
M  V30 1332 N 137.281 -1.44405 -6.77583 0
M  V30 1333 N 139.074 -1.00066 -5.53121 0
M  V30 1334 H 131.225 -1.31893 -1.66487 0
M  V30 1335 H 133.488 -0.538388 -0.780284 0
M  V30 1336 H 133.194 -1.48202 -3.1895 0
M  V30 1337 H 133.068 0.169772 -3.76818 0
M  V30 1338 H 135.455 0.621004 -2.88492 0
M  V30 1339 H 135.536 -1.05699 -2.32941 0
M  V30 1340 H 135.18 -1.846 -4.73165 0
M  V30 1341 H 135.11 -0.147304 -5.26394 0
M  V30 1342 H 137.601 -0.508528 -3.74463 0
M  V30 1343 H 137.914 -1.65612 -7.54846 0
M  V30 1344 H 136.259 -1.4826 -6.79002 0
M  V30 1345 H 139.45 -0.713293 -4.62633 0
M  V30 1346 H 139.623 -1.23638 -6.36096 0
M  V30 1347 N 133.029 1.57378 -0.0835403 0
M  V30 1348 C 134.254 1.98682 0.594987 0
M  V30 1349 C 134.679 0.961969 1.61641 0
M  V30 1350 O 134.037 -0.0709989 1.81161 0
M  V30 1351 C 134.085 3.38988 1.2296 0
M  V30 1352 O 133.189 3.39208 2.34546 0
M  V30 1353 H 132.53 0.646368 0.152002 0
M  V30 1354 H 135.06 2.03961 -0.161533 0
M  V30 1355 H 135.07 3.76431 1.57366 0
M  V30 1356 H 133.745 4.13107 0.481228 0
M  V30 1357 H 132.322 3.13548 2.01846 0
M  V30 1358 N 134.507 -0.190092 1.56449 0
M  V30 1359 C 135.47 -1.21925 1.9408 0
M  V30 1360 C 136.47 -1.38176 0.822431 0
M  V30 1361 O 137.66 -1.35903 1.08977 0
M  V30 1362 C 134.792 -2.58773 2.21922 0
M  V30 1363 H 135.985 -0.897464 2.86157 0
M  V30 1364 H 133.538 -0.43181 1.50217 0
M  V30 1365 H 134.273 -2.95998 1.32499 0
M  V30 1366 H 134.058 -2.48348 3.03424 0
M  V30 1367 H 135.548 -3.32978 2.52022 0
M  V30 1368 N 135.985 -1.50799 -0.457987 0
M  V30 1369 C 137.233 -1.62121 -1.2067 0
M  V30 1370 C 137.554 -0.329793 -1.92191 0
M  V30 1371 O 136.824 0.653409 -1.84682 0
M  V30 1372 H 135.404 -0.597441 -0.448411 0
M  V30 1373 H 138.066 -1.87637 -0.527096 0
M  V30 1374 H 137.162 -2.43882 -1.94751 0
M  V30 1375 N 137.463 0.71206 -1.40597 0
M  V30 1376 C 138.709 1.47416 -1.39271 0
M  V30 1377 C 139.042 1.942 0.00388791 0
M  V30 1378 O 138.317 1.68403 0.973179 0
M  V30 1379 C 138.6 2.69774 -2.38525 0
M  V30 1380 C 138.453 2.28861 -3.87224 0
M  V30 1381 C 139.772 3.71939 -2.35264 0
M  V30 1382 H 136.891 0.534713 -0.5072 0
M  V30 1383 H 139.533 0.812375 -1.71757 0
M  V30 1384 H 137.683 3.26238 -2.10953 0
M  V30 1385 H 139.355 1.77852 -4.25636 0
M  V30 1386 H 137.598 1.60824 -4.02887 0
M  V30 1387 H 138.269 3.16584 -4.52193 0
M  V30 1388 H 140.745 3.25113 -2.59694 0
M  V30 1389 H 139.621 4.55186 -3.06753 0
M  V30 1390 H 139.882 4.20484 -1.36549 0
M  V30 1391 N 138.941 1.26152 0.944643 0
M  V30 1392 C 139.873 1.03199 2.04652 0
M  V30 1393 C 140.886 -0.00642356 1.62799 0
M  V30 1394 O 142.075 0.233263 1.76969 0
M  V30 1395 C 139.175 0.540111 3.34568 0
M  V30 1396 C 138.348 1.64697 4.05208 0
M  V30 1397 C 137.407 1.15374 5.13396 0
M  V30 1398 O 136.433 1.85013 5.38293 0
M  V30 1399 N 137.635 0.00031529 5.805 0
M  V30 1400 H 140.4 1.9808 2.2491 0
M  V30 1401 H 137.961 1.17491 1.11389 0
M  V30 1402 H 139.953 0.194401 4.04233 0
M  V30 1403 H 138.523 -0.315021 3.11009 0
M  V30 1404 H 137.743 2.16379 3.29506 0
M  V30 1405 H 139.031 2.3903 4.49157 0
M  V30 1406 H 138.429 -0.581336 5.62705 0
M  V30 1407 H 136.986 -0.286346 6.51171 0
M  V30 1408 N 140.419 -1.14872 1.07899 0
M  V30 1409 C 141.647 -1.89661 0.82683 0
M  V30 1410 C 142.062 -1.78312 -0.620519 0
M  V30 1411 O 141.419 -1.13888 -1.42604 0
M  V30 1412 C 141.47 -3.39817 1.23316 0
M  V30 1413 O 141.191 -3.50845 2.62372 0
M  V30 1414 C 142.692 -4.31615 1.0111 0
M  V30 1415 H 139.912 -0.60092 0.298557 0
M  V30 1416 H 142.456 -1.4551 1.43691 0
M  V30 1417 H 140.611 -3.8161 0.667286 0
M  V30 1418 H 141.025 -4.44076 2.79101 0
M  V30 1419 H 142.499 -5.35367 1.34486 0
M  V30 1420 H 142.976 -4.39169 -0.0522168 0
M  V30 1421 H 143.582 -3.95572 1.56215 0
M  V30 1422 N 141.898 -0.863906 -1.31812 0
M  V30 1423 C 143.147 -0.46801 -1.96195 0
M  V30 1424 C 143.46 0.983474 -1.69077 0
M  V30 1425 O 144.666 1.48523 -2.27273 0
M  V30 1426 C 143.122 -0.785995 -3.51212 0
M  V30 1427 C 142.73 -2.25383 -3.87178 0
M  V30 1428 C 144.474 -0.458274 -4.22019 0
M  V30 1429 C 142.381 -2.51455 -5.3528 0
M  V30 1430 H 141.311 -0.171283 -0.734287 0
M  V30 1431 H 143.962 -1.05597 -1.50072 0
M  V30 1432 H 142.344 -0.127359 -3.95795 0
M  V30 1433 H 143.518 -2.95502 -3.53575 0
M  V30 1434 H 141.833 -2.54698 -3.2942 0
M  V30 1435 H 144.43 -0.630369 -5.30971 0
M  V30 1436 H 144.773 0.600834 -4.11941 0
M  V30 1437 H 145.306 -1.07319 -3.8305 0
M  V30 1438 H 142.045 -3.56025 -5.50387 0
M  V30 1439 H 141.565 -1.85923 -5.70257 0
M  V30 1440 H 143.244 -2.35874 -6.02472 0
M  V30 1441 N 143.376 1.44774 -0.622745 0
M  V30 1442 C 144.622 2.0242 -0.124083 0
M  V30 1443 C 144.955 1.4881 1.24777 0
M  V30 1444 O 144.23 0.668799 1.8264 0
M  V30 1445 C 144.513 3.59957 -0.101619 0
M  V30 1446 C 144.366 4.23867 -1.50521 0
M  V30 1447 C 145.685 4.36284 0.578272 0
M  V30 1448 H 142.804 0.735528 -0.0465645 0
M  V30 1449 H 145.446 1.72447 -0.797617 0
M  V30 1450 H 143.596 3.85623 0.471934 0
M  V30 1451 H 145.268 4.09336 -2.12701 0
M  V30 1452 H 143.511 3.81684 -2.06154 0
M  V30 1453 H 144.182 5.32843 -1.4416 0
M  V30 1454 H 146.658 4.16001 0.0906057 0
M  V30 1455 H 145.534 5.46004 0.563149 0
M  V30 1456 H 145.795 4.10271 1.64713 0
M  V30 1457 N 144.854 0.36279 1.53368 0
M  V30 1458 C 146.131 -0.284021 1.93527 0
M  V30 1459 C 146.511 -1.66628 1.29608 0
M  V30 1460 O 145.859 -2.23942 0.45413 0
M  V30 1461 C 146.069 -0.337028 3.47369 0
M  V30 1462 C 147.417 -0.578708 4.20638 0
M  V30 1463 O 148.441 -0.418352 3.53735 0
M  V30 1464 O 147.3 -0.89074 5.39192 0
M  V30 1465 H 144.394 -0.169743 0.809393 0
M  V30 1466 H 146.94 0.41537 1.64538 0
M  V30 1467 H 145.712 0.632217 3.86159 0
M  V30 1468 H 145.335 -1.08243 3.82582 0
M  V30 1469 N 146.332 -1.57332 0.0918853 0
M  V30 1470 C 147.578 -1.94524 -0.573425 0
M  V30 1471 C 147.911 -0.973578 -1.68033 0
M  V30 1472 O 147.186 -0.00609226 -1.94499 0
M  V30 1473 C 147.469 -3.41858 -1.13161 0
M  V30 1474 C 147.322 -4.4979 -0.0299747 0
M  V30 1475 C 148.641 -3.90435 -2.03098 0
M  V30 1476 H 145.76 -0.70734 -0.206975 0
M  V30 1477 H 148.402 -1.89309 0.161942 0
M  V30 1478 H 146.552 -3.46433 -1.7583 0
M  V30 1479 H 148.224 -4.57327 0.604112 0
M  V30 1480 H 146.467 -4.291 0.636833 0
M  V30 1481 H 147.138 -5.50069 -0.461287 0
M  V30 1482 H 149.614 -3.87992 -1.50338 0
M  V30 1483 H 148.49 -4.94097 -2.39081 0
M  V30 1484 H 148.751 -3.29541 -2.94712 0
M  V30 1485 N 147.81 0.181792 -1.56548 0
M  V30 1486 C 149.035 0.920019 -1.85877 0
M  V30 1487 C 149.46 1.75494 -0.677021 0
M  V30 1488 O 148.818 1.77399 0.374056 0
M  V30 1489 C 148.866 1.78112 -3.13542 0
M  V30 1490 O 147.97 2.88152 -2.95029 0
M  V30 1491 H 147.311 0.258334 -0.611686 0
M  V30 1492 H 149.841 0.183092 -2.03779 0
M  V30 1493 H 149.851 2.18314 -3.44678 0
M  V30 1494 H 148.526 1.16777 -3.99169 0
M  V30 1495 H 147.103 2.51609 -2.75222 0
M  V30 1496 N 149.288 1.51039 0.449983 0
M  V30 1497 C 150.516 1.66869 1.2232 0
M  V30 1498 C 150.931 0.360727 1.85322 0
M  V30 1499 O 150.288 -0.659531 1.70166 0
M  V30 1500 C 150.339 2.77524 2.31652 0
M  V30 1501 O 150.06 4.03252 1.7123 0
M  V30 1502 C 151.561 3.04512 3.2216 0
M  V30 1503 H 148.781 0.560326 0.369155 0
M  V30 1504 H 151.325 1.97385 0.534719 0
M  V30 1505 H 149.48 2.49642 2.96239 0
M  V30 1506 H 149.894 4.64609 2.43389 0
M  V30 1507 H 151.368 3.85551 3.95038 0
M  V30 1508 H 151.845 2.16415 3.8218 0
M  V30 1509 H 152.451 3.34005 2.63288 0
M  V30 1510 N 150.766 -0.704594 1.40972 0
M  V30 1511 C 152.013 -1.46458 1.39844 0
M  V30 1512 C 152.341 -1.94499 0.00447594 0
M  V30 1513 O 151.596 -1.69275 -0.982057 0
M  V30 1514 C 151.895 -2.698 2.34399 0
M  V30 1515 C 151.561 -2.40464 3.81429 0
M  V30 1516 C 150.223 -2.32174 4.21484 0
M  V30 1517 C 152.575 -2.16086 4.74296 0
M  V30 1518 C 149.903 -1.97589 5.52427 0
M  V30 1519 C 152.255 -1.83011 6.05549 0
M  V30 1520 C 150.919 -1.7321 6.44635 0
M  V30 1521 H 150.189 -0.535927 0.511725 0
M  V30 1522 H 152.836 -0.806124 1.73706 0
M  V30 1523 H 151.141 -3.40536 1.93759 0
M  V30 1524 H 152.838 -3.27919 2.30804 0
M  V30 1525 H 149.428 -2.47808 3.49699 0
M  V30 1526 H 153.612 -2.2144 4.4416 0
M  V30 1527 H 148.868 -1.88547 5.81601 0
M  V30 1528 H 153.042 -1.63164 6.77016 0
M  V30 1529 H 150.669 -1.46179 7.46013 0
M  V30 1530 N 152.244 -1.26651 -0.937939 0
M  V30 1531 C 153.521 -1.0313 -1.66204 0
M  V30 1532 C 153.901 0.437256 -2.06522 0
M  V30 1533 O 153.249 1.41831 -1.79154 0
M  V30 1534 C 153.459 -1.98314 -2.87181 0
M  V30 1535 C 154.807 -2.27107 -3.58758 0
M  V30 1536 O 155.831 -1.96205 -2.97291 0
M  V30 1537 O 154.69 -2.79736 -4.69479 0
M  V30 1538 H 151.784 -0.392384 -0.727986 0
M  V30 1539 H 154.33 -1.37874 -0.989382 0
M  V30 1540 H 153.102 -2.97399 -2.54302 0
M  V30 1541 H 152.725 -1.64068 -3.6217 0
M  V30 1542 N 153.722 1.14298 -1.08507 0
M  V30 1543 C 154.971 1.84708 -0.810305 0
M  V30 1544 C 155.284 1.83903 0.666271 0
M  V30 1545 O 156.49 2.50112 1.05624 0
M  V30 1546 C 154.946 3.31572 -1.39957 0
M  V30 1547 C 154.554 3.40791 -2.90801 0
M  V30 1548 C 156.298 4.07087 -1.20334 0
M  V30 1549 C 154.205 4.81872 -3.4286 0
M  V30 1550 H 153.135 0.691985 -0.299454 0
M  V30 1551 H 155.786 1.28841 -1.30661 0
M  V30 1552 H 154.168 3.87183 -0.830976 0
M  V30 1553 H 155.342 2.95225 -3.53806 0
M  V30 1554 H 153.657 2.78732 -3.0935 0
M  V30 1555 H 156.254 5.11225 -1.56693 0
M  V30 1556 H 156.597 4.16054 -0.143237 0
M  V30 1557 H 157.13 3.57779 -1.73893 0
M  V30 1558 H 153.869 4.78094 -4.48449 0
M  V30 1559 H 153.389 5.27972 -2.84615 0
M  V30 1560 H 155.068 5.50765 -3.39509 0
M  V30 1561 N 155.201 0.870884 1.31352 0
M  V30 1562 C 156.449 0.48132 1.96285 0
M  V30 1563 C 156.77 -0.969813 1.69173 0
M  V30 1564 O 156.04 -1.67998 1.00764 0
M  V30 1565 H 154.62 0.175002 0.726212 0
M  V30 1566 H 157.282 1.11087 1.60143 0
M  V30 1567 H 156.378 0.639825 3.05471 0
M  V30 1568 N 156.679 -1.44442 0.630414 0
M  V30 1569 C 158.095 -1.56832 0.295973 0
M  V30 1570 C 158.295 -1.61806 -1.20088 0
M  V30 1571 O 157.351 -1.5607 -1.9849 0
M  V30 1572 C 158.664 -2.84031 0.987264 0
M  V30 1573 C 160.212 -2.97742 0.96534 0
M  V30 1574 C 160.687 -4.27743 1.63708 0
M  V30 1575 N 162.178 -4.34555 1.60364 0
M  V30 1576 C 162.913 -5.33862 2.09234 0
M  V30 1577 N 162.409 -6.39578 2.66292 0
M  V30 1578 N 164.202 -5.25366 1.99867 0
M  V30 1579 H 156.353 -1.39457 1.60205 0
M  V30 1580 H 158.616 -0.668237 0.672431 0
M  V30 1581 H 158.322 -2.86338 2.04215 0
M  V30 1582 H 158.196 -3.73534 0.524588 0
M  V30 1583 H 160.583 -2.94989 -0.0810639 0
M  V30 1584 H 160.664 -2.09589 1.4665 0
M  V30 1585 H 160.308 -4.31255 2.68293 0
M  V30 1586 H 160.238 -5.14752 1.11076 0
M  V30 1587 H 162.729 -3.58772 1.18705 0
M  V30 1588 H 163.042 -7.11637 3.01317 0
M  V30 1589 H 161.387 -6.40265 2.70343 0
M  V30 1590 H 164.578 -4.41688 1.55013 0
M  V30 1591 H 164.751 -6.02606 2.38265 0
M  V30 1592 N 158.157 -0.370918 -1.53173 0
M  V30 1593 C 159.434 0.273754 -1.93675 0
M  V30 1594 C 159.814 1.65938 -1.3049 0
M  V30 1595 O 159.162 2.23698 -0.465999 0
M  V30 1596 C 159.372 0.318602 -3.47543 0
M  V30 1597 C 160.72 0.556392 -4.20939 0
M  V30 1598 O 161.744 0.399587 -3.53952 0
M  V30 1599 O 160.603 0.862133 -5.39657 0
M  V30 1600 H 157.697 0.165448 -0.810281 0
M  V30 1601 H 160.243 -0.42409 -1.64315 0
M  V30 1602 H 159.015 -0.652687 -3.85818 0
M  V30 1603 H 158.638 1.06212 -3.83151 0
M  V30 1604 N 159.635 1.57281 -0.100228 0
M  V30 1605 C 160.881 1.94826 0.563101 0
M  V30 1606 C 161.214 0.982475 1.67514 0
M  V30 1607 O 160.489 0.0164069 1.94493 0
M  V30 1608 C 160.772 3.42453 1.11346 0
M  V30 1609 C 160.625 4.498 0.00612081 0
M  V30 1610 C 161.944 3.91506 2.01024 0
M  V30 1611 H 159.063 0.708428 0.203221 0
M  V30 1612 H 161.705 1.8922 -0.171979 0
M  V30 1613 H 159.855 3.47361 1.7399 0
M  V30 1614 H 161.527 4.57 -0.628357 0
M  V30 1615 H 159.77 4.28756 -0.659581 0
M  V30 1616 H 160.441 5.50306 0.432109 0
M  V30 1617 H 162.917 3.88784 1.48278 0
M  V30 1618 H 161.793 4.95358 2.36457 0
M  V30 1619 H 162.054 3.31099 2.92961 0
M  V30 1620 N 161.113 -0.173488 1.56642 0
M  V30 1621 C 162.529 -0.525174 1.50712 0
M  V30 1622 C 162.729 -1.8476 0.804107 0
M  V30 1623 O 161.785 -2.49869 0.363574 0
M  V30 1624 C 163.098 -0.559937 2.95441 0
M  V30 1625 C 164.646 -0.647288 3.06234 0
M  V30 1626 C 165.121 -0.712963 4.52417 0
M  V30 1627 N 166.612 -0.775911 4.56655 0
M  V30 1628 C 167.347 -0.847264 5.67106 0
M  V30 1629 N 166.843 -0.879585 6.87194 0
M  V30 1630 N 168.636 -0.886117 5.55071 0
M  V30 1631 H 160.787 0.693681 2.00753 0
M  V30 1632 H 163.05 0.249841 0.914485 0
M  V30 1633 H 162.756 0.343049 3.50023 0
M  V30 1634 H 162.63 -1.40718 3.49969 0
M  V30 1635 H 165.017 -1.5407 2.51687 0
M  V30 1636 H 165.098 0.226586 2.54794 0
M  V30 1637 H 164.742 0.176183 5.07594 0
M  V30 1638 H 164.672 -1.60295 5.0161 0
M  V30 1639 H 167.163 -0.759304 3.70193 0
M  V30 1640 H 167.476 -0.935144 7.67121 0
M  V30 1641 H 165.821 -0.847898 6.89808 0
M  V30 1642 H 169.012 -0.857853 4.60172 0
M  V30 1643 H 169.185 -0.938263 6.41171 0
M  V30 1644 N 162.591 -1.51276 -0.441967 0
M  V30 1645 C 163.521 -1.752 -1.54361 0
M  V30 1646 C 164.502 -0.601682 -1.59103 0
M  V30 1647 O 165.687 -0.843913 -1.74905 0
M  V30 1648 C 162.817 -1.87282 -2.92477 0
M  V30 1649 C 161.771 -3.02687 -3.02596 0
M  V30 1650 C 161.097 -2.99947 -4.42647 0
M  V30 1651 C 162.397 -4.4273 -2.77106 0
M  V30 1652 H 164.091 -2.67442 -1.34592 0
M  V30 1653 H 161.637 -1.28694 -0.646048 0
M  V30 1654 H 163.59 -2.02602 -3.695 0
M  V30 1655 H 162.314 -0.916844 -3.13467 0
M  V30 1656 H 160.973 -2.87065 -2.28012 0
M  V30 1657 H 160.621 -2.02136 -4.60597 0
M  V30 1658 H 160.321 -3.77439 -4.50348 0
M  V30 1659 H 161.845 -3.17354 -5.2165 0
M  V30 1660 H 163.259 -4.58727 -3.43864 0
M  V30 1661 H 161.656 -5.21893 -2.96222 0
M  V30 1662 H 162.726 -4.53087 -1.72744 0
M  V30 1663 N 164.069 0.697108 -1.41344 0
M  V30 1664 C 164.999 1.82353 -1.45841 0
M  V30 1665 C 165.98 1.67115 -0.317247 0
M  V30 1666 O 167.165 1.86871 -0.528474 0
M  V30 1667 C 164.295 3.20476 -1.33838 0
M  V30 1668 C 163.249 3.50415 -2.4575 0
M  V30 1669 C 162.575 4.87878 -2.18813 0
M  V30 1670 C 163.875 3.49546 -3.88091 0
M  V30 1671 H 165.569 1.78846 -2.40113 0
M  V30 1672 H 163.115 0.859028 -1.15571 0
M  V30 1673 H 165.068 3.98988 -1.35596 0
M  V30 1674 H 163.792 3.24604 -0.360498 0
M  V30 1675 H 162.451 2.74253 -2.43271 0
M  V30 1676 H 162.099 4.8863 -1.19371 0
M  V30 1677 H 161.799 5.08875 -2.93803 0
M  V30 1678 H 163.323 5.68702 -2.22284 0
M  V30 1679 H 164.737 4.18066 -3.92293 0
M  V30 1680 H 163.134 3.82075 -4.62751 0
M  V30 1681 H 164.204 2.48552 -4.16353 0
M  V30 1682 N 165.547 1.27147 0.931209 0
M  V30 1683 C 166.51 1.09615 2.01289 0
M  V30 1684 C 167.51 0.0412581 1.60747 0
M  V30 1685 O 168.7 0.285545 1.71844 0
M  V30 1686 C 165.832 0.669447 3.34262 0
M  V30 1687 H 167.025 2.05662 2.18273 0
M  V30 1688 H 164.578 1.09885 1.11153 0
M  V30 1689 H 165.313 -0.292572 3.22978 0
M  V30 1690 H 165.098 1.43127 3.65044 0
M  V30 1691 H 166.588 0.568921 4.13706 0
M  V30 1692 N 167.025 -1.13721 1.09112 0
M  V30 1693 C 167.935 -2.22638 0.73957 0
M  V30 1694 C 168.951 -1.72091 -0.257068 0
M  V30 1695 O 170.127 -2.01155 -0.0992154 0
M  V30 1696 C 167.192 -3.46322 0.16191 0
M  V30 1697 C 166.253 -4.11775 1.21408 0
M  V30 1698 C 165.486 -5.29555 0.663891 0
M  V30 1699 O 165.709 -5.68077 -0.514274 0
M  V30 1700 O 164.643 -5.84973 1.41738 0
M  V30 1701 H 168.469 -2.55074 1.64836 0
M  V30 1702 H 166.054 -1.21791 0.865289 0
M  V30 1703 H 167.936 -4.21107 -0.157073 0
M  V30 1704 H 166.611 -3.15593 -0.719932 0
M  V30 1705 H 165.518 -3.3883 1.58571 0
M  V30 1706 H 166.851 -4.46627 2.06845 0
M  V30 1707 N 168.503 -0.877838 -1.30888 0
M  V30 1708 C 169.749 -0.493426 -1.96706 0
M  V30 1709 C 170.082 0.953504 -1.6918 0
M  V30 1710 O 169.357 1.67266 -0.992594 0
M  V30 1711 C 169.64 -0.760429 -3.51979 0
M  V30 1712 C 169.493 -2.25747 -3.89048 0
M  V30 1713 C 170.812 -0.232148 -4.39487 0
M  V30 1714 H 167.931 -0.180746 -0.714493 0
M  V30 1715 H 170.573 -1.10052 -1.54882 0
M  V30 1716 H 168.723 -0.243715 -3.87735 0
M  V30 1717 H 170.395 -2.84204 -3.63354 0
M  V30 1718 H 168.638 -2.72694 -3.37373 0
M  V30 1719 H 169.309 -2.39491 -4.97341 0
M  V30 1720 H 171.785 -0.674314 -4.106 0
M  V30 1721 H 170.661 -0.448355 -5.47066 0
M  V30 1722 H 170.922 0.866297 -4.33529 0
M  V30 1723 N 169.982 1.44106 -0.638065 0
M  V30 1724 C 171.207 2.0685 -0.150916 0
M  V30 1725 C 171.632 1.47417 1.16833 0
M  V30 1726 O 170.99 0.578264 1.71831 0
M  V30 1727 C 171.038 3.60555 -0.05708 0
M  V30 1728 O 170.142 4.00465 0.984972 0
M  V30 1729 H 169.483 0.658151 -0.0879399 0
M  V30 1730 H 172.013 1.84865 -0.876707 0
M  V30 1731 H 172.023 4.07789 0.131232 0
M  V30 1732 H 170.698 4.03193 -1.02021 0
M  V30 1733 H 169.275 3.64849 0.770672 0
M  V30 1734 N 171.46 0.379036 1.52974 0
M  V30 1735 C 172.876 0.0285448 1.59574 0
M  V30 1736 C 173.076 -1.45542 1.39355 0
M  V30 1737 O 172.132 -2.2187 1.20541 0
M  V30 1738 C 173.445 0.496535 2.96572 0
M  V30 1739 C 174.993 0.451909 3.0972 0
M  V30 1740 C 175.468 0.895924 4.49152 0
M  V30 1741 N 176.959 0.851522 4.55306 0
M  V30 1742 C 177.694 1.16661 5.61407 0
M  V30 1743 N 177.19 1.55166 6.752 0
M  V30 1744 N 178.983 1.08853 5.51459 0
M  V30 1745 H 171.134 1.34525 1.64367 0
M  V30 1746 H 173.397 0.550733 0.771619 0
M  V30 1747 H 173.103 1.53258 3.16552 0
M  V30 1748 H 172.977 -0.109802 3.7704 0
M  V30 1749 H 175.364 -0.575029 2.89443 0
M  V30 1750 H 175.445 1.09392 2.3123 0
M  V30 1751 H 175.089 1.92104 4.70168 0
M  V30 1752 H 175.019 0.23103 5.26093 0
M  V30 1753 H 177.51 0.568038 3.73606 0
M  V30 1754 H 177.823 1.776 7.52116 0
M  V30 1755 H 176.168 1.59044 6.76557 0
M  V30 1756 H 179.359 0.786803 4.6144 0
M  V30 1757 H 179.532 1.33742 6.34048 0
M  V30 1758 N 172.938 -1.57226 0.108567 0
M  V30 1759 C 173.901 -2.13602 -0.831082 0
M  V30 1760 C 174.901 -1.06841 -1.20173 0
M  V30 1761 O 176.091 -1.32666 -1.12895 0
M  V30 1762 C 173.223 -2.66769 -2.12243 0
M  V30 1763 H 174.416 -2.97951 -0.341317 0
M  V30 1764 H 171.969 -1.55667 -0.14057 0
M  V30 1765 H 172.704 -1.85977 -2.65675 0
M  V30 1766 H 172.489 -3.44839 -1.86625 0
M  V30 1767 H 173.979 -3.10332 -2.79435 0
M  V30 1768 N 174.416 0.165178 -1.56732 0
M  V30 1769 C 175.379 1.18822 -1.95995 0
M  V30 1770 C 176.379 1.3685 -0.84431 0
M  V30 1771 O 177.569 1.34152 -1.11126 0
M  V30 1772 C 174.701 2.5521 -2.26011 0
M  V30 1773 H 175.894 0.851825 -2.87548 0
M  V30 1774 H 173.447 0.407857 -1.50885 0
M  V30 1775 H 174.182 2.93852 -1.37191 0
M  V30 1776 H 173.967 2.43489 -3.07336 0
M  V30 1777 H 175.457 3.28927 -2.57288 0
M  V30 1778 N 175.894 1.51508 0.433938 0
M  V30 1779 C 177.171 1.54888 1.19453 0
M  V30 1780 C 177.551 0.315154 2.08734 0
M  V30 1781 O 176.899 -0.699558 2.17528 0
M  V30 1782 C 177.109 2.86467 1.99342 0
M  V30 1783 C 178.457 3.38545 2.56267 0
M  V30 1784 O 179.481 2.88041 2.0955 0
M  V30 1785 O 178.34 4.26675 3.41483 0
M  V30 1786 H 175.434 0.622863 0.544032 0
M  V30 1787 H 177.98 1.63823 0.442732 0
M  V30 1788 H 176.752 3.67718 1.33788 0
M  V30 1789 H 176.375 2.8071 2.8158 0
M  V30 1790 N 177.372 -0.689602 1.41712 0
M  V30 1791 C 178.618 -1.45181 1.41599 0
M  V30 1792 C 178.951 -1.94181 0.0270081 0
M  V30 1793 O 178.226 -1.6993 -0.946265 0
M  V30 1794 C 178.509 -2.65945 2.42787 0
M  V30 1795 C 178.362 -2.22672 3.90816 0
M  V30 1796 C 179.681 -3.68149 2.41151 0
M  V30 1797 H 176.8 -0.526576 0.515642 0
M  V30 1798 H 179.442 -0.784947 1.73028 0
M  V30 1799 H 177.592 -3.2284 2.16116 0
M  V30 1800 H 179.264 -1.71058 4.28412 0
M  V30 1801 H 177.507 -1.54394 4.05395 0
M  V30 1802 H 178.178 -3.0935 4.57172 0
M  V30 1803 H 180.654 -3.2094 2.64834 0
M  V30 1804 H 179.53 -4.50248 3.13955 0
M  V30 1805 H 179.791 -4.18259 1.43221 0
M  V30 1806 N 178.85 -1.27639 -0.924453 0
M  V30 1807 C 179.8 -1.07295 -2.01176 0
M  V30 1808 C 180.784 5.77352e-05 -1.609 0
M  V30 1809 O 181.976 -0.218855 -1.75642 0
M  V30 1810 C 179.105 -0.725592 -3.35544 0
M  V30 1811 C 178.191 -1.83691 -3.82254 0
M  V30 1812 N 178.582 -3.07697 -4.01443 0
M  V30 1813 C 176.88 -1.72433 -4.11319 0
M  V30 1814 C 177.581 -3.80037 -4.40394 0
M  V30 1815 N 176.557 -3.0782 -4.48049 0
M  V30 1816 H 180.359 -2.01399 -2.14046 0
M  V30 1817 H 177.873 -1.18401 -1.11153 0
M  V30 1818 H 179.87 -0.560959 -4.13109 0
M  V30 1819 H 178.53 0.207782 -3.24034 0
M  V30 1820 H 179.541 -3.43424 -3.8766 0
M  V30 1821 H 176.218 -0.862005 -4.08504 0
M  V30 1822 H 177.608 -4.86632 -4.63291 0
M  V30 1823 N 180.328 1.1314 -1.09713 0
M  V30 1824 C 181.577 1.83838 -0.829851 0
M  V30 1825 C 181.89 1.84599 0.646728 0
M  V30 1826 O 183.096 2.51218 1.02965 0
M  V30 1827 C 181.552 3.30069 -1.43466 0
M  V30 1828 C 181.16 3.37688 -2.94399 0
M  V30 1829 C 182.904 4.05788 -1.24645 0
M  V30 1830 C 180.811 4.78209 -3.47952 0
M  V30 1831 H 179.741 0.68877 -0.306777 0
M  V30 1832 H 182.392 1.27448 -1.3202 0
M  V30 1833 H 180.774 3.8628 -0.871996 0
M  V30 1834 H 181.948 2.91456 -3.56918 0
M  V30 1835 H 180.263 2.75436 -3.12289 0
M  V30 1836 H 182.86 5.09535 -1.62107 0
M  V30 1837 H 183.203 4.15878 -0.187357 0
M  V30 1838 H 183.736 3.55915 -1.77678 0
M  V30 1839 H 180.475 4.73311 -4.53495 0
M  V30 1840 H 179.995 5.24924 -2.90198 0
M  V30 1841 H 181.674 5.47133 -3.45332 0
M  V30 1842 N 181.806 0.884767 1.30421 0
M  V30 1843 C 183.052 0.503851 1.96441 0
M  V30 1844 C 183.385 -0.944518 1.69684 0
M  V30 1845 O 182.66 -1.66737 1.00145 0
M  V30 1846 C 182.943 0.779085 3.51571 0
M  V30 1847 C 182.796 2.27807 3.87846 0
M  V30 1848 C 184.115 0.255452 4.39358 0
M  V30 1849 H 181.234 0.184533 0.713524 0
M  V30 1850 H 183.876 1.10872 1.54297 0
M  V30 1851 H 182.026 0.264274 3.876 0
M  V30 1852 H 183.698 2.86127 3.61841 0
M  V30 1853 H 181.941 2.74479 3.35922 0
M  V30 1854 H 182.612 2.42125 4.96064 0
M  V30 1855 H 185.088 0.696079 4.10236 0
M  V30 1856 H 183.964 0.477361 5.4682 0
M  V30 1857 H 184.225 -0.843293 4.33983 0
M  V30 1858 N 183.284 -1.43765 0.645699 0
M  V30 1859 C 184.247 -2.29163 -0.0409488 0
M  V30 1860 C 185.247 -1.41813 -0.757996 0
M  V30 1861 O 186.437 -1.63527 -0.600382 0
M  V30 1862 C 183.569 -3.23716 -1.06869 0
M  V30 1863 H 184.762 -2.91366 0.710345 0
M  V30 1864 H 182.315 -1.5092 0.406547 0
M  V30 1865 H 183.05 -2.66393 -1.84947 0
M  V30 1866 H 182.835 -3.88105 -0.558277 0
M  V30 1867 H 184.325 -3.87831 -1.54845 0
M  V30 1868 N 184.763 -0.387143 -1.52771 0
M  V30 1869 C 185.726 0.436939 -2.24997 0
M  V30 1870 C 186.726 0.991991 -1.26555 0
M  V30 1871 O 187.916 0.874335 -1.50669 0
M  V30 1872 C 185.048 1.61281 -3.00335 0
M  V30 1873 H 186.241 -0.195365 -2.99263 0
M  V30 1874 H 183.794 -0.139218 -1.55679 0
M  V30 1875 H 184.529 2.2826 -2.30364 0
M  V30 1876 H 184.314 1.22154 -3.72587 0
M  V30 1877 H 185.804 2.19629 -3.5518 0
M  V30 1878 N 186.241 1.57166 -0.116904 0
M  V30 1879 C 187.469 1.99473 0.549383 0
M  V30 1880 C 187.884 0.996541 1.60357 0
M  V30 1881 O 187.241 -0.0108731 1.82497 0
M  V30 1882 C 187.292 3.41788 1.17741 0
M  V30 1883 O 187.013 4.37788 0.165362 0
M  V30 1884 C 188.514 3.99216 1.92722 0
M  V30 1885 H 185.734 0.655009 0.145616 0
M  V30 1886 H 188.278 2.03494 -0.202625 0
M  V30 1887 H 186.433 3.38713 1.88021 0
M  V30 1888 H 186.847 5.20806 0.621403 0
M  V30 1889 H 188.321 5.00882 2.31995 0
M  V30 1890 H 188.798 3.3824 2.80161 0
M  V30 1891 H 189.404 4.0583 1.27209 0
M  V30 1892 N 187.719 -0.156864 1.56817 0
M  V30 1893 C 188.967 -0.869404 1.82444 0
M  V30 1894 C 189.288 -1.82147 0.69623 0
M  V30 1895 O 188.558 -1.93847 -0.28287 0
M  V30 1896 H 187.138 -0.324043 0.673056 0
M  V30 1897 H 189.8 -0.153224 1.94297 0
M  V30 1898 H 188.896 -1.43761 2.77019 0
M  V30 1899 N 189.197 -1.51736 -0.425897 0
M  V30 1900 C 190.127 -1.76827 -1.52494 0
M  V30 1901 C 191.108 -0.618524 -1.58456 0
M  V30 1902 O 192.293 -0.862416 -1.74 0
M  V30 1903 C 189.423 -1.90374 -2.90474 0
M  V30 1904 C 188.377 -3.0588 -2.99369 0
M  V30 1905 C 187.703 -3.04625 -4.3944 0
M  V30 1906 C 189.003 -4.45644 -2.72394 0
M  V30 1907 H 190.697 -2.68855 -1.31748 0
M  V30 1908 H 188.243 -1.29372 -0.632362 0
M  V30 1909 H 190.196 -2.0651 -3.6733 0
M  V30 1910 H 188.92 -0.95004 -3.12477 0
M  V30 1911 H 187.579 -2.89467 -2.24954 0
M  V30 1912 H 187.227 -2.0701 -4.58428 0
M  V30 1913 H 186.927 -3.82195 -4.46319 0
M  V30 1914 H 188.451 -3.22869 -5.18255 0
M  V30 1915 H 189.865 -4.62348 -3.38979 0
M  V30 1916 H 188.262 -5.25006 -2.9067 0
M  V30 1917 H 189.332 -4.54893 -1.67929 0
M  V30 1918 N 190.675 0.682077 -1.42076 0
M  V30 1919 C 191.921 1.44283 -1.43366 0
M  V30 1920 C 192.276 1.92344 -0.0465775 0
M  V30 1921 O 191.569 1.67517 0.929973 0
M  V30 1922 C 191.763 2.66036 -2.38662 0
M  V30 1923 C 191.592 2.29889 -3.86499 0
M  V30 1924 C 190.362 2.19599 -4.55087 0
M  V30 1925 C 192.56 1.91999 -4.77117 0
M  V30 1926 N 190.542 1.76478 -5.87987 0
M  V30 1927 C 191.913 1.59741 -5.99068 0
M  V30 1928 C 193.968 1.78927 -4.64639 0
M  V30 1929 C 192.671 1.15723 -7.0993 0
M  V30 1930 C 194.697 1.36314 -5.75476 0
M  V30 1931 C 194.059 1.04975 -6.96534 0
M  V30 1932 H 190.158 0.524739 -0.579805 0
M  V30 1933 H 192.742 0.787834 -1.78048 0
M  V30 1934 H 190.913 3.29237 -2.06053 0
M  V30 1935 H 192.645 3.32588 -2.30581 0
M  V30 1936 H 189.4 2.38433 -4.09202 0
M  V30 1937 H 189.824 1.57362 -6.58458 0
M  V30 1938 H 194.466 2.01805 -3.7153 0
M  V30 1939 H 192.184 0.91591 -8.02893 0
M  V30 1940 H 195.77 1.26731 -5.6783 0
M  V30 1941 H 194.65 0.725017 -7.80841 0
M  V30 1942 N 192.153 1.28127 0.917671 0
M  V30 1943 C 193.4 1.15052 1.66641 0
M  V30 1944 C 193.728 -0.301677 1.92146 0
M  V30 1945 O 192.983 -1.23622 1.51711 0
M  V30 1946 C 193.282 1.89018 3.03327 0
M  V30 1947 C 192.948 3.38832 2.97496 0
M  V30 1948 C 191.61 3.79693 2.95613 0
M  V30 1949 C 193.962 4.34378 2.88036 0
M  V30 1950 C 191.29 5.14447 2.82066 0
M  V30 1951 C 193.642 5.69201 2.7603 0
M  V30 1952 C 192.306 6.09343 2.72502 0
M  V30 1953 H 191.576 0.421006 0.609783 0
M  V30 1954 H 194.223 1.58855 1.06945 0
M  V30 1955 H 192.528 1.37752 3.66785 0
M  V30 1956 H 194.225 1.76321 3.60156 0
M  V30 1957 H 190.815 3.06342 2.99754 0
M  V30 1958 H 194.999 4.03775 2.88581 0
M  V30 1959 H 190.255 5.44681 2.77728 0
M  V30 1960 H 194.429 6.42901 2.67678 0
M  V30 1961 H 192.056 7.13712 2.61762 0
M  V30 1962 N 193.631 -1.12557 1.10312 0
M  V30 1963 C 194.908 -1.80363 0.756878 0
M  V30 1964 C 195.288 -1.97067 -0.756824 0
M  V30 1965 O 194.636 -1.54601 -1.68259 0
M  V30 1966 C 194.846 -3.14812 1.50647 0
M  V30 1967 C 196.194 -3.90029 1.67817 0
M  V30 1968 O 197.218 -3.24464 1.46974 0
M  V30 1969 O 196.077 -5.07652 2.02365 0
M  V30 1970 H 193.171 -0.780667 0.272926 0
M  V30 1971 H 195.717 -1.19404 1.20586 0
M  V30 1972 H 194.489 -2.97936 2.53672 0
M  V30 1973 H 194.112 -3.83478 1.05026 0
M  V30 1974 N 195.109 -0.891671 -1.2995 0
M  V30 1975 C 196.52 -0.563104 -1.78006 0
M  V30 1976 C 196.871 0.920978 -1.73241 0
M  V30 1977 O 195.996 1.71987 -1.31337 0
M  V30 1978 C 196.591 -1.01539 -3.23226 0
M  V30 1979 C 195.15 -0.738124 -3.69092 0
M  V30 1980 C 194.297 -1.19461 -2.50249 0
M  V30 1981 H 197.248 -1.07522 -1.16725 0
M  V30 1982 H 197.269 -0.347217 -3.78912 0
M  V30 1983 H 196.781 -2.09555 -3.26662 0
M  V30 1984 H 194.882 0.329766 -3.71138 0
M  V30 1985 H 194.995 -1.33037 -4.60259 0
M  V30 1986 H 193.359 -0.613787 -2.47194 0
M  V30 1987 H 194.142 -2.28265 -2.56417 0
M  V30 1988 N 196.587 1.43421 -0.653314 0
M  V30 1989 C 197.998 1.85065 -0.246537 0
M  V30 1990 C 198.349 1.54688 1.2069 0
M  V30 1991 O 197.474 0.995896 1.92122 0
M  V30 1992 C 198.069 3.35922 -0.440666 0
M  V30 1993 C 196.628 3.76297 -0.0882064 0
M  V30 1994 C 195.775 2.67147 -0.743484 0
M  V30 1995 H 198.726 1.33572 -0.856979 0
M  V30 1996 H 198.747 3.79204 0.313798 0
M  V30 1997 H 198.259 3.58 -1.49858 0
M  V30 1998 H 196.36 3.5983 0.96711 0
M  V30 1999 H 196.473 4.76338 -0.513738 0
M  V30 2000 H 194.837 2.54086 -0.176712 0
M  V30 2001 H 195.62 2.92053 -1.80443 0
M  V30 2002 N 198.065 0.39524 1.52563 0
M  V30 2003 C 198.995 -0.428384 2.29537 0
M  V30 2004 C 199.976 -1.05831 1.33169 0
M  V30 2005 O 201.161 -1.06995 1.62067 0
M  V30 2006 C 198.291 -1.55274 3.10656 0
M  V30 2007 C 197.245 -1.04855 4.14957 0
M  V30 2008 C 196.571 -2.26543 4.84337 0
M  V30 2009 C 197.871 -0.112324 5.22179 0
M  V30 2010 H 199.565 0.213867 2.98635 0
M  V30 2011 H 197.111 0.104298 1.43622 0
M  V30 2012 H 199.064 -2.1358 3.63265 0
M  V30 2013 H 197.788 -2.22266 2.39302 0
M  V30 2014 H 196.447 -0.487985 3.63338 0
M  V30 2015 H 196.095 -2.92059 4.09525 0
M  V30 2016 H 195.795 -1.93466 5.54837 0
M  V30 2017 H 197.319 -2.85481 5.39753 0
M  V30 2018 H 198.733 -0.603752 5.70112 0
M  V30 2019 H 197.13 0.128968 5.99961 0
M  V30 2020 H 198.2 0.837052 4.77621 0
M  V30 2021 N 199.544 -1.57102 0.125237 0
M  V30 2022 C 200.769 -2.0019 -0.542101 0
M  V30 2023 C 201.194 -1.00449 -1.59034 0
M  V30 2024 O 200.552 0.0229423 -1.81285 0
M  V30 2025 C 200.6 -3.42129 -1.13929 0
M  V30 2026 O 199.704 -3.45307 -2.2547 0
M  V30 2027 H 199.045 -0.650171 -0.134812 0
M  V30 2028 H 201.575 -2.03461 0.215553 0
M  V30 2029 H 201.585 -3.80471 -1.4733 0
M  V30 2030 H 200.26 -4.14237 -0.371531 0
M  V30 2031 H 198.837 -3.1879 -1.93462 0
M  V30 2032 N 201.022 0.148545 -1.56898 0
M  V30 2033 C 201.955 1.21293 -1.93296 0
M  V30 2034 C 202.933 1.41637 -0.798599 0
M  V30 2035 O 204.117 1.56275 -1.05406 0
M  V30 2036 C 201.244 2.5721 -2.20365 0
M  V30 2037 C 200.29 2.53469 -3.4301 0
M  V30 2038 S 201.123 2.00315 -4.96623 0
M  V30 2039 C 202.279 3.37964 -5.26812 0
M  V30 2040 H 202.512 0.902393 -2.83274 0
M  V30 2041 H 200.045 0.354094 -1.50285 0
M  V30 2042 H 202.003 3.35427 -2.36641 0
M  V30 2043 H 200.664 2.85454 -1.31054 0
M  V30 2044 H 199.857 3.53518 -3.59223 0
M  V30 2045 H 199.459 1.83359 -3.25968 0
M  V30 2046 H 201.751 4.34066 -5.20185 0
M  V30 2047 H 202.694 3.26606 -6.28279 0
M  V30 2048 H 203.102 3.35028 -4.54331 0
M  V30 2049 N 202.5 1.5196 0.417844 0
M  V30 2050 C 203.916 1.40569 0.755816 0
M  V30 2051 C 204.116 0.503316 1.95113 0
M  V30 2052 O 203.172 -0.0341925 2.52477 0
M  V30 2053 C 204.485 2.82947 1.01791 0
M  V30 2054 C 206.033 2.92231 1.12116 0
M  V30 2055 C 206.508 4.35559 1.41608 0
M  V30 2056 N 207.999 4.38753 1.48491 0
M  V30 2057 C 208.734 5.46705 1.7292 0
M  V30 2058 N 208.23 6.64788 1.95011 0
M  V30 2059 N 210.023 5.34209 1.74863 0
M  V30 2060 H 202.174 2.09168 -0.369098 0
M  V30 2061 H 204.437 0.942409 -0.102809 0
M  V30 2062 H 204.143 3.5106 0.212081 0
M  V30 2063 H 204.017 3.23462 1.94042 0
M  V30 2064 H 206.404 2.24304 1.9176 0
M  V30 2065 H 206.485 2.55185 0.177225 0
M  V30 2066 H 206.129 5.04042 0.624848 0
M  V30 2067 H 206.059 4.70133 2.37239 0
M  V30 2068 H 208.55 3.5363 1.33244 0
M  V30 2069 H 208.863 7.42845 2.13076 0
M  V30 2070 H 207.208 6.67869 1.92293 0
M  V30 2071 H 210.399 4.40937 1.57137 0
M  V30 2072 H 210.572 6.18415 1.93563 0
M  V30 2073 N 203.978 -0.674533 1.42435 0
M  V30 2074 C 204.911 -1.79924 1.40366 0
M  V30 2075 C 205.889 -1.60378 0.267899 0
M  V30 2076 O 207.073 -1.82847 0.458159 0
M  V30 2077 C 204.2 -3.16927 1.19478 0
M  V30 2078 C 203.246 -3.55221 2.36051 0
M  V30 2079 S 204.079 -3.5762 3.98583 0
M  V30 2080 C 205.235 -4.97315 3.80038 0
M  V30 2081 H 205.468 -1.81405 2.35541 0
M  V30 2082 H 203.001 -0.845221 1.29211 0
M  V30 2083 H 204.959 -3.96007 1.08114 0
M  V30 2084 H 203.62 -3.13031 0.258883 0
M  V30 2085 H 202.813 -4.54804 2.17185 0
M  V30 2086 H 202.415 -2.83502 2.43932 0
M  V30 2087 H 204.707 -5.85401 3.41045 0
M  V30 2088 H 205.65 -5.21228 4.79298 0
M  V30 2089 H 206.058 -4.69845 3.12899 0
M  V30 2090 N 205.456 -1.28612 -0.910864 0
M  V30 2091 C 206.872 -1.06381 -1.18976 0
M  V30 2092 C 207.072 0.191998 -2.00583 0
M  V30 2093 O 206.128 0.892869 -2.36187 0
M  V30 2094 C 207.441 -2.31295 -1.92154 0
M  V30 2095 C 208.989 -2.36503 -2.05025 0
M  V30 2096 C 209.464 -3.61191 -2.81612 0
M  V30 2097 N 210.955 -3.61847 -2.89172 0
M  V30 2098 C 211.69 -4.55004 -3.4894 0
M  V30 2099 N 211.186 -5.58482 -4.09963 0
M  V30 2100 N 212.979 -4.42594 -3.46506 0
M  V30 2101 H 205.13 -2.09221 -0.366094 0
M  V30 2102 H 207.393 -0.921003 -0.224629 0
M  V30 2103 H 207.099 -3.228 -1.39618 0
M  V30 2104 H 206.973 -2.37934 -2.9269 0
M  V30 2105 H 209.36 -1.45494 -2.5674 0
M  V30 2106 H 209.441 -2.33857 -1.03657 0
M  V30 2107 H 209.085 -4.52545 -2.30576 0
M  V30 2108 H 209.015 -3.61092 -3.83302 0
M  V30 2109 H 211.506 -2.87022 -2.45819 0
M  V30 2110 H 211.819 -6.25704 -4.53557 0
M  V30 2111 H 210.164 -5.62305 -4.08459 0
M  V30 2112 H 213.355 -3.60953 -2.98045 0
M  V30 2113 H 213.528 -5.15381 -3.92793 0
M  V30 2114 N 206.934 1.1197 -1.10907 0
M  V30 2115 C 208.159 1.87942 -0.877064 0
M  V30 2116 C 208.584 1.79341 0.567314 0
M  V30 2117 O 207.942 1.15184 1.40009 0
M  V30 2118 C 207.99 3.34926 -1.33629 0
M  V30 2119 O 207.094 4.09303 -0.504447 0
M  V30 2120 H 206.435 0.583785 -0.316371 0
M  V30 2121 H 208.965 1.4157 -1.47712 0
M  V30 2122 H 208.975 3.8577 -1.32837 0
M  V30 2123 H 207.65 3.40504 -2.3881 0
M  V30 2124 H 206.227 3.68393 -0.577993 0
M  V30 2125 N 208.412 0.89855 1.29475 0
M  V30 2126 C 209.658 0.524658 1.95896 0
M  V30 2127 C 209.991 -0.926468 1.70676 0
M  V30 2128 O 209.266 -1.65665 1.01908 0
M  V30 2129 C 209.549 0.81633 3.50725 0
M  V30 2130 C 209.402 2.31907 3.85408 0
M  V30 2131 C 210.721 0.302038 4.39062 0
M  V30 2132 H 207.84 0.19209 0.711527 0
M  V30 2133 H 210.482 1.12502 1.53112 0
M  V30 2134 H 208.632 0.305369 3.87298 0
M  V30 2135 H 210.304 2.89949 3.58786 0
M  V30 2136 H 208.547 2.78027 3.32992 0
M  V30 2137 H 209.218 2.47373 4.93468 0
M  V30 2138 H 211.694 0.739551 4.09475 0
M  V30 2139 H 210.57 0.535331 5.46283 0
M  V30 2140 H 210.831 -0.797216 4.34853 0
M  V30 2141 N 209.89 -1.43072 0.660911 0
M  V30 2142 C 210.8 -2.34585 -0.0264163 0
M  V30 2143 C 211.816 -1.54316 -0.803898 0
M  V30 2144 O 212.992 -1.86939 -0.749391 0
M  V30 2145 C 210.057 -3.32689 -0.975639 0
M  V30 2146 C 209.118 -4.2886 -0.194236 0
M  V30 2147 C 208.351 -5.22278 -1.09825 0
M  V30 2148 O 208.574 -5.20299 -2.33763 0
M  V30 2149 O 207.508 -5.99228 -0.566513 0
M  V30 2150 H 211.334 -2.94869 0.727034 0
M  V30 2151 H 208.919 -1.43342 0.42111 0
M  V30 2152 H 210.801 -3.92995 -1.52094 0
M  V30 2153 H 209.476 -2.74898 -1.70918 0
M  V30 2154 H 208.383 -3.72011 0.394835 0
M  V30 2155 H 209.716 -4.89655 0.499899 0
M  V30 2156 N 211.368 -0.403325 -1.52352 0
M  V30 2157 C 212.278 0.432009 -2.30588 0
M  V30 2158 C 213.294 1.05884 -1.38075 0
M  V30 2159 O 214.47 1.06161 -1.71148 0
M  V30 2160 C 211.535 1.53669 -3.10784 0
M  V30 2161 C 210.596 0.933525 -4.19027 0
M  V30 2162 C 209.829 1.98557 -4.9539 0
M  V30 2163 O 210.052 3.20283 -4.71991 0
M  V30 2164 O 208.986 1.59504 -5.80381 0
M  V30 2165 H 212.812 -0.205739 -3.03002 0
M  V30 2166 H 210.397 -0.166675 -1.48467 0
M  V30 2167 H 212.279 2.17814 -3.60742 0
M  V30 2168 H 210.954 2.15915 -2.41169 0
M  V30 2169 H 209.861 0.254954 -3.7323 0
M  V30 2170 H 211.194 0.35508 -4.90918 0
M  V30 2171 N 212.846 1.57033 -0.133567 0
M  V30 2172 C 213.776 2.1909 0.807567 0
M  V30 2173 C 214.757 1.13517 1.26681 0
M  V30 2174 O 215.942 1.41809 1.32679 0
M  V30 2175 C 213.072 2.80188 2.05212 0
M  V30 2176 C 212.026 3.91471 1.73015 0
M  V30 2177 C 211.352 4.39443 3.04622 0
M  V30 2178 C 212.652 5.12886 0.987168 0
M  V30 2179 H 214.346 2.97988 0.290403 0
M  V30 2180 H 211.892 1.43335 0.138239 0
M  V30 2181 H 213.845 3.22264 2.71521 0
M  V30 2182 H 212.569 1.98601 2.59278 0
M  V30 2183 H 211.228 3.49993 1.0909 0
M  V30 2184 H 210.876 3.54695 3.56651 0
M  V30 2185 H 210.576 5.14495 2.83847 0
M  V30 2186 H 212.1 4.8418 3.72024 0
M  V30 2187 H 213.514 5.51891 1.55208 0
M  V30 2188 H 211.911 5.93615 0.87985 0
M  V30 2189 H 212.981 4.84894 -0.0235286 0
M  V30 2190 N 214.325 -0.140222 1.56975 0
M  V30 2191 C 215.553 -0.866437 1.87884 0
M  V30 2192 C 215.968 -1.74428 0.722517 0
M  V30 2193 O 215.325 -1.79891 -0.30749 0
M  V30 2194 C 215.376 -1.71753 3.18093 0
M  V30 2195 O 215.097 -0.875056 4.29272 0
M  V30 2196 C 216.598 -2.55074 3.62563 0
M  V30 2197 H 213.818 -0.25019 0.622612 0
M  V30 2198 H 216.362 -0.130977 2.0408 0
M  V30 2199 H 214.517 -2.40598 3.03631 0
M  V30 2200 H 214.931 -1.46002 5.03769 0
M  V30 2201 H 216.405 -3.10356 4.5649 0
M  V30 2202 H 216.882 -3.31434 2.88181 0
M  V30 2203 H 217.488 -1.91509 3.79743 0
M  V30 2204 N 215.803 -1.52179 -0.40978 0
M  V30 2205 C 216.735 -1.71703 -1.51825 0
M  V30 2206 C 217.748 -0.597445 -1.51441 0
M  V30 2207 O 218.937 -0.872582 -1.55719 0
M  V30 2208 C 216.037 -1.74171 -2.90719 0
M  V30 2209 C 215.21 -3.03156 -3.15302 0
M  V30 2210 C 214.269 -2.97445 -4.34065 0
M  V30 2211 O 213.295 -3.71352 -4.31377 0
M  V30 2212 N 214.497 -2.15191 -5.39141 0
M  V30 2213 H 217.262 -2.67334 -1.35472 0
M  V30 2214 H 214.823 -1.50409 -0.599069 0
M  V30 2215 H 216.815 -1.67884 -3.68235 0
M  V30 2216 H 215.385 -0.860166 -3.00533 0
M  V30 2217 H 214.605 -3.23097 -2.25836 0
M  V30 2218 H 215.893 -3.88484 -3.28569 0
M  V30 2219 H 215.291 -1.54573 -5.44173 0
M  V30 2220 H 213.848 -2.1476 -6.15403 0
M  V30 2221 N 217.281 0.66697 -1.42791 0
M  V30 2222 C 218.528 1.42699 -1.43678 0
M  V30 2223 C 218.856 1.94419 -0.0560425 0
M  V30 2224 O 218.111 1.7182 0.936831 0
M  V30 2225 C 218.41 2.6349 -2.4147 0
M  V30 2226 C 218.076 2.30267 -3.8767 0
M  V30 2227 C 216.738 2.20918 -4.27491 0
M  V30 2228 C 219.09 2.03435 -4.79858 0
M  V30 2229 C 216.418 1.82873 -5.57471 0
M  V30 2230 C 218.77 1.66892 -6.10188 0
M  V30 2231 C 217.434 1.56058 -6.49001 0
M  V30 2232 H 216.704 0.522171 -0.525755 0
M  V30 2233 H 219.351 0.759785 -1.75783 0
M  V30 2234 H 217.656 3.35279 -2.0272 0
M  V30 2235 H 219.353 3.21684 -2.39417 0
M  V30 2236 H 215.943 2.38449 -3.56146 0
M  V30 2237 H 220.127 2.09586 -4.49875 0
M  V30 2238 H 215.383 1.7306 -5.86396 0
M  V30 2239 H 219.557 1.45157 -6.81104 0
M  V30 2240 H 217.184 1.26348 -7.49627 0
M  V30 2241 N 218.759 1.29093 0.90403 0
M  V30 2242 C 220.006 1.16813 1.65411 0
M  V30 2243 C 220.334 -0.28128 1.92455 0
M  V30 2244 O 219.589 -1.22006 1.53013 0
M  V30 2245 C 219.888 1.92224 3.01305 0
M  V30 2246 C 219.554 3.41968 2.93885 0
M  V30 2247 C 218.216 3.82807 2.91569 0
M  V30 2248 C 220.568 4.37409 2.83413 0
M  V30 2249 C 217.896 5.1741 2.76594 0
M  V30 2250 C 220.248 5.72097 2.69977 0
M  V30 2251 C 218.912 6.12199 2.66024 0
M  V30 2252 H 218.182 0.42745 0.605283 0
M  V30 2253 H 220.829 1.59981 1.05254 0
M  V30 2254 H 219.134 1.41635 3.65304 0
M  V30 2255 H 220.831 1.80131 3.58265 0
M  V30 2256 H 217.421 3.09504 2.96488 0
M  V30 2257 H 221.605 4.06813 2.84283 0
M  V30 2258 H 216.861 5.47596 2.71935 0
M  V30 2259 H 221.035 6.45704 2.60844 0
M  V30 2260 H 218.662 7.16448 2.54178 0
M  V30 2261 N 220.237 -1.11381 1.11499 0
M  V30 2262 C 221.167 -2.19509 0.796125 0
M  V30 2263 C 222.148 -1.68458 -0.235796 0
M  V30 2264 O 223.333 -1.93947 -0.0991344 0
M  V30 2265 C 220.463 -3.46475 0.239205 0
M  V30 2266 C 219.417 -4.10744 1.20307 0
M  V30 2267 C 218.743 -5.32293 0.50683 0
M  V30 2268 C 220.043 -4.55597 2.55399 0
M  V30 2269 H 221.737 -2.46439 1.70024 0
M  V30 2270 H 219.283 -1.18446 0.818935 0
M  V30 2271 H 221.236 -4.214 0.00392006 0
M  V30 2272 H 219.96 -3.19006 -0.700206 0
M  V30 2273 H 218.619 -3.37813 1.42399 0
M  V30 2274 H 218.267 -5.01095 -0.437408 0
M  V30 2275 H 217.967 -5.76243 1.1497 0
M  V30 2276 H 219.491 -6.09956 0.280351 0
M  V30 2277 H 220.905 -5.21841 2.37391 0
M  V30 2278 H 219.302 -5.10363 3.15673 0
M  V30 2279 H 220.372 -3.69013 3.14575 0
M  V30 2280 N 221.715 -0.905404 -1.28997 0
M  V30 2281 C 223.131 -0.60233 -1.47798 0
M  V30 2282 C 223.331 0.854645 -1.82478 0
M  V30 2283 O 222.387 1.63439 -1.92468 0
M  V30 2284 C 223.7 -1.53306 -2.58685 0
M  V30 2285 C 225.248 -1.53887 -2.72558 0
M  V30 2286 C 225.723 -2.45602 -3.86579 0
M  V30 2287 N 227.214 -2.43681 -3.93921 0
M  V30 2288 C 227.949 -3.11347 -4.81509 0
M  V30 2289 N 227.445 -3.88313 -5.73746 0
M  V30 2290 N 229.238 -3.00476 -4.75048 0
M  V30 2291 H 221.389 -1.84765 -1.04764 0
M  V30 2292 H 223.652 -0.792025 -0.520961 0
M  V30 2293 H 223.358 -2.57141 -2.39941 0
M  V30 2294 H 223.232 -1.25787 -3.55609 0
M  V30 2295 H 225.619 -0.507941 -2.90696 0
M  V30 2296 H 225.7 -1.85447 -1.76191 0
M  V30 2297 H 225.344 -3.48792 -3.69197 0
M  V30 2298 H 225.274 -2.11349 -4.82327 0
M  V30 2299 H 227.765 -1.87767 -3.27951 0
M  V30 2300 H 228.078 -4.36985 -6.37389 0
M  V30 2301 H 226.423 -3.92419 -5.73614 0
M  V30 2302 H 229.614 -2.39858 -4.01977 0
M  V30 2303 H 229.787 -3.53485 -5.43095 0
M  V30 2304 N 223.193 1.4272 -0.668489 0
M  V30 2305 C 224.103 2.34596 0.0139753 0
M  V30 2306 C 225.119 1.5474 0.795703 0
M  V30 2307 O 226.295 1.87334 0.739466 0
M  V30 2308 C 223.36 3.33202 0.957982 0
M  V30 2309 C 222.421 4.28957 0.17149 0
M  V30 2310 C 221.654 5.22853 1.07053 0
M  V30 2311 O 221.877 5.21531 2.31001 0
M  V30 2312 O 220.811 5.9952 0.534727 0
M  V30 2313 H 224.637 2.9448 -0.742661 0
M  V30 2314 H 222.222 1.43117 -0.428705 0
M  V30 2315 H 224.104 3.93796 1.50008 0
M  V30 2316 H 222.779 2.758 1.69458 0
M  V30 2317 H 221.686 3.71796 -0.414558 0
M  V30 2318 H 223.019 4.89383 -0.52586 0
M  V30 2319 N 224.671 0.411399 1.52136 0
M  V30 2320 C 225.92 -0.165009 2.01024 0
M  V30 2321 C 226.233 -1.4603 1.30133 0
M  V30 2322 O 227.439 -2.1181 1.69849 0
M  V30 2323 C 225.895 -0.344618 3.58246 0
M  V30 2324 C 225.503 0.938716 4.38055 0
M  V30 2325 C 227.247 -0.876195 4.15359 0
M  V30 2326 C 225.154 0.726172 5.86925 0
M  V30 2327 H 224.084 -0.0654407 0.751155 0
M  V30 2328 H 226.735 0.537192 1.75461 0
M  V30 2329 H 225.117 -1.10921 3.80148 0
M  V30 2330 H 226.291 1.70963 4.27912 0
M  V30 2331 H 224.606 1.39688 3.92271 0
M  V30 2332 H 227.203 -1.05128 5.24263 0
M  V30 2333 H 227.546 -1.85152 3.7286 0
M  V30 2334 H 228.079 -0.170607 3.97434 0
M  V30 2335 H 224.818 1.67312 6.33788 0
M  V30 2336 H 224.338 -0.00540283 5.998 0
M  V30 2337 H 226.017 0.369231 6.45946 0
M  V30 2338 N 226.149 -1.5696 0.141893 0
M  V30 2339 C 227.081 -2.13619 -0.830627 0
M  V30 2340 C 228.094 -1.08439 -1.21428 0
M  V30 2341 O 229.283 -1.35734 -1.15925 0
M  V30 2342 C 226.383 -2.63978 -2.12529 0
M  V30 2343 C 225.556 -3.93504 -1.9098 0
M  V30 2344 C 224.615 -4.29225 -3.04388 0
M  V30 2345 O 223.641 -4.97641 -2.76302 0
M  V30 2346 N 224.843 -3.88393 -4.31429 0
M  V30 2347 H 227.608 -2.97691 -0.34641 0
M  V30 2348 H 225.169 -1.61846 -0.0418375 0
M  V30 2349 H 227.161 -2.84891 -2.87436 0
M  V30 2350 H 225.731 -1.84659 -2.52229 0
M  V30 2351 H 224.951 -3.81269 -1.00139 0
M  V30 2352 H 226.239 -4.78154 -1.73914 0
M  V30 2353 H 225.637 -3.33257 -4.57117 0
M  V30 2354 H 224.194 -4.14368 -5.03133 0
M  V30 2355 N 227.627 0.131896 -1.57047 0
M  V30 2356 C 228.577 1.1679 -1.95816 0
M  V30 2357 C 229.561 1.37756 -0.831393 0
M  V30 2358 O 230.753 1.39065 -1.09499 0
M  V30 2359 C 227.882 2.49778 -2.35512 0
M  V30 2360 C 226.968 2.32342 -3.54793 0
M  V30 2361 N 227.359 1.8469 -4.70875 0
M  V30 2362 C 225.657 2.63043 -3.60173 0
M  V30 2363 C 226.358 1.80656 -5.52936 0
M  V30 2364 N 225.334 2.24528 -4.95064 0
M  V30 2365 H 229.136 0.791818 -2.83033 0
M  V30 2366 H 226.65 0.339791 -1.58805 0
M  V30 2367 H 228.647 3.24692 -2.61498 0
M  V30 2368 H 227.307 2.88156 -1.49654 0
M  V30 2369 H 228.318 1.54429 -4.9434 0
M  V30 2370 H 224.995 3.05193 -2.84892 0
M  V30 2371 H 226.385 1.45178 -6.56028 0
M  V30 2372 N 229.106 1.52395 0.401703 0
M  V30 2373 C 230.354 1.66488 1.14569 0
M  V30 2374 C 230.675 0.400897 1.90835 0
M  V30 2375 O 229.945 -0.584415 1.8698 0
M  V30 2376 H 228.525 0.613672 0.425929 0
M  V30 2377 H 231.187 1.89464 0.457093 0
M  V30 2378 H 230.283 2.50942 1.85566 0
M  V30 2379 N 230.584 -0.659388 1.43143 0
M  V30 2380 C 231.833 -1.41518 1.43721 0
M  V30 2381 C 232.146 -1.95499 0.0628176 0
M  V30 2382 O 233.352 -2.71446 -0.0539683 0
M  V30 2383 C 231.808 -2.5608 2.52885 0
M  V30 2384 C 231.416 -2.08733 3.96402 0
M  V30 2385 C 233.16 -3.3349 2.62649 0
M  V30 2386 C 231.067 -3.20469 4.97045 0
M  V30 2387 H 229.997 -0.531705 0.534608 0
M  V30 2388 H 232.648 -0.712343 1.69109 0
M  V30 2389 H 231.03 -3.28805 2.20688 0
M  V30 2390 H 232.204 -1.43059 4.3803 0
M  V30 2391 H 230.519 -1.44219 3.90627 0
M  V30 2392 H 233.116 -4.16734 3.35017 0
M  V30 2393 H 233.459 -3.8111 1.67513 0
M  V30 2394 H 233.992 -2.67842 2.94118 0
M  V30 2395 H 230.731 -2.77824 5.93712 0
M  V30 2396 H 230.251 -3.84874 4.60034 0
M  V30 2397 H 231.93 -3.85698 5.19467 0
M  V30 2398 N 232.062 -1.29571 -0.897171 0
M  V30 2399 C 232.972 -1.16808 -2.03453 0
M  V30 2400 C 233.988 -0.0907471 -1.73763 0
M  V30 2401 O 235.164 -0.303312 -1.99103 0
M  V30 2402 C 232.229 -0.848264 -3.36163 0
M  V30 2403 C 231.29 -2.0097 -3.79354 0
M  V30 2404 C 230.523 -1.70505 -5.05731 0
M  V30 2405 O 230.746 -0.62718 -5.66941 0
M  V30 2406 O 229.68 -2.5538 -5.45036 0
M  V30 2407 H 233.506 -2.12325 -2.17144 0
M  V30 2408 H 231.091 -1.09047 -1.02123 0
M  V30 2409 H 232.973 -0.684581 -4.15802 0
M  V30 2410 H 231.648 0.0771071 -3.23608 0
M  V30 2411 H 230.555 -2.22863 -3.00471 0
M  V30 2412 H 231.888 -2.91636 -3.96496 0
M  V30 2413 N 233.54 1.10788 -1.12088 0
M  V30 2414 C 234.817 1.79136 -0.785476 0
M  V30 2415 C 235.197 1.98246 0.725377 0
M  V30 2416 O 234.545 1.57258 1.65778 0
M  V30 2417 C 234.755 3.12375 -1.55636 0
M  V30 2418 C 236.103 3.8731 -1.74001 0
M  V30 2419 O 237.127 3.22085 -1.52117 0
M  V30 2420 O 235.986 5.04369 -2.10415 0
M  V30 2421 H 233.08 0.776226 -0.285311 0
M  V30 2422 H 235.626 1.1747 -1.2247 0
M  V30 2423 H 234.398 2.93863 -2.5838 0
M  V30 2424 H 234.021 3.81758 -1.11114 0
M  V30 2425 N 235.018 0.912232 1.28515 0
M  V30 2426 C 236.246 0.560416 1.99166 0
M  V30 2427 C 236.661 -0.857927 1.68182 0
M  V30 2428 O 236.018 -1.56805 0.933733 0
M  V30 2429 C 236.069 0.758142 3.53461 0
M  V30 2430 O 235.79 2.12067 3.83352 0
M  V30 2431 C 237.291 0.412954 4.41372 0
M  V30 2432 H 234.511 0.213805 0.636026 0
M  V30 2433 H 237.055 1.22502 1.63749 0
M  V30 2434 H 235.21 0.140556 3.87145 0
M  V30 2435 H 235.624 2.15923 4.77993 0
M  V30 2436 H 237.098 0.60208 5.48707 0
M  V30 2437 H 237.575 -0.65073 4.34353 0
M  V30 2438 H 238.181 1.00802 4.13182 0
M  V30 2439 N 236.496 -1.42363 0.676048 0
M  V30 2440 C 237.744 -2.01123 0.198437 0
M  V30 2441 C 238.065 -1.53731 -1.19966 0
M  V30 2442 O 237.335 -0.759518 -1.80577 0
M  V30 2443 H 235.915 -0.743678 0.0703721 0
M  V30 2444 H 238.577 -1.74263 0.872837 0
M  V30 2445 H 237.673 -3.11454 0.200686 0
M  V30 2446 N 237.974 -0.419461 -1.51915 0
M  V30 2447 C 239.223 0.154346 -2.01109 0
M  V30 2448 C 239.536 1.45338 -1.30905 0
M  V30 2449 O 240.742 2.10906 -1.7097 0
M  V30 2450 C 239.198 0.325615 -3.58424 0
M  V30 2451 C 238.806 -0.961934 -4.37551 0
M  V30 2452 C 240.55 0.854155 -4.15818 0
M  V30 2453 C 238.457 -0.757287 -5.86531 0
M  V30 2454 H 237.387 0.0614563 -0.751491 0
M  V30 2455 H 240.038 -0.54649 -1.75173 0
M  V30 2456 H 238.42 1.08903 -3.80731 0
M  V30 2457 H 239.594 -1.7323 -4.26999 0
M  V30 2458 H 237.909 -1.41766 -3.91524 0
M  V30 2459 H 240.506 1.02346 -5.24814 0
M  V30 2460 H 240.849 1.83172 -3.73837 0
M  V30 2461 H 241.382 0.149528 -3.97519 0
M  V30 2462 H 238.121 -1.70671 -6.32892 0
M  V30 2463 H 237.641 -0.0264061 -5.99794 0
M  V30 2464 H 239.32 -0.403482 -6.45741 0
M  V30 2465 N 239.452 1.56882 -0.150215 0
M  V30 2466 C 240.868 1.58263 0.20617 0
M  V30 2467 C 241.068 1.16464 1.64434 0
M  V30 2468 O 240.124 0.866422 2.3717 0
M  V30 2469 C 241.437 3.00649 -0.0555025 0
M  V30 2470 C 242.985 3.12999 0.00795388 0
M  V30 2471 C 243.46 4.5744 -0.226429 0
M  V30 2472 N 244.951 4.62875 -0.173469 0
M  V30 2473 C 245.686 5.72454 -0.329288 0
M  V30 2474 N 245.182 6.90669 -0.543005 0
M  V30 2475 N 246.975 5.61467 -0.266666 0
M  V30 2476 H 239.126 1.82345 -1.08922 0
M  V30 2477 H 241.389 0.844149 -0.431413 0
M  V30 2478 H 241.095 3.3563 -1.05096 0
M  V30 2479 H 240.969 3.71337 0.66246 0
M  V30 2480 H 243.356 2.77857 0.993966 0
M  V30 2481 H 243.437 2.4479 -0.742388 0
M  V30 2482 H 243.081 4.93287 -1.20956 0
M  V30 2483 H 243.011 5.2378 0.544274 0
M  V30 2484 H 245.502 3.77898 -0.0130709 0
M  V30 2485 H 245.815 7.70045 -0.651922 0
M  V30 2486 H 244.16 6.92581 -0.579366 0
M  V30 2487 H 247.351 4.67992 -0.100441 0
M  V30 2488 H 247.524 6.46816 -0.391535 0
M  V30 2489 N 240.93 -0.123565 1.57115 0
M  V30 2490 C 241.893 -1.13583 1.99076 0
M  V30 2491 C 242.893 -1.34564 0.880296 0
M  V30 2492 O 244.083 -1.31158 1.14644 0
M  V30 2493 C 241.215 -2.49128 2.32698 0
M  V30 2494 H 242.408 -0.775287 2.89706 0
M  V30 2495 H 239.961 -0.36771 1.51913 0
M  V30 2496 H 240.696 -2.90111 1.44934 0
M  V30 2497 H 240.481 -2.35255 3.13684 0
M  V30 2498 H 241.971 -3.2199 2.65918 0
M  V30 2499 N 242.408 -1.52605 -0.393616 0
M  V30 2500 C 243.656 -1.67093 -1.13685 0
M  V30 2501 C 243.977 -0.411011 -1.90619 0
M  V30 2502 O 243.247 0.574491 -1.87287 0
M  V30 2503 H 241.827 -0.615923 -0.422668 0
M  V30 2504 H 244.489 -1.89704 -0.447039 0
M  V30 2505 H 243.585 -2.51922 -1.84232 0
M  V30 2506 N 243.887 0.651787 -1.4349 0
M  V30 2507 C 245.136 1.40754 -1.44469 0
M  V30 2508 C 245.449 1.95463 -0.0731845 0
M  V30 2509 O 246.655 2.71471 0.0395721 0
M  V30 2510 C 245.111 2.54735 -2.5424 0
M  V30 2511 C 244.719 2.06628 -3.97504 0
M  V30 2512 C 246.463 3.32092 -2.64414 0
M  V30 2513 C 244.37 3.17829 -4.98737 0
M  V30 2514 H 243.3 0.528862 -0.53742 0
M  V30 2515 H 245.951 0.703365 -1.69485 0
M  V30 2516 H 244.333 3.2763 -2.22428 0
M  V30 2517 H 245.507 1.40734 -4.38783 0
M  V30 2518 H 243.822 1.42146 -3.91387 0
M  V30 2519 H 246.419 4.14952 -3.37223 0
M  V30 2520 H 246.762 3.80217 -1.69532 0
M  V30 2521 H 247.295 2.66279 -2.95534 0
M  V30 2522 H 244.034 2.74671 -5.95177 0
M  V30 2523 H 243.554 3.82429 -4.62069 0
M  V30 2524 H 245.233 3.82937 -5.21505 0
M  V30 2525 N 245.365 1.30045 0.890287 0
M  V30 2526 C 246.614 1.17929 1.63633 0
M  V30 2527 C 246.927 -0.266204 1.9378 0
M  V30 2528 O 248.133 -0.508804 2.6669 0
M  V30 2529 C 246.589 2.06317 2.94892 0
M  V30 2530 C 246.197 3.55745 2.72305 0
M  V30 2531 C 247.941 2.0295 3.72843 0
M  V30 2532 C 245.848 4.36205 3.99348 0
M  V30 2533 H 244.778 0.437782 0.613892 0
M  V30 2534 H 247.429 1.54754 0.986075 0
M  V30 2535 H 245.811 1.6237 3.61182 0
M  V30 2536 H 246.985 4.07805 2.1455 0
M  V30 2537 H 245.3 3.6088 2.07737 0
M  V30 2538 H 247.897 2.60319 4.67053 0
M  V30 2539 H 248.24 1.0117 4.0382 0
M  V30 2540 H 248.773 2.4499 3.13408 0
M  V30 2541 H 245.512 5.38659 3.73533 0
M  V30 2542 H 245.032 3.8891 4.56628 0
M  V30 2543 H 246.711 4.47362 4.67415 0
M  V30 2544 N 246.843 -1.10192 1.12674 0
M  V30 2545 C 247.79 -2.16606 0.796906 0
M  V30 2546 C 248.76 -1.64394 -0.237476 0
M  V30 2547 O 249.945 -1.90474 -0.111484 0
M  V30 2548 C 247.085 -3.44116 0.26043 0
M  V30 2549 C 246.198 -4.10268 1.35293 0
M  V30 2550 C 245.333 -5.25507 0.775621 0
M  V30 2551 C 244.372 -5.83567 1.84706 0
M  V30 2552 N 243.509 -6.90179 1.28829 0
M  V30 2553 H 248.349 -2.44163 1.70846 0
M  V30 2554 H 245.886 -1.19846 0.85295 0
M  V30 2555 H 247.844 -4.17143 -0.0686814 0
M  V30 2556 H 246.474 -3.16901 -0.614274 0
M  V30 2557 H 245.526 -3.35184 1.79877 0
M  V30 2558 H 246.838 -4.4946 2.16303 0
M  V30 2559 H 245.992 -6.05398 0.397327 0
M  V30 2560 H 244.731 -4.87656 -0.0656581 0
M  V30 2561 H 243.736 -5.02344 2.23452 0
M  V30 2562 H 244.961 -6.23482 2.69161 0
M  V30 2563 H 242.907 -6.54322 0.468881 0
M  V30 2564 H 242.824 -7.28097 2.03497 0
M  V30 2565 H 244.092 -7.73844 0.937311 0
M  V30 2566 N 248.321 -0.919034 -1.28029 0
M  V30 2567 C 249.567 -0.555757 -1.95036 0
M  V30 2568 C 249.9 0.899198 -1.72128 0
M  V30 2569 O 249.175 1.64023 -1.04531 0
M  V30 2570 C 249.458 -0.872024 -3.49382 0
M  V30 2571 C 249.311 -2.3801 -3.81669 0
M  V30 2572 C 250.63 -0.37185 -4.38526 0
M  V30 2573 H 247.749 -0.203386 -0.708381 0
M  V30 2574 H 250.391 -1.14924 -1.51303 0
M  V30 2575 H 248.541 -0.366946 -3.86763 0
M  V30 2576 H 250.213 -2.9562 -3.54128 0
M  V30 2577 H 248.456 -2.83289 -3.28526 0
M  V30 2578 H 249.127 -2.55192 -4.8947 0
M  V30 2579 H 251.603 -0.804602 -4.08247 0
M  V30 2580 H 250.479 -0.622173 -5.45362 0
M  V30 2581 H 250.74 0.727934 -4.36066 0
M  V30 2582 N 249.799 1.42003 -0.683588 0
M  V30 2583 C 250.762 2.29191 -0.0198243 0
M  V30 2584 C 251.762 1.43773 0.72013 0
M  V30 2585 O 252.952 1.65061 0.556815 0
M  V30 2586 C 250.084 3.26435 0.982487 0
M  V30 2587 H 251.277 2.8938 -0.787345 0
M  V30 2588 H 248.83 1.49789 -0.446418 0
M  V30 2589 H 249.565 2.71203 1.77819 0
M  V30 2590 H 249.35 3.89449 0.455182 0
M  V30 2591 H 250.84 3.918 1.44508 0
M  V30 2592 N 251.277 0.427512 1.51691 0
M  V30 2593 C 252.505 -0.141191 2.06418 0
M  V30 2594 C 252.92 -1.37303 1.29589 0
M  V30 2595 O 252.277 -1.79059 0.352732 0
M  V30 2596 C 252.328 -0.473266 3.58389 0
M  V30 2597 O 252.049 0.709673 4.32314 0
M  V30 2598 C 253.55 -1.09371 4.29596 0
M  V30 2599 H 250.77 -0.0122747 0.670888 0
M  V30 2600 H 253.314 0.603764 1.95384 0
M  V30 2601 H 251.469 -1.16812 3.69369 0
M  V30 2602 H 251.883 0.42807 5.2275 0
M  V30 2603 H 253.357 -1.27613 5.37046 0
M  V30 2604 H 253.834 -2.072 3.87253 0
M  V30 2605 H 254.44 -0.43853 4.23033 0
M  V30 2606 N 252.755 -1.56801 0.158532 0
M  V30 2607 C 253.983 -2.00859 -0.496303 0
M  V30 2608 C 254.398 -1.03871 -1.57659 0
M  V30 2609 O 253.755 -0.0375165 -1.82461 0
M  V30 2610 C 253.806 -3.4479 -1.08638 0
M  V30 2611 O 253.527 -4.38072 -0.0492322 0
M  V30 2612 C 255.028 -4.04185 -1.8207 0
M  V30 2613 H 252.248 -0.65864 -0.128199 0
M  V30 2614 H 254.792 -2.02885 0.256506 0
M  V30 2615 H 252.947 -3.43579 -1.78975 0
M  V30 2616 H 253.361 -5.2227 -0.483102 0
M  V30 2617 H 254.835 -5.06857 -2.18633 0
M  V30 2618 H 255.312 -3.45549 -2.71095 0
M  V30 2619 H 255.918 -4.0906 -1.16405 0
M  V30 2620 N 254.233 0.115231 -1.57178 0
M  V30 2621 C 255.481 0.820727 -1.84685 0
M  V30 2622 C 255.802 1.80237 -0.744279 0
M  V30 2623 O 255.072 1.94529 0.231375 0
M  V30 2624 H 253.652 0.306084 -0.681411 0
M  V30 2625 H 256.314 0.101656 -1.94635 0
M  V30 2626 H 255.41 1.36366 -2.80733 0
M  V30 2627 N 255.711 1.52812 0.385517 0
M  V30 2628 C 256.658 1.77838 1.47113 0
M  V30 2629 C 257.628 0.621757 1.54024 0
M  V30 2630 O 258.813 0.861846 1.70226 0
M  V30 2631 C 255.953 1.95618 2.84302 0
M  V30 2632 C 255.066 3.23316 2.86515 0
M  V30 2633 C 254.201 3.31394 4.15152 0
M  V30 2634 C 253.24 4.53201 4.1143 0
M  V30 2635 N 252.377 4.58542 5.3168 0
M  V30 2636 H 257.217 2.70482 1.25073 0
M  V30 2637 H 254.754 1.34006 0.606692 0
M  V30 2638 H 256.712 2.03912 3.63972 0
M  V30 2639 H 255.342 1.06331 3.04784 0
M  V30 2640 H 254.394 3.24076 1.99195 0
M  V30 2641 H 255.706 4.13045 2.79634 0
M  V30 2642 H 254.86 3.3889 5.03228 0
M  V30 2643 H 253.599 2.39645 4.24761 0
M  V30 2644 H 252.604 4.45827 3.21742 0
M  V30 2645 H 253.829 5.46271 4.03442 0
M  V30 2646 H 251.775 3.69686 5.41912 0
M  V30 2647 H 251.692 5.42148 5.26889 0
M  V30 2648 H 252.96 4.70296 6.21644 0
M  V30 2649 N 257.189 -0.644168 1.43834 0
M  V30 2650 C 258.152 -1.73857 1.49353 0
M  V30 2651 C 259.152 -1.56315 0.377112 0
M  V30 2652 O 260.342 -1.62048 0.639226 0
M  V30 2653 C 257.474 -3.12819 1.35488 0
M  V30 2654 H 258.667 -1.70342 2.46827 0
M  V30 2655 H 256.22 -0.856652 1.30733 0
M  V30 2656 H 256.955 -3.2194 0.390569 0
M  V30 2657 H 256.74 -3.26958 2.16428 0
M  V30 2658 H 258.23 -3.92606 1.42302 0
M  V30 2659 N 258.668 -1.30515 -0.883378 0
M  V30 2660 C 259.896 -1.22359 -1.66841 0
M  V30 2661 C 260.311 0.213296 -1.87591 0
M  V30 2662 O 259.668 1.14075 -1.42454 0
M  V30 2663 C 259.719 -1.95011 -3.04389 0
M  V30 2664 O 259.44 -3.3309 -2.84575 0
M  V30 2665 C 260.941 -1.93532 -3.98824 0
M  V30 2666 H 258.161 -0.423371 -0.520575 0
M  V30 2667 H 260.705 -1.72167 -1.10357 0
M  V30 2668 H 258.86 -1.48997 -3.57601 0
M  V30 2669 H 259.274 -3.69907 -3.71846 0
M  V30 2670 H 260.748 -2.48902 -4.92699 0
M  V30 2671 H 261.225 -0.914627 -4.29571 0
M  V30 2672 H 261.831 -2.39364 -3.51547 0
M  V30 2673 N 260.146 1.09593 -1.13257 0
M  V30 2674 C 261.557 1.63229 -0.906274 0
M  V30 2675 C 261.908 1.8811 0.557578 0
M  V30 2676 O 261.033 1.62953 1.42391 0
M  V30 2677 C 261.628 2.96535 -1.63867 0
M  V30 2678 C 260.187 3.47003 -1.45828 0
M  V30 2679 C 259.334 2.2145 -1.66898 0
M  V30 2680 H 262.285 0.92978 -1.28611 0
M  V30 2681 H 262.306 3.64411 -1.09476 0
M  V30 2682 H 261.818 2.78394 -2.70404 0
M  V30 2683 H 259.919 3.70272 -0.415848 0
M  V30 2684 H 260.032 4.24551 -2.2202 0
M  V30 2685 H 258.396 2.30022 -1.09371 0
M  V30 2686 H 259.179 2.0583 -2.74752 0
M  V30 2687 N 261.624 0.925811 1.2754 0
M  V30 2688 C 262.871 0.565255 1.94451 0
M  V30 2689 C 263.199 -0.89316 1.7278 0
M  V30 2690 O 262.454 -1.65213 1.04895 0
M  V30 2691 C 262.753 0.835296 3.47502 0
M  V30 2692 C 262.419 2.27515 3.89291 0
M  V30 2693 C 261.081 2.66879 4.00411 0
M  V30 2694 C 263.433 3.21158 4.10496 0
M  V30 2695 C 260.761 3.99014 4.30122 0
M  V30 2696 C 263.113 4.52871 4.4169 0
M  V30 2697 C 261.777 4.92072 4.51023 0
M  V30 2698 H 261.047 0.206841 0.711546 0
M  V30 2699 H 263.694 1.16942 1.51647 0
M  V30 2700 H 261.999 0.148442 3.91519 0
M  V30 2701 H 263.696 0.535322 3.97411 0
M  V30 2702 H 260.286 1.95976 3.81171 0
M  V30 2703 H 264.47 2.9195 4.01346 0
M  V30 2704 H 259.726 4.2907 4.35556 0
M  V30 2705 H 263.9 5.25436 4.57045 0
M  V30 2706 H 261.527 5.9449 4.738 0
M  V30 2707 N 263.102 -1.41638 0.69111 0
M  V30 2708 C 264.034 -2.29194 -0.0161523 0
M  V30 2709 C 265.047 -1.44549 -0.748955 0
M  V30 2710 O 266.236 -1.681 -0.6004 0
M  V30 2711 C 263.336 -3.22325 -1.0469 0
M  V30 2712 C 262.509 -4.35706 -0.384621 0
M  V30 2713 C 261.568 -5.09443 -1.31737 0
M  V30 2714 O 260.594 -5.63386 -0.811451 0
M  V30 2715 N 261.796 -5.16487 -2.64993 0
M  V30 2716 H 264.561 -2.90534 0.735523 0
M  V30 2717 H 262.122 -1.52742 0.53679 0
M  V30 2718 H 264.114 -3.68522 -1.67252 0
M  V30 2719 H 262.684 -2.62323 -1.70015 0
M  V30 2720 H 261.904 -3.91948 0.420804 0
M  V30 2721 H 263.192 -5.08743 0.0760765 0
M  V30 2722 H 262.59 -4.741 -3.08619 0
M  V30 2723 H 261.147 -5.66276 -3.22761 0
M  V30 2724 N 264.58 -0.43555 -1.51462 0
M  V30 2725 C 265.49 0.383001 -2.31453 0
M  V30 2726 C 266.506 1.02931 -1.4029 0
M  V30 2727 O 267.682 1.02507 -1.73362 0
M  V30 2728 C 264.747 1.47043 -3.13973 0
M  V30 2729 C 263.808 0.844433 -4.20913 0
M  V30 2730 C 263.041 1.88004 -4.9949 0
M  V30 2731 O 263.264 3.10199 -4.78678 0
M  V30 2732 O 262.198 1.47157 -5.83634 0
M  V30 2733 H 266.024 -0.269964 -3.02498 0
M  V30 2734 H 263.609 -0.19813 -1.4808 0
M  V30 2735 H 265.491 2.10113 -3.65281 0
M  V30 2736 H 264.166 2.10751 -2.45695 0
M  V30 2737 H 263.073 0.175729 -3.73687 0
M  V30 2738 H 264.406 0.250869 -4.9156 0
M  V30 2739 N 266.058 1.56714 -0.166846 0
M  V30 2740 C 266.988 2.20754 0.760913 0
M  V30 2741 C 267.969 1.16178 1.24244 0
M  V30 2742 O 269.154 1.44592 1.29641 0
M  V30 2743 C 266.284 2.84478 1.99223 0
M  V30 2744 C 265.238 3.95053 1.64672 0
M  V30 2745 C 264.564 4.45805 2.95232 0
M  V30 2746 C 265.864 5.14865 0.878155 0
M  V30 2747 H 267.558 2.98537 0.22713 0
M  V30 2748 H 265.104 1.43596 0.107805 0
M  V30 2749 H 267.057 3.27951 2.64624 0
M  V30 2750 H 265.781 2.04056 2.55007 0
M  V30 2751 H 264.44 3.52228 1.01641 0
M  V30 2752 H 264.088 3.62181 3.49047 0
M  V30 2753 H 263.788 5.204 2.7287 0
M  V30 2754 H 265.312 4.91962 3.6167 0
M  V30 2755 H 266.726 5.55059 1.43466 0
M  V30 2756 H 265.123 5.95348 0.753738 0
M  V30 2757 H 266.193 4.84735 -0.126377 0
M  V30 2758 N 267.536 -0.106894 1.57237 0
M  V30 2759 C 268.782 -0.81373 1.85759 0
M  V30 2760 C 269.115 -1.78952 0.754315 0
M  V30 2761 O 268.39 -1.93029 -0.23879 0
M  V30 2762 C 268.673 -1.55293 3.24894 0
M  V30 2763 C 268.526 -0.595929 4.45835 0
M  V30 2764 C 269.845 -2.5063 3.61763 0
M  V30 2765 H 266.964 -0.294369 0.67566 0
M  V30 2766 H 269.606 -0.0776472 1.89841 0
M  V30 2767 H 267.756 -2.1804 3.21544 0
M  V30 2768 H 269.428 0.0236262 4.61294 0
M  V30 2769 H 267.671 0.0916191 4.33703 0
M  V30 2770 H 268.342 -1.15004 5.39887 0
M  V30 2771 H 270.818 -1.97982 3.65981 0
M  V30 2772 H 269.694 -2.99376 4.60071 0
M  V30 2773 H 269.955 -3.3385 2.89821 0
M  V30 2774 N 269.014 -1.53014 -0.377408 0
M  V30 2775 C 269.944 -1.81589 -1.46791 0
M  V30 2776 C 270.925 -0.668622 -1.56408 0
M  V30 2777 O 272.11 -0.917337 -1.71168 0
M  V30 2778 C 269.24 -1.99519 -2.8427 0
M  V30 2779 C 268.194 -3.15249 -2.89486 0
M  V30 2780 C 267.52 -3.18451 -4.29527 0
M  V30 2781 C 268.82 -4.54084 -2.58079 0
M  V30 2782 H 270.514 -2.7291 -1.23127 0
M  V30 2783 H 268.06 -1.31319 -0.590883 0
M  V30 2784 H 270.013 -2.18092 -3.60575 0
M  V30 2785 H 268.737 -1.04897 -3.09296 0
M  V30 2786 H 267.396 -2.96477 -2.15631 0
M  V30 2787 H 267.044 -2.2149 -4.5161 0
M  V30 2788 H 266.744 -3.962 -4.33934 0
M  V30 2789 H 268.268 -3.39193 -5.07721 0
M  V30 2790 H 269.682 -4.72899 -3.24098 0
M  V30 2791 H 268.079 -5.33987 -2.7382 0
M  V30 2792 H 269.149 -4.60006 -1.53372 0
M  V30 2793 N 270.492 0.636531 -1.44174 0
M  V30 2794 C 271.439 1.74875 -1.50624 0
M  V30 2795 C 272.409 1.62275 -0.35442 0
M  V30 2796 O 273.594 1.82276 -0.563908 0
M  V30 2797 C 270.734 3.13102 -1.45125 0
M  V30 2798 C 269.847 3.36717 -2.7064 0
M  V30 2799 C 268.982 4.64885 -2.57013 0
M  V30 2800 C 268.021 4.8166 -3.77717 0
M  V30 2801 N 267.158 6.01101 -3.62798 0
M  V30 2802 H 271.998 1.68697 -2.45653 0
M  V30 2803 H 269.535 0.823004 -1.21922 0
M  V30 2804 H 271.493 3.93034 -1.39929 0
M  V30 2805 H 270.123 3.18308 -0.536671 0
M  V30 2806 H 269.175 2.50763 -2.86046 0
M  V30 2807 H 270.487 3.44993 -3.60252 0
M  V30 2808 H 269.641 5.52969 -2.49619 0
M  V30 2809 H 268.38 4.58957 -1.64953 0
M  V30 2810 H 267.385 3.92007 -3.85501 0
M  V30 2811 H 268.61 4.89406 -4.70807 0
M  V30 2812 H 266.556 5.96273 -2.73486 0
M  V30 2813 H 266.473 6.10409 -4.46023 0
M  V30 2814 H 267.741 6.91761 -3.59286 0
M  V30 2815 N 271.97 1.30982 0.876444 0
M  V30 2816 C 272.933 1.18054 1.96459 0
M  V30 2817 C 273.933 0.109399 1.60427 0
M  V30 2818 O 275.123 0.358173 1.70478 0
M  V30 2819 C 272.255 0.810616 3.31122 0
M  V30 2820 H 273.448 2.14735 2.09354 0
M  V30 2821 H 271.001 1.145 1.06392 0
M  V30 2822 H 271.736 -0.155322 3.23928 0
M  V30 2823 H 271.521 1.58481 3.58645 0
M  V30 2824 H 273.011 0.743876 4.10921 0
M  V30 2825 N 273.449 -1.08991 1.13837 0
M  V30 2826 C 274.412 -2.13925 0.822715 0
M  V30 2827 C 275.412 -1.599 -0.1699 0
M  V30 2828 O 276.602 -1.74104 0.0577251 0
M  V30 2829 C 273.734 -3.40155 0.225318 0
M  V30 2830 H 274.927 -2.43358 1.75262 0
M  V30 2831 H 272.48 -1.24603 0.943594 0
M  V30 2832 H 273.215 -3.16352 -0.713594 0
M  V30 2833 H 273 -3.80661 0.940193 0
M  V30 2834 H 274.49 -4.17594 0.0214784 0
M  V30 2835 N 274.927 -0.932562 -1.27047 0
M  V30 2836 C 275.89 -0.440064 -2.24936 0
M  V30 2837 C 276.89 0.444071 -1.54547 0
M  V30 2838 O 278.08 0.244465 -1.72476 0
M  V30 2839 C 275.212 0.36678 -3.38921 0
M  V30 2840 H 276.405 -1.305 -2.70018 0
M  V30 2841 H 273.958 -0.713707 -1.39054 0
M  V30 2842 H 274.693 1.25033 -2.99228 0
M  V30 2843 H 274.478 -0.267204 -3.91188 0
M  V30 2844 H 275.968 0.701567 -4.11665 0
M  V30 2845 N 276.405 1.4127 -0.698611 0
M  V30 2846 C 277.821 1.55241 -0.370462 0
M  V30 2847 C 278.021 1.67351 1.12231 0
M  V30 2848 O 277.077 1.65363 1.90818 0
M  V30 2849 C 278.39 2.78997 -1.12165 0
M  V30 2850 C 279.938 2.92797 -1.1063 0
M  V30 2851 C 280.413 4.19445 -1.8393 0
M  V30 2852 N 281.904 4.26409 -1.80914 0
M  V30 2853 C 282.639 5.23271 -2.34467 0
M  V30 2854 N 282.135 6.26145 -2.96504 0
M  V30 2855 N 283.928 5.15232 -2.24706 0
M  V30 2856 H 276.079 1.31654 -1.66676 0
M  V30 2857 H 278.342 0.635393 -0.703548 0
M  V30 2858 H 278.048 2.76268 -2.17644 0
M  V30 2859 H 277.922 3.70606 -0.702209 0
M  V30 2860 H 280.309 2.95039 -0.0597713 0
M  V30 2861 H 280.39 2.02353 -1.56483 0
M  V30 2862 H 280.034 4.17964 -2.88563 0
M  V30 2863 H 279.964 5.08866 -1.35509 0
M  V30 2864 H 282.455 3.527 -1.35687 0
M  V30 2865 H 282.768 6.96451 -3.34927 0
M  V30 2866 H 281.113 6.26638 -3.00583 0
M  V30 2867 H 284.304 4.33789 -1.7591 0
M  V30 2868 H 284.477 5.90552 -2.66745 0
M  V30 2869 N 277.883 0.443576 1.51229 0
M  V30 2870 C 278.846 -0.353132 2.26463 0
M  V30 2871 C 279.846 -0.944338 1.3015 0
M  V30 2872 O 281.036 -0.817813 1.5381 0
M  V30 2873 C 278.168 -1.50023 3.06114 0
M  V30 2874 H 279.361 0.3063 2.98332 0
M  V30 2875 H 276.914 0.196902 1.55055 0
M  V30 2876 H 277.649 -2.19553 2.38677 0
M  V30 2877 H 277.434 -1.08241 3.76864 0
M  V30 2878 H 278.924 -2.06296 3.63087 0
M  V30 2879 N 279.361 -1.56624 0.175154 0
M  V30 2880 C 280.586 -2.01813 -0.478137 0
M  V30 2881 C 281.011 -1.05457 -1.55757 0
M  V30 2882 O 280.369 -0.0347439 -1.81267 0
M  V30 2883 C 280.417 -3.45581 -1.02987 0
M  V30 2884 O 279.521 -3.52305 -2.14371 0
M  V30 2885 H 278.862 -0.65413 -0.114059 0
M  V30 2886 H 281.392 -2.02673 0.280173 0
M  V30 2887 H 281.402 -3.84965 -1.35151 0
M  V30 2888 H 280.077 -4.1521 -0.239556 0
M  V30 2889 H 278.654 -3.24783 -1.83222 0
M  V30 2890 N 280.839 0.0985539 -1.57292 0
M  V30 2891 C 281.769 1.12064 -2.04851 0
M  V30 2892 C 282.75 1.41981 -0.936767 0
M  V30 2893 O 283.935 1.52071 -1.20781 0
M  V30 2894 C 281.065 2.44144 -2.47004 0
M  V30 2895 C 280.019 2.28643 -3.6181 0
M  V30 2896 C 279.345 3.65869 -3.89929 0
M  V30 2897 C 280.645 1.72986 -4.92822 0
M  V30 2898 H 282.339 0.724979 -2.9049 0
M  V30 2899 H 279.885 0.34729 -1.39749 0
M  V30 2900 H 281.838 3.15914 -2.78884 0
M  V30 2901 H 280.562 2.85639 -1.5836 0
M  V30 2902 H 279.221 1.59318 -3.30172 0
M  V30 2903 H 278.869 4.04885 -2.98458 0
M  V30 2904 H 278.569 3.56344 -4.67218 0
M  V30 2905 H 280.093 4.39112 -4.2428 0
M  V30 2906 H 281.507 2.34593 -5.23105 0
M  V30 2907 H 279.904 1.74229 -5.74251 0
M  V30 2908 H 280.974 0.689007 -4.7998 0
M  V30 2909 N 282.317 1.53212 0.369288 0
M  V30 2910 C 283.28 1.7872 1.43498 0
M  V30 2911 C 284.28 0.657554 1.46741 0
M  V30 2912 O 285.47 0.925736 1.47566 0
M  V30 2913 C 282.602 1.90591 2.82645 0
M  V30 2914 H 283.795 2.73894 1.22156 0
M  V30 2915 H 281.348 1.44233 0.602203 0
M  V30 2916 H 282.083 0.974709 3.09306 0
M  V30 2917 H 281.868 2.72751 2.8169 0
M  V30 2918 H 283.358 2.11931 3.59826 0
M  V30 2919 N 283.795 -0.628877 1.44509 0
M  V30 2920 C 285.023 -1.41554 1.50897 0
M  V30 2921 C 285.438 -1.8832 0.134564 0
M  V30 2922 O 284.795 -1.60969 -0.859965 0
M  V30 2923 C 284.846 -2.63435 2.47556 0
M  V30 2924 O 284.567 -2.18619 3.79654 0
M  V30 2925 C 286.068 -3.56537 2.63431 0
M  V30 2926 H 283.288 -0.434044 0.511709 0
M  V30 2927 H 285.832 -0.768895 1.89495 0
M  V30 2928 H 283.987 -3.24187 2.12089 0
M  V30 2929 H 284.401 -2.97652 4.31861 0
M  V30 2930 H 285.875 -4.38657 3.35088 0
M  V30 2931 H 286.352 -4.05493 1.68738 0
M  V30 2932 H 286.958 -3.01653 2.9981 0
M  V30 2933 N 285.273 -1.31445 -0.869486 0
M  V30 2934 C 286.521 -1.20918 -1.61936 0
M  V30 2935 C 286.842 0.232683 -1.93607 0
M  V30 2936 O 286.112 1.15352 -1.58338 0
M  V30 2937 H 284.692 -0.44454 -0.600328 0
M  V30 2938 H 287.354 -1.64776 -1.0409 0
M  V30 2939 H 286.45 -1.78124 -2.56278 0
M  V30 2940 N 286.751 1.08385 -1.14413 0
M  V30 2941 C 287.997 1.81044 -0.913834 0
M  V30 2942 C 288.33 1.86004 0.558209 0
M  V30 2943 O 287.605 1.33606 1.4135 0
M  V30 2944 C 287.888 3.26648 -1.51569 0
M  V30 2945 C 287.741 3.29895 -3.0576 0
M  V30 2946 C 289.06 4.23629 -1.19273 0
M  V30 2947 H 286.179 0.65727 -0.333414 0
M  V30 2948 H 288.821 1.26896 -1.41412 0
M  V30 2949 H 286.971 3.72889 -1.09023 0
M  V30 2950 H 288.643 2.91977 -3.57137 0
M  V30 2951 H 286.886 2.69163 -3.40197 0
M  V30 2952 H 287.557 4.32516 -3.42977 0
M  V30 2953 H 290.033 3.85727 -1.56057 0
M  V30 2954 H 288.909 5.23822 -1.64017 0
M  V30 2955 H 289.17 4.41968 -0.108068 0
M  V30 2956 N 288.23 0.939286 1.26551 0
M  V30 2957 C 289.641 0.628782 1.75793 0
M  V30 2958 C 289.992 -0.856046 1.7654 0
M  V30 2959 O 289.117 -1.66994 1.3763 0
M  V30 2960 C 289.712 1.13465 3.19235 0
M  V30 2961 C 288.271 0.874601 3.66098 0
M  V30 2962 C 287.418 1.28667 2.45642 0
M  V30 2963 H 290.369 1.1178 1.12654 0
M  V30 2964 H 290.39 0.487609 3.77363 0
M  V30 2965 H 289.902 2.21535 3.1866 0
M  V30 2966 H 288.003 -0.191793 3.72106 0
M  V30 2967 H 288.116 1.50028 4.55004 0
M  V30 2968 H 286.48 0.705109 2.44745 0
M  V30 2969 H 287.263 2.37625 2.47769 0
M  V30 2970 N 289.708 -1.40897 0.706093 0
M  V30 2971 C 290.954 -2.01352 0.241889 0
M  V30 2972 C 291.287 -1.55832 -1.15888 0
M  V30 2973 O 290.562 -0.774145 -1.7843 0
M  V30 2974 C 290.845 -3.58752 0.311311 0
M  V30 2975 C 290.698 -4.1437 1.74978 0
M  V30 2976 C 292.017 -4.38914 -0.322922 0
M  V30 2977 H 289.136 -0.731562 0.0893687 0
M  V30 2978 H 291.778 -1.67504 0.896802 0
M  V30 2979 H 289.928 -3.87718 -0.246302 0
M  V30 2980 H 291.6 -3.96239 2.36205 0
M  V30 2981 H 289.843 -3.69016 2.28057 0
M  V30 2982 H 290.514 -5.23532 1.74981 0
M  V30 2983 H 292.99 -4.15822 0.152089 0
M  V30 2984 H 291.866 -5.48358 -0.243855 0
M  V30 2985 H 292.127 -4.19176 -1.40513 0
M  V30 2986 N 291.186 -0.45159 -1.50991 0
M  V30 2987 C 292.414 0.108334 -2.06616 0
M  V30 2988 C 292.829 1.35224 -1.31757 0
M  V30 2989 O 292.186 1.78475 -0.381174 0
M  V30 2990 C 292.237 0.41619 -3.59096 0
M  V30 2991 O 291.958 -0.778361 -4.3113 0
M  V30 2992 C 293.459 1.02523 -4.31282 0
M  V30 2993 H 290.679 0.00159995 -0.670998 0
M  V30 2994 H 293.223 -0.634771 -1.94399 0
M  V30 2995 H 291.378 1.10921 -3.71181 0
M  V30 2996 H 291.792 -0.511181 -5.22003 0
M  V30 2997 H 293.266 1.19053 -5.39009 0
M  V30 2998 H 293.743 2.01013 -3.905 0
M  V30 2999 H 294.349 0.371173 -4.23677 0
M  V30 3000 N 292.664 1.56529 -0.183458 0
M  V30 3001 C 293.892 2.01623 0.464285 0
M  V30 3002 C 294.307 1.06366 1.55986 0
M  V30 3003 O 293.664 0.0665398 1.82379 0
M  V30 3004 C 293.715 3.46475 1.03139 0
M  V30 3005 O 293.436 4.38095 -0.0204675 0
M  V30 3006 C 294.937 4.0703 1.75617 0
M  V30 3007 H 292.157 0.660596 0.117704 0
M  V30 3008 H 294.701 2.02451 -0.288751 0
M  V30 3009 H 292.856 3.46383 1.73486 0
M  V30 3010 H 293.27 5.22973 0.399952 0
M  V30 3011 H 294.744 5.10271 2.10542 0
M  V30 3012 H 295.221 3.49819 2.65563 0
M  V30 3013 H 295.827 4.1086 1.09882 0
M  V30 3014 N 294.142 -0.090211 1.57342 0
M  V30 3015 C 295.092 -1.11557 1.98844 0
M  V30 3016 C 296.076 -1.35503 0.867624 0
M  V30 3017 O 297.268 -1.36113 1.13148 0
M  V30 3018 C 294.397 -2.43446 2.42051 0
M  V30 3019 C 293.483 -2.22853 3.60828 0
M  V30 3020 N 293.874 -1.72141 4.75606 0
M  V30 3021 C 292.172 -2.53401 3.67021 0
M  V30 3022 C 292.873 -1.65932 5.57531 0
M  V30 3023 N 291.849 -2.11323 5.00843 0
M  V30 3024 H 295.651 -0.716499 2.85032 0
M  V30 3025 H 293.165 -0.297567 1.59651 0
M  V30 3026 H 295.162 -3.17644 2.70014 0
M  V30 3027 H 293.822 -2.84087 1.57241 0
M  V30 3028 H 294.833 -1.41268 4.98261 0
M  V30 3029 H 291.51 -2.97532 2.92884 0
M  V30 3030 H 292.9 -1.27733 6.59647 0
M  V30 3031 N 295.62 -1.53406 -0.361157 0
M  V30 3032 C 296.848 -1.73717 -1.12383 0
M  V30 3033 C 297.263 -0.468161 -1.82904 0
M  V30 3034 O 296.62 0.559198 -1.73722 0
M  V30 3035 C 296.671 -2.90558 -2.15078 0
M  V30 3036 O 296.392 -4.12549 -1.47428 0
M  V30 3037 C 297.893 -3.22777 -3.03858 0
M  V30 3038 H 295.113 -0.580896 -0.335858 0
M  V30 3039 H 297.657 -2.00167 -0.418728 0
M  V30 3040 H 295.812 -2.66489 -2.8118 0
M  V30 3041 H 296.226 -4.78009 -2.15887 0
M  V30 3042 H 297.7 -4.07927 -3.71887 0
M  V30 3043 H 298.177 -2.38329 -3.68912 0
M  V30 3044 H 298.783 -3.48787 -2.43367 0
M  V30 3045 N 297.098 0.621204 -1.44841 0
M  V30 3046 C 298.323 1.41244 -1.51871 0
M  V30 3047 C 298.748 1.87519 -0.147764 0
M  V30 3048 O 298.106 1.59334 0.865 0
M  V30 3049 C 298.154 2.60221 -2.49634 0
M  V30 3050 O 297.258 3.60395 -2.00473 0
M  V30 3051 H 296.599 0.42223 -0.512463 0
M  V30 3052 H 299.129 0.757305 -1.90069 0
M  V30 3053 H 299.139 3.0764 -2.67996 0
M  V30 3054 H 297.814 2.25887 -3.4921 0
M  V30 3055 H 296.391 3.19717 -1.91925 0
M  V30 3056 N 298.576 1.31904 0.862503 0
M  V30 3057 C 299.539 1.20131 1.95195 0
M  V30 3058 C 300.539 0.126409 1.60302 0
M  V30 3059 O 301.729 0.376234 1.70089 0
M  V30 3060 C 298.861 0.845691 3.30244 0
M  V30 3061 H 300.054 2.16943 2.07064 0
M  V30 3062 H 297.607 1.15622 1.05172 0
M  V30 3063 H 298.342 -0.120957 3.24074 0
M  V30 3064 H 298.127 1.62276 3.56944 0
M  V30 3065 H 299.617 0.787418 4.10109 0
M  V30 3066 N 300.054 -1.07777 1.14986 0
M  V30 3067 C 301.279 -1.84558 0.946213 0
M  V30 3068 C 301.704 -1.81323 -0.500362 0
M  V30 3069 O 301.062 -1.20301 -1.35637 0
M  V30 3070 C 301.11 -3.29736 1.45968 0
M  V30 3071 O 300.214 -4.07149 0.65601 0
M  V30 3072 H 299.555 -0.571641 0.33782 0
M  V30 3073 H 302.085 -1.35991 1.52865 0
M  V30 3074 H 302.095 -3.80574 1.47063 0
M  V30 3075 H 300.77 -3.31406 2.51283 0
M  V30 3076 H 299.347 -3.65994 0.714322 0
M  V30 3077 N 301.532 -0.945985 -1.26051 0
M  V30 3078 C 302.464 -0.416662 -2.25381 0
M  V30 3079 C 303.477 0.462712 -1.56086 0
M  V30 3080 O 304.666 0.272383 -1.7641 0
M  V30 3081 C 301.766 0.419812 -3.3629 0
M  V30 3082 C 300.939 -0.444531 -4.35135 0
M  V30 3083 C 299.998 0.332305 -5.2515 0
M  V30 3084 O 299.024 -0.266324 -5.68577 0
M  V30 3085 N 300.226 1.62763 -5.57215 0
M  V30 3086 H 302.991 -1.27059 -2.71433 0
M  V30 3087 H 300.552 -0.815392 -1.39868 0
M  V30 3088 H 302.544 0.947013 -3.93464 0
M  V30 3089 H 301.114 1.17456 -2.89694 0
M  V30 3090 H 300.334 -1.15291 -3.76964 0
M  V30 3091 H 301.622 -1.03478 -4.98166 0
M  V30 3092 H 301.02 2.13603 -5.23823 0
M  V30 3093 H 299.577 2.10097 -6.17011 0
M  V30 3094 N 303.011 1.40521 -0.713556 0
M  V30 3095 C 304.427 1.54839 -0.386907 0
M  V30 3096 C 304.627 1.68532 1.1045 0
M  V30 3097 O 303.683 1.67377 1.89053 0
M  V30 3098 C 304.996 2.77792 -1.15118 0
M  V30 3099 C 306.544 2.91607 -1.13729 0
M  V30 3100 C 307.019 4.1747 -1.88368 0
M  V30 3101 N 308.51 4.24466 -1.85427 0
M  V30 3102 C 309.245 5.20755 -2.40004 0
M  V30 3103 N 308.741 6.22965 -3.03129 0
M  V30 3104 N 310.534 5.1282 -2.30158 0
M  V30 3105 H 302.685 1.29879 -1.68063 0
M  V30 3106 H 304.948 0.627896 -0.710247 0
M  V30 3107 H 304.654 2.73944 -2.20561 0
M  V30 3108 H 304.528 3.6984 -0.741477 0
M  V30 3109 H 306.915 2.94959 -0.0910608 0
M  V30 3110 H 306.996 2.00682 -1.5862 0
M  V30 3111 H 306.64 4.1488 -2.9298 0
M  V30 3112 H 306.57 5.074 -1.40898 0
M  V30 3113 H 309.061 3.51241 -1.3942 0
M  V30 3114 H 309.374 6.92859 -3.42295 0
M  V30 3115 H 307.719 6.23415 -3.07212 0
M  V30 3116 H 310.91 4.31899 -1.80501 0
M  V30 3117 H 311.083 5.87689 -2.72993 0
M  V30 3118 N 304.489 0.459591 1.5075 0
M  V30 3119 C 305.766 -0.160371 1.94941 0
M  V30 3120 C 306.146 -1.58048 1.39943 0
M  V30 3121 O 305.494 -2.206 0.595629 0
M  V30 3122 C 305.704 -0.115432 3.48809 0
M  V30 3123 C 307.052 -0.310026 4.23467 0
M  V30 3124 O 308.076 -0.192543 3.55679 0
M  V30 3125 O 306.935 -0.546031 5.43765 0
M  V30 3126 H 304.029 -0.117925 0.818549 0
M  V30 3127 H 306.575 0.519169 1.61563 0
M  V30 3128 H 305.347 0.87652 3.81357 0
M  V30 3129 H 304.97 -0.836928 3.88692 0
M  V30 3130 N 305.967 -1.56429 0.191757 0
M  V30 3131 C 307.215 -1.97095 -0.447006 0
M  V30 3132 C 307.536 -1.07967 -1.62383 0
M  V30 3133 O 306.806 -0.150248 -1.95323 0
M  V30 3134 H 305.386 -0.727832 -0.168135 0
M  V30 3135 H 308.048 -1.92911 0.27771 0
M  V30 3136 H 307.144 -3.01848 -0.793371 0
M  V30 3137 N 307.445 0.0818655 -1.57387 0
M  V30 3138 C 308.355 1.11642 -2.06333 0
M  V30 3139 C 309.371 1.43033 -0.99083 0
M  V30 3140 O 310.547 1.53411 -1.30488 0
M  V30 3141 C 307.612 2.41342 -2.48907 0
M  V30 3142 C 306.673 2.17014 -3.7041 0
M  V30 3143 C 305.906 3.4053 -4.10944 0
M  V30 3144 O 306.129 4.4927 -3.51444 0
M  V30 3145 O 305.063 3.29336 -5.03807 0
M  V30 3146 H 308.889 0.730657 -2.9478 0
M  V30 3147 H 306.474 0.295301 -1.46452 0
M  V30 3148 H 308.356 3.17691 -2.76858 0
M  V30 3149 H 307.031 2.79319 -1.63593 0
M  V30 3150 H 305.938 1.38403 -3.47556 0
M  V30 3151 H 307.271 1.83923 -4.56545 0
M  V30 3152 N 308.923 1.53595 0.353017 0
M  V30 3153 C 309.855 1.77219 1.45348 0
M  V30 3154 C 310.868 0.65324 1.49119 0
M  V30 3155 O 312.057 0.929775 1.52373 0
M  V30 3156 C 309.157 1.84841 2.84055 0
M  V30 3157 C 308.33 3.14649 3.03833 0
M  V30 3158 C 307.389 3.13351 4.22727 0
M  V30 3159 O 306.415 3.87107 4.17297 0
M  V30 3160 N 307.617 2.35052 5.30783 0
M  V30 3161 H 310.382 2.72178 1.25457 0
M  V30 3162 H 307.943 1.52528 0.542833 0
M  V30 3163 H 309.935 1.81435 3.61751 0
M  V30 3164 H 308.505 0.971114 2.97133 0
M  V30 3165 H 307.725 3.31256 2.13689 0
M  V30 3166 H 309.013 4.00411 3.13925 0
M  V30 3167 H 308.411 1.74663 5.38061 0
M  V30 3168 H 306.968 2.37453 6.07009 0
M  V30 3169 N 310.401 -0.613514 1.45168 0
M  V30 3170 C 311.333 -1.73825 1.4939 0
M  V30 3171 C 312.346 -1.58175 0.385304 0
M  V30 3172 O 313.535 -1.66165 0.652036 0
M  V30 3173 C 310.635 -3.11758 1.32891 0
M  V30 3174 C 309.808 -3.53704 2.57317 0
M  V30 3175 C 308.867 -4.70579 2.35462 0
M  V30 3176 O 307.893 -4.77996 3.09044 0
M  V30 3177 N 309.095 -5.63454 1.39644 0
M  V30 3178 H 311.86 -1.70669 2.46358 0
M  V30 3179 H 309.421 -0.79862 1.40832 0
M  V30 3180 H 311.413 -3.87692 1.1609 0
M  V30 3181 H 309.983 -3.09456 0.442218 0
M  V30 3182 H 309.203 -2.67794 2.89275 0
M  V30 3183 H 310.491 -3.78486 3.40038 0
M  V30 3184 H 309.889 -5.6017 0.789062 0
M  V30 3185 H 308.446 -6.38944 1.28816 0
M  V30 3186 N 311.879 -1.3236 -0.855495 0
M  V30 3187 C 312.842 -1.21164 -1.94556 0
M  V30 3188 C 313.842 -0.134908 -1.60233 0
M  V30 3189 O 315.032 -0.385249 -1.69887 0
M  V30 3190 C 312.164 -0.863192 -3.29791 0
M  V30 3191 H 313.357 -2.18038 -2.05911 0
M  V30 3192 H 310.91 -1.16179 -1.04557 0
M  V30 3193 H 311.645 0.103769 -3.24134 0
M  V30 3194 H 311.43 -1.64166 -3.56078 0
M  V30 3195 H 312.92 -0.809156 -4.09686 0
M  V30 3196 N 313.357 1.07166 -1.15556 0
M  V30 3197 C 314.32 2.12589 -0.856644 0
M  V30 3198 C 315.32 1.6015 0.14444 0
M  V30 3199 O 316.51 1.7399 -0.0854163 0
M  V30 3200 C 313.642 3.39753 -0.279405 0
M  V30 3201 H 314.835 2.40539 -1.79112 0
M  V30 3202 H 312.388 1.23086 -0.963298 0
M  V30 3203 H 313.123 3.17447 0.663174 0
M  V30 3204 H 312.908 3.79117 -1.00063 0
M  V30 3205 H 314.398 4.17507 -0.0879113 0
M  V30 3206 N 314.835 0.952656 1.25548 0
M  V30 3207 C 316.084 0.602053 1.92505 0
M  V30 3208 C 316.397 -0.864663 1.75451 0
M  V30 3209 O 317.603 -1.32514 2.36965 0
M  V30 3210 C 316.059 1.02607 3.44963 0
M  V30 3211 C 315.667 2.51519 3.70732 0
M  V30 3212 C 317.411 0.747905 4.1786 0
M  V30 3213 C 315.318 2.87732 5.16686 0
M  V30 3214 H 314.248 0.22146 0.720744 0
M  V30 3215 H 316.899 1.15684 1.42441 0
M  V30 3216 H 315.281 0.399712 3.93978 0
M  V30 3217 H 316.455 3.19157 3.32378 0
M  V30 3218 H 314.77 2.76786 3.11092 0
M  V30 3219 H 317.367 0.994647 5.25367 0
M  V30 3220 H 317.71 -0.315629 4.15102 0
M  V30 3221 H 318.243 1.33452 3.74747 0
M  V30 3222 H 314.982 3.93095 5.24554 0
M  V30 3223 H 314.502 2.24765 5.56094 0
M  V30 3224 H 316.181 2.76817 5.84792 0
M  V30 3225 N 316.313 -1.40141 0.720998 0
M  V30 3226 C 317.56 -2.00787 0.262842 0
M  V30 3227 C 317.888 -1.5718 -1.14563 0
M  V30 3228 O 317.143 -0.785391 -1.79249 0
M  V30 3229 C 317.442 -3.56165 0.296892 0
M  V30 3230 C 317.108 -4.19373 1.65641 0
M  V30 3231 C 315.77 -4.36352 2.02855 0
M  V30 3232 C 318.122 -4.54578 2.54968 0
M  V30 3233 C 315.45 -4.8582 3.28931 0
M  V30 3234 C 317.802 -5.05447 3.80402 0
M  V30 3235 C 316.466 -5.20635 4.17726 0
M  V30 3236 H 315.736 -0.734731 0.0961807 0
M  V30 3237 H 318.383 -1.67673 0.925093 0
M  V30 3238 H 316.688 -3.8922 -0.448932 0
M  V30 3239 H 318.385 -4.00929 -0.0755208 0
M  V30 3240 H 314.975 -4.06549 1.35704 0
M  V30 3241 H 319.159 -4.41091 2.27491 0
M  V30 3242 H 314.415 -4.95764 3.57811 0
M  V30 3243 H 318.589 -5.31663 4.49786 0
M  V30 3244 H 316.216 -5.58728 5.15487 0
M  V30 3245 N 317.792 -0.46758 -1.50504 0
M  V30 3246 C 318.702 0.33382 -2.32213 0
M  V30 3247 C 319.718 0.999323 -1.42441 0
M  V30 3248 O 320.894 0.988068 -1.75497 0
M  V30 3249 C 317.959 1.4035 -3.17022 0
M  V30 3250 C 317.02 0.754961 -4.2261 0
M  V30 3251 C 316.253 1.77367 -5.03365 0
M  V30 3252 O 316.476 2.99976 -4.8515 0
M  V30 3253 O 315.41 1.34744 -5.86624 0
M  V30 3254 H 319.236 -0.334067 -3.01857 0
M  V30 3255 H 316.821 -0.229496 -1.47627 0
M  V30 3256 H 318.703 2.02318 -3.69656 0
M  V30 3257 H 317.378 2.05492 -2.5011 0
M  V30 3258 H 316.285 0.0964244 -3.73976 0
M  V30 3259 H 317.618 0.146545 -4.91982 0
M  V30 3260 N 319.27 1.56325 -0.20005 0
M  V30 3261 C 320.495 2.02548 0.44597 0
M  V30 3262 C 320.92 1.07922 1.5406 0
M  V30 3263 O 320.278 0.0635775 1.81188 0
M  V30 3264 C 320.326 3.47175 0.974761 0
M  V30 3265 O 319.43 3.55671 2.08739 0
M  V30 3266 H 318.771 0.655862 0.103638 0
M  V30 3267 H 321.301 2.02201 -0.312381 0
M  V30 3268 H 321.311 3.87067 1.2901 0
M  V30 3269 H 319.986 4.15538 0.17347 0
M  V30 3270 H 318.563 3.27657 1.78032 0
M  V30 3271 N 320.748 -0.0735177 1.57428 0
M  V30 3272 C 321.658 -1.10547 2.06922 0
M  V30 3273 C 322.674 -1.42506 0.998402 0
M  V30 3274 O 323.85 -1.52717 1.31299 0
M  V30 3275 C 320.915 -2.40019 2.50184 0
M  V30 3276 C 319.976 -2.15046 3.71556 0
M  V30 3277 C 319.209 -3.38345 4.12745 0
M  V30 3278 O 319.432 -4.47399 3.53822 0
M  V30 3279 O 318.366 -3.2666 5.05546 0
M  V30 3280 H 322.192 -0.715013 2.95163 0
M  V30 3281 H 319.777 -0.287531 1.46607 0
M  V30 3282 H 321.659 -3.16218 2.78539 0
M  V30 3283 H 320.334 -2.78447 1.65072 0
M  V30 3284 H 319.241 -1.36558 3.48285 0
M  V30 3285 H 320.574 -1.81499 4.57514 0
M  V30 3286 N 322.226 -1.5378 -0.344866 0
M  V30 3287 C 323.474 -1.70625 -1.08311 0
M  V30 3288 C 323.795 -0.471447 -1.89215 0
M  V30 3289 O 323.065 0.514616 -1.8902 0
M  V30 3290 H 321.645 -0.629058 -0.402859 0
M  V30 3291 H 324.307 -1.9103 -0.386459 0
M  V30 3292 H 323.403 -2.57656 -1.76124 0
M  V30 3293 N 323.704 0.605807 -1.45491 0
M  V30 3294 C 324.634 1.72709 -1.57143 0
M  V30 3295 C 325.615 1.6476 -0.422884 0
M  V30 3296 O 326.8 1.83132 -0.646247 0
M  V30 3297 C 323.93 3.11316 -1.53948 0
M  V30 3298 C 322.884 3.34077 -2.67537 0
M  V30 3299 C 322.21 4.72975 -2.49397 0
M  V30 3300 C 323.51 3.24158 -4.09535 0
M  V30 3301 H 325.204 1.63214 -2.51001 0
M  V30 3302 H 322.75 0.78379 -1.208 0
M  V30 3303 H 324.703 3.89557 -1.60696 0
M  V30 3304 H 323.427 3.21655 -0.566205 0
M  V30 3305 H 322.086 2.58227 -2.6022 0
M  V30 3306 H 321.734 4.8005 -1.50205 0
M  V30 3307 H 321.434 4.8916 -3.25571 0
M  V30 3308 H 322.958 5.53414 -2.58002 0
M  V30 3309 H 324.372 3.92271 -4.18086 0
M  V30 3310 H 322.769 3.51872 -4.86113 0
M  V30 3311 H 323.839 2.2157 -4.31317 0
M  V30 3312 N 325.182 1.32811 0.848464 0
M  V30 3313 C 326.407 1.26882 1.6406 0
M  V30 3314 C 326.832 -0.15913 1.87426 0
M  V30 3315 O 326.19 -1.11258 1.43148 0
M  V30 3316 C 326.238 2.03997 2.97351 0
M  V30 3317 O 325.342 1.39201 3.88197 0
M  V30 3318 H 324.683 0.436982 0.499943 0
M  V30 3319 H 327.213 1.75224 1.0563 0
M  V30 3320 H 327.223 2.14403 3.47124 0
M  V30 3321 H 325.898 3.0783 2.79666 0
M  V30 3322 H 324.475 1.37381 3.46671 0
M  V30 3323 N 326.66 -1.06551 1.16123 0
M  V30 3324 C 328.071 -1.60768 0.949232 0
M  V30 3325 C 328.422 -1.89523 -0.507508 0
M  V30 3326 O 327.547 -1.66671 -1.38021 0
M  V30 3327 C 328.142 -2.92086 1.71671 0
M  V30 3328 C 326.701 -3.43015 1.54977 0
M  V30 3329 C 325.848 -2.16947 1.72711 0
M  V30 3330 H 328.799 -0.895354 1.31031 0
M  V30 3331 H 328.82 -3.6138 1.19099 0
M  V30 3332 H 328.332 -2.71127 2.7769 0
M  V30 3333 H 326.433 -3.69039 0.513873 0
M  V30 3334 H 326.546 -4.18516 2.33198 0
M  V30 3335 H 324.91 -2.27041 1.15431 0
M  V30 3336 H 325.693 -1.98473 2.80113 0
M  V30 3337 N 328.138 -0.959301 -1.25041 0
M  V30 3338 C 329.363 -0.633507 -1.97488 0
M  V30 3339 C 329.788 0.788555 -1.70773 0
M  V30 3340 O 329.146 1.53394 -0.966431 0
M  V30 3341 C 329.194 -0.904057 -3.49083 0
M  V30 3342 O 328.298 0.0147939 -4.12397 0
M  V30 3343 H 327.639 -0.240368 -0.618966 0
M  V30 3344 H 330.169 -1.28717 -1.59038 0
M  V30 3345 H 330.179 -0.832203 -3.99423 0
M  V30 3346 H 328.854 -1.94048 -3.67856 0
M  V30 3347 H 327.431 -0.109664 -3.72739 0
M  V30 3348 N 329.616 1.39756 -0.72842 0
M  V30 3349 C 331.032 1.5442 -0.403308 0
M  V30 3350 C 331.232 1.69694 1.08656 0
M  V30 3351 O 330.288 1.69373 1.87267 0
M  V30 3352 C 331.601 2.76555 -1.18058 0
M  V30 3353 C 333.149 2.90384 -1.16815 0
M  V30 3354 C 333.624 4.15449 -1.92785 0
M  V30 3355 N 335.115 4.22475 -1.89918 0
M  V30 3356 C 335.85 5.1818 -2.45514 0
M  V30 3357 N 335.346 6.19714 -3.09719 0
M  V30 3358 N 337.139 5.1035 -2.35584 0
M  V30 3359 H 329.29 1.28089 -1.69431 0
M  V30 3360 H 331.553 0.620327 -0.716867 0
M  V30 3361 H 331.259 2.7159 -2.23455 0
M  V30 3362 H 331.133 3.69033 -0.780662 0
M  V30 3363 H 333.52 2.94846 -0.12234 0
M  V30 3364 H 333.601 1.98988 -1.6074 0
M  V30 3365 H 333.245 4.11749 -2.97364 0
M  V30 3366 H 333.175 5.05877 -1.46272 0
M  V30 3367 H 335.666 3.49743 -1.43138 0
M  V30 3368 H 335.979 6.8919 -3.49625 0
M  V30 3369 H 334.324 6.20121 -3.13807 0
M  V30 3370 H 337.515 4.2996 -1.85072 0
M  V30 3371 H 337.688 5.84761 -2.79211 0
M  V30 3372 N 331.094 0.475555 1.50254 0
M  V30 3373 C 332.34 -0.0780073 2.0265 0
M  V30 3374 C 332.673 -1.38968 1.35652 0
M  V30 3375 O 331.948 -1.8839 0.483691 0
M  V30 3376 C 332.231 -0.257161 3.59181 0
M  V30 3377 C 332.084 1.07585 4.36744 0
M  V30 3378 C 333.403 -1.00965 4.28362 0
M  V30 3379 H 330.522 -0.0268758 0.73651 0
M  V30 3380 H 333.164 0.622015 1.7953 0
M  V30 3381 H 331.314 -0.853412 3.79011 0
M  V30 3382 H 332.986 1.70902 4.28474 0
M  V30 3383 H 331.229 1.6714 4.00308 0
M  V30 3384 H 331.9 0.904088 5.44546 0
M  V30 3385 H 334.376 -0.504214 4.13034 0
M  V30 3386 H 333.252 -1.10381 5.37687 0
M  V30 3387 H 333.513 -2.04731 3.91839 0
M  V30 3388 N 332.573 -1.56217 0.208337 0
M  V30 3389 C 333.813 -1.99849 -0.428927 0
M  V30 3390 C 334.177 -1.09262 -1.57879 0
M  V30 3391 O 335.378 -1.42185 -2.28116 0
M  V30 3392 C 333.649 -3.46777 -0.864879 0
M  V30 3393 S 335.208 -4.12434 -1.49811 0
M  V30 3394 H 332.026 -0.697742 -0.136665 0
M  V30 3395 H 334.628 -1.92953 0.314519 0
M  V30 3396 H 333.332 -4.10396 -0.0181326 0
M  V30 3397 H 332.863 -3.57518 -1.64147 0
M  V30 3398 H 334.878 -4.10532 -2.78707 0
M  V30 3399 N 334.051 0.0651679 -1.57465 0
M  V30 3400 C 335.3 0.761916 -1.86756 0
M  V30 3401 C 335.613 1.78406 -0.801925 0
M  V30 3402 O 336.819 2.53084 -0.982885 0
M  V30 3403 C 335.275 1.40603 -3.31299 0
M  V30 3404 C 334.883 0.422115 -4.46007 0
M  V30 3405 C 336.627 2.08476 -3.69781 0
M  V30 3406 C 334.534 1.07252 -5.81593 0
M  V30 3407 H 333.464 0.288308 -0.696702 0
M  V30 3408 H 336.115 0.015344 -1.83494 0
M  V30 3409 H 334.497 2.20109 -3.29193 0
M  V30 3410 H 335.671 -0.343613 -4.59517 0
M  V30 3411 H 333.986 -0.152527 -4.16121 0
M  V30 3412 H 336.583 2.57925 -4.68379 0
M  V30 3413 H 336.926 2.88712 -2.99919 0
M  V30 3414 H 337.459 1.35792 -3.73905 0
M  V30 3415 H 334.198 0.310342 -6.54765 0
M  V30 3416 H 333.718 1.80895 -5.71872 0
M  V30 3417 H 335.397 1.59043 -6.27148 0
M  V30 3418 N 335.529 1.53961 0.336706 0
M  V30 3419 C 336.777 1.71197 1.07405 0
M  V30 3420 C 337.098 0.481475 1.88962 0
M  V30 3421 O 336.368 -0.504585 1.8929 0
M  V30 3422 H 334.948 0.631185 0.399517 0
M  V30 3423 H 337.61 1.91232 0.376323 0
M  V30 3424 H 336.706 2.58587 1.74755 0
M  V30 3425 N 337.007 -0.598083 1.45811 0
M  V30 3426 C 337.957 -1.70272 1.51629 0
M  V30 3427 C 338.941 -1.56382 0.378629 0
M  V30 3428 O 340.133 -1.65557 0.626087 0
M  V30 3429 C 337.262 -3.09042 1.49493 0
M  V30 3430 C 336.348 -3.28284 2.68496 0
M  V30 3431 N 336.739 -3.17748 3.93535 0
M  V30 3432 C 335.037 -3.59182 2.64394 0
M  V30 3433 C 335.738 -3.38579 4.7301 0
M  V30 3434 N 334.714 -3.63016 4.04624 0
M  V30 3435 H 338.516 -1.60634 2.46118 0
M  V30 3436 H 336.03 -0.801642 1.41235 0
M  V30 3437 H 338.027 -3.88302 1.51747 0
M  V30 3438 H 336.687 -3.19823 0.560683 0
M  V30 3439 H 337.698 -2.95944 4.25014 0
M  V30 3440 H 334.375 -3.76742 1.79922 0
M  V30 3441 H 335.765 -3.35747 5.82 0
M  V30 3442 N 338.485 -1.33259 -0.841409 0
M  V30 3443 C 339.71 -1.2775 -1.63385 0
M  V30 3444 C 340.135 0.149188 -1.87507 0
M  V30 3445 O 339.493 1.10498 -1.43736 0
M  V30 3446 C 339.541 -2.05571 -2.96265 0
M  V30 3447 O 338.645 -1.41257 -3.87453 0
M  V30 3448 H 337.986 -0.439627 -0.497618 0
M  V30 3449 H 340.516 -1.75782 -1.04699 0
M  V30 3450 H 340.526 -2.16241 -3.45982 0
M  V30 3451 H 339.201 -3.09309 -2.7803 0
M  V30 3452 H 337.778 -1.39217 -3.45938 0
M  V30 3453 N 339.963 1.05934 -1.16686 0
M  V30 3454 C 341.24 1.75643 -0.860747 0
M  V30 3455 C 341.62 2.01144 0.640641 0
M  V30 3456 O 340.968 1.64147 1.58959 0
M  V30 3457 C 341.178 3.05493 -1.68745 0
M  V30 3458 C 342.526 3.79581 -1.90271 0
M  V30 3459 O 343.55 3.15344 -1.65641 0
M  V30 3460 O 342.409 4.9499 -2.31618 0
M  V30 3461 H 339.503 0.763426 -0.317977 0
M  V30 3462 H 342.049 1.1217 -1.27342 0
M  V30 3463 H 340.821 2.8264 -2.70611 0
M  V30 3464 H 340.444 3.76702 -1.27206 0
M  V30 3465 N 341.441 0.965919 1.2453 0
M  V30 3466 C 342.718 0.543777 1.87889 0
M  V30 3467 C 343.098 -0.97909 1.87021 0
M  V30 3468 O 342.446 -1.84969 1.3416 0
M  V30 3469 C 342.656 1.13327 3.30088 0
M  V30 3470 C 344.004 1.21707 4.06783 0
M  V30 3471 O 345.028 1.08566 3.39252 0
M  V30 3472 O 343.887 1.42456 5.27606 0
M  V30 3473 H 340.981 0.181054 0.806938 0
M  V30 3474 H 343.527 1.06007 1.32516 0
M  V30 3475 H 342.299 2.17612 3.25209 0
M  V30 3476 H 341.922 0.600911 3.93033 0
M  V30 3477 N 342.919 -1.39368 0.735821 0
M  V30 3478 C 344.147 -2.04795 0.294393 0
M  V30 3479 C 344.562 -1.55478 -1.07107 0
M  V30 3480 O 343.919 -0.720038 -1.67695 0
M  V30 3481 C 343.97 -3.6035 0.288071 0
M  V30 3482 O 343.691 -4.07852 1.59963 0
M  V30 3483 C 345.192 -4.42976 -0.169422 0
M  V30 3484 H 342.412 -0.658571 0.128551 0
M  V30 3485 H 344.956 -1.78399 0.999701 0
M  V30 3486 H 343.111 -3.85645 -0.368355 0
M  V30 3487 H 343.525 -5.02181 1.51375 0
M  V30 3488 H 344.999 -5.51864 -0.122687 0
M  V30 3489 H 345.476 -4.22068 -1.21472 0
M  V30 3490 H 346.082 -4.22832 0.457469 0
M  V30 3491 N 344.397 -0.483516 -1.5 0
M  V30 3492 C 345.674 0.129337 -1.95172 0
M  V30 3493 C 346.054 1.55802 -1.4244 0
M  V30 3494 O 345.402 2.19625 -0.630649 0
M  V30 3495 C 345.612 0.0599251 -3.48949 0
M  V30 3496 C 346.96 0.242617 -4.23906 0
M  V30 3497 O 347.984 0.135933 -3.55941 0
M  V30 3498 O 346.843 0.459454 -5.44565 0
M  V30 3499 H 343.937 0.104887 -0.820322 0
M  V30 3500 H 346.483 -0.544807 -1.60717 0
M  V30 3501 H 345.255 -0.937079 -3.79914 0
M  V30 3502 H 344.878 0.774984 -3.89974 0
M  V30 3503 N 345.875 1.56104 -0.216619 0
M  V30 3504 C 347.152 1.89988 0.465165 0
M  V30 3505 C 347.532 1.13326 1.78102 0
M  V30 3506 O 346.88 0.241033 2.27225 0
M  V30 3507 C 347.09 3.42646 0.662939 0
M  V30 3508 C 348.438 4.13311 0.972602 0
M  V30 3509 O 349.462 3.48217 0.749901 0
M  V30 3510 O 348.321 5.28396 1.39499 0
M  V30 3511 H 345.415 0.78979 0.245276 0
M  V30 3512 H 347.961 1.67721 -0.258436 0
M  V30 3513 H 346.733 3.90399 -0.26543 0
M  V30 3514 H 346.356 3.70677 1.43821 0
M  V30 3515 N 347.353 -0.0568162 1.57498 0
M  V30 3516 C 348.283 -1.06593 2.0775 0
M  V30 3517 C 349.264 -1.39448 0.974082 0
M  V30 3518 O 350.449 -1.48815 1.24771 0
M  V30 3519 C 347.579 -2.37509 2.5339 0
M  V30 3520 C 346.533 -2.1897 3.67745 0
M  V30 3521 C 345.859 -3.55402 3.99492 0
M  V30 3522 C 347.159 -1.59859 4.97235 0
M  V30 3523 H 348.853 -0.647706 2.9231 0
M  V30 3524 H 346.399 -0.310116 1.40621 0
M  V30 3525 H 348.352 -3.08409 2.87162 0
M  V30 3526 H 347.076 -2.8134 1.65878 0
M  V30 3527 H 345.735 -1.50508 3.3428 0
M  V30 3528 H 345.383 -3.9683 3.09088 0
M  V30 3529 H 345.083 -3.43831 4.76502 0
M  V30 3530 H 346.607 -4.27708 4.35773 0
M  V30 3531 H 348.021 -2.20642 5.29141 0
M  V30 3532 H 346.418 -1.58942 5.78669 0
M  V30 3533 H 347.488 -0.561506 4.81638 0
M  V30 3534 N 348.832 -1.54138 -0.328536 0
M  V30 3535 C 350.057 -1.76378 -1.09112 0
M  V30 3536 C 350.482 -0.508596 -1.81094 0
M  V30 3537 O 349.84 0.539598 -1.73084 0
M  V30 3538 C 349.888 -2.95358 -2.06872 0
M  V30 3539 O 348.992 -2.66556 -3.14677 0
M  V30 3540 H 348.333 -0.584614 -0.314838 0
M  V30 3541 H 350.863 -2.01146 -0.374348 0
M  V30 3542 H 350.873 -3.22566 -2.4983 0
M  V30 3543 H 349.548 -3.86385 -1.5388 0
M  V30 3544 H 348.125 -2.50282 -2.7643 0
M  V30 3545 N 350.31 0.590341 -1.46126 0
M  V30 3546 C 351.54 1.37304 -1.54373 0
M  V30 3547 C 351.948 1.88332 -0.181071 0
M  V30 3548 O 351.291 1.63852 0.830559 0
M  V30 3549 C 351.353 2.6012 -2.48149 0
M  V30 3550 C 351.017 2.30613 -3.94546 0
M  V30 3551 C 352.014 1.89915 -4.83971 0
M  V30 3552 C 349.699 2.42993 -4.39613 0
M  V30 3553 C 351.693 1.61981 -6.16475 0
M  V30 3554 C 349.38 2.14672 -5.72153 0
M  V30 3555 C 350.378 1.7423 -6.60404 0
M  V30 3556 O 350.066 1.46251 -7.90485 0
M  V30 3557 H 349.798 0.426086 -0.524811 0
M  V30 3558 H 352.352 0.72539 -1.92165 0
M  V30 3559 H 350.582 3.27664 -2.05361 0
M  V30 3560 H 352.271 3.22182 -2.46887 0
M  V30 3561 H 353.037 1.79872 -4.50412 0
M  V30 3562 H 348.916 2.73435 -3.71153 0
M  V30 3563 H 352.46 1.30341 -6.85315 0
M  V30 3564 H 348.357 2.24337 -6.05263 0
M  V30 3565 H 349.125 1.6016 -8.02677 0
M  V30 3566 N 351.788 1.33704 0.83433 0
M  V30 3567 C 352.718 1.26967 1.95963 0
M  V30 3568 C 353.699 0.149337 1.69443 0
M  V30 3569 O 354.884 0.339852 1.91203 0
M  V30 3570 C 352.014 1.01275 3.32206 0
M  V30 3571 C 350.968 2.09652 3.73136 0
M  V30 3572 C 350.294 1.69166 5.07235 0
M  V30 3573 C 351.594 3.51372 3.86439 0
M  V30 3574 H 353.288 2.2112 2.01857 0
M  V30 3575 H 350.834 1.06447 0.969793 0
M  V30 3576 H 352.787 0.952106 4.10503 0
M  V30 3577 H 351.511 0.0356203 3.26581 0
M  V30 3578 H 350.17 2.14766 2.97104 0
M  V30 3579 H 349.818 0.701437 4.98085 0
M  V30 3580 H 349.518 2.41694 5.35591 0
M  V30 3581 H 351.042 1.64576 5.88003 0
M  V30 3582 H 352.456 3.48734 4.55036 0
M  V30 3583 H 350.853 4.22425 4.26236 0
M  V30 3584 H 351.923 3.89546 2.88759 0
M  V30 3585 N 353.266 -1.05314 1.17247 0
M  V30 3586 C 354.494 -1.81971 0.984593 0
M  V30 3587 C 354.909 -1.82929 -0.467166 0
M  V30 3588 O 354.266 -1.25564 -1.32438 0
M  V30 3589 C 354.317 -3.28143 1.51672 0
M  V30 3590 O 354.038 -3.27347 2.91163 0
M  V30 3591 C 355.539 -4.21493 1.37326 0
M  V30 3592 H 352.759 -0.573455 0.348411 0
M  V30 3593 H 355.303 -1.32808 1.55506 0
M  V30 3594 H 353.458 -3.74582 0.988302 0
M  V30 3595 H 353.872 -4.18824 3.15732 0
M  V30 3596 H 355.346 -5.22043 1.79375 0
M  V30 3597 H 355.823 -4.38031 0.320169 0
M  V30 3598 H 356.429 -3.80909 1.89178 0
M  V30 3599 N 354.744 -0.972509 -1.24016 0
M  V30 3600 C 355.992 -0.635776 -1.91839 0
M  V30 3601 C 356.313 0.832312 -1.76345 0
M  V30 3602 O 355.583 1.5946 -1.13795 0
M  V30 3603 H 354.163 -0.232157 -0.710009 0
M  V30 3604 H 356.825 -1.23462 -1.50809 0
M  V30 3605 H 355.921 -0.880545 -2.99421 0
M  V30 3606 N 356.222 1.38976 -0.743202 0
M  V30 3607 C 357.152 2.33171 -0.123873 0
M  V30 3608 C 358.133 1.54336 0.71516 0
M  V30 3609 O 359.318 1.82696 0.658467 0
M  V30 3610 C 356.448 3.38474 0.777978 0
M  V30 3611 C 355.402 4.27979 0.0424758 0
M  V30 3612 C 354.728 5.2405 1.06189 0
M  V30 3613 C 356.028 5.10155 -1.1198 0
M  V30 3614 H 357.722 2.85213 -0.910709 0
M  V30 3615 H 355.268 1.37133 -0.439388 0
M  V30 3616 H 357.221 4.03328 1.22084 0
M  V30 3617 H 355.945 2.84891 1.59702 0
M  V30 3618 H 354.604 3.64616 -0.380853 0
M  V30 3619 H 354.252 4.66758 1.87472 0
M  V30 3620 H 353.952 5.84785 0.574485 0
M  V30 3621 H 355.476 5.9178 1.50428 0
M  V30 3622 H 356.89 5.68307 -0.75499 0
M  V30 3623 H 355.287 5.80073 -1.53738 0
M  V30 3624 H 356.357 4.44504 -1.93764 0
M  V30 3625 N 357.7 0.491464 1.49741 0
M  V30 3626 C 358.663 -0.280906 2.27472 0
M  V30 3627 C 359.663 -0.902454 1.33088 0
M  V30 3628 O 360.853 -0.768465 1.56334 0
M  V30 3629 C 357.985 -1.40209 3.10732 0
M  V30 3630 H 359.178 0.401056 2.97206 0
M  V30 3631 H 356.731 0.246131 1.5435 0
M  V30 3632 H 357.466 -2.11849 2.45541 0
M  V30 3633 H 357.251 -0.961969 3.80117 0
M  V30 3634 H 358.741 -1.9464 3.69466 0
M  V30 3635 N 359.178 -1.55987 0.224894 0
M  V30 3636 C 360.141 -2.19178 -0.670348 0
M  V30 3637 C 361.141 -1.15461 -1.11917 0
M  V30 3638 O 362.331 -1.40675 -1.02743 0
M  V30 3639 C 359.463 -2.81777 -1.9187 0
M  V30 3640 H 360.656 -2.99662 -0.119364 0
M  V30 3641 H 358.209 -1.5628 -0.0247128 0
M  V30 3642 H 358.944 -2.05172 -2.51147 0
M  V30 3643 H 358.729 -3.57732 -1.60531 0
M  V30 3644 H 360.219 -3.30205 -2.55645 0
M  V30 3645 N 360.656 0.0484629 -1.57525 0
M  V30 3646 C 362.072 0.40375 -1.54409 0
M  V30 3647 C 362.272 1.77786 -0.948384 0
M  V30 3648 O 361.328 2.46189 -0.560983 0
M  V30 3649 C 362.641 0.323394 -2.98956 0
M  V30 3650 C 364.189 0.401892 -3.10409 0
M  V30 3651 C 364.664 0.351195 -4.56652 0
M  V30 3652 N 366.155 0.410576 -4.61377 0
M  V30 3653 C 366.89 0.393933 -5.72045 0
M  V30 3654 N 366.386 0.330724 -6.9201 0
M  V30 3655 N 368.179 0.442227 -5.60358 0
M  V30 3656 H 360.33 -0.851016 -1.94606 0
M  V30 3657 H 362.593 -0.321721 -0.89174 0
M  V30 3658 H 362.299 -0.62011 -3.4619 0
M  V30 3659 H 362.173 1.12463 -3.60044 0
M  V30 3660 H 364.56 1.33582 -2.63134 0
M  V30 3661 H 364.641 -0.428342 -2.52188 0
M  V30 3662 H 364.285 -0.578987 -5.04589 0
M  V30 3663 H 364.215 1.19928 -5.12762 0
M  V30 3664 H 366.706 0.462729 -3.75056 0
M  V30 3665 H 367.019 0.322592 -7.72126 0
M  V30 3666 H 365.364 0.29706 -6.94365 0
M  V30 3667 H 368.555 0.489464 -4.65534 0
M  V30 3668 H 368.728 0.425788 -6.466 0
M  V30 3669 N 362.134 1.5431 0.320358 0
M  V30 3670 C 363.382 1.72327 1.05583 0
M  V30 3671 C 363.703 0.50149 1.88441 0
M  V30 3672 O 362.973 -0.48448 1.89815 0
M  V30 3673 H 361.553 0.635387 0.3928 0
M  V30 3674 H 364.215 1.91621 0.356019 0
M  V30 3675 H 363.311 2.60426 1.72003 0
M  V30 3676 N 363.613 -0.582584 1.46437 0
M  V30 3677 C 364.843 -1.36484 1.55099 0
M  V30 3678 C 365.251 -1.88233 0.191056 0
M  V30 3679 O 364.594 -1.6429 -0.821858 0
M  V30 3680 C 364.656 -2.588 2.49525 0
M  V30 3681 C 364.32 -2.28517 3.95764 0
M  V30 3682 C 365.317 -1.87346 4.84972 0
M  V30 3683 C 363.002 -2.40658 4.40896 0
M  V30 3684 C 364.996 -1.5871 6.17325 0
M  V30 3685 C 362.683 -2.11635 5.73284 0
M  V30 3686 C 363.681 -1.70725 6.61318 0
M  V30 3687 O 363.369 -1.42057 7.91249 0
M  V30 3688 H 363.101 -0.423297 0.527063 0
M  V30 3689 H 365.655 -0.715188 1.92547 0
M  V30 3690 H 363.885 -3.26571 2.07095 0
M  V30 3691 H 365.574 -3.20868 2.48593 0
M  V30 3692 H 366.34 -1.77481 4.5136 0
M  V30 3693 H 362.219 -2.71463 3.72598 0
M  V30 3694 H 365.763 -1.26704 6.85997 0
M  V30 3695 H 361.66 -2.21124 6.06444 0
M  V30 3696 H 362.428 -1.55901 8.03515 0
M  V30 3697 N 365.091 -1.34144 -0.827227 0
M  V30 3698 C 366.021 -1.28005 -1.95287 0
M  V30 3699 C 367.002 -0.158321 -1.69362 0
M  V30 3700 O 368.187 -0.349987 -1.9102 0
M  V30 3701 C 365.317 -1.03036 -3.31664 0
M  V30 3702 C 364.271 -2.11628 -3.72019 0
M  V30 3703 C 363.597 -1.71854 -5.0633 0
M  V30 3704 C 364.897 -3.53417 -3.8457 0
M  V30 3705 H 366.591 -2.22187 -2.00682 0
M  V30 3706 H 364.137 -1.0696 -0.964135 0
M  V30 3707 H 366.09 -0.973863 -4.09993 0
M  V30 3708 H 364.814 -0.0529391 -3.26557 0
M  V30 3709 H 363.473 -2.16339 -2.95961 0
M  V30 3710 H 363.121 -0.727841 -4.97706 0
M  V30 3711 H 362.821 -2.44531 -5.34302 0
M  V30 3712 H 364.345 -1.67692 -5.87122 0
M  V30 3713 H 365.759 -3.51142 -4.5318 0
M  V30 3714 H 364.156 -4.24679 -4.2399 0
M  V30 3715 H 365.226 -3.91072 -2.86689 0
M  V30 3716 N 366.569 1.04691 -1.17803 0
M  V30 3717 C 367.815 1.78045 -0.970969 0
M  V30 3718 C 368.148 1.87686 0.498751 0
M  V30 3719 O 367.423 1.38035 1.37027 0
M  V30 3720 C 367.706 3.2166 -1.61884 0
M  V30 3721 C 367.559 3.20001 -3.161 0
M  V30 3722 C 368.878 4.1962 -1.3269 0
M  V30 3723 H 365.997 0.64633 -0.354155 0
M  V30 3724 H 368.639 1.22333 -1.45378 0
M  V30 3725 H 366.789 3.69232 -1.20831 0
M  V30 3726 H 368.461 2.80467 -3.66246 0
M  V30 3727 H 366.704 2.58203 -3.48588 0
M  V30 3728 H 367.375 4.21386 -3.56564 0
M  V30 3729 H 369.851 3.80567 -1.68249 0
M  V30 3730 H 368.727 5.18339 -1.80599 0
M  V30 3731 H 368.988 4.414 -0.248622 0
M  V30 3732 N 368.047 0.979072 1.23499 0
M  V30 3733 C 369.295 0.645941 1.91499 0
M  V30 3734 C 369.616 -0.822948 1.76784 0
M  V30 3735 O 368.886 -1.58854 1.14639 0
M  V30 3736 H 367.466 0.235919 0.708767 0
M  V30 3737 H 370.128 1.2426 1.50152 0
M  V30 3738 H 369.224 0.896411 2.9895 0
M  V30 3739 N 369.525 -1.3858 0.750561 0
M  V30 3740 C 370.455 -2.33102 0.136237 0
M  V30 3741 C 371.436 -1.54713 -0.706965 0
M  V30 3742 O 372.621 -1.83043 -0.648769 0
M  V30 3743 C 369.751 -3.38882 -0.760017 0
M  V30 3744 C 368.705 -4.27995 -0.0197785 0
M  V30 3745 C 368.031 -5.24605 -1.03408 0
M  V30 3746 C 369.331 -5.09554 1.14684 0
M  V30 3747 H 371.025 -2.84726 0.925822 0
M  V30 3748 H 368.571 -1.36898 0.446654 0
M  V30 3749 H 370.524 -4.0397 -1.19943 0
M  V30 3750 H 369.248 -2.85734 -1.58189 0
M  V30 3751 H 367.907 -3.64409 0.400184 0
M  V30 3752 H 367.555 -4.67746 -1.84994 0
M  V30 3753 H 367.255 -5.85081 -0.543464 0
M  V30 3754 H 368.779 -5.9257 -1.47288 0
M  V30 3755 H 370.193 -5.67899 0.785118 0
M  V30 3756 H 368.59 -5.7925 1.56812 0
M  V30 3757 H 369.66 -4.4347 1.96118 0
M  V30 3758 N 371.003 -0.499398 -1.49478 0
M  V30 3759 C 372.28 0.108629 -1.95298 0
M  V30 3760 C 372.66 1.54282 -1.44084 0
M  V30 3761 O 372.008 2.18944 -0.653908 0
M  V30 3762 C 372.218 0.0229111 -3.48992 0
M  V30 3763 C 373.566 0.197643 -4.2414 0
M  V30 3764 O 374.59 0.0981735 -3.56065 0
M  V30 3765 O 373.449 0.401669 -5.45022 0
M  V30 3766 H 370.543 0.096181 -0.821388 0
M  V30 3767 H 373.089 -0.561822 -1.6013 0
M  V30 3768 H 371.861 -0.977321 -3.78899 0
M  V30 3769 H 371.484 0.733579 -3.90774 0
M  V30 3770 N 372.481 1.55866 -0.233164 0
M  V30 3771 C 373.897 1.59133 0.121988 0
M  V30 3772 C 374.097 1.25016 1.58029 0
M  V30 3773 O 373.153 0.990922 2.32243 0
M  V30 3774 C 374.466 2.99932 -0.214792 0
M  V30 3775 C 376.014 3.12601 -0.157971 0
M  V30 3776 C 376.489 4.55597 -0.46859 0
M  V30 3777 N 377.98 4.61305 -0.418585 0
M  V30 3778 C 378.715 5.69903 -0.63227 0
M  V30 3779 N 378.211 6.86819 -0.90835 0
M  V30 3780 N 380.004 5.59264 -0.563913 0
M  V30 3781 H 372.155 1.76315 -1.18434 0
M  V30 3782 H 374.418 0.820093 -0.475553 0
M  V30 3783 H 374.124 3.29588 -1.22739 0
M  V30 3784 H 373.998 3.74327 0.464691 0
M  V30 3785 H 376.385 2.82735 0.845283 0
M  V30 3786 H 376.466 2.40511 -0.871102 0
M  V30 3787 H 376.11 4.86182 -1.46934 0
M  V30 3788 H 376.04 5.25928 0.265865 0
M  V30 3789 H 378.531 3.77297 -0.213368 0
M  V30 3790 H 378.844 7.65507 -1.05919 0
M  V30 3791 H 377.189 6.88536 -0.945673 0
M  V30 3792 H 380.38 4.66802 -0.348372 0
M  V30 3793 H 380.553 6.43831 -0.733847 0
M  V30 3794 N 373.959 -0.0401083 1.57549 0
M  V30 3795 C 374.892 -1.07689 2.01192 0
M  V30 3796 C 375.87 -1.358 0.894273 0
M  V30 3797 O 377.054 -1.48642 1.15921 0
M  V30 3798 C 374.181 -2.41418 2.3756 0
M  V30 3799 C 373.227 -2.29237 3.59656 0
M  V30 3800 S 374.06 -1.65628 5.09242 0
M  V30 3801 C 375.216 -3.0087 5.48843 0
M  V30 3802 H 375.449 -0.705108 2.88817 0
M  V30 3803 H 372.982 -0.249724 1.52367 0
M  V30 3804 H 374.94 -3.18329 2.59186 0
M  V30 3805 H 373.601 -2.75747 1.50407 0
M  V30 3806 H 372.794 -3.27932 3.82722 0
M  V30 3807 H 372.396 -1.60469 3.37825 0
M  V30 3808 H 374.688 -3.97201 5.48851 0
M  V30 3809 H 375.631 -2.82549 6.49286 0
M  V30 3810 H 376.039 -3.02934 4.76331 0
M  V30 3811 N 375.437 -1.54477 -0.31217 0
M  V30 3812 C 376.848 -1.64344 -0.885891 0
M  V30 3813 C 377.199 -0.54485 -1.88483 0
M  V30 3814 O 376.324 0.320387 -2.14015 0
M  V30 3815 C 376.919 -2.97908 -1.61357 0
M  V30 3816 C 375.478 -3.09933 -2.13585 0
M  V30 3817 C 374.625 -2.59971 -0.964897 0
M  V30 3818 H 377.576 -1.58448 -0.0894528 0
M  V30 3819 H 377.597 -2.88706 -2.47848 0
M  V30 3820 H 377.109 -3.77845 -0.886277 0
M  V30 3821 H 375.21 -2.34694 -2.89395 0
M  V30 3822 H 375.323 -4.15916 -2.37804 0
M  V30 3823 H 373.687 -2.16147 -1.34731 0
M  V30 3824 H 374.47 -3.42376 -0.251742 0
M  V30 3825 N 376.915 0.57481 -1.46744 0
M  V30 3826 C 378.145 1.35659 -1.55821 0
M  V30 3827 C 378.553 1.88129 -0.201036 0
M  V30 3828 O 377.896 1.64723 0.813134 0
M  V30 3829 C 377.958 2.57473 -2.50894 0
M  V30 3830 C 377.622 2.26415 -3.9697 0
M  V30 3831 C 378.619 1.84771 -4.85958 0
M  V30 3832 C 376.304 2.38316 -4.42166 0
M  V30 3833 C 378.298 1.55434 -6.18158 0
M  V30 3834 C 375.985 2.08591 -5.74398 0
M  V30 3835 C 376.983 1.67216 -6.62214 0
M  V30 3836 O 376.671 1.37859 -7.91991 0
M  V30 3837 H 376.403 0.420496 -0.529301 0
M  V30 3838 H 378.957 0.704967 -1.92923 0
M  V30 3839 H 377.187 3.25468 -2.08824 0
M  V30 3840 H 378.876 3.19546 -2.50291 0
M  V30 3841 H 379.642 1.75085 -4.52295 0
M  V30 3842 H 375.521 2.69483 -3.74032 0
M  V30 3843 H 379.065 1.23065 -6.86659 0
M  V30 3844 H 374.962 2.17905 -6.07608 0
M  V30 3845 H 375.73 1.51638 -8.04331 0
M  V30 3846 N 378.394 1.34581 0.820102 0
M  V30 3847 C 379.619 1.30333 1.61332 0
M  V30 3848 C 380.044 -0.119339 1.87721 0
M  V30 3849 O 379.402 -1.08197 1.45475 0
M  V30 3850 C 379.45 2.10258 2.92957 0
M  V30 3851 O 378.554 1.47404 3.85157 0
M  V30 3852 H 377.895 0.447488 0.490561 0
M  V30 3853 H 380.425 1.77425 1.01889 0
M  V30 3854 H 380.435 2.21718 3.42498 0
M  V30 3855 H 379.11 3.13693 2.73074 0
M  V30 3856 H 377.687 1.44703 3.43679 0
M  V30 3857 N 379.872 -1.04064 1.18357 0
M  V30 3858 C 380.835 -2.10243 0.912707 0
M  V30 3859 C 381.835 -1.60477 -0.101928 0
M  V30 3860 O 383.025 -1.73703 0.131517 0
M  V30 3861 C 380.157 -3.38893 0.369387 0
M  V30 3862 H 381.35 -2.35706 1.85426 0
M  V30 3863 H 378.903 -1.20489 0.995594 0
M  V30 3864 H 379.638 -3.19094 -0.578776 0
M  V30 3865 H 379.423 -3.76331 1.1008 0
M  V30 3866 H 380.913 -4.17128 0.198575 0
M  V30 3867 N 381.35 -0.985608 -1.22978 0
M  V30 3868 C 382.599 -0.652881 -1.90841 0
M  V30 3869 C 382.912 0.817842 -1.77681 0
M  V30 3870 O 384.118 1.26185 -2.40395 0
M  V30 3871 C 382.574 -1.11717 -3.42122 0
M  V30 3872 C 382.182 -2.6126 -3.63933 0
M  V30 3873 C 383.926 -0.85843 -4.1573 0
M  V30 3874 C 381.833 -3.0133 -5.08876 0
M  V30 3875 H 380.763 -0.240491 -0.714619 0
M  V30 3876 H 383.414 -1.1942 -1.39324 0
M  V30 3877 H 381.796 -0.504027 -3.92779 0
M  V30 3878 H 382.97 -3.27858 -3.23799 0
M  V30 3879 H 381.285 -2.84937 -3.03644 0
M  V30 3880 H 383.882 -1.13359 -5.22546 0
M  V30 3881 H 384.225 0.205461 -4.15793 0
M  V30 3882 H 384.758 -1.43341 -3.71077 0
M  V30 3883 H 381.497 -4.06864 -5.13947 0
M  V30 3884 H 381.017 -2.3943 -5.49939 0
M  V30 3885 H 382.696 -2.92224 -5.77247 0
M  V30 3886 N 382.828 1.3818 -0.7579 0
M  V30 3887 C 384.076 1.99624 -0.315361 0
M  V30 3888 C 384.397 1.60464 1.10799 0
M  V30 3889 O 383.667 0.863507 1.75842 0
M  V30 3890 H 382.247 0.73831 -0.113611 0
M  V30 3891 H 384.909 1.68878 -0.972952 0
M  V30 3892 H 384.005 3.09754 -0.381931 0
M  V30 3893 N 384.306 0.507319 1.49211 0
M  V30 3894 C 385.236 -0.256939 2.32082 0
M  V30 3895 C 386.217 -0.956609 1.40652 0
M  V30 3896 O 387.402 -0.946788 1.69557 0
M  V30 3897 C 384.532 -1.31802 3.21318 0
M  V30 3898 C 383.486 -0.737855 4.21592 0
M  V30 3899 C 382.812 -1.89992 4.99807 0
M  V30 3900 C 384.112 0.275325 5.21574 0
M  V30 3901 H 385.806 0.434798 2.96226 0
M  V30 3902 H 383.352 0.210546 1.42452 0
M  V30 3903 H 385.305 -1.86045 3.78107 0
M  V30 3904 H 384.029 -2.03903 2.5513 0
M  V30 3905 H 382.688 -0.217126 3.65956 0
M  V30 3906 H 382.336 -2.60877 4.30061 0
M  V30 3907 H 382.036 -1.51777 5.6766 0
M  V30 3908 H 383.56 -2.44657 5.59442 0
M  V30 3909 H 384.974 -0.179193 5.7302 0
M  V30 3910 H 383.371 0.573649 5.97352 0
M  V30 3911 H 384.441 1.18903 4.70096 0
M  V30 3912 N 385.784 -1.5574 0.241426 0
M  V30 3913 C 386.694 -2.2479 -0.671305 0
M  V30 3914 C 387.71 -1.26217 -1.19772 0
M  V30 3915 O 388.886 -1.59079 -1.23514 0
M  V30 3916 C 385.951 -2.92966 -1.85396 0
M  V30 3917 C 385.012 -4.06935 -1.36756 0
M  V30 3918 C 384.245 -4.71851 -2.49384 0
M  V30 3919 O 384.468 -4.35823 -3.67987 0
M  V30 3920 O 383.402 -5.60467 -2.19454 0
M  V30 3921 H 387.228 -3.0349 -0.112966 0
M  V30 3922 H 384.813 -1.49397 0.0101513 0
M  V30 3923 H 386.695 -3.35927 -2.54423 0
M  V30 3924 H 385.37 -2.17211 -2.40002 0
M  V30 3925 H 384.277 -3.68503 -0.644726 0
M  V30 3926 H 385.61 -4.84492 -0.867647 0
M  V30 3927 N 387.262 0.0317525 -1.57568 0
M  V30 3928 C 388.51 0.721676 -1.88776 0
M  V30 3929 C 388.831 1.76039 -0.838772 0
M  V30 3930 O 388.101 1.95482 0.127935 0
M  V30 3931 H 386.681 0.269534 -0.696678 0
M  V30 3932 H 389.343 -0.00165879 -1.949 0
M  V30 3933 H 388.439 1.21293 -2.87566 0
M  V30 3934 N 388.74 1.54641 0.303973 0
M  V30 3935 C 389.688 1.86137 1.39484 0
M  V30 3936 C 390.682 0.734854 1.52631 0
M  V30 3937 O 391.888 0.918803 1.54784 0
M  V30 3938 H 388.263 0.590324 0.465856 0
M  V30 3939 H 390.234 2.77324 1.10154 0
M  V30 3940 C 388.983 2.12274 2.75382 0
M  V30 3941 H 388.306 2.98429 2.66046 0
M  V30 3942 H 389.746 2.38254 3.5073 0
M  V30 3943 C 388.205 0.920365 3.24085 0
M  V30 3944 O 388.735 0.139377 4.01458 0
M  V30 3945 N 386.941 0.726566 2.81371 0
M  V30 3946 H 386.488 1.36332 2.18567 0
M  V30 3947 H 386.446 -0.0763799 3.14307 0
M  V30 3948 N 390.218 -0.567019 1.47046 0
M  V30 3949 C 391.181 -1.65696 1.58359 0
M  V30 3950 C 392.181 -1.54097 0.459441 0
M  V30 3951 O 393.371 -1.58432 0.724225 0
M  V30 3952 C 390.503 -3.05197 1.51879 0
M  V30 3953 H 391.696 -1.57019 2.5551 0
M  V30 3954 H 389.249 -0.786148 1.3509 0
M  V30 3955 H 389.984 -3.19417 0.560673 0
M  V30 3956 H 389.769 -3.15025 2.33455 0
M  V30 3957 H 391.259 -3.84511 1.62913 0
M  V30 3958 N 391.696 -1.35014 -0.812953 0
M  V30 3959 C 392.921 -1.31187 -1.60639 0
M  V30 3960 C 393.346 0.109382 -1.87782 0
M  V30 3961 O 392.704 1.07424 -1.46047 0
M  V30 3962 C 392.752 -2.11809 -2.91838 0
M  V30 3963 O 391.856 -1.49444 -3.8437 0
M  V30 3964 H 391.197 -0.450084 -0.488181 0
M  V30 3965 H 393.727 -1.77963 -1.00947 0
M  V30 3966 H 393.737 -2.23531 -3.41318 0
M  V30 3967 H 392.412 -3.15137 -2.71407 0
M  V30 3968 H 390.989 -1.46524 -3.42907 0
M  V30 3969 N 393.175 1.03435 -1.18907 0
M  V30 3970 C 394.138 2.09756 -0.923844 0
M  V30 3971 C 395.138 1.60528 0.093416 0
M  V30 3972 O 396.328 1.73631 -0.140727 0
M  V30 3973 C 393.46 3.38692 -0.387354 0
M  V30 3974 H 394.653 2.34719 -1.86674 0
M  V30 3975 H 392.206 1.19959 -1.00197 0
M  V30 3976 H 392.941 3.19396 0.561845 0
M  V30 3977 H 392.726 3.75742 -1.12074 0
M  V30 3978 H 394.216 4.17016 -0.220694 0
M  V30 3979 N 394.653 0.992116 1.22453 0
M  V30 3980 C 395.583 0.561677 2.26644 0
M  V30 3981 C 396.564 -0.411055 1.65059 0
M  V30 3982 O 397.749 -0.301861 1.9184 0
M  V30 3983 C 394.879 -0.125247 3.47074 0
M  V30 3984 C 393.833 0.765948 4.21091 0
M  V30 3985 C 393.159 -0.0538484 5.34673 0
M  V30 3986 C 394.459 2.06242 4.79856 0
M  V30 3987 H 396.153 1.43259 2.62902 0
M  V30 3988 H 393.699 0.690283 1.26377 0
M  V30 3989 H 395.652 -0.437764 4.1912 0
M  V30 3990 H 394.376 -1.03069 3.0991 0
M  V30 3991 H 393.035 1.0621 3.50878 0
M  V30 3992 H 392.683 -0.960188 4.9375 0
M  V30 3993 H 392.383 0.539415 5.85119 0
M  V30 3994 H 393.907 -0.360477 6.09535 0
M  V30 3995 H 395.321 1.8139 5.43848 0
M  V30 3996 H 393.718 2.60444 5.40638 0
M  V30 3997 H 394.788 2.74167 3.99951 0
M  V30 3998 N 396.131 -1.37776 0.765217 0
M  V30 3999 C 397.094 -2.28686 0.153416 0
M  V30 4000 C 398.094 -1.47727 -0.635081 0
M  V30 4001 O 399.284 -1.68027 -0.459632 0
M  V30 4002 C 396.416 -3.31608 -0.790495 0
M  V30 4003 H 397.609 -2.84297 0.954723 0
M  V30 4004 H 395.162 -1.46932 0.53299 0
M  V30 4005 H 395.897 -2.81109 -1.61705 0
M  V30 4006 H 395.682 -3.9144 -0.227348 0
M  V30 4007 H 397.172 -3.99559 -1.21419 0
M  V30 4008 N 397.609 -0.515225 -1.4894 0
M  V30 4009 C 398.539 0.244628 -2.32215 0
M  V30 4010 C 399.52 0.949136 -1.41157 0
M  V30 4011 O 400.705 0.937783 -1.70057 0
M  V30 4012 C 397.835 1.30096 -3.22013 0
M  V30 4013 C 396.789 0.715486 -4.21977 0
M  V30 4014 C 396.115 1.87339 -5.00808 0
M  V30 4015 C 397.415 -0.302982 -5.2142 0
M  V30 4016 H 399.109 -0.450501 -2.95991 0
M  V30 4017 H 396.655 -0.218098 -1.42339 0
M  V30 4018 H 398.608 1.84037 -3.79089 0
M  V30 4019 H 397.332 2.02547 -2.56207 0
M  V30 4020 H 395.991 0.197715 -3.66066 0
M  V30 4021 H 395.639 2.58592 -4.31438 0
M  V30 4022 H 395.339 1.48764 -5.68457 0
M  V30 4023 H 396.863 2.41686 -5.60732 0
M  V30 4024 H 398.277 0.148802 -5.73107 0
M  V30 4025 H 396.674 -0.60532 -5.97039 0
M  V30 4026 H 397.744 -1.21395 -4.69459 0
M  V30 4027 N 399.087 1.5561 -0.249682 0
M  V30 4028 C 400.334 1.99011 0.374287 0
M  V30 4029 C 400.662 1.13785 1.57744 0
M  V30 4030 O 399.917 0.189326 1.94782 0
M  V30 4031 C 400.216 3.4775 0.824887 0
M  V30 4032 C 399.882 4.50086 -0.270819 0
M  V30 4033 C 398.544 4.77791 -0.571746 0
M  V30 4034 C 400.896 5.11312 -1.01041 0
M  V30 4035 C 398.224 5.63997 -1.61629 0
M  V30 4036 C 400.576 5.98651 -2.0445 0
M  V30 4037 C 399.24 6.24688 -2.35204 0
M  V30 4038 H 398.51 0.728233 0.136961 0
M  V30 4039 H 401.157 1.88122 -0.358087 0
M  V30 4040 H 399.462 3.55985 1.63651 0
M  V30 4041 H 401.159 3.78721 1.31799 0
M  V30 4042 H 397.749 4.28592 -0.026136 0
M  V30 4043 H 401.933 4.89953 -0.791177 0
M  V30 4044 H 397.189 5.82425 -1.85988 0
M  V30 4045 H 401.363 6.45135 -2.62248 0
M  V30 4046 H 398.99 6.91281 -3.16282 0
M  V30 4047 N 400.565 -0.0233959 1.57583 0
M  V30 4048 C 401.813 -0.711654 1.89156 0
M  V30 4049 C 402.134 -1.75591 0.848096 0
M  V30 4050 O 401.404 -1.95547 -0.117566 0
M  V30 4051 H 399.984 -0.265835 0.698098 0
M  V30 4052 H 402.646 0.0119948 1.94896 0
M  V30 4053 H 401.742 -1.19766 2.88206 0
M  V30 4054 N 402.043 -1.548 -0.295768 0
M  V30 4055 C 403.271 -1.78327 -1.04914 0
M  V30 4056 C 403.686 -0.545316 -1.80753 0
M  V30 4057 O 403.043 0.485013 -1.75937 0
M  V30 4058 C 403.094 -2.99418 -2.02561 0
M  V30 4059 O 402.815 -4.18431 -1.29798 0
M  V30 4060 C 404.316 -3.35375 -2.89895 0
M  V30 4061 H 401.536 -0.594618 -0.310918 0
M  V30 4062 H 404.08 -2.01763 -0.333454 0
M  V30 4063 H 402.235 -2.78175 -2.69624 0
M  V30 4064 H 402.649 -4.86736 -1.95419 0
M  V30 4065 H 404.123 -4.23332 -3.54251 0
M  V30 4066 H 404.6 -2.53761 -3.58472 0
M  V30 4067 H 405.206 -3.58796 -2.28355 0
M  V30 4068 N 403.521 0.559213 -1.47345 0
M  V30 4069 C 404.937 0.884943 -1.32819 0
M  V30 4070 C 405.137 1.98988 -0.317173 0
M  V30 4071 O 404.193 2.51031 0.272011 0
M  V30 4072 C 405.506 1.28007 -2.72093 0
M  V30 4073 C 407.054 1.39161 -2.80363 0
M  V30 4074 C 407.529 1.82031 -4.20272 0
M  V30 4075 N 409.02 1.89185 -4.22804 0
M  V30 4076 C 409.755 2.2368 -5.27973 0
M  V30 4077 N 409.251 2.56802 -6.43447 0
M  V30 4078 N 411.044 2.24436 -5.15349 0
M  V30 4079 H 403.195 -0.170304 -2.11716 0
M  V30 4080 H 405.458 -0.0135247 -0.947904 0
M  V30 4081 H 405.164 0.542027 -3.47498 0
M  V30 4082 H 405.038 2.23665 -3.03733 0
M  V30 4083 H 407.425 2.12048 -2.05231 0
M  V30 4084 H 407.506 0.41696 -2.52379 0
M  V30 4085 H 407.15 1.09715 -4.95908 0
M  V30 4086 H 407.08 2.80495 -4.45679 0
M  V30 4087 H 409.571 1.65982 -3.39497 0
M  V30 4088 H 409.884 2.82144 -7.19454 0
M  V30 4089 H 408.229 2.54387 -6.46771 0
M  V30 4090 H 411.42 1.97998 -4.24163 0
M  V30 4091 H 411.593 2.50989 -5.97418 0
M  V30 4092 N 404.999 1.35443 0.805782 0
M  V30 4093 C 406.224 1.32037 1.59941 0
M  V30 4094 C 406.649 -0.0994215 1.87837 0
M  V30 4095 O 406.007 -1.06648 1.46615 0
M  V30 4096 C 406.055 2.13354 2.90711 0
M  V30 4097 O 405.159 1.5148 3.83572 0
M  V30 4098 H 404.5 0.452666 0.485787 0
M  V30 4099 H 407.03 1.78496 1.00002 0
M  V30 4100 H 407.04 2.25338 3.40128 0
M  V30 4101 H 405.715 3.16572 2.69732 0
M  V30 4102 H 404.292 1.4834 3.42125 0
M  V30 4103 N 406.477 -1.02803 1.19454 0
M  V30 4104 C 407.723 -1.76598 1.0092 0
M  V30 4105 C 408.078 -1.86939 -0.455142 0
M  V30 4106 O 407.371 -1.37575 -1.33355 0
M  V30 4107 C 407.565 -3.18941 1.6128 0
M  V30 4108 C 407.394 -3.22476 3.13431 0
M  V30 4109 C 406.164 -3.30375 3.82336 0
M  V30 4110 C 408.362 -3.09451 4.10785 0
M  V30 4111 N 406.344 -3.23292 5.21877 0
M  V30 4112 C 407.715 -3.10012 5.36929 0
M  V30 4113 C 409.77 -2.93585 4.02135 0
M  V30 4114 C 408.473 -2.96334 6.55423 0
M  V30 4115 C 410.499 -2.81256 5.20239 0
M  V30 4116 C 409.861 -2.82472 6.45282 0
M  V30 4117 H 405.96 -0.657447 0.423424 0
M  V30 4118 H 408.544 -1.22369 1.5144 0
M  V30 4119 H 406.715 -3.71489 1.1336 0
M  V30 4120 H 408.447 -3.81102 1.36173 0
M  V30 4121 H 405.202 -3.3663 3.33132 0
M  V30 4122 H 405.626 -3.23156 5.94894 0
M  V30 4123 H 410.268 -2.91466 3.0628 0
M  V30 4124 H 407.986 -2.97203 7.51463 0
M  V30 4125 H 411.572 -2.70014 5.15348 0
M  V30 4126 H 410.452 -2.73036 7.35133 0
M  V30 4127 N 407.956 -0.998596 -1.21925 0
M  V30 4128 C 408.888 -0.511879 -2.23411 0
M  V30 4129 C 409.901 0.396094 -1.57908 0
M  V30 4130 O 411.09 0.197316 -1.77406 0
M  V30 4131 C 408.19 0.276802 -3.37768 0
M  V30 4132 C 407.363 -0.628687 -4.32858 0
M  V30 4133 C 406.422 0.109272 -5.26087 0
M  V30 4134 O 405.448 -0.507237 -5.66935 0
M  V30 4135 N 406.65 1.38983 -5.63617 0
M  V30 4136 H 409.415 -1.38457 -2.658 0
M  V30 4137 H 406.976 -0.873981 -1.36283 0
M  V30 4138 H 408.968 0.77928 -3.97126 0
M  V30 4139 H 407.538 1.05063 -2.94415 0
M  V30 4140 H 406.758 -1.31175 -3.71735 0
M  V30 4141 H 408.046 -1.24514 -4.93329 0
M  V30 4142 H 407.444 1.91194 -5.32411 0
M  V30 4143 H 406.001 1.83739 -6.25367 0
M  V30 4144 N 409.434 1.37368 -0.772513 0
M  V30 4145 C 410.662 2.03942 -0.348588 0
M  V30 4146 C 411.077 1.58264 1.02947 0
M  V30 4147 O 410.434 0.764246 1.65727 0
M  V30 4148 C 410.485 3.5946 -0.38351 0
M  V30 4149 O 410.206 4.03468 -1.70721 0
M  V30 4150 C 411.707 4.4327 0.0519152 0
M  V30 4151 H 408.927 0.654931 -0.145966 0
M  V30 4152 H 411.471 1.75686 -1.04665 0
M  V30 4153 H 409.626 3.86486 0.265978 0
M  V30 4154 H 410.04 4.97991 -1.64636 0
M  V30 4155 H 411.514 5.51995 -0.0236733 0
M  V30 4156 H 411.991 4.2514 1.10238 0
M  V30 4157 H 412.597 4.21471 -0.569415 0
M  V30 4158 N 410.912 0.523116 1.48665 0
M  V30 4159 C 412.328 0.180511 1.58576 0
M  V30 4160 C 412.528 -1.31597 1.52592 0
M  V30 4161 O 411.584 -2.0937 1.4114 0
M  V30 4162 C 412.897 0.776949 2.90489 0
M  V30 4163 C 414.445 0.745058 3.04003 0
M  V30 4164 C 414.92 1.31995 4.38567 0
M  V30 4165 N 416.411 1.28162 4.45117 0
M  V30 4166 C 417.146 1.6964 5.47731 0
M  V30 4167 N 416.642 2.18816 6.57337 0
M  V30 4168 N 418.435 1.6092 5.38573 0
M  V30 4169 H 410.586 1.4958 1.50797 0
M  V30 4170 H 412.849 0.621772 0.715614 0
M  V30 4171 H 412.555 1.82732 3.00503 0
M  V30 4172 H 412.429 0.25007 3.7637 0
M  V30 4173 H 414.816 -0.296532 2.93606 0
M  V30 4174 H 414.897 1.30933 2.1975 0
M  V30 4175 H 414.541 2.36043 4.49718 0
M  V30 4176 H 414.471 0.731418 5.21496 0
M  V30 4177 H 416.962 0.92155 3.66491 0
M  V30 4178 H 417.275 2.48478 7.31764 0
M  V30 4179 H 415.62 2.22805 6.58318 0
M  V30 4180 H 418.811 1.22304 4.5184 0
M  V30 4181 H 418.984 1.93567 6.18414 0
M  V30 4182 N 412.39 -1.55475 0.257931 0
M  V30 4183 C 413.353 -2.20551 -0.623706 0
M  V30 4184 C 414.353 -1.17809 -1.09443 0
M  V30 4185 O 415.543 -1.42823 -0.997362 0
M  V30 4186 C 412.675 -2.85784 -1.8585 0
M  V30 4187 H 413.868 -2.99848 -0.0557743 0
M  V30 4188 H 411.421 -1.56298 0.0084422 0
M  V30 4189 H 412.156 -2.10453 -2.46739 0
M  V30 4190 H 411.941 -3.61057 -1.52907 0
M  V30 4191 H 413.431 -3.35553 -2.48584 0
M  V30 4192 N 413.868 0.0150385 -1.57593 0
M  V30 4193 C 414.798 1.01047 -2.10503 0
M  V30 4194 C 415.779 1.36816 -1.01071 0
M  V30 4195 O 416.964 1.45455 -1.28672 0
M  V30 4196 C 414.094 2.30708 -2.59598 0
M  V30 4197 C 413.048 2.09142 -3.73421 0
M  V30 4198 C 412.374 3.44685 -4.08774 0
M  V30 4199 C 413.674 1.46619 -5.01298 0
M  V30 4200 H 415.368 0.569978 -2.93925 0
M  V30 4201 H 412.914 0.272724 -1.41394 0
M  V30 4202 H 414.867 3.00687 -2.95238 0
M  V30 4203 H 413.591 2.76843 -1.73279 0
M  V30 4204 H 412.25 1.41592 -3.38153 0
M  V30 4205 H 411.898 3.88495 -3.195 0
M  V30 4206 H 411.598 3.31077 -4.8545 0
M  V30 4207 H 413.122 4.16004 -4.4696 0
M  V30 4208 H 414.536 2.06535 -5.34805 0
M  V30 4209 H 412.933 1.43544 -5.82679 0
M  V30 4210 H 414.003 0.433611 -4.82957 0
M  V30 4211 N 415.346 1.54954 0.287554 0
M  V30 4212 C 416.276 1.89839 1.35954 0
M  V30 4213 C 417.257 0.758675 1.52244 0
M  V30 4214 O 418.442 1.01557 1.65529 0
M  V30 4215 C 415.572 2.15753 2.72154 0
M  V30 4216 C 414.526 3.3159 2.70614 0
M  V30 4217 C 413.852 3.42952 4.10229 0
M  V30 4218 C 415.152 4.68359 2.31165 0
M  V30 4219 H 416.846 2.79625 1.07007 0
M  V30 4220 H 414.392 1.3454 0.513316 0
M  V30 4221 H 416.345 2.38743 3.47246 0
M  V30 4222 H 415.069 1.22752 3.02654 0
M  V30 4223 H 413.728 3.08545 1.97979 0
M  V30 4224 H 413.376 2.47443 4.37928 0
M  V30 4225 H 413.076 4.20826 4.10097 0
M  V30 4226 H 414.6 3.68218 4.87081 0
M  V30 4227 H 416.014 4.9099 2.95976 0
M  V30 4228 H 414.411 5.49044 2.42221 0
M  V30 4229 H 415.481 4.68165 1.26291 0
M  V30 4230 N 416.824 -0.551391 1.4764 0
M  V30 4231 C 418.073 -1.30467 1.53822 0
M  V30 4232 C 418.386 -1.94495 0.207661 0
M  V30 4233 O 419.592 -2.71099 0.147533 0
M  V30 4234 C 418.048 -2.36616 2.71184 0
M  V30 4235 C 417.656 -1.78754 4.10793 0
M  V30 4236 C 419.4 -3.13088 2.86663 0
M  V30 4237 C 417.307 -2.82717 5.19447 0
M  V30 4238 H 416.237 -0.490584 0.572576 0
M  V30 4239 H 418.888 -0.58494 1.73927 0
M  V30 4240 H 417.27 -3.11529 2.4447 0
M  V30 4241 H 418.444 -1.10173 4.47435 0
M  V30 4242 H 416.759 -1.14846 4.00249 0
M  V30 4243 H 419.356 -3.90736 3.65007 0
M  V30 4244 H 419.699 -3.67635 1.95321 0
M  V30 4245 H 420.232 -2.45288 3.13175 0
M  V30 4246 H 416.971 -2.33018 6.12685 0
M  V30 4247 H 416.491 -3.4969 4.87316 0
M  V30 4248 H 418.17 -3.46102 5.46646 0
M  V30 4249 N 418.302 -1.35869 -0.798587 0
M  V30 4250 C 419.249 -1.29446 -1.91082 0
M  V30 4251 C 420.219 -0.16487 -1.6528 0
M  V30 4252 O 421.404 -0.349888 -1.87564 0
M  V30 4253 C 418.544 -1.0804 -3.27752 0
M  V30 4254 C 417.657 -2.29993 -3.65687 0
M  V30 4255 C 416.792 -2.01673 -4.91428 0
M  V30 4256 C 415.831 -3.19636 -5.22015 0
M  V30 4257 N 414.968 -2.91039 -6.38937 0
M  V30 4258 H 419.808 -2.24553 -1.95907 0
M  V30 4259 H 417.345 -1.11615 -0.958148 0
M  V30 4260 H 419.303 -0.936586 -4.06551 0
M  V30 4261 H 417.933 -0.16592 -3.22373 0
M  V30 4262 H 416.985 -2.55211 -2.82085 0
M  V30 4263 H 418.297 -3.18052 -3.84245 0
M  V30 4264 H 417.451 -1.84168 -5.78072 0
M  V30 4265 H 416.19 -1.10911 -4.74921 0
M  V30 4266 H 415.195 -3.37709 -4.33858 0
M  V30 4267 H 416.42 -4.11211 -5.40447 0
M  V30 4268 H 414.366 -2.0288 -6.2384 0
M  V30 4269 H 414.283 -3.72635 -6.57784 0
M  V30 4270 H 415.551 -2.77093 -7.28587 0
M  V30 4271 N 419.78 1.02168 -1.19998 0
M  V30 4272 C 420.743 2.08765 -0.94604 0
M  V30 4273 C 421.743 1.60618 0.0763846 0
M  V30 4274 O 422.933 1.73472 -0.159135 0
M  V30 4275 C 420.065 3.38262 -0.423255 0
M  V30 4276 H 421.258 2.32726 -1.89153 0
M  V30 4277 H 418.811 1.1889 -1.01464 0
M  V30 4278 H 419.546 3.19974 0.527938 0
M  V30 4279 H 419.331 3.74532 -1.16053 0
M  V30 4280 H 420.821 4.16759 -0.264911 0
M  V30 4281 N 421.258 1.00505 1.21394 0
M  V30 4282 C 422.188 0.585684 2.26035 0
M  V30 4283 C 423.169 -0.393525 1.65485 0
M  V30 4284 O 424.354 -0.281497 1.92149 0
M  V30 4285 C 421.484 -0.0884283 3.47187 0
M  V30 4286 C 420.438 0.810567 4.20254 0
M  V30 4287 C 419.764 0.00286382 5.347 0
M  V30 4288 C 421.064 2.1132 4.77641 0
M  V30 4289 H 422.758 1.46039 2.61368 0
M  V30 4290 H 420.304 0.703648 1.25638 0
M  V30 4291 H 422.257 -0.393286 4.19561 0
M  V30 4292 H 420.981 -0.997766 3.10986 0
M  V30 4293 H 419.64 1.09925 3.49731 0
M  V30 4294 H 419.288 -0.907765 4.94741 0
M  V30 4295 H 418.988 0.601444 5.84514 0
M  V30 4296 H 420.512 -0.295808 6.09883 0
M  V30 4297 H 421.926 1.87148 5.41893 0
M  V30 4298 H 420.323 2.66164 5.37845 0
M  V30 4299 H 421.393 2.78393 3.9702 0
M  V30 4300 N 422.737 -1.36956 0.779787 0
M  V30 4301 C 423.986 -1.98738 0.344405 0
M  V30 4302 C 424.299 -1.62596 -1.08728 0
M  V30 4303 O 425.505 -2.1754 -1.62445 0
M  V30 4304 C 423.961 -3.5544 0.564829 0
M  V30 4305 C 423.569 -4.00514 2.0073 0
M  V30 4306 C 425.313 -4.24059 0.193471 0
M  V30 4307 C 423.22 -5.49957 2.17489 0
M  V30 4308 H 422.15 -0.743561 0.12503 0
M  V30 4309 H 424.801 -1.56381 0.960057 0
M  V30 4310 H 423.183 -3.95817 -0.120397 0
M  V30 4311 H 424.357 -3.71362 2.72814 0
M  V30 4312 H 422.672 -3.44703 2.336 0
M  V30 4313 H 425.269 -5.33874 0.297097 0
M  V30 4314 H 425.612 -4.07378 -0.857263 0
M  V30 4315 H 426.145 -3.89012 0.831556 0
M  V30 4316 H 422.884 -5.71574 3.2091 0
M  V30 4317 H 422.404 -5.80767 1.49899 0
M  V30 4318 H 424.083 -6.16043 1.97738 0
M  V30 4319 N 424.215 -0.530993 -1.48385 0
M  V30 4320 C 425.492 0.0671788 -1.95485 0
M  V30 4321 C 425.872 1.51191 -1.47324 0
M  V30 4322 O 425.22 2.17507 -0.700202 0
M  V30 4323 C 425.43 -0.0511206 -3.48963 0
M  V30 4324 C 426.778 0.107632 -4.24464 0
M  V30 4325 O 427.802 0.0226248 -3.56193 0
M  V30 4326 O 426.661 0.285972 -5.45751 0
M  V30 4327 H 423.755 0.0787365 -0.823243 0
M  V30 4328 H 426.301 -0.595662 -1.58902 0
M  V30 4329 H 425.073 -1.05747 -3.7674 0
M  V30 4330 H 424.696 0.650525 -3.92242 0
M  V30 4331 N 425.693 1.55336 -0.266172 0
M  V30 4332 C 427.109 1.59356 0.0882065 0
M  V30 4333 C 427.309 1.2834 1.55342 0
M  V30 4334 O 426.365 1.03996 2.30089 0
M  V30 4335 C 427.678 2.99409 -0.278364 0
M  V30 4336 C 429.226 3.12196 -0.224243 0
M  V30 4337 C 429.701 4.545 -0.565123 0
M  V30 4338 N 431.192 4.60313 -0.51634 0
M  V30 4339 C 431.927 5.68434 -0.753013 0
M  V30 4340 N 431.423 6.84738 -1.05383 0
M  V30 4341 N 433.216 5.57942 -0.682414 0
M  V30 4342 H 425.367 1.73764 -1.22147 0
M  V30 4343 H 427.63 0.809822 -0.492841 0
M  V30 4344 H 427.336 3.2691 -1.29703 0
M  V30 4345 H 427.21 3.75228 0.385186 0
M  V30 4346 H 429.597 2.84464 0.78512 0
M  V30 4347 H 429.678 2.38609 -0.921922 0
M  V30 4348 H 429.322 4.82956 -1.57213 0
M  V30 4349 H 429.252 5.26374 0.154248 0
M  V30 4350 H 431.743 3.7676 -0.29335 0
M  V30 4351 H 432.056 7.63088 -1.22133 0
M  V30 4352 H 430.401 6.86375 -1.09151 0
M  V30 4353 H 433.592 4.65958 -0.44731 0
M  V30 4354 H 433.765 6.4213 -0.870248 0
M  V30 4355 N 427.171 -0.0066808 1.57599 0
M  V30 4356 C 428.419 -0.691552 1.899 0
M  V30 4357 C 428.74 -1.74682 0.866672 0
M  V30 4358 O 428.01 -1.95661 -0.0968189 0
M  V30 4359 H 426.59 -0.258416 0.700878 0
M  V30 4360 H 429.252 0.0326655 1.94873 0
M  V30 4361 H 428.348 -1.16702 2.8946 0
M  V30 4362 N 428.649 -1.55105 -0.279332 0
M  V30 4363 C 429.879 -1.7917 -1.02867 0
M  V30 4364 C 430.287 -0.56204 -1.80659 0
M  V30 4365 O 429.63 0.478266 -1.77365 0
M  V30 4366 C 429.692 -2.96061 -2.03932 0
M  V30 4367 C 429.356 -4.33341 -1.45137 0
M  V30 4368 C 430.353 -5.12565 -0.870266 0
M  V30 4369 C 428.038 -4.79987 -1.48048 0
M  V30 4370 C 430.032 -6.36565 -0.326097 0
M  V30 4371 C 427.719 -6.03944 -0.932443 0
M  V30 4372 C 428.717 -6.8207 -0.356247 0
M  V30 4373 O 428.405 -8.03691 0.183412 0
M  V30 4374 H 428.137 -0.600796 -0.309872 0
M  V30 4375 H 430.691 -2.02932 -0.317468 0
M  V30 4376 H 428.921 -2.67975 -2.78794 0
M  V30 4377 H 430.61 -3.07506 -2.64943 0
M  V30 4378 H 431.376 -4.77661 -0.840521 0
M  V30 4379 H 427.255 -4.1919 -1.91835 0
M  V30 4380 H 430.799 -6.97489 0.124286 0
M  V30 4381 H 426.696 -6.3833 -0.959407 0
M  V30 4382 H 427.464 -8.18468 0.0721681 0
M  V30 4383 N 430.127 0.543554 -1.4793 0
M  V30 4384 C 431.074 1.64942 -1.6144 0
M  V30 4385 C 432.044 1.59692 -0.456903 0
M  V30 4386 O 433.229 1.78321 -0.678688 0
M  V30 4387 C 430.369 3.03238 -1.64744 0
M  V30 4388 C 429.482 3.18823 -2.91506 0
M  V30 4389 C 428.617 4.47599 -2.86057 0
M  V30 4390 C 427.656 4.56664 -4.07584 0
M  V30 4391 N 426.793 5.76811 -4.00292 0
M  V30 4392 H 431.633 1.52733 -2.55884 0
M  V30 4393 H 429.17 0.7438 -1.2691 0
M  V30 4394 H 431.128 3.83339 -1.64641 0
M  V30 4395 H 429.758 3.1425 -0.738017 0
M  V30 4396 H 428.81 2.32064 -3.01414 0
M  V30 4397 H 430.122 3.21384 -3.81463 0
M  V30 4398 H 429.276 5.35975 -2.84281 0
M  V30 4399 H 428.015 4.47538 -1.93807 0
M  V30 4400 H 427.02 3.66697 -4.09651 0
M  V30 4401 H 428.245 4.58474 -5.00978 0
M  V30 4402 H 426.191 5.77673 -3.10853 0
M  V30 4403 H 426.108 5.80808 -4.8394 0
M  V30 4404 H 427.376 6.67512 -4.02553 0
M  V30 4405 N 431.605 1.3629 0.791371 0
M  V30 4406 C 432.882 1.20962 1.53712 0
M  V30 4407 C 433.262 -0.205021 2.10102 0
M  V30 4408 O 432.61 -1.21042 1.93807 0
M  V30 4409 C 432.82 2.29002 2.63361 0
M  V30 4410 C 434.168 2.65572 3.31295 0
M  V30 4411 O 435.192 2.2803 2.73643 0
M  V30 4412 O 434.051 3.3018 4.35481 0
M  V30 4413 H 431.145 0.47086 0.679867 0
M  V30 4414 H 433.691 1.48016 0.830021 0
M  V30 4415 H 432.463 3.2382 2.19674 0
M  V30 4416 H 432.086 2.03303 3.41692 0
M  V30 4417 N 433.083 -1.0153 1.20538 0
M  V30 4418 C 434.499 -1.27461 0.96051 0
M  V30 4419 C 434.699 -1.98273 -0.359193 0
M  V30 4420 O 433.755 -2.27886 -1.0874 0
M  V30 4421 C 435.068 -2.10837 2.14402 0
M  V30 4422 C 436.616 -2.24099 2.18515 0
M  V30 4423 C 437.091 -3.10852 3.36355 0
M  V30 4424 N 438.582 -3.18441 3.36377 0
M  V30 4425 C 439.317 -3.85795 4.24205 0
M  V30 4426 N 438.813 -4.55264 5.22213 0
M  V30 4427 N 440.606 -3.82331 4.12043 0
M  V30 4428 H 432.757 -0.539907 2.05423 0
M  V30 4429 H 435.02 -0.30092 0.898972 0
M  V30 4430 H 434.726 -1.66144 3.09983 0
M  V30 4431 H 434.6 -3.11576 2.12604 0
M  V30 4432 H 436.987 -2.68016 1.23497 0
M  V30 4433 H 437.068 -1.22865 2.24361 0
M  V30 4434 H 436.712 -2.6764 4.31661 0
M  V30 4435 H 436.642 -4.12177 3.27746 0
M  V30 4436 H 439.133 -2.68978 2.65442 0
M  V30 4437 H 439.446 -5.04331 5.85551 0
M  V30 4438 H 437.791 -4.54085 5.26148 0
M  V30 4439 H 440.982 -3.27207 3.34743 0
M  V30 4440 H 441.155 -4.34547 4.807 0
M  V30 4441 N 434.561 -1.01147 -1.20859 0
M  V30 4442 C 435.81 -0.693214 -1.89413 0
M  V30 4443 C 436.123 0.779969 -1.79376 0
M  V30 4444 O 437.329 1.21057 -2.43017 0
M  V30 4445 C 435.785 -1.18949 -3.39675 0
M  V30 4446 C 435.393 -2.68921 -3.58309 0
M  V30 4447 C 437.137 -0.94642 -4.13815 0
M  V30 4448 C 435.044 -3.12056 -5.0237 0
M  V30 4449 H 433.974 -0.255595 -0.709357 0
M  V30 4450 H 436.625 -1.22349 -1.36759 0
M  V30 4451 H 435.007 -0.587228 -3.91622 0
M  V30 4452 H 436.181 -3.34652 -3.16772 0
M  V30 4453 H 434.496 -2.91314 -2.97532 0
M  V30 4454 H 437.093 -1.24417 -5.20023 0
M  V30 4455 H 437.436 0.117219 -4.16135 0
M  V30 4456 H 437.969 -1.5118 -3.67953 0
M  V30 4457 H 434.708 -4.17674 -5.05202 0
M  V30 4458 H 434.228 -2.51041 -5.44737 0
M  V30 4459 H 435.907 -3.04403 -5.70918 0
M  V30 4460 N 436.039 1.36541 -0.78704 0
M  V30 4461 C 436.969 2.32659 -0.197992 0
M  V30 4462 C 437.95 1.56533 0.665697 0
M  V30 4463 O 439.135 1.84698 0.60001 0
M  V30 4464 C 436.265 3.40778 0.669901 0
M  V30 4465 C 435.219 4.27897 -0.0937039 0
M  V30 4466 C 434.545 5.27163 0.894629 0
M  V30 4467 C 435.845 5.06334 -1.28154 0
M  V30 4468 H 437.539 2.82171 -1.00099 0
M  V30 4469 H 435.085 1.35665 -0.482793 0
M  V30 4470 H 437.038 4.07008 1.09191 0
M  V30 4471 H 435.762 2.89827 1.50558 0
M  V30 4472 H 434.421 3.6322 -0.49666 0
M  V30 4473 H 434.069 4.72486 1.72527 0
M  V30 4474 H 433.769 5.86317 0.388149 0
M  V30 4475 H 435.293 5.96266 1.31525 0
M  V30 4476 H 436.707 5.65617 -0.93541 0
M  V30 4477 H 435.104 5.74888 -1.72115 0
M  V30 4478 H 436.174 4.38114 -2.07807 0
M  V30 4479 N 437.518 0.538854 1.48102 0
M  V30 4480 C 438.764 0.00801365 2.02798 0
M  V30 4481 C 439.097 -1.3309 1.41424 0
M  V30 4482 O 438.372 -1.86169 0.563158 0
M  V30 4483 C 438.655 -0.104589 3.59948 0
M  V30 4484 C 438.508 1.26012 4.31788 0
M  V30 4485 C 439.827 -0.827055 4.32259 0
M  V30 4486 H 436.946 0.00438624 0.736987 0
M  V30 4487 H 439.588 0.6976 1.7673 0
M  V30 4488 H 437.738 -0.691893 3.82289 0
M  V30 4489 H 439.41 1.88922 4.2084 0
M  V30 4490 H 437.653 1.83968 3.92859 0
M  V30 4491 H 438.324 1.13424 5.40221 0
M  V30 4492 H 440.8 -0.328578 4.14801 0
M  V30 4493 H 439.676 -0.87476 5.41885 0
M  V30 4494 H 439.937 -1.87927 4.0017 0
M  V30 4495 N 438.996 -1.55193 0.274407 0
M  V30 4496 C 440.221 -2.04446 -0.348824 0
M  V30 4497 C 440.646 -1.15149 -1.48735 0
M  V30 4498 O 440.004 -0.149952 -1.80679 0
M  V30 4499 C 440.052 -3.51431 -0.808009 0
M  V30 4500 O 439.156 -3.65225 -1.91531 0
M  V30 4501 H 438.497 -0.66006 -0.0722276 0
M  V30 4502 H 441.027 -2.00481 0.408498 0
M  V30 4503 H 441.037 -3.92781 -1.10395 0
M  V30 4504 H 439.712 -4.15892 0.0249865 0
M  V30 4505 H 438.289 -3.35778 -1.62196 0
M  V30 4506 N 440.474 -0.00167713 -1.576 0
M  V30 4507 C 441.424 0.997744 -2.0501 0
M  V30 4508 C 442.408 1.30214 -0.94515 0
M  V30 4509 O 443.6 1.29284 -1.20891 0
M  V30 4510 C 440.729 2.2892 -2.55833 0
M  V30 4511 C 439.815 2.01437 -3.73208 0
M  V30 4512 N 440.206 1.44119 -4.84833 0
M  V30 4513 C 438.504 2.31571 -3.8117 0
M  V30 4514 C 439.205 1.33145 -5.66257 0
M  V30 4515 N 438.181 1.81763 -5.12312 0
M  V30 4516 H 441.983 0.549098 -2.88725 0
M  V30 4517 H 439.497 0.20398 -1.61114 0
M  V30 4518 H 441.494 3.01361 -2.88075 0
M  V30 4519 H 440.154 2.74436 -1.73537 0
M  V30 4520 H 441.165 1.11978 -5.0565 0
M  V30 4521 H 437.842 2.7995 -3.09732 0
M  V30 4522 H 439.232 0.890567 -6.65972 0
M  V30 4523 N 441.952 1.55251 0.271103 0
M  V30 4524 C 443.229 1.66664 1.02384 0
M  V30 4525 C 443.609 0.534363 2.04225 0
M  V30 4526 O 442.957 -0.465337 2.23712 0
M  V30 4527 C 443.167 3.05961 1.67895 0
M  V30 4528 C 444.515 3.63772 2.18986 0
M  V30 4529 O 445.539 3.08606 1.77878 0
M  V30 4530 O 444.398 4.60429 2.94393 0
M  V30 4531 H 441.492 0.676957 0.475035 0
M  V30 4532 H 444.038 1.67589 0.26681 0
M  V30 4533 H 442.81 3.79815 0.941071 0
M  V30 4534 H 442.433 3.08943 2.5028 0
M  V30 4535 N 443.43 -0.535701 1.48216 0
M  V30 4536 C 444.676 -1.2913 1.57153 0
M  V30 4537 C 445.031 -1.90899 0.239823 0
M  V30 4538 O 444.324 -1.76022 -0.756748 0
M  V30 4539 C 444.518 -2.4068 2.64212 0
M  V30 4540 C 444.347 -1.89844 4.07663 0
M  V30 4541 C 443.117 -1.72708 4.74869 0
M  V30 4542 C 445.315 -1.43031 4.94011 0
M  V30 4543 N 443.297 -1.16437 6.02757 0
M  V30 4544 C 444.668 -0.986691 6.12098 0
M  V30 4545 C 446.723 -1.3128 4.80281 0
M  V30 4546 C 445.426 -0.437231 7.1797 0
M  V30 4547 C 447.452 -0.777346 5.86269 0
M  V30 4548 C 446.814 -0.343774 7.03561 0
M  V30 4549 H 442.913 -0.463753 0.629648 0
M  V30 4550 H 445.497 -0.604736 1.8507 0
M  V30 4551 H 443.668 -3.06839 2.38126 0
M  V30 4552 H 445.4 -3.07706 2.62867 0
M  V30 4553 H 442.155 -1.96061 4.31111 0
M  V30 4554 H 442.579 -0.903281 6.70947 0
M  V30 4555 H 447.221 -1.63408 3.89946 0
M  V30 4556 H 444.939 -0.103621 8.08034 0
M  V30 4557 H 448.525 -0.689688 5.77698 0
M  V30 4558 H 447.405 0.0641219 7.84174 0
M  V30 4559 N 444.908 -1.36708 -0.784132 0
M  V30 4560 C 445.838 -1.34153 -1.91116 0
M  V30 4561 C 446.819 -0.212121 -1.68772 0
M  V30 4562 O 448.004 -0.410581 -1.8981 0
M  V30 4563 C 445.134 -1.13535 -3.28218 0
M  V30 4564 C 444.088 -2.23356 -3.65097 0
M  V30 4565 C 443.414 -1.87875 -5.00607 0
M  V30 4566 C 444.714 -3.65473 -3.73131 0
M  V30 4567 H 446.408 -2.28459 -1.93512 0
M  V30 4568 H 443.954 -1.09973 -0.929618 0
M  V30 4569 H 445.907 -1.10381 -4.06687 0
M  V30 4570 H 444.631 -0.156804 -3.26223 0
M  V30 4571 H 443.29 -2.25645 -2.88929 0
M  V30 4572 H 442.938 -0.885814 -4.95139 0
M  V30 4573 H 442.638 -2.61406 -5.26252 0
M  V30 4574 H 444.162 -1.86286 -5.81489 0
M  V30 4575 H 445.576 -3.65382 -4.41779 0
M  V30 4576 H 443.973 -4.37953 -4.10265 0
M  V30 4577 H 445.043 -3.99995 -2.74102 0
M  V30 4578 N 446.386 1.0089 -1.21074 0
M  V30 4579 C 447.633 1.74607 -1.0256 0
M  V30 4580 C 447.961 1.89426 0.44136 0
M  V30 4581 O 447.216 1.42266 1.34384 0
M  V30 4582 C 447.515 3.16335 -1.66334 0
M  V30 4583 C 447.181 3.21474 -3.16173 0
M  V30 4584 C 445.843 3.22583 -3.57062 0
M  V30 4585 C 448.195 3.19025 -4.12156 0
M  V30 4586 C 445.523 3.18925 -4.92446 0
M  V30 4587 C 447.875 3.16909 -5.47496 0
M  V30 4588 C 446.539 3.16326 -5.87787 0
M  V30 4589 H 445.809 0.638933 -0.375294 0
M  V30 4590 H 448.456 1.18274 -1.50611 0
M  V30 4591 H 446.761 3.75876 -1.10566 0
M  V30 4592 H 448.458 3.72083 -1.49516 0
M  V30 4593 H 445.048 3.2135 -2.83605 0
M  V30 4594 H 449.232 3.17332 -3.81595 0
M  V30 4595 H 444.488 3.16809 -5.22917 0
M  V30 4596 H 448.662 3.13968 -6.21609 0
M  V30 4597 H 446.289 3.13246 -6.92662 0
M  V30 4598 N 447.864 1.01787 1.20321 0
M  V30 4599 C 449.112 0.706538 1.89347 0
M  V30 4600 C 449.433 -0.766289 1.79313 0
M  V30 4601 O 448.703 -1.55126 1.19635 0
M  V30 4602 H 447.283 0.258348 0.700903 0
M  V30 4603 H 449.945 1.28974 1.46122 0
M  V30 4604 H 449.041 0.991066 2.95946 0
M  V30 4605 N 449.342 -1.36122 0.79427 0
M  V30 4606 C 450.589 -1.99111 0.368905 0
M  V30 4607 C 450.917 -1.63032 -1.0607 0
M  V30 4608 O 450.172 -0.879303 -1.74833 0
M  V30 4609 C 450.471 -3.5409 0.48527 0
M  V30 4610 C 450.137 -4.10003 1.87638 0
M  V30 4611 C 448.799 -4.24986 2.257 0
M  V30 4612 C 451.151 -4.40423 2.78706 0
M  V30 4613 C 448.479 -4.67701 3.54221 0
M  V30 4614 C 450.831 -4.84573 4.0666 0
M  V30 4615 C 449.495 -4.97761 4.44737 0
M  V30 4616 H 448.765 -0.7286 0.134992 0
M  V30 4617 H 451.412 -1.62534 1.01267 0
M  V30 4618 H 449.717 -3.91052 -0.241984 0
M  V30 4619 H 451.414 -4.00766 0.137109 0
M  V30 4620 H 448.004 -3.98784 1.57064 0
M  V30 4621 H 452.188 -4.28412 2.50553 0
M  V30 4622 H 447.444 -4.761 3.83587 0
M  V30 4623 H 451.618 -5.07074 4.77336 0
M  V30 4624 H 449.245 -5.30618 5.44379 0
M  V30 4625 N 450.82 -0.546701 -1.47814 0
M  V30 4626 C 452.045 -0.021268 -2.07389 0
M  V30 4627 C 452.47 1.25822 -1.39822 0
M  V30 4628 O 451.828 1.75111 -0.46968 0
M  V30 4629 C 451.876 0.168502 -3.60206 0
M  V30 4630 O 450.98 1.23347 -3.93522 0
M  V30 4631 H 450.321 -0.0466108 -0.662362 0
M  V30 4632 H 452.851 -0.759387 -1.89985 0
M  V30 4633 H 452.861 0.385982 -4.0617 0
M  V30 4634 H 451.536 -0.766075 -4.08784 0
M  V30 4635 H 450.113 0.997319 -3.59316 0
M  V30 4636 N 452.299 1.55045 -0.282633 0
M  V30 4637 C 453.524 2.04628 0.337977 0
M  V30 4638 C 453.949 1.15937 1.48123 0
M  V30 4639 O 453.307 0.159532 1.80597 0
M  V30 4640 C 453.355 3.51854 0.78936 0
M  V30 4641 O 452.459 3.66236 1.89592 0
M  V30 4642 H 451.8 0.660434 0.0687261 0
M  V30 4643 H 454.33 2.00261 -0.419124 0
M  V30 4644 H 454.34 3.93361 1.08311 0
M  V30 4645 H 453.015 4.15873 -0.0470419 0
M  V30 4646 H 451.592 3.36633 1.60413 0
M  V30 4647 N 453.777 0.010035 1.57597 0
M  V30 4648 C 455.007 -0.682422 1.95004 0
M  V30 4649 C 455.415 -1.67278 0.884014 0
M  V30 4650 O 454.758 -1.83129 -0.144672 0
M  V30 4651 C 454.82 -1.46141 3.28456 0
M  V30 4652 C 454.484 -0.631523 4.52615 0
M  V30 4653 C 455.481 0.0850905 5.1983 0
M  V30 4654 C 453.166 -0.574539 4.99003 0
M  V30 4655 C 455.16 0.847566 6.3174 0
M  V30 4656 C 452.847 0.191655 6.10799 0
M  V30 4657 C 453.845 0.901432 6.77025 0
M  V30 4658 O 453.533 1.65511 7.86677 0
M  V30 4659 H 453.265 -0.194361 0.647456 0
M  V30 4660 H 455.819 0.060312 2.05311 0
M  V30 4661 H 454.049 -2.24885 3.14585 0
M  V30 4662 H 455.738 -2.04016 3.50902 0
M  V30 4663 H 456.504 0.0502812 4.84974 0
M  V30 4664 H 452.383 -1.11654 4.47274 0
M  V30 4665 H 455.927 1.4021 6.83364 0
M  V30 4666 H 451.824 0.228249 6.45096 0
M  V30 4667 H 452.592 1.57287 8.03245 0
M  V30 4668 N 455.255 -1.55392 -0.262866 0
M  V30 4669 C 456.501 -1.76737 -0.99458 0
M  V30 4670 C 456.834 -0.572453 -1.85571 0
M  V30 4671 O 456.109 0.429732 -1.89693 0
M  V30 4672 C 456.392 -3.07824 -1.8686 0
M  V30 4673 C 456.245 -4.3769 -1.03672 0
M  V30 4674 C 457.564 -3.35021 -2.85393 0
M  V30 4675 H 454.683 -0.643005 -0.360157 0
M  V30 4676 H 457.325 -1.88126 -0.266216 0
M  V30 4677 H 455.475 -2.98245 -2.48962 0
M  V30 4678 H 457.147 -4.59238 -0.43563 0
M  V30 4679 H 455.39 -4.32461 -0.340513 0
M  V30 4680 H 456.061 -5.25759 -1.6817 0
M  V30 4681 H 458.537 -3.44458 -2.33426 0
M  V30 4682 H 457.413 -4.27989 -3.43681 0
M  V30 4683 H 457.674 -2.55153 -3.61039 0
M  V30 4684 N 456.733 0.527833 -1.48498 0
M  V30 4685 C 457.961 1.30823 -1.6029 0
M  V30 4686 C 458.376 1.86945 -0.263974 0
M  V30 4687 O 457.733 1.6651 0.747034 0
M  V30 4688 C 457.784 2.45756 -2.65116 0
M  V30 4689 O 457.505 1.91946 -3.93813 0
M  V30 4690 C 459.006 3.37543 -2.87367 0
M  V30 4691 H 456.226 0.397763 -0.540394 0
M  V30 4692 H 458.77 0.636529 -1.94341 0
M  V30 4693 H 456.925 3.08806 -2.33917 0
M  V30 4694 H 457.339 2.67195 -4.51339 0
M  V30 4695 H 458.813 4.14532 -3.6451 0
M  V30 4696 H 459.29 3.92905 -1.9627 0
M  V30 4697 H 459.896 2.80283 -3.19878 0
M  V30 4698 N 458.211 1.37122 0.776871 0
M  V30 4699 C 459.159 1.32549 1.91138 0
M  V30 4700 C 460.153 0.215119 1.68029 0
M  V30 4701 O 461.359 0.382852 1.75881 0
M  V30 4702 H 457.734 0.412952 0.62847 0
M  V30 4703 H 459.705 2.28332 1.92112 0
M  V30 4704 C 458.454 1.14422 3.28333 0
M  V30 4705 H 457.777 1.99115 3.46689 0
M  V30 4706 H 459.217 1.15272 4.0803 0
M  V30 4707 C 457.676 -0.150434 3.36564 0
M  V30 4708 O 458.206 -1.13584 3.85307 0
M  V30 4709 N 456.412 -0.19939 2.89915 0
M  V30 4710 H 455.959 0.603142 2.5044 0
M  V30 4711 H 455.917 -1.06526 2.95803 0
M  V30 4712 N 459.689 -1.00246 1.21608 0
M  V30 4713 C 460.938 -1.73476 1.02902 0
M  V30 4714 C 461.251 -1.90643 -0.437561 0
M  V30 4715 O 462.457 -2.61105 -0.74407 0
M  V30 4716 C 460.913 -3.12079 1.79261 0
M  V30 4717 C 460.521 -3.02877 3.30106 0
M  V30 4718 C 462.265 -3.89421 1.68972 0
M  V30 4719 C 460.172 -4.36575 3.98944 0
M  V30 4720 H 459.102 -0.650408 0.381425 0
M  V30 4721 H 461.753 -1.11985 1.45367 0
M  V30 4722 H 460.135 -3.74196 1.2959 0
M  V30 4723 H 461.309 -2.49983 3.87098 0
M  V30 4724 H 459.624 -2.39022 3.40965 0
M  V30 4725 H 462.221 -4.88362 2.17731 0
M  V30 4726 H 462.564 -4.1122 0.648397 0
M  V30 4727 H 463.097 -3.33963 2.16133 0
M  V30 4728 H 459.836 -4.19978 5.03288 0
M  V30 4729 H 459.356 -4.8942 3.4674 0
M  V30 4730 H 461.035 -5.05364 4.04 0
M  V30 4731 N 461.167 -1.02423 -1.1978 0
M  V30 4732 C 462.1 -0.545641 -2.21581 0
M  V30 4733 C 463.078 0.411024 -1.57319 0
M  V30 4734 O 464.262 0.329223 -1.85603 0
M  V30 4735 C 461.389 0.204973 -3.38079 0
M  V30 4736 C 460.435 -0.70241 -4.20676 0
M  V30 4737 S 461.268 -2.17595 -4.89298 0
M  V30 4738 C 462.424 -1.43572 -6.09211 0
M  V30 4739 H 462.657 -1.4082 -2.61834 0
M  V30 4740 H 460.19 -0.833771 -1.29952 0
M  V30 4741 H 462.148 0.631924 -4.05607 0
M  V30 4742 H 460.809 1.0432 -2.9627 0
M  V30 4743 H 460.002 -0.123193 -5.03849 0
M  V30 4744 H 459.604 -1.06747 -3.58442 0
M  V30 4745 H 461.896 -0.719806 -6.73665 0
M  V30 4746 H 462.839 -2.24388 -6.71607 0
M  V30 4747 H 463.247 -0.935252 -5.56699 0
M  V30 4748 N 462.645 1.35699 -0.801477 0
M  V30 4749 C 463.922 1.9324 -0.302937 0
M  V30 4750 C 464.302 1.73209 1.20672 0
M  V30 4751 O 463.65 1.09809 2.00385 0
M  V30 4752 C 463.86 3.41728 -0.708747 0
M  V30 4753 C 465.208 4.18868 -0.695328 0
M  V30 4754 O 466.232 3.5022 -0.649971 0
M  V30 4755 O 465.091 5.41342 -0.749081 0
M  V30 4756 H 462.185 0.82331 -0.0780367 0
M  V30 4757 H 464.731 1.44806 -0.884832 0
M  V30 4758 H 463.503 3.50015 -1.74944 0
M  V30 4759 H 463.126 3.97471 -0.101384 0
M  V30 4760 N 464.123 0.554532 1.47522 0
M  V30 4761 C 465.369 0.0295227 2.02779 0
M  V30 4762 C 465.702 -1.31582 1.42828 0
M  V30 4763 O 464.977 -1.85561 0.582872 0
M  V30 4764 C 465.26 -0.0664057 3.60039 0
M  V30 4765 C 465.113 1.30585 4.30427 0
M  V30 4766 C 466.432 -0.781162 4.33112 0
M  V30 4767 H 463.551 0.0122027 0.736899 0
M  V30 4768 H 466.193 0.716305 1.7598 0
M  V30 4769 H 464.343 -0.651307 3.83002 0
M  V30 4770 H 466.015 1.93374 4.18813 0
M  V30 4771 H 464.258 1.88125 3.90886 0
M  V30 4772 H 464.929 1.19147 5.38988 0
M  V30 4773 H 467.405 -0.284565 4.15126 0
M  V30 4774 H 466.281 -0.817237 5.42782 0
M  V30 4775 H 466.542 -1.83672 4.0214 0
M  V30 4776 N 465.601 -1.54893 0.290851 0
M  V30 4777 C 466.534 -2.19289 -0.631489 0
M  V30 4778 C 467.512 -1.15893 -1.14051 0
M  V30 4779 O 468.696 -1.4449 -1.21058 0
M  V30 4780 C 465.823 -2.82866 -1.86291 0
M  V30 4781 C 464.869 -3.997 -1.48801 0
M  V30 4782 S 465.702 -5.32641 -0.552644 0
M  V30 4783 C 466.858 -5.99696 -1.79209 0
M  V30 4784 H 467.091 -2.9718 -0.0843791 0
M  V30 4785 H 464.624 -1.54218 0.075031 0
M  V30 4786 H 466.582 -3.20124 -2.56964 0
M  V30 4787 H 465.243 -2.04839 -2.38117 0
M  V30 4788 H 464.436 -4.42932 -2.40473 0
M  V30 4789 H 464.038 -3.63947 -0.861321 0
M  V30 4790 H 466.33 -6.19886 -2.734 0
M  V30 4791 H 467.273 -6.94071 -1.40251 0
M  V30 4792 H 467.681 -5.29226 -1.96419 0
M  V30 4793 N 467.08 -0.0183926 -1.57589 0
M  V30 4794 C 468.357 0.700621 -1.82622 0
M  V30 4795 C 468.737 1.90951 -0.90005 0
M  V30 4796 O 468.085 2.28452 0.0469145 0
M  V30 4797 C 468.295 1.08899 -3.31575 0
M  V30 4798 C 469.643 1.48514 -3.9778 0
M  V30 4799 O 470.667 1.18227 -3.36007 0
M  V30 4800 O 469.526 2.04903 -5.06633 0
M  V30 4801 H 466.62 0.342743 -0.752633 0
M  V30 4802 H 469.166 -0.0452548 -1.6964 0
M  V30 4803 H 467.938 0.228113 -3.90635 0
M  V30 4804 H 467.561 1.89338 -3.49624 0
M  V30 4805 N 468.558 1.5553 0.254621 0
M  V30 4806 C 469.974 1.4778 0.602753 0
M  V30 4807 C 470.174 0.707047 1.88688 0
M  V30 4808 O 469.23 0.233288 2.5142 0
M  V30 4809 C 470.543 2.92133 0.712648 0
M  V30 4810 C 472.091 3.02458 0.805488 0
M  V30 4811 C 472.566 4.48102 0.947009 0
M  V30 4812 N 474.057 4.52008 1.01207 0
M  V30 4813 C 474.792 5.61939 1.1407 0
M  V30 4814 N 474.288 6.81697 1.23536 0
M  V30 4815 N 476.081 5.49719 1.17325 0
M  V30 4816 H 468.232 2.04085 -0.588463 0
M  V30 4817 H 470.495 0.926229 -0.202001 0
M  V30 4818 H 470.201 3.51332 -0.160766 0
M  V30 4819 H 470.075 3.42187 1.58707 0
M  V30 4820 H 472.462 2.43344 1.66936 0
M  V30 4821 H 472.543 2.55627 -0.0939266 0
M  V30 4822 H 472.187 5.07824 0.087725 0
M  V30 4823 H 472.117 4.92607 1.86135 0
M  V30 4824 H 474.608 3.65749 0.950577 0
M  V30 4825 H 474.921 7.61228 1.33236 0
M  V30 4826 H 473.266 6.84473 1.20508 0
M  V30 4827 H 476.457 4.55095 1.09573 0
M  V30 4828 H 476.63 6.35432 1.27005 0
M  V30 4829 N 470.036 -0.519951 1.48776 0
M  V30 4830 C 471.285 -1.27175 1.56555 0
M  V30 4831 C 471.598 -1.9401 0.248869 0
M  V30 4832 O 472.804 -2.70725 0.205004 0
M  V30 4833 C 471.26 -2.30811 2.76142 0
M  V30 4834 C 470.868 -1.7 4.14493 0
M  V30 4835 C 472.612 -3.06937 2.9324 0
M  V30 4836 C 470.519 -2.71635 5.25327 0
M  V30 4837 H 469.449 -0.478329 0.582853 0
M  V30 4838 H 472.1 -0.547916 1.75129 0
M  V30 4839 H 470.482 -3.06274 2.51023 0
M  V30 4840 H 471.656 -1.00658 4.49672 0
M  V30 4841 H 469.971 -1.06331 4.02595 0
M  V30 4842 H 472.568 -3.82905 3.73213 0
M  V30 4843 H 472.911 -3.63409 2.03075 0
M  V30 4844 H 473.444 -2.38589 3.18308 0
M  V30 4845 H 470.183 -2.1997 6.1749 0
M  V30 4846 H 469.703 -3.39275 4.94624 0
M  V30 4847 H 471.382 -3.34429 5.53865 0
M  V30 4848 N 471.514 -1.37532 -0.769588 0
M  V30 4849 C 472.462 -1.33561 -1.90432 0
M  V30 4850 C 473.456 -0.224027 -1.67912 0
M  V30 4851 O 474.662 -0.392174 -1.75676 0
M  V30 4852 H 471.037 -0.416279 -0.626271 0
M  V30 4853 H 473.008 -2.29348 -1.90899 0
M  V30 4854 C 471.757 -1.16162 -3.27722 0
M  V30 4855 H 471.08 -2.00951 -3.45628 0
M  V30 4856 H 472.52 -1.17434 -4.07413 0
M  V30 4857 C 470.979 0.132583 -3.36639 0
M  V30 4858 O 471.509 1.11539 -3.85904 0
M  V30 4859 N 469.715 0.184013 -2.90017 0
M  V30 4860 H 469.262 -0.616415 -2.50116 0
M  V30 4861 H 469.22 1.04956 -2.96364 0
M  V30 4862 N 472.992 0.995999 -1.22138 0
M  V30 4863 C 474.403 1.54961 -1.04135 0
M  V30 4864 C 474.754 1.92159 0.396147 0
M  V30 4865 O 473.879 1.74435 1.28069 0
M  V30 4866 C 474.474 2.81581 -1.88408 0
M  V30 4867 C 473.033 3.33396 -1.74712 0
M  V30 4868 C 472.18 2.06509 -1.85066 0
M  V30 4869 H 475.131 0.817436 -1.36028 0
M  V30 4870 H 475.152 3.53822 -1.39966 0
M  V30 4871 H 474.664 2.54476 -2.93025 0
M  V30 4872 H 472.765 3.65416 -0.728159 0
M  V30 4873 H 472.878 4.04208 -2.57202 0
M  V30 4874 H 471.242 2.19925 -1.28472 0
M  V30 4875 H 472.025 1.81804 -2.91208 0
M  V30 4876 N 474.47 1.03057 1.19235 0
M  V30 4877 C 475.747 0.642608 1.84743 0
M  V30 4878 C 476.127 -0.878577 1.91948 0
M  V30 4879 O 475.475 -1.77597 1.43776 0
M  V30 4880 C 475.685 1.30665 3.23616 0
M  V30 4881 C 477.033 1.43098 3.9976 0
M  V30 4882 O 478.057 1.26396 3.3302 0
M  V30 4883 O 476.916 1.70223 5.19313 0
M  V30 4884 H 474.01 0.223573 0.796206 0
M  V30 4885 H 476.556 1.12883 1.26711 0
M  V30 4886 H 475.328 2.34544 3.13217 0
M  V30 4887 H 474.951 0.808405 3.89295 0
M  V30 4888 N 475.948 -1.35272 0.808662 0
M  V30 4889 C 477.196 -1.98316 0.389233 0
M  V30 4890 C 477.517 -1.64465 -1.04767 0
M  V30 4891 O 476.787 -0.928175 -1.72516 0
M  V30 4892 H 475.367 -0.733585 0.140935 0
M  V30 4893 H 478.029 -1.6515 1.03496 0
M  V30 4894 H 477.125 -3.08123 0.496631 0
M  V30 4895 N 477.426 -0.562348 -1.47226 0
M  V30 4896 C 478.359 0.230405 -2.27034 0
M  V30 4897 C 479.337 0.915609 -1.3437 0
M  V30 4898 O 480.521 0.933573 -1.63758 0
M  V30 4899 C 477.648 1.32874 -3.11548 0
M  V30 4900 C 476.694 0.751552 -4.19826 0
M  V30 4901 S 477.527 -0.405848 -5.3396 0
M  V30 4902 C 478.683 0.694186 -6.22038 0
M  V30 4903 H 478.916 -0.446811 -2.93923 0
M  V30 4904 H 476.449 -0.348781 -1.50409 0
M  V30 4905 H 478.407 1.95773 -3.60809 0
M  V30 4906 H 477.068 1.97782 -2.44011 0
M  V30 4907 H 476.261 1.57651 -4.78709 0
M  V30 4908 H 475.863 0.198645 -3.73472 0
M  V30 4909 H 478.155 1.58501 -6.58698 0
M  V30 4910 H 479.098 0.142592 -7.07956 0
M  V30 4911 H 479.506 0.989169 -5.55766 0
M  V30 4912 N 478.904 1.54736 -0.299062 0
M  V30 4913 C 479.867 2.22127 0.565012 0
M  V30 4914 C 480.867 1.20669 1.06281 0
M  V30 4915 O 482.057 1.45417 0.959145 0
M  V30 4916 C 479.189 2.90611 1.78208 0
M  V30 4917 H 480.382 2.99891 -0.0237448 0
M  V30 4918 H 477.935 1.5622 -0.0498788 0
M  V30 4919 H 478.67 2.16921 2.41072 0
M  V30 4920 H 478.455 3.64984 1.43281 0
M  V30 4921 H 479.945 3.42026 2.396 0
M  V30 4922 N 480.382 0.0267497 1.57577 0
M  V30 4923 C 481.629 -0.652404 1.91703 0
M  V30 4924 C 481.957 -1.72271 0.902936 0
M  V30 4925 O 481.212 -1.955 -0.0884843 0
M  V30 4926 C 481.511 -1.30914 3.3256 0
M  V30 4927 C 481.177 -0.369441 4.49384 0
M  V30 4928 C 479.839 -0.110791 4.81072 0
M  V30 4929 C 482.191 0.275971 5.20469 0
M  V30 4930 C 479.519 0.801116 5.81205 0
M  V30 4931 C 481.871 1.17592 6.21575 0
M  V30 4932 C 480.535 1.44348 6.51705 0
M  V30 4933 H 479.805 -0.238732 0.70149 0
M  V30 4934 H 482.452 0.0880091 1.91298 0
M  V30 4935 H 480.757 -2.12425 3.29216 0
M  V30 4936 H 482.454 -1.84115 3.56234 0
M  V30 4937 H 479.044 -0.581211 4.24641 0
M  V30 4938 H 483.228 0.0892 4.9622 0
M  V30 4939 H 478.484 1.01614 6.02897 0
M  V30 4940 H 482.658 1.68223 6.75777 0
M  V30 4941 H 480.285 2.15176 7.29111 0
M  V30 4942 N 481.861 -1.55662 -0.24637 0
M  V30 4943 C 483.107 -1.77782 -0.975779 0
M  V30 4944 C 483.44 -0.592103 -1.84953 0
M  V30 4945 O 482.715 0.409588 -1.90138 0
M  V30 4946 C 482.998 -3.09788 -1.83584 0
M  V30 4947 C 482.851 -4.38764 -0.990241 0
M  V30 4948 C 484.17 -3.38029 -2.81823 0
M  V30 4949 H 481.289 -0.646789 -0.353317 0
M  V30 4950 H 483.931 -1.88398 -0.246248 0
M  V30 4951 H 482.081 -3.00869 -2.45784 0
M  V30 4952 H 483.753 -4.59675 -0.386897 0
M  V30 4953 H 481.996 -4.32798 -0.294626 0
M  V30 4954 H 482.667 -5.27514 -1.62584 0
M  V30 4955 H 485.143 -3.46915 -2.2976 0
M  V30 4956 H 484.019 -4.3161 -3.39122 0
M  V30 4957 H 484.28 -2.58968 -3.58313 0
M  V30 4958 N 483.339 0.512053 -1.4905 0
M  V30 4959 C 484.75 1.09376 -1.51307 0
M  V30 4960 C 485.101 1.94 -0.292971 0
M  V30 4961 O 484.226 2.07965 0.598277 0
M  V30 4962 C 484.821 1.99031 -2.74176 0
M  V30 4963 C 483.38 2.52385 -2.79247 0
M  V30 4964 C 482.527 1.29749 -2.45073 0
M  V30 4965 H 485.478 0.296467 -1.55906 0
M  V30 4966 H 485.499 2.83569 -2.53711 0
M  V30 4967 H 485.011 1.37412 -3.62959 0
M  V30 4968 H 483.112 3.17673 -1.94716 0
M  V30 4969 H 483.225 2.90293 -3.81139 0
M  V30 4970 H 481.589 1.61912 -1.96612 0
M  V30 4971 H 482.372 0.698555 -3.36118 0
M  V30 4972 N 484.817 1.37938 0.762283 0
M  V30 4973 C 485.747 1.37176 1.88958 0
M  V30 4974 C 486.728 0.238945 1.68413 0
M  V30 4975 O 487.913 0.440726 1.89133 0
M  V30 4976 C 485.043 1.18742 3.2637 0
M  V30 4977 C 483.997 2.29136 3.61498 0
M  V30 4978 C 483.323 1.95816 4.97554 0
M  V30 4979 C 484.623 3.71363 3.6727 0
M  V30 4980 H 486.317 2.31509 1.89853 0
M  V30 4981 H 483.863 1.11438 0.912005 0
M  V30 4982 H 485.816 1.16837 4.04879 0
M  V30 4983 H 484.54 0.208683 3.25933 0
M  V30 4984 H 483.199 2.30213 2.85303 0
M  V30 4985 H 482.847 0.964475 4.93667 0
M  V30 4986 H 482.547 2.69745 5.22026 0
M  V30 4987 H 484.071 1.95513 5.78452 0
M  V30 4988 H 485.485 3.72364 4.35911 0
M  V30 4989 H 483.882 4.44425 4.03245 0
M  V30 4990 H 484.952 4.04305 2.67704 0
M  V30 4991 N 486.295 -0.989507 1.22664 0
M  V30 4992 C 487.711 -1.25395 0.987331 0
M  V30 4993 C 487.911 -1.9899 -0.317056 0
M  V30 4994 O 486.967 -2.30141 -1.03882 0
M  V30 4995 C 488.28 -2.06242 2.18826 0
M  V30 4996 C 489.828 -2.19413 2.23219 0
M  V30 4997 C 490.303 -3.03648 3.42873 0
M  V30 4998 N 491.794 -3.11234 3.43056 0
M  V30 4999 C 492.529 -3.7671 4.32293 0
M  V30 5000 N 492.025 -4.44085 5.31752 0
M  V30 5001 N 493.818 -3.73505 4.2006 0
M  V30 5002 H 485.969 -0.496212 2.06522 0
M  V30 5003 H 488.232 -0.281784 0.905153 0
M  V30 5004 H 487.938 -1.59531 3.13437 0
M  V30 5005 H 487.812 -3.06996 2.19165 0
M  V30 5006 H 490.199 -2.65336 1.29154 0
M  V30 5007 H 490.28 -1.18078 2.26917 0
M  V30 5008 H 489.924 -2.58424 4.37241 0
M  V30 5009 H 489.854 -4.05132 3.36416 0
M  V30 5010 H 492.345 -2.63287 2.71088 0
M  V30 5011 H 492.658 -4.91797 5.96117 0
M  V30 5012 H 491.003 -4.42822 5.35662 0
M  V30 5013 H 494.194 -3.20033 3.41609 0
M  V30 5014 H 494.367 -4.24253 4.8981 0
M  V30 5015 N 487.773 -1.03688 -1.18687 0
M  V30 5016 C 489.019 -0.739123 -1.88851 0
M  V30 5017 C 489.352 0.731042 -1.79915 0
M  V30 5018 O 488.627 1.53313 -1.19688 0
M  V30 5019 C 488.91 -1.20106 -3.3948 0
M  V30 5020 C 488.763 -2.73304 -3.57246 0
M  V30 5021 C 490.082 -0.788134 -4.32986 0
M  V30 5022 H 487.201 -0.269978 -0.68577 0
M  V30 5023 H 489.843 -1.28822 -1.3966 0
M  V30 5024 H 487.993 -0.733915 -3.81505 0
M  V30 5025 H 489.665 -3.28027 -3.24339 0
M  V30 5026 H 487.908 -3.13313 -3.00029 0
M  V30 5027 H 488.579 -3.00684 -4.62918 0
M  V30 5028 H 491.055 -1.19005 -3.98719 0
M  V30 5029 H 489.931 -1.13915 -5.36949 0
M  V30 5030 H 490.192 0.308988 -4.41019 0
M  V30 5031 N 489.251 1.34841 -0.815825 0
M  V30 5032 C 490.5 1.97755 -0.396976 0
M  V30 5033 C 490.813 1.65422 1.04379 0
M  V30 5034 O 492.019 2.21771 1.5662 0
M  V30 5035 C 490.475 3.53818 -0.658869 0
M  V30 5036 C 490.083 3.95051 -2.11278 0
M  V30 5037 C 491.827 4.23397 -0.305834 0
M  V30 5038 C 489.734 5.43997 -2.31994 0
M  V30 5039 H 488.664 0.739985 -0.1447 0
M  V30 5040 H 491.315 1.53781 -1.00118 0
M  V30 5041 H 489.697 3.95997 0.0154112 0
M  V30 5042 H 490.871 3.63998 -2.82564 0
M  V30 5043 H 489.186 3.38388 -2.42657 0
M  V30 5044 H 491.783 5.32899 -0.43854 0
M  V30 5045 H 492.126 4.09508 0.748952 0
M  V30 5046 H 492.659 3.8667 -0.934403 0
M  V30 5047 H 489.398 5.62865 -3.35952 0
M  V30 5048 H 488.918 5.76589 -1.65244 0
M  V30 5049 H 490.597 6.10584 -2.14001 0
M  V30 5050 N 490.729 0.570148 1.46925 0
M  V30 5051 C 492.14 0.1402 1.86173 0
M  V30 5052 C 492.491 -1.29347 1.47526 0
M  V30 5053 O 491.616 -1.97508 0.884292 0
M  V30 5054 C 492.211 0.247661 3.37894 0
M  V30 5055 C 490.77 -0.127332 3.76185 0
M  V30 5056 C 489.917 0.589349 2.70965 0
M  V30 5057 H 492.868 0.779117 1.38259 0
M  V30 5058 H 492.889 -0.530341 3.76786 0
M  V30 5059 H 492.401 1.29121 3.65991 0
M  V30 5060 H 490.502 -1.17149 3.53704 0
M  V30 5061 H 490.615 0.240238 4.78497 0
M  V30 5062 H 488.979 0.0309824 2.54681 0
M  V30 5063 H 489.762 1.6343 3.01903 0
M  V30 5064 N 492.207 -1.54576 0.307264 0
M  V30 5065 C 493.454 -2.00263 -0.300167 0
M  V30 5066 C 493.782 -1.19561 -1.53413 0
M  V30 5067 O 493.037 -0.261487 -1.93945 0
M  V30 5068 C 493.336 -3.50572 -0.695253 0
M  V30 5069 C 493.002 -4.48771 0.437679 0
M  V30 5070 C 491.664 -4.7534 0.748681 0
M  V30 5071 C 494.016 -5.0721 1.19949 0
M  V30 5072 C 491.344 -5.5761 1.8245 0
M  V30 5073 C 493.696 -5.90651 2.26527 0
M  V30 5074 C 492.36 -6.15528 2.58227 0
M  V30 5075 H 491.63 -0.732814 -0.109839 0
M  V30 5076 H 494.277 -1.86664 0.427661 0
M  V30 5077 H 492.582 -3.61814 -1.50326 0
M  V30 5078 H 494.279 -3.83352 -1.17653 0
M  V30 5079 H 490.869 -4.282 0.185187 0
M  V30 5080 H 495.053 -4.86679 0.972474 0
M  V30 5081 H 490.309 -5.75121 2.07476 0
M  V30 5082 H 494.483 -6.34957 2.86011 0
M  V30 5083 H 492.11 -6.79066 3.4172 0
M  V30 5084 N 493.685 -0.035106 -1.57561 0
M  V30 5085 C 494.615 0.942993 -2.13612 0
M  V30 5086 C 495.596 1.33531 -1.05373 0
M  V30 5087 O 496.781 1.41287 -1.33235 0
M  V30 5088 C 493.911 2.22332 -2.66807 0
M  V30 5089 C 492.865 1.97156 -3.79886 0
M  V30 5090 C 492.191 3.31506 -4.19533 0
M  V30 5091 C 493.491 1.30596 -5.05709 0
M  V30 5092 H 495.185 0.476179 -2.95589 0
M  V30 5093 H 492.731 0.227602 -1.4219 0
M  V30 5094 H 494.684 2.91142 -3.04654 0
M  V30 5095 H 493.408 2.7119 -1.81999 0
M  V30 5096 H 492.067 1.30763 -3.42486 0
M  V30 5097 H 491.715 3.78134 -3.31698 0
M  V30 5098 H 491.415 3.15465 -4.95738 0
M  V30 5099 H 492.939 4.01574 -4.59968 0
M  V30 5100 H 494.353 1.89416 -5.41105 0
M  V30 5101 H 492.75 1.24934 -5.86951 0
M  V30 5102 H 493.82 0.279742 -4.84092 0
M  V30 5103 N 495.163 1.55791 0.238111 0
M  V30 5104 C 496.579 1.48411 0.587045 0
M  V30 5105 C 496.779 0.72702 1.87927 0
M  V30 5106 O 495.835 0.259942 2.51158 0
M  V30 5107 C 497.148 2.92873 0.681623 0
M  V30 5108 C 498.696 3.03295 0.773363 0
M  V30 5109 C 499.171 4.49082 0.899428 0
M  V30 5110 N 500.662 4.53056 0.964075 0
M  V30 5111 C 501.397 5.63117 1.08104 0
M  V30 5112 N 500.893 6.82969 1.16299 0
M  V30 5113 N 502.686 5.50933 1.11488 0
M  V30 5114 H 494.837 2.0345 -0.610076 0
M  V30 5115 H 497.1 0.924034 -0.211813 0
M  V30 5116 H 496.806 3.51142 -0.19802 0
M  V30 5117 H 496.68 3.43851 1.55069 0
M  V30 5118 H 499.067 2.45101 1.64346 0
M  V30 5119 H 499.148 2.55513 -0.121034 0
M  V30 5120 H 498.792 5.07889 0.0338586 0
M  V30 5121 H 498.722 4.94553 1.809 0
M  V30 5122 H 501.213 3.66737 0.91173 0
M  V30 5123 H 501.526 7.62598 1.25155 0
M  V30 5124 H 499.871 6.85712 1.13241 0
M  V30 5125 H 503.062 4.56231 1.0474 0
M  V30 5126 H 503.235 6.36743 1.20259 0
M  V30 5127 N 496.642 -0.504142 1.49319 0
M  V30 5128 C 497.552 -1.63248 1.68486 0
M  V30 5129 C 498.568 -1.64488 0.567432 0
M  V30 5130 O 499.744 -1.82966 0.841749 0
M  V30 5131 C 496.809 -2.99627 1.74426 0
M  V30 5132 C 495.87 -3.09039 2.97982 0
M  V30 5133 C 495.103 -4.38913 3.0363 0
M  V30 5134 O 495.326 -5.27528 2.16958 0
M  V30 5135 O 494.26 -4.53231 3.96062 0
M  V30 5136 H 498.086 -1.50008 2.64067 0
M  V30 5137 H 495.671 -0.680086 1.33023 0
M  V30 5138 H 497.553 -3.80689 1.80705 0
M  V30 5139 H 496.228 -3.13136 0.820233 0
M  V30 5140 H 495.135 -2.27177 2.97223 0
M  V30 5141 H 496.468 -3.00456 3.89855 0
M  V30 5142 N 498.12 -1.38341 -0.754957 0
M  V30 5143 C 499.067 -1.3546 -1.86867 0
M  V30 5144 C 500.037 -0.217369 -1.64672 0
M  V30 5145 O 501.222 -0.409383 -1.86356 0
M  V30 5146 C 498.362 -1.18413 -3.24149 0
M  V30 5147 C 497.475 -2.41511 -3.58185 0
M  V30 5148 C 496.61 -2.17205 -4.84763 0
M  V30 5149 C 495.649 -3.36081 -5.11582 0
M  V30 5150 N 494.786 -3.11219 -6.29354 0
M  V30 5151 H 499.626 -2.30672 -1.88664 0
M  V30 5152 H 497.163 -1.14607 -0.922154 0
M  V30 5153 H 499.121 -1.06545 -4.03366 0
M  V30 5154 H 497.751 -0.268397 -3.21682 0
M  V30 5155 H 496.803 -2.64056 -2.73822 0
M  V30 5156 H 498.115 -3.30115 -3.73932 0
M  V30 5157 H 497.269 -2.02465 -5.7192 0
M  V30 5158 H 496.008 -1.25964 -4.71152 0
M  V30 5159 H 495.013 -3.51341 -4.22894 0
M  V30 5160 H 496.238 -4.28196 -5.27091 0
M  V30 5161 H 494.184 -2.22624 -6.17069 0
M  V30 5162 H 494.101 -3.93373 -6.45596 0
M  V30 5163 H 495.369 -3.00132 -7.19403 0
M  V30 5164 N 499.598 0.982988 -1.23187 0
M  V30 5165 C 500.846 1.72052 -1.06031 0
M  V30 5166 C 501.167 1.90769 0.404019 0
M  V30 5167 O 500.437 1.47446 1.28982 0
M  V30 5168 H 499.017 0.637499 -0.389363 0
M  V30 5169 H 501.679 1.18338 -1.54862 0
M  V30 5170 H 500.775 2.7111 -1.54615 0
M  V30 5171 N 501.076 1.04316 1.18135 0
M  V30 5172 C 502.322 0.749128 1.88457 0
M  V30 5173 C 502.655 -0.72149 1.803 0
M  V30 5174 O 501.93 -1.52676 1.205 0
M  V30 5175 C 502.213 1.21905 3.38838 0
M  V30 5176 C 502.066 2.75195 3.55792 0
M  V30 5177 C 503.385 0.811085 4.32561 0
M  V30 5178 H 500.504 0.273611 0.684329 0
M  V30 5179 H 503.146 1.29561 1.38975 0
M  V30 5180 H 501.296 0.754137 3.8111 0
M  V30 5181 H 502.968 3.29743 3.22595 0
M  V30 5182 H 501.211 3.14899 2.98364 0
M  V30 5183 H 501.882 3.03135 4.61317 0
M  V30 5184 H 504.358 1.21118 3.98082 0
M  V30 5185 H 503.234 1.16761 5.36338 0
M  V30 5186 H 503.495 -0.285596 4.41177 0
M  V30 5187 N 502.554 -1.34406 0.822964 0
M  V30 5188 C 503.965 -1.8069 0.469879 0
M  V30 5189 C 504.316 -1.68223 -1.00972 0
M  V30 5190 O 503.441 -1.22226 -1.78577 0
M  V30 5191 C 504.036 -3.28064 0.846118 0
M  V30 5192 C 502.595 -3.72428 0.545402 0
M  V30 5193 C 501.742 -2.56116 1.06301 0
M  V30 5194 H 504.693 -1.22153 1.01313 0
M  V30 5195 H 504.714 -3.80205 0.149922 0
M  V30 5196 H 504.226 -3.37107 1.92304 0
M  V30 5197 H 502.327 -3.68924 -0.522109 0
M  V30 5198 H 502.44 -4.66548 1.0895 0
M  V30 5199 H 500.804 -2.50048 0.484554 0
M  V30 5200 H 501.587 -2.67928 2.14638 0
M  V30 5201 N 504.032 -0.577932 -1.46621 0
M  V30 5202 C 505.443 -0.150071 -1.86096 0
M  V30 5203 C 505.794 1.28563 -1.48209 0
M  V30 5204 O 504.919 1.97036 -0.894754 0
M  V30 5205 C 505.514 -0.265576 -3.37758 0
M  V30 5206 C 504.073 0.10738 -3.76247 0
M  V30 5207 C 503.22 -0.603711 -2.70649 0
M  V30 5208 H 506.171 -0.786438 -1.37844 0
M  V30 5209 H 506.192 0.510352 -3.77062 0
M  V30 5210 H 505.704 -1.3106 -3.65301 0
M  V30 5211 H 503.805 1.15272 -3.54321 0
M  V30 5212 H 503.918 -0.26561 -4.78363 0
M  V30 5213 H 502.282 -0.0444884 -2.54661 0
M  V30 5214 H 503.065 -1.65029 -3.01032 0
M  V30 5215 N 505.51 1.54411 -0.315457 0
M  V30 5216 C 506.42 2.27737 0.56329 0
M  V30 5217 C 507.436 1.31787 1.13614 0
M  V30 5218 O 508.612 1.64791 1.15784 0
M  V30 5219 C 505.677 3.01478 1.71207 0
M  V30 5220 C 504.738 4.12997 1.17185 0
M  V30 5221 C 503.971 4.83212 2.26588 0
M  V30 5222 O 504.194 4.52884 3.46775 0
M  V30 5223 O 503.128 5.70299 1.92463 0
M  V30 5224 H 506.954 3.03683 -0.0319614 0
M  V30 5225 H 504.539 1.49178 -0.0814188 0
M  V30 5226 H 506.421 3.47683 2.38106 0
M  V30 5227 H 505.096 2.28414 2.29366 0
M  V30 5228 H 504.003 3.71159 0.468174 0
M  V30 5229 H 505.336 4.8808 0.635501 0
M  V30 5230 N 506.988 0.0434614 1.5754 0
M  V30 5231 C 508.216 -0.641835 1.96693 0
M  V30 5232 C 508.631 -1.64832 0.920652 0
M  V30 5233 O 507.988 -1.82247 -0.095993 0
M  V30 5234 C 508.039 -1.33557 3.35924 0
M  V30 5235 O 507.76 -0.369403 4.3654 0
M  V30 5236 C 509.261 -2.11135 3.89791 0
M  V30 5237 H 506.481 -0.176013 0.647503 0
M  V30 5238 H 509.025 0.107478 2.04217 0
M  V30 5239 H 507.18 -2.03617 3.29574 0
M  V30 5240 H 507.594 -0.863674 5.1734 0
M  V30 5241 H 509.068 -2.55107 4.89514 0
M  V30 5242 H 509.545 -2.95634 3.24803 0
M  V30 5243 H 510.151 -1.46002 3.99454 0
M  V30 5244 N 508.466 -1.55915 -0.229846 0
M  V30 5245 C 509.396 -1.94754 -1.28815 0
M  V30 5246 C 510.377 -0.814657 -1.49323 0
M  V30 5247 O 511.562 -1.07631 -1.61645 0
M  V30 5248 C 508.692 -2.25705 -2.63959 0
M  V30 5249 C 507.646 -3.41406 -2.5812 0
M  V30 5250 C 506.972 -3.57941 -3.97218 0
M  V30 5251 C 508.272 -4.76616 -2.13623 0
M  V30 5252 H 509.966 -2.83404 -0.965547 0
M  V30 5253 H 507.512 -1.36353 -0.463028 0
M  V30 5254 H 509.465 -2.51467 -3.38146 0
M  V30 5255 H 508.189 -1.339 -2.9789 0
M  V30 5256 H 506.848 -3.1568 -1.86391 0
M  V30 5257 H 506.496 -2.63526 -4.28443 0
M  V30 5258 H 506.196 -4.35757 -3.94195 0
M  V30 5259 H 507.72 -3.86042 -4.73079 0
M  V30 5260 H 509.134 -5.01637 -2.77549 0
M  V30 5261 H 507.531 -5.57655 -2.21677 0
M  V30 5262 H 508.601 -4.7253 -1.08829 0
M  V30 5263 N 509.944 0.496216 -1.49584 0
M  V30 5264 C 510.907 1.57952 -1.66084 0
M  V30 5265 C 511.907 1.51729 -0.53244 0
M  V30 5266 O 513.097 1.54796 -0.79899 0
M  V30 5267 C 510.229 2.97604 -1.66268 0
M  V30 5268 H 511.422 1.44649 -2.6271 0
M  V30 5269 H 508.975 0.7208 -1.38687 0
M  V30 5270 H 509.71 3.16378 -0.712432 0
M  V30 5271 H 509.495 3.03528 -2.4822 0
M  V30 5272 H 510.985 3.76301 -1.81073 0
M  V30 5273 N 511.423 1.38739 0.74761 0
M  V30 5274 C 512.671 1.35007 1.50391 0
M  V30 5275 C 512.992 -0.0574274 1.94915 0
M  V30 5276 O 512.262 -1.00628 1.6808 0
M  V30 5277 H 510.842 0.496784 0.557866 0
M  V30 5278 H 513.504 1.73479 0.888319 0
M  V30 5279 H 512.6 2.00474 2.392 0
M  V30 5280 N 512.901 -0.976442 1.23707 0
M  V30 5281 C 514.147 -1.72081 1.07312 0
M  V30 5282 C 514.48 -1.90275 -0.388476 0
M  V30 5283 O 513.755 -1.4579 -1.28746 0
M  V30 5284 C 514.038 -3.11675 1.80363 0
M  V30 5285 C 513.891 -3.01027 3.3422 0
M  V30 5286 C 515.21 -4.1117 1.5693 0
M  V30 5287 H 512.329 -0.624583 0.391236 0
M  V30 5288 H 514.971 -1.13649 1.52263 0
M  V30 5289 H 513.121 -3.61559 1.42153 0
M  V30 5290 H 514.793 -2.58637 3.81975 0
M  V30 5291 H 513.036 -2.3744 3.63049 0
M  V30 5292 H 513.707 -3.9988 3.80525 0
M  V30 5293 H 516.183 -3.7011 1.90151 0
M  V30 5294 H 515.059 -5.06928 2.10513 0
M  V30 5295 H 515.32 -4.392 0.505548 0
M  V30 5296 N 514.379 -1.04941 -1.1758 0
M  V30 5297 C 515.607 -0.778294 -1.91703 0
M  V30 5298 C 516.022 0.665697 -1.76675 0
M  V30 5299 O 515.379 1.45456 -1.10222 0
M  V30 5300 C 515.43 -1.14628 -3.42845 0
M  V30 5301 O 515.151 -2.53359 -3.57409 0
M  V30 5302 C 516.652 -0.900931 -4.34049 0
M  V30 5303 H 513.872 -0.283167 -0.608323 0
M  V30 5304 H 516.416 -1.39942 -1.49119 0
M  V30 5305 H 514.571 -0.569953 -3.83184 0
M  V30 5306 H 514.985 -2.67709 -4.51035 0
M  V30 5307 H 516.459 -1.20817 -5.38616 0
M  V30 5308 H 516.936 0.163966 -4.38894 0
M  V30 5309 H 517.542 -1.46097 -3.99419 0
M  V30 5310 N 515.857 1.33968 -0.830081 0
M  V30 5311 C 517.103 1.98357 -0.422191 0
M  V30 5312 C 517.436 1.65633 1.01387 0
M  V30 5313 O 516.711 0.931648 1.70735 0
M  V30 5314 C 516.994 3.54492 -0.633043 0
M  V30 5315 C 516.847 3.96934 -2.11574 0
M  V30 5316 C 518.166 4.40039 -0.0735584 0
M  V30 5317 H 515.285 0.720544 -0.154871 0
M  V30 5318 H 517.927 1.58749 -1.04397 0
M  V30 5319 H 516.077 3.88361 -0.103775 0
M  V30 5320 H 517.749 3.73363 -2.7092 0
M  V30 5321 H 515.992 3.46984 -2.60354 0
M  V30 5322 H 516.663 5.05651 -2.21406 0
M  V30 5323 H 519.139 4.12764 -0.52585 0
M  V30 5324 H 518.015 5.48327 -0.250841 0
M  V30 5325 H 518.276 4.30124 1.02202 0
M  V30 5326 N 517.335 0.585699 1.46312 0
M  V30 5327 C 518.298 -0.135673 2.28798 0
M  V30 5328 C 519.298 -0.815988 1.38558 0
M  V30 5329 O 520.488 -0.667487 1.60904 0
M  V30 5330 C 517.62 -1.20163 3.1902 0
M  V30 5331 H 518.813 0.589257 2.94054 0
M  V30 5332 H 516.366 0.343794 1.52472 0
M  V30 5333 H 517.101 -1.95804 2.58517 0
M  V30 5334 H 516.886 -0.718282 3.85465 0
M  V30 5335 H 518.376 -1.70749 3.81096 0
M  V30 5336 N 518.813 -1.54241 0.323641 0
M  V30 5337 C 519.761 -2.25813 -0.557804 0
M  V30 5338 C 520.755 -1.27225 -1.11849 0
M  V30 5339 O 521.961 -1.45001 -1.06652 0
M  V30 5340 H 518.336 -0.72532 -0.198532 0
M  V30 5341 H 520.307 -2.98322 0.0681112 0
M  V30 5342 C 519.056 -3.02913 -1.70701 0
M  V30 5343 H 518.379 -3.78593 -1.28482 0
M  V30 5344 H 519.819 -3.56238 -2.29935 0
M  V30 5345 C 518.278 -2.11217 -2.62467 0
M  V30 5346 O 518.808 -1.69508 -3.64184 0
M  V30 5347 N 517.014 -1.76704 -2.30703 0
M  V30 5348 H 516.561 -2.1082 -1.48029 0
M  V30 5349 H 516.519 -1.15631 -2.92364 0
M  V30 5350 N 520.291 -0.0518155 -1.57515 0
M  V30 5351 C 521.702 0.483787 -1.80323 0
M  V30 5352 C 522.053 1.70879 -0.964099 0
M  V30 5353 O 521.178 2.15643 -0.180872 0
M  V30 5354 C 521.773 0.884459 -3.27052 0
M  V30 5355 C 520.332 1.36504 -3.50776 0
M  V30 5356 C 519.479 0.340539 -2.75201 0
M  V30 5357 H 522.43 -0.277691 -1.56252 0
M  V30 5358 H 522.451 1.74733 -3.38007 0
M  V30 5359 H 521.963 -0.00731093 -3.88099 0
M  V30 5360 H 520.064 2.27598 -2.95009 0
M  V30 5361 H 520.177 1.35675 -4.59488 0
M  V30 5362 H 518.541 0.81356 -2.41357 0
M  V30 5363 H 519.324 -0.543156 -3.38976 0
M  V30 5364 N 521.769 1.56035 0.221574 0
M  V30 5365 C 522.732 1.91584 1.2581 0
M  V30 5366 C 523.732 0.794425 1.39805 0
M  V30 5367 O 524.922 1.06217 1.38071 0
M  V30 5368 C 522.054 2.16663 2.63192 0
M  V30 5369 H 523.247 2.8429 0.954935 0
M  V30 5370 H 520.8 1.49316 0.461988 0
M  V30 5371 H 521.535 1.26508 2.98607 0
M  V30 5372 H 521.32 2.98358 2.5441 0
M  V30 5373 H 522.81 2.45262 3.37988 0
M  V30 5374 N 523.247 -0.488276 1.49845 0
M  V30 5375 C 524.663 -0.820566 1.3689 0
M  V30 5376 C 524.863 -1.97248 0.411752 0
M  V30 5377 O 523.919 -2.52042 -0.151931 0
M  V30 5378 C 525.232 -1.1488 2.77891 0
M  V30 5379 C 526.78 -1.25626 2.86683 0
M  V30 5380 C 527.255 -1.61772 4.28479 0
M  V30 5381 N 528.746 -1.68797 4.31349 0
M  V30 5382 C 529.481 -1.98235 5.38043 0
M  V30 5383 N 528.977 -2.2581 6.54967 0
M  V30 5384 N 530.77 -1.99593 5.2547 0
M  V30 5385 H 522.921 0.271123 2.10662 0
M  V30 5386 H 525.184 0.058735 0.946179 0
M  V30 5387 H 524.89 -0.375614 3.49688 0
M  V30 5388 H 524.764 -2.08919 3.14058 0
M  V30 5389 H 527.151 -2.02014 2.15114 0
M  V30 5390 H 527.232 -0.296072 2.54081 0
M  V30 5391 H 526.876 -0.859295 5.00578 0
M  V30 5392 H 526.806 -2.58912 4.58554 0
M  V30 5393 H 529.297 -1.49595 3.4703 0
M  V30 5394 H 529.61 -2.47497 7.32096 0
M  V30 5395 H 527.955 -2.23239 6.58171 0
M  V30 5396 H 531.146 -1.77535 4.33127 0
M  V30 5397 H 531.319 -2.222 6.08713 0
M  V30 5398 N 524.725 -1.39134 -0.740242 0
M  V30 5399 C 525.972 -1.36071 -1.49969 0
M  V30 5400 C 526.3 0.0450245 -1.94448 0
M  V30 5401 O 525.555 1.02482 -1.66721 0
M  V30 5402 C 525.854 -2.27457 -2.75678 0
M  V30 5403 C 525.52 -3.75185 -2.50094 0
M  V30 5404 C 524.182 -4.15439 -2.42825 0
M  V30 5405 C 526.534 -4.68643 -2.28086 0
M  V30 5406 C 523.862 -5.4722 -2.11584 0
M  V30 5407 C 526.214 -6.00695 -1.98363 0
M  V30 5408 C 524.878 -6.40018 -1.8956 0
M  V30 5409 H 524.148 -0.497921 -0.548777 0
M  V30 5410 H 526.795 -1.71599 -0.85007 0
M  V30 5411 H 525.1 -1.8503 -3.45356 0
M  V30 5412 H 526.797 -2.22384 -3.33686 0
M  V30 5413 H 523.387 -3.43279 -2.56627 0
M  V30 5414 H 527.571 -4.3838 -2.32672 0
M  V30 5415 H 522.827 -5.76615 -2.03287 0
M  V30 5416 H 527.001 -6.72644 -1.80341 0
M  V30 5417 H 524.628 -7.42051 -1.65117 0
M  V30 5418 N 526.204 0.969867 -1.24223 0
M  V30 5419 C 527.134 2.08191 -1.05729 0
M  V30 5420 C 528.115 1.70075 0.0290765 0
M  V30 5421 O 529.3 1.93712 -0.137583 0
M  V30 5422 C 526.43 3.40991 -0.658995 0
M  V30 5423 C 525.384 3.93054 -1.69389 0
M  V30 5424 C 524.71 5.22171 -1.15072 0
M  V30 5425 C 526.01 4.21137 -3.08935 0
M  V30 5426 H 527.704 2.23921 -1.98746 0
M  V30 5427 H 525.25 1.07602 -0.956967 0
M  V30 5428 H 527.203 4.18221 -0.51662 0
M  V30 5429 H 525.927 3.25155 0.30686 0
M  V30 5430 H 524.586 3.17977 -1.82444 0
M  V30 5431 H 524.234 5.02694 -0.175539 0
M  V30 5432 H 523.934 5.57973 -1.84229 0
M  V30 5433 H 525.458 6.02013 -1.02042 0
M  V30 5434 H 526.872 4.8908 -2.99121 0
M  V30 5435 H 525.269 4.68163 -3.75425 0
M  V30 5436 H 526.339 3.27996 -3.57137 0
M  V30 5437 N 527.682 1.05563 1.17022 0
M  V30 5438 C 528.907 0.788437 1.91829 0
M  V30 5439 C 529.332 -0.650356 1.76499 0
M  V30 5440 O 528.69 -1.45229 1.08527 0
M  V30 5441 C 528.738 1.1786 3.40795 0
M  V30 5442 O 527.842 0.312965 4.11211 0
M  V30 5443 H 527.183 0.288794 0.597908 0
M  V30 5444 H 529.713 1.40948 1.48307 0
M  V30 5445 H 529.723 1.14697 3.91546 0
M  V30 5446 H 528.398 2.22666 3.51273 0
M  V30 5447 H 526.975 0.405515 3.70689 0
M  V30 5448 N 529.16 -1.33526 0.837174 0
M  V30 5449 C 530.571 -1.80182 0.489017 0
M  V30 5450 C 530.922 -1.69285 -0.991826 0
M  V30 5451 O 530.047 -1.24113 -1.77271 0
M  V30 5452 C 530.642 -3.27149 0.880866 0
M  V30 5453 C 529.201 -3.71828 0.584872 0
M  V30 5454 C 528.348 -2.54974 1.09011 0
M  V30 5455 H 531.299 -1.21071 1.02603 0
M  V30 5456 H 531.32 -3.80024 0.190239 0
M  V30 5457 H 530.832 -3.35048 1.95869 0
M  V30 5458 H 528.933 -3.69457 -0.48295 0
M  V30 5459 H 529.046 -4.65366 1.13892 0
M  V30 5460 H 527.41 -2.4952 0.511047 0
M  V30 5461 H 528.193 -2.65637 2.17467 0
M  V30 5462 N 530.638 -0.59345 -1.46 0
M  V30 5463 C 531.866 -0.0890934 -2.06708 0
M  V30 5464 C 532.281 1.2205 -1.44046 0
M  V30 5465 O 531.638 1.74029 -0.549551 0
M  V30 5466 C 531.689 0.0720263 -3.61428 0
M  V30 5467 O 531.41 -1.18574 -4.21748 0
M  V30 5468 C 532.911 0.609487 -4.3909 0
M  V30 5469 H 530.131 -0.0623628 -0.668096 0
M  V30 5470 H 532.675 -0.817171 -1.87464 0
M  V30 5471 H 530.83 0.750369 -3.80063 0
M  V30 5472 H 531.244 -1.0064 -5.14754 0
M  V30 5473 H 532.718 0.671363 -5.47902 0
M  V30 5474 H 533.195 1.62878 -4.07882 0
M  V30 5475 H 533.801 -0.03434 -4.25286 0
M  V30 5476 N 532.116 1.54067 -0.331816 0
M  V30 5477 C 533.362 2.01012 0.268667 0
M  V30 5478 C 533.695 1.2195 1.51136 0
M  V30 5479 O 532.97 0.303972 1.9211 0
M  V30 5480 C 533.253 3.55158 0.59456 0
M  V30 5481 C 533.106 4.4494 -0.659409 0
M  V30 5482 C 534.425 4.16939 1.4089 0
M  V30 5483 H 531.544 0.730698 0.0961756 0
M  V30 5484 H 534.186 1.84593 -0.450031 0
M  V30 5485 H 532.336 3.6928 1.20685 0
M  V30 5486 H 534.008 4.42675 -1.29756 0
M  V30 5487 H 532.251 4.1428 -1.28665 0
M  V30 5488 H 532.922 5.50643 -0.386804 0
M  V30 5489 H 535.398 4.06443 0.891272 0
M  V30 5490 H 534.274 5.24889 1.60569 0
M  V30 5491 H 534.535 3.70798 2.40752 0
M  V30 5492 N 533.594 0.0601682 1.57485 0
M  V30 5493 C 535.01 -0.296422 1.56823 0
M  V30 5494 C 535.21 -1.70831 1.0686 0
M  V30 5495 O 534.266 -2.4174 0.729245 0
M  V30 5496 C 535.579 -0.116681 3.00474 0
M  V30 5497 C 537.127 -0.187103 3.1244 0
M  V30 5498 C 537.602 -0.035783 4.57986 0
M  V30 5499 N 539.093 -0.0917676 4.63109 0
M  V30 5500 C 539.828 0.00107251 5.734 0
M  V30 5501 N 539.324 0.146773 6.92645 0
M  V30 5502 N 541.117 -0.0551577 5.62073 0
M  V30 5503 H 533.268 0.983055 1.88281 0
M  V30 5504 H 535.531 0.382386 0.867459 0
M  V30 5505 H 535.237 0.85712 3.41096 0
M  V30 5506 H 535.111 -0.873929 3.66936 0
M  V30 5507 H 537.498 -1.15138 2.71712 0
M  V30 5508 H 537.579 0.601052 2.48638 0
M  V30 5509 H 537.223 0.925212 4.99402 0
M  V30 5510 H 537.153 -0.843196 5.19806 0
M  V30 5511 H 539.644 -0.203261 3.77353 0
M  V30 5512 H 539.957 0.210076 7.72514 0
M  V30 5513 H 538.302 0.181979 6.94762 0
M  V30 5514 H 541.493 -0.167605 4.678 0
M  V30 5515 H 541.666 0.020652 6.47997 0
M  V30 5516 N 535.072 -1.5615 -0.213296 0
M  V30 5517 C 536.035 -1.92249 -1.24792 0
M  V30 5518 C 537.035 -0.801828 -1.39382 0
M  V30 5519 O 538.225 -1.06948 -1.37506 0
M  V30 5520 C 535.357 -2.18056 -2.62039 0
M  V30 5521 H 536.55 -2.84793 -0.939845 0
M  V30 5522 H 534.103 -1.49559 -0.454062 0
M  V30 5523 H 534.838 -1.2809 -2.97932 0
M  V30 5524 H 534.623 -2.99703 -2.52825 0
M  V30 5525 H 536.113 -2.47051 -3.36683 0
M  V30 5526 N 536.55 0.480323 -1.50102 0
M  V30 5527 C 537.796 1.23489 -1.60867 0
M  V30 5528 C 538.129 1.91809 -0.303827 0
M  V30 5529 O 537.404 1.81694 0.694092 0
M  V30 5530 C 537.687 2.28578 -2.78252 0
M  V30 5531 C 537.54 1.64624 -4.18592 0
M  V30 5532 C 538.859 3.2997 -2.91218 0
M  V30 5533 H 535.978 0.447605 -0.585507 0
M  V30 5534 H 538.62 0.530005 -1.82458 0
M  V30 5535 H 536.77 2.88697 -2.59974 0
M  V30 5536 H 538.442 1.08173 -4.48438 0
M  V30 5537 H 536.685 0.949645 -4.23278 0
M  V30 5538 H 537.356 2.40946 -4.96638 0
M  V30 5539 H 539.832 2.79864 -3.07921 0
M  V30 5540 H 538.708 4.00839 -3.74993 0
M  V30 5541 H 538.969 3.93541 -2.0144 0
M  V30 5542 N 538.028 1.39524 0.732853 0
M  V30 5543 C 539.274 1.37068 1.49467 0
M  V30 5544 C 539.607 -0.0327166 1.94172 0
M  V30 5545 O 538.882 -0.998071 1.66939 0
M  V30 5546 C 539.165 2.34494 2.73285 0
M  V30 5547 C 539.018 3.83784 2.34585 0
M  V30 5548 C 540.337 2.29717 3.75391 0
M  V30 5549 H 537.456 0.499206 0.542183 0
M  V30 5550 H 540.098 1.70532 0.837783 0
M  V30 5551 H 538.248 2.06087 3.29333 0
M  V30 5552 H 539.92 4.22949 1.84151 0
M  V30 5553 H 538.163 4.00455 1.66787 0
M  V30 5554 H 538.834 4.47444 3.23262 0
M  V30 5555 H 541.31 2.54839 3.28932 0
M  V30 5556 H 540.186 2.99962 4.59689 0
M  V30 5557 H 540.447 1.30291 4.22465 0
M  V30 5558 N 539.506 -0.963266 1.24736 0
M  V30 5559 C 540.734 -1.74166 1.11686 0
M  V30 5560 C 541.149 -1.8589 -0.330187 0
M  V30 5561 O 540.506 -1.35042 -1.2276 0
M  V30 5562 C 540.557 -3.15989 1.75595 0
M  V30 5563 O 540.278 -3.04847 3.14642 0
M  V30 5564 C 541.779 -4.10145 1.68213 0
M  V30 5565 H 538.999 -0.546031 0.389989 0
M  V30 5566 H 541.543 -1.20907 1.64929 0
M  V30 5567 H 539.698 -3.66219 1.26343 0
M  V30 5568 H 540.112 -3.9425 3.4593 0
M  V30 5569 H 541.586 -5.07299 2.17604 0
M  V30 5570 H 542.063 -4.3445 0.644208 0
M  V30 5571 H 542.669 -3.65827 2.16912 0
M  V30 5572 N 540.985 -1.06182 -1.16461 0
M  V30 5573 C 542.401 -0.785065 -1.38956 0
M  V30 5574 C 542.601 0.616103 -1.9185 0
M  V30 5575 O 541.657 1.37686 -2.11657 0
M  V30 5576 C 542.97 -1.84902 -2.37132 0
M  V30 5577 C 544.518 -1.8724 -2.50819 0
M  V30 5578 C 544.993 -2.92686 -3.52277 0
M  V30 5579 N 546.484 -2.91712 -3.59803 0
M  V30 5580 C 547.219 -3.69949 -4.38093 0
M  V30 5581 N 546.715 -4.58 -5.19815 0
M  V30 5582 N 548.508 -3.58346 -4.33064 0
M  V30 5583 H 540.659 -1.96569 -0.804634 0
M  V30 5584 H 542.922 -0.851747 -0.416211 0
M  V30 5585 H 542.628 -2.85518 -2.0536 0
M  V30 5586 H 542.502 -1.69908 -3.36766 0
M  V30 5587 H 544.889 -0.872827 -2.81897 0
M  V30 5588 H 544.97 -2.06311 -1.51226 0
M  V30 5589 H 544.614 -3.92835 -3.21937 0
M  V30 5590 H 544.544 -2.70864 -4.51598 0
M  V30 5591 H 547.035 -2.27876 -3.01464 0
M  V30 5592 H 547.348 -5.14357 -5.76764 0
M  V30 5593 H 545.693 -4.62056 -5.19162 0
M  V30 5594 H 548.884 -2.88943 -3.68279 0
M  V30 5595 H 549.057 -4.19563 -4.93833 0
M  V30 5596 N 542.463 1.3308 -0.844243 0
M  V30 5597 C 543.688 2.02341 -0.455282 0
M  V30 5598 C 544.113 1.6308 0.93737 0
M  V30 5599 O 543.471 0.826118 1.61385 0
M  V30 5600 C 543.519 3.55743 -0.58988 0
M  V30 5601 O 542.623 4.1063 0.38166 0
M  V30 5602 H 541.964 0.637898 -0.184343 0
M  V30 5603 H 544.494 1.6986 -1.14056 0
M  V30 5604 H 544.504 4.05243 -0.473522 0
M  V30 5605 H 543.179 3.83662 -1.60549 0
M  V30 5606 H 541.756 3.72236 0.22241 0
M  V30 5607 N 543.941 0.601185 1.45683 0
M  V30 5608 C 544.851 -0.123395 2.34275 0
M  V30 5609 C 545.867 -0.86702 1.5086 0
M  V30 5610 O 547.043 -0.826049 1.8368 0
M  V30 5611 C 544.108 -1.11237 3.2837 0
M  V30 5612 C 543.169 -0.371405 4.2769 0
M  V30 5613 C 542.402 -1.31327 5.1729 0
M  V30 5614 O 542.625 -2.55078 5.10188 0
M  V30 5615 O 541.559 -0.813811 5.96373 0
M  V30 5616 H 545.385 0.604483 2.97623 0
M  V30 5617 H 542.97 0.361477 1.44961 0
M  V30 5618 H 544.852 -1.68214 3.8637 0
M  V30 5619 H 543.527 -1.82139 2.67595 0
M  V30 5620 H 542.434 0.24067 3.73325 0
M  V30 5621 H 543.767 0.296998 4.91303 0
M  V30 5622 N 545.419 -1.53889 0.339982 0
M  V30 5623 C 546.647 -2.05271 -0.259114 0
M  V30 5624 C 547.062 -1.21517 -1.44496 0
M  V30 5625 O 546.419 -0.24966 -1.80784 0
M  V30 5626 C 546.47 -3.55092 -0.677634 0
M  V30 5627 O 546.191 -4.35667 0.461051 0
M  V30 5628 C 547.692 -4.22631 -1.33782 0
M  V30 5629 H 544.912 -0.669085 -0.0506566 0
M  V30 5630 H 547.456 -1.9852 0.490935 0
M  V30 5631 H 545.611 -3.62077 -1.37763 0
M  V30 5632 H 546.025 -5.24343 0.128144 0
M  V30 5633 H 547.499 -5.28861 -1.58145 0
M  V30 5634 H 547.976 -3.74758 -2.29027 0
M  V30 5635 H 548.582 -4.19829 -0.679957 0
M  V30 5636 N 546.897 -0.0685191 -1.57451 0
M  V30 5637 C 548.122 0.613919 -1.98106 0
M  V30 5638 C 548.547 1.62551 -0.946501 0
M  V30 5639 O 547.905 1.81085 0.0882824 0
M  V30 5640 C 547.953 1.26189 -3.378 0
M  V30 5641 O 547.057 2.37773 -3.36954 0
M  V30 5642 H 546.398 0.158163 -0.644888 0
M  V30 5643 H 548.928 -0.142063 -2.04106 0
M  V30 5644 H 548.938 1.60951 -3.74912 0
M  V30 5645 H 547.613 0.520625 -4.12629 0
M  V30 5646 H 546.19 2.04829 -3.11608 0
M  V30 5647 N 548.375 1.56261 0.205012 0
M  V30 5648 C 549.791 1.49623 0.555433 0
M  V30 5649 C 549.991 0.766719 1.86343 0
M  V30 5650 O 549.047 0.313158 2.50551 0
M  V30 5651 C 550.36 2.94253 0.619347 0
M  V30 5652 C 551.908 3.04868 0.708855 0
M  V30 5653 C 552.383 4.50888 0.803969 0
M  V30 5654 N 553.874 4.54999 0.867758 0
M  V30 5655 C 554.609 5.65284 0.96135 0
M  V30 5656 N 554.105 6.85282 1.01786 0
M  V30 5657 N 555.898 5.53174 0.997771 0
M  V30 5658 H 548.049 2.0211 -0.653094 0
M  V30 5659 H 550.312 0.919333 -0.231366 0
M  V30 5660 H 550.018 3.50643 -0.272458 0
M  V30 5661 H 549.892 3.47063 1.47741 0
M  V30 5662 H 552.279 2.48532 1.5911 0
M  V30 5663 H 552.36 2.55199 -0.175205 0
M  V30 5664 H 552.004 5.07846 -0.0738798 0
M  V30 5665 H 551.934 4.98279 1.70369 0
M  V30 5666 H 554.425 3.68588 0.833735 0
M  V30 5667 H 554.738 7.65081 1.08951 0
M  V30 5668 H 553.083 6.8796 0.986706 0
M  V30 5669 H 556.274 4.5835 0.950392 0
M  V30 5670 H 556.447 6.39151 1.06725 0
M  V30 5671 N 549.853 -0.472356 1.50355 0
M  V30 5672 C 551.264 -1.05326 1.54154 0
M  V30 5673 C 551.615 -1.93155 0.344303 0
M  V30 5674 O 550.74 -2.09479 -0.542928 0
M  V30 5675 C 551.335 -1.91691 2.79356 0
M  V30 5676 C 549.894 -2.44892 2.8584 0
M  V30 5677 C 549.041 -1.23205 2.48426 0
M  V30 5678 H 551.992 -0.255027 1.56637 0
M  V30 5679 H 552.013 -2.76742 2.6114 0
M  V30 5680 H 551.525 -1.27741 3.66475 0
M  V30 5681 H 549.626 -3.12399 2.0307 0
M  V30 5682 H 549.739 -2.80086 3.88701 0
M  V30 5683 H 548.103 -1.56643 2.00836 0
M  V30 5684 H 548.886 -0.609194 3.37852 0
M  V30 5685 N 551.331 -1.39911 -0.725443 0
M  V30 5686 C 552.294 -1.39156 -1.82121 0
M  V30 5687 C 553.294 -0.287018 -1.58218 0
M  V30 5688 O 554.484 -0.545421 -1.65441 0
M  V30 5689 C 551.616 -1.1736 -3.20062 0
M  V30 5690 H 552.809 -2.36672 -1.84191 0
M  V30 5691 H 550.362 -1.25615 -0.930079 0
M  V30 5692 H 551.097 -0.205648 -3.23647 0
M  V30 5693 H 550.882 -1.97358 -3.3881 0
M  V30 5694 H 552.372 -1.19596 -4.00108 0
M  V30 5695 N 552.809 0.956637 -1.25245 0
M  V30 5696 C 553.772 2.03457 -1.05537 0
M  V30 5697 C 554.772 1.60798 -0.00886317 0
M  V30 5698 O 555.962 1.72384 -0.250865 0
M  V30 5699 C 553.094 3.35543 -0.601965 0
M  V30 5700 H 554.287 2.22372 -2.01223 0
M  V30 5701 H 551.84 1.13344 -1.07623 0
M  V30 5702 H 552.575 3.22323 0.357584 0
M  V30 5703 H 552.36 3.67854 -1.35743 0
M  V30 5704 H 553.85 4.14769 -0.485454 0
M  V30 5705 N 554.287 1.06798 1.15896 0
M  V30 5706 C 555.698 0.811355 1.68149 0
M  V30 5707 C 556.049 -0.664339 1.8461 0
M  V30 5708 O 555.174 -1.51485 1.54535 0
M  V30 5709 C 555.769 1.46624 3.05429 0
M  V30 5710 C 554.328 1.25726 3.54781 0
M  V30 5711 C 553.475 1.53949 2.3064 0
M  V30 5712 H 556.426 1.23078 1.00187 0
M  V30 5713 H 556.447 0.88437 3.7008 0
M  V30 5714 H 555.959 2.54025 2.93416 0
M  V30 5715 H 554.06 0.20322 3.72045 0
M  V30 5716 H 554.173 1.97354 4.36564 0
M  V30 5717 H 552.537 0.96025 2.35905 0
M  V30 5718 H 553.32 2.6252 2.2122 0
M  V30 5719 N 555.766 -1.3263 0.851289 0
M  V30 5720 C 557.015 -1.96633 0.449267 0
M  V30 5721 C 557.328 -1.68131 -0.999562 0
M  V30 5722 O 558.534 -2.25845 -1.50685 0
M  V30 5723 C 556.99 -3.51946 0.752446 0
M  V30 5724 C 556.598 -3.89311 2.21678 0
M  V30 5725 C 558.342 -4.22437 0.417983 0
M  V30 5726 C 556.249 -5.37655 2.46336 0
M  V30 5727 H 555.179 -0.735888 0.164269 0
M  V30 5728 H 557.83 -1.51073 1.0416 0
M  V30 5729 H 556.212 -3.95899 0.0895858 0
M  V30 5730 H 557.386 -3.56378 2.92115 0
M  V30 5731 H 555.701 -3.31836 2.51543 0
M  V30 5732 H 558.298 -5.31549 0.579674 0
M  V30 5733 H 558.641 -4.11349 -0.640115 0
M  V30 5734 H 559.174 -3.84057 1.03659 0
M  V30 5735 H 555.913 -5.5376 3.50757 0
M  V30 5736 H 555.433 -5.72005 1.80473 0
M  V30 5737 H 557.112 -6.04695 2.30115 0
M  V30 5738 N 557.244 -0.608902 -1.45362 0
M  V30 5739 C 558.655 -0.189511 -1.85736 0
M  V30 5740 C 559.006 1.2539 -1.50903 0
M  V30 5741 O 558.131 1.95094 -0.936347 0
M  V30 5742 C 558.726 -0.33716 -3.37118 0
M  V30 5743 C 557.285 0.0275487 -3.7639 0
M  V30 5744 C 556.432 -0.660983 -2.69307 0
M  V30 5745 H 559.383 -0.815499 -1.36144 0
M  V30 5746 H 559.404 0.430257 -3.7806 0
M  V30 5747 H 558.916 -1.38779 -3.62439 0
M  V30 5748 H 557.017 1.0773 -3.56686 0
M  V30 5749 H 557.13 -0.367018 -4.77692 0
M  V30 5750 H 555.494 -0.0984958 -2.54509 0
M  V30 5751 H 556.277 -1.71377 -2.97464 0
M  V30 5752 N 558.722 1.53707 -0.348139 0
M  V30 5753 C 560.138 1.596 0.00361134 0
M  V30 5754 C 560.338 1.36394 1.4832 0
M  V30 5755 O 559.394 1.16046 2.24253 0
M  V30 5756 C 560.707 2.97512 -0.436682 0
M  V30 5757 C 562.255 3.10568 -0.389416 0
M  V30 5758 C 562.73 4.50866 -0.805249 0
M  V30 5759 N 564.221 4.56929 -0.759616 0
M  V30 5760 C 564.956 5.63643 -1.05327 0
M  V30 5761 N 564.452 6.78189 -1.41531 0
M  V30 5762 N 566.245 5.5354 -0.977207 0
M  V30 5763 H 558.396 1.67044 -1.31187 0
M  V30 5764 H 560.659 0.782559 -0.535075 0
M  V30 5765 H 560.365 3.19575 -1.46849 0
M  V30 5766 H 560.239 3.76742 0.185744 0
M  V30 5767 H 562.626 2.88226 0.633228 0
M  V30 5768 H 562.707 2.33387 -1.04711 0
M  V30 5769 H 562.351 4.73943 -1.82593 0
M  V30 5770 H 562.281 5.26452 -0.124989 0
M  V30 5771 H 564.772 3.74675 -0.49265 0
M  V30 5772 H 565.085 7.55541 -1.62411 0
M  V30 5773 H 563.43 6.79624 -1.45381 0
M  V30 5774 H 566.621 4.62932 -0.693675 0
M  V30 5775 H 566.794 6.36614 -1.2094 0
M  V30 5776 N 560.2 0.0768682 1.57412 0
M  V30 5777 C 561.132 -0.918248 2.10002 0
M  V30 5778 C 562.145 -1.25808 1.03325 0
M  V30 5779 O 563.334 -1.21438 1.30824 0
M  V30 5780 C 560.434 -2.23263 2.54964 0
M  V30 5781 C 559.607 -2.07088 3.8527 0
M  V30 5782 C 558.666 -3.21876 4.16272 0
M  V30 5783 O 557.692 -2.96643 4.8579 0
M  V30 5784 N 558.894 -4.4712 3.70221 0
M  V30 5785 H 561.659 -0.469209 2.96004 0
M  V30 5786 H 559.22 -0.108725 1.61535 0
M  V30 5787 H 561.212 -2.9897 2.72762 0
M  V30 5788 H 559.782 -2.59649 1.74072 0
M  V30 5789 H 559.002 -1.15818 3.76802 0
M  V30 5790 H 560.29 -1.93537 4.70554 0
M  V30 5791 H 559.688 -4.70506 3.1407 0
M  V30 5792 H 558.245 -5.19837 3.93209 0
M  V30 5793 N 561.678 -1.56367 -0.196722 0
M  V30 5794 C 562.955 -1.71359 -0.943159 0
M  V30 5795 C 563.335 -0.631192 -2.01443 0
M  V30 5796 O 562.683 0.358071 -2.25677 0
M  V30 5797 C 562.893 -3.13623 -1.53106 0
M  V30 5798 C 564.241 -3.73806 -2.01381 0
M  V30 5799 O 565.265 -3.16742 -1.62951 0
M  V30 5800 O 564.124 -4.73951 -2.7209 0
M  V30 5801 H 561.218 -0.698851 -0.442195 0
M  V30 5802 H 563.764 -1.68672 -0.186547 0
M  V30 5803 H 562.536 -3.83873 -0.758785 0
M  V30 5804 H 562.159 -3.20532 -2.35255 0
M  V30 5805 N 563.156 0.464375 -1.50603 0
M  V30 5806 C 564.384 1.23907 -1.65695 0
M  V30 5807 C 564.799 1.85658 -0.343027 0
M  V30 5808 O 564.156 1.69529 0.675739 0
M  V30 5809 C 564.207 2.3429 -2.75301 0
M  V30 5810 O 563.928 1.7507 -4.01599 0
M  V30 5811 C 565.429 3.25051 -3.01424 0
M  V30 5812 H 562.649 0.374485 -0.556778 0
M  V30 5813 H 565.193 0.55353 -1.96866 0
M  V30 5814 H 563.348 2.98607 -2.46804 0
M  V30 5815 H 563.762 2.47812 -4.62266 0
M  V30 5816 H 565.236 3.98699 -3.81763 0
M  V30 5817 H 565.713 3.84227 -2.12758 0
M  V30 5818 H 566.319 2.66463 -3.31477 0
M  V30 5819 N 564.634 1.40294 0.718013 0
M  V30 5820 C 565.544 1.42678 1.86226 0
M  V30 5821 C 566.56 0.319655 1.71039 0
M  V30 5822 O 567.736 0.563852 1.93346 0
M  V30 5823 C 564.801 1.2852 3.21999 0
M  V30 5824 C 563.862 2.49354 3.49458 0
M  V30 5825 C 563.095 2.35863 4.78753 0
M  V30 5826 O 563.318 1.37114 5.53675 0
M  V30 5827 O 562.252 3.25189 5.06494 0
M  V30 5828 H 566.078 2.39167 1.87171 0
M  V30 5829 H 563.663 1.2159 0.868112 0
M  V30 5830 H 565.545 1.22824 4.03103 0
M  V30 5831 H 564.22 0.351359 3.21787 0
M  V30 5832 H 563.127 2.60628 2.68373 0
M  V30 5833 H 564.46 3.41491 3.54464 0
M  V30 5834 N 566.112 -0.949982 1.2575 0
M  V30 5835 C 567.528 -1.22191 1.02672 0
M  V30 5836 C 567.728 -1.99898 -0.253588 0
M  V30 5837 O 566.784 -2.33329 -0.965076 0
M  V30 5838 C 568.097 -1.99175 2.25277 0
M  V30 5839 C 569.645 -2.12201 2.30087 0
M  V30 5840 C 570.12 -2.92586 3.5236 0
M  V30 5841 N 571.611 -3.00163 3.52784 0
M  V30 5842 C 572.346 -3.62766 4.44059 0
M  V30 5843 N 571.842 -4.26943 5.45611 0
M  V30 5844 N 573.635 -3.59953 4.3173 0
M  V30 5845 H 565.786 -0.430258 2.07996 0
M  V30 5846 H 568.049 -0.252844 0.91366 0
M  V30 5847 H 567.755 -1.49479 3.18354 0
M  V30 5848 H 567.629 -2.99868 2.28821 0
M  V30 5849 H 570.016 -2.61093 1.3753 0
M  V30 5850 H 570.097 -1.10799 2.30559 0
M  V30 5851 H 569.741 -2.44383 4.45241 0
M  V30 5852 H 569.671 -3.94224 3.49134 0
M  V30 5853 H 572.162 -2.54529 2.79327 0
M  V30 5854 H 572.475 -4.72583 6.11461 0
M  V30 5855 H 570.82 -4.25557 5.49478 0
M  V30 5856 H 574.011 -3.09003 3.51617 0
M  V30 5857 H 574.184 -4.08455 5.03059 0
M  V30 5858 O 567.629 -1.19786 -1.08322 0
M  V30 5859 H 568.32 -0.948322 -1.68898 0
M  V30 END ATOM
M  V30 BEGIN BOND
M  V30 END BOND
M  V30 END CTAB
M  END
$$$$
