drugbank_target|Q64822 Fiber (DB03721)
 OpenBabel12092120283D

  0  0  0     0  0            999 V3000
M  V30 BEGIN CTAB
M  V30 COUNTS 5664 5727 0 0 0
M  V30 BEGIN ATOM
M  V30 1 H -0.908 1.98254 -0.117106 0
M  V30 2 N 0 1.576 0 0
M  V30 3 C 0.933 2.03868 1.02534 0
M  V30 4 C 1.911 0.928543 1.3348 0
M  V30 5 O 3.095 1.19667 1.45644 0
M  V30 6 C 0.222 2.43627 2.35294 0
M  V30 7 C -0.732 3.65373 2.2001 0
M  V30 8 S 0.101 5.13292 1.52614 0
M  V30 9 C 1.257 5.56322 2.86805 0
M  V30 10 H 1.49 2.90518 0.631377 0
M  V30 11 H -0.977 1.52953 0.210867 0
M  V30 12 H 0.981 2.67203 3.11629 0
M  V30 13 H -0.358 1.57376 2.7183 0
M  V30 14 H -1.165 3.90944 3.18086 0
M  V30 15 H -1.563 3.418 1.51819 0
M  V30 16 H 0.729 5.58782 3.83104 0
M  V30 17 H 1.672 6.56266 2.65933 0
M  V30 18 H 2.08 4.83886 2.90714 0
M  V30 19 N 1.4781 -0.272755 1.55222 0
M  V30 20 C 2.7031 -1.02683 1.80197 0
M  V30 21 C 3.1281 -1.79142 0.573551 0
M  V30 22 O 2.4861 -1.74917 -0.476849 0
M  V30 23 C 2.5341 -1.9609 3.02624 0
M  V30 24 O 1.6381 -3.04863 2.77727 0
M  V30 25 H 0.9791 -0.293557 0.595584 0
M  V30 26 H 3.5091 -0.30159 2.02365 0
M  V30 27 H 3.5191 -2.38039 3.31363 0
M  V30 28 H 2.1941 -1.39851 3.91682 0
M  V30 29 H 0.7711 -2.67228 2.60084 0
M  V30 30 N 2.9562 -1.48159 -0.537278 0
M  V30 31 C 3.9032 -1.62138 -1.64256 0
M  V30 32 C 4.8732 -0.463668 -1.59497 0
M  V30 33 O 6.0582 -0.686241 -1.78032 0
M  V30 34 C 3.1982 -1.66028 -3.02537 0
M  V30 35 C 2.3112 -2.92855 -3.17585 0
M  V30 36 C 1.4462 -2.87952 -4.46382 0
M  V30 37 C 0.4852 -4.09516 -4.54932 0
M  V30 38 N -0.3778 -4.02733 -5.75109 0
M  V30 39 H 4.4622 -2.56529 -1.51647 0
M  V30 40 H 1.9992 -1.27224 -0.738414 0
M  V30 41 H 3.9572 -1.66265 -3.82638 0
M  V30 42 H 2.5872 -0.751331 -3.13934 0
M  V30 43 H 1.6392 -3.02395 -2.30784 0
M  V30 44 H 2.9512 -3.82822 -3.19764 0
M  V30 45 H 2.1052 -2.8655 -5.34765 0
M  V30 46 H 0.8442 -1.95702 -4.46712 0
M  V30 47 H -0.1508 -4.11201 -3.64957 0
M  V30 48 H 1.0742 -5.02917 -4.56346 0
M  V30 49 H -0.9798 -3.13299 -5.76351 0
M  V30 50 H -1.0628 -4.86397 -5.78752 0
M  V30 51 H 0.2052 -4.05379 -6.65799 0
M  V30 52 N 4.4343 0.785586 -1.36625 0
M  V30 53 C 5.8503 1.08419 -1.17122 0
M  V30 54 C 6.0503 2.015 0.00208491 0
M  V30 55 O 5.1063 2.43551 0.666278 0
M  V30 56 C 6.4193 1.69498 -2.48377 0
M  V30 57 C 7.9673 1.81821 -2.54775 0
M  V30 58 C 8.4423 2.46315 -3.86126 0
M  V30 59 N 9.9333 2.53779 -3.87492 0
M  V30 60 C 10.6683 3.045 -4.85868 0
M  V30 61 N 10.1643 3.55499 -5.94637 0
M  V30 62 N 11.9573 3.03247 -4.73284 0
M  V30 63 H 4.1083 0.167264 -2.1174 0
M  V30 64 H 6.3713 0.13682 -0.938075 0
M  V30 65 H 6.0773 1.08571 -3.34522 0
M  V30 66 H 5.9513 2.6896 -2.64462 0
M  V30 67 H 8.3383 2.41884 -1.69045 0
M  V30 68 H 8.4193 0.811532 -2.42586 0
M  V30 69 H 8.0633 1.86895 -4.72263 0
M  V30 70 H 7.9933 3.47561 -3.95612 0
M  V30 71 H 10.4843 2.17672 -3.08913 0
M  V30 72 H 10.7973 3.92562 -6.65669 0
M  V30 73 H 9.1423 3.5364 -5.98301 0
M  V30 74 H 12.3333 2.62696 -3.87438 0
M  V30 75 H 12.5063 3.42467 -5.50109 0
M  V30 76 N 5.9124 1.20967 1.01018 0
M  V30 77 C 6.8424 0.988272 2.11555 0
M  V30 78 C 7.8234 -0.0849778 1.69888 0
M  V30 79 O 9.0084 0.0738202 1.9406 0
M  V30 80 C 6.1384 0.546528 3.42973 0
M  V30 81 C 5.0924 1.56375 3.9841 0
M  V30 82 C 4.4184 0.97842 5.25672 0
M  V30 83 C 5.7184 2.94922 4.31066 0
M  V30 84 H 7.4124 1.91276 2.30334 0
M  V30 85 H 4.9584 0.921073 1.1069 0
M  V30 86 H 6.9114 0.378839 4.19694 0
M  V30 87 H 5.6354 -0.413598 3.23971 0
M  V30 88 H 4.2944 1.71891 3.23804 0
M  V30 89 H 3.9424 0.0101688 5.02999 0
M  V30 90 H 3.6424 1.65784 5.63728 0
M  V30 91 H 5.1664 0.821939 6.05043 0
M  V30 92 H 6.5804 2.8288 4.9865 0
M  V30 93 H 4.9774 3.5983 4.80253 0
M  V30 94 H 6.0474 3.4616 3.39561 0
M  V30 95 N 7.3905 -1.2043 1.01659 0
M  V30 96 C 8.8065 -1.41852 0.731442 0
M  V30 97 C 9.0065 -1.89358 -0.688898 0
M  V30 98 O 8.0625 -2.06247 -1.45666 0
M  V30 99 C 9.3755 -2.44019 1.75714 0
M  V30 100 C 10.9235 -2.57785 1.77527 0
M  V30 101 C 11.3985 -3.63194 2.79023 0
M  V30 102 N 12.8895 -3.70678 2.77763 0
M  V30 103 C 13.6245 -4.51897 3.52954 0
M  V30 104 N 13.1205 -5.36921 4.37821 0
M  V30 105 N 14.9135 -4.4643 3.41551 0
M  V30 106 H 7.0645 -0.879093 1.93354 0
M  V30 107 H 9.3275 -0.448425 0.835236 0
M  V30 108 H 9.0335 -2.1611 2.77469 0
M  V30 109 H 8.9075 -3.43007 1.56927 0
M  V30 110 H 11.2945 -2.85023 0.764569 0
M  V30 111 H 11.3755 -1.58992 2.00387 0
M  V30 112 H 11.0195 -3.36699 3.80258 0
M  V30 113 H 10.9495 -4.61609 2.53425 0
M  V30 114 H 13.4405 -3.09944 2.16201 0
M  V30 115 H 13.7535 -5.95981 4.91962 0
M  V30 116 H 12.0985 -5.36424 4.41899 0
M  V30 117 H 15.2895 -3.79042 2.74672 0
M  V30 118 H 15.4625 -5.09491 4.00404 0
M  V30 119 N 8.8686 -0.792821 -1.36206 0
M  V30 120 C 10.1146 -0.36733 -1.99446 0
M  V30 121 C 10.4476 1.05917 -1.62774 0
M  V30 122 O 9.7226 1.7324 -0.88421 0
M  V30 123 C 10.0056 -0.535044 -3.56103 0
M  V30 124 C 9.8586 -2.00548 -4.02617 0
M  V30 125 C 11.1776 0.0478191 -4.40074 0
M  V30 126 H 8.2966 -0.134941 -0.724541 0
M  V30 127 H 10.9386 -0.999794 -1.61568 0
M  V30 128 H 9.0886 0.00336329 -3.885 0
M  V30 129 H 10.7606 -2.60521 -3.80692 0
M  V30 130 H 9.0036 -2.50686 -3.54032 0
M  V30 131 H 9.6746 -2.07377 -5.11565 0
M  V30 132 H 12.1506 -0.411822 -4.14057 0
M  V30 133 H 11.0266 -0.0995336 -5.4881 0
M  V30 134 H 11.2876 1.14025 -4.27142 0
M  V30 135 N 10.3467 1.47872 -0.545128 0
M  V30 136 C 11.2567 2.33633 0.212746 0
M  V30 137 C 12.2727 1.4744 0.923983 0
M  V30 138 O 13.4487 1.80393 0.895572 0
M  V30 139 C 10.5137 3.23884 1.23693 0
M  V30 140 C 9.5747 4.25961 0.534417 0
M  V30 141 C 8.8077 5.11899 1.5098 0
M  V30 142 O 9.0307 5.00077 2.7437 0
M  V30 143 O 7.9647 5.92831 1.0409 0
M  V30 144 H 11.7907 2.99714 -0.490416 0
M  V30 145 H 9.3757 1.46235 -0.305871 0
M  V30 146 H 11.2577 3.79666 1.82843 0
M  V30 147 H 9.9327 2.60446 1.92222 0
M  V30 148 H 8.8397 3.73972 -0.0979679 0
M  V30 149 H 10.1727 4.92079 -0.109213 0
M  V30 150 N 11.8248 0.280983 1.55075 0
M  V30 151 C 13.1018 -0.386207 1.91749 0
M  V30 152 C 13.4818 -1.73264 1.20594 0
M  V30 153 O 12.8298 -2.26034 0.334784 0
M  V30 154 C 13.0398 -0.520687 3.45094 0
M  V30 155 C 14.3878 -0.800865 4.16979 0
M  V30 156 O 15.4118 -0.605271 3.5102 0
M  V30 157 O 14.2708 -1.1753 5.33712 0
M  V30 158 H 11.3648 -0.212408 0.799257 0
M  V30 159 H 13.9108 0.327568 1.66509 0
M  V30 160 H 12.6828 0.426633 3.88967 0
M  V30 161 H 12.3058 -1.2837 3.76307 0
M  V30 162 N 13.3029 -1.57598 0.00835791 0
M  V30 163 C 14.5799 -1.82172 -0.712235 0
M  V30 164 C 14.9599 -0.887873 -1.9152 0
M  V30 165 O 14.3079 0.06146 -2.28417 0
M  V30 166 C 14.5179 -3.30875 -1.11008 0
M  V30 167 C 15.8659 -3.96826 -1.51044 0
M  V30 168 O 16.8899 -3.35248 -1.20364 0
M  V30 169 O 15.7489 -5.05318 -2.08125 0
M  V30 170 H 12.8429 -0.750435 -0.347529 0
M  V30 171 H 15.3889 -1.69665 0.0344523 0
M  V30 172 H 14.1609 -3.90481 -0.252982 0
M  V30 173 H 13.7839 -3.48412 -1.9156 0
M  V30 174 N 14.781 0.264519 -1.55364 0
M  V30 175 C 16.028 0.994986 -1.7637 0
M  V30 176 C 16.356 1.85976 -0.5695 0
M  V30 177 O 15.611 1.90509 0.44776 0
M  V30 178 C 15.91 1.9004 -3.02687 0
M  V30 179 C 15.576 1.19243 -4.34847 0
M  V30 180 C 14.238 0.996709 -4.70764 0
M  V30 181 C 16.59 0.689296 -5.16622 0
M  V30 182 C 13.918 0.285261 -5.86006 0
M  V30 183 C 16.27 -0.00860079 -6.32599 0
M  V30 184 C 14.934 -0.215963 -6.67151 0
M  V30 185 H 14.204 0.364091 -0.645383 0
M  V30 186 H 16.851 0.266543 -1.89636 0
M  V30 187 H 15.156 2.69533 -2.84357 0
M  V30 188 H 16.853 2.46695 -3.16137 0
M  V30 189 H 13.443 1.3549 -4.06621 0
M  V30 190 H 17.627 0.828108 -4.89342 0
M  V30 191 H 12.883 0.113961 -6.11294 0
M  V30 192 H 17.057 -0.406186 -6.95214 0
M  V30 193 H 14.684 -0.769217 -7.56298 0
M  V30 194 N 16.2591 1.48442 0.529413 0
M  V30 195 C 17.2071 1.63452 1.65487 0
M  V30 196 C 18.2011 0.500955 1.61823 0
M  V30 197 O 19.4071 0.679695 1.66674 0
M  V30 198 H 15.7821 0.514905 0.548066 0
M  V30 199 H 17.7531 2.57975 1.49971 0
M  V30 200 C 16.5021 1.69196 3.03756 0
M  V30 201 H 15.8251 2.55784 3.07269 0
M  V30 202 H 17.2651 1.83743 3.82119 0
M  V30 203 C 15.7241 0.430765 3.34135 0
M  V30 204 O 16.2541 -0.4561 3.99102 0
M  V30 205 N 14.4601 0.302293 2.89023 0
M  V30 206 H 14.0071 1.02496 2.36331 0
M  V30 207 H 13.9651 -0.540546 3.09718 0
M  V30 208 N 17.7372 -0.778329 1.37039 0
M  V30 209 C 19.1482 -1.35421 1.28523 0
M  V30 210 C 19.4992 -1.96075 -0.0700901 0
M  V30 211 O 18.6242 -1.93352 -0.971801 0
M  V30 212 C 19.2192 -2.46211 2.32735 0
M  V30 213 C 17.7782 -2.99585 2.27873 0
M  V30 214 C 16.9252 -1.72748 2.16918 0
M  V30 215 H 19.8762 -0.5791 1.47757 0
M  V30 216 H 19.8972 -3.2552 1.9702 0
M  V30 217 H 19.4092 -2.02036 3.31365 0
M  V30 218 H 17.5102 -3.48152 1.32745 0
M  V30 219 H 17.6232 -3.55646 3.21018 0
M  V30 220 H 15.9872 -1.95416 1.63354 0
M  V30 221 H 16.7702 -1.30686 3.17452 0
M  V30 222 N 19.2153 -1.21501 -1.00376 0
M  V30 223 C 20.4613 -1.03452 -1.74429 0
M  V30 224 C 20.7943 0.430764 -1.89362 0
M  V30 225 O 20.0693 1.31962 -1.42886 0
M  V30 226 C 20.3523 -1.73375 -3.15615 0
M  V30 227 C 20.2053 -3.27431 -3.08397 0
M  V30 228 C 21.5243 -1.47732 -4.14564 0
M  V30 229 H 18.6433 -0.377226 -0.633143 0
M  V30 230 H 21.2853 -1.49693 -1.17013 0
M  V30 231 H 19.4353 -1.34064 -3.64636 0
M  V30 232 H 21.1073 -3.76119 -2.67081 0
M  V30 233 H 19.3503 -3.5767 -2.45468 0
M  V30 234 H 20.0213 -3.71524 -4.08258 0
M  V30 235 H 22.4973 -1.8186 -3.74254 0
M  V30 236 H 21.3733 -1.99169 -5.11491 0
M  V30 237 H 21.6343 -0.407589 -4.40217 0
M  V30 238 N 20.6934 1.19889 -1.02296 0
M  V30 239 C 21.9234 1.93109 -0.734332 0
M  V30 240 C 22.3314 1.75377 0.709889 0
M  V30 241 O 21.6744 1.06912 1.49384 0
M  V30 242 C 21.7364 3.45362 -0.99827 0
M  V30 243 C 21.4004 3.8686 -2.43287 0
M  V30 244 C 22.3974 3.92102 -3.41397 0
M  V30 245 C 20.0824 4.18668 -2.77529 0
M  V30 246 C 22.0764 4.28573 -4.71809 0
M  V30 247 C 19.7634 4.54813 -4.08153 0
M  V30 248 C 20.7614 4.59739 -5.05103 0
M  V30 249 O 20.4494 4.95051 -6.33388 0
M  V30 250 H 20.1814 0.620409 -0.268456 0
M  V30 251 H 22.7354 1.53144 -1.3688 0
M  V30 252 H 20.9654 3.85482 -0.306645 0
M  V30 253 H 22.6544 3.99814 -0.700234 0
M  V30 254 H 23.4204 3.67685 -3.1628 0
M  V30 255 H 19.2994 4.14021 -2.0275 0
M  V30 256 H 22.8434 4.32333 -5.4748 0
M  V30 257 H 18.7404 4.78687 -4.33047 0
M  V30 258 H 19.5084 5.1302 -6.37772 0
M  V30 259 N 22.1715 0.800033 1.35784 0
M  V30 260 C 23.5825 0.439142 1.81462 0
M  V30 261 C 23.9335 -1.03813 1.66485 0
M  V30 262 O 23.0585 -1.80626 1.19177 0
M  V30 263 C 23.6535 0.790314 3.29453 0
M  V30 264 C 22.2125 0.482111 3.733 0
M  V30 265 C 21.3595 1.01938 2.57883 0
M  V30 266 H 24.3105 0.992254 1.23855 0
M  V30 267 H 24.3315 0.0853677 3.80404 0
M  V30 268 H 23.8435 1.86554 3.40322 0
M  V30 269 H 21.9445 -0.584652 3.67984 0
M  V30 270 H 22.0575 1.01015 4.6833 0
M  V30 271 H 20.4215 0.442043 2.50835 0
M  V30 272 H 21.2045 2.10059 2.71533 0
M  V30 273 N 23.6496 -1.47581 0.552962 0
M  V30 274 C 24.8796 -2.06575 0.0320091 0
M  V30 275 C 25.2876 -1.4067 -1.26525 0
M  V30 276 O 24.6306 -0.495808 -1.76883 0
M  V30 277 C 24.6926 -3.58705 -0.238913 0
M  V30 278 C 24.3566 -4.46625 0.968272 0
M  V30 279 C 25.3536 -4.85 1.87274 0
M  V30 280 C 23.0386 -4.88201 1.18175 0
M  V30 281 C 25.0326 -5.63745 2.9744 0
M  V30 282 C 22.7196 -5.66712 2.28651 0
M  V30 283 C 23.7176 -6.04394 3.18114 0
M  V30 284 O 23.4056 -6.81324 4.26676 0
M  V30 285 H 23.1376 -0.674763 0.0408689 0
M  V30 286 H 25.6916 -1.90634 0.764719 0
M  V30 287 H 23.9216 -3.72844 -1.02588 0
M  V30 288 H 25.6106 -3.99735 -0.704731 0
M  V30 289 H 26.3766 -4.53482 1.71984 0
M  V30 290 H 22.2556 -4.58339 0.494593 0
M  V30 291 H 25.7996 -5.93077 3.67296 0
M  V30 292 H 21.6966 -5.97642 2.43915 0
M  V30 293 H 22.4646 -6.99712 4.24671 0
M  V30 294 N 25.1277 -0.289203 -1.54924 0
M  V30 295 C 26.3757 0.322879 -1.99504 0
M  V30 296 C 26.6967 1.55313 -1.1791 0
M  V30 297 O 25.9667 1.94001 -0.272097 0
M  V30 298 H 24.5467 0.122291 -0.736922 0
M  V30 299 H 27.2087 -0.397802 -1.90797 0
M  V30 300 H 26.3047 0.603061 -3.06218 0
M  V30 301 N 26.6058 1.57591 -0.0167156 0
M  V30 302 C 27.8358 1.95292 0.674149 0
M  V30 303 C 28.2438 0.891097 1.66901 0
M  V30 304 O 27.5868 -0.136908 1.83189 0
M  V30 305 C 27.6488 3.29072 1.44747 0
M  V30 306 C 27.3128 4.52879 0.612331 0
M  V30 307 C 28.3098 5.1979 -0.107126 0
M  V30 308 C 25.9948 4.99242 0.553381 0
M  V30 309 C 27.9888 6.31375 -0.874339 0
M  V30 310 C 25.6758 6.10713 -0.217546 0
M  V30 311 C 26.6738 6.76637 -0.930123 0
M  V30 312 O 26.3618 7.85969 -1.68844 0
M  V30 313 H 26.0938 0.648275 0.191615 0
M  V30 314 H 28.6478 2.05284 -0.0690148 0
M  V30 315 H 26.8778 3.15535 2.2355 0
M  V30 316 H 28.5668 3.51764 2.02526 0
M  V30 317 H 29.3328 4.84948 -0.0708392 0
M  V30 318 H 25.2118 4.47744 1.09757 0
M  V30 319 H 28.7558 6.82764 -1.43106 0
M  V30 320 H 24.6528 6.44994 -0.255593 0
M  V30 321 H 25.4208 8.02571 -1.6069 0
M  V30 322 N 28.0839 -0.256276 1.55502 0
M  V30 323 C 29.0469 -1.30047 1.88734 0
M  V30 324 C 30.0469 -1.4154 0.763086 0
M  V30 325 O 31.2369 -1.40403 1.03115 0
M  V30 326 C 28.3689 -2.67953 2.10747 0
M  V30 327 H 29.5619 -1.01802 2.82093 0
M  V30 328 H 27.1149 -0.495134 1.4825 0
M  V30 329 H 27.8499 -3.01351 1.19825 0
M  V30 330 H 27.6349 -2.60993 2.92617 0
M  V30 331 H 29.1249 -3.43368 2.37673 0
M  V30 332 N 29.562 -1.4872 -0.521534 0
M  V30 333 C 30.978 -1.35028 -0.850855 0
M  V30 334 C 31.178 -0.367712 -1.98116 0
M  V30 335 O 30.234 0.208037 -2.51642 0
M  V30 336 C 31.547 -2.75263 -1.21041 0
M  V30 337 C 33.095 -2.83813 -1.31981 0
M  V30 338 C 33.57 -4.24769 -1.71276 0
M  V30 339 N 35.061 -4.27482 -1.78363 0
M  V30 340 C 35.796 -5.33494 -2.1017 0
M  V30 341 N 35.292 -6.49775 -2.40343 0
M  V30 342 N 37.085 -5.20894 -2.11248 0
M  V30 343 H 29.236 -2.11214 0.22413 0
M  V30 344 H 31.499 -0.947252 0.0376439 0
M  V30 345 H 31.205 -3.48765 -0.453415 0
M  V30 346 H 31.079 -3.09327 -2.15863 0
M  V30 347 H 33.466 -2.10561 -2.06756 0
M  V30 348 H 33.547 -2.53358 -0.352596 0
M  V30 349 H 33.191 -4.9854 -0.970588 0
M  V30 350 H 33.121 -4.52673 -2.69062 0
M  V30 351 H 35.612 -3.43611 -1.57288 0
M  V30 352 H 35.925 -7.26402 -2.63743 0
M  V30 353 H 34.27 -6.53035 -2.37844 0
M  V30 354 H 37.461 -4.29065 -1.87139 0
M  V30 355 H 37.634 -6.03612 -2.35704 0
M  V30 356 N 31.0401 0.771051 -1.3745 0
M  V30 357 C 31.9881 1.90574 -1.33358 0
M  V30 358 C 32.9821 1.67936 -0.22224 0
M  V30 359 O 34.1881 1.75717 -0.390304 0
M  V30 360 H 30.5631 0.626714 -0.415612 0
M  V30 361 H 32.5341 1.91142 -2.29144 0
M  V30 362 C 31.2831 3.27845 -1.15813 0
M  V30 363 H 30.6061 3.45842 -2.00583 0
M  V30 364 H 32.0461 4.07538 -1.17 0
M  V30 365 C 30.5051 3.36625 0.136165 0
M  V30 366 O 31.0351 3.85785 1.11949 0
M  V30 367 N 29.2411 2.89997 0.187099 0
M  V30 368 H 28.7881 2.50182 -0.613753 0
M  V30 369 H 28.7461 2.96252 1.05272 0
M  V30 370 N 32.5182 1.22032 0.997298 0
M  V30 371 C 33.4502 0.944263 2.08845 0
M  V30 372 C 34.4632 -0.0754663 1.62625 0
M  V30 373 O 35.6522 0.157994 1.77799 0
M  V30 374 C 32.7522 0.397723 3.36558 0
M  V30 375 C 31.9252 1.47362 4.11829 0
M  V30 376 C 30.9842 0.934951 5.17827 0
M  V30 377 O 30.0102 1.62016 5.45655 0
M  V30 378 N 31.2122 -0.245895 5.79979 0
M  V30 379 H 33.9772 1.88363 2.33109 0
M  V30 380 H 31.5382 1.12661 1.16272 0
M  V30 381 H 33.5302 0.0227771 4.04694 0
M  V30 382 H 32.1002 -0.446646 3.09393 0
M  V30 383 H 31.3202 2.02208 3.38386 0
M  V30 384 H 32.6082 2.19764 4.58891 0
M  V30 385 H 32.0062 -0.819475 5.59733 0
M  V30 386 H 30.5632 -0.562272 6.4937 0
M  V30 387 N 33.9963 -1.19345 1.0293 0
M  V30 388 C 34.9443 -2.24621 0.604001 0
M  V30 389 C 35.9383 -1.65452 -0.363587 0
M  V30 390 O 37.1443 -1.78497 -0.23212 0
M  V30 391 H 33.5193 -0.730858 0.177061 0
M  V30 392 H 35.4903 -2.5781 1.50255 0
M  V30 393 C 34.2393 -3.47688 -0.0289127 0
M  V30 394 H 33.5623 -3.93505 0.706651 0
M  V30 395 H 35.0023 -4.23011 -0.289432 0
M  V30 396 C 33.4613 -3.11817 -1.2756 0
M  V30 397 O 33.9913 -3.2451 -2.36762 0
M  V30 398 N 32.1973 -2.66246 -1.16453 0
M  V30 399 H 31.7443 -2.56118 -0.275914 0
M  V30 400 H 31.7023 -2.42617 -1.99961 0
M  V30 401 N 35.4744 -0.807222 -1.35358 0
M  V30 402 C 36.7234 -0.384376 -1.98004 0
M  V30 403 C 37.0364 1.0543 -1.64754 0
M  V30 404 O 38.2424 1.58029 -2.20769 0
M  V30 405 C 36.6984 -0.636326 -3.5423 0
M  V30 406 C 36.3064 -2.08759 -3.96388 0
M  V30 407 C 38.0504 -0.278869 -4.23583 0
M  V30 408 C 35.9574 -2.28525 -5.45463 0
M  V30 409 H 34.8874 -0.139986 -0.740891 0
M  V30 410 H 37.5384 -0.991369 -1.54415 0
M  V30 411 H 35.9204 0.0406256 -3.95979 0
M  V30 412 H 37.0944 -2.8024 -3.6579 0
M  V30 413 H 35.4094 -2.40497 -3.39926 0
M  V30 414 H 38.0064 -0.404599 -5.33167 0
M  V30 415 H 38.3494 0.775012 -4.09022 0
M  V30 416 H 38.8824 -0.909764 -3.87257 0
M  V30 417 H 35.6214 -3.32361 -5.64992 0
M  V30 418 H 35.1414 -1.61569 -5.77629 0
M  V30 419 H 36.8204 -2.10109 -6.11934 0
M  V30 420 N 36.9525 1.47285 -0.560781 0
M  V30 421 C 38.3635 1.86258 -0.128343 0
M  V30 422 C 38.7145 1.46699 1.30284 0
M  V30 423 O 37.8395 0.871698 1.98067 0
M  V30 424 C 38.4345 3.38044 -0.22614 0
M  V30 425 C 36.9935 3.76096 0.151283 0
M  V30 426 C 36.1405 2.71335 -0.572084 0
M  V30 427 H 39.0915 1.38752 -0.770297 0
M  V30 428 H 39.1125 3.76441 0.554322 0
M  V30 429 H 38.6245 3.66806 -1.26788 0
M  V30 430 H 36.7255 3.52951 1.19399 0
M  V30 431 H 36.8385 4.78641 -0.209765 0
M  V30 432 H 35.2025 2.54696 -0.0147653 0
M  V30 433 H 35.9855 3.02938 -1.61504 0
M  V30 434 N 38.4306 0.297415 1.54768 0
M  V30 435 C 39.6776 -0.312913 2.00068 0
M  V30 436 C 40.0056 -1.54171 1.18582 0
M  V30 437 O 39.2606 -1.94108 0.249133 0
M  V30 438 C 39.5596 -0.717561 3.50123 0
M  V30 439 C 39.2256 0.409095 4.4904 0
M  V30 440 C 37.8876 0.718399 4.75807 0
M  V30 441 C 40.2396 1.16717 5.07963 0
M  V30 442 C 37.5676 1.78896 5.5876 0
M  V30 443 C 39.9196 2.22762 5.92081 0
M  V30 444 C 38.5836 2.54303 6.1716 0
M  V30 445 H 37.8536 -0.114503 0.7321 0
M  V30 446 H 40.5006 0.415767 1.86932 0
M  V30 447 H 38.8056 -1.52627 3.60849 0
M  V30 448 H 40.5026 -1.20091 3.82595 0
M  V30 449 H 37.0926 0.157918 4.28309 0
M  V30 450 H 41.2766 0.941466 4.87289 0
M  V30 451 H 36.5326 2.0381 5.7643 0
M  V30 452 H 40.7066 2.81962 6.36765 0
M  V30 453 H 38.3336 3.3739 6.81229 0
M  V30 454 N 39.9087 -1.5758 0.0250728 0
M  V30 455 C 40.8387 -2.13007 -0.956575 0
M  V30 456 C 41.8197 -1.0452 -1.342 0
M  V30 457 O 43.0047 -1.32332 -1.42133 0
M  V30 458 C 40.1347 -2.65386 -2.24026 0
M  V30 459 C 39.0887 -3.78623 -1.99571 0
M  V30 460 C 38.4147 -4.17414 -3.3417 0
M  V30 461 C 39.7147 -5.04867 -1.33814 0
M  V30 462 H 41.4087 -2.9528 -0.494991 0
M  V30 463 H 38.9547 -1.42042 -0.236651 0
M  V30 464 H 40.9077 -3.02794 -2.93076 0
M  V30 465 H 39.6317 -1.80268 -2.72343 0
M  V30 466 H 38.2907 -3.41646 -1.32941 0
M  V30 467 H 37.9387 -3.29284 -3.80238 0
M  V30 468 H 37.6387 -4.93719 -3.18615 0
M  V30 469 H 39.1627 -4.57402 -4.04495 0
M  V30 470 H 40.5767 -5.39888 -1.92857 0
M  V30 471 H 38.9737 -5.86144 -1.28669 0
M  V30 472 H 40.0437 -4.83904 -0.310561 0
M  V30 473 N 41.3868 0.248026 -1.55636 0
M  V30 474 C 42.6148 0.993808 -1.81469 0
M  V30 475 C 43.0298 1.78991 -0.60064 0
M  V30 476 O 42.3868 1.77345 0.430682 0
M  V30 477 C 42.4378 1.93258 -3.05506 0
M  V30 478 O 42.1588 1.16869 -4.22224 0
M  V30 479 C 43.6598 2.79444 -3.4413 0
M  V30 480 H 40.8798 0.292486 -0.603898 0
M  V30 481 H 43.4238 0.271253 -2.02693 0
M  V30 482 H 41.5788 2.60943 -2.86335 0
M  V30 483 H 41.9928 1.80359 -4.92515 0
M  V30 484 H 43.4668 3.41066 -4.34026 0
M  V30 485 H 43.9438 3.50499 -2.64665 0
M  V30 486 H 44.5498 2.17214 -3.65648 0
M  V30 487 N 42.8649 1.48995 0.513639 0
M  V30 488 C 44.2759 1.5119 1.09537 0
M  V30 489 C 44.6269 0.290906 1.94031 0
M  V30 490 O 43.7519 -0.60049 2.07902 0
M  V30 491 C 44.3469 2.73964 1.99322 0
M  V30 492 C 42.9059 2.78978 2.52682 0
M  V30 493 C 42.0529 2.44934 1.30009 0
M  V30 494 H 45.0039 1.55875 0.298125 0
M  V30 495 H 45.0249 2.53409 2.83838 0
M  V30 496 H 44.5369 3.62813 1.37799 0
M  V30 497 H 42.6379 1.94378 3.1788 0
M  V30 498 H 42.7509 3.8083 2.90698 0
M  V30 499 H 41.1149 1.9644 1.62122 0
M  V30 500 H 41.8979 3.36043 0.702131 0
M  V30 501 N 44.343 -0.763751 1.37857 0
M  V30 502 C 45.754 -1.3405 1.29952 0
M  V30 503 C 46.105 -1.96138 -0.0492898 0
M  V30 504 O 45.23 -1.94372 -0.951239 0
M  V30 505 C 45.825 -2.43729 2.35333 0
M  V30 506 C 44.384 -2.97151 2.31037 0
M  V30 507 C 43.531 -1.70438 2.18738 0
M  V30 508 H 46.482 -0.563396 1.48363 0
M  V30 509 H 46.503 -3.23412 2.00462 0
M  V30 510 H 46.015 -1.9851 3.33489 0
M  V30 511 H 44.116 -3.46724 1.3643 0
M  V30 512 H 44.229 -3.52221 3.24772 0
M  V30 513 H 42.593 -1.93673 1.65418 0
M  V30 514 H 43.376 -1.27312 3.18821 0
M  V30 515 N 45.8211 -1.22559 -0.990812 0
M  V30 516 C 47.0681 -1.05141 -1.73065 0
M  V30 517 C 47.3961 0.413191 -1.9006 0
M  V30 518 O 46.6511 1.32257 -1.44245 0
M  V30 519 C 46.9501 -1.71011 -3.13831 0
M  V30 520 C 46.6161 -3.20911 -3.16745 0
M  V30 521 C 45.2781 -3.61812 -3.17247 0
M  V30 522 C 47.6301 -4.16846 -3.12872 0
M  V30 523 C 44.9581 -4.97127 -3.1158 0
M  V30 524 C 47.3101 -5.5214 -3.08746 0
M  V30 525 C 45.9741 -5.92419 -3.07565 0
M  V30 526 H 45.2441 -0.384738 -0.633291 0
M  V30 527 H 47.8911 -1.5235 -1.16025 0
M  V30 528 H 46.1961 -1.16133 -3.74193 0
M  V30 529 H 47.8931 -1.55023 -3.69823 0
M  V30 530 H 44.4831 -2.88344 -3.17105 0
M  V30 531 H 48.6671 -3.86263 -3.11632 0
M  V30 532 H 43.9231 -5.27562 -3.09012 0
M  V30 533 H 48.0971 -6.26201 -3.04705 0
M  V30 534 H 45.7241 -6.97236 -3.02929 0
M  V30 535 N 47.2992 1.18797 -1.03562 0
M  V30 536 C 48.5452 1.8893 -0.737113 0
M  V30 537 C 48.8782 1.79837 0.732956 0
M  V30 538 O 48.1532 1.19525 1.5344 0
M  V30 539 C 48.4362 3.39607 -1.19745 0
M  V30 540 C 48.2892 3.57537 -2.72924 0
M  V30 541 C 49.6082 4.33069 -0.783526 0
M  V30 542 H 46.7272 0.686057 -0.269249 0
M  V30 543 H 49.3692 1.39797 -1.28673 0
M  V30 544 H 47.5192 3.81583 -0.729855 0
M  V30 545 H 49.1912 3.24688 -3.27682 0
M  V30 546 H 47.4342 3.00363 -3.12993 0
M  V30 547 H 48.1052 4.63238 -3.00191 0
M  V30 548 H 50.5812 3.98846 -1.18581 0
M  V30 549 H 49.4572 5.3707 -1.13343 0
M  V30 550 H 49.7182 4.40986 0.313681 0
M  V30 551 N 48.7773 0.814389 1.34928 0
M  V30 552 C 50.0023 0.410097 2.03305 0
M  V30 553 C 50.4273 -0.973464 1.60951 0
M  V30 554 O 49.7853 -1.63185 0.789964 0
M  V30 555 C 49.8333 0.51049 3.56968 0
M  V30 556 O 48.9373 -0.473035 4.09678 0
M  V30 557 H 48.2783 0.170088 0.641846 0
M  V30 558 H 50.8083 1.10244 1.72358 0
M  V30 559 H 50.8183 0.383135 4.06197 0
M  V30 560 H 49.4933 1.51963 3.87144 0
M  V30 561 H 48.0703 -0.305272 3.71648 0
M  V30 562 N 50.2554 -1.46986 0.568584 0
M  V30 563 C 51.4804 -2.07335 0.0520528 0
M  V30 564 C 51.9054 -1.41675 -1.23733 0
M  V30 565 O 51.2634 -0.495623 -1.74394 0
M  V30 566 C 51.3114 -3.60417 -0.11501 0
M  V30 567 O 50.4154 -3.95309 -1.17492 0
M  V30 568 H 49.7564 -0.661597 0.0564385 0
M  V30 569 H 52.2864 -1.88837 0.787507 0
M  V30 570 H 52.2964 -4.06698 -0.325644 0
M  V30 571 H 50.9714 -4.07601 0.826675 0
M  V30 572 H 49.5484 -3.60757 -0.943869 0
M  V30 573 N 51.7335 -0.305618 -1.54608 0
M  V30 574 C 53.0105 0.355652 -1.92339 0
M  V30 575 C 53.3905 1.71324 -1.23335 0
M  V30 576 O 52.7385 2.25473 -0.370702 0
M  V30 577 C 52.9485 0.46572 -3.45879 0
M  V30 578 C 54.2965 0.734426 -4.182 0
M  V30 579 O 55.3205 0.54935 -3.51938 0
M  V30 580 O 54.1795 1.09024 -5.35515 0
M  V30 581 H 51.2735 0.199666 -0.802535 0
M  V30 582 H 53.8195 -0.354017 -1.65966 0
M  V30 583 H 52.5915 -0.488461 -3.88239 0
M  V30 584 H 52.2145 1.22367 -3.78301 0
M  V30 585 N 53.2116 1.57565 -0.0334293 0
M  V30 586 C 54.4596 1.91598 0.642999 0
M  V30 587 C 54.7806 0.910847 1.7242 0
M  V30 588 O 54.0506 -0.0469931 1.95844 0
M  V30 589 H 52.6306 0.707228 0.240496 0
M  V30 590 H 55.2926 1.94726 -0.0822488 0
M  V30 591 H 54.3886 2.92336 1.09298 0
M  V30 592 N 54.6897 -0.239769 1.55765 0
M  V30 593 C 55.9367 -0.966801 1.7793 0
M  V30 594 C 56.2647 -1.85046 0.599015 0
M  V30 595 O 55.5197 -1.91197 -0.417395 0
M  V30 596 C 55.8187 -1.852 3.05672 0
M  V30 597 C 55.4847 -1.1231 4.36689 0
M  V30 598 C 54.1467 -0.921689 4.72291 0
M  V30 599 C 56.4987 -0.607019 5.17653 0
M  V30 600 C 53.8267 -0.191996 5.86386 0
M  V30 601 C 56.1787 0.109241 6.32506 0
M  V30 602 C 54.8427 0.322073 6.66723 0
M  V30 603 H 54.1127 -0.353778 0.651093 0
M  V30 604 H 56.7597 -0.23634 1.90036 0
M  V30 605 H 55.0647 -2.64975 2.8861 0
M  V30 606 H 56.7617 -2.41635 3.20021 0
M  V30 607 H 53.3517 -1.29004 4.08725 0
M  V30 608 H 57.5357 -0.750153 4.90598 0
M  V30 609 H 52.7917 -0.0166949 6.11398 0
M  V30 610 H 56.9657 0.516737 6.9448 0
M  V30 611 H 54.5927 0.88944 7.54979 0
M  V30 612 N 56.1678 -1.49265 -0.50573 0
M  V30 613 C 57.1148 -1.65585 -1.6078 0
M  V30 614 C 58.0848 -0.497396 -1.58478 0
M  V30 615 O 59.2698 -0.72385 -1.76536 0
M  V30 616 C 56.4098 -1.72408 -2.98948 0
M  V30 617 C 55.5228 -2.99525 -3.11301 0
M  V30 618 C 54.6578 -2.97356 -4.40174 0
M  V30 619 C 53.6968 -4.19074 -4.46143 0
M  V30 620 N 52.8338 -4.14841 -5.66437 0
M  V30 621 H 57.6738 -2.59688 -1.46172 0
M  V30 622 H 55.2108 -1.28761 -0.711261 0
M  V30 623 H 57.1688 -1.74344 -3.79025 0
M  V30 624 H 55.7988 -0.817753 -3.1227 0
M  V30 625 H 54.8508 -3.07222 -2.24318 0
M  V30 626 H 56.1628 -3.89518 -3.11572 0
M  V30 627 H 55.3168 -2.97829 -5.28567 0
M  V30 628 H 54.0558 -2.05133 -4.42461 0
M  V30 629 H 53.0608 -4.1885 -3.56153 0
M  V30 630 H 54.2858 -5.12483 -4.45575 0
M  V30 631 H 52.2318 -3.25453 -5.69575 0
M  V30 632 H 52.1488 -4.98564 -5.68304 0
M  V30 633 H 53.4168 -4.1941 -6.57051 0
M  V30 634 N 57.6459 0.756429 -1.3826 0
M  V30 635 C 58.5939 1.89149 -1.35372 0
M  V30 636 C 59.5879 1.67691 -0.24004 0
M  V30 637 O 60.7939 1.75294 -0.408919 0
M  V30 638 H 57.1689 0.622271 -0.422236 0
M  V30 639 H 59.1399 1.88701 -2.31159 0
M  V30 640 C 57.8889 3.26599 -1.19284 0
M  V30 641 H 57.2119 3.43695 -2.0424 0
M  V30 642 H 58.6519 4.06274 -1.21316 0
M  V30 643 C 57.1109 3.3675 0.100454 0
M  V30 644 O 57.6409 3.86951 1.07851 0
M  V30 645 N 55.8469 2.90179 0.15633 0
M  V30 646 H 55.3939 2.49517 -0.640253 0
M  V30 647 H 55.3519 2.97352 1.02123 0
M  V30 648 N 59.124 1.23083 0.984299 0
M  V30 649 C 60.371 1.06057 1.72505 0
M  V30 650 C 60.699 -0.403105 1.90277 0
M  V30 651 O 59.954 -1.3149 1.44944 0
M  V30 652 C 60.253 1.72673 3.1292 0
M  V30 653 C 59.919 3.22586 3.15038 0
M  V30 654 C 58.581 3.63489 3.15324 0
M  V30 655 C 60.933 4.185 3.10657 0
M  V30 656 C 58.261 4.98772 3.08939 0
M  V30 657 C 60.613 5.53769 3.05814 0
M  V30 658 C 59.277 5.94041 3.04419 0
M  V30 659 H 58.547 0.388091 0.631242 0
M  V30 660 H 61.194 1.52963 1.15215 0
M  V30 661 H 59.499 1.18116 3.73572 0
M  V30 662 H 61.196 1.56982 3.68996 0
M  V30 663 H 57.786 2.90022 3.15571 0
M  V30 664 H 61.97 3.87911 3.09579 0
M  V30 665 H 57.226 5.29193 3.0621 0
M  V30 666 H 61.4 6.27808 3.0138 0
M  V30 667 H 59.027 6.98833 2.99227 0
M  V30 668 N 60.6021 -1.18246 1.0419 0
M  V30 669 C 62.0131 -1.69914 0.773698 0
M  V30 670 C 62.3641 -1.83085 -0.705297 0
M  V30 671 O 61.4891 -1.51123 -1.5489 0
M  V30 672 C 62.0841 -3.08619 1.39784 0
M  V30 673 C 60.6431 -3.57494 1.17792 0
M  V30 674 C 59.7901 -2.34013 1.48773 0
M  V30 675 H 62.7411 -1.02904 1.20816 0
M  V30 676 H 62.7621 -3.71958 0.801714 0
M  V30 677 H 62.2741 -2.99001 2.47426 0
M  V30 678 H 60.3751 -3.72406 0.120295 0
M  V30 679 H 60.4881 -4.40852 1.87581 0
M  V30 680 H 58.8521 -2.37986 0.907463 0
M  V30 681 H 59.6351 -2.27013 2.57527 0
M  V30 682 N 62.0802 -0.821533 -1.34494 0
M  V30 683 C 63.4912 -0.467956 -1.8074 0
M  V30 684 C 63.8422 1.01151 -1.68116 0
M  V30 685 O 62.9672 1.78707 -1.22036 0
M  V30 686 C 63.5622 -0.842627 -3.28154 0
M  V30 687 C 62.1212 -0.541439 -3.72485 0
M  V30 688 C 61.2682 -1.06028 -2.56229 0
M  V30 689 H 64.2192 -1.01183 -1.22261 0
M  V30 690 H 64.2402 -0.145876 -3.8022 0
M  V30 691 H 63.7522 -1.91945 -3.37311 0
M  V30 692 H 61.8532 0.526034 -3.68868 0
M  V30 693 H 61.9662 -1.08453 -4.66663 0
M  V30 694 H 60.3302 -0.481892 -2.501 0
M  V30 695 H 61.1132 -2.14352 -2.68157 0
M  V30 696 N 63.5583 1.46682 -0.576371 0
M  V30 697 C 64.8063 2.02013 -0.0594163 0
M  V30 698 C 65.1273 1.45101 1.30271 0
M  V30 699 O 64.3973 0.633317 1.8538 0
M  V30 700 H 62.9773 0.746759 -0.0189745 0
M  V30 701 H 65.6393 1.79862 -0.750717 0
M  V30 702 H 64.7353 3.12097 0.014345 0
M  V30 703 N 65.0364 0.313813 1.54444 0
M  V30 704 C 66.2824 -0.292108 2.00685 0
M  V30 705 C 66.6154 -1.52548 1.20177 0
M  V30 706 O 65.8904 -1.92452 0.281531 0
M  V30 707 C 66.1734 -0.635968 3.5444 0
M  V30 708 C 66.0264 0.607437 4.4568 0
M  V30 709 C 67.3454 -1.45747 4.15266 0
M  V30 710 H 64.4644 -0.104697 0.729526 0
M  V30 711 H 67.1064 0.428457 1.85106 0
M  V30 712 H 65.2564 -1.24986 3.67846 0
M  V30 713 H 66.9284 1.24581 4.44159 0
M  V30 714 H 65.1714 1.23822 4.15753 0
M  V30 715 H 65.8424 0.322515 5.51057 0
M  V30 716 H 68.3184 -0.938645 4.05375 0
M  V30 717 H 67.1944 -1.66683 5.2298 0
M  V30 718 H 67.4554 -2.45063 3.67963 0
M  V30 719 N 66.5145 -1.57545 0.0417849 0
M  V30 720 C 67.4445 -2.14009 -0.933929 0
M  V30 721 C 68.4255 -1.05938 -1.33083 0
M  V30 722 O 69.6105 -1.33833 -1.40721 0
M  V30 723 C 66.7405 -2.67747 -2.21199 0
M  V30 724 C 65.6945 -3.80718 -1.95544 0
M  V30 725 C 65.0205 -4.20935 -3.29724 0
M  V30 726 C 66.3205 -5.06258 -1.28452 0
M  V30 727 H 68.0145 -2.95788 -0.463645 0
M  V30 728 H 65.5605 -1.42285 -0.221573 0
M  V30 729 H 67.5135 -3.05886 -2.89848 0
M  V30 730 H 66.2375 -1.83147 -2.70416 0
M  V30 731 H 64.8965 -3.43037 -1.2931 0
M  V30 732 H 64.5445 -3.33298 -3.76724 0
M  V30 733 H 64.2445 -4.9707 -3.13361 0
M  V30 734 H 65.7685 -4.61666 -3.9962 0
M  V30 735 H 67.1825 -5.41903 -1.8712 0
M  V30 736 H 65.5795 -5.87475 -1.22445 0
M  V30 737 H 66.6495 -4.84207 -0.259219 0
M  V30 738 N 67.9926 0.231505 -1.5589 0
M  V30 739 C 69.2176 0.978689 -1.82856 0
M  V30 740 C 69.6426 1.77559 -0.620846 0
M  V30 741 O 69.0006 1.76119 0.430305 0
M  V30 742 C 69.0486 1.87997 -3.07716 0
M  V30 743 O 68.1526 2.97393 -2.85712 0
M  V30 744 H 67.4936 0.277663 -0.603158 0
M  V30 745 H 70.0236 0.24783 -2.03093 0
M  V30 746 H 70.0336 2.2917 -3.37558 0
M  V30 747 H 68.7086 1.29417 -3.95252 0
M  V30 748 H 67.2856 2.60238 -2.67078 0
M  V30 749 N 69.4707 1.49531 0.497807 0
M  V30 750 C 70.4007 1.6935 1.60757 0
M  V30 751 C 71.3817 0.542218 1.61227 0
M  V30 752 O 72.5667 0.778417 1.77917 0
M  V30 753 C 69.6967 1.76298 2.99226 0
M  V30 754 C 68.6507 2.91248 3.13622 0
M  V30 755 C 67.9767 2.83312 4.53474 0
M  V30 756 C 69.2767 4.3214 2.93346 0
M  V30 757 H 70.9707 2.62263 1.44425 0
M  V30 758 H 68.5167 1.26208 0.693367 0
M  V30 759 H 70.4697 1.88749 3.76765 0
M  V30 760 H 69.1937 0.799871 3.16654 0
M  V30 761 H 67.8527 2.78404 2.38509 0
M  V30 762 H 67.5007 1.84902 4.67782 0
M  V30 763 H 67.2007 3.60465 4.64046 0
M  V30 764 H 68.7247 2.97775 5.33069 0
M  V30 765 H 70.1387 4.45649 3.60652 0
M  V30 766 H 68.5357 5.1054 3.15387 0
M  V30 767 H 69.6057 4.46363 1.89441 0
M  V30 768 N 70.9488 -0.749086 1.3866 0
M  V30 769 C 71.8958 -1.86291 1.36251 0
M  V30 770 C 72.8658 -1.64578 0.224347 0
M  V30 771 O 74.0508 -1.86181 0.417279 0
M  V30 772 C 71.1908 -3.23644 1.19786 0
M  V30 773 C 70.3038 -3.57158 2.43027 0
M  V30 774 C 69.4388 -4.83838 2.19258 0
M  V30 775 C 68.4778 -5.10152 3.38247 0
M  V30 776 N 67.6148 -6.28029 3.13884 0
M  V30 777 H 72.4548 -1.87685 2.3147 0
M  V30 778 H 69.9918 -0.917287 1.14997 0
M  V30 779 H 71.9498 -4.0291 1.08254 0
M  V30 780 H 70.5798 -3.21566 0.282031 0
M  V30 781 H 69.6318 -2.72701 2.65214 0
M  V30 782 H 70.9438 -3.7253 3.31697 0
M  V30 783 H 70.0978 -5.71057 2.04888 0
M  V30 784 H 68.8368 -4.70614 1.2796 0
M  V30 785 H 67.8418 -4.21401 3.53131 0
M  V30 786 H 69.0668 -5.25271 4.30427 0
M  V30 787 H 67.0128 -6.1612 2.25238 0
M  V30 788 H 66.9298 -6.43922 3.96106 0
M  V30 789 H 68.1978 -7.18124 3.03179 0
M  V30 790 N 72.4269 -1.23603 -0.977757 0
M  V30 791 C 73.3569 -1.04401 -2.0886 0
M  V30 792 C 74.3379 0.0399052 -1.70053 0
M  V30 793 O 75.5229 -0.125246 -1.93796 0
M  V30 794 C 72.6529 -0.637269 -3.41403 0
M  V30 795 C 71.6069 -1.66883 -3.94124 0
M  V30 796 C 70.9329 -1.11745 -5.22893 0
M  V30 797 C 72.2329 -3.06247 -4.23096 0
M  V30 798 H 73.9269 -1.97316 -2.25182 0
M  V30 799 H 71.4729 -0.950096 -1.08209 0
M  V30 800 H 73.4259 -0.48998 -4.18542 0
M  V30 801 H 72.1499 0.327557 -3.24953 0
M  V30 802 H 70.8089 -1.80416 -3.19133 0
M  V30 803 H 70.4569 -0.143527 -5.02795 0
M  V30 804 H 70.1569 -1.80672 -5.59134 0
M  V30 805 H 71.6809 -0.982067 -6.02651 0
M  V30 806 H 73.0949 -2.96001 -4.90975 0
M  V30 807 H 71.4919 -3.72436 -4.70544 0
M  V30 808 H 72.5619 -3.55041 -3.30263 0
M  V30 809 N 73.905 1.17692 -1.04816 0
M  V30 810 C 74.868 2.19787 -0.650117 0
M  V30 811 C 75.868 1.58044 0.296427 0
M  V30 812 O 77.058 1.74012 0.0808097 0
M  V30 813 C 74.19 3.40869 0.0456987 0
M  V30 814 H 75.383 2.56516 -1.5537 0
M  V30 815 H 72.936 1.31708 -0.841594 0
M  V30 816 H 73.671 3.09681 0.962726 0
M  V30 817 H 73.456 3.86928 -0.634727 0
M  V30 818 H 74.946 4.16445 0.310432 0
M  V30 819 N 75.3831 0.828654 1.34056 0
M  V30 820 C 76.6601 0.341809 1.9259 0
M  V30 821 C 77.0401 -1.17158 1.75605 0
M  V30 822 O 76.3881 -1.98132 1.13824 0
M  V30 823 C 76.5981 0.777453 3.4023 0
M  V30 824 C 77.9461 0.779579 4.17382 0
M  V30 825 O 78.9701 0.7204 3.48839 0
M  V30 826 O 77.8291 0.857996 5.39723 0
M  V30 827 H 74.9231 0.0946085 0.821571 0
M  V30 828 H 77.4691 0.913827 1.42994 0
M  V30 829 H 76.2411 1.8196 3.46419 0
M  V30 830 H 75.8641 0.181444 3.97186 0
M  V30 831 N 76.8612 -1.46375 0.584142 0
M  V30 832 C 78.2722 -1.86031 0.157959 0
M  V30 833 C 78.6232 -1.48753 -1.27933 0
M  V30 834 O 77.7482 -0.903098 -1.96655 0
M  V30 835 C 78.3432 -3.37642 0.279892 0
M  V30 836 C 76.9022 -3.76289 -0.09143 0
M  V30 837 C 76.0492 -2.7039 0.615178 0
M  V30 838 H 79.0002 -1.37509 0.792274 0
M  V30 839 H 79.0212 -3.77275 -0.494364 0
M  V30 840 H 78.5332 -3.64742 1.32607 0
M  V30 841 H 76.6342 -3.54806 -1.13769 0
M  V30 842 H 76.7472 -4.78246 0.285886 0
M  V30 843 H 75.1112 -2.5464 0.0552833 0
M  V30 844 H 75.8942 -3.0033 1.66303 0
M  V30 845 N 78.3393 -0.321999 -1.54275 0
M  V30 846 C 79.5883 0.281931 -1.9972 0
M  V30 847 C 79.9013 1.53369 -1.21397 0
M  V30 848 O 81.1073 2.21352 -1.57211 0
M  V30 849 C 79.5633 0.5529 -3.55628 0
M  V30 850 C 79.1713 -0.681721 -4.42783 0
M  V30 851 C 80.9153 1.11687 -4.09544 0
M  V30 852 C 78.8223 -0.382742 -5.9016 0
M  V30 853 H 77.7523 0.109124 -0.746062 0
M  V30 854 H 80.4033 -0.43398 -1.78294 0
M  V30 855 H 78.7853 1.32896 -3.73035 0
M  V30 856 H 79.9593 -1.45723 -4.37151 0
M  V30 857 H 78.2743 -1.1658 -3.99748 0
M  V30 858 H 80.8713 1.35515 -5.17242 0
M  V30 859 H 81.2143 2.06575 -3.61431 0
M  V30 860 H 81.7473 0.402032 -3.95763 0
M  V30 861 H 78.4863 -1.30076 -6.42464 0
M  V30 862 H 78.0063 0.355094 -5.98748 0
M  V30 863 H 79.6853 0.00800157 -6.47 0
M  V30 864 N 79.8174 1.5752 -0.0501392 0
M  V30 865 C 81.0454 1.96963 0.633492 0
M  V30 866 C 81.4604 0.927631 1.6444 0
M  V30 867 O 80.8174 -0.0882665 1.82286 0
M  V30 868 C 80.8684 3.36487 1.32132 0
M  V30 869 O 80.5894 4.36693 0.350894 0
M  V30 870 C 82.0904 3.90682 2.09481 0
M  V30 871 H 79.3104 0.648244 0.173266 0
M  V30 872 H 81.8544 2.0417 -0.116134 0
M  V30 873 H 80.0094 3.30434 2.02218 0
M  V30 874 H 80.4234 5.17702 0.841735 0
M  V30 875 H 81.8974 4.90591 2.5303 0
M  V30 876 H 82.3744 3.26053 2.94255 0
M  V30 877 H 82.9804 4.00069 1.44307 0
M  V30 878 N 81.2955 -0.223234 1.56011 0
M  V30 879 C 82.5445 -0.945912 1.78144 0
M  V30 880 C 82.8575 -1.85567 0.618396 0
M  V30 881 O 84.0635 -2.61688 0.723318 0
M  V30 882 C 82.5195 -1.73216 3.15475 0
M  V30 883 C 82.1275 -0.868619 4.39499 0
M  V30 884 C 83.8715 -2.44615 3.46935 0
M  V30 885 C 81.7785 -1.65212 5.67855 0
M  V30 886 H 80.7085 -0.356929 0.664167 0
M  V30 887 H 83.3595 -0.199845 1.82409 0
M  V30 888 H 81.7415 -2.52107 3.05382 0
M  V30 889 H 82.9155 -0.120366 4.60643 0
M  V30 890 H 81.2305 -0.26683 4.15544 0
M  V30 891 H 83.8275 -3.03732 4.40058 0
M  V30 892 H 84.1705 -3.17417 2.69355 0
M  V30 893 H 84.7035 -1.72715 3.58349 0
M  V30 894 H 81.4425 -0.967407 6.48322 0
M  V30 895 H 80.9625 -2.37503 5.50774 0
M  V30 896 H 82.6415 -2.21322 6.07968 0
M  V30 897 N 82.7736 -1.49793 -0.48987 0
M  V30 898 C 84.0016 -1.63568 -1.26701 0
M  V30 899 C 84.4166 -0.311465 -1.86213 0
M  V30 900 O 83.7736 0.704416 -1.68357 0
M  V30 901 C 83.8246 -2.71284 -2.38929 0
M  V30 902 O 83.5456 -3.9857 -1.81861 0
M  V30 903 C 85.0466 -2.95864 -3.3012 0
M  V30 904 H 82.2666 -0.550342 -0.383881 0
M  V30 905 H 84.8106 -1.95898 -0.586864 0
M  V30 906 H 82.9656 -2.417 -3.02753 0
M  V30 907 H 83.3796 -4.57993 -2.55622 0
M  V30 908 H 84.8536 -3.74941 -4.05121 0
M  V30 909 H 85.3306 -2.06206 -3.87783 0
M  V30 910 H 85.9366 -3.26907 -2.72051 0
M  V30 911 N 84.2517 0.741722 -1.39055 0
M  V30 912 C 85.1997 1.87702 -1.3737 0
M  V30 913 C 86.1937 1.67427 -0.257812 0
M  V30 914 O 87.3997 1.7485 -0.427489 0
M  V30 915 H 83.7747 0.617757 -0.428812 0
M  V30 916 H 85.7457 1.86239 -2.33147 0
M  V30 917 C 84.4947 3.25315 -1.22741 0
M  V30 918 H 83.8177 3.41509 -2.07873 0
M  V30 919 H 85.2577 4.04964 -1.25618 0
M  V30 920 C 83.7167 3.36838 0.0647316 0
M  V30 921 O 84.2467 3.88073 1.03741 0
M  V30 922 N 82.4527 2.90329 0.125544 0
M  V30 923 H 81.9997 2.48823 -0.666682 0
M  V30 924 H 81.9577 2.98418 0.989639 0
M  V30 925 N 85.7298 1.2412 0.971189 0
M  V30 926 C 86.9778 1.07668 1.71032 0
M  V30 927 C 87.2988 -0.385797 1.91146 0
M  V30 928 O 86.5688 -1.27569 1.4867 0
M  V30 929 H 85.1488 0.395429 0.633755 0
M  V30 930 H 87.8108 1.55984 1.16855 0
M  V30 931 H 86.9068 1.57195 2.69622 0
M  V30 932 N 87.2079 -1.17134 1.05439 0
M  V30 933 C 88.4849 -1.83411 0.679699 0
M  V30 934 C 88.8649 -1.9368 -0.839726 0
M  V30 935 O 88.2129 -1.47325 -1.74664 0
M  V30 936 C 88.4229 -3.20918 1.37159 0
M  V30 937 C 89.7709 -3.96796 1.51123 0
M  V30 938 O 90.7949 -3.30406 1.3308 0
M  V30 939 O 89.6539 -5.15778 1.80651 0
M  V30 940 H 86.7479 -0.79154 0.239569 0
M  V30 941 H 89.2939 -1.24411 1.15413 0
M  V30 942 H 88.0659 -3.08428 2.40807 0
M  V30 943 H 87.6889 -3.87587 0.886674 0
M  V30 944 N 88.686 -0.835752 -1.33615 0
M  V30 945 C 89.932 -0.430596 -1.98176 0
M  V30 946 C 90.265 1.00684 -1.66061 0
M  V30 947 O 89.54 1.70339 -0.938877 0
M  V30 948 C 89.823 -0.648065 -3.5422 0
M  V30 949 C 89.676 -2.13255 -3.96033 0
M  V30 950 C 90.995 -0.0922113 -4.40003 0
M  V30 951 H 88.114 -0.157924 -0.719881 0
M  V30 952 H 90.756 -1.05069 -1.58305 0
M  V30 953 H 88.906 -0.120237 -3.88314 0
M  V30 954 H 90.578 -2.725 -3.72211 0
M  V30 955 H 88.821 -2.61823 -3.45878 0
M  V30 956 H 89.492 -2.23547 -5.04708 0
M  V30 957 H 91.968 -0.543343 -4.12537 0
M  V30 958 H 90.844 -0.274083 -5.48215 0
M  V30 959 H 91.105 1.00378 -4.30554 0
M  V30 960 N 90.1641 1.46063 -0.591896 0
M  V30 961 C 91.3891 2.07226 -0.0850314 0
M  V30 962 C 91.8141 1.43625 1.21463 0
M  V30 963 O 91.1721 0.523305 1.73583 0
M  V30 964 C 91.2201 3.60554 0.0576567 0
M  V30 965 O 90.3241 3.97128 1.11188 0
M  V30 966 H 89.6651 0.660615 -0.0669568 0
M  V30 967 H 92.1951 1.8756 -0.81745 0
M  V30 968 H 92.2051 4.07165 0.2609 0
M  V30 969 H 90.8801 4.06235 -0.891416 0
M  V30 970 H 89.4571 3.62213 0.886356 0
M  V30 971 N 91.6422 0.330177 1.54103 0
M  V30 972 C 92.5722 -0.525353 2.27513 0
M  V30 973 C 93.5532 -1.11383 1.2856 0
M  V30 974 O 94.7382 -1.13773 1.57383 0
M  V30 975 C 91.8682 -1.6831 3.03791 0
M  V30 976 C 90.8222 -1.2236 4.10137 0
M  V30 977 C 90.1482 -2.46882 4.74293 0
M  V30 978 C 91.4482 -0.333697 5.21233 0
M  V30 979 H 93.1422 0.087013 2.99274 0
M  V30 980 H 90.6882 0.0432893 1.43935 0
M  V30 981 H 92.6412 -2.28795 3.5388 0
M  V30 982 H 91.3652 -2.32216 2.29659 0
M  V30 983 H 90.0242 -0.64165 3.60941 0
M  V30 984 H 89.6722 -3.09165 3.96769 0
M  V30 985 H 89.3722 -2.16825 5.46133 0
M  V30 986 H 90.8962 -3.08117 5.27159 0
M  V30 987 H 92.3102 -0.845013 5.67038 0
M  V30 988 H 90.7072 -0.125612 5.99969 0
M  V30 989 H 91.7772 0.633724 4.80741 0
M  V30 990 N 93.1203 -1.57491 0.0584922 0
M  V30 991 C 94.0673 -2.11958 -0.913376 0
M  V30 992 C 95.0373 -1.02875 -1.30407 0
M  V30 993 O 96.2223 -1.30464 -1.39226 0
M  V30 994 C 93.3623 -2.67497 -2.18035 0
M  V30 995 C 92.4753 -3.90691 -1.84349 0
M  V30 996 C 91.6103 -4.3452 -3.05559 0
M  V30 997 C 90.6493 -5.50395 -2.67827 0
M  V30 998 N 89.7863 -5.89244 -3.81754 0
M  V30 999 H 94.6263 -2.94704 -0.442017 0
M  V30 1000 H 92.1633 -1.45643 -0.206545 0
M  V30 1001 H 94.1213 -2.978 -2.92183 0
M  V30 1002 H 92.7513 -1.87537 -2.62735 0
M  V30 1003 H 91.8033 -3.66934 -1.00319 0
M  V30 1004 H 93.1153 -4.7489 -1.5258 0
M  V30 1005 H 92.2693 -4.66414 -3.87998 0
M  V30 1006 H 91.0083 -3.49147 -3.40511 0
M  V30 1007 H 90.0133 -5.18165 -1.83806 0
M  V30 1008 H 91.2383 -6.3749 -2.34059 0
M  V30 1009 H 89.1843 -5.06823 -4.16493 0
M  V30 1010 H 89.1013 -6.68151 -3.53708 0
M  V30 1011 H 90.3693 -6.25756 -4.64811 0
M  V30 1012 N 94.5984 0.214957 -1.56127 0
M  V30 1013 C 95.8444 0.939762 -1.79712 0
M  V30 1014 C 96.1774 1.83723 -0.629247 0
M  V30 1015 O 95.4524 1.90925 0.371197 0
M  V30 1016 C 95.7354 1.77306 -3.13424 0
M  V30 1017 C 95.5884 0.90164 -4.40671 0
M  V30 1018 C 96.9074 2.74956 -3.43638 0
M  V30 1019 H 94.0264 0.340214 -0.653776 0
M  V30 1020 H 96.6684 0.20824 -1.88855 0
M  V30 1021 H 94.8184 2.39673 -3.0576 0
M  V30 1022 H 96.4904 0.294206 -4.60361 0
M  V30 1023 H 94.7334 0.207368 -4.33304 0
M  V30 1024 H 95.4044 1.51923 -5.30682 0
M  V30 1025 H 97.8804 2.22724 -3.51473 0
M  V30 1026 H 96.7564 3.30358 -4.38355 0
M  V30 1027 H 97.0174 3.53023 -2.66134 0
M  V30 1028 N 96.0765 1.50051 0.48192 0
M  V30 1029 C 97.3245 1.60181 1.23234 0
M  V30 1030 C 97.6455 0.299176 1.92691 0
M  V30 1031 O 96.9155 -0.682708 1.83619 0
M  V30 1032 H 95.4955 0.590232 0.457859 0
M  V30 1033 H 98.1575 1.86775 0.556881 0
M  V30 1034 H 97.2535 2.40753 1.98607 0
M  V30 1035 N 97.5546 -0.734337 1.39446 0
M  V30 1036 C 98.8026 -1.49096 1.36436 0
M  V30 1037 C 99.1236 -1.94961 -0.0388255 0
M  V30 1038 O 98.3936 -1.69033 -0.990191 0
M  V30 1039 H 96.9736 -0.5531 0.502085 0
M  V30 1040 H 99.6356 -0.871725 1.74319 0
M  V30 1041 H 98.7316 -2.37276 2.02747 0
M  V30 1042 N 99.0327 -1.24633 -0.964593 0
M  V30 1043 C 100.281 -1.08573 -1.70459 0
M  V30 1044 C 100.602 0.375655 -1.91347 0
M  V30 1045 O 99.8717 1.26779 -1.49345 0
M  V30 1046 H 98.4517 -0.398784 -0.631649 0
M  V30 1047 H 101.114 -1.56601 -1.16026 0
M  V30 1048 H 100.21 -1.58623 -2.68785 0
M  V30 1049 N 100.511 1.16574 -1.06058 0
M  V30 1050 C 101.441 2.23057 -0.690488 0
M  V30 1051 C 102.422 1.67141 0.315901 0
M  V30 1052 O 103.607 1.93253 0.191556 0
M  V30 1053 C 100.737 3.47222 -0.073625 0
M  V30 1054 C 99.6908 4.16016 -1.00573 0
M  V30 1055 C 99.0168 5.34104 -0.252289 0
M  V30 1056 C 100.317 4.67264 -2.33371 0
M  V30 1057 H 102.011 2.54271 -1.58072 0
M  V30 1058 H 99.5568 1.22218 -0.76149 0
M  V30 1059 H 101.51 4.20939 0.19714 0
M  V30 1060 H 100.234 3.15302 0.85161 0
M  V30 1061 H 98.8928 3.44223 -1.2612 0
M  V30 1062 H 98.5408 4.98437 0.675988 0
M  V30 1063 H 98.2408 5.81072 -0.873455 0
M  V30 1064 H 99.7648 6.10599 0.0109857 0
M  V30 1065 H 101.179 5.32573 -2.12223 0
M  V30 1066 H 99.5758 5.24843 -2.90963 0
M  V30 1067 H 100.646 3.83602 -2.96611 0
M  V30 1068 N 101.989 0.842826 1.3317 0
M  V30 1069 C 103.217 0.454055 2.01856 0
M  V30 1070 C 103.632 -0.94587 1.63397 0
M  V30 1071 O 102.989 -1.61534 0.849302 0
M  V30 1072 C 103.04 0.569715 3.56982 0
M  V30 1073 O 102.761 1.91448 3.94055 0
M  V30 1074 C 104.262 0.178412 4.42941 0
M  V30 1075 H 101.482 0.17979 0.646465 0
M  V30 1076 H 104.026 1.1365 1.70012 0
M  V30 1077 H 102.181 -0.0648587 3.87346 0
M  V30 1078 H 102.595 1.90282 4.88767 0
M  V30 1079 H 104.069 0.310376 5.51127 0
M  V30 1080 H 104.546 -0.880056 4.30293 0
M  V30 1081 H 105.152 0.787579 4.17944 0
M  V30 1082 N 103.467 -1.45747 0.599634 0
M  V30 1083 C 104.397 -2.33235 -0.111306 0
M  V30 1084 C 105.378 -1.46359 -0.866781 0
M  V30 1085 O 106.563 -1.75146 -0.838904 0
M  V30 1086 C 103.693 -3.28932 -1.11451 0
M  V30 1087 C 102.647 -4.25381 -0.472772 0
M  V30 1088 C 101.973 -5.1071 -1.58365 0
M  V30 1089 C 103.273 -5.18831 0.600948 0
M  V30 1090 H 104.967 -2.92927 0.61919 0
M  V30 1091 H 102.513 -1.40857 0.299215 0
M  V30 1092 H 104.466 -3.89002 -1.62036 0
M  V30 1093 H 103.19 -2.67381 -1.8755 0
M  V30 1094 H 101.849 -3.66598 0.0121472 0
M  V30 1095 H 101.497 -4.45533 -2.33473 0
M  V30 1096 H 101.197 -5.7604 -1.15982 0
M  V30 1097 H 102.721 -5.73647 -2.09194 0
M  V30 1098 H 104.135 -5.73019 0.179491 0
M  V30 1099 H 102.532 -5.92595 0.946076 0
M  V30 1100 H 103.602 -4.6174 1.48068 0
M  V30 1101 N 104.945 -0.338344 -1.53925 0
M  V30 1102 C 105.877 0.555117 -2.22376 0
M  V30 1103 C 106.89 1.06812 -1.22862 0
M  V30 1104 O 108.079 0.979163 -1.49247 0
M  V30 1105 C 105.179 1.77609 -2.88631 0
M  V30 1106 C 104.352 1.39927 -4.14414 0
M  V30 1107 C 103.411 2.47936 -4.64127 0
M  V30 1108 O 102.437 2.11461 -5.28463 0
M  V30 1109 N 103.639 3.79107 -4.39612 0
M  V30 1110 H 106.404 -0.0310778 -2.99684 0
M  V30 1111 H 103.965 -0.162226 -1.61085 0
M  V30 1112 H 105.957 2.49287 -3.18807 0
M  V30 1113 H 104.527 2.26978 -2.14941 0
M  V30 1114 H 103.747 0.513481 -3.90841 0
M  V30 1115 H 105.035 1.12341 -4.96243 0
M  V30 1116 H 104.433 4.11531 -3.88148 0
M  V30 1117 H 102.99 4.4697 -4.74406 0
M  V30 1118 N 106.423 1.57458 -0.0668435 0
M  V30 1119 C 107.7 1.8469 0.644132 0
M  V30 1120 C 108.08 0.958343 1.88093 0
M  V30 1121 O 107.428 0.0233579 2.28488 0
M  V30 1122 C 107.638 3.34767 0.986509 0
M  V30 1123 C 108.986 4.02159 1.36212 0
M  V30 1124 O 110.01 3.39484 1.07839 0
M  V30 1125 O 108.869 5.12694 1.89227 0
M  V30 1126 H 105.963 0.762816 0.319437 0
M  V30 1127 H 108.509 1.6942 -0.0973986 0
M  V30 1128 H 107.281 3.91151 0.107883 0
M  V30 1129 H 106.904 3.55281 1.78497 0
M  V30 1130 N 107.901 -0.206675 1.56239 0
M  V30 1131 C 109.149 -0.927007 1.79586 0
M  V30 1132 C 109.47 -1.8427 0.637929 0
M  V30 1133 O 108.74 -1.92849 -0.344398 0
M  V30 1134 H 107.32 -0.345292 0.662407 0
M  V30 1135 H 109.982 -0.21496 1.93711 0
M  V30 1136 H 109.078 -1.52501 2.72305 0
M  V30 1137 N 109.379 -1.50304 -0.473955 0
M  V30 1138 C 110.604 -1.65175 -1.25427 0
M  V30 1139 C 111.029 -0.333673 -1.85117 0
M  V30 1140 O 110.387 0.702114 -1.67153 0
M  V30 1141 C 110.435 -2.74295 -2.34082 0
M  V30 1142 O 109.539 -2.35349 -3.38651 0
M  V30 1143 H 108.88 -0.551944 -0.369126 0
M  V30 1144 H 111.41 -1.96662 -0.564364 0
M  V30 1145 H 111.42 -2.97285 -2.79438 0
M  V30 1146 H 110.095 -3.69959 -1.90008 0
M  V30 1147 H 108.672 -2.22794 -2.99027 0
M  V30 1148 N 110.857 0.726932 -1.39834 0
M  V30 1149 C 111.787 1.85405 -1.41941 0
M  V30 1150 C 112.768 1.67751 -0.281728 0
M  V30 1151 O 113.953 1.8795 -0.488717 0
M  V30 1152 C 111.083 3.23243 -1.2701 0
M  V30 1153 C 110.037 3.55549 -2.38262 0
M  V30 1154 C 109.363 4.9241 -2.08415 0
M  V30 1155 C 110.663 3.577 -3.80589 0
M  V30 1156 H 112.357 1.83899 -2.36266 0
M  V30 1157 H 109.903 0.883349 -1.13723 0
M  V30 1158 H 111.856 4.01775 -1.27103 0
M  V30 1159 H 110.58 3.25296 -0.291564 0
M  V30 1160 H 109.239 2.79351 -2.37399 0
M  V30 1161 H 108.887 4.91052 -1.0898 0
M  V30 1162 H 108.587 5.14992 -2.82943 0
M  V30 1163 H 110.111 5.73289 -2.10171 0
M  V30 1164 H 111.525 4.26293 -3.83337 0
M  V30 1165 H 109.922 3.91804 -4.54543 0
M  V30 1166 H 110.992 2.57328 -4.10987 0
M  V30 1167 N 112.336 1.25143 0.95797 0
M  V30 1168 C 113.564 1.12424 1.73691 0
M  V30 1169 C 113.979 -0.322304 1.86029 0
M  V30 1170 O 113.336 -1.22186 1.35561 0
M  V30 1171 C 113.387 1.76933 3.15241 0
M  V30 1172 O 113.108 3.15932 3.03511 0
M  V30 1173 C 114.609 1.6995 4.09429 0
M  V30 1174 H 111.829 0.3923 0.544373 0
M  V30 1175 H 114.373 1.6544 1.20207 0
M  V30 1176 H 112.528 1.27895 3.6568 0
M  V30 1177 H 112.942 3.47598 3.9278 0
M  V30 1178 H 114.416 2.19753 5.06372 0
M  V30 1179 H 114.893 0.662619 4.34173 0
M  V30 1180 H 115.499 2.18461 3.64904 0
M  V30 1181 N 113.814 -1.1601 1.06675 0
M  V30 1182 C 115.06 -1.86909 0.786945 0
M  V30 1183 C 115.393 -1.81717 -0.685018 0
M  V30 1184 O 114.668 -1.23551 -1.50218 0
M  V30 1185 C 114.951 -3.36313 1.28707 0
M  V30 1186 C 114.804 -3.50175 2.82308 0
M  V30 1187 C 116.123 -4.3084 0.898071 0
M  V30 1188 H 113.242 -0.678677 0.287343 0
M  V30 1189 H 115.884 -1.36336 1.32334 0
M  V30 1190 H 114.034 -3.79513 0.830768 0
M  V30 1191 H 115.706 -3.15886 3.36175 0
M  V30 1192 H 113.949 -2.91959 3.20847 0
M  V30 1193 H 114.62 -4.55116 3.12368 0
M  V30 1194 H 117.096 -3.95561 1.29114 0
M  V30 1195 H 115.972 -5.33876 1.27543 0
M  V30 1196 H 116.233 -4.41662 -0.196651 0
M  V30 1197 N 115.292 -0.849877 -1.32721 0
M  V30 1198 C 116.24 -0.279745 -2.30912 0
M  V30 1199 C 117.234 0.594278 -1.58634 0
M  V30 1200 O 118.44 0.482613 -1.73409 0
M  V30 1201 H 114.815 -0.0717521 -0.748569 0
M  V30 1202 H 116.786 -1.12222 -2.76494 0
M  V30 1203 C 115.535 0.521108 -3.43773 0
M  V30 1204 H 114.858 -0.142141 -3.99547 0
M  V30 1205 H 116.298 0.885693 -4.14646 0
M  V30 1206 C 114.757 1.70442 -2.90605 0
M  V30 1207 O 115.287 2.8034 -2.87702 0
M  V30 1208 N 113.493 1.52991 -2.47067 0
M  V30 1209 H 113.04 0.635914 -2.49628 0
M  V30 1210 H 112.998 2.32311 -2.11847 0
M  V30 1211 N 116.77 1.45427 -0.607355 0
M  V30 1212 C 118.181 1.85756 -0.187535 0
M  V30 1213 C 118.532 1.5077 1.25551 0
M  V30 1214 O 117.657 0.93427 1.95193 0
M  V30 1215 C 118.252 3.37154 -0.333572 0
M  V30 1216 C 116.811 3.76387 0.0315542 0
M  V30 1217 C 115.958 2.69377 -0.658117 0
M  V30 1218 H 118.909 1.36231 -0.81405 0
M  V30 1219 H 118.93 3.78014 0.43428 0
M  V30 1220 H 118.442 3.62586 -1.38393 0
M  V30 1221 H 116.543 3.56571 1.0811 0
M  V30 1222 H 116.656 4.77731 -0.361935 0
M  V30 1223 H 115.02 2.5452 -0.0957873 0
M  V30 1224 H 115.803 2.97646 -1.7106 0
M  V30 1225 N 118.248 0.346503 1.53744 0
M  V30 1226 C 119.195 -0.508914 2.25119 0
M  V30 1227 C 120.165 -1.09315 1.25058 0
M  V30 1228 O 121.35 -1.12921 1.53797 0
M  V30 1229 C 118.49 -1.65246 3.02965 0
M  V30 1230 C 117.603 -1.09525 4.17886 0
M  V30 1231 C 116.738 -2.20634 4.83212 0
M  V30 1232 C 115.777 -1.62279 5.90196 0
M  V30 1233 N 114.914 -2.67143 6.49291 0
M  V30 1234 H 119.754 0.106283 2.9781 0
M  V30 1235 H 117.291 0.0642227 1.4696 0
M  V30 1236 H 119.249 -2.32574 3.4636 0
M  V30 1237 H 117.879 -2.2386 2.32565 0
M  V30 1238 H 116.931 -0.312818 3.79112 0
M  V30 1239 H 118.243 -0.628444 4.94825 0
M  V30 1240 H 117.397 -2.95821 5.29693 0
M  V30 1241 H 116.136 -2.70659 4.05703 0
M  V30 1242 H 115.141 -0.855989 5.43096 0
M  V30 1243 H 116.366 -1.13102 6.69615 0
M  V30 1244 H 114.312 -3.16417 5.74645 0
M  V30 1245 H 114.229 -2.25093 7.21713 0
M  V30 1246 H 115.497 -3.4209 7.00425 0
M  V30 1247 N 119.726 -1.57421 0.075193 0
M  V30 1248 C 120.689 -2.11791 -0.876203 0
M  V30 1249 C 121.689 -1.04268 -1.22412 0
M  V30 1250 O 122.879 -1.30242 -1.15684 0
M  V30 1251 C 120.011 -2.62207 -2.17854 0
M  V30 1252 H 121.204 -2.9716 -0.40444 0
M  V30 1253 H 118.757 -1.55333 -0.173557 0
M  V30 1254 H 119.492 -1.803 -2.6956 0
M  V30 1255 H 119.277 -3.40802 -1.93897 0
M  V30 1256 H 120.767 -3.04335 -2.85955 0
M  V30 1257 N 121.204 0.198386 -1.56346 0
M  V30 1258 C 122.615 0.763358 -1.70381 0
M  V30 1259 C 122.966 1.83995 -0.681203 0
M  V30 1260 O 122.091 2.15785 0.16305 0
M  V30 1261 C 122.686 1.39143 -3.08909 0
M  V30 1262 C 121.245 1.90352 -3.2472 0
M  V30 1263 C 120.392 0.772233 -2.6633 0
M  V30 1264 H 123.343 -0.0266377 -1.58678 0
M  V30 1265 H 123.364 2.26076 -3.06055 0
M  V30 1266 H 122.876 0.607638 -3.83314 0
M  V30 1267 H 120.977 2.71461 -2.55225 0
M  V30 1268 H 121.09 2.06757 -4.3219 0
M  V30 1269 H 119.454 1.18566 -2.2542 0
M  V30 1270 H 120.237 0.00073556 -3.433 0
M  V30 1271 N 122.682 1.50554 0.465978 0
M  V30 1272 C 123.612 1.72722 1.57128 0
M  V30 1273 C 124.593 0.576294 1.6004 0
M  V30 1274 O 125.778 0.81598 1.76225 0
M  V30 1275 C 122.908 1.82605 2.95419 0
M  V30 1276 C 121.862 2.97835 3.07373 0
M  V30 1277 C 121.188 2.92867 4.47363 0
M  V30 1278 C 122.488 4.38265 2.84114 0
M  V30 1279 H 124.182 2.65267 1.38829 0
M  V30 1280 H 121.728 1.2765 0.666441 0
M  V30 1281 H 123.681 1.96698 3.72677 0
M  V30 1282 H 122.405 0.866858 3.14886 0
M  V30 1283 H 121.064 2.83401 2.3255 0
M  V30 1284 H 120.712 1.94783 4.63755 0
M  V30 1285 H 120.412 3.70227 4.56296 0
M  V30 1286 H 121.936 3.09015 5.26633 0
M  V30 1287 H 123.35 4.53198 3.51118 0
M  V30 1288 H 121.747 5.17115 3.04487 0
M  V30 1289 H 122.817 4.50281 1.7993 0
M  V30 1290 N 124.16 -0.719506 1.40217 0
M  V30 1291 C 125.092 -1.84428 1.36084 0
M  V30 1292 C 126.105 -1.60597 0.266913 0
M  V30 1293 O 127.294 -1.70544 0.526983 0
M  V30 1294 C 124.394 -3.20757 1.094 0
M  V30 1295 C 123.567 -3.71817 2.30372 0
M  V30 1296 C 122.626 -4.86748 1.99907 0
M  V30 1297 O 121.652 -4.99603 2.72737 0
M  V30 1298 N 122.854 -5.7226 0.974635 0
M  V30 1299 H 125.619 -1.88473 2.33019 0
M  V30 1300 H 123.18 -0.900885 1.3452 0
M  V30 1301 H 125.172 -3.95235 0.870116 0
M  V30 1302 H 123.742 -3.11884 0.211452 0
M  V30 1303 H 122.962 -2.88514 2.68614 0
M  V30 1304 H 124.25 -4.02666 3.11026 0
M  V30 1305 H 123.648 -5.6448 0.371368 0
M  V30 1306 H 122.205 -6.46739 0.810656 0
M  V30 1307 N 125.638 -1.25649 -0.95132 0
M  V30 1308 C 126.884 -1.10757 -1.69884 0
M  V30 1309 C 127.217 0.350061 -1.91019 0
M  V30 1310 O 126.492 1.25783 -1.48354 0
M  V30 1311 C 126.775 -1.86606 -3.07978 0
M  V30 1312 C 126.628 -3.40217 -2.94232 0
M  V30 1313 C 127.947 -1.65182 -4.07925 0
M  V30 1314 H 125.066 -0.40374 -0.616574 0
M  V30 1315 H 127.708 -1.54521 -1.10558 0
M  V30 1316 H 125.858 -1.49409 -3.58621 0
M  V30 1317 H 127.53 -3.87108 -2.50889 0
M  V30 1318 H 125.773 -3.67759 -2.30078 0
M  V30 1319 H 126.444 -3.88505 -3.92133 0
M  V30 1320 H 128.92 -1.9757 -3.66204 0
M  V30 1321 H 127.796 -2.20683 -5.02583 0
M  V30 1322 H 128.057 -0.593933 -4.38092 0
M  V30 1323 N 127.117 1.15442 -1.07289 0
M  V30 1324 C 128.345 1.90096 -0.81676 0
M  V30 1325 C 128.76 1.7798 0.629966 0
M  V30 1326 O 128.117 1.1313 1.43206 0
M  V30 1327 C 128.168 3.40466 -1.21512 0
M  V30 1328 O 127.889 3.52232 -2.60508 0
M  V30 1329 C 129.39 4.32145 -0.988198 0
M  V30 1330 H 126.61 0.602495 -0.295366 0
M  V30 1331 H 129.154 1.4627 -1.42918 0
M  V30 1332 H 127.309 3.81958 -0.647039 0
M  V30 1333 H 127.723 4.45549 -2.76742 0
M  V30 1334 H 129.197 5.36072 -1.31645 0
M  V30 1335 H 129.674 4.39135 0.0755063 0
M  V30 1336 H 130.28 3.96395 -1.54115 0
M  V30 1337 N 128.595 0.856903 1.32268 0
M  V30 1338 C 129.823 0.475439 2.01363 0
M  V30 1339 C 130.238 -0.928486 1.64392 0
M  V30 1340 O 129.595 -1.60624 0.866387 0
M  V30 1341 C 129.646 0.607545 3.56358 0
M  V30 1342 O 129.367 1.95617 3.92002 0
M  V30 1343 C 130.868 0.225382 4.42727 0
M  V30 1344 H 128.088 0.186636 0.644521 0
M  V30 1345 H 130.632 1.15446 1.68797 0
M  V30 1346 H 128.787 -0.0237719 3.87393 0
M  V30 1347 H 129.201 1.95455 4.86721 0
M  V30 1348 H 130.675 0.368813 5.50767 0
M  V30 1349 H 131.152 -0.834369 4.31202 0
M  V30 1350 H 131.758 0.831864 4.17085 0
M  V30 1351 N 130.073 -1.45103 0.615059 0
M  V30 1352 C 131.35 -1.95549 0.0448276 0
M  V30 1353 C 131.73 -1.55737 -1.4251 0
M  V30 1354 O 131.078 -0.823556 -2.13143 0
M  V30 1355 C 131.288 -3.48098 0.250785 0
M  V30 1356 C 132.636 -4.24384 0.135509 0
M  V30 1357 O 133.66 -3.55738 0.181299 0
M  V30 1358 O 132.519 -5.46493 0.0268878 0
M  V30 1359 H 129.613 -0.8264 -0.0314845 0
M  V30 1360 H 132.159 -1.55232 0.685642 0
M  V30 1361 H 130.931 -3.7007 1.27139 0
M  V30 1362 H 130.554 -3.95323 -0.424937 0
M  V30 1363 N 131.551 -0.354651 -1.53558 0
M  V30 1364 C 132.498 0.496968 -2.25386 0
M  V30 1365 C 133.468 1.0865 -1.25636 0
M  V30 1366 O 134.653 1.12104 -1.54394 0
M  V30 1367 C 131.793 1.63637 -3.03837 0
M  V30 1368 C 130.906 1.07307 -4.18461 0
M  V30 1369 C 130.041 2.18068 -4.84376 0
M  V30 1370 C 129.08 1.59147 -5.91049 0
M  V30 1371 N 128.217 2.63695 -6.50699 0
M  V30 1372 H 133.057 -0.122075 -2.9775 0
M  V30 1373 H 130.594 -0.0720154 -1.46924 0
M  V30 1374 H 132.552 2.30734 -3.47589 0
M  V30 1375 H 131.182 2.22623 -2.33749 0
M  V30 1376 H 130.234 0.292708 -3.79272 0
M  V30 1377 H 131.546 0.602193 -4.95152 0
M  V30 1378 H 130.7 2.93007 -5.31255 0
M  V30 1379 H 129.439 2.68504 -4.07133 0
M  V30 1380 H 128.444 0.827175 -5.43542 0
M  V30 1381 H 129.669 1.09549 -6.70206 0
M  V30 1382 H 127.615 3.13365 -5.76315 0
M  V30 1383 H 127.532 2.21263 -7.22896 0
M  V30 1384 H 128.8 3.3837 -7.02229 0
M  V30 1385 N 133.029 1.57378 -0.0835403 0
M  V30 1386 C 133.976 2.13384 0.879539 0
M  V30 1387 C 134.946 1.04936 1.28754 0
M  V30 1388 O 136.131 1.32662 1.37133 0
M  V30 1389 C 133.271 2.70932 2.13752 0
M  V30 1390 C 132.384 3.93575 1.7811 0
M  V30 1391 C 131.519 4.39326 2.98607 0
M  V30 1392 C 130.558 5.54587 2.59037 0
M  V30 1393 N 129.695 5.95243 3.72331 0
M  V30 1394 H 134.535 2.9537 0.395076 0
M  V30 1395 H 132.072 1.45953 0.183349 0
M  V30 1396 H 134.03 3.02411 2.87408 0
M  V30 1397 H 132.66 1.91693 2.59718 0
M  V30 1398 H 131.712 3.68483 0.94469 0
M  V30 1399 H 133.024 4.77258 1.45005 0
M  V30 1400 H 132.178 4.72528 3.80529 0
M  V30 1401 H 130.917 3.5452 3.34913 0
M  V30 1402 H 129.922 5.21024 1.75539 0
M  V30 1403 H 131.147 6.41133 2.23887 0
M  V30 1404 H 129.093 5.13385 4.08378 0
M  V30 1405 H 129.01 6.73694 3.43034 0
M  V30 1406 H 130.278 6.33072 4.54797 0
M  V30 1407 N 134.507 -0.190092 1.56449 0
M  V30 1408 C 135.437 -1.23816 1.97969 0
M  V30 1409 C 136.418 -1.47201 0.852395 0
M  V30 1410 O 137.603 -1.58854 1.1171 0
M  V30 1411 C 134.733 -2.5813 2.3235 0
M  V30 1412 C 133.687 -2.49348 3.47864 0
M  V30 1413 C 133.013 -3.8798 3.67934 0
M  V30 1414 C 134.313 -2.01424 4.81898 0
M  V30 1415 H 136.007 -0.89311 2.85769 0
M  V30 1416 H 133.553 -0.428177 1.37487 0
M  V30 1417 H 135.506 -3.31637 2.59991 0
M  V30 1418 H 134.23 -2.94386 1.41438 0
M  V30 1419 H 132.889 -1.78297 3.20321 0
M  V30 1420 H 132.537 -4.21597 2.74344 0
M  V30 1421 H 132.237 -3.82978 4.45648 0
M  V30 1422 H 133.761 -4.63101 3.97957 0
M  V30 1423 H 135.175 -2.64693 5.08538 0
M  V30 1424 H 133.572 -2.07413 5.63116 0
M  V30 1425 H 134.642 -0.967677 4.75146 0
M  V30 1426 N 135.985 -1.50799 -0.457987 0
M  V30 1427 C 136.895 -1.73426 -1.57989 0
M  V30 1428 C 137.911 -0.617745 -1.62665 0
M  V30 1429 O 139.087 -0.897614 -1.80291 0
M  V30 1430 C 136.152 -1.83557 -2.94122 0
M  V30 1431 C 135.213 -3.07345 -2.99729 0
M  V30 1432 C 134.446 -3.16983 -4.29368 0
M  V30 1433 O 134.669 -2.33077 -5.20607 0
M  V30 1434 O 133.603 -4.09812 -4.40837 0
M  V30 1435 H 137.429 -2.68555 -1.41817 0
M  V30 1436 H 135.014 -1.35052 -0.638859 0
M  V30 1437 H 136.896 -1.92326 -3.74952 0
M  V30 1438 H 135.571 -0.916137 -3.10465 0
M  V30 1439 H 134.478 -3.04068 -2.1793 0
M  V30 1440 H 135.811 -3.9891 -2.88326 0
M  V30 1441 N 137.463 0.71206 -1.40597 0
M  V30 1442 C 138.393 1.83889 -1.43899 0
M  V30 1443 C 139.374 1.67442 -0.299504 0
M  V30 1444 O 140.559 1.87421 -0.508624 0
M  V30 1445 C 137.689 3.21877 -1.30431 0
M  V30 1446 C 136.643 3.53002 -2.42019 0
M  V30 1447 C 135.969 4.90172 -2.13626 0
M  V30 1448 C 137.269 3.53643 -3.84362 0
M  V30 1449 H 138.963 1.81383 -2.38203 0
M  V30 1450 H 136.509 0.871237 -1.14654 0
M  V30 1451 H 138.462 4.00404 -1.31357 0
M  V30 1452 H 137.186 3.24968 -0.326049 0
M  V30 1453 H 135.845 2.76818 -2.40349 0
M  V30 1454 H 135.493 4.89869 -1.14182 0
M  V30 1455 H 135.193 5.11962 -2.88389 0
M  V30 1456 H 136.717 5.71028 -2.1624 0
M  V30 1457 H 138.131 4.22203 -3.87837 0
M  V30 1458 H 136.528 3.86961 -4.58673 0
M  V30 1459 H 137.598 2.52954 -4.13693 0
M  V30 1460 N 138.941 1.26152 0.944643 0
M  V30 1461 C 139.904 1.07474 2.0244 0
M  V30 1462 C 140.904 0.0242064 1.60782 0
M  V30 1463 O 142.094 0.267302 1.72137 0
M  V30 1464 C 139.226 0.633956 3.34953 0
M  V30 1465 H 140.419 2.03336 2.20442 0
M  V30 1466 H 137.972 1.087 1.12312 0
M  V30 1467 H 138.707 -0.326811 3.22649 0
M  V30 1468 H 138.492 1.39247 3.66542 0
M  V30 1469 H 139.982 0.52501 4.14287 0
M  V30 1470 N 140.419 -1.14872 1.07899 0
M  V30 1471 C 141.649 -1.89386 0.825631 0
M  V30 1472 C 142.057 -1.78565 -0.625406 0
M  V30 1473 O 141.4 -1.13918 -1.44113 0
M  V30 1474 C 141.462 -3.40206 1.16191 0
M  V30 1475 C 141.126 -3.74812 2.61467 0
M  V30 1476 C 142.123 -3.75367 3.59716 0
M  V30 1477 C 139.808 -4.0495 2.97189 0
M  V30 1478 C 141.802 -4.05574 4.9172 0
M  V30 1479 C 139.489 -4.34821 4.29388 0
M  V30 1480 C 140.487 -4.35116 5.26463 0
M  V30 1481 O 140.175 -4.64267 6.56286 0
M  V30 1482 H 139.907 -0.606894 0.297751 0
M  V30 1483 H 142.461 -1.46438 1.44031 0
M  V30 1484 H 140.691 -3.8358 0.490214 0
M  V30 1485 H 142.38 -3.96018 0.890193 0
M  V30 1486 H 143.146 -3.52176 3.33462 0
M  V30 1487 H 139.025 -4.03876 2.22273 0
M  V30 1488 H 142.569 -4.05719 5.67484 0
M  V30 1489 H 138.466 -4.5748 4.55392 0
M  V30 1490 H 139.234 -4.82007 6.61522 0
M  V30 1491 N 141.898 -0.863906 -1.31812 0
M  V30 1492 C 143.175 -0.39275 -1.91616 0
M  V30 1493 C 143.555 1.12461 -1.7865 0
M  V30 1494 O 142.903 1.95045 -1.19037 0
M  V30 1495 C 143.113 -0.867385 -3.38049 0
M  V30 1496 C 144.461 -0.889966 -4.15168 0
M  V30 1497 O 145.485 -0.812635 -3.46806 0
M  V30 1498 O 144.344 -1.00079 -5.37258 0
M  V30 1499 H 141.438 -0.116358 -0.818773 0
M  V30 1500 H 143.984 -0.951418 -1.40521 0
M  V30 1501 H 142.756 -1.91081 -3.41473 0
M  V30 1502 H 142.379 -0.286687 -3.96565 0
M  V30 1503 N 143.376 1.44774 -0.622745 0
M  V30 1504 C 144.324 2.32387 0.0994683 0
M  V30 1505 C 145.318 1.46859 0.844326 0
M  V30 1506 O 146.524 1.63254 0.758174 0
M  V30 1507 H 142.899 0.750273 0.0509291 0
M  V30 1508 H 144.87 2.91062 -0.65767 0
M  V30 1509 C 143.619 3.30723 1.07319 0
M  V30 1510 H 142.942 3.96541 0.509462 0
M  V30 1511 H 144.382 3.94725 1.54817 0
M  V30 1512 C 142.841 2.59021 2.15429 0
M  V30 1513 O 143.371 2.38286 3.23393 0
M  V30 1514 N 141.577 2.189 1.91131 0
M  V30 1515 H 141.124 2.35964 1.03337 0
M  V30 1516 H 141.082 1.71251 2.63668 0
M  V30 1517 N 144.854 0.36279 1.53368 0
M  V30 1518 C 146.265 -0.117022 1.86333 0
M  V30 1519 C 146.616 -1.48397 1.28347 0
M  V30 1520 O 145.741 -2.07787 0.604428 0
M  V30 1521 C 146.336 -0.21912 3.38091 0
M  V30 1522 C 144.895 -0.643184 3.70864 0
M  V30 1523 C 144.042 0.211318 2.76494 0
M  V30 1524 H 146.993 0.581687 1.47655 0
M  V30 1525 H 147.014 -1.04319 3.6592 0
M  V30 1526 H 146.526 0.775902 3.80265 0
M  V30 1527 H 144.627 -1.64654 3.34245 0
M  V30 1528 H 144.74 -0.41973 4.77258 0
M  V30 1529 H 143.104 -0.319367 2.5269 0
M  V30 1530 H 143.887 1.20383 3.21501 0
M  V30 1531 N 146.332 -1.57332 0.0918853 0
M  V30 1532 C 147.579 -1.94236 -0.572577 0
M  V30 1533 C 147.907 -0.973398 -1.6839 0
M  V30 1534 O 147.162 0.00756912 -1.95699 0
M  V30 1535 C 147.461 -3.37689 -1.17051 0
M  V30 1536 C 147.127 -4.50527 -0.183304 0
M  V30 1537 C 145.789 -4.81119 0.0882276 0
M  V30 1538 C 148.141 -5.18883 0.49095 0
M  V30 1539 C 145.469 -5.77395 1.04076 0
M  V30 1540 C 147.821 -6.1618 1.43193 0
M  V30 1541 C 146.485 -6.45179 1.71173 0
M  V30 1542 H 145.755 -0.710762 -0.209521 0
M  V30 1543 H 148.402 -1.9077 0.167036 0
M  V30 1544 H 146.707 -3.37718 -1.9863 0
M  V30 1545 H 148.404 -3.63543 -1.69227 0
M  V30 1546 H 144.994 -4.26681 -0.405124 0
M  V30 1547 H 149.178 -4.95427 0.294312 0
M  V30 1548 H 144.434 -5.98179 1.26457 0
M  V30 1549 H 148.608 -6.68243 1.96023 0
M  V30 1550 H 146.235 -7.1959 2.4514 0
M  V30 1551 N 147.81 0.181792 -1.56548 0
M  V30 1552 C 148.72 1.24538 -1.98815 0
M  V30 1553 C 149.736 1.49045 -0.897861 0
M  V30 1554 O 150.912 1.61399 -1.20467 0
M  V30 1555 C 147.977 2.56683 -2.33055 0
M  V30 1556 C 147.038 2.40131 -3.55859 0
M  V30 1557 C 146.271 3.65975 -3.88456 0
M  V30 1558 O 146.494 4.70711 -3.22161 0
M  V30 1559 O 145.428 3.6071 -4.81842 0
M  V30 1560 H 149.254 0.916647 -2.89536 0
M  V30 1561 H 146.839 0.387842 -1.44278 0
M  V30 1562 H 148.721 3.34655 -2.56094 0
M  V30 1563 H 147.396 2.89157 -1.45498 0
M  V30 1564 H 146.303 1.60226 -3.38051 0
M  V30 1565 H 147.636 2.12585 -4.43924 0
M  V30 1566 N 149.288 1.51039 0.449983 0
M  V30 1567 C 150.528 1.64732 1.21007 0
M  V30 1568 C 150.892 0.349865 1.88785 0
M  V30 1569 O 152.093 0.362431 2.66345 0
M  V30 1570 C 150.364 2.80902 2.20973 0
M  V30 1571 S 151.923 3.14851 3.05638 0
M  V30 1572 H 148.741 0.5805 0.410538 0
M  V30 1573 H 151.343 1.88901 0.503634 0
M  V30 1574 H 150.047 3.73627 1.69796 0
M  V30 1575 H 149.578 2.58882 2.96215 0
M  V30 1576 H 151.593 2.60306 4.22439 0
M  V30 1577 N 150.766 -0.704594 1.40972 0
M  V30 1578 C 151.991 -1.49858 1.43378 0
M  V30 1579 C 152.416 -1.88061 0.038184 0
M  V30 1580 O 151.774 -1.5402 -0.956425 0
M  V30 1581 C 151.822 -2.74333 2.34038 0
M  V30 1582 O 150.926 -3.7147 1.7912 0
M  V30 1583 H 150.267 -0.45139 0.486974 0
M  V30 1584 H 152.797 -0.866832 1.8533 0
M  V30 1585 H 152.807 -3.22741 2.49604 0
M  V30 1586 H 151.482 -2.45863 3.35446 0
M  V30 1587 H 150.059 -3.30363 1.72958 0
M  V30 1588 N 152.244 -1.26651 -0.937939 0
M  V30 1589 C 153.207 -1.08546 -2.01867 0
M  V30 1590 C 154.207 -0.0327327 -1.60767 0
M  V30 1591 O 155.397 -0.276427 -1.71993 0
M  V30 1592 C 152.529 -0.651711 -3.34613 0
M  V30 1593 H 153.722 -2.04502 -2.1936 0
M  V30 1594 H 151.275 -1.09294 -1.11734 0
M  V30 1595 H 152.01 0.309696 -3.22818 0
M  V30 1596 H 151.795 -1.41189 -3.65798 0
M  V30 1597 H 153.285 -0.546973 -4.14002 0
M  V30 1598 N 153.722 1.14298 -1.08507 0
M  V30 1599 C 154.67 2.21483 -0.710483 0
M  V30 1600 C 155.664 1.66998 0.284234 0
M  V30 1601 O 156.87 1.79401 0.146692 0
M  V30 1602 H 153.245 0.721578 -0.211729 0
M  V30 1603 H 155.216 2.50348 -1.62384 0
M  V30 1604 C 153.965 3.4743 -0.137007 0
M  V30 1605 H 153.288 3.89686 -0.893592 0
M  V30 1606 H 154.728 4.2391 0.0872789 0
M  V30 1607 C 153.187 3.17548 1.12538 0
M  V30 1608 O 153.717 3.35437 2.21009 0
M  V30 1609 N 151.923 2.71499 1.03617 0
M  V30 1610 H 151.47 2.57143 0.153403 0
M  V30 1611 H 151.428 2.51881 1.88158 0
M  V30 1612 N 155.201 0.870884 1.31352 0
M  V30 1613 C 156.148 0.325425 2.28494 0
M  V30 1614 C 157.118 -0.576615 1.5577 0
M  V30 1615 O 158.303 -0.508059 1.83911 0
M  V30 1616 C 155.443 -0.466283 3.41935 0
M  V30 1617 C 154.556 0.463378 4.29508 0
M  V30 1618 C 153.691 -0.342544 5.30094 0
M  V30 1619 C 152.73 0.583486 6.09313 0
M  V30 1620 N 151.867 -0.186244 7.01853 0
M  V30 1621 H 156.707 1.15901 2.74538 0
M  V30 1622 H 154.244 0.58294 1.35056 0
M  V30 1623 H 156.202 -0.941085 4.06447 0
M  V30 1624 H 154.832 -1.26456 2.97 0
M  V30 1625 H 153.884 1.05663 3.65431 0
M  V30 1626 H 155.196 1.1734 4.84802 0
M  V30 1627 H 154.35 -0.879816 6.00287 0
M  V30 1628 H 153.089 -1.08585 4.75458 0
M  V30 1629 H 152.094 1.13251 5.3801 0
M  V30 1630 H 153.319 1.32566 6.66035 0
M  V30 1631 H 151.265 -0.912348 6.49625 0
M  V30 1632 H 151.182 0.464422 7.54572 0
M  V30 1633 H 152.45 -0.704716 7.76308 0
M  V30 1634 N 156.679 -1.44442 0.630414 0
M  V30 1635 C 157.926 -2.02052 0.134617 0
M  V30 1636 C 158.254 -1.49576 -1.24327 0
M  V30 1637 O 157.509 -0.669806 -1.83881 0
M  V30 1638 C 157.808 -3.57332 0.0697835 0
M  V30 1639 C 157.474 -4.29058 1.38635 0
M  V30 1640 C 156.136 -4.4837 1.74694 0
M  V30 1641 C 158.488 -4.69872 2.25543 0
M  V30 1642 C 155.816 -5.05756 2.97369 0
M  V30 1643 C 158.168 -5.28616 3.47487 0
M  V30 1644 C 156.832 -5.46147 3.8377 0
M  V30 1645 H 156.102 -0.739361 0.0492598 0
M  V30 1646 H 158.749 -1.73217 0.816586 0
M  V30 1647 H 157.054 -3.85577 -0.695553 0
M  V30 1648 H 158.751 -3.99637 -0.330344 0
M  V30 1649 H 155.341 -4.14357 1.09574 0
M  V30 1650 H 159.525 -4.54666 1.98979 0
M  V30 1651 H 154.781 -5.17515 3.25558 0
M  V30 1652 H 158.955 -5.59192 4.15063 0
M  V30 1653 H 156.582 -5.9038 4.7891 0
M  V30 1654 N 158.157 -0.370918 -1.53173 0
M  V30 1655 C 159.382 0.220293 -2.06227 0
M  V30 1656 C 159.807 1.41243 -1.24225 0
M  V30 1657 O 159.165 1.79387 -0.262645 0
M  V30 1658 C 159.213 0.586663 -3.55796 0
M  V30 1659 O 158.317 1.68317 -3.76488 0
M  V30 1660 H 157.658 0.0308099 -0.663285 0
M  V30 1661 H 160.188 -0.533068 -1.97534 0
M  V30 1662 H 160.198 0.85617 -3.98916 0
M  V30 1663 H 158.873 -0.285013 -4.14922 0
M  V30 1664 H 157.45 1.40881 -3.45264 0
M  V30 1665 N 159.635 1.57281 -0.100228 0
M  V30 1666 C 160.565 2.17328 0.853857 0
M  V30 1667 C 161.546 1.10804 1.2906 0
M  V30 1668 O 162.731 1.38963 1.35657 0
M  V30 1669 C 159.861 2.75772 2.11109 0
M  V30 1670 C 158.815 3.87713 1.81279 0
M  V30 1671 C 158.141 4.32882 3.13874 0
M  V30 1672 C 159.441 5.10677 1.09574 0
M  V30 1673 H 161.135 2.97305 0.353545 0
M  V30 1674 H 158.681 1.43009 0.168612 0
M  V30 1675 H 160.634 3.16433 2.78296 0
M  V30 1676 H 159.358 1.93057 2.63432 0
M  V30 1677 H 158.017 3.476 1.16489 0
M  V30 1678 H 157.665 3.47051 3.64095 0
M  V30 1679 H 157.365 5.08358 2.94696 0
M  V30 1680 H 158.889 4.7618 3.82211 0
M  V30 1681 H 160.303 5.48474 1.66879 0
M  V30 1682 H 158.7 5.91615 1.00557 0
M  V30 1683 H 159.77 4.84835 0.0793299 0
M  V30 1684 N 161.113 -0.173488 1.56642 0
M  V30 1685 C 162.06 -1.21482 1.96242 0
M  V30 1686 C 163.03 -1.44104 0.826027 0
M  V30 1687 O 164.215 -1.5688 1.08597 0
M  V30 1688 C 161.355 -2.54964 2.32567 0
M  V30 1689 C 160.468 -2.39739 3.59373 0
M  V30 1690 C 159.603 -3.66072 3.84921 0
M  V30 1691 C 158.642 -3.45771 5.05083 0
M  V30 1692 N 157.779 -4.64169 5.26775 0
M  V30 1693 H 162.619 -0.870123 2.85014 0
M  V30 1694 H 160.156 -0.418245 1.41029 0
M  V30 1695 H 162.114 -3.32758 2.5165 0
M  V30 1696 H 160.744 -2.87433 1.46908 0
M  V30 1697 H 159.796 -1.53131 3.48217 0
M  V30 1698 H 161.108 -2.20683 4.47326 0
M  V30 1699 H 160.262 -4.52303 4.0436 0
M  V30 1700 H 159.001 -3.88105 2.9534 0
M  V30 1701 H 158.006 -2.57927 4.85545 0
M  V30 1702 H 159.231 -3.25163 5.96193 0
M  V30 1703 H 157.177 -4.86425 4.40144 0
M  V30 1704 H 157.094 -4.48019 6.08946 0
M  V30 1705 H 158.362 -5.51689 5.5069 0
M  V30 1706 N 162.591 -1.51276 -0.441967 0
M  V30 1707 C 163.837 -1.63958 -1.19355 0
M  V30 1708 C 164.17 -0.352543 -1.90973 0
M  V30 1709 O 163.445 0.647627 -1.83401 0
M  V30 1710 C 163.728 -2.83979 -2.21422 0
M  V30 1711 C 163.581 -4.22646 -1.53918 0
M  V30 1712 C 164.9 -2.99521 -3.22451 0
M  V30 1713 H 162.019 -0.596709 -0.432559 0
M  V30 1714 H 164.661 -1.83748 -0.483398 0
M  V30 1715 H 162.811 -2.67237 -2.81987 0
M  V30 1716 H 164.483 -4.51045 -0.967256 0
M  V30 1717 H 162.726 -4.25558 -0.841615 0
M  V30 1718 H 163.397 -5.02609 -2.28229 0
M  V30 1719 H 165.873 -3.14944 -2.71937 0
M  V30 1720 H 164.749 -3.85072 -3.91166 0
M  V30 1721 H 165.01 -2.11391 -3.88287 0
M  V30 1722 N 164.069 0.697108 -1.41344 0
M  V30 1723 C 165.317 1.45426 -1.40341 0
M  V30 1724 C 165.638 1.94996 -0.0128787 0
M  V30 1725 O 164.908 1.71599 0.945027 0
M  V30 1726 H 163.488 0.539594 -0.516573 0
M  V30 1727 H 166.15 0.825201 -1.76569 0
M  V30 1728 H 165.246 2.31817 -2.08967 0
M  V30 1729 N 165.547 1.27147 0.931209 0
M  V30 1730 C 166.497 1.06227 2.01742 0
M  V30 1731 C 167.481 -0.00859065 1.60898 0
M  V30 1732 O 168.673 0.209537 1.75755 0
M  V30 1733 C 165.802 0.707787 3.35924 0
M  V30 1734 C 164.888 1.81661 3.83223 0
M  V30 1735 N 165.279 3.05564 4.03069 0
M  V30 1736 C 163.577 1.70249 4.12227 0
M  V30 1737 C 164.278 3.77697 4.42403 0
M  V30 1738 N 163.254 3.0544 4.49675 0
M  V30 1739 H 167.056 2.00261 2.15111 0
M  V30 1740 H 164.57 1.1781 1.11779 0
M  V30 1741 H 166.567 0.539043 4.134 0
M  V30 1742 H 165.227 -0.224964 3.2392 0
M  V30 1743 H 166.238 3.41363 3.89476 0
M  V30 1744 H 162.915 0.840329 4.08956 0
M  V30 1745 H 164.305 4.84168 4.65866 0
M  V30 1746 N 167.025 -1.13721 1.09112 0
M  V30 1747 C 168.273 -1.84559 0.823562 0
M  V30 1748 C 168.594 -1.83754 -0.652658 0
M  V30 1749 O 167.864 -1.29102 -1.47342 0
M  V30 1750 H 166.444 -0.683376 0.301673 0
M  V30 1751 H 169.106 -1.37771 1.37859 0
M  V30 1752 H 168.202 -2.8917 1.17419 0
M  V30 1753 N 168.503 -0.877838 -1.30888 0
M  V30 1754 C 169.433 -0.35534 -2.3078 0
M  V30 1755 C 170.414 0.557994 -1.60687 0
M  V30 1756 O 171.599 0.473355 -1.88343 0
M  V30 1757 C 168.729 0.437221 -3.44537 0
M  V30 1758 C 167.683 -0.383715 -4.26276 0
M  V30 1759 C 167.009 0.535014 -5.32017 0
M  V30 1760 C 168.309 -1.62201 -4.96476 0
M  V30 1761 H 170.003 -1.19007 -2.74732 0
M  V30 1762 H 167.549 -0.573698 -1.32078 0
M  V30 1763 H 169.502 0.813334 -4.13477 0
M  V30 1764 H 168.226 1.30553 -2.99372 0
M  V30 1765 H 166.885 -0.741874 -3.59015 0
M  V30 1766 H 166.533 1.40083 -4.831 0
M  V30 1767 H 166.233 -0.0104211 -5.87599 0
M  V30 1768 H 167.757 0.907799 -6.03814 0
M  V30 1769 H 169.171 -1.31689 -5.5797 0
M  V30 1770 H 167.568 -2.10711 -5.61891 0
M  V30 1771 H 168.638 -2.37044 -4.23011 0
M  V30 1772 N 169.982 1.44106 -0.638065 0
M  V30 1773 C 170.929 2.30715 0.062701 0
M  V30 1774 C 171.899 1.43882 0.829883 0
M  V30 1775 O 173.084 1.72775 0.809532 0
M  V30 1776 C 170.224 3.29258 1.03358 0
M  V30 1777 C 169.337 4.31192 0.26409 0
M  V30 1778 C 168.472 5.16825 1.22741 0
M  V30 1779 C 167.511 6.10462 0.447475 0
M  V30 1780 N 166.648 6.8877 1.36161 0
M  V30 1781 H 171.488 2.90096 -0.681781 0
M  V30 1782 H 169.025 1.42925 -0.347988 0
M  V30 1783 H 170.983 3.84886 1.60992 0
M  V30 1784 H 169.613 2.71562 1.74511 0
M  V30 1785 H 168.665 3.77981 -0.428295 0
M  V30 1786 H 169.977 4.97619 -0.343052 0
M  V30 1787 H 169.131 5.77004 1.87487 0
M  V30 1788 H 167.87 4.50488 1.86847 0
M  V30 1789 H 166.875 5.49386 -0.213433 0
M  V30 1790 H 168.1 6.78837 -0.188968 0
M  V30 1791 H 166.046 6.25096 1.98975 0
M  V30 1792 H 165.963 7.51663 0.808656 0
M  V30 1793 H 167.231 7.53467 1.99769 0
M  V30 1794 N 171.46 0.379036 1.52974 0
M  V30 1795 C 172.706 -0.206727 2.01744 0
M  V30 1796 C 173.039 -1.47314 1.26539 0
M  V30 1797 O 172.314 -1.91084 0.362903 0
M  V30 1798 C 172.597 -0.485066 3.56818 0
M  V30 1799 C 172.45 0.795919 4.42702 0
M  V30 1800 C 173.769 -1.28003 4.21074 0
M  V30 1801 H 170.888 -0.0736607 0.73331 0
M  V30 1802 H 173.53 0.506581 1.83122 0
M  V30 1803 H 171.68 -1.09272 3.72816 0
M  V30 1804 H 173.352 1.43307 4.38476 0
M  V30 1805 H 171.595 1.41344 4.10127 0
M  V30 1806 H 172.266 0.555947 5.49193 0
M  V30 1807 H 174.742 -0.765867 4.08991 0
M  V30 1808 H 173.618 -1.44352 5.29579 0
M  V30 1809 H 173.879 -2.29236 3.78026 0
M  V30 1810 N 172.938 -1.57226 0.108567 0
M  V30 1811 C 173.868 -2.17778 -0.84232 0
M  V30 1812 C 174.849 -1.11487 -1.2847 0
M  V30 1813 O 176.034 -1.39681 -1.34918 0
M  V30 1814 C 173.164 -2.76888 -2.09644 0
M  V30 1815 C 172.118 -3.88669 -1.79221 0
M  V30 1816 C 171.444 -4.34541 -3.11574 0
M  V30 1817 C 172.744 -5.11251 -1.06864 0
M  V30 1818 H 174.438 -2.97489 -0.337774 0
M  V30 1819 H 171.984 -1.43097 -0.161025 0
M  V30 1820 H 173.937 -3.17904 -2.76614 0
M  V30 1821 H 172.661 -1.94451 -2.62405 0
M  V30 1822 H 171.32 -3.48213 -1.14644 0
M  V30 1823 H 170.968 -3.48977 -3.62249 0
M  V30 1824 H 170.668 -5.09914 -2.91996 0
M  V30 1825 H 172.192 -4.782 -3.7968 0
M  V30 1826 H 173.606 -5.49352 -1.63968 0
M  V30 1827 H 172.003 -5.9214 -0.974178 0
M  V30 1828 H 173.073 -4.8487 -0.0536168 0
M  V30 1829 N 174.416 0.165178 -1.56732 0
M  V30 1830 C 175.693 0.908443 -1.73224 0
M  V30 1831 C 176.073 2.0013 -0.67165 0
M  V30 1832 O 175.421 2.26353 0.31253 0
M  V30 1833 C 175.631 1.46756 -3.16644 0
M  V30 1834 C 176.979 1.93809 -3.77787 0
M  V30 1835 O 178.003 1.56537 -3.1996 0
M  V30 1836 O 176.862 2.62486 -4.79336 0
M  V30 1837 H 173.956 0.428025 -0.707618 0
M  V30 1838 H 176.502 0.152526 -1.69013 0
M  V30 1839 H 175.274 0.68129 -3.85323 0
M  V30 1840 H 174.897 2.28749 -3.25207 0
M  V30 1841 N 175.894 1.51508 0.433938 0
M  V30 1842 C 176.804 1.75917 1.5521 0
M  V30 1843 C 177.82 0.643545 1.61662 0
M  V30 1844 O 178.996 0.926183 1.7884 0
M  V30 1845 C 176.061 1.88213 2.91164 0
M  V30 1846 C 175.122 3.12074 2.94802 0
M  V30 1847 C 174.355 3.23774 4.24271 0
M  V30 1848 O 174.578 2.4133 5.16833 0
M  V30 1849 O 173.512 4.16774 4.34262 0
M  V30 1850 H 177.338 2.70777 1.37527 0
M  V30 1851 H 174.923 1.36051 0.617293 0
M  V30 1852 H 176.805 1.98267 3.71845 0
M  V30 1853 H 175.48 0.965413 3.08968 0
M  V30 1854 H 174.387 3.07497 2.13065 0
M  V30 1855 H 175.72 4.03446 2.81943 0
M  V30 1856 N 177.372 -0.689602 1.41712 0
M  V30 1857 C 178.319 -1.80345 1.44029 0
M  V30 1858 C 179.289 -1.63478 0.293948 0
M  V30 1859 O 180.474 -1.84244 0.495869 0
M  V30 1860 C 177.614 -3.18272 1.33405 0
M  V30 1861 C 176.727 -3.46529 2.57956 0
M  V30 1862 C 175.862 -4.74103 2.39582 0
M  V30 1863 C 174.901 -4.95347 3.5958 0
M  V30 1864 N 174.038 -6.14151 3.40239 0
M  V30 1865 H 178.878 -1.77698 2.39222 0
M  V30 1866 H 176.415 -0.867688 1.18784 0
M  V30 1867 H 178.373 -3.97956 1.25246 0
M  V30 1868 H 177.003 -3.2008 0.418164 0
M  V30 1869 H 176.055 -2.61207 2.76542 0
M  V30 1870 H 177.367 -3.58126 3.47199 0
M  V30 1871 H 176.521 -5.61853 2.28924 0
M  V30 1872 H 175.26 -4.64763 1.47805 0
M  V30 1873 H 174.265 -4.06044 3.70686 0
M  V30 1874 H 175.49 -5.06542 4.52318 0
M  V30 1875 H 173.436 -6.06013 2.51167 0
M  V30 1876 H 173.353 -6.26543 4.23061 0
M  V30 1877 H 174.621 -7.04619 3.33365 0
M  V30 1878 N 178.85 -1.27639 -0.924453 0
M  V30 1879 C 180.075 -1.17101 -1.71179 0
M  V30 1880 C 180.5 0.268134 -1.86179 0
M  V30 1881 O 179.858 1.19415 -1.36418 0
M  V30 1882 C 179.906 -1.86313 -3.08739 0
M  V30 1883 O 179.01 -1.16331 -3.95652 0
M  V30 1884 H 178.351 -0.407091 -0.524569 0
M  V30 1885 H 180.881 -1.68767 -1.15666 0
M  V30 1886 H 180.891 -1.938 -3.59034 0
M  V30 1887 H 179.566 -2.91001 -2.97138 0
M  V30 1888 H 178.143 -1.16935 -3.54091 0
M  V30 1889 N 180.328 1.1314 -1.09713 0
M  V30 1890 C 181.291 2.16831 -0.742751 0
M  V30 1891 C 182.291 1.59159 0.229129 0
M  V30 1892 O 183.481 1.74199 0.00693237 0
M  V30 1893 C 180.613 3.40756 -0.0989168 0
M  V30 1894 H 181.806 2.49695 -1.66109 0
M  V30 1895 H 179.359 1.2802 -0.896699 0
M  V30 1896 H 180.094 3.13485 0.830514 0
M  V30 1897 H 179.879 3.83888 -0.798265 0
M  V30 1898 H 181.369 4.17386 0.133524 0
M  V30 1899 N 181.806 0.884767 1.30421 0
M  V30 1900 C 182.769 0.356277 2.26414 0
M  V30 1901 C 183.769 -0.501124 1.52792 0
M  V30 1902 O 184.959 -0.30831 1.7145 0
M  V30 1903 C 182.091 -0.492316 3.37326 0
M  V30 1904 H 183.284 1.20389 2.74675 0
M  V30 1905 H 180.837 0.661607 1.41607 0
M  V30 1906 H 181.572 -1.36052 2.94381 0
M  V30 1907 H 181.357 0.121832 3.91911 0
M  V30 1908 H 182.847 -0.853871 4.08777 0
M  V30 1909 N 183.284 -1.43765 0.645699 0
M  V30 1910 C 184.532 -2.01499 0.155731 0
M  V30 1911 C 184.853 -1.51151 -1.232 0
M  V30 1912 O 184.123 -0.721044 -1.82148 0
M  V30 1913 H 182.703 -0.745003 0.0545817 0
M  V30 1914 H 185.365 -1.76075 0.835677 0
M  V30 1915 H 184.461 -3.1181 0.134577 0
M  V30 1916 N 184.763 -0.387143 -1.52771 0
M  V30 1917 C 185.693 0.440551 -2.29306 0
M  V30 1918 C 186.674 1.06535 -1.32606 0
M  V30 1919 O 187.859 1.07853 -1.61497 0
M  V30 1920 C 184.989 1.56919 -3.09829 0
M  V30 1921 C 183.943 1.07054 -4.14395 0
M  V30 1922 C 183.269 2.29109 -4.83129 0
M  V30 1923 C 184.569 0.140015 -5.22112 0
M  V30 1924 H 186.263 -0.198026 -2.98744 0
M  V30 1925 H 183.809 -0.09668 -1.43675 0
M  V30 1926 H 185.762 2.15503 -3.62128 0
M  V30 1927 H 184.486 2.23532 -2.3812 0
M  V30 1928 H 183.145 0.507247 -3.63074 0
M  V30 1929 H 182.793 2.94227 -4.0797 0
M  V30 1930 H 182.493 1.96406 -5.53804 0
M  V30 1931 H 184.017 2.88339 -5.38231 0
M  V30 1932 H 185.431 0.633978 -5.69784 0
M  V30 1933 H 183.828 -0.0971485 -6.00021 0
M  V30 1934 H 184.898 -0.811711 -4.78058 0
M  V30 1935 N 186.241 1.57166 -0.116904 0
M  V30 1936 C 187.188 2.15202 0.83408 0
M  V30 1937 C 188.158 1.07644 1.26499 0
M  V30 1938 O 189.343 1.35541 1.34288 0
M  V30 1939 C 186.483 2.75405 2.07957 0
M  V30 1940 C 185.596 3.97264 1.69721 0
M  V30 1941 C 184.731 4.45561 2.89221 0
M  V30 1942 C 183.77 5.59956 2.47215 0
M  V30 1943 N 182.907 6.03006 3.59622 0
M  V30 1944 H 187.747 2.96141 0.332335 0
M  V30 1945 H 185.284 1.46309 0.152349 0
M  V30 1946 H 187.242 3.08439 2.80929 0
M  V30 1947 H 185.872 1.97159 2.55594 0
M  V30 1948 H 184.924 3.70404 0.866316 0
M  V30 1949 H 186.236 4.80226 1.34849 0
M  V30 1950 H 185.39 4.80493 3.7042 0
M  V30 1951 H 184.129 3.61544 3.27318 0
M  V30 1952 H 183.134 5.2463 1.64448 0
M  V30 1953 H 184.359 6.45738 2.10238 0
M  V30 1954 H 182.305 5.21931 3.97396 0
M  V30 1955 H 182.222 6.80819 3.28667 0
M  V30 1956 H 183.49 6.42576 4.41267 0
M  V30 1957 N 187.719 -0.156864 1.56817 0
M  V30 1958 C 188.996 -0.899244 1.73704 0
M  V30 1959 C 189.376 -1.99771 0.682254 0
M  V30 1960 O 188.724 -2.26515 -0.300522 0
M  V30 1961 C 188.934 -1.45075 3.17418 0
M  V30 1962 C 190.282 -1.91802 3.7881 0
M  V30 1963 O 191.306 -1.54838 3.20786 0
M  V30 1964 O 190.165 -2.5994 4.80722 0
M  V30 1965 H 187.259 -0.424267 0.709878 0
M  V30 1966 H 189.805 -0.143561 1.69092 0
M  V30 1967 H 188.577 -0.660846 3.85679 0
M  V30 1968 H 188.2 -2.27021 3.26416 0
M  V30 1969 N 189.197 -1.51736 -0.425897 0
M  V30 1970 C 190.127 -1.76827 -1.52494 0
M  V30 1971 C 191.108 -0.618524 -1.58456 0
M  V30 1972 O 192.293 -0.862416 -1.74 0
M  V30 1973 C 189.423 -1.90374 -2.90474 0
M  V30 1974 C 188.377 -3.0588 -2.99369 0
M  V30 1975 C 187.703 -3.04625 -4.3944 0
M  V30 1976 C 189.003 -4.45644 -2.72394 0
M  V30 1977 H 190.697 -2.68855 -1.31748 0
M  V30 1978 H 188.243 -1.29372 -0.632362 0
M  V30 1979 H 190.196 -2.0651 -3.6733 0
M  V30 1980 H 188.92 -0.95004 -3.12477 0
M  V30 1981 H 187.579 -2.89467 -2.24954 0
M  V30 1982 H 187.227 -2.0701 -4.58428 0
M  V30 1983 H 186.927 -3.82195 -4.46319 0
M  V30 1984 H 188.451 -3.22869 -5.18255 0
M  V30 1985 H 189.865 -4.62348 -3.38979 0
M  V30 1986 H 188.262 -5.25006 -2.9067 0
M  V30 1987 H 189.332 -4.54893 -1.67929 0
M  V30 1988 N 190.675 0.682077 -1.42076 0
M  V30 1989 C 191.924 1.43786 -1.41451 0
M  V30 1990 C 192.237 1.95574 -0.0317074 0
M  V30 1991 O 193.443 2.71326 0.0971462 0
M  V30 1992 C 191.899 2.60071 -2.48779 0
M  V30 1993 C 191.507 2.15013 -3.93031 0
M  V30 1994 C 193.251 3.37626 -2.57311 0
M  V30 1995 C 191.158 3.28336 -4.91883 0
M  V30 1996 H 190.088 0.540143 -0.526082 0
M  V30 1997 H 192.739 0.739157 -1.67955 0
M  V30 1998 H 191.121 3.32275 -2.15429 0
M  V30 1999 H 192.295 1.5001 -4.35699 0
M  V30 2000 H 190.61 1.50416 -3.88284 0
M  V30 2001 H 193.207 4.22012 -3.28345 0
M  V30 2002 H 193.55 3.83727 -1.61429 0
M  V30 2003 H 194.083 2.72488 -2.89819 0
M  V30 2004 H 190.822 2.87234 -5.89217 0
M  V30 2005 H 190.342 3.92145 -4.53853 0
M  V30 2006 H 192.021 3.93913 -5.13265 0
M  V30 2007 N 192.153 1.28127 0.917671 0
M  V30 2008 C 193.401 1.14825 1.66312 0
M  V30 2009 C 193.722 -0.304379 1.9261 0
M  V30 2010 O 192.992 -1.21149 1.53947 0
M  V30 2011 H 191.572 0.421953 0.616413 0
M  V30 2012 H 194.234 1.608 1.10134 0
M  V30 2013 H 193.33 1.68489 2.62712 0
M  V30 2014 N 193.631 -1.12557 1.10312 0
M  V30 2015 C 194.578 -2.18247 0.750781 0
M  V30 2016 C 195.548 -1.63853 -0.272293 0
M  V30 2017 O 196.733 -1.90195 -0.151862 0
M  V30 2018 C 193.873 -3.44591 0.187379 0
M  V30 2019 C 192.986 -4.13046 1.2656 0
M  V30 2020 C 192.121 -5.27034 0.663978 0
M  V30 2021 C 191.16 -5.87353 1.72287 0
M  V30 2022 N 190.297 -6.92757 1.1416 0
M  V30 2023 H 195.137 -2.47732 1.65628 0
M  V30 2024 H 192.674 -1.21629 0.827337 0
M  V30 2025 H 194.632 -4.16904 -0.157148 0
M  V30 2026 H 193.262 -3.15527 -0.681355 0
M  V30 2027 H 192.314 -3.38924 1.72727 0
M  V30 2028 H 193.626 -4.53947 2.06721 0
M  V30 2029 H 192.78 -6.06104 0.268824 0
M  V30 2030 H 191.519 -4.87407 -0.169082 0
M  V30 2031 H 190.524 -5.06971 2.12746 0
M  V30 2032 H 191.749 -6.29051 2.55875 0
M  V30 2033 H 189.695 -6.5517 0.329984 0
M  V30 2034 H 189.612 -7.3225 1.88007 0
M  V30 2035 H 190.88 -7.75658 0.772956 0
M  V30 2036 N 195.109 -0.891671 -1.2995 0
M  V30 2037 C 196.039 -0.379797 -2.30391 0
M  V30 2038 C 197.02 0.540919 -1.6127 0
M  V30 2039 O 198.205 0.453352 -1.88834 0
M  V30 2040 C 195.335 0.400654 -3.44981 0
M  V30 2041 C 194.289 -0.428905 -4.25846 0
M  V30 2042 C 193.615 0.478557 -5.32554 0
M  V30 2043 C 194.915 -1.67458 -4.94727 0
M  V30 2044 H 196.609 -1.21914 -2.73454 0
M  V30 2045 H 194.155 -0.587675 -1.31462 0
M  V30 2046 H 196.108 0.769434 -4.14316 0
M  V30 2047 H 194.832 1.27371 -3.0074 0
M  V30 2048 H 193.491 -0.779911 -3.58208 0
M  V30 2049 H 193.139 1.34951 -4.84559 0
M  V30 2050 H 192.839 -0.0727433 -5.87555 0
M  V30 2051 H 194.363 0.843705 -6.04743 0
M  V30 2052 H 195.777 -1.376 -5.56542 0
M  V30 2053 H 194.174 -2.16659 -5.59624 0
M  V30 2054 H 195.244 -2.41518 -4.20473 0
M  V30 2055 N 196.587 1.43421 -0.653314 0
M  V30 2056 C 197.833 2.02111 -0.166992 0
M  V30 2057 C 198.166 1.51423 1.21592 0
M  V30 2058 O 197.441 0.707389 1.8118 0
M  V30 2059 C 197.724 3.5966 -0.177948 0
M  V30 2060 C 197.577 4.20579 -1.59478 0
M  V30 2061 C 198.896 4.37413 0.4856 0
M  V30 2062 H 196.015 0.734374 -0.0621557 0
M  V30 2063 H 198.657 1.70717 -0.834016 0
M  V30 2064 H 196.807 3.86537 0.390032 0
M  V30 2065 H 198.479 4.04732 -2.21336 0
M  V30 2066 H 196.722 3.77226 -2.14204 0
M  V30 2067 H 197.393 5.29665 -1.5543 0
M  V30 2068 H 199.869 4.161 0.00234528 0
M  V30 2069 H 198.745 5.47075 0.447207 0
M  V30 2070 H 199.006 4.13672 1.55974 0
M  V30 2071 N 198.065 0.39524 1.52563 0
M  V30 2072 C 199.311 -0.185318 2.01952 0
M  V30 2073 C 199.644 -1.45964 1.28095 0
M  V30 2074 O 198.919 -1.90689 0.38315 0
M  V30 2075 C 199.202 -0.447193 3.57312 0
M  V30 2076 C 199.055 0.842828 4.41833 0
M  V30 2077 C 200.374 -1.23529 4.22408 0
M  V30 2078 H 197.493 -0.0658788 0.73405 0
M  V30 2079 H 200.135 0.525975 1.82575 0
M  V30 2080 H 198.285 -1.05312 3.73954 0
M  V30 2081 H 199.957 1.4795 4.36931 0
M  V30 2082 H 198.2 1.45686 4.08605 0
M  V30 2083 H 198.871 0.614165 5.48573 0
M  V30 2084 H 201.347 -0.722445 4.0978 0
M  V30 2085 H 200.223 -1.38727 5.3108 0
M  V30 2086 H 200.484 -2.25213 3.80436 0
M  V30 2087 N 199.544 -1.57102 0.125237 0
M  V30 2088 C 200.474 -2.18659 -0.819174 0
M  V30 2089 C 201.455 -1.12843 -1.27281 0
M  V30 2090 O 202.64 -1.41104 -1.33429 0
M  V30 2091 C 199.77 -2.79096 -2.06695 0
M  V30 2092 C 198.724 -3.90548 -1.75088 0
M  V30 2093 C 198.05 -4.37821 -3.06948 0
M  V30 2094 C 199.35 -5.12356 -1.01435 0
M  V30 2095 H 201.044 -2.9783 -0.306202 0
M  V30 2096 H 198.59 -1.4326 -0.145839 0
M  V30 2097 H 200.543 -3.2082 -2.73226 0
M  V30 2098 H 199.267 -1.97223 -2.60328 0
M  V30 2099 H 197.926 -3.49409 -1.10944 0
M  V30 2100 H 197.574 -3.52799 -3.58527 0
M  V30 2101 H 197.274 -5.12982 -2.86571 0
M  V30 2102 H 198.798 -4.822 -3.74587 0
M  V30 2103 H 200.212 -5.5106 -1.58132 0
M  V30 2104 H 198.609 -5.9314 -0.911319 0
M  V30 2105 H 199.679 -4.849 -0.00218681 0
M  V30 2106 N 201.022 0.148545 -1.56898 0
M  V30 2107 C 202.25 0.876389 -1.87422 0
M  V30 2108 C 202.665 1.74809 -0.713256 0
M  V30 2109 O 202.022 1.79725 0.317025 0
M  V30 2110 C 202.073 1.73438 -3.17178 0
M  V30 2111 O 201.794 0.897809 -4.28802 0
M  V30 2112 C 203.295 2.56993 -3.61205 0
M  V30 2113 H 200.515 0.253489 -0.621277 0
M  V30 2114 H 203.059 0.141798 -2.04008 0
M  V30 2115 H 201.214 2.42205 -3.0235 0
M  V30 2116 H 201.628 1.48672 -5.02988 0
M  V30 2117 H 203.102 3.12773 -4.54838 0
M  V30 2118 H 203.579 3.32958 -2.86419 0
M  V30 2119 H 204.185 1.9352 -3.78722 0
M  V30 2120 N 202.5 1.5196 0.417844 0
M  V30 2121 C 203.748 1.65263 1.16329 0
M  V30 2122 C 204.069 0.380634 1.91249 0
M  V30 2123 O 203.339 -0.604214 1.86349 0
M  V30 2124 H 201.919 0.60912 0.432414 0
M  V30 2125 H 204.581 1.88969 0.477162 0
M  V30 2126 H 203.677 2.4896 1.88217 0
M  V30 2127 N 203.978 -0.674533 1.42435 0
M  V30 2128 C 204.925 -1.78807 1.45934 0
M  V30 2129 C 205.895 -1.63157 0.311271 0
M  V30 2130 O 207.08 -1.83707 0.515383 0
M  V30 2131 C 204.22 -3.16839 1.36773 0
M  V30 2132 C 203.333 -3.43774 2.61617 0
M  V30 2133 C 202.468 -4.71536 2.44597 0
M  V30 2134 C 201.507 -4.91505 3.64814 0
M  V30 2135 N 200.644 -6.10508 3.46734 0
M  V30 2136 H 205.484 -1.75151 2.41093 0
M  V30 2137 H 203.021 -0.85504 1.19697 0
M  V30 2138 H 204.979 -3.96606 1.29459 0
M  V30 2139 H 203.609 -3.19619 0.452089 0
M  V30 2140 H 202.661 -2.58259 2.79297 0
M  V30 2141 H 203.973 -3.54423 3.50978 0
M  V30 2142 H 203.127 -5.59393 2.3487 0
M  V30 2143 H 201.866 -4.6317 1.52726 0
M  V30 2144 H 200.871 -4.0209 3.74972 0
M  V30 2145 H 202.096 -5.01716 4.57665 0
M  V30 2146 H 200.042 -6.03315 2.5758 0
M  V30 2147 H 199.959 -6.2202 4.29682 0
M  V30 2148 H 201.227 -7.01044 3.40819 0
M  V30 2149 N 205.456 -1.28612 -0.910864 0
M  V30 2150 C 206.704 -1.15705 -1.65701 0
M  V30 2151 C 207.025 0.29416 -1.92769 0
M  V30 2152 O 206.295 1.20331 -1.54588 0
M  V30 2153 H 204.875 -0.425216 -0.614167 0
M  V30 2154 H 207.537 -1.61381 -1.0928 0
M  V30 2155 H 206.633 -1.6988 -2.61815 0
M  V30 2156 N 206.934 1.1197 -1.10907 0
M  V30 2157 C 208.183 1.82947 -0.849302 0
M  V30 2158 C 208.496 1.85275 0.627112 0
M  V30 2159 O 209.702 2.52296 1.00295 0
M  V30 2160 C 208.158 3.28529 -1.46959 0
M  V30 2161 C 207.766 3.34546 -2.97965 0
M  V30 2162 C 209.51 4.04443 -1.28942 0
M  V30 2163 C 207.417 4.74491 -3.53004 0
M  V30 2164 H 206.347 0.685477 -0.314065 0
M  V30 2165 H 208.998 1.2604 -1.33365 0
M  V30 2166 H 207.38 3.85333 -0.912917 0
M  V30 2167 H 208.554 2.87654 -3.59989 0
M  V30 2168 H 206.869 2.72108 -3.15192 0
M  V30 2169 H 209.466 5.07787 -1.67502 0
M  V30 2170 H 209.809 4.15656 -0.231456 0
M  V30 2171 H 210.342 3.5401 -1.81443 0
M  V30 2172 H 207.081 4.68474 -4.58489 0
M  V30 2173 H 206.601 5.21816 -2.9575 0
M  V30 2174 H 208.28 5.4344 -3.51115 0
M  V30 2175 N 208.412 0.89855 1.29475 0
M  V30 2176 C 209.66 0.522847 1.9522 0
M  V30 2177 C 209.981 -0.93371 1.71192 0
M  V30 2178 O 209.251 -1.65823 1.04305 0
M  V30 2179 H 207.831 0.190366 0.722336 0
M  V30 2180 H 210.493 1.14459 1.5775 0
M  V30 2181 H 209.589 0.704476 3.04045 0
M  V30 2182 N 209.89 -1.43072 0.660911 0
M  V30 2183 C 211.118 -2.06067 0.185422 0
M  V30 2184 C 211.533 -1.49582 -1.15198 0
M  V30 2185 O 210.89 -0.630134 -1.71276 0
M  V30 2186 C 210.941 -3.61371 0.0966523 0
M  V30 2187 O 210.662 -4.15758 1.38119 0
M  V30 2188 C 212.163 -4.41455 -0.403996 0
M  V30 2189 H 209.383 -0.664459 0.0934604 0
M  V30 2190 H 211.927 -1.83447 0.90373 0
M  V30 2191 H 210.082 -3.8315 -0.572259 0
M  V30 2192 H 210.496 -5.09499 1.24542 0
M  V30 2193 H 211.97 -5.50437 -0.415045 0
M  V30 2194 H 212.447 -4.15036 -1.43674 0
M  V30 2195 H 213.053 -4.24663 0.232691 0
M  V30 2196 N 211.368 -0.403325 -1.52352 0
M  V30 2197 C 212.278 0.432009 -2.30588 0
M  V30 2198 C 213.294 1.05884 -1.38075 0
M  V30 2199 O 214.47 1.06161 -1.71148 0
M  V30 2200 C 211.535 1.53669 -3.10784 0
M  V30 2201 C 210.596 0.933525 -4.19027 0
M  V30 2202 C 209.829 1.98557 -4.9539 0
M  V30 2203 O 210.052 3.20283 -4.71991 0
M  V30 2204 O 208.986 1.59504 -5.80381 0
M  V30 2205 H 212.812 -0.205739 -3.03002 0
M  V30 2206 H 210.397 -0.166675 -1.48467 0
M  V30 2207 H 212.279 2.17814 -3.60742 0
M  V30 2208 H 210.954 2.15915 -2.41169 0
M  V30 2209 H 209.861 0.254954 -3.7323 0
M  V30 2210 H 211.194 0.35508 -4.90918 0
M  V30 2211 N 212.846 1.57033 -0.133567 0
M  V30 2212 C 213.794 2.17348 0.828412 0
M  V30 2213 C 214.788 1.12671 1.26498 0
M  V30 2214 O 215.994 1.30947 1.23502 0
M  V30 2215 H 212.369 0.695775 0.285309 0
M  V30 2216 H 214.34 2.96935 0.295372 0
M  V30 2217 C 213.089 2.79893 2.06289 0
M  V30 2218 H 212.412 3.60147 1.73592 0
M  V30 2219 H 213.852 3.25615 2.71572 0
M  V30 2220 C 212.311 1.77713 2.86216 0
M  V30 2221 O 212.841 1.23937 3.82103 0
M  V30 2222 N 211.047 1.47321 2.50489 0
M  V30 2223 H 210.594 1.91243 1.7258 0
M  V30 2224 H 210.552 0.79199 3.04261 0
M  V30 2225 N 214.325 -0.140222 1.56975 0
M  V30 2226 C 215.255 -1.17456 2.01808 0
M  V30 2227 C 216.236 -1.44415 0.898794 0
M  V30 2228 O 217.421 -1.5522 1.16707 0
M  V30 2229 C 214.551 -2.50607 2.40444 0
M  V30 2230 C 213.505 -2.38155 3.55621 0
M  V30 2231 C 212.831 -3.76078 3.80091 0
M  V30 2232 C 214.131 -1.85991 4.88062 0
M  V30 2233 H 215.825 -0.801743 2.88466 0
M  V30 2234 H 213.371 -0.38422 1.38779 0
M  V30 2235 H 215.324 -3.23197 2.7041 0
M  V30 2236 H 214.048 -2.89737 1.50732 0
M  V30 2237 H 212.707 -1.68016 3.25832 0
M  V30 2238 H 212.355 -4.12656 2.87618 0
M  V30 2239 H 212.055 -3.68606 4.57606 0
M  V30 2240 H 213.579 -4.50206 4.12488 0
M  V30 2241 H 214.993 -2.4838 5.16701 0
M  V30 2242 H 213.39 -1.89393 5.6943 0
M  V30 2243 H 214.46 -0.816023 4.77984 0
M  V30 2244 N 215.803 -1.52179 -0.40978 0
M  V30 2245 C 216.713 -1.78364 -1.52392 0
M  V30 2246 C 217.729 -0.669183 -1.60617 0
M  V30 2247 O 218.905 -0.954518 -1.77344 0
M  V30 2248 C 215.97 -1.92822 -2.88133 0
M  V30 2249 C 215.031 -3.16725 -2.898 0
M  V30 2250 C 214.264 -3.30483 -4.19067 0
M  V30 2251 O 214.487 -2.49522 -5.12928 0
M  V30 2252 O 213.421 -4.2363 -4.27576 0
M  V30 2253 H 217.247 -2.72931 -1.33201 0
M  V30 2254 H 214.832 -1.37016 -0.59557 0
M  V30 2255 H 216.714 -2.04157 -3.68643 0
M  V30 2256 H 215.389 -1.01444 -3.07393 0
M  V30 2257 H 214.296 -3.10848 -2.08146 0
M  V30 2258 H 215.629 -4.07881 -2.75489 0
M  V30 2259 N 217.281 0.66697 -1.42791 0
M  V30 2260 C 218.229 1.80157 -1.47127 0
M  V30 2261 C 219.223 1.65825 -0.346199 0
M  V30 2262 O 220.429 1.72338 -0.519572 0
M  V30 2263 H 216.804 0.594158 -0.460956 0
M  V30 2264 H 218.775 1.73619 -2.42692 0
M  V30 2265 C 217.524 3.18351 -1.39813 0
M  V30 2266 H 216.847 3.3001 -2.25684 0
M  V30 2267 H 218.287 3.97736 -1.46908 0
M  V30 2268 C 216.746 3.36707 -0.11391 0
M  V30 2269 O 217.276 3.93027 0.830241 0
M  V30 2270 N 215.482 2.90586 -0.0285295 0
M  V30 2271 H 215.029 2.4494 -0.79764 0
M  V30 2272 H 214.987 3.03245 0.830063 0
M  V30 2273 N 218.759 1.29093 0.90403 0
M  V30 2274 C 219.987 1.19689 1.68766 0
M  V30 2275 C 220.402 -0.243113 1.87228 0
M  V30 2276 O 219.759 -1.16326 1.40621 0
M  V30 2277 C 219.81 1.90144 3.07453 0
M  V30 2278 O 219.531 3.2852 2.89838 0
M  V30 2279 C 221.032 1.87162 4.01852 0
M  V30 2280 H 218.252 0.415035 0.527244 0
M  V30 2281 H 220.796 1.7039 1.13082 0
M  V30 2282 H 218.951 1.43289 3.59926 0
M  V30 2283 H 219.365 3.63944 3.77684 0
M  V30 2284 H 220.839 2.41032 4.96596 0
M  V30 2285 H 221.316 0.84617 4.30972 0
M  V30 2286 H 221.922 2.33741 3.5531 0
M  V30 2287 N 220.237 -1.11381 1.11499 0
M  V30 2288 C 221.514 -1.7955 0.775965 0
M  V30 2289 C 221.894 -1.97859 -0.73588 0
M  V30 2290 O 221.242 -1.56376 -1.66609 0
M  V30 2291 C 221.452 -3.13196 1.53977 0
M  V30 2292 C 222.8 -3.88227 1.71944 0
M  V30 2293 O 223.824 -3.22887 1.50407 0
M  V30 2294 O 222.683 -5.05477 2.07738 0
M  V30 2295 H 219.777 -0.777728 0.28119 0
M  V30 2296 H 222.323 -1.18118 1.21845 0
M  V30 2297 H 221.095 -2.95229 2.56818 0
M  V30 2298 H 220.718 -3.82342 1.09088 0
M  V30 2299 N 221.715 -0.905404 -1.28997 0
M  V30 2300 C 222.963 -0.533192 -1.9494 0
M  V30 2301 C 223.284 0.924618 -1.71685 0
M  V30 2302 O 222.554 1.65268 -1.05183 0
M  V30 2303 H 221.134 -0.194194 -0.721317 0
M  V30 2304 H 223.796 -1.15294 -1.57141 0
M  V30 2305 H 222.892 -0.72059 -3.03667 0
M  V30 2306 N 223.193 1.4272 -0.668489 0
M  V30 2307 C 224.418 2.06484 -0.194758 0
M  V30 2308 C 224.843 1.49862 1.13679 0
M  V30 2309 O 224.201 0.614582 1.70565 0
M  V30 2310 C 224.249 3.60353 -0.133546 0
M  V30 2311 O 223.353 4.02464 0.899806 0
M  V30 2312 H 222.694 0.656137 -0.10188 0
M  V30 2313 H 225.224 1.82964 -0.915722 0
M  V30 2314 H 225.234 4.07976 0.0447041 0
M  V30 2315 H 223.909 4.00938 -1.1055 0
M  V30 2316 H 222.486 3.66402 0.693109 0
M  V30 2317 N 224.671 0.411399 1.52136 0
M  V30 2318 C 225.896 -0.165538 2.06738 0
M  V30 2319 C 226.321 -1.379 1.27926 0
M  V30 2320 O 225.679 -1.78628 0.310114 0
M  V30 2321 C 225.727 -0.492124 3.57226 0
M  V30 2322 O 224.831 -1.58276 3.80818 0
M  V30 2323 H 224.172 -0.0132132 0.663869 0
M  V30 2324 H 226.702 0.585253 1.96051 0
M  V30 2325 H 226.712 -0.750104 4.01045 0
M  V30 2326 H 225.387 0.394922 4.14021 0
M  V30 2327 H 223.964 -1.31677 3.48877 0
M  V30 2328 N 226.149 -1.5696 0.141893 0
M  V30 2329 C 227.565 -1.58151 -0.21456 0
M  V30 2330 C 227.765 -1.1559 -1.65049 0
M  V30 2331 O 226.821 -0.853832 -2.37626 0
M  V30 2332 C 228.134 -3.00674 0.0395576 0
M  V30 2333 C 229.682 -3.1299 -0.0245529 0
M  V30 2334 C 230.157 -4.57554 0.202167 0
M  V30 2335 N 231.648 -4.62961 0.148919 0
M  V30 2336 C 232.383 -5.7262 0.298924 0
M  V30 2337 N 231.879 -6.90947 0.50637 0
M  V30 2338 N 233.672 -5.61601 0.236886 0
M  V30 2339 H 225.823 -1.8292 1.07953 0
M  V30 2340 H 228.086 -0.846425 0.42693 0
M  V30 2341 H 227.792 -3.36183 1.03315 0
M  V30 2342 H 227.666 -3.70981 -0.682143 0
M  V30 2343 H 230.053 -2.77326 -1.00869 0
M  V30 2344 H 230.134 -2.4518 0.729396 0
M  V30 2345 H 229.778 -4.93922 1.18338 0
M  V30 2346 H 229.708 -5.23484 -0.572044 0
M  V30 2347 H 232.199 -3.77899 -0.00697015 0
M  V30 2348 H 232.512 -7.7038 0.611076 0
M  V30 2349 H 230.857 -6.92878 0.542628 0
M  V30 2350 H 234.048 -4.68039 0.0756209 0
M  V30 2351 H 234.221 -6.47015 0.357227 0
M  V30 2352 N 227.627 0.131896 -1.57047 0
M  V30 2353 C 228.875 0.840269 -1.83804 0
M  V30 2354 C 229.196 1.81017 -0.72512 0
M  V30 2355 O 228.466 1.94272 0.251995 0
M  V30 2356 H 227.046 0.313294 -0.678127 0
M  V30 2357 H 229.708 0.122294 -1.94516 0
M  V30 2358 H 228.804 1.39335 -2.79271 0
M  V30 2359 N 229.106 1.52395 0.401703 0
M  V30 2360 C 230.355 1.66044 1.14509 0
M  V30 2361 C 230.668 0.400216 1.91462 0
M  V30 2362 O 231.874 0.416632 2.68284 0
M  V30 2363 C 230.33 2.93388 2.0845 0
M  V30 2364 C 229.938 4.26545 1.36978 0
M  V30 2365 C 231.682 3.16402 2.83001 0
M  V30 2366 C 229.589 5.45007 2.29611 0
M  V30 2367 H 228.519 0.618562 0.431158 0
M  V30 2368 H 231.17 1.78886 0.40892 0
M  V30 2369 H 229.552 2.74263 2.8565 0
M  V30 2370 H 230.726 4.56179 0.650916 0
M  V30 2371 H 229.041 4.09692 0.74438 0
M  V30 2372 H 231.638 4.02085 3.52465 0
M  V30 2373 H 231.981 2.30943 3.46368 0
M  V30 2374 H 232.514 3.36034 2.12898 0
M  V30 2375 H 229.253 6.32835 1.70879 0
M  V30 2376 H 228.773 5.19702 2.9945 0
M  V30 2377 H 230.452 5.7838 2.89974 0
M  V30 2378 N 230.584 -0.659388 1.43143 0
M  V30 2379 C 231.832 -1.41654 1.44147 0
M  V30 2380 C 232.153 -1.94893 0.0645739 0
M  V30 2381 O 231.423 -1.74044 -0.899198 0
M  V30 2382 H 230.003 -0.525708 0.530697 0
M  V30 2383 H 232.665 -0.778097 1.78694 0
M  V30 2384 H 231.761 -2.26195 2.1504 0
M  V30 2385 N 232.062 -1.29571 -0.897171 0
M  V30 2386 C 233.311 -1.1706 -1.64256 0
M  V30 2387 C 233.624 0.276476 -1.93636 0
M  V30 2388 O 234.83 0.52294 -2.66416 0
M  V30 2389 C 233.286 -2.0475 -2.95982 0
M  V30 2390 C 232.894 -3.54295 -2.74187 0
M  V30 2391 C 234.638 -2.0097 -3.73914 0
M  V30 2392 C 232.545 -4.34081 -4.01656 0
M  V30 2393 H 231.475 -0.43452 -0.616205 0
M  V30 2394 H 234.126 -1.54229 -0.994268 0
M  V30 2395 H 232.508 -1.60452 -3.62038 0
M  V30 2396 H 233.682 -4.06662 -2.1671 0
M  V30 2397 H 231.997 -3.59773 -2.09648 0
M  V30 2398 H 234.594 -2.57838 -4.68427 0
M  V30 2399 H 234.937 -0.990273 -4.0435 0
M  V30 2400 H 235.47 -2.43325 -3.14703 0
M  V30 2401 H 232.209 -5.36671 -3.76384 0
M  V30 2402 H 231.729 -3.86483 -4.58684 0
M  V30 2403 H 233.408 -4.44877 -4.69781 0
M  V30 2404 N 233.54 1.10788 -1.12088 0
M  V30 2405 C 234.488 2.19111 -0.780587 0
M  V30 2406 C 235.482 1.67818 0.230961 0
M  V30 2407 O 236.688 1.79777 0.0895427 0
M  V30 2408 H 233.063 0.714477 -0.234578 0
M  V30 2409 H 235.034 2.45055 -1.70266 0
M  V30 2410 C 233.783 3.46818 -0.24747 0
M  V30 2411 H 233.106 3.86646 -1.01712 0
M  V30 2412 H 234.546 4.23973 -0.0476291 0
M  V30 2413 C 233.005 3.20968 1.02378 0
M  V30 2414 O 233.535 3.42298 2.10226 0
M  V30 2415 N 231.741 2.74658 0.949271 0
M  V30 2416 H 231.288 2.57501 0.0715173 0
M  V30 2417 H 231.246 2.57739 1.80049 0
M  V30 2418 N 235.018 0.912232 1.28515 0
M  V30 2419 C 236.264 0.545405 1.95328 0
M  V30 2420 C 236.597 -0.908313 1.71649 0
M  V30 2421 O 235.872 -1.64575 1.03659 0
M  V30 2422 C 236.155 0.853483 3.4984 0
M  V30 2423 C 236.008 2.35982 3.82926 0
M  V30 2424 C 237.327 0.348589 4.38717 0
M  V30 2425 H 234.446 0.199626 0.709449 0
M  V30 2426 H 237.088 1.1412 1.5191 0
M  V30 2427 H 235.238 0.34643 3.86952 0
M  V30 2428 H 236.91 2.93738 3.55691 0
M  V30 2429 H 235.153 2.81543 3.30024 0
M  V30 2430 H 235.824 2.52593 4.90816 0
M  V30 2431 H 238.3 0.78294 4.08668 0
M  V30 2432 H 237.176 0.593242 5.45685 0
M  V30 2433 H 237.437 -0.751049 4.35674 0
M  V30 2434 N 236.496 -1.42363 0.676048 0
M  V30 2435 C 237.912 -1.55811 0.345718 0
M  V30 2436 C 238.112 -1.65544 -1.14879 0
M  V30 2437 O 237.168 -1.62306 -1.93424 0
M  V30 2438 C 238.481 -2.80746 1.07713 0
M  V30 2439 C 240.029 -2.9452 1.05958 0
M  V30 2440 C 240.504 -4.22318 1.77233 0
M  V30 2441 N 241.995 -4.29233 1.74108 0
M  V30 2442 C 242.73 -5.26935 2.26113 0
M  V30 2443 N 242.226 -6.30783 2.86505 0
M  V30 2444 N 244.019 -5.18741 2.1648 0
M  V30 2445 H 236.17 -1.34289 1.6456 0
M  V30 2446 H 238.433 -0.646506 0.69335 0
M  V30 2447 H 238.139 -2.79696 2.13221 0
M  V30 2448 H 238.013 -3.71676 0.64316 0
M  V30 2449 H 240.4 -2.95097 0.0128255 0
M  V30 2450 H 240.481 -2.04817 1.53244 0
M  V30 2451 H 240.125 -4.22502 2.81877 0
M  V30 2452 H 240.055 -5.10958 1.27396 0
M  V30 2453 H 242.546 -3.54814 1.30059 0
M  V30 2454 H 242.859 -7.01691 3.23805 0
M  V30 2455 H 241.204 -6.31341 2.90575 0
M  V30 2456 H 244.395 -4.36533 1.68987 0
M  V30 2457 H 244.568 -5.94721 2.57316 0
M  V30 2458 N 237.974 -0.419461 -1.51915 0
M  V30 2459 C 238.937 0.389116 -2.25873 0
M  V30 2460 C 239.937 0.964924 -1.28631 0
M  V30 2461 O 241.127 0.842179 -1.52489 0
M  V30 2462 C 238.259 1.54874 -3.03689 0
M  V30 2463 H 239.452 -0.258799 -2.98781 0
M  V30 2464 H 237.005 -0.172209 -1.55348 0
M  V30 2465 H 237.74 2.23323 -2.35154 0
M  V30 2466 H 237.525 1.14223 -3.75094 0
M  V30 2467 H 239.015 2.12046 -3.59759 0
M  V30 2468 N 239.452 1.56882 -0.150215 0
M  V30 2469 C 240.868 1.58263 0.20617 0
M  V30 2470 C 241.068 1.16464 1.64434 0
M  V30 2471 O 240.124 0.866422 2.3717 0
M  V30 2472 C 241.437 3.00649 -0.0555025 0
M  V30 2473 C 242.985 3.12999 0.00795388 0
M  V30 2474 C 243.46 4.5744 -0.226429 0
M  V30 2475 N 244.951 4.62875 -0.173469 0
M  V30 2476 C 245.686 5.72454 -0.329288 0
M  V30 2477 N 245.182 6.90669 -0.543005 0
M  V30 2478 N 246.975 5.61467 -0.266666 0
M  V30 2479 H 239.126 1.82345 -1.08922 0
M  V30 2480 H 241.389 0.844149 -0.431413 0
M  V30 2481 H 241.095 3.3563 -1.05096 0
M  V30 2482 H 240.969 3.71337 0.66246 0
M  V30 2483 H 243.356 2.77857 0.993966 0
M  V30 2484 H 243.437 2.4479 -0.742388 0
M  V30 2485 H 243.081 4.93287 -1.20956 0
M  V30 2486 H 243.011 5.2378 0.544274 0
M  V30 2487 H 245.502 3.77898 -0.0130709 0
M  V30 2488 H 245.815 7.70045 -0.651922 0
M  V30 2489 H 244.16 6.92581 -0.579366 0
M  V30 2490 H 247.351 4.67992 -0.100441 0
M  V30 2491 H 247.524 6.46816 -0.391535 0
M  V30 2492 N 240.93 -0.123565 1.57115 0
M  V30 2493 C 241.84 -1.17074 2.033 0
M  V30 2494 C 242.856 -1.4561 0.952559 0
M  V30 2495 O 244.032 -1.56817 1.26374 0
M  V30 2496 C 241.097 -2.47857 2.42421 0
M  V30 2497 C 240.158 -2.26758 3.64526 0
M  V30 2498 C 239.391 -3.51305 4.01771 0
M  V30 2499 O 239.614 -4.5843 3.39409 0
M  V30 2500 O 238.548 -3.42578 4.94898 0
M  V30 2501 H 242.374 -0.808555 2.92739 0
M  V30 2502 H 239.959 -0.334027 1.45618 0
M  V30 2503 H 241.841 -3.2492 2.68338 0
M  V30 2504 H 240.516 -2.83558 1.5613 0
M  V30 2505 H 239.423 -1.47569 3.43765 0
M  V30 2506 H 240.756 -1.95963 4.51508 0
M  V30 2507 N 242.408 -1.52605 -0.393616 0
M  V30 2508 C 243.656 -1.67093 -1.13685 0
M  V30 2509 C 243.977 -0.411011 -1.90619 0
M  V30 2510 O 243.247 0.574491 -1.87287 0
M  V30 2511 H 241.827 -0.615923 -0.422668 0
M  V30 2512 H 244.489 -1.89704 -0.447039 0
M  V30 2513 H 243.585 -2.51922 -1.84232 0
M  V30 2514 N 243.887 0.651787 -1.4349 0
M  V30 2515 C 244.817 1.77621 -1.51569 0
M  V30 2516 C 245.798 1.66022 -0.370253 0
M  V30 2517 O 246.983 1.85095 -0.587658 0
M  V30 2518 C 244.113 3.16056 -1.43966 0
M  V30 2519 C 243.067 3.4242 -2.56774 0
M  V30 2520 C 242.393 4.8067 -2.34223 0
M  V30 2521 C 243.693 3.37023 -3.99015 0
M  V30 2522 H 245.387 1.71117 -2.45681 0
M  V30 2523 H 242.933 0.821825 -1.18246 0
M  V30 2524 H 244.886 3.94472 -1.48221 0
M  V30 2525 H 243.61 3.23293 -0.463586 0
M  V30 2526 H 242.269 2.66375 -2.51873 0
M  V30 2527 H 241.917 4.84585 -1.34856 0
M  V30 2528 H 241.617 4.9927 -3.09844 0
M  V30 2529 H 243.141 5.61342 -2.40265 0
M  V30 2530 H 244.555 4.05374 -4.05395 0
M  V30 2531 H 242.952 3.67159 -4.74673 0
M  V30 2532 H 244.022 2.3518 -4.2405 0
M  V30 2533 N 245.365 1.30045 0.890287 0
M  V30 2534 C 246.593 1.21472 1.67487 0
M  V30 2535 C 247.008 -0.223241 1.87476 0
M  V30 2536 O 246.365 -1.14828 1.41847 0
M  V30 2537 C 246.416 1.93394 3.05419 0
M  V30 2538 O 246.137 3.31576 2.86337 0
M  V30 2539 C 247.638 1.91414 3.99844 0
M  V30 2540 H 244.858 0.420604 0.522813 0
M  V30 2541 H 247.402 1.7158 1.11268 0
M  V30 2542 H 245.557 1.47099 3.58386 0
M  V30 2543 H 245.971 3.67929 3.73802 0
M  V30 2544 H 247.445 2.46285 4.94012 0
M  V30 2545 H 247.922 0.891833 4.3005 0
M  V30 2546 H 248.528 2.37496 3.52811 0
M  V30 2547 N 246.843 -1.10192 1.12674 0
M  V30 2548 C 248.09 -1.82205 0.883606 0
M  V30 2549 C 248.418 -1.8532 -0.590492 0
M  V30 2550 O 247.673 -1.31137 -1.45264 0
M  V30 2551 C 247.972 -3.28552 1.4067 0
M  V30 2552 C 247.638 -3.45582 2.89627 0
M  V30 2553 C 246.3 -3.49937 3.30299 0
M  V30 2554 C 248.652 -3.50768 3.85501 0
M  V30 2555 C 245.98 -3.57049 4.65546 0
M  V30 2556 C 248.332 -3.59414 5.20581 0
M  V30 2557 C 246.996 -3.62034 5.60792 0
M  V30 2558 H 246.266 -0.666735 0.323334 0
M  V30 2559 H 248.913 -1.29868 1.40736 0
M  V30 2560 H 247.218 -3.83473 0.80347 0
M  V30 2561 H 248.915 -3.82788 1.19475 0
M  V30 2562 H 245.505 -3.42871 2.57172 0
M  V30 2563 H 249.689 -3.46651 3.55171 0
M  V30 2564 H 244.945 -3.57361 4.96088 0
M  V30 2565 H 249.119 -3.62371 5.94693 0
M  V30 2566 H 246.746 -3.67298 6.6558 0
M  V30 2567 N 248.321 -0.919034 -1.28029 0
M  V30 2568 C 249.598 -0.473668 -1.89778 0
M  V30 2569 C 249.978 1.04783 -1.83259 0
M  V30 2570 O 249.326 1.8982 -1.27202 0
M  V30 2571 C 249.536 -1.00998 -3.34066 0
M  V30 2572 C 250.884 -1.06525 -4.1102 0
M  V30 2573 O 251.908 -0.958996 -3.43048 0
M  V30 2574 O 250.767 -1.22776 -5.3253 0
M  V30 2575 H 247.861 -0.15098 -0.813101 0
M  V30 2576 H 250.407 -1.01016 -1.36359 0
M  V30 2577 H 249.179 -2.05392 -3.33061 0
M  V30 2578 H 248.802 -0.454626 -3.94992 0
M  V30 2579 N 249.799 1.42003 -0.683588 0
M  V30 2580 C 250.747 2.326 0.000815408 0
M  V30 2581 C 251.741 1.50308 0.781278 0
M  V30 2582 O 252.947 1.66322 0.688251 0
M  V30 2583 H 249.322 0.751758 0.0190616 0
M  V30 2584 H 251.293 2.88011 -0.780528 0
M  V30 2585 C 250.042 3.34978 0.93195 0
M  V30 2586 H 249.365 3.98345 0.340817 0
M  V30 2587 H 250.805 4.00936 1.37936 0
M  V30 2588 C 249.264 2.67925 2.04249 0
M  V30 2589 O 249.794 2.51788 3.12995 0
M  V30 2590 N 248 2.2681 1.81675 0
M  V30 2591 H 247.547 2.40135 0.932363 0
M  V30 2592 H 247.505 1.8228 2.56167 0
M  V30 2593 N 251.277 0.427512 1.51691 0
M  V30 2594 C 252.554 -0.201684 1.94557 0
M  V30 2595 C 252.934 -1.60981 1.36559 0
M  V30 2596 O 252.282 -2.21814 0.548702 0
M  V30 2597 C 252.492 -0.189394 3.48486 0
M  V30 2598 C 253.84 -0.39978 4.22714 0
M  V30 2599 O 254.864 -0.267945 3.55191 0
M  V30 2600 O 253.723 -0.661249 5.42485 0
M  V30 2601 H 250.817 -0.135261 0.815864 0
M  V30 2602 H 253.363 0.484782 1.62628 0
M  V30 2603 H 252.135 0.795431 3.8313 0
M  V30 2604 H 251.758 -0.919187 3.86829 0
M  V30 2605 N 252.755 -1.56801 0.158532 0
M  V30 2606 C 254.003 -1.96102 -0.488712 0
M  V30 2607 C 254.324 -1.04498 -1.64636 0
M  V30 2608 O 253.594 -0.108783 -1.95598 0
M  V30 2609 H 252.174 -0.724102 -0.183535 0
M  V30 2610 H 254.836 -1.93457 0.236728 0
M  V30 2611 H 253.932 -3.00097 -0.857219 0
M  V30 2612 N 254.233 0.115231 -1.57178 0
M  V30 2613 C 255.463 0.835224 -1.88964 0
M  V30 2614 C 255.871 1.73774 -0.74829 0
M  V30 2615 O 255.214 1.81401 0.289739 0
M  V30 2616 C 255.276 1.7178 -3.15804 0
M  V30 2617 C 254.94 0.989198 -4.46166 0
M  V30 2618 C 255.937 0.328263 -5.18863 0
M  V30 2619 C 253.622 0.969256 -4.9286 0
M  V30 2620 C 255.616 -0.342873 -6.36477 0
M  V30 2621 C 253.303 0.294324 -6.10391 0
M  V30 2622 C 254.301 -0.360582 -6.82048 0
M  V30 2623 O 253.989 -1.02474 -7.97342 0
M  V30 2624 H 253.721 0.245197 -0.629964 0
M  V30 2625 H 256.275 0.10303 -2.05141 0
M  V30 2626 H 254.505 2.49173 -2.95719 0
M  V30 2627 H 256.194 2.31255 -3.33581 0
M  V30 2628 H 256.96 0.335263 -4.8384 0
M  V30 2629 H 252.839 1.46844 -4.36987 0
M  V30 2630 H 256.383 -0.854629 -6.92345 0
M  V30 2631 H 252.28 0.285099 -6.4487 0
M  V30 2632 H 253.048 -0.929594 -8.13204 0
M  V30 2633 N 255.711 1.52812 0.385517 0
M  V30 2634 C 256.641 1.80808 1.47752 0
M  V30 2635 C 257.622 0.660318 1.5676 0
M  V30 2636 O 258.807 0.908246 1.71652 0
M  V30 2637 C 255.937 1.98008 2.85324 0
M  V30 2638 C 254.891 3.13709 2.91154 0
M  V30 2639 C 254.217 3.16169 4.31209 0
M  V30 2640 C 255.517 4.52709 2.60483 0
M  V30 2641 H 257.211 2.72253 1.24573 0
M  V30 2642 H 254.757 1.31003 0.597839 0
M  V30 2643 H 256.71 2.16176 3.61726 0
M  V30 2644 H 255.434 1.03255 3.09848 0
M  V30 2645 H 254.093 2.95329 2.17201 0
M  V30 2646 H 253.741 2.19092 4.52778 0
M  V30 2647 H 253.441 3.93894 4.36029 0
M  V30 2648 H 254.965 3.36496 5.09512 0
M  V30 2649 H 256.379 4.71173 3.26602 0
M  V30 2650 H 254.776 5.32528 2.76648 0
M  V30 2651 H 255.846 4.59186 1.55809 0
M  V30 2652 N 257.189 -0.644168 1.43834 0
M  V30 2653 C 258.435 -1.40603 1.46146 0
M  V30 2654 C 258.768 -1.93997 0.0887717 0
M  V30 2655 O 258.043 -1.72854 -0.891724 0
M  V30 2656 C 258.326 -2.58086 2.51124 0
M  V30 2657 C 258.179 -2.10126 3.97702 0
M  V30 2658 C 259.498 -3.60291 2.52742 0
M  V30 2659 H 256.617 -0.509905 0.532134 0
M  V30 2660 H 259.259 -0.729502 1.75437 0
M  V30 2661 H 257.409 -3.15801 2.26278 0
M  V30 2662 H 259.081 -1.57342 4.33637 0
M  V30 2663 H 257.324 -1.41419 4.10101 0
M  V30 2664 H 257.995 -2.94649 4.66783 0
M  V30 2665 H 260.471 -3.12352 2.7491 0
M  V30 2666 H 259.347 -4.40032 3.28121 0
M  V30 2667 H 259.608 -4.1349 1.56455 0
M  V30 2668 N 258.668 -1.30515 -0.883378 0
M  V30 2669 C 259.631 -1.1701 -1.97082 0
M  V30 2670 C 260.631 -0.10089 -1.60483 0
M  V30 2671 O 261.821 -0.349127 -1.70666 0
M  V30 2672 C 258.953 -0.793045 -3.31547 0
M  V30 2673 H 260.146 -2.13622 -2.10489 0
M  V30 2674 H 257.699 -1.13935 -1.06998 0
M  V30 2675 H 258.434 0.172499 -3.23841 0
M  V30 2676 H 258.219 -1.56576 -3.5948 0
M  V30 2677 H 259.709 -0.722073 -4.1131 0
M  V30 2678 N 260.146 1.09593 -1.13257 0
M  V30 2679 C 261.392 1.82181 -0.904521 0
M  V30 2680 C 261.747 1.83967 0.563358 0
M  V30 2681 O 261.04 1.29566 1.41149 0
M  V30 2682 C 261.234 3.27802 -1.42411 0
M  V30 2683 C 261.063 3.40201 -2.94097 0
M  V30 2684 C 259.833 3.52104 -3.62424 0
M  V30 2685 C 262.031 3.32875 -3.92044 0
M  V30 2686 N 260.013 3.53169 -5.0214 0
M  V30 2687 C 261.384 3.40789 -5.17941 0
M  V30 2688 C 263.439 3.16531 -3.84334 0
M  V30 2689 C 262.142 3.34042 -6.37031 0
M  V30 2690 C 264.168 3.11109 -5.02956 0
M  V30 2691 C 263.53 3.19614 -6.27715 0
M  V30 2692 H 259.629 0.681015 -0.384373 0
M  V30 2693 H 262.213 1.3099 -1.44048 0
M  V30 2694 H 260.384 3.77466 -0.915086 0
M  V30 2695 H 262.116 3.88393 -1.13722 0
M  V30 2696 H 258.871 3.5548 -3.12939 0
M  V30 2697 H 259.295 3.57291 -5.75041 0
M  V30 2698 H 263.937 3.08827 -2.88766 0
M  V30 2699 H 261.655 3.4051 -7.32857 0
M  V30 2700 H 265.241 2.99601 -4.98729 0
M  V30 2701 H 264.121 3.15432 -7.17964 0
M  V30 2702 N 261.624 0.925811 1.2754 0
M  V30 2703 C 262.572 0.413897 2.28888 0
M  V30 2704 C 263.566 -0.500779 1.61829 0
M  V30 2705 O 264.772 -0.38069 1.75928 0
M  V30 2706 H 261.147 0.115274 0.743112 0
M  V30 2707 H 263.118 1.28151 2.69481 0
M  V30 2708 C 261.867 -0.319792 3.46226 0
M  V30 2709 H 261.19 0.374846 3.98039 0
M  V30 2710 H 262.63 -0.642435 4.19105 0
M  V30 2711 C 261.089 -1.53209 3.00048 0
M  V30 2712 O 261.619 -2.6309 3.03557 0
M  V30 2713 N 259.825 -1.38326 2.55566 0
M  V30 2714 H 259.372 -0.489292 2.5291 0
M  V30 2715 H 259.33 -2.19564 2.25031 0
M  V30 2716 N 263.102 -1.41638 0.69111 0
M  V30 2717 C 264.513 -1.84346 0.295517 0
M  V30 2718 C 264.864 -1.57833 -1.16547 0
M  V30 2719 O 263.989 -1.04648 -1.89414 0
M  V30 2720 C 264.584 -3.34636 0.529575 0
M  V30 2721 C 263.143 -3.7593 0.187944 0
M  V30 2722 C 262.29 -2.65082 0.814052 0
M  V30 2723 H 265.241 -1.31253 0.892092 0
M  V30 2724 H 265.262 -3.79903 -0.213148 0
M  V30 2725 H 264.774 -3.53901 1.59297 0
M  V30 2726 H 262.875 -3.62268 -0.871367 0
M  V30 2727 H 262.988 -4.74808 0.63985 0
M  V30 2728 H 261.352 -2.53528 0.244017 0
M  V30 2729 H 262.135 -2.87167 1.88123 0
M  V30 2730 N 264.58 -0.43555 -1.51462 0
M  V30 2731 C 265.527 0.376797 -2.27703 0
M  V30 2732 C 266.497 1.01838 -1.31219 0
M  V30 2733 O 267.682 1.03762 -1.60119 0
M  V30 2734 C 264.822 1.47301 -3.12084 0
M  V30 2735 C 263.935 0.849744 -4.2356 0
M  V30 2736 C 263.07 1.92086 -4.95254 0
M  V30 2737 C 262.109 1.27593 -5.98654 0
M  V30 2738 N 261.246 2.28833 -6.63762 0
M  V30 2739 H 266.086 -0.279734 -2.96684 0
M  V30 2740 H 263.623 -0.149795 -1.46335 0
M  V30 2741 H 265.581 2.11984 -3.59331 0
M  V30 2742 H 264.211 2.0992 -2.45221 0
M  V30 2743 H 263.263 0.0912529 -3.80291 0
M  V30 2744 H 264.575 0.338878 -4.97648 0
M  V30 2745 H 263.729 2.64435 -5.46039 0
M  V30 2746 H 262.468 2.46545 -4.20793 0
M  V30 2747 H 261.473 0.537893 -5.47162 0
M  V30 2748 H 262.698 0.738693 -6.7507 0
M  V30 2749 H 260.644 2.82375 -5.92115 0
M  V30 2750 H 260.561 1.82632 -7.33608 0
M  V30 2751 H 261.829 3.00671 -7.19178 0
M  V30 2752 N 266.058 1.56714 -0.166846 0
M  V30 2753 C 267.288 2.00828 0.48494 0
M  V30 2754 C 267.696 1.04612 1.57648 0
M  V30 2755 O 267.039 0.0383201 1.8366 0
M  V30 2756 C 267.101 3.4137 1.12723 0
M  V30 2757 C 266.765 4.56654 0.177886 0
M  V30 2758 C 267.762 5.16402 -0.60207 0
M  V30 2759 C 265.447 5.02244 0.0750139 0
M  V30 2760 C 267.441 6.20167 -1.47215 0
M  V30 2761 C 265.128 6.05859 -0.798649 0
M  V30 2762 C 266.126 6.64691 -1.57082 0
M  V30 2763 O 265.814 7.66297 -2.42989 0
M  V30 2764 H 265.546 0.663587 0.128953 0
M  V30 2765 H 268.1 2.03692 -0.264365 0
M  V30 2766 H 266.33 3.35406 1.92457 0
M  V30 2767 H 268.019 3.69466 1.68076 0
M  V30 2768 H 268.785 4.82065 -0.53274 0
M  V30 2769 H 264.664 4.56167 0.665812 0
M  V30 2770 H 268.208 6.66016 -2.07531 0
M  V30 2771 H 264.105 6.39621 -0.869199 0
M  V30 2772 H 264.873 7.83601 -2.36455 0
M  V30 2773 N 267.536 -0.106894 1.57237 0
M  V30 2774 C 268.813 -0.843526 1.76477 0
M  V30 2775 C 269.193 -1.97499 0.745464 0
M  V30 2776 O 268.541 -2.27357 -0.228306 0
M  V30 2777 C 268.751 -1.34903 3.21873 0
M  V30 2778 C 270.099 -1.79654 3.8472 0
M  V30 2779 O 271.123 -1.44554 3.2555 0
M  V30 2780 O 269.982 -2.44515 4.88748 0
M  V30 2781 H 267.076 -0.401468 0.723016 0
M  V30 2782 H 269.622 -0.0896927 1.69463 0
M  V30 2783 H 268.394 -0.53781 3.87586 0
M  V30 2784 H 268.017 -2.16522 3.33473 0
M  V30 2785 N 269.014 -1.53014 -0.377408 0
M  V30 2786 C 270.242 -1.72515 -1.14219 0
M  V30 2787 C 270.657 -0.448735 -1.8339 0
M  V30 2788 O 270.014 0.577592 -1.73119 0
M  V30 2789 C 270.065 -2.8826 -2.18148 0
M  V30 2790 O 269.786 -4.10962 -1.51795 0
M  V30 2791 C 271.287 -3.19536 -3.07264 0
M  V30 2792 H 268.507 -0.577301 -0.342001 0
M  V30 2793 H 271.051 -1.99712 -0.439935 0
M  V30 2794 H 269.206 -2.63492 -2.83991 0
M  V30 2795 H 269.62 -4.75693 -2.20945 0
M  V30 2796 H 271.094 -4.03959 -3.76193 0
M  V30 2797 H 271.571 -2.34403 -3.71419 0
M  V30 2798 H 272.177 -3.46186 -2.47053 0
M  V30 2799 N 270.492 0.636531 -1.44174 0
M  V30 2800 C 271.908 0.954104 -1.27941 0
M  V30 2801 C 272.108 2.0039 -0.211248 0
M  V30 2802 O 271.164 2.49236 0.404695 0
M  V30 2803 C 272.477 1.4225 -2.64925 0
M  V30 2804 C 274.025 1.53827 -2.72592 0
M  V30 2805 C 274.5 2.04053 -4.10032 0
M  V30 2806 N 275.991 2.11331 -4.12182 0
M  V30 2807 C 276.726 2.51352 -5.15374 0
M  V30 2808 N 276.222 2.90549 -6.2893 0
M  V30 2809 N 278.015 2.51438 -5.02728 0
M  V30 2810 H 270.166 -0.0578386 -2.12321 0
M  V30 2811 H 272.429 0.0367406 -0.947288 0
M  V30 2812 H 272.135 0.725466 -3.44136 0
M  V30 2813 H 272.009 2.39451 -2.9145 0
M  V30 2814 H 274.396 2.22628 -1.93702 0
M  V30 2815 H 274.477 0.550154 -2.49814 0
M  V30 2816 H 274.121 1.35848 -4.89395 0
M  V30 2817 H 274.051 3.03726 -4.30184 0
M  V30 2818 H 276.542 1.83745 -3.30222 0
M  V30 2819 H 276.855 3.19884 -7.03487 0
M  V30 2820 H 275.2 2.88313 -6.32377 0
M  V30 2821 H 278.391 2.20203 -4.13072 0
M  V30 2822 H 278.564 2.82304 -5.83274 0
M  V30 2823 N 271.97 1.30982 0.876444 0
M  V30 2824 C 273.198 1.23242 1.6619 0
M  V30 2825 C 273.613 -0.203345 1.87702 0
M  V30 2826 O 272.97 -1.13317 1.43057 0
M  V30 2827 C 273.021 1.96623 3.03351 0
M  V30 2828 O 272.742 3.34594 2.82804 0
M  V30 2829 C 274.243 1.95644 3.97792 0
M  V30 2830 H 271.463 0.426126 0.518322 0
M  V30 2831 H 274.007 1.7275 1.09442 0
M  V30 2832 H 272.162 1.50892 3.56806 0
M  V30 2833 H 272.576 3.71873 3.69879 0
M  V30 2834 H 274.05 2.51511 4.91372 0
M  V30 2835 H 274.527 0.937395 4.2908 0
M  V30 2836 H 275.133 2.41225 3.50272 0
M  V30 2837 N 273.449 -1.08991 1.13837 0
M  V30 2838 C 274.379 -2.17771 0.842507 0
M  V30 2839 C 275.36 -1.6892 -0.20001 0
M  V30 2840 O 276.545 -1.94113 -0.0579731 0
M  V30 2841 C 273.675 -3.4589 0.312644 0
M  V30 2842 C 272.629 -4.08099 1.28992 0
M  V30 2843 C 271.955 -5.31098 0.619623 0
M  V30 2844 C 273.255 -4.50077 2.65005 0
M  V30 2845 H 274.949 -2.42777 1.75213 0
M  V30 2846 H 272.495 -1.16682 0.843875 0
M  V30 2847 H 274.448 -4.21297 0.0933043 0
M  V30 2848 H 273.172 -3.20419 -0.632382 0
M  V30 2849 H 271.831 -3.34717 1.49533 0
M  V30 2850 H 271.479 -5.0191 -0.33102 0
M  V30 2851 H 271.179 -5.73674 1.27167 0
M  V30 2852 H 272.703 -6.09224 0.409669 0
M  V30 2853 H 274.117 -5.16688 2.48407 0
M  V30 2854 H 272.514 -5.03553 3.26427 0
M  V30 2855 H 273.584 -3.62257 3.22332 0
M  V30 2856 N 274.927 -0.932562 -1.27047 0
M  V30 2857 C 276.173 -0.585913 -1.94778 0
M  V30 2858 C 276.528 0.864142 -1.71902 0
M  V30 2859 O 275.821 1.60894 -1.04037 0
M  V30 2860 C 276.015 -0.853713 -3.47054 0
M  V30 2861 C 275.844 -2.32825 -3.84737 0
M  V30 2862 C 274.614 -2.98184 -4.07939 0
M  V30 2863 C 276.812 -3.30612 -3.93954 0
M  V30 2864 N 274.794 -4.3574 -4.3244 0
M  V30 2865 C 276.165 -4.53395 -4.22887 0
M  V30 2866 C 278.22 -3.25755 -3.76548 0
M  V30 2867 C 276.923 -5.71927 -4.36224 0
M  V30 2868 C 278.949 -4.43604 -3.91113 0
M  V30 2869 C 278.311 -5.65166 -4.20437 0
M  V30 2870 H 274.41 -0.264617 -0.735868 0
M  V30 2871 H 276.994 -1.20019 -1.53309 0
M  V30 2872 H 275.165 -0.268557 -3.8747 0
M  V30 2873 H 276.897 -0.469202 -4.01971 0
M  V30 2874 H 273.652 -2.48835 -4.02961 0
M  V30 2875 H 274.076 -5.06915 -4.48738 0
M  V30 2876 H 278.718 -2.32835 -3.52913 0
M  V30 2877 H 276.436 -6.65308 -4.58683 0
M  V30 2878 H 280.022 -4.41368 -3.79059 0
M  V30 2879 H 278.902 -6.54836 -4.31462 0
M  V30 2880 N 276.405 1.4127 -0.698611 0
M  V30 2881 C 277.633 2.05503 -0.239992 0
M  V30 2882 C 278.048 1.52584 1.11191 0
M  V30 2883 O 277.405 0.675323 1.69545 0
M  V30 2884 C 277.456 3.60987 -0.192429 0
M  V30 2885 O 277.177 4.1195 -1.49094 0
M  V30 2886 C 278.678 4.42371 0.28681 0
M  V30 2887 H 275.898 0.661748 -0.111045 0
M  V30 2888 H 278.442 1.80987 -0.95205 0
M  V30 2889 H 276.597 3.84533 0.470472 0
M  V30 2890 H 277.011 5.06018 -1.38007 0
M  V30 2891 H 278.485 5.51344 0.26896 0
M  V30 2892 H 278.962 4.18699 1.32619 0
M  V30 2893 H 279.568 4.23897 -0.345201 0
M  V30 2894 N 277.883 0.443576 1.51229 0
M  V30 2895 C 279.111 -0.11929 2.06556 0
M  V30 2896 C 279.526 -1.35921 1.31038 0
M  V30 2897 O 278.883 -1.78675 0.371704 0
M  V30 2898 C 278.934 -0.435228 3.5887 0
M  V30 2899 O 278.655 0.755486 4.31537 0
M  V30 2900 C 280.156 -1.04808 4.30732 0
M  V30 2901 H 277.376 -0.0051584 0.67098 0
M  V30 2902 H 279.92 0.624453 1.94733 0
M  V30 2903 H 278.075 -1.12887 3.70588 0
M  V30 2904 H 278.489 0.483491 5.22267 0
M  V30 2905 H 279.963 -1.2191 5.3837 0
M  V30 2906 H 280.44 -2.03081 3.89429 0
M  V30 2907 H 281.046 -0.393637 4.23474 0
M  V30 2908 N 279.361 -1.56624 0.175154 0
M  V30 2909 C 280.772 -1.83561 -0.340916 0
M  V30 2910 C 281.123 -1.09511 -1.62794 0
M  V30 2911 O 280.248 -0.349389 -2.13561 0
M  V30 2912 C 280.843 -3.32979 -0.625313 0
M  V30 2913 C 279.402 -3.60399 -1.08581 0
M  V30 2914 C 278.549 -2.77024 -0.123722 0
M  V30 2915 H 281.5 -1.53593 0.399344 0
M  V30 2916 H 281.521 -3.50666 -1.47694 0
M  V30 2917 H 281.033 -3.86847 0.311575 0
M  V30 2918 H 279.134 -3.11945 -2.03767 0
M  V30 2919 H 279.247 -4.68711 -0.992317 0
M  V30 2920 H 277.611 -2.46993 -0.621821 0
M  V30 2921 H 278.394 -3.33674 0.807256 0
M  V30 2922 N 280.839 0.0985539 -1.57292 0
M  V30 2923 C 282.116 0.834155 -1.76921 0
M  V30 2924 C 282.496 1.97101 -0.755928 0
M  V30 2925 O 281.844 2.27474 0.216245 0
M  V30 2926 C 282.054 1.33194 -3.22584 0
M  V30 2927 C 283.402 1.77611 -3.85668 0
M  V30 2928 O 284.426 1.42825 -3.26312 0
M  V30 2929 O 283.285 2.4192 -4.90038 0
M  V30 2930 H 280.379 0.397628 -0.725135 0
M  V30 2931 H 282.925 0.0807044 -1.69508 0
M  V30 2932 H 281.697 0.517248 -3.87866 0
M  V30 2933 H 281.32 2.1475 -3.34616 0
M  V30 2934 N 282.317 1.53212 0.369288 0
M  V30 2935 C 283.545 1.73119 1.13303 0
M  V30 2936 C 283.96 0.458455 1.83149 0
M  V30 2937 O 283.317 -0.568403 1.73423 0
M  V30 2938 C 283.368 2.89413 2.16616 0
M  V30 2939 O 283.089 4.11761 1.49614 0
M  V30 2940 C 284.59 3.21161 3.05566 0
M  V30 2941 H 281.81 0.579107 0.338934 0
M  V30 2942 H 284.354 1.99942 0.429338 0
M  V30 2943 H 282.509 2.64994 2.82589 0
M  V30 2944 H 282.923 4.76858 2.18419 0
M  V30 2945 H 284.397 4.05949 3.74045 0
M  V30 2946 H 284.874 2.36369 3.70171 0
M  V30 2947 H 285.48 3.47492 2.45213 0
M  V30 2948 N 283.795 -0.628877 1.44509 0
M  V30 2949 C 285.02 -1.42048 1.5112 0
M  V30 2950 C 285.445 -1.87594 0.137818 0
M  V30 2951 O 284.803 -1.58873 -0.873437 0
M  V30 2952 C 284.851 -2.61541 2.48251 0
M  V30 2953 O 283.955 -3.61453 1.98559 0
M  V30 2954 H 283.296 -0.424942 0.510216 0
M  V30 2955 H 285.826 -0.767374 1.89664 0
M  V30 2956 H 285.836 -3.09057 2.66361 0
M  V30 2957 H 284.511 -2.27736 3.48007 0
M  V30 2958 H 283.088 -3.20731 1.90227 0
M  V30 2959 N 285.273 -1.31445 -0.869486 0
M  V30 2960 C 286.684 -1.19042 -1.43826 0
M  V30 2961 C 287.035 0.202919 -1.95148 0
M  V30 2962 O 286.16 1.10071 -1.86315 0
M  V30 2963 C 286.755 -2.15499 -2.6143 0
M  V30 2964 C 285.314 -2.07028 -3.14351 0
M  V30 2965 C 284.461 -2.04701 -1.87063 0
M  V30 2966 H 287.412 -1.43489 -0.677984 0
M  V30 2967 H 287.433 -1.74488 -3.38134 0
M  V30 2968 H 286.945 -3.16899 -2.24046 0
M  V30 2969 H 285.046 -1.08825 -3.56354 0
M  V30 2970 H 285.159 -2.96157 -3.766 0
M  V30 2971 H 283.523 -1.49724 -2.06046 0
M  V30 2972 H 284.306 -3.07857 -1.51917 0
M  V30 2973 N 286.751 1.08385 -1.14413 0
M  V30 2974 C 287.699 2.17406 -0.826888 0
M  V30 2975 C 288.693 1.6827 0.195312 0
M  V30 2976 O 289.899 1.79927 0.0513892 0
M  V30 2977 H 286.274 0.70934 -0.249681 0
M  V30 2978 H 288.245 2.41388 -1.75426 0
M  V30 2979 C 286.994 3.46215 -0.320979 0
M  V30 2980 H 286.317 3.84401 -1.0989 0
M  V30 2981 H 287.757 4.23777 -0.137549 0
M  V30 2982 C 286.216 3.23067 0.955472 0
M  V30 2983 O 286.746 3.4668 2.02918 0
M  V30 2984 N 284.952 2.7661 0.890798 0
M  V30 2985 H 284.499 2.57594 0.0168815 0
M  V30 2986 H 284.457 2.61501 1.74542 0
M  V30 2987 N 288.23 0.939286 1.26551 0
M  V30 2988 C 289.47 0.5933 1.956 0
M  V30 2989 C 289.834 -0.851515 1.72085 0
M  V30 2990 O 291.035 -1.30634 2.34921 0
M  V30 2991 C 289.306 0.923996 3.45249 0
M  V30 2992 S 290.865 0.688269 4.33369 0
M  V30 2993 H 287.683 0.218591 0.676564 0
M  V30 2994 H 290.285 1.2102 1.5354 0
M  V30 2995 H 288.989 1.97297 3.59864 0
M  V30 2996 H 288.52 0.296746 3.92279 0
M  V30 2997 H 290.535 -0.448434 4.9417 0
M  V30 2998 N 289.708 -1.40897 0.706093 0
M  V30 2999 C 290.936 -2.05373 0.250887 0
M  V30 3000 C 291.351 -1.53172 -1.10381 0
M  V30 3001 O 290.708 -0.684305 -1.69185 0
M  V30 3002 C 290.759 -3.6088 0.211571 0
M  V30 3003 O 290.48 -4.11153 1.51276 0
M  V30 3004 C 291.981 -4.42517 -0.263346 0
M  V30 3005 H 289.201 -0.66115 0.114552 0
M  V30 3006 H 291.745 -1.80479 0.961635 0
M  V30 3007 H 289.9 -3.84777 -0.450073 0
M  V30 3008 H 290.314 -5.05279 1.40689 0
M  V30 3009 H 291.788 -5.51479 -0.239718 0
M  V30 3010 H 292.265 -4.19396 -1.30397 0
M  V30 3011 H 292.871 -4.23708 0.367677 0
M  V30 3012 N 291.186 -0.45159 -1.50991 0
M  V30 3013 C 292.435 0.111653 -2.01391 0
M  V30 3014 C 292.748 1.42529 -1.33959 0
M  V30 3015 O 293.954 2.07232 -1.75405 0
M  V30 3016 C 292.41 0.249514 -3.59034 0
M  V30 3017 C 292.018 -1.05453 -4.35412 0
M  V30 3018 C 293.762 0.765762 -4.17536 0
M  V30 3019 C 291.669 -0.881529 -5.84793 0
M  V30 3020 H 290.599 0.0455022 -0.752626 0
M  V30 3021 H 293.25 -0.583524 -1.73975 0
M  V30 3022 H 291.632 1.00803 -3.82955 0
M  V30 3023 H 292.806 -1.82248 -4.23229 0
M  V30 3024 H 291.121 -1.50039 -3.88429 0
M  V30 3025 H 293.718 0.911913 -5.26866 0
M  V30 3026 H 294.061 1.75201 -3.77638 0
M  V30 3027 H 294.594 0.0651744 -3.97747 0
M  V30 3028 H 291.333 -1.84057 -6.29129 0
M  V30 3029 H 290.853 -0.153625 -5.99603 0
M  V30 3030 H 292.532 -0.540363 -6.4474 0
M  V30 3031 N 292.664 1.56529 -0.183458 0
M  V30 3032 C 293.627 2.17324 0.728223 0
M  V30 3033 C 294.627 1.12453 1.14939 0
M  V30 3034 O 295.817 1.37902 1.06437 0
M  V30 3035 C 292.949 2.76591 1.99274 0
M  V30 3036 H 294.142 2.99241 0.198772 0
M  V30 3037 H 291.695 1.5616 0.0661391 0
M  V30 3038 H 292.43 1.98441 2.56499 0
M  V30 3039 H 292.215 3.5335 1.69959 0
M  V30 3040 H 293.705 3.23311 2.6431 0
M  V30 3041 N 294.142 -0.090211 1.57342 0
M  V30 3042 C 295.074 -1.13541 1.99101 0
M  V30 3043 C 296.087 -1.3604 0.894258 0
M  V30 3044 O 297.276 -1.34606 1.17233 0
M  V30 3045 C 294.376 -2.49001 2.29895 0
M  V30 3046 C 293.549 -2.46712 3.61182 0
M  V30 3047 C 292.608 -3.64136 3.79857 0
M  V30 3048 O 291.634 -3.46405 4.51655 0
M  V30 3049 N 292.836 -4.83802 3.20806 0
M  V30 3050 H 295.601 -0.779942 2.89373 0
M  V30 3051 H 293.162 -0.279125 1.59476 0
M  V30 3052 H 295.154 -3.26166 2.39578 0
M  V30 3053 H 293.724 -2.76619 1.45605 0
M  V30 3054 H 292.944 -1.55058 3.62423 0
M  V30 3055 H 294.232 -2.42265 4.4742 0
M  V30 3056 H 293.63 -5.01112 2.62494 0
M  V30 3057 H 292.187 -5.58543 3.35966 0
M  V30 3058 N 295.62 -1.53406 -0.361157 0
M  V30 3059 C 296.897 -1.60411 -1.11927 0
M  V30 3060 C 297.277 -0.414385 -2.06993 0
M  V30 3061 O 296.625 0.594976 -2.20618 0
M  V30 3062 C 296.835 -2.95652 -1.85448 0
M  V30 3063 C 298.183 -3.50386 -2.39823 0
M  V30 3064 O 299.207 -2.97711 -1.95568 0
M  V30 3065 O 298.066 -4.42482 -3.20737 0
M  V30 3066 H 295.16 -0.64811 -0.513695 0
M  V30 3067 H 297.706 -1.65749 -0.364065 0
M  V30 3068 H 296.478 -3.73682 -1.16091 0
M  V30 3069 H 296.101 -2.93825 -2.67866 0
M  V30 3070 N 297.098 0.621204 -1.44841 0
M  V30 3071 C 298.045 1.73267 -1.5247 0
M  V30 3072 C 299.015 1.6189 -0.371611 0
M  V30 3073 O 300.2 1.81668 -0.58321 0
M  V30 3074 C 297.34 3.11545 -1.48438 0
M  V30 3075 C 296.453 3.33827 -2.74196 0
M  V30 3076 C 295.588 4.62133 -2.61929 0
M  V30 3077 C 294.627 4.77627 -3.82804 0
M  V30 3078 N 293.764 5.97219 -3.69153 0
M  V30 3079 H 298.604 1.66082 -2.47428 0
M  V30 3080 H 296.141 0.810026 -1.22788 0
M  V30 3081 H 298.099 3.91528 -1.4409 0
M  V30 3082 H 296.729 3.1772 -0.570402 0
M  V30 3083 H 295.781 2.47715 -2.88689 0
M  V30 3084 H 297.093 3.41153 -3.6389 0
M  V30 3085 H 296.247 5.50291 -2.5547 0
M  V30 3086 H 294.986 4.57182 -1.69811 0
M  V30 3087 H 293.991 3.87896 -3.89637 0
M  V30 3088 H 295.216 4.84385 -4.75971 0
M  V30 3089 H 293.162 5.93339 -2.79794 0
M  V30 3090 H 293.079 6.05644 -4.52472 0
M  V30 3091 H 294.347 6.87912 -3.66603 0
M  V30 3092 N 298.576 1.31904 0.862503 0
M  V30 3093 C 299.853 1.12644 1.59908 0
M  V30 3094 C 300.233 -0.316104 2.0872 0
M  V30 3095 O 299.581 -1.31145 1.87118 0
M  V30 3096 C 299.791 2.1472 2.7513 0
M  V30 3097 C 301.139 2.47637 3.44907 0
M  V30 3098 O 302.163 2.13205 2.85346 0
M  V30 3099 O 301.022 3.06632 4.52371 0
M  V30 3100 H 298.116 0.43416 0.703871 0
M  V30 3101 H 300.662 1.43408 0.907314 0
M  V30 3102 H 299.434 3.1172 2.3653 0
M  V30 3103 H 299.057 1.84905 3.51989 0
M  V30 3104 N 300.054 -1.07777 1.14986 0
M  V30 3105 C 301.279 -1.84558 0.946213 0
M  V30 3106 C 301.704 -1.81323 -0.500362 0
M  V30 3107 O 301.062 -1.20301 -1.35637 0
M  V30 3108 C 301.11 -3.29736 1.45968 0
M  V30 3109 O 300.214 -4.07149 0.65601 0
M  V30 3110 H 299.555 -0.571641 0.33782 0
M  V30 3111 H 302.085 -1.35991 1.52865 0
M  V30 3112 H 302.095 -3.80574 1.47063 0
M  V30 3113 H 300.77 -3.31406 2.51283 0
M  V30 3114 H 299.347 -3.65994 0.714322 0
M  V30 3115 N 301.532 -0.945985 -1.26051 0
M  V30 3116 C 302.479 -0.45809 -2.26208 0
M  V30 3117 C 303.449 0.484816 -1.58867 0
M  V30 3118 O 304.634 0.399969 -1.86561 0
M  V30 3119 C 301.774 0.266131 -3.44072 0
M  V30 3120 C 300.887 -0.713005 -4.26075 0
M  V30 3121 C 300.022 0.0329013 -5.3119 0
M  V30 3122 C 299.061 -0.93774 -6.04874 0
M  V30 3123 N 298.198 -0.223274 -7.01745 0
M  V30 3124 H 303.038 -1.3171 -2.67313 0
M  V30 3125 H 300.575 -0.66069 -1.31428 0
M  V30 3126 H 302.533 0.702514 -4.11243 0
M  V30 3127 H 301.163 1.08925 -3.03867 0
M  V30 3128 H 300.215 -1.26789 -3.58648 0
M  V30 3129 H 301.527 -1.45406 -4.77136 0
M  V30 3130 H 300.681 0.528335 -6.04395 0
M  V30 3131 H 299.42 0.806801 -4.8098 0
M  V30 3132 H 298.425 -1.44425 -5.30492 0
M  V30 3133 H 299.65 -1.71172 -6.57173 0
M  V30 3134 H 297.596 0.532046 -6.53839 0
M  V30 3135 H 297.513 -0.90357 -7.50581 0
M  V30 3136 H 298.781 0.250907 -7.79096 0
M  V30 3137 N 303.011 1.40521 -0.713556 0
M  V30 3138 C 303.941 2.33381 -0.0743864 0
M  V30 3139 C 304.922 1.52784 0.747735 0
M  V30 3140 O 306.107 1.81258 0.697071 0
M  V30 3141 C 303.237 3.36748 0.849598 0
M  V30 3142 C 302.191 4.27793 0.133247 0
M  V30 3143 C 301.517 5.21679 1.17281 0
M  V30 3144 C 302.817 5.12415 -1.01134 0
M  V30 3145 H 304.511 2.87081 -0.850007 0
M  V30 3146 H 302.057 1.38034 -0.410201 0
M  V30 3147 H 304.01 4.00648 1.30612 0
M  V30 3148 H 302.734 2.81439 1.65709 0
M  V30 3149 H 301.393 3.65342 -0.303426 0
M  V30 3150 H 301.041 4.62677 1.9733 0
M  V30 3151 H 300.741 5.83435 0.698397 0
M  V30 3152 H 302.265 5.88456 1.62947 0
M  V30 3153 H 303.679 5.69781 -0.634274 0
M  V30 3154 H 302.076 5.83203 -1.41399 0
M  V30 3155 H 303.146 4.48514 -1.84292 0
M  V30 3156 N 304.489 0.459591 1.5075 0
M  V30 3157 C 305.717 -0.0973749 2.06671 0
M  V30 3158 C 306.132 -1.34524 1.32472 0
M  V30 3159 O 305.489 -1.7827 0.390634 0
M  V30 3160 C 305.54 -0.39714 3.59312 0
M  V30 3161 O 305.261 0.801214 4.30711 0
M  V30 3162 C 306.762 -1.00234 4.31819 0
M  V30 3163 H 303.982 0.00195854 0.670997 0
M  V30 3164 H 306.526 0.645072 1.94059 0
M  V30 3165 H 304.681 -1.08951 3.71764 0
M  V30 3166 H 305.095 0.538857 5.21725 0
M  V30 3167 H 306.569 -1.16193 5.39632 0
M  V30 3168 H 307.046 -1.98939 3.91561 0
M  V30 3169 H 307.652 -0.348699 4.23868 0
M  V30 3170 N 305.967 -1.56429 0.191757 0
M  V30 3171 C 306.897 -2.21937 -0.725696 0
M  V30 3172 C 307.878 -1.1814 -1.2238 0
M  V30 3173 O 309.063 -1.46636 -1.27325 0
M  V30 3174 C 306.193 -2.87611 -1.94672 0
M  V30 3175 C 305.147 -3.97623 -1.58366 0
M  V30 3176 C 304.473 -4.50446 -2.88102 0
M  V30 3177 C 305.773 -5.16197 -0.796133 0
M  V30 3178 H 307.467 -2.98861 -0.179606 0
M  V30 3179 H 305.013 -1.43749 -0.0849464 0
M  V30 3180 H 306.966 -3.3212 -2.59373 0
M  V30 3181 H 305.69 -2.08087 -2.51728 0
M  V30 3182 H 304.349 -3.53801 -0.960247 0
M  V30 3183 H 303.997 -3.67688 -3.43241 0
M  V30 3184 H 303.697 -5.24675 -2.64556 0
M  V30 3185 H 305.221 -4.97654 -3.53798 0
M  V30 3186 H 306.635 -5.57271 -1.34618 0
M  V30 3187 H 305.032 -5.96471 -0.658928 0
M  V30 3188 H 306.102 -4.84473 0.203478 0
M  V30 3189 N 307.445 0.0818655 -1.57387 0
M  V30 3190 C 308.691 0.784074 -1.8703 0
M  V30 3191 C 309.024 1.77729 -0.782689 0
M  V30 3192 O 308.299 1.93384 0.208051 0
M  V30 3193 C 308.582 1.50105 -3.27323 0
M  V30 3194 C 308.435 0.524925 -4.46727 0
M  V30 3195 C 309.754 2.44843 -3.65705 0
M  V30 3196 H 306.873 0.283582 -0.680257 0
M  V30 3197 H 309.515 0.0474352 -1.89941 0
M  V30 3198 H 307.665 2.12897 -3.24972 0
M  V30 3199 H 309.337 -0.0970111 -4.61198 0
M  V30 3200 H 307.58 -0.160606 -4.33503 0
M  V30 3201 H 308.251 1.064 -5.41648 0
M  V30 3202 H 310.727 1.92135 -3.69085 0
M  V30 3203 H 309.603 2.92018 -4.64776 0
M  V30 3204 H 309.864 3.29197 -2.95096 0
M  V30 3205 N 308.923 1.53595 0.353017 0
M  V30 3206 C 309.853 1.83902 1.43883 0
M  V30 3207 C 310.834 0.693421 1.55324 0
M  V30 3208 O 312.019 0.944452 1.69687 0
M  V30 3209 C 309.149 2.04016 2.8106 0
M  V30 3210 C 308.103 3.19814 2.84434 0
M  V30 3211 C 307.429 3.25244 4.24406 0
M  V30 3212 C 308.729 4.58133 2.50822 0
M  V30 3213 H 310.423 2.74835 1.1877 0
M  V30 3214 H 307.969 1.32242 0.569917 0
M  V30 3215 H 309.922 2.238 3.57059 0
M  V30 3216 H 308.646 1.09804 3.07588 0
M  V30 3217 H 307.305 2.9987 2.10887 0
M  V30 3218 H 306.953 2.28646 4.48029 0
M  V30 3219 H 306.653 4.03054 4.27576 0
M  V30 3220 H 308.177 3.47228 5.0226 0
M  V30 3221 H 309.591 4.77995 3.16534 0
M  V30 3222 H 307.988 5.38276 2.6529 0
M  V30 3223 H 309.058 4.62387 1.46034 0
M  V30 3224 N 310.401 -0.613514 1.45168 0
M  V30 3225 C 311.629 -1.39946 1.5239 0
M  V30 3226 C 312.044 -1.88167 0.154531 0
M  V30 3227 O 311.401 -1.61872 -0.842843 0
M  V30 3228 C 311.452 -2.60795 2.50337 0
M  V30 3229 O 311.173 -2.1458 3.81952 0
M  V30 3230 C 312.674 -3.53723 2.67198 0
M  V30 3231 H 309.894 -0.428593 0.516284 0
M  V30 3232 H 312.438 -0.748753 1.903 0
M  V30 3233 H 310.593 -3.21919 2.15515 0
M  V30 3234 H 311.007 -2.93055 4.34993 0
M  V30 3235 H 312.481 -4.35079 3.39721 0
M  V30 3236 H 312.958 -4.0368 1.73029 0
M  V30 3237 H 313.564 -2.98456 3.02992 0
M  V30 3238 N 311.879 -1.3236 -0.855495 0
M  V30 3239 C 312.826 -1.21225 -1.964 0
M  V30 3240 C 313.796 -0.0946204 -1.6583 0
M  V30 3241 O 314.981 -0.27002 -1.8888 0
M  V30 3242 C 312.121 -0.940419 -3.32039 0
M  V30 3243 C 311.234 -2.14276 -3.75113 0
M  V30 3244 C 310.369 -1.80648 -4.9954 0
M  V30 3245 C 309.408 -2.97208 -5.35102 0
M  V30 3246 N 308.545 -2.63678 -6.50706 0
M  V30 3247 H 313.385 -2.16042 -2.05255 0
M  V30 3248 H 310.922 -1.07451 -1.00463 0
M  V30 3249 H 312.88 -0.763311 -4.10158 0
M  V30 3250 H 311.51 -0.0290413 -3.22787 0
M  V30 3251 H 310.562 -2.43017 -2.92655 0
M  V30 3252 H 311.874 -3.01468 -3.97389 0
M  V30 3253 H 311.028 -1.59484 -5.85363 0
M  V30 3254 H 309.767 -0.906678 -4.79198 0
M  V30 3255 H 308.772 -3.19004 -4.47791 0
M  V30 3256 H 309.997 -3.87918 -5.57401 0
M  V30 3257 H 307.943 -1.76238 -6.31883 0
M  V30 3258 H 307.86 -3.444 -6.72997 0
M  V30 3259 H 309.128 -2.45942 -7.39684 0
M  V30 3260 N 313.357 1.07166 -1.15556 0
M  V30 3261 C 314.597 1.81391 -0.94216 0
M  V30 3262 C 314.961 1.84788 0.521272 0
M  V30 3263 O 316.162 2.54904 0.85307 0
M  V30 3264 C 314.433 3.22431 -1.54185 0
M  V30 3265 S 315.992 4.13379 -1.47183 0
M  V30 3266 H 312.81 0.624963 -0.339031 0
M  V30 3267 H 315.412 1.28725 -1.4714 0
M  V30 3268 H 314.116 3.17548 -2.59984 0
M  V30 3269 H 313.647 3.80172 -1.01156 0
M  V30 3270 H 315.662 4.94007 -0.466004 0
M  V30 3271 N 314.835 0.952656 1.25548 0
M  V30 3272 C 316.083 0.605176 1.92826 0
M  V30 3273 C 316.404 -0.860261 1.74999 0
M  V30 3274 O 315.674 -1.6125 1.11244 0
M  V30 3275 H 314.254 0.220832 0.713612 0
M  V30 3276 H 316.916 1.21047 1.52754 0
M  V30 3277 H 316.012 0.832798 3.00784 0
M  V30 3278 N 316.313 -1.40141 0.720998 0
M  V30 3279 C 317.538 -2.05618 0.271258 0
M  V30 3280 C 317.963 -1.53978 -1.08039 0
M  V30 3281 O 317.321 -0.677463 -1.68167 0
M  V30 3282 C 317.369 -3.59609 0.267197 0
M  V30 3283 O 316.473 -4.05526 -0.749814 0
M  V30 3284 H 315.814 -0.651904 0.126162 0
M  V30 3285 H 318.344 -1.79439 0.982997 0
M  V30 3286 H 318.354 -4.0786 0.106744 0
M  V30 3287 H 317.029 -3.96559 1.25354 0
M  V30 3288 H 315.606 -3.68722 -0.556644 0
M  V30 3289 N 317.792 -0.46758 -1.50504 0
M  V30 3290 C 318.724 0.364655 -2.26281 0
M  V30 3291 C 319.737 0.960151 -1.31472 0
M  V30 3292 O 320.926 0.849153 -1.57008 0
M  V30 3293 C 318.026 1.52509 -3.02645 0
M  V30 3294 C 317.199 1.04302 -4.24782 0
M  V30 3295 C 316.258 2.07709 -4.8347 0
M  V30 3296 O 315.284 1.65913 -5.44483 0
M  V30 3297 N 316.486 3.40485 -4.70159 0
M  V30 3298 H 319.251 -0.28495 -2.98342 0
M  V30 3299 H 316.812 -0.298163 -1.59131 0
M  V30 3300 H 318.804 2.21371 -3.38787 0
M  V30 3301 H 317.374 2.07945 -2.33404 0
M  V30 3302 H 316.594 0.180393 -3.93787 0
M  V30 3303 H 317.882 0.698798 -5.03978 0
M  V30 3304 H 317.28 3.77155 -4.21629 0
M  V30 3305 H 315.837 4.05156 -5.1058 0
M  V30 3306 N 319.27 1.56325 -0.20005 0
M  V30 3307 C 320.519 1.96895 0.437652 0
M  V30 3308 C 320.832 1.08999 1.62415 0
M  V30 3309 O 322.038 1.39372 2.32997 0
M  V30 3310 C 320.494 3.50198 0.830025 0
M  V30 3311 C 320.102 4.46765 -0.332461 0
M  V30 3312 C 321.846 3.99526 1.43453 0
M  V30 3313 C 319.753 5.91344 0.0811468 0
M  V30 3314 H 318.683 0.735209 0.167282 0
M  V30 3315 H 321.334 1.81148 -0.292853 0
M  V30 3316 H 319.716 3.61467 1.61734 0
M  V30 3317 H 320.89 4.47231 -1.11 0
M  V30 3318 H 319.205 4.07657 -0.848789 0
M  V30 3319 H 321.802 5.05025 1.75652 0
M  V30 3320 H 322.145 3.44122 2.34277 0
M  V30 3321 H 322.678 3.91393 0.71109 0
M  V30 3322 H 319.417 6.50685 -0.793033 0
M  V30 3323 H 318.937 5.94121 0.823445 0
M  V30 3324 H 320.616 6.44945 0.515252 0
M  V30 3325 N 320.748 -0.0735177 1.57428 0
M  V30 3326 C 321.678 -1.0879 2.06608 0
M  V30 3327 C 322.659 -1.40473 0.959237 0
M  V30 3328 O 323.844 -1.5013 1.23185 0
M  V30 3329 C 320.974 -2.40183 2.50857 0
M  V30 3330 C 319.928 -2.22858 3.65402 0
M  V30 3331 C 319.254 -3.59619 3.957 0
M  V30 3332 C 320.554 -1.65123 4.95511 0
M  V30 3333 H 322.248 -0.678673 2.91607 0
M  V30 3334 H 319.794 -0.325013 1.40284 0
M  V30 3335 H 321.747 -3.11437 2.83874 0
M  V30 3336 H 320.471 -2.83083 1.62885 0
M  V30 3337 H 319.13 -1.54045 3.32664 0
M  V30 3338 H 318.778 -4.00086 3.04861 0
M  V30 3339 H 318.478 -3.48866 4.72828 0
M  V30 3340 H 320.002 -4.32306 4.31212 0
M  V30 3341 H 321.416 -2.26241 5.26771 0
M  V30 3342 H 319.813 -1.65071 5.7695 0
M  V30 3343 H 320.883 -0.612559 4.81015 0
M  V30 3344 N 322.226 -1.5378 -0.344866 0
M  V30 3345 C 323.189 -1.80981 -1.40637 0
M  V30 3346 C 324.189 -0.680816 -1.45676 0
M  V30 3347 O 325.379 -0.949095 -1.46075 0
M  V30 3348 C 322.511 -1.95063 -2.79577 0
M  V30 3349 H 323.704 -2.75803 -1.17783 0
M  V30 3350 H 321.257 -1.45173 -0.579181 0
M  V30 3351 H 321.992 -1.02379 -3.07716 0
M  V30 3352 H 321.777 -2.77198 -2.77315 0
M  V30 3353 H 323.267 -2.17629 -3.56409 0
M  V30 3354 N 323.704 0.605807 -1.45491 0
M  V30 3355 C 324.652 1.73754 -1.54636 0
M  V30 3356 C 325.646 1.64207 -0.416219 0
M  V30 3357 O 326.852 1.69979 -0.592199 0
M  V30 3358 H 323.227 0.574073 -0.485741 0
M  V30 3359 H 325.198 1.63169 -2.49837 0
M  V30 3360 C 323.947 3.12135 -1.53189 0
M  V30 3361 H 323.27 3.20141 -2.39478 0
M  V30 3362 H 324.71 3.91147 -1.63645 0
M  V30 3363 C 323.169 3.35921 -0.256616 0
M  V30 3364 O 323.699 3.96194 0.662798 0
M  V30 3365 N 321.905 2.90204 -0.151751 0
M  V30 3366 H 321.452 2.41336 -0.90081 0
M  V30 3367 H 321.41 3.06492 0.700699 0
M  V30 3368 N 325.182 1.32811 0.848464 0
M  V30 3369 C 326.428 1.23907 1.60546 0
M  V30 3370 C 326.761 -0.197161 1.93197 0
M  V30 3371 O 326.036 -1.13596 1.5788 0
M  V30 3372 C 326.319 2.10489 2.92175 0
M  V30 3373 C 326.172 3.62522 2.66266 0
M  V30 3374 C 327.491 1.97075 3.93509 0
M  V30 3375 H 324.61 0.451459 0.58254 0
M  V30 3376 H 327.252 1.62818 0.979296 0
M  V30 3377 H 325.402 1.77434 3.45614 0
M  V30 3378 H 327.074 4.05821 2.19334 0
M  V30 3379 H 325.317 3.84879 2.00126 0
M  V30 3380 H 325.988 4.18437 3.6002 0
M  V30 3381 H 328.464 2.26045 3.49346 0
M  V30 3382 H 327.34 2.59923 4.83457 0
M  V30 3383 H 327.601 0.940186 4.31987 0
M  V30 3384 N 326.66 -1.06551 1.16123 0
M  V30 3385 C 327.885 -1.83544 0.965735 0
M  V30 3386 C 328.31 -1.81843 -0.481102 0
M  V30 3387 O 327.668 -1.21732 -1.34354 0
M  V30 3388 C 327.716 -3.28169 1.49457 0
M  V30 3389 O 326.82 -4.0643 0.699157 0
M  V30 3390 H 326.161 -0.568026 0.343864 0
M  V30 3391 H 328.691 -1.34362 1.54299 0
M  V30 3392 H 328.701 -3.78992 1.51092 0
M  V30 3393 H 327.376 -3.28722 2.54784 0
M  V30 3394 H 325.953 -3.65216 0.7531 0
M  V30 3395 N 328.138 -0.959301 -1.25041 0
M  V30 3396 C 329.068 -0.501388 -2.28053 0
M  V30 3397 C 330.049 0.454673 -1.63911 0
M  V30 3398 O 331.234 0.352618 -1.90972 0
M  V30 3399 C 328.364 0.217224 -3.4662 0
M  V30 3400 C 327.318 -0.654034 -4.22973 0
M  V30 3401 C 326.644 0.195589 -5.34342 0
M  V30 3402 C 327.944 -1.93447 -4.85155 0
M  V30 3403 H 329.638 -1.36238 -2.66608 0
M  V30 3404 H 327.184 -0.656534 -1.28163 0
M  V30 3405 H 329.137 0.548732 -4.17812 0
M  V30 3406 H 327.861 1.1125 -3.07068 0
M  V30 3407 H 326.52 -0.968693 -3.5357 0
M  V30 3408 H 326.168 1.09076 -4.91031 0
M  V30 3409 H 325.868 -0.384091 -5.86343 0
M  V30 3410 H 327.392 0.521958 -6.08365 0
M  V30 3411 H 328.806 -1.66908 -5.48466 0
M  V30 3412 H 327.203 -2.46018 -5.47353 0
M  V30 3413 H 328.273 -2.63466 -4.07079 0
M  V30 3414 N 329.616 1.39756 -0.72842 0
M  V30 3415 C 330.865 1.99879 -0.270407 0
M  V30 3416 C 331.178 1.58449 1.14688 0
M  V30 3417 O 332.384 2.11362 1.70407 0
M  V30 3418 C 330.84 3.57292 -0.43252 0
M  V30 3419 C 330.448 4.07688 -1.85727 0
M  V30 3420 C 332.192 4.24485 -0.0359507 0
M  V30 3421 C 330.099 5.5765 -1.96928 0
M  V30 3422 H 329.029 0.747689 -0.0973472 0
M  V30 3423 H 331.68 1.59837 -0.901355 0
M  V30 3424 H 330.062 3.95097 0.267219 0
M  V30 3425 H 331.236 3.81231 -2.58843 0
M  V30 3426 H 329.551 3.53135 -2.20646 0
M  V30 3427 H 332.148 5.34609 -0.0987484 0
M  V30 3428 H 332.491 4.03915 1.00787 0
M  V30 3429 H 333.024 3.9183 -0.686604 0
M  V30 3430 H 329.763 5.8309 -2.99476 0
M  V30 3431 H 329.283 5.8593 -1.28241 0
M  V30 3432 H 330.962 6.22957 -1.74737 0
M  V30 3433 N 331.094 0.475555 1.50254 0
M  V30 3434 C 332.34 -0.0780073 2.0265 0
M  V30 3435 C 332.673 -1.38968 1.35652 0
M  V30 3436 O 331.948 -1.8839 0.483691 0
M  V30 3437 C 332.231 -0.257161 3.59181 0
M  V30 3438 C 332.084 1.07585 4.36744 0
M  V30 3439 C 333.403 -1.00965 4.28362 0
M  V30 3440 H 330.522 -0.0268758 0.73651 0
M  V30 3441 H 333.164 0.622015 1.7953 0
M  V30 3442 H 331.314 -0.853412 3.79011 0
M  V30 3443 H 332.986 1.70902 4.28474 0
M  V30 3444 H 331.229 1.6714 4.00308 0
M  V30 3445 H 331.9 0.904088 5.44546 0
M  V30 3446 H 334.376 -0.504214 4.13034 0
M  V30 3447 H 333.252 -1.10381 5.37687 0
M  V30 3448 H 333.513 -2.04731 3.91839 0
M  V30 3449 N 332.573 -1.56217 0.208337 0
M  V30 3450 C 333.819 -1.98242 -0.427552 0
M  V30 3451 C 334.152 -1.09554 -1.60348 0
M  V30 3452 O 333.427 -0.15035 -1.93918 0
M  V30 3453 C 333.71 -3.4931 -0.874907 0
M  V30 3454 C 333.563 -4.48773 0.303751 0
M  V30 3455 C 334.882 -4.04424 -1.73577 0
M  V30 3456 H 332.001 -0.720744 -0.153936 0
M  V30 3457 H 334.643 -1.87586 0.30192 0
M  V30 3458 H 332.793 -3.58522 -1.49648 0
M  V30 3459 H 334.465 -4.51586 0.941682 0
M  V30 3460 H 332.708 -4.23194 0.953375 0
M  V30 3461 H 333.379 -5.51976 -0.0519883 0
M  V30 3462 H 335.855 -3.98075 -1.21143 0
M  V30 3463 H 334.731 -5.1047 -2.01771 0
M  V30 3464 H 334.992 -3.50494 -2.69456 0
M  V30 3465 N 334.051 0.0651679 -1.57465 0
M  V30 3466 C 335.014 1.06117 -2.03155 0
M  V30 3467 C 336.014 1.31204 -0.929632 0
M  V30 3468 O 337.204 1.26813 -1.19432 0
M  V30 3469 C 334.336 2.4032 -2.41783 0
M  V30 3470 H 335.529 0.667231 -2.92383 0
M  V30 3471 H 333.082 0.311075 -1.53173 0
M  V30 3472 H 333.817 2.84532 -1.55601 0
M  V30 3473 H 333.602 2.23451 -3.22199 0
M  V30 3474 H 335.092 3.11898 -2.77685 0
M  V30 3475 N 335.529 1.53961 0.336706 0
M  V30 3476 C 336.777 1.71197 1.07405 0
M  V30 3477 C 337.098 0.481475 1.88962 0
M  V30 3478 O 336.368 -0.504585 1.8929 0
M  V30 3479 H 334.948 0.631185 0.399517 0
M  V30 3480 H 337.61 1.91232 0.376323 0
M  V30 3481 H 336.706 2.58587 1.74755 0
M  V30 3482 N 337.007 -0.598083 1.45811 0
M  V30 3483 C 337.954 -1.7082 1.55207 0
M  V30 3484 C 338.924 -1.61278 0.39732 0
M  V30 3485 O 340.109 -1.80717 0.612038 0
M  V30 3486 C 337.249 -3.09144 1.53376 0
M  V30 3487 C 336.362 -3.29423 2.79472 0
M  V30 3488 C 335.497 -4.57907 2.69248 0
M  V30 3489 C 334.536 -4.71476 3.90354 0
M  V30 3490 N 333.673 -5.9127 3.78608 0
M  V30 3491 H 338.513 -1.62125 2.50039 0
M  V30 3492 H 336.05 -0.790389 1.24062 0
M  V30 3493 H 338.008 -3.89186 1.50301 0
M  V30 3494 H 336.638 -3.16773 0.620876 0
M  V30 3495 H 335.69 -2.43091 2.92594 0
M  V30 3496 H 337.002 -3.3532 3.69272 0
M  V30 3497 H 336.156 -5.46157 2.64192 0
M  V30 3498 H 334.895 -4.54423 1.77063 0
M  V30 3499 H 333.9 -3.81648 3.95759 0
M  V30 3500 H 335.125 -4.76751 4.83617 0
M  V30 3501 H 333.071 -5.88813 2.89199 0
M  V30 3502 H 332.988 -5.98369 4.6205 0
M  V30 3503 H 334.256 -6.81992 3.77501 0
M  V30 3504 N 338.485 -1.33259 -0.841409 0
M  V30 3505 C 339.715 -1.2742 -1.62628 0
M  V30 3506 C 340.123 0.157604 -1.88542 0
M  V30 3507 O 339.466 1.10938 -1.46419 0
M  V30 3508 C 339.528 -1.97797 -3.00194 0
M  V30 3509 C 339.192 -3.47109 -2.97261 0
M  V30 3510 C 340.189 -4.42358 -2.73159 0
M  V30 3511 C 337.874 -3.89247 -3.17478 0
M  V30 3512 C 339.868 -5.77718 -2.69296 0
M  V30 3513 C 337.555 -5.24713 -3.13241 0
M  V30 3514 C 338.553 -6.1876 -2.89181 0
M  V30 3515 O 338.241 -7.51745 -2.84843 0
M  V30 3516 H 337.973 -0.440436 -0.512827 0
M  V30 3517 H 340.527 -1.76153 -1.05638 0
M  V30 3518 H 338.757 -1.43652 -3.59028 0
M  V30 3519 H 340.446 -1.8549 -3.61038 0
M  V30 3520 H 341.212 -4.11127 -2.57294 0
M  V30 3521 H 337.091 -3.16456 -3.35226 0
M  V30 3522 H 340.635 -6.51097 -2.50436 0
M  V30 3523 H 336.532 -5.55569 -3.28654 0
M  V30 3524 H 337.3 -7.61262 -3.00702 0
M  V30 3525 N 339.963 1.05934 -1.16686 0
M  V30 3526 C 340.913 2.11764 -0.844978 0
M  V30 3527 C 341.897 1.59922 0.177178 0
M  V30 3528 O 343.089 1.76983 -0.0241768 0
M  V30 3529 C 340.218 3.41493 -0.351812 0
M  V30 3530 C 339.304 4.00152 -1.40496 0
M  V30 3531 N 339.695 4.32874 -2.61636 0
M  V30 3532 C 337.993 4.278 -1.26106 0
M  V30 3533 C 338.694 4.79552 -3.29249 0
M  V30 3534 N 337.67 4.79211 -2.56628 0
M  V30 3535 H 341.472 2.34916 -1.76612 0
M  V30 3536 H 338.986 1.23511 -1.05446 0
M  V30 3537 H 340.983 4.16773 -0.102796 0
M  V30 3538 H 339.643 3.19778 0.56322 0
M  V30 3539 H 340.654 4.23109 -2.98663 0
M  V30 3540 H 337.331 4.15511 -0.407081 0
M  V30 3541 H 338.721 5.14045 -4.32675 0
M  V30 3542 N 341.441 0.965919 1.2453 0
M  V30 3543 C 342.69 0.622437 1.91856 0
M  V30 3544 C 343.003 -0.846006 1.76358 0
M  V30 3545 O 344.209 -1.29993 2.38357 0
M  V30 3546 C 342.665 1.0626 3.43856 0
M  V30 3547 C 342.273 2.55437 3.68043 0
M  V30 3548 C 344.017 0.792183 4.17043 0
M  V30 3549 C 341.924 2.93196 5.13605 0
M  V30 3550 H 340.854 0.229092 0.718354 0
M  V30 3551 H 343.505 1.17189 1.41206 0
M  V30 3552 H 341.887 0.441476 3.93531 0
M  V30 3553 H 343.061 3.22665 3.28974 0
M  V30 3554 H 341.376 2.8007 3.08139 0
M  V30 3555 H 343.973 1.05031 5.24283 0
M  V30 3556 H 344.316 -0.271584 4.15413 0
M  V30 3557 H 344.849 1.37419 3.73311 0
M  V30 3558 H 341.588 3.98636 5.20355 0
M  V30 3559 H 341.108 2.30651 5.53679 0
M  V30 3560 H 342.787 2.83004 5.81823 0
M  V30 3561 N 342.919 -1.39368 0.735821 0
M  V30 3562 C 344.168 -1.99733 0.281004 0
M  V30 3563 C 344.481 -1.59055 -1.13846 0
M  V30 3564 O 345.687 -2.12262 -1.69284 0
M  V30 3565 C 344.143 -3.57057 0.451462 0
M  V30 3566 C 343.751 -4.06697 1.87886 0
M  V30 3567 C 345.495 -4.2446 0.0584616 0
M  V30 3568 C 343.402 -5.56598 1.99883 0
M  V30 3569 H 342.332 -0.747163 0.101311 0
M  V30 3570 H 344.983 -1.59357 0.909819 0
M  V30 3571 H 343.365 -3.95234 -0.246263 0
M  V30 3572 H 344.539 -3.79853 2.60861 0
M  V30 3573 H 342.854 -3.5196 2.22515 0
M  V30 3574 H 345.451 -5.34549 0.127099 0
M  V30 3575 H 345.794 -4.04444 -0.986433 0
M  V30 3576 H 346.327 -3.9146 0.707374 0
M  V30 3577 H 343.066 -5.81494 3.02564 0
M  V30 3578 H 342.586 -5.85242 1.31346 0
M  V30 3579 H 344.265 -6.22022 1.78039 0
M  V30 3580 N 344.397 -0.483516 -1.5 0
M  V30 3581 C 345.345 0.318061 -2.30415 0
M  V30 3582 C 346.339 0.978988 -1.38247 0
M  V30 3583 O 347.545 0.908673 -1.55381 0
M  V30 3584 H 343.92 0.121419 -0.742133 0
M  V30 3585 H 345.891 -0.380403 -2.95965 0
M  V30 3586 C 344.64 1.38013 -3.19136 0
M  V30 3587 H 343.963 0.880952 -3.89973 0
M  V30 3588 H 345.403 1.91332 -3.78375 0
M  V30 3589 C 343.862 2.38884 -2.37563 0
M  V30 3590 O 344.392 3.44412 -2.06744 0
M  V30 3591 N 342.598 2.10912 -1.99911 0
M  V30 3592 H 342.145 1.25118 -2.25174 0
M  V30 3593 H 342.103 2.78635 -1.45636 0
M  V30 3594 N 345.875 1.56104 -0.216619 0
M  V30 3595 C 346.823 2.21434 0.712036 0
M  V30 3596 C 347.817 1.19218 1.20348 0
M  V30 3597 O 349.023 1.3731 1.16387 0
M  V30 3598 H 345.398 0.70992 0.248026 0
M  V30 3599 H 347.369 2.98083 0.137558 0
M  V30 3600 C 346.118 2.90434 1.91163 0
M  V30 3601 H 345.441 3.68842 1.54258 0
M  V30 3602 H 346.881 3.39552 2.5393 0
M  V30 3603 C 345.34 1.92635 2.76394 0
M  V30 3604 O 345.87 1.44017 3.74996 0
M  V30 3605 N 344.076 1.60392 2.42328 0
M  V30 3606 H 343.623 2.00122 1.622 0
M  V30 3607 H 343.581 0.952159 2.99635 0
M  V30 3608 N 347.353 -0.0568162 1.57498 0
M  V30 3609 C 348.3 -1.06591 2.04712 0
M  V30 3610 C 349.27 -1.3758 0.930644 0
M  V30 3611 O 350.455 -1.48392 1.19935 0
M  V30 3612 C 347.595 -2.3701 2.50839 0
M  V30 3613 C 346.708 -2.12421 3.76167 0
M  V30 3614 C 345.843 -3.36511 4.11015 0
M  V30 3615 C 344.882 -3.07353 5.2934 0
M  V30 3616 N 344.019 -4.23816 5.59754 0
M  V30 3617 H 348.859 -0.65631 2.90683 0
M  V30 3618 H 346.396 -0.312481 1.43743 0
M  V30 3619 H 348.354 -3.13175 2.7564 0
M  V30 3620 H 346.984 -2.75744 1.67825 0
M  V30 3621 H 346.036 -1.2688 3.58616 0
M  V30 3622 H 347.348 -1.86894 4.62463 0
M  V30 3623 H 346.502 -4.21062 4.36797 0
M  V30 3624 H 345.241 -3.65128 3.23315 0
M  V30 3625 H 344.246 -2.212 5.03339 0
M  V30 3626 H 345.471 -2.80043 6.1867 0
M  V30 3627 H 343.417 -4.52436 4.75014 0
M  V30 3628 H 343.334 -4.01614 6.40501 0
M  V30 3629 H 344.602 -5.0932 5.90096 0
M  V30 3630 N 348.832 -1.54138 -0.328536 0
M  V30 3631 C 350.06 -1.76062 -1.08673 0
M  V30 3632 C 350.475 -0.506852 -1.81869 0
M  V30 3633 O 349.832 0.522223 -1.74869 0
M  V30 3634 C 349.883 -2.95054 -2.08866 0
M  V30 3635 O 349.604 -4.15583 -1.38644 0
M  V30 3636 C 351.105 -3.2915 -2.96943 0
M  V30 3637 H 348.325 -0.587889 -0.323461 0
M  V30 3638 H 350.869 -2.0101 -0.376175 0
M  V30 3639 H 349.024 -2.72394 -2.75464 0
M  V30 3640 H 349.438 -4.82481 -2.05699 0
M  V30 3641 H 350.912 -4.15723 -3.63151 0
M  V30 3642 H 351.389 -2.461 -3.63774 0
M  V30 3643 H 351.995 -3.53871 -2.35914 0
M  V30 3644 N 350.31 0.590341 -1.46126 0
M  V30 3645 C 351.258 1.72105 -1.5647 0
M  V30 3646 C 352.252 1.63756 -0.433612 0
M  V30 3647 O 353.458 1.69342 -0.610194 0
M  V30 3648 H 349.833 0.568889 -0.491802 0
M  V30 3649 H 351.804 1.6051 -2.51553 0
M  V30 3650 C 350.553 3.10493 -1.56491 0
M  V30 3651 H 349.876 3.17583 -2.4286 0
M  V30 3652 H 351.316 3.8939 -1.67785 0
M  V30 3653 C 349.775 3.3563 -0.292231 0
M  V30 3654 O 350.305 3.96875 0.620739 0
M  V30 3655 N 348.511 2.90026 -0.182523 0
M  V30 3656 H 348.058 2.40367 -0.926356 0
M  V30 3657 H 348.016 3.07218 0.668152 0
M  V30 3658 N 351.788 1.33704 0.83433 0
M  V30 3659 C 353.199 1.22813 1.4062 0
M  V30 3660 C 353.55 -0.151107 1.95617 0
M  V30 3661 O 352.675 -1.05092 1.89168 0
M  V30 3662 C 353.27 2.22355 2.55624 0
M  V30 3663 C 351.829 2.1529 3.08751 0
M  V30 3664 C 350.976 2.09589 1.8157 0
M  V30 3665 H 353.927 1.45236 0.639702 0
M  V30 3666 H 353.948 1.83391 3.33389 0
M  V30 3667 H 353.46 3.22728 2.15566 0
M  V30 3668 H 351.561 1.18235 3.53343 0
M  V30 3669 H 351.674 3.06038 3.68616 0
M  V30 3670 H 350.038 1.55134 2.02004 0
M  V30 3671 H 350.821 3.11777 1.43701 0
M  V30 3672 N 353.266 -1.05314 1.17247 0
M  V30 3673 C 354.176 -2.16538 0.90268 0
M  V30 3674 C 355.192 -1.73523 -0.128707 0
M  V30 3675 O 356.368 -2.01337 0.0502701 0
M  V30 3676 C 353.433 -3.44167 0.418356 0
M  V30 3677 C 352.494 -4.01635 1.51618 0
M  V30 3678 C 351.727 -5.23171 1.05487 0
M  V30 3679 O 351.95 -5.70327 -0.0914715 0
M  V30 3680 O 350.884 -5.72848 1.8474 0
M  V30 3681 H 354.71 -2.42145 1.83302 0
M  V30 3682 H 352.295 -1.15037 0.953246 0
M  V30 3683 H 354.177 -4.21112 0.155726 0
M  V30 3684 H 352.852 -3.20063 -0.48385 0
M  V30 3685 H 351.759 -3.26135 1.83268 0
M  V30 3686 H 353.092 -4.30053 2.39405 0
M  V30 3687 N 354.744 -0.972509 -1.24016 0
M  V30 3688 C 355.993 -0.632603 -1.91523 0
M  V30 3689 C 356.306 0.836641 -1.76804 0
M  V30 3690 O 357.512 1.28728 -2.39043 0
M  V30 3691 C 355.968 -1.08082 -3.43287 0
M  V30 3692 C 355.576 -2.57386 -3.66683 0
M  V30 3693 C 357.32 -0.814288 -4.16617 0
M  V30 3694 C 355.227 -2.95915 -5.12043 0
M  V30 3695 H 354.157 -0.232898 -0.717129 0
M  V30 3696 H 356.808 -1.17936 -1.40582 0
M  V30 3697 H 355.19 -0.462339 -3.93292 0
M  V30 3698 H 356.364 -3.24405 -3.27258 0
M  V30 3699 H 354.679 -2.81701 -3.06649 0
M  V30 3700 H 357.276 -1.0781 -5.23718 0
M  V30 3701 H 357.619 0.24955 -4.15551 0
M  V30 3702 H 358.152 -1.39397 -3.72577 0
M  V30 3703 H 354.891 -4.0139 -5.18234 0
M  V30 3704 H 354.411 -2.33584 -5.52448 0
M  V30 3705 H 356.09 -2.86086 -5.80314 0
M  V30 3706 N 356.222 1.38976 -0.743202 0
M  V30 3707 C 357.169 2.30544 -0.10861 0
M  V30 3708 C 358.139 1.49642 0.720869 0
M  V30 3709 O 359.324 1.78304 0.679142 0
M  V30 3710 C 356.464 3.36018 0.786496 0
M  V30 3711 C 355.577 4.31963 -0.0564849 0
M  V30 3712 C 354.712 5.24506 0.840657 0
M  V30 3713 C 353.751 6.121 -0.00658363 0
M  V30 3714 N 352.888 6.96973 0.846943 0
M  V30 3715 H 357.728 2.8424 -0.895088 0
M  V30 3716 H 355.265 1.3995 -0.453048 0
M  V30 3717 H 357.223 3.95768 1.31999 0
M  V30 3718 H 355.853 2.83758 1.53887 0
M  V30 3719 H 354.905 3.73763 -0.707492 0
M  V30 3720 H 356.217 4.93703 -0.711229 0
M  V30 3721 H 355.371 5.89322 1.4417 0
M  V30 3722 H 354.11 4.63107 1.52916 0
M  V30 3723 H 353.115 5.46289 -0.620366 0
M  V30 3724 H 354.34 6.75565 -0.691992 0
M  V30 3725 H 352.286 6.38133 1.52059 0
M  V30 3726 H 352.203 7.5559 0.248864 0
M  V30 3727 H 353.471 7.6621 1.43328 0
M  V30 3728 N 357.7 0.491464 1.49741 0
M  V30 3729 C 358.925 -0.0557177 2.07325 0
M  V30 3730 C 359.35 -1.30925 1.35056 0
M  V30 3731 O 358.708 -1.76733 0.404365 0
M  V30 3732 C 358.756 -0.302074 3.59333 0
M  V30 3733 O 357.86 -1.37868 3.88672 0
M  V30 3734 H 357.201 0.0219956 0.663636 0
M  V30 3735 H 359.731 0.688352 1.92673 0
M  V30 3736 H 359.741 -0.536464 4.04458 0
M  V30 3737 H 358.416 0.61383 4.11345 0
M  V30 3738 H 356.993 -1.12999 3.55367 0
M  V30 3739 N 359.178 -1.55987 0.224894 0
M  V30 3740 C 360.425 -1.9839 -0.4059 0
M  V30 3741 C 360.753 -1.11261 -1.59535 0
M  V30 3742 O 360.008 -0.158314 -1.95059 0
M  V30 3743 C 360.307 -3.46394 -0.880106 0
M  V30 3744 C 359.973 -4.5046 0.19918 0
M  V30 3745 C 358.635 -4.7864 0.495661 0
M  V30 3746 C 360.987 -5.12855 0.928939 0
M  V30 3747 C 358.315 -5.66497 1.52636 0
M  V30 3748 C 360.667 -6.01828 1.949 0
M  V30 3749 C 359.331 -6.28351 2.25236 0
M  V30 3750 H 358.601 -0.725961 -0.148529 0
M  V30 3751 H 361.248 -1.88668 0.328113 0
M  V30 3752 H 359.553 -3.53337 -1.69294 0
M  V30 3753 H 361.25 -3.76577 -1.37808 0
M  V30 3754 H 357.84 -4.28579 -0.0420526 0
M  V30 3755 H 362.024 -4.9115 0.713129 0
M  V30 3756 H 357.28 -5.8531 1.76698 0
M  V30 3757 H 361.454 -6.49225 2.51951 0
M  V30 3758 H 359.081 -6.96226 3.05244 0
M  V30 3759 N 360.656 0.0484629 -1.57525 0
M  V30 3760 C 361.884 0.755421 -1.92616 0
M  V30 3761 C 362.299 1.69919 -0.822984 0
M  V30 3762 O 361.656 1.81378 0.202085 0
M  V30 3763 C 361.707 1.52915 -3.27566 0
M  V30 3764 O 361.428 0.62329 -4.33644 0
M  V30 3765 C 362.929 2.33502 -3.76818 0
M  V30 3766 H 360.149 0.213465 -0.63614 0
M  V30 3767 H 362.693 0.0117698 -2.04497 0
M  V30 3768 H 360.848 2.22486 -3.17142 0
M  V30 3769 H 361.262 1.16383 -5.11425 0
M  V30 3770 H 362.736 2.83214 -4.73808 0
M  V30 3771 H 363.213 3.14068 -3.07014 0
M  V30 3772 H 363.819 1.69043 -3.90262 0
M  V30 3773 N 362.134 1.5431 0.320358 0
M  V30 3774 C 363.383 1.7188 1.05546 0
M  V30 3775 C 363.696 0.501143 1.89071 0
M  V30 3776 O 364.902 0.558258 2.65699 0
M  V30 3777 C 363.358 3.04025 1.92605 0
M  V30 3778 C 362.966 4.33207 1.14176 0
M  V30 3779 C 364.71 3.30959 2.65832 0
M  V30 3780 C 362.617 5.56412 2.00399 0
M  V30 3781 H 361.547 0.640547 0.397763 0
M  V30 3782 H 364.198 1.80802 0.313522 0
M  V30 3783 H 362.58 2.89019 2.7071 0
M  V30 3784 H 363.754 4.58989 0.40819 0
M  V30 3785 H 362.069 4.13062 0.526165 0
M  V30 3786 H 364.666 4.20203 3.30656 0
M  V30 3787 H 365.009 2.48979 3.33639 0
M  V30 3788 H 365.542 3.46847 1.94787 0
M  V30 3789 H 362.281 6.41004 1.37094 0
M  V30 3790 H 361.801 5.34844 2.7148 0
M  V30 3791 H 363.48 5.92938 2.58908 0
M  V30 3792 N 363.613 -0.582584 1.46437 0
M  V30 3793 C 364.56 -1.69164 1.5701 0
M  V30 3794 C 365.53 -1.60847 0.414403 0
M  V30 3795 O 366.715 -1.80058 0.631171 0
M  V30 3796 C 363.855 -3.075 1.56646 0
M  V30 3797 C 362.968 -3.2644 2.82951 0
M  V30 3798 C 362.103 -4.55026 2.7409 0
M  V30 3799 C 361.142 -4.6731 3.95333 0
M  V30 3800 N 360.279 -5.87221 3.84858 0
M  V30 3801 H 365.119 -1.59464 2.51744 0
M  V30 3802 H 362.656 -0.777186 1.24893 0
M  V30 3803 H 364.614 -3.8757 1.5442 0
M  V30 3804 H 363.244 -3.16096 0.654439 0
M  V30 3805 H 362.296 -2.39974 2.95155 0
M  V30 3806 H 363.608 -3.31385 3.72808 0
M  V30 3807 H 362.762 -5.43324 2.6997 0
M  V30 3808 H 361.501 -4.52519 1.81873 0
M  V30 3809 H 360.506 -3.77429 3.99784 0
M  V30 3810 H 361.731 -4.71595 4.88646 0
M  V30 3811 H 359.677 -5.85712 2.95427 0
M  V30 3812 H 359.594 -5.93435 4.6837 0
M  V30 3813 H 360.862 -6.7795 3.84713 0
M  V30 3814 N 365.091 -1.34144 -0.827227 0
M  V30 3815 C 366.021 -1.28005 -1.95287 0
M  V30 3816 C 367.002 -0.158321 -1.69362 0
M  V30 3817 O 368.187 -0.349987 -1.9102 0
M  V30 3818 C 365.317 -1.03036 -3.31664 0
M  V30 3819 C 364.271 -2.11628 -3.72019 0
M  V30 3820 C 363.597 -1.71854 -5.0633 0
M  V30 3821 C 364.897 -3.53417 -3.8457 0
M  V30 3822 H 366.591 -2.22187 -2.00682 0
M  V30 3823 H 364.137 -1.0696 -0.964135 0
M  V30 3824 H 366.09 -0.973863 -4.09993 0
M  V30 3825 H 364.814 -0.0529391 -3.26557 0
M  V30 3826 H 363.473 -2.16339 -2.95961 0
M  V30 3827 H 363.121 -0.727841 -4.97706 0
M  V30 3828 H 362.821 -2.44531 -5.34302 0
M  V30 3829 H 364.345 -1.67692 -5.87122 0
M  V30 3830 H 365.759 -3.51142 -4.5318 0
M  V30 3831 H 364.156 -4.24679 -4.2399 0
M  V30 3832 H 365.226 -3.91072 -2.86689 0
M  V30 3833 N 366.569 1.04691 -1.17803 0
M  V30 3834 C 367.499 2.14494 -0.92275 0
M  V30 3835 C 368.48 1.69546 0.137179 0
M  V30 3836 O 369.665 1.94195 -0.0141108 0
M  V30 3837 C 366.795 3.44491 -0.440803 0
M  V30 3838 C 365.749 4.03031 -1.4405 0
M  V30 3839 C 365.075 5.28432 -0.81631 0
M  V30 3840 C 366.375 4.39932 -2.81527 0
M  V30 3841 H 368.069 2.36107 -1.84103 0
M  V30 3842 H 365.615 1.1347 -0.886599 0
M  V30 3843 H 367.568 4.2066 -0.249602 0
M  V30 3844 H 366.292 3.22546 0.513025 0
M  V30 3845 H 364.951 3.28937 -1.61853 0
M  V30 3846 H 364.599 5.02792 0.144511 0
M  V30 3847 H 364.299 5.68559 -1.48371 0
M  V30 3848 H 365.823 6.07284 -0.635496 0
M  V30 3849 H 367.237 5.07113 -2.67412 0
M  V30 3850 H 365.634 4.9109 -3.44892 0
M  V30 3851 H 366.704 3.50045 -3.35554 0
M  V30 3852 N 368.047 0.979072 1.23499 0
M  V30 3853 C 369.294 0.647219 1.91878 0
M  V30 3854 C 369.622 -0.819074 1.76413 0
M  V30 3855 O 368.877 -1.60616 1.11808 0
M  V30 3856 C 369.176 0.981932 3.43646 0
M  V30 3857 C 368.842 2.43822 3.79291 0
M  V30 3858 C 367.504 2.83622 3.88731 0
M  V30 3859 C 369.856 3.3828 3.96505 0
M  V30 3860 C 367.184 4.16897 4.12812 0
M  V30 3861 C 369.536 4.71197 4.22085 0
M  V30 3862 C 368.2 5.10758 4.29747 0
M  V30 3863 H 367.47 0.236834 0.702133 0
M  V30 3864 H 370.117 1.23268 1.46551 0
M  V30 3865 H 368.422 0.314365 3.90537 0
M  V30 3866 H 370.119 0.703395 3.94783 0
M  V30 3867 H 366.709 2.11966 3.72516 0
M  V30 3868 H 370.893 3.0871 3.88603 0
M  V30 3869 H 366.149 4.47157 4.16966 0
M  V30 3870 H 370.323 5.44348 4.34348 0
M  V30 3871 H 367.95 6.1405 4.48159 0
M  V30 3872 N 369.525 -1.3858 0.750561 0
M  V30 3873 C 370.473 -2.32339 0.110162 0
M  V30 3874 C 371.467 -1.53864 -0.708674 0
M  V30 3875 O 372.673 -1.69417 -0.608112 0
M  V30 3876 H 369.048 -0.751812 0.0168275 0
M  V30 3877 H 371.019 -2.83959 0.917053 0
M  V30 3878 C 369.768 -3.39043 -0.771067 0
M  V30 3879 H 369.091 -3.99517 -0.150374 0
M  V30 3880 H 370.531 -4.07061 -1.1865 0
M  V30 3881 C 368.99 -2.77365 -1.91234 0
M  V30 3882 O 369.52 -2.66434 -3.00626 0
M  V30 3883 N 367.726 -2.35219 -1.70646 0
M  V30 3884 H 367.273 -2.4431 -0.81673 0
M  V30 3885 H 367.231 -1.94294 -2.47178 0
M  V30 3886 N 371.003 -0.499398 -1.49478 0
M  V30 3887 C 371.95 0.279881 -2.29097 0
M  V30 3888 C 372.92 0.961805 -1.3542 0
M  V30 3889 O 374.105 0.968777 -1.64376 0
M  V30 3890 C 371.245 1.33932 -3.18051 0
M  V30 3891 C 370.358 0.669333 -4.26783 0
M  V30 3892 C 369.493 1.70907 -5.02955 0
M  V30 3893 C 368.532 1.02087 -6.03527 0
M  V30 3894 N 367.669 2.00474 -6.7287 0
M  V30 3895 H 372.509 -0.405317 -2.95231 0
M  V30 3896 H 370.046 -0.211726 -1.45568 0
M  V30 3897 H 372.004 1.96553 -3.67998 0
M  V30 3898 H 370.634 1.9933 -2.53904 0
M  V30 3899 H 369.686 -0.0701234 -3.80335 0
M  V30 3900 H 370.998 0.127503 -4.98637 0
M  V30 3901 H 370.152 2.41037 -5.56764 0
M  V30 3902 H 368.891 2.28476 -4.30871 0
M  V30 3903 H 367.896 0.305338 -5.48951 0
M  V30 3904 H 369.121 0.451708 -6.77596 0
M  V30 3905 H 367.067 2.57007 -6.03559 0
M  V30 3906 H 366.984 1.51353 -7.40694 0
M  V30 3907 H 368.252 2.69897 -7.31284 0
M  V30 3908 N 372.481 1.55866 -0.233164 0
M  V30 3909 C 373.429 2.22176 0.68851 0
M  V30 3910 C 374.423 1.20487 1.19076 0
M  V30 3911 O 375.629 1.38536 1.14925 0
M  V30 3912 H 372.004 0.712511 0.240483 0
M  V30 3913 H 373.975 2.98212 0.105935 0
M  V30 3914 C 372.724 2.92446 1.88071 0
M  V30 3915 H 372.047 3.70458 1.50337 0
M  V30 3916 H 373.487 3.42226 2.50314 0
M  V30 3917 C 371.946 1.95555 2.74335 0
M  V30 3918 O 372.476 1.47986 3.73447 0
M  V30 3919 N 370.682 1.62953 2.40613 0
M  V30 3920 H 370.229 2.01831 1.60069 0
M  V30 3921 H 370.187 0.983886 2.98609 0
M  V30 3922 N 373.959 -0.0401083 1.57549 0
M  V30 3923 C 375.207 -0.731677 1.8839 0
M  V30 3924 C 375.528 -1.76481 0.829425 0
M  V30 3925 O 374.798 -1.95411 -0.1383 0
M  V30 3926 H 373.378 -0.273225 0.695239 0
M  V30 3927 H 376.04 -0.00867725 1.94898 0
M  V30 3928 H 375.136 -1.22816 2.86919 0
M  V30 3929 N 375.437 -1.54477 -0.31217 0
M  V30 3930 C 376.683 -1.73483 -1.0503 0
M  V30 3931 C 377.016 -0.513125 -1.87298 0
M  V30 3932 O 376.291 0.489864 -1.8823 0
M  V30 3933 C 376.574 -3.01723 -1.96558 0
M  V30 3934 C 376.427 -4.3417 -1.17545 0
M  V30 3935 C 377.746 -3.25772 -2.95907 0
M  V30 3936 H 374.865 -0.631222 -0.380432 0
M  V30 3937 H 377.507 -1.87184 -0.325932 0
M  V30 3938 H 375.657 -2.90174 -2.58324 0
M  V30 3939 H 377.329 -4.5762 -0.581513 0
M  V30 3940 H 375.572 -4.31159 -0.477925 0
M  V30 3941 H 376.243 -5.20143 -1.84811 0
M  V30 3942 H 378.719 -3.36857 -2.44267 0
M  V30 3943 H 377.595 -4.16838 -3.57123 0
M  V30 3944 H 377.856 -2.43537 -3.68974 0
M  V30 3945 N 376.915 0.57481 -1.46744 0
M  V30 3946 C 377.845 1.69337 -1.60771 0
M  V30 3947 C 378.826 1.63825 -0.457736 0
M  V30 3948 O 380.011 1.8172 -0.684947 0
M  V30 3949 C 377.141 3.0798 -1.60517 0
M  V30 3950 C 376.095 3.28327 -2.74564 0
M  V30 3951 C 375.421 4.67578 -2.59373 0
M  V30 3952 C 376.721 3.15398 -4.16319 0
M  V30 3953 H 378.415 1.57853 -2.54407 0
M  V30 3954 H 375.961 0.75799 -1.22436 0
M  V30 3955 H 377.914 3.86061 -1.68923 0
M  V30 3956 H 376.638 3.20381 -0.634305 0
M  V30 3957 H 375.297 2.52649 -2.65639 0
M  V30 3958 H 374.945 4.76755 -1.60353 0
M  V30 3959 H 374.645 4.82144 -3.35873 0
M  V30 3960 H 376.169 5.47817 -2.69682 0
M  V30 3961 H 377.583 3.83315 -4.26313 0
M  V30 3962 H 375.98 3.41482 -4.93468 0
M  V30 3963 H 377.05 2.12372 -4.3592 0
M  V30 3964 N 378.394 1.34581 0.820102 0
M  V30 3965 C 379.324 1.29038 1.94606 0
M  V30 3966 C 380.305 0.1673 1.69275 0
M  V30 3967 O 381.49 0.360112 1.90832 0
M  V30 3968 C 378.62 1.04793 3.31113 0
M  V30 3969 C 377.574 2.13597 3.70891 0
M  V30 3970 C 376.9 1.74537 5.05412 0
M  V30 3971 C 378.2 3.55451 3.8269 0
M  V30 3972 H 379.894 2.23248 1.99501 0
M  V30 3973 H 377.44 1.0747 0.958449 0
M  V30 3974 H 379.393 0.995592 4.0947 0
M  V30 3975 H 378.117 0.0702565 3.26524 0
M  V30 3976 H 376.776 2.17905 2.9481 0
M  V30 3977 H 376.424 0.754226 4.97313 0
M  V30 3978 H 376.124 2.47361 5.32997 0
M  V30 3979 H 377.648 1.70803 5.86224 0
M  V30 3980 H 379.062 3.5354 4.51312 0
M  V30 3981 H 377.459 4.26922 4.21732 0
M  V30 3982 H 378.529 3.92587 2.84611 0
M  V30 3983 N 379.872 -1.04064 1.18357 0
M  V30 3984 C 381.149 -1.74252 0.888581 0
M  V30 3985 C 381.529 -2.02138 -0.60856 0
M  V30 3986 O 380.877 -1.66656 -1.56327 0
M  V30 3987 C 381.087 -3.0277 1.73584 0
M  V30 3988 C 382.435 -3.76506 1.96286 0
M  V30 3989 O 383.459 -3.12668 1.70637 0
M  V30 3990 O 382.318 -4.91243 2.39464 0
M  V30 3991 H 379.412 -0.758271 0.330082 0
M  V30 3992 H 381.958 -1.1013 1.2911 0
M  V30 3993 H 380.73 -2.78299 2.75073 0
M  V30 3994 H 380.353 -3.74631 1.33183 0
M  V30 3995 N 381.35 -0.985608 -1.22978 0
M  V30 3996 C 382.298 -0.522631 -2.26652 0
M  V30 3997 C 383.292 0.422998 -1.64034 0
M  V30 3998 O 384.498 0.296319 -1.77544 0
M  V30 3999 H 380.873 -0.150597 -0.736766 0
M  V30 4000 H 382.844 -1.40863 -2.63059 0
M  V30 4001 C 381.593 0.154238 -3.47358 0
M  V30 4002 H 380.916 -0.564329 -3.95797 0
M  V30 4003 H 382.356 0.441744 -4.21693 0
M  V30 4004 C 380.815 1.38719 -3.07016 0
M  V30 4005 O 381.345 2.48307 -3.15764 0
M  V30 4006 N 379.551 1.25975 -2.61875 0
M  V30 4007 H 379.098 0.368068 -2.54957 0
M  V30 4008 H 379.056 2.08578 -2.3525 0
M  V30 4009 N 382.828 1.3818 -0.7579 0
M  V30 4010 C 384.053 2.04827 -0.325679 0
M  V30 4011 C 384.478 1.56788 1.03919 0
M  V30 4012 O 383.836 0.721811 1.66312 0
M  V30 4013 C 383.884 3.58774 -0.362447 0
M  V30 4014 O 382.988 4.07372 0.642033 0
M  V30 4015 H 382.329 0.64833 -0.143402 0
M  V30 4016 H 384.859 1.7677 -1.03023 0
M  V30 4017 H 384.869 4.07434 -0.214844 0
M  V30 4018 H 383.544 3.93096 -1.35824 0
M  V30 4019 H 382.121 3.70068 0.458688 0
M  V30 4020 N 384.306 0.507319 1.49211 0
M  V30 4021 C 385.254 -0.281364 2.30892 0
M  V30 4022 C 386.248 -0.95687 1.39787 0
M  V30 4023 O 387.454 -0.883838 1.56807 0
M  V30 4024 H 383.829 -0.109597 0.743971 0
M  V30 4025 H 385.8 0.42744 2.95323 0
M  V30 4026 C 384.549 -1.32918 3.21291 0
M  V30 4027 H 383.872 -0.818799 3.91326 0
M  V30 4028 H 385.312 -1.85288 3.81372 0
M  V30 4029 C 383.771 -2.35074 2.41333 0
M  V30 4030 O 384.301 -3.4108 2.12197 0
M  V30 4031 N 382.507 -2.07705 2.03241 0
M  V30 4032 H 382.054 -1.2152 2.27136 0
M  V30 4033 H 382.012 -2.76283 1.50051 0
M  V30 4034 N 385.784 -1.5574 0.241426 0
M  V30 4035 C 386.714 -2.24133 -0.654722 0
M  V30 4036 C 387.695 -1.21974 -1.1856 0
M  V30 4037 O 388.88 -1.50612 -1.22595 0
M  V30 4038 C 386.01 -2.93659 -1.85423 0
M  V30 4039 C 384.964 -4.0246 -1.45636 0
M  V30 4040 C 384.29 -4.59383 -2.73626 0
M  V30 4041 C 385.59 -5.18468 -0.631506 0
M  V30 4042 H 387.284 -2.99281 -0.0844353 0
M  V30 4043 H 384.83 -1.43947 -0.0391707 0
M  V30 4044 H 386.783 -3.40203 -2.48676 0
M  V30 4045 H 385.507 -2.15991 -2.44981 0
M  V30 4046 H 384.166 -3.56676 -0.847202 0
M  V30 4047 H 383.814 -3.78422 -3.3137 0
M  V30 4048 H 383.514 -5.32826 -2.4773 0
M  V30 4049 H 385.038 -5.08658 -3.37786 0
M  V30 4050 H 386.452 -5.61272 -1.1682 0
M  V30 4051 H 384.849 -5.98266 -0.468831 0
M  V30 4052 H 385.919 -4.8358 0.357506 0
M  V30 4053 N 387.262 0.0317525 -1.57568 0
M  V30 4054 C 388.51 0.721676 -1.88776 0
M  V30 4055 C 388.831 1.76039 -0.838772 0
M  V30 4056 O 388.101 1.95482 0.127935 0
M  V30 4057 H 386.681 0.269534 -0.696678 0
M  V30 4058 H 389.343 -0.00165879 -1.949 0
M  V30 4059 H 388.439 1.21293 -2.87566 0
M  V30 4060 N 388.74 1.54641 0.303973 0
M  V30 4061 C 389.687 1.85386 1.37479 0
M  V30 4062 C 390.657 0.702528 1.50512 0
M  V30 4063 O 391.842 0.950867 1.65418 0
M  V30 4064 C 388.982 2.10413 2.73533 0
M  V30 4065 C 388.095 3.38049 2.68974 0
M  V30 4066 C 387.23 3.52934 3.97002 0
M  V30 4067 C 386.269 4.74373 3.86829 0
M  V30 4068 N 385.406 4.8608 5.06627 0
M  V30 4069 H 390.246 2.76732 1.1056 0
M  V30 4070 H 387.783 1.37034 0.534805 0
M  V30 4071 H 389.741 2.22919 3.52652 0
M  V30 4072 H 388.371 1.22338 2.98719 0
M  V30 4073 H 387.423 3.3418 1.81736 0
M  V30 4074 H 388.735 4.27288 2.57346 0
M  V30 4075 H 387.889 3.65088 4.84557 0
M  V30 4076 H 386.628 2.61824 4.1146 0
M  V30 4077 H 385.633 4.62255 2.97658 0
M  V30 4078 H 386.858 5.66888 3.73918 0
M  V30 4079 H 384.804 3.97891 5.21554 0
M  V30 4080 H 384.721 5.69315 4.9741 0
M  V30 4081 H 385.989 5.02587 5.95841 0
M  V30 4082 N 390.218 -0.567019 1.47046 0
M  V30 4083 C 391.181 -1.65696 1.58359 0
M  V30 4084 C 392.181 -1.54097 0.459441 0
M  V30 4085 O 393.371 -1.58432 0.724225 0
M  V30 4086 C 390.503 -3.05197 1.51879 0
M  V30 4087 H 391.696 -1.57019 2.5551 0
M  V30 4088 H 389.249 -0.786148 1.3509 0
M  V30 4089 H 389.984 -3.19417 0.560673 0
M  V30 4090 H 389.769 -3.15025 2.33455 0
M  V30 4091 H 391.259 -3.84511 1.62913 0
M  V30 4092 N 391.696 -1.35014 -0.812953 0
M  V30 4093 C 392.926 -1.30841 -1.59888 0
M  V30 4094 C 393.334 0.117576 -1.88834 0
M  V30 4095 O 392.677 1.07807 -1.48739 0
M  V30 4096 C 392.739 -2.0412 -2.95931 0
M  V30 4097 C 392.403 -3.53336 -2.89832 0
M  V30 4098 C 393.4 -4.48052 -2.63714 0
M  V30 4099 C 391.085 -3.95894 -3.0915 0
M  V30 4100 C 393.079 -5.833 -2.56982 0
M  V30 4101 C 390.766 -5.31239 -3.0204 0
M  V30 4102 C 391.764 -6.24754 -2.75991 0
M  V30 4103 O 391.452 -7.57617 -2.68833 0
M  V30 4104 H 391.184 -0.451215 -0.50337 0
M  V30 4105 H 393.738 -1.78354 -1.01877 0
M  V30 4106 H 391.968 -1.51235 -3.559 0
M  V30 4107 H 393.657 -1.93107 -3.57022 0
M  V30 4108 H 394.423 -4.16492 -2.48515 0
M  V30 4109 H 390.302 -3.23495 -3.28438 0
M  V30 4110 H 393.846 -6.56263 -2.36569 0
M  V30 4111 H 389.743 -5.62415 -3.16796 0
M  V30 4112 H 390.511 -7.67469 -2.84487 0
M  V30 4113 N 393.175 1.03435 -1.18907 0
M  V30 4114 C 394.421 1.7713 -0.99982 0
M  V30 4115 C 394.776 1.86695 0.465049 0
M  V30 4116 O 394.069 1.36866 1.34083 0
M  V30 4117 C 394.263 3.19792 -1.59586 0
M  V30 4118 C 394.092 3.24134 -3.11717 0
M  V30 4119 C 392.862 3.32398 -3.80578 0
M  V30 4120 C 395.06 3.11625 -4.09138 0
M  V30 4121 N 393.042 3.26055 -5.20155 0
M  V30 4122 C 394.413 3.12855 -5.35277 0
M  V30 4123 C 396.468 2.95713 -4.00572 0
M  V30 4124 C 395.171 2.99805 -6.53842 0
M  V30 4125 C 397.197 2.84011 -5.1874 0
M  V30 4126 C 396.559 2.8589 -6.43775 0
M  V30 4127 H 392.658 0.659683 -0.419931 0
M  V30 4128 H 395.242 1.2317 -1.50789 0
M  V30 4129 H 393.413 3.72085 -1.11389 0
M  V30 4130 H 395.145 3.81819 -1.3415 0
M  V30 4131 H 391.9 3.38392 -3.31342 0
M  V30 4132 H 392.324 3.26307 -5.93172 0
M  V30 4133 H 396.966 2.93086 -3.0473 0
M  V30 4134 H 394.684 3.01184 -7.49876 0
M  V30 4135 H 398.27 2.72744 -5.13909 0
M  V30 4136 H 397.15 2.76931 -7.33675 0
M  V30 4137 N 394.653 0.992116 1.22453 0
M  V30 4138 C 395.601 0.534644 2.26372 0
M  V30 4139 C 396.595 -0.414293 1.64256 0
M  V30 4140 O 397.801 -0.286899 1.77699 0
M  V30 4141 H 394.176 0.154502 0.735957 0
M  V30 4142 H 396.147 1.42256 2.62309 0
M  V30 4143 C 394.896 -0.135815 3.47435 0
M  V30 4144 H 394.219 0.585311 3.95492 0
M  V30 4145 H 395.659 -0.419374 4.21921 0
M  V30 4146 C 394.118 -1.37089 3.07747 0
M  V30 4147 O 394.648 -2.46629 3.17076 0
M  V30 4148 N 392.854 -1.24585 2.62539 0
M  V30 4149 H 392.401 -0.354542 2.55149 0
M  V30 4150 H 392.359 -2.07327 2.36353 0
M  V30 4151 N 396.131 -1.37776 0.765217 0
M  V30 4152 C 397.378 -1.99849 0.326588 0
M  V30 4153 C 397.706 -1.60746 -1.09504 0
M  V30 4154 O 396.961 -0.84202 -1.76659 0
M  V30 4155 C 397.26 -3.5504 0.410053 0
M  V30 4156 C 396.926 -4.13891 1.78899 0
M  V30 4157 C 395.588 -4.29678 2.16635 0
M  V30 4158 C 397.94 -4.46236 2.69301 0
M  V30 4159 C 395.268 -4.7511 3.44221 0
M  V30 4160 C 397.62 -4.93089 3.9629 0
M  V30 4161 C 396.284 -5.07082 4.34078 0
M  V30 4162 H 395.554 -0.7313 0.119507 0
M  V30 4163 H 398.201 -1.64645 0.977968 0
M  V30 4164 H 396.506 -3.90451 -0.324878 0
M  V30 4165 H 398.203 -4.00966 0.0520699 0
M  V30 4166 H 394.793 -4.02026 1.48569 0
M  V30 4167 H 398.977 -4.3363 2.41409 0
M  V30 4168 H 394.233 -4.84129 3.73402 0
M  V30 4169 H 398.407 -5.17084 4.66472 0
M  V30 4170 H 396.034 -5.42046 5.33001 0
M  V30 4171 N 397.609 -0.515225 -1.4894 0
M  V30 4172 C 399.025 -0.172099 -1.58669 0
M  V30 4173 C 399.225 1.32405 -1.51892 0
M  V30 4174 O 398.281 2.10116 -1.40027 0
M  V30 4175 C 399.594 -0.761533 -2.90897 0
M  V30 4176 C 401.142 -0.728926 -3.04394 0
M  V30 4177 C 401.617 -1.29667 -4.39261 0
M  V30 4178 N 403.108 -1.25799 -4.4579 0
M  V30 4179 C 403.843 -1.66733 -5.48623 0
M  V30 4180 N 403.339 -2.15327 -6.58488 0
M  V30 4181 N 405.132 -1.58061 -5.39419 0
M  V30 4182 H 397.283 -1.48778 -1.51588 0
M  V30 4183 H 399.546 -0.617968 -0.718901 0
M  V30 4184 H 399.252 -1.81136 -3.01468 0
M  V30 4185 H 399.126 -0.230106 -3.76497 0
M  V30 4186 H 401.513 0.312098 -2.93445 0
M  V30 4187 H 401.594 -1.29766 -2.20442 0
M  V30 4188 H 401.238 -2.33655 -4.50963 0
M  V30 4189 H 401.168 -0.703752 -5.21876 0
M  V30 4190 H 403.659 -0.902102 -3.66975 0
M  V30 4191 H 403.972 -2.44594 -7.33071 0
M  V30 4192 H 402.317 -2.19311 -6.59491 0
M  V30 4193 H 405.508 -1.19906 -4.52482 0
M  V30 4194 H 405.681 -1.90284 -6.19432 0
M  V30 4195 N 399.087 1.5561 -0.249682 0
M  V30 4196 C 400.312 2.03865 0.381305 0
M  V30 4197 C 400.737 1.12769 1.50548 0
M  V30 4198 O 400.095 0.121189 1.80895 0
M  V30 4199 C 400.143 3.50101 0.863816 0
M  V30 4200 O 399.247 3.62132 1.97318 0
M  V30 4201 H 398.588 0.658827 0.0827194 0
M  V30 4202 H 401.118 2.01105 -0.376552 0
M  V30 4203 H 401.128 3.90975 1.1663 0
M  V30 4204 H 399.803 4.1588 0.0411816 0
M  V30 4205 H 398.38 3.33155 1.67517 0
M  V30 4206 N 400.565 -0.0233959 1.57583 0
M  V30 4207 C 401.813 -0.711654 1.89156 0
M  V30 4208 C 402.134 -1.75591 0.848096 0
M  V30 4209 O 401.404 -1.95547 -0.117566 0
M  V30 4210 H 399.984 -0.265835 0.698098 0
M  V30 4211 H 402.646 0.0119948 1.94896 0
M  V30 4212 H 401.742 -1.19766 2.88206 0
M  V30 4213 N 402.043 -1.548 -0.295768 0
M  V30 4214 C 402.991 -1.86874 -1.38495 0
M  V30 4215 C 403.985 -0.742938 -1.52239 0
M  V30 4216 O 405.191 -0.926999 -1.54294 0
M  V30 4217 H 401.566 -0.592786 -0.462719 0
M  V30 4218 H 403.537 -2.77904 -1.08682 0
M  V30 4219 C 402.286 -2.13732 -2.74252 0
M  V30 4220 H 401.609 -2.99835 -2.64459 0
M  V30 4221 H 403.049 -2.4011 -3.49461 0
M  V30 4222 C 401.508 -0.937539 -3.23592 0
M  V30 4223 O 402.038 -0.160665 -4.01379 0
M  V30 4224 N 400.244 -0.741478 -2.80981 0
M  V30 4225 H 399.791 -1.37489 -2.1784 0
M  V30 4226 H 399.749 0.0597103 -3.14343 0
M  V30 4227 N 403.521 0.559213 -1.47345 0
M  V30 4228 C 404.746 1.34676 -1.57725 0
M  V30 4229 C 405.171 1.86723 -0.227164 0
M  V30 4230 O 404.529 1.6286 0.796642 0
M  V30 4231 C 404.577 2.49399 -2.60447 0
M  V30 4232 O 403.681 3.51567 -2.15578 0
M  V30 4233 H 403.022 0.400115 -0.52991 0
M  V30 4234 H 405.552 0.676009 -1.93109 0
M  V30 4235 H 405.562 2.95996 -2.80803 0
M  V30 4236 H 404.237 2.10873 -3.58477 0
M  V30 4237 H 402.814 3.11289 -2.05313 0
M  V30 4238 N 404.999 1.35443 0.805782 0
M  V30 4239 C 405.947 1.28465 1.93906 0
M  V30 4240 C 406.941 0.17943 1.68447 0
M  V30 4241 O 408.147 0.345459 1.76654 0
M  V30 4242 H 404.522 0.399528 0.637088 0
M  V30 4243 H 406.493 2.24206 1.96912 0
M  V30 4244 C 405.242 1.07432 3.30687 0
M  V30 4245 H 404.565 1.91716 3.50835 0
M  V30 4246 H 406.005 1.06591 4.10383 0
M  V30 4247 C 404.464 -0.22179 3.36169 0
M  V30 4248 O 404.994 -1.21731 3.82811 0
M  V30 4249 N 403.2 -0.260841 2.89427 0
M  V30 4250 H 402.747 0.549884 2.51663 0
M  V30 4251 H 402.705 -1.12777 2.93477 0
M  V30 4252 N 406.477 -1.02803 1.19454 0
M  V30 4253 C 407.723 -1.76478 0.999171 0
M  V30 4254 C 408.056 -1.88456 -0.468828 0
M  V30 4255 O 407.331 -1.40198 -1.34814 0
M  V30 4256 C 407.614 -3.19044 1.66981 0
M  V30 4257 C 407.467 -3.14932 3.21151 0
M  V30 4258 C 408.786 -4.17456 1.39349 0
M  V30 4259 H 405.905 -0.640614 0.364393 0
M  V30 4260 H 408.547 -1.20005 1.47305 0
M  V30 4261 H 406.697 -3.67263 1.2669 0
M  V30 4262 H 408.369 -2.74605 3.70661 0
M  V30 4263 H 406.612 -2.52625 3.52652 0
M  V30 4264 H 407.283 -4.1566 3.63223 0
M  V30 4265 H 409.759 -3.77842 1.74283 0
M  V30 4266 H 408.635 -5.154 1.88823 0
M  V30 4267 H 408.896 -4.40949 0.318813 0
M  V30 4268 N 407.956 -0.998596 -1.21925 0
M  V30 4269 C 409.181 -0.696015 -1.95372 0
M  V30 4270 C 409.606 0.733826 -1.73195 0
M  V30 4271 O 408.964 1.50242 -1.01474 0
M  V30 4272 C 409.012 -1.01466 -3.4603 0
M  V30 4273 O 408.116 -0.116415 -4.12236 0
M  V30 4274 H 407.457 -0.259938 -0.611006 0
M  V30 4275 H 409.987 -1.33711 -1.54863 0
M  V30 4276 H 409.997 -0.958855 -3.96573 0
M  V30 4277 H 408.672 -2.05653 -3.61497 0
M  V30 4278 H 407.249 -0.228193 -3.72201 0
M  V30 4279 N 409.434 1.37368 -0.772513 0
M  V30 4280 C 410.662 2.03942 -0.348588 0
M  V30 4281 C 411.077 1.58264 1.02947 0
M  V30 4282 O 410.434 0.764246 1.65727 0
M  V30 4283 C 410.485 3.5946 -0.38351 0
M  V30 4284 O 410.206 4.03468 -1.70721 0
M  V30 4285 C 411.707 4.4327 0.0519152 0
M  V30 4286 H 408.927 0.654931 -0.145966 0
M  V30 4287 H 411.471 1.75686 -1.04665 0
M  V30 4288 H 409.626 3.86486 0.265978 0
M  V30 4289 H 410.04 4.97991 -1.64636 0
M  V30 4290 H 411.514 5.51995 -0.0236733 0
M  V30 4291 H 411.991 4.2514 1.10238 0
M  V30 4292 H 412.597 4.21471 -0.569415 0
M  V30 4293 N 410.912 0.523116 1.48665 0
M  V30 4294 C 411.875 -0.232592 2.28017 0
M  V30 4295 C 412.875 -0.874021 1.34972 0
M  V30 4296 O 414.065 -0.735132 1.57929 0
M  V30 4297 C 411.197 -1.33586 3.13636 0
M  V30 4298 H 412.39 0.464008 2.96289 0
M  V30 4299 H 409.943 0.278816 1.53793 0
M  V30 4300 H 410.678 -2.06593 2.4998 0
M  V30 4301 H 410.463 -0.881125 3.82071 0
M  V30 4302 H 411.953 -1.86759 3.73511 0
M  V30 4303 N 412.39 -1.55475 0.257931 0
M  V30 4304 C 413.62 -2.03314 -0.367026 0
M  V30 4305 C 414.028 -1.13625 -1.51281 0
M  V30 4306 O 413.371 -0.145334 -1.83124 0
M  V30 4307 C 413.433 -3.47362 -0.926284 0
M  V30 4308 C 413.097 -4.56914 0.0886584 0
M  V30 4309 C 414.094 -5.12013 0.902123 0
M  V30 4310 C 411.779 -5.01827 0.217936 0
M  V30 4311 C 413.773 -6.10529 1.83122 0
M  V30 4312 C 411.46 -6.00172 1.15052 0
M  V30 4313 C 412.458 -6.54402 1.95568 0
M  V30 4314 O 412.146 -7.50827 2.87253 0
M  V30 4315 H 411.878 -0.669976 -0.0900443 0
M  V30 4316 H 414.432 -2.01804 0.382673 0
M  V30 4317 H 412.662 -3.46056 -1.72575 0
M  V30 4318 H 414.351 -3.78637 -1.46249 0
M  V30 4319 H 415.117 -4.78139 0.812891 0
M  V30 4320 H 410.996 -4.59272 -0.398721 0
M  V30 4321 H 414.54 -6.52783 2.46008 0
M  V30 4322 H 410.437 -6.33465 1.24064 0
M  V30 4323 H 411.205 -7.68483 2.81739 0
M  V30 4324 N 413.868 0.0150385 -1.57593 0
M  V30 4325 C 414.778 1.02791 -2.10882 0
M  V30 4326 C 415.794 1.38702 -1.0506 0
M  V30 4327 O 416.97 1.47739 -1.36877 0
M  V30 4328 C 414.035 2.30568 -2.58919 0
M  V30 4329 C 413.096 2.01108 -3.79281 0
M  V30 4330 C 412.329 3.22794 -4.25018 0
M  V30 4331 O 412.552 4.33959 -3.70183 0
M  V30 4332 O 411.486 3.07672 -5.17322 0
M  V30 4333 H 415.312 0.604973 -2.97613 0
M  V30 4334 H 412.897 0.23292 -1.47573 0
M  V30 4335 H 414.779 3.05662 -2.90084 0
M  V30 4336 H 413.454 2.72129 -1.75293 0
M  V30 4337 H 412.361 1.23537 -3.53114 0
M  V30 4338 H 413.694 1.64394 -4.63935 0
M  V30 4339 N 415.346 1.54954 0.287554 0
M  V30 4340 C 416.293 1.86834 1.35505 0
M  V30 4341 C 417.263 0.718452 1.49758 0
M  V30 4342 O 418.448 0.968358 1.644 0
M  V30 4343 C 415.588 2.13303 2.71286 0
M  V30 4344 C 414.701 3.40883 2.65373 0
M  V30 4345 C 413.836 3.57125 3.93236 0
M  V30 4346 C 412.875 4.78449 3.81776 0
M  V30 4347 N 412.012 4.91426 5.01443 0
M  V30 4348 H 416.852 2.77889 1.07619 0
M  V30 4349 H 414.389 1.37593 0.520241 0
M  V30 4350 H 416.347 2.26646 3.50267 0
M  V30 4351 H 414.977 1.25499 2.97405 0
M  V30 4352 H 414.029 3.36088 1.78182 0
M  V30 4353 H 415.341 4.29993 2.52799 0
M  V30 4354 H 414.495 3.70207 4.80658 0
M  V30 4355 H 413.234 2.66173 4.0866 0
M  V30 4356 H 412.239 4.65386 2.92738 0
M  V30 4357 H 413.464 5.70822 3.67884 0
M  V30 4358 H 411.41 4.03401 5.17304 0
M  V30 4359 H 411.327 5.74559 4.91343 0
M  V30 4360 H 412.595 5.08879 5.90477 0
M  V30 4361 N 416.824 -0.551391 1.4764 0
M  V30 4362 C 417.787 -1.64007 1.60107 0
M  V30 4363 C 418.787 -1.53601 0.47576 0
M  V30 4364 O 419.977 -1.57655 0.740988 0
M  V30 4365 C 417.109 -3.03569 1.55108 0
M  V30 4366 H 418.302 -1.543 2.57161 0
M  V30 4367 H 415.855 -0.771776 1.35917 0
M  V30 4368 H 416.59 -3.18804 0.594519 0
M  V30 4369 H 416.375 -3.12532 2.36783 0
M  V30 4370 H 417.865 -3.82762 1.66982 0
M  V30 4371 N 418.302 -1.35869 -0.798587 0
M  V30 4372 C 419.551 -1.28921 -1.5512 0
M  V30 4373 C 419.864 0.13208 -1.95154 0
M  V30 4374 O 421.07 0.323879 -2.69561 0
M  V30 4375 C 419.526 -2.26141 -2.79979 0
M  V30 4376 C 419.134 -3.73658 -2.47151 0
M  V30 4377 C 420.878 -2.28152 -3.57976 0
M  V30 4378 C 418.785 -4.62679 -3.6835 0
M  V30 4379 H 417.715 -0.479031 -0.582276 0
M  V30 4380 H 420.366 -1.61179 -0.877125 0
M  V30 4381 H 418.748 -1.86865 -3.49138 0
M  V30 4382 H 419.922 -4.21616 -1.85947 0
M  V30 4383 H 418.237 -3.74333 -1.82383 0
M  V30 4384 H 420.834 -2.91875 -4.4801 0
M  V30 4385 H 421.177 -1.28748 -3.95891 0
M  V30 4386 H 421.71 -2.65998 -2.95787 0
M  V30 4387 H 418.449 -5.63111 -3.35538 0
M  V30 4388 H 417.969 -4.19442 -4.28752 0
M  V30 4389 H 419.648 -4.78498 -4.35487 0
M  V30 4390 N 419.78 1.02168 -1.19998 0
M  V30 4391 C 421.028 1.75338 -1.00504 0
M  V30 4392 C 421.349 1.89387 0.464506 0
M  V30 4393 O 420.619 1.43268 1.33608 0
M  V30 4394 H 419.199 0.649564 -0.368885 0
M  V30 4395 H 421.861 1.23205 -1.51018 0
M  V30 4396 H 420.957 2.75892 -1.45912 0
M  V30 4397 N 421.258 1.00505 1.21394 0
M  V30 4398 C 422.505 0.687774 1.90462 0
M  V30 4399 C 422.833 -0.78147 1.7811 0
M  V30 4400 O 422.088 -1.58208 1.1519 0
M  V30 4401 C 422.387 1.0546 3.41486 0
M  V30 4402 C 422.053 2.51812 3.74034 0
M  V30 4403 C 420.715 2.91804 3.82628 0
M  V30 4404 C 423.067 3.46614 3.8924 0
M  V30 4405 C 420.395 4.2556 4.03876 0
M  V30 4406 C 422.747 4.80044 4.11995 0
M  V30 4407 C 421.411 5.19759 4.18816 0
M  V30 4408 H 420.681 0.251674 0.696951 0
M  V30 4409 H 423.328 1.26349 1.43903 0
M  V30 4410 H 421.633 0.397133 3.89782 0
M  V30 4411 H 423.33 0.786976 3.93202 0
M  V30 4412 H 419.92 2.1982 3.67936 0
M  V30 4413 H 424.104 3.16883 3.81967 0
M  V30 4414 H 419.36 4.55901 4.07387 0
M  V30 4415 H 423.534 5.53439 4.22704 0
M  V30 4416 H 421.161 6.23418 4.35033 0
M  V30 4417 N 422.737 -1.36956 0.779787 0
M  V30 4418 C 423.67 -2.27896 0.117681 0
M  V30 4419 C 424.648 -1.46736 -0.700523 0
M  V30 4420 O 425.832 -1.76055 -0.673568 0
M  V30 4421 C 422.959 -3.28136 -0.839296 0
M  V30 4422 C 422.005 -4.26373 -0.10409 0
M  V30 4423 S 422.838 -5.2157 1.21348 0
M  V30 4424 C 423.994 -6.25359 0.260249 0
M  V30 4425 H 424.227 -2.83704 0.888778 0
M  V30 4426 H 421.76 -1.43352 0.57355 0
M  V30 4427 H 423.718 -3.86394 -1.38601 0
M  V30 4428 H 422.379 -2.7126 -1.58356 0
M  V30 4429 H 421.572 -4.97121 -0.82986 0
M  V30 4430 H 421.174 -3.72147 0.371858 0
M  V30 4431 H 423.466 -6.75145 -0.564435 0
M  V30 4432 H 424.409 -7.01885 0.936135 0
M  V30 4433 H 424.817 -5.64345 -0.132127 0
M  V30 4434 N 424.215 -0.530993 -1.48385 0
M  V30 4435 C 425.626 -0.0907905 -1.86479 0
M  V30 4436 C 425.977 1.33213 -1.44044 0
M  V30 4437 O 425.102 1.99783 -0.831615 0
M  V30 4438 C 425.697 -0.157987 -3.38431 0
M  V30 4439 C 424.256 0.227026 -3.75715 0
M  V30 4440 C 423.403 -0.5173 -2.72432 0
M  V30 4441 H 426.354 -0.742186 -1.40276 0
M  V30 4442 H 426.375 0.630053 -3.75247 0
M  V30 4443 H 425.887 -1.19372 -3.69286 0
M  V30 4444 H 423.988 1.26486 -3.50474 0
M  V30 4445 H 424.101 -0.113288 -4.78966 0
M  V30 4446 H 422.465 0.0365527 -2.54674 0
M  V30 4447 H 423.248 -1.55368 -3.0613 0
M  V30 4448 N 425.693 1.55336 -0.266172 0
M  V30 4449 C 426.641 2.23587 0.641228 0
M  V30 4450 C 427.635 1.22986 1.16494 0
M  V30 4451 O 428.841 1.40943 1.1196 0
M  V30 4452 H 425.216 0.717452 0.225315 0
M  V30 4453 H 427.187 2.9837 0.0426561 0
M  V30 4454 C 425.936 2.96369 1.81826 0
M  V30 4455 H 425.259 3.73563 1.42445 0
M  V30 4456 H 426.699 3.47459 2.42998 0
M  V30 4457 C 425.158 2.0133 2.70125 0
M  V30 4458 O 425.688 1.55875 3.70224 0
M  V30 4459 N 423.894 1.6802 2.37102 0
M  V30 4460 H 423.441 2.05181 1.55751 0
M  V30 4461 H 423.399 1.047 2.96454 0
M  V30 4462 N 427.171 -0.0066808 1.57599 0
M  V30 4463 C 428.101 -0.999296 2.11036 0
M  V30 4464 C 429.082 -1.36278 1.01795 0
M  V30 4465 O 430.267 -1.4477 1.29442 0
M  V30 4466 C 427.397 -2.29328 2.60818 0
M  V30 4467 C 426.351 -2.07159 3.74525 0
M  V30 4468 C 425.677 -3.42512 4.10596 0
M  V30 4469 C 426.977 -1.43959 5.02069 0
M  V30 4470 H 428.671 -0.554382 2.94223 0
M  V30 4471 H 426.217 -0.265221 1.41536 0
M  V30 4472 H 428.17 -2.99117 2.96828 0
M  V30 4473 H 426.894 -2.7592 1.74745 0
M  V30 4474 H 425.553 -1.39797 3.38899 0
M  V30 4475 H 425.201 -3.86795 3.21556 0
M  V30 4476 H 424.901 -3.28498 4.87199 0
M  V30 4477 H 426.425 -4.13628 4.4916 0
M  V30 4478 H 427.839 -2.03696 5.35893 0
M  V30 4479 H 426.236 -1.40452 5.83432 0
M  V30 4480 H 427.306 -0.407992 4.83181 0
M  V30 4481 N 428.649 -1.55105 -0.279332 0
M  V30 4482 C 429.895 -1.75672 -1.01327 0
M  V30 4483 C 430.228 -0.552739 -1.86168 0
M  V30 4484 O 429.503 0.449827 -1.89227 0
M  V30 4485 C 429.786 -3.05825 -1.90114 0
M  V30 4486 C 429.639 -4.36565 -1.08309 0
M  V30 4487 C 430.958 -3.31975 -2.8893 0
M  V30 4488 H 428.077 -0.639149 -0.366957 0
M  V30 4489 H 430.719 -1.87833 -0.286154 0
M  V30 4490 H 428.869 -2.95588 -2.52111 0
M  V30 4491 H 430.541 -4.58751 -0.484314 0
M  V30 4492 H 428.784 -4.32076 -0.386362 0
M  V30 4493 H 429.455 -5.23946 -1.73737 0
M  V30 4494 H 431.931 -3.41963 -2.37067 0
M  V30 4495 H 430.807 -4.2432 -3.48201 0
M  V30 4496 H 431.068 -2.51309 -3.63725 0
M  V30 4497 N 430.127 0.543554 -1.4793 0
M  V30 4498 C 431.09 1.63156 -1.60975 0
M  V30 4499 C 432.09 1.53346 -0.483899 0
M  V30 4500 O 433.28 1.5726 -0.749339 0
M  V30 4501 C 430.412 3.02743 -1.56716 0
M  V30 4502 H 431.605 1.52934 -2.57975 0
M  V30 4503 H 429.158 0.764557 -1.36324 0
M  V30 4504 H 429.893 3.18484 -0.611418 0
M  V30 4505 H 429.678 3.11272 -2.38438 0
M  V30 4506 H 431.168 3.81871 -1.6901 0
M  V30 4507 N 431.605 1.3629 0.791371 0
M  V30 4508 C 432.835 1.33368 1.57786 0
M  V30 4509 C 433.243 -0.0875188 1.88997 0
M  V30 4510 O 432.586 -1.05427 1.50435 0
M  V30 4511 C 432.648 2.08802 2.92646 0
M  V30 4512 C 432.312 3.57903 2.84174 0
M  V30 4513 C 433.309 4.52191 2.56553 0
M  V30 4514 C 430.994 4.00762 3.02812 0
M  V30 4515 C 432.988 5.87315 2.47669 0
M  V30 4516 C 430.675 5.35977 2.93551 0
M  V30 4517 C 431.673 6.29066 2.66017 0
M  V30 4518 O 431.361 7.61798 2.56746 0
M  V30 4519 H 431.093 0.459166 0.496128 0
M  V30 4520 H 433.647 1.79952 0.990269 0
M  V30 4521 H 431.877 1.56878 3.53449 0
M  V30 4522 H 433.566 1.98762 3.53904 0
M  V30 4523 H 434.332 4.20393 2.41858 0
M  V30 4524 H 430.211 3.2868 3.2325 0
M  V30 4525 H 433.755 6.59943 2.26099 0
M  V30 4526 H 429.652 5.67384 3.07808 0
M  V30 4527 H 430.42 7.71898 2.72242 0
M  V30 4528 N 433.083 -1.0153 1.20538 0
M  V30 4529 C 434.494 -1.56598 1.01657 0
M  V30 4530 C 434.845 -1.91505 -0.426668 0
M  V30 4531 O 433.97 -1.72375 -1.30827 0
M  V30 4532 C 434.565 -2.84542 1.83905 0
M  V30 4533 C 433.124 -3.36133 1.69386 0
M  V30 4534 C 432.271 -2.09427 1.81757 0
M  V30 4535 H 435.222 -0.838974 1.34711 0
M  V30 4536 H 435.243 -3.56004 1.34319 0
M  V30 4537 H 434.755 -2.59105 2.8894 0
M  V30 4538 H 432.856 -3.66528 0.669933 0
M  V30 4539 H 432.969 -4.08248 2.50739 0
M  V30 4540 H 431.333 -2.21941 1.24957 0
M  V30 4541 H 432.116 -1.86414 2.88279 0
M  V30 4542 N 434.561 -1.01147 -1.20859 0
M  V30 4543 C 435.508 -0.577354 -2.23462 0
M  V30 4544 C 436.478 0.399922 -1.61214 0
M  V30 4545 O 437.663 0.300515 -1.88419 0
M  V30 4546 C 434.803 0.083372 -3.44999 0
M  V30 4547 C 433.916 -0.937856 -4.21697 0
M  V30 4548 C 433.051 -0.248717 -5.30617 0
M  V30 4549 C 432.09 -1.25705 -5.99053 0
M  V30 4550 N 431.227 -0.594939 -6.99575 0
M  V30 4551 H 436.067 -1.45695 -2.59956 0
M  V30 4552 H 433.604 -0.729428 -1.27741 0
M  V30 4553 H 435.562 0.483535 -4.14388 0
M  V30 4554 H 434.192 0.926645 -3.09214 0
M  V30 4555 H 433.244 -1.45622 -3.51423 0
M  V30 4556 H 434.556 -1.70493 -4.68757 0
M  V30 4557 H 433.71 0.207215 -6.06346 0
M  V30 4558 H 432.449 0.55071 -4.84581 0
M  V30 4559 H 431.454 -1.72343 -5.2209 0
M  V30 4560 H 432.679 -2.05767 -6.47176 0
M  V30 4561 H 430.625 0.184713 -6.5574 0
M  V30 4562 H 430.542 -1.30017 -7.44736 0
M  V30 4563 H 431.81 -0.162427 -7.79331 0
M  V30 4564 N 436.039 1.36541 -0.78704 0
M  V30 4565 C 437.45 1.81873 -0.421807 0
M  V30 4566 C 437.801 1.65487 1.05397 0
M  V30 4567 O 436.926 1.17448 1.81755 0
M  V30 4568 C 437.521 3.30192 -0.758841 0
M  V30 4569 C 436.08 3.73743 -0.446468 0
M  V30 4570 C 435.227 2.58844 -0.994728 0
M  V30 4571 H 438.178 1.24796 -0.98039 0
M  V30 4572 H 438.199 3.80468 -0.0490648 0
M  V30 4573 H 437.711 3.42087 -1.83299 0
M  V30 4574 H 435.812 3.6741 0.619739 0
M  V30 4575 H 435.925 4.69272 -0.965415 0
M  V30 4576 H 434.289 2.51245 -0.418087 0
M  V30 4577 H 435.072 2.73525 -2.07458 0
M  V30 4578 N 437.518 0.538854 1.48102 0
M  V30 4579 C 438.743 0.0102694 2.07397 0
M  V30 4580 C 439.168 -1.26562 1.39153 0
M  V30 4581 O 438.526 -1.75357 0.460387 0
M  V30 4582 C 438.574 -0.187602 3.60112 0
M  V30 4583 O 437.678 -1.25432 3.92862 0
M  V30 4584 H 437.019 0.0430975 0.6626 0
M  V30 4585 H 439.549 0.749301 1.90385 0
M  V30 4586 H 439.559 -0.407517 4.0596 0
M  V30 4587 H 438.234 0.744386 4.09184 0
M  V30 4588 H 436.811 -1.01636 3.58782 0
M  V30 4589 N 438.996 -1.55193 0.274407 0
M  V30 4590 C 439.944 -2.23924 -0.629362 0
M  V30 4591 C 440.938 -1.23602 -1.1584 0
M  V30 4592 O 442.144 -1.41535 -1.11211 0
M  V30 4593 H 438.519 -0.718637 -0.221507 0
M  V30 4594 H 440.49 -2.98388 -0.0268322 0
M  V30 4595 C 439.239 -2.97329 -1.80252 0
M  V30 4596 H 438.562 -3.74313 -1.40462 0
M  V30 4597 H 440.002 -3.48743 -2.41152 0
M  V30 4598 C 438.461 -2.0276 -2.69054 0
M  V30 4599 O 438.991 -1.57836 -3.69392 0
M  V30 4600 N 437.197 -1.69275 -2.36208 0
M  V30 4601 H 436.744 -2.06004 -1.54661 0
M  V30 4602 H 436.702 -1.06271 -2.95895 0
M  V30 4603 N 440.474 -0.00167713 -1.576 0
M  V30 4604 C 441.699 0.69739 -1.95323 0
M  V30 4605 C 442.124 1.6642 -0.876706 0
M  V30 4606 O 441.482 1.80548 0.165007 0
M  V30 4607 C 441.53 1.40403 -3.32144 0
M  V30 4608 O 440.634 2.5185 -3.26566 0
M  V30 4609 H 439.975 0.185373 -0.637599 0
M  V30 4610 H 442.505 -0.0553665 -2.04525 0
M  V30 4611 H 442.515 1.76707 -3.67748 0
M  V30 4612 H 441.19 0.695167 -4.10049 0
M  V30 4613 H 439.767 2.17861 -3.0264 0
M  V30 4614 N 441.952 1.55251 0.271103 0
M  V30 4615 C 442.899 1.88261 1.33516 0
M  V30 4616 C 443.869 0.734296 1.48988 0
M  V30 4617 O 445.054 0.985741 1.63364 0
M  V30 4618 C 442.194 2.16168 2.69008 0
M  V30 4619 C 441.307 3.43678 2.61743 0
M  V30 4620 C 440.442 3.61276 3.89427 0
M  V30 4621 C 439.481 4.82472 3.7668 0
M  V30 4622 N 438.618 4.96717 4.96202 0
M  V30 4623 H 443.458 2.79015 1.04665 0
M  V30 4624 H 440.995 1.38137 0.505618 0
M  V30 4625 H 442.953 2.30349 3.47844 0
M  V30 4626 H 441.583 1.28646 2.96057 0
M  V30 4627 H 440.635 3.37959 1.74607 0
M  V30 4628 H 441.947 4.3265 2.48224 0
M  V30 4629 H 441.101 3.75284 4.76704 0
M  V30 4630 H 439.84 2.70492 4.05814 0
M  V30 4631 H 438.845 4.68465 2.87786 0
M  V30 4632 H 440.07 5.74692 3.61809 0
M  V30 4633 H 438.016 4.08865 5.12997 0
M  V30 4634 H 437.933 5.79738 4.85222 0
M  V30 4635 H 439.201 5.15113 5.85046 0
M  V30 4636 N 443.43 -0.535701 1.48216 0
M  V30 4637 C 444.377 -1.64083 1.62312 0
M  V30 4638 C 445.347 -1.59448 0.465365 0
M  V30 4639 O 446.532 -1.77959 0.688135 0
M  V30 4640 C 443.672 -3.0236 1.66349 0
M  V30 4641 C 442.785 -3.17273 2.93193 0
M  V30 4642 C 441.92 -4.46075 2.88427 0
M  V30 4643 C 440.959 -4.54496 4.1 0
M  V30 4644 N 440.096 -5.7468 4.03345 0
M  V30 4645 H 444.936 -1.51374 2.5669 0
M  V30 4646 H 442.473 -0.737059 1.27302 0
M  V30 4647 H 444.431 -3.82461 1.66672 0
M  V30 4648 H 443.061 -3.13854 0.754672 0
M  V30 4649 H 442.113 -2.30462 3.02641 0
M  V30 4650 H 443.425 -3.19357 3.83162 0
M  V30 4651 H 442.579 -5.3446 2.87119 0
M  V30 4652 H 441.318 -4.46504 1.96177 0
M  V30 4653 H 440.323 -3.64519 4.11589 0
M  V30 4654 H 441.548 -4.5581 5.03402 0
M  V30 4655 H 439.494 -5.76017 3.13912 0
M  V30 4656 H 439.411 -5.78234 4.87013 0
M  V30 4657 H 440.679 -6.65367 4.06087 0
M  V30 4658 N 444.908 -1.36708 -0.784132 0
M  V30 4659 C 446.138 -1.34203 -1.57077 0
M  V30 4660 C 446.546 0.0774945 -1.89041 0
M  V30 4661 O 445.889 1.04628 -1.50992 0
M  V30 4662 C 445.951 -2.10351 -2.91535 0
M  V30 4663 C 445.615 -3.59405 -2.82272 0
M  V30 4664 C 446.612 -4.53545 -2.54151 0
M  V30 4665 C 444.297 -4.02362 -3.00683 0
M  V30 4666 C 446.291 -5.8862 -2.44551 0
M  V30 4667 C 443.978 -5.37526 -2.90704 0
M  V30 4668 C 444.976 -6.30468 -2.62677 0
M  V30 4669 O 444.664 -7.63149 -2.52702 0
M  V30 4670 H 444.396 -0.461791 -0.493685 0
M  V30 4671 H 446.95 -1.80475 -0.980712 0
M  V30 4672 H 445.18 -1.5875 -3.52612 0
M  V30 4673 H 446.869 -2.00636 -3.52845 0
M  V30 4674 H 447.635 -4.21669 -2.39625 0
M  V30 4675 H 443.514 -3.30389 -3.21503 0
M  V30 4676 H 447.058 -6.61133 -2.22596 0
M  V30 4677 H 442.955 -5.69008 -3.04795 0
M  V30 4678 H 443.723 -7.73331 -2.68144 0
M  V30 4679 N 446.386 1.0089 -1.21074 0
M  V30 4680 C 447.349 2.0775 -0.968129 0
M  V30 4681 C 448.349 1.6069 0.0593445 0
M  V30 4682 O 449.539 1.73293 -0.177525 0
M  V30 4683 C 446.671 3.37794 -0.459108 0
M  V30 4684 H 447.864 2.30707 -1.9161 0
M  V30 4685 H 445.417 1.17807 -1.02719 0
M  V30 4686 H 446.152 3.20516 0.49397 0
M  V30 4687 H 445.937 3.7328 -1.20019 0
M  V30 4688 H 447.427 4.16454 -0.309099 0
M  V30 4689 N 447.864 1.01787 1.20321 0
M  V30 4690 C 449.28 0.732951 1.41774 0
M  V30 4691 C 449.48 -0.686883 1.89431 0
M  V30 4692 O 448.536 -1.45446 2.06402 0
M  V30 4693 C 449.849 1.75973 2.43832 0
M  V30 4694 C 451.397 1.77802 2.57596 0
M  V30 4695 C 451.872 2.7941 3.62897 0
M  V30 4696 N 453.363 2.78157 3.70382 0
M  V30 4697 C 454.098 3.53434 4.51521 0
M  V30 4698 N 453.594 4.38392 5.36455 0
M  V30 4699 N 455.387 3.42026 4.46066 0
M  V30 4700 H 447.538 1.93447 0.877035 0
M  V30 4701 H 449.801 0.835712 0.447536 0
M  V30 4702 H 449.507 2.77699 2.15815 0
M  V30 4703 H 449.381 1.57292 3.4284 0
M  V30 4704 H 451.768 0.767602 2.84942 0
M  V30 4705 H 451.849 2.00557 1.58779 0
M  V30 4706 H 451.493 3.80616 3.36295 0
M  V30 4707 H 451.423 2.53916 4.61339 0
M  V30 4708 H 453.914 2.16531 3.09714 0
M  V30 4709 H 454.227 4.92596 5.95457 0
M  V30 4710 H 452.572 4.4247 5.35953 0
M  V30 4711 H 455.763 2.75075 3.78749 0
M  V30 4712 H 455.936 4.00946 5.09064 0
M  V30 4713 N 449.342 -1.36122 0.79427 0
M  V30 4714 C 450.619 -1.93398 0.292685 0
M  V30 4715 C 450.999 -1.72567 -1.21589 0
M  V30 4716 O 450.347 -1.08745 -2.00965 0
M  V30 4717 C 450.557 -3.42099 0.690614 0
M  V30 4718 C 451.905 -4.19231 0.673105 0
M  V30 4719 O 452.929 -3.50559 0.631389 0
M  V30 4720 O 451.788 -5.41732 0.720362 0
M  V30 4721 H 448.882 -0.823712 0.0736693 0
M  V30 4722 H 451.428 -1.45273 0.87714 0
M  V30 4723 H 450.2 -3.50938 1.73085 0
M  V30 4724 H 449.823 -3.97519 0.0803036 0
M  V30 4725 N 450.82 -0.546701 -1.47814 0
M  V30 4726 C 452.069 -0.0166497 -2.01693 0
M  V30 4727 C 452.382 1.33721 -1.42752 0
M  V30 4728 O 453.588 1.95658 -1.8823 0
M  V30 4729 C 452.044 0.0206769 -3.59894 0
M  V30 4730 C 451.652 -1.3293 -4.27824 0
M  V30 4731 C 453.396 0.498674 -4.21561 0
M  V30 4732 C 451.303 -1.25165 -5.78003 0
M  V30 4733 H 450.233 -0.0024541 -0.753996 0
M  V30 4734 H 452.884 -0.692984 -1.69912 0
M  V30 4735 H 451.266 0.76244 -3.88591 0
M  V30 4736 H 452.44 -2.08795 -4.10781 0
M  V30 4737 H 450.755 -1.74438 -3.78101 0
M  V30 4738 H 453.352 0.575 -5.31599 0
M  V30 4739 H 453.695 1.5083 -3.88016 0
M  V30 4740 H 454.228 -0.18791 -3.97356 0
M  V30 4741 H 450.967 -2.23695 -6.1615 0
M  V30 4742 H 450.487 -0.53464 -5.97412 0
M  V30 4743 H 452.166 -0.949299 -6.39998 0
M  V30 4744 N 452.299 1.55045 -0.282633 0
M  V30 4745 C 453.545 2.00056 0.332481 0
M  V30 4746 C 453.878 1.1708 1.54939 0
M  V30 4747 O 453.153 0.2427 1.9298 0
M  V30 4748 C 453.436 3.53086 0.70725 0
M  V30 4749 C 453.289 4.46813 -0.517521 0
M  V30 4750 C 454.608 4.12245 1.54084 0
M  V30 4751 H 451.727 0.727268 0.119373 0
M  V30 4752 H 454.369 1.85932 -0.391076 0
M  V30 4753 H 452.519 3.65253 1.32372 0
M  V30 4754 H 454.191 4.46579 -1.15607 0
M  V30 4755 H 452.434 4.18163 -1.1542 0
M  V30 4756 H 453.105 5.51595 -0.211426 0
M  V30 4757 H 455.581 4.03401 1.02013 0
M  V30 4758 H 454.457 5.19515 1.77186 0
M  V30 4759 H 454.718 3.62951 2.52427 0
M  V30 4760 N 453.777 0.010035 1.57597 0
M  V30 4761 C 455.007 -0.682422 1.95004 0
M  V30 4762 C 455.415 -1.67278 0.884014 0
M  V30 4763 O 454.758 -1.83129 -0.144672 0
M  V30 4764 C 454.82 -1.46141 3.28456 0
M  V30 4765 C 454.484 -0.631523 4.52615 0
M  V30 4766 C 455.481 0.0850905 5.1983 0
M  V30 4767 C 453.166 -0.574539 4.99003 0
M  V30 4768 C 455.16 0.847566 6.3174 0
M  V30 4769 C 452.847 0.191655 6.10799 0
M  V30 4770 C 453.845 0.901432 6.77025 0
M  V30 4771 O 453.533 1.65511 7.86677 0
M  V30 4772 H 453.265 -0.194361 0.647456 0
M  V30 4773 H 455.819 0.060312 2.05311 0
M  V30 4774 H 454.049 -2.24885 3.14585 0
M  V30 4775 H 455.738 -2.04016 3.50902 0
M  V30 4776 H 456.504 0.0502812 4.84974 0
M  V30 4777 H 452.383 -1.11654 4.47274 0
M  V30 4778 H 455.927 1.4021 6.83364 0
M  V30 4779 H 451.824 0.228249 6.45096 0
M  V30 4780 H 452.592 1.57287 8.03245 0
M  V30 4781 N 455.255 -1.55392 -0.262866 0
M  V30 4782 C 456.503 -1.76127 -0.991147 0
M  V30 4783 C 456.824 -0.571083 -1.8645 0
M  V30 4784 O 456.094 0.413698 -1.91482 0
M  V30 4785 H 454.674 -0.649528 -0.368948 0
M  V30 4786 H 457.336 -1.9281 -0.284655 0
M  V30 4787 H 456.432 -2.6663 -1.62219 0
M  V30 4788 N 456.733 0.527833 -1.48498 0
M  V30 4789 C 457.961 1.30823 -1.6029 0
M  V30 4790 C 458.376 1.86945 -0.263974 0
M  V30 4791 O 457.733 1.6651 0.747034 0
M  V30 4792 C 457.784 2.45756 -2.65116 0
M  V30 4793 O 457.505 1.91946 -3.93813 0
M  V30 4794 C 459.006 3.37543 -2.87367 0
M  V30 4795 H 456.226 0.397763 -0.540394 0
M  V30 4796 H 458.77 0.636529 -1.94341 0
M  V30 4797 H 456.925 3.08806 -2.33917 0
M  V30 4798 H 457.339 2.67195 -4.51339 0
M  V30 4799 H 458.813 4.14532 -3.6451 0
M  V30 4800 H 459.29 3.92905 -1.9627 0
M  V30 4801 H 459.896 2.80283 -3.19878 0
M  V30 4802 N 458.211 1.37122 0.776871 0
M  V30 4803 C 459.46 1.31373 1.53049 0
M  V30 4804 C 459.773 -0.101016 1.95339 0
M  V30 4805 O 460.979 -0.280953 2.70042 0
M  V30 4806 C 459.435 2.30567 2.76346 0
M  V30 4807 C 459.043 3.77543 2.41175 0
M  V30 4808 C 460.787 2.33818 3.54301 0
M  V30 4809 C 458.694 4.68481 3.60943 0
M  V30 4810 H 457.624 0.488234 0.574581 0
M  V30 4811 H 460.275 1.62554 0.851372 0
M  V30 4812 H 458.657 1.92396 3.46121 0
M  V30 4813 H 459.831 4.24521 1.79216 0
M  V30 4814 H 458.146 3.77187 1.76405 0
M  V30 4815 H 460.743 2.98965 4.4331 0
M  V30 4816 H 461.086 1.3503 3.93793 0
M  V30 4817 H 461.619 2.7067 2.91518 0
M  V30 4818 H 458.358 5.68378 3.26537 0
M  V30 4819 H 457.878 4.2621 4.22025 0
M  V30 4820 H 459.557 4.85366 4.27819 0
M  V30 4821 N 459.689 -1.00246 1.21608 0
M  V30 4822 C 460.919 -1.77373 1.05935 0
M  V30 4823 C 461.327 -1.85059 -0.393686 0
M  V30 4824 O 460.67 -1.31289 -1.28487 0
M  V30 4825 C 460.732 -3.22705 1.58435 0
M  V30 4826 C 460.396 -3.38591 3.06929 0
M  V30 4827 C 461.393 -3.2667 4.04454 0
M  V30 4828 C 459.078 -3.6395 3.46187 0
M  V30 4829 C 461.072 -3.39877 5.39224 0
M  V30 4830 C 458.759 -3.768 4.81108 0
M  V30 4831 C 459.757 -3.6477 5.77436 0
M  V30 4832 O 459.445 -3.77206 7.09909 0
M  V30 4833 H 459.177 -0.56419 0.372378 0
M  V30 4834 H 461.731 -1.26971 1.61454 0
M  V30 4835 H 459.961 -3.74255 0.973147 0
M  V30 4836 H 461.65 -3.81515 1.38568 0
M  V30 4837 H 462.416 -3.06999 3.75468 0
M  V30 4838 H 458.295 -3.72395 2.71741 0
M  V30 4839 H 461.839 -3.30404 6.14393 0
M  V30 4840 H 457.736 -3.95975 5.09779 0
M  V30 4841 H 458.504 -3.94138 7.17355 0
M  V30 4842 N 461.167 -1.02423 -1.1978 0
M  V30 4843 C 462.097 -0.62157 -2.25075 0
M  V30 4844 C 463.078 0.367148 -1.6609 0
M  V30 4845 O 464.263 0.250892 -1.92573 0
M  V30 4846 C 461.393 0.0331826 -3.47284 0
M  V30 4847 C 460.347 -0.877323 -4.18912 0
M  V30 4848 C 459.673 -0.0879296 -5.34628 0
M  V30 4849 C 460.973 -2.18892 -4.74219 0
M  V30 4850 H 462.667 -1.50179 -2.59011 0
M  V30 4851 H 460.213 -0.723547 -1.24502 0
M  V30 4852 H 462.166 0.326488 -4.20133 0
M  V30 4853 H 460.89 0.948164 -3.12534 0
M  V30 4854 H 459.549 -1.15475 -3.47938 0
M  V30 4855 H 459.197 0.828941 -4.96123 0
M  V30 4856 H 458.897 -0.694359 -5.83483 0
M  V30 4857 H 460.421 0.198743 -6.10276 0
M  V30 4858 H 461.835 -1.95746 -5.38847 0
M  V30 4859 H 460.232 -2.74686 -5.33542 0
M  V30 4860 H 461.302 -2.84674 -3.92541 0
M  V30 4861 N 462.645 1.35699 -0.801477 0
M  V30 4862 C 463.893 1.9852 -0.37871 0
M  V30 4863 C 464.214 1.63907 1.05638 0
M  V30 4864 O 463.484 0.919013 1.73006 0
M  V30 4865 H 462.064 0.734322 -0.137042 0
M  V30 4866 H 464.726 1.65697 -1.02619 0
M  V30 4867 H 463.822 3.08382 -0.480284 0
M  V30 4868 N 464.123 0.554532 1.47522 0
M  V30 4869 C 465.371 0.0294208 2.02079 0
M  V30 4870 C 465.692 -1.32411 1.43151 0
M  V30 4871 O 464.962 -1.863 0.605728 0
M  V30 4872 H 463.542 0.00788672 0.746958 0
M  V30 4873 H 466.204 0.723934 1.80956 0
M  V30 4874 H 465.3 -0.0606745 3.12041 0
M  V30 4875 N 465.601 -1.54893 0.290851 0
M  V30 4876 C 466.548 -2.23138 -0.58974 0
M  V30 4877 C 467.518 -1.21036 -1.13752 0
M  V30 4878 O 468.703 -1.49626 -1.18392 0
M  V30 4879 C 465.843 -2.96811 -1.76061 0
M  V30 4880 C 464.956 -4.13665 -1.24519 0
M  V30 4881 C 464.091 -4.74944 -2.3791 0
M  V30 4882 C 463.13 -5.83963 -1.83451 0
M  V30 4883 N 462.267 -6.39239 -2.90376 0
M  V30 4884 H 467.107 -2.98 -0.00114915 0
M  V30 4885 H 464.644 -1.47096 0.0112006 0
M  V30 4886 H 466.602 -3.37751 -2.44909 0
M  V30 4887 H 465.232 -2.24344 -2.32098 0
M  V30 4888 H 464.284 -3.77737 -0.449288 0
M  V30 4889 H 465.596 -4.92238 -0.806424 0
M  V30 4890 H 464.75 -5.18684 -3.14724 0
M  V30 4891 H 463.489 -3.95682 -2.85109 0
M  V30 4892 H 462.494 -5.39657 -1.05122 0
M  V30 4893 H 463.719 -6.65103 -1.37169 0
M  V30 4894 H 461.665 -5.62864 -3.36927 0
M  V30 4895 H 461.582 -7.13129 -2.50965 0
M  V30 4896 H 462.85 -6.87637 -3.67118 0
M  V30 4897 N 467.08 -0.0183926 -1.57589 0
M  V30 4898 C 468.491 0.521927 -1.79256 0
M  V30 4899 C 468.842 1.72885 -0.927636 0
M  V30 4900 O 467.967 2.15978 -0.135091 0
M  V30 4901 C 468.562 0.953632 -3.25102 0
M  V30 4902 C 467.121 1.43913 -3.47801 0
M  V30 4903 C 466.268 0.398837 -2.74417 0
M  V30 4904 H 469.219 -0.244485 -1.56805 0
M  V30 4905 H 469.24 1.81863 -3.34224 0
M  V30 4906 H 468.752 0.0750123 -3.88028 0
M  V30 4907 H 466.853 2.33804 -2.90115 0
M  V30 4908 H 466.966 1.45391 -4.56507 0
M  V30 4909 H 465.33 0.864572 -2.39577 0
M  V30 4910 H 466.113 -0.471132 -3.40052 0
M  V30 4911 N 468.558 1.5553 0.254621 0
M  V30 4912 C 469.835 1.6774 1.00611 0
M  V30 4913 C 470.215 0.555993 2.03647 0
M  V30 4914 O 469.563 -0.441583 2.24193 0
M  V30 4915 C 469.773 3.07725 1.6464 0
M  V30 4916 C 471.121 3.66074 2.15116 0
M  V30 4917 O 472.145 3.10476 1.74595 0
M  V30 4918 O 471.004 4.63526 2.89493 0
M  V30 4919 H 468.098 0.681958 0.467828 0
M  V30 4920 H 470.644 1.67863 0.24902 0
M  V30 4921 H 469.416 3.80792 0.900734 0
M  V30 4922 H 469.039 3.1158 2.46989 0
M  V30 4923 N 470.036 -0.519951 1.48776 0
M  V30 4924 C 470.968 -1.63973 1.60142 0
M  V30 4925 C 471.981 -1.55404 0.485117 0
M  V30 4926 O 473.17 -1.61682 0.756391 0
M  V30 4927 C 470.27 -3.02676 1.52449 0
M  V30 4928 C 469.443 -3.36624 2.79291 0
M  V30 4929 C 468.502 -4.54652 2.64912 0
M  V30 4930 O 467.528 -4.57374 3.38818 0
M  V30 4931 N 468.73 -5.53432 1.75195 0
M  V30 4932 H 471.495 -1.54656 2.56713 0
M  V30 4933 H 469.056 -0.707439 1.45626 0
M  V30 4934 H 471.048 -3.79525 1.4051 0
M  V30 4935 H 469.618 -3.06018 0.638125 0
M  V30 4936 H 468.838 -2.48855 3.0572 0
M  V30 4937 H 470.126 -3.56094 3.6342 0
M  V30 4938 H 469.524 -5.54018 1.14371 0
M  V30 4939 H 468.081 -6.29459 1.69189 0
M  V30 4940 N 471.514 -1.37532 -0.769588 0
M  V30 4941 C 472.925 -1.29382 -1.346 0
M  V30 4942 C 473.276 0.0576039 -1.96115 0
M  V30 4943 O 472.401 0.95947 -1.93967 0
M  V30 4944 C 472.996 -2.34298 -2.44724 0
M  V30 4945 C 471.555 -2.29776 -2.98128 0
M  V30 4946 C 470.702 -2.18013 -1.71364 0
M  V30 4947 H 473.653 -1.48123 -0.56968 0
M  V30 4948 H 473.674 -1.99089 -3.24259 0
M  V30 4949 H 473.186 -3.32645 -1.99922 0
M  V30 4950 H 471.287 -1.34959 -3.47299 0
M  V30 4951 H 471.4 -3.23276 -3.53595 0
M  V30 4952 H 469.764 -1.64595 -1.94372 0
M  V30 4953 H 470.547 -3.18278 -1.28662 0
M  V30 4954 N 472.992 0.995999 -1.22138 0
M  V30 4955 C 473.955 2.06711 -0.990109 0
M  V30 4956 C 474.955 1.60744 0.0422978 0
M  V30 4957 O 476.145 1.73095 -0.195895 0
M  V30 4958 C 473.277 3.37288 -0.49491 0
M  V30 4959 H 474.47 2.28661 -1.94047 0
M  V30 4960 H 472.023 1.16711 -1.03963 0
M  V30 4961 H 472.758 3.21022 0.459948 0
M  V30 4962 H 472.543 3.71986 -1.23971 0
M  V30 4963 H 474.033 4.16103 -0.353253 0
M  V30 4964 N 474.47 1.03057 1.19235 0
M  V30 4965 C 475.716 0.729098 1.89241 0
M  V30 4966 C 476.049 -0.740573 1.79525 0
M  V30 4967 O 475.324 -1.53946 1.18874 0
M  V30 4968 C 475.607 1.18304 3.40112 0
M  V30 4969 C 475.46 2.71406 3.5869 0
M  V30 4970 C 476.779 0.765161 4.33397 0
M  V30 4971 H 473.898 0.266338 0.687192 0
M  V30 4972 H 476.54 1.28079 1.40341 0
M  V30 4973 H 474.69 0.713672 3.81889 0
M  V30 4974 H 476.362 3.26303 3.26074 0
M  V30 4975 H 474.605 3.11717 3.01687 0
M  V30 4976 H 475.276 2.98225 4.64506 0
M  V30 4977 H 477.752 1.16889 3.99345 0
M  V30 4978 H 476.628 1.11065 5.37546 0
M  V30 4979 H 476.889 -0.332372 4.40849 0
M  V30 4980 N 475.948 -1.35272 0.808662 0
M  V30 4981 C 477.197 -1.97963 0.386483 0
M  V30 4982 C 477.51 -1.64866 -1.05255 0
M  V30 4983 O 478.716 -2.20937 -1.57794 0
M  V30 4984 C 477.172 -3.54162 0.640096 0
M  V30 4985 C 476.78 -3.96166 2.0918 0
M  V30 4986 C 478.524 -4.23553 0.283376 0
M  V30 4987 C 476.431 -5.4522 2.29106 0
M  V30 4988 H 475.361 -0.740742 0.140774 0
M  V30 4989 H 478.012 -1.5431 0.993012 0
M  V30 4990 H 476.394 -3.95983 -0.0364117 0
M  V30 4991 H 477.568 -3.65491 2.80629 0
M  V30 4992 H 475.883 -3.3967 2.40859 0
M  V30 4993 H 478.48 -5.33124 0.410273 0
M  V30 4994 H 478.823 -4.09105 -0.770659 0
M  V30 4995 H 479.356 -3.8716 0.913884 0
M  V30 4996 H 476.095 -5.64638 3.32962 0
M  V30 4997 H 475.615 -5.77457 1.62184 0
M  V30 4998 H 477.294 -6.1171 2.1076 0
M  V30 4999 N 477.426 -0.562348 -1.47226 0
M  V30 5000 C 478.373 0.182461 -2.30078 0
M  V30 5001 C 479.343 0.903503 -1.39377 0
M  V30 5002 O 480.528 0.898188 -1.68337 0
M  V30 5003 C 477.668 1.20322 -3.23445 0
M  V30 5004 C 476.781 0.487717 -4.29238 0
M  V30 5005 C 475.916 1.49422 -5.09752 0
M  V30 5006 C 474.955 0.763976 -6.07314 0
M  V30 5007 N 474.092 1.71755 -6.80768 0
M  V30 5008 H 478.932 -0.530169 -2.93246 0
M  V30 5009 H 476.469 -0.273276 -1.44539 0
M  V30 5010 H 478.427 1.80768 -3.76004 0
M  V30 5011 H 477.057 1.88382 -2.6213 0
M  V30 5012 H 476.109 -0.231374 -3.79696 0
M  V30 5013 H 477.421 -0.0841003 -4.98729 0
M  V30 5014 H 476.575 2.17206 -5.66486 0
M  V30 5015 H 475.314 2.09995 -4.40174 0
M  V30 5016 H 474.319 0.0722344 -5.49753 0
M  V30 5017 H 475.544 0.16391 -6.78902 0
M  V30 5018 H 473.49 2.31177 -6.13916 0
M  V30 5019 H 473.407 1.19802 -7.46447 0
M  V30 5020 H 474.675 2.38638 -7.42073 0
M  V30 5021 N 478.904 1.54736 -0.299062 0
M  V30 5022 C 480.132 2.04512 0.313447 0
M  V30 5023 C 480.547 1.17643 1.47667 0
M  V30 5024 O 479.904 0.20164 1.81383 0
M  V30 5025 C 479.955 3.53171 0.771542 0
M  V30 5026 O 479.676 4.36736 -0.345379 0
M  V30 5027 C 481.177 4.18936 1.4494 0
M  V30 5028 H 478.397 0.667507 0.0683784 0
M  V30 5029 H 480.941 1.99752 -0.438129 0
M  V30 5030 H 479.096 3.58298 1.47314 0
M  V30 5031 H 479.51 5.24499 0.0109219 0
M  V30 5032 H 480.984 5.24482 1.72111 0
M  V30 5033 H 481.461 3.68554 2.38883 0
M  V30 5034 H 482.067 4.17879 0.791028 0
M  V30 5035 N 480.382 0.0267497 1.57577 0
M  V30 5036 C 481.61 -0.662661 1.96001 0
M  V30 5037 C 482.025 -1.65799 0.903117 0
M  V30 5038 O 481.382 -1.82135 -0.115317 0
M  V30 5039 C 481.433 -1.37112 3.34488 0
M  V30 5040 O 481.154 -0.415683 4.36123 0
M  V30 5041 C 482.655 -2.15257 3.8753 0
M  V30 5042 H 479.875 -0.18287 0.6456 0
M  V30 5043 H 482.419 0.0858116 2.0432 0
M  V30 5044 H 480.574 -2.07101 3.27395 0
M  V30 5045 H 480.988 -0.918496 5.16395 0
M  V30 5046 H 482.462 -2.60285 4.86781 0
M  V30 5047 H 482.939 -2.99063 3.21649 0
M  V30 5048 H 483.545 -1.50231 3.97883 0
M  V30 5049 N 481.861 -1.55662 -0.24637 0
M  V30 5050 C 483.108 -1.77519 -0.974335 0
M  V30 5051 C 483.436 -0.591165 -1.85298 0
M  V30 5052 O 482.691 0.425497 -1.91018 0
M  V30 5053 C 482.99 -3.04885 -1.86494 0
M  V30 5054 C 482.656 -4.36209 -1.14161 0
M  V30 5055 C 481.318 -4.71896 -0.941701 0
M  V30 5056 C 483.67 -5.17391 -0.628957 0
M  V30 5057 C 480.998 -5.86299 -0.216852 0
M  V30 5058 C 483.35 -6.32546 0.0824273 0
M  V30 5059 C 482.014 -6.66853 0.293807 0
M  V30 5060 H 481.284 -0.649588 -0.356535 0
M  V30 5061 H 483.931 -1.89934 -0.244394 0
M  V30 5062 H 482.236 -2.87484 -2.66196 0
M  V30 5063 H 483.933 -3.18994 -2.42989 0
M  V30 5064 H 480.523 -4.08174 -1.30736 0
M  V30 5065 H 484.707 -4.90276 -0.770943 0
M  V30 5066 H 479.963 -6.11385 -0.0426124 0
M  V30 5067 H 484.137 -6.94693 0.487292 0
M  V30 5068 H 481.764 -7.55349 0.857428 0
M  V30 5069 N 483.339 0.512053 -1.4905 0
M  V30 5070 C 484.287 1.63568 -1.65373 0
M  V30 5071 C 485.281 1.61228 -0.519806 0
M  V30 5072 O 486.487 1.65869 -0.699101 0
M  V30 5073 H 482.862 0.542019 -0.521267 0
M  V30 5074 H 484.833 1.4695 -2.59708 0
M  V30 5075 C 483.582 3.01761 -1.7273 0
M  V30 5076 H 482.905 3.04263 -2.59353 0
M  V30 5077 H 484.345 3.79948 -1.8819 0
M  V30 5078 C 482.804 3.33609 -0.46973 0
M  V30 5079 O 483.334 3.99607 0.409492 0
M  V30 5080 N 481.54 2.88651 -0.336003 0
M  V30 5081 H 481.087 2.35119 -1.05247 0
M  V30 5082 H 481.045 3.10328 0.504363 0
M  V30 5083 N 484.817 1.37938 0.762283 0
M  V30 5084 C 485.749 1.30349 1.88525 0
M  V30 5085 C 486.762 0.217402 1.61342 0
M  V30 5086 O 487.951 0.474291 1.72084 0
M  V30 5087 C 485.051 0.994844 3.23969 0
M  V30 5088 C 484.224 2.18829 3.78725 0
M  V30 5089 C 483.283 1.84844 4.92665 0
M  V30 5090 O 482.309 2.57244 5.07754 0
M  V30 5091 N 483.511 0.798201 5.74986 0
M  V30 5092 H 486.276 2.27114 1.95549 0
M  V30 5093 H 483.837 1.31686 0.941825 0
M  V30 5094 H 485.829 0.748168 3.97724 0
M  V30 5095 H 484.399 0.115446 3.12387 0
M  V30 5096 H 483.619 2.59615 2.96637 0
M  V30 5097 H 484.907 2.98497 4.1204 0
M  V30 5098 H 484.305 0.197611 5.65355 0
M  V30 5099 H 482.862 0.611396 6.48926 0
M  V30 5100 N 486.295 -0.989507 1.22664 0
M  V30 5101 C 487.205 -2.11449 1.01619 0
M  V30 5102 C 488.221 -1.73962 -0.036545 0
M  V30 5103 O 489.397 -2.00788 0.156924 0
M  V30 5104 C 486.462 -3.41465 0.600204 0
M  V30 5105 C 485.523 -3.93033 1.72695 0
M  V30 5106 C 484.756 -5.16844 1.33071 0
M  V30 5107 O 484.979 -5.7001 0.210975 0
M  V30 5108 O 483.913 -5.6225 2.14845 0
M  V30 5109 H 487.739 -2.32088 1.9588 0
M  V30 5110 H 485.324 -1.09823 1.01289 0
M  V30 5111 H 487.206 -4.19695 0.37873 0
M  V30 5112 H 485.881 -3.22178 -0.313511 0
M  V30 5113 H 484.788 -3.15961 2.00298 0
M  V30 5114 H 486.121 -4.16758 2.61865 0
M  V30 5115 N 487.773 -1.03688 -1.18687 0
M  V30 5116 C 489.001 -0.757918 -1.92518 0
M  V30 5117 C 489.416 0.684398 -1.75959 0
M  V30 5118 O 488.773 1.46617 -1.08673 0
M  V30 5119 C 488.824 -1.10985 -3.44042 0
M  V30 5120 O 488.545 -2.49554 -3.60076 0
M  V30 5121 C 490.046 -0.854844 -4.3498 0
M  V30 5122 H 487.266 -0.276699 -0.611293 0
M  V30 5123 H 489.81 -1.38352 -1.50595 0
M  V30 5124 H 487.965 -0.529279 -3.83767 0
M  V30 5125 H 488.379 -2.6291 -4.53849 0
M  V30 5126 H 489.853 -1.15098 -5.39867 0
M  V30 5127 H 490.33 0.210507 -4.38695 0
M  V30 5128 H 490.936 -1.41853 -4.00946 0
M  V30 5129 N 489.251 1.34841 -0.815825 0
M  V30 5130 C 490.499 1.98107 -0.399744 0
M  V30 5131 C 490.82 1.65019 1.03894 0
M  V30 5132 O 490.09 0.937311 1.72021 0
M  V30 5133 H 488.67 0.732827 -0.144823 0
M  V30 5134 H 491.332 1.64599 -1.0437 0
M  V30 5135 H 490.428 3.07856 -0.512965 0
M  V30 5136 N 490.729 0.570148 1.46925 0
M  V30 5137 C 491.969 0.0534743 2.0433 0
M  V30 5138 C 492.333 -1.27729 1.4335 0
M  V30 5139 O 493.534 -1.88244 1.91879 0
M  V30 5140 C 491.805 -0.0244296 3.57392 0
M  V30 5141 S 493.364 -0.485351 4.36108 0
M  V30 5142 H 490.182 0.0313908 0.710307 0
M  V30 5143 H 492.784 0.759808 1.80131 0
M  V30 5144 H 491.488 0.948261 3.99295 0
M  V30 5145 H 491.019 -0.753922 3.86108 0
M  V30 5146 H 493.034 -1.74258 4.64595 0
M  V30 5147 N 492.207 -1.54576 0.307264 0
M  V30 5148 C 493.117 -2.27435 -0.57536 0
M  V30 5149 C 494.133 -1.31183 -1.14311 0
M  V30 5150 O 495.309 -1.64175 -1.16656 0
M  V30 5151 C 492.374 -3.00566 -1.72803 0
M  V30 5152 C 491.435 -4.12369 -1.19373 0
M  V30 5153 C 490.668 -4.82003 -2.29147 0
M  V30 5154 O 490.891 -4.51038 -3.49171 0
M  V30 5155 O 489.825 -5.69271 -1.95485 0
M  V30 5156 H 493.651 -3.03696 0.0158558 0
M  V30 5157 H 491.236 -1.49219 0.0735064 0
M  V30 5158 H 493.118 -3.46416 -2.39946 0
M  V30 5159 H 491.793 -2.27195 -2.30574 0
M  V30 5160 H 490.7 -3.70905 -0.487851 0
M  V30 5161 H 492.033 -4.87736 -0.661376 0
M  V30 5162 N 493.685 -0.035106 -1.57561 0
M  V30 5163 C 494.915 0.651312 -1.96065 0
M  V30 5164 C 495.323 1.6585 -0.910514 0
M  V30 5165 O 494.666 1.83336 0.11552 0
M  V30 5166 C 494.728 1.40897 -3.30739 0
M  V30 5167 C 494.392 0.559436 -4.53563 0
M  V30 5168 C 495.389 -0.16778 -5.19629 0
M  V30 5169 C 493.074 0.495079 -4.99854 0
M  V30 5170 C 495.068 -0.947963 -6.30311 0
M  V30 5171 C 492.755 -0.288804 -6.10417 0
M  V30 5172 C 493.753 -1.00903 -6.75505 0
M  V30 5173 O 493.441 -1.78005 -7.83945 0
M  V30 5174 H 493.173 0.184036 -0.650467 0
M  V30 5175 H 495.727 -0.0929677 -2.05189 0
M  V30 5176 H 493.957 2.19852 -3.18123 0
M  V30 5177 H 495.646 1.98407 -3.54104 0
M  V30 5178 H 496.412 -0.12743 -4.84833 0
M  V30 5179 H 492.291 1.04524 -4.48994 0
M  V30 5180 H 495.835 -1.51064 -6.81047 0
M  V30 5181 H 491.732 -0.33085 -6.44652 0
M  V30 5182 H 492.5 -1.70046 -8.00641 0
M  V30 5183 N 495.163 1.55791 0.238111 0
M  V30 5184 C 496.388 1.8244 0.986432 0
M  V30 5185 C 496.813 0.613314 1.7782 0
M  V30 5186 O 496.171 -0.437767 1.75935 0
M  V30 5187 C 496.219 3.06917 1.893 0
M  V30 5188 O 495.323 2.84449 2.98601 0
M  V30 5189 H 494.664 0.601975 0.280218 0
M  V30 5190 H 497.194 2.02987 0.256437 0
M  V30 5191 H 497.204 3.36583 2.30598 0
M  V30 5192 H 495.879 3.947 1.31091 0
M  V30 5193 H 494.456 2.65972 2.61368 0
M  V30 5194 N 496.642 -0.504142 1.49319 0
M  V30 5195 C 497.891 -1.25507 1.57895 0
M  V30 5196 C 498.204 -1.93735 0.269433 0
M  V30 5197 O 499.41 -2.70492 0.233706 0
M  V30 5198 C 497.866 -2.27869 2.78574 0
M  V30 5199 C 497.474 -1.65594 4.16272 0
M  V30 5200 C 499.218 -3.0381 2.96479 0
M  V30 5201 C 497.125 -2.66048 5.28178 0
M  V30 5202 H 496.055 -0.47212 0.587894 0
M  V30 5203 H 498.706 -0.52931 1.757 0
M  V30 5204 H 497.088 -3.03594 2.54257 0
M  V30 5205 H 498.262 -0.958826 4.50714 0
M  V30 5206 H 496.577 -1.02055 4.037 0
M  V30 5207 H 499.174 -3.78925 3.77253 0
M  V30 5208 H 499.517 -3.61235 2.06918 0
M  V30 5209 H 500.05 -2.352 3.20821 0
M  V30 5210 H 496.789 -2.13408 6.19788 0
M  V30 5211 H 496.309 -3.34009 4.98195 0
M  V30 5212 H 497.988 -3.28536 5.57381 0
M  V30 5213 N 498.12 -1.38341 -0.754957 0
M  V30 5214 C 499.348 -1.37704 -1.54419 0
M  V30 5215 C 499.763 0.0335243 -1.8877 0
M  V30 5216 O 499.12 0.999773 -1.52679 0
M  V30 5217 C 499.171 -2.23136 -2.84416 0
M  V30 5218 O 498.892 -3.58697 -2.51531 0
M  V30 5219 C 500.393 -2.30664 -3.78562 0
M  V30 5220 H 497.613 -0.471061 -0.477852 0
M  V30 5221 H 500.157 -1.81902 -0.934446 0
M  V30 5222 H 498.312 -1.82403 -3.41772 0
M  V30 5223 H 498.726 -4.03665 -3.34896 0
M  V30 5224 H 500.2 -2.9473 -4.66732 0
M  V30 5225 H 500.677 -1.3199 -4.18898 0
M  V30 5226 H 501.283 -2.71781 -3.27131 0
M  V30 5227 N 499.598 0.982988 -1.23187 0
M  V30 5228 C 500.845 1.72392 -1.06241 0
M  V30 5229 C 501.173 1.9032 0.40108 0
M  V30 5230 O 500.428 1.45084 1.31336 0
M  V30 5231 C 500.727 3.12736 -1.73006 0
M  V30 5232 C 500.393 3.14695 -3.22921 0
M  V30 5233 C 499.055 3.14937 -3.63824 0
M  V30 5234 C 501.407 3.10211 -4.1883 0
M  V30 5235 C 498.735 3.08408 -4.99101 0
M  V30 5236 C 501.087 3.05224 -5.54095 0
M  V30 5237 C 499.751 3.03787 -5.94365 0
M  V30 5238 H 499.021 0.630829 -0.388762 0
M  V30 5239 H 501.668 1.15053 -1.53085 0
M  V30 5240 H 499.973 3.73446 -1.18514 0
M  V30 5241 H 501.67 3.68828 -1.57374 0
M  V30 5242 H 498.26 3.15262 -2.90358 0
M  V30 5243 H 502.444 3.09166 -3.8824 0
M  V30 5244 H 497.7 3.05646 -5.29519 0
M  V30 5245 H 501.874 3.00712 -6.28128 0
M  V30 5246 H 499.501 2.98483 -6.99151 0
M  V30 5247 N 501.076 1.04316 1.18135 0
M  V30 5248 C 502.353 0.662166 1.84051 0
M  V30 5249 C 502.733 -0.858169 1.9287 0
M  V30 5250 O 502.081 -1.76062 1.45652 0
M  V30 5251 C 502.291 1.3409 3.22212 0
M  V30 5252 C 503.639 1.4733 3.9822 0
M  V30 5253 O 504.663 1.29921 3.31661 0
M  V30 5254 O 503.522 1.75722 5.17479 0
M  V30 5255 H 500.616 0.232005 0.79379 0
M  V30 5256 H 503.162 1.1422 1.25506 0
M  V30 5257 H 501.934 2.37853 3.10711 0
M  V30 5258 H 501.557 0.849649 3.88416 0
M  V30 5259 N 502.554 -1.34406 0.822964 0
M  V30 5260 C 503.801 -1.98284 0.411057 0
M  V30 5261 C 504.129 -1.65245 -1.02588 0
M  V30 5262 O 503.384 -0.91619 -1.72929 0
M  V30 5263 C 503.683 -3.52981 0.560268 0
M  V30 5264 C 503.349 -4.05931 1.96293 0
M  V30 5265 C 502.011 -4.20103 2.34664 0
M  V30 5266 C 504.363 -4.34412 2.87985 0
M  V30 5267 C 501.691 -4.60082 3.64062 0
M  V30 5268 C 504.043 -4.75838 4.16847 0
M  V30 5269 C 502.707 -4.88215 4.55195 0
M  V30 5270 H 501.977 -0.725573 0.150416 0
M  V30 5271 H 504.624 -1.60349 1.04692 0
M  V30 5272 H 502.929 -3.91477 -0.158982 0
M  V30 5273 H 504.626 -4.00385 0.222087 0
M  V30 5274 H 501.216 -3.95363 1.65487 0
M  V30 5275 H 505.4 -4.23001 2.59584 0
M  V30 5276 H 500.656 -4.67856 3.93599 0
M  V30 5277 H 504.83 -4.96834 4.87984 0
M  V30 5278 H 502.457 -5.18952 5.55512 0
M  V30 5279 N 504.032 -0.577932 -1.46621 0
M  V30 5280 C 505.257 -0.0652536 -2.07297 0
M  V30 5281 C 505.682 1.22828 -1.4246 0
M  V30 5282 O 505.04 1.74075 -0.506718 0
M  V30 5283 C 505.088 0.0920589 -3.60482 0
M  V30 5284 O 504.192 1.14972 -3.96049 0
M  V30 5285 H 503.533 -0.06065 -0.661224 0
M  V30 5286 H 506.063 -0.799515 -1.88332 0
M  V30 5287 H 506.073 0.299741 -4.06897 0
M  V30 5288 H 504.748 -0.852612 -4.07067 0
M  V30 5289 H 503.325 0.920879 -3.61351 0
M  V30 5290 N 505.51 1.54411 -0.315457 0
M  V30 5291 C 506.756 2.01425 0.282775 0
M  V30 5292 C 507.111 1.19978 1.5041 0
M  V30 5293 O 506.404 0.271766 1.89663 0
M  V30 5294 C 506.598 3.50936 0.676652 0
M  V30 5295 C 506.427 4.46856 -0.504954 0
M  V30 5296 C 505.197 4.95275 -1.00152 0
M  V30 5297 C 507.395 4.96141 -1.35456 0
M  V30 5298 N 505.377 5.75081 -2.14838 0
M  V30 5299 C 506.748 5.73791 -2.3487 0
M  V30 5300 C 508.803 4.78299 -1.38327 0
M  V30 5301 C 507.506 6.35498 -3.36949 0
M  V30 5302 C 509.532 5.40836 -2.39271 0
M  V30 5303 C 508.894 6.1833 -3.37413 0
M  V30 5304 H 504.993 0.779078 0.0675398 0
M  V30 5305 H 507.577 1.8946 -0.448656 0
M  V30 5306 H 505.748 3.63162 1.37723 0
M  V30 5307 H 507.48 3.84728 1.25566 0
M  V30 5308 H 504.235 4.70107 -0.574123 0
M  V30 5309 H 504.659 6.19664 -2.72665 0
M  V30 5310 H 509.301 4.17956 -0.638196 0
M  V30 5311 H 507.019 6.94967 -4.12367 0
M  V30 5312 H 510.605 5.28952 -2.42284 0
M  V30 5313 H 509.485 6.65861 -4.14244 0
M  V30 5314 N 506.988 0.0434614 1.5754 0
M  V30 5315 C 508.213 -0.645358 1.97104 0
M  V30 5316 C 508.638 -1.64037 0.920521 0
M  V30 5317 O 507.996 -1.80922 -0.11708 0
M  V30 5318 C 508.044 -1.31547 3.35749 0
M  V30 5319 O 507.148 -2.43103 3.33129 0
M  V30 5320 H 506.489 -0.168403 0.64229 0
M  V30 5321 H 509.019 0.109573 2.04306 0
M  V30 5322 H 509.029 -1.66895 3.72304 0
M  V30 5323 H 507.704 -0.586205 4.11748 0
M  V30 5324 H 506.281 -2.0976 3.0831 0
M  V30 5325 N 508.466 -1.55915 -0.229846 0
M  V30 5326 C 509.413 -1.91734 -1.28478 0
M  V30 5327 C 510.383 -0.773539 -1.46988 0
M  V30 5328 O 511.568 -1.02871 -1.60693 0
M  V30 5329 C 508.708 -2.23224 -2.63182 0
M  V30 5330 C 507.821 -3.50497 -2.52539 0
M  V30 5331 C 506.956 -3.71474 -3.79711 0
M  V30 5332 C 505.995 -4.92289 -3.63755 0
M  V30 5333 N 505.132 -5.09698 -4.82858 0
M  V30 5334 H 509.972 -2.81692 -0.972308 0
M  V30 5335 H 507.509 -1.39429 -0.468815 0
M  V30 5336 H 509.467 -2.3949 -3.41614 0
M  V30 5337 H 508.097 -1.36451 -2.92542 0
M  V30 5338 H 507.149 -3.4247 -1.65585 0
M  V30 5339 H 508.461 -4.39079 -2.36666 0
M  V30 5340 H 507.615 -3.87791 -4.66586 0
M  V30 5341 H 506.354 -2.81157 -3.985 0
M  V30 5342 H 505.359 -4.7593 -2.75264 0
M  V30 5343 H 506.584 -5.84083 -3.46445 0
M  V30 5344 H 504.53 -4.22322 -5.01976 0
M  V30 5345 H 504.447 -5.92399 -4.69681 0
M  V30 5346 H 505.715 -5.30443 -5.71183 0
M  V30 5347 N 509.944 0.496216 -1.49584 0
M  V30 5348 C 511.172 1.27394 -1.63029 0
M  V30 5349 C 511.587 1.86344 -0.303569 0
M  V30 5350 O 510.944 1.68057 0.711547 0
M  V30 5351 C 510.995 2.40077 -2.70269 0
M  V30 5352 O 510.716 1.83549 -3.97796 0
M  V30 5353 C 512.217 3.31372 -2.94462 0
M  V30 5354 H 509.437 0.386211 -0.54871 0
M  V30 5355 H 511.981 0.595163 -1.95648 0
M  V30 5356 H 510.136 3.03775 -2.40415 0
M  V30 5357 H 510.55 2.57561 -4.56905 0
M  V30 5358 H 512.024 4.06707 -3.73221 0
M  V30 5359 H 512.501 3.88654 -2.0456 0
M  V30 5360 H 513.107 2.73435 -3.25751 0
M  V30 5361 N 511.423 1.38739 0.74761 0
M  V30 5362 C 512.653 1.3832 1.53464 0
M  V30 5363 C 513.061 -0.0273464 1.8918 0
M  V30 5364 O 512.404 -1.00588 1.53713 0
M  V30 5365 C 512.466 2.18007 2.85855 0
M  V30 5366 C 512.13 3.66762 2.72644 0
M  V30 5367 C 513.127 4.60124 2.42037 0
M  V30 5368 C 510.812 4.10193 2.89909 0
M  V30 5369 C 512.806 5.94897 2.28859 0
M  V30 5370 C 510.493 5.45045 2.7635 0
M  V30 5371 C 511.491 6.37211 2.45869 0
M  V30 5372 O 511.179 7.69581 2.3238 0
M  V30 5373 H 510.911 0.474718 0.481268 0
M  V30 5374 H 513.465 1.83012 0.932518 0
M  V30 5375 H 511.695 1.68043 3.48279 0
M  V30 5376 H 513.384 2.09921 3.47402 0
M  V30 5377 H 514.15 4.27874 2.28361 0
M  V30 5378 H 510.029 3.38797 3.1263 0
M  V30 5379 H 513.573 6.66802 2.04989 0
M  V30 5380 H 509.47 5.76889 2.89601 0
M  V30 5381 H 510.238 7.80169 2.47546 0
M  V30 5382 N 512.901 -0.976442 1.23707 0
M  V30 5383 C 513.811 -2.10359 1.03856 0
M  V30 5384 C 514.827 -1.73991 -0.0180919 0
M  V30 5385 O 516.003 -2.0061 0.178211 0
M  V30 5386 C 513.068 -3.40809 0.636387 0
M  V30 5387 C 512.129 -3.91179 1.76854 0
M  V30 5388 C 511.362 -5.15404 1.38546 0
M  V30 5389 O 511.585 -5.69754 0.27142 0
M  V30 5390 O 510.519 -5.5994 2.20797 0
M  V30 5391 H 514.345 -2.29997 1.98331 0
M  V30 5392 H 511.93 -1.08742 1.02448 0
M  V30 5393 H 513.812 -4.19269 0.423223 0
M  V30 5394 H 512.487 -3.22493 -0.279322 0
M  V30 5395 H 511.394 -3.13819 2.03638 0
M  V30 5396 H 512.727 -4.13958 2.6627 0
M  V30 5397 N 514.379 -1.04941 -1.1758 0
M  V30 5398 C 515.327 -0.64204 -2.23563 0
M  V30 5399 C 516.321 0.335453 -1.66045 0
M  V30 5400 O 517.527 0.20179 -1.78865 0
M  V30 5401 H 513.902 -0.18944 -0.727748 0
M  V30 5402 H 515.873 -1.54609 -2.55223 0
M  V30 5403 C 514.622 -0.0301051 -3.47687 0
M  V30 5404 H 513.945 -0.773339 -3.92249 0
M  V30 5405 H 515.385 0.217592 -4.23441 0
M  V30 5406 C 513.844 1.2225 -3.13937 0
M  V30 5407 O 514.374 2.3122 -3.28482 0
M  V30 5408 N 512.58 1.11917 -2.68185 0
M  V30 5409 H 512.127 0.232403 -2.5655 0
M  V30 5410 H 512.085 1.95814 -2.45976 0
M  V30 5411 N 515.857 1.33968 -0.830081 0
M  V30 5412 C 517.103 1.98357 -0.422191 0
M  V30 5413 C 517.436 1.65633 1.01387 0
M  V30 5414 O 516.711 0.931648 1.70735 0
M  V30 5415 C 516.994 3.54492 -0.633043 0
M  V30 5416 C 516.847 3.96934 -2.11574 0
M  V30 5417 C 518.166 4.40039 -0.0735584 0
M  V30 5418 H 515.285 0.720544 -0.154871 0
M  V30 5419 H 517.927 1.58749 -1.04397 0
M  V30 5420 H 516.077 3.88361 -0.103775 0
M  V30 5421 H 517.749 3.73363 -2.7092 0
M  V30 5422 H 515.992 3.46984 -2.60354 0
M  V30 5423 H 516.663 5.05651 -2.21406 0
M  V30 5424 H 519.139 4.12764 -0.52585 0
M  V30 5425 H 518.015 5.48327 -0.250841 0
M  V30 5426 H 518.276 4.30124 1.02202 0
M  V30 5427 N 517.335 0.585699 1.46312 0
M  V30 5428 C 518.245 -0.148236 2.34131 0
M  V30 5429 C 519.261 -0.882972 1.49932 0
M  V30 5430 O 520.437 -0.845484 1.82794 0
M  V30 5431 C 517.502 -1.14714 3.27172 0
M  V30 5432 C 516.563 -0.416746 4.27272 0
M  V30 5433 C 515.796 -1.36806 5.15868 0
M  V30 5434 O 516.019 -2.60475 5.07454 0
M  V30 5435 O 514.953 -0.877018 5.95476 0
M  V30 5436 H 518.779 0.572882 2.98248 0
M  V30 5437 H 516.364 0.346082 1.45336 0
M  V30 5438 H 518.246 -1.72303 3.84564 0
M  V30 5439 H 516.921 -1.84967 2.65648 0
M  V30 5440 H 515.828 0.201061 3.73559 0
M  V30 5441 H 517.161 0.244872 4.9159 0
M  V30 5442 N 518.813 -1.54241 0.323641 0
M  V30 5443 C 520.06 -2.0057 -0.27891 0
M  V30 5444 C 520.388 -1.21181 -1.52136 0
M  V30 5445 O 519.643 -0.282043 -1.93657 0
M  V30 5446 C 519.942 -3.5129 -0.658031 0
M  V30 5447 C 519.608 -4.48281 0.485252 0
M  V30 5448 C 518.27 -4.74519 0.799055 0
M  V30 5449 C 520.622 -5.05909 1.25322 0
M  V30 5450 C 517.95 -5.55643 1.88354 0
M  V30 5451 C 520.302 -5.88215 2.32779 0
M  V30 5452 C 518.966 -6.12755 2.64741 0
M  V30 5453 H 518.236 -0.733938 -0.10206 0
M  V30 5454 H 520.883 -1.862 0.447435 0
M  V30 5455 H 519.188 -3.63388 -1.4648 0
M  V30 5456 H 520.885 -3.84578 -1.1358 0
M  V30 5457 H 517.475 -4.27979 0.230593 0
M  V30 5458 H 521.659 -4.8562 1.02404 0
M  V30 5459 H 516.915 -5.72888 2.13564 0
M  V30 5460 H 521.089 -6.31888 2.92729 0
M  V30 5461 H 518.716 -6.75404 3.48904 0
M  V30 5462 N 520.291 -0.0518155 -1.57515 0
M  V30 5463 C 521.201 0.937539 -2.15052 0
M  V30 5464 C 522.217 1.34121 -1.10849 0
M  V30 5465 O 523.393 1.418 -1.4302 0
M  V30 5466 C 520.458 2.19379 -2.68466 0
M  V30 5467 C 519.519 1.84841 -3.87469 0
M  V30 5468 C 518.752 3.04477 -4.38326 0
M  V30 5469 O 518.975 4.17868 -3.88256 0
M  V30 5470 O 517.909 2.85453 -5.29906 0
M  V30 5471 H 521.735 0.478201 -2.99912 0
M  V30 5472 H 519.32 0.17012 -1.48428 0
M  V30 5473 H 521.202 2.93084 -3.02787 0
M  V30 5474 H 519.877 2.64449 -1.86677 0
M  V30 5475 H 518.784 1.08449 -3.58036 0
M  V30 5476 H 520.117 1.44569 -4.7049 0
M  V30 5477 N 521.769 1.56035 0.221574 0
M  V30 5478 C 522.997 1.8313 0.962864 0
M  V30 5479 C 523.412 0.630934 1.77946 0
M  V30 5480 O 522.769 -0.400519 1.78051 0
M  V30 5481 C 522.82 3.08742 1.88045 0
M  V30 5482 O 522.541 4.24147 1.09686 0
M  V30 5483 C 524.042 3.48824 2.73563 0
M  V30 5484 H 521.262 0.608775 0.282194 0
M  V30 5485 H 523.806 2.03124 0.23681 0
M  V30 5486 H 521.961 2.90723 2.56045 0
M  V30 5487 H 522.375 4.95505 1.71974 0
M  V30 5488 H 523.849 4.39752 3.3365 0
M  V30 5489 H 524.326 2.70575 3.45956 0
M  V30 5490 H 524.932 3.69282 2.10976 0
M  V30 5491 N 523.247 -0.488276 1.49845 0
M  V30 5492 C 524.475 -1.26527 1.63702 0
M  V30 5493 C 524.89 -1.8618 0.313447 0
M  V30 5494 O 524.247 -1.68432 -0.702624 0
M  V30 5495 C 524.298 -2.3864 2.71538 0
M  V30 5496 O 524.019 -1.81437 3.98763 0
M  V30 5497 C 525.52 -3.29805 2.96215 0
M  V30 5498 H 522.74 -0.383295 0.55075 0
M  V30 5499 H 525.284 -0.584779 1.95961 0
M  V30 5500 H 523.439 -3.02496 2.42023 0
M  V30 5501 H 523.853 -2.55135 4.58265 0
M  V30 5502 H 525.327 -4.04722 3.75372 0
M  V30 5503 H 525.804 -3.87563 2.06619 0
M  V30 5504 H 526.41 -2.71703 3.27196 0
M  V30 5505 N 524.725 -1.39134 -0.740242 0
M  V30 5506 C 525.95 -1.39518 -1.53459 0
M  V30 5507 C 526.375 0.00968883 -1.88098 0
M  V30 5508 O 525.733 0.995312 -1.51536 0
M  V30 5509 C 525.781 -2.26981 -2.802 0
M  V30 5510 O 524.885 -1.69609 -3.75908 0
M  V30 5511 H 524.226 -0.475328 -0.463637 0
M  V30 5512 H 526.756 -1.83064 -0.913717 0
M  V30 5513 H 526.766 -2.41309 -3.28989 0
M  V30 5514 H 525.441 -3.29081 -2.5432 0
M  V30 5515 H 524.018 -1.64495 -3.34658 0
M  V30 5516 N 526.204 0.969867 -1.24223 0
M  V30 5517 C 527.451 1.71256 -1.08063 0
M  V30 5518 C 527.779 1.90734 0.380872 0
M  V30 5519 O 527.034 1.46469 1.29789 0
M  V30 5520 C 527.333 3.10883 -1.76314 0
M  V30 5521 C 526.999 3.11252 -3.26241 0
M  V30 5522 C 525.661 3.1106 -3.67144 0
M  V30 5523 C 528.013 3.05751 -4.22097 0
M  V30 5524 C 525.341 3.03097 -5.02344 0
M  V30 5525 C 527.693 2.9933 -5.57301 0
M  V30 5526 C 526.357 2.97466 -5.97554 0
M  V30 5527 H 525.627 0.62667 -0.395431 0
M  V30 5528 H 528.274 1.13422 -1.54297 0
M  V30 5529 H 526.579 3.72168 -1.22468 0
M  V30 5530 H 528.276 3.67138 -1.61277 0
M  V30 5531 H 524.866 3.12165 -2.93685 0
M  V30 5532 H 529.05 3.05031 -3.91497 0
M  V30 5533 H 524.306 3.00013 -5.32731 0
M  V30 5534 H 528.48 2.94033 -6.31283 0
M  V30 5535 H 526.107 2.91051 -7.02277 0
M  V30 5536 N 527.682 1.05563 1.17022 0
M  V30 5537 C 528.91 0.78845 1.91288 0
M  V30 5538 C 529.325 -0.656318 1.77025 0
M  V30 5539 O 528.682 -1.44869 1.10992 0
M  V30 5540 C 528.733 1.16444 3.42232 0
M  V30 5541 O 528.454 2.5525 3.5606 0
M  V30 5542 C 529.955 0.923937 4.33565 0
M  V30 5543 H 527.175 0.286389 0.606813 0
M  V30 5544 H 529.719 1.4073 1.48375 0
M  V30 5545 H 527.874 0.590266 3.82877 0
M  V30 5546 H 528.288 2.70097 4.49609 0
M  V30 5547 H 529.762 1.23672 5.37968 0
M  V30 5548 H 530.239 -0.140688 4.38975 0
M  V30 5549 H 530.845 1.48214 3.98639 0
M  V30 5550 N 529.16 -1.33526 0.837174 0
M  V30 5551 C 530.407 -1.97837 0.432064 0
M  V30 5552 C 530.735 -1.66324 -1.00829 0
M  V30 5553 O 529.99 -0.93448 -1.71948 0
M  V30 5554 C 530.289 -3.52367 0.597675 0
M  V30 5555 C 529.955 -4.03826 2.00587 0
M  V30 5556 C 528.617 -4.1759 2.39106 0
M  V30 5557 C 530.969 -4.31333 2.92576 0
M  V30 5558 C 528.297 -4.56195 3.68921 0
M  V30 5559 C 530.649 -4.7139 4.2187 0
M  V30 5560 C 529.313 -4.8336 4.60347 0
M  V30 5561 H 528.583 -0.723937 0.158104 0
M  V30 5562 H 531.23 -1.5923 1.06387 0
M  V30 5563 H 529.535 -3.91624 -0.117452 0
M  V30 5564 H 531.232 -4.00126 0.26454 0
M  V30 5565 H 527.822 -3.93586 1.69671 0
M  V30 5566 H 532.006 -4.20224 2.64056 0
M  V30 5567 H 527.262 -4.63655 3.9854 0
M  V30 5568 H 531.436 -4.91631 4.93226 0
M  V30 5569 H 529.063 -5.1303 5.60985 0
M  V30 5570 N 530.638 -0.59345 -1.46 0
M  V30 5571 C 531.863 -0.0872365 -2.07216 0
M  V30 5572 C 532.288 1.2131 -1.43755 0
M  V30 5573 O 531.646 1.73528 -0.525152 0
M  V30 5574 C 531.694 0.0538197 -3.6056 0
M  V30 5575 O 530.798 1.10765 -3.97247 0
M  V30 5576 H 530.139 -0.0676598 -0.660544 0
M  V30 5577 H 532.669 -0.819445 -1.87473 0
M  V30 5578 H 532.679 0.256567 -4.07193 0
M  V30 5579 H 531.354 -0.895739 -4.0614 0
M  V30 5580 H 529.931 0.882501 -3.62307 0
M  V30 5581 N 532.116 1.54067 -0.331816 0
M  V30 5582 C 533.346 2.04833 0.269605 0
M  V30 5583 C 533.754 1.20714 1.45687 0
M  V30 5584 O 533.097 0.232539 1.82222 0
M  V30 5585 C 533.159 3.51386 0.759499 0
M  V30 5586 C 532.823 4.55971 -0.306557 0
M  V30 5587 C 533.82 5.07126 -1.14538 0
M  V30 5588 C 531.505 5.00216 -0.457116 0
M  V30 5589 C 533.499 6.01096 -2.12042 0
M  V30 5590 C 531.186 5.93999 -1.43556 0
M  V30 5591 C 532.184 6.44326 -2.26568 0
M  V30 5592 O 531.872 7.36267 -3.22749 0
M  V30 5593 H 531.604 0.673509 0.0579763 0
M  V30 5594 H 534.158 1.99748 -0.478521 0
M  V30 5595 H 532.388 3.53896 1.55867 0
M  V30 5596 H 534.077 3.85184 1.28017 0
M  V30 5597 H 534.843 4.73716 -1.04009 0
M  V30 5598 H 530.722 4.60652 0.179142 0
M  V30 5599 H 534.266 6.40302 -2.76873 0
M  V30 5600 H 530.163 6.26825 -1.54146 0
M  V30 5601 H 530.931 7.54165 -3.18083 0
M  V30 5602 N 533.594 0.0601682 1.57485 0
M  V30 5603 C 534.843 -0.611101 1.9222 0
M  V30 5604 C 535.156 -1.71469 0.941159 0
M  V30 5605 O 536.362 -2.44473 1.18089 0
M  V30 5606 C 534.818 -1.13832 3.41424 0
M  V30 5607 C 534.426 -0.0663596 4.47951 0
M  V30 5608 C 536.17 -1.78432 3.85178 0
M  V30 5609 C 534.077 -0.606965 5.88277 0
M  V30 5610 H 533.007 -0.232033 0.71741 0
M  V30 5611 H 535.658 0.130518 1.83035 0
M  V30 5612 H 534.04 -1.93254 3.45643 0
M  V30 5613 H 535.214 0.707682 4.55333 0
M  V30 5614 H 533.529 0.482715 4.13593 0
M  V30 5615 H 536.126 -2.1989 4.87394 0
M  V30 5616 H 536.469 -2.63966 3.21913 0
M  V30 5617 H 537.002 -1.05651 3.83514 0
M  V30 5618 H 533.741 0.21095 6.5516 0
M  V30 5619 H 533.261 -1.34879 5.84438 0
M  V30 5620 H 534.94 -1.08704 6.37803 0
M  V30 5621 N 535.072 -1.5615 -0.213296 0
M  V30 5622 C 536.035 -1.92249 -1.24792 0
M  V30 5623 C 537.035 -0.801828 -1.39382 0
M  V30 5624 O 538.225 -1.06948 -1.37506 0
M  V30 5625 C 535.357 -2.18056 -2.62039 0
M  V30 5626 H 536.55 -2.84793 -0.939845 0
M  V30 5627 H 534.103 -1.49559 -0.454062 0
M  V30 5628 H 534.838 -1.2809 -2.97932 0
M  V30 5629 H 534.623 -2.99703 -2.52825 0
M  V30 5630 H 536.113 -2.47051 -3.36683 0
M  V30 5631 N 536.55 0.480323 -1.50102 0
M  V30 5632 C 537.482 1.59669 -1.64433 0
M  V30 5633 C 538.495 1.54063 -0.52615 0
M  V30 5634 O 539.684 1.59619 -0.798992 0
M  V30 5635 C 536.784 2.98527 -1.6042 0
M  V30 5636 C 535.957 3.291 -2.88117 0
M  V30 5637 C 535.016 4.47468 -2.76873 0
M  V30 5638 O 534.042 4.4823 -3.50825 0
M  V30 5639 N 535.244 5.48593 -1.89806 0
M  V30 5640 H 538.009 1.47795 -2.60723 0
M  V30 5641 H 535.57 0.66858 -1.4745 0
M  V30 5642 H 537.562 3.75666 -1.50523 0
M  V30 5643 H 536.132 3.04218 -0.719036 0
M  V30 5644 H 535.352 2.40662 -3.12211 0
M  V30 5645 H 536.64 3.46334 -3.72734 0
M  V30 5646 H 536.038 5.50791 -1.2902 0
M  V30 5647 H 534.595 6.24752 -1.85819 0
M  V30 5648 N 538.028 1.39524 0.732853 0
M  V30 5649 C 538.938 1.40695 1.87729 0
M  V30 5650 C 539.954 0.301496 1.71368 0
M  V30 5651 O 541.13 0.543313 1.93933 0
M  V30 5652 C 538.195 1.25098 3.23344 0
M  V30 5653 C 537.256 2.45634 3.52083 0
M  V30 5654 C 536.489 2.30772 4.81228 0
M  V30 5655 O 536.712 1.31233 5.55098 0
M  V30 5656 O 535.646 3.19799 5.09914 0
M  V30 5657 H 539.472 2.37168 1.89697 0
M  V30 5658 H 537.057 1.20663 0.880959 0
M  V30 5659 H 538.939 1.18541 4.04383 0
M  V30 5660 H 537.614 0.317209 3.22142 0
M  V30 5661 H 536.521 2.57767 2.71122 0
M  V30 5662 H 537.854 3.37712 3.58066 0
M  V30 5663 O 539.545 -0.874016 1.35806 0
M  V30 5664 H 540.236 -1.51229 1.21035 0
M  V30 END ATOM
M  V30 BEGIN BOND
M  V30 END BOND
M  V30 END CTAB
M  END
$$$$
