drugbank_target|A0A045ISQ8 Cytochrome D Ubiquinol oxidase subunit II (DB05154)
 OpenBabel12092121203D

  0  0  0     0  0            999 V3000
M  V30 BEGIN CTAB
M  V30 COUNTS 5368 5459 0 0 0
M  V30 BEGIN ATOM
M  V30 1 H -0.908 1.98254 -0.117106 0
M  V30 2 N 0 1.576 0 0
M  V30 3 C 0.933 2.03868 1.02534 0
M  V30 4 C 1.911 0.928543 1.3348 0
M  V30 5 O 3.095 1.19667 1.45644 0
M  V30 6 C 0.222 2.43627 2.35294 0
M  V30 7 C -0.732 3.65373 2.2001 0
M  V30 8 S 0.101 5.13292 1.52614 0
M  V30 9 C 1.257 5.56322 2.86805 0
M  V30 10 H 1.49 2.90518 0.631377 0
M  V30 11 H -0.977 1.52953 0.210867 0
M  V30 12 H 0.981 2.67203 3.11629 0
M  V30 13 H -0.358 1.57376 2.7183 0
M  V30 14 H -1.165 3.90944 3.18086 0
M  V30 15 H -1.563 3.418 1.51819 0
M  V30 16 H 0.729 5.58782 3.83104 0
M  V30 17 H 1.672 6.56266 2.65933 0
M  V30 18 H 2.08 4.83886 2.90714 0
M  V30 19 N 1.4781 -0.272755 1.55222 0
M  V30 20 C 2.7241 -1.00581 1.761 0
M  V30 21 C 3.0571 -1.85932 0.560625 0
M  V30 22 O 2.3321 -1.89416 -0.441801 0
M  V30 23 C 2.6151 -1.88816 3.06628 0
M  V30 24 C 2.4681 -1.06457 4.37021 0
M  V30 25 C 3.7871 -2.8752 3.33197 0
M  V30 26 H 0.9061 -0.364244 0.640699 0
M  V30 27 H 3.5481 -0.278189 1.87952 0
M  V30 28 H 1.6981 -2.50856 2.96654 0
M  V30 29 H 3.3701 -0.464863 4.58952 0
M  V30 30 H 1.6131 -0.368043 4.32236 0
M  V30 31 H 2.2841 -1.71514 5.24678 0
M  V30 32 H 4.7601 -2.35615 3.42965 0
M  V30 33 H 3.6361 -3.46399 4.25792 0
M  V30 34 H 3.8971 -3.62657 2.52849 0
M  V30 35 N 2.9562 -1.48159 -0.537278 0
M  V30 36 C 3.8862 -1.65029 -1.6519 0
M  V30 37 C 4.8672 -0.499281 -1.62607 0
M  V30 38 O 6.0522 -0.730972 -1.79918 0
M  V30 39 C 3.1822 -1.68303 -3.03795 0
M  V30 40 C 2.1362 -2.8283 -3.21234 0
M  V30 41 C 1.4622 -2.71189 -4.60826 0
M  V30 42 C 2.7622 -4.24211 -3.04701 0
M  V30 43 H 4.4562 -2.58341 -1.51328 0
M  V30 44 H 2.0022 -1.24325 -0.726585 0
M  V30 45 H 3.9552 -1.78693 -3.81637 0
M  V30 46 H 2.6792 -0.715635 -3.18663 0
M  V30 47 H 1.3382 -2.71983 -2.45807 0
M  V30 48 H 0.9862 -1.72435 -4.7252 0
M  V30 49 H 0.6862 -3.48035 -4.7344 0
M  V30 50 H 2.2102 -2.83537 -5.40777 0
M  V30 51 H 3.6242 -4.3593 -3.72341 0
M  V30 52 H 2.0212 -5.01998 -3.28813 0
M  V30 53 H 3.0912 -4.41184 -2.01209 0
M  V30 54 N 4.4343 0.785586 -1.36625 0
M  V30 55 C 5.3663 1.90711 -1.2713 0
M  V30 56 C 6.3793 1.61688 -0.189986 0
M  V30 57 O 7.5683 1.72864 -0.445014 0
M  V30 58 C 4.6683 3.25611 -0.939713 0
M  V30 59 C 3.8413 3.82385 -2.12369 0
M  V30 60 C 2.9003 4.95732 -1.76456 0
M  V30 61 O 1.9263 5.12047 -2.48589 0
M  V30 62 N 3.1283 5.76258 -0.700492 0
M  V30 63 H 5.8933 1.99376 -2.23762 0
M  V30 64 H 3.4543 0.964041 -1.30069 0
M  V30 65 H 5.4463 3.98937 -0.680554 0
M  V30 66 H 4.0163 3.12538 -0.0624074 0
M  V30 67 H 3.2363 3.01001 -2.54543 0
M  V30 68 H 4.5243 4.17047 -2.9146 0
M  V30 69 H 3.9223 5.65609 -0.101624 0
M  V30 70 H 2.4793 6.4987 -0.501165 0
M  V30 71 N 5.9124 1.20967 1.01018 0
M  V30 72 C 6.8224 0.980157 2.13143 0
M  V30 73 C 7.8384 -0.0660665 1.73875 0
M  V30 74 O 9.0144 0.122821 2.01025 0
M  V30 75 C 6.0794 0.54216 3.42435 0
M  V30 76 C 5.1404 1.65999 3.95908 0
M  V30 77 C 4.3734 1.2428 5.19028 0
M  V30 78 O 4.5964 0.114196 5.70286 0
M  V30 79 O 3.5304 2.05271 5.65816 0
M  V30 80 H 7.3564 1.91913 2.35379 0
M  V30 81 H 4.9414 0.994099 1.11526 0
M  V30 82 H 6.8234 0.30744 4.20277 0
M  V30 83 H 5.4984 -0.36815 3.216 0
M  V30 84 H 4.4054 1.94906 3.19316 0
M  V30 85 H 5.7384 2.54753 4.21143 0
M  V30 86 N 7.3905 -1.2043 1.01659 0
M  V30 87 C 8.3205 -2.25466 0.607226 0
M  V30 88 C 9.3015 -1.65853 -0.377716 0
M  V30 89 O 10.4865 -1.92409 -0.263149 0
M  V30 90 C 7.6165 -3.47256 -0.0552949 0
M  V30 91 C 6.5705 -4.19462 0.850632 0
M  V30 92 C 5.8965 -5.34673 0.0538859 0
M  V30 93 C 7.1965 -4.75603 2.15868 0
M  V30 94 H 8.8905 -2.59962 1.48526 0
M  V30 95 H 6.4365 -1.2496 0.715605 0
M  V30 96 H 8.3895 -4.19917 -0.353233 0
M  V30 97 H 7.1135 -3.11924 -0.968045 0
M  V30 98 H 5.7725 -3.48667 1.13257 0
M  V30 99 H 5.4205 -4.95585 -0.860514 0
M  V30 100 H 5.1205 -5.83913 0.657192 0
M  V30 101 H 6.6445 -6.10138 -0.237598 0
M  V30 102 H 8.0585 -5.40083 1.92311 0
M  V30 103 H 6.4555 -5.3528 2.71284 0
M  V30 104 H 7.5255 -3.94346 2.82169 0
M  V30 105 N 8.8686 -0.792821 -1.36206 0
M  V30 106 C 10.1146 -0.376415 -1.99887 0
M  V30 107 C 10.4696 1.04127 -1.61788 0
M  V30 108 O 9.7626 1.71004 -0.864193 0
M  V30 109 C 9.9566 -0.481501 -3.54142 0
M  V30 110 C 9.7856 -1.90786 -4.07223 0
M  V30 111 C 8.5556 -2.53322 -4.37214 0
M  V30 112 C 10.7536 -2.87048 -4.26741 0
M  V30 113 N 8.7356 -3.8751 -4.7614 0
M  V30 114 C 10.1066 -4.06077 -4.6851 0
M  V30 115 C 12.1616 -2.8406 -4.08918 0
M  V30 116 C 10.8646 -5.22532 -4.94321 0
M  V30 117 C 12.8906 -3.99705 -4.35878 0
M  V30 118 C 12.2526 -5.1748 -4.77906 0
M  V30 119 H 8.3516 -0.185226 -0.759747 0
M  V30 120 H 10.9356 -1.03114 -1.65153 0
M  V30 121 H 9.1066 0.143154 -3.88136 0
M  V30 122 H 10.8386 -0.0410128 -4.04679 0
M  V30 123 H 7.5936 -2.04777 -4.2704 0
M  V30 124 H 8.0176 -4.5656 -4.99882 0
M  V30 125 H 12.6596 -1.94165 -3.75579 0
M  V30 126 H 10.3776 -6.1301 -5.2654 0
M  V30 127 H 13.9636 -3.98758 -4.23655 0
M  V30 128 H 12.8436 -6.05478 -4.98363 0
M  V30 129 N 10.3467 1.47872 -0.545128 0
M  V30 130 C 11.5937 2.02493 -0.0165858 0
M  V30 131 C 11.9217 1.42073 1.32836 0
M  V30 132 O 11.1767 0.561459 1.87473 0
M  V30 133 C 11.4757 3.57131 0.13867 0
M  V30 134 C 11.1417 4.36411 -1.13384 0
M  V30 135 C 9.8037 4.57792 -1.48256 0
M  V30 136 C 12.1557 4.82223 -1.97764 0
M  V30 137 C 9.4837 5.22233 -2.67376 0
M  V30 138 C 11.8357 5.47977 -3.16076 0
M  V30 139 C 10.4997 5.67593 -3.51275 0
M  V30 140 H 9.7697 0.740975 -0.00606918 0
M  V30 141 H 12.4167 1.77683 -0.714207 0
M  V30 142 H 10.7217 3.80865 0.919172 0
M  V30 143 H 12.4187 3.97031 0.562782 0
M  V30 144 H 9.0087 4.2004 -0.852297 0
M  V30 145 H 13.1927 4.65493 -1.72132 0
M  V30 146 H 8.4487 5.35616 -2.94831 0
M  V30 147 H 12.6227 5.8244 -3.81755 0
M  V30 148 H 10.2497 6.17298 -4.43675 0
M  V30 149 N 11.8248 0.280983 1.55075 0
M  V30 150 C 13.0728 -0.333455 1.9933 0
M  V30 151 C 13.3938 -1.55937 1.17085 0
M  V30 152 O 12.6638 -1.94143 0.261805 0
M  V30 153 H 11.2438 -0.126197 0.736263 0
M  V30 154 H 13.9058 0.387678 1.91005 0
M  V30 155 H 13.0018 -0.619292 3.05894 0
M  V30 156 N 13.3029 -1.57598 0.00835791 0
M  V30 157 C 14.5489 -1.91211 -0.675732 0
M  V30 158 C 14.8819 -0.883139 -1.72958 0
M  V30 159 O 14.1569 0.097016 -1.94258 0
M  V30 160 C 14.4399 -3.35379 -1.31123 0
M  V30 161 C 14.2929 -4.48999 -0.268356 0
M  V30 162 C 15.6119 -3.7912 -2.23508 0
M  V30 163 H 12.7309 -0.695374 -0.244179 0
M  V30 164 H 15.3729 -1.89901 0.0613655 0
M  V30 165 H 13.5229 -3.36626 -1.93946 0
M  V30 166 H 15.1949 -4.59887 0.360844 0
M  V30 167 H 13.4379 -4.31873 0.408482 0
M  V30 168 H 14.1089 -5.46851 -0.752218 0
M  V30 169 H 16.5849 -3.79477 -1.70693 0
M  V30 170 H 15.4609 -4.80729 -2.64936 0
M  V30 171 H 15.7219 -3.13455 -3.11766 0
M  V30 172 N 14.781 0.264519 -1.55364 0
M  V30 173 C 16.03 0.992812 -1.75574 0
M  V30 174 C 16.343 1.87142 -0.568979 0
M  V30 175 O 17.549 2.63513 -0.653682 0
M  V30 176 C 16.005 1.81519 -3.10771 0
M  V30 177 C 15.613 0.984839 -4.37041 0
M  V30 178 C 17.357 2.53727 -3.40327 0
M  V30 179 C 15.264 1.80209 -5.63275 0
M  V30 180 H 14.194 0.374412 -0.65447 0
M  V30 181 H 16.845 0.248138 -1.81815 0
M  V30 182 H 15.227 2.60115 -2.98591 0
M  V30 183 H 16.401 0.242455 -4.60162 0
M  V30 184 H 14.716 0.37691 -4.14691 0
M  V30 185 H 17.313 3.15292 -4.3185 0
M  V30 186 H 17.656 3.24447 -2.60845 0
M  V30 187 H 18.189 1.82156 -3.53644 0
M  V30 188 H 14.928 1.13896 -6.45529 0
M  V30 189 H 14.448 2.52022 -5.44284 0
M  V30 190 H 16.127 2.37364 -6.01887 0
M  V30 191 N 16.2591 1.48442 0.529413 0
M  V30 192 C 17.2221 1.62524 1.61612 0
M  V30 193 C 18.2221 0.498509 1.52877 0
M  V30 194 O 19.4121 0.76431 1.56537 0
M  V30 195 C 16.5441 1.59597 3.01233 0
M  V30 196 H 17.7371 2.59423 1.50465 0
M  V30 197 H 15.2901 1.37047 0.751514 0
M  V30 198 H 16.0251 0.641781 3.17886 0
M  V30 199 H 15.8101 2.41397 3.08982 0
M  V30 200 H 17.3001 1.72646 3.80241 0
M  V30 201 N 17.7372 -0.778329 1.37039 0
M  V30 202 C 18.7002 -1.87301 1.32102 0
M  V30 203 C 19.7002 -1.59198 0.226405 0
M  V30 204 O 20.8902 -1.67403 0.481861 0
M  V30 205 C 18.0222 -3.24309 1.05055 0
M  V30 206 H 19.2152 -1.93093 2.29467 0
M  V30 207 H 16.7682 -0.977358 1.21973 0
M  V30 208 H 17.5032 -3.24196 0.0819373 0
M  V30 209 H 17.2882 -3.46098 1.84279 0
M  V30 210 H 18.7782 -4.04382 1.04234 0
M  V30 211 N 19.2153 -1.21501 -1.00376 0
M  V30 212 C 20.1453 -0.999478 -2.11028 0
M  V30 213 C 21.1263 0.0759671 -1.6993 0
M  V30 214 O 22.3113 -0.0841106 -1.94018 0
M  V30 215 C 19.4413 -0.564709 -3.42678 0
M  V30 216 C 18.3953 -1.58486 -3.97576 0
M  V30 217 C 17.7213 -1.00628 -5.25146 0
M  V30 218 C 19.0213 -2.97204 -4.29496 0
M  V30 219 H 20.7153 -1.92495 -2.29317 0
M  V30 220 H 18.2613 -0.92693 -1.102 0
M  V30 221 H 20.2143 -0.401091 -4.19487 0
M  V30 222 H 18.9383 0.396411 -3.24185 0
M  V30 223 H 17.5973 -1.73606 -3.22888 0
M  V30 224 H 17.2453 -0.0368439 -5.02987 0
M  V30 225 H 16.9453 -1.68771 -5.62841 0
M  V30 226 H 18.4693 -0.854015 -6.04598 0
M  V30 227 H 19.8833 -2.8552 -4.97143 0
M  V30 228 H 18.2803 -3.62372 -4.78338 0
M  V30 229 H 19.3503 -3.47956 -3.3772 0
M  V30 230 N 20.6934 1.19889 -1.02296 0
M  V30 231 C 21.9404 1.8942 -0.715972 0
M  V30 232 C 22.2684 1.79251 0.754944 0
M  V30 233 O 21.5234 1.17526 1.56481 0
M  V30 234 C 21.8224 3.39883 -1.10518 0
M  V30 235 C 21.4884 3.70254 -2.57337 0
M  V30 236 C 20.1504 3.78254 -2.97452 0
M  V30 237 C 22.5024 3.84052 -3.52354 0
M  V30 238 C 19.8304 3.97514 -4.31509 0
M  V30 239 C 22.1824 4.04824 -4.86108 0
M  V30 240 C 20.8464 4.11054 -5.25919 0
M  V30 241 H 20.1164 0.693138 -0.261993 0
M  V30 242 H 22.7634 1.42012 -1.28472 0
M  V30 243 H 21.0684 3.8915 -0.454953 0
M  V30 244 H 22.7654 3.9199 -0.845261 0
M  V30 245 H 19.3554 3.64632 -2.25258 0
M  V30 246 H 23.5394 3.77221 -3.22518 0
M  V30 247 H 18.7954 4.00574 -4.61898 0
M  V30 248 H 22.9694 4.14442 -5.59653 0
M  V30 249 H 20.5964 4.2573 -6.29808 0
M  V30 250 N 22.1715 0.800033 1.35784 0
M  V30 251 C 23.1015 0.220184 2.3246 0
M  V30 252 C 24.0825 -0.65073 1.57161 0
M  V30 253 O 25.2675 -0.582359 1.85263 0
M  V30 254 C 22.3975 -0.637353 3.41402 0
M  V30 255 C 21.3515 0.134531 4.27789 0
M  V30 256 C 20.6775 -0.844285 5.27992 0
M  V30 257 C 21.9775 1.32979 5.05088 0
M  V30 258 H 23.6715 1.02787 2.81203 0
M  V30 259 H 21.2175 0.495717 1.35199 0
M  V30 260 H 23.1705 -1.05302 4.08031 0
M  V30 261 H 21.8945 -1.47785 2.91251 0
M  V30 262 H 20.5535 0.531296 3.6273 0
M  V30 263 H 20.2015 -1.68011 4.74111 0
M  V30 264 H 19.9015 -0.332184 5.8666 0
M  V30 265 H 21.4255 -1.2583 5.97494 0
M  V30 266 H 22.8395 0.98934 5.64699 0
M  V30 267 H 21.2365 1.77593 5.7322 0
M  V30 268 H 22.3065 2.11978 4.36111 0
M  V30 269 N 23.6496 -1.47581 0.552962 0
M  V30 270 C 24.8976 -2.02082 0.0272703 0
M  V30 271 C 25.2186 -1.4301 -1.32563 0
M  V30 272 O 24.4886 -0.603745 -1.86365 0
M  V30 273 H 23.0686 -0.746966 0.00709182 0
M  V30 274 H 25.7306 -1.81033 0.722008 0
M  V30 275 H 24.8266 -3.12034 -0.0639951 0
M  V30 276 N 25.1277 -0.289203 -1.54924 0
M  V30 277 C 26.3747 0.323519 -1.99899 0
M  V30 278 C 26.7027 1.54797 -1.17762 0
M  V30 279 O 25.9577 1.94237 -0.238835 0
M  V30 280 C 26.2567 0.736119 -3.49737 0
M  V30 281 C 25.9227 -0.385276 -4.49251 0
M  V30 282 C 24.5847 -0.693156 -4.76181 0
M  V30 283 C 26.9367 -1.14021 -5.08575 0
M  V30 284 C 24.2647 -1.7593 -5.59701 0
M  V30 285 C 26.6167 -2.19619 -5.93254 0
M  V30 286 C 25.2807 -2.51026 -6.185 0
M  V30 287 H 24.5507 0.118384 -0.731482 0
M  V30 288 H 27.1977 -0.405847 -1.8715 0
M  V30 289 H 25.5027 1.54539 -3.60035 0
M  V30 290 H 27.1997 1.22118 -3.81953 0
M  V30 291 H 23.7897 -0.135202 -4.28387 0
M  V30 292 H 27.9737 -0.915611 -4.87781 0
M  V30 293 H 23.2297 -2.0075 -5.77503 0
M  V30 294 H 27.4037 -2.78581 -6.38252 0
M  V30 295 H 25.0307 -3.33772 -6.83008 0
M  V30 296 N 26.6058 1.57591 -0.0167156 0
M  V30 297 C 27.8528 1.91283 0.664597 0
M  V30 298 C 28.1808 0.891949 1.72842 0
M  V30 299 O 27.4358 -0.100931 1.9544 0
M  V30 300 C 27.7348 3.3172 1.33029 0
M  V30 301 C 27.4008 4.4914 0.398047 0
M  V30 302 C 26.0628 4.80992 0.141421 0
M  V30 303 C 28.4148 5.20634 -0.242825 0
M  V30 304 C 25.7428 5.81703 -0.764092 0
M  V30 305 C 28.0948 6.22311 -1.13632 0
M  V30 306 C 26.7588 6.52611 -1.40196 0
M  V30 307 H 26.0288 0.699956 0.243193 0
M  V30 308 H 28.6758 1.9135 -0.0758267 0
M  V30 309 H 26.9808 3.27856 2.14517 0
M  V30 310 H 28.6778 3.55055 1.86379 0
M  V30 311 H 25.2678 4.24262 0.608238 0
M  V30 312 H 29.4518 4.96267 -0.0576019 0
M  V30 313 H 24.7078 6.03532 -0.977732 0
M  V30 314 H 28.8818 6.76834 -1.63917 0
M  V30 315 H 26.5088 7.30467 -2.10529 0
M  V30 316 N 28.0839 -0.256276 1.55502 0
M  V30 317 C 29.3329 -0.983486 1.76098 0
M  V30 318 C 29.6459 -1.86837 0.578896 0
M  V30 319 O 30.8519 -2.63163 0.667648 0
M  V30 320 C 29.3079 -1.79868 3.1173 0
M  V30 321 C 28.9159 -0.961648 4.37557 0
M  V30 322 C 30.6599 -2.51919 3.41668 0
M  V30 323 C 28.5669 -1.77219 5.64223 0
M  V30 324 H 27.4969 -0.370936 0.656447 0
M  V30 325 H 30.1479 -0.238492 1.81944 0
M  V30 326 H 28.5299 -2.58527 2.99966 0
M  V30 327 H 29.7039 -0.218048 4.60284 0
M  V30 328 H 28.0189 -0.354913 4.14885 0
M  V30 329 H 30.6159 -3.12998 4.33516 0
M  V30 330 H 30.9589 -3.23059 2.62562 0
M  V30 331 H 31.4919 -1.80278 3.54605 0
M  V30 332 H 28.2309 -1.10471 6.46124 0
M  V30 333 H 27.7509 -2.49132 5.45613 0
M  V30 334 H 29.4299 -2.34169 6.03137 0
M  V30 335 N 29.562 -1.4872 -0.521534 0
M  V30 336 C 30.492 -1.66771 -1.63431 0
M  V30 337 C 31.473 -0.516499 -1.62069 0
M  V30 338 O 32.658 -0.750013 -1.79132 0
M  V30 339 C 29.788 -1.71515 -3.01993 0
M  V30 340 C 28.742 -2.86222 -3.18216 0
M  V30 341 C 28.068 -2.76061 -4.57924 0
M  V30 342 C 29.368 -4.27419 -3.00184 0
M  V30 343 H 31.062 -2.59932 -1.48579 0
M  V30 344 H 28.608 -1.25089 -0.713358 0
M  V30 345 H 30.561 -1.82731 -3.7972 0
M  V30 346 H 29.285 -0.749393 -3.17886 0
M  V30 347 H 27.944 -2.74575 -2.42908 0
M  V30 348 H 27.592 -1.77437 -4.70665 0
M  V30 349 H 27.292 -3.53037 -4.69722 0
M  V30 350 H 28.816 -2.89256 -5.37739 0
M  V30 351 H 30.23 -4.39855 -3.67697 0
M  V30 352 H 28.627 -5.05458 -3.2347 0
M  V30 353 H 29.697 -4.43293 -1.96518 0
M  V30 354 N 31.0401 0.771051 -1.3745 0
M  V30 355 C 31.9501 1.91538 -1.35464 0
M  V30 356 C 32.9661 1.72134 -0.254123 0
M  V30 357 O 34.1421 1.95358 -0.489626 0
M  V30 358 C 31.2071 3.26671 -1.16134 0
M  V30 359 C 30.2681 3.58723 -2.35831 0
M  V30 360 C 29.5011 4.87409 -2.17413 0
M  V30 361 O 29.7241 5.58506 -1.15876 0
M  V30 362 O 28.6581 5.18539 -3.05615 0
M  V30 363 H 32.4841 1.96165 -2.31847 0
M  V30 364 H 30.0691 0.9139 -1.18187 0
M  V30 365 H 31.9511 4.07499 -1.07345 0
M  V30 366 H 30.6261 3.22894 -0.228251 0
M  V30 367 H 29.5331 2.78127 -2.50192 0
M  V30 368 H 30.8661 3.67243 -3.27709 0
M  V30 369 N 32.5182 1.22032 0.997298 0
M  V30 370 C 33.7662 1.04016 1.73278 0
M  V30 371 C 34.0872 -0.426255 1.90284 0
M  V30 372 O 33.3572 -1.30694 1.45931 0
M  V30 373 H 31.9372 0.381897 0.642 0
M  V30 374 H 34.5992 1.5347 1.20137 0
M  V30 375 H 33.6952 1.51441 2.72896 0
M  V30 376 N 33.9963 -1.19345 1.0293 0
M  V30 377 C 35.2433 -1.89038 0.726008 0
M  V30 378 C 35.5713 -1.79649 -0.745427 0
M  V30 379 O 34.8263 -1.18354 -1.55855 0
M  V30 380 C 35.1253 -3.39292 1.12319 0
M  V30 381 C 34.7913 -3.68885 2.59297 0
M  V30 382 C 33.4533 -3.76671 2.99453 0
M  V30 383 C 35.8053 -3.82178 3.54386 0
M  V30 384 C 33.1333 -3.9522 4.33611 0
M  V30 385 C 35.4853 -4.0224 4.88248 0
M  V30 386 C 34.1493 -4.08259 5.28092 0
M  V30 387 H 33.4193 -0.691739 0.265665 0
M  V30 388 H 36.0663 -1.41328 1.29223 0
M  V30 389 H 34.3713 -3.88903 0.475584 0
M  V30 390 H 36.0683 -3.91536 0.866037 0
M  V30 391 H 32.6583 -3.63433 2.27189 0
M  V30 392 H 36.8423 -3.75505 3.24514 0
M  V30 393 H 32.0983 -3.98119 4.64016 0
M  V30 394 H 36.2723 -4.11468 5.61843 0
M  V30 395 H 33.8993 -4.22384 6.32057 0
M  V30 396 N 35.4744 -0.807222 -1.35358 0
M  V30 397 C 36.7514 -0.311126 -1.9311 0
M  V30 398 C 37.1314 1.19937 -1.73719 0
M  V30 399 O 36.4794 1.99918 -1.10657 0
M  V30 400 C 36.6894 -0.723226 -3.41424 0
M  V30 401 C 38.0374 -0.713078 -4.18569 0
M  V30 402 O 39.0614 -0.664811 -3.49941 0
M  V30 403 O 37.9204 -0.772022 -5.41019 0
M  V30 404 H 35.0144 -0.081526 -0.822972 0
M  V30 405 H 37.5604 -0.890962 -1.4443 0
M  V30 406 H 36.3324 -1.76426 -3.4927 0
M  V30 407 H 35.9554 -0.118232 -3.97424 0
M  V30 408 N 36.9525 1.47285 -0.560781 0
M  V30 409 C 38.1995 2.02464 -0.038062 0
M  V30 410 C 38.5275 1.43474 1.31322 0
M  V30 411 O 37.7825 0.581311 1.86867 0
M  V30 412 C 38.0815 3.57258 0.100784 0
M  V30 413 C 37.7475 4.35184 -1.18007 0
M  V30 414 C 36.4095 4.56194 -1.53103 0
M  V30 415 C 38.7615 4.80098 -2.02867 0
M  V30 416 C 36.0895 5.19367 -2.729 0
M  V30 417 C 38.4415 5.44593 -3.21871 0
M  V30 418 C 37.1055 5.63835 -3.57276 0
M  V30 419 H 36.3755 0.740869 -0.0139279 0
M  V30 420 H 39.0225 1.76916 -0.733012 0
M  V30 421 H 37.3275 3.81819 0.878724 0
M  V30 422 H 39.0245 3.97606 0.520639 0
M  V30 423 H 35.6145 4.19113 -0.8968 0
M  V30 424 H 39.7985 4.63642 -1.7706 0
M  V30 425 H 35.0545 5.32459 -3.00496 0
M  V30 426 H 39.2285 5.78358 -3.87911 0
M  V30 427 H 36.8555 6.12557 -4.50197 0
M  V30 428 N 38.4306 0.297415 1.54768 0
M  V30 429 C 39.6786 -0.312295 1.99673 0
M  V30 430 C 39.9996 -1.54686 1.18732 0
M  V30 431 O 39.2696 -1.93854 0.282382 0
M  V30 432 H 37.8496 -0.118381 0.73756 0
M  V30 433 H 40.5116 0.407915 1.90583 0
M  V30 434 H 39.6076 -0.586813 3.06534 0
M  V30 435 N 39.9087 -1.5758 0.0250728 0
M  V30 436 C 41.1547 -1.91917 -0.655413 0
M  V30 437 C 41.4877 -0.901433 -1.72011 0
M  V30 438 O 40.7627 0.0764069 -1.9435 0
M  V30 439 C 41.0457 -3.36751 -1.27558 0
M  V30 440 C 40.8987 -4.49258 -0.220719 0
M  V30 441 C 42.2177 -3.81469 -2.19475 0
M  V30 442 H 39.3367 -0.697925 -0.23679 0
M  V30 443 H 41.9787 -1.89825 0.0815036 0
M  V30 444 H 40.1287 -3.38664 -1.90365 0
M  V30 445 H 41.8007 -4.59478 0.409601 0
M  V30 446 H 40.0437 -4.31415 0.454264 0
M  V30 447 H 40.7147 -5.47618 -0.694175 0
M  V30 448 H 43.1907 -3.81266 -1.66659 0
M  V30 449 H 42.0667 -4.83512 -2.59822 0
M  V30 450 H 42.3277 -3.16744 -3.08424 0
M  V30 451 N 41.3868 0.248026 -1.55636 0
M  V30 452 C 42.6348 0.974295 -1.77065 0
M  V30 453 C 42.9558 1.85897 -0.588849 0
M  V30 454 O 42.2258 1.91868 0.395407 0
M  V30 455 H 40.8058 0.362733 -0.653019 0
M  V30 456 H 43.4678 0.266244 -1.93073 0
M  V30 457 H 42.5638 1.59667 -2.68166 0
M  V30 458 N 42.8649 1.48995 0.513639 0
M  V30 459 C 43.7979 1.59319 1.63379 0
M  V30 460 C 44.7759 0.442816 1.56454 0
M  V30 461 O 45.9599 0.656655 1.76693 0
M  V30 462 C 43.0869 1.5364 3.01848 0
M  V30 463 C 42.1329 2.7372 3.27078 0
M  V30 464 S 42.9659 4.35528 3.1157 0
M  V30 465 C 44.1219 4.32473 4.52458 0
M  V30 466 H 44.3549 2.54079 1.54374 0
M  V30 467 H 41.8879 1.3773 0.697849 0
M  V30 468 H 43.8459 1.51049 3.81699 0
M  V30 469 H 42.5069 0.601898 3.08279 0
M  V30 470 H 41.6999 2.6593 4.28132 0
M  V30 471 H 41.3019 2.73657 2.54927 0
M  V30 472 H 43.5939 4.03414 5.44301 0
M  V30 473 H 44.5369 5.33762 4.65299 0
M  V30 474 H 44.9449 3.62718 4.32546 0
M  V30 475 N 44.343 -0.763751 1.37857 0
M  V30 476 C 45.273 -1.89103 1.36975 0
M  V30 477 C 46.254 -1.68439 0.237152 0
M  V30 478 O 47.439 -1.8918 0.438713 0
M  V30 479 C 44.569 -3.26496 1.18395 0
M  V30 480 C 43.523 -3.61741 2.28751 0
M  V30 481 C 42.849 -4.97762 1.95286 0
M  V30 482 C 44.149 -3.67665 3.70972 0
M  V30 483 H 45.843 -1.90099 2.31307 0
M  V30 484 H 43.389 -0.91319 1.11341 0
M  V30 485 H 45.342 -4.05003 1.16406 0
M  V30 486 H 44.066 -3.25955 0.205215 0
M  V30 487 H 42.725 -2.85547 2.29909 0
M  V30 488 H 42.373 -4.93769 0.959221 0
M  V30 489 H 42.073 -5.22313 2.69189 0
M  V30 490 H 43.597 -5.7866 1.94898 0
M  V30 491 H 45.011 -4.36307 3.719 0
M  V30 492 H 43.408 -4.03718 4.43995 0
M  V30 493 H 44.478 -2.68134 4.0402 0
M  V30 494 N 45.8211 -1.22559 -0.990812 0
M  V30 495 C 46.7541 -0.940773 -2.07905 0
M  V30 496 C 47.7321 0.117082 -1.62178 0
M  V30 497 O 48.9161 -0.0149506 -1.88494 0
M  V30 498 C 46.0431 -0.415321 -3.36144 0
M  V30 499 C 45.0891 -1.45818 -4.00799 0
M  V30 500 S 45.9221 -3.03219 -4.41382 0
M  V30 501 C 47.0781 -2.52317 -5.72789 0
M  V30 502 H 47.3111 -1.8623 -2.31745 0
M  V30 503 H 44.8441 -1.05688 -1.12558 0
M  V30 504 H 46.8021 -0.118747 -4.10328 0
M  V30 505 H 45.4631 0.485121 -3.10331 0
M  V30 506 H 44.6561 -1.04044 -4.93144 0
M  V30 507 H 44.2581 -1.70356 -3.32949 0
M  V30 508 H 46.5501 -1.93688 -6.49224 0
M  V30 509 H 47.4931 -3.43161 -6.19392 0
M  V30 510 H 47.9011 -1.93529 -5.30289 0
M  V30 511 N 47.2992 1.18797 -1.03562 0
M  V30 512 C 48.2622 2.20464 -0.626769 0
M  V30 513 C 49.2622 1.57721 0.313173 0
M  V30 514 O 50.4522 1.73917 0.0992615 0
M  V30 515 C 47.5842 3.40802 0.0818498 0
M  V30 516 H 48.7772 2.58149 -1.5264 0
M  V30 517 H 46.3302 1.32593 -0.827578 0
M  V30 518 H 47.0652 3.08642 0.995518 0
M  V30 519 H 46.8502 3.8758 -0.593652 0
M  V30 520 H 48.3402 4.16092 0.354584 0
M  V30 521 N 48.7773 0.814389 1.34928 0
M  V30 522 C 50.1883 0.458364 1.80986 0
M  V30 523 C 50.5393 -1.02042 1.67577 0
M  V30 524 O 49.6643 -1.79352 1.21086 0
M  V30 525 C 50.2593 0.825212 3.28597 0
M  V30 526 C 48.8183 0.521677 3.72767 0
M  V30 527 C 47.9653 1.04668 2.56788 0
M  V30 528 H 50.9163 1.00533 1.22795 0
M  V30 529 H 50.9373 0.12571 3.80292 0
M  V30 530 H 50.4493 1.90154 3.38324 0
M  V30 531 H 48.5503 -0.545589 3.68584 0
M  V30 532 H 48.6633 1.05977 4.67232 0
M  V30 533 H 47.0273 0.468622 2.50352 0
M  V30 534 H 47.8103 2.12927 2.6929 0
M  V30 535 N 50.2554 -1.46986 0.568584 0
M  V30 536 C 51.5024 -2.02441 0.0487986 0
M  V30 537 C 51.8304 -1.44169 -1.30559 0
M  V30 538 O 51.0854 -0.591213 -1.86556 0
M  V30 539 C 51.3844 -3.57306 -0.081836 0
M  V30 540 C 51.0504 -4.34552 1.20313 0
M  V30 541 C 49.7124 -4.55376 1.5552 0
M  V30 542 C 52.0644 -4.79016 2.05411 0
M  V30 543 C 49.3924 -5.17913 2.7565 0
M  V30 544 C 51.7444 -5.42879 3.24754 0
M  V30 545 C 50.4084 -5.61933 3.60261 0
M  V30 546 H 49.6784 -0.740785 0.0178567 0
M  V30 547 H 52.3254 -1.76525 0.742384 0
M  V30 548 H 50.6304 -3.8228 -0.858463 0
M  V30 549 H 52.3274 -3.97876 -0.499546 0
M  V30 550 H 48.9174 -4.18631 0.919014 0
M  V30 551 H 53.1014 -4.62696 1.79516 0
M  V30 552 H 48.3574 -5.30858 3.03315 0
M  V30 553 H 52.5314 -5.76293 3.90973 0
M  V30 554 H 50.1584 -6.10161 4.53439 0
M  V30 555 N 51.7335 -0.305618 -1.54608 0
M  V30 556 C 52.6965 0.555591 -2.22364 0
M  V30 557 C 53.6965 1.05768 -1.21119 0
M  V30 558 O 54.8865 0.952972 -1.45822 0
M  V30 559 C 52.0185 1.76974 -2.91364 0
M  V30 560 H 53.2115 -0.0364572 -2.99878 0
M  V30 561 H 50.7645 -0.0565007 -1.56198 0
M  V30 562 H 51.4995 2.40151 -2.17941 0
M  V30 563 H 51.2845 1.41732 -3.65588 0
M  V30 564 H 52.7745 2.38148 -3.43038 0
M  V30 565 N 53.2116 1.57565 -0.0334293 0
M  V30 566 C 54.1616 2.06978 0.956237 0
M  V30 567 C 55.1456 0.971193 1.28283 0
M  V30 568 O 56.3376 1.23471 1.26822 0
M  V30 569 C 53.4666 2.60393 2.23719 0
M  V30 570 C 52.5526 3.7719 1.93877 0
M  V30 571 N 52.9436 4.87639 1.34321 0
M  V30 572 C 51.2416 3.85758 2.23845 0
M  V30 573 C 51.9426 5.68825 1.21709 0
M  V30 574 N 50.9186 5.1587 1.71404 0
M  V30 575 H 54.7206 2.89773 0.490815 0
M  V30 576 H 52.2346 1.61492 0.171478 0
M  V30 577 H 54.2316 2.94088 2.95496 0
M  V30 578 H 52.8916 1.79031 2.70884 0
M  V30 579 H 53.9026 5.07803 1.01767 0
M  V30 580 H 50.5796 3.1531 2.73653 0
M  V30 581 H 51.9696 6.67631 0.75621 0
M  V30 582 N 54.6897 -0.239769 1.55765 0
M  V30 583 C 55.9357 -0.968234 1.78194 0
M  V30 584 C 56.2687 -1.84701 0.599938 0
M  V30 585 O 55.5437 -1.9031 -0.401524 0
M  V30 586 C 55.8267 -1.8227 3.10564 0
M  V30 587 C 55.6797 -0.971633 4.3918 0
M  V30 588 C 56.9987 -2.80388 3.39221 0
M  V30 589 H 54.1177 -0.350572 0.648281 0
M  V30 590 H 56.7597 -0.238259 1.885 0
M  V30 591 H 54.9097 -2.44507 3.01908 0
M  V30 592 H 56.5817 -0.367408 4.59835 0
M  V30 593 H 54.8247 -0.276276 4.32919 0
M  V30 594 H 55.4957 -1.60346 5.28198 0
M  V30 595 H 57.9717 -2.28287 3.47885 0
M  V30 596 H 56.8477 -3.3729 4.33044 0
M  V30 597 H 57.1087 -3.57212 2.60484 0
M  V30 598 N 56.1678 -1.49265 -0.50573 0
M  V30 599 C 57.4158 -1.582 -1.25766 0
M  V30 600 C 57.7368 -0.268482 -1.93143 0
M  V30 601 O 57.0068 0.711833 -1.8251 0
M  V30 602 H 55.5868 -0.582873 -0.467191 0
M  V30 603 H 58.2488 -1.85865 -0.586525 0
M  V30 604 H 57.3448 -2.37563 -2.02412 0
M  V30 605 N 57.6459 0.756429 -1.3826 0
M  V30 606 C 58.5789 1.87802 -1.29637 0
M  V30 607 C 59.5569 1.61667 -0.173939 0
M  V30 608 O 60.7409 1.85208 -0.350775 0
M  V30 609 C 57.8679 3.23354 -1.00797 0
M  V30 610 C 56.9139 3.68379 -2.14939 0
M  V30 611 S 57.7469 3.8025 -3.77054 0
M  V30 612 C 58.9029 5.18626 -3.50396 0
M  V30 613 H 59.1359 1.94829 -2.24564 0
M  V30 614 H 56.6689 0.919117 -1.24063 0
M  V30 615 H 58.6269 4.01637 -0.848413 0
M  V30 616 H 57.2879 3.14008 -0.0759369 0
M  V30 617 H 56.4809 4.66693 -1.90299 0
M  V30 618 H 56.0829 2.97242 -2.26988 0
M  V30 619 H 58.3749 6.04289 -3.06334 0
M  V30 620 H 59.3179 5.48286 -4.48094 0
M  V30 621 H 59.7259 4.87289 -2.84973 0
M  V30 622 N 59.124 1.23083 0.984299 0
M  V30 623 C 60.372 1.05848 1.72165 0
M  V30 624 C 60.693 -0.406049 1.90726 0
M  V30 625 O 59.963 -1.29139 1.47309 0
M  V30 626 H 58.543 0.388685 0.637913 0
M  V30 627 H 61.205 1.54736 1.18503 0
M  V30 628 H 60.301 1.54327 2.71274 0
M  V30 629 N 60.6021 -1.18246 1.0419 0
M  V30 630 C 61.8791 -1.84121 0.660208 0
M  V30 631 C 62.2591 -1.92778 -0.860221 0
M  V30 632 O 61.6071 -1.45464 -1.76217 0
M  V30 633 C 61.8171 -3.22355 1.33747 0
M  V30 634 C 63.1651 -3.98376 1.46906 0
M  V30 635 O 64.1891 -3.31799 1.29568 0
M  V30 636 O 63.0481 -5.17665 1.75171 0
M  V30 637 H 60.1421 -0.794036 0.231161 0
M  V30 638 H 62.6881 -1.25628 1.14087 0
M  V30 639 H 61.4601 -3.10964 2.37522 0
M  V30 640 H 61.0831 -3.88506 0.845515 0
M  V30 641 N 62.0802 -0.821533 -1.34494 0
M  V30 642 C 63.4912 -0.467956 -1.8074 0
M  V30 643 C 63.8422 1.01151 -1.68116 0
M  V30 644 O 62.9672 1.78707 -1.22036 0
M  V30 645 C 63.5622 -0.842627 -3.28154 0
M  V30 646 C 62.1212 -0.541439 -3.72485 0
M  V30 647 C 61.2682 -1.06028 -2.56229 0
M  V30 648 H 64.2192 -1.01183 -1.22261 0
M  V30 649 H 64.2402 -0.145876 -3.8022 0
M  V30 650 H 63.7522 -1.91945 -3.37311 0
M  V30 651 H 61.8532 0.526034 -3.68868 0
M  V30 652 H 61.9662 -1.08453 -4.66663 0
M  V30 653 H 60.3302 -0.481892 -2.501 0
M  V30 654 H 61.1132 -2.14352 -2.68157 0
M  V30 655 N 63.5583 1.46682 -0.576371 0
M  V30 656 C 64.4683 2.34032 0.163141 0
M  V30 657 C 65.4843 1.49367 0.892501 0
M  V30 658 O 66.6603 1.82252 0.857106 0
M  V30 659 C 63.7253 3.26435 1.16795 0
M  V30 660 C 62.7863 4.26998 0.443944 0
M  V30 661 C 62.0193 5.14986 1.40088 0
M  V30 662 O 62.2423 5.05785 2.637 0
M  V30 663 O 61.1763 5.94906 0.914917 0
M  V30 664 H 65.0023 2.98607 -0.55388 0
M  V30 665 H 62.5873 1.45554 -0.336821 0
M  V30 666 H 64.4693 3.83459 1.74748 0
M  V30 667 H 63.1443 2.64465 1.86655 0
M  V30 668 H 62.0513 3.7368 -0.177271 0
M  V30 669 H 63.3843 4.91736 -0.213566 0
M  V30 670 N 65.0364 0.313813 1.54444 0
M  V30 671 C 66.2644 -0.293918 2.04802 0
M  V30 672 C 66.6794 -1.46537 1.19047 0
M  V30 673 O 66.0364 -1.81182 0.218939 0
M  V30 674 C 66.0874 -0.737806 3.53891 0
M  V30 675 O 65.8084 0.387038 4.36387 0
M  V30 676 C 67.3094 -1.40936 4.203 0
M  V30 677 H 64.5294 -0.0620057 0.668129 0
M  V30 678 H 67.0734 0.457169 1.99324 0
M  V30 679 H 65.2284 -1.43889 3.59687 0
M  V30 680 H 65.6424 0.0391274 5.24485 0
M  V30 681 H 67.1164 -1.67099 5.26101 0
M  V30 682 H 67.5934 -2.35355 3.70816 0
M  V30 683 H 68.1994 -0.751117 4.18615 0
M  V30 684 N 66.5145 -1.57545 0.0417849 0
M  V30 685 C 67.4645 -2.07483 -0.945247 0
M  V30 686 C 68.4485 -0.977983 -1.27767 0
M  V30 687 O 69.6405 -1.24142 -1.26166 0
M  V30 688 C 66.7695 -2.61576 -2.22335 0
M  V30 689 C 65.8555 -3.78213 -1.91874 0
M  V30 690 N 66.2465 -4.88344 -1.31733 0
M  V30 691 C 64.5445 -3.8694 -2.21796 0
M  V30 692 C 65.2455 -5.69462 -1.1869 0
M  V30 693 N 64.2215 -5.16771 -1.68666 0
M  V30 694 H 68.0235 -2.90029 -0.475441 0
M  V30 695 H 65.5375 -1.61581 -0.162911 0
M  V30 696 H 67.5345 -2.95651 -2.93932 0
M  V30 697 H 66.1945 -1.80465 -2.69931 0
M  V30 698 H 67.2055 -5.08335 -0.990729 0
M  V30 699 H 63.8825 -3.16757 -2.71977 0
M  V30 700 H 65.2725 -6.68023 -0.720793 0
M  V30 701 N 67.9926 0.231505 -1.5589 0
M  V30 702 C 69.4086 0.580748 -1.48659 0
M  V30 703 C 69.6086 1.87617 -0.73498 0
M  V30 704 O 68.6646 2.51046 -0.270586 0
M  V30 705 C 69.9776 0.669202 -2.93159 0
M  V30 706 C 71.5256 0.760499 -3.03621 0
M  V30 707 C 72.0006 0.880383 -4.49459 0
M  V30 708 N 73.4916 0.944861 -4.53461 0
M  V30 709 C 74.2266 1.05716 -5.63571 0
M  V30 710 N 73.7226 1.13403 -6.83456 0
M  V30 711 N 75.5156 1.09152 -5.514 0
M  V30 712 H 67.6666 -0.618695 -2.03189 0
M  V30 713 H 69.9296 -0.215728 -0.923128 0
M  V30 714 H 69.6356 -0.212904 -3.51055 0
M  V30 715 H 69.5096 1.5361 -3.44505 0
M  V30 716 H 71.8966 1.63305 -2.45796 0
M  V30 717 H 71.9776 -0.131864 -2.5546 0
M  V30 718 H 71.6216 0.0123284 -5.07899 0
M  V30 719 H 71.5516 1.78802 -4.95316 0
M  V30 720 H 74.0426 0.896176 -3.6712 0
M  V30 721 H 74.3556 1.21921 -7.63122 0
M  V30 722 H 72.7006 1.10333 -6.86186 0
M  V30 723 H 75.8916 1.02805 -4.56671 0
M  V30 724 H 76.0646 1.17558 -6.37247 0
M  V30 725 N 69.4707 1.49531 0.497807 0
M  V30 726 C 70.8867 1.36365 0.829266 0
M  V30 727 C 71.0867 0.399184 1.97506 0
M  V30 728 O 70.1427 -0.167977 2.51941 0
M  V30 729 C 71.4557 2.77153 1.16647 0
M  V30 730 C 73.0037 2.85877 1.27449 0
M  V30 731 C 73.4787 4.2744 1.64497 0
M  V30 732 N 74.9697 4.30265 1.7154 0
M  V30 733 C 75.7047 5.3677 2.01656 0
M  V30 734 N 75.2007 6.53516 2.29976 0
M  V30 735 N 76.9937 5.24189 2.02934 0
M  V30 736 H 69.1447 2.10831 -0.257703 0
M  V30 737 H 71.4077 0.946534 -0.0527091 0
M  V30 738 H 71.1137 3.49442 0.397872 0
M  V30 739 H 70.9877 3.12722 2.10915 0
M  V30 740 H 73.3747 2.13824 2.0338 0
M  V30 741 H 73.4557 2.53887 0.312244 0
M  V30 742 H 73.0997 5.00021 0.891151 0
M  V30 743 H 73.0297 4.56896 2.61827 0
M  V30 744 H 75.5207 3.4607 1.51802 0
M  V30 745 H 75.8337 7.30506 2.52153 0
M  V30 746 H 74.1787 6.56737 2.27425 0
M  V30 747 H 77.3697 4.31988 1.80289 0
M  V30 748 H 77.5427 6.07286 2.26071 0
M  V30 749 N 70.9488 -0.749086 1.3866 0
M  V30 750 C 72.1768 -1.53834 1.38358 0
M  V30 751 C 72.5918 -1.88783 -0.0255219 0
M  V30 752 O 71.9488 -1.53101 -0.993292 0
M  V30 753 C 71.9998 -2.83468 2.2434 0
M  V30 754 O 71.7208 -2.50008 3.5976 0
M  V30 755 C 73.2218 -3.7758 2.32267 0
M  V30 756 H 70.4418 -0.47585 0.473083 0
M  V30 757 H 72.9858 -0.926726 1.82297 0
M  V30 758 H 71.1408 -3.40995 1.83851 0
M  V30 759 H 71.5548 -3.33182 4.05081 0
M  V30 760 H 73.0288 -4.65478 2.96706 0
M  V30 761 H 73.5058 -4.18334 1.33765 0
M  V30 762 H 74.1118 -3.25976 2.73166 0
M  V30 763 N 72.4269 -1.23603 -0.977757 0
M  V30 764 C 73.3899 -1.02069 -2.05218 0
M  V30 765 C 74.3899 0.0184305 -1.60789 0
M  V30 766 O 75.5799 -0.221569 -1.72785 0
M  V30 767 C 72.7119 -0.544926 -3.36517 0
M  V30 768 H 73.9049 -1.9742 -2.25755 0
M  V30 769 H 71.4579 -1.05684 -1.15155 0
M  V30 770 H 72.1929 0.412241 -3.21669 0
M  V30 771 H 71.9779 -1.2948 -3.70105 0
M  V30 772 H 73.4679 -0.414985 -4.15533 0
M  V30 773 N 73.905 1.17692 -1.04816 0
M  V30 774 C 74.835 2.23777 -0.666791 0
M  V30 775 C 75.816 1.66796 0.33361 0
M  V30 776 O 77.001 1.93039 0.212042 0
M  V30 777 C 74.131 3.47281 -0.0367933 0
M  V30 778 C 73.085 4.17059 -0.961546 0
M  V30 779 C 72.411 5.34342 -0.195626 0
M  V30 780 C 73.711 4.69713 -2.28402 0
M  V30 781 H 75.405 2.55933 -1.55367 0
M  V30 782 H 72.951 1.23019 -0.748484 0
M  V30 783 H 74.904 4.20706 0.241775 0
M  V30 784 H 73.628 3.14381 0.885004 0
M  V30 785 H 72.287 3.45541 -1.22462 0
M  V30 786 H 71.935 4.97692 0.728816 0
M  V30 787 H 71.635 5.81966 -0.811775 0
M  V30 788 H 73.159 6.10553 0.0757473 0
M  V30 789 H 74.573 5.34794 -2.06563 0
M  V30 790 H 72.97 5.279 -2.8538 0
M  V30 791 H 74.04 3.86726 -2.92525 0
M  V30 792 N 75.3831 0.828654 1.34056 0
M  V30 793 C 76.3311 0.242973 2.31327 0
M  V30 794 C 77.3251 -0.61944 1.57668 0
M  V30 795 O 78.5311 -0.51014 1.7262 0
M  V30 796 H 74.9061 0.059834 0.749616 0
M  V30 797 H 76.8771 1.07809 2.78244 0
M  V30 798 C 75.6261 -0.575733 3.429 0
M  V30 799 H 74.9491 0.0785582 3.99723 0
M  V30 800 H 76.3891 -0.951547 4.13185 0
M  V30 801 C 74.8481 -1.75044 2.87856 0
M  V30 802 O 75.3781 -2.84882 2.83205 0
M  V30 803 N 73.5841 -1.56903 2.44602 0
M  V30 804 H 73.1311 -0.675547 2.48584 0
M  V30 805 H 73.0891 -2.35652 2.08124 0
M  V30 806 N 76.8612 -1.46375 0.584142 0
M  V30 807 C 78.0892 -2.06761 0.0759296 0
M  V30 808 C 78.5042 -1.43266 -1.22965 0
M  V30 809 O 77.8612 -0.538458 -1.74376 0
M  V30 810 C 77.9122 -3.61375 -0.0950384 0
M  V30 811 O 77.6332 -4.22495 1.15887 0
M  V30 812 C 79.1342 -4.38693 -0.637434 0
M  V30 813 H 76.3542 -0.668479 0.0581075 0
M  V30 814 H 78.8982 -1.8798 0.805218 0
M  V30 815 H 77.0532 -3.79578 -0.774554 0
M  V30 816 H 77.4672 -5.15385 0.973598 0
M  V30 817 H 78.9412 -5.47464 -0.706237 0
M  V30 818 H 79.4182 -4.06836 -1.65472 0
M  V30 819 H 80.0242 -4.25299 0.00725967 0
M  V30 820 N 78.3393 -0.321999 -1.54275 0
M  V30 821 C 79.5883 0.281931 -1.9972 0
M  V30 822 C 79.9013 1.53369 -1.21397 0
M  V30 823 O 81.1073 2.21352 -1.57211 0
M  V30 824 C 79.5633 0.5529 -3.55628 0
M  V30 825 C 79.1713 -0.681721 -4.42783 0
M  V30 826 C 80.9153 1.11687 -4.09544 0
M  V30 827 C 78.8223 -0.382742 -5.9016 0
M  V30 828 H 77.7523 0.109124 -0.746062 0
M  V30 829 H 80.4033 -0.43398 -1.78294 0
M  V30 830 H 78.7853 1.32896 -3.73035 0
M  V30 831 H 79.9593 -1.45723 -4.37151 0
M  V30 832 H 78.2743 -1.1658 -3.99748 0
M  V30 833 H 80.8713 1.35515 -5.17242 0
M  V30 834 H 81.2143 2.06575 -3.61431 0
M  V30 835 H 81.7473 0.402032 -3.95763 0
M  V30 836 H 78.4863 -1.30076 -6.42464 0
M  V30 837 H 78.0063 0.355094 -5.98748 0
M  V30 838 H 79.6853 0.00800157 -6.47 0
M  V30 839 N 79.8174 1.5752 -0.0501392 0
M  V30 840 C 81.0654 1.9227 0.622642 0
M  V30 841 C 81.3864 0.929083 1.71444 0
M  V30 842 O 80.6564 -0.0262186 1.95882 0
M  V30 843 H 79.2364 0.709739 0.232981 0
M  V30 844 H 81.8984 1.94628 -0.102898 0
M  V30 845 H 80.9944 2.93479 1.06191 0
M  V30 846 N 81.2955 -0.223234 1.56011 0
M  V30 847 C 82.7065 -0.790368 1.69145 0
M  V30 848 C 83.0575 -1.85055 0.651845 0
M  V30 849 O 82.1825 -2.15498 -0.197359 0
M  V30 850 C 82.7775 -1.4404 3.06656 0
M  V30 851 C 81.3365 -1.95494 3.2165 0
M  V30 852 C 80.4835 -0.814506 2.65068 0
M  V30 853 H 83.4345 0.00139011 1.587 0
M  V30 854 H 83.4555 -2.30916 3.0242 0
M  V30 855 H 82.9675 -0.668543 3.82298 0
M  V30 856 H 81.0685 -2.75487 2.50874 0
M  V30 857 H 81.1815 -2.13607 4.28846 0
M  V30 858 H 79.5455 -1.22137 2.23505 0
M  V30 859 H 80.3285 -0.0553515 3.43255 0
M  V30 860 N 82.7736 -1.49793 -0.48987 0
M  V30 861 C 84.0196 -1.60078 -1.24511 0
M  V30 862 C 84.3526 -0.291608 -1.91998 0
M  V30 863 O 83.6276 0.705647 -1.81248 0
M  V30 864 C 83.9106 -2.76791 -2.30345 0
M  V30 865 C 83.7636 -4.17535 -1.67286 0
M  V30 866 C 85.0826 -2.89111 -3.31817 0
M  V30 867 H 82.2016 -0.582645 -0.451324 0
M  V30 868 H 84.8436 -1.82117 -0.541612 0
M  V30 869 H 82.9936 -2.5813 -2.90346 0
M  V30 870 H 84.6656 -4.4774 -1.11026 0
M  V30 871 H 82.9086 -4.22665 -0.976577 0
M  V30 872 H 83.5796 -4.95094 -2.44103 0
M  V30 873 H 86.0556 -3.06133 -2.81819 0
M  V30 874 H 84.9316 -3.72433 -4.03219 0
M  V30 875 H 85.1926 -1.9893 -3.94815 0
M  V30 876 N 84.2517 0.741722 -1.39055 0
M  V30 877 C 85.4977 1.50234 -1.37118 0
M  V30 878 C 85.8527 1.92368 0.0350439 0
M  V30 879 O 85.1457 1.63422 1.00019 0
M  V30 880 C 85.3397 2.7592 -2.27163 0
M  V30 881 C 85.1687 2.46074 -3.76401 0
M  V30 882 C 83.9387 2.38704 -4.45364 0
M  V30 883 C 86.1367 2.12062 -4.68545 0
M  V30 884 N 84.1187 2.01258 -5.79973 0
M  V30 885 C 85.4897 1.85005 -5.91754 0
M  V30 886 C 87.5447 1.98473 -4.56632 0
M  V30 887 C 86.2477 1.4573 -7.04383 0
M  V30 888 C 88.2737 1.60599 -5.69176 0
M  V30 889 C 87.6357 1.34423 -6.91455 0
M  V30 890 H 83.7347 0.548858 -0.557027 0
M  V30 891 H 86.3187 0.862642 -1.74547 0
M  V30 892 H 84.4897 3.3768 -1.91904 0
M  V30 893 H 86.2217 3.42068 -2.16267 0
M  V30 894 H 82.9767 2.55574 -3.98721 0
M  V30 895 H 83.4007 1.85147 -6.51191 0
M  V30 896 H 88.0427 2.17381 -3.62637 0
M  V30 897 H 85.7607 1.25562 -7.98286 0
M  V30 898 H 89.3467 1.507 -5.61944 0
M  V30 899 H 88.2267 1.05555 -7.77064 0
M  V30 900 N 85.7298 1.2412 0.971189 0
M  V30 901 C 87.0068 0.986867 1.6888 0
M  V30 902 C 87.3868 -0.491857 2.0529 0
M  V30 903 O 86.7348 -1.46531 1.75331 0
M  V30 904 C 86.9448 1.9063 2.92338 0
M  V30 905 C 88.2928 2.17515 3.64654 0
M  V30 906 O 89.3168 1.88254 3.02388 0
M  V30 907 O 88.1758 2.6719 4.7673 0
M  V30 908 H 85.2698 0.372944 0.738134 0
M  V30 909 H 87.8158 1.35203 1.02559 0
M  V30 910 H 86.5878 2.90552 2.62097 0
M  V30 911 H 86.2108 1.54408 3.66393 0
M  V30 912 N 87.2079 -1.17134 1.05439 0
M  V30 913 C 88.4559 -1.87085 0.764429 0
M  V30 914 C 88.7769 -1.81584 -0.710787 0
M  V30 915 O 88.0469 -1.24349 -1.51374 0
M  V30 916 H 86.6269 -0.692627 0.279779 0
M  V30 917 H 89.2889 -1.42087 1.33406 0
M  V30 918 H 88.3849 -2.92759 1.0816 0
M  V30 919 N 88.686 -0.835752 -1.33615 0
M  V30 920 C 89.634 -0.255238 -2.31195 0
M  V30 921 C 90.628 0.61107 -1.57995 0
M  V30 922 O 91.834 0.500979 -1.72888 0
M  V30 923 H 88.209 -0.0638085 -0.749288 0
M  V30 924 H 90.18 -1.09283 -2.77669 0
M  V30 925 C 88.929 0.55754 -3.43201 0
M  V30 926 H 88.252 -0.0997553 -3.99676 0
M  V30 927 H 89.692 0.929622 -4.13683 0
M  V30 928 C 88.151 1.73515 -2.88781 0
M  V30 929 O 88.681 2.83376 -2.84712 0
M  V30 930 N 86.887 1.55603 -2.4543 0
M  V30 931 H 86.434 0.662354 -2.48939 0
M  V30 932 H 86.392 2.34545 -2.09371 0
M  V30 933 N 90.1641 1.46063 -0.591896 0
M  V30 934 C 91.0741 2.34192 0.13831 0
M  V30 935 C 92.0901 1.50305 0.876608 0
M  V30 936 O 93.2661 1.8315 0.837728 0
M  V30 937 C 90.3311 3.27656 1.13326 0
M  V30 938 C 89.3921 4.27445 0.39863 0
M  V30 939 C 88.6251 5.16443 1.34618 0
M  V30 940 O 88.8481 5.08553 2.58321 0
M  V30 941 O 87.7821 5.95843 0.851768 0
M  V30 942 H 91.6081 2.98002 -0.58552 0
M  V30 943 H 89.1931 1.45188 -0.352239 0
M  V30 944 H 91.0751 3.85291 1.70671 0
M  V30 945 H 89.7501 2.6643 1.83839 0
M  V30 946 H 88.6571 3.73471 -0.216895 0
M  V30 947 H 89.9901 4.91482 -0.265709 0
M  V30 948 N 91.6422 0.330177 1.54103 0
M  V30 949 C 92.8882 -0.270806 2.00984 0
M  V30 950 C 93.2212 -1.51265 1.21789 0
M  V30 951 O 92.4962 -1.92142 0.301927 0
M  V30 952 C 92.7792 -0.598339 3.55094 0
M  V30 953 C 92.6322 0.654674 4.4501 0
M  V30 954 C 93.9512 -1.41334 4.16789 0
M  V30 955 H 91.0702 -0.0969531 0.730595 0
M  V30 956 H 93.7122 0.448066 1.84641 0
M  V30 957 H 91.8622 -1.21078 3.69151 0
M  V30 958 H 93.5342 1.29285 4.42813 0
M  V30 959 H 91.7772 1.28224 4.14416 0
M  V30 960 H 92.4482 0.380944 5.50684 0
M  V30 961 H 94.9242 -0.895597 4.06347 0
M  V30 962 H 93.8002 -1.61127 5.24718 0
M  V30 963 H 94.0612 -2.41146 3.70541 0
M  V30 964 N 93.1203 -1.57491 0.0584922 0
M  V30 965 C 94.3663 -1.94081 -0.608617 0
M  V30 966 C 94.7213 -0.937438 -1.68017 0
M  V30 967 O 94.0143 0.0423034 -1.91553 0
M  V30 968 C 94.2083 -3.3513 -1.24188 0
M  V30 969 C 94.0373 -4.49095 -0.233187 0
M  V30 970 C 92.8073 -5.04988 0.177439 0
M  V30 971 C 95.0053 -5.1162 0.524306 0
M  V30 972 N 92.9873 -6.02487 1.17823 0
M  V30 973 C 94.3583 -6.04493 1.37796 0
M  V30 974 C 96.4133 -4.94489 0.581822 0
M  V30 975 C 95.1163 -6.82075 2.28399 0
M  V30 976 C 97.1423 -5.72703 1.47531 0
M  V30 977 C 96.5043 -6.65214 2.31667 0
M  V30 978 H 92.6033 -0.75752 -0.194134 0
M  V30 979 H 95.1873 -1.94248 0.132533 0
M  V30 980 H 93.3583 -3.35726 -1.95302 0
M  V30 981 H 95.0903 -3.5899 -1.86838 0
M  V30 982 H 91.8453 -4.73165 -0.203004 0
M  V30 983 H 92.2693 -6.55933 1.67573 0
M  V30 984 H 96.9113 -4.22765 -0.054443 0
M  V30 985 H 94.6293 -7.53085 2.93067 0
M  V30 986 H 98.2153 -5.61472 1.52448 0
M  V30 987 H 97.0953 -7.24679 2.99683 0
M  V30 988 N 94.5984 0.214957 -1.56127 0
M  V30 989 C 95.5284 1.2695 -1.95974 0
M  V30 990 C 96.5094 1.48539 -0.828868 0
M  V30 991 O 97.6944 1.60611 -1.09168 0
M  V30 992 C 94.8244 2.61794 -2.28214 0
M  V30 993 C 93.7784 2.54851 -3.43853 0
M  V30 994 C 93.1044 3.93785 -3.61715 0
M  V30 995 C 94.4044 2.09065 -4.78632 0
M  V30 996 H 96.0984 0.93846 -2.84312 0
M  V30 997 H 93.6444 0.449996 -1.36788 0
M  V30 998 H 95.5974 3.35731 -2.54682 0
M  V30 999 H 94.3214 2.96599 -1.36736 0
M  V30 1000 H 92.9804 1.8337 -3.17444 0
M  V30 1001 H 92.6284 4.25908 -2.67602 0
M  V30 1002 H 92.3284 3.90019 -4.39498 0
M  V30 1003 H 93.8524 4.69374 -3.90539 0
M  V30 1004 H 95.2664 2.7275 -5.04262 0
M  V30 1005 H 93.6634 2.16346 -5.59745 0
M  V30 1006 H 94.7334 1.04315 -4.73547 0
M  V30 1007 N 96.0765 1.50051 0.48192 0
M  V30 1008 C 97.3255 1.59741 1.23149 0
M  V30 1009 C 97.6385 0.298163 1.93314 0
M  V30 1010 O 98.8445 0.273835 2.70116 0
M  V30 1011 C 97.3005 2.81926 2.23708 0
M  V30 1012 C 96.9085 4.18685 1.59396 0
M  V30 1013 C 98.6525 3.00956 2.99375 0
M  V30 1014 C 96.5595 5.3207 2.58178 0
M  V30 1015 H 95.4895 0.594838 0.46334 0
M  V30 1016 H 98.1405 1.76467 0.503169 0
M  V30 1017 H 96.5225 2.58736 2.99786 0
M  V30 1018 H 97.6965 4.52088 0.891811 0
M  V30 1019 H 96.0115 4.05171 0.960503 0
M  V30 1020 H 98.6085 3.82836 3.73283 0
M  V30 1021 H 98.9515 2.12258 3.58123 0
M  V30 1022 H 99.4845 3.24277 2.30411 0
M  V30 1023 H 96.2235 6.22888 2.04184 0
M  V30 1024 H 95.7435 5.03098 3.26577 0
M  V30 1025 H 97.4225 5.62196 3.20225 0
M  V30 1026 N 97.5546 -0.734337 1.39446 0
M  V30 1027 C 98.7826 -1.52358 1.39981 0
M  V30 1028 C 99.1976 -1.88799 -0.0054975 0
M  V30 1029 O 98.5546 -1.54146 -0.976998 0
M  V30 1030 C 98.6056 -2.81072 2.27333 0
M  V30 1031 O 98.3266 -2.46178 3.62392 0
M  V30 1032 C 99.8276 -3.75096 2.36259 0
M  V30 1033 H 97.0476 -0.470806 0.478103 0
M  V30 1034 H 99.5916 -0.907339 1.83269 0
M  V30 1035 H 97.7466 -3.39026 1.87457 0
M  V30 1036 H 98.1606 -3.28866 4.08592 0
M  V30 1037 H 99.6346 -4.62305 3.01626 0
M  V30 1038 H 100.112 -4.16892 1.38194 0
M  V30 1039 H 100.718 -3.23061 2.76608 0
M  V30 1040 N 99.0327 -1.24633 -0.964593 0
M  V30 1041 C 99.9957 -1.0424 -2.04124 0
M  V30 1042 C 100.996 0.00137563 -1.608 0
M  V30 1043 O 102.186 -0.239883 -1.7254 0
M  V30 1044 C 99.3177 -0.580588 -3.3592 0
M  V30 1045 H 100.511 -1.99803 -2.23649 0
M  V30 1046 H 98.0637 -1.06899 -1.14027 0
M  V30 1047 H 98.7987 0.3781 -3.22088 0
M  V30 1048 H 98.5837 -1.33398 -3.6871 0
M  V30 1049 H 100.074 -0.459034 -4.15069 0
M  V30 1050 N 100.511 1.16574 -1.06058 0
M  V30 1051 C 101.759 1.86677 -0.77434 0
M  V30 1052 C 102.08 1.81959 0.701147 0
M  V30 1053 O 101.35 1.2515 1.50713 0
M  V30 1054 H 99.9298 0.691134 -0.283449 0
M  V30 1055 H 102.592 1.41378 -1.34158 0
M  V30 1056 H 101.688 2.92181 -1.09711 0
M  V30 1057 N 101.989 0.842826 1.3317 0
M  V30 1058 C 102.952 0.284065 2.27433 0
M  V30 1059 C 103.952 -0.54948 1.5112 0
M  V30 1060 O 105.142 -0.362699 1.70382 0
M  V30 1061 C 102.274 -0.599384 3.35589 0
M  V30 1062 H 103.467 1.11589 2.78366 0
M  V30 1063 H 101.02 0.616221 1.4364 0
M  V30 1064 H 101.755 -1.45349 2.89904 0
M  V30 1065 H 101.54 -0.00291266 3.921 0
M  V30 1066 H 103.03 -0.983488 4.05854 0
M  V30 1067 N 103.467 -1.45747 0.599634 0
M  V30 1068 C 104.43 -2.28917 -0.113835 0
M  V30 1069 C 105.43 -1.3933 -0.802729 0
M  V30 1070 O 106.62 -1.61534 -0.652103 0
M  V30 1071 C 103.752 -3.20152 -1.17114 0
M  V30 1072 H 104.945 -2.93478 0.617289 0
M  V30 1073 H 102.498 -1.52137 0.358327 0
M  V30 1074 H 103.233 -2.60374 -1.93329 0
M  V30 1075 H 103.018 -3.86133 -0.681468 0
M  V30 1076 H 104.508 -3.82708 -1.67105 0
M  V30 1077 N 104.945 -0.338344 -1.53925 0
M  V30 1078 C 106.194 0.260732 -2.00008 0
M  V30 1079 C 106.507 1.52073 -1.23017 0
M  V30 1080 O 107.713 2.19672 -1.5955 0
M  V30 1081 C 106.169 0.51515 -3.56194 0
M  V30 1082 C 105.777 -0.728645 -4.42035 0
M  V30 1083 C 107.521 1.07337 -4.10706 0
M  V30 1084 C 105.428 -0.445315 -5.89721 0
M  V30 1085 H 104.358 0.101205 -0.747177 0
M  V30 1086 H 107.009 -0.452866 -1.77824 0
M  V30 1087 H 105.391 1.28932 -3.74423 0
M  V30 1088 H 106.565 -1.50352 -4.35581 0
M  V30 1089 H 104.88 -1.20813 -3.98489 0
M  V30 1090 H 107.477 1.30022 -5.18651 0
M  V30 1091 H 107.82 2.0273 -3.63602 0
M  V30 1092 H 108.353 0.360034 -3.96167 0
M  V30 1093 H 105.092 -1.36883 -6.41049 0
M  V30 1094 H 104.612 0.291569 -5.99091 0
M  V30 1095 H 106.291 -0.0606218 -6.46972 0
M  V30 1096 N 106.423 1.57458 -0.0668435 0
M  V30 1097 C 107.67 1.93301 0.603406 0
M  V30 1098 C 107.998 0.946486 1.69917 0
M  V30 1099 O 107.253 -0.0387021 1.95662 0
M  V30 1100 C 107.552 3.35784 1.22409 0
M  V30 1101 C 107.218 4.50179 0.254955 0
M  V30 1102 C 105.88 4.81199 -0.0116746 0
M  V30 1103 C 108.232 5.19598 -0.408338 0
M  V30 1104 C 105.56 5.78978 -0.94877 0
M  V30 1105 C 107.912 6.18381 -1.33372 0
M  V30 1106 C 106.576 6.47821 -1.60887 0
M  V30 1107 H 105.846 0.707338 0.220802 0
M  V30 1108 H 108.493 1.91012 -0.136665 0
M  V30 1109 H 106.798 3.34515 2.03978 0
M  V30 1110 H 108.495 3.60804 1.74989 0
M  V30 1111 H 105.085 4.25983 0.472954 0
M  V30 1112 H 109.269 4.95832 -0.215456 0
M  V30 1113 H 104.525 6.00115 -1.16925 0
M  V30 1114 H 108.699 6.71277 -1.85367 0
M  V30 1115 H 106.326 7.23399 -2.33661 0
M  V30 1116 N 107.901 -0.206675 1.56239 0
M  V30 1117 C 108.864 -1.23976 1.92776 0
M  V30 1118 C 109.864 -1.39041 0.807729 0
M  V30 1119 O 111.054 -1.37051 1.0753 0
M  V30 1120 C 108.186 -2.61112 2.19165 0
M  V30 1121 H 109.379 -0.927764 2.85189 0
M  V30 1122 H 106.932 -0.447718 1.4975 0
M  V30 1123 H 107.667 -2.97386 1.29352 0
M  V30 1124 H 107.452 -2.51552 3.00772 0
M  V30 1125 H 108.942 -3.35633 2.48476 0
M  V30 1126 N 109.379 -1.50304 -0.473955 0
M  V30 1127 C 110.342 -1.6841 -1.55469 0
M  V30 1128 C 111.342 -0.554905 -1.50922 0
M  V30 1129 O 112.532 -0.821882 -1.53593 0
M  V30 1130 C 109.664 -1.70667 -2.95102 0
M  V30 1131 H 110.857 -2.64828 -1.40733 0
M  V30 1132 H 108.41 -1.39742 -0.700132 0
M  V30 1133 H 109.145 -0.75932 -3.15285 0
M  V30 1134 H 108.93 -2.52698 -2.9981 0
M  V30 1135 H 110.42 -1.8664 -3.73571 0
M  V30 1136 N 110.857 0.726932 -1.39834 0
M  V30 1137 C 112.104 1.48664 -1.37496 0
M  V30 1138 C 112.432 1.94482 0.0264678 0
M  V30 1139 O 111.687 1.67692 1.00886 0
M  V30 1140 C 111.986 2.73495 -2.30077 0
M  V30 1141 C 111.652 2.46502 -3.77555 0
M  V30 1142 C 110.314 2.3885 -4.17737 0
M  V30 1143 C 112.666 2.23604 -4.70798 0
M  V30 1144 C 109.994 2.06352 -5.49214 0
M  V30 1145 C 112.346 1.92622 -6.02561 0
M  V30 1146 C 111.01 1.83444 -6.41798 0
M  V30 1147 H 110.28 0.544001 -0.503135 0
M  V30 1148 H 112.927 0.833657 -1.72402 0
M  V30 1149 H 111.232 3.43575 -1.88317 0
M  V30 1150 H 112.929 3.31549 -2.25558 0
M  V30 1151 H 109.519 2.5334 -3.45712 0
M  V30 1152 H 113.703 2.28479 -4.40581 0
M  V30 1153 H 108.959 1.97776 -5.78528 0
M  V30 1154 H 113.133 1.73914 -6.74334 0
M  V30 1155 H 110.76 1.58029 -7.43593 0
M  V30 1156 N 112.336 1.25143 0.95797 0
M  V30 1157 C 113.747 1.08851 1.51685 0
M  V30 1158 C 114.098 -0.33687 1.93286 0
M  V30 1159 O 113.223 -1.22644 1.7829 0
M  V30 1160 C 113.818 1.96978 2.75654 0
M  V30 1161 C 112.377 1.84881 3.27866 0
M  V30 1162 C 111.524 1.91329 2.0072 0
M  V30 1163 H 114.475 1.38478 0.77522 0
M  V30 1164 H 114.496 1.5078 3.4935 0
M  V30 1165 H 114.008 3.00712 2.45345 0
M  V30 1166 H 112.109 0.840182 3.63004 0
M  V30 1167 H 112.222 2.6951 3.96107 0
M  V30 1168 H 110.586 1.35174 2.15871 0
M  V30 1169 H 111.369 2.96661 1.72764 0
M  V30 1170 N 113.814 -1.1601 1.06675 0
M  V30 1171 C 115.062 -1.86264 0.784229 0
M  V30 1172 C 115.383 -1.82328 -0.691488 0
M  V30 1173 O 114.653 -1.25947 -1.50047 0
M  V30 1174 H 113.233 -0.689621 0.28711 0
M  V30 1175 H 115.895 -1.40664 1.34906 0
M  V30 1176 H 114.991 -2.91595 1.11259 0
M  V30 1177 N 115.292 -0.849877 -1.32721 0
M  V30 1178 C 116.538 -0.460855 -1.9811 0
M  V30 1179 C 116.893 0.971716 -1.66059 0
M  V30 1180 O 116.186 1.67184 -0.935944 0
M  V30 1181 C 116.38 -0.631272 -3.51781 0
M  V30 1182 C 116.209 -2.07886 -3.98765 0
M  V30 1183 C 114.979 -2.71637 -4.26077 0
M  V30 1184 C 117.177 -3.04889 -4.14182 0
M  V30 1185 N 115.159 -4.07356 -4.59276 0
M  V30 1186 C 116.53 -4.25583 -4.50865 0
M  V30 1187 C 118.585 -3.01148 -3.96503 0
M  V30 1188 C 117.288 -5.43027 -4.71714 0
M  V30 1189 C 119.314 -4.17832 -4.18533 0
M  V30 1190 C 118.676 -5.37284 -4.55528 0
M  V30 1191 H 114.775 -0.217283 -0.751207 0
M  V30 1192 H 117.359 -1.10026 -1.60631 0
M  V30 1193 H 115.53 -0.0215966 -3.88394 0
M  V30 1194 H 117.262 -0.212614 -4.04141 0
M  V30 1195 H 114.017 -2.22705 -4.17971 0
M  V30 1196 H 114.441 -4.77351 -4.80068 0
M  V30 1197 H 119.083 -2.0992 -3.67006 0
M  V30 1198 H 116.801 -6.34791 -5.00066 0
M  V30 1199 H 120.387 -4.16368 -4.06361 0
M  V30 1200 H 119.267 -6.26071 -4.72234 0
M  V30 1201 N 116.77 1.45427 -0.607355 0
M  V30 1202 C 118 2.06314 -0.108656 0
M  V30 1203 C 118.408 1.45269 1.21217 0
M  V30 1204 O 117.751 0.561115 1.74921 0
M  V30 1205 C 117.813 3.59345 0.105618 0
M  V30 1206 C 117.477 4.42723 -1.13337 0
M  V30 1207 C 118.474 4.77715 -2.05145 0
M  V30 1208 C 116.159 4.83478 -1.36213 0
M  V30 1209 C 118.153 5.52317 -3.18158 0
M  V30 1210 C 115.84 5.57835 -2.49527 0
M  V30 1211 C 116.838 5.92171 -3.40327 0
M  V30 1212 O 116.526 6.65019 -4.51669 0
M  V30 1213 H 116.258 0.672782 -0.0658842 0
M  V30 1214 H 118.812 1.87664 -0.834945 0
M  V30 1215 H 117.042 3.76394 0.886796 0
M  V30 1216 H 118.731 4.02076 0.555886 0
M  V30 1217 H 119.497 4.46787 -1.88697 0
M  V30 1218 H 115.376 4.56188 -0.664362 0
M  V30 1219 H 118.92 5.79036 -3.89054 0
M  V30 1220 H 114.817 5.88177 -2.65928 0
M  V30 1221 H 115.585 6.83469 -4.50348 0
M  V30 1222 N 118.248 0.346503 1.53744 0
M  V30 1223 C 119.211 -0.496439 2.23759 0
M  V30 1224 C 120.211 -1.0252 1.2388 0
M  V30 1225 O 121.401 -0.913974 1.48297 0
M  V30 1226 C 118.533 -1.69187 2.95954 0
M  V30 1227 H 119.726 0.115952 2.99676 0
M  V30 1228 H 117.279 0.0978939 1.55993 0
M  V30 1229 H 118.014 -2.34288 2.24231 0
M  V30 1230 H 117.799 -1.31989 3.69217 0
M  V30 1231 H 119.289 -2.28969 3.49232 0
M  V30 1232 N 119.726 -1.57421 0.075193 0
M  V30 1233 C 120.954 -1.97946 -0.602076 0
M  V30 1234 C 121.369 -0.953674 -1.62943 0
M  V30 1235 O 120.726 0.0592551 -1.82404 0
M  V30 1236 C 120.777 -3.38546 -1.26762 0
M  V30 1237 O 120.498 -4.37195 -0.281376 0
M  V30 1238 C 121.999 -3.93966 -2.03239 0
M  V30 1239 H 119.219 -0.650918 -0.162931 0
M  V30 1240 H 121.763 -2.03959 0.148601 0
M  V30 1241 H 119.918 -3.33609 -1.96936 0
M  V30 1242 H 120.332 -5.18975 -0.759267 0
M  V30 1243 H 121.806 -4.94555 -2.45193 0
M  V30 1244 H 122.283 -3.30693 -2.8903 0
M  V30 1245 H 122.889 -4.02315 -1.37924 0
M  V30 1246 N 121.204 0.198386 -1.56346 0
M  V30 1247 C 122.45 0.920648 -1.80698 0
M  V30 1248 C 122.783 1.83045 -0.648697 0
M  V30 1249 O 122.058 1.91308 0.350925 0
M  V30 1250 C 122.341 1.73971 -3.15287 0
M  V30 1251 C 122.194 0.85485 -4.41602 0
M  V30 1252 C 123.513 2.71296 -3.46535 0
M  V30 1253 H 120.632 0.333261 -0.657348 0
M  V30 1254 H 123.274 0.188198 -1.89066 0
M  V30 1255 H 121.424 2.36416 -3.08285 0
M  V30 1256 H 123.096 0.245362 -4.60647 0
M  V30 1257 H 121.339 0.161398 -4.335 0
M  V30 1258 H 122.01 1.46286 -5.32264 0
M  V30 1259 H 124.486 2.18983 -3.53816 0
M  V30 1260 H 123.362 3.2569 -4.41834 0
M  V30 1261 H 123.623 3.5018 -2.69864 0
M  V30 1262 N 122.682 1.50554 0.465978 0
M  V30 1263 C 123.929 1.61798 1.21768 0
M  V30 1264 C 124.257 0.320696 1.91838 0
M  V30 1265 O 123.512 -0.693724 1.82992 0
M  V30 1266 C 123.811 2.75152 2.28093 0
M  V30 1267 C 123.477 4.15454 1.75239 0
M  V30 1268 C 122.139 4.53628 1.60546 0
M  V30 1269 C 124.491 5.03121 1.36083 0
M  V30 1270 C 121.819 5.77204 1.05128 0
M  V30 1271 C 124.171 6.27249 0.821056 0
M  V30 1272 C 122.835 6.64221 0.660795 0
M  V30 1273 H 122.105 0.592063 0.445582 0
M  V30 1274 H 124.752 1.84503 0.512927 0
M  V30 1275 H 123.057 2.46556 3.04496 0
M  V30 1276 H 124.754 2.81055 2.86023 0
M  V30 1277 H 121.344 3.85341 1.87644 0
M  V30 1278 H 125.528 4.74257 1.46267 0
M  V30 1279 H 120.784 6.0452 0.91462 0
M  V30 1280 H 124.958 6.94537 0.509018 0
M  V30 1281 H 122.585 7.59854 0.229226 0
M  V30 1282 N 124.16 -0.719506 1.40217 0
M  V30 1283 C 125.385 -1.51371 1.4178 0
M  V30 1284 C 125.81 -1.88091 0.0182355 0
M  V30 1285 O 125.168 -1.52997 -0.972707 0
M  V30 1286 C 125.216 -2.768 2.31115 0
M  V30 1287 O 124.32 -3.73349 1.7517 0
M  V30 1288 H 123.661 -0.456529 0.482159 0
M  V30 1289 H 126.191 -0.88644 1.844 0
M  V30 1290 H 126.201 -3.25371 2.46167 0
M  V30 1291 H 124.876 -2.49407 3.3282 0
M  V30 1292 H 123.453 -3.32179 1.69444 0
M  V30 1293 N 125.638 -1.25649 -0.95132 0
M  V30 1294 C 126.601 -1.06399 -2.03007 0
M  V30 1295 C 127.601 -0.0156794 -1.60792 0
M  V30 1296 O 128.791 -0.25817 -1.72276 0
M  V30 1297 C 125.923 -0.616184 -3.35285 0
M  V30 1298 H 127.116 -2.02164 -2.21517 0
M  V30 1299 H 124.669 -1.08103 -1.12887 0
M  V30 1300 H 125.404 0.343917 -3.22471 0
M  V30 1301 H 125.189 -1.37301 -3.67275 0
M  V30 1302 H 126.679 -0.503032 -4.14559 0
M  V30 1303 N 127.117 1.15442 -1.07289 0
M  V30 1304 C 128.047 2.22312 -0.714107 0
M  V30 1305 C 129.028 1.67467 0.298155 0
M  V30 1306 O 130.213 1.93445 0.171048 0
M  V30 1307 C 127.343 3.47124 -0.110448 0
M  V30 1308 C 126.297 4.14926 -1.04979 0
M  V30 1309 C 125.623 5.33807 -0.308924 0
M  V30 1310 C 126.923 4.64762 -2.38314 0
M  V30 1311 H 128.617 2.5258 -1.6076 0
M  V30 1312 H 126.163 1.21404 -0.77441 0
M  V30 1313 H 128.116 4.21124 0.152482 0
M  V30 1314 H 126.84 3.16187 0.81812 0
M  V30 1315 H 125.499 3.42866 -1.29764 0
M  V30 1316 H 125.147 4.99126 0.623084 0
M  V30 1317 H 124.847 5.80113 -0.935036 0
M  V30 1318 H 126.371 6.10576 -0.0537771 0
M  V30 1319 H 127.785 5.30292 -2.1786 0
M  V30 1320 H 126.182 5.21728 -2.96514 0
M  V30 1321 H 127.252 3.80434 -3.00663 0
M  V30 1322 N 128.595 0.856903 1.32268 0
M  V30 1323 C 129.825 0.47475 2.01071 0
M  V30 1324 C 130.233 -0.933746 1.64553 0
M  V30 1325 O 129.576 -1.62114 0.863989 0
M  V30 1326 C 129.638 0.536746 3.55471 0
M  V30 1327 C 129.302 1.90453 4.15423 0
M  V30 1328 C 130.299 2.87029 4.33486 0
M  V30 1329 C 127.984 2.20229 4.51447 0
M  V30 1330 C 129.978 4.11532 4.86744 0
M  V30 1331 C 127.665 3.44984 5.0441 0
M  V30 1332 C 128.663 4.40452 5.22007 0
M  V30 1333 O 128.351 5.62998 5.73837 0
M  V30 1334 H 128.083 0.184778 0.650256 0
M  V30 1335 H 130.637 1.15615 1.69771 0
M  V30 1336 H 128.867 -0.20152 3.86175 0
M  V30 1337 H 130.556 0.169875 4.05544 0
M  V30 1338 H 131.322 2.6533 4.05986 0
M  V30 1339 H 127.201 1.46705 4.37034 0
M  V30 1340 H 130.745 4.86056 5.00395 0
M  V30 1341 H 126.642 3.66532 5.31342 0
M  V30 1342 H 127.41 5.64987 5.92226 0
M  V30 1343 N 130.073 -1.45103 0.615059 0
M  V30 1344 C 131.003 -2.33339 -0.0865619 0
M  V30 1345 C 131.984 -1.4727 -0.851209 0
M  V30 1346 O 133.169 -1.76026 -0.820281 0
M  V30 1347 C 130.299 -3.30095 -1.07956 0
M  V30 1348 C 129.253 -4.25858 -0.427628 0
M  V30 1349 C 128.579 -5.12361 -1.5294 0
M  V30 1350 C 129.879 -5.18165 0.655944 0
M  V30 1351 H 131.573 -2.92254 0.650224 0
M  V30 1352 H 129.119 -1.40532 0.314138 0
M  V30 1353 H 131.072 -3.90698 -1.57901 0
M  V30 1354 H 129.796 -2.69355 -1.84703 0
M  V30 1355 H 128.455 -3.66564 0.0510292 0
M  V30 1356 H 128.103 -4.47984 -2.28734 0
M  V30 1357 H 127.803 -5.77238 -1.09865 0
M  V30 1358 H 129.327 -5.75833 -2.03098 0
M  V30 1359 H 130.741 -5.72796 0.240257 0
M  V30 1360 H 129.138 -5.91559 1.00888 0
M  V30 1361 H 130.208 -4.60144 1.52957 0
M  V30 1362 N 131.551 -0.354651 -1.53558 0
M  V30 1363 C 132.962 0.126902 -1.86268 0
M  V30 1364 C 133.313 1.49075 -1.27558 0
M  V30 1365 O 132.438 2.08105 -0.5934 0
M  V30 1366 C 133.033 0.237046 -3.3797 0
M  V30 1367 C 131.592 0.662842 -3.70518 0
M  V30 1368 C 130.739 -0.196652 -2.76602 0
M  V30 1369 H 133.69 -0.573849 -1.47962 0
M  V30 1370 H 133.711 1.06259 -3.65362 0
M  V30 1371 H 133.223 -0.755725 -3.80671 0
M  V30 1372 H 131.324 1.66424 -3.33367 0
M  V30 1373 H 131.437 0.445034 -4.77029 0
M  V30 1374 H 129.801 0.332763 -2.52517 0
M  V30 1375 H 130.584 -1.18676 -3.22135 0
M  V30 1376 N 133.029 1.57378 -0.0835403 0
M  V30 1377 C 133.959 2.1641 0.87686 0
M  V30 1378 C 134.94 1.09429 1.30228 0
M  V30 1379 O 136.125 1.37516 1.37124 0
M  V30 1380 C 133.255 2.73517 2.14022 0
M  V30 1381 C 132.209 3.85769 1.85381 0
M  V30 1382 C 131.535 4.29529 3.18448 0
M  V30 1383 C 132.835 5.09486 1.14984 0
M  V30 1384 H 134.529 2.96914 0.385059 0
M  V30 1385 H 132.075 1.42823 0.18377 0
M  V30 1386 H 134.028 3.13463 2.81636 0
M  V30 1387 H 132.752 1.90252 2.65465 0
M  V30 1388 H 131.411 3.46345 1.20169 0
M  V30 1389 H 131.059 3.43169 3.67755 0
M  V30 1390 H 130.759 5.05204 3.00071 0
M  V30 1391 H 132.283 4.72099 3.8724 0
M  V30 1392 H 133.697 5.46674 1.72687 0
M  V30 1393 H 132.094 5.90515 1.06826 0
M  V30 1394 H 133.164 4.84724 0.130749 0
M  V30 1395 N 134.507 -0.190092 1.56449 0
M  V30 1396 C 135.437 -1.23816 1.97969 0
M  V30 1397 C 136.418 -1.47201 0.852395 0
M  V30 1398 O 137.603 -1.58854 1.1171 0
M  V30 1399 C 134.733 -2.5813 2.3235 0
M  V30 1400 C 133.687 -2.49348 3.47864 0
M  V30 1401 C 133.013 -3.8798 3.67934 0
M  V30 1402 C 134.313 -2.01424 4.81898 0
M  V30 1403 H 136.007 -0.89311 2.85769 0
M  V30 1404 H 133.553 -0.428177 1.37487 0
M  V30 1405 H 135.506 -3.31637 2.59991 0
M  V30 1406 H 134.23 -2.94386 1.41438 0
M  V30 1407 H 132.889 -1.78297 3.20321 0
M  V30 1408 H 132.537 -4.21597 2.74344 0
M  V30 1409 H 132.237 -3.82978 4.45648 0
M  V30 1410 H 133.761 -4.63101 3.97957 0
M  V30 1411 H 135.175 -2.64693 5.08538 0
M  V30 1412 H 133.572 -2.07413 5.63116 0
M  V30 1413 H 134.642 -0.967677 4.75146 0
M  V30 1414 N 135.985 -1.50799 -0.457987 0
M  V30 1415 C 136.948 -1.7005 -1.53674 0
M  V30 1416 C 137.948 -0.570881 -1.50325 0
M  V30 1417 O 139.138 -0.838126 -1.52712 0
M  V30 1418 C 136.27 -1.73788 -2.93276 0
M  V30 1419 H 137.463 -2.66306 -1.37917 0
M  V30 1420 H 135.016 -1.40477 -0.685271 0
M  V30 1421 H 135.751 -0.792717 -3.14462 0
M  V30 1422 H 135.536 -2.55864 -2.97113 0
M  V30 1423 H 137.026 -1.90591 -3.71571 0
M  V30 1424 N 137.463 0.71206 -1.40597 0
M  V30 1425 C 138.712 1.46754 -1.38369 0
M  V30 1426 C 139.025 1.95598 0.0097839 0
M  V30 1427 O 140.231 2.71059 0.154677 0
M  V30 1428 C 138.687 2.65289 -2.43207 0
M  V30 1429 C 138.295 2.23301 -3.88382 0
M  V30 1430 C 140.039 3.43008 -2.50091 0
M  V30 1431 C 137.946 3.38696 -4.84808 0
M  V30 1432 H 136.876 0.55118 -0.514506 0
M  V30 1433 H 139.527 0.774616 -1.66349 0
M  V30 1434 H 137.909 3.36769 -2.08332 0
M  V30 1435 H 139.083 1.59218 -4.32419 0
M  V30 1436 H 137.398 1.58618 -3.85006 0
M  V30 1437 H 139.995 4.28881 -3.1932 0
M  V30 1438 H 140.338 3.87065 -1.53253 0
M  V30 1439 H 140.871 2.78574 -2.83974 0
M  V30 1440 H 137.61 2.99668 -5.82992 0
M  V30 1441 H 137.13 4.01683 -4.45433 0
M  V30 1442 H 138.809 4.04712 -5.04794 0
M  V30 1443 N 138.941 1.26152 0.944643 0
M  V30 1444 C 139.871 1.09902 2.06019 0
M  V30 1445 C 140.852 0.00519538 1.70099 0
M  V30 1446 O 142.037 0.176583 1.93396 0
M  V30 1447 C 139.167 0.727562 3.39594 0
M  V30 1448 C 138.121 1.77274 3.89561 0
M  V30 1449 C 137.447 1.25569 5.19747 0
M  V30 1450 C 138.747 3.17357 4.14827 0
M  V30 1451 H 140.441 2.03217 2.19871 0
M  V30 1452 H 137.987 0.978452 1.05652 0
M  V30 1453 H 139.94 0.600777 4.17095 0
M  V30 1454 H 138.664 -0.241287 3.25707 0
M  V30 1455 H 137.323 1.88814 3.14237 0
M  V30 1456 H 136.971 0.276783 5.02238 0
M  V30 1457 H 136.671 1.95433 5.54148 0
M  V30 1458 H 138.195 1.1415 5.99835 0
M  V30 1459 H 139.609 3.08914 4.82954 0
M  V30 1460 H 138.006 3.84781 4.60504 0
M  V30 1461 H 139.076 3.63673 3.20734 0
M  V30 1462 N 140.419 -1.14872 1.07899 0
M  V30 1463 C 141.666 -1.85789 0.805532 0
M  V30 1464 C 141.994 -1.82649 -0.668561 0
M  V30 1465 O 141.249 -1.24858 -1.50695 0
M  V30 1466 C 141.548 -3.34223 1.26609 0
M  V30 1467 C 141.214 -3.57555 2.74709 0
M  V30 1468 C 139.876 -3.63631 3.1516 0
M  V30 1469 C 142.228 -3.66803 3.70277 0
M  V30 1470 C 139.556 -3.76473 4.49983 0
M  V30 1471 C 141.908 -3.8117 5.04869 0
M  V30 1472 C 140.572 -3.85494 5.44932 0
M  V30 1473 H 139.842 -0.679849 0.294765 0
M  V30 1474 H 142.489 -1.3572 1.35101 0
M  V30 1475 H 140.794 -3.86536 0.640103 0
M  V30 1476 H 142.491 -3.87511 1.03132 0
M  V30 1477 H 139.081 -3.5347 2.42398 0
M  V30 1478 H 143.265 -3.61404 3.40149 0
M  V30 1479 H 138.521 -3.7808 4.80484 0
M  V30 1480 H 142.695 -3.87268 5.78789 0
M  V30 1481 H 140.322 -3.95197 6.49403 0
M  V30 1482 N 141.898 -0.863906 -1.31812 0
M  V30 1483 C 143.146 -0.470904 -1.96537 0
M  V30 1484 C 143.467 0.978771 -1.68657 0
M  V30 1485 O 142.737 1.6853 -0.998717 0
M  V30 1486 H 141.317 -0.171148 -0.72713 0
M  V30 1487 H 143.979 -1.10236 -1.60729 0
M  V30 1488 H 143.075 -0.623616 -3.05806 0
M  V30 1489 N 143.376 1.44774 -0.622745 0
M  V30 1490 C 144.309 2.27792 0.136329 0
M  V30 1491 C 145.287 1.38041 0.859264 0
M  V30 1492 O 146.471 1.67478 0.86506 0
M  V30 1493 C 143.598 3.16776 1.19878 0
M  V30 1494 C 142.644 4.22575 0.57731 0
M  V30 1495 S 143.477 5.31825 -0.626294 0
M  V30 1496 C 144.633 6.24377 0.436378 0
M  V30 1497 H 144.866 2.91824 -0.567967 0
M  V30 1498 H 142.399 1.48838 -0.410677 0
M  V30 1499 H 144.357 3.68596 1.80686 0
M  V30 1500 H 143.018 2.5198 1.87523 0
M  V30 1501 H 142.211 4.84818 1.37721 0
M  V30 1502 H 141.813 3.73974 0.0440439 0
M  V30 1503 H 144.105 6.64689 1.31128 0
M  V30 1504 H 145.048 7.07941 -0.150271 0
M  V30 1505 H 145.456 5.59381 0.758513 0
M  V30 1506 N 144.854 0.36279 1.53368 0
M  V30 1507 C 146.103 -0.22888 2.00397 0
M  V30 1508 C 146.416 -1.50096 1.25421 0
M  V30 1509 O 147.622 -2.17106 1.63025 0
M  V30 1510 C 146.078 -0.458417 3.56969 0
M  V30 1511 C 145.686 0.798877 4.4082 0
M  V30 1512 C 147.43 -1.00789 4.12361 0
M  V30 1513 C 145.337 0.539078 5.88938 0
M  V30 1514 H 144.267 -0.089305 0.748693 0
M  V30 1515 H 146.918 0.481099 1.77081 0
M  V30 1516 H 145.3 -1.22959 3.76427 0
M  V30 1517 H 146.474 1.57262 4.33134 0
M  V30 1518 H 144.789 1.27137 3.96516 0
M  V30 1519 H 147.386 -1.21754 5.20653 0
M  V30 1520 H 147.729 -1.9692 3.66781 0
M  V30 1521 H 148.262 -0.296961 3.9669 0
M  V30 1522 H 145.001 1.47064 6.3879 0
M  V30 1523 H 144.521 -0.196222 5.99479 0
M  V30 1524 H 146.2 0.163542 6.46793 0
M  V30 1525 N 146.332 -1.57332 0.0918853 0
M  V30 1526 C 147.262 -2.16872 -0.865371 0
M  V30 1527 C 148.243 -1.10118 -1.29646 0
M  V30 1528 O 149.428 -1.38242 -1.36392 0
M  V30 1529 C 146.558 -2.74649 -2.12569 0
M  V30 1530 C 145.512 -3.86747 -1.83333 0
M  V30 1531 C 144.838 -4.31212 -3.16166 0
M  V30 1532 C 146.138 -5.10089 -1.1228 0
M  V30 1533 H 147.832 -2.97114 -0.369307 0
M  V30 1534 H 145.378 -1.42918 -0.176194 0
M  V30 1535 H 147.331 -3.14952 -2.7997 0
M  V30 1536 H 146.055 -1.91657 -2.64452 0
M  V30 1537 H 144.714 -3.46978 -1.18331 0
M  V30 1538 H 144.362 -3.45115 -3.6593 0
M  V30 1539 H 144.062 -5.06788 -2.97388 0
M  V30 1540 H 145.586 -4.74146 -3.84731 0
M  V30 1541 H 147 -5.47582 -1.69785 0
M  V30 1542 H 145.397 -5.91073 -1.03693 0
M  V30 1543 H 146.467 -4.84786 -0.105041 0
M  V30 1544 N 147.81 0.181792 -1.56548 0
M  V30 1545 C 149.226 0.53316 -1.50431 0
M  V30 1546 C 149.426 1.85184 -0.794297 0
M  V30 1547 O 148.482 2.50058 -0.350318 0
M  V30 1548 C 149.795 0.575597 -2.9514 0
M  V30 1549 C 151.343 0.663519 -3.05886 0
M  V30 1550 C 151.818 0.736946 -4.52032 0
M  V30 1551 N 153.309 0.800118 -4.56237 0
M  V30 1552 C 154.044 0.877327 -5.66649 0
M  V30 1553 N 153.54 0.916016 -6.86718 0
M  V30 1554 N 155.333 0.915542 -5.54594 0
M  V30 1555 H 147.484 -0.683025 -2.01118 0
M  V30 1556 H 149.747 -0.244988 -0.915797 0
M  V30 1557 H 149.453 -0.324482 -3.502 0
M  V30 1558 H 149.327 1.42572 -3.49218 0
M  V30 1559 H 151.714 1.55403 -2.50867 0
M  V30 1560 H 151.795 -0.21307 -2.54911 0
M  V30 1561 H 151.439 -0.149262 -5.07681 0
M  V30 1562 H 151.369 1.62953 -5.00753 0
M  V30 1563 H 153.86 0.778926 -3.69785 0
M  V30 1564 H 154.173 0.975813 -7.66614 0
M  V30 1565 H 152.518 0.884469 -6.89349 0
M  V30 1566 H 155.709 0.882245 -4.59711 0
M  V30 1567 H 155.882 0.972253 -6.40665 0
M  V30 1568 N 149.288 1.51039 0.449983 0
M  V30 1569 C 150.251 1.70863 1.5277 0
M  V30 1570 C 151.251 0.578846 1.5002 0
M  V30 1571 O 152.441 0.846213 1.52266 0
M  V30 1572 C 149.573 1.75341 2.9235 0
M  V30 1573 H 150.766 2.67034 1.36502 0
M  V30 1574 H 148.319 1.40838 0.677812 0
M  V30 1575 H 149.054 0.809383 3.14037 0
M  V30 1576 H 148.839 2.57436 2.95752 0
M  V30 1577 H 150.329 1.92559 3.70555 0
M  V30 1578 N 150.766 -0.704594 1.40972 0
M  V30 1579 C 152.012 -1.46675 1.40051 0
M  V30 1580 C 152.345 -1.94199 0.00641102 0
M  V30 1581 O 151.62 -1.68916 -0.964235 0
M  V30 1582 C 151.903 -2.68505 2.39952 0
M  V30 1583 C 151.756 -2.26805 3.88432 0
M  V30 1584 C 153.075 -3.70686 2.37233 0
M  V30 1585 H 150.194 -0.532015 0.510028 0
M  V30 1586 H 152.836 -0.803255 1.72185 0
M  V30 1587 H 150.986 -3.25114 2.1268 0
M  V30 1588 H 152.658 -1.75592 4.26574 0
M  V30 1589 H 150.901 -1.58685 4.03734 0
M  V30 1590 H 151.572 -3.14181 4.53866 0
M  V30 1591 H 154.048 -3.23731 2.61415 0
M  V30 1592 H 152.924 -4.53553 3.09162 0
M  V30 1593 H 153.185 -4.19754 1.38777 0
M  V30 1594 N 152.244 -1.26651 -0.937939 0
M  V30 1595 C 153.207 -1.08546 -2.01867 0
M  V30 1596 C 154.207 -0.0327327 -1.60767 0
M  V30 1597 O 155.397 -0.276427 -1.71993 0
M  V30 1598 C 152.529 -0.651711 -3.34613 0
M  V30 1599 H 153.722 -2.04502 -2.1936 0
M  V30 1600 H 151.275 -1.09294 -1.11734 0
M  V30 1601 H 152.01 0.309696 -3.22818 0
M  V30 1602 H 151.795 -1.41189 -3.65798 0
M  V30 1603 H 153.285 -0.546973 -4.14002 0
M  V30 1604 N 153.722 1.14298 -1.08507 0
M  V30 1605 C 154.971 1.84708 -0.810305 0
M  V30 1606 C 155.284 1.83903 0.666271 0
M  V30 1607 O 156.49 2.50112 1.05624 0
M  V30 1608 C 154.946 3.31572 -1.39957 0
M  V30 1609 C 154.554 3.40791 -2.90801 0
M  V30 1610 C 156.298 4.07087 -1.20334 0
M  V30 1611 C 154.205 4.81872 -3.4286 0
M  V30 1612 H 153.135 0.691985 -0.299454 0
M  V30 1613 H 155.786 1.28841 -1.30661 0
M  V30 1614 H 154.168 3.87183 -0.830976 0
M  V30 1615 H 155.342 2.95225 -3.53806 0
M  V30 1616 H 153.657 2.78732 -3.0935 0
M  V30 1617 H 156.254 5.11225 -1.56693 0
M  V30 1618 H 156.597 4.16054 -0.143237 0
M  V30 1619 H 157.13 3.57779 -1.73893 0
M  V30 1620 H 153.869 4.78094 -4.48449 0
M  V30 1621 H 153.389 5.27972 -2.84615 0
M  V30 1622 H 155.068 5.50765 -3.39509 0
M  V30 1623 N 155.201 0.870884 1.31352 0
M  V30 1624 C 156.111 0.330783 2.32256 0
M  V30 1625 C 157.127 -0.559767 1.6475 0
M  V30 1626 O 158.303 -0.456263 1.96164 0
M  V30 1627 C 155.368 -0.458137 3.4366 0
M  V30 1628 C 154.429 0.460482 4.26823 0
M  V30 1629 C 153.662 -0.290881 5.32907 0
M  V30 1630 O 153.885 -1.51885 5.49806 0
M  V30 1631 O 152.819 0.351732 6.00871 0
M  V30 1632 H 156.645 1.16718 2.80376 0
M  V30 1633 H 154.23 0.634285 1.35267 0
M  V30 1634 H 156.112 -0.905343 4.1156 0
M  V30 1635 H 154.787 -1.27106 2.97701 0
M  V30 1636 H 153.694 0.956207 3.61673 0
M  V30 1637 H 155.027 1.23903 4.7635 0
M  V30 1638 N 156.679 -1.44442 0.630414 0
M  V30 1639 C 157.925 -2.02894 0.143332 0
M  V30 1640 C 158.28 -1.48697 -1.22094 0
M  V30 1641 O 157.573 -0.661171 -1.79831 0
M  V30 1642 C 157.767 -3.57332 0.0697835 0
M  V30 1643 C 157.596 -4.26512 1.42539 0
M  V30 1644 C 156.366 -4.63516 2.01198 0
M  V30 1645 C 158.564 -4.57004 2.35907 0
M  V30 1646 N 156.546 -5.17661 3.30001 0
M  V30 1647 C 157.917 -5.12223 3.49324 0
M  V30 1648 C 159.972 -4.38955 2.34995 0
M  V30 1649 C 158.675 -5.51295 4.62024 0
M  V30 1650 C 160.701 -4.79075 3.46758 0
M  V30 1651 C 160.063 -5.34407 4.58899 0
M  V30 1652 H 156.162 -0.776041 0.0963523 0
M  V30 1653 H 158.746 -1.75945 0.833752 0
M  V30 1654 H 156.917 -3.83894 -0.589915 0
M  V30 1655 H 158.649 -4.02451 -0.42606 0
M  V30 1656 H 155.404 -4.47811 1.54151 0
M  V30 1657 H 155.828 -5.4921 3.95851 0
M  V30 1658 H 160.47 -3.95469 1.49545 0
M  V30 1659 H 158.188 -5.93736 5.48182 0
M  V30 1660 H 161.774 -4.66824 3.47227 0
M  V30 1661 H 160.654 -5.64878 5.4395 0
M  V30 1662 N 158.157 -0.370918 -1.53173 0
M  V30 1663 C 159.573 -0.0200818 -1.59587 0
M  V30 1664 C 159.773 1.46279 -1.38581 0
M  V30 1665 O 158.829 2.22506 -1.19363 0
M  V30 1666 C 160.142 -0.4808 -2.96831 0
M  V30 1667 C 161.69 -0.435477 -3.09956 0
M  V30 1668 C 162.165 -0.872092 -4.4962 0
M  V30 1669 N 163.656 -0.827364 -4.55751 0
M  V30 1670 C 164.391 -1.13683 -5.62018 0
M  V30 1671 N 163.887 -1.51584 -6.76014 0
M  V30 1672 N 165.68 -1.05927 -5.52029 0
M  V30 1673 H 157.831 -1.33652 -1.65079 0
M  V30 1674 H 160.094 -0.546634 -0.774529 0
M  V30 1675 H 159.8 -1.51577 -3.1736 0
M  V30 1676 H 159.674 0.129796 -3.76977 0
M  V30 1677 H 162.061 0.590371 -2.89134 0
M  V30 1678 H 162.142 -1.08164 -2.31806 0
M  V30 1679 H 161.786 -1.89608 -4.71181 0
M  V30 1680 H 161.716 -0.203127 -5.26208 0
M  V30 1681 H 164.207 -0.548216 -3.73902 0
M  V30 1682 H 164.52 -1.73609 -7.53047 0
M  V30 1683 H 162.865 -1.55454 -6.77391 0
M  V30 1684 H 166.056 -0.762321 -4.61851 0
M  V30 1685 H 166.229 -1.30378 -6.34749 0
M  V30 1686 N 159.635 1.57281 -0.100228 0
M  V30 1687 C 160.883 1.94153 0.561157 0
M  V30 1688 C 161.204 0.983157 1.68401 0
M  V30 1689 O 160.474 0.0361132 1.95867 0
M  V30 1690 H 159.054 0.716791 0.210283 0
M  V30 1691 H 161.716 1.94202 -0.164765 0
M  V30 1692 H 160.812 2.96709 0.968008 0
M  V30 1693 N 161.113 -0.173488 1.56642 0
M  V30 1694 C 162.06 -1.21482 1.96242 0
M  V30 1695 C 163.03 -1.44104 0.826027 0
M  V30 1696 O 164.215 -1.5688 1.08597 0
M  V30 1697 C 161.355 -2.54964 2.32567 0
M  V30 1698 C 160.468 -2.39739 3.59373 0
M  V30 1699 C 159.603 -3.66072 3.84921 0
M  V30 1700 C 158.642 -3.45771 5.05083 0
M  V30 1701 N 157.779 -4.64169 5.26775 0
M  V30 1702 H 162.619 -0.870123 2.85014 0
M  V30 1703 H 160.156 -0.418245 1.41029 0
M  V30 1704 H 162.114 -3.32758 2.5165 0
M  V30 1705 H 160.744 -2.87433 1.46908 0
M  V30 1706 H 159.796 -1.53131 3.48217 0
M  V30 1707 H 161.108 -2.20683 4.47326 0
M  V30 1708 H 160.262 -4.52303 4.0436 0
M  V30 1709 H 159.001 -3.88105 2.9534 0
M  V30 1710 H 158.006 -2.57927 4.85545 0
M  V30 1711 H 159.231 -3.25163 5.96193 0
M  V30 1712 H 157.177 -4.86425 4.40144 0
M  V30 1713 H 157.094 -4.48019 6.08946 0
M  V30 1714 H 158.362 -5.51689 5.5069 0
M  V30 1715 N 162.591 -1.51276 -0.441967 0
M  V30 1716 C 163.84 -1.6295 -1.18871 0
M  V30 1717 C 164.153 -0.349312 -1.92456 0
M  V30 1718 O 165.359 -0.345355 -2.69295 0
M  V30 1719 C 163.815 -2.87759 -2.16155 0
M  V30 1720 C 163.423 -4.22764 -1.48239 0
M  V30 1721 C 165.167 -3.08788 -2.91291 0
M  V30 1722 C 163.074 -5.38728 -2.4398 0
M  V30 1723 H 162.004 -0.606913 -0.447406 0
M  V30 1724 H 164.655 -1.77739 -0.456205 0
M  V30 1725 H 163.037 -2.66593 -2.92821 0
M  V30 1726 H 164.211 -4.54293 -0.771635 0
M  V30 1727 H 162.526 -4.07575 -0.852741 0
M  V30 1728 H 165.123 -3.92599 -3.63002 0
M  V30 1729 H 165.466 -2.21679 -3.5237 0
M  V30 1730 H 165.999 -3.30272 -2.21733 0
M  V30 1731 H 162.738 -6.28082 -1.87598 0
M  V30 1732 H 162.258 -5.1158 -3.13123 0
M  V30 1733 H 163.937 -5.70489 -3.05207 0
M  V30 1734 N 164.069 0.697108 -1.41344 0
M  V30 1735 C 165.346 1.45154 -1.31109 0
M  V30 1736 C 165.726 2.11009 0.0620449 0
M  V30 1737 O 165.074 2.01571 1.07618 0
M  V30 1738 C 165.284 2.47223 -2.46337 0
M  V30 1739 C 166.632 3.1252 -2.87431 0
M  V30 1740 O 167.656 2.57547 -2.46065 0
M  V30 1741 O 166.515 4.12083 -3.58957 0
M  V30 1742 H 163.609 0.646365 -0.515889 0
M  V30 1743 H 166.155 0.727716 -1.53305 0
M  V30 1744 H 164.927 1.97204 -3.37974 0
M  V30 1745 H 164.55 3.27116 -2.2601 0
M  V30 1746 N 165.547 1.27147 0.931209 0
M  V30 1747 C 166.824 1.0401 1.65654 0
M  V30 1748 C 167.204 -0.426297 2.06751 0
M  V30 1749 O 166.552 -1.40879 1.79904 0
M  V30 1750 C 166.762 1.99834 2.86125 0
M  V30 1751 C 168.11 2.29007 3.57549 0
M  V30 1752 O 169.134 1.97779 2.96246 0
M  V30 1753 O 167.993 2.82222 4.67989 0
M  V30 1754 H 165.087 0.396239 0.725895 0
M  V30 1755 H 167.633 1.38397 0.982056 0
M  V30 1756 H 166.405 2.98744 2.52721 0
M  V30 1757 H 166.028 1.65987 3.61295 0
M  V30 1758 N 167.025 -1.13721 1.09112 0
M  V30 1759 C 168.436 -1.6648 0.845068 0
M  V30 1760 C 168.787 -1.85911 -0.62701 0
M  V30 1761 O 167.912 -1.57556 -1.48341 0
M  V30 1762 C 168.507 -3.02413 1.52748 0
M  V30 1763 C 167.066 -3.52176 1.32849 0
M  V30 1764 C 166.213 -2.27492 1.58564 0
M  V30 1765 H 169.164 -0.976872 1.25072 0
M  V30 1766 H 169.185 -3.68223 0.958752 0
M  V30 1767 H 168.697 -2.88238 2.59885 0
M  V30 1768 H 166.798 -3.7156 0.278137 0
M  V30 1769 H 166.911 -4.32499 2.0611 0
M  V30 1770 H 165.275 -2.33923 1.00758 0
M  V30 1771 H 166.058 -2.15886 2.66924 0
M  V30 1772 N 168.503 -0.877838 -1.30888 0
M  V30 1773 C 169.45 -0.337538 -2.28318 0
M  V30 1774 C 170.42 0.568346 -1.56074 0
M  V30 1775 O 171.605 0.498298 -1.84178 0
M  V30 1776 C 168.745 0.448142 -3.42178 0
M  V30 1777 C 167.858 -0.48615 -4.29256 0
M  V30 1778 C 166.993 0.314427 -5.30269 0
M  V30 1779 C 166.032 -0.615791 -6.08995 0
M  V30 1780 N 165.169 0.14902 -7.01942 0
M  V30 1781 H 170.009 -1.17356 -2.73919 0
M  V30 1782 H 167.546 -0.590094 -1.34745 0
M  V30 1783 H 169.504 0.919517 -4.06941 0
M  V30 1784 H 168.134 1.24879 -2.97666 0
M  V30 1785 H 167.186 -1.076 -3.64865 0
M  V30 1786 H 168.498 -1.19909 -4.84173 0
M  V30 1787 H 167.652 0.847969 -6.00745 0
M  V30 1788 H 166.391 1.06062 -4.76027 0
M  V30 1789 H 165.396 -1.16102 -5.37401 0
M  V30 1790 H 166.621 -1.36097 -6.65323 0
M  V30 1791 H 164.567 0.877884 -6.50099 0
M  V30 1792 H 164.484 -0.504433 -7.54315 0
M  V30 1793 H 165.752 0.663537 -7.76671 0
M  V30 1794 N 169.982 1.44106 -0.638065 0
M  V30 1795 C 171.228 2.02815 -0.15409 0
M  V30 1796 C 171.583 1.49342 1.21304 0
M  V30 1797 O 170.876 0.670699 1.79478 0
M  V30 1798 C 171.07 3.5729 -0.0887327 0
M  V30 1799 C 170.899 4.2575 -1.44799 0
M  V30 1800 C 169.669 4.62443 -2.03653 0
M  V30 1801 C 171.867 4.55746 -2.38327 0
M  V30 1802 N 169.849 5.15903 -3.32741 0
M  V30 1803 C 171.22 5.10364 -3.52036 0
M  V30 1804 C 173.275 4.37703 -2.3732 0
M  V30 1805 C 171.978 5.48837 -4.64941 0
M  V30 1806 C 174.004 4.77229 -3.49294 0
M  V30 1807 C 173.366 5.31966 -4.61726 0
M  V30 1808 H 169.465 0.775519 -0.100466 0
M  V30 1809 H 172.049 1.755 -0.843071 0
M  V30 1810 H 170.22 3.84201 0.569548 0
M  V30 1811 H 171.952 4.02671 0.404711 0
M  V30 1812 H 168.707 4.46987 -1.56523 0
M  V30 1813 H 169.131 5.47102 -3.98758 0
M  V30 1814 H 173.773 3.94671 -1.51641 0
M  V30 1815 H 171.491 5.9082 -5.51323 0
M  V30 1816 H 175.077 4.64976 -3.49698 0
M  V30 1817 H 173.957 5.61986 -5.46939 0
M  V30 1818 N 171.46 0.379036 1.52974 0
M  V30 1819 C 172.876 0.0285448 1.59574 0
M  V30 1820 C 173.076 -1.45542 1.39355 0
M  V30 1821 O 172.132 -2.2187 1.20541 0
M  V30 1822 C 173.445 0.496535 2.96572 0
M  V30 1823 C 174.993 0.451909 3.0972 0
M  V30 1824 C 175.468 0.895924 4.49152 0
M  V30 1825 N 176.959 0.851522 4.55306 0
M  V30 1826 C 177.694 1.16661 5.61407 0
M  V30 1827 N 177.19 1.55166 6.752 0
M  V30 1828 N 178.983 1.08853 5.51459 0
M  V30 1829 H 171.134 1.34525 1.64367 0
M  V30 1830 H 173.397 0.550733 0.771619 0
M  V30 1831 H 173.103 1.53258 3.16552 0
M  V30 1832 H 172.977 -0.109802 3.7704 0
M  V30 1833 H 175.364 -0.575029 2.89443 0
M  V30 1834 H 175.445 1.09392 2.3123 0
M  V30 1835 H 175.089 1.92104 4.70168 0
M  V30 1836 H 175.019 0.23103 5.26093 0
M  V30 1837 H 177.51 0.568038 3.73606 0
M  V30 1838 H 177.823 1.776 7.52116 0
M  V30 1839 H 176.168 1.59044 6.76557 0
M  V30 1840 H 179.359 0.786803 4.6144 0
M  V30 1841 H 179.532 1.33742 6.34048 0
M  V30 1842 N 172.938 -1.57226 0.108567 0
M  V30 1843 C 174.166 -1.99179 -0.559954 0
M  V30 1844 C 174.581 -0.988022 -1.60884 0
M  V30 1845 O 173.938 0.0205512 -1.82488 0
M  V30 1846 C 173.989 -3.41159 -1.19552 0
M  V30 1847 O 173.71 -4.37694 -0.188577 0
M  V30 1848 C 175.211 -3.98188 -1.94837 0
M  V30 1849 H 172.431 -0.654228 -0.149088 0
M  V30 1850 H 174.975 -2.03598 0.19183 0
M  V30 1851 H 173.13 -3.37711 -1.89815 0
M  V30 1852 H 173.544 -5.20469 -0.649014 0
M  V30 1853 H 175.018 -4.99644 -2.34648 0
M  V30 1854 H 175.495 -3.3675 -2.81951 0
M  V30 1855 H 176.101 -4.0515 -1.2936 0
M  V30 1856 N 174.416 0.165178 -1.56732 0
M  V30 1857 C 175.664 0.879068 -1.8198 0
M  V30 1858 C 175.985 1.82514 -0.686561 0
M  V30 1859 O 175.255 1.93694 0.293146 0
M  V30 1860 H 173.835 0.327608 -0.671329 0
M  V30 1861 H 176.497 0.163526 -1.94213 0
M  V30 1862 H 175.593 1.45228 -2.76252 0
M  V30 1863 N 175.894 1.51508 0.433938 0
M  V30 1864 C 176.857 1.72473 1.50949 0
M  V30 1865 C 177.857 0.594725 1.49398 0
M  V30 1866 O 179.047 0.862315 1.5136 0
M  V30 1867 C 176.179 1.78431 2.90474 0
M  V30 1868 H 177.372 2.68467 1.33662 0
M  V30 1869 H 174.925 1.41549 0.662836 0
M  V30 1870 H 175.66 0.842645 3.13161 0
M  V30 1871 H 175.445 2.60558 2.93005 0
M  V30 1872 H 176.935 1.96479 3.68491 0
M  V30 1873 N 177.372 -0.689602 1.41712 0
M  V30 1874 C 178.649 -1.44457 1.31877 0
M  V30 1875 C 179.029 -2.11039 -0.0508537 0
M  V30 1876 O 178.377 -2.02138 -1.06547 0
M  V30 1877 C 178.587 -2.45913 2.47645 0
M  V30 1878 C 179.935 -3.10991 2.89084 0
M  V30 1879 O 180.959 -2.56238 2.47428 0
M  V30 1880 O 179.818 -4.10174 3.61137 0
M  V30 1881 H 176.912 -0.64362 0.519309 0
M  V30 1882 H 179.458 -0.719576 1.53689 0
M  V30 1883 H 178.23 -1.95409 3.39015 0
M  V30 1884 H 177.853 -3.25913 2.27742 0
M  V30 1885 N 178.85 -1.27639 -0.924453 0
M  V30 1886 C 180.097 -1.14167 -1.67249 0
M  V30 1887 C 180.425 0.311863 -1.91984 0
M  V30 1888 O 179.68 1.24425 -1.51053 0
M  V30 1889 C 179.979 -1.87407 -3.04325 0
M  V30 1890 C 179.645 -3.37249 -2.99289 0
M  V30 1891 C 178.307 -3.7812 -2.97622 0
M  V30 1892 C 180.659 -4.32845 -2.90336 0
M  V30 1893 C 177.987 -5.12944 -2.8479 0
M  V30 1894 C 180.339 -5.6773 -2.79045 0
M  V30 1895 C 179.003 -6.07889 -2.7573 0
M  V30 1896 H 178.273 -0.417766 -0.612007 0
M  V30 1897 H 180.92 -1.58286 -1.07786 0
M  V30 1898 H 179.225 -1.35805 -3.67511 0
M  V30 1899 H 180.922 -1.74408 -3.61086 0
M  V30 1900 H 177.512 -3.04748 -3.01374 0
M  V30 1901 H 181.696 -4.02239 -2.90719 0
M  V30 1902 H 176.952 -5.432 -2.80612 0
M  V30 1903 H 181.126 -6.41472 -2.71083 0
M  V30 1904 H 178.753 -7.12314 -2.65544 0
M  V30 1905 N 180.328 1.1314 -1.09713 0
M  V30 1906 C 181.576 1.84119 -0.833338 0
M  V30 1907 C 181.897 1.84097 0.642904 0
M  V30 1908 O 181.167 1.29881 1.46655 0
M  V30 1909 H 179.747 0.681766 -0.305293 0
M  V30 1910 H 182.409 1.37038 -1.38588 0
M  V30 1911 H 181.505 2.88543 -1.18951 0
M  V30 1912 N 181.806 0.884767 1.30421 0
M  V30 1913 C 183.055 0.499164 1.95426 0
M  V30 1914 C 183.368 -0.95645 1.70621 0
M  V30 1915 O 184.574 -1.44889 2.29607 0
M  V30 1916 C 183.03 0.84177 3.49917 0
M  V30 1917 C 182.638 2.31514 3.83543 0
M  V30 1918 C 184.382 0.525355 4.21237 0
M  V30 1919 C 182.289 2.59939 5.31212 0
M  V30 1920 H 181.219 0.182944 0.73147 0
M  V30 1921 H 183.87 1.07971 1.48373 0
M  V30 1922 H 182.252 0.190311 3.95542 0
M  V30 1923 H 183.426 3.0109 3.48829 0
M  V30 1924 H 181.741 2.59907 3.25326 0
M  V30 1925 H 184.338 0.714762 5.29901 0
M  V30 1926 H 184.681 -0.535222 4.12845 0
M  V30 1927 H 185.214 1.134 3.81294 0
M  V30 1928 H 181.953 3.64736 5.44654 0
M  V30 1929 H 181.473 1.94972 5.67227 0
M  V30 1930 H 183.152 2.45429 5.98643 0
M  V30 1931 N 183.284 -1.43765 0.645699 0
M  V30 1932 C 184.247 -2.29163 -0.0409488 0
M  V30 1933 C 185.247 -1.41813 -0.757996 0
M  V30 1934 O 186.437 -1.63527 -0.600382 0
M  V30 1935 C 183.569 -3.23716 -1.06869 0
M  V30 1936 H 184.762 -2.91366 0.710345 0
M  V30 1937 H 182.315 -1.5092 0.406547 0
M  V30 1938 H 183.05 -2.66393 -1.84947 0
M  V30 1939 H 182.835 -3.88105 -0.558277 0
M  V30 1940 H 184.325 -3.87831 -1.54845 0
M  V30 1941 N 184.763 -0.387143 -1.52771 0
M  V30 1942 C 185.726 0.436939 -2.24997 0
M  V30 1943 C 186.726 0.991991 -1.26555 0
M  V30 1944 O 187.916 0.874335 -1.50669 0
M  V30 1945 C 185.048 1.61281 -3.00335 0
M  V30 1946 H 186.241 -0.195365 -2.99263 0
M  V30 1947 H 183.794 -0.139218 -1.55679 0
M  V30 1948 H 184.529 2.2826 -2.30364 0
M  V30 1949 H 184.314 1.22154 -3.72587 0
M  V30 1950 H 185.804 2.19629 -3.5518 0
M  V30 1951 N 186.241 1.57166 -0.116904 0
M  V30 1952 C 187.489 1.94737 0.540533 0
M  V30 1953 C 187.81 1.00096 1.67349 0
M  V30 1954 O 187.08 0.0568854 1.95817 0
M  V30 1955 H 185.66 0.718981 0.202669 0
M  V30 1956 H 188.322 1.94017 -0.185353 0
M  V30 1957 H 187.418 2.97719 0.936483 0
M  V30 1958 N 187.719 -0.156864 1.56817 0
M  V30 1959 C 188.944 -0.890331 1.87318 0
M  V30 1960 C 189.369 -1.74394 0.704855 0
M  V30 1961 O 188.727 -1.77972 -0.345786 0
M  V30 1962 C 188.775 -1.73102 3.16336 0
M  V30 1963 O 187.879 -2.83422 2.99576 0
M  V30 1964 H 187.22 -0.24857 0.615718 0
M  V30 1965 H 189.75 -0.150649 2.04045 0
M  V30 1966 H 189.76 -2.12803 3.48107 0
M  V30 1967 H 188.435 -1.10412 4.00976 0
M  V30 1968 H 187.012 -2.47199 2.7919 0
M  V30 1969 N 189.197 -1.51736 -0.425897 0
M  V30 1970 C 190.443 -1.66174 -1.17294 0
M  V30 1971 C 190.798 -0.37876 -1.88635 0
M  V30 1972 O 190.091 0.626021 -1.81084 0
M  V30 1973 C 190.285 -2.81103 -2.20717 0
M  V30 1974 C 190.114 -4.20453 -1.59529 0
M  V30 1975 C 188.884 -4.86225 -1.37525 0
M  V30 1976 C 191.082 -5.03146 -1.06528 0
M  V30 1977 N 189.064 -6.09657 -0.720537 0
M  V30 1978 C 190.435 -6.17674 -0.536506 0
M  V30 1979 C 192.49 -4.88594 -0.958127 0
M  V30 1980 C 191.193 -7.19245 0.0888917 0
M  V30 1981 C 193.219 -5.90383 -0.346608 0
M  V30 1982 C 192.581 -7.04191 0.171564 0
M  V30 1983 H 188.68 -0.661871 -0.416475 0
M  V30 1984 H 191.264 -1.88997 -0.467801 0
M  V30 1985 H 189.435 -2.59924 -2.88607 0
M  V30 1986 H 191.167 -2.84662 -2.87663 0
M  V30 1987 H 187.922 -4.44293 -1.64015 0
M  V30 1988 H 188.346 -6.75756 -0.410292 0
M  V30 1989 H 192.988 -4.0085 -1.34459 0
M  V30 1990 H 190.706 -8.06628 0.48746 0
M  V30 1991 H 194.292 -5.81194 -0.265451 0
M  V30 1992 H 193.172 -7.81606 0.637309 0
M  V30 1993 N 190.675 0.682077 -1.42076 0
M  V30 1994 C 191.605 1.80796 -1.47767 0
M  V30 1995 C 192.586 1.6677 -0.334954 0
M  V30 1996 O 193.771 1.863 -0.548264 0
M  V30 1997 C 190.901 3.19038 -1.37229 0
M  V30 1998 C 189.855 3.47789 -2.49453 0
M  V30 1999 C 189.181 4.8553 -2.23975 0
M  V30 2000 C 190.481 3.45411 -3.91776 0
M  V30 2001 H 192.175 1.7629 -2.41997 0
M  V30 2002 H 189.721 0.846721 -1.16476 0
M  V30 2003 H 191.674 3.97528 -1.39821 0
M  V30 2004 H 190.398 3.24204 -0.394907 0
M  V30 2005 H 189.057 2.71657 -2.46166 0
M  V30 2006 H 188.705 4.87337 -1.24547 0
M  V30 2007 H 188.405 5.0573 -2.99184 0
M  V30 2008 H 189.929 5.66312 -2.28304 0
M  V30 2009 H 191.343 4.13882 -3.96705 0
M  V30 2010 H 189.74 3.77145 -4.66778 0
M  V30 2011 H 190.81 2.44122 -4.18966 0
M  V30 2012 N 192.153 1.28127 0.917671 0
M  V30 2013 C 193.564 1.13622 1.48145 0
M  V30 2014 C 193.915 -0.275207 1.9426 0
M  V30 2015 O 193.04 -1.1691 1.82102 0
M  V30 2016 C 193.635 2.05648 2.69248 0
M  V30 2017 C 192.194 1.95219 3.21818 0
M  V30 2018 C 191.341 1.97618 1.94532 0
M  V30 2019 H 194.292 1.40874 0.730772 0
M  V30 2020 H 194.313 1.61818 3.44377 0
M  V30 2021 H 193.825 3.08365 2.35653 0
M  V30 2022 H 191.926 0.955244 3.60147 0
M  V30 2023 H 192.039 2.81976 3.87333 0
M  V30 2024 H 190.403 1.41973 2.11461 0
M  V30 2025 H 191.186 3.02007 1.63238 0
M  V30 2026 N 193.631 -1.12557 1.10312 0
M  V30 2027 C 194.594 -2.16434 0.75424 0
M  V30 2028 C 195.594 -1.59278 -0.220685 0
M  V30 2029 O 196.784 -1.742 0.00230591 0
M  V30 2030 C 193.916 -3.40699 0.116987 0
M  V30 2031 H 195.109 -2.48811 1.67431 0
M  V30 2032 H 192.662 -1.27542 0.903475 0
M  V30 2033 H 193.397 -3.13921 -0.813877 0
M  V30 2034 H 193.182 -3.83459 0.818613 0
M  V30 2035 H 194.672 -4.17451 -0.111387 0
M  V30 2036 N 195.109 -0.891671 -1.2995 0
M  V30 2037 C 196.039 -0.379797 -2.30391 0
M  V30 2038 C 197.02 0.540919 -1.6127 0
M  V30 2039 O 198.205 0.453352 -1.88834 0
M  V30 2040 C 195.335 0.400654 -3.44981 0
M  V30 2041 C 194.289 -0.428905 -4.25846 0
M  V30 2042 C 193.615 0.478557 -5.32554 0
M  V30 2043 C 194.915 -1.67458 -4.94727 0
M  V30 2044 H 196.609 -1.21914 -2.73454 0
M  V30 2045 H 194.155 -0.587675 -1.31462 0
M  V30 2046 H 196.108 0.769434 -4.14316 0
M  V30 2047 H 194.832 1.27371 -3.0074 0
M  V30 2048 H 193.491 -0.779911 -3.58208 0
M  V30 2049 H 193.139 1.34951 -4.84559 0
M  V30 2050 H 192.839 -0.0727433 -5.87555 0
M  V30 2051 H 194.363 0.843705 -6.04743 0
M  V30 2052 H 195.777 -1.376 -5.56542 0
M  V30 2053 H 194.174 -2.16659 -5.59624 0
M  V30 2054 H 195.244 -2.41518 -4.20473 0
M  V30 2055 N 196.587 1.43421 -0.653314 0
M  V30 2056 C 197.517 2.33487 0.0246656 0
M  V30 2057 C 198.498 1.49475 0.811863 0
M  V30 2058 O 199.683 1.78139 0.773322 0
M  V30 2059 C 196.813 3.32841 0.99166 0
M  V30 2060 C 195.767 4.26842 0.314568 0
M  V30 2061 C 195.093 5.16236 1.39302 0
M  V30 2062 C 196.393 5.16243 -0.793095 0
M  V30 2063 H 198.087 2.90427 -0.727481 0
M  V30 2064 H 195.633 1.39649 -0.351287 0
M  V30 2065 H 197.586 3.94747 1.47487 0
M  V30 2066 H 196.31 2.74158 1.77497 0
M  V30 2067 H 194.969 3.663 -0.148199 0
M  V30 2068 H 194.617 4.53891 2.16776 0
M  V30 2069 H 194.317 5.79948 0.945223 0
M  V30 2070 H 195.841 5.81015 1.87759 0
M  V30 2071 H 197.255 5.71958 -0.392039 0
M  V30 2072 H 195.652 5.88676 -1.16536 0
M  V30 2073 H 196.722 4.55927 -1.65103 0
M  V30 2074 N 198.065 0.39524 1.52563 0
M  V30 2075 C 199.311 -0.177763 2.02622 0
M  V30 2076 C 199.666 -1.43974 1.27629 0
M  V30 2077 O 198.959 -1.87995 0.36992 0
M  V30 2078 C 199.153 -0.493444 3.53977 0
M  V30 2079 C 198.982 0.736392 4.4363 0
M  V30 2080 C 197.752 1.25744 4.89404 0
M  V30 2081 C 199.95 1.61046 4.88435 0
M  V30 2082 N 197.932 2.44421 5.63145 0
M  V30 2083 C 199.303 2.64359 5.60816 0
M  V30 2084 C 201.358 1.62985 4.70468 0
M  V30 2085 C 200.061 3.69505 6.17137 0
M  V30 2086 C 202.087 2.67042 5.27677 0
M  V30 2087 C 201.449 3.69077 5.99968 0
M  V30 2088 H 197.548 -0.0269794 0.781534 0
M  V30 2089 H 200.132 0.546466 1.86874 0
M  V30 2090 H 198.303 -1.18672 3.69826 0
M  V30 2091 H 200.035 -1.05412 3.90731 0
M  V30 2092 H 196.79 0.817546 4.6649 0
M  V30 2093 H 197.214 3.04485 6.04663 0
M  V30 2094 H 201.856 0.854442 4.14076 0
M  V30 2095 H 199.574 4.4791 6.72608 0
M  V30 2096 H 203.16 2.69433 5.15652 0
M  V30 2097 H 202.04 4.48273 6.43444 0
M  V30 2098 N 199.544 -1.57102 0.125237 0
M  V30 2099 C 200.792 -1.95021 -0.530198 0
M  V30 2100 C 201.113 -1.00982 -1.66816 0
M  V30 2101 O 200.383 -0.0672693 -1.95784 0
M  V30 2102 H 198.963 -0.720046 -0.198853 0
M  V30 2103 H 201.625 -1.93916 0.19564 0
M  V30 2104 H 200.721 -2.98211 -0.920681 0
M  V30 2105 N 201.022 0.148545 -1.56898 0
M  V30 2106 C 202.268 0.862694 -1.83536 0
M  V30 2107 C 202.601 1.80889 -0.706604 0
M  V30 2108 O 201.876 1.92328 0.289885 0
M  V30 2109 C 202.159 1.63853 -3.20662 0
M  V30 2110 C 202.012 0.713925 -4.44098 0
M  V30 2111 C 203.331 2.60133 -3.54991 0
M  V30 2112 H 200.45 0.312179 -0.667618 0
M  V30 2113 H 203.092 0.127953 -1.89569 0
M  V30 2114 H 201.242 2.26489 -3.1565 0
M  V30 2115 H 202.914 0.098686 -4.61194 0
M  V30 2116 H 201.157 0.0234019 -4.33794 0
M  V30 2117 H 201.828 1.29278 -5.36648 0
M  V30 2118 H 204.304 2.07616 -3.60603 0
M  V30 2119 H 203.18 3.11468 -4.51972 0
M  V30 2120 H 203.441 3.41417 -2.80868 0
M  V30 2121 N 202.5 1.5196 0.417844 0
M  V30 2122 C 203.463 1.74065 1.49111 0
M  V30 2123 C 204.463 0.610537 1.48758 0
M  V30 2124 O 205.653 0.87832 1.50437 0
M  V30 2125 C 202.785 1.81502 2.88565 0
M  V30 2126 H 203.978 2.69869 1.30807 0
M  V30 2127 H 201.531 1.42244 0.647785 0
M  V30 2128 H 202.266 0.875813 3.1225 0
M  V30 2129 H 202.051 2.63651 2.90225 0
M  V30 2130 H 203.541 2.00376 3.66387 0
M  V30 2131 N 203.978 -0.674533 1.42435 0
M  V30 2132 C 205.225 -1.43459 1.42919 0
M  V30 2133 C 205.553 -1.94446 0.0457312 0
M  V30 2134 O 204.808 -1.7132 -0.94593 0
M  V30 2135 C 205.107 -2.64767 2.40069 0
M  V30 2136 C 204.773 -2.3232 3.86443 0
M  V30 2137 C 203.435 -2.23182 4.26314 0
M  V30 2138 C 205.787 -2.05977 4.78773 0
M  V30 2139 C 203.115 -1.85827 5.56494 0
M  V30 2140 C 205.467 -1.70125 6.09295 0
M  V30 2141 C 204.131 -1.59498 6.48164 0
M  V30 2142 H 203.401 -0.524952 0.522978 0
M  V30 2143 H 206.048 -0.769097 1.75377 0
M  V30 2144 H 204.353 -3.36349 2.00939 0
M  V30 2145 H 206.05 -3.22949 2.37707 0
M  V30 2146 H 202.64 -2.40334 3.54877 0
M  V30 2147 H 206.824 -2.11969 4.48757 0
M  V30 2148 H 202.08 -1.76168 5.8547 0
M  V30 2149 H 206.254 -1.48767 6.80324 0
M  V30 2150 H 203.881 -1.30322 7.48946 0
M  V30 2151 N 205.456 -1.28612 -0.910864 0
M  V30 2152 C 206.419 -1.12803 -1.9952 0
M  V30 2153 C 207.419 -0.0668264 -1.60661 0
M  V30 2154 O 208.609 -0.312847 -1.71368 0
M  V30 2155 C 205.741 -0.72254 -3.33155 0
M  V30 2156 H 206.934 -2.09109 -2.14973 0
M  V30 2157 H 204.487 -1.11639 -1.09391 0
M  V30 2158 H 205.222 0.241152 -3.23402 0
M  V30 2159 H 205.007 -1.48916 -3.62721 0
M  V30 2160 H 206.497 -0.634666 -4.12749 0
M  V30 2161 N 206.934 1.1197 -1.10907 0
M  V30 2162 C 208.183 1.82947 -0.849302 0
M  V30 2163 C 208.496 1.85275 0.627112 0
M  V30 2164 O 209.702 2.52296 1.00295 0
M  V30 2165 C 208.158 3.28529 -1.46959 0
M  V30 2166 C 207.766 3.34546 -2.97965 0
M  V30 2167 C 209.51 4.04443 -1.28942 0
M  V30 2168 C 207.417 4.74491 -3.53004 0
M  V30 2169 H 206.347 0.685477 -0.314065 0
M  V30 2170 H 208.998 1.2604 -1.33365 0
M  V30 2171 H 207.38 3.85333 -0.912917 0
M  V30 2172 H 208.554 2.87654 -3.59989 0
M  V30 2173 H 206.869 2.72108 -3.15192 0
M  V30 2174 H 209.466 5.07787 -1.67502 0
M  V30 2175 H 209.809 4.15656 -0.231456 0
M  V30 2176 H 210.342 3.5401 -1.81443 0
M  V30 2177 H 207.081 4.68474 -4.58489 0
M  V30 2178 H 206.601 5.21816 -2.9575 0
M  V30 2179 H 208.28 5.4344 -3.51115 0
M  V30 2180 N 208.412 0.89855 1.29475 0
M  V30 2181 C 209.342 0.39201 2.30186 0
M  V30 2182 C 210.323 -0.532359 1.61555 0
M  V30 2183 O 211.508 -0.443331 1.89072 0
M  V30 2184 C 208.638 -0.382353 3.45189 0
M  V30 2185 C 207.592 0.451483 4.25612 0
M  V30 2186 C 206.918 -0.450307 5.328 0
M  V30 2187 C 208.218 1.70079 4.93832 0
M  V30 2188 H 209.912 1.23362 2.72804 0
M  V30 2189 H 207.458 0.594638 1.31149 0
M  V30 2190 H 209.411 -0.747451 4.14718 0
M  V30 2191 H 208.135 -1.25774 3.01411 0
M  V30 2192 H 206.794 0.798897 3.57789 0
M  V30 2193 H 206.442 -1.32379 4.85268 0
M  V30 2194 H 206.142 0.103902 5.87508 0
M  V30 2195 H 207.666 -0.811623 6.05182 0
M  V30 2196 H 209.08 1.40549 5.55805 0
M  V30 2197 H 207.477 2.19623 5.58467 0
M  V30 2198 H 208.547 2.43744 4.19186 0
M  V30 2199 N 209.89 -1.43072 0.660911 0
M  V30 2200 C 211.136 -2.0202 0.177708 0
M  V30 2201 C 211.469 -1.52066 -1.20787 0
M  V30 2202 O 210.744 -0.716987 -1.80802 0
M  V30 2203 C 211.027 -3.59561 0.197019 0
M  V30 2204 C 210.88 -4.19727 1.61706 0
M  V30 2205 C 212.199 -4.37664 -0.462396 0
M  V30 2206 H 209.318 -0.734034 0.0660494 0
M  V30 2207 H 211.96 -1.70272 0.843058 0
M  V30 2208 H 210.11 -3.86739 -0.369527 0
M  V30 2209 H 211.782 -4.03553 2.23479 0
M  V30 2210 H 210.025 -3.76084 2.16201 0
M  V30 2211 H 210.696 -5.28834 1.58237 0
M  V30 2212 H 213.172 -4.16095 0.0197215 0
M  V30 2213 H 212.048 -5.47305 -0.418188 0
M  V30 2214 H 212.309 -4.14493 -1.53778 0
M  V30 2215 N 211.368 -0.403325 -1.52352 0
M  V30 2216 C 212.784 -0.0539281 -1.59509 0
M  V30 2217 C 212.984 1.43307 -1.41652 0
M  V30 2218 O 212.04 2.19924 -1.24056 0
M  V30 2219 C 213.353 -0.543654 -2.95745 0
M  V30 2220 C 214.901 -0.501125 -3.08962 0
M  V30 2221 C 215.376 -0.967267 -4.47669 0
M  V30 2222 N 216.867 -0.923849 -4.53893 0
M  V30 2223 C 217.602 -1.25578 -5.5948 0
M  V30 2224 N 217.098 -1.65889 -6.72646 0
M  V30 2225 N 218.891 -1.17613 -5.49658 0
M  V30 2226 H 211.042 -1.37123 -1.62206 0
M  V30 2227 H 213.305 -0.56294 -0.76276 0
M  V30 2228 H 213.011 -1.58275 -3.14073 0
M  V30 2229 H 212.885 0.0498042 -3.77167 0
M  V30 2230 H 215.272 0.528909 -2.90321 0
M  V30 2231 H 215.353 -1.13056 -2.2946 0
M  V30 2232 H 214.997 -1.9956 -4.67053 0
M  V30 2233 H 214.927 -0.314698 -5.25659 0
M  V30 2234 H 217.418 -0.627403 -3.72655 0
M  V30 2235 H 217.731 -1.89543 -7.49195 0
M  V30 2236 H 216.076 -1.69787 -6.73942 0
M  V30 2237 H 219.267 -0.860115 -4.6013 0
M  V30 2238 H 219.44 -1.43812 -6.3184 0
M  V30 2239 N 212.846 1.57033 -0.133567 0
M  V30 2240 C 214.094 1.953 0.519848 0
M  V30 2241 C 214.415 1.01866 1.66278 0
M  V30 2242 O 213.685 0.0776513 1.95746 0
M  V30 2243 H 212.265 0.721091 0.195032 0
M  V30 2244 H 214.927 1.93809 -0.205921 0
M  V30 2245 H 214.023 2.98695 0.904854 0
M  V30 2246 N 214.325 -0.140222 1.56975 0
M  V30 2247 C 215.255 -1.17456 2.01808 0
M  V30 2248 C 216.236 -1.44415 0.898794 0
M  V30 2249 O 217.421 -1.5522 1.16707 0
M  V30 2250 C 214.551 -2.50607 2.40444 0
M  V30 2251 C 213.505 -2.38155 3.55621 0
M  V30 2252 C 212.831 -3.76078 3.80091 0
M  V30 2253 C 214.131 -1.85991 4.88062 0
M  V30 2254 H 215.825 -0.801743 2.88466 0
M  V30 2255 H 213.371 -0.38422 1.38779 0
M  V30 2256 H 215.324 -3.23197 2.7041 0
M  V30 2257 H 214.048 -2.89737 1.50732 0
M  V30 2258 H 212.707 -1.68016 3.25832 0
M  V30 2259 H 212.355 -4.12656 2.87618 0
M  V30 2260 H 212.055 -3.68606 4.57606 0
M  V30 2261 H 213.579 -4.50206 4.12488 0
M  V30 2262 H 214.993 -2.4838 5.16701 0
M  V30 2263 H 213.39 -1.89393 5.6943 0
M  V30 2264 H 214.46 -0.816023 4.77984 0
M  V30 2265 N 215.803 -1.52179 -0.40978 0
M  V30 2266 C 217.214 -1.58377 -0.988615 0
M  V30 2267 C 217.565 -0.423879 -1.91566 0
M  V30 2268 O 216.69 0.455844 -2.11544 0
M  V30 2269 C 217.285 -2.87044 -1.79976 0
M  V30 2270 C 215.844 -2.95722 -2.32863 0
M  V30 2271 C 214.991 -2.53309 -1.12828 0
M  V30 2272 H 217.942 -1.57558 -0.190039 0
M  V30 2273 H 217.963 -2.7236 -2.65707 0
M  V30 2274 H 217.475 -3.71444 -1.12478 0
M  V30 2275 H 215.576 -2.15814 -3.03735 0
M  V30 2276 H 215.689 -3.99951 -2.63773 0
M  V30 2277 H 214.053 -2.07142 -1.48204 0
M  V30 2278 H 214.836 -3.40082 -0.46897 0
M  V30 2279 N 217.281 0.66697 -1.42791 0
M  V30 2280 C 218.527 1.4291 -1.43891 0
M  V30 2281 C 218.86 1.94114 -0.0578972 0
M  V30 2282 O 218.135 1.71414 0.91911 0
M  V30 2283 C 218.418 2.62049 -2.46987 0
M  V30 2284 C 218.271 2.16426 -3.94309 0
M  V30 2285 C 219.59 3.64266 -2.46978 0
M  V30 2286 H 216.709 0.518306 -0.523954 0
M  V30 2287 H 219.351 0.757321 -1.74255 0
M  V30 2288 H 217.501 3.19361 -2.21225 0
M  V30 2289 H 219.173 1.64221 -4.31079 0
M  V30 2290 H 217.416 1.47925 -4.078 0
M  V30 2291 H 218.087 3.02038 -4.62036 0
M  V30 2292 H 220.563 3.16686 -2.69906 0
M  V30 2293 H 219.439 4.45196 -3.21079 0
M  V30 2294 H 219.7 4.15927 -1.49857 0
M  V30 2295 N 218.759 1.29093 0.90403 0
M  V30 2296 C 220.036 1.075 1.63411 0
M  V30 2297 C 220.416 -0.382346 2.07609 0
M  V30 2298 O 219.764 -1.37031 1.82851 0
M  V30 2299 C 219.974 2.05858 2.81822 0
M  V30 2300 C 221.322 2.36539 3.52611 0
M  V30 2301 O 222.346 2.04019 2.91984 0
M  V30 2302 O 221.205 2.92085 4.61897 0
M  V30 2303 H 218.299 0.411547 0.717327 0
M  V30 2304 H 220.845 1.40449 0.952479 0
M  V30 2305 H 219.617 3.04037 2.46327 0
M  V30 2306 H 219.24 1.73613 3.57693 0
M  V30 2307 N 220.237 -1.11381 1.11499 0
M  V30 2308 C 221.2 -2.15622 0.777153 0
M  V30 2309 C 222.2 -1.59504 -0.203779 0
M  V30 2310 O 223.39 -1.74188 0.020782 0
M  V30 2311 C 220.522 -3.40556 0.153116 0
M  V30 2312 H 221.715 -2.47021 1.70061 0
M  V30 2313 H 219.268 -1.26577 0.916952 0
M  V30 2314 H 220.003 -3.14767 -0.780536 0
M  V30 2315 H 219.788 -3.8257 0.859238 0
M  V30 2316 H 221.278 -4.17546 -0.0671044 0
M  V30 2317 N 221.715 -0.905404 -1.28997 0
M  V30 2318 C 222.663 -0.377431 -2.29517 0
M  V30 2319 C 223.657 0.526461 -1.61012 0
M  V30 2320 O 224.863 0.40863 -1.753 0
M  V30 2321 H 221.238 -0.103437 -0.744852 0
M  V30 2322 H 223.209 -1.23848 -2.71485 0
M  V30 2323 C 221.958 0.374833 -3.45674 0
M  V30 2324 H 221.281 -0.311474 -3.98585 0
M  V30 2325 H 222.721 0.70903 -4.1803 0
M  V30 2326 C 221.18 1.57963 -2.97572 0
M  V30 2327 O 221.71 2.67886 -2.99333 0
M  V30 2328 N 219.916 1.42375 -2.53333 0
M  V30 2329 H 219.463 0.529466 -2.521 0
M  V30 2330 H 219.421 2.23117 -2.21509 0
M  V30 2331 N 223.193 1.4272 -0.668489 0
M  V30 2332 C 224.441 2.01226 -0.187769 0
M  V30 2333 C 224.762 1.53092 1.2078 0
M  V30 2334 O 224.032 0.74993 1.80977 0
M  V30 2335 H 222.612 0.744041 -0.0664272 0
M  V30 2336 H 225.274 1.74723 -0.863583 0
M  V30 2337 H 224.37 3.11556 -0.184166 0
M  V30 2338 N 224.671 0.411399 1.52136 0
M  V30 2339 C 225.621 -0.430376 2.23901 0
M  V30 2340 C 226.605 -1.0116 1.25121 0
M  V30 2341 O 227.797 -0.934044 1.50348 0
M  V30 2342 C 224.926 -1.54527 3.06556 0
M  V30 2343 C 224.012 -0.9747 4.12747 0
M  V30 2344 N 224.403 -0.130991 5.0563 0
M  V30 2345 C 222.701 -1.24497 4.28271 0
M  V30 2346 C 223.402 0.186689 5.814 0
M  V30 2347 N 222.378 -0.42304 5.41951 0
M  V30 2348 H 226.18 0.220509 2.93072 0
M  V30 2349 H 223.694 0.221952 1.60876 0
M  V30 2350 H 225.691 -2.16093 3.56524 0
M  V30 2351 H 224.351 -2.19875 2.38925 0
M  V30 2352 H 225.362 0.23349 5.17373 0
M  V30 2353 H 222.039 -1.89787 3.7187 0
M  V30 2354 H 223.429 0.871673 6.66222 0
M  V30 2355 N 226.149 -1.5696 0.141893 0
M  V30 2356 C 227.395 -1.9625 -0.511248 0
M  V30 2357 C 227.728 -1.02654 -1.64851 0
M  V30 2358 O 227.003 -0.0679676 -1.94381 0
M  V30 2359 C 227.286 -3.45285 -1.02227 0
M  V30 2360 C 227.139 -4.49658 0.113138 0
M  V30 2361 C 228.458 -3.96698 -1.90574 0
M  V30 2362 H 225.577 -0.713567 -0.184367 0
M  V30 2363 H 228.219 -1.88698 0.222087 0
M  V30 2364 H 226.369 -3.51852 -1.64719 0
M  V30 2365 H 228.041 -4.55174 0.749302 0
M  V30 2366 H 226.284 -4.26857 0.773026 0
M  V30 2367 H 226.955 -5.51258 -0.286053 0
M  V30 2368 H 229.431 -3.92578 -1.37918 0
M  V30 2369 H 228.307 -5.01453 -2.2324 0
M  V30 2370 H 228.568 -3.3875 -2.84079 0
M  V30 2371 N 227.627 0.131896 -1.57047 0
M  V30 2372 C 228.59 1.14638 -1.98471 0
M  V30 2373 C 229.59 1.35029 -0.873148 0
M  V30 2374 O 230.78 1.31764 -1.13946 0
M  V30 2375 C 227.912 2.50358 -2.31373 0
M  V30 2376 H 229.105 0.79064 -2.8929 0
M  V30 2377 H 226.658 0.375761 -1.51716 0
M  V30 2378 H 227.393 2.90876 -1.43393 0
M  V30 2379 H 227.178 2.36915 -3.12432 0
M  V30 2380 H 228.668 3.23395 -2.64207 0
M  V30 2381 N 229.106 1.52395 0.401703 0
M  V30 2382 C 230.036 1.79231 1.49661 0
M  V30 2383 C 231.017 0.643654 1.57452 0
M  V30 2384 O 232.202 0.889989 1.72606 0
M  V30 2385 C 229.332 1.94971 2.87409 0
M  V30 2386 C 228.286 3.10604 2.94465 0
M  V30 2387 C 227.612 3.11577 4.34538 0
M  V30 2388 C 228.912 4.49921 2.6527 0
M  V30 2389 H 230.606 2.70917 1.27454 0
M  V30 2390 H 228.152 1.30362 0.6117 0
M  V30 2391 H 230.105 2.12328 3.63999 0
M  V30 2392 H 228.829 0.999632 3.10926 0
M  V30 2393 H 227.488 2.93009 2.20321 0
M  V30 2394 H 227.136 2.14277 4.55076 0
M  V30 2395 H 226.836 3.89247 4.40183 0
M  V30 2396 H 228.36 3.31073 5.13053 0
M  V30 2397 H 229.774 4.67683 3.31581 0
M  V30 2398 H 228.171 5.29564 2.82281 0
M  V30 2399 H 229.241 4.57507 1.60671 0
M  V30 2400 N 230.584 -0.659388 1.43143 0
M  V30 2401 C 231.809 -1.45221 1.48073 0
M  V30 2402 C 232.234 -1.87845 0.097995 0
M  V30 2403 O 231.592 -1.56985 -0.90694 0
M  V30 2404 C 231.64 -2.66748 2.42647 0
M  V30 2405 O 230.744 -3.65583 1.90848 0
M  V30 2406 H 230.085 -0.435669 0.501088 0
M  V30 2407 H 232.615 -0.807432 1.87994 0
M  V30 2408 H 232.625 -3.14637 2.59745 0
M  V30 2409 H 231.3 -2.35067 3.43098 0
M  V30 2410 H 229.877 -3.24693 1.83381 0
M  V30 2411 N 232.062 -1.29571 -0.897171 0
M  V30 2412 C 233.311 -1.1706 -1.64256 0
M  V30 2413 C 233.624 0.276476 -1.93636 0
M  V30 2414 O 234.83 0.52294 -2.66416 0
M  V30 2415 C 233.286 -2.0475 -2.95982 0
M  V30 2416 C 232.894 -3.54295 -2.74187 0
M  V30 2417 C 234.638 -2.0097 -3.73914 0
M  V30 2418 C 232.545 -4.34081 -4.01656 0
M  V30 2419 H 231.475 -0.43452 -0.616205 0
M  V30 2420 H 234.126 -1.54229 -0.994268 0
M  V30 2421 H 232.508 -1.60452 -3.62038 0
M  V30 2422 H 233.682 -4.06662 -2.1671 0
M  V30 2423 H 231.997 -3.59773 -2.09648 0
M  V30 2424 H 234.594 -2.57838 -4.68427 0
M  V30 2425 H 234.937 -0.990273 -4.0435 0
M  V30 2426 H 235.47 -2.43325 -3.14703 0
M  V30 2427 H 232.209 -5.36671 -3.76384 0
M  V30 2428 H 231.729 -3.86483 -4.58684 0
M  V30 2429 H 233.408 -4.44877 -4.69781 0
M  V30 2430 N 233.54 1.10788 -1.12088 0
M  V30 2431 C 234.951 1.64181 -0.88891 0
M  V30 2432 C 235.302 1.87508 0.577498 0
M  V30 2433 O 234.427 1.61434 1.44112 0
M  V30 2434 C 235.022 2.98257 -1.60712 0
M  V30 2435 C 233.581 3.4853 -1.42139 0
M  V30 2436 C 232.728 2.23208 -1.6454 0
M  V30 2437 H 235.679 0.943368 -1.27618 0
M  V30 2438 H 235.7 3.65552 -1.05604 0
M  V30 2439 H 235.212 2.81246 -2.67436 0
M  V30 2440 H 233.313 3.70692 -0.376552 0
M  V30 2441 H 233.426 4.26882 -2.17505 0
M  V30 2442 H 231.79 2.31169 -1.06925 0
M  V30 2443 H 232.573 2.08733 -2.72554 0
M  V30 2444 N 235.018 0.912232 1.28515 0
M  V30 2445 C 236.295 0.463597 1.90027 0
M  V30 2446 C 236.675 -1.05753 1.82701 0
M  V30 2447 O 236.023 -1.90492 1.26194 0
M  V30 2448 C 236.233 0.992253 3.34597 0
M  V30 2449 C 237.581 1.04344 4.11579 0
M  V30 2450 O 238.605 0.94079 3.43551 0
M  V30 2451 O 237.464 1.1995 5.33174 0
M  V30 2452 H 234.558 0.146666 0.813891 0
M  V30 2453 H 237.104 1.00292 1.36893 0
M  V30 2454 H 235.876 2.03623 3.34146 0
M  V30 2455 H 235.499 0.433672 3.95228 0
M  V30 2456 N 236.496 -1.42363 0.676048 0
M  V30 2457 C 237.742 -2.0182 0.199125 0
M  V30 2458 C 238.075 -1.53339 -1.19168 0
M  V30 2459 O 237.35 -0.736124 -1.80032 0
M  V30 2460 C 237.633 -3.59331 0.235144 0
M  V30 2461 C 237.486 -4.17989 1.66149 0
M  V30 2462 C 238.805 -4.3813 -0.41595 0
M  V30 2463 H 235.924 -0.733293 0.0738311 0
M  V30 2464 H 238.566 -1.69368 0.86107 0
M  V30 2465 H 236.716 -3.87109 -0.328487 0
M  V30 2466 H 238.388 -4.0116 2.27747 0
M  V30 2467 H 236.631 -3.7377 2.20178 0
M  V30 2468 H 237.302 -5.27126 1.63837 0
M  V30 2469 H 239.778 -4.16051 0.0638529 0
M  V30 2470 H 238.654 -5.47717 -0.360115 0
M  V30 2471 H 238.915 -4.16101 -1.49373 0
M  V30 2472 N 237.974 -0.419461 -1.51915 0
M  V30 2473 C 238.904 0.391813 -2.30189 0
M  V30 2474 C 239.885 1.03699 -1.34836 0
M  V30 2475 O 241.07 1.04403 -1.63748 0
M  V30 2476 C 238.2 1.50312 -3.13087 0
M  V30 2477 C 237.154 0.9824 -4.16573 0
M  V30 2478 C 236.48 2.18809 -4.8788 0
M  V30 2479 C 237.78 0.0292356 -5.22292 0
M  V30 2480 H 239.474 -0.26135 -2.98257 0
M  V30 2481 H 237.02 -0.127134 -1.43438 0
M  V30 2482 H 238.973 2.07773 -3.66617 0
M  V30 2483 H 237.697 2.18431 -2.42807 0
M  V30 2484 H 236.356 0.430119 -3.64068 0
M  V30 2485 H 236.004 2.85507 -4.14119 0
M  V30 2486 H 235.704 1.84615 -5.57845 0
M  V30 2487 H 237.228 2.76858 -5.44226 0
M  V30 2488 H 238.642 0.512976 -5.71 0
M  V30 2489 H 237.039 -0.2244 -5.9968 0
M  V30 2490 H 238.109 -0.912931 -4.76228 0
M  V30 2491 N 239.452 1.56882 -0.150215 0
M  V30 2492 C 240.4 2.18214 0.805313 0
M  V30 2493 C 241.394 1.14006 1.25296 0
M  V30 2494 O 242.6 1.3225 1.22107 0
M  V30 2495 H 238.975 0.698762 0.277913 0
M  V30 2496 H 240.946 2.97231 0.263862 0
M  V30 2497 C 239.695 2.82065 2.03309 0
M  V30 2498 H 239.018 3.61968 1.69763 0
M  V30 2499 H 240.458 3.28477 2.68103 0
M  V30 2500 C 238.917 1.80739 2.84315 0
M  V30 2501 O 239.447 1.27983 3.80767 0
M  V30 2502 N 237.653 1.4997 2.48913 0
M  V30 2503 H 237.2 1.93062 1.70542 0
M  V30 2504 H 237.158 0.824217 3.03404 0
M  V30 2505 N 240.93 -0.123565 1.57115 0
M  V30 2506 C 241.893 -1.13583 1.99076 0
M  V30 2507 C 242.893 -1.34564 0.880296 0
M  V30 2508 O 244.083 -1.31158 1.14644 0
M  V30 2509 C 241.215 -2.49128 2.32698 0
M  V30 2510 H 242.408 -0.775287 2.89706 0
M  V30 2511 H 239.961 -0.36771 1.51913 0
M  V30 2512 H 240.696 -2.90111 1.44934 0
M  V30 2513 H 240.481 -2.35255 3.13684 0
M  V30 2514 H 241.971 -3.2199 2.65918 0
M  V30 2515 N 242.408 -1.52605 -0.393616 0
M  V30 2516 C 243.638 -1.71046 -1.15874 0
M  V30 2517 C 244.046 -0.426483 -1.84331 0
M  V30 2518 O 243.389 0.608513 -1.73329 0
M  V30 2519 C 243.451 -2.80118 -2.25332 0
M  V30 2520 C 243.115 -4.21381 -1.76881 0
M  V30 2521 C 244.112 -5.04697 -1.24808 0
M  V30 2522 C 241.797 -4.67683 -1.83244 0
M  V30 2523 C 243.791 -6.32393 -0.797387 0
M  V30 2524 C 241.478 -5.95364 -1.37787 0
M  V30 2525 C 242.476 -6.77549 -0.861208 0
M  V30 2526 O 242.164 -8.02837 -0.413252 0
M  V30 2527 H 241.896 -0.576155 -0.353583 0
M  V30 2528 H 244.45 -2.00018 -0.467123 0
M  V30 2529 H 242.68 -2.46557 -2.97904 0
M  V30 2530 H 244.369 -2.87006 -2.87023 0
M  V30 2531 H 245.135 -4.70111 -1.19252 0
M  V30 2532 H 241.014 -4.03805 -2.22401 0
M  V30 2533 H 244.558 -6.9649 -0.393437 0
M  V30 2534 H 240.455 -6.29455 -1.43026 0
M  V30 2535 H 241.223 -8.16749 -0.53515 0
M  V30 2536 N 243.887 0.651787 -1.4349 0
M  V30 2537 C 245.115 1.43937 -1.48626 0
M  V30 2538 C 245.53 1.8851 -0.104587 0
M  V30 2539 O 244.887 1.5958 0.885464 0
M  V30 2540 C 244.938 2.6734 -2.43334 0
M  V30 2541 O 244.659 2.24631 -3.76128 0
M  V30 2542 C 246.16 3.60683 -2.57726 0
M  V30 2543 H 243.38 0.44213 -0.504739 0
M  V30 2544 H 245.924 0.798944 -1.88248 0
M  V30 2545 H 244.079 3.2752 -2.06904 0
M  V30 2546 H 244.493 3.04485 -4.2707 0
M  V30 2547 H 245.967 4.43933 -3.28067 0
M  V30 2548 H 246.444 4.08126 -1.62265 0
M  V30 2549 H 247.05 3.06384 -2.94973 0
M  V30 2550 N 245.365 1.30045 0.890287 0
M  V30 2551 C 246.295 1.18541 2.01172 0
M  V30 2552 C 247.276 0.0773356 1.69924 0
M  V30 2553 O 248.461 0.25845 1.92473 0
M  V30 2554 C 245.591 0.870941 3.36202 0
M  V30 2555 C 244.545 1.93637 3.81692 0
M  V30 2556 C 243.871 1.475 5.13953 0
M  V30 2557 C 245.171 3.34666 4.00994 0
M  V30 2558 H 246.865 2.12359 2.11054 0
M  V30 2559 H 244.411 1.02238 1.01407 0
M  V30 2560 H 246.364 0.777141 4.14172 0
M  V30 2561 H 245.088 -0.102926 3.26438 0
M  V30 2562 H 243.747 2.01972 3.05946 0
M  V30 2563 H 243.395 0.489551 5.00612 0
M  V30 2564 H 243.095 2.1876 5.4536 0
M  V30 2565 H 244.619 1.39489 5.94454 0
M  V30 2566 H 246.033 3.2912 4.69417 0
M  V30 2567 H 244.43 4.03966 4.43769 0
M  V30 2568 H 245.5 3.76949 3.05021 0
M  V30 2569 N 246.843 -1.10192 1.12674 0
M  V30 2570 C 247.773 -2.18652 0.819362 0
M  V30 2571 C 248.754 -1.68698 -0.217915 0
M  V30 2572 O 249.939 -1.94041 -0.0785581 0
M  V30 2573 C 247.069 -3.46202 0.27594 0
M  V30 2574 C 246.023 -4.09444 1.24656 0
M  V30 2575 C 245.349 -5.31725 0.563258 0
M  V30 2576 C 246.649 -4.52863 2.60217 0
M  V30 2577 H 248.343 -2.44622 1.72628 0
M  V30 2578 H 245.889 -1.17571 0.831451 0
M  V30 2579 H 247.842 -4.21372 0.0486149 0
M  V30 2580 H 246.566 -3.1973 -0.666331 0
M  V30 2581 H 245.225 -3.36284 1.45974 0
M  V30 2582 H 244.873 -5.0153 -0.384235 0
M  V30 2583 H 244.573 -5.74991 1.21075 0
M  V30 2584 H 246.097 -6.09624 0.34503 0
M  V30 2585 H 247.511 -5.19294 2.42913 0
M  V30 2586 H 245.908 -5.06986 3.21068 0
M  V30 2587 H 246.978 -3.65656 3.18471 0
M  V30 2588 N 248.321 -0.919034 -1.28029 0
M  V30 2589 C 249.569 -0.553838 -1.94363 0
M  V30 2590 C 249.89 0.906357 -1.72656 0
M  V30 2591 O 249.16 1.64143 -1.0693 0
M  V30 2592 H 247.74 -0.201834 -0.719216 0
M  V30 2593 H 250.402 -1.16954 -1.55909 0
M  V30 2594 H 249.498 -0.752758 -3.02886 0
M  V30 2595 N 249.799 1.42003 -0.683588 0
M  V30 2596 C 251.047 2.01015 -0.209101 0
M  V30 2597 C 251.368 1.54365 1.19149 0
M  V30 2598 O 250.638 0.769083 1.80172 0
M  V30 2599 H 249.218 0.743294 -0.074315 0
M  V30 2600 H 251.88 1.73798 -0.882066 0
M  V30 2601 H 250.976 3.11343 -0.2172 0
M  V30 2602 N 251.277 0.427512 1.51691 0
M  V30 2603 C 252.207 -0.3796 2.30394 0
M  V30 2604 C 253.188 -1.02982 1.35384 0
M  V30 2605 O 254.373 -1.03534 1.643 0
M  V30 2606 C 251.503 -1.48649 3.1388 0
M  V30 2607 C 250.457 -0.960294 4.17088 0
M  V30 2608 C 249.783 -2.16219 4.89033 0
M  V30 2609 C 251.083 -0.00153679 5.223 0
M  V30 2610 H 252.777 0.277164 2.98114 0
M  V30 2611 H 250.323 0.134739 1.43368 0
M  V30 2612 H 252.276 -2.05826 3.67714 0
M  V30 2613 H 251 -2.1714 2.43962 0
M  V30 2614 H 249.659 -0.410806 3.64291 0
M  V30 2615 H 249.307 -2.83307 4.15628 0
M  V30 2616 H 249.007 -1.81654 5.58816 0
M  V30 2617 H 250.531 -2.73968 5.45687 0
M  V30 2618 H 251.945 -0.482687 5.71264 0
M  V30 2619 H 250.342 0.256199 5.99553 0
M  V30 2620 H 251.412 0.938174 4.75738 0
M  V30 2621 N 252.755 -1.56801 0.158532 0
M  V30 2622 C 253.718 -2.16138 -0.762705 0
M  V30 2623 C 254.718 -1.1061 -1.16713 0
M  V30 2624 O 255.908 -1.36191 -1.08617 0
M  V30 2625 C 253.04 -2.73386 -2.03649 0
M  V30 2626 H 254.233 -2.98886 -0.246354 0
M  V30 2627 H 251.786 -1.56035 -0.0909744 0
M  V30 2628 H 252.521 -1.94335 -2.59623 0
M  V30 2629 H 252.306 -3.50601 -1.75559 0
M  V30 2630 H 253.796 -3.19065 -2.6942 0
M  V30 2631 N 254.233 0.115231 -1.57178 0
M  V30 2632 C 255.461 0.836437 -1.89239 0
M  V30 2633 C 255.876 1.73256 -0.750175 0
M  V30 2634 O 255.233 1.80357 0.278832 0
M  V30 2635 C 255.284 1.66671 -3.20785 0
M  V30 2636 O 255.005 0.806652 -4.3061 0
M  V30 2637 C 256.506 2.49274 -3.66575 0
M  V30 2638 H 253.726 0.240253 -0.626514 0
M  V30 2639 H 256.27 0.0984932 -2.04263 0
M  V30 2640 H 254.425 2.35737 -3.0742 0
M  V30 2641 H 254.839 1.37969 -5.06028 0
M  V30 2642 H 256.313 3.03055 -4.6137 0
M  V30 2643 H 256.79 3.26807 -2.93417 0
M  V30 2644 H 257.396 1.85443 -3.82741 0
M  V30 2645 N 255.711 1.52812 0.385517 0
M  V30 2646 C 256.674 1.77188 1.45386 0
M  V30 2647 C 257.674 0.641953 1.4743 0
M  V30 2648 O 258.864 0.910033 1.4854 0
M  V30 2649 C 255.996 1.87582 2.8465 0
M  V30 2650 H 257.189 2.72583 1.25054 0
M  V30 2651 H 254.742 1.43586 0.617467 0
M  V30 2652 H 255.477 0.941849 3.10322 0
M  V30 2653 H 255.262 2.69748 2.84567 0
M  V30 2654 H 256.752 2.08102 3.62054 0
M  V30 2655 N 257.189 -0.644168 1.43834 0
M  V30 2656 C 258.437 -1.40117 1.45642 0
M  V30 2657 C 258.758 -1.94814 0.0852413 0
M  V30 2658 O 258.028 -1.74988 -0.880688 0
M  V30 2659 H 256.608 -0.52005 0.536243 0
M  V30 2660 H 259.27 -0.7591 1.7951 0
M  V30 2661 H 258.366 -2.23902 2.17427 0
M  V30 2662 N 258.668 -1.30515 -0.883378 0
M  V30 2663 C 259.598 -1.19607 -2.00541 0
M  V30 2664 C 260.579 -0.086346 -1.69881 0
M  V30 2665 O 261.764 -0.268654 -1.92333 0
M  V30 2666 C 258.894 -0.888758 -3.35736 0
M  V30 2667 C 257.848 -1.95659 -3.8066 0
M  V30 2668 C 257.174 -1.50224 -5.13164 0
M  V30 2669 C 258.474 -3.36788 -3.99213 0
M  V30 2670 H 260.168 -2.13476 -2.09925 0
M  V30 2671 H 257.714 -1.02775 -1.00863 0
M  V30 2672 H 259.667 -0.799094 -4.13754 0
M  V30 2673 H 258.391 0.0856125 -3.26488 0
M  V30 2674 H 257.05 -2.03591 -3.04871 0
M  V30 2675 H 256.698 -0.516092 -5.00345 0
M  V30 2676 H 256.398 -2.2165 -5.44192 0
M  V30 2677 H 257.922 -1.42639 -5.93706 0
M  V30 2678 H 259.336 -3.31605 -4.67665 0
M  V30 2679 H 257.733 -4.06314 -4.41621 0
M  V30 2680 H 258.803 -3.78561 -3.03017 0
M  V30 2681 N 260.146 1.09593 -1.13257 0
M  V30 2682 C 261.393 1.81734 -0.893257 0
M  V30 2683 C 261.721 1.8563 0.580656 0
M  V30 2684 O 260.976 1.31906 1.44566 0
M  V30 2685 C 261.275 3.27802 -1.42411 0
M  V30 2686 C 260.941 3.44041 -2.91456 0
M  V30 2687 C 259.603 3.48181 -3.3215 0
M  V30 2688 C 261.955 3.48719 -3.87356 0
M  V30 2689 C 259.283 3.54575 -4.67433 0
M  V30 2690 C 261.635 3.56648 -5.2248 0
M  V30 2691 C 260.299 3.59055 -5.62704 0
M  V30 2692 H 259.569 0.665011 -0.326866 0
M  V30 2693 H 262.216 1.2912 -1.41422 0
M  V30 2694 H 260.521 3.83042 -0.823795 0
M  V30 2695 H 262.218 3.82149 -1.21503 0
M  V30 2696 H 258.808 3.41502 -2.58987 0
M  V30 2697 H 262.992 3.44763 -3.57004 0
M  V30 2698 H 258.248 3.54725 -4.97976 0
M  V30 2699 H 262.422 3.59212 -5.96607 0
M  V30 2700 H 260.049 3.63763 -6.67518 0
M  V30 2701 N 261.624 0.925811 1.2754 0
M  V30 2702 C 262.849 0.580924 1.99098 0
M  V30 2703 C 263.274 -0.833555 1.68622 0
M  V30 2704 O 262.632 -1.55903 0.925422 0
M  V30 2705 C 262.68 0.811186 3.51358 0
M  V30 2706 O 261.784 -0.124129 4.12213 0
M  V30 2707 H 261.125 0.223873 0.625122 0
M  V30 2708 H 263.655 1.24455 1.62395 0
M  V30 2709 H 263.665 0.72601 4.01489 0
M  V30 2710 H 262.34 1.84227 3.72872 0
M  V30 2711 H 260.917 0.0108006 3.72898 0
M  V30 2712 N 263.102 -1.41638 0.69111 0
M  V30 2713 C 264.032 -2.3347 0.037248 0
M  V30 2714 C 265.013 -1.51575 -0.771947 0
M  V30 2715 O 266.198 -1.80126 -0.72582 0
M  V30 2716 C 263.328 -3.35354 -0.903064 0
M  V30 2717 C 262.282 -4.27526 -0.201288 0
M  V30 2718 C 261.608 -5.19747 -1.25565 0
M  V30 2719 C 262.908 -5.13959 0.929689 0
M  V30 2720 H 264.602 -2.88397 0.804227 0
M  V30 2721 H 262.148 -1.38669 0.388189 0
M  V30 2722 H 264.101 -3.98519 -1.36969 0
M  V30 2723 H 262.825 -2.78767 -1.70166 0
M  V30 2724 H 261.484 -3.65779 0.245265 0
M  V30 2725 H 261.132 -4.59479 -2.04666 0
M  V30 2726 H 260.832 -5.8225 -0.791128 0
M  V30 2727 H 262.356 -5.85789 -1.72288 0
M  V30 2728 H 263.77 -5.70718 0.543546 0
M  V30 2729 H 262.167 -5.85379 1.32103 0
M  V30 2730 H 263.237 -4.51389 1.77133 0
M  V30 2731 N 264.58 -0.43555 -1.51462 0
M  V30 2732 C 265.81 0.130053 -2.0619 0
M  V30 2733 C 266.218 1.37164 -1.30317 0
M  V30 2734 O 265.561 1.80225 -0.355598 0
M  V30 2735 C 265.623 0.519418 -3.55728 0
M  V30 2736 C 265.287 -0.615119 -4.52841 0
M  V30 2737 C 266.284 -1.48671 -4.9819 0
M  V30 2738 C 263.969 -0.795341 -4.95963 0
M  V30 2739 C 265.963 -2.52324 -5.8533 0
M  V30 2740 C 263.65 -1.83514 -5.82894 0
M  V30 2741 C 264.648 -2.69748 -6.27475 0
M  V30 2742 O 264.336 -3.71944 -7.1268 0
M  V30 2743 H 264.068 0.0121612 -0.675891 0
M  V30 2744 H 266.622 -0.6129 -1.96043 0
M  V30 2745 H 264.852 1.31505 -3.63653 0
M  V30 2746 H 266.541 1.01597 -3.92979 0
M  V30 2747 H 267.307 -1.359 -4.65571 0
M  V30 2748 H 263.186 -0.133713 -4.60806 0
M  V30 2749 H 266.73 -3.19665 -6.20048 0
M  V30 2750 H 262.627 -1.96306 -6.14926 0
M  V30 2751 H 263.395 -3.68503 -7.30854 0
M  V30 2752 N 266.058 1.56714 -0.166846 0
M  V30 2753 C 267.306 1.96358 0.478305 0
M  V30 2754 C 267.627 1.0537 1.6408 0
M  V30 2755 O 266.897 0.119154 1.95537 0
M  V30 2756 H 265.477 0.725065 0.179692 0
M  V30 2757 H 268.139 1.93329 -0.246985 0
M  V30 2758 H 267.235 3.00547 0.841292 0
M  V30 2759 N 267.536 -0.106894 1.57237 0
M  V30 2760 C 268.499 -1.11466 2.0027 0
M  V30 2761 C 269.499 -1.33623 0.894519 0
M  V30 2762 O 270.689 -1.29935 1.16028 0
M  V30 2763 C 267.821 -2.46646 2.35327 0
M  V30 2764 H 269.014 -0.744516 2.90512 0
M  V30 2765 H 266.567 -0.351576 1.52295 0
M  V30 2766 H 267.302 -2.88558 1.48003 0
M  V30 2767 H 267.087 -2.31915 3.16161 0
M  V30 2768 H 268.577 -3.19151 2.69318 0
M  V30 2769 N 269.014 -1.53014 -0.377408 0
M  V30 2770 C 270.26 -1.68872 -1.12294 0
M  V30 2771 C 270.593 -0.433224 -1.89306 0
M  V30 2772 O 269.868 0.569258 -1.85983 0
M  V30 2773 C 270.151 -2.93115 -2.09179 0
M  V30 2774 C 270.004 -4.28794 -1.35853 0
M  V30 2775 C 271.323 -3.12928 -3.09458 0
M  V30 2776 H 268.442 -0.614518 -0.406862 0
M  V30 2777 H 271.084 -1.85633 -0.40503 0
M  V30 2778 H 269.234 -2.78956 -2.70399 0
M  V30 2779 H 270.906 -4.54742 -0.775082 0
M  V30 2780 H 269.149 -4.28744 -0.660364 0
M  V30 2781 H 269.82 -5.11837 -2.06706 0
M  V30 2782 H 272.296 -3.26194 -2.58334 0
M  V30 2783 H 271.172 -4.01316 -3.74482 0
M  V30 2784 H 271.433 -2.27669 -3.78971 0
M  V30 2785 N 270.492 0.636531 -1.44174 0
M  V30 2786 C 271.739 1.39619 -1.46672 0
M  V30 2787 C 272.067 1.94257 -0.0972691 0
M  V30 2788 O 271.322 1.73768 0.900175 0
M  V30 2789 C 271.621 2.58309 -2.47005 0
M  V30 2790 C 271.287 2.21992 -3.92467 0
M  V30 2791 C 269.949 2.118 -4.32081 0
M  V30 2792 C 272.301 1.9321 -4.84065 0
M  V30 2793 C 269.629 1.71007 -5.61225 0
M  V30 2794 C 271.981 1.53911 -6.13591 0
M  V30 2795 C 270.645 1.42257 -6.52165 0
M  V30 2796 H 269.915 0.510902 -0.536712 0
M  V30 2797 H 272.562 0.722328 -1.77355 0
M  V30 2798 H 270.867 3.30903 -2.09786 0
M  V30 2799 H 272.564 3.16533 -2.46186 0
M  V30 2800 H 269.154 2.30841 -3.61124 0
M  V30 2801 H 273.338 1.99997 -4.54219 0
M  V30 2802 H 268.594 1.60583 -5.89935 0
M  V30 2803 H 272.768 1.30677 -6.8403 0
M  V30 2804 H 270.395 1.10419 -7.52138 0
M  V30 2805 N 271.97 1.30982 0.876444 0
M  V30 2806 C 273.219 1.19658 1.62373 0
M  V30 2807 C 273.532 -0.245636 1.94052 0
M  V30 2808 O 274.738 -0.48049 2.67214 0
M  V30 2809 C 273.194 2.09433 2.92687 0
M  V30 2810 C 272.802 3.58613 2.68516 0
M  V30 2811 C 274.546 2.06893 3.70669 0
M  V30 2812 C 272.453 4.40416 3.94699 0
M  V30 2813 H 271.383 0.444268 0.609214 0
M  V30 2814 H 274.034 1.55791 0.969605 0
M  V30 2815 H 272.416 1.66191 3.59439 0
M  V30 2816 H 273.59 4.10058 2.10212 0
M  V30 2817 H 271.905 3.63063 2.03898 0
M  V30 2818 H 274.502 2.65258 4.64265 0
M  V30 2819 H 274.845 1.05448 4.02724 0
M  V30 2820 H 275.378 2.48301 3.10792 0
M  V30 2821 H 272.117 5.42591 3.67798 0
M  V30 2822 H 271.637 3.93731 4.52477 0
M  V30 2823 H 273.316 4.52294 4.62644 0
M  V30 2824 N 273.449 -1.08991 1.13837 0
M  V30 2825 C 274.412 -2.13925 0.822715 0
M  V30 2826 C 275.412 -1.599 -0.1699 0
M  V30 2827 O 276.602 -1.74104 0.0577251 0
M  V30 2828 C 273.734 -3.40155 0.225318 0
M  V30 2829 H 274.927 -2.43358 1.75262 0
M  V30 2830 H 272.48 -1.24603 0.943594 0
M  V30 2831 H 273.215 -3.16352 -0.713594 0
M  V30 2832 H 273 -3.80661 0.940193 0
M  V30 2833 H 274.49 -4.17594 0.0214784 0
M  V30 2834 N 274.927 -0.932562 -1.27047 0
M  V30 2835 C 275.857 -0.452902 -2.29066 0
M  V30 2836 C 276.838 0.489338 -1.62909 0
M  V30 2837 O 278.023 0.393046 -1.90181 0
M  V30 2838 C 275.153 0.290698 -3.46081 0
M  V30 2839 C 274.107 -0.564168 -4.24265 0
M  V30 2840 C 273.433 0.308886 -5.33807 0
M  V30 2841 C 274.733 -1.83112 -4.89149 0
M  V30 2842 H 276.427 -1.30552 -2.69437 0
M  V30 2843 H 273.973 -0.629201 -1.29526 0
M  V30 2844 H 275.926 0.637233 -4.16554 0
M  V30 2845 H 274.65 1.17738 -3.0464 0
M  V30 2846 H 273.309 -0.893477 -3.55545 0
M  V30 2847 H 272.957 1.19467 -4.88607 0
M  V30 2848 H 272.657 -0.259633 -5.87026 0
M  V30 2849 H 274.181 0.650884 -6.07121 0
M  V30 2850 H 275.595 -1.55236 -5.51883 0
M  V30 2851 H 273.992 -2.34353 -5.52448 0
M  V30 2852 H 275.062 -2.54772 -4.12576 0
M  V30 2853 N 276.405 1.4127 -0.698611 0
M  V30 2854 C 277.352 2.30773 -0.0352094 0
M  V30 2855 C 278.322 1.47273 0.768111 0
M  V30 2856 O 279.507 1.76053 0.735524 0
M  V30 2857 C 276.647 3.33346 0.893 0
M  V30 2858 C 275.76 4.31924 0.0809695 0
M  V30 2859 C 274.895 5.21566 1.0071 0
M  V30 2860 C 273.934 6.11811 0.188155 0
M  V30 2861 N 273.071 6.93926 1.06825 0
M  V30 2862 H 277.911 2.86943 -0.804207 0
M  V30 2863 H 275.448 1.4132 -0.408294 0
M  V30 2864 H 277.406 3.91368 1.44523 0
M  V30 2865 H 276.036 2.78719 1.62836 0
M  V30 2866 H 275.088 3.75825 -0.588224 0
M  V30 2867 H 276.4 4.95716 -0.553801 0
M  V30 2868 H 275.554 5.84437 1.62845 0
M  V30 2869 H 274.293 4.58008 1.67572 0
M  V30 2870 H 273.298 5.47986 -0.446254 0
M  V30 2871 H 274.523 6.77425 -0.476716 0
M  V30 2872 H 272.469 6.32973 1.72283 0
M  V30 2873 H 272.386 7.54416 0.489123 0
M  V30 2874 H 273.654 7.61262 1.67632 0
M  V30 2875 N 277.883 0.443576 1.51229 0
M  V30 2876 C 279.111 -0.11929 2.06556 0
M  V30 2877 C 279.526 -1.35921 1.31038 0
M  V30 2878 O 278.883 -1.78675 0.371704 0
M  V30 2879 C 278.934 -0.435228 3.5887 0
M  V30 2880 O 278.655 0.755486 4.31537 0
M  V30 2881 C 280.156 -1.04808 4.30732 0
M  V30 2882 H 277.376 -0.0051584 0.67098 0
M  V30 2883 H 279.92 0.624453 1.94733 0
M  V30 2884 H 278.075 -1.12887 3.70588 0
M  V30 2885 H 278.489 0.483491 5.22267 0
M  V30 2886 H 279.963 -1.2191 5.3837 0
M  V30 2887 H 280.44 -2.03081 3.89429 0
M  V30 2888 H 281.046 -0.393637 4.23474 0
M  V30 2889 N 279.361 -1.56624 0.175154 0
M  V30 2890 C 280.586 -2.01813 -0.478137 0
M  V30 2891 C 281.011 -1.05457 -1.55757 0
M  V30 2892 O 280.369 -0.0347439 -1.81267 0
M  V30 2893 C 280.417 -3.45581 -1.02987 0
M  V30 2894 O 279.521 -3.52305 -2.14371 0
M  V30 2895 H 278.862 -0.65413 -0.114059 0
M  V30 2896 H 281.392 -2.02673 0.280173 0
M  V30 2897 H 281.402 -3.84965 -1.35151 0
M  V30 2898 H 280.077 -4.1521 -0.239556 0
M  V30 2899 H 278.654 -3.24783 -1.83222 0
M  V30 2900 N 280.839 0.0985539 -1.57292 0
M  V30 2901 C 282.087 0.801092 -1.85545 0
M  V30 2902 C 282.408 1.79438 -0.763353 0
M  V30 2903 O 281.678 1.94763 0.21073 0
M  V30 2904 H 280.258 0.29884 -0.684619 0
M  V30 2905 H 282.92 0.0810064 -1.94732 0
M  V30 2906 H 282.016 1.3338 -2.82163 0
M  V30 2907 N 282.317 1.53212 0.369288 0
M  V30 2908 C 283.728 1.60943 0.946276 0
M  V30 2909 C 284.079 0.47452 1.90375 0
M  V30 2910 O 283.204 -0.399597 2.12679 0
M  V30 2911 C 283.799 2.91715 1.72302 0
M  V30 2912 C 282.358 3.01792 2.24941 0
M  V30 2913 C 281.505 2.56211 1.06072 0
M  V30 2914 H 284.456 1.58007 0.148198 0
M  V30 2915 H 284.477 2.79309 2.58393 0
M  V30 2916 H 283.989 3.74295 1.0259 0
M  V30 2917 H 282.09 2.23791 2.97906 0
M  V30 2918 H 282.203 4.06803 2.53077 0
M  V30 2919 H 280.567 2.10998 1.4266 0
M  V30 2920 H 281.35 3.41206 0.378639 0
M  V30 2921 N 283.795 -0.628877 1.44509 0
M  V30 2922 C 285.044 -1.38437 1.4669 0
M  V30 2923 C 285.357 -1.95322 0.104272 0
M  V30 2924 O 286.563 -2.715 0.00362163 0
M  V30 2925 C 285.019 -2.50659 2.5826 0
M  V30 2926 C 284.627 -2.00277 4.0074 0
M  V30 2927 C 286.371 -3.27844 2.69664 0
M  V30 2928 C 284.278 -3.09854 5.0373 0
M  V30 2929 H 283.208 -0.520245 0.545766 0
M  V30 2930 H 285.859 -0.676313 1.70582 0
M  V30 2931 H 284.241 -3.2405 2.27612 0
M  V30 2932 H 285.415 -1.33736 4.40966 0
M  V30 2933 H 283.73 -1.35901 3.93599 0
M  V30 2934 H 286.327 -4.09534 3.43781 0
M  V30 2935 H 286.67 -3.77471 1.75559 0
M  V30 2936 H 287.203 -2.61543 2.99733 0
M  V30 2937 H 283.942 -2.65168 5.99472 0
M  V30 2938 H 283.462 -3.7503 4.68095 0
M  V30 2939 H 285.141 -3.74592 5.27532 0
M  V30 2940 N 285.273 -1.31445 -0.869486 0
M  V30 2941 C 286.689 -1.10113 -1.15531 0
M  V30 2942 C 286.889 0.128087 -2.01092 0
M  V30 2943 O 285.945 0.817276 -2.38908 0
M  V30 2944 C 287.258 -2.37291 -1.84698 0
M  V30 2945 C 288.806 -2.42906 -1.97397 0
M  V30 2946 C 289.281 -3.69967 -2.69979 0
M  V30 2947 N 290.772 -3.70864 -2.77514 0
M  V30 2948 C 291.507 -4.65875 -3.34287 0
M  V30 2949 N 291.003 -5.71242 -3.91988 0
M  V30 2950 N 292.796 -4.53394 -3.3225 0
M  V30 2951 H 284.947 -2.1028 -0.299347 0
M  V30 2952 H 287.21 -0.927683 -0.195214 0
M  V30 2953 H 286.916 -3.27078 -1.29278 0
M  V30 2954 H 286.79 -2.47125 -2.84972 0
M  V30 2955 H 289.177 -1.53588 -2.51982 0
M  V30 2956 H 289.258 -2.37036 -0.961643 0
M  V30 2957 H 288.902 -4.59652 -2.16062 0
M  V30 2958 H 288.832 -3.73103 -3.7162 0
M  V30 2959 H 291.323 -2.94697 -2.36563 0
M  V30 2960 H 291.636 -6.39817 -4.33421 0
M  V30 2961 H 289.981 -5.75015 -3.90362 0
M  V30 2962 H 293.172 -3.70252 -2.8641 0
M  V30 2963 H 293.345 -5.27617 -3.76197 0
M  V30 2964 N 286.751 1.08385 -1.14413 0
M  V30 2965 C 288.028 1.77429 -0.823297 0
M  V30 2966 C 288.408 1.9974 0.683163 0
M  V30 2967 O 287.756 1.60739 1.62405 0
M  V30 2968 C 287.966 3.09004 -1.62227 0
M  V30 2969 C 289.314 3.83532 -1.82177 0
M  V30 2970 O 290.338 3.18786 -1.58915 0
M  V30 2971 O 289.197 4.99792 -2.21067 0
M  V30 2972 H 286.291 0.769999 -0.301712 0
M  V30 2973 H 288.837 1.14846 -1.24934 0
M  V30 2974 H 287.609 2.88316 -2.64555 0
M  V30 2975 H 287.232 3.79316 -1.19187 0
M  V30 2976 N 288.23 0.939286 1.26551 0
M  V30 2977 C 289.507 0.5038 1.89001 0
M  V30 2978 C 289.887 -1.01854 1.84903 0
M  V30 2979 O 289.235 -1.87773 1.30206 0
M  V30 2980 C 289.445 1.063 3.32417 0
M  V30 2981 C 290.793 1.13051 4.09273 0
M  V30 2982 O 291.817 1.01345 3.41479 0
M  V30 2983 O 290.676 1.31233 5.30509 0
M  V30 2984 H 287.77 0.163897 0.810597 0
M  V30 2985 H 290.316 1.03173 1.34735 0
M  V30 2986 H 289.088 2.10665 3.29752 0
M  V30 2987 H 288.711 0.517408 3.94219 0
M  V30 2988 N 289.708 -1.40897 0.706093 0
M  V30 2989 C 290.671 -2.29131 0.0562841 0
M  V30 2990 C 291.671 -1.44901 -0.697166 0
M  V30 2991 O 292.861 -1.65926 -0.530484 0
M  V30 2992 C 289.993 -3.27957 -0.93043 0
M  V30 2993 H 291.186 -2.88091 0.833284 0
M  V30 2994 H 288.739 -1.4906 0.470192 0
M  V30 2995 H 289.474 -2.73997 -1.73482 0
M  V30 2996 H 289.259 -3.90124 -0.393166 0
M  V30 2997 H 290.749 -3.94049 -1.38256 0
M  V30 2998 N 291.186 -0.45159 -1.50991 0
M  V30 2999 C 292.416 0.108177 -2.06317 0
M  V30 3000 C 292.824 1.35774 -1.31765 0
M  V30 3001 O 292.167 1.79838 -0.374694 0
M  V30 3002 C 292.229 0.481659 -3.56259 0
M  V30 3003 C 291.893 -0.663114 -4.52163 0
M  V30 3004 C 292.89 -1.53947 -4.96585 0
M  V30 3005 C 290.575 -0.8479 -4.95092 0
M  V30 3006 C 292.569 -2.58518 -5.82621 0
M  V30 3007 C 290.256 -1.89686 -5.80915 0
M  V30 3008 C 291.254 -2.76388 -6.24579 0
M  V30 3009 O 290.942 -3.79482 -7.08695 0
M  V30 3010 H 290.674 0.00499183 -0.675982 0
M  V30 3011 H 293.228 -0.633659 -1.95381 0
M  V30 3012 H 291.458 1.27641 -3.65027 0
M  V30 3013 H 293.147 0.974233 -3.94035 0
M  V30 3014 H 293.913 -1.4083 -4.64103 0
M  V30 3015 H 289.792 -0.18258 -4.60638 0
M  V30 3016 H 293.336 -3.26224 -6.16623 0
M  V30 3017 H 289.233 -2.02817 -6.12809 0
M  V30 3018 H 290.001 -3.76234 -7.26905 0
M  V30 3019 N 292.664 1.56529 -0.183458 0
M  V30 3020 C 294.08 1.58664 0.172554 0
M  V30 3021 C 294.28 1.19925 1.61926 0
M  V30 3022 O 293.336 0.916534 2.35278 0
M  V30 3023 C 294.649 3.00463 -0.119262 0
M  V30 3024 C 296.197 3.12945 -0.0584396 0
M  V30 3025 C 296.672 4.56857 -0.323408 0
M  V30 3026 N 298.163 4.62403 -0.271612 0
M  V30 3027 C 298.898 5.71626 -0.450639 0
M  V30 3028 N 298.394 6.89362 -0.689384 0
M  V30 3029 N 300.187 5.60775 -0.385701 0
M  V30 3030 H 292.338 1.79994 -1.12765 0
M  V30 3031 H 294.601 0.834808 -0.449222 0
M  V30 3032 H 294.307 3.33326 -1.12192 0
M  V30 3033 H 294.181 3.72659 0.583544 0
M  V30 3034 H 296.568 2.79902 0.934805 0
M  V30 3035 H 296.649 2.4316 -0.794144 0
M  V30 3036 H 296.293 4.9061 -1.31392 0
M  V30 3037 H 296.223 5.24816 0.43305 0
M  V30 3038 H 298.714 3.77785 -0.0932256 0
M  V30 3039 H 299.027 7.68489 -0.815113 0
M  V30 3040 H 297.372 6.91196 -0.726142 0
M  V30 3041 H 300.563 4.67674 -0.199687 0
M  V30 3042 H 300.736 6.4584 -0.528646 0
M  V30 3043 N 294.142 -0.090211 1.57342 0
M  V30 3044 C 295.389 -0.792807 1.86335 0
M  V30 3045 C 295.717 -1.78494 0.772662 0
M  V30 3046 O 294.972 -1.94305 -0.233258 0
M  V30 3047 C 295.271 -1.55222 3.21933 0
M  V30 3048 C 294.937 -0.701765 4.45406 0
M  V30 3049 C 293.599 -0.467334 4.78925 0
M  V30 3050 C 295.951 -0.11086 5.21082 0
M  V30 3051 C 293.279 0.367785 5.85546 0
M  V30 3052 C 295.631 0.711609 6.28585 0
M  V30 3053 C 294.295 0.956086 6.60617 0
M  V30 3054 H 293.565 -0.290109 0.681849 0
M  V30 3055 H 296.212 -0.0541332 1.91423 0
M  V30 3056 H 294.517 -2.3626 3.12551 0
M  V30 3057 H 296.214 -2.10032 3.41595 0
M  V30 3058 H 292.804 -0.894598 4.1916 0
M  V30 3059 H 296.988 -0.279129 4.95514 0
M  V30 3060 H 292.244 0.566128 6.08773 0
M  V30 3061 H 296.418 1.17632 6.86393 0
M  V30 3062 H 294.045 1.60499 7.43064 0
M  V30 3063 N 295.62 -1.53406 -0.361157 0
M  V30 3064 C 296.583 -1.79479 -1.42548 0
M  V30 3065 C 297.583 -0.665327 -1.4639 0
M  V30 3066 O 298.773 -0.933549 -1.47073 0
M  V30 3067 C 295.905 -1.92087 -2.8163 0
M  V30 3068 H 297.098 -2.74538 -1.20701 0
M  V30 3069 H 294.651 -1.4455 -0.594546 0
M  V30 3070 H 295.386 -0.991099 -3.08784 0
M  V30 3071 H 295.171 -2.74241 -2.80239 0
M  V30 3072 H 296.661 -2.13836 -3.58697 0
M  V30 3073 N 297.098 0.621204 -1.44841 0
M  V30 3074 C 298.344 1.3826 -1.48365 0
M  V30 3075 C 298.677 1.93831 -0.119624 0
M  V30 3076 O 297.952 1.74251 0.864111 0
M  V30 3077 C 298.235 2.54058 -2.55199 0
M  V30 3078 C 298.088 2.03772 -4.00995 0
M  V30 3079 C 299.407 3.56225 -2.58442 0
M  V30 3080 H 296.526 0.501374 -0.540179 0
M  V30 3081 H 299.168 0.7015 -1.76576 0
M  V30 3082 H 297.318 3.12162 -2.31274 0
M  V30 3083 H 298.99 1.50423 -4.36086 0
M  V30 3084 H 297.233 1.34876 -4.12299 0
M  V30 3085 H 297.904 2.87185 -4.71411 0
M  V30 3086 H 300.38 3.07939 -2.79844 0
M  V30 3087 H 299.256 4.34756 -3.3508 0
M  V30 3088 H 299.517 4.10949 -1.63013 0
M  V30 3089 N 298.576 1.31904 0.862503 0
M  V30 3090 C 299.822 1.23207 1.61838 0
M  V30 3091 C 300.177 -0.206062 1.91293 0
M  V30 3092 O 299.47 -1.14162 1.53875 0
M  V30 3093 C 299.664 2.01713 2.95037 0
M  V30 3094 C 299.493 3.53014 2.78588 0
M  V30 3095 C 298.263 4.22359 2.77382 0
M  V30 3096 C 300.461 4.47819 2.52909 0
M  V30 3097 N 298.443 5.59766 2.52062 0
M  V30 3098 C 299.814 5.72947 2.36922 0
M  V30 3099 C 301.869 4.37162 2.38314 0
M  V30 3100 C 300.572 6.88623 2.07823 0
M  V30 3101 C 302.598 5.5263 2.10604 0
M  V30 3102 C 301.96 6.76752 1.95411 0
M  V30 3103 H 298.059 0.505984 0.596242 0
M  V30 3104 H 300.643 1.66179 1.01452 0
M  V30 3105 H 298.814 1.61098 3.53415 0
M  V30 3106 H 300.546 1.84975 3.59953 0
M  V30 3107 H 297.301 3.74401 2.90036 0
M  V30 3108 H 297.725 6.32135 2.42352 0
M  V30 3109 H 302.367 3.41857 2.48784 0
M  V30 3110 H 300.085 7.83948 1.9609 0
M  V30 3111 H 303.671 5.46307 2.00101 0
M  V30 3112 H 302.551 7.6459 1.74274 0
M  V30 3113 N 300.054 -1.07777 1.14986 0
M  V30 3114 C 300.984 -2.16865 0.865557 0
M  V30 3115 C 301.965 -1.69123 -0.182083 0
M  V30 3116 O 303.15 -1.94164 -0.0373815 0
M  V30 3117 C 300.28 -3.45539 0.349313 0
M  V30 3118 C 299.234 -4.06708 1.33313 0
M  V30 3119 C 298.56 -5.30411 0.675918 0
M  V30 3120 C 299.86 -4.47241 2.69764 0
M  V30 3121 H 301.554 -2.40905 1.77778 0
M  V30 3122 H 299.1 -1.15781 0.856203 0
M  V30 3123 H 301.053 -4.21174 0.137983 0
M  V30 3124 H 299.777 -3.21072 -0.598362 0
M  V30 3125 H 298.436 -3.33112 1.53075 0
M  V30 3126 H 298.084 -5.02232 -0.277767 0
M  V30 3127 H 297.784 -5.72293 1.33244 0
M  V30 3128 H 299.308 -6.08755 0.474262 0
M  V30 3129 H 300.722 -5.14025 2.53873 0
M  V30 3130 H 299.119 -5.00062 3.3175 0
M  V30 3131 H 300.189 -3.58818 3.26156 0
M  V30 3132 N 301.532 -0.945985 -1.26051 0
M  V30 3133 C 302.757 -0.612525 -1.98149 0
M  V30 3134 C 303.182 0.806623 -1.69927 0
M  V30 3135 O 302.54 1.54411 -0.950108 0
M  V30 3136 C 302.588 -0.866981 -3.50023 0
M  V30 3137 O 301.692 0.0585333 -4.12358 0
M  V30 3138 H 301.033 -0.23379 -0.621481 0
M  V30 3139 H 303.563 -1.27023 -1.60395 0
M  V30 3140 H 303.573 -0.789792 -4.00283 0
M  V30 3141 H 302.248 -1.90135 -3.69894 0
M  V30 3142 H 300.825 -0.0701241 -3.72834 0
M  V30 3143 N 303.011 1.40521 -0.713556 0
M  V30 3144 C 303.941 2.33381 -0.0743864 0
M  V30 3145 C 304.922 1.52784 0.747735 0
M  V30 3146 O 306.107 1.81258 0.697071 0
M  V30 3147 C 303.237 3.36748 0.849598 0
M  V30 3148 C 302.191 4.27793 0.133247 0
M  V30 3149 C 301.517 5.21679 1.17281 0
M  V30 3150 C 302.817 5.12415 -1.01134 0
M  V30 3151 H 304.511 2.87081 -0.850007 0
M  V30 3152 H 302.057 1.38034 -0.410201 0
M  V30 3153 H 304.01 4.00648 1.30612 0
M  V30 3154 H 302.734 2.81439 1.65709 0
M  V30 3155 H 301.393 3.65342 -0.303426 0
M  V30 3156 H 301.041 4.62677 1.9733 0
M  V30 3157 H 300.741 5.83435 0.698397 0
M  V30 3158 H 302.265 5.88456 1.62947 0
M  V30 3159 H 303.679 5.69781 -0.634274 0
M  V30 3160 H 302.076 5.83203 -1.41399 0
M  V30 3161 H 303.146 4.48514 -1.84292 0
M  V30 3162 N 304.489 0.459591 1.5075 0
M  V30 3163 C 305.9 0.00171547 1.867 0
M  V30 3164 C 306.251 -1.39934 1.37525 0
M  V30 3165 O 305.376 -2.03523 0.735349 0
M  V30 3166 C 305.971 -0.00366298 3.388 0
M  V30 3167 C 304.53 -0.406026 3.74204 0
M  V30 3168 C 303.677 0.38673 2.7459 0
M  V30 3169 H 306.628 0.674413 1.43657 0
M  V30 3170 H 306.649 -0.808371 3.71814 0
M  V30 3171 H 306.161 1.01617 3.74561 0
M  V30 3172 H 304.262 -1.43063 3.4404 0
M  V30 3173 H 304.375 -0.115362 4.78961 0
M  V30 3174 H 302.739 -0.158019 2.54209 0
M  V30 3175 H 303.522 1.40585 3.13194 0
M  V30 3176 N 305.967 -1.56429 0.191757 0
M  V30 3177 C 307.213 -1.97777 -0.448554 0
M  V30 3178 C 307.546 -1.07847 -1.61501 0
M  V30 3179 O 306.821 -0.129774 -1.94067 0
M  V30 3180 C 307.104 -3.48362 -0.911906 0
M  V30 3181 C 306.957 -4.4907 0.256136 0
M  V30 3182 C 308.276 -4.02561 -1.77857 0
M  V30 3183 H 305.395 -0.719071 -0.161572 0
M  V30 3184 H 308.037 -1.87896 0.282007 0
M  V30 3185 H 306.187 -3.56914 -1.53442 0
M  V30 3186 H 307.859 -4.5256 0.893733 0
M  V30 3187 H 306.102 -4.24181 0.908436 0
M  V30 3188 H 306.773 -5.51889 -0.11053 0
M  V30 3189 H 309.249 -3.96767 -1.25359 0
M  V30 3190 H 308.125 -5.08301 -2.07174 0
M  V30 3191 H 308.386 -3.47616 -2.73158 0
M  V30 3192 N 307.445 0.0818655 -1.57387 0
M  V30 3193 C 308.408 1.08265 -2.02018 0
M  V30 3194 C 309.408 1.32183 -0.915664 0
M  V30 3195 O 310.598 1.28073 -1.18081 0
M  V30 3196 C 307.73 2.42871 -2.39221 0
M  V30 3197 H 308.923 0.698204 -2.91659 0
M  V30 3198 H 306.476 0.327303 -1.52835 0
M  V30 3199 H 307.211 2.86167 -1.52575 0
M  V30 3200 H 306.996 2.26855 -3.19811 0
M  V30 3201 H 308.486 3.14826 -2.74362 0
M  V30 3202 N 308.923 1.53595 0.353017 0
M  V30 3203 C 310.171 1.70049 1.09215 0
M  V30 3204 C 310.492 0.461406 1.89463 0
M  V30 3205 O 309.762 -0.524633 1.88744 0
M  V30 3206 H 308.342 0.626912 0.40619 0
M  V30 3207 H 311.004 1.90822 0.396585 0
M  V30 3208 H 310.1 2.56718 1.77488 0
M  V30 3209 N 310.401 -0.613514 1.45168 0
M  V30 3210 C 311.331 -1.7354 1.56225 0
M  V30 3211 C 312.312 -1.64981 0.41414 0
M  V30 3212 O 313.497 -1.83472 0.636526 0
M  V30 3213 C 310.627 -3.12128 1.52295 0
M  V30 3214 C 309.581 -3.35491 2.65762 0
M  V30 3215 C 308.907 -4.74291 2.46885 0
M  V30 3216 C 310.207 -3.26325 4.0781 0
M  V30 3217 H 311.901 -1.64543 2.50132 0
M  V30 3218 H 309.447 -0.790185 1.20383 0
M  V30 3219 H 311.4 -3.90404 1.58628 0
M  V30 3220 H 310.124 -3.2195 0.549139 0
M  V30 3221 H 308.783 -2.59603 2.58847 0
M  V30 3222 H 308.431 -4.80839 1.47657 0
M  V30 3223 H 308.131 -4.9088 3.22972 0
M  V30 3224 H 309.655 -5.54775 2.55063 0
M  V30 3225 H 311.069 -3.94483 4.16 0
M  V30 3226 H 309.466 -3.54445 4.8424 0
M  V30 3227 H 310.536 -2.23855 4.30136 0
M  V30 3228 N 311.879 -1.3236 -0.855495 0
M  V30 3229 C 313.125 -1.23054 -1.612 0
M  V30 3230 C 313.458 0.207404 -1.93089 0
M  V30 3231 O 312.733 1.14432 -1.57275 0
M  V30 3232 C 313.016 -2.08937 -2.93287 0
M  V30 3233 C 312.869 -3.61105 -2.68185 0
M  V30 3234 C 314.188 -1.94986 -3.94549 0
M  V30 3235 H 311.307 -0.448364 -0.584926 0
M  V30 3236 H 313.949 -1.62297 -0.987917 0
M  V30 3237 H 312.099 -1.75599 -3.46551 0
M  V30 3238 H 313.771 -4.04652 -2.21483 0
M  V30 3239 H 312.014 -3.83813 -2.02164 0
M  V30 3240 H 312.685 -4.16522 -3.62234 0
M  V30 3241 H 315.161 -2.24189 -3.5054 0
M  V30 3242 H 314.037 -2.57356 -4.84829 0
M  V30 3243 H 314.298 -0.917263 -4.3248 0
M  V30 3244 N 313.357 1.07166 -1.15556 0
M  V30 3245 C 314.32 2.12589 -0.856644 0
M  V30 3246 C 315.32 1.6015 0.14444 0
M  V30 3247 O 316.51 1.7399 -0.0854163 0
M  V30 3248 C 313.642 3.39753 -0.279405 0
M  V30 3249 H 314.835 2.40539 -1.79112 0
M  V30 3250 H 312.388 1.23086 -0.963298 0
M  V30 3251 H 313.123 3.17447 0.663174 0
M  V30 3252 H 312.908 3.79117 -1.00063 0
M  V30 3253 H 314.398 4.17507 -0.0879113 0
M  V30 3254 N 314.835 0.952656 1.25548 0
M  V30 3255 C 316.083 0.605176 1.92826 0
M  V30 3256 C 316.404 -0.860261 1.74999 0
M  V30 3257 O 315.674 -1.6125 1.11244 0
M  V30 3258 H 314.254 0.220832 0.713612 0
M  V30 3259 H 316.916 1.21047 1.52754 0
M  V30 3260 H 316.012 0.832798 3.00784 0
M  V30 3261 N 316.313 -1.40141 0.720998 0
M  V30 3262 C 317.56 -2.00787 0.262842 0
M  V30 3263 C 317.888 -1.5718 -1.14563 0
M  V30 3264 O 317.143 -0.785391 -1.79249 0
M  V30 3265 C 317.442 -3.56165 0.296892 0
M  V30 3266 C 317.108 -4.19373 1.65641 0
M  V30 3267 C 315.77 -4.36352 2.02855 0
M  V30 3268 C 318.122 -4.54578 2.54968 0
M  V30 3269 C 315.45 -4.8582 3.28931 0
M  V30 3270 C 317.802 -5.05447 3.80402 0
M  V30 3271 C 316.466 -5.20635 4.17726 0
M  V30 3272 H 315.736 -0.734731 0.0961807 0
M  V30 3273 H 318.383 -1.67673 0.925093 0
M  V30 3274 H 316.688 -3.8922 -0.448932 0
M  V30 3275 H 318.385 -4.00929 -0.0755208 0
M  V30 3276 H 314.975 -4.06549 1.35704 0
M  V30 3277 H 319.159 -4.41091 2.27491 0
M  V30 3278 H 314.415 -4.95764 3.57811 0
M  V30 3279 H 318.589 -5.31663 4.49786 0
M  V30 3280 H 316.216 -5.58728 5.15487 0
M  V30 3281 N 317.792 -0.46758 -1.50504 0
M  V30 3282 C 319.04 0.0884469 -2.01906 0
M  V30 3283 C 319.361 1.40532 -1.35188 0
M  V30 3284 O 318.631 1.89515 -0.496079 0
M  V30 3285 H 317.211 0.0356765 -0.746148 0
M  V30 3286 H 319.873 -0.6172 -1.84869 0
M  V30 3287 H 318.969 0.2425 -3.11156 0
M  V30 3288 N 319.27 1.56325 -0.20005 0
M  V30 3289 C 320.2 2.22318 0.713916 0
M  V30 3290 C 321.181 1.18788 1.21752 0
M  V30 3291 O 322.366 1.47309 1.26545 0
M  V30 3292 C 319.496 2.88639 1.93144 0
M  V30 3293 C 318.45 3.98457 1.56255 0
M  V30 3294 C 317.776 4.51967 2.85709 0
M  V30 3295 C 319.076 5.16612 0.768747 0
M  V30 3296 H 320.77 2.98952 0.163755 0
M  V30 3297 H 318.316 1.43792 0.0773219 0
M  V30 3298 H 320.269 3.33491 2.57608 0
M  V30 3299 H 318.993 2.09419 2.50621 0
M  V30 3300 H 317.652 3.54305 0.941471 0
M  V30 3301 H 317.3 3.69503 3.41287 0
M  V30 3302 H 317 5.26071 2.6177 0
M  V30 3303 H 318.524 4.99523 3.51154 0
M  V30 3304 H 319.938 5.57977 1.3166 0
M  V30 3305 H 318.335 5.96812 0.627286 0
M  V30 3306 H 319.405 4.84358 -0.229168 0
M  V30 3307 N 320.748 -0.0735177 1.57428 0
M  V30 3308 C 321.994 -0.768909 1.88307 0
M  V30 3309 C 322.349 -1.75273 0.793535 0
M  V30 3310 O 321.642 -1.90527 -0.202466 0
M  V30 3311 C 321.836 -1.51799 3.23561 0
M  V30 3312 C 321.665 -0.608217 4.45568 0
M  V30 3313 C 320.435 -0.245808 5.04702 0
M  V30 3314 C 322.633 0.0942904 5.14214 0
M  V30 3315 N 320.615 0.66987 6.10234 0
M  V30 3316 C 321.986 0.867222 6.13905 0
M  V30 3317 C 324.041 0.165943 4.97623 0
M  V30 3318 C 322.744 1.70515 6.98797 0
M  V30 3319 C 324.77 0.990837 5.83041 0
M  V30 3320 C 324.132 1.75182 6.82269 0
M  V30 3321 H 320.231 -0.25685 0.738615 0
M  V30 3322 H 322.815 -0.030499 1.94676 0
M  V30 3323 H 320.986 -2.22713 3.18203 0
M  V30 3324 H 322.718 -2.16226 3.42094 0
M  V30 3325 H 319.473 -0.598284 4.69806 0
M  V30 3326 H 319.897 1.1209 6.67656 0
M  V30 3327 H 324.539 -0.408064 4.20826 0
M  V30 3328 H 322.257 2.29013 7.7497 0
M  V30 3329 H 325.843 1.04923 5.72261 0
M  V30 3330 H 324.723 2.37983 7.47217 0
M  V30 3331 N 322.226 -1.5378 -0.344866 0
M  V30 3332 C 323.454 -1.74899 -1.10534 0
M  V30 3333 C 323.869 -0.487534 -1.82397 0
M  V30 3334 O 323.226 0.540741 -1.74305 0
M  V30 3335 C 323.277 -2.92822 -2.11984 0
M  V30 3336 O 322.998 -4.14089 -1.43044 0
M  V30 3337 C 324.499 -3.25982 -3.00417 0
M  V30 3338 H 321.719 -0.584426 -0.329678 0
M  V30 3339 H 324.263 -2.006 -0.397474 0
M  V30 3340 H 322.418 -2.69457 -2.78338 0
M  V30 3341 H 322.832 -4.80272 -2.10805 0
M  V30 3342 H 324.306 -4.11848 -3.67539 0
M  V30 3343 H 324.783 -2.42228 -3.66363 0
M  V30 3344 H 325.389 -3.51349 -2.39654 0
M  V30 3345 N 323.704 0.605807 -1.45491 0
M  V30 3346 C 324.636 1.73031 -1.5031 0
M  V30 3347 C 325.649 1.57968 -0.393687 0
M  V30 3348 O 326.838 1.65817 -0.660839 0
M  V30 3349 C 323.938 3.11049 -1.34543 0
M  V30 3350 C 323.111 3.52334 -2.59189 0
M  V30 3351 C 322.17 4.69323 -2.37954 0
M  V30 3352 O 321.196 4.7635 -3.11575 0
M  V30 3353 N 322.398 5.62705 -1.4263 0
M  V30 3354 H 325.163 1.6936 -2.4726 0
M  V30 3355 H 322.724 0.79114 -1.41254 0
M  V30 3356 H 324.716 3.87071 -1.18144 0
M  V30 3357 H 323.286 3.09217 -0.458623 0
M  V30 3358 H 322.506 2.66256 -2.90691 0
M  V30 3359 H 323.794 3.76677 -3.42041 0
M  V30 3360 H 323.192 5.59744 -0.818758 0
M  V30 3361 H 321.749 6.38252 -1.32202 0
M  V30 3362 N 325.182 1.32811 0.848464 0
M  V30 3363 C 326.112 1.24882 1.97299 0
M  V30 3364 C 327.093 0.131357 1.69592 0
M  V30 3365 O 328.278 0.319553 1.91553 0
M  V30 3366 C 325.408 0.97746 3.33261 0
M  V30 3367 C 324.362 2.05682 3.75338 0
M  V30 3368 C 323.688 1.63777 5.09 0
M  V30 3369 C 324.988 3.47254 3.90144 0
M  V30 3370 H 326.682 2.18966 2.04191 0
M  V30 3371 H 324.228 1.05413 0.981029 0
M  V30 3372 H 326.181 0.908513 4.1149 0
M  V30 3373 H 324.905 0.000980011 3.266 0
M  V30 3374 H 323.564 2.11603 2.99366 0
M  V30 3375 H 323.212 0.648569 4.98801 0
M  V30 3376 H 322.912 2.36 5.38124 0
M  V30 3377 H 324.436 1.5833 5.89715 0
M  V30 3378 H 325.85 3.43888 4.58709 0
M  V30 3379 H 324.247 4.1788 4.30693 0
M  V30 3380 H 325.317 3.86462 2.92874 0
M  V30 3381 N 326.66 -1.06551 1.16123 0
M  V30 3382 C 327.623 -2.12132 0.867906 0
M  V30 3383 C 328.623 -1.60224 -0.135944 0
M  V30 3384 O 329.813 -1.73943 0.0946422 0
M  V30 3385 C 326.945 -3.396 0.297419 0
M  V30 3386 H 328.138 -2.39586 1.80385 0
M  V30 3387 H 325.691 -1.22574 0.969812 0
M  V30 3388 H 326.426 -3.17794 -0.64633 0
M  V30 3389 H 326.211 -3.78581 1.02073 0
M  V30 3390 H 327.701 -4.17455 0.110052 0
M  V30 3391 N 328.138 -0.959301 -1.25041 0
M  V30 3392 C 329.368 -0.63303 -1.96663 0
M  V30 3393 C 329.776 0.800031 -1.71453 0
M  V30 3394 O 329.119 1.54736 -0.99008 0
M  V30 3395 C 329.181 -0.817523 -3.50081 0
M  V30 3396 C 328.845 -2.22863 -3.98975 0
M  V30 3397 C 329.842 -3.20569 -4.09306 0
M  V30 3398 C 327.527 -2.55407 -4.32519 0
M  V30 3399 C 329.521 -4.4891 -4.52503 0
M  V30 3400 C 327.208 -3.83976 -4.754 0
M  V30 3401 C 328.206 -4.8054 -4.85356 0
M  V30 3402 O 327.894 -6.06817 -5.27284 0
M  V30 3403 H 327.626 -0.235866 -0.633516 0
M  V30 3404 H 330.18 -1.2874 -1.60047 0
M  V30 3405 H 328.41 -0.105992 -3.86555 0
M  V30 3406 H 330.099 -0.491604 -4.02912 0
M  V30 3407 H 330.865 -2.96753 -3.83618 0
M  V30 3408 H 326.744 -1.8097 -4.23994 0
M  V30 3409 H 330.288 -5.24283 -4.60188 0
M  V30 3410 H 326.185 -4.07596 -5.00535 0
M  V30 3411 H 326.953 -6.10262 -5.45457 0
M  V30 3412 N 329.616 1.39756 -0.72842 0
M  V30 3413 C 330.864 2.00248 -0.272946 0
M  V30 3414 C 331.185 1.58077 1.14178 0
M  V30 3415 O 330.455 0.826014 1.77634 0
M  V30 3416 H 329.035 0.740554 -0.0979247 0
M  V30 3417 H 331.697 1.70903 -0.936912 0
M  V30 3418 H 330.793 3.10495 -0.316142 0
M  V30 3419 N 331.094 0.475555 1.50254 0
M  V30 3420 C 332.041 -0.316293 2.28622 0
M  V30 3421 C 333.011 -0.983227 1.33873 0
M  V30 3422 O 334.196 -0.994805 1.62814 0
M  V30 3423 C 331.336 -1.38975 3.1588 0
M  V30 3424 C 330.449 -0.737146 4.25664 0
M  V30 3425 C 329.584 -1.78887 5.00173 0
M  V30 3426 C 328.623 -1.11676 6.01826 0
M  V30 3427 N 327.76 -2.11154 6.69596 0
M  V30 3428 H 332.6 0.358297 2.95838 0
M  V30 3429 H 330.137 0.188541 1.45887 0
M  V30 3430 H 332.095 -2.02383 3.64825 0
M  V30 3431 H 330.725 -2.03344 2.50701 0
M  V30 3432 H 329.777 0.0096065 3.80399 0
M  V30 3433 H 331.089 -0.206816 4.98371 0
M  V30 3434 H 330.243 -2.49865 5.52859 0
M  V30 3435 H 328.982 -2.35302 4.27182 0
M  V30 3436 H 327.987 -0.392633 5.48396 0
M  V30 3437 H 329.212 -0.55945 6.76792 0
M  V30 3438 H 327.158 -2.66577 5.99394 0
M  V30 3439 H 327.075 -1.63118 7.38193 0
M  V30 3440 H 328.343 -2.81497 7.26897 0
M  V30 3441 N 332.573 -1.56217 0.208337 0
M  V30 3442 C 333.85 -1.89739 -0.475234 0
M  V30 3443 C 334.23 -1.1238 -1.78701 0
M  V30 3444 O 333.578 -0.228979 -2.2735 0
M  V30 3445 C 333.788 -3.42289 -0.681101 0
M  V30 3446 C 335.136 -4.12789 -0.994507 0
M  V30 3447 O 336.16 -3.47814 -0.768357 0
M  V30 3448 O 335.019 -5.27649 -1.42299 0
M  V30 3449 H 332.113 -0.788478 -0.249461 0
M  V30 3450 H 334.659 -1.67855 0.249538 0
M  V30 3451 H 333.431 -3.90534 0.244722 0
M  V30 3452 H 333.054 -3.69909 -1.45785 0
M  V30 3453 N 334.051 0.0651679 -1.57465 0
M  V30 3454 C 335.297 0.758912 -1.88712 0
M  V30 3455 C 335.652 1.7485 -0.802819 0
M  V30 3456 O 334.945 1.90632 0.192359 0
M  V30 3457 C 335.139 1.50081 -3.24362 0
M  V30 3458 C 334.968 0.584579 -4.45884 0
M  V30 3459 C 333.738 0.219039 -5.04825 0
M  V30 3460 C 335.936 -0.121559 -5.14156 0
M  V30 3461 N 333.918 -0.702222 -6.09871 0
M  V30 3462 C 335.289 -0.899767 -6.13436 0
M  V30 3463 C 337.344 -0.192331 -4.97528 0
M  V30 3464 C 336.047 -1.74218 -6.97883 0
M  V30 3465 C 338.073 -1.02174 -5.82507 0
M  V30 3466 C 337.435 -1.78798 -6.8133 0
M  V30 3467 H 333.534 0.25293 -0.739967 0
M  V30 3468 H 336.118 0.0201744 -1.9469 0
M  V30 3469 H 334.289 2.21023 -3.1938 0
M  V30 3470 H 336.021 2.14409 -3.43236 0
M  V30 3471 H 332.776 0.57336 -4.70117 0
M  V30 3472 H 333.2 -1.15629 -6.67052 0
M  V30 3473 H 337.842 0.385741 -4.21037 0
M  V30 3474 H 335.56 -2.3312 -7.73745 0
M  V30 3475 H 339.146 -1.07957 -5.71696 0
M  V30 3476 H 338.026 -2.41942 -7.45945 0
M  V30 3477 N 335.529 1.53961 0.336706 0
M  V30 3478 C 336.757 1.75483 1.09605 0
M  V30 3479 C 337.172 0.4972 1.82136 0
M  V30 3480 O 336.529 -0.53149 1.74589 0
M  V30 3481 C 336.58 2.93943 2.10428 0
M  V30 3482 O 336.301 4.14842 1.40846 0
M  V30 3483 C 337.802 3.27571 2.98684 0
M  V30 3484 H 335.022 0.586166 0.326574 0
M  V30 3485 H 337.566 2.00808 0.38683 0
M  V30 3486 H 335.721 2.70929 2.76905 0
M  V30 3487 H 336.135 4.81383 2.08255 0
M  V30 3488 H 337.609 4.13791 3.6535 0
M  V30 3489 H 338.086 2.44168 3.65074 0
M  V30 3490 H 338.692 3.52615 2.37787 0
M  V30 3491 N 337.007 -0.598083 1.45811 0
M  V30 3492 C 338.253 -1.35679 1.51535 0
M  V30 3493 C 338.608 -1.91745 0.15864 0
M  V30 3494 O 337.901 -1.72654 -0.830724 0
M  V30 3495 C 338.095 -2.51669 2.53766 0
M  V30 3496 C 337.924 -2.06963 3.99245 0
M  V30 3497 C 336.694 -1.92693 4.67116 0
M  V30 3498 C 338.892 -1.63855 4.875 0
M  V30 3499 N 336.874 -1.41897 5.97276 0
M  V30 3500 C 338.245 -1.24541 6.07363 0
M  V30 3501 C 340.3 -1.51533 4.74281 0
M  V30 3502 C 339.003 -0.741354 7.15469 0
M  V30 3503 C 341.029 -1.0253 5.82444 0
M  V30 3504 C 340.391 -0.641869 7.01469 0
M  V30 3505 H 336.49 -0.490042 0.609412 0
M  V30 3506 H 339.074 -0.682687 1.82339 0
M  V30 3507 H 337.245 -3.16663 2.24898 0
M  V30 3508 H 338.977 -3.18578 2.4958 0
M  V30 3509 H 335.732 -2.1417 4.22408 0
M  V30 3510 H 336.156 -1.18704 6.66512 0
M  V30 3511 H 340.798 -1.798 3.82664 0
M  V30 3512 H 338.516 -0.446243 8.06867 0
M  V30 3513 H 342.102 -0.934088 5.74253 0
M  V30 3514 H 340.982 -0.268531 7.8374 0
M  V30 3515 N 338.485 -1.33259 -0.841409 0
M  V30 3516 C 339.415 -1.25926 -1.96634 0
M  V30 3517 C 340.396 -0.140349 -1.6952 0
M  V30 3518 O 341.581 -0.329707 -1.91381 0
M  V30 3519 C 338.711 -0.99512 -3.32738 0
M  V30 3520 C 337.665 -2.0767 -3.74242 0
M  V30 3521 C 336.991 -1.66474 -5.08125 0
M  V30 3522 C 338.291 -3.49318 -3.88297 0
M  V30 3523 H 339.985 -2.20046 -2.03027 0
M  V30 3524 H 337.531 -1.05931 -0.975425 0
M  V30 3525 H 339.484 -0.930323 -4.11002 0
M  V30 3526 H 338.208 -0.0183004 -3.26595 0
M  V30 3527 H 336.867 -2.13187 -2.98239 0
M  V30 3528 H 336.515 -0.675012 -4.9845 0
M  V30 3529 H 336.215 -2.3885 -5.36865 0
M  V30 3530 H 337.739 -1.61455 -5.88867 0
M  V30 3531 H 339.153 -3.46316 -4.56879 0
M  V30 3532 H 337.55 -4.20158 -4.28471 0
M  V30 3533 H 338.62 -3.8801 -2.9082 0
M  V30 3534 N 339.963 1.05934 -1.16686 0
M  V30 3535 C 341.209 1.79065 -0.95203 0
M  V30 3536 C 341.542 1.87147 0.518629 0
M  V30 3537 O 340.817 1.36574 1.38484 0
M  V30 3538 C 341.1 3.23359 -1.58464 0
M  V30 3539 C 340.953 3.23336 -3.12689 0
M  V30 3540 C 342.272 4.21004 -1.28232 0
M  V30 3541 H 339.391 0.65005 -0.34728 0
M  V30 3542 H 342.033 1.23868 -1.44072 0
M  V30 3543 H 340.183 3.70493 -1.16908 0
M  V30 3544 H 341.855 2.84336 -3.6325 0
M  V30 3545 H 340.098 2.61886 -3.4583 0
M  V30 3546 H 340.769 4.25144 -3.52075 0
M  V30 3547 H 343.245 3.8233 -1.64203 0
M  V30 3548 H 342.121 5.20225 -1.75092 0
M  V30 3549 H 342.382 4.41639 -0.201791 0
M  V30 3550 N 341.441 0.965919 1.2453 0
M  V30 3551 C 342.371 0.513476 2.27784 0
M  V30 3552 C 343.352 -0.445974 1.6415 0
M  V30 3553 O 344.537 -0.342485 1.91156 0
M  V30 3554 C 341.667 -0.198839 3.4673 0
M  V30 3555 C 340.621 0.676456 4.2262 0
M  V30 3556 C 339.947 -0.167248 5.34438 0
M  V30 3557 C 341.247 1.96017 4.84123 0
M  V30 3558 H 342.941 1.3765 2.65881 0
M  V30 3559 H 340.487 0.663321 1.27813 0
M  V30 3560 H 342.44 -0.526567 4.18097 0
M  V30 3561 H 341.164 -1.0962 3.07654 0
M  V30 3562 H 339.823 0.98743 3.53052 0
M  V30 3563 H 339.471 -1.0647 4.91603 0
M  V30 3564 H 339.171 0.415181 5.86131 0
M  V30 3565 H 340.695 -0.489688 6.08633 0
M  V30 3566 H 342.109 1.69814 5.47573 0
M  V30 3567 H 340.506 2.48918 5.4604 0
M  V30 3568 H 341.576 2.65622 4.05676 0
M  V30 3569 N 342.919 -1.39368 0.735821 0
M  V30 3570 C 343.882 -2.2896 0.104874 0
M  V30 3571 C 344.882 -1.46347 -0.666274 0
M  V30 3572 O 346.072 -1.67014 -0.49517 0
M  V30 3573 C 343.204 -3.29857 -0.860656 0
M  V30 3574 H 344.397 -2.86259 0.894205 0
M  V30 3575 H 341.95 -1.48029 0.501704 0
M  V30 3576 H 342.685 -2.77615 -1.67631 0
M  V30 3577 H 342.47 -3.9087 -0.310327 0
M  V30 3578 H 343.96 -3.96893 -1.29867 0
M  V30 3579 N 344.397 -0.483516 -1.5 0
M  V30 3580 C 345.643 0.0672592 -2.02688 0
M  V30 3581 C 345.976 1.38247 -1.36387 0
M  V30 3582 O 345.251 1.88131 -0.493675 0
M  V30 3583 C 345.534 0.238109 -3.59312 0
M  V30 3584 C 345.387 -1.099 -4.36168 0
M  V30 3585 C 346.706 0.986916 -4.28892 0
M  V30 3586 H 343.825 0.0229696 -0.736642 0
M  V30 3587 H 346.467 -0.631527 -1.79197 0
M  V30 3588 H 344.617 0.8333 -3.79458 0
M  V30 3589 H 346.289 -1.73172 -4.27562 0
M  V30 3590 H 344.532 -1.69261 -3.99416 0
M  V30 3591 H 345.203 -0.932954 -5.44059 0
M  V30 3592 H 347.679 0.482302 -4.13295 0
M  V30 3593 H 346.555 1.07527 -5.38265 0
M  V30 3594 H 346.816 2.0265 -3.92919 0
M  V30 3595 N 345.875 1.56104 -0.216619 0
M  V30 3596 C 346.838 2.18819 0.681962 0
M  V30 3597 C 347.838 1.14866 1.12528 0
M  V30 3598 O 349.028 1.40128 1.03488 0
M  V30 3599 C 346.16 2.80756 1.93362 0
M  V30 3600 H 347.353 2.99595 0.135254 0
M  V30 3601 H 344.906 1.56265 0.0330003 0
M  V30 3602 H 345.641 2.03837 2.52232 0
M  V30 3603 H 345.426 3.56876 1.62426 0
M  V30 3604 H 346.916 3.28844 2.57393 0
M  V30 3605 N 347.353 -0.0568162 1.57498 0
M  V30 3606 C 348.601 -0.751617 1.87604 0
M  V30 3607 C 348.922 -1.77351 0.81066 0
M  V30 3608 O 348.192 -1.95254 -0.159018 0
M  V30 3609 H 346.772 -0.280583 0.692302 0
M  V30 3610 H 349.434 -0.0293483 1.94878 0
M  V30 3611 H 348.53 -1.25852 2.856 0
M  V30 3612 N 348.832 -1.54138 -0.328536 0
M  V30 3613 C 350.072 -1.73827 -1.07534 0
M  V30 3614 C 350.436 -0.498777 -1.85408 0
M  V30 3615 O 351.637 -0.572937 -2.62623 0
M  V30 3616 C 349.908 -2.97573 -1.97952 0
M  V30 3617 S 351.467 -3.38143 -2.79652 0
M  V30 3618 H 348.285 -0.611287 -0.36311 0
M  V30 3619 H 350.887 -1.92306 -0.351931 0
M  V30 3620 H 349.591 -3.85939 -1.39569 0
M  V30 3621 H 349.122 -2.81603 -2.74706 0
M  V30 3622 H 351.137 -2.93052 -4.00418 0
M  V30 3623 N 350.31 0.590341 -1.46126 0
M  V30 3624 C 351.273 1.68194 -1.55703 0
M  V30 3625 C 352.273 1.54808 -0.434868 0
M  V30 3626 O 353.463 1.59564 -0.698928 0
M  V30 3627 C 350.595 3.07575 -1.47005 0
M  V30 3628 H 351.788 1.61064 -2.52979 0
M  V30 3629 H 349.341 0.807541 -1.33823 0
M  V30 3630 H 350.076 3.20268 -0.509785 0
M  V30 3631 H 349.861 3.187 -2.28414 0
M  V30 3632 H 351.351 3.87055 -1.56776 0
M  V30 3633 N 351.788 1.33704 0.83433 0
M  V30 3634 C 352.72 1.20172 1.9517 0
M  V30 3635 C 353.733 0.131572 1.62267 0
M  V30 3636 O 354.922 0.382406 1.74356 0
M  V30 3637 C 352.022 0.821716 3.28787 0
M  V30 3638 C 351.195 1.98446 3.89792 0
M  V30 3639 C 350.254 1.58469 5.01771 0
M  V30 3640 O 349.28 2.29968 5.20676 0
M  V30 3641 N 350.482 0.492291 5.78409 0
M  V30 3642 H 353.247 2.16429 2.07313 0
M  V30 3643 H 350.808 1.26509 1.0103 0
M  V30 3644 H 352.8 0.536291 4.01131 0
M  V30 3645 H 351.37 -0.0503058 3.1256 0
M  V30 3646 H 350.59 2.43526 3.09982 0
M  V30 3647 H 351.878 2.76236 4.27283 0
M  V30 3648 H 351.276 -0.102349 5.65607 0
M  V30 3649 H 349.833 0.266555 6.51255 0
M  V30 3650 N 353.266 -1.05314 1.17247 0
M  V30 3651 C 354.229 -2.112 0.890357 0
M  V30 3652 C 355.229 -1.60359 -0.118943 0
M  V30 3653 O 356.419 -1.73833 0.113086 0
M  V30 3654 C 353.551 -3.39266 0.333422 0
M  V30 3655 H 354.744 -2.37659 1.82916 0
M  V30 3656 H 352.297 -1.21538 0.982758 0
M  V30 3657 H 353.032 -3.18462 -0.612587 0
M  V30 3658 H 352.817 -3.77477 1.06082 0
M  V30 3659 H 354.307 -4.17315 0.154322 0
M  V30 3660 N 354.744 -0.972509 -1.24016 0
M  V30 3661 C 355.707 -0.511403 -2.23422 0
M  V30 3662 C 356.707 0.394679 -1.55881 0
M  V30 3663 O 357.897 0.189469 -1.73167 0
M  V30 3664 C 355.029 0.258769 -3.39916 0
M  V30 3665 H 356.222 -1.39024 -2.6573 0
M  V30 3666 H 353.775 -0.757585 -1.36713 0
M  V30 3667 H 354.51 1.1545 -3.03054 0
M  V30 3668 H 354.295 -0.391522 -3.9014 0
M  V30 3669 H 355.785 0.570244 -4.13688 0
M  V30 3670 N 356.222 1.38976 -0.743202 0
M  V30 3671 C 357.185 2.28901 -0.117014 0
M  V30 3672 C 358.185 1.46698 0.658503 0
M  V30 3673 O 359.375 1.67274 0.486305 0
M  V30 3674 C 356.507 3.30309 0.84315 0
M  V30 3675 H 357.7 2.8578 -0.909373 0
M  V30 3676 H 355.253 1.47761 -0.509547 0
M  V30 3677 H 355.988 2.785 1.66157 0
M  V30 3678 H 355.773 3.91029 0.289594 0
M  V30 3679 H 357.263 3.97577 1.2776 0
M  V30 3680 N 357.7 0.491464 1.49741 0
M  V30 3681 C 358.928 -0.0535151 2.06831 0
M  V30 3682 C 359.343 -1.31683 1.35296 0
M  V30 3683 O 358.7 -1.77402 0.42836 0
M  V30 3684 C 358.751 -0.320835 3.60073 0
M  V30 3685 O 358.472 0.892394 4.28915 0
M  V30 3686 C 359.973 -0.910519 4.33848 0
M  V30 3687 H 357.193 0.0161909 0.670805 0
M  V30 3688 H 359.737 0.68609 1.92647 0
M  V30 3689 H 357.892 -1.0104 3.73991 0
M  V30 3690 H 358.306 0.649401 5.20464 0
M  V30 3691 H 359.78 -1.04721 5.41976 0
M  V30 3692 H 360.257 -1.90589 3.95692 0
M  V30 3693 H 360.863 -0.258712 4.24512 0
M  V30 3694 N 359.178 -1.55987 0.224894 0
M  V30 3695 C 360.424 -1.98684 -0.406502 0
M  V30 3696 C 360.757 -1.11248 -1.59177 0
M  V30 3697 O 360.032 -0.170909 -1.93748 0
M  V30 3698 C 360.315 -3.50218 -0.837808 0
M  V30 3699 C 360.168 -4.48426 0.351332 0
M  V30 3700 C 361.487 -4.06243 -1.69278 0
M  V30 3701 H 358.606 -0.722337 -0.146283 0
M  V30 3702 H 361.248 -1.87255 0.321799 0
M  V30 3703 H 359.398 -3.60089 -1.45837 0
M  V30 3704 H 361.07 -4.50562 0.989526 0
M  V30 3705 H 359.313 -4.22159 0.998207 0
M  V30 3706 H 359.984 -5.52 0.00655905 0
M  V30 3707 H 362.46 -3.99337 -1.16914 0
M  V30 3708 H 361.336 -5.12581 -1.96346 0
M  V30 3709 H 361.597 -3.53332 -2.65723 0
M  V30 3710 N 360.656 0.0484629 -1.57525 0
M  V30 3711 C 361.586 1.0549 -2.08313 0
M  V30 3712 C 362.567 1.38929 -0.981463 0
M  V30 3713 O 363.752 1.48151 -1.25558 0
M  V30 3714 C 360.882 2.36162 -2.54646 0
M  V30 3715 C 359.836 2.17016 -3.68901 0
M  V30 3716 C 359.162 3.53278 -4.01371 0
M  V30 3717 C 360.462 1.57219 -4.98076 0
M  V30 3718 H 362.156 0.632195 -2.92649 0
M  V30 3719 H 359.702 0.302654 -1.40784 0
M  V30 3720 H 361.655 3.06882 -2.88793 0
M  V30 3721 H 360.379 2.80456 -1.67368 0
M  V30 3722 H 359.038 1.48733 -3.35073 0
M  V30 3723 H 358.686 3.95185 -3.11188 0
M  V30 3724 H 358.386 3.41299 -4.78318 0
M  V30 3725 H 359.91 4.25391 -4.38035 0
M  V30 3726 H 361.324 2.17832 -5.30304 0
M  V30 3727 H 359.721 1.55871 -5.79503 0
M  V30 3728 H 360.791 0.535956 -4.81929 0
M  V30 3729 N 362.134 1.5431 0.320358 0
M  V30 3730 C 363.38 1.72924 1.05949 0
M  V30 3731 C 363.713 0.503185 1.87568 0
M  V30 3732 O 362.988 -0.499839 1.87968 0
M  V30 3733 C 363.271 3.00676 1.98156 0
M  V30 3734 C 363.124 4.3354 1.19845 0
M  V30 3735 C 364.443 3.24198 2.9763 0
M  V30 3736 H 361.562 0.629195 0.383774 0
M  V30 3737 H 364.204 1.87008 0.335854 0
M  V30 3738 H 362.354 2.888 2.59859 0
M  V30 3739 H 364.026 4.57305 0.605773 0
M  V30 3740 H 362.269 4.309 0.500784 0
M  V30 3741 H 362.94 5.19156 1.87567 0
M  V30 3742 H 365.416 3.35557 2.4605 0
M  V30 3743 H 364.292 4.14938 3.59329 0
M  V30 3744 H 364.553 2.41577 3.7026 0
M  V30 3745 N 363.613 -0.582584 1.46437 0
M  V30 3746 C 364.859 -1.34064 1.52965 0
M  V30 3747 C 365.214 -1.91566 0.178968 0
M  V30 3748 O 364.507 -1.73526 -0.812365 0
M  V30 3749 C 364.701 -2.48964 2.56421 0
M  V30 3750 C 364.53 -2.02717 4.01417 0
M  V30 3751 C 363.3 -1.87728 4.69134 0
M  V30 3752 C 365.498 -1.58675 4.8921 0
M  V30 3753 N 363.48 -1.35554 5.98747 0
M  V30 3754 C 364.851 -1.18093 6.08649 0
M  V30 3755 C 366.906 -1.46494 4.75861 0
M  V30 3756 C 365.609 -0.665427 7.16215 0
M  V30 3757 C 367.635 -0.96347 5.83499 0
M  V30 3758 C 366.997 -0.567432 7.02111 0
M  V30 3759 H 363.096 -0.483551 0.614575 0
M  V30 3760 H 365.68 -0.663309 1.83053 0
M  V30 3761 H 363.851 -3.1426 2.28244 0
M  V30 3762 H 365.583 -3.15913 2.52944 0
M  V30 3763 H 362.338 -2.09678 4.24655 0
M  V30 3764 H 362.762 -1.11628 6.67734 0
M  V30 3765 H 367.404 -1.75731 3.8455 0
M  V30 3766 H 365.122 -0.360639 8.07295 0
M  V30 3767 H 368.708 -0.873129 5.75211 0
M  V30 3768 H 367.588 -0.185389 7.83981 0
M  V30 3769 N 365.091 -1.34144 -0.827227 0
M  V30 3770 C 366.507 -1.13732 -1.11969 0
M  V30 3771 C 366.707 0.0640463 -2.01398 0
M  V30 3772 O 365.763 0.740856 -2.41387 0
M  V30 3773 C 367.076 -2.43047 -1.77055 0
M  V30 3774 C 368.624 -2.49063 -1.89569 0
M  V30 3775 C 369.099 -3.78369 -2.58072 0
M  V30 3776 N 370.59 -3.79505 -2.65575 0
M  V30 3777 C 371.325 -4.76274 -3.19297 0
M  V30 3778 N 370.821 -5.83424 -3.73616 0
M  V30 3779 N 372.614 -4.63735 -3.17658 0
M  V30 3780 H 364.765 -2.11126 -0.232296 0
M  V30 3781 H 367.028 -0.933424 -0.165602 0
M  V30 3782 H 366.734 -3.31025 -1.18807 0
M  V30 3783 H 366.608 -2.56066 -2.76966 0
M  V30 3784 H 368.995 -1.61527 -2.46968 0
M  V30 3785 H 369.076 -2.39975 -0.885745 0
M  V30 3786 H 368.72 -4.66293 -2.01329 0
M  V30 3787 H 368.65 -3.84737 -3.59562 0
M  V30 3788 H 371.141 -3.02074 -2.27068 0
M  V30 3789 H 371.454 -6.53282 -4.12846 0
M  V30 3790 H 369.799 -5.87143 -3.71871 0
M  V30 3791 H 372.99 -3.79177 -2.74486 0
M  V30 3792 H 373.163 -5.39318 -3.59221 0
M  V30 3793 N 366.569 1.04691 -1.17803 0
M  V30 3794 C 367.985 1.29963 -0.926379 0
M  V30 3795 C 368.185 1.97251 0.411635 0
M  V30 3796 O 367.241 2.24922 1.14744 0
M  V30 3797 C 368.554 2.16447 -2.08737 0
M  V30 3798 C 370.102 2.29814 -2.12496 0
M  V30 3799 C 370.577 3.19661 -3.27995 0
M  V30 3800 N 372.068 3.27247 -3.27816 0
M  V30 3801 C 372.803 3.96906 -4.13827 0
M  V30 3802 N 372.299 4.6895 -5.09959 0
M  V30 3803 N 374.092 3.93122 -4.01761 0
M  V30 3804 H 366.243 0.594182 -2.0392 0
M  V30 3805 H 368.506 0.324649 -0.890678 0
M  V30 3806 H 368.212 1.74304 -3.05469 0
M  V30 3807 H 368.086 3.17103 -2.04268 0
M  V30 3808 H 370.473 2.71196 -1.16347 0
M  V30 3809 H 370.554 1.2877 -2.21025 0
M  V30 3810 H 370.198 2.78991 -4.24413 0
M  V30 3811 H 370.128 4.20722 -3.16703 0
M  V30 3812 H 372.619 2.75921 -2.58217 0
M  V30 3813 H 372.932 5.19679 -5.71974 0
M  V30 3814 H 371.277 4.67875 -5.13924 0
M  V30 3815 H 374.468 3.35967 -3.2595 0
M  V30 3816 H 374.641 4.47139 -4.6901 0
M  V30 3817 N 368.047 0.979072 1.23499 0
M  V30 3818 C 369.293 0.648178 1.92163 0
M  V30 3819 C 369.626 -0.816049 1.76222 0
M  V30 3820 O 368.901 -1.58849 1.12237 0
M  V30 3821 C 369.184 1.03773 3.44824 0
M  V30 3822 C 369.037 2.55948 3.69879 0
M  V30 3823 C 370.356 0.580653 4.36253 0
M  V30 3824 H 367.475 0.236952 0.69787 0
M  V30 3825 H 370.117 1.22012 1.45647 0
M  V30 3826 H 368.267 0.551058 3.84572 0
M  V30 3827 H 369.939 3.12179 3.3962 0
M  V30 3828 H 368.182 2.98641 3.14636 0
M  V30 3829 H 368.853 2.78255 4.76737 0
M  V30 3830 H 371.329 0.998465 4.03943 0
M  V30 3831 H 370.205 0.881663 5.41773 0
M  V30 3832 H 370.466 -0.519052 4.39042 0
M  V30 3833 N 369.525 -1.3858 0.750561 0
M  V30 3834 C 370.75 -2.04997 0.314812 0
M  V30 3835 C 371.175 -1.56235 -1.04749 0
M  V30 3836 O 370.533 -0.712981 -1.66692 0
M  V30 3837 C 370.581 -3.58961 0.343415 0
M  V30 3838 O 369.685 -4.07025 -0.663628 0
M  V30 3839 H 369.026 -0.649081 0.139962 0
M  V30 3840 H 371.556 -1.77313 1.02084 0
M  V30 3841 H 371.566 -4.07542 0.193233 0
M  V30 3842 H 370.241 -3.93811 1.33738 0
M  V30 3843 H 368.818 -3.6982 -0.478307 0
M  V30 3844 N 371.003 -0.499398 -1.49478 0
M  V30 3845 C 372.28 0.108629 -1.95298 0
M  V30 3846 C 372.66 1.54282 -1.44084 0
M  V30 3847 O 372.008 2.18944 -0.653908 0
M  V30 3848 C 372.218 0.0229111 -3.48992 0
M  V30 3849 C 373.566 0.197643 -4.2414 0
M  V30 3850 O 374.59 0.0981735 -3.56065 0
M  V30 3851 O 373.449 0.401669 -5.45022 0
M  V30 3852 H 370.543 0.096181 -0.821388 0
M  V30 3853 H 373.089 -0.561822 -1.6013 0
M  V30 3854 H 371.861 -0.977321 -3.78899 0
M  V30 3855 H 371.484 0.733579 -3.90774 0
M  V30 3856 N 372.481 1.55866 -0.233164 0
M  V30 3857 C 373.729 1.9821 0.394593 0
M  V30 3858 C 374.05 1.12234 1.59463 0
M  V30 3859 O 373.32 0.201981 1.94856 0
M  V30 3860 H 371.9 0.732034 0.148778 0
M  V30 3861 H 374.562 1.92107 -0.32876 0
M  V30 3862 H 373.658 3.03845 0.713063 0
M  V30 3863 N 373.959 -0.0401083 1.57549 0
M  V30 3864 C 375.205 -0.728793 1.89895 0
M  V30 3865 C 375.56 -1.73551 0.830535 0
M  V30 3866 O 374.853 -1.90914 -0.162007 0
M  V30 3867 C 375.047 -1.44902 3.26708 0
M  V30 3868 C 374.876 -0.513568 4.46758 0
M  V30 3869 C 373.646 -0.138698 5.0511 0
M  V30 3870 C 375.844 0.203341 5.13898 0
M  V30 3871 N 373.826 0.799159 6.08676 0
M  V30 3872 C 375.197 0.997246 6.11927 0
M  V30 3873 C 377.252 0.271459 4.97159 0
M  V30 3874 C 375.955 1.85299 6.95023 0
M  V30 3875 C 377.981 1.11429 5.80808 0
M  V30 3876 C 377.343 1.89615 6.78399 0
M  V30 3877 H 373.442 -0.241125 0.743897 0
M  V30 3878 H 376.026 0.0108016 1.94697 0
M  V30 3879 H 374.197 -2.15914 3.22856 0
M  V30 3880 H 375.929 -2.08921 3.46603 0
M  V30 3881 H 372.684 -0.498496 4.70969 0
M  V30 3882 H 373.108 1.26227 6.65128 0
M  V30 3883 H 377.75 -0.318709 4.21597 0
M  V30 3884 H 375.468 2.454 7.69938 0
M  V30 3885 H 379.054 1.17038 5.69906 0
M  V30 3886 H 377.934 2.53779 7.42001 0
M  V30 3887 N 375.437 -1.54477 -0.31217 0
M  V30 3888 C 376.4 -1.83923 -1.36766 0
M  V30 3889 C 377.4 -0.711563 -1.44199 0
M  V30 3890 O 378.59 -0.979866 -1.44029 0
M  V30 3891 C 375.722 -2.0095 -2.75376 0
M  V30 3892 H 376.915 -2.78239 -1.11906 0
M  V30 3893 H 374.468 -1.46369 -0.548257 0
M  V30 3894 H 375.203 -1.08883 -3.05475 0
M  V30 3895 H 374.988 -2.83018 -2.71373 0
M  V30 3896 H 376.478 -2.2514 -3.51713 0
M  V30 3897 N 376.915 0.57481 -1.46744 0
M  V30 3898 C 378.162 1.33272 -1.52462 0
M  V30 3899 C 378.49 1.93669 -0.179572 0
M  V30 3900 O 377.745 1.7743 0.825664 0
M  V30 3901 C 378.044 2.476 -2.57738 0
M  V30 3902 C 377.71 2.05146 -4.01529 0
M  V30 3903 C 376.372 1.93284 -4.40676 0
M  V30 3904 C 378.724 1.72506 -4.91824 0
M  V30 3905 C 376.052 1.47049 -5.67973 0
M  V30 3906 C 378.404 1.27748 -6.19567 0
M  V30 3907 C 377.068 1.14468 -6.57612 0
M  V30 3908 H 376.338 0.487678 -0.557899 0
M  V30 3909 H 378.985 0.646456 -1.80259 0
M  V30 3910 H 377.29 3.21708 -2.23632 0
M  V30 3911 H 378.987 3.05807 -2.5939 0
M  V30 3912 H 375.577 2.15316 -3.7059 0
M  V30 3913 H 379.761 1.80552 -4.62293 0
M  V30 3914 H 375.017 1.35417 -5.96215 0
M  V30 3915 H 379.191 1.01547 -6.88957 0
M  V30 3916 H 376.818 0.78419 -7.56145 0
M  V30 3917 N 378.394 1.34581 0.820102 0
M  V30 3918 C 379.327 1.20735 1.93644 0
M  V30 3919 C 380.305 0.0983343 1.62302 0
M  V30 3920 O 381.489 0.263997 1.86642 0
M  V30 3921 C 378.616 0.856037 3.27704 0
M  V30 3922 C 377.662 1.97521 3.78005 0
M  V30 3923 S 378.495 3.58906 3.97425 0
M  V30 3924 C 379.651 3.25822 5.34407 0
M  V30 3925 H 379.884 2.15231 2.05093 0
M  V30 3926 H 377.417 1.1964 0.97599 0
M  V30 3927 H 379.375 0.660133 4.05157 0
M  V30 3928 H 378.036 -0.0706253 3.14021 0
M  V30 3929 H 377.229 1.68321 4.75062 0
M  V30 3930 H 376.831 2.12875 3.07507 0
M  V30 3931 H 379.123 2.77812 6.17922 0
M  V30 3932 H 380.066 4.22029 5.68592 0
M  V30 3933 H 380.474 2.61932 5.00052 0
M  V30 3934 N 379.872 -1.04064 1.18357 0
M  V30 3935 C 381.112 -1.78829 0.989921 0
M  V30 3936 C 381.476 -1.86106 -0.472095 0
M  V30 3937 O 382.677 -2.57076 -0.785187 0
M  V30 3938 C 380.948 -3.1823 1.6268 0
M  V30 3939 S 382.507 -4.09332 1.58091 0
M  V30 3940 H 379.325 -0.615754 0.355482 0
M  V30 3941 H 381.927 -1.24778 1.50501 0
M  V30 3942 H 380.631 -3.10543 2.68311 0
M  V30 3943 H 380.162 -3.77357 1.112 0
M  V30 3944 H 382.177 -4.92598 0.596817 0
M  V30 3945 N 381.35 -0.985608 -1.22978 0
M  V30 3946 C 382.578 -0.675582 -1.95559 0
M  V30 3947 C 382.993 0.758413 -1.72897 0
M  V30 3948 O 382.35 1.51094 -1.02357 0
M  V30 3949 C 382.401 -0.96293 -3.48439 0
M  V30 3950 O 382.122 -2.34057 -3.70336 0
M  V30 3951 C 383.623 -0.669585 -4.38214 0
M  V30 3952 H 380.843 -0.250523 -0.622478 0
M  V30 3953 H 383.387 -1.3184 -1.56328 0
M  V30 3954 H 381.542 -0.366033 -3.85667 0
M  V30 3955 H 381.956 -2.43424 -4.64591 0
M  V30 3956 H 383.43 -0.920967 -5.44263 0
M  V30 3957 H 383.907 0.396383 -4.37408 0
M  V30 3958 H 384.513 -1.2472 -4.06602 0
M  V30 3959 N 382.828 1.3818 -0.7579 0
M  V30 3960 C 383.758 2.33027 -0.148597 0
M  V30 3961 C 384.739 1.55085 0.69875 0
M  V30 3962 O 385.924 1.83384 0.639053 0
M  V30 3963 C 383.054 3.3928 0.742034 0
M  V30 3964 C 382.008 4.28 -0.00291946 0
M  V30 3965 C 381.334 5.25146 1.00625 0
M  V30 3966 C 382.634 5.08938 -1.17385 0
M  V30 3967 H 384.328 2.84231 -0.940909 0
M  V30 3968 H 381.874 1.36659 -0.453908 0
M  V30 3969 H 383.827 4.046 1.17799 0
M  V30 3970 H 382.551 2.86569 1.56671 0
M  V30 3971 H 381.21 3.64192 -0.419504 0
M  V30 3972 H 380.858 4.68721 1.8251 0
M  V30 3973 H 380.558 5.85361 0.512428 0
M  V30 3974 H 382.082 5.93342 1.44143 0
M  V30 3975 H 383.496 5.67474 -0.815224 0
M  V30 3976 H 381.893 5.7841 -1.59882 0
M  V30 3977 H 382.963 4.42424 -1.98468 0
M  V30 3978 N 384.306 0.507319 1.49211 0
M  V30 3979 C 385.555 -0.0368315 2.01666 0
M  V30 3980 C 385.868 -1.37459 1.39156 0
M  V30 3981 O 387.074 -2.00579 1.82976 0
M  V30 3982 C 385.53 -0.116089 3.59713 0
M  V30 3983 C 385.138 1.2154 4.31198 0
M  V30 3984 C 386.882 -0.610268 4.2009 0
M  V30 3985 C 384.789 1.09796 5.81119 0
M  V30 3986 H 383.719 -0.0175376 0.753796 0
M  V30 3987 H 386.37 0.647691 1.71689 0
M  V30 3988 H 384.752 -0.8652 3.86433 0
M  V30 3989 H 385.926 1.9783 4.16173 0
M  V30 3990 H 384.241 1.64352 3.82593 0
M  V30 3991 H 386.838 -0.715742 5.29888 0
M  V30 3992 H 387.181 -1.61064 3.8388 0
M  V30 3993 H 387.714 0.0824916 3.97714 0
M  V30 3994 H 384.453 2.0728 6.21864 0
M  V30 3995 H 383.973 0.376058 5.9862 0
M  V30 3996 H 385.652 0.779281 6.4229 0
M  V30 3997 N 385.784 -1.5574 0.241426 0
M  V30 3998 C 387.03 -1.99104 -0.385406 0
M  V30 3999 C 387.363 -1.1293 -1.57988 0
M  V30 4000 O 386.638 -0.191449 -1.93555 0
M  V30 4001 C 386.921 -3.51087 -0.800616 0
M  V30 4002 C 386.774 -4.48028 0.398874 0
M  V30 4003 C 388.093 -4.08015 -1.64959 0
M  V30 4004 H 385.212 -0.723848 -0.138614 0
M  V30 4005 H 387.854 -1.86903 0.341642 0
M  V30 4006 H 386.004 -3.61615 -1.4201 0
M  V30 4007 H 387.676 -4.49487 1.03726 0
M  V30 4008 H 385.919 -4.21077 1.04293 0
M  V30 4009 H 386.59 -5.51962 0.0651056 0
M  V30 4010 H 389.066 -4.00555 -1.12672 0
M  V30 4011 H 387.942 -5.14635 -1.90898 0
M  V30 4012 H 388.203 -3.56131 -2.61961 0
M  V30 4013 N 387.262 0.0317525 -1.57568 0
M  V30 4014 C 388.508 0.724175 -1.8943 0
M  V30 4015 C 388.841 1.75149 -0.838836 0
M  V30 4016 O 388.116 1.93948 0.146422 0
M  V30 4017 C 388.399 1.39615 -3.31933 0
M  V30 4018 C 388.252 0.382537 -4.4817 0
M  V30 4019 C 389.571 2.33084 -3.73309 0
M  V30 4020 H 386.69 0.261797 -0.688935 0
M  V30 4021 H 389.332 -0.013017 -1.89996 0
M  V30 4022 H 387.482 2.02451 -3.31581 0
M  V30 4023 H 389.154 -0.243689 -4.60656 0
M  V30 4024 H 387.397 -0.29844 -4.32772 0
M  V30 4025 H 388.068 0.891145 -5.44759 0
M  V30 4026 H 390.544 1.80295 -3.7501 0
M  V30 4027 H 389.42 2.77084 -4.73831 0
M  V30 4028 H 389.681 3.19643 -3.05419 0
M  V30 4029 N 388.74 1.54641 0.303973 0
M  V30 4030 C 389.703 1.84646 1.35789 0
M  V30 4031 C 390.703 0.7192 1.4382 0
M  V30 4032 O 391.893 0.987491 1.43507 0
M  V30 4033 C 389.025 2.02407 2.74307 0
M  V30 4034 H 390.218 2.78829 1.10429 0
M  V30 4035 H 387.771 1.46658 0.540487 0
M  V30 4036 H 388.506 1.10502 3.04893 0
M  V30 4037 H 388.291 2.84453 2.69868 0
M  V30 4038 H 389.781 2.27002 3.50514 0
M  V30 4039 N 390.218 -0.567019 1.47046 0
M  V30 4040 C 391.181 -1.65696 1.58359 0
M  V30 4041 C 392.181 -1.54097 0.459441 0
M  V30 4042 O 393.371 -1.58432 0.724225 0
M  V30 4043 C 390.503 -3.05197 1.51879 0
M  V30 4044 H 391.696 -1.57019 2.5551 0
M  V30 4045 H 389.249 -0.786148 1.3509 0
M  V30 4046 H 389.984 -3.19417 0.560673 0
M  V30 4047 H 389.769 -3.15025 2.33455 0
M  V30 4048 H 391.259 -3.84511 1.62913 0
M  V30 4049 N 391.696 -1.35014 -0.812953 0
M  V30 4050 C 392.942 -1.2812 -1.57204 0
M  V30 4051 C 393.275 0.145869 -1.93651 0
M  V30 4052 O 392.55 1.0937 -1.60836 0
M  V30 4053 C 392.833 -2.18162 -2.86492 0
M  V30 4054 C 392.686 -3.69454 -2.56561 0
M  V30 4055 C 394.005 -2.07439 -3.88145 0
M  V30 4056 H 391.124 -0.466746 -0.570366 0
M  V30 4057 H 393.766 -1.65357 -0.935783 0
M  V30 4058 H 391.916 -1.86535 -3.40789 0
M  V30 4059 H 393.588 -4.11493 -2.08497 0
M  V30 4060 H 391.831 -3.9005 -1.89851 0
M  V30 4061 H 392.502 -4.27835 -3.48799 0
M  V30 4062 H 394.978 -2.35228 -3.4323 0
M  V30 4063 H 393.854 -2.7265 -4.76396 0
M  V30 4064 H 394.115 -1.05439 -4.29343 0
M  V30 4065 N 393.175 1.03435 -1.18907 0
M  V30 4066 C 394.421 1.77005 -0.989798 0
M  V30 4067 C 394.754 1.88205 0.478816 0
M  V30 4068 O 394.029 1.39481 1.35556 0
M  V30 4069 C 394.312 3.19925 -1.65287 0
M  V30 4070 C 394.165 3.1663 -3.19477 0
M  V30 4071 C 395.484 4.18189 -1.37134 0
M  V30 4072 H 392.603 0.642538 -0.360991 0
M  V30 4073 H 395.245 1.20784 -1.46667 0
M  V30 4074 H 393.395 3.67929 -1.24741 0
M  V30 4075 H 395.067 2.76567 -3.692 0
M  V30 4076 H 393.31 2.54491 -3.51307 0
M  V30 4077 H 393.981 4.1758 -3.61013 0
M  V30 4078 H 396.457 3.78761 -1.72276 0
M  V30 4079 H 395.333 5.16394 -1.86087 0
M  V30 4080 H 395.594 4.41112 -0.295424 0
M  V30 4081 N 394.653 0.992116 1.22453 0
M  V30 4082 C 395.899 0.668523 1.91464 0
M  V30 4083 C 396.232 -0.797313 1.77078 0
M  V30 4084 O 395.507 -1.5765 1.13916 0
M  V30 4085 C 395.79 1.07424 3.43703 0
M  V30 4086 C 395.643 2.59857 3.67143 0
M  V30 4087 C 396.962 0.626891 4.35612 0
M  V30 4088 H 394.081 0.244341 0.695318 0
M  V30 4089 H 396.723 1.2355 1.44345 0
M  V30 4090 H 394.873 0.591816 3.83966 0
M  V30 4091 H 396.545 3.15764 3.3629 0
M  V30 4092 H 394.788 3.01961 3.11451 0
M  V30 4093 H 395.459 2.83296 4.73759 0
M  V30 4094 H 397.935 1.04125 4.02861 0
M  V30 4095 H 396.811 0.939076 5.40807 0
M  V30 4096 H 397.072 -0.472457 4.39568 0
M  V30 4097 N 396.131 -1.37776 0.765217 0
M  V30 4098 C 397.061 -2.32945 0.160953 0
M  V30 4099 C 398.042 -1.55454 -0.690516 0
M  V30 4100 O 399.227 -1.83721 -0.629318 0
M  V30 4101 C 396.357 -3.39669 -0.724031 0
M  V30 4102 C 395.311 -4.27992 0.0256173 0
M  V30 4103 C 394.637 -5.25673 -0.978383 0
M  V30 4104 C 395.937 -5.08309 1.20082 0
M  V30 4105 H 397.631 -2.83728 0.955969 0
M  V30 4106 H 395.177 -1.36416 0.461149 0
M  V30 4107 H 397.13 -4.05219 -1.15652 0
M  V30 4108 H 395.854 -2.87396 -1.5515 0
M  V30 4109 H 394.513 -3.63964 0.438812 0
M  V30 4110 H 394.161 -4.69682 -1.80022 0
M  V30 4111 H 393.861 -5.85625 -0.481378 0
M  V30 4112 H 395.385 -5.94098 -1.40995 0
M  V30 4113 H 396.799 -5.67034 0.845307 0
M  V30 4114 H 395.196 -5.77554 1.62947 0
M  V30 4115 H 396.266 -4.41365 2.00811 0
M  V30 4116 N 397.609 -0.515225 -1.4894 0
M  V30 4117 C 398.539 0.244628 -2.32215 0
M  V30 4118 C 399.52 0.949136 -1.41157 0
M  V30 4119 O 400.705 0.937783 -1.70057 0
M  V30 4120 C 397.835 1.30096 -3.22013 0
M  V30 4121 C 396.789 0.715486 -4.21977 0
M  V30 4122 C 396.115 1.87339 -5.00808 0
M  V30 4123 C 397.415 -0.302982 -5.2142 0
M  V30 4124 H 399.109 -0.450501 -2.95991 0
M  V30 4125 H 396.655 -0.218098 -1.42339 0
M  V30 4126 H 398.608 1.84037 -3.79089 0
M  V30 4127 H 397.332 2.02547 -2.56207 0
M  V30 4128 H 395.991 0.197715 -3.66066 0
M  V30 4129 H 395.639 2.58592 -4.31438 0
M  V30 4130 H 395.339 1.48764 -5.68457 0
M  V30 4131 H 396.863 2.41686 -5.60732 0
M  V30 4132 H 398.277 0.148802 -5.73107 0
M  V30 4133 H 396.674 -0.60532 -5.97039 0
M  V30 4134 H 397.744 -1.21395 -4.69459 0
M  V30 4135 N 399.087 1.5561 -0.249682 0
M  V30 4136 C 400.334 1.99011 0.374287 0
M  V30 4137 C 400.662 1.13785 1.57744 0
M  V30 4138 O 399.917 0.189326 1.94782 0
M  V30 4139 C 400.216 3.4775 0.824887 0
M  V30 4140 C 399.882 4.50086 -0.270819 0
M  V30 4141 C 398.544 4.77791 -0.571746 0
M  V30 4142 C 400.896 5.11312 -1.01041 0
M  V30 4143 C 398.224 5.63997 -1.61629 0
M  V30 4144 C 400.576 5.98651 -2.0445 0
M  V30 4145 C 399.24 6.24688 -2.35204 0
M  V30 4146 H 398.51 0.728233 0.136961 0
M  V30 4147 H 401.157 1.88122 -0.358087 0
M  V30 4148 H 399.462 3.55985 1.63651 0
M  V30 4149 H 401.159 3.78721 1.31799 0
M  V30 4150 H 397.749 4.28592 -0.026136 0
M  V30 4151 H 401.933 4.89953 -0.791177 0
M  V30 4152 H 397.189 5.82425 -1.85988 0
M  V30 4153 H 401.363 6.45135 -2.62248 0
M  V30 4154 H 398.99 6.91281 -3.16282 0
M  V30 4155 N 400.565 -0.0233959 1.57583 0
M  V30 4156 C 401.813 -0.711654 1.89156 0
M  V30 4157 C 402.134 -1.75591 0.848096 0
M  V30 4158 O 401.404 -1.95547 -0.117566 0
M  V30 4159 H 399.984 -0.265835 0.698098 0
M  V30 4160 H 402.646 0.0119948 1.94896 0
M  V30 4161 H 401.742 -1.19766 2.88206 0
M  V30 4162 N 402.043 -1.548 -0.295768 0
M  V30 4163 C 403.006 -1.85363 -1.34808 0
M  V30 4164 C 404.006 -0.726817 -1.43436 0
M  V30 4165 O 405.196 -0.995088 -1.42981 0
M  V30 4166 C 402.328 -2.03859 -2.73229 0
M  V30 4167 H 403.521 -2.7941 -1.08949 0
M  V30 4168 H 401.074 -1.46942 -0.532702 0
M  V30 4169 H 401.809 -1.12117 -3.04303 0
M  V30 4170 H 401.594 -2.8588 -2.68356 0
M  V30 4171 H 403.084 -2.28857 -3.49305 0
M  V30 4172 N 403.521 0.559213 -1.47345 0
M  V30 4173 C 404.451 1.67622 -1.62558 0
M  V30 4174 C 405.432 1.63331 -0.475087 0
M  V30 4175 O 406.617 1.80983 -0.704182 0
M  V30 4176 C 403.747 3.0626 -1.63774 0
M  V30 4177 C 402.701 3.25397 -2.7803 0
M  V30 4178 C 402.027 4.64801 -2.64318 0
M  V30 4179 C 403.327 3.10965 -4.19641 0
M  V30 4180 H 405.021 1.55146 -2.56067 0
M  V30 4181 H 402.567 0.744961 -1.23233 0
M  V30 4182 H 404.52 3.84247 -1.73008 0
M  V30 4183 H 403.244 3.1969 -0.66825 0
M  V30 4184 H 401.903 2.49817 -2.68304 0
M  V30 4185 H 401.551 4.75028 -1.65401 0
M  V30 4186 H 401.251 4.78555 -3.40968 0
M  V30 4187 H 402.775 5.44926 -2.75478 0
M  V30 4188 H 404.189 3.78772 -4.30354 0
M  V30 4189 H 402.586 3.36229 -4.97062 0
M  V30 4190 H 403.656 2.07736 -4.38148 0
M  V30 4191 N 404.999 1.35443 0.805782 0
M  V30 4192 C 406.229 1.31687 1.59192 0
M  V30 4193 C 406.637 -0.10756 1.88894 0
M  V30 4194 O 405.98 -1.07017 1.49309 0
M  V30 4195 C 406.042 2.05686 2.94845 0
M  V30 4196 C 405.706 3.54868 2.87954 0
M  V30 4197 C 406.703 4.49444 2.61335 0
M  V30 4198 C 404.388 3.97528 3.07046 0
M  V30 4199 C 406.382 5.84655 2.53885 0
M  V30 4200 C 404.069 5.32833 2.99219 0
M  V30 4201 C 405.067 6.26209 2.72674 0
M  V30 4202 O 404.755 7.59032 2.64811 0
M  V30 4203 H 404.487 0.453878 0.50097 0
M  V30 4204 H 407.041 1.78892 1.0093 0
M  V30 4205 H 405.271 1.5312 3.55093 0
M  V30 4206 H 406.96 1.94998 3.55993 0
M  V30 4207 H 407.726 4.17804 2.46303 0
M  V30 4208 H 403.605 3.25233 3.26718 0
M  V30 4209 H 407.149 6.57508 2.33086 0
M  V30 4210 H 403.046 5.64087 3.13809 0
M  V30 4211 H 403.814 7.68967 2.80413 0
M  V30 4212 N 406.477 -1.02803 1.19454 0
M  V30 4213 C 407.888 -1.57667 0.999899 0
M  V30 4214 C 408.239 -1.91041 -0.446956 0
M  V30 4215 O 407.364 -1.70978 -1.32648 0
M  V30 4216 C 407.959 -2.86477 1.80877 0
M  V30 4217 C 406.518 -3.37911 1.65811 0
M  V30 4218 C 405.665 -2.11343 1.79526 0
M  V30 4219 H 408.616 -0.853214 1.33813 0
M  V30 4220 H 408.637 -3.57408 1.30536 0
M  V30 4221 H 408.149 -2.62155 2.86175 0
M  V30 4222 H 406.25 -3.67218 0.63102 0
M  V30 4223 H 406.363 -4.10885 2.46395 0
M  V30 4224 H 404.727 -2.23254 1.22596 0
M  V30 4225 H 405.51 -1.89461 2.86285 0
M  V30 4226 N 407.956 -0.998596 -1.21925 0
M  V30 4227 C 408.904 -0.546641 -2.26085 0
M  V30 4228 C 409.898 0.405576 -1.64473 0
M  V30 4229 O 411.104 0.277471 -1.77849 0
M  V30 4230 H 407.479 -0.158403 -0.735127 0
M  V30 4231 H 409.45 -1.43645 -2.61551 0
M  V30 4232 C 408.199 0.117388 -3.47502 0
M  V30 4233 H 407.522 -0.606277 -3.95176 0
M  V30 4234 H 408.962 0.396993 -4.22137 0
M  V30 4235 C 407.421 1.35455 -3.0847 0
M  V30 4236 O 407.951 2.44944 -3.18379 0
M  V30 4237 N 406.157 1.23191 -2.63196 0
M  V30 4238 H 405.704 0.341006 -2.55333 0
M  V30 4239 H 405.662 2.06071 -2.37449 0
M  V30 4240 N 409.434 1.37368 -0.772513 0
M  V30 4241 C 410.364 2.32856 -0.173304 0
M  V30 4242 C 411.345 1.55818 0.682262 0
M  V30 4243 O 412.53 1.84052 0.619566 0
M  V30 4244 C 409.66 3.40048 0.706007 0
M  V30 4245 C 408.614 4.27973 -0.0483144 0
M  V30 4246 C 407.94 5.26184 0.950491 0
M  V30 4247 C 409.24 5.07665 -1.22776 0
M  V30 4248 H 410.934 2.83217 -0.971002 0
M  V30 4249 H 408.48 1.3617 -0.468377 0
M  V30 4250 H 410.433 4.05827 1.13501 0
M  V30 4251 H 409.157 2.88214 1.53623 0
M  V30 4252 H 407.816 3.63726 -0.458107 0
M  V30 4253 H 407.464 4.7063 1.77529 0
M  V30 4254 H 407.164 5.85872 0.450314 0
M  V30 4255 H 408.688 5.94838 1.37842 0
M  V30 4256 H 410.102 5.66578 -0.875366 0
M  V30 4257 H 408.499 5.76681 -1.66007 0
M  V30 4258 H 409.569 4.40294 -2.03149 0
M  V30 4259 N 410.912 0.523116 1.48665 0
M  V30 4260 C 412.158 -0.0134963 2.02796 0
M  V30 4261 C 412.491 -1.34582 1.40004 0
M  V30 4262 O 411.766 -1.86756 0.543381 0
M  V30 4263 C 412.049 -0.14276 3.59817 0
M  V30 4264 C 411.902 1.21425 4.331 0
M  V30 4265 C 413.221 -0.872856 4.31357 0
M  V30 4266 H 410.34 -0.00343074 0.736992 0
M  V30 4267 H 412.982 0.678816 1.7746 0
M  V30 4268 H 411.132 -0.732401 3.81534 0
M  V30 4269 H 412.804 1.84447 4.2282 0
M  V30 4270 H 411.047 1.79791 3.94788 0
M  V30 4271 H 411.718 1.07687 5.41394 0
M  V30 4272 H 414.194 -0.372555 4.14429 0
M  V30 4273 H 413.07 -0.932185 5.40927 0
M  V30 4274 H 413.331 -1.92161 3.98154 0
M  V30 4275 N 412.39 -1.55475 0.257931 0
M  V30 4276 C 413.801 -1.8511 -0.243135 0
M  V30 4277 C 414.152 -1.17986 -1.5676 0
M  V30 4278 O 413.277 -0.462102 -2.11409 0
M  V30 4279 C 413.872 -3.35826 -0.447929 0
M  V30 4280 C 412.431 -3.65647 -0.893245 0
M  V30 4281 C 411.578 -2.7729 0.0232965 0
M  V30 4282 H 414.529 -1.51261 0.480199 0
M  V30 4283 H 414.55 -3.58002 -1.28898 0
M  V30 4284 H 414.062 -3.84652 0.516196 0
M  V30 4285 H 412.163 -3.22308 -1.86945 0
M  V30 4286 H 412.276 -4.73312 -0.742469 0
M  V30 4287 H 410.64 -2.49942 -0.490021 0
M  V30 4288 H 411.423 -3.28926 0.982994 0
M  V30 4289 N 413.868 0.0150385 -1.57593 0
M  V30 4290 C 415.093 0.718067 -1.94573 0
M  V30 4291 C 415.518 1.6734 -0.859005 0
M  V30 4292 O 414.876 1.80362 0.184147 0
M  V30 4293 C 414.924 1.43918 -3.30636 0
M  V30 4294 O 414.028 2.55299 -3.23876 0
M  V30 4295 H 413.369 0.192125 -0.635597 0
M  V30 4296 H 415.899 -0.0336708 -2.04572 0
M  V30 4297 H 415.909 1.80598 -3.65853 0
M  V30 4298 H 414.584 0.738619 -4.09289 0
M  V30 4299 H 413.161 2.21058 -3.00312 0
M  V30 4300 N 415.346 1.54954 0.287554 0
M  V30 4301 C 416.574 1.78881 1.03967 0
M  V30 4302 C 416.989 0.554894 1.80462 0
M  V30 4303 O 416.346 -0.475676 1.76192 0
M  V30 4304 C 416.397 3.00488 2.0097 0
M  V30 4305 O 416.118 4.19113 1.27577 0
M  V30 4306 C 417.619 3.36907 2.88112 0
M  V30 4307 H 414.839 0.596259 0.307761 0
M  V30 4308 H 417.383 2.01937 0.322749 0
M  V30 4309 H 415.538 2.79601 2.68145 0
M  V30 4310 H 415.952 4.87765 1.92835 0
M  V30 4311 H 417.426 4.25205 3.52001 0
M  V30 4312 H 417.903 2.55659 3.57121 0
M  V30 4313 H 418.509 3.60001 2.26449 0
M  V30 4314 N 416.824 -0.551391 1.4764 0
M  V30 4315 C 417.754 -1.66757 1.63445 0
M  V30 4316 C 418.735 -1.63077 0.483742 0
M  V30 4317 O 419.92 -1.80607 0.71377 0
M  V30 4318 C 417.05 -3.05387 1.65396 0
M  V30 4319 C 416.004 -3.23918 2.79752 0
M  V30 4320 C 415.33 -4.63393 2.66779 0
M  V30 4321 C 416.63 -3.08735 4.21284 0
M  V30 4322 H 418.324 -1.53786 2.56886 0
M  V30 4323 H 415.87 -0.738415 1.23626 0
M  V30 4324 H 417.823 -3.83325 1.75043 0
M  V30 4325 H 416.547 -3.19332 0.685195 0
M  V30 4326 H 415.206 -2.48391 2.69625 0
M  V30 4327 H 414.854 -4.74144 1.67918 0
M  V30 4328 H 414.554 -4.7674 3.43501 0
M  V30 4329 H 416.078 -5.43458 2.78364 0
M  V30 4330 H 417.492 -3.76484 4.32357 0
M  V30 4331 H 415.889 -3.33588 4.98838 0
M  V30 4332 H 416.959 -2.0541 4.39243 0
M  V30 4333 N 418.302 -1.35869 -0.798587 0
M  V30 4334 C 419.25 -1.29491 -1.93222 0
M  V30 4335 C 420.244 -0.18836 -1.6835 0
M  V30 4336 O 421.45 -0.354822 -1.76468 0
M  V30 4337 H 417.825 -0.402901 -0.63496 0
M  V30 4338 H 419.796 -2.25247 -1.9572 0
M  V30 4339 C 418.545 -1.09184 -3.30112 0
M  V30 4340 H 417.868 -1.93574 -3.49813 0
M  V30 4341 H 419.308 -1.08766 -4.09812 0
M  V30 4342 C 417.767 0.203959 -3.36282 0
M  V30 4343 O 418.297 1.19699 -3.83451 0
M  V30 4344 N 416.503 0.245488 -2.89561 0
M  V30 4345 H 416.05 -0.563223 -2.51367 0
M  V30 4346 H 416.008 1.11219 -2.94071 0
M  V30 4347 N 419.78 1.02168 -1.19998 0
M  V30 4348 C 421.191 1.57135 -1.00825 0
M  V30 4349 C 421.542 1.91276 0.436818 0
M  V30 4350 O 420.667 1.71679 1.3174 0
M  V30 4351 C 421.262 2.85514 -1.82393 0
M  V30 4352 C 419.821 3.37027 -1.67601 0
M  V30 4353 C 418.968 2.10388 -1.80644 0
M  V30 4354 H 421.919 0.846106 -1.34264 0
M  V30 4355 H 421.94 3.56711 -1.32429 0
M  V30 4356 H 421.452 2.60634 -2.87561 0
M  V30 4357 H 419.553 3.66878 -0.650485 0
M  V30 4358 H 419.666 4.09572 -2.4857 0
M  V30 4359 H 418.03 2.22601 -1.23778 0
M  V30 4360 H 418.813 1.8794 -2.87286 0
M  V30 4361 N 421.258 1.00505 1.21394 0
M  V30 4362 C 422.19 0.52372 2.23136 0
M  V30 4363 C 423.203 -0.387714 1.58116 0
M  V30 4364 O 424.392 -0.187905 1.77508 0
M  V30 4365 C 421.492 -0.258885 3.3791 0
M  V30 4366 C 420.665 0.651634 4.32519 0
M  V30 4367 C 419.724 -0.0813705 5.26137 0
M  V30 4368 O 418.75 0.537295 5.66658 0
M  V30 4369 N 419.952 -1.35992 5.64346 0
M  V30 4370 H 422.717 1.39865 2.65062 0
M  V30 4371 H 420.278 0.881196 1.35818 0
M  V30 4372 H 422.27 -0.758208 3.97534 0
M  V30 4373 H 420.84 -1.035 2.94968 0
M  V30 4374 H 420.06 1.33145 3.71034 0
M  V30 4375 H 421.348 1.27129 4.92662 0
M  V30 4376 H 420.746 -1.88368 5.33417 0
M  V30 4377 H 419.303 -1.8042 6.26332 0
M  V30 4378 N 422.737 -1.36956 0.779787 0
M  V30 4379 C 423.983 -2.00237 0.357324 0
M  V30 4380 C 424.338 -1.60787 -1.05666 0
M  V30 4381 O 423.631 -0.847836 -1.71821 0
M  V30 4382 C 423.825 -3.54585 0.447686 0
M  V30 4383 C 423.654 -4.09025 1.86891 0
M  V30 4384 C 422.424 -4.39612 2.49138 0
M  V30 4385 C 424.622 -4.29461 2.82963 0
M  V30 4386 N 422.604 -4.79816 3.82949 0
M  V30 4387 C 423.975 -4.72363 4.01588 0
M  V30 4388 C 426.03 -4.1161 2.80145 0
M  V30 4389 C 424.733 -4.99284 5.17791 0
M  V30 4390 C 426.759 -4.39672 3.95528 0
M  V30 4391 C 426.121 -4.82822 5.12896 0
M  V30 4392 H 422.22 -0.76148 0.177968 0
M  V30 4393 H 424.804 -1.6613 1.01533 0
M  V30 4394 H 422.975 -3.87982 -0.180184 0
M  V30 4395 H 424.707 -4.047 0.0023955 0
M  V30 4396 H 421.462 -4.28975 2.00693 0
M  V30 4397 H 421.886 -5.04216 4.51769 0
M  V30 4398 H 426.528 -3.77415 1.90572 0
M  V30 4399 H 424.246 -5.32365 6.07958 0
M  V30 4400 H 427.832 -4.27441 3.94697 0
M  V30 4401 H 426.712 -5.04118 6.00695 0
M  V30 4402 N 424.215 -0.530993 -1.48385 0
M  V30 4403 C 425.44 0.000729535 -2.074 0
M  V30 4404 C 425.865 1.27298 -1.3848 0
M  V30 4405 O 425.223 1.75599 -0.451081 0
M  V30 4406 C 425.271 0.206697 -3.60007 0
M  V30 4407 O 424.375 1.27514 -3.92191 0
M  V30 4408 H 423.716 -0.039583 -0.662819 0
M  V30 4409 H 426.246 -0.739194 -1.9078 0
M  V30 4410 H 426.256 0.42904 -4.05738 0
M  V30 4411 H 424.931 -0.722675 -4.09573 0
M  V30 4412 H 423.508 1.03537 -3.58238 0
M  V30 4413 N 425.693 1.55336 -0.266172 0
M  V30 4414 C 426.623 2.25146 0.618981 0
M  V30 4415 C 427.604 1.23845 1.16604 0
M  V30 4416 O 428.789 1.52544 1.20183 0
M  V30 4417 C 425.919 2.96572 1.80728 0
M  V30 4418 C 424.873 4.04726 1.39215 0
M  V30 4419 C 424.199 4.63678 2.66283 0
M  V30 4420 C 425.499 5.19407 0.548942 0
M  V30 4421 H 427.193 2.99377 0.0368116 0
M  V30 4422 H 424.739 1.43991 0.0162651 0
M  V30 4423 H 426.692 3.44116 2.43232 0
M  V30 4424 H 425.416 2.19861 2.41514 0
M  V30 4425 H 424.075 3.57979 0.790351 0
M  V30 4426 H 423.723 3.83646 3.25308 0
M  V30 4427 H 423.423 5.367 2.39222 0
M  V30 4428 H 424.947 5.13967 3.29651 0
M  V30 4429 H 426.361 5.63059 1.07876 0
M  V30 4430 H 424.758 5.98936 0.373593 0
M  V30 4431 H 425.828 4.8295 -0.434394 0
M  V30 4432 N 427.171 -0.0066808 1.57599 0
M  V30 4433 C 428.399 -0.704087 1.94551 0
M  V30 4434 C 428.814 -1.67677 0.867746 0
M  V30 4435 O 428.171 -1.8185 -0.153925 0
M  V30 4436 C 428.222 -1.44177 3.31505 0
M  V30 4437 O 427.943 -0.508097 4.35144 0
M  V30 4438 C 429.444 -2.23429 3.82876 0
M  V30 4439 H 426.664 -0.196523 0.641576 0
M  V30 4440 H 429.208 0.042453 2.04456 0
M  V30 4441 H 427.363 -2.13999 3.22929 0
M  V30 4442 H 427.777 -1.02782 5.14331 0
M  V30 4443 H 429.251 -2.70552 4.8115 0
M  V30 4444 H 429.728 -3.05818 3.15233 0
M  V30 4445 H 430.334 -1.58636 3.94607 0
M  V30 4446 N 428.649 -1.55105 -0.279332 0
M  V30 4447 C 429.898 -1.74618 -1.00952 0
M  V30 4448 C 430.211 -0.551096 -1.87676 0
M  V30 4449 O 431.417 -0.628507 -2.64125 0
M  V30 4450 C 429.873 -3.09025 -1.84476 0
M  V30 4451 C 429.481 -4.36081 -1.0265 0
M  V30 4452 C 431.225 -3.37891 -2.56963 0
M  V30 4453 C 429.132 -5.6153 -1.85576 0
M  V30 4454 H 428.062 -0.650868 -0.38064 0
M  V30 4455 H 430.713 -1.81569 -0.265475 0
M  V30 4456 H 429.095 -2.96095 -2.62952 0
M  V30 4457 H 430.269 -4.59909 -0.286354 0
M  V30 4458 H 428.584 -4.14312 -0.416464 0
M  V30 4459 H 431.181 -4.28822 -3.19399 0
M  V30 4460 H 431.524 -2.57737 -3.26921 0
M  V30 4461 H 432.057 -3.5189 -1.85522 0
M  V30 4462 H 428.796 -6.44413 -1.2005 0
M  V30 4463 H 428.316 -5.41854 -2.57204 0
M  V30 4464 H 429.995 -5.99594 -2.43096 0
M  V30 4465 N 430.127 0.543554 -1.4793 0
M  V30 4466 C 431.077 1.64527 -1.57844 0
M  V30 4467 C 432.061 1.54869 -0.436408 0
M  V30 4468 O 433.253 1.63119 -0.687101 0
M  V30 4469 C 430.382 3.03281 -1.6086 0
M  V30 4470 C 429.468 3.18093 -2.80495 0
M  V30 4471 N 429.859 3.02923 -4.05057 0
M  V30 4472 C 428.157 3.49121 -2.77543 0
M  V30 4473 C 428.858 3.20791 -4.85251 0
M  V30 4474 N 427.834 3.47749 -4.17818 0
M  V30 4475 H 431.636 1.51388 -2.5191 0
M  V30 4476 H 429.15 0.748671 -1.44113 0
M  V30 4477 H 431.147 3.82403 -1.66054 0
M  V30 4478 H 429.807 3.17521 -0.678996 0
M  V30 4479 H 430.818 2.79966 -4.35705 0
M  V30 4480 H 427.495 3.69804 -1.93781 0
M  V30 4481 H 428.885 3.13915 -5.9406 0
M  V30 4482 N 431.605 1.3629 0.791371 0
M  V30 4483 C 432.553 1.30514 1.92533 0
M  V30 4484 C 433.547 0.197285 1.68247 0
M  V30 4485 O 434.753 0.364176 1.76278 0
M  V30 4486 H 431.128 0.406263 0.632815 0
M  V30 4487 H 433.099 2.26282 1.94523 0
M  V30 4488 C 431.848 1.10933 3.29529 0
M  V30 4489 H 431.171 1.95427 3.48781 0
M  V30 4490 H 432.611 1.10937 4.0923 0
M  V30 4491 C 431.07 -0.186123 3.36385 0
M  V30 4492 O 431.6 -1.17664 3.84081 0
M  V30 4493 N 429.806 -0.230128 2.89687 0
M  V30 4494 H 429.353 0.576545 2.51065 0
M  V30 4495 H 429.311 -1.09658 2.94657 0
M  V30 4496 N 433.083 -1.0153 1.20538 0
M  V30 4497 C 434.046 -2.0826 0.957098 0
M  V30 4498 C 435.046 -1.60657 -0.0678655 0
M  V30 4499 O 436.236 -1.73385 0.168332 0
M  V30 4500 C 433.368 -3.38033 0.441188 0
M  V30 4501 H 434.561 -2.31719 1.90384 0
M  V30 4502 H 432.114 -1.1835 1.02093 0
M  V30 4503 H 432.849 -3.20249 -0.510961 0
M  V30 4504 H 432.634 -3.73911 1.18038 0
M  V30 4505 H 434.124 -4.16613 0.287009 0
M  V30 4506 N 434.561 -1.01147 -1.20859 0
M  V30 4507 C 435.786 -0.716698 -1.94623 0
M  V30 4508 C 436.211 0.715415 -1.73964 0
M  V30 4509 O 435.569 1.49157 -1.03062 0
M  V30 4510 C 435.617 -1.0513 -3.44935 0
M  V30 4511 O 434.721 -0.160131 -4.12089 0
M  V30 4512 H 434.062 -0.266404 -0.608214 0
M  V30 4513 H 436.592 -1.35346 -1.53436 0
M  V30 4514 H 436.602 -1.00086 -3.95533 0
M  V30 4515 H 435.277 -2.09475 -3.59295 0
M  V30 4516 H 433.854 -0.267657 -3.71938 0
M  V30 4517 N 436.039 1.36541 -0.78704 0
M  V30 4518 C 437.264 2.0409 -0.369053 0
M  V30 4519 C 437.689 1.58957 1.00569 0
M  V30 4520 O 437.047 0.756926 1.64743 0
M  V30 4521 C 437.095 3.57924 -0.438466 0
M  V30 4522 O 436.199 4.08642 0.555479 0
M  V30 4523 H 435.54 0.645142 -0.157122 0
M  V30 4524 H 438.07 1.74545 -1.06749 0
M  V30 4525 H 438.08 4.06887 -0.301218 0
M  V30 4526 H 436.755 3.90127 -1.44132 0
M  V30 4527 H 435.332 3.70958 0.380088 0
M  V30 4528 N 437.518 0.538854 1.48102 0
M  V30 4529 C 438.746 0.0123136 2.06896 0
M  V30 4530 C 439.161 -1.27312 1.39417 0
M  V30 4531 O 438.518 -1.75949 0.484582 0
M  V30 4532 C 438.569 -0.206118 3.60912 0
M  V30 4533 O 438.29 1.0284 4.25859 0
M  V30 4534 C 439.791 -0.772033 4.36526 0
M  V30 4535 H 437.011 0.0375239 0.66995 0
M  V30 4536 H 439.555 0.747032 1.90367 0
M  V30 4537 H 437.71 -0.89091 3.77017 0
M  V30 4538 H 438.124 0.814654 5.18135 0
M  V30 4539 H 439.598 -0.874251 5.45033 0
M  V30 4540 H 440.075 -1.77904 4.01555 0
M  V30 4541 H 440.681 -0.123526 4.25121 0
M  V30 4542 N 438.996 -1.55193 0.274407 0
M  V30 4543 C 440.407 -1.85358 -0.223488 0
M  V30 4544 C 440.758 -1.19642 -1.555 0
M  V30 4545 O 439.883 -0.484498 -2.10907 0
M  V30 4546 C 440.478 -3.36282 -0.412285 0
M  V30 4547 C 439.037 -3.66574 -0.854413 0
M  V30 4548 C 438.184 -2.7725 0.0527056 0
M  V30 4549 H 441.135 -1.50743 0.496215 0
M  V30 4550 H 441.156 -3.59349 -1.25094 0
M  V30 4551 H 440.668 -3.84083 0.556965 0
M  V30 4552 H 438.769 -3.24273 -1.83516 0
M  V30 4553 H 438.882 -4.74073 -0.692226 0
M  V30 4554 H 437.246 -2.50447 -0.463484 0
M  V30 4555 H 438.029 -3.27865 1.01783 0
M  V30 4556 N 440.474 -0.00167713 -1.576 0
M  V30 4557 C 441.704 0.692754 -1.94639 0
M  V30 4558 C 442.112 1.67744 -0.87513 0
M  V30 4559 O 441.455 1.8305 0.154382 0
M  V30 4560 C 441.517 1.47881 -3.27676 0
M  V30 4561 C 441.181 0.655518 -4.52274 0
M  V30 4562 C 442.178 -0.0575214 -5.19868 0
M  V30 4563 C 439.863 0.600994 -4.98692 0
M  V30 4564 C 441.857 -0.814052 -6.3218 0
M  V30 4565 C 439.544 -0.15926 -6.10892 0
M  V30 4566 C 440.542 -0.865515 -6.77494 0
M  V30 4567 O 440.23 -1.61336 -7.87544 0
M  V30 4568 H 439.962 0.197792 -0.646417 0
M  V30 4569 H 442.516 -0.049423 -2.05341 0
M  V30 4570 H 440.746 2.2655 -3.13388 0
M  V30 4571 H 442.435 2.05874 -3.49816 0
M  V30 4572 H 443.201 -0.0245611 -4.84994 0
M  V30 4573 H 439.08 1.14025 -4.46676 0
M  V30 4574 H 442.624 -1.36584 -6.84098 0
M  V30 4575 H 438.521 -0.194035 -6.45208 0
M  V30 4576 H 439.289 -1.53025 -8.04068 0
M  V30 4577 N 441.952 1.55251 0.271103 0
M  V30 4578 C 443.18 1.79974 1.02064 0
M  V30 4579 C 443.595 0.574003 1.79863 0
M  V30 4580 O 442.952 -0.456962 1.76686 0
M  V30 4581 C 443.003 3.02603 1.97772 0
M  V30 4582 O 442.724 4.20443 1.23124 0
M  V30 4583 C 444.225 3.39944 2.84522 0
M  V30 4584 H 441.445 0.599489 0.301419 0
M  V30 4585 H 443.989 2.02268 0.301313 0
M  V30 4586 H 442.144 2.8243 2.65165 0
M  V30 4587 H 442.558 4.89783 1.87651 0
M  V30 4588 H 444.032 4.28915 3.47471 0
M  V30 4589 H 444.509 2.59432 3.54389 0
M  V30 4590 H 445.115 3.62383 2.22618 0
M  V30 4591 N 443.43 -0.535701 1.48216 0
M  V30 4592 C 444.36 -1.65014 1.65204 0
M  V30 4593 C 445.341 -1.62554 0.501011 0
M  V30 4594 O 446.526 -1.7984 0.732886 0
M  V30 4595 C 443.656 -3.03616 1.68626 0
M  V30 4596 C 442.61 -3.20932 2.83172 0
M  V30 4597 C 441.936 -4.60537 2.71679 0
M  V30 4598 C 443.236 -3.04249 4.24535 0
M  V30 4599 H 444.93 -1.51053 2.58502 0
M  V30 4600 H 442.476 -0.725262 1.24402 0
M  V30 4601 H 444.429 -3.81446 1.79099 0
M  V30 4602 H 443.153 -3.18587 0.719026 0
M  V30 4603 H 441.812 -2.45517 2.72244 0
M  V30 4604 H 441.46 -4.72336 1.72937 0
M  V30 4605 H 441.16 -4.73069 3.48538 0
M  V30 4606 H 442.684 -5.40475 2.84112 0
M  V30 4607 H 444.098 -3.71877 4.36326 0
M  V30 4608 H 442.495 -3.28278 5.02348 0
M  V30 4609 H 443.565 -2.00739 4.41397 0
M  V30 4610 N 444.908 -1.36708 -0.784132 0
M  V30 4611 C 445.855 -1.31466 -1.89698 0
M  V30 4612 C 446.825 -0.18239 -1.65096 0
M  V30 4613 O 448.01 -0.369762 -1.87183 0
M  V30 4614 C 445.15 -1.1151 -3.26588 0
M  V30 4615 C 444.263 -2.33859 -3.63227 0
M  V30 4616 C 443.398 -2.06873 -4.89262 0
M  V30 4617 C 442.437 -3.25154 -5.18595 0
M  V30 4618 N 441.574 -2.978 -6.35814 0
M  V30 4619 H 446.414 -2.26619 -1.93515 0
M  V30 4620 H 443.951 -1.12625 -0.946256 0
M  V30 4621 H 445.909 -0.979653 -4.05535 0
M  V30 4622 H 444.539 -0.200103 -3.22179 0
M  V30 4623 H 443.591 -2.58188 -2.79362 0
M  V30 4624 H 444.903 -3.22109 -3.8085 0
M  V30 4625 H 444.057 -1.90289 -5.76086 0
M  V30 4626 H 442.796 -1.15942 -4.73718 0
M  V30 4627 H 441.801 -3.42292 -4.30251 0
M  V30 4628 H 443.026 -4.1692 -5.36055 0
M  V30 4629 H 440.972 -2.09485 -6.21653 0
M  V30 4630 H 440.889 -3.7959 -6.53794 0
M  V30 4631 H 442.157 -2.84805 -7.25607 0
M  V30 4632 N 446.386 1.0089 -1.21074 0
M  V30 4633 C 447.635 1.74019 -1.01981 0
M  V30 4634 C 447.948 1.90408 0.447665 0
M  V30 4635 O 449.154 2.60707 0.757906 0
M  V30 4636 C 447.61 3.13026 -1.77603 0
M  V30 4637 C 447.218 3.04623 -3.28495 0
M  V30 4638 C 448.962 3.90312 -1.66904 0
M  V30 4639 C 446.869 4.38685 -3.96623 0
M  V30 4640 H 445.799 0.652422 -0.377971 0
M  V30 4641 H 448.45 1.12755 -1.44771 0
M  V30 4642 H 446.832 3.74878 -1.27604 0
M  V30 4643 H 448.006 2.52032 -3.85767 0
M  V30 4644 H 446.321 2.40827 -3.39693 0
M  V30 4645 H 448.918 4.8951 -2.15138 0
M  V30 4646 H 449.261 4.11558 -0.62658 0
M  V30 4647 H 449.794 3.35104 -2.14359 0
M  V30 4648 H 446.533 4.22641 -5.01054 0
M  V30 4649 H 446.053 4.91252 -3.4414 0
M  V30 4650 H 447.732 5.075 -4.01314 0
M  V30 4651 N 447.864 1.01787 1.20321 0
M  V30 4652 C 448.797 0.533882 2.21867 0
M  V30 4653 C 449.775 -0.419361 1.57099 0
M  V30 4654 O 450.959 -0.339062 1.85426 0
M  V30 4655 C 448.086 -0.222899 3.37966 0
M  V30 4656 C 447.132 0.680091 4.21043 0
M  V30 4657 S 447.965 2.14997 4.90445 0
M  V30 4658 C 449.121 1.40339 6.09964 0
M  V30 4659 H 449.354 1.39429 2.62577 0
M  V30 4660 H 446.887 0.826867 1.30393 0
M  V30 4661 H 448.845 -0.653425 4.05266 0
M  V30 4662 H 447.506 -1.0589 2.95713 0
M  V30 4663 H 446.699 0.0964704 5.03908 0
M  V30 4664 H 446.301 1.04845 3.59004 0
M  V30 4665 H 448.593 0.68407 6.74038 0
M  V30 4666 H 449.536 2.20823 6.72787 0
M  V30 4667 H 449.944 0.905716 5.57187 0
M  V30 4668 N 449.342 -1.36122 0.79427 0
M  V30 4669 C 450.57 -2.03362 0.380989 0
M  V30 4670 C 450.985 -1.59881 -1.00416 0
M  V30 4671 O 450.342 -0.790515 -1.6449 0
M  V30 4672 C 450.393 -3.58804 0.440649 0
M  V30 4673 O 450.114 -4.007 1.77118 0
M  V30 4674 C 451.615 -4.43296 0.0186117 0
M  V30 4675 H 448.835 -0.652526 0.156367 0
M  V30 4676 H 451.379 -1.73998 1.07447 0
M  V30 4677 H 449.534 -3.8686 -0.204458 0
M  V30 4678 H 449.948 -4.95309 1.72538 0
M  V30 4679 H 451.422 -5.51887 0.111488 0
M  V30 4680 H 451.899 -4.2684 -1.03461 0
M  V30 4681 H 452.505 -4.20512 0.636395 0
M  V30 4682 N 450.82 -0.546701 -1.47814 0
M  V30 4683 C 452.066 -0.0269594 -2.03382 0
M  V30 4684 C 452.421 1.30406 -1.41464 0
M  V30 4685 O 451.714 1.8332 -0.557151 0
M  V30 4686 C 451.908 0.134869 -3.57145 0
M  V30 4687 C 451.737 -1.17891 -4.33972 0
M  V30 4688 C 450.507 -1.74336 -4.74273 0
M  V30 4689 C 452.705 -2.09361 -4.69758 0
M  V30 4690 N 450.687 -2.99829 -5.35701 0
M  V30 4691 C 452.058 -3.19431 -5.31379 0
M  V30 4692 C 454.113 -2.09484 -4.51687 0
M  V30 4693 C 452.816 -4.2971 -5.76838 0
M  V30 4694 C 454.842 -3.18767 -4.98138 0
M  V30 4695 C 454.204 -4.27557 -5.59799 0
M  V30 4696 H 450.303 -0.0517733 -0.780284 0
M  V30 4697 H 452.887 -0.731673 -1.80429 0
M  V30 4698 H 451.058 0.80869 -3.79888 0
M  V30 4699 H 452.79 0.655726 -3.99352 0
M  V30 4700 H 449.545 -1.28265 -4.559 0
M  V30 4701 H 449.969 -3.63765 -5.70968 0
M  V30 4702 H 454.611 -1.26663 -4.03381 0
M  V30 4703 H 452.329 -5.13297 -6.24141 0
M  V30 4704 H 455.915 -3.19937 -4.85934 0
M  V30 4705 H 454.795 -5.10725 -5.95088 0
M  V30 4706 N 452.299 1.55045 -0.282633 0
M  V30 4707 C 453.545 2.00056 0.332481 0
M  V30 4708 C 453.878 1.1708 1.54939 0
M  V30 4709 O 453.153 0.2427 1.9298 0
M  V30 4710 C 453.436 3.53086 0.70725 0
M  V30 4711 C 453.289 4.46813 -0.517521 0
M  V30 4712 C 454.608 4.12245 1.54084 0
M  V30 4713 H 451.727 0.727268 0.119373 0
M  V30 4714 H 454.369 1.85932 -0.391076 0
M  V30 4715 H 452.519 3.65253 1.32372 0
M  V30 4716 H 454.191 4.46579 -1.15607 0
M  V30 4717 H 452.434 4.18163 -1.1542 0
M  V30 4718 H 453.105 5.51595 -0.211426 0
M  V30 4719 H 455.581 4.03401 1.02013 0
M  V30 4720 H 454.457 5.19515 1.77186 0
M  V30 4721 H 454.718 3.62951 2.52427 0
M  V30 4722 N 453.777 0.010035 1.57597 0
M  V30 4723 C 455.005 -0.683413 1.95287 0
M  V30 4724 C 455.42 -1.66747 0.885481 0
M  V30 4725 O 454.777 -1.82003 -0.134629 0
M  V30 4726 C 454.828 -1.40652 3.33015 0
M  V30 4727 O 454.549 -0.461916 4.35658 0
M  V30 4728 C 456.05 -2.19356 3.85225 0
M  V30 4729 H 453.27 -0.189708 0.643624 0
M  V30 4730 H 455.814 0.0641359 2.04399 0
M  V30 4731 H 453.969 -2.10562 3.2518 0
M  V30 4732 H 454.383 -0.973215 5.15392 0
M  V30 4733 H 455.857 -2.65433 4.83993 0
M  V30 4734 H 456.334 -3.02457 3.18459 0
M  V30 4735 H 456.94 -1.54442 3.96267 0
M  V30 4736 N 455.255 -1.55392 -0.262866 0
M  V30 4737 C 456.218 -1.88181 -1.30846 0
M  V30 4738 C 457.218 -0.757079 -1.41862 0
M  V30 4739 O 458.408 -1.02519 -1.40838 0
M  V30 4740 C 455.54 -2.09609 -2.68844 0
M  V30 4741 H 456.733 -2.81659 -1.02997 0
M  V30 4742 H 454.286 -1.48039 -0.501414 0
M  V30 4743 H 455.021 -1.18547 -3.01856 0
M  V30 4744 H 454.806 -2.91508 -2.62231 0
M  V30 4745 H 456.296 -2.36215 -3.44372 0
M  V30 4746 N 456.733 0.527833 -1.48498 0
M  V30 4747 C 457.98 1.28354 -1.56625 0
M  V30 4748 C 458.308 1.93 -0.241096 0
M  V30 4749 O 457.563 1.79967 0.768798 0
M  V30 4750 C 457.862 2.39275 -2.65485 0
M  V30 4751 C 457.528 1.92268 -4.07853 0
M  V30 4752 C 456.19 1.79166 -4.46602 0
M  V30 4753 C 458.542 1.56771 -4.97064 0
M  V30 4754 C 455.87 1.28905 -5.72364 0
M  V30 4755 C 458.222 1.07972 -6.23318 0
M  V30 4756 C 456.886 0.934887 -6.60921 0
M  V30 4757 H 456.156 0.469682 -0.573131 0
M  V30 4758 H 458.803 0.588781 -1.82224 0
M  V30 4759 H 457.108 3.1443 -2.33754 0
M  V30 4760 H 458.805 2.974 -2.68988 0
M  V30 4761 H 455.395 2.03417 -3.77252 0
M  V30 4762 H 459.579 1.65753 -4.67803 0
M  V30 4763 H 454.835 1.16381 -6.00221 0
M  V30 4764 H 459.009 0.795775 -6.91838 0
M  V30 4765 H 456.636 0.543231 -7.58257 0
M  V30 4766 N 458.211 1.37122 0.776871 0
M  V30 4767 C 459.458 1.32047 1.53524 0
M  V30 4768 C 459.786 -0.0965631 1.9426 0
M  V30 4769 O 459.041 -1.06866 1.63945 0
M  V30 4770 C 459.34 2.20068 2.81611 0
M  V30 4771 C 459.006 3.68423 2.59953 0
M  V30 4772 C 457.668 4.08854 2.53755 0
M  V30 4773 C 460.02 4.62431 2.40431 0
M  V30 4774 C 457.348 5.41417 2.26018 0
M  V30 4775 C 459.7 5.95225 2.14219 0
M  V30 4776 C 458.364 6.34767 2.06462 0
M  V30 4777 H 457.634 0.483196 0.561785 0
M  V30 4778 H 460.281 1.69284 0.895268 0
M  V30 4779 H 458.586 1.75809 3.50141 0
M  V30 4780 H 460.283 2.13458 3.39465 0
M  V30 4781 H 456.873 3.36354 2.65638 0
M  V30 4782 H 461.057 4.32057 2.44213 0
M  V30 4783 H 456.313 5.71022 2.18504 0
M  V30 4784 H 460.487 6.67626 1.98112 0
M  V30 4785 H 458.114 7.37413 1.84733 0
M  V30 4786 N 459.689 -1.00246 1.21608 0
M  V30 4787 C 460.652 -2.07233 0.979133 0
M  V30 4788 C 461.652 -1.6072 -0.0508219 0
M  V30 4789 O 462.842 -1.73196 0.186712 0
M  V30 4790 C 459.974 -3.37546 0.477016 0
M  V30 4791 H 461.167 -2.29687 1.92831 0
M  V30 4792 H 458.72 -1.17261 1.03342 0
M  V30 4793 H 459.455 -3.20773 -0.476966 0
M  V30 4794 H 459.24 -3.72638 1.21997 0
M  V30 4795 H 460.73 -4.16285 0.331181 0
M  V30 4796 N 461.167 -1.02423 -1.1978 0
M  V30 4797 C 462.578 -0.748389 -1.71044 0
M  V30 4798 C 462.929 0.732398 -1.82017 0
M  V30 4799 O 462.054 1.57116 -1.48807 0
M  V30 4800 C 462.649 -1.35187 -3.1066 0
M  V30 4801 C 461.208 -1.12472 -3.59203 0
M  V30 4802 C 460.355 -1.45283 -2.36195 0
M  V30 4803 H 463.306 -1.19275 -1.04686 0
M  V30 4804 H 463.327 -0.746408 -3.73107 0
M  V30 4805 H 462.839 -2.4296 -3.02642 0
M  V30 4806 H 460.94 -0.0649983 -3.72543 0
M  V30 4807 H 461.053 -1.81016 -4.43588 0
M  V30 4808 H 459.417 -0.872034 -2.39307 0
M  V30 4809 H 460.2 -2.54129 -2.30811 0
M  V30 4810 N 462.645 1.35699 -0.801477 0
M  V30 4811 C 463.575 2.32436 -0.222658 0
M  V30 4812 C 464.556 1.5723 0.649057 0
M  V30 4813 O 465.741 1.85324 0.580387 0
M  V30 4814 C 462.871 3.41469 0.633719 0
M  V30 4815 C 461.825 4.27774 -0.139083 0
M  V30 4816 C 461.151 5.28082 0.838666 0
M  V30 4817 C 462.451 5.04946 -1.33517 0
M  V30 4818 H 464.145 2.81094 -1.03086 0
M  V30 4819 H 461.691 1.35146 -0.497155 0
M  V30 4820 H 463.644 4.08143 1.04868 0
M  V30 4821 H 462.368 2.91408 1.47475 0
M  V30 4822 H 461.027 3.62673 -0.535156 0
M  V30 4823 H 460.675 4.7429 1.67506 0
M  V30 4824 H 460.375 5.86695 0.32594 0
M  V30 4825 H 461.899 5.97628 1.25194 0
M  V30 4826 H 463.313 5.64593 -0.995349 0
M  V30 4827 H 461.71 5.7303 -1.78202 0
M  V30 4828 H 462.78 4.35886 -2.12442 0
M  V30 4829 N 464.123 0.554532 1.47522 0
M  V30 4830 C 465.351 0.034257 2.06872 0
M  V30 4831 C 465.766 -1.25826 1.40759 0
M  V30 4832 O 465.123 -1.75425 0.503217 0
M  V30 4833 C 465.174 -0.167827 3.6111 0
M  V30 4834 O 464.895 1.07351 4.24744 0
M  V30 4835 C 466.396 -0.72569 4.3732 0
M  V30 4836 H 463.616 0.0446275 0.669514 0
M  V30 4837 H 466.16 0.767181 1.89564 0
M  V30 4838 H 464.315 -0.850872 3.7794 0
M  V30 4839 H 464.729 0.869563 5.17242 0
M  V30 4840 H 466.203 -0.816394 5.45929 0
M  V30 4841 H 466.68 -1.73635 4.0342 0
M  V30 4842 H 467.286 -0.0784292 4.25228 0
M  V30 4843 N 465.601 -1.54893 0.290851 0
M  V30 4844 C 466.847 -2.0023 -0.321867 0
M  V30 4845 C 467.18 -1.179 -1.54316 0
M  V30 4846 O 466.455 -0.25293 -1.92848 0
M  V30 4847 C 466.738 -3.53456 -0.688515 0
M  V30 4848 C 466.591 -4.46532 0.541209 0
M  V30 4849 C 467.91 -4.13057 -1.51895 0
M  V30 4850 H 465.029 -0.727891 -0.115515 0
M  V30 4851 H 467.671 -1.85722 0.400931 0
M  V30 4852 H 465.821 -3.6595 -1.30433 0
M  V30 4853 H 467.493 -4.4596 1.17973 0
M  V30 4854 H 465.736 -4.17545 1.17636 0
M  V30 4855 H 466.407 -5.51475 0.240675 0
M  V30 4856 H 468.883 -4.03937 -0.99872 0
M  V30 4857 H 467.759 -5.20448 -1.74429 0
M  V30 4858 H 468.02 -3.64284 -2.50498 0
M  V30 4859 N 467.08 -0.0183926 -1.57589 0
M  V30 4860 C 468.043 0.951986 -2.08494 0
M  V30 4861 C 469.043 1.26092 -0.997874 0
M  V30 4862 O 470.233 1.20304 -1.25987 0
M  V30 4863 C 467.365 2.27165 -2.54182 0
M  V30 4864 H 468.558 0.511307 -2.95509 0
M  V30 4865 H 466.111 0.229444 -1.54607 0
M  V30 4866 H 466.846 2.75884 -1.70465 0
M  V30 4867 H 466.631 2.06057 -3.33591 0
M  V30 4868 H 468.121 2.9674 -2.93828 0
M  V30 4869 N 468.558 1.5553 0.254621 0
M  V30 4870 C 469.788 1.80784 1.00004 0
M  V30 4871 C 470.196 0.59071 1.79742 0
M  V30 4872 O 469.539 -0.449988 1.78103 0
M  V30 4873 C 469.601 2.99268 1.99196 0
M  V30 4874 C 469.265 4.35595 1.38224 0
M  V30 4875 C 470.262 5.13884 0.788611 0
M  V30 4876 C 467.947 4.82281 1.40393 0
M  V30 4877 C 469.941 6.37004 0.224783 0
M  V30 4878 C 467.628 6.05351 0.836243 0
M  V30 4879 C 468.626 6.82551 0.24769 0
M  V30 4880 O 468.314 8.03297 -0.311249 0
M  V30 4881 H 468.046 0.60565 0.300274 0
M  V30 4882 H 470.6 2.03411 0.285143 0
M  V30 4883 H 468.83 2.72377 2.74496 0
M  V30 4884 H 470.519 3.11682 2.60018 0
M  V30 4885 H 471.285 4.78938 0.764423 0
M  V30 4886 H 467.164 4.22189 1.85142 0
M  V30 4887 H 470.708 6.97203 -0.235235 0
M  V30 4888 H 466.605 6.39776 0.857733 0
M  V30 4889 H 467.373 8.1825 -0.20237 0
M  V30 4890 N 470.036 -0.519951 1.48776 0
M  V30 4891 C 470.968 -1.63973 1.60142 0
M  V30 4892 C 471.981 -1.55404 0.485117 0
M  V30 4893 O 473.17 -1.61682 0.756391 0
M  V30 4894 C 470.27 -3.02676 1.52449 0
M  V30 4895 C 469.443 -3.36624 2.79291 0
M  V30 4896 C 468.502 -4.54652 2.64912 0
M  V30 4897 O 467.528 -4.57374 3.38818 0
M  V30 4898 N 468.73 -5.53432 1.75195 0
M  V30 4899 H 471.495 -1.54656 2.56713 0
M  V30 4900 H 469.056 -0.707439 1.45626 0
M  V30 4901 H 471.048 -3.79525 1.4051 0
M  V30 4902 H 469.618 -3.06018 0.638125 0
M  V30 4903 H 468.838 -2.48855 3.0572 0
M  V30 4904 H 470.126 -3.56094 3.6342 0
M  V30 4905 H 469.524 -5.54018 1.14371 0
M  V30 4906 H 468.081 -6.29459 1.69189 0
M  V30 4907 N 471.514 -1.37532 -0.769588 0
M  V30 4908 C 472.742 -1.36059 -1.55871 0
M  V30 4909 C 473.157 0.053544 -1.88724 0
M  V30 4910 O 472.514 1.01591 -1.5161 0
M  V30 4911 C 472.565 -2.20107 -2.86767 0
M  V30 4912 O 472.286 -3.56009 -2.55321 0
M  V30 4913 C 473.787 -2.26636 -3.80987 0
M  V30 4914 H 471.007 -0.465967 -0.482821 0
M  V30 4915 H 473.551 -1.80901 -0.953686 0
M  V30 4916 H 471.706 -1.78768 -3.43687 0
M  V30 4917 H 472.12 -4.0009 -3.39158 0
M  V30 4918 H 473.594 -2.89763 -4.69831 0
M  V30 4919 H 474.071 -1.2754 -4.20274 0
M  V30 4920 H 474.677 -2.68296 -3.29996 0
M  V30 4921 N 472.992 0.995999 -1.22138 0
M  V30 4922 C 474.238 1.7386 -1.05567 0
M  V30 4923 C 474.593 1.8808 0.405418 0
M  V30 4924 O 473.886 1.41062 1.29661 0
M  V30 4925 C 474.08 3.14553 -1.6968 0
M  V30 4926 C 473.909 3.14053 -3.21871 0
M  V30 4927 C 472.679 3.20121 -3.90961 0
M  V30 4928 C 474.877 2.98451 -4.18845 0
M  V30 4929 N 472.859 3.09342 -5.30265 0
M  V30 4930 C 474.23 2.95667 -5.4496 0
M  V30 4931 C 476.285 2.8282 -4.09777 0
M  V30 4932 C 474.988 2.78852 -6.63049 0
M  V30 4933 C 477.014 2.67364 -5.27513 0
M  V30 4934 C 476.376 2.65264 -6.52544 0
M  V30 4935 H 472.475 0.645989 -0.440706 0
M  V30 4936 H 475.059 1.1831 -1.54631 0
M  V30 4937 H 473.23 3.68353 -1.2317 0
M  V30 4938 H 474.962 3.77358 -1.4623 0
M  V30 4939 H 471.717 3.27679 -3.4194 0
M  V30 4940 H 472.141 3.0727 -6.03253 0
M  V30 4941 H 476.783 2.83243 -3.139 0
M  V30 4942 H 474.501 2.77175 -7.59078 0
M  V30 4943 H 478.087 2.56256 -5.22326 0
M  V30 4944 H 476.967 2.5345 -7.42114 0
M  V30 4945 N 474.47 1.03057 1.19235 0
M  V30 4946 C 475.698 0.747697 1.92917 0
M  V30 4947 C 476.113 -0.69372 1.75593 0
M  V30 4948 O 475.47 -1.47191 1.07894 0
M  V30 4949 C 475.521 1.09159 3.44625 0
M  V30 4950 O 475.242 2.47641 3.61394 0
M  V30 4951 C 476.743 0.831763 4.35427 0
M  V30 4952 H 473.963 0.273453 0.612751 0
M  V30 4953 H 476.507 1.37552 1.51327 0
M  V30 4954 H 474.662 0.508919 3.84043 0
M  V30 4955 H 475.076 2.60499 4.55237 0
M  V30 4956 H 476.55 1.12233 5.4047 0
M  V30 4957 H 477.027 -0.233769 4.38577 0
M  V30 4958 H 477.633 1.39725 4.01693 0
M  V30 4959 N 475.948 -1.35272 0.808662 0
M  V30 4960 C 477.178 -2.02652 0.401953 0
M  V30 4961 C 477.586 -1.6108 -0.992462 0
M  V30 4962 O 476.929 -0.804984 -1.65123 0
M  V30 4963 C 476.991 -3.57174 0.408246 0
M  V30 4964 C 476.655 -4.22019 1.75353 0
M  V30 4965 C 477.652 -4.43552 2.71215 0
M  V30 4966 C 475.337 -4.59093 2.03811 0
M  V30 4967 C 477.331 -5.01264 3.93717 0
M  V30 4968 C 475.018 -5.16519 3.26576 0
M  V30 4969 C 476.016 -5.37546 4.21347 0
M  V30 4970 O 475.704 -5.93761 5.41944 0
M  V30 4971 H 475.436 -0.656495 0.161216 0
M  V30 4972 H 477.99 -1.73829 1.0942 0
M  V30 4973 H 476.22 -3.85197 -0.340608 0
M  V30 4974 H 477.909 -4.05893 0.0235623 0
M  V30 4975 H 478.675 -4.15288 2.50522 0
M  V30 4976 H 474.554 -4.42039 1.30854 0
M  V30 4977 H 478.098 -5.17592 4.67701 0
M  V30 4978 H 473.995 -5.4421 3.47139 0
M  V30 4979 H 474.763 -6.1221 5.43269 0
M  V30 4980 N 477.426 -0.562348 -1.47226 0
M  V30 4981 C 478.672 -0.0485293 -2.03342 0
M  V30 4982 C 479.027 1.28898 -1.42839 0
M  V30 4983 O 478.32 1.82719 -0.576563 0
M  V30 4984 C 478.514 0.0969817 -3.57268 0
M  V30 4985 C 478.343 -1.22487 -4.32697 0
M  V30 4986 C 477.113 -1.79357 -4.72397 0
M  V30 4987 C 479.311 -2.14332 -4.67511 0
M  V30 4988 N 477.293 -3.05493 -5.32491 0
M  V30 4989 C 478.664 -3.25049 -5.27961 0
M  V30 4990 C 480.719 -2.14263 -4.4944 0
M  V30 4991 C 479.422 -4.35804 -5.72248 0
M  V30 4992 C 481.448 -3.24033 -4.94729 0
M  V30 4993 C 480.81 -4.3347 -5.55233 0
M  V30 4994 H 476.909 -0.0600464 -0.779691 0
M  V30 4995 H 479.493 -0.750769 -1.79643 0
M  V30 4996 H 477.664 0.768353 -3.80724 0
M  V30 4997 H 479.396 0.613333 -4.00025 0
M  V30 4998 H 476.151 -1.33093 -4.54514 0
M  V30 4999 H 476.575 -3.698 -5.67077 0
M  V30 5000 H 481.217 -1.30935 -4.02015 0
M  V30 5001 H 478.935 -5.19888 -6.18661 0
M  V30 5002 H 482.521 -3.25073 -4.82513 0
M  V30 5003 H 481.401 -5.17008 -5.89638 0
M  V30 5004 N 478.904 1.54736 -0.299062 0
M  V30 5005 C 480.15 2.00397 0.311244 0
M  V30 5006 C 480.483 1.18716 1.53688 0
M  V30 5007 O 479.758 0.263154 1.92712 0
M  V30 5008 C 480.041 3.53817 0.669761 0
M  V30 5009 C 479.894 4.46239 -0.564882 0
M  V30 5010 C 481.213 4.13856 1.49702 0
M  V30 5011 H 478.332 0.728493 0.111653 0
M  V30 5012 H 480.974 1.85506 -0.410774 0
M  V30 5013 H 479.124 3.66637 1.28491 0
M  V30 5014 H 480.796 4.45328 -1.20337 0
M  V30 5015 H 479.039 4.16916 -1.19849 0
M  V30 5016 H 479.71 5.5134 -0.269918 0
M  V30 5017 H 482.186 4.04461 0.977284 0
M  V30 5018 H 481.062 5.21365 1.71666 0
M  V30 5019 H 481.323 3.65608 2.48563 0
M  V30 5020 N 480.382 0.0267497 1.57577 0
M  V30 5021 C 481.629 -0.652404 1.91703 0
M  V30 5022 C 481.957 -1.72271 0.902936 0
M  V30 5023 O 481.212 -1.955 -0.0884843 0
M  V30 5024 C 481.511 -1.30914 3.3256 0
M  V30 5025 C 481.177 -0.369441 4.49384 0
M  V30 5026 C 479.839 -0.110791 4.81072 0
M  V30 5027 C 482.191 0.275971 5.20469 0
M  V30 5028 C 479.519 0.801116 5.81205 0
M  V30 5029 C 481.871 1.17592 6.21575 0
M  V30 5030 C 480.535 1.44348 6.51705 0
M  V30 5031 H 479.805 -0.238732 0.70149 0
M  V30 5032 H 482.452 0.0880091 1.91298 0
M  V30 5033 H 480.757 -2.12425 3.29216 0
M  V30 5034 H 482.454 -1.84115 3.56234 0
M  V30 5035 H 479.044 -0.581211 4.24641 0
M  V30 5036 H 483.228 0.0892 4.9622 0
M  V30 5037 H 478.484 1.01614 6.02897 0
M  V30 5038 H 482.658 1.68223 6.75777 0
M  V30 5039 H 480.285 2.15176 7.29111 0
M  V30 5040 N 481.861 -1.55662 -0.24637 0
M  V30 5041 C 483.277 -1.48098 -0.594907 0
M  V30 5042 C 483.477 -0.717044 -1.8831 0
M  V30 5043 O 482.533 -0.246618 -2.51293 0
M  V30 5044 C 483.846 -2.92507 -0.697146 0
M  V30 5045 C 485.394 -3.02881 -0.789436 0
M  V30 5046 C 485.869 -4.48598 -0.923232 0
M  V30 5047 N 487.36 -4.52538 -0.988088 0
M  V30 5048 C 488.095 -5.62536 -1.11089 0
M  V30 5049 N 487.591 -6.82342 -1.19919 0
M  V30 5050 N 489.384 -5.50334 -1.14408 0
M  V30 5051 H 481.535 -2.0377 0.599278 0
M  V30 5052 H 483.798 -0.925145 0.20691 0
M  V30 5053 H 483.504 -3.51242 0.179396 0
M  V30 5054 H 483.378 -3.43024 -1.5689 0
M  V30 5055 H 485.765 -2.44226 -1.65643 0
M  V30 5056 H 485.846 -2.55574 0.107482 0
M  V30 5057 H 485.49 -5.07864 -0.0607927 0
M  V30 5058 H 485.42 -4.93587 -1.8352 0
M  V30 5059 H 487.911 -3.66248 -0.931167 0
M  V30 5060 H 488.224 -7.61924 -1.29197 0
M  V30 5061 H 486.569 -6.85102 -1.16876 0
M  V30 5062 H 489.76 -4.5567 -1.07158 0
M  V30 5063 H 489.933 -6.36096 -1.23634 0
M  V30 5064 N 483.339 0.512053 -1.4905 0
M  V30 5065 C 484.271 1.63121 -1.6101 0
M  V30 5066 C 485.284 1.55145 -0.493352 0
M  V30 5067 O 486.473 1.61278 -0.764955 0
M  V30 5068 C 483.573 3.01863 -1.54052 0
M  V30 5069 C 482.746 3.35138 -2.81072 0
M  V30 5070 C 481.805 4.5324 -2.67319 0
M  V30 5071 O 480.831 4.55571 -3.41238 0
M  V30 5072 N 482.033 5.52495 -1.78127 0
M  V30 5073 H 484.798 1.53292 -2.5753 0
M  V30 5074 H 482.359 0.699706 -1.45999 0
M  V30 5075 H 484.351 3.78774 -1.42521 0
M  V30 5076 H 482.921 3.05675 -0.654345 0
M  V30 5077 H 482.141 2.4723 -3.07036 0
M  V30 5078 H 483.429 3.54162 -3.65304 0
M  V30 5079 H 482.827 5.53403 -1.17308 0
M  V30 5080 H 481.384 6.28553 -1.72525 0
M  V30 5081 N 484.817 1.37938 0.762283 0
M  V30 5082 C 486.233 1.18945 1.06415 0
M  V30 5083 C 486.433 0.0321163 2.01474 0
M  V30 5084 O 485.489 -0.624844 2.44647 0
M  V30 5085 C 486.802 2.51218 1.65258 0
M  V30 5086 C 488.35 2.57824 1.7747 0
M  V30 5087 C 488.825 3.90251 2.39725 0
M  V30 5088 N 490.316 3.91744 2.47166 0
M  V30 5089 C 491.051 4.90966 2.96209 0
M  V30 5090 N 490.547 6.00585 3.45354 0
M  V30 5091 N 492.34 4.78363 2.9517 0
M  V30 5092 H 484.491 2.11994 0.131301 0
M  V30 5093 H 486.754 0.940262 0.120879 0
M  V30 5094 H 486.46 3.36317 1.02878 0
M  V30 5095 H 486.334 2.68989 2.64433 0
M  V30 5096 H 488.721 1.73126 2.3898 0
M  V30 5097 H 488.802 2.43928 0.770241 0
M  V30 5098 H 488.446 4.75368 1.78852 0
M  V30 5099 H 488.376 4.01454 3.40796 0
M  V30 5100 H 490.867 3.12563 2.12397 0
M  V30 5101 H 491.18 6.72236 3.81207 0
M  V30 5102 H 489.525 6.04217 3.43434 0
M  V30 5103 H 492.716 3.91841 2.56082 0
M  V30 5104 H 492.889 5.55843 3.33081 0
M  V30 5105 N 486.295 -0.989507 1.22664 0
M  V30 5106 C 487.544 -1.72375 1.04737 0
M  V30 5107 C 487.857 -1.91096 -0.417316 0
M  V30 5108 O 489.063 -2.6188 -0.716334 0
M  V30 5109 C 487.519 -3.10161 1.82561 0
M  V30 5110 C 487.127 -2.99358 3.333 0
M  V30 5111 C 488.871 -3.87607 1.73093 0
M  V30 5112 C 486.778 -4.32319 4.03552 0
M  V30 5113 H 485.708 -0.646326 0.388302 0
M  V30 5114 H 488.359 -1.10437 1.46546 0
M  V30 5115 H 486.741 -3.728 1.33552 0
M  V30 5116 H 487.915 -2.45863 3.89728 0
M  V30 5117 H 486.23 -2.35392 3.43481 0
M  V30 5118 H 488.827 -4.86025 2.22899 0
M  V30 5119 H 489.17 -4.10509 0.691976 0
M  V30 5120 H 489.703 -3.31652 2.19663 0
M  V30 5121 H 486.442 -4.14616 5.07714 0
M  V30 5122 H 485.962 -4.85714 3.51911 0
M  V30 5123 H 487.641 -5.01051 4.09337 0
M  V30 5124 N 487.773 -1.03688 -1.18687 0
M  V30 5125 C 488.998 -0.757819 -1.93059 0
M  V30 5126 C 489.423 0.678353 -1.75442 0
M  V30 5127 O 488.781 1.46938 -1.06203 0
M  V30 5128 C 488.829 -1.12423 -3.42627 0
M  V30 5129 O 487.933 -0.247505 -4.11657 0
M  V30 5130 H 487.274 -0.279245 -0.602427 0
M  V30 5131 H 489.804 -1.3857 -1.5053 0
M  V30 5132 H 489.814 -1.08454 -3.93322 0
M  V30 5133 H 488.489 -2.17049 -3.54771 0
M  V30 5134 H 487.066 -0.34649 -3.71287 0
M  V30 5135 N 489.251 1.34841 -0.815825 0
M  V30 5136 C 490.214 2.27959 -0.238185 0
M  V30 5137 C 491.214 1.49983 0.579816 0
M  V30 5138 O 492.404 1.69617 0.396953 0
M  V30 5139 C 489.536 3.34314 0.666876 0
M  V30 5140 H 490.729 2.80558 -1.05958 0
M  V30 5141 H 488.282 1.44852 -0.587156 0
M  V30 5142 H 489.017 2.86916 1.5116 0
M  V30 5143 H 488.802 3.92014 0.0819106 0
M  V30 5144 H 490.292 4.0379 1.06506 0
M  V30 5145 N 490.729 0.570148 1.46925 0
M  V30 5146 C 491.639 -0.173061 2.33961 0
M  V30 5147 C 492.655 -0.898825 1.48987 0
M  V30 5148 O 493.831 -0.864825 1.81887 0
M  V30 5149 C 490.896 -1.18177 3.25937 0
M  V30 5150 C 489.957 -0.462041 4.26806 0
M  V30 5151 C 489.19 -1.4227 5.14388 0
M  V30 5152 O 489.413 -2.65842 5.04662 0
M  V30 5153 O 488.347 -0.940127 5.94513 0
M  V30 5154 H 492.173 0.541216 2.98839 0
M  V30 5155 H 489.758 0.330647 1.45695 0
M  V30 5156 H 491.64 -1.76372 3.82715 0
M  V30 5157 H 490.315 -1.87774 2.63671 0
M  V30 5158 H 489.222 0.161429 3.73752 0
M  V30 5159 H 490.555 0.192719 4.91823 0
M  V30 5160 N 492.207 -1.54576 0.307264 0
M  V30 5161 C 493.623 -1.59534 -0.0459251 0
M  V30 5162 C 493.823 -1.32414 -1.51884 0
M  V30 5163 O 492.879 -1.1006 -2.27251 0
M  V30 5164 C 494.192 -2.98566 0.357649 0
M  V30 5165 C 495.74 -3.11491 0.306937 0
M  V30 5166 C 496.215 -4.52842 0.685427 0
M  V30 5167 N 497.706 -4.58782 0.638203 0
M  V30 5168 C 498.441 -5.66238 0.903458 0
M  V30 5169 N 497.937 -6.81703 1.23501 0
M  V30 5170 N 499.73 -5.55937 0.830102 0
M  V30 5171 H 491.881 -1.70464 1.26712 0
M  V30 5172 H 494.144 -0.79647 0.514139 0
M  V30 5173 H 493.85 -3.23356 1.38325 0
M  V30 5174 H 493.724 -3.76117 -0.285565 0
M  V30 5175 H 496.111 -2.86446 -0.709424 0
M  V30 5176 H 496.192 -2.36081 0.984861 0
M  V30 5177 H 495.836 -4.78618 1.69963 0
M  V30 5178 H 495.766 -5.26598 -0.0146346 0
M  V30 5179 H 498.257 -3.75849 0.393138 0
M  V30 5180 H 498.57 -7.59582 1.42322 0
M  V30 5181 H 496.915 -6.8324 1.27311 0
M  V30 5182 H 500.106 -4.64608 0.570693 0
M  V30 5183 H 500.279 -6.39597 1.04019 0
M  V30 5184 N 493.685 -0.035106 -1.57561 0
M  V30 5185 C 494.934 0.641604 -1.91223 0
M  V30 5186 C 495.247 1.72944 -0.913761 0
M  V30 5187 O 496.453 2.46321 -1.14185 0
M  V30 5188 C 494.909 1.19249 -3.3957 0
M  V30 5189 C 494.517 0.137616 -4.47789 0
M  V30 5190 C 496.261 1.84537 -3.82291 0
M  V30 5191 C 494.168 0.700478 -5.87237 0
M  V30 5192 H 493.098 0.243417 -0.713627 0
M  V30 5193 H 495.749 -0.101382 -1.8322 0
M  V30 5194 H 494.131 1.98728 -3.42525 0
M  V30 5195 H 495.305 -0.635153 -4.56402 0
M  V30 5196 H 493.62 -0.416855 -4.14308 0
M  V30 5197 H 496.217 2.27616 -4.83834 0
M  V30 5198 H 496.56 2.69054 -3.17672 0
M  V30 5199 H 497.093 1.11739 -3.81784 0
M  V30 5200 H 493.832 -0.106693 -6.55413 0
M  V30 5201 H 493.352 1.4416 -5.82218 0
M  V30 5202 H 495.031 1.18837 -6.35993 0
M  V30 5203 N 495.163 1.55791 0.238111 0
M  V30 5204 C 496.574 1.68383 0.806472 0
M  V30 5205 C 496.925 0.634157 1.85669 0
M  V30 5206 O 496.05 -0.217913 2.153 0
M  V30 5207 C 496.645 3.05268 1.46959 0
M  V30 5208 C 495.204 3.1977 1.98555 0
M  V30 5209 C 494.351 2.64279 0.839763 0
M  V30 5210 H 497.302 1.58694 0.0137535 0
M  V30 5211 H 497.323 3.00203 2.33792 0
M  V30 5212 H 496.835 3.81643 0.704993 0
M  V30 5213 H 494.936 2.48234 2.77868 0
M  V30 5214 H 495.049 4.26788 2.17689 0
M  V30 5215 H 493.413 2.22329 1.24265 0
M  V30 5216 H 494.196 3.43187 0.0881032 0
M  V30 5217 N 496.642 -0.504142 1.49319 0
M  V30 5218 C 498.053 -1.08572 1.51885 0
M  V30 5219 C 498.404 -1.93842 0.303255 0
M  V30 5220 O 497.529 -2.0828 -0.58724 0
M  V30 5221 C 498.124 -1.97574 2.75227 0
M  V30 5222 C 496.683 -2.509 2.80581 0
M  V30 5223 C 495.83 -1.28447 2.45757 0
M  V30 5224 H 498.781 -0.288194 1.56061 0
M  V30 5225 H 498.802 -2.82219 2.55211 0
M  V30 5226 H 498.314 -1.35486 3.63683 0
M  V30 5227 H 496.415 -3.16636 1.96398 0
M  V30 5228 H 496.528 -2.88268 3.82673 0
M  V30 5229 H 494.892 -1.60868 1.97468 0
M  V30 5230 H 495.675 -0.68072 3.36483 0
M  V30 5231 N 498.12 -1.38341 -0.754957 0
M  V30 5232 C 499.531 -1.30803 -1.3322 0
M  V30 5233 C 499.882 0.0368 -1.96165 0
M  V30 5234 O 499.007 0.938844 -1.94974 0
M  V30 5235 C 499.602 -2.3688 -2.42225 0
M  V30 5236 C 498.161 -2.32925 -2.95674 0
M  V30 5237 C 497.308 -2.19819 -1.69042 0
M  V30 5238 H 500.259 -1.48719 -0.553937 0
M  V30 5239 H 500.28 -2.02517 -3.22129 0
M  V30 5240 H 499.792 -3.34747 -1.96383 0
M  V30 5241 H 497.893 -1.38635 -3.45848 0
M  V30 5242 H 498.006 -3.27008 -3.50146 0
M  V30 5243 H 496.37 -1.66648 -1.92615 0
M  V30 5244 H 497.153 -3.19625 -1.25279 0
M  V30 5245 N 499.598 0.982988 -1.23187 0
M  V30 5246 C 500.826 1.75921 -1.08901 0
M  V30 5247 C 501.241 1.85341 0.359719 0
M  V30 5248 O 500.598 1.33072 1.24892 0
M  V30 5249 C 500.649 3.18742 -1.70545 0
M  V30 5250 O 500.37 3.09814 -3.09753 0
M  V30 5251 C 501.871 4.1277 -1.61667 0
M  V30 5252 H 499.091 0.552166 -0.381252 0
M  V30 5253 H 501.635 1.23516 -1.62985 0
M  V30 5254 H 499.79 3.68182 -1.20501 0
M  V30 5255 H 500.204 3.99703 -3.39614 0
M  V30 5256 H 501.678 5.10697 -2.09506 0
M  V30 5257 H 502.155 4.3542 -0.575009 0
M  V30 5258 H 502.761 3.69232 -2.11064 0
M  V30 5259 N 501.076 1.04316 1.18135 0
M  V30 5260 C 502.324 0.746542 1.87806 0
M  V30 5261 C 502.645 -0.728082 1.80898 0
M  V30 5262 O 501.915 -1.52554 1.22899 0
M  V30 5263 H 500.495 0.273157 0.695265 0
M  V30 5264 H 503.157 1.32044 1.43354 0
M  V30 5265 H 502.253 1.05362 2.93778 0
M  V30 5266 N 502.554 -1.34406 0.822964 0
M  V30 5267 C 503.484 -2.32052 0.259608 0
M  V30 5268 C 504.465 -1.58243 -0.623961 0
M  V30 5269 O 505.65 -1.86224 -0.55083 0
M  V30 5270 C 502.78 -3.42434 -0.579314 0
M  V30 5271 C 501.734 -4.27499 0.20712 0
M  V30 5272 C 501.06 -5.29349 -0.754547 0
M  V30 5273 C 502.36 -5.02758 1.41533 0
M  V30 5274 H 504.054 -2.79418 1.07545 0
M  V30 5275 H 501.6 -1.34338 0.518593 0
M  V30 5276 H 503.553 -4.0976 -0.983612 0
M  V30 5277 H 502.277 -2.93717 -1.4282 0
M  V30 5278 H 500.936 -3.61776 0.592787 0
M  V30 5279 H 500.584 -4.76895 -1.59939 0
M  V30 5280 H 500.284 -5.8714 -0.232561 0
M  V30 5281 H 501.808 -5.99544 -1.1567 0
M  V30 5282 H 503.222 -5.62938 1.08504 0
M  V30 5283 H 501.619 -5.70123 1.87296 0
M  V30 5284 H 502.689 -4.32451 2.1935 0
M  V30 5285 N 504.032 -0.577932 -1.46621 0
M  V30 5286 C 504.995 0.147805 -2.28723 0
M  V30 5287 C 505.995 0.823325 -1.38123 0
M  V30 5288 O 507.185 0.676011 -1.60548 0
M  V30 5289 C 504.317 1.21853 -3.18378 0
M  V30 5290 H 505.51 -0.573654 -2.94362 0
M  V30 5291 H 503.063 -0.335703 -1.52652 0
M  V30 5292 H 503.798 1.97173 -2.57475 0
M  V30 5293 H 503.583 0.738714 -3.85078 0
M  V30 5294 H 505.073 1.72768 -3.80186 0
M  V30 5295 N 505.51 1.54411 -0.315457 0
M  V30 5296 C 506.926 1.59556 0.037464 0
M  V30 5297 C 507.126 1.33217 1.5118 0
M  V30 5298 O 506.182 1.11264 2.26664 0
M  V30 5299 C 507.495 2.98372 -0.373477 0
M  V30 5300 C 509.043 3.11324 -0.323452 0
M  V30 5301 C 509.518 4.52472 -0.709433 0
M  V30 5302 N 511.009 4.58437 -0.662524 0
M  V30 5303 C 511.744 5.65751 -0.933474 0
M  V30 5304 N 511.24 6.81039 -1.27114 0
M  V30 5305 N 513.033 5.55489 -0.859573 0
M  V30 5306 H 505.184 1.6979 -1.27614 0
M  V30 5307 H 507.447 0.793732 -0.518356 0
M  V30 5308 H 507.153 3.22618 -1.40037 0
M  V30 5309 H 507.027 3.76264 0.265615 0
M  V30 5310 H 509.414 2.86818 0.694223 0
M  V30 5311 H 509.495 2.35555 -0.997367 0
M  V30 5312 H 509.139 4.7771 -1.72498 0
M  V30 5313 H 509.069 5.26598 -0.0132923 0
M  V30 5314 H 511.56 3.75636 -0.413065 0
M  V30 5315 H 511.873 7.58816 -1.46348 0
M  V30 5316 H 510.218 6.82555 -1.30932 0
M  V30 5317 H 513.409 4.64299 -0.595324 0
M  V30 5318 H 513.582 6.39036 -1.0741 0
M  V30 5319 N 506.988 0.0434614 1.5754 0
M  V30 5320 C 508.404 -0.313039 1.565 0
M  V30 5321 C 508.604 -1.71954 1.05043 0
M  V30 5322 O 507.66 -2.425 0.703564 0
M  V30 5323 C 508.973 -0.148544 3.00333 0
M  V30 5324 C 510.521 -0.220231 3.12224 0
M  V30 5325 C 510.996 -0.0843565 4.57922 0
M  V30 5326 N 512.487 -0.140881 4.62986 0
M  V30 5327 C 513.222 -0.0597443 5.73369 0
M  V30 5328 N 512.718 0.0733004 6.92761 0
M  V30 5329 N 514.511 -0.11477 5.61983 0
M  V30 5330 H 506.662 0.96303 1.89313 0
M  V30 5331 H 508.925 0.373164 0.871466 0
M  V30 5332 H 508.631 0.820894 3.41986 0
M  V30 5333 H 508.505 -0.912798 3.65989 0
M  V30 5334 H 510.892 -1.18014 2.70475 0
M  V30 5335 H 510.973 0.574646 2.49262 0
M  V30 5336 H 510.617 0.872192 5.00355 0
M  V30 5337 H 510.547 -0.898281 5.18882 0
M  V30 5338 H 513.038 -0.243273 3.77116 0
M  V30 5339 H 513.351 0.128128 7.72694 0
M  V30 5340 H 511.696 0.10828 6.94916 0
M  V30 5341 H 514.887 -0.217212 4.67596 0
M  V30 5342 H 515.06 -0.0480779 6.47982 0
M  V30 5343 N 508.466 -1.55915 -0.229846 0
M  V30 5344 C 509.429 -1.90914 -1.26824 0
M  V30 5345 C 510.429 -0.786999 -1.40225 0
M  V30 5346 O 511.619 -1.05484 -1.38632 0
M  V30 5347 C 508.751 -2.15264 -2.64337 0
M  V30 5348 H 509.944 -2.8378 -0.969998 0
M  V30 5349 H 507.497 -1.49069 -0.4699 0
M  V30 5350 H 508.232 -1.24923 -2.99274 0
M  V30 5351 H 508.017 -2.97005 -2.55989 0
M  V30 5352 H 509.507 -2.43467 -3.39284 0
M  V30 5353 N 509.944 0.496216 -1.49584 0
M  V30 5354 C 511.355 1.07765 -1.52459 0
M  V30 5355 C 511.706 1.93679 -0.31353 0
M  V30 5356 O 510.831 2.08588 0.576186 0
M  V30 5357 C 511.426 1.96111 -2.76271 0
M  V30 5358 C 509.985 2.49409 -2.81908 0
M  V30 5359 C 509.132 1.27142 -2.46435 0
M  V30 5360 H 512.083 0.279914 -1.56212 0
M  V30 5361 H 512.104 2.80862 -2.56704 0
M  V30 5362 H 511.616 1.33555 -3.64396 0
M  V30 5363 H 509.717 3.1559 -1.98074 0
M  V30 5364 H 509.83 2.86234 -3.84196 0
M  V30 5365 H 508.194 1.59818 -1.98319 0
M  V30 5366 H 508.977 0.662866 -3.3684 0
M  V30 5367 O 511.461 1.48211 0.641547 0
M  V30 5368 H 512.152 1.44016 1.29535 0
M  V30 END ATOM
M  V30 BEGIN BOND
M  V30 END BOND
M  V30 END CTAB
M  END
$$$$
