drugbank_target|Q8NET8 Transient receptor potential cation channel subfamily V member 3 (DB00825; DB01744; DB09061; DB09086; DB11345; DB14009; DB14011)
 OpenBabel12092120313D

  0  0  0     0  0            999 V3000
M  V30 BEGIN CTAB
M  V30 COUNTS 12802 12945 0 0 0
M  V30 BEGIN ATOM
M  V30 1 H -0.908 1.98254 -0.117106 0
M  V30 2 N 0 1.576 0 0
M  V30 3 C 0.933 2.03868 1.02534 0
M  V30 4 C 1.911 0.928543 1.3348 0
M  V30 5 O 3.095 1.19667 1.45644 0
M  V30 6 C 0.222 2.43627 2.35294 0
M  V30 7 C -0.732 3.65373 2.2001 0
M  V30 8 S 0.101 5.13292 1.52614 0
M  V30 9 C 1.257 5.56322 2.86805 0
M  V30 10 H 1.49 2.90518 0.631377 0
M  V30 11 H -0.977 1.52953 0.210867 0
M  V30 12 H 0.981 2.67203 3.11629 0
M  V30 13 H -0.358 1.57376 2.7183 0
M  V30 14 H -1.165 3.90944 3.18086 0
M  V30 15 H -1.563 3.418 1.51819 0
M  V30 16 H 0.729 5.58782 3.83104 0
M  V30 17 H 1.672 6.56266 2.65933 0
M  V30 18 H 2.08 4.83886 2.90714 0
M  V30 19 N 1.4781 -0.272755 1.55222 0
M  V30 20 C 2.4251 -1.33716 1.88119 0
M  V30 21 C 3.3951 -1.49066 0.73271 0
M  V30 22 O 4.5801 -1.63469 0.984002 0
M  V30 23 C 1.7201 -2.69238 2.15882 0
M  V30 24 C 0.8331 -2.62108 3.43399 0
M  V30 25 C -0.0319 -3.89811 3.60861 0
M  V30 26 C -0.9929 -3.77193 4.8207 0
M  V30 27 N -1.8559 -4.9673 4.96189 0
M  V30 28 H 2.9841 -1.04962 2.78903 0
M  V30 29 H 0.5211 -0.507088 1.38083 0
M  V30 30 H 2.4791 -3.48089 2.29978 0
M  V30 31 H 1.1091 -2.96194 1.28331 0
M  V30 32 H 0.1611 -1.74967 3.37773 0
M  V30 33 H 1.4731 -2.48685 4.32386 0
M  V30 34 H 0.6271 -4.77103 3.74777 0
M  V30 35 H -0.6339 -4.06102 2.7006 0
M  V30 36 H -1.6289 -2.88284 4.68159 0
M  V30 37 H -0.4039 -3.62421 5.74307 0
M  V30 38 H -2.4579 -5.13431 4.08319 0
M  V30 39 H -2.5409 -4.85839 5.79221 0
M  V30 40 H -1.2729 -5.85594 5.1449 0
M  V30 41 N 2.9562 -1.48159 -0.537278 0
M  V30 42 C 3.9192 -1.61665 -1.62472 0
M  V30 43 C 4.9192 -0.490395 -1.5314 0
M  V30 44 O 6.1092 -0.755998 -1.5694 0
M  V30 45 C 3.2412 -1.57997 -3.02076 0
M  V30 46 H 4.4342 -2.58621 -1.51839 0
M  V30 47 H 1.9872 -1.36647 -0.758771 0
M  V30 48 H 2.7222 -0.624913 -3.18222 0
M  V30 49 H 2.5072 -2.39755 -3.10258 0
M  V30 50 H 3.9972 -1.70627 -3.81151 0
M  V30 51 N 4.4343 0.785586 -1.36625 0
M  V30 52 C 5.3843 1.88822 -1.27789 0
M  V30 53 C 6.3683 1.60014 -0.168579 0
M  V30 54 O 7.5603 1.72381 -0.401737 0
M  V30 55 C 4.6893 3.26092 -1.07327 0
M  V30 56 C 3.7753 3.60897 -2.22743 0
M  V30 57 N 4.1663 3.66982 -3.48077 0
M  V30 58 C 2.4643 3.90981 -2.14593 0
M  V30 59 C 3.1653 3.98137 -4.24101 0
M  V30 60 N 2.1413 4.13319 -3.53084 0
M  V30 61 H 5.9433 1.91759 -2.22723 0
M  V30 62 H 3.4573 0.981311 -1.29399 0
M  V30 63 H 5.4543 4.04954 -0.990842 0
M  V30 64 H 4.1143 3.24428 -0.132977 0
M  V30 65 H 5.1253 3.49531 -3.82163 0
M  V30 66 H 1.8023 3.9722 -1.2854 0
M  V30 67 H 3.1923 4.09737 -5.32509 0
M  V30 68 N 5.9124 1.20967 1.01018 0
M  V30 69 C 7.3234 1.02319 1.56165 0
M  V30 70 C 7.6744 -0.418546 1.91684 0
M  V30 71 O 6.7994 -1.30096 1.72928 0
M  V30 72 C 7.3944 1.85109 2.8376 0
M  V30 73 C 5.9534 1.70809 3.35412 0
M  V30 74 C 5.1004 1.82643 2.08655 0
M  V30 75 H 8.0514 1.35065 0.833255 0
M  V30 76 H 8.0724 1.35827 3.55431 0
M  V30 77 H 7.5844 2.90035 2.57878 0
M  V30 78 H 5.6854 0.685464 3.66241 0
M  V30 79 H 5.7984 2.52467 4.07182 0
M  V30 80 H 4.1624 1.25896 2.21409 0
M  V30 81 H 4.9454 2.89066 1.85191 0
M  V30 82 N 7.3905 -1.2043 1.01659 0
M  V30 83 C 8.3375 -2.23215 0.586822 0
M  V30 84 C 9.3075 -1.61382 -0.393085 0
M  V30 85 O 10.4925 -1.88544 -0.292525 0
M  V30 86 C 7.6325 -3.45032 -0.0687464 0
M  V30 87 C 6.7455 -4.21296 0.955724 0
M  V30 88 C 5.8805 -5.30507 0.271208 0
M  V30 89 C 4.9195 -5.98515 1.28244 0
M  V30 90 N 4.0565 -6.99316 0.62459 0
M  V30 91 H 8.8965 -2.59336 1.46796 0
M  V30 92 H 6.4335 -1.27431 0.734836 0
M  V30 93 H 8.3915 -4.1459 -0.465965 0
M  V30 94 H 7.0215 -3.09604 -0.913529 0
M  V30 95 H 6.0735 -3.50803 1.4711 0
M  V30 96 H 7.3855 -4.6803 1.72479 0
M  V30 97 H 6.5395 -6.06428 -0.18151 0
M  V30 98 H 5.2785 -4.8481 -0.530163 0
M  V30 99 H 4.2835 -5.21355 1.74554 0
M  V30 100 H 5.5085 -6.46298 2.08509 0
M  V30 101 H 3.4545 -6.55812 -0.156914 0
M  V30 102 H 3.3715 -7.44178 1.33172 0
M  V30 103 H 4.6395 -7.79255 0.195462 0
M  V30 104 N 8.8686 -0.792821 -1.36206 0
M  V30 105 C 9.7786 -0.194808 -2.3379 0
M  V30 106 C 10.7946 0.654869 -1.61206 0
M  V30 107 O 11.9706 0.569856 -1.9317 0
M  V30 108 C 9.0356 0.657721 -3.40404 0
M  V30 109 C 8.0966 -0.210849 -4.28782 0
M  V30 110 C 7.3296 0.601086 -5.30304 0
M  V30 111 O 7.5526 1.83682 -5.40016 0
M  V30 112 O 6.4866 -0.000808277 -6.019 0
M  V30 113 H 10.3126 -1.00172 -2.86704 0
M  V30 114 H 7.8976 -0.554341 -1.38735 0
M  V30 115 H 9.7796 1.14375 -4.05581 0
M  V30 116 H 8.4546 1.44247 -2.89784 0
M  V30 117 H 7.3616 -0.743714 -3.66633 0
M  V30 118 H 8.6946 -0.959195 -4.82763 0
M  V30 119 N 10.3467 1.47872 -0.545128 0
M  V30 120 C 11.2797 2.2675 0.256885 0
M  V30 121 C 12.2577 1.33293 0.931228 0
M  V30 122 O 13.4417 1.62657 0.95262 0
M  V30 123 C 10.5687 3.09976 1.36501 0
M  V30 124 C 9.6147 4.1892 0.800496 0
M  V30 125 S 10.4477 5.34397 -0.343505 0
M  V30 126 C 11.6037 6.21186 0.766733 0
M  V30 127 H 11.8367 2.94425 -0.412479 0
M  V30 128 H 9.3697 1.50806 -0.331204 0
M  V30 129 H 11.3277 3.585 1.9997 0
M  V30 130 H 9.9887 2.41686 2.00616 0
M  V30 131 H 9.1817 4.76836 1.63227 0
M  V30 132 H 8.7837 3.73215 0.242217 0
M  V30 133 H 11.0757 6.56804 1.66178 0
M  V30 134 H 12.0187 7.07742 0.225204 0
M  V30 135 H 12.4267 5.54574 1.05396 0
M  V30 136 N 11.8248 0.280983 1.55075 0
M  V30 137 C 13.0708 -0.33461 2.00021 0
M  V30 138 C 13.4038 -1.55063 1.16915 0
M  V30 139 O 12.6788 -1.93006 0.240646 0
M  V30 140 C 12.9618 -0.711007 3.53011 0
M  V30 141 C 12.8148 0.512766 4.46868 0
M  V30 142 C 14.1338 -1.54522 4.12081 0
M  V30 143 H 11.2528 -0.120147 0.727141 0
M  V30 144 H 13.8948 0.389097 1.85973 0
M  V30 145 H 12.0448 -1.32761 3.65112 0
M  V30 146 H 13.7168 1.15131 4.46702 0
M  V30 147 H 11.9598 1.14975 4.18286 0
M  V30 148 H 12.6308 0.205556 5.51617 0
M  V30 149 H 15.1068 -1.02442 4.03293 0
M  V30 150 H 13.9828 -1.77739 5.19327 0
M  V30 151 H 14.2438 -2.52813 3.62682 0
M  V30 152 N 13.3029 -1.57598 0.00835791 0
M  V30 153 C 14.7139 -1.7892 -0.53333 0
M  V30 154 C 15.0649 -0.916609 -1.73473 0
M  V30 155 O 14.1899 -0.121336 -2.1606 0
M  V30 156 C 14.7849 -3.24488 -0.974313 0
M  V30 157 C 13.3439 -3.46878 -1.46125 0
M  V30 158 C 12.4909 -2.74157 -0.416302 0
M  V30 159 H 15.4419 -1.56958 0.234495 0
M  V30 160 H 15.4629 -3.3306 -1.83988 0
M  V30 161 H 14.9749 -3.87972 -0.099718 0
M  V30 162 H 13.0759 -2.8862 -2.35646 0
M  V30 163 H 13.1889 -4.55572 -1.48295 0
M  V30 164 H 11.5529 -2.39022 -0.87981 0
M  V30 165 H 12.3359 -3.40345 0.44947 0
M  V30 166 N 14.781 0.264519 -1.55364 0
M  V30 167 C 15.711 1.33121 -1.91836 0
M  V30 168 C 16.692 1.51101 -0.781192 0
M  V30 169 O 17.877 1.64003 -1.04003 0
M  V30 170 C 15.007 2.68921 -2.19769 0
M  V30 171 C 13.961 2.65661 -3.35571 0
M  V30 172 C 13.287 4.05093 -3.49004 0
M  V30 173 C 14.587 2.24187 -4.71739 0
M  V30 174 H 16.281 1.02844 -2.81182 0
M  V30 175 H 13.827 0.493286 -1.35287 0
M  V30 176 H 15.78 3.43663 -2.43872 0
M  V30 177 H 14.504 3.00799 -1.27231 0
M  V30 178 H 13.163 1.93377 -3.1145 0
M  V30 179 H 12.811 4.34206 -2.53917 0
M  V30 180 H 12.511 4.03804 -4.26868 0
M  V30 181 H 14.035 4.81561 -3.75408 0
M  V30 182 H 15.449 2.88654 -4.9533 0
M  V30 183 H 13.846 2.34044 -5.52579 0
M  V30 184 H 14.916 1.19327 -4.69988 0
M  V30 185 N 16.2591 1.48442 0.529413 0
M  V30 186 C 17.1921 1.57577 1.65059 0
M  V30 187 C 18.1701 0.426198 1.56915 0
M  V30 188 O 19.3541 0.637877 1.77379 0
M  V30 189 C 16.4811 1.5043 3.03461 0
M  V30 190 C 15.5271 2.70235 3.29962 0
M  V30 191 S 16.3601 4.32198 3.16172 0
M  V30 192 C 17.5161 4.2765 4.57019 0
M  V30 193 H 17.7491 2.52427 1.5706 0
M  V30 194 H 15.2821 1.36982 0.712417 0
M  V30 195 H 17.2401 1.46992 3.8328 0
M  V30 196 H 15.9011 0.569167 3.089 0
M  V30 197 H 15.0941 2.61374 4.30929 0
M  V30 198 H 14.6961 2.70938 2.57815 0
M  V30 199 H 16.9881 3.97618 5.48549 0
M  V30 200 H 17.9311 5.28797 4.70934 0
M  V30 201 H 18.3391 3.5811 4.36368 0
M  V30 202 N 17.7372 -0.778329 1.37039 0
M  V30 203 C 18.9852 -1.53361 1.31623 0
M  V30 204 C 19.3062 -1.94739 -0.100831 0
M  V30 205 O 18.5762 -1.65797 -1.04347 0
M  V30 206 H 17.1562 -0.568794 0.484234 0
M  V30 207 H 19.8182 -0.926742 1.71457 0
M  V30 208 H 18.9142 -2.43606 1.95096 0
M  V30 209 N 19.2153 -1.21501 -1.00376 0
M  V30 210 C 20.1623 -0.975387 -2.09177 0
M  V30 211 C 21.1323 0.0990615 -1.65804 0
M  V30 212 O 22.3173 -0.0483147 -1.90739 0
M  V30 213 C 19.4573 -0.547507 -3.40729 0
M  V30 214 C 18.5703 -1.69153 -3.97506 0
M  V30 215 C 17.7053 -1.2127 -5.17172 0
M  V30 216 C 16.7443 -2.32897 -5.66061 0
M  V30 217 N 15.8813 -1.86138 -6.76976 0
M  V30 218 H 20.7213 -1.9068 -2.29009 0
M  V30 219 H 18.2583 -0.950257 -1.12288 0
M  V30 220 H 20.2163 -0.280667 -4.16255 0
M  V30 221 H 18.8463 0.346904 -3.20931 0
M  V30 222 H 17.8983 -2.07298 -3.18954 0
M  V30 223 H 19.2103 -2.5316 -4.29781 0
M  V30 224 H 18.3643 -0.902591 -5.99948 0
M  V30 225 H 17.1033 -0.342692 -4.86495 0
M  V30 226 H 16.1083 -2.64709 -4.81881 0
M  V30 227 H 17.3333 -3.20396 -5.98768 0
M  V30 228 H 15.2793 -1.01484 -6.48103 0
M  V30 229 H 15.1963 -2.63717 -7.08512 0
M  V30 230 H 16.4643 -1.58165 -7.63285 0
M  V30 231 N 20.6934 1.19889 -1.02296 0
M  V30 232 C 22.1094 1.41462 -0.738954 0
M  V30 233 C 22.3094 1.89721 0.678846 0
M  V30 234 O 21.3654 2.07016 1.4457 0
M  V30 235 C 22.6784 2.43083 -1.77005 0
M  V30 236 C 24.2264 2.5684 -1.78892 0
M  V30 237 C 24.7014 3.61709 -2.80945 0
M  V30 238 N 26.1924 3.69199 -2.79725 0
M  V30 239 C 26.9274 4.50019 -3.55345 0
M  V30 240 N 26.4234 5.34592 -4.40662 0
M  V30 241 N 28.2164 4.44612 -3.43914 0
M  V30 242 H 20.3674 0.868827 -1.93817 0
M  V30 243 H 22.6304 0.44399 -0.837602 0
M  V30 244 H 22.3364 2.14636 -2.78612 0
M  V30 245 H 22.2104 3.4217 -1.58744 0
M  V30 246 H 24.5974 2.84614 -0.779674 0
M  V30 247 H 24.6784 1.57927 -2.01228 0
M  V30 248 H 24.3224 3.34678 -3.82038 0
M  V30 249 H 24.2524 4.60259 -2.5587 0
M  V30 250 H 26.7434 3.08794 -2.17842 0
M  V30 251 H 27.0564 5.93363 -4.95116 0
M  V30 252 H 25.4014 5.34073 -4.44737 0
M  V30 253 H 28.5924 3.7758 -2.76679 0
M  V30 254 H 28.7654 5.0736 -4.031 0
M  V30 255 N 22.1715 0.800033 1.35784 0
M  V30 256 C 23.4175 0.377901 1.99248 0
M  V30 257 C 23.7505 -1.05052 1.63333 0
M  V30 258 O 23.0255 -1.72768 0.893385 0
M  V30 259 C 23.3085 0.553922 3.55814 0
M  V30 260 C 23.1615 2.0268 4.01548 0
M  V30 261 C 24.4805 -0.0244802 4.40093 0
M  V30 262 H 21.5995 0.138782 0.723815 0
M  V30 263 H 24.2415 1.00835 1.61035 0
M  V30 264 H 22.3915 0.0172398 3.88496 0
M  V30 265 H 24.0635 2.62536 3.79305 0
M  V30 266 H 22.3065 2.5256 3.52698 0
M  V30 267 H 22.9775 2.10087 5.10458 0
M  V30 268 H 25.4535 0.433775 4.13833 0
M  V30 269 H 24.3295 0.128637 5.48749 0
M  V30 270 H 24.5905 -1.11758 4.27741 0
M  V30 271 N 23.6496 -1.47581 0.552962 0
M  V30 272 C 24.6126 -2.28439 -0.186605 0
M  V30 273 C 25.6126 -1.36706 -0.84665 0
M  V30 274 O 26.8026 -1.59378 -0.703164 0
M  V30 275 C 23.9346 -3.16264 -1.2724 0
M  V30 276 H 25.1276 -2.95294 0.523609 0
M  V30 277 H 22.6806 -1.532 0.309745 0
M  V30 278 H 23.4156 -2.54091 -2.01514 0
M  V30 279 H 23.2006 -3.83769 -0.803968 0
M  V30 280 H 24.6906 -3.77198 -1.79196 0
M  V30 281 N 25.1277 -0.289203 -1.54924 0
M  V30 282 C 26.0907 0.579144 -2.21762 0
M  V30 283 C 27.0907 1.07047 -1.1999 0
M  V30 284 O 28.2807 0.968384 -1.44803 0
M  V30 285 C 25.4127 1.80055 -2.8947 0
M  V30 286 H 26.6057 -0.00464908 -2.999 0
M  V30 287 H 24.1587 -0.0399306 -1.56249 0
M  V30 288 H 24.8937 2.42449 -2.15381 0
M  V30 289 H 24.6787 1.45602 -3.64064 0
M  V30 290 H 26.1687 2.41773 -3.40493 0
M  V30 291 N 26.6058 1.57591 -0.0167156 0
M  V30 292 C 28.0168 1.79201 0.523834 0
M  V30 293 C 28.3678 0.925796 1.72984 0
M  V30 294 O 27.4928 0.132792 2.15992 0
M  V30 295 C 28.0878 3.25 0.957091 0
M  V30 296 C 26.6468 3.47648 1.44283 0
M  V30 297 C 25.7938 2.74374 0.401757 0
M  V30 298 H 28.7448 1.56831 -0.242816 0
M  V30 299 H 28.7658 3.34031 1.82219 0
M  V30 300 H 28.2778 3.88019 0.0791415 0
M  V30 301 H 26.3788 2.89866 2.34113 0
M  V30 302 H 26.4918 4.56352 1.45877 0
M  V30 303 H 24.8558 2.39485 0.867121 0
M  V30 304 H 25.6388 3.40102 -0.467513 0
M  V30 305 N 28.0839 -0.256276 1.55502 0
M  V30 306 C 29.3089 -1.00766 1.81276 0
M  V30 307 C 29.7339 -1.78524 0.59252 0
M  V30 308 O 29.0919 -1.75413 -0.45827 0
M  V30 309 C 29.1399 -1.92869 3.04687 0
M  V30 310 O 28.2439 -3.019 2.80945 0
M  V30 311 H 27.5849 -0.287224 0.598664 0
M  V30 312 H 30.1149 -0.280109 2.02674 0
M  V30 313 H 30.1249 -2.34511 3.33869 0
M  V30 314 H 28.7999 -1.35689 3.93143 0
M  V30 315 H 27.3769 -2.64454 2.62904 0
M  V30 316 N 29.562 -1.4872 -0.521534 0
M  V30 317 C 30.81 -1.56857 -1.27437 0
M  V30 318 C 31.131 -0.247982 -1.93417 0
M  V30 319 O 30.401 0.731151 -1.81744 0
M  V30 320 H 28.981 -0.577885 -0.473347 0
M  V30 321 H 31.643 -1.85233 -0.606205 0
M  V30 322 H 30.739 -2.35402 -2.0492 0
M  V30 323 N 31.0401 0.771051 -1.3745 0
M  V30 324 C 31.9881 1.90574 -1.33358 0
M  V30 325 C 32.9821 1.67936 -0.22224 0
M  V30 326 O 34.1881 1.75717 -0.390304 0
M  V30 327 H 30.5631 0.626714 -0.415612 0
M  V30 328 H 32.5341 1.91142 -2.29144 0
M  V30 329 C 31.2831 3.27845 -1.15813 0
M  V30 330 H 30.6061 3.45842 -2.00583 0
M  V30 331 H 32.0461 4.07538 -1.17 0
M  V30 332 C 30.5051 3.36625 0.136165 0
M  V30 333 O 31.0351 3.85785 1.11949 0
M  V30 334 N 29.2411 2.89997 0.187099 0
M  V30 335 H 28.7881 2.50182 -0.613753 0
M  V30 336 H 28.7461 2.96252 1.05272 0
M  V30 337 N 32.5182 1.22032 0.997298 0
M  V30 338 C 33.9292 1.0397 1.55071 0
M  V30 339 C 34.2802 -0.398192 1.92117 0
M  V30 340 O 33.4052 -1.28254 1.74298 0
M  V30 341 C 34.0002 1.88109 2.81781 0
M  V30 342 C 32.5592 1.74357 3.33581 0
M  V30 343 C 31.7062 1.84846 2.06706 0
M  V30 344 H 34.6572 1.35941 0.818883 0
M  V30 345 H 34.6782 1.39589 3.53971 0
M  V30 346 H 34.1902 2.92754 2.54787 0
M  V30 347 H 32.2912 0.72427 3.65493 0
M  V30 348 H 32.4042 2.56772 4.04481 0
M  V30 349 H 30.7682 1.28238 2.20062 0
M  V30 350 H 31.5512 2.91014 1.82114 0
M  V30 351 N 33.9963 -1.19345 1.0293 0
M  V30 352 C 34.9593 -2.20793 0.615069 0
M  V30 353 C 35.9593 -1.57553 -0.321533 0
M  V30 354 O 37.1493 -1.73862 -0.108483 0
M  V30 355 C 34.2813 -3.40754 -0.0999222 0
M  V30 356 H 35.4743 -2.58955 1.51269 0
M  V30 357 H 33.0273 -1.3303 0.820534 0
M  V30 358 H 33.7623 -3.0811 -1.01187 0
M  V30 359 H 33.5473 -3.87889 0.57309 0
M  V30 360 H 35.0373 -4.15898 -0.376645 0
M  V30 361 N 35.4744 -0.807222 -1.35358 0
M  V30 362 C 36.7234 -0.384376 -1.98004 0
M  V30 363 C 37.0364 1.0543 -1.64754 0
M  V30 364 O 38.2424 1.58029 -2.20769 0
M  V30 365 C 36.6984 -0.636326 -3.5423 0
M  V30 366 C 36.3064 -2.08759 -3.96388 0
M  V30 367 C 38.0504 -0.278869 -4.23583 0
M  V30 368 C 35.9574 -2.28525 -5.45463 0
M  V30 369 H 34.8874 -0.139986 -0.740891 0
M  V30 370 H 37.5384 -0.991369 -1.54415 0
M  V30 371 H 35.9204 0.0406256 -3.95979 0
M  V30 372 H 37.0944 -2.8024 -3.6579 0
M  V30 373 H 35.4094 -2.40497 -3.39926 0
M  V30 374 H 38.0064 -0.404599 -5.33167 0
M  V30 375 H 38.3494 0.775012 -4.09022 0
M  V30 376 H 38.8824 -0.909764 -3.87257 0
M  V30 377 H 35.6214 -3.32361 -5.64992 0
M  V30 378 H 35.1414 -1.61569 -5.77629 0
M  V30 379 H 36.8204 -2.10109 -6.11934 0
M  V30 380 N 36.9525 1.47285 -0.560781 0
M  V30 381 C 37.8825 2.32857 0.173105 0
M  V30 382 C 38.8635 1.44009 0.905281 0
M  V30 383 O 40.0485 1.7286 0.885046 0
M  V30 384 C 37.1785 3.25861 1.20133 0
M  V30 385 C 36.1325 4.23978 0.585388 0
M  V30 386 C 35.4585 5.06332 1.7185 0
M  V30 387 C 36.7585 5.20242 -0.463178 0
M  V30 388 H 38.4525 2.94466 -0.541307 0
M  V30 389 H 35.9985 1.41601 -0.261764 0
M  V30 390 H 37.9515 3.84569 1.72293 0
M  V30 391 H 36.6755 2.62315 1.94573 0
M  V30 392 H 35.3345 3.66501 0.085054 0
M  V30 393 H 34.9825 4.39186 2.45203 0
M  V30 394 H 34.6825 5.72762 1.31213 0
M  V30 395 H 36.2065 5.67899 2.24329 0
M  V30 396 H 37.6205 5.73293 -0.027502 0
M  V30 397 H 36.0175 5.94896 -0.788627 0
M  V30 398 H 37.0875 4.65504 -1.35773 0
M  V30 399 N 38.4306 0.297415 1.54768 0
M  V30 400 C 39.8416 -0.195947 1.85669 0
M  V30 401 C 40.1926 -1.53707 1.21937 0
M  V30 402 O 39.3176 -2.10164 0.515754 0
M  V30 403 C 39.9126 -0.362318 3.36857 0
M  V30 404 C 38.4716 -0.799901 3.67802 0
M  V30 405 C 37.6186 0.0938578 2.77141 0
M  V30 406 H 40.5696 0.518538 1.4999 0
M  V30 407 H 40.5906 -1.19745 3.61167 0
M  V30 408 H 40.1026 0.613921 3.83214 0
M  V30 409 H 38.2036 -1.78682 3.26961 0
M  V30 410 H 38.3166 -0.621773 4.75048 0
M  V30 411 H 36.6806 -0.426254 2.51108 0
M  V30 412 H 37.4636 1.06639 3.26318 0
M  V30 413 N 39.9087 -1.5758 0.0250728 0
M  V30 414 C 40.8187 -2.1343 -0.973905 0
M  V30 415 C 41.8347 -1.08556 -1.35984 0
M  V30 416 O 43.0107 -1.40592 -1.44207 0
M  V30 417 C 40.0757 -2.64703 -2.23904 0
M  V30 418 C 39.1367 -3.84276 -1.91391 0
M  V30 419 C 38.3697 -4.33095 -3.11873 0
M  V30 420 O 38.5927 -3.81107 -4.24398 0
M  V30 421 O 37.5267 -5.24984 -2.94406 0
M  V30 422 H 41.3527 -2.99057 -0.529036 0
M  V30 423 H 38.9377 -1.48118 -0.195288 0
M  V30 424 H 40.8197 -2.97769 -2.98181 0
M  V30 425 H 39.4947 -1.82161 -2.6758 0
M  V30 426 H 38.4017 -3.56143 -1.14511 0
M  V30 427 H 39.7347 -4.67968 -1.52534 0
M  V30 428 N 41.3868 0.248026 -1.55636 0
M  V30 429 C 42.3338 1.30707 -1.90222 0
M  V30 430 C 43.3038 1.47881 -0.756332 0
M  V30 431 O 44.4888 1.61883 -1.00988 0
M  V30 432 C 41.6288 2.65769 -2.20138 0
M  V30 433 C 40.7418 2.56612 -3.47526 0
M  V30 434 C 39.8768 3.8402 -3.67017 0
M  V30 435 C 38.9158 3.69476 -4.8801 0
M  V30 436 N 38.0528 4.88774 -5.04029 0
M  V30 437 H 42.8928 1.00512 -2.80538 0
M  V30 438 H 40.4298 0.485055 -1.38873 0
M  V30 439 H 42.3878 3.44386 -2.35487 0
M  V30 440 H 41.0178 2.94115 -1.33027 0
M  V30 441 H 40.0698 1.69571 -3.40514 0
M  V30 442 H 41.3818 2.41774 -4.36287 0
M  V30 443 H 40.5358 4.7108 -3.8232 0
M  V30 444 H 39.2748 4.01754 -2.76487 0
M  V30 445 H 38.2798 2.80799 -4.72686 0
M  V30 446 H 39.5048 3.53238 -5.8 0
M  V30 447 H 37.4508 5.0687 -4.16435 0
M  V30 448 H 37.3678 4.76562 -5.86877 0
M  V30 449 H 38.6358 5.77335 -5.23741 0
M  V30 450 N 42.8649 1.48995 0.513639 0
M  V30 451 C 44.2809 1.35478 0.843682 0
M  V30 452 C 44.4809 0.378213 1.97919 0
M  V30 453 O 43.5369 -0.194689 2.51748 0
M  V30 454 C 44.8499 2.75901 1.1958 0
M  V30 455 C 46.3979 2.84509 1.30474 0
M  V30 456 C 46.8729 4.25671 1.69021 0
M  V30 457 N 48.3639 4.28422 1.76094 0
M  V30 458 C 49.0989 5.34601 2.07338 0
M  V30 459 N 48.5949 6.5104 2.36894 0
M  V30 460 N 50.3879 5.22007 2.08483 0
M  V30 461 H 42.5389 2.11092 -0.235328 0
M  V30 462 H 44.8019 0.947039 -0.0426669 0
M  V30 463 H 44.5079 3.49001 0.434913 0
M  V30 464 H 44.3819 3.10467 2.1422 0
M  V30 465 H 46.7689 2.11655 2.05637 0
M  V30 466 H 46.8499 2.53542 0.339155 0
M  V30 467 H 46.4939 4.99048 0.944135 0
M  V30 468 H 46.4239 4.54094 2.66658 0
M  V30 469 H 48.9149 3.44441 1.55464 0
M  V30 470 H 49.2279 7.2779 2.59887 0
M  V30 471 H 47.5729 6.54287 2.34378 0
M  V30 472 H 50.7639 4.30051 1.84861 0
M  V30 473 H 50.9369 6.04854 2.325 0
M  V30 474 N 44.343 -0.763751 1.37857 0
M  V30 475 C 45.754 -1.3405 1.29952 0
M  V30 476 C 46.105 -1.96138 -0.0492898 0
M  V30 477 O 45.23 -1.94372 -0.951239 0
M  V30 478 C 45.825 -2.43729 2.35333 0
M  V30 479 C 44.384 -2.97151 2.31037 0
M  V30 480 C 43.531 -1.70438 2.18738 0
M  V30 481 H 46.482 -0.563396 1.48363 0
M  V30 482 H 46.503 -3.23412 2.00462 0
M  V30 483 H 46.015 -1.9851 3.33489 0
M  V30 484 H 44.116 -3.46724 1.3643 0
M  V30 485 H 44.229 -3.52221 3.24772 0
M  V30 486 H 42.593 -1.93673 1.65418 0
M  V30 487 H 43.376 -1.27312 3.18821 0
M  V30 488 N 45.8211 -1.22559 -0.990812 0
M  V30 489 C 46.7841 -0.998863 -2.0629 0
M  V30 490 C 47.7841 0.0354834 -1.60761 0
M  V30 491 O 48.9741 -0.203231 -1.7301 0
M  V30 492 C 46.1061 -0.509203 -3.37076 0
M  V30 493 H 47.2991 -1.95014 -2.27837 0
M  V30 494 H 44.8521 -1.04456 -1.16269 0
M  V30 495 H 45.5871 0.446335 -3.21214 0
M  V30 496 H 45.3721 -1.25547 -3.71457 0
M  V30 497 H 46.8621 -0.370888 -4.1595 0
M  V30 498 N 47.2992 1.18797 -1.03562 0
M  V30 499 C 48.2092 2.25913 -0.632505 0
M  V30 500 C 49.2252 1.70668 0.338882 0
M  V30 501 O 50.4012 2.00453 0.195076 0
M  V30 502 C 47.4662 3.467 0.00350942 0
M  V30 503 C 46.5272 4.17098 -1.01624 0
M  V30 504 C 45.7602 5.32119 -0.410478 0
M  V30 505 O 45.9832 5.64976 0.784725 0
M  V30 506 O 44.9172 5.9107 -1.13667 0
M  V30 507 H 48.7432 2.62648 -1.52478 0
M  V30 508 H 46.3282 1.25781 -0.806195 0
M  V30 509 H 48.2102 4.19878 0.35781 0
M  V30 510 H 46.8852 3.11798 0.869686 0
M  V30 511 H 45.7922 3.4601 -1.42224 0
M  V30 512 H 47.1252 4.55987 -1.85301 0
M  V30 513 N 48.7773 0.814389 1.34928 0
M  V30 514 C 50.0263 0.394871 1.97797 0
M  V30 515 C 50.3393 -1.04555 1.65311 0
M  V30 516 O 51.5453 -1.56856 2.21604 0
M  V30 517 C 50.0013 0.655103 3.53888 0
M  V30 518 C 49.6093 2.10858 3.95276 0
M  V30 519 C 51.3533 0.301329 4.23429 0
M  V30 520 C 49.2603 2.31415 5.44244 0
M  V30 521 H 48.1903 0.143913 0.740139 0
M  V30 522 H 50.8413 0.999544 1.53888 0
M  V30 523 H 49.2233 -0.0196253 3.95995 0
M  V30 524 H 50.3973 2.82176 3.64298 0
M  V30 525 H 48.7123 2.42297 3.38646 0
M  V30 526 H 51.3093 0.432869 5.32945 0
M  V30 527 H 51.6523 -0.75331 4.09428 0
M  V30 528 H 52.1853 0.930288 3.86769 0
M  V30 529 H 48.9243 3.35353 5.63222 0
M  V30 530 H 48.4443 1.6463 5.76764 0
M  V30 531 H 50.1233 2.13352 6.10811 0
M  V30 532 N 50.2554 -1.46986 0.568584 0
M  V30 533 C 51.4834 -2.0683 0.0539956 0
M  V30 534 C 51.8984 -1.41953 -1.24478 0
M  V30 535 O 51.2554 -0.519933 -1.74937 0
M  V30 536 C 51.3064 -3.61254 -0.133362 0
M  V30 537 O 51.0274 -4.237 1.11399 0
M  V30 538 C 52.5284 -4.37992 -0.683927 0
M  V30 539 H 49.7484 -0.669058 0.0510141 0
M  V30 540 H 52.2924 -1.88824 0.785234 0
M  V30 541 H 50.4474 -3.78735 -0.81477 0
M  V30 542 H 50.8614 -5.16388 0.91888 0
M  V30 543 H 52.3354 -5.46684 -0.764263 0
M  V30 544 H 52.8124 -4.05058 -1.69778 0
M  V30 545 H 53.4184 -4.25283 -0.0378494 0
M  V30 546 N 51.7335 -0.305618 -1.54608 0
M  V30 547 C 53.1445 0.186098 -1.8577 0
M  V30 548 C 53.4955 1.53058 -1.22751 0
M  V30 549 O 52.6205 2.09888 -0.526893 0
M  V30 550 C 53.2155 0.344449 -3.37044 0
M  V30 551 C 51.7745 0.780384 -3.68221 0
M  V30 552 C 50.9215 -0.108554 -2.77087 0
M  V30 553 H 53.8725 -0.526485 -1.49712 0
M  V30 554 H 53.8935 1.17828 -3.61796 0
M  V30 555 H 53.4055 -0.634235 -3.82883 0
M  V30 556 H 51.5065 1.76945 -3.27904 0
M  V30 557 H 51.6195 0.596572 -4.75371 0
M  V30 558 H 49.9835 0.412931 -2.5133 0
M  V30 559 H 50.7665 -1.08368 -3.25747 0
M  V30 560 N 53.2116 1.57565 -0.0334293 0
M  V30 561 C 54.4396 1.9628 0.654347 0
M  V30 562 C 54.8546 0.910138 1.65414 0
M  V30 563 O 54.2116 -0.107595 1.82183 0
M  V30 564 C 54.2626 3.35067 1.35693 0
M  V30 565 O 53.9836 4.36296 0.397191 0
M  V30 566 C 55.4846 3.88439 2.13613 0
M  V30 567 H 52.7046 0.646369 0.180132 0
M  V30 568 H 55.2486 2.04282 -0.0944721 0
M  V30 569 H 53.4036 3.2827 2.05712 0
M  V30 570 H 53.8176 5.1678 0.896597 0
M  V30 571 H 55.2916 4.8788 2.58219 0
M  V30 572 H 55.7686 3.22914 2.97696 0
M  V30 573 H 56.3746 3.98516 1.48543 0
M  V30 574 N 54.6897 -0.239769 1.55765 0
M  V30 575 C 55.6367 -1.29696 1.90913 0
M  V30 576 C 56.6067 -1.47478 0.764164 0
M  V30 577 O 57.7917 -1.61345 1.01845 0
M  V30 578 C 54.9317 -2.64598 2.21544 0
M  V30 579 C 54.0447 -2.54765 3.48882 0
M  V30 580 C 53.1797 -3.82069 3.69049 0
M  V30 581 C 52.2187 -3.66883 4.89963 0
M  V30 582 N 51.3557 -4.86094 5.06614 0
M  V30 583 H 56.1957 -0.990224 2.81067 0
M  V30 584 H 53.7327 -0.477684 1.39128 0
M  V30 585 H 55.6907 -3.43132 2.3731 0
M  V30 586 H 54.3207 -2.93405 1.34585 0
M  V30 587 H 53.3727 -1.67763 3.41409 0
M  V30 588 H 54.6847 -2.39457 4.37563 0
M  V30 589 H 53.8387 -4.69046 3.84812 0
M  V30 590 H 52.5777 -4.00282 2.78614 0
M  V30 591 H 51.5827 -2.78289 4.74168 0
M  V30 592 H 52.8077 -3.50157 5.81865 0
M  V30 593 H 50.7537 -5.04655 4.19117 0
M  V30 594 H 50.6707 -4.73443 5.89396 0
M  V30 595 H 51.9387 -5.74549 5.26795 0
M  V30 596 N 56.1678 -1.49265 -0.50573 0
M  V30 597 C 57.1148 -1.65585 -1.6078 0
M  V30 598 C 58.0848 -0.497396 -1.58478 0
M  V30 599 O 59.2698 -0.72385 -1.76536 0
M  V30 600 C 56.4098 -1.72408 -2.98948 0
M  V30 601 C 55.5228 -2.99525 -3.11301 0
M  V30 602 C 54.6578 -2.97356 -4.40174 0
M  V30 603 C 53.6968 -4.19074 -4.46143 0
M  V30 604 N 52.8338 -4.14841 -5.66437 0
M  V30 605 H 57.6738 -2.59688 -1.46172 0
M  V30 606 H 55.2108 -1.28761 -0.711261 0
M  V30 607 H 57.1688 -1.74344 -3.79025 0
M  V30 608 H 55.7988 -0.817753 -3.1227 0
M  V30 609 H 54.8508 -3.07222 -2.24318 0
M  V30 610 H 56.1628 -3.89518 -3.11572 0
M  V30 611 H 55.3168 -2.97829 -5.28567 0
M  V30 612 H 54.0558 -2.05133 -4.42461 0
M  V30 613 H 53.0608 -4.1885 -3.56153 0
M  V30 614 H 54.2858 -5.12483 -4.45575 0
M  V30 615 H 52.2318 -3.25453 -5.69575 0
M  V30 616 H 52.1488 -4.98564 -5.68304 0
M  V30 617 H 53.4168 -4.1941 -6.57051 0
M  V30 618 N 57.6459 0.756429 -1.3826 0
M  V30 619 C 58.8709 1.55077 -1.37717 0
M  V30 620 C 59.2959 1.88073 0.03164 0
M  V30 621 O 58.6539 1.50364 1.01293 0
M  V30 622 C 58.7019 2.8283 -2.23695 0
M  V30 623 O 57.8059 3.77862 -1.6521 0
M  V30 624 H 57.1469 0.469152 -0.469885 0
M  V30 625 H 59.6769 0.935019 -1.81985 0
M  V30 626 H 59.6869 3.31783 -2.37453 0
M  V30 627 H 58.3619 2.58144 -3.2609 0
M  V30 628 H 56.9389 3.36555 -1.60578 0
M  V30 629 N 59.124 1.23083 0.984299 0
M  V30 630 C 60.087 1.00979 2.05757 0
M  V30 631 C 61.087 -0.0269573 1.60777 0
M  V30 632 O 62.277 0.212403 1.729 0
M  V30 633 C 59.409 0.527072 3.36801 0
M  V30 634 H 60.602 1.9622 2.26799 0
M  V30 635 H 58.155 1.05072 1.15714 0
M  V30 636 H 58.89 -0.429294 3.21446 0
M  V30 637 H 58.675 1.27515 3.70786 0
M  V30 638 H 60.165 0.392942 4.15747 0
M  V30 639 N 60.6021 -1.18246 1.0419 0
M  V30 640 C 61.5521 -2.19843 0.604392 0
M  V30 641 C 62.5361 -1.56962 -0.353814 0
M  V30 642 O 63.7281 -1.76156 -0.17267 0
M  V30 643 C 60.8571 -3.43287 -0.0298975 0
M  V30 644 C 59.9431 -4.13288 0.951531 0
M  V30 645 N 60.3341 -4.59271 2.11906 0
M  V30 646 C 58.6321 -4.39165 0.7778 0
M  V30 647 C 59.3331 -5.13173 2.73912 0
M  V30 648 N 58.3091 -5.04763 2.01779 0
M  V30 649 H 62.1111 -2.53089 1.4941 0
M  V30 650 H 59.6251 -1.34465 0.910658 0
M  V30 651 H 61.6221 -4.15334 -0.361037 0
M  V30 652 H 60.2821 -3.11537 -0.915127 0
M  V30 653 H 61.2931 -4.5368 2.49789 0
M  V30 654 H 57.9701 -4.17461 -0.0572331 0
M  V30 655 H 59.3601 -5.58947 3.72864 0
M  V30 656 N 62.0802 -0.821533 -1.34494 0
M  V30 657 C 63.3272 -0.408946 -1.98328 0
M  V30 658 C 63.6552 1.02764 -1.65136 0
M  V30 659 O 62.9102 1.73026 -0.914349 0
M  V30 660 C 63.2092 -0.556512 -3.53041 0
M  V30 661 C 62.8752 -1.95861 -4.0614 0
M  V30 662 C 61.5372 -2.34217 -4.20352 0
M  V30 663 C 63.8892 -2.87523 -4.34718 0
M  V30 664 C 61.2172 -3.63572 -4.6047 0
M  V30 665 C 63.5692 -4.1634 -4.76281 0
M  V30 666 C 62.2332 -4.54675 -4.88699 0
M  V30 667 H 61.5032 -0.149644 -0.725732 0
M  V30 668 H 64.1502 -1.04521 -1.6046 0
M  V30 669 H 62.4552 0.163148 -3.9146 0
M  V30 670 H 64.1522 -0.217826 -4.00408 0
M  V30 671 H 60.7422 -1.65066 -3.95539 0
M  V30 672 H 64.9262 -2.59133 -4.23277 0
M  V30 673 H 60.1822 -3.93101 -4.68275 0
M  V30 674 H 64.3562 -4.87455 -4.97354 0
M  V30 675 H 61.9832 -5.54959 -5.19542 0
M  V30 676 N 63.5583 1.46682 -0.576371 0
M  V30 677 C 64.8053 2.02412 -0.0595339 0
M  V30 678 C 65.1333 1.44859 1.29793 0
M  V30 679 O 64.3883 0.601099 1.8624 0
M  V30 680 C 64.6873 3.57345 0.062886 0
M  V30 681 C 64.3533 4.33908 -1.22616 0
M  V30 682 C 63.0153 4.54544 -1.57933 0
M  V30 683 C 65.3673 4.77919 -2.07948 0
M  V30 684 C 62.6953 5.16444 -2.78393 0
M  V30 685 C 65.0473 5.41149 -3.27629 0
M  V30 686 C 63.7113 5.60014 -3.63236 0
M  V30 687 H 62.9813 0.74068 -0.021785 0
M  V30 688 H 65.6283 1.76128 -0.751735 0
M  V30 689 H 63.9333 3.82729 0.838178 0
M  V30 690 H 65.6303 3.98136 0.478439 0
M  V30 691 H 62.2203 4.18138 -0.941202 0
M  V30 692 H 66.4043 4.61738 -1.81967 0
M  V30 693 H 61.6603 5.29242 -3.06126 0
M  V30 694 H 65.8343 5.74211 -3.94023 0
M  V30 695 H 63.4613 6.07748 -4.56669 0
M  V30 696 N 65.0364 0.313813 1.54444 0
M  V30 697 C 65.9664 -0.549454 2.26943 0
M  V30 698 C 66.9474 -1.12741 1.27372 0
M  V30 699 O 68.1324 -1.15436 1.56167 0
M  V30 700 C 65.2624 -1.71523 3.01989 0
M  V30 701 C 64.2164 -1.26703 4.08816 0
M  V30 702 C 63.5424 -2.51898 4.71647 0
M  V30 703 C 64.8424 -0.388962 5.2085 0
M  V30 704 H 66.5364 0.0552661 2.99349 0
M  V30 705 H 64.0824 0.0280207 1.43973 0
M  V30 706 H 66.0354 -2.32535 3.51433 0
M  V30 707 H 64.7594 -2.34639 2.27183 0
M  V30 708 H 63.4184 -0.679896 3.6024 0
M  V30 709 H 63.0664 -3.13356 3.93468 0
M  V30 710 H 62.7664 -2.22605 5.43802 0
M  V30 711 H 64.2904 -3.1369 5.23861 0
M  V30 712 H 65.7044 -0.905107 5.6611 0
M  V30 713 H 64.1014 -0.18924 5.99802 0
M  V30 714 H 65.1714 0.582699 4.81386 0
M  V30 715 N 66.5145 -1.57545 0.0417849 0
M  V30 716 C 67.4245 -2.14451 -0.951213 0
M  V30 717 C 68.4405 -1.09992 -1.34825 0
M  V30 718 O 69.6165 -1.42114 -1.42708 0
M  V30 719 C 66.6815 -2.67063 -2.21084 0
M  V30 720 C 65.7425 -3.86284 -1.87304 0
M  V30 721 C 64.9755 -4.36378 -3.07261 0
M  V30 722 O 65.1985 -3.85587 -4.20332 0
M  V30 723 O 64.1325 -5.28077 -2.88822 0
M  V30 724 H 67.9585 -2.99601 -0.497287 0
M  V30 725 H 65.5435 -1.48317 -0.179567 0
M  V30 726 H 67.4255 -3.00914 -2.95006 0
M  V30 727 H 66.1005 -1.84989 -2.65633 0
M  V30 728 H 65.0075 -3.57338 -1.10727 0
M  V30 729 H 66.3405 -4.6956 -1.47562 0
M  V30 730 N 67.9926 0.231505 -1.5589 0
M  V30 731 C 69.2416 0.955346 -1.7764 0
M  V30 732 C 69.5546 1.85893 -0.608546 0
M  V30 733 O 70.7606 2.62067 -0.70943 0
M  V30 734 C 69.2166 1.74886 -3.14552 0
M  V30 735 C 68.8246 0.891915 -4.39032 0
M  V30 736 C 70.5686 2.46452 -3.45633 0
M  V30 737 C 68.4756 1.68221 -5.66971 0
M  V30 738 H 67.4056 0.360446 -0.662265 0
M  V30 739 H 70.0566 0.209516 -1.823 0
M  V30 740 H 68.4386 2.53723 -3.04041 0
M  V30 741 H 69.6126 0.144793 -4.60572 0
M  V30 742 H 67.9276 0.288863 -4.15397 0
M  V30 743 H 70.5246 3.06061 -4.38441 0
M  V30 744 H 70.8676 3.18841 -2.67668 0
M  V30 745 H 71.4006 1.74613 -3.57428 0
M  V30 746 H 68.1396 1.00178 -6.478 0
M  V30 747 H 67.6596 2.4042 -5.49507 0
M  V30 748 H 69.3386 2.24544 -6.06786 0
M  V30 749 N 69.4707 1.49531 0.497807 0
M  V30 750 C 70.3807 1.69176 1.62532 0
M  V30 751 C 71.3967 0.5744 1.64246 0
M  V30 752 O 72.5727 0.849497 1.82608 0
M  V30 753 C 69.6377 1.75695 2.98885 0
M  V30 754 C 68.6987 2.9929 3.07773 0
M  V30 755 C 67.9317 3.05488 4.37622 0
M  V30 756 O 68.1547 2.19192 5.26603 0
M  V30 757 O 67.0887 3.9798 4.51548 0
M  V30 758 H 70.9147 2.647 1.48887 0
M  V30 759 H 68.4997 1.3331 0.674441 0
M  V30 760 H 70.3817 1.82317 3.79919 0
M  V30 761 H 69.0567 0.8335 3.12785 0
M  V30 762 H 67.9637 2.98183 2.25915 0
M  V30 763 H 69.2967 3.91125 2.98801 0
M  V30 764 N 70.9488 -0.749086 1.3866 0
M  V30 765 C 72.1968 -1.50535 1.34847 0
M  V30 766 C 72.5178 -1.94909 -0.0595016 0
M  V30 767 O 71.7878 -1.67973 -1.00806 0
M  V30 768 H 70.3678 -0.558395 0.49619 0
M  V30 769 H 73.0298 -0.890165 1.73384 0
M  V30 770 H 72.1258 -2.39413 2.00219 0
M  V30 771 N 72.4269 -1.23603 -0.977757 0
M  V30 772 C 73.6739 -1.06971 -1.71941 0
M  V30 773 C 74.0019 0.393009 -1.90488 0
M  V30 774 O 73.2569 1.30719 -1.4564 0
M  V30 775 C 73.5559 -1.7433 -3.11999 0
M  V30 776 C 73.2219 -3.24252 -3.13323 0
M  V30 777 C 71.8839 -3.65156 -3.13392 0
M  V30 778 C 74.2359 -4.20141 -3.08433 0
M  V30 779 C 71.5639 -5.00403 -3.0629 0
M  V30 780 C 73.9159 -5.55384 -3.02873 0
M  V30 781 C 72.5799 -5.95647 -3.01265 0
M  V30 782 H 71.8499 -0.391433 -0.629175 0
M  V30 783 H 74.4969 -1.53572 -1.14403 0
M  V30 784 H 72.8019 -1.20096 -3.7294 0
M  V30 785 H 74.4989 -1.58936 -3.68158 0
M  V30 786 H 71.0889 -2.91692 -3.14029 0
M  V30 787 H 75.2729 -3.89547 -3.07517 0
M  V30 788 H 70.5289 -5.3081 -3.03399 0
M  V30 789 H 74.7029 -6.29398 -2.98046 0
M  V30 790 H 72.3299 -7.0041 -2.95516 0
M  V30 791 N 73.905 1.17692 -1.04816 0
M  V30 792 C 74.815 2.25229 -0.65643 0
M  V30 793 C 75.831 1.71018 0.320761 0
M  V30 794 O 77.007 2.00649 0.173805 0
M  V30 795 C 74.072 3.46684 -0.0332629 0
M  V30 796 C 73.133 4.15997 -1.06042 0
M  V30 797 C 72.366 5.31654 -0.466893 0
M  V30 798 O 72.589 5.65777 0.724758 0
M  V30 799 O 71.523 5.89831 -1.1993 0
M  V30 800 H 75.349 2.61016 -1.55255 0
M  V30 801 H 72.934 1.24919 -0.81949 0
M  V30 802 H 74.816 4.20234 0.313256 0
M  V30 803 H 73.491 3.12703 0.836566 0
M  V30 804 H 72.398 3.44482 -1.45886 0
M  V30 805 H 73.731 4.53996 -1.90127 0
M  V30 806 N 75.3831 0.828654 1.34056 0
M  V30 807 C 76.7941 0.477534 1.8049 0
M  V30 808 C 77.1451 -1.00258 1.6865 0
M  V30 809 O 76.2701 -1.78057 1.22982 0
M  V30 810 C 76.8651 0.860018 3.27703 0
M  V30 811 C 75.4241 0.561185 3.72193 0
M  V30 812 C 74.5711 1.07385 2.55663 0
M  V30 813 H 77.5221 1.0183 1.21722 0
M  V30 814 H 77.5431 0.166038 3.80138 0
M  V30 815 H 77.0551 1.93731 3.36288 0
M  V30 816 H 75.1561 -0.506465 3.69142 0
M  V30 817 H 75.2691 1.10926 4.66082 0
M  V30 818 H 73.6331 0.495149 2.49841 0
M  V30 819 H 74.4161 2.15771 2.67016 0
M  V30 820 N 76.8612 -1.46375 0.584142 0
M  V30 821 C 77.8092 -2.32042 -0.161047 0
M  V30 822 C 78.8032 -1.44569 -0.882966 0
M  V30 823 O 80.0092 -1.61186 -0.801191 0
M  V30 824 H 76.3842 -0.748659 -0.0708033 0
M  V30 825 H 78.3552 -2.92704 0.580269 0
M  V30 826 C 77.1042 -3.27762 -1.1605 0
M  V30 827 H 76.4272 -3.95051 -0.614419 0
M  V30 828 H 77.8672 -3.90481 -1.65228 0
M  V30 829 C 76.3262 -2.53218 -2.22221 0
M  V30 830 O 76.8562 -2.29628 -3.29597 0
M  V30 831 N 75.0622 -2.13756 -1.96868 0
M  V30 832 H 74.6092 -2.33142 -1.09557 0
M  V30 833 H 74.5672 -1.642 -2.68115 0
M  V30 834 N 78.3393 -0.321999 -1.54275 0
M  V30 835 C 79.7503 0.166384 -1.85957 0
M  V30 836 C 80.1013 1.51747 -1.24367 0
M  V30 837 O 79.2263 2.09317 -0.549124 0
M  V30 838 C 79.8213 0.308681 -3.37391 0
M  V30 839 C 78.3803 0.741286 -3.69028 0
M  V30 840 C 77.5273 -0.137937 -2.76957 0
M  V30 841 H 80.4783 -0.542335 -1.49146 0
M  V30 842 H 80.4993 1.13984 -3.63026 0
M  V30 843 H 80.0113 -0.674809 -3.82188 0
M  V30 844 H 78.1123 1.73458 -3.29762 0
M  V30 845 H 78.2253 0.546118 -4.75977 0
M  V30 846 H 76.5893 0.386251 -2.51754 0
M  V30 847 H 77.3723 -1.11816 -3.2458 0
M  V30 848 N 79.8174 1.5752 -0.0501392 0
M  V30 849 C 81.0454 1.96963 0.633492 0
M  V30 850 C 81.4604 0.927631 1.6444 0
M  V30 851 O 80.8174 -0.0882665 1.82286 0
M  V30 852 C 80.8684 3.36487 1.32132 0
M  V30 853 O 80.5894 4.36693 0.350894 0
M  V30 854 C 82.0904 3.90682 2.09481 0
M  V30 855 H 79.3104 0.648244 0.173266 0
M  V30 856 H 81.8544 2.0417 -0.116134 0
M  V30 857 H 80.0094 3.30434 2.02218 0
M  V30 858 H 80.4234 5.17702 0.841735 0
M  V30 859 H 81.8974 4.90591 2.5303 0
M  V30 860 H 82.3744 3.26053 2.94255 0
M  V30 861 H 82.9804 4.00069 1.44307 0
M  V30 862 N 81.2955 -0.223234 1.56011 0
M  V30 863 C 82.5415 -0.949279 1.79211 0
M  V30 864 C 82.8745 -1.84054 0.619494 0
M  V30 865 O 82.1495 -1.90726 -0.381317 0
M  V30 866 C 82.4325 -1.78965 3.12479 0
M  V30 867 C 82.2855 -0.924997 4.40186 0
M  V30 868 C 83.6045 -2.76774 3.42175 0
M  V30 869 H 80.7235 -0.343676 0.651963 0
M  V30 870 H 83.3655 -0.218253 1.88742 0
M  V30 871 H 81.5155 -2.41291 3.04485 0
M  V30 872 H 83.1875 -0.318615 4.60198 0
M  V30 873 H 81.4305 -0.230344 4.33188 0
M  V30 874 H 82.1015 -1.54735 5.29869 0
M  V30 875 H 84.5775 -2.24584 3.50287 0
M  V30 876 H 83.4535 -3.32678 4.36597 0
M  V30 877 H 83.7145 -3.54429 2.64258 0
M  V30 878 N 82.7736 -1.49793 -0.48987 0
M  V30 879 C 83.7366 -1.66752 -1.57246 0
M  V30 880 C 84.7366 -0.538867 -1.51502 0
M  V30 881 O 85.9266 -0.805545 -1.54456 0
M  V30 882 C 83.0586 -1.67528 -2.96896 0
M  V30 883 H 84.2516 -2.63321 -1.43534 0
M  V30 884 H 81.8046 -1.38992 -0.714914 0
M  V30 885 H 82.5396 -0.725837 -3.16073 0
M  V30 886 H 82.3246 -2.49504 -3.02473 0
M  V30 887 H 83.8146 -1.82667 -3.7553 0
M  V30 888 N 84.2517 0.741722 -1.39055 0
M  V30 889 C 85.1987 1.85566 -1.37237 0
M  V30 890 C 86.1687 1.64457 -0.233072 0
M  V30 891 O 87.3537 1.85957 -0.427147 0
M  V30 892 C 84.4937 3.23004 -1.215 0
M  V30 893 C 83.6067 3.55864 -2.44918 0
M  V30 894 C 82.7417 4.82669 -2.21821 0
M  V30 895 C 81.7807 5.08351 -3.40948 0
M  V30 896 N 80.9177 6.26356 -3.17211 0
M  V30 897 H 85.7577 1.86455 -2.32462 0
M  V30 898 H 83.2947 0.911176 -1.15482 0
M  V30 899 H 85.2527 4.02331 -1.10389 0
M  V30 900 H 83.8827 3.21411 -0.29908 0
M  V30 901 H 82.9347 2.7129 -2.66657 0
M  V30 902 H 84.2467 3.70765 -3.33668 0
M  V30 903 H 83.4007 5.69962 -2.07914 0
M  V30 904 H 82.1397 4.69929 -1.30454 0
M  V30 905 H 81.1447 4.19522 -3.55361 0
M  V30 906 H 82.3697 5.22981 -4.33207 0
M  V30 907 H 80.3157 6.14917 -2.28502 0
M  V30 908 H 80.2327 6.41813 -3.99515 0
M  V30 909 H 81.5007 7.16506 -3.06984 0
M  V30 910 N 85.7298 1.2412 0.971189 0
M  V30 911 C 86.9578 1.10575 1.74874 0
M  V30 912 C 87.3728 -0.342017 1.85676 0
M  V30 913 O 86.7298 -1.23617 1.34258 0
M  V30 914 C 86.7808 1.73579 3.171 0
M  V30 915 O 86.5018 3.12695 3.06844 0
M  V30 916 C 88.0028 1.65598 4.11208 0
M  V30 917 H 85.2228 0.386504 0.548503 0
M  V30 918 H 87.7668 1.64156 1.21955 0
M  V30 919 H 85.9218 1.24009 3.67016 0
M  V30 920 H 86.3358 3.43412 3.96445 0
M  V30 921 H 87.8098 2.1437 5.08674 0
M  V30 922 H 88.2868 0.616532 4.34851 0
M  V30 923 H 88.8928 2.14578 3.67201 0
M  V30 924 N 87.2079 -1.17134 1.05439 0
M  V30 925 C 88.4329 -1.91913 0.786396 0
M  V30 926 C 88.8579 -1.7643 -0.652234 0
M  V30 927 O 88.2159 -1.08372 -1.45345 0
M  V30 928 C 88.2639 -3.40921 1.17497 0
M  V30 929 O 87.3679 -4.11244 0.308589 0
M  V30 930 H 86.7089 -0.598215 0.288158 0
M  V30 931 H 89.2389 -1.48457 1.4079 0
M  V30 932 H 89.2489 -3.91668 1.14281 0
M  V30 933 H 87.9239 -3.5151 2.22292 0
M  V30 934 H 86.5009 -3.70731 0.40157 0
M  V30 935 N 88.686 -0.835752 -1.33615 0
M  V30 936 C 90.097 -0.487099 -1.80234 0
M  V30 937 C 90.448 0.993627 -1.69179 0
M  V30 938 O 89.573 1.77403 -1.23924 0
M  V30 939 C 90.168 -0.877385 -3.27242 0
M  V30 940 C 88.727 -0.580915 -3.7189 0
M  V30 941 C 87.874 -1.0874 -2.5509 0
M  V30 942 H 90.825 -1.02474 -1.2118 0
M  V30 943 H 90.846 -0.186195 -3.80044 0
M  V30 944 H 90.358 -1.95512 -3.35256 0
M  V30 945 H 88.459 0.486881 -3.69405 0
M  V30 946 H 88.572 -1.13396 -4.65487 0
M  V30 947 H 86.936 -0.508392 -2.49575 0
M  V30 948 H 87.719 -2.17184 -2.65868 0
M  V30 949 N 90.1641 1.46063 -0.591896 0
M  V30 950 C 91.5751 1.85944 -0.167822 0
M  V30 951 C 91.9261 1.49429 1.27143 0
M  V30 952 O 91.0511 0.913515 1.96173 0
M  V30 953 C 91.6461 3.37489 -0.297794 0
M  V30 954 C 90.2051 3.76332 0.0714732 0
M  V30 955 C 89.3521 2.7006 -0.629509 0
M  V30 956 H 92.3031 1.37087 -0.799555 0
M  V30 957 H 92.3241 3.77532 0.474349 0
M  V30 958 H 91.8361 3.64034 -1.3454 0
M  V30 959 H 89.9371 3.55405 1.11886 0
M  V30 960 H 90.0501 4.78088 -0.311245 0
M  V30 961 H 88.4141 2.54607 -0.0687867 0
M  V30 962 H 89.1971 2.99444 -1.67894 0
M  V30 963 N 91.6422 0.330177 1.54103 0
M  V30 964 C 92.8882 -0.270806 2.00984 0
M  V30 965 C 93.2212 -1.51265 1.21789 0
M  V30 966 O 92.4962 -1.92142 0.301927 0
M  V30 967 C 92.7792 -0.598339 3.55094 0
M  V30 968 C 92.6322 0.654674 4.4501 0
M  V30 969 C 93.9512 -1.41334 4.16789 0
M  V30 970 H 91.0702 -0.0969531 0.730595 0
M  V30 971 H 93.7122 0.448066 1.84641 0
M  V30 972 H 91.8622 -1.21078 3.69151 0
M  V30 973 H 93.5342 1.29285 4.42813 0
M  V30 974 H 91.7772 1.28224 4.14416 0
M  V30 975 H 92.4482 0.380944 5.50684 0
M  V30 976 H 94.9242 -0.895597 4.06347 0
M  V30 977 H 93.8002 -1.61127 5.24718 0
M  V30 978 H 94.0612 -2.41146 3.70541 0
M  V30 979 N 93.1203 -1.57491 0.0584922 0
M  V30 980 C 94.3673 -1.92978 -0.613648 0
M  V30 981 C 94.6953 -0.937461 -1.70417 0
M  V30 982 O 93.9503 0.049078 -1.95638 0
M  V30 983 C 94.2493 -3.3513 -1.24188 0
M  V30 984 C 93.9153 -4.50037 -0.278826 0
M  V30 985 C 92.5773 -4.81198 -0.0138447 0
M  V30 986 C 94.9293 -5.19807 0.380777 0
M  V30 987 C 92.2573 -5.79473 0.918052 0
M  V30 988 C 94.6093 -6.19079 1.30091 0
M  V30 989 C 93.2733 -6.48665 1.57449 0
M  V30 990 H 92.5433 -0.706157 -0.22455 0
M  V30 991 H 95.1903 -1.91082 0.126533 0
M  V30 992 H 93.4953 -3.33429 -2.05749 0
M  V30 993 H 95.1923 -3.59871 -1.769 0
M  V30 994 H 91.7823 -4.25726 -0.495539 0
M  V30 995 H 95.9663 -4.95939 0.189158 0
M  V30 996 H 91.2223 -6.00727 1.1374 0
M  V30 997 H 95.3963 -6.7225 1.81804 0
M  V30 998 H 93.0233 -7.24628 2.29822 0
M  V30 999 N 94.5984 0.214957 -1.56127 0
M  V30 1000 C 95.8234 0.95924 -1.83884 0
M  V30 1001 C 96.2484 1.7689 -0.639644 0
M  V30 1002 O 95.6064 1.76566 0.411601 0
M  V30 1003 C 95.6544 1.84723 -3.09693 0
M  V30 1004 O 94.7584 2.94346 -2.8885 0
M  V30 1005 H 94.0994 0.27125 -0.606069 0
M  V30 1006 H 96.6294 0.226276 -2.03345 0
M  V30 1007 H 96.6394 2.25576 -3.39969 0
M  V30 1008 H 95.3144 1.25218 -3.96602 0
M  V30 1009 H 93.8914 2.57391 -2.69823 0
M  V30 1010 N 96.0765 1.50051 0.48192 0
M  V30 1011 C 97.0235 1.68122 1.58125 0
M  V30 1012 C 97.9935 0.522545 1.57666 0
M  V30 1013 O 99.1785 0.751844 1.75362 0
M  V30 1014 C 96.3185 1.77142 2.96167 0
M  V30 1015 C 95.4315 3.0444 3.06497 0
M  V30 1016 C 94.5665 3.04321 4.35387 0
M  V30 1017 C 93.6055 4.26118 4.3942 0
M  V30 1018 N 92.7425 4.238 5.59766 0
M  V30 1019 H 97.5825 2.6198 1.42022 0
M  V30 1020 H 95.1195 1.29877 0.690687 0
M  V30 1021 H 97.0775 1.80352 3.76203 0
M  V30 1022 H 95.7075 0.867329 3.1093 0
M  V30 1023 H 94.7595 3.10752 2.19402 0
M  V30 1024 H 96.0715 3.94426 3.05336 0
M  V30 1025 H 95.2255 3.062 5.23762 0
M  V30 1026 H 93.9645 2.12147 4.39141 0
M  V30 1027 H 92.9695 4.24463 3.49444 0
M  V30 1028 H 94.1945 5.19507 4.37366 0
M  V30 1029 H 92.1405 3.34474 5.64326 0
M  V30 1030 H 92.0575 5.07542 5.60301 0
M  V30 1031 H 93.3255 4.2981 6.50295 0
M  V30 1032 N 97.5546 -0.734337 1.39446 0
M  V30 1033 C 98.9656 -1.31264 1.32766 0
M  V30 1034 C 99.3166 -1.96198 -0.00767497 0
M  V30 1035 O 98.4416 -1.96346 -0.909796 0
M  V30 1036 C 99.0366 -2.38682 2.4045 0
M  V30 1037 C 97.5956 -2.92184 2.37288 0
M  V30 1038 C 96.7426 -1.6576 2.22304 0
M  V30 1039 H 99.6936 -0.531799 1.49525 0
M  V30 1040 H 99.7146 -3.19087 2.07276 0
M  V30 1041 H 99.2266 -1.91392 3.37625 0
M  V30 1042 H 97.3276 -3.43752 1.43754 0
M  V30 1043 H 97.4406 -3.45253 3.3217 0
M  V30 1044 H 95.8046 -1.9012 1.69489 0
M  V30 1045 H 96.5876 -1.20521 3.21449 0
M  V30 1046 N 99.0327 -1.24633 -0.964593 0
M  V30 1047 C 99.9657 -0.984662 -2.05863 0
M  V30 1048 C 100.944 0.0826554 -1.6239 0
M  V30 1049 O 102.128 -0.0549296 -1.8842 0
M  V30 1050 C 99.2547 -0.486529 -3.35187 0
M  V30 1051 C 98.3007 -1.54286 -3.97615 0
M  V30 1052 S 99.1337 -3.12513 -4.34851 0
M  V30 1053 C 100.29 -2.6441 -5.67308 0
M  V30 1054 H 100.523 -1.91104 -2.27743 0
M  V30 1055 H 98.0557 -1.08052 -1.10291 0
M  V30 1056 H 100.014 -0.205757 -4.09984 0
M  V30 1057 H 98.6747 0.419186 -3.1129 0
M  V30 1058 H 97.8677 -1.14481 -4.90826 0
M  V30 1059 H 97.4697 -1.7738 -3.2926 0
M  V30 1060 H 99.7617 -2.07416 -6.44969 0
M  V30 1061 H 100.705 -3.56222 -6.11973 0
M  V30 1062 H 101.113 -2.04734 -5.26065 0
M  V30 1063 N 100.511 1.16574 -1.06058 0
M  V30 1064 C 101.788 1.83048 -0.689416 0
M  V30 1065 C 102.168 1.94122 0.829443 0
M  V30 1066 O 101.516 1.48249 1.7388 0
M  V30 1067 C 101.726 3.20186 -1.38859 0
M  V30 1068 C 103.074 3.95989 -1.53226 0
M  V30 1069 O 104.098 3.29696 -1.3483 0
M  V30 1070 O 102.957 5.14813 -1.83384 0
M  V30 1071 H 100.051 0.790258 -0.243764 0
M  V30 1072 H 102.597 1.23797 -1.16071 0
M  V30 1073 H 101.369 3.07146 -2.4244 0
M  V30 1074 H 100.992 3.87112 -0.907216 0
M  V30 1075 N 101.989 0.842826 1.3317 0
M  V30 1076 C 103.214 0.453129 2.02389 0
M  V30 1077 C 103.639 -0.939105 1.6298 0
M  V30 1078 O 102.997 -1.61472 0.8244 0
M  V30 1079 C 103.045 0.586094 3.55805 0
M  V30 1080 O 102.149 -0.386029 4.10589 0
M  V30 1081 H 101.49 0.183664 0.638094 0
M  V30 1082 H 104.02 1.13875 1.69981 0
M  V30 1083 H 104.03 0.469209 4.05293 0
M  V30 1084 H 102.705 1.6014 3.83833 0
M  V30 1085 H 101.282 -0.226371 3.72212 0
M  V30 1086 N 103.467 -1.45747 0.599634 0
M  V30 1087 C 104.415 -2.322 -0.136426 0
M  V30 1088 C 105.409 -1.45497 -0.867583 0
M  V30 1089 O 106.615 -1.62027 -0.78405 0
M  V30 1090 H 102.99 -0.749368 -0.0628588 0
M  V30 1091 H 104.961 -2.92072 0.611281 0
M  V30 1092 C 103.71 -3.28974 -1.12567 0
M  V30 1093 H 103.033 -3.9568 -0.572484 0
M  V30 1094 H 104.473 -3.92212 -1.61077 0
M  V30 1095 C 102.932 -2.55561 -2.19523 0
M  V30 1096 O 103.462 -2.33111 -3.27143 0
M  V30 1097 N 101.668 -2.15832 -1.94589 0
M  V30 1098 H 101.215 -2.3429 -1.07078 0
M  V30 1099 H 101.173 -1.67034 -2.66359 0
M  V30 1100 N 104.945 -0.338344 -1.53925 0
M  V30 1101 C 106.194 0.260732 -2.00008 0
M  V30 1102 C 106.507 1.52073 -1.23017 0
M  V30 1103 O 107.713 2.19672 -1.5955 0
M  V30 1104 C 106.169 0.51515 -3.56194 0
M  V30 1105 C 105.777 -0.728645 -4.42035 0
M  V30 1106 C 107.521 1.07337 -4.10706 0
M  V30 1107 C 105.428 -0.445315 -5.89721 0
M  V30 1108 H 104.358 0.101205 -0.747177 0
M  V30 1109 H 107.009 -0.452866 -1.77824 0
M  V30 1110 H 105.391 1.28932 -3.74423 0
M  V30 1111 H 106.565 -1.50352 -4.35581 0
M  V30 1112 H 104.88 -1.20813 -3.98489 0
M  V30 1113 H 107.477 1.30022 -5.18651 0
M  V30 1114 H 107.82 2.0273 -3.63602 0
M  V30 1115 H 108.353 0.360034 -3.96167 0
M  V30 1116 H 105.092 -1.36883 -6.41049 0
M  V30 1117 H 104.612 0.291569 -5.99091 0
M  V30 1118 H 106.291 -0.0606218 -6.46972 0
M  V30 1119 N 106.423 1.57458 -0.0668435 0
M  V30 1120 C 107.839 1.56947 0.289772 0
M  V30 1121 C 108.039 1.07584 1.70376 0
M  V30 1122 O 107.095 0.739486 2.41429 0
M  V30 1123 C 108.408 3.0052 0.103943 0
M  V30 1124 C 109.956 3.12517 0.173857 0
M  V30 1125 C 110.431 4.57997 0.0163682 0
M  V30 1126 N 111.922 4.63144 0.0721352 0
M  V30 1127 C 112.657 5.73394 -0.0253794 0
M  V30 1128 N 112.153 6.92576 -0.176133 0
M  V30 1129 N 113.946 5.62091 0.0313305 0
M  V30 1130 H 106.097 1.87863 -0.991027 0
M  V30 1131 H 108.36 0.86583 -0.38606 0
M  V30 1132 H 108.066 3.40729 -0.871572 0
M  V30 1133 H 107.94 3.67304 0.858366 0
M  V30 1134 H 110.327 2.72197 1.13985 0
M  V30 1135 H 110.408 2.48381 -0.611586 0
M  V30 1136 H 110.052 4.99005 -0.946374 0
M  V30 1137 H 109.982 5.20158 0.821153 0
M  V30 1138 H 112.473 3.77436 0.187263 0
M  V30 1139 H 112.786 7.72418 -0.242821 0
M  V30 1140 H 111.131 6.94678 -0.211429 0
M  V30 1141 H 114.322 4.67867 0.147773 0
M  V30 1142 H 114.495 6.47982 -0.048121 0
M  V30 1143 N 107.901 -0.206675 1.56239 0
M  V30 1144 C 108.833 -1.27997 1.9013 0
M  V30 1145 C 109.846 -1.42299 0.790883 0
M  V30 1146 O 111.035 -1.42931 1.06925 0
M  V30 1147 C 108.135 -2.65368 2.10792 0
M  V30 1148 C 107.308 -2.72824 3.41886 0
M  V30 1149 C 106.367 -3.9131 3.51799 0
M  V30 1150 O 105.393 -3.78953 4.24716 0
M  V30 1151 N 106.595 -5.06265 2.84035 0
M  V30 1152 H 109.36 -0.992444 2.82791 0
M  V30 1153 H 106.921 -0.396652 1.56966 0
M  V30 1154 H 108.913 -3.43039 2.14724 0
M  V30 1155 H 107.483 -2.86657 1.24685 0
M  V30 1156 H 106.703 -1.81515 3.49923 0
M  V30 1157 H 107.991 -2.74786 4.28217 0
M  V30 1158 H 107.389 -5.19203 2.246 0
M  V30 1159 H 105.946 -5.81925 2.93609 0
M  V30 1160 N 109.379 -1.50304 -0.473955 0
M  V30 1161 C 110.619 -1.62786 -1.23612 0
M  V30 1162 C 110.983 -0.319786 -1.89318 0
M  V30 1163 O 112.184 -0.320012 -2.66888 0
M  V30 1164 C 110.455 -2.77351 -2.25414 0
M  V30 1165 S 112.014 -3.09948 -3.10608 0
M  V30 1166 H 108.832 -0.573895 -0.419721 0
M  V30 1167 H 111.434 -1.88076 -0.533623 0
M  V30 1168 H 110.138 -3.70879 -1.75719 0
M  V30 1169 H 109.669 -2.54137 -3.00296 0
M  V30 1170 H 111.684 -2.53553 -4.26527 0
M  V30 1171 N 110.857 0.726932 -1.39834 0
M  V30 1172 C 112.106 1.48214 -1.36805 0
M  V30 1173 C 112.419 1.95576 0.0305291 0
M  V30 1174 O 113.625 2.7088 0.183417 0
M  V30 1175 C 112.081 2.67854 -2.40379 0
M  V30 1176 C 111.689 2.27408 -3.85992 0
M  V30 1177 C 113.433 3.45641 -2.46439 0
M  V30 1178 C 111.34 3.43819 -4.81189 0
M  V30 1179 H 110.27 0.556606 -0.508631 0
M  V30 1180 H 112.921 0.792216 -1.65518 0
M  V30 1181 H 111.303 3.3896 -2.04749 0
M  V30 1182 H 112.477 1.63795 -4.30706 0
M  V30 1183 H 110.792 1.62692 -3.83302 0
M  V30 1184 H 113.389 4.32244 -3.14753 0
M  V30 1185 H 113.732 3.88669 -1.49139 0
M  V30 1186 H 114.265 2.8157 -2.81004 0
M  V30 1187 H 111.004 3.05834 -5.79781 0
M  V30 1188 H 110.524 4.06385 -4.41148 0
M  V30 1189 H 112.203 4.10043 -5.00474 0
M  V30 1190 N 112.336 1.25143 0.95797 0
M  V30 1191 C 113.561 1.12521 1.74223 0
M  V30 1192 C 113.986 -0.317402 1.85403 0
M  V30 1193 O 113.344 -1.2299 1.33204 0
M  V30 1194 C 113.392 1.78062 3.1357 0
M  V30 1195 O 112.496 1.058 3.98598 0
M  V30 1196 H 111.837 0.39304 0.535178 0
M  V30 1197 H 114.367 1.65641 1.201 0
M  V30 1198 H 114.377 1.84213 3.64046 0
M  V30 1199 H 113.052 2.83021 3.04749 0
M  V30 1200 H 111.629 1.07506 3.57067 0
M  V30 1201 N 113.814 -1.1601 1.06675 0
M  V30 1202 C 115.062 -1.86264 0.784229 0
M  V30 1203 C 115.383 -1.82328 -0.691488 0
M  V30 1204 O 114.653 -1.25947 -1.50047 0
M  V30 1205 H 113.233 -0.689621 0.28711 0
M  V30 1206 H 115.895 -1.40664 1.34906 0
M  V30 1207 H 114.991 -2.91595 1.11259 0
M  V30 1208 N 115.292 -0.849877 -1.32721 0
M  V30 1209 C 116.24 -0.279745 -2.30912 0
M  V30 1210 C 117.234 0.594278 -1.58634 0
M  V30 1211 O 118.44 0.482613 -1.73409 0
M  V30 1212 H 114.815 -0.0717521 -0.748569 0
M  V30 1213 H 116.786 -1.12222 -2.76494 0
M  V30 1214 C 115.535 0.521108 -3.43773 0
M  V30 1215 H 114.858 -0.142141 -3.99547 0
M  V30 1216 H 116.298 0.885693 -4.14646 0
M  V30 1217 C 114.757 1.70442 -2.90605 0
M  V30 1218 O 115.287 2.8034 -2.87702 0
M  V30 1219 N 113.493 1.52991 -2.47067 0
M  V30 1220 H 113.04 0.635914 -2.49628 0
M  V30 1221 H 112.998 2.32311 -2.11847 0
M  V30 1222 N 116.77 1.45427 -0.607355 0
M  V30 1223 C 118.01 2.04128 -0.105458 0
M  V30 1224 C 118.374 1.46555 1.24039 0
M  V30 1225 O 119.575 1.96608 1.833 0
M  V30 1226 C 117.846 3.57338 -0.0665324 0
M  V30 1227 S 119.405 4.37201 0.374207 0
M  V30 1228 H 116.223 0.709278 -0.0494575 0
M  V30 1229 H 118.825 1.78139 -0.805404 0
M  V30 1230 H 117.529 3.96752 -1.04957 0
M  V30 1231 H 117.06 3.87902 0.655415 0
M  V30 1232 H 119.075 4.6888 1.62377 0
M  V30 1233 N 118.248 0.346503 1.53744 0
M  V30 1234 C 119.525 -0.304532 1.93215 0
M  V30 1235 C 119.905 -1.67993 1.27834 0
M  V30 1236 O 119.253 -2.24411 0.430352 0
M  V30 1237 C 119.463 -0.373852 3.46992 0
M  V30 1238 C 120.811 -0.62329 4.2 0
M  V30 1239 O 121.835 -0.455847 3.53271 0
M  V30 1240 O 120.694 -0.947879 5.38217 0
M  V30 1241 H 117.788 -0.178318 0.807547 0
M  V30 1242 H 120.334 0.397895 1.64969 0
M  V30 1243 H 119.106 0.591224 3.86808 0
M  V30 1244 H 118.729 -1.12294 3.81413 0
M  V30 1245 N 119.726 -1.57421 0.075193 0
M  V30 1246 C 121.003 -1.85029 -0.634329 0
M  V30 1247 C 121.383 -0.968305 -1.87582 0
M  V30 1248 O 120.731 -0.0354749 -2.28472 0
M  V30 1249 C 120.941 -3.35286 -0.968742 0
M  V30 1250 C 122.289 -4.02875 -1.34077 0
M  V30 1251 O 123.313 -3.40051 -1.06037 0
M  V30 1252 O 122.172 -5.13691 -1.86506 0
M  V30 1253 H 119.266 -0.7645 -0.315387 0
M  V30 1254 H 121.812 -1.69366 0.106382 0
M  V30 1255 H 120.584 -3.91203 -0.0871376 0
M  V30 1256 H 120.207 -3.56223 -1.7661 0
M  V30 1257 N 121.204 0.198386 -1.56346 0
M  V30 1258 C 122.137 1.27381 -1.89339 0
M  V30 1259 C 123.115 1.44106 -0.753134 0
M  V30 1260 O 124.299 1.59549 -1.00381 0
M  V30 1261 C 121.426 2.6409 -2.12071 0
M  V30 1262 C 120.472 2.64253 -3.34772 0
M  V30 1263 S 121.305 2.16013 -4.89999 0
M  V30 1264 C 122.461 3.54553 -5.15794 0
M  V30 1265 H 122.694 0.992058 -2.8026 0
M  V30 1266 H 120.227 0.401726 -1.49082 0
M  V30 1267 H 122.185 3.42786 -2.2585 0
M  V30 1268 H 120.846 2.89478 -1.21906 0
M  V30 1269 H 120.039 3.64768 -3.47794 0
M  V30 1270 H 119.641 1.93637 -3.1997 0
M  V30 1271 H 121.933 4.50396 -5.06112 0
M  V30 1272 H 122.876 3.46428 -6.1757 0
M  V30 1273 H 123.284 3.49313 -4.43442 0
M  V30 1274 N 122.682 1.50554 0.465978 0
M  V30 1275 C 123.959 1.5232 1.22712 0
M  V30 1276 C 124.339 0.270807 2.09356 0
M  V30 1277 O 123.687 -0.745541 2.15995 0
M  V30 1278 C 123.897 2.82175 2.05374 0
M  V30 1279 C 125.245 3.33033 2.6339 0
M  V30 1280 O 126.269 2.83531 2.15612 0
M  V30 1281 O 125.128 4.19336 3.50456 0
M  V30 1282 H 122.222 0.611183 0.557122 0
M  V30 1283 H 124.768 1.62847 0.477381 0
M  V30 1284 H 123.54 3.64797 1.41558 0
M  V30 1285 H 123.163 2.74675 2.87471 0
M  V30 1286 N 124.16 -0.719506 1.40217 0
M  V30 1287 C 125.385 -1.51371 1.4178 0
M  V30 1288 C 125.81 -1.88091 0.0182355 0
M  V30 1289 O 125.168 -1.52997 -0.972707 0
M  V30 1290 C 125.216 -2.768 2.31115 0
M  V30 1291 O 124.32 -3.73349 1.7517 0
M  V30 1292 H 123.661 -0.456529 0.482159 0
M  V30 1293 H 126.191 -0.88644 1.844 0
M  V30 1294 H 126.201 -3.25371 2.46167 0
M  V30 1295 H 124.876 -2.49407 3.3282 0
M  V30 1296 H 123.453 -3.32179 1.69444 0
M  V30 1297 N 125.638 -1.25649 -0.95132 0
M  V30 1298 C 127.049 -1.09654 -1.51106 0
M  V30 1299 C 127.4 0.326615 -1.93462 0
M  V30 1300 O 126.525 1.21697 -1.78938 0
M  V30 1301 C 127.12 -1.98437 -2.74605 0
M  V30 1302 C 125.679 -1.86618 -3.2688 0
M  V30 1303 C 124.826 -1.9239 -1.99703 0
M  V30 1304 H 127.777 -1.38887 -0.767865 0
M  V30 1305 H 127.798 -1.5263 -3.48546 0
M  V30 1306 H 127.31 -3.02009 -2.43746 0
M  V30 1307 H 125.411 -0.859421 -3.62553 0
M  V30 1308 H 125.524 -2.71607 -3.94673 0
M  V30 1309 H 123.888 -1.36317 -2.15151 0
M  V30 1310 H 124.671 -2.97573 -1.71188 0
M  V30 1311 N 127.117 1.15442 -1.07289 0
M  V30 1312 C 128.049 2.19773 -0.650585 0
M  V30 1313 C 129.062 1.60076 0.296572 0
M  V30 1314 O 130.251 1.78293 0.0859905 0
M  V30 1315 C 127.351 3.38838 0.0650398 0
M  V30 1316 C 126.524 4.2808 -0.898141 0
M  V30 1317 C 125.583 5.2574 -0.219926 0
M  V30 1318 O 124.609 5.62654 -0.860773 0
M  V30 1319 N 125.811 5.71205 1.03466 0
M  V30 1320 H 128.576 2.56622 -1.54808 0
M  V30 1321 H 126.137 1.30551 -0.957494 0
M  V30 1322 H 128.129 4.01222 0.529415 0
M  V30 1323 H 126.699 3.00409 0.864466 0
M  V30 1324 H 125.919 3.62804 -1.54165 0
M  V30 1325 H 127.207 4.84577 -1.5512 0
M  V30 1326 H 126.605 5.43325 1.57526 0
M  V30 1327 H 125.162 6.35633 1.44272 0
M  V30 1328 N 128.595 0.856903 1.32268 0
M  V30 1329 C 129.82 0.474569 2.01897 0
M  V30 1330 C 130.245 -0.921766 1.63967 0
M  V30 1331 O 129.603 -1.60589 0.84148 0
M  V30 1332 C 129.651 0.623799 3.55164 0
M  V30 1333 O 128.755 -0.342459 4.10976 0
M  V30 1334 H 128.096 0.190422 0.63611 0
M  V30 1335 H 130.626 1.15672 1.68764 0
M  V30 1336 H 130.636 0.512169 4.04773 0
M  V30 1337 H 129.311 1.64202 3.82113 0
M  V30 1338 H 127.888 -0.18688 3.72431 0
M  V30 1339 N 130.073 -1.45103 0.615059 0
M  V30 1340 C 131.484 -1.85654 0.197383 0
M  V30 1341 C 131.835 -1.51433 -1.24749 0
M  V30 1342 O 130.96 -0.944608 -1.94695 0
M  V30 1343 C 131.555 -3.36972 0.351448 0
M  V30 1344 C 130.114 -3.76398 -0.011593 0
M  V30 1345 C 129.261 -2.69024 0.672394 0
M  V30 1346 H 132.212 -1.35797 0.821263 0
M  V30 1347 H 132.233 -3.78239 -0.414227 0
M  V30 1348 H 131.745 -3.61847 1.40314 0
M  V30 1349 H 129.846 -3.5714 -1.06217 0
M  V30 1350 H 129.959 -4.77532 0.387265 0
M  V30 1351 H 128.323 -2.54465 0.109284 0
M  V30 1352 H 129.106 -2.96735 1.72636 0
M  V30 1353 N 131.551 -0.354651 -1.53558 0
M  V30 1354 C 132.483 0.5315 -2.22952 0
M  V30 1355 C 133.496 1.05503 -1.23988 0
M  V30 1356 O 134.685 0.963279 -1.50277 0
M  V30 1357 C 131.785 1.74538 -2.90499 0
M  V30 1358 C 130.958 1.35524 -4.15875 0
M  V30 1359 C 130.017 2.42999 -4.66731 0
M  V30 1360 O 129.043 2.05844 -5.30676 0
M  V30 1361 N 130.245 3.74423 -4.43608 0
M  V30 1362 H 133.01 -0.0628615 -2.99634 0
M  V30 1363 H 130.571 -0.179302 -1.60904 0
M  V30 1364 H 132.563 2.45892 -3.21433 0
M  V30 1365 H 131.133 2.24686 -2.17336 0
M  V30 1366 H 130.353 0.471998 -3.91364 0
M  V30 1367 H 131.641 1.07071 -4.97406 0
M  V30 1368 H 131.039 4.07391 -3.92491 0
M  V30 1369 H 129.596 4.41913 -4.7912 0
M  V30 1370 N 133.029 1.57378 -0.0835403 0
M  V30 1371 C 134.306 1.85363 0.624507 0
M  V30 1372 C 134.686 0.978239 1.87066 0
M  V30 1373 O 134.034 0.0475908 2.2845 0
M  V30 1374 C 134.244 3.35795 0.950947 0
M  V30 1375 C 135.592 4.03581 1.31939 0
M  V30 1376 O 136.616 3.40609 1.04232 0
M  V30 1377 O 135.475 5.14672 1.83779 0
M  V30 1378 H 132.569 0.766162 0.311329 0
M  V30 1379 H 135.115 1.69307 -0.115362 0
M  V30 1380 H 133.887 3.91244 0.0663899 0
M  V30 1381 H 133.51 3.57154 1.74719 0
M  V30 1382 N 134.507 -0.190092 1.56449 0
M  V30 1383 C 135.784 -0.935886 1.71757 0
M  V30 1384 C 136.164 -2.01173 0.639726 0
M  V30 1385 O 135.512 -2.25827 -0.348502 0
M  V30 1386 C 135.722 -1.51775 3.1427 0
M  V30 1387 C 137.07 -1.99794 3.74656 0
M  V30 1388 O 138.094 -1.61607 3.1743 0
M  V30 1389 O 136.953 -2.70079 4.751 0
M  V30 1390 H 134.047 -0.439229 0.700719 0
M  V30 1391 H 136.593 -0.179395 1.68749 0
M  V30 1392 H 135.365 -0.742505 3.84191 0
M  V30 1393 H 134.988 -2.33894 3.21527 0
M  V30 1394 N 135.985 -1.50799 -0.457987 0
M  V30 1395 C 137.231 -1.62683 -1.21088 0
M  V30 1396 C 137.564 -0.332268 -1.91336 0
M  V30 1397 O 136.839 0.667043 -1.82704 0
M  V30 1398 C 137.122 -2.81615 -2.24422 0
M  V30 1399 C 136.975 -4.20989 -1.58392 0
M  V30 1400 C 138.294 -2.96085 -3.2561 0
M  V30 1401 H 135.413 -0.592087 -0.438864 0
M  V30 1402 H 138.055 -1.83225 -0.50286 0
M  V30 1403 H 136.205 -2.64231 -2.84806 0
M  V30 1404 H 137.877 -4.49994 -1.01504 0
M  V30 1405 H 136.12 -4.24641 -0.886704 0
M  V30 1406 H 136.791 -5.0016 -2.33547 0
M  V30 1407 H 139.267 -3.12042 -2.75262 0
M  V30 1408 H 138.143 -3.80902 -3.95228 0
M  V30 1409 H 138.404 -2.0726 -3.90507 0
M  V30 1410 N 137.463 0.71206 -1.40597 0
M  V30 1411 C 138.691 1.50111 -1.42388 0
M  V30 1412 C 139.106 1.88784 -0.0245395 0
M  V30 1413 O 138.463 1.55681 0.952351 0
M  V30 1414 C 138.514 2.7742 -2.31776 0
M  V30 1415 O 138.235 2.40382 -3.66262 0
M  V30 1416 C 139.736 3.7129 -2.42196 0
M  V30 1417 H 136.956 0.46314 -0.485533 0
M  V30 1418 H 139.5 0.878068 -1.8469 0
M  V30 1419 H 137.655 3.36001 -1.92827 0
M  V30 1420 H 138.069 3.22324 -4.13772 0
M  V30 1421 H 139.543 4.57448 -3.08943 0
M  V30 1422 H 140.02 4.14641 -1.44809 0
M  V30 1423 H 140.626 3.18619 -2.81712 0
M  V30 1424 N 138.941 1.26152 0.944643 0
M  V30 1425 C 139.851 1.09176 2.07648 0
M  V30 1426 C 140.867 0.0261935 1.7398 0
M  V30 1427 O 142.043 0.229208 2.00091 0
M  V30 1428 C 139.108 0.722915 3.39079 0
M  V30 1429 C 138.169 1.86752 3.86552 0
M  V30 1430 C 137.402 1.51617 5.11711 0
M  V30 1431 O 137.625 0.416331 5.68879 0
M  V30 1432 O 136.559 2.34975 5.54139 0
M  V30 1433 H 140.385 2.0412 2.24875 0
M  V30 1434 H 137.97 1.05182 1.061 0
M  V30 1435 H 139.852 0.529787 4.18056 0
M  V30 1436 H 138.527 -0.197159 3.23099 0
M  V30 1437 H 137.434 2.11558 3.08535 0
M  V30 1438 H 138.767 2.76719 4.07047 0
M  V30 1439 N 140.419 -1.14872 1.07899 0
M  V30 1440 C 141.647 -1.89661 0.82683 0
M  V30 1441 C 142.062 -1.78312 -0.620519 0
M  V30 1442 O 141.419 -1.13888 -1.42604 0
M  V30 1443 C 141.47 -3.39817 1.23316 0
M  V30 1444 O 141.191 -3.50845 2.62372 0
M  V30 1445 C 142.692 -4.31615 1.0111 0
M  V30 1446 H 139.912 -0.60092 0.298557 0
M  V30 1447 H 142.456 -1.4551 1.43691 0
M  V30 1448 H 140.611 -3.8161 0.667286 0
M  V30 1449 H 141.025 -4.44076 2.79101 0
M  V30 1450 H 142.499 -5.35367 1.34486 0
M  V30 1451 H 142.976 -4.39169 -0.0522168 0
M  V30 1452 H 143.582 -3.95572 1.56215 0
M  V30 1453 N 141.898 -0.863906 -1.31812 0
M  V30 1454 C 143.309 -0.52522 -1.7916 0
M  V30 1455 C 143.66 0.957518 -1.71248 0
M  V30 1456 O 142.785 1.74734 -1.27659 0
M  V30 1457 C 143.38 -0.9466 -3.25307 0
M  V30 1458 C 141.939 -0.659668 -3.70574 0
M  V30 1459 C 141.086 -1.14126 -2.52726 0
M  V30 1460 H 144.037 -1.05022 -1.1898 0
M  V30 1461 H 144.058 -0.266766 -3.79564 0
M  V30 1462 H 143.57 -2.02579 -3.31034 0
M  V30 1463 H 141.671 0.408416 -3.70355 0
M  V30 1464 H 141.784 -1.23245 -4.62977 0
M  V30 1465 H 140.148 -0.561216 -2.4844 0
M  V30 1466 H 140.931 -2.22775 -2.61201 0
M  V30 1467 N 143.376 1.44774 -0.622745 0
M  V30 1468 C 144.601 2.06999 -0.128968 0
M  V30 1469 C 145.026 1.4617 1.1839 0
M  V30 1470 O 144.384 0.560007 1.72434 0
M  V30 1471 C 144.432 3.60595 -0.0188351 0
M  V30 1472 O 143.536 3.99398 1.02739 0
M  V30 1473 H 142.877 0.659047 -0.0809544 0
M  V30 1474 H 145.407 1.85784 -0.85705 0
M  V30 1475 H 145.417 4.07627 0.174476 0
M  V30 1476 H 144.092 4.04252 -0.977384 0
M  V30 1477 H 142.669 3.64011 0.809326 0
M  V30 1478 N 144.854 0.36279 1.53368 0
M  V30 1479 C 145.802 -0.500155 2.27159 0
M  V30 1480 C 146.796 -1.08575 1.3003 0
M  V30 1481 O 148.002 -1.02927 1.47668 0
M  V30 1482 H 144.377 -0.180009 0.730138 0
M  V30 1483 H 146.348 0.14401 2.98052 0
M  V30 1484 C 145.097 -1.62937 3.07159 0
M  V30 1485 H 144.42 -1.18806 3.8174 0
M  V30 1486 H 145.86 -2.20795 3.61975 0
M  V30 1487 C 144.319 -2.57007 2.17829 0
M  V30 1488 O 144.849 -3.59752 1.78721 0
M  V30 1489 N 143.055 -2.26131 1.82518 0
M  V30 1490 H 142.602 -1.42616 2.14519 0
M  V30 1491 H 142.56 -2.89327 1.23034 0
M  V30 1492 N 146.332 -1.57332 0.0918853 0
M  V30 1493 C 147.743 -1.81496 -0.437739 0
M  V30 1494 C 148.094 -1.00727 -1.6837 0
M  V30 1495 O 147.219 -0.235694 -2.15113 0
M  V30 1496 C 147.814 -3.29197 -0.800939 0
M  V30 1497 C 146.373 -3.54136 -1.27532 0
M  V30 1498 C 145.52 -2.75979 -0.270392 0
M  V30 1499 H 148.471 -1.55494 0.317366 0
M  V30 1500 H 148.492 -3.42344 -1.66074 0
M  V30 1501 H 148.004 -3.87955 0.106078 0
M  V30 1502 H 146.105 -3.00705 -2.20016 0
M  V30 1503 H 146.218 -4.62792 -1.23938 0
M  V30 1504 H 144.582 -2.43349 -0.751872 0
M  V30 1505 H 145.365 -3.37484 0.629248 0
M  V30 1506 N 147.81 0.181792 -1.56548 0
M  V30 1507 C 148.758 1.24461 -1.965 0
M  V30 1508 C 149.752 1.464 -0.852261 0
M  V30 1509 O 150.958 1.47103 -1.03733 0
M  V30 1510 H 147.333 0.418138 -0.625031 0
M  V30 1511 H 149.304 0.880714 -2.85107 0
M  V30 1512 C 148.053 2.57891 -2.33212 0
M  V30 1513 H 147.376 2.41829 -3.18369 0
M  V30 1514 H 148.816 3.3097 -2.65019 0
M  V30 1515 C 147.275 3.15871 -1.17163 0
M  V30 1516 O 147.805 3.9913 -0.453708 0
M  V30 1517 N 146.011 2.74808 -0.944936 0
M  V30 1518 H 145.558 2.07205 -1.53049 0
M  V30 1519 H 145.516 3.13939 -0.170286 0
M  V30 1520 N 149.288 1.51039 0.449983 0
M  V30 1521 C 150.513 1.6715 1.22783 0
M  V30 1522 C 150.938 0.363081 1.84563 0
M  V30 1523 O 150.296 -0.675433 1.68249 0
M  V30 1524 C 150.344 2.77985 2.29689 0
M  V30 1525 O 149.448 2.40707 3.34864 0
M  V30 1526 H 148.789 0.557746 0.360299 0
M  V30 1527 H 151.319 1.97535 0.533005 0
M  V30 1528 H 151.329 3.01693 2.74673 0
M  V30 1529 H 150.004 3.72935 1.84098 0
M  V30 1530 H 148.581 2.27523 2.95445 0
M  V30 1531 N 150.766 -0.704594 1.40972 0
M  V30 1532 C 152.177 -1.28418 1.3552 0
M  V30 1533 C 152.528 -1.96171 0.0339434 0
M  V30 1534 O 151.653 -1.98231 -0.867944 0
M  V30 1535 C 152.248 -2.33528 2.45459 0
M  V30 1536 C 150.807 -2.87085 2.43433 0
M  V30 1537 C 149.954 -1.61007 2.2577 0
M  V30 1538 H 152.905 -0.499963 1.50619 0
M  V30 1539 H 152.926 -3.14619 2.13998 0
M  V30 1540 H 152.438 -1.84187 3.41609 0
M  V30 1541 H 150.539 -3.40626 1.51013 0
M  V30 1542 H 150.652 -3.3813 3.39419 0
M  V30 1543 H 149.016 -1.86482 1.73483 0
M  V30 1544 H 149.799 -1.13675 3.23933 0
M  V30 1545 N 152.244 -1.26651 -0.937939 0
M  V30 1546 C 153.469 -1.15279 -1.72411 0
M  V30 1547 C 153.894 0.287866 -1.85884 0
M  V30 1548 O 153.252 1.20855 -1.35143 0
M  V30 1549 C 153.3 -1.83028 -3.10698 0
M  V30 1550 O 152.404 -1.12128 -3.96864 0
M  V30 1551 H 151.745 -0.401504 -0.528858 0
M  V30 1552 H 154.275 -1.67531 -1.1745 0
M  V30 1553 H 154.285 -1.89981 -3.6107 0
M  V30 1554 H 152.96 -2.87833 -3.00208 0
M  V30 1555 H 151.537 -1.13173 -3.55312 0
M  V30 1556 N 153.722 1.14298 -1.08507 0
M  V30 1557 C 154.685 2.17607 -0.719711 0
M  V30 1558 C 155.685 1.58907 0.245997 0
M  V30 1559 O 156.875 1.74181 0.0254081 0
M  V30 1560 C 154.007 3.40842 -0.0627695 0
M  V30 1561 H 155.2 2.51443 -1.63452 0
M  V30 1562 H 152.753 1.28963 -0.88307 0
M  V30 1563 H 153.488 3.12587 0.863716 0
M  V30 1564 H 153.273 3.84713 -0.757504 0
M  V30 1565 H 154.763 4.17221 0.177786 0
M  V30 1566 N 155.201 0.870884 1.31352 0
M  V30 1567 C 156.133 0.28455 2.27427 0
M  V30 1568 C 157.146 -0.552927 1.53123 0
M  V30 1569 O 158.335 -0.374771 1.74521 0
M  V30 1570 C 155.435 -0.615164 3.3327 0
M  V30 1571 C 154.608 0.190079 4.36987 0
M  V30 1572 C 153.667 -0.637917 5.22319 0
M  V30 1573 O 152.693 -0.065626 5.69162 0
M  V30 1574 N 153.895 -1.94973 5.46778 0
M  V30 1575 H 156.66 1.11017 2.7838 0
M  V30 1576 H 154.221 0.732458 1.44384 0
M  V30 1577 H 156.213 -1.1748 3.87273 0
M  V30 1578 H 154.783 -1.34146 2.82354 0
M  V30 1579 H 154.003 0.931165 3.83044 0
M  V30 1580 H 155.291 0.742579 5.03352 0
M  V30 1581 H 154.689 -2.4378 5.10478 0
M  V30 1582 H 153.246 -2.45713 6.03712 0
M  V30 1583 N 156.679 -1.44442 0.630414 0
M  V30 1584 C 157.609 -2.33418 -0.0618083 0
M  V30 1585 C 158.59 -1.48165 -0.835541 0
M  V30 1586 O 159.775 -1.76886 -0.801564 0
M  V30 1587 C 156.905 -3.31222 -1.04449 0
M  V30 1588 C 155.859 -4.26288 -0.382436 0
M  V30 1589 C 155.185 -5.13954 -1.47497 0
M  V30 1590 C 156.485 -5.1744 0.710865 0
M  V30 1591 H 158.179 -2.91548 0.681184 0
M  V30 1592 H 155.725 -1.40191 0.329026 0
M  V30 1593 H 157.678 -3.92351 -1.53748 0
M  V30 1594 H 156.402 -2.71299 -1.81836 0
M  V30 1595 H 155.061 -3.6649 0.0899054 0
M  V30 1596 H 154.709 -4.50385 -2.2397 0
M  V30 1597 H 154.409 -5.7837 -1.03737 0
M  V30 1598 H 155.933 -5.77955 -1.96979 0
M  V30 1599 H 157.347 -5.72509 0.300996 0
M  V30 1600 H 155.744 -5.90455 1.07156 0
M  V30 1601 H 156.814 -4.58496 1.57829 0
M  V30 1602 N 158.157 -0.370918 -1.53173 0
M  V30 1603 C 159.12 0.460778 -2.24521 0
M  V30 1604 C 160.12 1.00536 -1.25496 0
M  V30 1605 O 161.31 0.890266 -1.49733 0
M  V30 1606 C 158.442 1.64457 -2.98608 0
M  V30 1607 H 159.635 -0.163613 -2.99453 0
M  V30 1608 H 157.188 -0.122699 -1.55818 0
M  V30 1609 H 157.923 2.30691 -2.2793 0
M  V30 1610 H 157.708 1.26099 -3.7127 0
M  V30 1611 H 159.198 2.23384 -3.5283 0
M  V30 1612 N 159.635 1.57281 -0.100228 0
M  V30 1613 C 160.582 2.14305 0.856858 0
M  V30 1614 C 161.552 1.06296 1.27634 0
M  V30 1615 O 162.737 1.34109 1.35718 0
M  V30 1616 C 159.877 2.73184 2.10866 0
M  V30 1617 C 158.99 3.95442 1.73925 0
M  V30 1618 C 158.125 4.42468 2.93931 0
M  V30 1619 C 157.164 5.57303 2.5314 0
M  V30 1620 N 156.301 5.99158 3.65997 0
M  V30 1621 H 161.141 2.95772 0.363726 0
M  V30 1622 H 158.678 1.46139 0.167858 0
M  V30 1623 H 160.636 3.05442 2.84185 0
M  V30 1624 H 159.266 1.94437 2.57671 0
M  V30 1625 H 158.318 3.69464 0.905554 0
M  V30 1626 H 159.63 4.78769 1.39935 0
M  V30 1627 H 158.784 4.76537 3.75496 0
M  V30 1628 H 157.523 3.58052 3.31134 0
M  V30 1629 H 156.528 5.22857 1.70003 0
M  V30 1630 H 157.753 6.43471 2.17075 0
M  V30 1631 H 155.699 5.17687 4.02909 0
M  V30 1632 H 155.616 6.77295 3.35869 0
M  V30 1633 H 156.884 6.3786 4.48057 0
M  V30 1634 N 161.113 -0.173488 1.56642 0
M  V30 1635 C 162.023 -1.23482 1.99473 0
M  V30 1636 C 163.039 -1.48567 0.905752 0
M  V30 1637 O 164.215 -1.60758 1.21321 0
M  V30 1638 C 161.28 -2.55444 2.34413 0
M  V30 1639 C 160.341 -2.38241 3.57127 0
M  V30 1640 C 159.574 -3.63909 3.90392 0
M  V30 1641 O 159.797 -4.68996 3.24653 0
M  V30 1642 O 158.731 -3.58149 4.83749 0
M  V30 1643 H 162.557 -0.901279 2.90018 0
M  V30 1644 H 160.142 -0.380185 1.44482 0
M  V30 1645 H 162.024 -3.33292 2.57865 0
M  V30 1646 H 160.699 -2.88382 1.4703 0
M  V30 1647 H 159.606 -1.58431 3.38896 0
M  V30 1648 H 160.939 -2.10228 4.45045 0
M  V30 1649 N 162.591 -1.51276 -0.441967 0
M  V30 1650 C 163.501 -1.75092 -1.56141 0
M  V30 1651 C 164.517 -0.634963 -1.62001 0
M  V30 1652 O 165.693 -0.916686 -1.79329 0
M  V30 1653 C 162.758 -1.86666 -2.92158 0
M  V30 1654 C 161.819 -3.10506 -2.96453 0
M  V30 1655 C 161.052 -3.21519 -4.25982 0
M  V30 1656 O 161.275 -2.38586 -5.18105 0
M  V30 1657 O 160.209 -4.14465 -4.36466 0
M  V30 1658 H 164.035 -2.70044 -1.38961 0
M  V30 1659 H 161.62 -1.35722 -0.624499 0
M  V30 1660 H 163.502 -1.96292 -3.72891 0
M  V30 1661 H 162.177 -0.949014 -3.09476 0
M  V30 1662 H 161.084 -3.06363 -2.14692 0
M  V30 1663 H 162.417 -4.01945 -2.84079 0
M  V30 1664 N 164.069 0.697108 -1.41344 0
M  V30 1665 C 165.001 1.8224 -1.39001 0
M  V30 1666 C 166.014 1.60152 -0.292428 0
M  V30 1667 O 167.203 1.69684 -0.554048 0
M  V30 1668 C 164.303 3.18976 -1.14489 0
M  V30 1669 C 163.476 3.68105 -2.36258 0
M  V30 1670 C 162.535 4.83506 -2.07625 0
M  V30 1671 O 161.561 4.95201 -2.8065 0
M  V30 1672 N 162.763 5.70637 -1.06555 0
M  V30 1673 H 165.528 1.84742 -2.35988 0
M  V30 1674 H 163.089 0.87937 -1.35936 0
M  V30 1675 H 165.081 3.93801 -0.932885 0
M  V30 1676 H 163.651 3.11508 -0.261043 0
M  V30 1677 H 162.871 2.84204 -2.7317 0
M  V30 1678 H 164.159 3.97667 -3.17393 0
M  V30 1679 H 163.557 5.63817 -0.461125 0
M  V30 1680 H 162.114 6.45368 -0.913444 0
M  V30 1681 N 165.547 1.27147 0.931209 0
M  V30 1682 C 166.963 1.04475 1.20653 0
M  V30 1683 C 167.163 -0.223885 2.00252 0
M  V30 1684 O 166.219 -0.930332 2.34736 0
M  V30 1685 C 167.532 2.28209 1.95809 0
M  V30 1686 C 169.08 2.33211 2.08762 0
M  V30 1687 C 169.555 3.56665 2.87323 0
M  V30 1688 N 171.046 3.57201 2.94892 0
M  V30 1689 C 171.781 4.49395 3.56134 0
M  V30 1690 N 171.277 5.51889 4.18796 0
M  V30 1691 N 173.07 4.37026 3.53504 0
M  V30 1692 H 165.221 2.08612 0.399333 0
M  V30 1693 H 167.484 0.917312 0.239253 0
M  V30 1694 H 167.19 3.20538 1.44736 0
M  V30 1695 H 167.064 2.33247 2.96438 0
M  V30 1696 H 169.451 1.41391 2.59023 0
M  V30 1697 H 169.532 2.32178 1.07364 0
M  V30 1698 H 169.176 4.4882 2.37746 0
M  V30 1699 H 169.106 3.54948 3.88998 0
M  V30 1700 H 171.597 2.83074 2.50354 0
M  V30 1701 H 171.91 6.18409 4.63454 0
M  V30 1702 H 170.255 5.55735 4.17353 0
M  V30 1703 H 173.446 3.56166 3.03749 0
M  V30 1704 H 173.619 5.09067 4.00942 0
M  V30 1705 N 167.025 -1.13721 1.09112 0
M  V30 1706 C 168.441 -1.36914 0.820174 0
M  V30 1707 C 168.641 -1.93356 -0.567079 0
M  V30 1708 O 167.697 -2.15093 -1.32255 0
M  V30 1709 C 169.01 -2.3235 1.90877 0
M  V30 1710 C 170.558 -2.45973 1.93562 0
M  V30 1711 C 171.033 -3.44714 3.01556 0
M  V30 1712 N 172.524 -3.52263 3.00775 0
M  V30 1713 C 173.259 -4.28536 3.80978 0
M  V30 1714 N 172.755 -5.07991 4.71081 0
M  V30 1715 N 174.548 -4.23804 3.69251 0
M  V30 1716 H 166.699 -0.754348 1.98553 0
M  V30 1717 H 168.962 -0.3944 0.862063 0
M  V30 1718 H 168.668 -1.98027 2.90651 0
M  V30 1719 H 168.542 -3.32332 1.78424 0
M  V30 1720 H 170.929 -2.79584 0.944286 0
M  V30 1721 H 171.01 -1.45926 2.10093 0
M  V30 1722 H 170.654 -3.11835 4.00901 0
M  V30 1723 H 170.584 -4.44558 2.82269 0
M  V30 1724 H 173.075 -2.95567 2.35475 0
M  V30 1725 H 173.388 -5.63487 5.28869 0
M  V30 1726 H 171.733 -5.07235 4.75119 0
M  V30 1727 H 174.924 -3.60806 2.98222 0
M  V30 1728 H 175.097 -4.82995 4.31995 0
M  V30 1729 N 168.503 -0.877838 -1.30888 0
M  V30 1730 C 169.45 -0.337538 -2.28318 0
M  V30 1731 C 170.42 0.568346 -1.56074 0
M  V30 1732 O 171.605 0.498298 -1.84178 0
M  V30 1733 C 168.745 0.448142 -3.42178 0
M  V30 1734 C 167.858 -0.48615 -4.29256 0
M  V30 1735 C 166.993 0.314427 -5.30269 0
M  V30 1736 C 166.032 -0.615791 -6.08995 0
M  V30 1737 N 165.169 0.14902 -7.01942 0
M  V30 1738 H 170.009 -1.17356 -2.73919 0
M  V30 1739 H 167.546 -0.590094 -1.34745 0
M  V30 1740 H 169.504 0.919517 -4.06941 0
M  V30 1741 H 168.134 1.24879 -2.97666 0
M  V30 1742 H 167.186 -1.076 -3.64865 0
M  V30 1743 H 168.498 -1.19909 -4.84173 0
M  V30 1744 H 167.652 0.847969 -6.00745 0
M  V30 1745 H 166.391 1.06062 -4.76027 0
M  V30 1746 H 165.396 -1.16102 -5.37401 0
M  V30 1747 H 166.621 -1.36097 -6.65323 0
M  V30 1748 H 164.567 0.877884 -6.50099 0
M  V30 1749 H 164.484 -0.504433 -7.54315 0
M  V30 1750 H 165.752 0.663537 -7.76671 0
M  V30 1751 N 169.982 1.44106 -0.638065 0
M  V30 1752 C 170.929 2.30715 0.062701 0
M  V30 1753 C 171.899 1.43882 0.829883 0
M  V30 1754 O 173.084 1.72775 0.809532 0
M  V30 1755 C 170.224 3.29258 1.03358 0
M  V30 1756 C 169.337 4.31192 0.26409 0
M  V30 1757 C 168.472 5.16825 1.22741 0
M  V30 1758 C 167.511 6.10462 0.447475 0
M  V30 1759 N 166.648 6.8877 1.36161 0
M  V30 1760 H 171.488 2.90096 -0.681781 0
M  V30 1761 H 169.025 1.42925 -0.347988 0
M  V30 1762 H 170.983 3.84886 1.60992 0
M  V30 1763 H 169.613 2.71562 1.74511 0
M  V30 1764 H 168.665 3.77981 -0.428295 0
M  V30 1765 H 169.977 4.97619 -0.343052 0
M  V30 1766 H 169.131 5.77004 1.87487 0
M  V30 1767 H 167.87 4.50488 1.86847 0
M  V30 1768 H 166.875 5.49386 -0.213433 0
M  V30 1769 H 168.1 6.78837 -0.188968 0
M  V30 1770 H 166.046 6.25096 1.98975 0
M  V30 1771 H 165.963 7.51663 0.808656 0
M  V30 1772 H 167.231 7.53467 1.99769 0
M  V30 1773 N 171.46 0.379036 1.52974 0
M  V30 1774 C 172.876 0.0285448 1.59574 0
M  V30 1775 C 173.076 -1.45542 1.39355 0
M  V30 1776 O 172.132 -2.2187 1.20541 0
M  V30 1777 C 173.445 0.496535 2.96572 0
M  V30 1778 C 174.993 0.451909 3.0972 0
M  V30 1779 C 175.468 0.895924 4.49152 0
M  V30 1780 N 176.959 0.851522 4.55306 0
M  V30 1781 C 177.694 1.16661 5.61407 0
M  V30 1782 N 177.19 1.55166 6.752 0
M  V30 1783 N 178.983 1.08853 5.51459 0
M  V30 1784 H 171.134 1.34525 1.64367 0
M  V30 1785 H 173.397 0.550733 0.771619 0
M  V30 1786 H 173.103 1.53258 3.16552 0
M  V30 1787 H 172.977 -0.109802 3.7704 0
M  V30 1788 H 175.364 -0.575029 2.89443 0
M  V30 1789 H 175.445 1.09392 2.3123 0
M  V30 1790 H 175.089 1.92104 4.70168 0
M  V30 1791 H 175.019 0.23103 5.26093 0
M  V30 1792 H 177.51 0.568038 3.73606 0
M  V30 1793 H 177.823 1.776 7.52116 0
M  V30 1794 H 176.168 1.59044 6.76557 0
M  V30 1795 H 179.359 0.786803 4.6144 0
M  V30 1796 H 179.532 1.33742 6.34048 0
M  V30 1797 N 172.938 -1.57226 0.108567 0
M  V30 1798 C 174.354 -1.5766 -0.248058 0
M  V30 1799 C 174.554 -1.12063 -1.67464 0
M  V30 1800 O 173.61 -0.803236 -2.39383 0
M  V30 1801 C 174.923 -3.0069 -0.0242287 0
M  V30 1802 C 176.471 -3.12868 -0.0909372 0
M  V30 1803 C 176.946 -4.57879 0.105067 0
M  V30 1804 N 178.437 -4.63172 0.0506846 0
M  V30 1805 C 179.172 -5.73126 0.177396 0
M  V30 1806 N 178.668 -6.91866 0.359696 0
M  V30 1807 N 180.461 -5.61977 0.117709 0
M  V30 1808 H 172.612 -1.85169 1.04049 0
M  V30 1809 H 174.875 -0.85529 0.40888 0
M  V30 1810 H 174.581 -3.38299 0.961604 0
M  V30 1811 H 174.455 -3.6945 -0.76068 0
M  V30 1812 H 176.842 -2.75124 -1.06729 0
M  V30 1813 H 176.923 -2.46672 0.677225 0
M  V30 1814 H 176.567 -4.96321 1.07834 0
M  V30 1815 H 176.497 -5.22153 -0.682954 0
M  V30 1816 H 178.988 -3.778 -0.0871266 0
M  V30 1817 H 179.301 -7.71503 0.447529 0
M  V30 1818 H 177.646 -6.93874 0.395536 0
M  V30 1819 H 180.837 -4.68094 -0.0236741 0
M  V30 1820 H 181.01 -6.47627 0.219905 0
M  V30 1821 N 174.416 0.165178 -1.56732 0
M  V30 1822 C 175.346 1.20651 -1.99914 0
M  V30 1823 C 176.327 1.45827 -0.875705 0
M  V30 1824 O 177.512 1.57057 -1.14223 0
M  V30 1825 C 174.642 2.54401 -2.36427 0
M  V30 1826 C 173.596 2.43782 -3.51787 0
M  V30 1827 C 172.922 3.82078 -3.7406 0
M  V30 1828 C 174.222 1.93732 -4.85041 0
M  V30 1829 H 175.916 0.847534 -2.87154 0
M  V30 1830 H 173.462 0.40625 -1.38151 0
M  V30 1831 H 175.415 3.27458 -2.65234 0
M  V30 1832 H 174.139 2.92098 -1.46103 0
M  V30 1833 H 172.798 1.73178 -3.23117 0
M  V30 1834 H 172.446 4.17179 -2.81017 0
M  V30 1835 H 172.146 3.7584 -4.51684 0
M  V30 1836 H 173.67 4.56712 -4.05274 0
M  V30 1837 H 175.084 2.56569 -5.12684 0
M  V30 1838 H 173.481 1.98428 -5.66345 0
M  V30 1839 H 174.551 0.891962 -4.76626 0
M  V30 1840 N 175.894 1.51508 0.433938 0
M  V30 1841 C 176.841 1.73068 1.52696 0
M  V30 1842 C 177.811 0.572441 1.55924 0
M  V30 1843 O 178.996 0.807253 1.72882 0
M  V30 1844 C 176.136 1.86474 2.90381 0
M  V30 1845 C 175.249 3.14037 2.96656 0
M  V30 1846 C 174.384 3.18019 4.25485 0
M  V30 1847 C 173.423 4.39882 4.2564 0
M  V30 1848 N 172.56 4.41394 5.45999 0
M  V30 1849 H 177.4 2.66366 1.33615 0
M  V30 1850 H 174.937 1.32008 0.649018 0
M  V30 1851 H 176.895 1.92229 3.70275 0
M  V30 1852 H 175.525 0.965809 3.08013 0
M  V30 1853 H 174.577 3.17575 2.09404 0
M  V30 1854 H 175.889 4.0394 2.92633 0
M  V30 1855 H 175.043 3.22708 5.13755 0
M  V30 1856 H 173.782 2.2601 4.3217 0
M  V30 1857 H 172.787 4.35366 3.35763 0
M  V30 1858 H 174.012 5.33159 4.20617 0
M  V30 1859 H 171.958 3.52258 5.53399 0
M  V30 1860 H 171.875 5.25111 5.4387 0
M  V30 1861 H 173.143 4.50281 6.36292 0
M  V30 1862 N 177.372 -0.689602 1.41712 0
M  V30 1863 C 178.319 -1.80345 1.44029 0
M  V30 1864 C 179.289 -1.63478 0.293948 0
M  V30 1865 O 180.474 -1.84244 0.495869 0
M  V30 1866 C 177.614 -3.18272 1.33405 0
M  V30 1867 C 176.727 -3.46529 2.57956 0
M  V30 1868 C 175.862 -4.74103 2.39582 0
M  V30 1869 C 174.901 -4.95347 3.5958 0
M  V30 1870 N 174.038 -6.14151 3.40239 0
M  V30 1871 H 178.878 -1.77698 2.39222 0
M  V30 1872 H 176.415 -0.867688 1.18784 0
M  V30 1873 H 178.373 -3.97956 1.25246 0
M  V30 1874 H 177.003 -3.2008 0.418164 0
M  V30 1875 H 176.055 -2.61207 2.76542 0
M  V30 1876 H 177.367 -3.58126 3.47199 0
M  V30 1877 H 176.521 -5.61853 2.28924 0
M  V30 1878 H 175.26 -4.64763 1.47805 0
M  V30 1879 H 174.265 -4.06044 3.70686 0
M  V30 1880 H 175.49 -5.06542 4.52318 0
M  V30 1881 H 173.436 -6.06013 2.51167 0
M  V30 1882 H 173.353 -6.26543 4.23061 0
M  V30 1883 H 174.621 -7.04619 3.33365 0
M  V30 1884 N 178.85 -1.27639 -0.924453 0
M  V30 1885 C 180.266 -1.05113 -1.20097 0
M  V30 1886 C 180.466 0.213262 -2.00368 0
M  V30 1887 O 179.522 0.91787 -2.35226 0
M  V30 1888 C 180.835 -2.29244 -1.94596 0
M  V30 1889 C 182.383 -2.34315 -2.07522 0
M  V30 1890 C 182.858 -3.58183 -2.85427 0
M  V30 1891 N 184.349 -3.5876 -2.92994 0
M  V30 1892 C 185.084 -4.51277 -3.53746 0
M  V30 1893 N 184.58 -5.54102 -4.15863 0
M  V30 1894 N 186.373 -4.38894 -3.51181 0
M  V30 1895 H 178.524 -2.08821 -0.388264 0
M  V30 1896 H 180.787 -0.918568 -0.234385 0
M  V30 1897 H 180.493 -3.21301 -1.43034 0
M  V30 1898 H 180.367 -2.34816 -2.95197 0
M  V30 1899 H 182.754 -1.42762 -2.58269 0
M  V30 1900 H 182.835 -2.32744 -1.06131 0
M  V30 1901 H 182.479 -4.50074 -2.35363 0
M  V30 1902 H 182.409 -3.57006 -3.8711 0
M  V30 1903 H 184.9 -2.84398 -2.4885 0
M  V30 1904 H 185.213 -6.20859 -4.60168 0
M  V30 1905 H 183.558 -5.57941 -4.144 0
M  V30 1906 H 186.749 -3.57772 -3.01856 0
M  V30 1907 H 186.922 -5.11186 -3.98237 0
M  V30 1908 N 180.328 1.1314 -1.09713 0
M  V30 1909 C 181.577 1.83838 -0.829851 0
M  V30 1910 C 181.89 1.84599 0.646728 0
M  V30 1911 O 183.096 2.51218 1.02965 0
M  V30 1912 C 181.552 3.30069 -1.43466 0
M  V30 1913 C 181.16 3.37688 -2.94399 0
M  V30 1914 C 182.904 4.05788 -1.24645 0
M  V30 1915 C 180.811 4.78209 -3.47952 0
M  V30 1916 H 179.741 0.68877 -0.306777 0
M  V30 1917 H 182.392 1.27448 -1.3202 0
M  V30 1918 H 180.774 3.8628 -0.871996 0
M  V30 1919 H 181.948 2.91456 -3.56918 0
M  V30 1920 H 180.263 2.75436 -3.12289 0
M  V30 1921 H 182.86 5.09535 -1.62107 0
M  V30 1922 H 183.203 4.15878 -0.187357 0
M  V30 1923 H 183.736 3.55915 -1.77678 0
M  V30 1924 H 180.475 4.73311 -4.53495 0
M  V30 1925 H 179.995 5.24924 -2.90198 0
M  V30 1926 H 181.674 5.47133 -3.45332 0
M  V30 1927 N 181.806 0.884767 1.30421 0
M  V30 1928 C 183.053 0.503105 1.96151 0
M  V30 1929 C 183.381 -0.947676 1.69851 0
M  V30 1930 O 182.636 -1.68467 0.995861 0
M  V30 1931 C 182.935 0.724318 3.49983 0
M  V30 1932 C 182.601 2.15015 3.96332 0
M  V30 1933 C 181.263 2.54005 4.08699 0
M  V30 1934 C 183.615 3.07936 4.20505 0
M  V30 1935 C 180.943 3.85128 4.42599 0
M  V30 1936 C 183.295 4.3859 4.55874 0
M  V30 1937 C 181.959 4.77474 4.66449 0
M  V30 1938 H 181.229 0.184099 0.717766 0
M  V30 1939 H 183.876 1.12058 1.55291 0
M  V30 1940 H 182.181 0.0238086 3.91793 0
M  V30 1941 H 183.878 0.408617 3.98913 0
M  V30 1942 H 180.468 1.8375 3.87213 0
M  V30 1943 H 184.652 2.79033 4.10431 0
M  V30 1944 H 179.908 4.14996 4.48986 0
M  V30 1945 H 184.082 5.10629 4.7353 0
M  V30 1946 H 181.709 5.79115 4.92473 0
M  V30 1947 N 183.284 -1.43765 0.645699 0
M  V30 1948 C 184.247 -2.29163 -0.0409488 0
M  V30 1949 C 185.247 -1.41813 -0.757996 0
M  V30 1950 O 186.437 -1.63527 -0.600382 0
M  V30 1951 C 183.569 -3.23716 -1.06869 0
M  V30 1952 H 184.762 -2.91366 0.710345 0
M  V30 1953 H 182.315 -1.5092 0.406547 0
M  V30 1954 H 183.05 -2.66393 -1.84947 0
M  V30 1955 H 182.835 -3.88105 -0.558277 0
M  V30 1956 H 184.325 -3.87831 -1.54845 0
M  V30 1957 N 184.763 -0.387143 -1.52771 0
M  V30 1958 C 185.726 0.436939 -2.24997 0
M  V30 1959 C 186.726 0.991991 -1.26555 0
M  V30 1960 O 187.916 0.874335 -1.50669 0
M  V30 1961 C 185.048 1.61281 -3.00335 0
M  V30 1962 H 186.241 -0.195365 -2.99263 0
M  V30 1963 H 183.794 -0.139218 -1.55679 0
M  V30 1964 H 184.529 2.2826 -2.30364 0
M  V30 1965 H 184.314 1.22154 -3.72587 0
M  V30 1966 H 185.804 2.19629 -3.5518 0
M  V30 1967 N 186.241 1.57166 -0.116904 0
M  V30 1968 C 187.487 1.95412 0.542405 0
M  V30 1969 C 187.82 1.00019 1.66463 0
M  V30 1970 O 187.095 0.0370346 1.94465 0
M  V30 1971 C 187.378 3.43615 1.07708 0
M  V30 1972 C 187.231 4.49781 -0.0415868 0
M  V30 1973 C 188.55 3.93616 1.96861 0
M  V30 1974 H 185.669 0.710543 0.195696 0
M  V30 1975 H 188.311 1.89027 -0.192038 0
M  V30 1976 H 186.461 3.49187 1.70296 0
M  V30 1977 H 188.133 4.56308 -0.676793 0
M  V30 1978 H 186.376 4.28033 -0.705019 0
M  V30 1979 H 187.047 5.50733 0.373717 0
M  V30 1980 H 189.523 3.90335 1.44146 0
M  V30 1981 H 188.399 4.97838 2.3119 0
M  V30 1982 H 188.66 3.34188 2.89432 0
M  V30 1983 N 187.719 -0.156864 1.56817 0
M  V30 1984 C 188.944 -0.890331 1.87318 0
M  V30 1985 C 189.369 -1.74394 0.704855 0
M  V30 1986 O 188.727 -1.77972 -0.345786 0
M  V30 1987 C 188.775 -1.73102 3.16336 0
M  V30 1988 O 187.879 -2.83422 2.99576 0
M  V30 1989 H 187.22 -0.24857 0.615718 0
M  V30 1990 H 189.75 -0.150649 2.04045 0
M  V30 1991 H 189.76 -2.12803 3.48107 0
M  V30 1992 H 188.435 -1.10412 4.00976 0
M  V30 1993 H 187.012 -2.47199 2.7919 0
M  V30 1994 N 189.197 -1.51736 -0.425897 0
M  V30 1995 C 190.107 -1.76738 -1.54275 0
M  V30 1996 C 191.123 -0.65211 -1.61318 0
M  V30 1997 O 192.299 -0.935654 -1.78346 0
M  V30 1998 C 189.364 -1.89755 -2.90162 0
M  V30 1999 C 188.425 -3.13633 -2.93143 0
M  V30 2000 C 187.658 -3.2602 -4.22548 0
M  V30 2001 O 187.881 -2.44067 -5.15546 0
M  V30 2002 O 186.815 -4.19071 -4.32046 0
M  V30 2003 H 190.641 -2.71502 -1.36089 0
M  V30 2004 H 188.226 -1.36376 -0.610069 0
M  V30 2005 H 190.108 -2.00236 -3.70788 0
M  V30 2006 H 188.783 -0.981785 -3.08452 0
M  V30 2007 H 187.69 -3.08622 -2.11431 0
M  V30 2008 H 189.023 -4.04936 -2.798 0
M  V30 2009 N 190.675 0.682077 -1.42076 0
M  V30 2010 C 191.923 1.4393 -1.41876 0
M  V30 2011 C 192.244 1.94971 -0.0335599 0
M  V30 2012 O 191.514 1.72591 0.926773 0
M  V30 2013 H 190.094 0.534085 -0.522267 0
M  V30 2014 H 192.756 0.806427 -1.77434 0
M  V30 2015 H 191.852 2.29588 -2.11414 0
M  V30 2016 N 192.153 1.28127 0.917671 0
M  V30 2017 C 193.393 1.163 1.68088 0
M  V30 2018 C 193.757 -0.284515 1.8988 0
M  V30 2019 O 194.958 -0.525413 2.63615 0
M  V30 2020 C 193.229 1.93546 3.00457 0
M  V30 2021 S 194.788 1.98048 3.91564 0
M  V30 2022 H 191.606 0.415005 0.577315 0
M  V30 2023 H 194.208 1.62173 1.09179 0
M  V30 2024 H 192.912 2.97888 2.82295 0
M  V30 2025 H 192.443 1.48207 3.64415 0
M  V30 2026 H 194.458 1.08415 4.84211 0
M  V30 2027 N 193.631 -1.12557 1.10312 0
M  V30 2028 C 194.877 -1.84311 0.846011 0
M  V30 2029 C 195.21 -1.83805 -0.626859 0
M  V30 2030 O 194.485 -1.28268 -1.46211 0
M  V30 2031 C 194.768 -3.32048 1.39341 0
M  V30 2032 C 194.621 -3.41016 2.93305 0
M  V30 2033 C 195.94 -4.27764 1.03468 0
M  V30 2034 H 193.059 -0.669192 0.30879 0
M  V30 2035 H 195.701 -1.32057 1.36605 0
M  V30 2036 H 193.851 -3.76678 0.951087 0
M  V30 2037 H 195.523 -3.05031 3.46055 0
M  V30 2038 H 193.766 -2.81603 3.29973 0
M  V30 2039 H 194.437 -4.44948 3.26689 0
M  V30 2040 H 196.913 -3.91253 1.41633 0
M  V30 2041 H 195.789 -5.29549 1.44463 0
M  V30 2042 H 196.05 -4.42064 -0.0560404 0
M  V30 2043 N 195.109 -0.891671 -1.2995 0
M  V30 2044 C 196.019 -0.367691 -2.31701 0
M  V30 2045 C 197.035 0.533486 -1.6562 0
M  V30 2046 O 198.211 0.424997 -1.96865 0
M  V30 2047 C 195.276 0.403406 -3.44345 0
M  V30 2048 C 194.337 -0.528328 -4.26037 0
M  V30 2049 C 193.57 0.206063 -5.33302 0
M  V30 2050 O 193.793 1.43119 -5.52153 0
M  V30 2051 O 192.727 -0.447281 -6.00236 0
M  V30 2052 H 196.553 -1.21163 -2.78484 0
M  V30 2053 H 194.138 -0.655725 -1.34241 0
M  V30 2054 H 196.02 0.839753 -4.12948 0
M  V30 2055 H 194.695 1.22354 -2.99685 0
M  V30 2056 H 193.602 -1.01362 -3.60106 0
M  V30 2057 H 194.935 -1.31465 -4.74318 0
M  V30 2058 N 196.587 1.43421 -0.653314 0
M  V30 2059 C 197.497 2.34568 0.0388565 0
M  V30 2060 C 198.513 1.53888 0.81207 0
M  V30 2061 O 199.689 1.86539 0.759294 0
M  V30 2062 C 196.754 3.32167 0.993269 0
M  V30 2063 C 195.815 4.28751 0.216977 0
M  V30 2064 C 195.048 5.21688 1.12593 0
M  V30 2065 O 195.271 5.19052 2.36519 0
M  V30 2066 O 194.205 5.98919 0.598284 0
M  V30 2067 H 198.031 2.95251 -0.711386 0
M  V30 2068 H 195.616 1.43564 -0.413502 0
M  V30 2069 H 197.498 3.92183 1.54176 0
M  V30 2070 H 196.173 2.73987 1.72374 0
M  V30 2071 H 195.08 3.72215 -0.375101 0
M  V30 2072 H 196.413 4.89913 -0.473924 0
M  V30 2073 N 198.065 0.39524 1.52563 0
M  V30 2074 C 198.995 -0.428384 2.29537 0
M  V30 2075 C 199.976 -1.05831 1.33169 0
M  V30 2076 O 201.161 -1.06995 1.62067 0
M  V30 2077 C 198.291 -1.55274 3.10656 0
M  V30 2078 C 197.245 -1.04855 4.14957 0
M  V30 2079 C 196.571 -2.26543 4.84337 0
M  V30 2080 C 197.871 -0.112324 5.22179 0
M  V30 2081 H 199.565 0.213867 2.98635 0
M  V30 2082 H 197.111 0.104298 1.43622 0
M  V30 2083 H 199.064 -2.1358 3.63265 0
M  V30 2084 H 197.788 -2.22266 2.39302 0
M  V30 2085 H 196.447 -0.487985 3.63338 0
M  V30 2086 H 196.095 -2.92059 4.09525 0
M  V30 2087 H 195.795 -1.93466 5.54837 0
M  V30 2088 H 197.319 -2.85481 5.39753 0
M  V30 2089 H 198.733 -0.603752 5.70112 0
M  V30 2090 H 197.13 0.128968 5.99961 0
M  V30 2091 H 198.2 0.837052 4.77621 0
M  V30 2092 N 199.544 -1.57102 0.125237 0
M  V30 2093 C 200.79 -1.95697 -0.532035 0
M  V30 2094 C 201.123 -1.009 -1.6593 0
M  V30 2095 O 200.398 -0.047347 -1.94442 0
M  V30 2096 C 200.681 -3.44181 -1.05884 0
M  V30 2097 C 200.534 -4.49752 0.0654392 0
M  V30 2098 C 201.853 -3.94655 -1.9477 0
M  V30 2099 H 198.972 -0.711571 -0.191925 0
M  V30 2100 H 201.614 -1.88923 0.20206 0
M  V30 2101 H 199.764 -3.50085 -1.68442 0
M  V30 2102 H 201.436 -4.55943 0.700982 0
M  V30 2103 H 199.679 -4.27653 0.727709 0
M  V30 2104 H 200.35 -5.50924 -0.344505 0
M  V30 2105 H 202.826 -3.91094 -1.42074 0
M  V30 2106 H 201.702 -4.99057 -2.28546 0
M  V30 2107 H 201.963 -3.35718 -2.87656 0
M  V30 2108 N 201.022 0.148545 -1.56898 0
M  V30 2109 C 201.932 1.20293 -2.01412 0
M  V30 2110 C 202.948 1.47107 -0.929273 0
M  V30 2111 O 204.124 1.58807 -1.23863 0
M  V30 2112 C 201.189 2.51682 -2.38447 0
M  V30 2113 C 200.25 2.32529 -3.60872 0
M  V30 2114 C 199.483 3.57653 -3.96132 0
M  V30 2115 O 199.706 4.63771 -3.32073 0
M  V30 2116 O 198.64 3.50408 -4.89385 0
M  V30 2117 H 202.466 0.855025 -2.91416 0
M  V30 2118 H 200.051 0.357151 -1.45068 0
M  V30 2119 H 201.933 3.29147 -2.63135 0
M  V30 2120 H 200.608 2.86006 -1.51599 0
M  V30 2121 H 199.515 1.53019 -3.41373 0
M  V30 2122 H 200.848 2.03121 -4.48333 0
M  V30 2123 N 202.5 1.5196 0.417844 0
M  V30 2124 C 203.43 1.77634 1.51554 0
M  V30 2125 C 204.411 0.626918 1.58126 0
M  V30 2126 O 205.596 0.871632 1.7354 0
M  V30 2127 C 202.726 1.91911 2.8946 0
M  V30 2128 C 201.68 3.07463 2.97743 0
M  V30 2129 C 201.006 3.06951 4.37819 0
M  V30 2130 C 202.306 4.47082 2.70027 0
M  V30 2131 H 204 2.6955 1.3032 0
M  V30 2132 H 201.546 1.29706 0.625492 0
M  V30 2133 H 203.499 2.08455 3.6623 0
M  V30 2134 H 202.223 0.966598 3.11969 0
M  V30 2135 H 200.882 2.90656 2.23416 0
M  V30 2136 H 200.53 2.09438 4.57323 0
M  V30 2137 H 200.23 3.84556 4.44286 0
M  V30 2138 H 201.754 3.25613 5.16535 0
M  V30 2139 H 203.168 4.6414 3.36522 0
M  V30 2140 H 201.565 5.2654 2.87881 0
M  V30 2141 H 202.635 4.55777 1.65514 0
M  V30 2142 N 203.978 -0.674533 1.42435 0
M  V30 2143 C 204.908 -1.80009 1.48724 0
M  V30 2144 C 205.889 -1.6659 0.343793 0
M  V30 2145 O 207.074 -1.86007 0.558137 0
M  V30 2146 C 204.204 -3.18306 1.38919 0
M  V30 2147 C 203.158 -3.46461 2.51294 0
M  V30 2148 C 202.484 -4.84335 2.26547 0
M  V30 2149 C 203.784 -3.43328 3.93603 0
M  V30 2150 H 205.478 -1.75004 2.42928 0
M  V30 2151 H 203.024 -0.840533 1.16923 0
M  V30 2152 H 204.977 -3.9678 1.41927 0
M  V30 2153 H 203.701 -3.2399 0.412094 0
M  V30 2154 H 202.36 -2.70348 2.47604 0
M  V30 2155 H 202.008 -4.86669 1.2713 0
M  V30 2156 H 201.708 -5.04136 3.01861 0
M  V30 2157 H 203.232 -5.65094 2.31304 0
M  V30 2158 H 204.646 -4.11772 3.98894 0
M  V30 2159 H 203.043 -3.74664 4.68771 0
M  V30 2160 H 204.113 -2.41897 4.20255 0
M  V30 2161 N 205.456 -1.28612 -0.910864 0
M  V30 2162 C 206.702 -1.16106 -1.66274 0
M  V30 2163 C 207.035 0.289113 -1.92036 0
M  V30 2164 O 206.31 1.21 -1.52281 0
M  V30 2165 C 206.593 -1.96309 -3.01885 0
M  V30 2166 C 206.446 -3.49405 -2.8326 0
M  V30 2167 C 207.765 -1.78076 -4.02463 0
M  V30 2168 H 204.884 -0.423152 -0.603417 0
M  V30 2169 H 207.526 -1.57961 -1.05586 0
M  V30 2170 H 205.676 -1.60742 -3.53687 0
M  V30 2171 H 207.348 -3.94894 -2.38446 0
M  V30 2172 H 205.591 -3.74893 -2.18261 0
M  V30 2173 H 206.262 -4.00784 -3.79574 0
M  V30 2174 H 208.738 -2.0912 -3.59733 0
M  V30 2175 H 207.614 -2.36561 -4.95308 0
M  V30 2176 H 207.875 -0.733008 -4.35981 0
M  V30 2177 N 206.934 1.1197 -1.10907 0
M  V30 2178 C 207.844 2.21433 -0.774896 0
M  V30 2179 C 208.86 1.72478 0.229657 0
M  V30 2180 O 210.036 2.01288 0.0672008 0
M  V30 2181 C 207.101 3.4602 -0.216986 0
M  V30 2182 C 206.162 4.09791 -1.27944 0
M  V30 2183 C 205.395 5.28431 -0.748055 0
M  V30 2184 O 205.618 5.68823 0.423833 0
M  V30 2185 O 204.552 5.82644 -1.51027 0
M  V30 2186 H 208.378 2.5242 -1.68873 0
M  V30 2187 H 205.963 1.20399 -0.884555 0
M  V30 2188 H 207.845 4.21304 0.090059 0
M  V30 2189 H 206.52 3.16698 0.669633 0
M  V30 2190 H 205.427 3.36265 -1.63941 0
M  V30 2191 H 206.76 4.4328 -2.13925 0
M  V30 2192 N 208.412 0.89855 1.29475 0
M  V30 2193 C 209.342 0.39201 2.30186 0
M  V30 2194 C 210.323 -0.532359 1.61555 0
M  V30 2195 O 211.508 -0.443331 1.89072 0
M  V30 2196 C 208.638 -0.382353 3.45189 0
M  V30 2197 C 207.592 0.451483 4.25612 0
M  V30 2198 C 206.918 -0.450307 5.328 0
M  V30 2199 C 208.218 1.70079 4.93832 0
M  V30 2200 H 209.912 1.23362 2.72804 0
M  V30 2201 H 207.458 0.594638 1.31149 0
M  V30 2202 H 209.411 -0.747451 4.14718 0
M  V30 2203 H 208.135 -1.25774 3.01411 0
M  V30 2204 H 206.794 0.798897 3.57789 0
M  V30 2205 H 206.442 -1.32379 4.85268 0
M  V30 2206 H 206.142 0.103902 5.87508 0
M  V30 2207 H 207.666 -0.811623 6.05182 0
M  V30 2208 H 209.08 1.40549 5.55805 0
M  V30 2209 H 207.477 2.19623 5.58467 0
M  V30 2210 H 208.547 2.43744 4.19186 0
M  V30 2211 N 209.89 -1.43072 0.660911 0
M  V30 2212 C 210.822 -2.29108 -0.0647641 0
M  V30 2213 C 211.835 -1.42928 -0.779448 0
M  V30 2214 O 213.024 -1.66788 -0.635921 0
M  V30 2215 C 210.124 -3.20032 -1.11503 0
M  V30 2216 C 209.297 -4.34792 -0.476955 0
M  V30 2217 C 208.356 -5.06534 -1.42513 0
M  V30 2218 O 207.382 -5.61538 -0.930771 0
M  V30 2219 N 208.584 -5.1075 -2.75889 0
M  V30 2220 H 211.349 -2.92029 0.673731 0
M  V30 2221 H 208.91 -1.53846 0.50427 0
M  V30 2222 H 210.902 -3.64892 -1.75032 0
M  V30 2223 H 209.472 -2.58658 -1.75541 0
M  V30 2224 H 208.692 -3.92752 0.337572 0
M  V30 2225 H 209.98 -5.0879 -0.0318525 0
M  V30 2226 H 209.378 -4.67447 -3.18606 0
M  V30 2227 H 207.935 -5.59302 -3.347 0
M  V30 2228 N 211.368 -0.403325 -1.52352 0
M  V30 2229 C 212.278 0.432009 -2.30588 0
M  V30 2230 C 213.294 1.05884 -1.38075 0
M  V30 2231 O 214.47 1.06161 -1.71148 0
M  V30 2232 C 211.535 1.53669 -3.10784 0
M  V30 2233 C 210.596 0.933525 -4.19027 0
M  V30 2234 C 209.829 1.98557 -4.9539 0
M  V30 2235 O 210.052 3.20283 -4.71991 0
M  V30 2236 O 208.986 1.59504 -5.80381 0
M  V30 2237 H 212.812 -0.205739 -3.03002 0
M  V30 2238 H 210.397 -0.166675 -1.48467 0
M  V30 2239 H 212.279 2.17814 -3.60742 0
M  V30 2240 H 210.954 2.15915 -2.41169 0
M  V30 2241 H 209.861 0.254954 -3.7323 0
M  V30 2242 H 211.194 0.35508 -4.90918 0
M  V30 2243 N 212.846 1.57033 -0.133567 0
M  V30 2244 C 213.776 2.1909 0.807567 0
M  V30 2245 C 214.757 1.13517 1.26681 0
M  V30 2246 O 215.942 1.41809 1.32679 0
M  V30 2247 C 213.072 2.80188 2.05212 0
M  V30 2248 C 212.026 3.91471 1.73015 0
M  V30 2249 C 211.352 4.39443 3.04622 0
M  V30 2250 C 212.652 5.12886 0.987168 0
M  V30 2251 H 214.346 2.97988 0.290403 0
M  V30 2252 H 211.892 1.43335 0.138239 0
M  V30 2253 H 213.845 3.22264 2.71521 0
M  V30 2254 H 212.569 1.98601 2.59278 0
M  V30 2255 H 211.228 3.49993 1.0909 0
M  V30 2256 H 210.876 3.54695 3.56651 0
M  V30 2257 H 210.576 5.14495 2.83847 0
M  V30 2258 H 212.1 4.8418 3.72024 0
M  V30 2259 H 213.514 5.51891 1.55208 0
M  V30 2260 H 211.911 5.93615 0.87985 0
M  V30 2261 H 212.981 4.84894 -0.0235286 0
M  V30 2262 N 214.325 -0.140222 1.56975 0
M  V30 2263 C 215.565 -0.857823 1.85528 0
M  V30 2264 C 215.929 -1.78039 0.718768 0
M  V30 2265 O 217.13 -2.53795 0.885521 0
M  V30 2266 C 215.401 -1.60615 3.19277 0
M  V30 2267 S 216.96 -2.36824 3.69405 0
M  V30 2268 H 213.778 -0.286727 0.650622 0
M  V30 2269 H 216.38 -0.117408 1.95147 0
M  V30 2270 H 215.084 -0.919994 3.99955 0
M  V30 2271 H 214.615 -2.38735 3.12681 0
M  V30 2272 H 216.63 -3.62148 3.3921 0
M  V30 2273 N 215.803 -1.52179 -0.40978 0
M  V30 2274 C 217.219 -1.40968 -0.74835 0
M  V30 2275 C 217.419 -0.513657 -1.94843 0
M  V30 2276 O 216.475 0.0208026 -2.52491 0
M  V30 2277 C 217.788 -2.83483 -1.0029 0
M  V30 2278 C 219.336 -2.92821 -1.10565 0
M  V30 2279 C 219.811 -4.36303 -1.39296 0
M  V30 2280 N 221.302 -4.39535 -1.46162 0
M  V30 2281 C 222.037 -5.47614 -1.70018 0
M  V30 2282 N 221.533 -6.65812 -1.91483 0
M  V30 2283 N 223.326 -5.35129 -1.72027 0
M  V30 2284 H 215.477 -2.0897 0.380186 0
M  V30 2285 H 217.74 -0.94185 0.107805 0
M  V30 2286 H 217.446 -3.51168 -0.193461 0
M  V30 2287 H 217.32 -3.24487 -1.92323 0
M  V30 2288 H 219.707 -2.25318 -1.90568 0
M  V30 2289 H 219.788 -2.55276 -0.16369 0
M  V30 2290 H 219.432 -5.04366 -0.598109 0
M  V30 2291 H 219.362 -4.71385 -2.34743 0
M  V30 2292 H 221.853 -3.54332 -1.31367 0
M  V30 2293 H 222.166 -7.43964 -2.09134 0
M  V30 2294 H 220.511 -6.68879 -1.88749 0
M  V30 2295 H 223.702 -4.41764 -1.54796 0
M  V30 2296 H 223.875 -6.19433 -1.9028 0
M  V30 2297 N 217.281 0.66697 -1.42791 0
M  V30 2298 C 218.697 0.981027 -1.25889 0
M  V30 2299 C 218.897 2.00793 -0.168695 0
M  V30 2300 O 217.953 2.48321 0.45747 0
M  V30 2301 C 219.266 1.47838 -2.61848 0
M  V30 2302 C 220.814 1.59575 -2.69267 0
M  V30 2303 C 221.289 2.12704 -4.05612 0
M  V30 2304 N 222.78 2.20026 -4.07606 0
M  V30 2305 C 223.515 2.62227 -5.09926 0
M  V30 2306 N 223.011 3.03824 -6.22626 0
M  V30 2307 N 224.804 2.62045 -4.97281 0
M  V30 2308 H 216.955 -0.0127891 -2.12396 0
M  V30 2309 H 219.218 0.0568258 -0.946295 0
M  V30 2310 H 218.924 0.798299 -3.4252 0
M  V30 2311 H 218.798 2.45579 -2.86305 0
M  V30 2312 H 221.185 2.26687 -1.88936 0
M  V30 2313 H 221.266 0.60302 -2.48591 0
M  V30 2314 H 220.91 1.46198 -4.86404 0
M  V30 2315 H 220.84 3.12782 -4.23645 0
M  V30 2316 H 223.331 1.90708 -3.2625 0
M  V30 2317 H 223.644 3.34734 -6.96544 0
M  V30 2318 H 221.989 3.01662 -6.26119 0
M  V30 2319 H 225.18 2.28916 -4.08308 0
M  V30 2320 H 225.353 2.94613 -5.77154 0
M  V30 2321 N 218.759 1.29093 0.90403 0
M  V30 2322 C 220.175 1.07011 1.1841 0
M  V30 2323 C 220.375 -0.181358 2.00682 0
M  V30 2324 O 219.431 -0.880331 2.36657 0
M  V30 2325 C 220.744 2.32311 1.90924 0
M  V30 2326 C 222.292 2.37587 2.03768 0
M  V30 2327 C 222.767 3.62679 2.79693 0
M  V30 2328 N 224.258 3.63376 2.87249 0
M  V30 2329 C 224.993 4.56848 3.46522 0
M  V30 2330 N 224.489 5.60648 4.06996 0
M  V30 2331 N 226.282 4.44426 3.44154 0
M  V30 2332 H 218.433 2.09412 0.354993 0
M  V30 2333 H 220.696 0.922181 0.219742 0
M  V30 2334 H 220.402 3.23536 1.37905 0
M  V30 2335 H 220.276 2.39483 2.91424 0
M  V30 2336 H 222.663 1.46853 2.55965 0
M  V30 2337 H 222.744 2.34403 1.02415 0
M  V30 2338 H 222.388 4.53762 2.28173 0
M  V30 2339 H 222.318 3.63119 3.81381 0
M  V30 2340 H 224.809 2.88321 2.44293 0
M  V30 2341 H 225.122 6.28101 4.50232 0
M  V30 2342 H 223.467 5.64463 4.05471 0
M  V30 2343 H 226.658 3.62529 2.96126 0
M  V30 2344 H 226.831 5.17457 3.90054 0
M  V30 2345 N 220.237 -1.11381 1.11499 0
M  V30 2346 C 221.187 -2.15555 0.74298 0
M  V30 2347 C 222.171 -1.58894 -0.253276 0
M  V30 2348 O 223.363 -1.76897 -0.0602918 0
M  V30 2349 C 220.492 -3.42782 0.188481 0
M  V30 2350 C 219.578 -4.064 1.21244 0
M  V30 2351 N 219.969 -4.44864 2.40685 0
M  V30 2352 C 218.267 -4.3333 1.05552 0
M  V30 2353 C 218.968 -4.94715 3.05994 0
M  V30 2354 N 217.944 -4.90909 2.33472 0
M  V30 2355 H 221.746 -2.43074 1.65203 0
M  V30 2356 H 219.26 -1.28401 0.994329 0
M  V30 2357 H 221.257 -4.16789 -0.0961693 0
M  V30 2358 H 219.917 -3.16727 -0.715149 0
M  V30 2359 H 220.928 -4.36876 2.78136 0
M  V30 2360 H 217.605 -4.1698 0.208372 0
M  V30 2361 H 218.995 -5.34103 4.07656 0
M  V30 2362 N 221.715 -0.905404 -1.28997 0
M  V30 2363 C 222.992 -0.453513 -1.9027 0
M  V30 2364 C 223.372 1.06721 -1.82137 0
M  V30 2365 O 222.72 1.91159 -1.25182 0
M  V30 2366 C 222.93 -0.974494 -3.35119 0
M  V30 2367 C 224.278 -1.0216 -4.12127 0
M  V30 2368 O 225.302 -0.922557 -3.44046 0
M  V30 2369 O 224.161 -1.17121 -5.33802 0
M  V30 2370 H 221.255 -0.142347 -0.814657 0
M  V30 2371 H 223.801 -0.995642 -1.37423 0
M  V30 2372 H 222.573 -2.01848 -3.35221 0
M  V30 2373 H 222.196 -0.412706 -3.95452 0
M  V30 2374 N 223.193 1.4272 -0.668489 0
M  V30 2375 C 224.103 2.34596 0.0139753 0
M  V30 2376 C 225.119 1.5474 0.795703 0
M  V30 2377 O 226.295 1.87334 0.739466 0
M  V30 2378 C 223.36 3.33202 0.957982 0
M  V30 2379 C 222.421 4.28957 0.17149 0
M  V30 2380 C 221.654 5.22853 1.07053 0
M  V30 2381 O 221.877 5.21531 2.31001 0
M  V30 2382 O 220.811 5.9952 0.534727 0
M  V30 2383 H 224.637 2.9448 -0.742661 0
M  V30 2384 H 222.222 1.43117 -0.428705 0
M  V30 2385 H 224.104 3.93796 1.50008 0
M  V30 2386 H 222.779 2.758 1.69458 0
M  V30 2387 H 221.686 3.71796 -0.414558 0
M  V30 2388 H 223.019 4.89383 -0.52586 0
M  V30 2389 N 224.671 0.411399 1.52136 0
M  V30 2390 C 225.948 -0.222308 1.94333 0
M  V30 2391 C 226.328 -1.6242 1.34844 0
M  V30 2392 O 225.676 -2.22384 0.525145 0
M  V30 2393 C 225.886 -0.226345 3.48265 0
M  V30 2394 C 227.234 -0.444592 4.22266 0
M  V30 2395 O 228.258 -0.305602 3.54887 0
M  V30 2396 O 227.117 -0.718749 5.41753 0
M  V30 2397 H 224.211 -0.143907 0.814383 0
M  V30 2398 H 226.757 0.467506 1.63133 0
M  V30 2399 H 225.529 0.75475 3.83952 0
M  V30 2400 H 225.152 -0.960163 3.85832 0
M  V30 2401 N 226.149 -1.5696 0.141893 0
M  V30 2402 C 227.395 -1.9625 -0.511248 0
M  V30 2403 C 227.728 -1.02654 -1.64851 0
M  V30 2404 O 227.003 -0.0679676 -1.94381 0
M  V30 2405 C 227.286 -3.45285 -1.02227 0
M  V30 2406 C 227.139 -4.49658 0.113138 0
M  V30 2407 C 228.458 -3.96698 -1.90574 0
M  V30 2408 H 225.577 -0.713567 -0.184367 0
M  V30 2409 H 228.219 -1.88698 0.222087 0
M  V30 2410 H 226.369 -3.51852 -1.64719 0
M  V30 2411 H 228.041 -4.55174 0.749302 0
M  V30 2412 H 226.284 -4.26857 0.773026 0
M  V30 2413 H 226.955 -5.51258 -0.286053 0
M  V30 2414 H 229.431 -3.92578 -1.37918 0
M  V30 2415 H 228.307 -5.01453 -2.2324 0
M  V30 2416 H 228.568 -3.3875 -2.84079 0
M  V30 2417 N 227.627 0.131896 -1.57047 0
M  V30 2418 C 229.038 0.690407 -1.73465 0
M  V30 2419 C 229.389 1.8094 -0.758629 0
M  V30 2420 O 228.514 2.16282 0.0713813 0
M  V30 2421 C 229.109 1.25916 -3.14532 0
M  V30 2422 C 227.668 1.76409 -3.32501 0
M  V30 2423 C 226.815 0.658579 -2.69366 0
M  V30 2424 H 229.766 -0.0939144 -1.58422 0
M  V30 2425 H 229.787 2.12892 -3.15369 0
M  V30 2426 H 229.299 0.444515 -3.85546 0
M  V30 2427 H 227.4 2.60391 -2.66509 0
M  V30 2428 H 227.513 1.88241 -4.4057 0
M  V30 2429 H 225.877 1.08899 -2.30246 0
M  V30 2430 H 226.66 -0.14487 -3.42994 0
M  V30 2431 N 229.106 1.52395 0.401703 0
M  V30 2432 C 230.383 1.57387 1.16141 0
M  V30 2433 C 230.763 0.359359 2.08019 0
M  V30 2434 O 230.111 -0.65326 2.18963 0
M  V30 2435 C 230.321 2.90631 1.93221 0
M  V30 2436 C 231.669 3.43904 2.49028 0
M  V30 2437 O 232.693 2.92421 2.03393 0
M  V30 2438 O 231.552 4.33823 3.32356 0
M  V30 2439 H 228.646 0.634262 0.530698 0
M  V30 2440 H 231.192 1.64725 0.407883 0
M  V30 2441 H 229.964 3.70473 1.25958 0
M  V30 2442 H 229.587 2.8662 2.75563 0
M  V30 2443 N 230.584 -0.659388 1.43143 0
M  V30 2444 C 231.831 -1.41935 1.44433 0
M  V30 2445 C 232.159 -1.94387 0.0663522 0
M  V30 2446 O 231.414 -1.72314 -0.927706 0
M  V30 2447 C 231.713 -2.62206 2.42864 0
M  V30 2448 C 231.379 -2.28208 3.88886 0
M  V30 2449 C 230.041 -2.18647 4.28657 0
M  V30 2450 C 232.393 -2.00887 4.8093 0
M  V30 2451 C 229.721 -1.79914 5.58433 0
M  V30 2452 C 232.073 -1.63653 6.11065 0
M  V30 2453 C 230.737 -1.52614 6.49819 0
M  V30 2454 H 230.007 -0.519376 0.528517 0
M  V30 2455 H 232.654 -0.750453 1.76183 0
M  V30 2456 H 230.959 -3.34199 2.04495 0
M  V30 2457 H 232.656 -3.2041 2.41119 0
M  V30 2458 H 229.246 -2.36557 3.57406 0
M  V30 2459 H 233.43 -2.07198 4.5098 0
M  V30 2460 H 228.686 -1.69948 5.87305 0
M  V30 2461 H 232.86 -1.41543 6.81864 0
M  V30 2462 H 230.487 -1.22371 7.50286 0
M  V30 2463 N 232.062 -1.29571 -0.897171 0
M  V30 2464 C 232.992 -1.17473 -2.01798 0
M  V30 2465 C 233.973 -0.068323 -1.69963 0
M  V30 2466 O 235.158 -0.248239 -1.92607 0
M  V30 2467 C 232.288 -0.853099 -3.36659 0
M  V30 2468 C 231.242 -1.9161 -3.82713 0
M  V30 2469 C 230.568 -1.44773 -5.14728 0
M  V30 2470 C 231.868 -3.32535 -4.02763 0
M  V30 2471 H 233.562 -2.11237 -2.12177 0
M  V30 2472 H 231.108 -1.01699 -1.01948 0
M  V30 2473 H 233.061 -0.755165 -4.14578 0
M  V30 2474 H 231.785 0.120236 -3.26379 0
M  V30 2475 H 230.444 -2.00346 -3.07013 0
M  V30 2476 H 230.092 -0.462995 -5.00865 0
M  V30 2477 H 229.792 -2.15865 -5.46513 0
M  V30 2478 H 231.316 -1.36334 -5.95185 0
M  V30 2479 H 232.73 -3.26626 -4.71156 0
M  V30 2480 H 231.127 -4.01607 -4.45905 0
M  V30 2481 H 232.197 -3.75326 -3.07016 0
M  V30 2482 N 233.54 1.10788 -1.12088 0
M  V30 2483 C 234.473 2.16237 -0.729168 0
M  V30 2484 C 235.451 1.60207 0.277921 0
M  V30 2485 O 236.635 1.87707 0.172737 0
M  V30 2486 C 233.762 3.38609 -0.0786848 0
M  V30 2487 C 232.808 4.13322 -1.05201 0
M  V30 2488 S 233.641 4.69371 -2.57781 0
M  V30 2489 C 234.797 5.95058 -1.94053 0
M  V30 2490 H 235.03 2.4913 -1.62239 0
M  V30 2491 H 232.563 1.22519 -0.939603 0
M  V30 2492 H 234.521 4.09473 0.290254 0
M  V30 2493 H 233.182 3.03962 0.791593 0
M  V30 2494 H 232.375 5.01051 -0.544433 0
M  V30 2495 H 231.977 3.48251 -1.36371 0
M  V30 2496 H 234.269 6.65278 -1.28107 0
M  V30 2497 H 235.212 6.50472 -2.79807 0
M  V30 2498 H 235.62 5.46918 -1.39787 0
M  V30 2499 N 235.018 0.912232 1.28515 0
M  V30 2500 C 235.968 0.370649 2.24967 0
M  V30 2501 C 236.952 -0.516375 1.52389 0
M  V30 2502 O 238.144 -0.356345 1.73376 0
M  V30 2503 C 235.273 -0.389526 3.41083 0
M  V30 2504 C 234.359 0.51313 4.20984 0
M  V30 2505 N 234.75 1.62604 4.78951 0
M  V30 2506 C 233.048 0.313235 4.44899 0
M  V30 2507 C 233.749 2.18619 5.39055 0
M  V30 2508 N 232.725 1.47765 5.23132 0
M  V30 2509 H 236.527 1.22061 2.67354 0
M  V30 2510 H 234.041 0.764712 1.43269 0
M  V30 2511 H 236.038 -0.794353 4.09262 0
M  V30 2512 H 234.698 -1.2366 3.0023 0
M  V30 2513 H 235.709 2.00864 4.77362 0
M  V30 2514 H 232.386 -0.494452 4.14562 0
M  V30 2515 H 233.776 3.12228 5.94948 0
M  V30 2516 N 236.496 -1.42363 0.676048 0
M  V30 2517 C 237.443 -2.308 -0.00150904 0
M  V30 2518 C 238.413 -1.46032 -0.791444 0
M  V30 2519 O 239.598 -1.74861 -0.76344 0
M  V30 2520 C 236.738 -3.31883 -0.945919 0
M  V30 2521 C 235.851 -4.31741 -0.149675 0
M  V30 2522 C 234.986 -5.19898 -1.08995 0
M  V30 2523 C 234.025 -6.11434 -0.285465 0
M  V30 2524 N 233.162 -6.92138 -1.17851 0
M  V30 2525 H 238.002 -2.88187 0.758455 0
M  V30 2526 H 235.539 -1.41952 0.38576 0
M  V30 2527 H 237.497 -3.89019 -1.50731 0
M  V30 2528 H 236.127 -2.76093 -1.6725 0
M  V30 2529 H 235.179 -3.76713 0.528359 0
M  V30 2530 H 236.491 -4.96534 0.474866 0
M  V30 2531 H 235.645 -5.81772 -1.72123 0
M  V30 2532 H 234.384 -4.55284 -1.74837 0
M  V30 2533 H 233.389 -5.48627 0.359018 0
M  V30 2534 H 234.614 -6.78097 0.368883 0
M  V30 2535 H 232.56 -6.30152 -1.82332 0
M  V30 2536 H 232.477 -7.53542 -0.609082 0
M  V30 2537 H 233.745 -7.58499 -1.79722 0
M  V30 2538 N 237.974 -0.419461 -1.51915 0
M  V30 2539 C 238.904 0.391813 -2.30189 0
M  V30 2540 C 239.885 1.03699 -1.34836 0
M  V30 2541 O 241.07 1.04403 -1.63748 0
M  V30 2542 C 238.2 1.50312 -3.13087 0
M  V30 2543 C 237.154 0.9824 -4.16573 0
M  V30 2544 C 236.48 2.18809 -4.8788 0
M  V30 2545 C 237.78 0.0292356 -5.22292 0
M  V30 2546 H 239.474 -0.26135 -2.98257 0
M  V30 2547 H 237.02 -0.127134 -1.43438 0
M  V30 2548 H 238.973 2.07773 -3.66617 0
M  V30 2549 H 237.697 2.18431 -2.42807 0
M  V30 2550 H 236.356 0.430119 -3.64068 0
M  V30 2551 H 236.004 2.85507 -4.14119 0
M  V30 2552 H 235.704 1.84615 -5.57845 0
M  V30 2553 H 237.228 2.76858 -5.44226 0
M  V30 2554 H 238.642 0.512976 -5.71 0
M  V30 2555 H 237.039 -0.2244 -5.9968 0
M  V30 2556 H 238.109 -0.912931 -4.76228 0
M  V30 2557 N 239.452 1.56882 -0.150215 0
M  V30 2558 C 240.68 2.00593 0.506948 0
M  V30 2559 C 241.095 1.03033 1.58208 0
M  V30 2560 O 240.452 0.0278396 1.82479 0
M  V30 2561 C 240.503 3.44209 1.10465 0
M  V30 2562 O 240.224 4.3804 0.0724636 0
M  V30 2563 C 241.725 4.03214 1.84211 0
M  V30 2564 H 238.945 0.65795 0.13169 0
M  V30 2565 H 241.489 2.03018 -0.245743 0
M  V30 2566 H 239.644 3.42625 1.80795 0
M  V30 2567 H 240.058 5.22007 0.510793 0
M  V30 2568 H 241.532 5.0569 2.21318 0
M  V30 2569 H 242.009 3.44107 2.72923 0
M  V30 2570 H 242.615 4.08437 1.18572 0
M  V30 2571 N 240.93 -0.123565 1.57115 0
M  V30 2572 C 241.893 -1.13583 1.99076 0
M  V30 2573 C 242.893 -1.34564 0.880296 0
M  V30 2574 O 244.083 -1.31158 1.14644 0
M  V30 2575 C 241.215 -2.49128 2.32698 0
M  V30 2576 H 242.408 -0.775287 2.89706 0
M  V30 2577 H 239.961 -0.36771 1.51913 0
M  V30 2578 H 240.696 -2.90111 1.44934 0
M  V30 2579 H 240.481 -2.35255 3.13684 0
M  V30 2580 H 241.971 -3.2199 2.65918 0
M  V30 2581 N 242.408 -1.52605 -0.393616 0
M  V30 2582 C 243.633 -1.71592 -1.16495 0
M  V30 2583 C 244.058 -0.43133 -1.83088 0
M  V30 2584 O 243.416 0.612523 -1.7064 0
M  V30 2585 C 243.464 -2.86318 -2.19213 0
M  V30 2586 O 242.568 -2.52969 -3.257 0
M  V30 2587 H 241.909 -0.570734 -0.33935 0
M  V30 2588 H 244.439 -1.99377 -0.459324 0
M  V30 2589 H 244.449 -3.1168 -2.63286 0
M  V30 2590 H 243.124 -3.79511 -1.7013 0
M  V30 2591 H 241.701 -2.38332 -2.86797 0
M  V30 2592 N 243.887 0.651787 -1.4349 0
M  V30 2593 C 245.164 1.40909 -1.35661 0
M  V30 2594 C 245.544 2.11099 -0.00511733 0
M  V30 2595 O 244.892 2.04892 1.0115 0
M  V30 2596 C 245.102 2.3926 -2.54078 0
M  V30 2597 C 246.45 3.03217 -2.97228 0
M  V30 2598 O 247.474 2.49588 -2.54135 0
M  V30 2599 O 246.333 4.00455 -3.71885 0
M  V30 2600 H 243.427 0.629625 -0.536191 0
M  V30 2601 H 245.973 0.678575 -1.55542 0
M  V30 2602 H 244.745 1.86352 -3.44076 0
M  V30 2603 H 244.368 3.1976 -2.36303 0
M  V30 2604 N 245.365 1.30045 0.890287 0
M  V30 2605 C 246.593 1.21472 1.67487 0
M  V30 2606 C 247.008 -0.223241 1.87476 0
M  V30 2607 O 246.365 -1.14828 1.41847 0
M  V30 2608 C 246.416 1.93394 3.05419 0
M  V30 2609 O 246.137 3.31576 2.86337 0
M  V30 2610 C 247.638 1.91414 3.99844 0
M  V30 2611 H 244.858 0.420604 0.522813 0
M  V30 2612 H 247.402 1.7158 1.11268 0
M  V30 2613 H 245.557 1.47099 3.58386 0
M  V30 2614 H 245.971 3.67929 3.73802 0
M  V30 2615 H 247.445 2.46285 4.94012 0
M  V30 2616 H 247.922 0.891833 4.3005 0
M  V30 2617 H 248.528 2.37496 3.52811 0
M  V30 2618 N 246.843 -1.10192 1.12674 0
M  V30 2619 C 248.091 -1.81845 0.881861 0
M  V30 2620 C 248.412 -1.85737 -0.593867 0
M  V30 2621 O 247.682 -1.33724 -1.4316 0
M  V30 2622 H 246.262 -0.673432 0.323261 0
M  V30 2623 H 248.924 -1.33316 1.42172 0
M  V30 2624 H 248.02 -2.85288 1.2656 0
M  V30 2625 N 248.321 -0.919034 -1.28029 0
M  V30 2626 C 249.268 -0.410005 -2.27129 0
M  V30 2627 C 250.238 0.518405 -1.57803 0
M  V30 2628 O 251.423 0.439451 -1.8567 0
M  V30 2629 C 248.563 0.339054 -3.4343 0
M  V30 2630 C 247.676 -0.622468 -4.27492 0
M  V30 2631 C 246.811 0.145567 -5.31001 0
M  V30 2632 C 245.85 -0.809226 -6.06727 0
M  V30 2633 N 244.987 -0.0743728 -7.02061 0
M  V30 2634 H 249.827 -1.26011 -2.70047 0
M  V30 2635 H 247.364 -0.632663 -1.328 0
M  V30 2636 H 249.322 0.789586 -4.0966 0
M  V30 2637 H 247.952 1.15346 -3.01488 0
M  V30 2638 H 247.004 -1.19153 -3.61257 0
M  V30 2639 H 248.316 -1.35252 -4.80113 0
M  V30 2640 H 247.47 0.656417 -6.03139 0
M  V30 2641 H 246.209 0.908643 -4.79161 0
M  V30 2642 H 245.214 -1.3314 -5.33436 0
M  V30 2643 H 246.439 -1.57194 -6.60656 0
M  V30 2644 H 244.385 0.670616 -6.52563 0
M  V30 2645 H 244.302 -0.744157 -7.52329 0
M  V30 2646 H 245.57 0.416109 -7.78389 0
M  V30 2647 N 249.799 1.42003 -0.683588 0
M  V30 2648 C 251.027 2.05746 -0.218182 0
M  V30 2649 C 251.442 1.51396 1.12804 0
M  V30 2650 O 250.799 0.657303 1.70252 0
M  V30 2651 C 250.85 3.61171 -0.154131 0
M  V30 2652 O 250.571 4.13508 -1.44716 0
M  V30 2653 C 252.072 4.42042 0.333713 0
M  V30 2654 H 249.292 0.662888 -0.10402 0
M  V30 2655 H 251.836 1.81987 -0.9328 0
M  V30 2656 H 249.991 3.84012 0.511231 0
M  V30 2657 H 250.405 5.07453 -1.32632 0
M  V30 2658 H 251.879 5.51028 0.327423 0
M  V30 2659 H 252.356 4.17269 1.37053 0
M  V30 2660 H 252.962 4.24239 -0.300222 0
M  V30 2661 N 251.277 0.427512 1.51691 0
M  V30 2662 C 252.517 -0.141524 2.03909 0
M  V30 2663 C 252.881 -1.40811 1.30523 0
M  V30 2664 O 254.082 -2.05676 1.73063 0
M  V30 2665 C 252.353 -0.364962 3.55532 0
M  V30 2666 S 253.912 -0.898812 4.29496 0
M  V30 2667 H 250.73 -0.0364542 0.710065 0
M  V30 2668 H 253.332 0.584659 1.86553 0
M  V30 2669 H 252.036 0.56336 4.06515 0
M  V30 2670 H 251.567 -1.1185 3.77164 0
M  V30 2671 H 253.582 -2.17747 4.45871 0
M  V30 2672 N 252.755 -1.56801 0.158532 0
M  V30 2673 C 253.685 -2.20347 -0.772609 0
M  V30 2674 C 254.666 -1.15518 -1.24859 0
M  V30 2675 O 255.851 -1.43902 -1.30406 0
M  V30 2676 C 252.981 -2.83417 -2.00729 0
M  V30 2677 C 251.935 -3.94174 -1.66765 0
M  V30 2678 C 251.261 -4.44233 -2.97592 0
M  V30 2679 C 252.561 -5.14392 -0.905447 0
M  V30 2680 H 254.255 -2.98413 -0.242959 0
M  V30 2681 H 251.801 -1.43537 -0.115419 0
M  V30 2682 H 253.754 -3.26543 -2.6636 0
M  V30 2683 H 252.478 -2.02701 -2.56086 0
M  V30 2684 H 251.137 -3.51684 -1.03508 0
M  V30 2685 H 250.785 -3.60325 -3.50963 0
M  V30 2686 H 250.485 -5.18945 -2.75626 0
M  V30 2687 H 252.009 -4.90037 -3.64274 0
M  V30 2688 H 253.423 -5.5429 -1.46408 0
M  V30 2689 H 251.82 -5.9494 -0.7853 0
M  V30 2690 H 252.89 -4.84795 0.100668 0
M  V30 2691 N 254.233 0.115231 -1.57178 0
M  V30 2692 C 255.166 1.17166 -1.95825 0
M  V30 2693 C 256.144 1.39912 -0.828463 0
M  V30 2694 O 257.328 1.54004 -1.08697 0
M  V30 2695 C 254.455 2.52478 -2.25771 0
M  V30 2696 C 253.501 2.46136 -3.48309 0
M  V30 2697 S 254.334 1.89736 -5.0076 0
M  V30 2698 C 255.49 3.26713 -5.33863 0
M  V30 2699 H 255.723 0.842103 -2.85124 0
M  V30 2700 H 253.256 0.322136 -1.51002 0
M  V30 2701 H 255.214 3.30332 -2.43702 0
M  V30 2702 H 253.875 2.82609 -1.37079 0
M  V30 2703 H 253.068 3.45819 -3.66641 0
M  V30 2704 H 252.67 1.76404 -3.29784 0
M  V30 2705 H 254.962 4.22935 -5.29275 0
M  V30 2706 H 255.905 3.13205 -6.35065 0
M  V30 2707 H 256.313 3.25316 -4.61335 0
M  V30 2708 N 255.711 1.52812 0.385517 0
M  V30 2709 C 256.658 1.77838 1.47113 0
M  V30 2710 C 257.628 0.621757 1.54024 0
M  V30 2711 O 258.813 0.861846 1.70226 0
M  V30 2712 C 255.953 1.95618 2.84302 0
M  V30 2713 C 255.066 3.23316 2.86515 0
M  V30 2714 C 254.201 3.31394 4.15152 0
M  V30 2715 C 253.24 4.53201 4.1143 0
M  V30 2716 N 252.377 4.58542 5.3168 0
M  V30 2717 H 257.217 2.70482 1.25073 0
M  V30 2718 H 254.754 1.34006 0.606692 0
M  V30 2719 H 256.712 2.03912 3.63972 0
M  V30 2720 H 255.342 1.06331 3.04784 0
M  V30 2721 H 254.394 3.24076 1.99195 0
M  V30 2722 H 255.706 4.13045 2.79634 0
M  V30 2723 H 254.86 3.3889 5.03228 0
M  V30 2724 H 253.599 2.39645 4.24761 0
M  V30 2725 H 252.604 4.45827 3.21742 0
M  V30 2726 H 253.829 5.46271 4.03442 0
M  V30 2727 H 251.775 3.69686 5.41912 0
M  V30 2728 H 251.692 5.42148 5.26889 0
M  V30 2729 H 252.96 4.70296 6.21644 0
M  V30 2730 N 257.189 -0.644168 1.43834 0
M  V30 2731 C 258.152 -1.73857 1.49353 0
M  V30 2732 C 259.152 -1.56315 0.377112 0
M  V30 2733 O 260.342 -1.62048 0.639226 0
M  V30 2734 C 257.474 -3.12819 1.35488 0
M  V30 2735 H 258.667 -1.70342 2.46827 0
M  V30 2736 H 256.22 -0.856652 1.30733 0
M  V30 2737 H 256.955 -3.2194 0.390569 0
M  V30 2738 H 256.74 -3.26958 2.16428 0
M  V30 2739 H 258.23 -3.92606 1.42302 0
M  V30 2740 N 258.668 -1.30515 -0.883378 0
M  V30 2741 C 259.598 -1.19607 -2.00541 0
M  V30 2742 C 260.579 -0.086346 -1.69881 0
M  V30 2743 O 261.764 -0.268654 -1.92333 0
M  V30 2744 C 258.894 -0.888758 -3.35736 0
M  V30 2745 C 257.848 -1.95659 -3.8066 0
M  V30 2746 C 257.174 -1.50224 -5.13164 0
M  V30 2747 C 258.474 -3.36788 -3.99213 0
M  V30 2748 H 260.168 -2.13476 -2.09925 0
M  V30 2749 H 257.714 -1.02775 -1.00863 0
M  V30 2750 H 259.667 -0.799094 -4.13754 0
M  V30 2751 H 258.391 0.0856125 -3.26488 0
M  V30 2752 H 257.05 -2.03591 -3.04871 0
M  V30 2753 H 256.698 -0.516092 -5.00345 0
M  V30 2754 H 256.398 -2.2165 -5.44192 0
M  V30 2755 H 257.922 -1.42639 -5.93706 0
M  V30 2756 H 259.336 -3.31605 -4.67665 0
M  V30 2757 H 257.733 -4.06314 -4.41621 0
M  V30 2758 H 258.803 -3.78561 -3.03017 0
M  V30 2759 N 260.146 1.09593 -1.13257 0
M  V30 2760 C 261.076 2.18214 -0.830946 0
M  V30 2761 C 262.057 1.68812 0.208966 0
M  V30 2762 O 263.242 1.9408 0.0682666 0
M  V30 2763 C 260.372 3.46051 -0.294296 0
M  V30 2764 C 259.326 4.08778 -1.26826 0
M  V30 2765 C 258.652 5.31419 -0.591449 0
M  V30 2766 C 259.952 4.51476 -2.62615 0
M  V30 2767 H 261.646 2.43703 -1.73923 0
M  V30 2768 H 259.192 1.17128 -0.837675 0
M  V30 2769 H 261.145 4.2134 -0.0709606 0
M  V30 2770 H 259.869 3.20079 0.649366 0
M  V30 2771 H 258.528 3.35505 -1.47756 0
M  V30 2772 H 258.176 5.01727 0.357633 0
M  V30 2773 H 257.876 5.74341 -1.24123 0
M  V30 2774 H 259.4 6.09433 -0.377355 0
M  V30 2775 H 260.814 5.17999 -2.45663 0
M  V30 2776 H 259.211 5.05277 -3.23752 0
M  V30 2777 H 260.281 3.63962 -3.20406 0
M  V30 2778 N 261.624 0.925811 1.2754 0
M  V30 2779 C 262.572 0.413897 2.28888 0
M  V30 2780 C 263.566 -0.500779 1.61829 0
M  V30 2781 O 264.772 -0.38069 1.75928 0
M  V30 2782 H 261.147 0.115274 0.743112 0
M  V30 2783 H 263.118 1.28151 2.69481 0
M  V30 2784 C 261.867 -0.319792 3.46226 0
M  V30 2785 H 261.19 0.374846 3.98039 0
M  V30 2786 H 262.63 -0.642435 4.19105 0
M  V30 2787 C 261.089 -1.53209 3.00048 0
M  V30 2788 O 261.619 -2.6309 3.03557 0
M  V30 2789 N 259.825 -1.38326 2.55566 0
M  V30 2790 H 259.372 -0.489292 2.5291 0
M  V30 2791 H 259.33 -2.19564 2.25031 0
M  V30 2792 N 263.102 -1.41638 0.69111 0
M  V30 2793 C 264.351 -2.00526 0.217318 0
M  V30 2794 C 264.664 -1.55353 -1.18848 0
M  V30 2795 O 265.87 -2.06769 -1.75951 0
M  V30 2796 C 264.326 -3.58313 0.337639 0
M  V30 2797 C 263.934 -4.12469 1.74852 0
M  V30 2798 C 265.678 -4.24431 -0.0766066 0
M  V30 2799 C 263.585 -5.62675 1.82074 0
M  V30 2800 H 262.515 -0.750008 0.0774893 0
M  V30 2801 H 265.166 -1.6217 0.858661 0
M  V30 2802 H 263.548 -3.9425 -0.371879 0
M  V30 2803 H 264.722 -3.8796 2.48644 0
M  V30 2804 H 263.037 -3.58861 2.11205 0
M  V30 2805 H 265.634 -5.34683 -0.0430284 0
M  V30 2806 H 265.977 -4.01101 -1.1146 0
M  V30 2807 H 266.51 -3.93512 0.582476 0
M  V30 2808 H 263.249 -5.90826 2.83911 0
M  V30 2809 H 262.769 -5.89124 1.12661 0
M  V30 2810 H 264.448 -6.27371 1.58159 0
M  V30 2811 N 264.58 -0.43555 -1.51462 0
M  V30 2812 C 265.528 0.391205 -2.29287 0
M  V30 2813 C 266.522 1.02247 -1.35062 0
M  V30 2814 O 267.728 0.957646 -1.52411 0
M  V30 2815 H 264.103 0.144968 -0.737895 0
M  V30 2816 H 266.074 -0.286051 -2.97026 0
M  V30 2817 C 264.823 1.48096 -3.14583 0
M  V30 2818 H 264.146 1.00457 -3.86973 0
M  V30 2819 H 265.586 2.03273 -3.72097 0
M  V30 2820 C 264.045 2.46321 -2.29843 0
M  V30 2821 O 264.575 3.50815 -1.95682 0
M  V30 2822 N 262.781 2.17166 -1.931 0
M  V30 2823 H 262.328 1.32218 -2.21079 0
M  V30 2824 H 262.286 2.83127 -1.36698 0
M  V30 2825 N 266.058 1.56714 -0.166846 0
M  V30 2826 C 267.469 1.83378 0.350646 0
M  V30 2827 C 267.82 1.08646 1.63372 0
M  V30 2828 O 266.945 0.338058 2.13743 0
M  V30 2829 C 267.54 3.32643 0.642963 0
M  V30 2830 C 266.099 3.59818 1.10491 0
M  V30 2831 C 265.246 2.76954 0.138411 0
M  V30 2832 H 268.197 1.53803 -0.391193 0
M  V30 2833 H 268.218 3.49878 1.49551 0
M  V30 2834 H 267.73 3.87007 -0.291055 0
M  V30 2835 H 265.831 3.1086 2.05418 0
M  V30 2836 H 265.944 4.68178 1.01716 0
M  V30 2837 H 264.308 2.4666 0.634911 0
M  V30 2838 H 265.091 3.34097 -0.789549 0
M  V30 2839 N 267.536 -0.106894 1.57237 0
M  V30 2840 C 268.484 -1.14944 2.02215 0
M  V30 2841 C 269.478 -1.42167 0.92114 0
M  V30 2842 O 270.684 -1.41987 1.10634 0
M  V30 2843 H 267.059 -0.387841 0.64427 0
M  V30 2844 H 269.03 -0.743683 2.88984 0
M  V30 2845 C 267.779 -2.4647 2.4525 0
M  V30 2846 H 267.102 -2.26363 3.29545 0
M  V30 2847 H 268.542 -3.17948 2.80508 0
M  V30 2848 C 267.001 -3.09921 1.321 0
M  V30 2849 O 267.531 -3.9651 0.643622 0
M  V30 2850 N 265.737 -2.69986 1.07497 0
M  V30 2851 H 265.284 -1.99667 1.62761 0
M  V30 2852 H 265.242 -3.12769 0.319876 0
M  V30 2853 N 269.014 -1.53014 -0.377408 0
M  V30 2854 C 270.242 -1.72515 -1.14219 0
M  V30 2855 C 270.657 -0.448735 -1.8339 0
M  V30 2856 O 270.014 0.577592 -1.73119 0
M  V30 2857 C 270.065 -2.8826 -2.18148 0
M  V30 2858 O 269.786 -4.10962 -1.51795 0
M  V30 2859 C 271.287 -3.19536 -3.07264 0
M  V30 2860 H 268.507 -0.577301 -0.342001 0
M  V30 2861 H 271.051 -1.99712 -0.439935 0
M  V30 2862 H 269.206 -2.63492 -2.83991 0
M  V30 2863 H 269.62 -4.75693 -2.20945 0
M  V30 2864 H 271.094 -4.03959 -3.76193 0
M  V30 2865 H 271.571 -2.34403 -3.71419 0
M  V30 2866 H 272.177 -3.46186 -2.47053 0
M  V30 2867 N 270.492 0.636531 -1.44174 0
M  V30 2868 C 271.439 1.74875 -1.50624 0
M  V30 2869 C 272.409 1.62275 -0.35442 0
M  V30 2870 O 273.594 1.82276 -0.563908 0
M  V30 2871 C 270.734 3.13102 -1.45125 0
M  V30 2872 C 269.847 3.36717 -2.7064 0
M  V30 2873 C 268.982 4.64885 -2.57013 0
M  V30 2874 C 268.021 4.8166 -3.77717 0
M  V30 2875 N 267.158 6.01101 -3.62798 0
M  V30 2876 H 271.998 1.68697 -2.45653 0
M  V30 2877 H 269.535 0.823004 -1.21922 0
M  V30 2878 H 271.493 3.93034 -1.39929 0
M  V30 2879 H 270.123 3.18308 -0.536671 0
M  V30 2880 H 269.175 2.50763 -2.86046 0
M  V30 2881 H 270.487 3.44993 -3.60252 0
M  V30 2882 H 269.641 5.52969 -2.49619 0
M  V30 2883 H 268.38 4.58957 -1.64953 0
M  V30 2884 H 267.385 3.92007 -3.85501 0
M  V30 2885 H 268.61 4.89406 -4.70807 0
M  V30 2886 H 266.556 5.96273 -2.73486 0
M  V30 2887 H 266.473 6.10409 -4.46023 0
M  V30 2888 H 267.741 6.91761 -3.59286 0
M  V30 2889 N 271.97 1.30982 0.876444 0
M  V30 2890 C 272.88 1.2003 2.01569 0
M  V30 2891 C 273.896 0.11838 1.73597 0
M  V30 2892 O 275.072 0.33495 1.98595 0
M  V30 2893 C 272.137 0.901637 3.34771 0
M  V30 2894 C 271.198 2.06979 3.76109 0
M  V30 2895 C 270.431 1.78529 5.02954 0
M  V30 2896 O 270.654 0.717296 5.65872 0
M  V30 2897 O 269.588 2.64019 5.40905 0
M  V30 2898 H 273.414 2.15753 2.13739 0
M  V30 2899 H 270.999 1.10658 1.00375 0
M  V30 2900 H 272.881 0.750645 4.1466 0
M  V30 2901 H 271.556 -0.0256141 3.2369 0
M  V30 2902 H 270.463 2.27616 2.96887 0
M  V30 2903 H 271.796 2.97907 3.91807 0
M  V30 2904 N 273.449 -1.08991 1.13837 0
M  V30 2905 C 274.698 -1.80631 0.897509 0
M  V30 2906 C 275.011 -1.86872 -0.57777 0
M  V30 2907 O 276.217 -2.54866 -0.935701 0
M  V30 2908 C 274.673 -3.24517 1.55618 0
M  V30 2909 C 274.281 -3.26529 3.0673 0
M  V30 2910 C 276.025 -4.00882 1.3962 0
M  V30 2911 C 273.932 -4.64965 3.65461 0
M  V30 2912 H 272.862 -0.67691 0.332129 0
M  V30 2913 H 275.513 -1.2246 1.3666 0
M  V30 2914 H 273.895 -3.82778 1.01476 0
M  V30 2915 H 275.069 -2.78008 3.67489 0
M  V30 2916 H 273.384 -2.63656 3.22296 0
M  V30 2917 H 275.981 -5.03167 1.80906 0
M  V30 2918 H 276.324 -4.14896 0.341578 0
M  V30 2919 H 276.857 -3.49075 1.90766 0
M  V30 2920 H 273.596 -4.56153 4.70749 0
M  V30 2921 H 273.116 -5.13792 3.09481 0
M  V30 2922 H 274.795 -5.3394 3.654 0
M  V30 2923 N 274.927 -0.932562 -1.27047 0
M  V30 2924 C 276.173 -0.576412 -1.94436 0
M  V30 2925 C 276.506 0.880891 -1.73072 0
M  V30 2926 O 275.781 1.62905 -1.06264 0
M  V30 2927 C 276.064 -0.909031 -3.48437 0
M  V30 2928 C 275.917 -2.42044 -3.79123 0
M  V30 2929 C 277.236 -0.418341 -4.38107 0
M  V30 2930 H 274.355 -0.210888 -0.706184 0
M  V30 2931 H 276.997 -1.16522 -1.50075 0
M  V30 2932 H 275.147 -0.407947 -3.86352 0
M  V30 2933 H 276.819 -2.99359 -3.50973 0
M  V30 2934 H 275.062 -2.86758 -3.25503 0
M  V30 2935 H 275.733 -2.6037 -4.86736 0
M  V30 2936 H 278.209 -0.847856 -4.0737 0
M  V30 2937 H 277.085 -0.679981 -5.44672 0
M  V30 2938 H 277.346 0.681642 -4.36814 0
M  V30 2939 N 276.405 1.4127 -0.698611 0
M  V30 2940 C 277.821 1.55241 -0.370462 0
M  V30 2941 C 278.021 1.67351 1.12231 0
M  V30 2942 O 277.077 1.65363 1.90818 0
M  V30 2943 C 278.39 2.78997 -1.12165 0
M  V30 2944 C 279.938 2.92797 -1.1063 0
M  V30 2945 C 280.413 4.19445 -1.8393 0
M  V30 2946 N 281.904 4.26409 -1.80914 0
M  V30 2947 C 282.639 5.23271 -2.34467 0
M  V30 2948 N 282.135 6.26145 -2.96504 0
M  V30 2949 N 283.928 5.15232 -2.24706 0
M  V30 2950 H 276.079 1.31654 -1.66676 0
M  V30 2951 H 278.342 0.635393 -0.703548 0
M  V30 2952 H 278.048 2.76268 -2.17644 0
M  V30 2953 H 277.922 3.70606 -0.702209 0
M  V30 2954 H 280.309 2.95039 -0.0597713 0
M  V30 2955 H 280.39 2.02353 -1.56483 0
M  V30 2956 H 280.034 4.17964 -2.88563 0
M  V30 2957 H 279.964 5.08866 -1.35509 0
M  V30 2958 H 282.455 3.527 -1.35687 0
M  V30 2959 H 282.768 6.96451 -3.34927 0
M  V30 2960 H 281.113 6.26638 -3.00583 0
M  V30 2961 H 284.304 4.33789 -1.7591 0
M  V30 2962 H 284.477 5.90552 -2.66745 0
M  V30 2963 N 277.883 0.443576 1.51229 0
M  V30 2964 C 279.132 -0.122332 2.01329 0
M  V30 2965 C 279.445 -1.43237 1.33201 0
M  V30 2966 O 280.651 -2.0816 1.74304 0
M  V30 2967 C 279.107 -0.268551 3.58897 0
M  V30 2968 C 278.715 1.03142 4.35965 0
M  V30 2969 C 280.459 -0.787894 4.17124 0
M  V30 2970 C 278.366 0.850504 5.85252 0
M  V30 2971 H 277.296 -0.0494929 0.752374 0
M  V30 2972 H 279.947 0.574289 1.74282 0
M  V30 2973 H 278.329 -1.02832 3.82415 0
M  V30 2974 H 279.503 1.80001 4.24189 0
M  V30 2975 H 277.818 1.47977 3.89219 0
M  V30 2976 H 280.415 -0.939841 5.26375 0
M  V30 2977 H 280.758 -1.77201 3.76703 0
M  V30 2978 H 281.291 -0.0862669 3.97706 0
M  V30 2979 H 278.03 1.80718 6.30096 0
M  V30 2980 H 277.55 0.121825 5.99676 0
M  V30 2981 H 279.229 0.506163 6.45017 0
M  V30 2982 N 279.361 -1.56624 0.175154 0
M  V30 2983 C 280.291 -2.21155 -0.749195 0
M  V30 2984 C 281.272 -1.16836 -1.23626 0
M  V30 2985 O 282.457 -1.45277 -1.28873 0
M  V30 2986 C 279.587 -2.8553 -1.97711 0
M  V30 2987 C 278.541 -3.95921 -1.62575 0
M  V30 2988 C 277.867 -4.47365 -2.92864 0
M  V30 2989 C 279.167 -5.15323 -0.850838 0
M  V30 2990 H 280.861 -2.98653 -0.211295 0
M  V30 2991 H 278.407 -1.43651 -0.100188 0
M  V30 2992 H 280.36 -3.2935 -2.62881 0
M  V30 2993 H 279.084 -2.05406 -2.53921 0
M  V30 2994 H 277.743 -3.52762 -0.997719 0
M  V30 2995 H 277.391 -3.64027 -3.47122 0
M  V30 2996 H 277.091 -5.21839 -2.70106 0
M  V30 2997 H 278.615 -4.93873 -3.59056 0
M  V30 2998 H 280.029 -5.55812 -1.40521 0
M  V30 2999 H 278.426 -5.95739 -0.722154 0
M  V30 3000 H 279.496 -4.84661 0.152082 0
M  V30 3001 N 280.839 0.0985539 -1.57292 0
M  V30 3002 C 281.769 1.12064 -2.04851 0
M  V30 3003 C 282.75 1.41981 -0.936767 0
M  V30 3004 O 283.935 1.52071 -1.20781 0
M  V30 3005 C 281.065 2.44144 -2.47004 0
M  V30 3006 C 280.019 2.28643 -3.6181 0
M  V30 3007 C 279.345 3.65869 -3.89929 0
M  V30 3008 C 280.645 1.72986 -4.92822 0
M  V30 3009 H 282.339 0.724979 -2.9049 0
M  V30 3010 H 279.885 0.34729 -1.39749 0
M  V30 3011 H 281.838 3.15914 -2.78884 0
M  V30 3012 H 280.562 2.85639 -1.5836 0
M  V30 3013 H 279.221 1.59318 -3.30172 0
M  V30 3014 H 278.869 4.04885 -2.98458 0
M  V30 3015 H 278.569 3.56344 -4.67218 0
M  V30 3016 H 280.093 4.39112 -4.2428 0
M  V30 3017 H 281.507 2.34593 -5.23105 0
M  V30 3018 H 279.904 1.74229 -5.74251 0
M  V30 3019 H 280.974 0.689007 -4.7998 0
M  V30 3020 N 282.317 1.53212 0.369288 0
M  V30 3021 C 283.28 1.7872 1.43498 0
M  V30 3022 C 284.28 0.657554 1.46741 0
M  V30 3023 O 285.47 0.925736 1.47566 0
M  V30 3024 C 282.602 1.90591 2.82645 0
M  V30 3025 H 283.795 2.73894 1.22156 0
M  V30 3026 H 281.348 1.44233 0.602203 0
M  V30 3027 H 282.083 0.974709 3.09306 0
M  V30 3028 H 281.868 2.72751 2.8169 0
M  V30 3029 H 283.358 2.11931 3.59826 0
M  V30 3030 N 283.795 -0.628877 1.44509 0
M  V30 3031 C 285.042 -1.38839 1.47411 0
M  V30 3032 C 285.37 -1.94202 0.10757 0
M  V30 3033 O 284.625 -1.74243 -0.890947 0
M  V30 3034 C 284.924 -2.56995 2.48371 0
M  V30 3035 C 284.59 -2.19908 3.93639 0
M  V30 3036 C 283.252 -2.09506 4.33198 0
M  V30 3037 C 285.604 -1.9064 4.85083 0
M  V30 3038 C 282.932 -1.68028 5.62124 0
M  V30 3039 C 285.284 -1.50655 6.14399 0
M  V30 3040 C 283.948 -1.38796 6.5291 0
M  V30 3041 H 283.218 -0.508048 0.539414 0
M  V30 3042 H 285.865 -0.712913 1.77735 0
M  V30 3043 H 284.17 -3.29786 2.11538 0
M  V30 3044 H 285.867 -3.15223 2.47861 0
M  V30 3045 H 282.457 -2.28922 3.62343 0
M  V30 3046 H 286.641 -1.97585 4.55273 0
M  V30 3047 H 281.897 -1.57452 5.90778 0
M  V30 3048 H 286.071 -1.27048 6.84713 0
M  V30 3049 H 283.698 -1.06429 7.52713 0
M  V30 3050 N 285.273 -1.31445 -0.869486 0
M  V30 3051 C 286.236 -1.19094 -1.9583 0
M  V30 3052 C 287.236 -0.117906 -1.60367 0
M  V30 3053 O 288.426 -0.367208 -1.70286 0
M  V30 3054 C 285.558 -0.828165 -3.30688 0
M  V30 3055 H 286.751 -2.15842 -2.08212 0
M  V30 3056 H 284.304 -1.15063 -1.05784 0
M  V30 3057 H 285.039 0.138142 -3.24006 0
M  V30 3058 H 284.824 -1.6038 -3.578 0
M  V30 3059 H 286.314 -0.765658 -4.10521 0
M  V30 3060 N 286.751 1.08385 -1.14413 0
M  V30 3061 C 287.661 2.18856 -0.844951 0
M  V30 3062 C 288.677 1.73121 0.174668 0
M  V30 3063 O 289.853 2.014 0.00312857 0
M  V30 3064 C 286.918 3.45155 -0.32696 0
M  V30 3065 C 285.979 4.05513 -1.40916 0
M  V30 3066 C 285.212 5.25784 -0.915793 0
M  V30 3067 O 285.435 5.69884 0.242651 0
M  V30 3068 O 284.369 5.77545 -1.69487 0
M  V30 3069 H 288.195 2.46919 -1.76818 0
M  V30 3070 H 285.78 1.17524 -0.922411 0
M  V30 3071 H 287.662 4.21377 -0.0440211 0
M  V30 3072 H 286.337 3.18668 0.568539 0
M  V30 3073 H 285.244 3.30879 -1.74556 0
M  V30 3074 H 286.577 4.3625 -2.27919 0
M  V30 3075 N 288.23 0.939286 1.26551 0
M  V30 3076 C 289.14 0.453432 2.30176 0
M  V30 3077 C 290.156 -0.471649 1.67486 0
M  V30 3078 O 291.332 -0.35164 1.98306 0
M  V30 3079 C 288.397 -0.275326 3.45605 0
M  V30 3080 C 287.458 0.686084 4.23782 0
M  V30 3081 C 286.691 -0.00798994 5.33699 0
M  V30 3082 O 286.914 -1.22528 5.57085 0
M  V30 3083 O 285.848 0.669746 5.98162 0
M  V30 3084 H 289.674 1.31416 2.73795 0
M  V30 3085 H 287.259 0.705095 1.31715 0
M  V30 3086 H 289.141 -0.685911 4.1578 0
M  V30 3087 H 287.816 -1.11147 3.0402 0
M  V30 3088 H 286.723 1.14658 3.56096 0
M  V30 3089 H 288.056 1.48979 4.69112 0
M  V30 3090 N 289.708 -1.40897 0.706093 0
M  V30 3091 C 290.656 -2.32572 0.0361893 0
M  V30 3092 C 291.65 -1.51532 -0.757266 0
M  V30 3093 O 292.856 -1.67396 -0.661703 0
M  V30 3094 H 289.231 -0.751966 -0.00709935 0
M  V30 3095 H 291.202 -2.86733 0.826249 0
M  V30 3096 C 289.951 -3.36418 -0.87854 0
M  V30 3097 H 289.274 -3.98836 -0.277401 0
M  V30 3098 H 290.714 -4.0308 -1.3154 0
M  V30 3099 C 289.173 -2.71141 -1.99961 0
M  V30 3100 O 289.703 -2.56735 -3.0895 0
M  V30 3101 N 287.909 -2.29671 -1.78043 0
M  V30 3102 H 287.456 -2.41588 -0.894042 0
M  V30 3103 H 287.414 -1.86332 -2.53235 0
M  V30 3104 N 291.186 -0.45159 -1.50991 0
M  V30 3105 C 292.463 0.170707 -1.94854 0
M  V30 3106 C 292.843 1.58788 -1.39103 0
M  V30 3107 O 292.191 2.20913 -0.583921 0
M  V30 3108 C 292.401 0.133929 -3.48743 0
M  V30 3109 C 293.749 0.33248 -4.23296 0
M  V30 3110 O 294.773 0.211403 -3.55572 0
M  V30 3111 O 293.632 0.57486 -5.43468 0
M  V30 3112 H 290.726 0.122264 -0.817912 0
M  V30 3113 H 293.272 -0.510594 -1.61836 0
M  V30 3114 H 292.044 -0.856283 -3.81816 0
M  V30 3115 H 291.667 0.857529 -3.88242 0
M  V30 3116 N 292.664 1.56529 -0.183458 0
M  V30 3117 C 293.913 1.96419 0.458511 0
M  V30 3118 C 294.226 1.0727 1.63562 0
M  V30 3119 O 295.432 1.36893 2.34462 0
M  V30 3120 C 293.888 3.49298 0.867122 0
M  V30 3121 C 293.496 4.47092 -0.285057 0
M  V30 3122 C 295.24 3.97983 1.47683 0
M  V30 3123 C 293.147 5.91225 0.143862 0
M  V30 3124 H 292.077 0.733394 0.175071 0
M  V30 3125 H 294.728 1.81448 -0.273624 0
M  V30 3126 H 293.11 3.59731 1.65559 0
M  V30 3127 H 294.284 4.48383 -1.0625 0
M  V30 3128 H 292.599 4.08535 -0.805503 0
M  V30 3129 H 295.196 5.03134 1.80999 0
M  V30 3130 H 295.539 3.41618 2.37914 0
M  V30 3131 H 296.072 3.90617 0.752562 0
M  V30 3132 H 292.811 6.5149 -0.723974 0
M  V30 3133 H 292.331 5.93214 0.886413 0
M  V30 3134 H 294.01 6.44362 0.583628 0
M  V30 3135 N 294.142 -0.090211 1.57342 0
M  V30 3136 C 295.072 -1.10976 2.05443 0
M  V30 3137 C 296.053 -1.41482 0.944284 0
M  V30 3138 O 297.238 -1.51428 1.21586 0
M  V30 3139 C 294.368 -2.42831 2.48295 0
M  V30 3140 C 293.322 -2.26721 3.63018 0
M  V30 3141 C 292.648 -3.63796 3.91863 0
M  V30 3142 C 293.948 -1.7037 4.93732 0
M  V30 3143 H 295.642 -0.709564 2.9087 0
M  V30 3144 H 293.188 -0.339874 1.39932 0
M  V30 3145 H 295.141 -3.14431 2.80555 0
M  V30 3146 H 293.865 -2.84795 1.59873 0
M  V30 3147 H 292.524 -1.57565 3.31012 0
M  V30 3148 H 292.172 -4.03297 3.00601 0
M  V30 3149 H 291.872 -3.53861 4.69101 0
M  V30 3150 H 293.396 -4.36855 4.26603 0
M  V30 3151 H 294.81 -2.31816 5.24342 0
M  V30 3152 H 293.207 -1.71181 5.75167 0
M  V30 3153 H 294.277 -0.663542 4.80339 0
M  V30 3154 N 295.62 -1.53406 -0.361157 0
M  V30 3155 C 296.868 -1.69467 -1.10115 0
M  V30 3156 C 297.189 -0.451352 -1.89705 0
M  V30 3157 O 296.459 0.534636 -1.88463 0
M  V30 3158 H 295.039 -0.624749 -0.409508 0
M  V30 3159 H 297.701 -1.90609 -0.406699 0
M  V30 3160 H 296.797 -2.55774 -1.78847 0
M  V30 3161 N 297.098 0.621204 -1.44841 0
M  V30 3162 C 298.514 0.94048 -1.28946 0
M  V30 3163 C 298.714 2.00154 -0.23249 0
M  V30 3164 O 297.77 2.49651 0.378237 0
M  V30 3165 C 299.083 1.39433 -2.66419 0
M  V30 3166 C 300.631 1.50927 -2.74208 0
M  V30 3167 C 301.106 1.99692 -4.12174 0
M  V30 3168 N 302.597 2.06947 -4.144 0
M  V30 3169 C 303.332 2.45871 -5.1801 0
M  V30 3170 N 302.828 2.83862 -6.31977 0
M  V30 3171 N 304.621 2.46092 -5.05366 0
M  V30 3172 H 296.772 -0.0803548 -2.12248 0
M  V30 3173 H 299.035 0.0266913 -0.947624 0
M  V30 3174 H 298.741 0.688925 -3.44887 0
M  V30 3175 H 298.615 2.36347 -2.93973 0
M  V30 3176 H 301.002 2.20561 -1.96053 0
M  V30 3177 H 301.083 0.523627 -2.50383 0
M  V30 3178 H 300.727 1.30649 -4.90809 0
M  V30 3179 H 300.657 2.99146 -4.33381 0
M  V30 3180 H 303.148 1.80232 -3.32152 0
M  V30 3181 H 303.461 3.12405 -7.0684 0
M  V30 3182 H 301.806 2.8159 -6.35399 0
M  V30 3183 H 304.997 2.1581 -4.15384 0
M  V30 3184 H 305.17 2.76102 -5.86235 0
M  V30 3185 N 298.576 1.31904 0.862503 0
M  V30 3186 C 299.823 1.22017 1.61611 0
M  V30 3187 C 300.151 -0.21991 1.93253 0
M  V30 3188 O 299.406 -1.17076 1.56817 0
M  V30 3189 C 299.705 2.01713 2.95037 0
M  V30 3190 C 299.371 3.51145 2.82857 0
M  V30 3191 C 298.033 3.91889 2.79243 0
M  V30 3192 C 300.385 4.46204 2.69353 0
M  V30 3193 C 297.713 5.25947 2.59993 0
M  V30 3194 C 300.065 5.80397 2.5164 0
M  V30 3195 C 298.729 6.20352 2.46413 0
M  V30 3196 H 297.999 0.44649 0.591378 0
M  V30 3197 H 300.646 1.63248 1.00111 0
M  V30 3198 H 298.951 1.53185 3.60613 0
M  V30 3199 H 300.648 1.91437 3.52353 0
M  V30 3200 H 297.238 3.1878 2.86491 0
M  V30 3201 H 301.422 4.15652 2.71196 0
M  V30 3202 H 296.678 5.5597 2.54376 0
M  V30 3203 H 300.852 6.53676 2.40169 0
M  V30 3204 H 298.479 7.24172 2.31256 0
M  V30 3205 N 300.054 -1.07777 1.14986 0
M  V30 3206 C 301.303 -1.79669 0.916617 0
M  V30 3207 C 301.616 -1.87474 -0.557917 0
M  V30 3208 O 302.822 -2.55845 -0.908617 0
M  V30 3209 C 301.278 -3.22848 1.59051 0
M  V30 3210 C 300.886 -3.23257 3.10176 0
M  V30 3211 C 302.63 -3.99379 1.43864 0
M  V30 3212 C 300.537 -4.61063 3.70372 0
M  V30 3213 H 299.467 -0.673349 0.33929 0
M  V30 3214 H 302.118 -1.21003 1.37951 0
M  V30 3215 H 300.5 -3.8168 1.0553 0
M  V30 3216 H 301.674 -2.74095 3.70417 0
M  V30 3217 H 299.989 -2.60222 3.25074 0
M  V30 3218 H 302.586 -5.0122 1.86232 0
M  V30 3219 H 302.929 -4.14511 0.385564 0
M  V30 3220 H 303.462 -3.47032 1.94457 0
M  V30 3221 H 300.201 -4.51135 4.7556 0
M  V30 3222 H 299.721 -5.1048 3.14913 0
M  V30 3223 H 301.4 -5.30034 3.71043 0
M  V30 3224 N 301.532 -0.945985 -1.26051 0
M  V30 3225 C 302.48 -0.450259 -2.282 0
M  V30 3226 C 303.474 0.47497 -1.62605 0
M  V30 3227 O 304.68 0.352653 -1.76512 0
M  V30 3228 H 301.055 -0.127081 -0.741184 0
M  V30 3229 H 303.026 -1.32422 -2.67408 0
M  V30 3230 C 301.775 0.26467 -3.46691 0
M  V30 3231 H 301.098 -0.438123 -3.97392 0
M  V30 3232 H 302.538 0.575678 -4.20074 0
M  V30 3233 C 300.997 1.48416 -3.02447 0
M  V30 3234 O 301.527 2.58227 -3.07704 0
M  V30 3235 N 299.733 1.34243 -2.57735 0
M  V30 3236 H 299.28 0.448994 -2.53657 0
M  V30 3237 H 299.238 2.15957 -2.28495 0
M  V30 3238 N 303.011 1.40521 -0.713556 0
M  V30 3239 C 303.974 2.29098 -0.0684347 0
M  V30 3240 C 304.974 1.45268 0.689472 0
M  V30 3241 O 306.164 1.66205 0.521677 0
M  V30 3242 C 303.296 3.28446 0.913024 0
M  V30 3243 H 304.489 2.87645 -0.84855 0
M  V30 3244 H 302.042 1.48809 -0.47809 0
M  V30 3245 H 302.777 2.74913 1.72027 0
M  V30 3246 H 302.562 3.90327 0.372472 0
M  V30 3247 H 304.052 3.94777 1.36165 0
M  V30 3248 N 304.489 0.459591 1.5075 0
M  V30 3249 C 305.399 -0.34613 2.32033 0
M  V30 3250 C 306.415 -1.00686 1.41909 0
M  V30 3251 O 307.591 -0.997361 1.7497 0
M  V30 3252 C 304.656 -1.42029 3.16273 0
M  V30 3253 C 303.717 -0.777362 4.22203 0
M  V30 3254 C 302.95 -1.80034 5.02418 0
M  V30 3255 O 303.173 -3.02544 4.83553 0
M  V30 3256 O 302.107 -1.37853 5.85901 0
M  V30 3257 H 305.933 0.318054 3.0203 0
M  V30 3258 H 303.518 0.221663 1.47746 0
M  V30 3259 H 305.4 -2.04275 3.68578 0
M  V30 3260 H 304.075 -2.06815 2.49016 0
M  V30 3261 H 302.982 -0.116256 3.73919 0
M  V30 3262 H 304.315 -0.172634 4.91897 0
M  V30 3263 N 305.967 -1.56429 0.191757 0
M  V30 3264 C 307.197 -2.01574 -0.452928 0
M  V30 3265 C 307.605 -1.07107 -1.55964 0
M  V30 3266 O 306.948 -0.067534 -1.83576 0
M  V30 3267 C 307.01 -3.43121 -1.07278 0
M  V30 3268 C 306.674 -4.56879 -0.105214 0
M  V30 3269 C 307.671 -5.15379 0.684149 0
M  V30 3270 C 305.356 -5.023 0.00489824 0
M  V30 3271 C 307.35 -6.17746 1.57062 0
M  V30 3272 C 305.037 -6.04511 0.894935 0
M  V30 3273 C 306.035 -6.62108 1.67637 0
M  V30 3274 O 305.723 -7.62335 2.55149 0
M  V30 3275 H 305.455 -0.665554 -0.118379 0
M  V30 3276 H 308.009 -2.03245 0.296737 0
M  V30 3277 H 306.239 -3.38425 -1.87097 0
M  V30 3278 H 307.928 -3.72093 -1.62177 0
M  V30 3279 H 308.694 -4.81157 0.609365 0
M  V30 3280 H 304.573 -4.57168 -0.593156 0
M  V30 3281 H 308.117 -6.6263 2.181 0
M  V30 3282 H 304.014 -6.38157 0.970847 0
M  V30 3283 H 304.782 -7.79741 2.48892 0
M  V30 3284 N 307.445 0.0818655 -1.57387 0
M  V30 3285 C 308.673 0.796108 -1.9097 0
M  V30 3286 C 309.088 1.71626 -0.786757 0
M  V30 3287 O 308.445 1.80908 0.240513 0
M  V30 3288 C 308.496 1.59829 -3.24248 0
M  V30 3289 O 308.217 0.715131 -4.32224 0
M  V30 3290 C 309.718 2.41442 -3.7178 0
M  V30 3291 H 306.938 0.22691 -0.631469 0
M  V30 3292 H 309.482 0.0551439 -2.04426 0
M  V30 3293 H 307.637 2.29163 -3.12351 0
M  V30 3294 H 308.051 1.27205 -5.08841 0
M  V30 3295 H 309.525 2.932 -4.67694 0
M  V30 3296 H 310.002 3.2051 -3.00283 0
M  V30 3297 H 310.608 1.77283 -3.86589 0
M  V30 3298 N 308.923 1.53595 0.353017 0
M  V30 3299 C 309.833 1.83897 1.45667 0
M  V30 3300 C 310.849 0.728334 1.58023 0
M  V30 3301 O 312.025 1.01968 1.73679 0
M  V30 3302 C 309.09 2.03383 2.80778 0
M  V30 3303 C 308.151 3.27262 2.77845 0
M  V30 3304 C 307.384 3.45809 4.06512 0
M  V30 3305 O 307.607 2.68387 5.03314 0
M  V30 3306 O 306.541 4.39207 4.11559 0
M  V30 3307 H 310.367 2.77686 1.2298 0
M  V30 3308 H 307.952 1.39132 0.544308 0
M  V30 3309 H 309.834 2.17698 3.60812 0
M  V30 3310 H 308.509 1.12783 3.03417 0
M  V30 3311 H 307.416 3.18359 1.96465 0
M  V30 3312 H 308.749 4.17824 2.60161 0
M  V30 3313 N 310.401 -0.613514 1.45168 0
M  V30 3314 C 311.311 -1.75296 1.55912 0
M  V30 3315 C 312.327 -1.68244 0.443856 0
M  V30 3316 O 313.503 -1.88706 0.70371 0
M  V30 3317 C 310.568 -3.1174 1.5172 0
M  V30 3318 C 309.629 -3.30291 2.74238 0
M  V30 3319 C 308.862 -4.60226 2.70236 0
M  V30 3320 O 309.085 -5.42168 1.77229 0
M  V30 3321 O 308.019 -4.81361 3.61352 0
M  V30 3322 H 311.845 -1.69183 2.52212 0
M  V30 3323 H 309.43 -0.776886 1.27612 0
M  V30 3324 H 311.312 -3.93044 1.51968 0
M  V30 3325 H 309.987 -3.18357 0.585697 0
M  V30 3326 H 308.894 -2.48598 2.79553 0
M  V30 3327 H 310.227 -3.28547 3.66494 0
M  V30 3328 N 311.879 -1.3236 -0.855495 0
M  V30 3329 C 312.842 -1.21164 -1.94556 0
M  V30 3330 C 313.842 -0.134908 -1.60233 0
M  V30 3331 O 315.032 -0.385249 -1.69887 0
M  V30 3332 C 312.164 -0.863192 -3.29791 0
M  V30 3333 H 313.357 -2.18038 -2.05911 0
M  V30 3334 H 310.91 -1.16179 -1.04557 0
M  V30 3335 H 311.645 0.103769 -3.24134 0
M  V30 3336 H 311.43 -1.64166 -3.56078 0
M  V30 3337 H 312.92 -0.809156 -4.09686 0
M  V30 3338 N 313.357 1.07166 -1.15556 0
M  V30 3339 C 314.587 1.83248 -0.954133 0
M  V30 3340 C 314.995 1.82449 0.500911 0
M  V30 3341 O 314.338 1.23575 1.35923 0
M  V30 3342 C 314.4 3.31393 -1.39351 0
M  V30 3343 C 314.064 3.5591 -2.86666 0
M  V30 3344 C 315.061 3.49695 -3.8472 0
M  V30 3345 C 312.746 3.83515 -3.24379 0
M  V30 3346 C 314.74 3.70737 -5.18491 0
M  V30 3347 C 312.427 4.04209 -4.58321 0
M  V30 3348 C 313.425 3.97815 -5.55186 0
M  V30 3349 O 313.113 4.17954 -6.86709 0
M  V30 3350 H 312.845 0.584941 -0.338851 0
M  V30 3351 H 315.399 1.36169 -1.53777 0
M  V30 3352 H 313.629 3.79292 -0.75329 0
M  V30 3353 H 315.318 3.88945 -1.16089 0
M  V30 3354 H 316.084 3.28368 -3.56931 0
M  V30 3355 H 311.963 3.87605 -2.49567 0
M  V30 3356 H 315.507 3.65663 -5.94085 0
M  V30 3357 H 311.404 4.25023 -4.85825 0
M  V30 3358 H 312.172 4.35291 -6.93155 0
M  V30 3359 N 314.835 0.952656 1.25548 0
M  V30 3360 C 315.745 0.47782 2.29682 0
M  V30 3361 C 316.761 -0.453859 1.67977 0
M  V30 3362 O 317.937 -0.330587 1.98668 0
M  V30 3363 C 315.002 -0.238655 3.45878 0
M  V30 3364 C 314.063 0.730994 4.23031 0
M  V30 3365 C 313.296 0.0486165 5.33678 0
M  V30 3366 O 313.519 -1.16612 5.58353 0
M  V30 3367 O 312.453 0.733152 5.97418 0
M  V30 3368 H 316.279 1.34312 2.72386 0
M  V30 3369 H 313.864 0.719026 1.30959 0
M  V30 3370 H 315.746 -0.641774 4.16484 0
M  V30 3371 H 314.421 -1.07916 3.05181 0
M  V30 3372 H 313.328 1.18428 3.5486 0
M  V30 3373 H 314.661 1.53946 4.67506 0
M  V30 3374 N 316.313 -1.40141 0.720998 0
M  V30 3375 C 317.561 -2.0039 0.262323 0
M  V30 3376 C 317.882 -1.57469 -1.15015 0
M  V30 3377 O 317.152 -0.816582 -1.78069 0
M  V30 3378 H 315.732 -0.741063 0.093996 0
M  V30 3379 H 318.394 -1.71398 0.927835 0
M  V30 3380 H 317.49 -3.10658 0.299671 0
M  V30 3381 N 317.792 -0.46758 -1.50504 0
M  V30 3382 C 318.724 0.364655 -2.26281 0
M  V30 3383 C 319.737 0.960151 -1.31472 0
M  V30 3384 O 320.926 0.849153 -1.57008 0
M  V30 3385 C 318.026 1.52509 -3.02645 0
M  V30 3386 C 317.199 1.04302 -4.24782 0
M  V30 3387 C 316.258 2.07709 -4.8347 0
M  V30 3388 O 315.284 1.65913 -5.44483 0
M  V30 3389 N 316.486 3.40485 -4.70159 0
M  V30 3390 H 319.251 -0.28495 -2.98342 0
M  V30 3391 H 316.812 -0.298163 -1.59131 0
M  V30 3392 H 318.804 2.21371 -3.38787 0
M  V30 3393 H 317.374 2.07945 -2.33404 0
M  V30 3394 H 316.594 0.180393 -3.93787 0
M  V30 3395 H 317.882 0.698798 -5.03978 0
M  V30 3396 H 317.28 3.77155 -4.21629 0
M  V30 3397 H 315.837 4.05156 -5.1058 0
M  V30 3398 N 319.27 1.56325 -0.20005 0
M  V30 3399 C 320.498 2.02105 0.442874 0
M  V30 3400 C 320.913 1.08014 1.5485 0
M  V30 3401 O 320.27 0.0858797 1.82298 0
M  V30 3402 C 320.321 3.47549 0.994583 0
M  V30 3403 O 320.042 4.38049 -0.0669322 0
M  V30 3404 C 321.543 4.0887 1.7129 0
M  V30 3405 H 318.763 0.661807 0.110691 0
M  V30 3406 H 321.307 2.02134 -0.310207 0
M  V30 3407 H 319.462 3.48204 1.69803 0
M  V30 3408 H 319.876 5.23368 0.344462 0
M  V30 3409 H 321.35 5.12475 2.05118 0
M  V30 3410 H 321.827 3.52615 2.61838 0
M  V30 3411 H 322.433 4.12002 1.05518 0
M  V30 3412 N 320.748 -0.0735177 1.57428 0
M  V30 3413 C 321.711 -1.07192 2.02589 0
M  V30 3414 C 322.711 -1.31695 0.922661 0
M  V30 3415 O 323.901 -1.27445 1.18758 0
M  V30 3416 C 321.033 -2.41599 2.40506 0
M  V30 3417 H 322.226 -0.682727 2.92025 0
M  V30 3418 H 319.779 -0.319193 1.53006 0
M  V30 3419 H 320.514 -2.85354 1.5409 0
M  V30 3420 H 320.299 -2.25156 3.21009 0
M  V30 3421 H 321.789 -3.13367 2.76027 0
M  V30 3422 N 322.226 -1.5378 -0.344866 0
M  V30 3423 C 323.156 -1.84662 -1.42906 0
M  V30 3424 C 324.137 -0.701648 -1.54955 0
M  V30 3425 O 325.322 -0.953438 -1.69184 0
M  V30 3426 C 322.452 -2.05503 -2.79974 0
M  V30 3427 C 321.406 -3.21318 -2.82734 0
M  V30 3428 C 320.732 -3.2749 -4.22675 0
M  V30 3429 C 322.032 -4.59456 -2.48389 0
M  V30 3430 H 323.726 -2.75461 -1.17311 0
M  V30 3431 H 321.272 -1.32542 -0.562896 0
M  V30 3432 H 323.225 -2.25691 -3.55867 0
M  V30 3433 H 321.949 -1.11434 -3.07002 0
M  V30 3434 H 320.608 -3.00984 -2.09294 0
M  V30 3435 H 320.256 -2.31019 -4.4681 0
M  V30 3436 H 319.956 -4.05316 -4.25433 0
M  V30 3437 H 321.48 -3.49887 -5.00412 0
M  V30 3438 H 322.894 -4.79667 -3.13995 0
M  V30 3439 H 321.291 -5.39675 -2.62432 0
M  V30 3440 H 322.361 -4.63155 -1.4358 0
M  V30 3441 N 323.704 0.605807 -1.45491 0
M  V30 3442 C 324.652 1.73754 -1.54636 0
M  V30 3443 C 325.646 1.64207 -0.416219 0
M  V30 3444 O 326.852 1.69979 -0.592199 0
M  V30 3445 H 323.227 0.574073 -0.485741 0
M  V30 3446 H 325.198 1.63169 -2.49837 0
M  V30 3447 C 323.947 3.12135 -1.53189 0
M  V30 3448 H 323.27 3.20141 -2.39478 0
M  V30 3449 H 324.71 3.91147 -1.63645 0
M  V30 3450 C 323.169 3.35921 -0.256616 0
M  V30 3451 O 323.699 3.96194 0.662798 0
M  V30 3452 N 321.905 2.90204 -0.151751 0
M  V30 3453 H 321.452 2.41336 -0.90081 0
M  V30 3454 H 321.41 3.06492 0.700699 0
M  V30 3455 N 325.182 1.32811 0.848464 0
M  V30 3456 C 326.431 1.23075 1.59798 0
M  V30 3457 C 326.744 -0.204419 1.94529 0
M  V30 3458 O 327.95 -0.423701 2.68173 0
M  V30 3459 C 326.406 2.15594 2.88179 0
M  V30 3460 C 326.014 3.64228 2.60849 0
M  V30 3461 C 327.758 2.14709 3.66197 0
M  V30 3462 C 325.665 4.48689 3.85269 0
M  V30 3463 H 324.595 0.457091 0.599653 0
M  V30 3464 H 327.246 1.57813 0.936342 0
M  V30 3465 H 325.628 1.73778 3.55833 0
M  V30 3466 H 326.802 4.14424 2.01467 0
M  V30 3467 H 325.117 3.67306 1.96151 0
M  V30 3468 H 327.714 2.75046 4.58534 0
M  V30 3469 H 328.057 1.13966 4.00397 0
M  V30 3470 H 328.59 2.54837 3.05455 0
M  V30 3471 H 325.329 5.5027 3.56207 0
M  V30 3472 H 324.849 4.03241 4.44024 0
M  V30 3473 H 326.528 4.62006 4.52946 0
M  V30 3474 N 326.66 -1.06551 1.16123 0
M  V30 3475 C 327.623 -2.12132 0.867906 0
M  V30 3476 C 328.623 -1.60224 -0.135944 0
M  V30 3477 O 329.813 -1.73943 0.0946422 0
M  V30 3478 C 326.945 -3.396 0.297419 0
M  V30 3479 H 328.138 -2.39586 1.80385 0
M  V30 3480 H 325.691 -1.22574 0.969812 0
M  V30 3481 H 326.426 -3.17794 -0.64633 0
M  V30 3482 H 326.211 -3.78581 1.02073 0
M  V30 3483 H 327.701 -4.17455 0.110052 0
M  V30 3484 N 328.138 -0.959301 -1.25041 0
M  V30 3485 C 329.387 -0.612254 -1.92183 0
M  V30 3486 C 329.7 0.855347 -1.75907 0
M  V30 3487 O 330.906 1.31256 -2.37664 0
M  V30 3488 C 329.362 -1.04435 -3.44414 0
M  V30 3489 C 328.97 -2.53482 -3.69393 0
M  V30 3490 C 330.714 -0.770055 -4.17457 0
M  V30 3491 C 328.621 -2.90468 -5.15153 0
M  V30 3492 H 327.551 -0.225279 -0.719559 0
M  V30 3493 H 330.202 -1.16438 -1.41825 0
M  V30 3494 H 328.584 -0.4206 -3.9376 0
M  V30 3495 H 329.758 -3.20916 -3.30681 0
M  V30 3496 H 328.073 -2.78432 -3.0962 0
M  V30 3497 H 330.67 -1.02249 -5.24832 0
M  V30 3498 H 331.013 0.293611 -4.15263 0
M  V30 3499 H 331.546 -1.35437 -3.74034 0
M  V30 3500 H 328.285 -3.95871 -5.22462 0
M  V30 3501 H 327.805 -2.27711 -5.54894 0
M  V30 3502 H 329.484 -2.79914 -5.83315 0
M  V30 3503 N 329.616 1.39756 -0.72842 0
M  V30 3504 C 330.526 2.34444 -0.0855374 0
M  V30 3505 C 331.542 1.57976 0.729356 0
M  V30 3506 O 332.718 1.90301 0.659346 0
M  V30 3507 C 329.783 3.36965 0.815798 0
M  V30 3508 C 328.844 4.29299 -0.0105996 0
M  V30 3509 C 328.077 5.26923 0.84781 0
M  V30 3510 O 328.3 5.30859 2.08673 0
M  V30 3511 O 327.234 6.01249 0.279969 0
M  V30 3512 H 331.06 2.91065 -0.866892 0
M  V30 3513 H 328.645 1.4117 -0.48902 0
M  V30 3514 H 330.527 3.99804 1.33171 0
M  V30 3515 H 329.202 2.82739 1.57608 0
M  V30 3516 H 328.109 3.69703 -0.571877 0
M  V30 3517 H 329.442 4.86712 -0.73295 0
M  V30 3518 N 331.094 0.475555 1.50254 0
M  V30 3519 C 332.51 0.12997 1.5907 0
M  V30 3520 C 332.71 -1.36385 1.48328 0
M  V30 3521 O 331.766 -2.13754 1.34407 0
M  V30 3522 C 333.079 0.684139 2.92814 0
M  V30 3523 C 334.627 0.647965 3.0622 0
M  V30 3524 C 335.102 1.17975 4.42545 0
M  V30 3525 N 336.593 1.13936 4.48969 0
M  V30 3526 C 337.328 1.52129 5.52851 0
M  V30 3527 N 336.824 1.97793 6.63965 0
M  V30 3528 N 338.617 1.43704 5.4342 0
M  V30 3529 H 330.768 1.44706 1.55479 0
M  V30 3530 H 333.031 0.598691 0.735033 0
M  V30 3531 H 332.737 1.73079 3.06164 0
M  V30 3532 H 332.611 0.130204 3.76975 0
M  V30 3533 H 334.998 -0.38979 2.92514 0
M  V30 3534 H 335.079 1.23876 2.23805 0
M  V30 3535 H 334.723 2.21616 4.57 0
M  V30 3536 H 334.653 0.565138 5.23559 0
M  V30 3537 H 337.144 0.804488 3.69238 0
M  V30 3538 H 337.457 2.25072 7.39299 0
M  V30 3539 H 335.802 2.01749 6.65073 0
M  V30 3540 H 338.993 1.07867 4.55502 0
M  V30 3541 H 339.166 1.73794 6.24259 0
M  V30 3542 N 332.573 -1.56217 0.208337 0
M  V30 3543 C 333.989 -1.58919 -0.14729 0
M  V30 3544 C 334.189 -1.22486 -1.59998 0
M  V30 3545 O 333.245 -0.953849 -2.3379 0
M  V30 3546 C 334.558 -3.00236 0.167048 0
M  V30 3547 C 336.106 -3.12813 0.108219 0
M  V30 3548 C 336.581 -4.56284 0.396049 0
M  V30 3549 N 338.072 -4.61912 0.345142 0
M  V30 3550 C 338.807 -5.70837 0.541523 0
M  V30 3551 N 338.303 -6.88178 0.798968 0
M  V30 3552 N 340.096 -5.60091 0.474867 0
M  V30 3553 H 332.247 -1.78177 1.15614 0
M  V30 3554 H 334.51 -0.827555 0.462446 0
M  V30 3555 H 334.216 -3.31499 1.1748 0
M  V30 3556 H 334.09 -3.7354 -0.524184 0
M  V30 3557 H 336.477 -2.81354 -0.890157 0
M  V30 3558 H 336.558 -2.41866 0.832729 0
M  V30 3559 H 336.202 -4.88458 1.3918 0
M  V30 3560 H 336.132 -5.25439 -0.349502 0
M  V30 3561 H 338.623 -3.77589 0.153316 0
M  V30 3562 H 338.936 -7.67095 0.93727 0
M  V30 3563 H 337.281 -6.89953 0.836013 0
M  V30 3564 H 340.472 -4.67297 0.274064 0
M  V30 3565 H 340.645 -6.44917 0.631326 0
M  V30 3566 N 334.051 0.0651679 -1.57465 0
M  V30 3567 C 334.983 1.10359 -2.00882 0
M  V30 3568 C 335.996 1.346 -0.915788 0
M  V30 3569 O 337.185 1.32723 -1.1936 0
M  V30 3570 C 334.285 2.45312 -2.33828 0
M  V30 3571 C 333.458 2.40934 -3.65061 0
M  V30 3572 C 332.517 3.58047 -3.85602 0
M  V30 3573 O 331.543 3.39175 -4.57109 0
M  V30 3574 N 332.745 4.78637 -3.28462 0
M  V30 3575 H 335.51 0.733807 -2.90578 0
M  V30 3576 H 333.071 0.253719 -1.599 0
M  V30 3577 H 335.063 3.22314 -2.44737 0
M  V30 3578 H 333.633 2.74267 -1.49988 0
M  V30 3579 H 332.853 1.49273 -3.64844 0
M  V30 3580 H 334.141 2.35117 -4.51218 0
M  V30 3581 H 333.539 4.96872 -2.70433 0
M  V30 3582 H 332.096 5.53127 -3.44809 0
M  V30 3583 N 335.529 1.53961 0.336706 0
M  V30 3584 C 336.777 1.71197 1.07405 0
M  V30 3585 C 337.098 0.481475 1.88962 0
M  V30 3586 O 336.368 -0.504585 1.8929 0
M  V30 3587 H 334.948 0.631185 0.399517 0
M  V30 3588 H 337.61 1.91232 0.376323 0
M  V30 3589 H 336.706 2.58587 1.74755 0
M  V30 3590 N 337.007 -0.598083 1.45811 0
M  V30 3591 C 338.284 -1.35777 1.40797 0
M  V30 3592 C 338.664 -2.10935 0.083462 0
M  V30 3593 O 338.012 -2.08505 -0.934763 0
M  V30 3594 C 338.222 -2.29666 2.62783 0
M  V30 3595 C 339.57 -2.91977 3.08277 0
M  V30 3596 O 340.594 -2.39984 2.63223 0
M  V30 3597 O 339.453 -3.86376 3.86491 0
M  V30 3598 H 336.547 -0.609291 0.55919 0
M  V30 3599 H 339.093 -0.620379 1.57954 0
M  V30 3600 H 337.865 -1.73454 3.50756 0
M  V30 3601 H 337.488 -3.1077 2.48008 0
M  V30 3602 N 338.485 -1.33259 -0.841409 0
M  V30 3603 C 339.734 -1.23921 -1.59143 0
M  V30 3604 C 340.047 0.1941 -1.94635 0
M  V30 3605 O 341.253 0.409474 -2.68394 0
M  V30 3606 C 339.709 -2.17119 -2.87032 0
M  V30 3607 C 339.317 -3.65606 -2.58914 0
M  V30 3608 C 341.061 -2.16648 -3.65053 0
M  V30 3609 C 338.968 -4.50726 -3.82884 0
M  V30 3610 H 337.898 -0.460264 -0.597221 0
M  V30 3611 H 340.549 -1.58307 -0.927959 0
M  V30 3612 H 338.931 -1.75663 -3.54906 0
M  V30 3613 H 340.105 -4.15487 -1.99267 0
M  V30 3614 H 338.42 -3.68341 -1.942 0
M  V30 3615 H 341.017 -2.77474 -4.57069 0
M  V30 3616 H 341.36 -1.16088 -3.99787 0
M  V30 3617 H 341.893 -2.56453 -3.041 0
M  V30 3618 H 338.632 -5.52151 -3.53283 0
M  V30 3619 H 338.152 -4.0559 -4.41879 0
M  V30 3620 H 339.831 -4.64401 -4.50489 0
M  V30 3621 N 339.963 1.05934 -1.16686 0
M  V30 3622 C 340.926 2.11669 -0.879144 0
M  V30 3623 C 341.926 1.60294 0.127445 0
M  V30 3624 O 343.116 1.7389 -0.103865 0
M  V30 3625 C 340.248 3.39438 -0.315425 0
M  V30 3626 H 341.441 2.38626 -1.81653 0
M  V30 3627 H 338.994 1.22058 -0.976299 0
M  V30 3628 H 339.729 3.18132 0.629468 0
M  V30 3629 H 339.514 3.78034 -1.04079 0
M  V30 3630 H 341.004 4.17391 -0.132189 0
M  V30 3631 N 341.441 0.965919 1.2453 0
M  V30 3632 C 342.404 0.499547 2.2369 0
M  V30 3633 C 343.404 -0.40294 1.5567 0
M  V30 3634 O 344.594 -0.19865 1.73064 0
M  V30 3635 C 341.726 -0.276792 3.39774 0
M  V30 3636 H 342.919 1.37613 2.66463 0
M  V30 3637 H 340.472 0.750324 1.37112 0
M  V30 3638 H 341.207 -1.17055 3.02438 0
M  V30 3639 H 340.992 0.370826 3.90343 0
M  V30 3640 H 342.482 -0.592175 4.1338 0
M  V30 3641 N 342.919 -1.39368 0.735821 0
M  V30 3642 C 343.849 -2.33234 0.111506 0
M  V30 3643 C 344.83 -1.53954 -0.723334 0
M  V30 3644 O 346.015 -1.82344 -0.668147 0
M  V30 3645 C 343.145 -3.38057 -0.795917 0
M  V30 3646 C 342.099 -4.2795 -0.065172 0
M  V30 3647 C 341.425 -5.23479 -1.08967 0
M  V30 3648 C 342.725 -5.10741 1.09273 0
M  V30 3649 H 344.419 -2.85692 0.895571 0
M  V30 3650 H 341.965 -1.37364 0.432109 0
M  V30 3651 H 343.918 -4.02675 -1.24221 0
M  V30 3652 H 342.642 -2.8404 -1.61211 0
M  V30 3653 H 341.301 -3.64813 0.361511 0
M  V30 3654 H 340.949 -4.65758 -1.89944 0
M  V30 3655 H 340.649 -5.84472 -0.605489 0
M  V30 3656 H 342.173 -5.90974 -1.53565 0
M  V30 3657 H 343.587 -5.68699 0.724841 0
M  V30 3658 H 341.984 -5.8088 1.50659 0
M  V30 3659 H 343.054 -4.45525 1.91404 0
M  V30 3660 N 344.397 -0.483516 -1.5 0
M  V30 3661 C 345.327 0.293829 -2.31644 0
M  V30 3662 C 346.308 0.978864 -1.39112 0
M  V30 3663 O 347.493 0.973644 -1.68029 0
M  V30 3664 C 344.623 1.36897 -3.19181 0
M  V30 3665 C 343.577 0.804833 -4.20365 0
M  V30 3666 C 342.903 1.9792 -4.96721 0
M  V30 3667 C 344.203 -0.192313 -5.21946 0
M  V30 3668 H 345.897 -0.387616 -2.9688 0
M  V30 3669 H 343.443 -0.187856 -1.42769 0
M  V30 3670 H 345.396 1.92037 -3.751 0
M  V30 3671 H 344.12 2.07936 -2.51853 0
M  V30 3672 H 342.779 0.275319 -3.65565 0
M  V30 3673 H 342.427 2.67686 -4.25856 0
M  V30 3674 H 342.127 1.60789 -5.65173 0
M  V30 3675 H 343.651 2.53526 -5.55479 0
M  V30 3676 H 345.065 0.270333 -5.72662 0
M  V30 3677 H 343.462 -0.478543 -5.98189 0
M  V30 3678 H 344.532 -1.11409 -4.71928 0
M  V30 3679 N 345.875 1.56104 -0.216619 0
M  V30 3680 C 347.124 1.97348 0.416744 0
M  V30 3681 C 347.437 1.10715 1.6125 0
M  V30 3682 O 348.643 1.41836 2.31506 0
M  V30 3683 C 347.099 3.51059 0.792835 0
M  V30 3684 C 346.707 4.46387 -0.379828 0
M  V30 3685 C 348.451 4.01026 1.39208 0
M  V30 3686 C 346.358 5.91397 0.0184223 0
M  V30 3687 H 345.288 0.736942 0.159475 0
M  V30 3688 H 347.939 1.80827 -0.31205 0
M  V30 3689 H 346.321 3.63162 1.57891 0
M  V30 3690 H 347.495 4.46029 -1.15737 0
M  V30 3691 H 345.81 4.06734 -0.891979 0
M  V30 3692 H 348.407 5.0686 1.70286 0
M  V30 3693 H 348.75 3.46587 2.30614 0
M  V30 3694 H 349.283 3.92125 0.669537 0
M  V30 3695 H 346.022 6.49807 -0.862002 0
M  V30 3696 H 345.542 5.94961 0.760384 0
M  V30 3697 H 347.221 6.45455 0.446818 0
M  V30 3698 N 347.353 -0.0568162 1.57498 0
M  V30 3699 C 348.316 -1.05038 2.03715 0
M  V30 3700 C 349.316 -1.30709 0.936577 0
M  V30 3701 O 350.506 -1.26178 1.20103 0
M  V30 3702 C 347.638 -2.39034 2.43055 0
M  V30 3703 H 348.831 -0.651715 2.92733 0
M  V30 3704 H 346.384 -0.302947 1.53336 0
M  V30 3705 H 347.119 -2.83703 1.57108 0
M  V30 3706 H 346.904 -2.21739 3.2338 0
M  V30 3707 H 348.394 -3.10421 2.79336 0
M  V30 3708 N 348.832 -1.54138 -0.328536 0
M  V30 3709 C 349.795 -1.82462 -1.38709 0
M  V30 3710 C 350.795 -0.696229 -1.44946 0
M  V30 3711 O 351.985 -0.964535 -1.4506 0
M  V30 3712 C 349.117 -1.98018 -2.77492 0
M  V30 3713 H 350.31 -2.77037 -1.14851 0
M  V30 3714 H 347.863 -1.45779 -0.563751 0
M  V30 3715 H 348.598 -1.05637 -3.06613 0
M  V30 3716 H 348.383 -2.80124 -2.74359 0
M  V30 3717 H 349.873 -2.21396 -3.54081 0
M  V30 3718 N 350.31 0.590341 -1.46126 0
M  V30 3719 C 351.558 1.34616 -1.50742 0
M  V30 3720 C 351.879 1.94363 -0.157486 0
M  V30 3721 O 351.149 1.78136 0.815136 0
M  V30 3722 H 349.729 0.499789 -0.555175 0
M  V30 3723 H 352.391 0.691953 -1.82203 0
M  V30 3724 H 351.487 2.15678 -2.25587 0
M  V30 3725 N 351.788 1.33704 0.83433 0
M  V30 3726 C 352.751 1.24244 1.92603 0
M  V30 3727 C 353.751 0.160383 1.59998 0
M  V30 3728 O 354.941 0.412228 1.69252 0
M  V30 3729 C 352.073 0.91555 3.28376 0
M  V30 3730 H 353.266 2.21287 2.02416 0
M  V30 3731 H 350.819 1.17827 1.02696 0
M  V30 3732 H 351.554 -0.0521886 3.24258 0
M  V30 3733 H 351.339 1.69811 3.53422 0
M  V30 3734 H 352.829 0.874231 4.08347 0
M  V30 3735 N 353.266 -1.05314 1.17247 0
M  V30 3736 C 354.543 -1.75184 0.87005 0
M  V30 3737 C 354.923 -2.01481 -0.629965 0
M  V30 3738 O 354.271 -1.64988 -1.58086 0
M  V30 3739 C 354.481 -3.04594 1.70363 0
M  V30 3740 C 355.829 -3.78567 1.92281 0
M  V30 3741 O 356.853 -3.14461 1.67311 0
M  V30 3742 O 355.712 -4.93755 2.3424 0
M  V30 3743 H 352.806 -0.761729 0.322021 0
M  V30 3744 H 355.352 -1.11493 1.27935 0
M  V30 3745 H 354.124 -2.81201 2.72106 0
M  V30 3746 H 353.747 -3.76022 1.29202 0
M  V30 3747 N 354.744 -0.972509 -1.24016 0
M  V30 3748 C 355.99 -0.637978 -1.92504 0
M  V30 3749 C 356.323 0.825383 -1.75787 0
M  V30 3750 O 355.598 1.59442 -1.11393 0
M  V30 3751 C 355.881 -1.01942 -3.45369 0
M  V30 3752 C 355.734 -2.53983 -3.71231 0
M  V30 3753 C 357.053 -0.55751 -4.36555 0
M  V30 3754 H 354.172 -0.233248 -0.699117 0
M  V30 3755 H 356.814 -1.21238 -1.46292 0
M  V30 3756 H 354.964 -0.530656 -3.84859 0
M  V30 3757 H 356.636 -3.10374 -3.41271 0
M  V30 3758 H 354.879 -2.96968 -3.16216 0
M  V30 3759 H 355.55 -2.75723 -4.78206 0
M  V30 3760 H 358.026 -0.977029 -4.04467 0
M  V30 3761 H 356.902 -0.85292 -5.42233 0
M  V30 3762 H 357.163 0.542328 -4.38761 0
M  V30 3763 N 356.222 1.38976 -0.743202 0
M  V30 3764 C 357.17 2.32394 -0.0978389 0
M  V30 3765 C 358.164 1.53486 0.716824 0
M  V30 3766 O 359.37 1.69092 0.617088 0
M  V30 3767 H 355.745 0.75189 -0.0128402 0
M  V30 3768 H 357.716 2.84441 -0.901981 0
M  V30 3769 C 356.465 3.38629 0.789036 0
M  V30 3770 H 355.788 3.99432 0.171559 0
M  V30 3771 H 357.228 4.06426 1.20807 0
M  V30 3772 C 355.687 2.76347 1.92702 0
M  V30 3773 O 356.217 2.64836 3.02034 0
M  V30 3774 N 354.423 2.34311 1.71891 0
M  V30 3775 H 353.97 2.43873 0.829675 0
M  V30 3776 H 353.928 1.9298 2.48205 0
M  V30 3777 N 357.7 0.491464 1.49741 0
M  V30 3778 C 358.663 -0.280906 2.27472 0
M  V30 3779 C 359.663 -0.902454 1.33088 0
M  V30 3780 O 360.853 -0.768465 1.56334 0
M  V30 3781 C 357.985 -1.40209 3.10732 0
M  V30 3782 H 359.178 0.401056 2.97206 0
M  V30 3783 H 356.731 0.246131 1.5435 0
M  V30 3784 H 357.466 -2.11849 2.45541 0
M  V30 3785 H 357.251 -0.961969 3.80117 0
M  V30 3786 H 358.741 -1.9464 3.69466 0
M  V30 3787 N 359.178 -1.55987 0.224894 0
M  V30 3788 C 360.128 -2.17076 -0.697296 0
M  V30 3789 C 361.112 -1.12006 -1.15514 0
M  V30 3790 O 362.304 -1.37985 -1.10857 0
M  V30 3791 C 359.433 -2.85679 -1.90374 0
M  V30 3792 C 358.519 -3.97977 -1.46543 0
M  V30 3793 N 358.91 -5.00359 -0.739909 0
M  V30 3794 C 357.208 -4.10128 -1.75245 0
M  V30 3795 C 357.909 -5.79407 -0.515939 0
M  V30 3796 N 356.885 -5.32892 -1.07364 0
M  V30 3797 H 360.687 -2.93592 -0.134594 0
M  V30 3798 H 358.201 -1.62379 0.0262885 0
M  V30 3799 H 360.198 -3.27857 -2.57518 0
M  V30 3800 H 358.858 -2.1066 -2.47088 0
M  V30 3801 H 359.869 -5.16412 -0.392253 0
M  V30 3802 H 356.546 -3.46263 -2.33255 0
M  V30 3803 H 357.936 -6.71872 0.0617349 0
M  V30 3804 N 360.656 0.0484629 -1.57525 0
M  V30 3805 C 361.619 1.03956 -2.04269 0
M  V30 3806 C 362.619 1.30211 -0.943496 0
M  V30 3807 O 363.809 1.25539 -1.20771 0
M  V30 3808 C 360.941 2.37742 -2.44319 0
M  V30 3809 H 362.134 0.636182 -2.93075 0
M  V30 3810 H 359.687 0.294811 -1.53494 0
M  V30 3811 H 360.422 2.82866 -1.5861 0
M  V30 3812 H 360.207 2.20021 -3.24551 0
M  V30 3813 H 361.697 3.08936 -2.80978 0
M  V30 3814 N 362.134 1.5431 0.320358 0
M  V30 3815 C 363.081 1.83918 1.39438 0
M  V30 3816 C 364.051 0.686525 1.51248 0
M  V30 3817 O 365.236 0.933269 1.66417 0
M  V30 3818 C 362.376 2.075 2.75749 0
M  V30 3819 C 361.489 3.35177 2.72544 0
M  V30 3820 C 360.624 3.48704 4.00723 0
M  V30 3821 C 359.663 4.70244 3.91838 0
M  V30 3822 N 358.8 4.80679 5.11754 0
M  V30 3823 H 363.64 2.75544 1.13489 0
M  V30 3824 H 361.177 1.36459 0.549309 0
M  V30 3825 H 363.135 2.19166 3.54996 0
M  V30 3826 H 361.765 1.19163 3 0
M  V30 3827 H 360.817 3.32233 1.85271 0
M  V30 3828 H 362.129 4.24534 2.61863 0
M  V30 3829 H 361.283 3.59928 4.88402 0
M  V30 3830 H 360.022 2.57445 4.14214 0
M  V30 3831 H 359.027 4.59072 3.02544 0
M  V30 3832 H 360.252 5.6289 3.7991 0
M  V30 3833 H 358.198 3.92337 5.25745 0
M  V30 3834 H 358.115 5.64007 5.0342 0
M  V30 3835 H 359.383 4.96239 6.01138 0
M  V30 3836 N 363.613 -0.582584 1.46437 0
M  V30 3837 C 364.861 -1.33814 1.51453 0
M  V30 3838 C 365.182 -1.94277 0.167792 0
M  V30 3839 O 364.452 -1.78566 -0.805677 0
M  V30 3840 H 363.032 -0.496838 0.557818 0
M  V30 3841 H 365.694 -0.682281 1.82568 0
M  V30 3842 H 364.79 -2.14479 2.26728 0
M  V30 3843 N 365.091 -1.34144 -0.827227 0
M  V30 3844 C 366.054 -1.25264 -1.91942 0
M  V30 3845 C 367.054 -0.168866 -1.59911 0
M  V30 3846 O 368.244 -0.421198 -1.69031 0
M  V30 3847 C 365.376 -0.932952 -3.27885 0
M  V30 3848 H 366.569 -2.22357 -2.0124 0
M  V30 3849 H 364.122 -1.1837 -1.0207 0
M  V30 3850 H 364.857 0.0349917 -3.24281 0
M  V30 3851 H 364.642 -1.71682 -3.52516 0
M  V30 3852 H 366.132 -0.895874 -4.07877 0
M  V30 3853 N 366.569 1.04691 -1.17803 0
M  V30 3854 C 367.816 1.77782 -0.969532 0
M  V30 3855 C 368.144 1.87926 0.501401 0
M  V30 3856 O 367.399 1.37918 1.38842 0
M  V30 3857 C 367.698 3.21467 -1.56186 0
M  V30 3858 C 367.364 3.3137 -3.05786 0
M  V30 3859 C 366.026 3.3378 -3.46619 0
M  V30 3860 C 368.378 3.31976 -4.01797 0
M  V30 3861 C 365.706 3.34431 -4.82051 0
M  V30 3862 C 368.058 3.34167 -5.37136 0
M  V30 3863 C 366.722 3.34866 -5.77426 0
M  V30 3864 H 365.992 0.650549 -0.354777 0
M  V30 3865 H 368.639 1.23006 -1.46772 0
M  V30 3866 H 366.944 3.79203 -0.985515 0
M  V30 3867 H 368.641 3.76652 -1.37602 0
M  V30 3868 H 365.231 3.3021 -2.73238 0
M  V30 3869 H 369.415 3.29311 -3.71306 0
M  V30 3870 H 364.671 3.33285 -5.12573 0
M  V30 3871 H 368.845 3.33585 -6.11305 0
M  V30 3872 H 366.472 3.35124 -6.82346 0
M  V30 3873 N 368.047 0.979072 1.23499 0
M  V30 3874 C 369.294 0.647219 1.91878 0
M  V30 3875 C 369.622 -0.819074 1.76413 0
M  V30 3876 O 368.877 -1.60616 1.11808 0
M  V30 3877 C 369.176 0.981932 3.43646 0
M  V30 3878 C 368.842 2.43822 3.79291 0
M  V30 3879 C 367.504 2.83622 3.88731 0
M  V30 3880 C 369.856 3.3828 3.96505 0
M  V30 3881 C 367.184 4.16897 4.12812 0
M  V30 3882 C 369.536 4.71197 4.22085 0
M  V30 3883 C 368.2 5.10758 4.29747 0
M  V30 3884 H 367.47 0.236834 0.702133 0
M  V30 3885 H 370.117 1.23268 1.46551 0
M  V30 3886 H 368.422 0.314365 3.90537 0
M  V30 3887 H 370.119 0.703395 3.94783 0
M  V30 3888 H 366.709 2.11966 3.72516 0
M  V30 3889 H 370.893 3.0871 3.88603 0
M  V30 3890 H 366.149 4.47157 4.16966 0
M  V30 3891 H 370.323 5.44348 4.34348 0
M  V30 3892 H 367.95 6.1405 4.48159 0
M  V30 3893 N 369.525 -1.3858 0.750561 0
M  V30 3894 C 370.473 -2.32339 0.110162 0
M  V30 3895 C 371.467 -1.53864 -0.708674 0
M  V30 3896 O 372.673 -1.69417 -0.608112 0
M  V30 3897 H 369.048 -0.751812 0.0168275 0
M  V30 3898 H 371.019 -2.83959 0.917053 0
M  V30 3899 C 369.768 -3.39043 -0.771067 0
M  V30 3900 H 369.091 -3.99517 -0.150374 0
M  V30 3901 H 370.531 -4.07061 -1.1865 0
M  V30 3902 C 368.99 -2.77365 -1.91234 0
M  V30 3903 O 369.52 -2.66434 -3.00626 0
M  V30 3904 N 367.726 -2.35219 -1.70646 0
M  V30 3905 H 367.273 -2.4431 -0.81673 0
M  V30 3906 H 367.231 -1.94294 -2.47178 0
M  V30 3907 N 371.003 -0.499398 -1.49478 0
M  V30 3908 C 372.414 -0.051215 -1.8663 0
M  V30 3909 C 372.765 1.36238 -1.41186 0
M  V30 3910 O 371.89 2.01502 -0.789051 0
M  V30 3911 C 372.485 -0.0861651 -3.3869 0
M  V30 3912 C 371.044 0.30667 -3.75149 0
M  V30 3913 C 370.191 -0.459397 -2.73468 0
M  V30 3914 H 373.142 -0.712264 -1.41818 0
M  V30 3915 H 373.163 0.709507 -3.73826 0
M  V30 3916 H 372.675 -1.11512 -3.71735 0
M  V30 3917 H 370.776 1.33892 -3.47712 0
M  V30 3918 H 370.889 -0.0116669 -4.79099 0
M  V30 3919 H 369.253 0.0905645 -2.54539 0
M  V30 3920 H 370.036 -1.4884 -3.09357 0
M  V30 3921 N 372.481 1.55866 -0.233164 0
M  V30 3922 C 373.428 2.20796 0.67215 0
M  V30 3923 C 374.398 1.16731 1.18166 0
M  V30 3924 O 375.583 1.45129 1.23864 0
M  V30 3925 C 372.723 2.90072 1.86955 0
M  V30 3926 C 371.836 4.08759 1.39786 0
M  V30 3927 C 370.971 4.65787 2.55374 0
M  V30 3928 C 370.01 5.76752 2.04998 0
M  V30 3929 N 369.147 6.28021 3.13901 0
M  V30 3930 H 373.987 2.9779 0.111749 0
M  V30 3931 H 371.524 1.47036 0.0434007 0
M  V30 3932 H 373.482 3.28428 2.57276 0
M  V30 3933 H 372.112 2.15575 2.40265 0
M  V30 3934 H 371.164 3.7581 0.589173 0
M  V30 3935 H 372.476 4.88906 0.98856 0
M  V30 3936 H 371.63 5.06646 3.33758 0
M  V30 3937 H 370.369 3.84828 2.99598 0
M  V30 3938 H 369.374 5.35383 1.25079 0
M  V30 3939 H 370.599 6.59553 1.61759 0
M  V30 3940 H 368.545 5.49971 3.57586 0
M  V30 3941 H 368.462 7.03323 2.7726 0
M  V30 3942 H 369.73 6.73538 3.92386 0
M  V30 3943 N 373.959 -0.0401083 1.57549 0
M  V30 3944 C 375.189 -0.744115 1.92734 0
M  V30 3945 C 375.597 -1.70005 0.830348 0
M  V30 3946 O 374.94 -1.82576 -0.20286 0
M  V30 3947 C 375.002 -1.56516 3.2364 0
M  V30 3948 C 374.666 -0.7752 4.50377 0
M  V30 3949 C 375.663 -0.0803326 5.19838 0
M  V30 3950 C 373.348 -0.733002 4.96923 0
M  V30 3951 C 375.342 0.646154 6.34116 0
M  V30 3952 C 373.029 -0.00276321 6.111 0
M  V30 3953 C 374.027 0.685585 6.7955 0
M  V30 3954 O 373.715 1.40399 7.91545 0
M  V30 3955 H 373.447 -0.214861 0.640945 0
M  V30 3956 H 376.001 -0.00503675 2.05399 0
M  V30 3957 H 374.231 -2.3478 3.07271 0
M  V30 3958 H 375.92 -2.15076 3.44234 0
M  V30 3959 H 376.686 -0.104035 4.84888 0
M  V30 3960 H 372.565 -1.25827 4.43496 0
M  V30 3961 H 376.109 1.18398 6.87479 0
M  V30 3962 H 372.006 0.0229012 6.45496 0
M  V30 3963 H 372.774 1.31653 8.07843 0
M  V30 3964 N 375.437 -1.54477 -0.31217 0
M  V30 3965 C 376.369 -1.81011 -1.40598 0
M  V30 3966 C 377.382 -0.692546 -1.47335 0
M  V30 3967 O 378.571 -0.969847 -1.49854 0
M  V30 3968 C 375.671 -1.92307 -2.79054 0
M  V30 3969 C 374.844 -3.22594 -2.95384 0
M  V30 3970 C 373.903 -3.24448 -4.1427 0
M  V30 3971 O 372.929 -3.98035 -4.06887 0
M  V30 3972 N 374.131 -2.49042 -5.24365 0
M  V30 3973 H 376.896 -2.75408 -1.18196 0
M  V30 3974 H 374.457 -1.53914 -0.502202 0
M  V30 3975 H 376.449 -1.90962 -3.56813 0
M  V30 3976 H 375.019 -1.04955 -2.94454 0
M  V30 3977 H 374.239 -3.36806 -2.04831 0
M  V30 3978 H 375.527 -4.08593 -3.03198 0
M  V30 3979 H 374.925 -1.88867 -5.33241 0
M  V30 3980 H 373.482 -2.53463 -6.005 0
M  V30 3981 N 376.915 0.57481 -1.46744 0
M  V30 3982 C 377.865 1.67838 -1.54319 0
M  V30 3983 C 378.849 1.55759 -0.40346 0
M  V30 3984 O 380.041 1.6454 -0.652347 0
M  V30 3985 C 377.17 3.06624 -1.5439 0
M  V30 3986 C 376.256 3.23971 -2.73685 0
M  V30 3987 N 376.647 3.11447 -3.9854 0
M  V30 3988 C 374.945 3.5493 -2.70075 0
M  V30 3989 C 375.646 3.31011 -4.78337 0
M  V30 3990 N 374.622 3.56533 -4.10348 0
M  V30 3991 H 378.424 1.56698 -2.48642 0
M  V30 3992 H 375.938 0.779071 -1.42493 0
M  V30 3993 H 377.935 3.85839 -1.57905 0
M  V30 3994 H 376.595 3.1889 -0.611493 0
M  V30 3995 H 377.606 2.89145 -4.29669 0
M  V30 3996 H 374.283 3.73832 -1.85893 0
M  V30 3997 H 375.673 3.26445 -5.87268 0
M  V30 3998 N 378.394 1.34581 0.820102 0
M  V30 3999 C 379.304 1.28471 1.96297 0
M  V30 4000 C 380.32 0.191902 1.72939 0
M  V30 4001 O 381.496 0.418879 1.96996 0
M  V30 4002 C 378.561 1.04281 3.30645 0
M  V30 4003 C 377.622 2.22745 3.66992 0
M  V30 4004 C 376.855 1.997 4.9493 0
M  V30 4005 O 377.078 0.956656 5.6232 0
M  V30 4006 O 376.012 2.86723 5.2922 0
M  V30 4007 H 379.838 2.24624 2.04396 0
M  V30 4008 H 377.423 1.14816 0.955913 0
M  V30 4009 H 379.305 0.925841 4.11104 0
M  V30 4010 H 377.98 0.111697 3.23507 0
M  V30 4011 H 376.887 2.40003 2.86966 0
M  V30 4012 H 378.22 3.14257 3.78819 0
M  V30 4013 N 379.872 -1.04064 1.18357 0
M  V30 4014 C 381.12 -1.76915 0.977013 0
M  V30 4015 C 381.441 -1.88624 -0.494577 0
M  V30 4016 O 380.711 -1.41125 -1.3587 0
M  V30 4017 H 379.291 -0.65535 0.358504 0
M  V30 4018 H 381.953 -1.25592 1.49039 0
M  V30 4019 H 381.049 -2.78178 1.41504 0
M  V30 4020 N 381.35 -0.985608 -1.22978 0
M  V30 4021 C 382.597 -0.657386 -1.91532 0
M  V30 4022 C 382.925 0.809707 -1.76845 0
M  V30 4023 O 382.18 1.60021 -1.12658 0
M  V30 4024 C 382.479 -1.00014 -3.43121 0
M  V30 4025 C 382.145 -2.4583 -3.77993 0
M  V30 4026 C 380.807 -2.85679 -3.87222 0
M  V30 4027 C 383.159 -3.40378 -3.94705 0
M  V30 4028 C 380.487 -4.19081 -4.10595 0
M  V30 4029 C 382.839 -4.73429 -4.1958 0
M  V30 4030 C 381.503 -5.1303 -4.27032 0
M  V30 4031 H 380.773 -0.240555 -0.700867 0
M  V30 4032 H 383.42 -1.24044 -1.45895 0
M  V30 4033 H 381.725 -0.335072 -3.90365 0
M  V30 4034 H 383.422 -0.724322 -3.94404 0
M  V30 4035 H 380.012 -2.13939 -3.71387 0
M  V30 4036 H 384.196 -3.10766 -3.8696 0
M  V30 4037 H 379.452 -4.49362 -4.14589 0
M  V30 4038 H 383.626 -5.46644 -4.31455 0
M  V30 4039 H 381.253 -6.16418 -4.44896 0
M  V30 4040 N 382.828 1.3818 -0.7579 0
M  V30 4041 C 384.058 2.04004 -0.326463 0
M  V30 4042 C 384.466 1.57286 1.05156 0
M  V30 4043 O 383.809 0.743144 1.67997 0
M  V30 4044 C 383.871 3.58444 -0.275402 0
M  V30 4045 C 383.535 4.28237 -1.59569 0
M  V30 4046 C 384.532 4.53312 -2.54566 0
M  V30 4047 C 382.217 4.66341 -1.86631 0
M  V30 4048 C 384.211 5.15531 -3.74842 0
M  V30 4049 C 381.898 5.28283 -3.0718 0
M  V30 4050 C 382.896 5.52814 -4.01106 0
M  V30 4051 O 382.584 6.13465 -5.19534 0
M  V30 4052 H 382.316 0.662026 -0.136739 0
M  V30 4053 H 384.87 1.7777 -1.02893 0
M  V30 4054 H 383.1 3.83667 0.483337 0
M  V30 4055 H 384.789 4.05701 0.127099 0
M  V30 4056 H 385.555 4.24299 -2.34936 0
M  V30 4057 H 381.434 4.46591 -1.14358 0
M  V30 4058 H 384.978 5.34594 -4.48168 0
M  V30 4059 H 380.875 5.56719 -3.26702 0
M  V30 4060 H 381.643 6.31951 -5.20173 0
M  V30 4061 N 384.306 0.507319 1.49211 0
M  V30 4062 C 385.553 -0.0349529 2.0247 0
M  V30 4063 C 385.881 -1.36409 1.38647 0
M  V30 4064 O 385.136 -1.88841 0.513566 0
M  V30 4065 C 385.435 -0.229513 3.56662 0
M  V30 4066 C 385.101 1.02241 4.39156 0
M  V30 4067 C 383.763 1.36557 4.61417 0
M  V30 4068 C 386.115 1.85428 4.871 0
M  V30 4069 C 383.443 2.53999 5.28868 0
M  V30 4070 C 385.795 3.02028 5.55843 0
M  V30 4071 C 384.459 3.36717 5.76349 0
M  V30 4072 H 383.729 -0.0127902 0.74089 0
M  V30 4073 H 386.376 0.668756 1.79443 0
M  V30 4074 H 384.681 -1.0158 3.78403 0
M  V30 4075 H 386.378 -0.663641 3.9547 0
M  V30 4076 H 382.968 0.745124 4.22073 0
M  V30 4077 H 387.152 1.6023 4.69723 0
M  V30 4078 H 382.408 2.81105 5.42946 0
M  V30 4079 H 386.582 3.66808 5.91967 0
M  V30 4080 H 384.209 4.27821 6.28389 0
M  V30 4081 N 385.784 -1.5574 0.241426 0
M  V30 4082 C 387.032 -1.98417 -0.384075 0
M  V30 4083 C 387.353 -1.13078 -1.58866 0
M  V30 4084 O 386.623 -0.212312 -1.94746 0
M  V30 4085 H 385.203 -0.732813 -0.144894 0
M  V30 4086 H 387.865 -1.9193 0.338943 0
M  V30 4087 H 386.961 -3.04219 -0.696939 0
M  V30 4088 N 387.262 0.0317525 -1.57568 0
M  V30 4089 C 388.172 1.05021 -2.0978 0
M  V30 4090 C 389.188 1.39809 -1.03583 0
M  V30 4091 O 390.364 1.49182 -1.35302 0
M  V30 4092 C 387.429 2.33301 -2.56459 0
M  V30 4093 C 386.49 2.0512 -3.77127 0
M  V30 4094 C 385.723 3.27283 -4.2157 0
M  V30 4095 O 385.946 4.37861 -3.65559 0
M  V30 4096 O 384.88 3.13141 -5.14029 0
M  V30 4097 H 388.706 0.636505 -2.96955 0
M  V30 4098 H 386.291 0.248559 -1.47318 0
M  V30 4099 H 388.173 3.08722 -2.86825 0
M  V30 4100 H 386.848 2.73973 -1.72397 0
M  V30 4101 H 385.755 1.27276 -3.51784 0
M  V30 4102 H 387.088 1.69305 -4.62165 0
M  V30 4103 N 388.74 1.54641 0.303973 0
M  V30 4104 C 389.968 1.77768 1.05858 0
M  V30 4105 C 390.383 0.535722 1.8104 0
M  V30 4106 O 389.74 -0.494337 1.75677 0
M  V30 4107 C 389.791 2.9834 2.04146 0
M  V30 4108 O 389.512 4.17736 1.32015 0
M  V30 4109 C 391.013 3.33832 2.91669 0
M  V30 4110 H 388.233 0.592961 0.314067 0
M  V30 4111 H 390.777 2.01583 0.344149 0
M  V30 4112 H 388.932 2.76742 2.71096 0
M  V30 4113 H 389.346 4.85693 1.97998 0
M  V30 4114 H 390.82 4.21448 3.56491 0
M  V30 4115 H 391.297 2.51857 3.59812 0
M  V30 4116 H 391.903 3.57579 2.30254 0
M  V30 4117 N 390.218 -0.567019 1.47046 0
M  V30 4118 C 391.629 -1.14916 1.47143 0
M  V30 4119 C 391.98 -1.94954 0.220767 0
M  V30 4120 O 391.105 -2.05602 -0.67505 0
M  V30 4121 C 391.7 -2.09069 2.666 0
M  V30 4122 C 390.259 -2.62575 2.69687 0
M  V30 4123 C 389.406 -1.38755 2.40088 0
M  V30 4124 H 392.357 -0.354126 1.54699 0
M  V30 4125 H 392.378 -2.92789 2.43011 0
M  V30 4126 H 391.89 -1.50789 3.57609 0
M  V30 4127 H 389.991 -3.24681 1.82792 0
M  V30 4128 H 390.104 -3.04239 3.70102 0
M  V30 4129 H 388.468 -1.69098 1.90468 0
M  V30 4130 H 389.251 -0.822822 3.33293 0
M  V30 4131 N 391.696 -1.35014 -0.812953 0
M  V30 4132 C 392.626 -1.30069 -1.93919 0
M  V30 4133 C 393.607 -0.176275 -1.69184 0
M  V30 4134 O 394.792 -0.370227 -1.90638 0
M  V30 4135 C 391.922 -1.06547 -3.30552 0
M  V30 4136 C 390.876 -2.15561 -3.69753 0
M  V30 4137 C 390.202 -1.77214 -5.04479 0
M  V30 4138 C 391.502 -3.57476 -3.808 0
M  V30 4139 H 393.196 -2.24303 -1.98314 0
M  V30 4140 H 390.742 -1.07977 -0.952736 0
M  V30 4141 H 392.695 -1.01729 -4.08937 0
M  V30 4142 H 391.419 -0.0875719 -3.26483 0
M  V30 4143 H 390.078 -2.19466 -2.9365 0
M  V30 4144 H 389.726 -0.780589 -4.96906 0
M  V30 4145 H 389.426 -2.50184 -5.31678 0
M  V30 4146 H 390.95 -1.7391 -5.8531 0
M  V30 4147 H 392.364 -3.55929 -4.4943 0
M  V30 4148 H 390.761 -4.29152 -4.19462 0
M  V30 4149 H 391.831 -3.94091 -2.82525 0
M  V30 4150 N 393.175 1.03435 -1.18907 0
M  V30 4151 C 394.138 2.09756 -0.923844 0
M  V30 4152 C 395.138 1.60528 0.093416 0
M  V30 4153 O 396.328 1.73631 -0.140727 0
M  V30 4154 C 393.46 3.38692 -0.387354 0
M  V30 4155 H 394.653 2.34719 -1.86674 0
M  V30 4156 H 392.206 1.19959 -1.00197 0
M  V30 4157 H 392.941 3.19396 0.561845 0
M  V30 4158 H 392.726 3.75742 -1.12074 0
M  V30 4159 H 394.216 4.17016 -0.220694 0
M  V30 4160 N 394.653 0.992116 1.22453 0
M  V30 4161 C 395.583 0.561677 2.26644 0
M  V30 4162 C 396.564 -0.411055 1.65059 0
M  V30 4163 O 397.749 -0.301861 1.9184 0
M  V30 4164 C 394.879 -0.125247 3.47074 0
M  V30 4165 C 393.833 0.765948 4.21091 0
M  V30 4166 C 393.159 -0.0538484 5.34673 0
M  V30 4167 C 394.459 2.06242 4.79856 0
M  V30 4168 H 396.153 1.43259 2.62902 0
M  V30 4169 H 393.699 0.690283 1.26377 0
M  V30 4170 H 395.652 -0.437764 4.1912 0
M  V30 4171 H 394.376 -1.03069 3.0991 0
M  V30 4172 H 393.035 1.0621 3.50878 0
M  V30 4173 H 392.683 -0.960188 4.9375 0
M  V30 4174 H 392.383 0.539415 5.85119 0
M  V30 4175 H 393.907 -0.360477 6.09535 0
M  V30 4176 H 395.321 1.8139 5.43848 0
M  V30 4177 H 393.718 2.60444 5.40638 0
M  V30 4178 H 394.788 2.74167 3.99951 0
M  V30 4179 N 396.131 -1.37776 0.765217 0
M  V30 4180 C 397.094 -2.28686 0.153416 0
M  V30 4181 C 398.094 -1.47727 -0.635081 0
M  V30 4182 O 399.284 -1.68027 -0.459632 0
M  V30 4183 C 396.416 -3.31608 -0.790495 0
M  V30 4184 H 397.609 -2.84297 0.954723 0
M  V30 4185 H 395.162 -1.46932 0.53299 0
M  V30 4186 H 395.897 -2.81109 -1.61705 0
M  V30 4187 H 395.682 -3.9144 -0.227348 0
M  V30 4188 H 397.172 -3.99559 -1.21419 0
M  V30 4189 N 397.609 -0.515225 -1.4894 0
M  V30 4190 C 398.572 0.244681 -2.2789 0
M  V30 4191 C 399.572 0.881166 -1.34507 0
M  V30 4192 O 400.762 0.743497 -1.57537 0
M  V30 4193 C 397.894 1.35247 -3.12923 0
M  V30 4194 H 399.087 -0.448289 -2.96531 0
M  V30 4195 H 396.64 -0.270656 -1.53939 0
M  V30 4196 H 397.375 2.07916 -2.48881 0
M  V30 4197 H 397.16 0.901374 -3.81599 0
M  V30 4198 H 398.65 1.88737 -3.72516 0
M  V30 4199 N 399.087 1.5561 -0.249682 0
M  V30 4200 C 400.327 2.00916 0.37579 0
M  V30 4201 C 400.691 1.13409 1.54927 0
M  V30 4202 O 401.892 1.48183 2.24266 0
M  V30 4203 C 400.163 3.48949 0.772633 0
M  V30 4204 S 401.722 4.16261 1.38824 0
M  V30 4205 H 398.54 0.70112 0.118117 0
M  V30 4206 H 401.142 1.92052 -0.365567 0
M  V30 4207 H 399.846 4.103 -0.090683 0
M  V30 4208 H 399.377 3.61745 1.5461 0
M  V30 4209 H 401.392 4.17778 2.67724 0
M  V30 4210 N 400.565 -0.0233959 1.57583 0
M  V30 4211 C 401.793 -0.724682 1.93794 0
M  V30 4212 C 402.208 -1.68588 0.849912 0
M  V30 4213 O 401.565 -1.81676 -0.173204 0
M  V30 4214 C 401.616 -1.47684 3.29957 0
M  V30 4215 O 401.337 -0.554222 4.3458 0
M  V30 4216 C 402.838 -2.27477 3.80485 0
M  V30 4217 H 400.058 -0.203317 0.639455 0
M  V30 4218 H 402.602 0.0207653 2.04489 0
M  V30 4219 H 400.757 -2.17412 3.20641 0
M  V30 4220 H 401.171 -1.08232 5.13212 0
M  V30 4221 H 402.645 -2.7564 4.78254 0
M  V30 4222 H 403.122 -3.09144 3.11972 0
M  V30 4223 H 403.728 -1.62813 3.92902 0
M  V30 4224 N 402.043 -1.548 -0.295768 0
M  V30 4225 C 402.991 -1.86874 -1.38495 0
M  V30 4226 C 403.985 -0.742938 -1.52239 0
M  V30 4227 O 405.191 -0.926999 -1.54294 0
M  V30 4228 H 401.566 -0.592786 -0.462719 0
M  V30 4229 H 403.537 -2.77904 -1.08682 0
M  V30 4230 C 402.286 -2.13732 -2.74252 0
M  V30 4231 H 401.609 -2.99835 -2.64459 0
M  V30 4232 H 403.049 -2.4011 -3.49461 0
M  V30 4233 C 401.508 -0.937539 -3.23592 0
M  V30 4234 O 402.038 -0.160665 -4.01379 0
M  V30 4235 N 400.244 -0.741478 -2.80981 0
M  V30 4236 H 399.791 -1.37489 -2.1784 0
M  V30 4237 H 399.749 0.0597103 -3.14343 0
M  V30 4238 N 403.521 0.559213 -1.47345 0
M  V30 4239 C 404.453 1.68161 -1.55738 0
M  V30 4240 C 405.466 1.56636 -0.443744 0
M  V30 4241 O 406.655 1.6363 -0.713258 0
M  V30 4242 C 403.755 3.06611 -1.4437 0
M  V30 4243 C 402.928 3.4391 -2.70268 0
M  V30 4244 C 401.987 4.61515 -2.52765 0
M  V30 4245 O 401.013 4.66197 -3.26572 0
M  V30 4246 N 402.215 5.57883 -1.6046 0
M  V30 4247 H 404.98 1.61408 -2.52522 0
M  V30 4248 H 402.541 0.7458 -1.43699 0
M  V30 4249 H 404.533 3.83117 -1.30398 0
M  V30 4250 H 403.103 3.07602 -0.556766 0
M  V30 4251 H 402.323 2.56873 -2.99015 0
M  V30 4252 H 403.611 3.65605 -3.53851 0
M  V30 4253 H 403.009 5.56855 -0.996422 0
M  V30 4254 H 401.566 6.33723 -1.52441 0
M  V30 4255 N 404.999 1.35443 0.805782 0
M  V30 4256 C 406.41 1.25768 1.37983 0
M  V30 4257 C 406.761 -0.10958 1.95894 0
M  V30 4258 O 405.886 -1.01056 1.91355 0
M  V30 4259 C 406.481 2.27727 2.5085 0
M  V30 4260 C 405.04 2.2179 3.04115 0
M  V30 4261 C 404.187 2.13393 1.77084 0
M  V30 4262 H 407.138 1.4656 0.608752 0
M  V30 4263 H 407.159 1.90422 3.29424 0
M  V30 4264 H 406.671 3.27227 2.08671 0
M  V30 4265 H 404.772 1.25703 3.50756 0
M  V30 4266 H 404.885 3.13788 3.62042 0
M  V30 4267 H 403.249 1.59384 1.98668 0
M  V30 4268 H 404.032 3.14755 1.37056 0
M  V30 4269 N 406.477 -1.02803 1.19454 0
M  V30 4270 C 407.387 -2.14575 0.948408 0
M  V30 4271 C 408.403 -1.73757 -0.091871 0
M  V30 4272 O 409.579 -2.01185 0.0929654 0
M  V30 4273 C 406.644 -3.43202 0.491265 0
M  V30 4274 C 405.705 -3.98328 1.60103 0
M  V30 4275 C 404.938 -5.20816 1.16561 0
M  V30 4276 O 405.161 -5.70392 0.0295238 0
M  V30 4277 O 404.095 -5.68801 1.96849 0
M  V30 4278 H 407.921 -2.38202 1.88397 0
M  V30 4279 H 405.506 -1.12989 0.977433 0
M  V30 4280 H 407.388 -4.20687 0.245015 0
M  V30 4281 H 406.063 -3.21018 -0.415851 0
M  V30 4282 H 404.97 -3.22174 1.90144 0
M  V30 4283 H 406.303 -4.24879 2.48473 0
M  V30 4284 N 407.956 -0.998596 -1.21925 0
M  V30 4285 C 409.205 -0.673085 -1.90138 0
M  V30 4286 C 409.518 0.79895 -1.78539 0
M  V30 4287 O 410.724 1.23628 -2.4172 0
M  V30 4288 C 409.18 -1.15339 -3.40918 0
M  V30 4289 C 408.788 -2.65106 -3.61141 0
M  V30 4290 C 410.532 -0.902476 -4.14796 0
M  V30 4291 C 408.439 -3.0671 -5.05651 0
M  V30 4292 H 407.369 -0.248057 -0.712028 0
M  V30 4293 H 410.02 -1.20891 -1.38049 0
M  V30 4294 H 408.402 -0.545658 -3.92223 0
M  V30 4295 H 409.576 -3.31274 -3.20304 0
M  V30 4296 H 407.891 -2.88142 -3.00605 0
M  V30 4297 H 410.488 -1.18895 -5.21314 0
M  V30 4298 H 410.831 0.161349 -4.15987 0
M  V30 4299 H 411.364 -1.47269 -3.69536 0
M  V30 4300 H 408.103 -4.12292 -5.09603 0
M  V30 4301 H 407.623 -2.45249 -5.47369 0
M  V30 4302 H 409.302 -2.9833 -5.74115 0
M  V30 4303 N 409.434 1.37368 -0.772513 0
M  V30 4304 C 410.68 1.99969 -0.337681 0
M  V30 4305 C 411.013 1.61184 1.08321 0
M  V30 4306 O 410.288 0.858395 1.74533 0
M  V30 4307 C 410.571 3.56858 -0.482121 0
M  V30 4308 C 410.424 4.0555 -1.94549 0
M  V30 4309 C 411.743 4.39955 0.113143 0
M  V30 4310 H 408.862 0.726464 -0.124171 0
M  V30 4311 H 411.504 1.63034 -0.975699 0
M  V30 4312 H 409.654 3.88452 0.0610361 0
M  V30 4313 H 411.326 3.84518 -2.54841 0
M  V30 4314 H 409.569 3.57715 -2.45403 0
M  V30 4315 H 410.24 5.14587 -1.9976 0
M  V30 4316 H 412.716 4.14623 -0.35031 0
M  V30 4317 H 411.592 5.48897 -0.0180514 0
M  V30 4318 H 411.853 4.25403 1.20354 0
M  V30 4319 N 410.912 0.523116 1.48665 0
M  V30 4320 C 411.844 -0.280421 2.27478 0
M  V30 4321 C 412.857 -0.910694 1.34945 0
M  V30 4322 O 414.046 -0.790295 1.60052 0
M  V30 4323 C 411.146 -1.41171 3.08097 0
M  V30 4324 C 410.319 -0.884642 4.28361 0
M  V30 4325 C 409.378 -1.89622 4.90846 0
M  V30 4326 O 408.404 -1.4559 5.50265 0
M  V30 4327 N 409.606 -3.22801 4.82472 0
M  V30 4328 H 412.371 0.395481 2.97079 0
M  V30 4329 H 409.932 0.357018 1.57915 0
M  V30 4330 H 411.924 -2.08645 3.4677 0
M  V30 4331 H 410.494 -1.99139 2.40961 0
M  V30 4332 H 409.714 -0.0341177 3.94185 0
M  V30 4333 H 411.002 -0.511268 5.06225 0
M  V30 4334 H 410.4 -3.61246 4.35336 0
M  V30 4335 H 408.957 -3.85927 5.25265 0
M  V30 4336 N 412.39 -1.55475 0.257931 0
M  V30 4337 C 413.32 -2.24815 -0.630912 0
M  V30 4338 C 414.301 -1.23224 -1.17259 0
M  V30 4339 O 415.486 -1.51904 -1.20991 0
M  V30 4340 C 412.616 -2.95609 -1.82298 0
M  V30 4341 C 411.57 -4.03982 -1.41359 0
M  V30 4342 C 410.896 -4.6226 -2.68738 0
M  V30 4343 C 412.196 -5.19109 -0.57648 0
M  V30 4344 H 413.89 -2.99354 -0.0526878 0
M  V30 4345 H 411.436 -1.4398 -0.023901 0
M  V30 4346 H 413.389 -3.42822 -2.45054 0
M  V30 4347 H 412.113 -2.18577 -2.42676 0
M  V30 4348 H 410.772 -3.57555 -0.809324 0
M  V30 4349 H 410.42 -3.81915 -3.27338 0
M  V30 4350 H 410.12 -5.35424 -2.42065 0
M  V30 4351 H 411.644 -5.12212 -3.32372 0
M  V30 4352 H 413.058 -5.62479 -1.10861 0
M  V30 4353 H 411.455 -5.98729 -0.405351 0
M  V30 4354 H 412.525 -4.83174 0.408776 0
M  V30 4355 N 413.868 0.0150385 -1.57593 0
M  V30 4356 C 414.798 1.01047 -2.10503 0
M  V30 4357 C 415.779 1.36816 -1.01071 0
M  V30 4358 O 416.964 1.45455 -1.28672 0
M  V30 4359 C 414.094 2.30708 -2.59598 0
M  V30 4360 C 413.048 2.09142 -3.73421 0
M  V30 4361 C 412.374 3.44685 -4.08774 0
M  V30 4362 C 413.674 1.46619 -5.01298 0
M  V30 4363 H 415.368 0.569978 -2.93925 0
M  V30 4364 H 412.914 0.272724 -1.41394 0
M  V30 4365 H 414.867 3.00687 -2.95238 0
M  V30 4366 H 413.591 2.76843 -1.73279 0
M  V30 4367 H 412.25 1.41592 -3.38153 0
M  V30 4368 H 411.898 3.88495 -3.195 0
M  V30 4369 H 411.598 3.31077 -4.8545 0
M  V30 4370 H 413.122 4.16004 -4.4696 0
M  V30 4371 H 414.536 2.06535 -5.34805 0
M  V30 4372 H 412.933 1.43544 -5.82679 0
M  V30 4373 H 414.003 0.433611 -4.82957 0
M  V30 4374 N 415.346 1.54954 0.287554 0
M  V30 4375 C 416.279 1.81737 1.3801 0
M  V30 4376 C 417.257 0.669412 1.48181 0
M  V30 4377 O 418.441 0.910839 1.65033 0
M  V30 4378 C 415.568 1.96606 2.75796 0
M  V30 4379 C 414.614 3.19098 2.82982 0
M  V30 4380 S 415.447 4.7683 2.43707 0
M  V30 4381 C 416.603 4.94653 3.83496 0
M  V30 4382 H 416.836 2.74122 1.15085 0
M  V30 4383 H 414.369 1.46538 0.486403 0
M  V30 4384 H 416.327 2.05858 3.55152 0
M  V30 4385 H 414.988 1.05136 2.95982 0
M  V30 4386 H 414.181 3.26344 3.84077 0
M  V30 4387 H 413.783 3.08361 2.11635 0
M  V30 4388 H 416.075 4.79502 4.78628 0
M  V30 4389 H 417.018 5.96728 3.8121 0
M  V30 4390 H 417.426 4.2272 3.74123 0
M  V30 4391 N 416.824 -0.551391 1.4764 0
M  V30 4392 C 417.734 -1.68525 1.63207 0
M  V30 4393 C 418.75 -1.6621 0.514815 0
M  V30 4394 O 419.926 -1.85551 0.783113 0
M  V30 4395 C 416.991 -3.05025 1.64805 0
M  V30 4396 C 416.052 -3.18362 2.88 0
M  V30 4397 C 415.285 -4.4835 2.89513 0
M  V30 4398 O 415.508 -5.34163 2.00065 0
M  V30 4399 O 414.442 -4.65602 3.81443 0
M  V30 4400 H 418.268 -1.58333 2.59161 0
M  V30 4401 H 415.853 -0.722063 1.30792 0
M  V30 4402 H 417.735 -3.86245 1.68502 0
M  V30 4403 H 416.41 -3.15587 0.720197 0
M  V30 4404 H 415.317 -2.36518 2.89845 0
M  V30 4405 H 416.65 -3.12707 3.80099 0
M  V30 4406 N 418.302 -1.35869 -0.798587 0
M  V30 4407 C 419.252 -1.25982 -1.90033 0
M  V30 4408 C 420.236 -0.153303 -1.60168 0
M  V30 4409 O 421.428 -0.38527 -1.72756 0
M  V30 4410 C 418.557 -1.04211 -3.27101 0
M  V30 4411 C 417.643 -2.19289 -3.63006 0
M  V30 4412 N 418.034 -3.44559 -3.70287 0
M  V30 4413 C 416.332 -2.10852 -3.93011 0
M  V30 4414 C 417.033 -4.20283 -4.02166 0
M  V30 4415 N 416.009 -3.49124 -4.16669 0
M  V30 4416 H 419.811 -2.20883 -1.93876 0
M  V30 4417 H 417.325 -1.28457 -0.993614 0
M  V30 4418 H 419.322 -0.952155 -4.05881 0
M  V30 4419 H 417.982 -0.102013 -3.2454 0
M  V30 4420 H 418.993 -3.7881 -3.53162 0
M  V30 4421 H 415.67 -1.24744 -3.98428 0
M  V30 4422 H 417.06 -5.28575 -4.14799 0
M  V30 4423 N 419.78 1.02168 -1.19998 0
M  V30 4424 C 420.69 2.14069 -0.959774 0
M  V30 4425 C 421.706 1.73804 0.082655 0
M  V30 4426 O 422.882 2.01133 -0.103633 0
M  V30 4427 C 419.947 3.42936 -0.509459 0
M  V30 4428 C 419.008 3.97474 -1.62213 0
M  V30 4429 C 418.241 5.2019 -1.19321 0
M  V30 4430 O 418.464 5.70369 -0.0597726 0
M  V30 4431 O 417.398 5.67749 -1.99863 0
M  V30 4432 H 421.224 2.37199 -1.89658 0
M  V30 4433 H 418.809 1.12469 -0.983411 0
M  V30 4434 H 420.691 4.20551 -0.267322 0
M  V30 4435 H 419.366 3.21234 0.398821 0
M  V30 4436 H 418.273 3.21161 -1.9185 0
M  V30 4437 H 419.606 4.23555 -2.50723 0
M  V30 4438 N 421.258 1.00505 1.21394 0
M  V30 4439 C 422.19 0.52372 2.23136 0
M  V30 4440 C 423.203 -0.387714 1.58116 0
M  V30 4441 O 424.392 -0.187905 1.77508 0
M  V30 4442 C 421.492 -0.258885 3.3791 0
M  V30 4443 C 420.665 0.651634 4.32519 0
M  V30 4444 C 419.724 -0.0813705 5.26137 0
M  V30 4445 O 418.75 0.537295 5.66658 0
M  V30 4446 N 419.952 -1.35992 5.64346 0
M  V30 4447 H 422.717 1.39865 2.65062 0
M  V30 4448 H 420.278 0.881196 1.35818 0
M  V30 4449 H 422.27 -0.758208 3.97534 0
M  V30 4450 H 420.84 -1.035 2.94968 0
M  V30 4451 H 420.06 1.33145 3.71034 0
M  V30 4452 H 421.348 1.27129 4.92662 0
M  V30 4453 H 420.746 -1.88368 5.33417 0
M  V30 4454 H 419.303 -1.8042 6.26332 0
M  V30 4455 N 422.737 -1.36956 0.779787 0
M  V30 4456 C 423.965 -2.03755 0.359398 0
M  V30 4457 C 424.38 -1.58807 -1.02106 0
M  V30 4458 O 423.737 -0.773024 -1.6532 0
M  V30 4459 C 423.788 -3.59251 0.402568 0
M  V30 4460 O 423.509 -4.02557 1.72858 0
M  V30 4461 C 425.01 -4.43291 -0.0284068 0
M  V30 4462 H 422.23 -0.654148 0.149437 0
M  V30 4463 H 424.774 -1.75128 1.05595 0
M  V30 4464 H 422.929 -3.86621 -0.245478 0
M  V30 4465 H 423.343 -4.97111 1.67275 0
M  V30 4466 H 424.817 -5.51975 0.0529466 0
M  V30 4467 H 425.294 -4.25719 -1.07982 0
M  V30 4468 H 425.9 -4.21163 0.591758 0
M  V30 4469 N 424.215 -0.530993 -1.48385 0
M  V30 4470 C 425.492 0.0671788 -1.95485 0
M  V30 4471 C 425.872 1.51191 -1.47324 0
M  V30 4472 O 425.22 2.17507 -0.700202 0
M  V30 4473 C 425.43 -0.0511206 -3.48963 0
M  V30 4474 C 426.778 0.107632 -4.24464 0
M  V30 4475 O 427.802 0.0226248 -3.56193 0
M  V30 4476 O 426.661 0.285972 -5.45751 0
M  V30 4477 H 423.755 0.0787365 -0.823243 0
M  V30 4478 H 426.301 -0.595662 -1.58902 0
M  V30 4479 H 425.073 -1.05747 -3.7674 0
M  V30 4480 H 424.696 0.650525 -3.92242 0
M  V30 4481 N 425.693 1.55336 -0.266172 0
M  V30 4482 C 426.942 1.98574 0.353749 0
M  V30 4483 C 427.255 1.15789 1.57646 0
M  V30 4484 O 428.461 1.49129 2.26876 0
M  V30 4485 C 426.917 3.53403 0.680747 0
M  V30 4486 C 426.525 4.44953 -0.52165 0
M  V30 4487 C 428.269 4.05251 1.26379 0
M  V30 4488 C 426.176 5.91156 -0.169736 0
M  V30 4489 H 425.106 0.741643 0.135949 0
M  V30 4490 H 427.757 1.79743 -0.369421 0
M  V30 4491 H 426.139 3.68001 1.46257 0
M  V30 4492 H 427.313 4.42121 -1.29869 0
M  V30 4493 H 425.628 4.03691 -1.02093 0
M  V30 4494 H 428.225 5.12021 1.54074 0
M  V30 4495 H 428.568 3.53749 2.19471 0
M  V30 4496 H 429.101 3.94057 0.544447 0
M  V30 4497 H 425.84 6.46736 -1.0683 0
M  V30 4498 H 425.36 5.97079 0.570717 0
M  V30 4499 H 427.039 6.4655 0.241245 0
M  V30 4500 N 427.171 -0.0066808 1.57599 0
M  V30 4501 C 428.399 -0.704087 1.94551 0
M  V30 4502 C 428.814 -1.67677 0.867746 0
M  V30 4503 O 428.171 -1.8185 -0.153925 0
M  V30 4504 C 428.222 -1.44177 3.31505 0
M  V30 4505 O 427.943 -0.508097 4.35144 0
M  V30 4506 C 429.444 -2.23429 3.82876 0
M  V30 4507 H 426.664 -0.196523 0.641576 0
M  V30 4508 H 429.208 0.042453 2.04456 0
M  V30 4509 H 427.363 -2.13999 3.22929 0
M  V30 4510 H 427.777 -1.02782 5.14331 0
M  V30 4511 H 429.251 -2.70552 4.8115 0
M  V30 4512 H 429.728 -3.05818 3.15233 0
M  V30 4513 H 430.334 -1.58636 3.94607 0
M  V30 4514 N 428.649 -1.55105 -0.279332 0
M  V30 4515 C 429.874 -1.7976 -1.03446 0
M  V30 4516 C 430.299 -0.565952 -1.79384 0
M  V30 4517 O 429.657 0.484259 -1.74713 0
M  V30 4518 C 429.705 -3.0179 -1.97371 0
M  V30 4519 O 428.809 -2.76432 -3.06038 0
M  V30 4520 H 428.15 -0.594334 -0.29608 0
M  V30 4521 H 430.68 -2.02235 -0.310165 0
M  V30 4522 H 430.69 -3.30351 -2.39441 0
M  V30 4523 H 429.365 -3.91085 -1.4151 0
M  V30 4524 H 427.942 -2.58949 -2.68328 0
M  V30 4525 N 430.127 0.543554 -1.4793 0
M  V30 4526 C 431.543 0.870806 -1.3375 0
M  V30 4527 C 431.743 1.9864 -0.338261 0
M  V30 4528 O 430.799 2.51305 0.245371 0
M  V30 4529 C 432.112 1.25114 -2.73435 0
M  V30 4530 C 433.66 1.3618 -2.81823 0
M  V30 4531 C 434.135 1.77563 -4.22179 0
M  V30 4532 N 435.626 1.8469 -4.24787 0
M  V30 4533 C 436.361 2.18067 -5.30315 0
M  V30 4534 N 435.857 2.49963 -6.46135 0
M  V30 4535 N 437.65 2.18958 -5.17701 0
M  V30 4536 H 429.801 -0.19275 -2.11524 0
M  V30 4537 H 432.064 -0.0235777 -0.947707 0
M  V30 4538 H 431.77 0.50514 -3.48053 0
M  V30 4539 H 431.644 2.20431 -3.06088 0
M  V30 4540 H 434.031 2.09859 -2.07468 0
M  V30 4541 H 434.112 0.390169 -2.52807 0
M  V30 4542 H 433.756 1.04449 -4.97044 0
M  V30 4543 H 433.686 2.75753 -4.48629 0
M  V30 4544 H 436.177 1.62372 -3.41239 0
M  V30 4545 H 436.49 2.74497 -7.22406 0
M  V30 4546 H 434.835 2.47513 -6.49432 0
M  V30 4547 H 438.026 1.93488 -4.2624 0
M  V30 4548 H 438.199 2.44639 -6.00047 0
M  V30 4549 N 431.605 1.3629 0.791371 0
M  V30 4550 C 432.882 1.20962 1.53712 0
M  V30 4551 C 433.262 -0.205021 2.10102 0
M  V30 4552 O 432.61 -1.21042 1.93807 0
M  V30 4553 C 432.82 2.29002 2.63361 0
M  V30 4554 C 434.168 2.65572 3.31295 0
M  V30 4555 O 435.192 2.2803 2.73643 0
M  V30 4556 O 434.051 3.3018 4.35481 0
M  V30 4557 H 431.145 0.47086 0.679867 0
M  V30 4558 H 433.691 1.48016 0.830021 0
M  V30 4559 H 432.463 3.2382 2.19674 0
M  V30 4560 H 432.086 2.03303 3.41692 0
M  V30 4561 N 433.083 -1.0153 1.20538 0
M  V30 4562 C 434.308 -1.79283 1.04271 0
M  V30 4563 C 434.733 -1.8372 -0.403544 0
M  V30 4564 O 434.091 -1.27321 -1.2907 0
M  V30 4565 C 434.139 -3.21535 1.63241 0
M  V30 4566 O 433.243 -4.03099 0.870908 0
M  V30 4567 H 432.584 -0.55293 0.367647 0
M  V30 4568 H 435.114 -1.27696 1.59859 0
M  V30 4569 H 435.124 -3.72243 1.6703 0
M  V30 4570 H 433.799 -3.1762 2.68497 0
M  V30 4571 H 432.376 -3.61693 0.907323 0
M  V30 4572 N 434.561 -1.01147 -1.20859 0
M  V30 4573 C 435.977 -0.725422 -1.42161 0
M  V30 4574 C 436.177 0.696919 -1.89064 0
M  V30 4575 O 435.233 1.46539 -2.05627 0
M  V30 4576 C 436.546 -1.74678 -2.44761 0
M  V30 4577 C 438.094 -1.76433 -2.58535 0
M  V30 4578 C 438.569 -2.77481 -3.64374 0
M  V30 4579 N 440.06 -2.76189 -3.71852 0
M  V30 4580 C 440.795 -3.51035 -4.53389 0
M  V30 4581 N 440.291 -4.35541 -5.38773 0
M  V30 4582 N 442.084 -3.39655 -4.47873 0
M  V30 4583 H 434.235 -1.92979 -0.887282 0
M  V30 4584 H 436.498 -0.833327 -0.451962 0
M  V30 4585 H 436.204 -2.76551 -2.17285 0
M  V30 4586 H 436.078 -1.55472 -3.43669 0
M  V30 4587 H 438.465 -0.75248 -2.85345 0
M  V30 4588 H 438.546 -1.99712 -1.5984 0
M  V30 4589 H 438.19 -3.78827 -3.38308 0
M  V30 4590 H 438.12 -2.51466 -4.6268 0
M  V30 4591 H 440.611 -2.14885 -3.10858 0
M  V30 4592 H 440.924 -4.89432 -5.98061 0
M  V30 4593 H 439.269 -4.39621 -5.38292 0
M  V30 4594 H 442.46 -2.73063 -3.80203 0
M  V30 4595 H 442.633 -3.9824 -5.11184 0
M  V30 4596 N 436.039 1.36541 -0.78704 0
M  V30 4597 C 437.287 1.98911 -0.357633 0
M  V30 4598 C 437.608 1.62778 1.07371 0
M  V30 4599 O 436.878 0.900612 1.73971 0
M  V30 4600 H 435.458 0.735734 -0.129246 0
M  V30 4601 H 438.12 1.66776 -1.00855 0
M  V30 4602 H 437.216 3.08874 -0.447549 0
M  V30 4603 N 437.518 0.538854 1.48102 0
M  V30 4604 C 438.466 -0.232325 2.31437 0
M  V30 4605 C 439.46 -0.927004 1.41785 0
M  V30 4606 O 440.666 -0.850378 1.58646 0
M  V30 4607 H 437.041 -0.0937916 0.746128 0
M  V30 4608 H 439.012 0.489986 2.9435 0
M  V30 4609 C 437.761 -1.26074 3.24038 0
M  V30 4610 H 437.084 -0.735609 3.92974 0
M  V30 4611 H 438.524 -1.77157 3.85216 0
M  V30 4612 C 436.983 -2.29902 2.46265 0
M  V30 4613 O 437.513 -3.36502 2.19384 0
M  V30 4614 N 435.719 -2.03348 2.07601 0
M  V30 4615 H 435.266 -1.16675 2.29662 0
M  V30 4616 H 435.224 -2.73038 1.55877 0
M  V30 4617 N 438.996 -1.55193 0.274407 0
M  V30 4618 C 439.944 -2.23924 -0.629362 0
M  V30 4619 C 440.938 -1.23602 -1.1584 0
M  V30 4620 O 442.144 -1.41535 -1.11211 0
M  V30 4621 H 438.519 -0.718637 -0.221507 0
M  V30 4622 H 440.49 -2.98388 -0.0268322 0
M  V30 4623 C 439.239 -2.97329 -1.80252 0
M  V30 4624 H 438.562 -3.74313 -1.40462 0
M  V30 4625 H 440.002 -3.48743 -2.41152 0
M  V30 4626 C 438.461 -2.0276 -2.69054 0
M  V30 4627 O 438.991 -1.57836 -3.69392 0
M  V30 4628 N 437.197 -1.69275 -2.36208 0
M  V30 4629 H 436.744 -2.06004 -1.54661 0
M  V30 4630 H 436.702 -1.06271 -2.95895 0
M  V30 4631 N 440.474 -0.00167713 -1.576 0
M  V30 4632 C 441.723 0.682021 -1.89819 0
M  V30 4633 C 442.036 1.74844 -0.876871 0
M  V30 4634 O 443.242 2.48688 -1.08934 0
M  V30 4635 C 441.698 1.26425 -3.36964 0
M  V30 4636 C 441.306 0.232568 -4.47396 0
M  V30 4637 C 443.05 1.92604 -3.78291 0
M  V30 4638 C 440.957 0.824882 -5.85619 0
M  V30 4639 H 439.887 0.258499 -0.708304 0
M  V30 4640 H 442.538 -0.0624957 -1.83394 0
M  V30 4641 H 440.92 2.05949 -3.38232 0
M  V30 4642 H 442.094 -0.5382 -4.57646 0
M  V30 4643 H 440.409 -0.32888 -4.15099 0
M  V30 4644 H 443.006 2.37827 -4.78897 0
M  V30 4645 H 443.349 2.75732 -3.11894 0
M  V30 4646 H 443.882 1.19812 -3.79328 0
M  V30 4647 H 440.621 0.0323542 -6.55492 0
M  V30 4648 H 440.141 1.56477 -5.79029 0
M  V30 4649 H 441.82 1.32301 -6.33329 0
M  V30 4650 N 441.952 1.55251 0.271103 0
M  V30 4651 C 442.882 1.9127 1.33933 0
M  V30 4652 C 443.863 0.77478 1.5143 0
M  V30 4653 O 445.048 1.03307 1.64442 0
M  V30 4654 C 442.178 2.18627 2.69851 0
M  V30 4655 C 441.132 3.34442 2.67081 0
M  V30 4656 C 440.458 3.47284 4.06569 0
M  V30 4657 C 441.758 4.70784 2.26185 0
M  V30 4658 H 443.452 2.80744 1.04035 0
M  V30 4659 H 440.998 1.35077 0.499017 0
M  V30 4660 H 442.951 2.42413 3.44694 0
M  V30 4661 H 441.675 1.25955 3.01335 0
M  V30 4662 H 440.334 3.10627 1.94695 0
M  V30 4663 H 439.982 2.52074 4.35279 0
M  V30 4664 H 439.682 4.25152 4.0561 0
M  V30 4665 H 441.206 3.73363 4.83148 0
M  V30 4666 H 442.62 4.94102 2.90751 0
M  V30 4667 H 441.017 5.51582 2.36384 0
M  V30 4668 H 442.087 4.69478 1.21319 0
M  V30 4669 N 443.43 -0.535701 1.48216 0
M  V30 4670 C 444.38 -1.63688 1.58714 0
M  V30 4671 C 445.364 -1.54635 0.444615 0
M  V30 4672 O 446.556 -1.62753 0.695742 0
M  V30 4673 C 443.685 -3.02423 1.62466 0
M  V30 4674 C 442.771 -3.16601 2.82178 0
M  V30 4675 N 443.162 -3.00771 4.06658 0
M  V30 4676 C 441.46 -3.47645 2.79391 0
M  V30 4677 C 442.161 -3.18213 4.86945 0
M  V30 4678 N 441.137 -3.45528 4.19656 0
M  V30 4679 H 444.939 -1.5005 2.5271 0
M  V30 4680 H 442.453 -0.741018 1.44508 0
M  V30 4681 H 444.45 -3.81517 1.6808 0
M  V30 4682 H 443.11 -3.17157 0.695826 0
M  V30 4683 H 444.121 -2.77652 4.37184 0
M  V30 4684 H 440.798 -3.68771 1.95739 0
M  V30 4685 H 442.188 -3.1076 5.95716 0
M  V30 4686 N 444.908 -1.36708 -0.784132 0
M  V30 4687 C 445.871 -1.31307 -1.87859 0
M  V30 4688 C 446.871 -0.219654 -1.59293 0
M  V30 4689 O 448.061 -0.47476 -1.67606 0
M  V30 4690 C 445.193 -1.03679 -3.24751 0
M  V30 4691 H 446.386 -2.28647 -1.94064 0
M  V30 4692 H 443.939 -1.21558 -0.98252 0
M  V30 4693 H 444.674 -0.0681936 -3.24228 0
M  V30 4694 H 444.459 -1.82811 -3.46876 0
M  V30 4695 H 445.949 -1.02518 -4.04821 0
M  V30 4696 N 446.386 1.0089 -1.21074 0
M  V30 4697 C 447.316 2.1145 -0.990523 0
M  V30 4698 C 448.297 1.69897 0.0831699 0
M  V30 4699 O 449.482 1.94052 -0.0758853 0
M  V30 4700 C 446.612 3.42914 -0.550177 0
M  V30 4701 C 445.566 3.98244 -1.56799 0
M  V30 4702 C 444.892 5.25568 -0.984013 0
M  V30 4703 C 446.192 4.30752 -2.95381 0
M  V30 4704 H 447.886 2.3013 -1.91521 0
M  V30 4705 H 445.432 1.10592 -0.92225 0
M  V30 4706 H 447.385 4.19653 -0.383305 0
M  V30 4707 H 446.109 3.24014 0.41015 0
M  V30 4708 H 444.768 3.23621 -1.72236 0
M  V30 4709 H 444.416 5.02998 -0.0155216 0
M  V30 4710 H 444.116 5.63551 -1.66384 0
M  V30 4711 H 445.64 6.04955 -0.828378 0
M  V30 4712 H 447.054 4.98349 -2.8341 0
M  V30 4713 H 445.451 4.79869 -3.60341 0
M  V30 4714 H 446.521 3.39192 -3.46521 0
M  V30 4715 N 447.864 1.01787 1.20321 0
M  V30 4716 C 449.11 0.708985 1.90003 0
M  V30 4717 C 449.443 -0.759572 1.78729 0
M  V30 4718 O 448.718 -1.55198 1.17234 0
M  V30 4719 C 449.001 1.1469 3.41348 0
M  V30 4720 C 448.854 2.67586 3.61549 0
M  V30 4721 C 450.173 0.71915 4.34185 0
M  V30 4722 H 447.292 0.259034 0.689978 0
M  V30 4723 H 449.934 1.26584 1.41692 0
M  V30 4724 H 448.084 0.673128 3.82624 0
M  V30 4725 H 449.756 3.22826 3.29517 0
M  V30 4726 H 447.999 3.085 3.04976 0
M  V30 4727 H 448.67 2.93281 4.67643 0
M  V30 4728 H 451.146 1.12647 4.00562 0
M  V30 4729 H 450.022 1.05358 5.38694 0
M  V30 4730 H 450.283 -0.379111 4.40472 0
M  V30 4731 N 449.342 -1.36122 0.79427 0
M  V30 4732 C 450.57 -2.03362 0.380989 0
M  V30 4733 C 450.985 -1.59881 -1.00416 0
M  V30 4734 O 450.342 -0.790515 -1.6449 0
M  V30 4735 C 450.393 -3.58804 0.440649 0
M  V30 4736 O 450.114 -4.007 1.77118 0
M  V30 4737 C 451.615 -4.43296 0.0186117 0
M  V30 4738 H 448.835 -0.652526 0.156367 0
M  V30 4739 H 451.379 -1.73998 1.07447 0
M  V30 4740 H 449.534 -3.8686 -0.204458 0
M  V30 4741 H 449.948 -4.95309 1.72538 0
M  V30 4742 H 451.422 -5.51887 0.111488 0
M  V30 4743 H 451.899 -4.2684 -1.03461 0
M  V30 4744 H 452.505 -4.20512 0.636395 0
M  V30 4745 N 450.82 -0.546701 -1.47814 0
M  V30 4746 C 452.066 -0.0187684 -2.02791 0
M  V30 4747 C 452.399 1.32338 -1.42128 0
M  V30 4748 O 451.674 1.85867 -0.573023 0
M  V30 4749 C 451.957 0.0854985 -3.59998 0
M  V30 4750 C 451.81 -1.283 -4.31114 0
M  V30 4751 C 453.129 0.80412 -4.32691 0
M  V30 4752 H 450.248 -0.0082946 -0.736953 0
M  V30 4753 H 452.89 -0.706962 -1.76358 0
M  V30 4754 H 451.04 0.671609 -3.82651 0
M  V30 4755 H 452.712 -1.91151 -4.19832 0
M  V30 4756 H 450.955 -1.86049 -3.91878 0
M  V30 4757 H 451.626 -1.16287 -5.39612 0
M  V30 4758 H 454.102 0.306576 -4.14969 0
M  V30 4759 H 452.978 0.846011 -5.42341 0
M  V30 4760 H 453.239 1.85802 -4.01161 0
M  V30 4761 N 452.299 1.55045 -0.282633 0
M  V30 4762 C 453.262 2.21515 0.588539 0
M  V30 4763 C 454.262 1.19535 1.07554 0
M  V30 4764 O 455.452 1.44391 0.974514 0
M  V30 4765 C 452.584 2.88704 1.8128 0
M  V30 4766 H 453.777 2.99899 0.00806397 0
M  V30 4767 H 451.33 1.56265 -0.0333067 0
M  V30 4768 H 452.065 2.14352 2.43359 0
M  V30 4769 H 451.85 3.63443 1.47144 0
M  V30 4770 H 453.34 3.39465 2.43214 0
M  V30 4771 N 453.777 0.010035 1.57597 0
M  V30 4772 C 454.687 -0.994226 2.12491 0
M  V30 4773 C 455.703 -1.37013 1.07254 0
M  V30 4774 O 456.879 -1.45542 1.3921 0
M  V30 4775 C 453.944 -2.2642 2.62555 0
M  V30 4776 C 453.005 -1.95049 3.82432 0
M  V30 4777 C 452.238 -3.15991 4.30099 0
M  V30 4778 O 452.461 -4.28015 3.7704 0
M  V30 4779 O 451.395 -2.99403 5.22151 0
M  V30 4780 H 455.221 -0.557549 2.98538 0
M  V30 4781 H 452.806 -0.209413 1.47925 0
M  V30 4782 H 454.688 -3.01009 2.9491 0
M  V30 4783 H 453.363 -2.69306 1.796 0
M  V30 4784 H 452.27 -1.17904 3.55034 0
M  V30 4785 H 453.603 -1.56992 4.66491 0
M  V30 4786 N 455.255 -1.55392 -0.262866 0
M  V30 4787 C 456.532 -1.67204 -1.01499 0
M  V30 4788 C 456.912 -0.545186 -2.03939 0
M  V30 4789 O 456.26 0.453467 -2.23955 0
M  V30 4790 C 456.47 -3.06847 -1.6627 0
M  V30 4791 C 457.818 -3.64928 -2.17054 0
M  V30 4792 O 458.842 -3.09545 -1.76239 0
M  V30 4793 O 457.701 -4.61984 -2.91947 0
M  V30 4794 H 454.795 -0.679467 -0.471438 0
M  V30 4795 H 457.341 -1.67729 -0.257918 0
M  V30 4796 H 456.113 -3.80309 -0.920915 0
M  V30 4797 H 455.736 -3.10266 -2.48638 0
M  V30 4798 N 456.733 0.527833 -1.48498 0
M  V30 4799 C 457.98 1.28354 -1.56625 0
M  V30 4800 C 458.308 1.93 -0.241096 0
M  V30 4801 O 457.563 1.79967 0.768798 0
M  V30 4802 C 457.862 2.39275 -2.65485 0
M  V30 4803 C 457.528 1.92268 -4.07853 0
M  V30 4804 C 456.19 1.79166 -4.46602 0
M  V30 4805 C 458.542 1.56771 -4.97064 0
M  V30 4806 C 455.87 1.28905 -5.72364 0
M  V30 4807 C 458.222 1.07972 -6.23318 0
M  V30 4808 C 456.886 0.934887 -6.60921 0
M  V30 4809 H 456.156 0.469682 -0.573131 0
M  V30 4810 H 458.803 0.588781 -1.82224 0
M  V30 4811 H 457.108 3.1443 -2.33754 0
M  V30 4812 H 458.805 2.974 -2.68988 0
M  V30 4813 H 455.395 2.03417 -3.77252 0
M  V30 4814 H 459.579 1.65753 -4.67803 0
M  V30 4815 H 454.835 1.16381 -6.00221 0
M  V30 4816 H 459.009 0.795775 -6.91838 0
M  V30 4817 H 456.636 0.543231 -7.58257 0
M  V30 4818 N 458.211 1.37122 0.776871 0
M  V30 4819 C 459.158 1.3247 1.88998 0
M  V30 4820 C 460.128 0.191143 1.64997 0
M  V30 4821 O 461.313 0.379683 1.86984 0
M  V30 4822 C 458.453 1.13241 3.25992 0
M  V30 4823 C 457.566 2.35782 3.61982 0
M  V30 4824 C 456.701 2.09465 4.88158 0
M  V30 4825 C 455.74 3.279 5.16864 0
M  V30 4826 N 454.877 3.01167 6.34226 0
M  V30 4827 H 459.717 2.27642 1.9231 0
M  V30 4828 H 457.254 1.13125 0.94027 0
M  V30 4829 H 459.212 1.00115 4.0501 0
M  V30 4830 H 457.842 0.217186 3.22069 0
M  V30 4831 H 456.894 2.59666 2.77989 0
M  V30 4832 H 458.206 3.24125 3.79137 0
M  V30 4833 H 457.36 1.93341 5.75069 0
M  V30 4834 H 456.099 1.18452 4.73097 0
M  V30 4835 H 455.104 3.44569 4.2843 0
M  V30 4836 H 456.329 4.19757 5.33836 0
M  V30 4837 H 454.275 2.12779 6.20533 0
M  V30 4838 H 454.192 3.83052 6.51772 0
M  V30 4839 H 455.46 2.88649 7.24087 0
M  V30 4840 N 459.689 -1.00246 1.21608 0
M  V30 4841 C 460.917 -1.77631 1.06089 0
M  V30 4842 C 461.332 -1.84746 -0.38916 0
M  V30 4843 O 460.689 -1.31068 -1.26994 0
M  V30 4844 C 460.74 -3.21415 1.65453 0
M  V30 4845 O 460.461 -3.14703 3.04785 0
M  V30 4846 C 461.962 -4.15289 1.55079 0
M  V30 4847 H 459.182 -0.558162 0.37242 0
M  V30 4848 H 461.726 -1.26093 1.60999 0
M  V30 4849 H 459.881 -3.70053 1.14629 0
M  V30 4850 H 460.295 -4.05056 3.33212 0
M  V30 4851 H 461.769 -5.13965 2.01355 0
M  V30 4852 H 462.246 -4.36279 0.505665 0
M  V30 4853 H 462.852 -3.72543 2.05163 0
M  V30 4854 N 461.167 -1.02423 -1.1978 0
M  V30 4855 C 462.099 -0.559152 -2.22275 0
M  V30 4856 C 463.112 0.36251 -1.58713 0
M  V30 4857 O 464.301 0.159641 -1.77785 0
M  V30 4858 C 461.401 0.205094 -3.38279 0
M  V30 4859 C 460.574 -0.720361 -4.31427 0
M  V30 4860 C 459.633 -0.00234368 -5.262 0
M  V30 4861 O 458.659 -0.627378 -5.65732 0
M  V30 4862 N 459.861 1.26996 -5.66438 0
M  V30 4863 H 462.626 -1.44064 -2.62804 0
M  V30 4864 H 460.187 -0.902692 -1.34399 0
M  V30 4865 H 462.179 0.694868 -3.9869 0
M  V30 4866 H 460.749 0.987947 -2.96578 0
M  V30 4867 H 459.969 -1.39031 -3.68869 0
M  V30 4868 H 461.257 -1.3495 -4.90577 0
M  V30 4869 H 460.655 1.79858 -5.36347 0
M  V30 4870 H 459.212 1.70432 -6.29123 0
M  V30 4871 N 462.645 1.35699 -0.801477 0
M  V30 4872 C 463.593 2.3177 -0.196317 0
M  V30 4873 C 464.587 1.56388 0.651081 0
M  V30 4874 O 465.793 1.71557 0.544815 0
M  V30 4875 H 462.168 0.750669 -0.0447189 0
M  V30 4876 H 464.139 2.8036 -1.02181 0
M  V30 4877 C 462.888 3.41671 0.644702 0
M  V30 4878 H 462.211 3.998 0.0019921 0
M  V30 4879 H 463.651 4.11184 1.0346 0
M  V30 4880 C 462.11 2.84271 1.80808 0
M  V30 4881 O 462.64 2.77408 2.9053 0
M  V30 4882 N 460.846 2.41391 1.61799 0
M  V30 4883 H 460.393 2.47173 0.725493 0
M  V30 4884 H 460.351 2.03334 2.39797 0
M  V30 4885 N 464.123 0.554532 1.47522 0
M  V30 4886 C 465.4 -0.0360704 1.95567 0
M  V30 4887 C 465.78 -1.48828 1.49711 0
M  V30 4888 O 465.128 -2.16366 0.734717 0
M  V30 4889 C 465.338 0.106631 3.48837 0
M  V30 4890 C 466.686 -0.0400899 4.24581 0
M  V30 4891 O 467.71 0.0340453 3.56184 0
M  V30 4892 O 466.569 -0.199111 5.46137 0
M  V30 4893 H 463.663 -0.0656294 0.824392 0
M  V30 4894 H 466.209 0.620867 1.57935 0
M  V30 4895 H 464.981 1.11727 3.7501 0
M  V30 4896 H 464.604 -0.58804 3.93227 0
M  V30 4897 N 465.601 -1.54893 0.290851 0
M  V30 4898 C 466.848 -1.99933 -0.321391 0
M  V30 4899 C 467.176 -1.17927 -1.54672 0
M  V30 4900 O 466.431 -0.240902 -1.94212 0
M  V30 4901 C 466.73 -3.49815 -0.732397 0
M  V30 4902 C 466.396 -4.4921 0.390056 0
M  V30 4903 C 465.058 -4.76107 0.698223 0
M  V30 4904 C 467.41 -5.08453 1.14562 0
M  V30 4905 C 464.738 -5.59514 1.76526 0
M  V30 4906 C 467.09 -5.9302 2.2025 0
M  V30 4907 C 465.754 -6.18232 2.51684 0
M  V30 4908 H 465.024 -0.731608 -0.117605 0
M  V30 4909 H 467.671 -1.87107 0.407839 0
M  V30 4910 H 465.976 -3.60199 -1.54155 0
M  V30 4911 H 467.673 -3.82083 -1.21712 0
M  V30 4912 H 464.263 -4.28372 0.13976 0
M  V30 4913 H 468.447 -4.87683 0.920801 0
M  V30 4914 H 463.703 -5.77289 2.01364 0
M  V30 4915 H 467.877 -6.37955 2.7926 0
M  V30 4916 H 465.504 -6.82653 3.34499 0
M  V30 4917 N 467.08 -0.0183926 -1.57589 0
M  V30 4918 C 468.326 0.663543 -1.91638 0
M  V30 4919 C 468.659 1.72392 -0.894134 0
M  V30 4920 O 467.934 1.94316 0.0846449 0
M  V30 4921 C 468.217 1.28984 -3.36207 0
M  V30 4922 C 468.07 0.239761 -4.49161 0
M  V30 4923 C 469.389 2.2109 -3.80536 0
M  V30 4924 H 466.508 0.239746 -0.696915 0
M  V30 4925 H 469.15 -0.073456 -1.89858 0
M  V30 4926 H 467.3 1.91799 -3.37854 0
M  V30 4927 H 468.972 -0.390119 -4.59647 0
M  V30 4928 H 467.215 -0.435972 -4.31604 0
M  V30 4929 H 467.886 0.717383 -5.47319 0
M  V30 4930 H 470.362 1.68273 -3.80557 0
M  V30 4931 H 469.238 2.61869 -4.82406 0
M  V30 4932 H 469.499 3.09764 -3.15434 0
M  V30 4933 N 468.558 1.5553 0.254621 0
M  V30 4934 C 469.505 1.89666 1.31512 0
M  V30 4935 C 470.475 0.750057 1.482 0
M  V30 4936 O 471.66 1.00301 1.62309 0
M  V30 4937 C 468.8 2.19009 2.667 0
M  V30 4938 C 467.913 3.46435 2.58083 0
M  V30 4939 C 467.048 3.65386 3.85573 0
M  V30 4940 C 466.087 4.8644 3.71541 0
M  V30 4941 N 465.224 5.01952 4.90906 0
M  V30 4942 H 470.064 2.80109 1.017 0
M  V30 4943 H 467.601 1.38666 0.490938 0
M  V30 4944 H 469.559 2.34025 3.45381 0
M  V30 4945 H 468.189 1.31779 2.94676 0
M  V30 4946 H 467.241 3.39792 1.71013 0
M  V30 4947 H 468.553 4.35258 2.43622 0
M  V30 4948 H 467.707 3.80319 4.72697 0
M  V30 4949 H 466.446 2.74781 4.02922 0
M  V30 4950 H 465.451 4.71491 2.82801 0
M  V30 4951 H 466.676 5.78497 3.55694 0
M  V30 4952 H 464.622 4.14283 5.08631 0
M  V30 4953 H 464.539 5.84851 4.79046 0
M  V30 4954 H 465.807 5.21289 5.7955 0
M  V30 4955 N 470.036 -0.519951 1.48776 0
M  V30 4956 C 471.452 -0.849418 1.35119 0
M  V30 4957 C 471.652 -1.98077 0.36982 0
M  V30 4958 O 470.708 -2.51664 -0.205359 0
M  V30 4959 C 472.021 -1.20748 2.75391 0
M  V30 4960 C 473.569 -1.31679 2.83954 0
M  V30 4961 C 474.044 -1.70824 4.24951 0
M  V30 4962 N 475.535 -1.77908 4.27672 0
M  V30 4963 C 476.27 -2.09603 5.33717 0
M  V30 4964 N 475.766 -2.39652 6.5003 0
M  V30 4965 N 477.559 -2.10694 5.21119 0
M  V30 4966 H 469.71 0.226377 2.1119 0
M  V30 4967 H 471.973 0.0386519 0.947212 0
M  V30 4968 H 471.679 -0.449703 3.48813 0
M  V30 4969 H 471.553 -2.15534 3.09556 0
M  V30 4970 H 473.94 -2.06532 2.10781 0
M  V30 4971 H 474.021 -0.3499 2.53396 0
M  V30 4972 H 473.665 -0.965282 4.98643 0
M  V30 4973 H 473.595 -2.6858 4.52959 0
M  V30 4974 H 476.086 -1.56923 3.43779 0
M  V30 4975 H 476.399 -2.6297 7.26682 0
M  V30 4976 H 474.744 -2.37149 6.53288 0
M  V30 4977 H 477.935 -1.86682 4.29264 0
M  V30 4978 H 478.108 -2.35062 6.03863 0
M  V30 4979 N 471.514 -1.37532 -0.769588 0
M  V30 4980 C 472.447 -1.27839 -1.8903 0
M  V30 4981 C 473.425 -0.158504 -1.61826 0
M  V30 4982 O 474.609 -0.333086 -1.85534 0
M  V30 4983 C 471.736 -0.977072 -3.24301 0
M  V30 4984 C 470.782 -2.11414 -3.70414 0
M  V30 4985 S 471.615 -3.73409 -3.83831 0
M  V30 4986 C 472.771 -3.45432 -5.21946 0
M  V30 4987 H 473.004 -2.22694 -1.96963 0
M  V30 4988 H 470.537 -1.2318 -0.930914 0
M  V30 4989 H 472.495 -0.810049 -4.02428 0
M  V30 4990 H 471.156 -0.0459701 -3.14066 0
M  V30 4991 H 470.349 -1.85837 -4.68488 0
M  V30 4992 H 469.951 -2.24141 -2.99394 0
M  V30 4993 H 472.243 -3.00554 -6.07185 0
M  V30 4994 H 473.186 -4.42841 -5.52537 0
M  V30 4995 H 473.594 -2.80311 -4.89986 0
M  V30 4996 N 472.992 0.995999 -1.22138 0
M  V30 4997 C 474.222 1.76809 -1.06874 0
M  V30 4998 C 474.63 1.85265 0.383866 0
M  V30 4999 O 473.973 1.31969 1.27789 0
M  V30 5000 C 474.035 3.2186 -1.60144 0
M  V30 5001 C 473.699 3.36958 -3.0872 0
M  V30 5002 C 474.696 3.2452 -4.0618 0
M  V30 5003 C 472.381 3.62109 -3.48112 0
M  V30 5004 C 474.375 3.37013 -5.41019 0
M  V30 5005 C 472.062 3.74243 -4.831 0
M  V30 5006 C 473.06 3.61702 -5.79362 0
M  V30 5007 O 472.748 3.73436 -7.119 0
M  V30 5008 H 472.48 0.562207 -0.375365 0
M  V30 5009 H 475.034 1.26113 -1.62125 0
M  V30 5010 H 473.264 3.73734 -0.992981 0
M  V30 5011 H 474.953 3.80775 -1.40589 0
M  V30 5012 H 475.719 3.05004 -3.77091 0
M  V30 5013 H 471.598 3.70949 -2.73712 0
M  V30 5014 H 475.142 3.27141 -6.16137 0
M  V30 5015 H 471.039 3.93266 -5.11872 0
M  V30 5016 H 471.807 3.90328 -7.19435 0
M  V30 5017 N 474.47 1.03057 1.19235 0
M  V30 5018 C 475.747 0.642608 1.84743 0
M  V30 5019 C 476.127 -0.878577 1.91948 0
M  V30 5020 O 475.475 -1.77597 1.43776 0
M  V30 5021 C 475.685 1.30665 3.23616 0
M  V30 5022 C 477.033 1.43098 3.9976 0
M  V30 5023 O 478.057 1.26396 3.3302 0
M  V30 5024 O 476.916 1.70223 5.19313 0
M  V30 5025 H 474.01 0.223573 0.796206 0
M  V30 5026 H 476.556 1.12883 1.26711 0
M  V30 5027 H 475.328 2.34544 3.13217 0
M  V30 5028 H 474.951 0.808405 3.89295 0
M  V30 5029 N 475.948 -1.35272 0.808662 0
M  V30 5030 C 476.881 -2.27595 0.165994 0
M  V30 5031 C 477.859 -1.48189 -0.669241 0
M  V30 5032 O 479.043 -1.77444 -0.636073 0
M  V30 5033 C 476.17 -3.29843 -0.769505 0
M  V30 5034 C 475.216 -4.26498 -0.0136267 0
M  V30 5035 S 476.049 -5.18878 1.32384 0
M  V30 5036 C 477.205 -6.24666 0.392838 0
M  V30 5037 H 477.438 -2.81755 0.948756 0
M  V30 5038 H 474.971 -1.42103 0.603828 0
M  V30 5039 H 476.929 -3.89247 -1.30374 0
M  V30 5040 H 475.59 -2.74558 -1.52567 0
M  V30 5041 H 474.783 -4.98769 -0.724227 0
M  V30 5042 H 474.385 -3.71274 0.450713 0
M  V30 5043 H 476.677 -6.7619 -0.4211 0
M  V30 5044 H 477.62 -6.99741 1.0848 0
M  V30 5045 H 478.028 -5.64499 -0.0123908 0
M  V30 5046 N 477.426 -0.562348 -1.47226 0
M  V30 5047 C 478.675 -0.038041 -2.01664 0
M  V30 5048 C 478.988 1.32199 -1.44162 0
M  V30 5049 O 480.194 1.9365 -1.90294 0
M  V30 5050 C 478.65 -0.0174958 -3.59896 0
M  V30 5051 C 478.258 -1.3746 -4.2639 0
M  V30 5052 C 480.002 0.453934 -4.22066 0
M  V30 5053 C 477.909 -1.31289 -5.76643 0
M  V30 5054 H 476.839 -0.0104511 -0.753928 0
M  V30 5055 H 479.49 -0.710966 -1.69167 0
M  V30 5056 H 477.872 0.721182 -3.89378 0
M  V30 5057 H 479.046 -2.1314 -4.08544 0
M  V30 5058 H 477.361 -1.78438 -3.7623 0
M  V30 5059 H 479.958 0.518584 -5.32179 0
M  V30 5060 H 480.301 1.46706 -3.89594 0
M  V30 5061 H 480.834 -0.230044 -3.97134 0
M  V30 5062 H 477.573 -2.30217 -6.13743 0
M  V30 5063 H 477.093 -0.597973 -5.96812 0
M  V30 5064 H 478.772 -1.01713 -6.38955 0
M  V30 5065 N 478.904 1.54736 -0.299062 0
M  V30 5066 C 479.834 2.26409 0.571085 0
M  V30 5067 C 480.815 1.2629 1.13951 0
M  V30 5068 O 482 1.55059 1.16921 0
M  V30 5069 C 479.13 3.00338 1.74396 0
M  V30 5070 C 478.084 4.07588 1.30599 0
M  V30 5071 C 477.41 4.69222 2.56387 0
M  V30 5072 C 478.71 5.20455 0.438645 0
M  V30 5073 H 480.404 2.99388 -0.0266991 0
M  V30 5074 H 477.95 1.43993 -0.0142812 0
M  V30 5075 H 479.903 3.49198 2.35878 0
M  V30 5076 H 478.627 2.24934 2.36796 0
M  V30 5077 H 477.286 3.59575 0.71424 0
M  V30 5078 H 476.934 3.9046 3.17097 0
M  V30 5079 H 476.634 5.41653 2.27784 0
M  V30 5080 H 478.158 5.20844 3.18675 0
M  V30 5081 H 479.572 5.65221 0.959085 0
M  V30 5082 H 477.969 5.99594 0.246466 0
M  V30 5083 H 479.039 4.8192 -0.536738 0
M  V30 5084 N 480.382 0.0267497 1.57577 0
M  V30 5085 C 481.312 -0.954308 2.13108 0
M  V30 5086 C 482.293 -1.34088 1.04663 0
M  V30 5087 O 483.478 -1.41992 1.32484 0
M  V30 5088 C 480.608 -2.23744 2.65624 0
M  V30 5089 C 479.562 -1.99168 3.78835 0
M  V30 5090 C 478.888 -3.33726 4.17769 0
M  V30 5091 C 480.188 -1.33277 5.0501 0
M  V30 5092 H 481.882 -0.491848 2.95332 0
M  V30 5093 H 479.428 -0.23514 1.42067 0
M  V30 5094 H 481.381 -2.92754 3.03106 0
M  V30 5095 H 480.105 -2.72151 1.80558 0
M  V30 5096 H 478.764 -1.32577 3.41788 0
M  V30 5097 H 478.412 -3.79888 3.29688 0
M  V30 5098 H 478.112 -3.18089 4.94058 0
M  V30 5099 H 479.636 -4.04008 4.57832 0
M  V30 5100 H 481.05 -1.92283 5.40093 0
M  V30 5101 H 479.447 -1.28045 5.8628 0
M  V30 5102 H 480.517 -0.305411 4.83937 0
M  V30 5103 N 481.861 -1.55662 -0.24637 0
M  V30 5104 C 483.277 -1.48098 -0.594907 0
M  V30 5105 C 483.477 -0.717044 -1.8831 0
M  V30 5106 O 482.533 -0.246618 -2.51293 0
M  V30 5107 C 483.846 -2.92507 -0.697146 0
M  V30 5108 C 485.394 -3.02881 -0.789436 0
M  V30 5109 C 485.869 -4.48598 -0.923232 0
M  V30 5110 N 487.36 -4.52538 -0.988088 0
M  V30 5111 C 488.095 -5.62536 -1.11089 0
M  V30 5112 N 487.591 -6.82342 -1.19919 0
M  V30 5113 N 489.384 -5.50334 -1.14408 0
M  V30 5114 H 481.535 -2.0377 0.599278 0
M  V30 5115 H 483.798 -0.925145 0.20691 0
M  V30 5116 H 483.504 -3.51242 0.179396 0
M  V30 5117 H 483.378 -3.43024 -1.5689 0
M  V30 5118 H 485.765 -2.44226 -1.65643 0
M  V30 5119 H 485.846 -2.55574 0.107482 0
M  V30 5120 H 485.49 -5.07864 -0.0607927 0
M  V30 5121 H 485.42 -4.93587 -1.8352 0
M  V30 5122 H 487.911 -3.66248 -0.931167 0
M  V30 5123 H 488.224 -7.61924 -1.29197 0
M  V30 5124 H 486.569 -6.85102 -1.16876 0
M  V30 5125 H 489.76 -4.5567 -1.07158 0
M  V30 5126 H 489.933 -6.36096 -1.23634 0
M  V30 5127 N 483.339 0.512053 -1.4905 0
M  V30 5128 C 484.564 1.2959 -1.6193 0
M  V30 5129 C 484.989 1.85906 -0.286454 0
M  V30 5130 O 484.347 1.65312 0.744426 0
M  V30 5131 C 484.395 2.40987 -2.68249 0
M  V30 5132 O 483.499 3.44531 -2.26654 0
M  V30 5133 H 482.84 0.383053 -0.542371 0
M  V30 5134 H 485.37 0.614231 -1.95162 0
M  V30 5135 H 485.38 2.86913 -2.90078 0
M  V30 5136 H 484.055 1.99361 -3.65004 0
M  V30 5137 H 482.632 3.046 -2.15112 0
M  V30 5138 N 484.817 1.37938 0.762283 0
M  V30 5139 C 486.065 1.33404 1.51815 0
M  V30 5140 C 486.386 -0.0780975 1.94844 0
M  V30 5141 O 485.656 -1.02405 1.67003 0
M  V30 5142 H 484.236 0.490839 0.563104 0
M  V30 5143 H 486.898 1.72527 0.906669 0
M  V30 5144 H 485.994 1.97926 2.41313 0
M  V30 5145 N 486.295 -0.989507 1.22664 0
M  V30 5146 C 487.243 -2.10148 0.997035 0
M  V30 5147 C 488.237 -1.6929 -0.0609783 0
M  V30 5148 O 489.443 -1.79766 0.0917523 0
M  V30 5149 H 485.818 -0.687256 0.305259 0
M  V30 5150 H 487.789 -2.26685 1.94053 0
M  V30 5151 C 486.538 -3.4257 0.595085 0
M  V30 5152 H 485.861 -3.74453 1.40089 0
M  V30 5153 H 487.301 -4.21344 0.473869 0
M  V30 5154 C 485.76 -3.29638 -0.695725 0
M  V30 5155 O 486.29 -3.61709 -1.74727 0
M  V30 5156 N 484.496 -2.82814 -0.668173 0
M  V30 5157 H 484.043 -2.56914 0.18787 0
M  V30 5158 H 484.001 -2.74544 -1.5321 0
M  V30 5159 N 487.773 -1.03688 -1.18687 0
M  V30 5160 C 489.019 -0.74888 -1.89112 0
M  V30 5161 C 489.374 0.715345 -1.78607 0
M  V30 5162 O 488.667 1.51498 -1.17299 0
M  V30 5163 C 488.861 -1.14477 -3.3857 0
M  V30 5164 C 488.69 -2.64594 -3.63621 0
M  V30 5165 C 487.46 -3.31685 -3.812 0
M  V30 5166 C 489.658 -3.62811 -3.64517 0
M  V30 5167 N 487.64 -4.70822 -3.93955 0
M  V30 5168 C 489.011 -4.87603 -3.8294 0
M  V30 5169 C 491.066 -3.56495 -3.47585 0
M  V30 5170 C 489.769 -6.0684 -3.86184 0
M  V30 5171 C 491.795 -4.75155 -3.52111 0
M  V30 5172 C 491.157 -5.98765 -3.71026 0
M  V30 5173 H 487.256 -0.32603 -0.710794 0
M  V30 5174 H 489.84 -1.3258 -1.42586 0
M  V30 5175 H 488.011 -0.595974 -3.838 0
M  V30 5176 H 489.743 -0.808187 -3.96548 0
M  V30 5177 H 486.498 -2.82091 -3.80423 0
M  V30 5178 H 486.922 -5.43122 -4.04163 0
M  V30 5179 H 491.564 -2.61907 -3.31911 0
M  V30 5180 H 489.282 -7.01788 -4.00648 0
M  V30 5181 H 492.868 -4.71905 -3.40289 0
M  V30 5182 H 491.748 -6.89047 -3.74412 0
M  V30 5183 N 489.251 1.34841 -0.815825 0
M  V30 5184 C 490.161 2.33425 -0.234462 0
M  V30 5185 C 491.177 1.62295 0.627413 0
M  V30 5186 O 492.353 1.94109 0.536987 0
M  V30 5187 C 489.418 3.41471 0.599849 0
M  V30 5188 C 488.479 4.28362 -0.283596 0
M  V30 5189 C 487.712 5.31248 0.51099 0
M  V30 5190 O 487.935 5.43056 1.7449 0
M  V30 5191 O 486.869 6.01812 -0.10297 0
M  V30 5192 H 490.695 2.84962 -1.05024 0
M  V30 5193 H 488.28 1.37774 -0.577809 0
M  V30 5194 H 490.162 4.07464 1.07475 0
M  V30 5195 H 488.837 2.9219 1.39308 0
M  V30 5196 H 487.744 3.65318 -0.805836 0
M  V30 5197 H 489.077 4.81066 -1.041 0
M  V30 5198 N 490.729 0.570148 1.46925 0
M  V30 5199 C 491.659 -0.158274 2.32963 0
M  V30 5200 C 492.64 -0.896093 1.44583 0
M  V30 5201 O 493.825 -0.874022 1.7342 0
M  V30 5202 C 490.955 -1.18055 3.26619 0
M  V30 5203 C 489.909 -0.558379 4.24342 0
M  V30 5204 C 489.235 -1.68623 5.07415 0
M  V30 5205 C 490.535 0.496295 5.19937 0
M  V30 5206 H 492.229 0.560046 2.94115 0
M  V30 5207 H 489.775 0.270775 1.41431 0
M  V30 5208 H 491.728 -1.69841 3.85658 0
M  V30 5209 H 490.452 -1.92899 2.63548 0
M  V30 5210 H 489.111 -0.0617157 3.66548 0
M  V30 5211 H 488.759 -2.42402 4.40738 0
M  V30 5212 H 488.459 -1.27564 5.73586 0
M  V30 5213 H 489.983 -2.20709 5.69315 0
M  V30 5214 H 491.397 0.0640052 5.73264 0
M  V30 5215 H 489.794 0.82649 5.94381 0
M  V30 5216 H 490.864 1.38735 4.6463 0
M  V30 5217 N 492.207 -1.54576 0.307264 0
M  V30 5218 C 493.117 -2.27435 -0.57536 0
M  V30 5219 C 494.133 -1.31183 -1.14311 0
M  V30 5220 O 495.309 -1.64175 -1.16656 0
M  V30 5221 C 492.374 -3.00566 -1.72803 0
M  V30 5222 C 491.435 -4.12369 -1.19373 0
M  V30 5223 C 490.668 -4.82003 -2.29147 0
M  V30 5224 O 490.891 -4.51038 -3.49171 0
M  V30 5225 O 489.825 -5.69271 -1.95485 0
M  V30 5226 H 493.651 -3.03696 0.0158558 0
M  V30 5227 H 491.236 -1.49219 0.0735064 0
M  V30 5228 H 493.118 -3.46416 -2.39946 0
M  V30 5229 H 491.793 -2.27195 -2.30574 0
M  V30 5230 H 490.7 -3.70905 -0.487851 0
M  V30 5231 H 492.033 -4.87736 -0.661376 0
M  V30 5232 N 493.685 -0.035106 -1.57561 0
M  V30 5233 C 494.913 0.652258 -1.9635 0
M  V30 5234 C 495.328 1.65317 -0.911897 0
M  V30 5235 O 494.685 1.82194 0.105657 0
M  V30 5236 C 494.736 1.35337 -3.35211 0
M  V30 5237 O 494.457 0.392548 -4.36338 0
M  V30 5238 C 495.958 2.13199 -3.88666 0
M  V30 5239 H 493.178 0.179444 -0.646561 0
M  V30 5240 H 495.722 -0.0966459 -2.04271 0
M  V30 5241 H 493.877 2.05362 -3.28489 0
M  V30 5242 H 494.291 0.891097 -5.16875 0
M  V30 5243 H 495.765 2.577 -4.88154 0
M  V30 5244 H 496.242 2.97353 -3.23231 0
M  V30 5245 H 496.848 1.48118 -3.98674 0
M  V30 5246 N 495.163 1.55791 0.238111 0
M  V30 5247 C 496.391 1.82098 0.982233 0
M  V30 5248 C 496.806 0.612025 1.78605 0
M  V30 5249 O 496.163 -0.419381 1.77616 0
M  V30 5250 C 496.214 3.0673 1.91309 0
M  V30 5251 O 495.935 4.2296 1.14179 0
M  V30 5252 C 497.436 3.45903 2.77248 0
M  V30 5253 H 494.656 0.605748 0.288635 0
M  V30 5254 H 497.2 2.02862 0.258341 0
M  V30 5255 H 495.355 2.87991 2.59114 0
M  V30 5256 H 495.769 4.93653 1.7722 0
M  V30 5257 H 497.243 4.36189 3.38295 0
M  V30 5258 H 497.72 2.66891 3.48806 0
M  V30 5259 H 498.326 3.67024 2.14881 0
M  V30 5260 N 496.642 -0.504142 1.49319 0
M  V30 5261 C 498.058 -0.835039 1.36012 0
M  V30 5262 C 498.258 -1.97674 0.390808 0
M  V30 5263 O 497.314 -2.51867 -0.178655 0
M  V30 5264 C 498.627 -1.17821 2.76656 0
M  V30 5265 C 500.175 -1.2866 2.85334 0
M  V30 5266 C 500.65 -1.66307 4.26739 0
M  V30 5267 N 502.141 -1.73362 4.29534 0
M  V30 5268 C 502.876 -2.0393 5.35911 0
M  V30 5269 N 502.372 -2.32744 6.52535 0
M  V30 5270 N 504.165 -2.05155 5.23324 0
M  V30 5271 H 496.316 0.248764 2.10938 0
M  V30 5272 H 498.579 0.0486962 0.946748 0
M  V30 5273 H 498.285 -0.412682 3.4927 0
M  V30 5274 H 498.159 -2.12239 3.11825 0
M  V30 5275 H 500.546 -2.04285 2.1296 0
M  V30 5276 H 500.627 -0.323004 2.53752 0
M  V30 5277 H 500.271 -0.91234 4.99639 0
M  V30 5278 H 500.201 -2.63761 4.55782 0
M  V30 5279 H 502.692 -1.53268 3.45424 0
M  V30 5280 H 503.005 -2.55248 7.2943 0
M  V30 5281 H 501.35 -2.30207 6.55767 0
M  V30 5282 H 504.541 -1.82119 4.3122 0
M  V30 5283 H 504.714 -2.28644 6.06322 0
M  V30 5284 N 498.12 -1.38341 -0.754957 0
M  V30 5285 C 499.068 -1.35573 -1.89005 0
M  V30 5286 C 500.062 -0.241824 -1.67665 0
M  V30 5287 O 501.268 -0.410785 -1.7525 0
M  V30 5288 H 497.643 -0.422898 -0.621821 0
M  V30 5289 H 499.614 -2.31359 -1.88455 0
M  V30 5290 C 498.363 -1.19631 -3.26471 0
M  V30 5291 H 497.686 -2.04605 -3.43477 0
M  V30 5292 H 499.126 -1.21748 -4.06144 0
M  V30 5293 C 497.585 0.0968705 -3.36761 0
M  V30 5294 O 498.115 1.07439 -3.87066 0
M  V30 5295 N 496.321 0.153242 -2.90196 0
M  V30 5296 H 495.868 -0.642908 -2.49448 0
M  V30 5297 H 495.826 1.01807 -2.9746 0
M  V30 5298 N 499.598 0.982988 -1.23187 0
M  V30 5299 C 500.546 2.09616 -1.00817 0
M  V30 5300 C 501.54 1.6932 0.0519995 0
M  V30 5301 O 502.746 1.79715 -0.101284 0
M  V30 5302 H 499.121 0.685628 -0.308899 0
M  V30 5303 H 501.092 2.25652 -1.95253 0
M  V30 5304 C 499.841 3.42249 -0.613243 0
M  V30 5305 H 499.164 3.73705 -1.42073 0
M  V30 5306 H 500.604 4.21086 -0.496208 0
M  V30 5307 C 499.063 3.30002 0.678233 0
M  V30 5308 O 499.593 3.6263 1.72807 0
M  V30 5309 N 497.799 2.83164 0.653165 0
M  V30 5310 H 497.346 2.56811 -0.201492 0
M  V30 5311 H 497.304 2.75352 1.51752 0
M  V30 5312 N 501.076 1.04316 1.18135 0
M  V30 5313 C 502.353 0.662166 1.84051 0
M  V30 5314 C 502.733 -0.858169 1.9287 0
M  V30 5315 O 502.081 -1.76062 1.45652 0
M  V30 5316 C 502.291 1.3409 3.22212 0
M  V30 5317 C 503.639 1.4733 3.9822 0
M  V30 5318 O 504.663 1.29921 3.31661 0
M  V30 5319 O 503.522 1.75722 5.17479 0
M  V30 5320 H 500.616 0.232005 0.79379 0
M  V30 5321 H 503.162 1.1422 1.25506 0
M  V30 5322 H 501.934 2.37853 3.10711 0
M  V30 5323 H 501.557 0.849649 3.88416 0
M  V30 5324 N 502.554 -1.34406 0.822964 0
M  V30 5325 C 503.802 -1.97892 0.410245 0
M  V30 5326 C 504.123 -1.65567 -1.03017 0
M  V30 5327 O 503.393 -0.94642 -1.71522 0
M  V30 5328 H 501.973 -0.732049 0.148707 0
M  V30 5329 H 504.635 -1.64043 1.05242 0
M  V30 5330 H 503.731 -3.07579 0.529284 0
M  V30 5331 N 504.032 -0.577932 -1.46621 0
M  V30 5332 C 504.962 0.145917 -2.33044 0
M  V30 5333 C 505.943 0.888412 -1.45056 0
M  V30 5334 O 507.128 0.864812 -1.73881 0
M  V30 5335 C 504.258 1.16322 -3.27241 0
M  V30 5336 C 503.212 0.535868 -4.24632 0
M  V30 5337 C 502.538 1.65929 -5.08303 0
M  V30 5338 C 503.838 -0.523861 -5.19666 0
M  V30 5339 H 505.532 -0.575636 -2.93814 0
M  V30 5340 H 503.078 -0.278272 -1.41286 0
M  V30 5341 H 505.031 1.67793 -3.86553 0
M  V30 5342 H 503.755 1.91498 -2.64567 0
M  V30 5343 H 502.414 0.0422759 -3.66576 0
M  V30 5344 H 502.062 2.40061 -4.42018 0
M  V30 5345 H 501.762 1.2452 -5.74255 0
M  V30 5346 H 503.286 2.17686 -5.70478 0
M  V30 5347 H 504.7 -0.0944059 -5.73222 0
M  V30 5348 H 503.097 -0.858 -5.93935 0
M  V30 5349 H 504.167 -1.41197 -4.63887 0
M  V30 5350 N 505.51 1.54411 -0.315457 0
M  V30 5351 C 506.738 2.04833 0.291738 0
M  V30 5352 C 507.153 1.19203 1.46411 0
M  V30 5353 O 506.51 0.220867 1.81159 0
M  V30 5354 C 506.561 3.53969 0.73404 0
M  V30 5355 O 506.282 4.36346 -0.391682 0
M  V30 5356 C 507.783 4.2045 1.40489 0
M  V30 5357 H 505.003 0.668195 0.0612947 0
M  V30 5358 H 507.547 1.99276 -0.45929 0
M  V30 5359 H 505.702 3.5984 1.43506 0
M  V30 5360 H 506.116 5.24481 -0.0447088 0
M  V30 5361 H 507.59 5.26278 1.66539 0
M  V30 5362 H 508.067 3.71067 2.3496 0
M  V30 5363 H 508.673 4.18694 0.746662 0
M  V30 5364 N 506.988 0.0434614 1.5754 0
M  V30 5365 C 508.399 -0.493343 1.80064 0
M  V30 5366 C 508.75 -1.71388 0.955023 0
M  V30 5367 O 507.875 -2.15736 0.169434 0
M  V30 5368 C 508.47 -0.90179 3.26578 0
M  V30 5369 C 507.029 -1.38362 3.50047 0
M  V30 5370 C 506.176 -0.355129 2.75017 0
M  V30 5371 H 509.127 0.2694 1.56397 0
M  V30 5372 H 509.148 -1.76523 3.37075 0
M  V30 5373 H 508.66 -0.013271 3.88098 0
M  V30 5374 H 506.761 -2.29159 2.93798 0
M  V30 5375 H 506.874 -1.3811 4.58762 0
M  V30 5376 H 505.238 -0.826348 2.40922 0
M  V30 5377 H 506.021 0.525172 3.39259 0
M  V30 5378 N 508.466 -1.55915 -0.229846 0
M  V30 5379 C 509.396 -1.94754 -1.28815 0
M  V30 5380 C 510.377 -0.814657 -1.49323 0
M  V30 5381 O 511.562 -1.07631 -1.61645 0
M  V30 5382 C 508.692 -2.25705 -2.63959 0
M  V30 5383 C 507.646 -3.41406 -2.5812 0
M  V30 5384 C 506.972 -3.57941 -3.97218 0
M  V30 5385 C 508.272 -4.76616 -2.13623 0
M  V30 5386 H 509.966 -2.83404 -0.965547 0
M  V30 5387 H 507.512 -1.36353 -0.463028 0
M  V30 5388 H 509.465 -2.51467 -3.38146 0
M  V30 5389 H 508.189 -1.339 -2.9789 0
M  V30 5390 H 506.848 -3.1568 -1.86391 0
M  V30 5391 H 506.496 -2.63526 -4.28443 0
M  V30 5392 H 506.196 -4.35757 -3.94195 0
M  V30 5393 H 507.72 -3.86042 -4.73079 0
M  V30 5394 H 509.134 -5.01637 -2.77549 0
M  V30 5395 H 507.531 -5.57655 -2.21677 0
M  V30 5396 H 508.601 -4.7253 -1.08829 0
M  V30 5397 N 509.944 0.496216 -1.49584 0
M  V30 5398 C 510.876 1.61404 -1.62731 0
M  V30 5399 C 511.889 1.54613 -0.50978 0
M  V30 5400 O 513.078 1.60458 -0.782017 0
M  V30 5401 C 510.178 3.00212 -1.57245 0
M  V30 5402 C 509.351 3.32138 -2.84611 0
M  V30 5403 C 508.41 4.5038 -2.72112 0
M  V30 5404 O 507.436 4.51926 -3.46051 0
M  V30 5405 N 508.638 5.50575 -1.83977 0
M  V30 5406 H 511.403 1.50552 -2.59141 0
M  V30 5407 H 508.964 0.684182 -1.46733 0
M  V30 5408 H 510.956 3.77241 -1.4653 0
M  V30 5409 H 509.526 3.04964 -0.686729 0
M  V30 5410 H 508.746 2.4396 -3.09641 0
M  V30 5411 H 510.034 3.50268 -3.69039 0
M  V30 5412 H 509.432 5.52128 -1.23171 0
M  V30 5413 H 507.989 6.26687 -1.79182 0
M  V30 5414 N 511.423 1.38739 0.74761 0
M  V30 5415 C 512.353 1.39173 1.87492 0
M  V30 5416 C 513.334 0.256794 1.6815 0
M  V30 5417 O 514.519 0.460762 1.88655 0
M  V30 5418 C 511.649 1.22197 3.25093 0
M  V30 5419 C 510.603 2.32957 3.59047 0
M  V30 5420 C 509.929 2.01082 4.95449 0
M  V30 5421 C 511.229 3.75237 3.6331 0
M  V30 5422 H 512.923 2.3351 1.87386 0
M  V30 5423 H 510.469 1.12399 0.900134 0
M  V30 5424 H 512.422 1.21124 4.03617 0
M  V30 5425 H 511.146 0.243241 3.25693 0
M  V30 5426 H 509.805 2.33226 2.82845 0
M  V30 5427 H 509.453 1.01678 4.92616 0
M  V30 5428 H 509.153 2.75267 5.19136 0
M  V30 5429 H 510.677 2.01638 5.76346 0
M  V30 5430 H 512.091 3.76966 4.31937 0
M  V30 5431 H 510.488 4.48677 3.98509 0
M  V30 5432 H 511.558 4.07122 2.634 0
M  V30 5433 N 512.901 -0.976442 1.23707 0
M  V30 5434 C 513.864 -2.0511 1.02287 0
M  V30 5435 C 514.864 -1.60791 -0.0167195 0
M  V30 5436 O 516.054 -1.72761 0.223408 0
M  V30 5437 C 513.186 -3.36458 0.548507 0
M  V30 5438 H 514.379 -2.25545 1.9766 0
M  V30 5439 H 511.932 -1.15042 1.05806 0
M  V30 5440 H 512.667 -3.21713 -0.408818 0
M  V30 5441 H 512.452 -3.69967 1.29874 0
M  V30 5442 H 513.942 -4.15489 0.419406 0
M  V30 5443 N 514.379 -1.04941 -1.1758 0
M  V30 5444 C 515.342 -0.652456 -2.19717 0
M  V30 5445 C 516.342 0.294745 -1.58076 0
M  V30 5446 O 517.532 0.0789579 -1.74021 0
M  V30 5447 C 514.664 0.0420712 -3.40874 0
M  V30 5448 H 515.857 -1.55642 -2.5635 0
M  V30 5449 H 513.41 -0.842995 -1.31618 0
M  V30 5450 H 514.145 0.95943 -3.09783 0
M  V30 5451 H 513.93 -0.638844 -3.86861 0
M  V30 5452 H 515.42 0.306 -4.16477 0
M  V30 5453 N 515.857 1.33968 -0.830081 0
M  V30 5454 C 516.804 2.29387 -0.255008 0
M  V30 5455 C 517.774 1.53923 0.624243 0
M  V30 5456 O 518.959 1.82262 0.564372 0
M  V30 5457 C 516.099 3.4034 0.571209 0
M  V30 5458 C 515.212 4.30729 -0.331083 0
M  V30 5459 C 514.347 5.2879 0.505389 0
M  V30 5460 C 513.386 6.10819 -0.395843 0
M  V30 5461 N 512.523 7.00948 0.401979 0
M  V30 5462 H 517.363 2.77972 -1.07404 0
M  V30 5463 H 514.9 1.36785 -0.541133 0
M  V30 5464 H 516.858 4.03361 1.06562 0
M  V30 5465 H 515.488 2.9297 1.35529 0
M  V30 5466 H 514.54 3.68507 -0.943759 0
M  V30 5467 H 515.852 4.88181 -1.02377 0
M  V30 5468 H 515.006 5.97297 1.06399 0
M  V30 5469 H 513.745 4.71894 1.23155 0
M  V30 5470 H 512.75 5.41238 -0.966529 0
M  V30 5471 H 513.975 6.69797 -1.12023 0
M  V30 5472 H 511.921 6.46512 1.11168 0
M  V30 5473 H 511.838 7.55643 -0.232167 0
M  V30 5474 H 513.106 7.73774 0.943102 0
M  V30 5475 N 517.335 0.585699 1.46312 0
M  V30 5476 C 518.268 -0.194257 2.27372 0
M  V30 5477 C 519.246 -0.894116 1.3581 0
M  V30 5478 O 520.43 -0.907402 1.65222 0
M  V30 5479 C 517.557 -1.27901 3.13622 0
M  V30 5480 C 516.603 -0.684666 4.20969 0
M  V30 5481 S 517.436 0.490745 5.33247 0
M  V30 5482 C 518.592 -0.595137 6.23064 0
M  V30 5483 H 518.825 0.493515 2.93175 0
M  V30 5484 H 516.358 0.372666 1.49835 0
M  V30 5485 H 518.316 -1.90008 3.63878 0
M  V30 5486 H 516.977 -1.93875 2.47126 0
M  V30 5487 H 516.17 -1.50015 4.81156 0
M  V30 5488 H 515.772 -0.139204 3.73741 0
M  V30 5489 H 518.064 -1.48002 6.61137 0
M  V30 5490 H 519.007 -0.0299446 7.08094 0
M  V30 5491 H 519.415 -0.900627 5.57269 0
M  V30 5492 N 518.813 -1.54241 0.323641 0
M  V30 5493 C 520.061 -2.00174 -0.278359 0
M  V30 5494 C 520.382 -1.2134 -1.52648 0
M  V30 5495 O 519.652 -0.315244 -1.93347 0
M  V30 5496 H 518.232 -0.739463 -0.105845 0
M  V30 5497 H 520.894 -1.89864 0.440204 0
M  V30 5498 H 519.99 -3.07486 -0.5347 0
M  V30 5499 N 520.291 -0.0518155 -1.57515 0
M  V30 5500 C 521.238 0.922352 -2.11569 0
M  V30 5501 C 522.208 1.30842 -1.02321 0
M  V30 5502 O 523.393 1.39778 -1.29872 0
M  V30 5503 C 520.533 2.19167 -2.6657 0
M  V30 5504 C 519.646 1.86003 -3.89906 0
M  V30 5505 C 518.781 3.07398 -4.33221 0
M  V30 5506 C 517.82 2.70158 -5.49255 0
M  V30 5507 N 516.957 3.84248 -5.8762 0
M  V30 5508 H 521.797 0.454506 -2.94514 0
M  V30 5509 H 519.334 0.212718 -1.45554 0
M  V30 5510 H 521.292 2.93443 -2.96559 0
M  V30 5511 H 519.922 2.63528 -1.86421 0
M  V30 5512 H 518.974 1.01874 -3.66505 0
M  V30 5513 H 520.286 1.54592 -4.74239 0
M  V30 5514 H 519.44 3.89972 -4.64765 0
M  V30 5515 H 518.179 3.41988 -3.477 0
M  V30 5516 H 517.184 1.86001 -5.17382 0
M  V30 5517 H 518.409 2.36759 -6.36492 0
M  V30 5518 H 516.355 4.18638 -5.05053 0
M  V30 5519 H 516.272 3.56538 -6.66646 0
M  V30 5520 H 517.54 4.6746 -6.2378 0
M  V30 5521 N 521.769 1.56035 0.221574 0
M  V30 5522 C 522.732 1.91584 1.2581 0
M  V30 5523 C 523.732 0.794425 1.39805 0
M  V30 5524 O 524.922 1.06217 1.38071 0
M  V30 5525 C 522.054 2.16663 2.63192 0
M  V30 5526 H 523.247 2.8429 0.954935 0
M  V30 5527 H 520.8 1.49316 0.461988 0
M  V30 5528 H 521.535 1.26508 2.98607 0
M  V30 5529 H 521.32 2.98358 2.5441 0
M  V30 5530 H 522.81 2.45262 3.37988 0
M  V30 5531 N 523.247 -0.488276 1.49845 0
M  V30 5532 C 524.157 -1.61451 1.70207 0
M  V30 5533 C 525.173 -1.63877 0.584846 0
M  V30 5534 O 526.349 -1.82063 0.861107 0
M  V30 5535 C 523.414 -2.9776 1.77594 0
M  V30 5536 C 522.475 -3.05861 3.01243 0
M  V30 5537 C 521.708 -4.35668 3.08268 0
M  V30 5538 O 521.931 -5.25197 2.22541 0
M  V30 5539 O 520.865 -4.49005 4.00847 0
M  V30 5540 H 524.691 -1.47199 2.65643 0
M  V30 5541 H 522.276 -0.665939 1.33737 0
M  V30 5542 H 524.158 -3.7875 1.84732 0
M  V30 5543 H 522.833 -3.12248 0.8534 0
M  V30 5544 H 521.74 -2.24012 2.99616 0
M  V30 5545 H 523.073 -2.96304 3.9302 0
M  V30 5546 N 524.725 -1.39134 -0.740242 0
M  V30 5547 C 525.974 -1.35384 -1.49512 0
M  V30 5548 C 526.287 0.04919 -1.95538 0
M  V30 5549 O 527.493 0.209257 -2.70692 0
M  V30 5550 C 525.949 -2.37812 -2.70136 0
M  V30 5551 C 525.557 -3.83804 -2.31081 0
M  V30 5552 C 527.301 -2.4313 -3.47977 0
M  V30 5553 C 525.208 -4.77886 -3.48395 0
M  V30 5554 H 524.138 -0.503297 -0.561434 0
M  V30 5555 H 526.789 -1.64754 -0.807974 0
M  V30 5556 H 525.171 -2.01505 -3.40899 0
M  V30 5557 H 526.345 -4.29123 -1.67898 0
M  V30 5558 H 524.66 -3.81732 -1.66343 0
M  V30 5559 H 527.257 -3.10614 -4.35228 0
M  V30 5560 H 527.6 -1.45423 -3.90074 0
M  V30 5561 H 528.133 -2.78304 -2.84239 0
M  V30 5562 H 524.872 -5.76836 -3.11353 0
M  V30 5563 H 524.392 -4.3725 -4.10576 0
M  V30 5564 H 526.071 -4.96538 -4.148 0
M  V30 5565 N 526.204 0.969867 -1.24223 0
M  V30 5566 C 527.134 2.08191 -1.05729 0
M  V30 5567 C 528.115 1.70075 0.0290765 0
M  V30 5568 O 529.3 1.93712 -0.137583 0
M  V30 5569 C 526.43 3.40991 -0.658995 0
M  V30 5570 C 525.384 3.93054 -1.69389 0
M  V30 5571 C 524.71 5.22171 -1.15072 0
M  V30 5572 C 526.01 4.21137 -3.08935 0
M  V30 5573 H 527.704 2.23921 -1.98746 0
M  V30 5574 H 525.25 1.07602 -0.956967 0
M  V30 5575 H 527.203 4.18221 -0.51662 0
M  V30 5576 H 525.927 3.25155 0.30686 0
M  V30 5577 H 524.586 3.17977 -1.82444 0
M  V30 5578 H 524.234 5.02694 -0.175539 0
M  V30 5579 H 523.934 5.57973 -1.84229 0
M  V30 5580 H 525.458 6.02013 -1.02042 0
M  V30 5581 H 526.872 4.8908 -2.99121 0
M  V30 5582 H 525.269 4.68163 -3.75425 0
M  V30 5583 H 526.339 3.27996 -3.57137 0
M  V30 5584 N 527.682 1.05563 1.17022 0
M  V30 5585 C 528.629 0.659893 2.21165 0
M  V30 5586 C 529.599 -0.339813 1.62587 0
M  V30 5587 O 530.784 -0.230378 1.89404 0
M  V30 5588 C 527.924 0.0447297 3.45071 0
M  V30 5589 C 527.037 1.09372 4.17926 0
M  V30 5590 C 526.172 0.445481 5.29329 0
M  V30 5591 C 525.211 1.47852 5.93975 0
M  V30 5592 N 524.348 0.854172 6.96885 0
M  V30 5593 H 529.188 1.55243 2.54369 0
M  V30 5594 H 526.725 0.776336 1.24946 0
M  V30 5595 H 528.683 -0.329404 4.15898 0
M  V30 5596 H 527.313 -0.811244 3.1244 0
M  V30 5597 H 526.365 1.58564 3.45777 0
M  V30 5598 H 527.677 1.87773 4.62107 0
M  V30 5599 H 526.831 0.0179688 6.06697 0
M  V30 5600 H 525.57 -0.370481 4.86291 0
M  V30 5601 H 524.575 1.91601 5.15334 0
M  V30 5602 H 525.8 2.29645 6.39093 0
M  V30 5603 H 523.746 0.0587882 6.55974 0
M  V30 5604 H 523.663 1.57567 7.39397 0
M  V30 5605 H 524.931 0.451559 7.78191 0
M  V30 5606 N 529.16 -1.33526 0.837174 0
M  V30 5607 C 530.39 -2.01754 0.444848 0
M  V30 5608 C 530.798 -1.63149 -0.958072 0
M  V30 5609 O 530.141 -0.839827 -1.63379 0
M  V30 5610 C 530.203 -3.56228 0.483917 0
M  V30 5611 C 529.867 -4.18205 1.84265 0
M  V30 5612 C 530.864 -4.37699 2.80563 0
M  V30 5613 C 528.549 -4.54667 2.13503 0
M  V30 5614 C 530.543 -4.928 4.04261 0
M  V30 5615 C 528.23 -5.09475 3.37458 0
M  V30 5616 C 529.228 -5.28488 4.32654 0
M  V30 5617 O 528.916 -5.82132 5.54417 0
M  V30 5618 H 528.648 -0.652928 0.175104 0
M  V30 5619 H 531.202 -1.71469 1.13082 0
M  V30 5620 H 529.432 -3.85833 -0.258826 0
M  V30 5621 H 531.121 -4.05752 0.109653 0
M  V30 5622 H 531.887 -4.0988 2.59274 0
M  V30 5623 H 527.766 -4.39164 1.40201 0
M  V30 5624 H 531.31 -5.07555 4.78574 0
M  V30 5625 H 527.207 -5.36725 3.58604 0
M  V30 5626 H 527.975 -6.00548 5.56133 0
M  V30 5627 N 530.638 -0.59345 -1.46 0
M  V30 5628 C 531.887 -0.0808084 -2.01538 0
M  V30 5629 C 532.2 1.29112 -1.46934 0
M  V30 5630 O 533.406 1.8957 -1.94359 0
M  V30 5631 C 531.862 -0.0938311 -3.59778 0
M  V30 5632 C 531.47 -1.46474 -4.23379 0
M  V30 5633 C 533.214 0.364306 -4.22934 0
M  V30 5634 C 531.121 -1.4349 -5.73729 0
M  V30 5635 H 530.051 -0.0264407 -0.753536 0
M  V30 5636 H 532.702 -0.746689 -1.67621 0
M  V30 5637 H 531.084 0.638427 -3.9082 0
M  V30 5638 H 532.258 -2.21758 -4.03931 0
M  V30 5639 H 530.573 -1.86379 -3.7236 0
M  V30 5640 H 533.17 0.405584 -5.3316 0
M  V30 5641 H 533.513 1.38409 -3.92618 0
M  V30 5642 H 534.046 -0.31423 -3.96557 0
M  V30 5643 H 530.785 -2.43184 -6.08722 0
M  V30 5644 H 530.305 -0.724431 -5.95409 0
M  V30 5645 H 531.984 -1.15243 -6.36654 0
M  V30 5646 N 532.116 1.54067 -0.331816 0
M  V30 5647 C 533.046 2.27569 0.522932 0
M  V30 5648 C 534.027 1.28679 1.11247 0
M  V30 5649 O 535.212 1.57504 1.13605 0
M  V30 5650 C 532.342 3.0397 1.67987 0
M  V30 5651 C 531.296 4.10267 1.21924 0
M  V30 5652 C 530.622 4.74555 2.46377 0
M  V30 5653 C 531.922 5.21268 0.32815 0
M  V30 5654 H 533.616 2.99264 -0.0901977 0
M  V30 5655 H 531.162 1.4393 -0.044821 0
M  V30 5656 H 533.115 3.54123 2.28418 0
M  V30 5657 H 531.839 2.29906 2.31971 0
M  V30 5658 H 530.498 3.61009 0.637809 0
M  V30 5659 H 530.146 3.97098 3.08743 0
M  V30 5660 H 529.846 5.46363 2.16243 0
M  V30 5661 H 531.37 5.27487 3.07555 0
M  V30 5662 H 532.784 5.67128 0.838978 0
M  V30 5663 H 531.181 5.99982 0.119228 0
M  V30 5664 H 532.251 4.80673 -0.638839 0
M  V30 5665 N 533.594 0.0601682 1.57485 0
M  V30 5666 C 534.819 -0.624416 1.97777 0
M  V30 5667 C 535.244 -1.63051 0.937867 0
M  V30 5668 O 534.602 -1.81036 -0.0978845 0
M  V30 5669 C 534.65 -1.27979 3.37126 0
M  V30 5670 O 533.754 -2.39556 3.35688 0
M  V30 5671 H 533.095 -0.161581 0.64404 0
M  V30 5672 H 535.625 0.131237 2.04179 0
M  V30 5673 H 535.635 -1.62937 3.74053 0
M  V30 5674 H 534.31 -0.542501 4.12347 0
M  V30 5675 H 532.887 -2.06478 3.10517 0
M  V30 5676 N 535.072 -1.5615 -0.213296 0
M  V30 5677 C 536.488 -1.49327 -0.56336 0
M  V30 5678 C 536.688 -0.756826 -1.86747 0
M  V30 5679 O 535.744 -0.299866 -2.50713 0
M  V30 5680 C 537.057 -2.9392 -0.634944 0
M  V30 5681 C 538.605 -3.04487 -0.725013 0
M  V30 5682 C 539.08 -4.50456 -0.82787 0
M  V30 5683 N 540.571 -4.54533 -0.891876 0
M  V30 5684 C 541.306 -5.64766 -0.991315 0
M  V30 5685 N 540.802 -6.84733 -1.05419 0
M  V30 5686 N 542.595 -5.52637 -1.02709 0
M  V30 5687 H 534.746 -2.02453 0.642366 0
M  V30 5688 H 537.009 -0.920548 0.226487 0
M  V30 5689 H 536.715 -3.50783 0.253859 0
M  V30 5690 H 536.589 -3.46274 -1.49579 0
M  V30 5691 H 538.976 -2.47685 -1.60425 0
M  V30 5692 H 539.057 -2.55289 0.161669 0
M  V30 5693 H 538.701 -5.07878 0.0469464 0
M  V30 5694 H 538.631 -4.97369 -1.73009 0
M  V30 5695 H 541.122 -3.68141 -0.85327 0
M  V30 5696 H 541.435 -7.64493 -1.13007 0
M  V30 5697 H 539.78 -6.87427 -1.02318 0
M  V30 5698 H 542.971 -4.5784 -0.974687 0
M  V30 5699 H 543.144 -6.38576 -1.10113 0
M  V30 5700 N 536.55 0.480323 -1.50102 0
M  V30 5701 C 537.46 1.60547 -1.71061 0
M  V30 5702 C 538.476 1.63564 -0.593529 0
M  V30 5703 O 539.652 1.81604 -0.870751 0
M  V30 5704 C 536.717 2.96814 -1.79171 0
M  V30 5705 C 535.778 3.04259 -3.02861 0
M  V30 5706 C 535.011 4.34027 -3.10574 0
M  V30 5707 O 535.234 5.24009 -2.25323 0
M  V30 5708 O 534.168 4.46873 -4.03223 0
M  V30 5709 H 537.994 1.45788 -2.6642 0
M  V30 5710 H 535.579 0.658838 -1.34088 0
M  V30 5711 H 537.461 3.77765 -1.86738 0
M  V30 5712 H 536.136 3.11791 -0.869947 0
M  V30 5713 H 535.043 2.22419 -3.008 0
M  V30 5714 H 536.376 2.94216 -3.94586 0
M  V30 5715 N 538.028 1.39524 0.732853 0
M  V30 5716 C 539.277 1.36175 1.48792 0
M  V30 5717 C 539.59 -0.0388195 1.95561 0
M  V30 5718 O 540.796 -0.194899 2.708 0
M  V30 5719 C 539.252 2.39242 2.68871 0
M  V30 5720 C 538.86 3.85024 2.29042 0
M  V30 5721 C 540.604 2.44972 3.46683 0
M  V30 5722 C 538.511 4.79727 3.45856 0
M  V30 5723 H 537.441 0.506267 0.558757 0
M  V30 5724 H 540.092 1.65181 0.799226 0
M  V30 5725 H 538.474 2.0331 3.39825 0
M  V30 5726 H 539.648 4.30008 1.6562 0
M  V30 5727 H 537.963 3.82609 1.64316 0
M  V30 5728 H 540.56 3.12918 4.33574 0
M  V30 5729 H 540.903 1.4749 3.89297 0
M  V30 5730 H 541.436 2.79808 2.82759 0
M  V30 5731 H 538.175 5.78479 3.08289 0
M  V30 5732 H 537.695 4.39421 4.08251 0
M  V30 5733 H 539.374 4.98731 4.12161 0
M  V30 5734 N 539.506 -0.963266 1.24736 0
M  V30 5735 C 540.453 -2.05857 1.04363 0
M  V30 5736 C 541.423 -1.6604 -0.0444951 0
M  V30 5737 O 542.608 -1.90477 0.110999 0
M  V30 5738 C 539.748 -3.38745 0.659235 0
M  V30 5739 C 538.861 -3.9173 1.82131 0
M  V30 5740 C 537.996 -5.12906 1.38208 0
M  V30 5741 C 537.035 -5.58098 2.51382 0
M  V30 5742 N 536.172 -6.7049 2.08295 0
M  V30 5743 H 541.012 -2.22616 1.98107 0
M  V30 5744 H 538.549 -1.09103 0.986661 0
M  V30 5745 H 540.507 -4.15107 0.417371 0
M  V30 5746 H 539.137 -3.21898 -0.241201 0
M  V30 5747 H 538.189 -3.11966 2.17672 0
M  V30 5748 H 539.501 -4.21225 2.67153 0
M  V30 5749 H 538.655 -5.96657 1.09935 0
M  V30 5750 H 537.394 -4.85105 0.502456 0
M  V30 5751 H 536.399 -4.72917 2.80409 0
M  V30 5752 H 537.624 -5.87911 3.39909 0
M  V30 5753 H 535.57 -6.44416 1.22737 0
M  V30 5754 H 535.487 -6.99458 2.86869 0
M  V30 5755 H 536.755 -7.57672 1.83175 0
M  V30 5756 N 540.985 -1.06182 -1.16461 0
M  V30 5757 C 541.895 -0.682671 -2.24448 0
M  V30 5758 C 542.911 0.30078 -1.71381 0
M  V30 5759 O 544.087 0.150376 -2.00838 0
M  V30 5760 C 541.152 -0.0737202 -3.46622 0
M  V30 5761 C 540.213 -1.10889 -4.14731 0
M  V30 5762 C 539.446 -0.528908 -5.31073 0
M  V30 5763 O 539.669 0.65868 -5.66584 0
M  V30 5764 O 538.603 -1.26805 -5.88391 0
M  V30 5765 H 542.429 -1.58291 -2.59187 0
M  V30 5766 H 540.014 -0.834013 -1.23954 0
M  V30 5767 H 541.896 0.264192 -4.20571 0
M  V30 5768 H 540.571 0.800015 -3.13658 0
M  V30 5769 H 539.478 -1.49896 -3.42756 0
M  V30 5770 H 540.811 -1.95412 -4.51747 0
M  V30 5771 N 542.463 1.3308 -0.844243 0
M  V30 5772 C 543.41 2.29104 -0.279323 0
M  V30 5773 C 544.38 1.54577 0.607882 0
M  V30 5774 O 545.565 1.8285 0.545009 0
M  V30 5775 C 542.705 3.40927 0.53508 0
M  V30 5776 C 541.818 4.30354 -0.376749 0
M  V30 5777 C 540.953 5.29297 0.449276 0
M  V30 5778 C 539.992 6.10365 -0.460606 0
M  V30 5779 N 539.129 7.01335 0.327612 0
M  V30 5780 H 543.969 2.76817 -1.10346 0
M  V30 5781 H 541.506 1.36203 -0.555611 0
M  V30 5782 H 543.464 4.04469 1.02278 0
M  V30 5783 H 542.094 2.94391 1.32414 0
M  V30 5784 H 541.146 3.67485 -0.982791 0
M  V30 5785 H 542.458 4.87067 -1.07549 0
M  V30 5786 H 541.612 5.98392 1.00058 0
M  V30 5787 H 540.351 4.73174 1.18143 0
M  V30 5788 H 539.356 5.40182 -1.02388 0
M  V30 5789 H 540.581 6.68571 -1.1912 0
M  V30 5790 H 538.527 6.47655 1.04305 0
M  V30 5791 H 538.444 7.55355 -0.3123 0
M  V30 5792 H 539.712 7.74731 0.86098 0
M  V30 5793 N 543.941 0.601185 1.45683 0
M  V30 5794 C 545.357 0.264315 1.57396 0
M  V30 5795 C 545.557 -1.23324 1.59353 0
M  V30 5796 O 544.613 -2.01594 1.52039 0
M  V30 5797 C 545.926 0.929839 2.85962 0
M  V30 5798 C 547.474 0.905156 2.99626 0
M  V30 5799 C 547.949 1.55057 4.30954 0
M  V30 5800 N 549.44 1.51576 4.37697 0
M  V30 5801 C 550.175 1.98436 5.37969 0
M  V30 5802 N 549.671 2.53352 6.44813 0
M  V30 5803 N 551.464 1.89242 5.29286 0
M  V30 5804 H 543.615 1.57363 1.42656 0
M  V30 5805 H 545.878 0.658831 0.681649 0
M  V30 5806 H 545.584 1.98404 2.90394 0
M  V30 5807 H 545.458 0.449224 3.74515 0
M  V30 5808 H 547.845 -0.14048 2.94765 0
M  V30 5809 H 547.926 1.42397 2.12501 0
M  V30 5810 H 547.57 2.5955 4.36573 0
M  V30 5811 H 547.5 1.00682 5.16886 0
M  V30 5812 H 549.991 1.11452 3.61091 0
M  V30 5813 H 550.304 2.86918 7.17564 0
M  V30 5814 H 548.649 2.57388 6.45582 0
M  V30 5815 H 551.84 1.46083 4.44722 0
M  V30 5816 H 552.013 2.26075 6.07284 0
M  V30 5817 N 545.419 -1.53889 0.339982 0
M  V30 5818 C 546.349 -2.27843 -0.510856 0
M  V30 5819 C 547.33 -1.29267 -1.10563 0
M  V30 5820 O 548.515 -1.58104 -1.12768 0
M  V30 5821 C 545.645 -3.04857 -1.66372 0
M  V30 5822 C 544.599 -4.10907 -1.19746 0
M  V30 5823 C 543.925 -4.75855 -2.43857 0
M  V30 5824 C 545.225 -5.21435 -0.300501 0
M  V30 5825 H 546.919 -2.99212 0.106067 0
M  V30 5826 H 544.465 -1.43904 0.0524533 0
M  V30 5827 H 546.418 -3.5533 -2.26537 0
M  V30 5828 H 545.142 -2.31133 -2.30749 0
M  V30 5829 H 543.801 -3.61342 -0.618654 0
M  V30 5830 H 543.449 -3.9873 -3.06633 0
M  V30 5831 H 543.149 -5.47502 -2.13343 0
M  V30 5832 H 544.673 -5.2911 -3.04754 0
M  V30 5833 H 546.087 -5.67565 -0.80889 0
M  V30 5834 H 544.484 -6.00036 -0.0874076 0
M  V30 5835 H 545.554 -4.80328 0.664321 0
M  V30 5836 N 546.897 -0.0685191 -1.57451 0
M  V30 5837 C 548.313 0.288101 -1.56978 0
M  V30 5838 C 548.513 1.70262 -1.07765 0
M  V30 5839 O 547.569 2.4135 -0.742054 0
M  V30 5840 C 548.882 0.100745 -3.00531 0
M  V30 5841 C 550.43 0.170531 -3.12535 0
M  V30 5842 C 550.905 0.0114944 -4.57999 0
M  V30 5843 N 552.396 0.0672065 -4.63151 0
M  V30 5844 C 553.131 -0.0314813 -5.73391 0
M  V30 5845 N 552.627 -0.183503 -6.92557 0
M  V30 5846 N 554.42 0.0253489 -5.62094 0
M  V30 5847 H 546.571 -0.993026 -1.87757 0
M  V30 5848 H 548.834 -0.386981 -0.865419 0
M  V30 5849 H 548.54 -0.875197 -3.40636 0
M  V30 5850 H 548.414 0.854457 -3.67395 0
M  V30 5851 H 550.801 1.13696 -2.72318 0
M  V30 5852 H 550.882 -0.614229 -2.48316 0
M  V30 5853 H 550.526 -0.951684 -4.98904 0
M  V30 5854 H 550.456 0.815617 -5.20245 0
M  V30 5855 H 552.947 0.183246 -3.77455 0
M  V30 5856 H 553.26 -0.251041 -7.72392 0
M  V30 5857 H 551.605 -0.218822 -6.94655 0
M  V30 5858 H 554.796 0.142794 -4.67882 0
M  V30 5859 H 554.969 -0.0550166 -6.47977 0
M  V30 5860 N 548.375 1.56261 0.205012 0
M  V30 5861 C 549.6 1.84491 0.947512 0
M  V30 5862 C 550.025 0.650894 1.76479 0
M  V30 5863 O 549.383 -0.40035 1.76824 0
M  V30 5864 C 549.431 3.10863 1.82747 0
M  V30 5865 O 548.535 2.90719 2.925 0
M  V30 5866 H 547.876 0.607783 0.267386 0
M  V30 5867 H 550.406 2.03485 0.213323 0
M  V30 5868 H 550.416 3.41399 2.23407 0
M  V30 5869 H 549.091 3.97392 1.2269 0
M  V30 5870 H 547.668 2.71457 2.55667 0
M  V30 5871 N 549.853 -0.472356 1.50355 0
M  V30 5872 C 550.783 -1.57859 1.72055 0
M  V30 5873 C 551.764 -1.60283 0.569505 0
M  V30 5874 O 552.949 -1.7657 0.808503 0
M  V30 5875 C 550.079 -2.96191 1.81351 0
M  V30 5876 C 549.033 -3.08633 2.96529 0
M  V30 5877 C 548.359 -4.486 2.90968 0
M  V30 5878 C 549.659 -2.85969 4.37057 0
M  V30 5879 H 551.353 -1.39953 2.64676 0
M  V30 5880 H 548.899 -0.671846 1.27367 0
M  V30 5881 H 550.852 -3.73507 1.95117 0
M  V30 5882 H 549.576 -3.15251 0.853502 0
M  V30 5883 H 548.235 -2.33749 2.82413 0
M  V30 5884 H 547.883 -4.64577 1.92815 0
M  V30 5885 H 547.583 -4.57861 3.68289 0
M  V30 5886 H 549.107 -5.27938 3.0678 0
M  V30 5887 H 550.521 -3.53036 4.51706 0
M  V30 5888 H 548.918 -3.06677 5.15819 0
M  V30 5889 H 549.988 -1.81838 4.49514 0
M  V30 5890 N 551.331 -1.39911 -0.725443 0
M  V30 5891 C 552.556 -1.41137 -1.5197 0
M  V30 5892 C 552.981 -0.010262 -1.88097 0
M  V30 5893 O 552.339 0.979184 -1.52583 0
M  V30 5894 C 552.387 -2.2994 -2.77777 0
M  V30 5895 O 551.491 -1.73586 -3.74088 0
M  V30 5896 H 550.832 -0.480219 -0.458569 0
M  V30 5897 H 553.362 -1.84023 -0.894249 0
M  V30 5898 H 553.372 -2.44785 -3.26411 0
M  V30 5899 H 552.047 -3.31759 -2.50816 0
M  V30 5900 H 550.624 -1.68035 -3.32894 0
M  V30 5901 N 552.809 0.956637 -1.25245 0
M  V30 5902 C 554.225 1.22733 -1.02023 0
M  V30 5903 C 554.425 1.99761 0.264186 0
M  V30 5904 O 553.481 2.32814 0.977436 0
M  V30 5905 C 554.794 2.00367 -2.24217 0
M  V30 5906 C 556.342 2.13418 -2.28958 0
M  V30 5907 C 556.817 2.9445 -3.50803 0
M  V30 5908 N 558.308 3.02029 -3.51187 0
M  V30 5909 C 559.043 3.65116 -4.42129 0
M  V30 5910 N 558.539 4.2983 -5.43339 0
M  V30 5911 N 560.332 3.62237 -4.29815 0
M  V30 5912 H 552.483 0.441282 -2.07765 0
M  V30 5913 H 554.746 0.257686 -0.912306 0
M  V30 5914 H 554.452 1.51165 -3.17556 0
M  V30 5915 H 554.326 3.01077 -2.27228 0
M  V30 5916 H 556.713 2.61819 -1.36143 0
M  V30 5917 H 556.794 1.1202 -2.29968 0
M  V30 5918 H 556.438 2.46741 -4.43939 0
M  V30 5919 H 556.368 3.9607 -3.47039 0
M  V30 5920 H 558.859 2.56007 -2.77973 0
M  V30 5921 H 559.172 4.75819 -6.08947 0
M  V30 5922 H 557.517 4.28465 -5.47214 0
M  V30 5923 H 560.708 3.10863 -3.49974 0
M  V30 5924 H 560.881 4.11117 -5.00886 0
M  V30 5925 N 554.287 1.06798 1.15896 0
M  V30 5926 C 555.234 0.683314 2.20453 0
M  V30 5927 C 556.204 -0.32255 1.62938 0
M  V30 5928 O 557.389 -0.210276 1.89638 0
M  V30 5929 C 554.529 0.0813266 3.45004 0
M  V30 5930 C 553.642 1.13799 4.16742 0
M  V30 5931 C 552.777 0.501598 5.28826 0
M  V30 5932 C 551.816 1.54144 5.92373 0
M  V30 5933 N 550.953 0.928038 6.9594 0
M  V30 5934 H 555.793 1.57932 2.52708 0
M  V30 5935 H 553.33 0.789544 1.24115 0
M  V30 5936 H 555.288 -0.285274 4.16224 0
M  V30 5937 H 553.918 -0.77806 3.13283 0
M  V30 5938 H 552.97 1.62223 3.44075 0
M  V30 5939 H 554.282 1.92664 4.60089 0
M  V30 5940 H 553.436 0.0823162 6.06644 0
M  V30 5941 H 552.175 -0.318883 4.86656 0
M  V30 5942 H 551.18 1.97056 5.13273 0
M  V30 5943 H 552.405 2.3641 6.36621 0
M  V30 5944 H 550.351 0.12836 6.55874 0
M  V30 5945 H 550.268 1.65401 7.37685 0
M  V30 5946 H 551.536 0.534071 7.77668 0
M  V30 5947 N 555.766 -1.3263 0.851289 0
M  V30 5948 C 557.013 -1.97368 0.453023 0
M  V30 5949 C 557.341 -1.67384 -0.990596 0
M  V30 5950 O 556.596 -0.952665 -1.70947 0
M  V30 5951 C 556.895 -3.51713 0.635015 0
M  V30 5952 C 556.561 -4.01676 2.04859 0
M  V30 5953 C 555.223 -4.15031 2.43522 0
M  V30 5954 C 557.575 -4.28206 2.97135 0
M  V30 5955 C 554.903 -4.52257 3.73739 0
M  V30 5956 C 557.255 -4.66889 4.26846 0
M  V30 5957 C 555.919 -4.7845 4.65448 0
M  V30 5958 H 555.189 -0.722219 0.165773 0
M  V30 5959 H 557.836 -1.58092 1.0807 0
M  V30 5960 H 556.141 -3.91726 -0.0759081 0
M  V30 5961 H 557.838 -3.99823 0.306964 0
M  V30 5962 H 554.428 -3.91764 1.73836 0
M  V30 5963 H 558.612 -4.174 2.68498 0
M  V30 5964 H 553.868 -4.59402 4.03435 0
M  V30 5965 H 558.042 -4.86372 4.98413 0
M  V30 5966 H 555.669 -5.07052 5.66395 0
M  V30 5967 N 557.244 -0.608902 -1.45362 0
M  V30 5968 C 558.472 -0.111013 -2.06602 0
M  V30 5969 C 558.887 1.20516 -1.45332 0
M  V30 5970 O 558.244 1.73437 -0.567978 0
M  V30 5971 C 558.295 0.033688 -3.61484 0
M  V30 5972 O 558.016 -1.23041 -4.20467 0
M  V30 5973 C 559.517 0.562882 -4.39712 0
M  V30 5974 H 556.737 -0.0694453 -0.667397 0
M  V30 5975 H 559.281 -0.837008 -1.86586 0
M  V30 5976 H 557.436 0.710016 -3.80838 0
M  V30 5977 H 557.85 -1.06094 -5.13658 0
M  V30 5978 H 559.324 0.613213 -5.48583 0
M  V30 5979 H 559.801 1.58543 -4.09586 0
M  V30 5980 H 560.407 -0.0794454 -4.25226 0
M  V30 5981 N 558.722 1.53707 -0.348139 0
M  V30 5982 C 559.999 1.93247 0.302475 0
M  V30 5983 C 560.379 1.28012 1.67857 0
M  V30 5984 O 559.727 0.43274 2.24365 0
M  V30 5985 C 559.937 3.47031 0.370159 0
M  V30 5986 C 561.285 4.20066 0.61882 0
M  V30 5987 O 562.309 3.53319 0.452087 0
M  V30 5988 O 561.168 5.38318 0.94215 0
M  V30 5989 H 558.262 0.807736 0.177458 0
M  V30 5990 H 560.808 1.64927 -0.399651 0
M  V30 5991 H 559.58 3.86745 -0.59534 0
M  V30 5992 H 559.203 3.81532 1.11888 0
M  V30 5993 N 560.2 0.0768682 1.57412 0
M  V30 5994 C 561.446 -0.585926 1.94778 0
M  V30 5995 C 561.801 -1.66912 0.956982 0
M  V30 5996 O 561.094 -1.9159 -0.0199454 0
M  V30 5997 C 561.288 -1.20268 3.36557 0
M  V30 5998 C 561.117 -0.18076 4.49337 0
M  V30 5999 C 559.887 0.236362 5.04747 0
M  V30 6000 C 562.085 0.583978 5.10974 0
M  V30 6001 N 560.067 1.24846 6.01071 0
M  V30 6002 C 561.438 1.44841 6.02844 0
M  V30 6003 C 563.493 0.639492 4.93776 0
M  V30 6004 C 562.196 2.36343 6.79363 0
M  V30 6005 C 564.222 1.54204 5.70942 0
M  V30 6006 C 563.584 2.39414 6.62465 0
M  V30 6007 H 559.683 -0.185281 0.759734 0
M  V30 6008 H 562.267 0.155193 1.9408 0
M  V30 6009 H 560.438 -1.9137 3.37982 0
M  V30 6010 H 562.17 -1.82636 3.61146 0
M  V30 6011 H 558.925 -0.14777 4.73369 0
M  V30 6012 H 559.349 1.75217 6.53933 0
M  V30 6013 H 563.991 -0.00510074 4.228 0
M  V30 6014 H 561.709 3.01836 7.49614 0
M  V30 6015 H 565.295 1.5899 5.59655 0
M  V30 6016 H 564.175 3.0812 7.21132 0
M  V30 6017 N 561.678 -1.56367 -0.196722 0
M  V30 6018 C 562.641 -1.93561 -1.22746 0
M  V30 6019 C 563.641 -0.816566 -1.38524 0
M  V30 6020 O 564.831 -1.084 -1.36363 0
M  V30 6021 C 561.963 -2.20823 -2.59712 0
M  V30 6022 H 563.156 -2.85774 -0.909586 0
M  V30 6023 H 560.709 -1.50032 -0.438174 0
M  V30 6024 H 561.444 -1.31243 -2.96557 0
M  V30 6025 H 561.229 -3.02368 -2.49632 0
M  V30 6026 H 562.719 -2.50608 -3.34044 0
M  V30 6027 N 563.156 0.464375 -1.50603 0
M  V30 6028 C 564.386 1.23727 -1.65454 0
M  V30 6029 C 564.794 1.86119 -0.340032 0
M  V30 6030 O 564.137 1.70301 0.688706 0
M  V30 6031 C 564.199 2.38153 -2.69301 0
M  V30 6032 C 563.863 1.96345 -4.12671 0
M  V30 6033 C 564.86 1.48215 -4.98326 0
M  V30 6034 C 562.545 2.04861 -4.58625 0
M  V30 6035 C 564.539 1.09152 -6.27985 0
M  V30 6036 C 562.226 1.65409 -5.88288 0
M  V30 6037 C 563.224 1.17634 -6.72794 0
M  V30 6038 O 562.912 0.787312 -8.00035 0
M  V30 6039 H 562.644 0.380075 -0.559034 0
M  V30 6040 H 565.198 0.559919 -1.97621 0
M  V30 6041 H 563.428 3.09081 -2.32392 0
M  V30 6042 H 565.117 3.00099 -2.73304 0
M  V30 6043 H 565.883 1.41052 -4.64036 0
M  V30 6044 H 561.762 2.40996 -3.92991 0
M  V30 6045 H 565.306 0.717909 -6.93896 0
M  V30 6046 H 561.203 1.72233 -6.22098 0
M  V30 6047 H 561.971 0.915567 -8.13363 0
M  V30 6048 N 564.634 1.40294 0.718013 0
M  V30 6049 C 565.882 1.38167 1.47494 0
M  V30 6050 C 566.203 -0.01607 1.94993 0
M  V30 6051 O 565.473 -0.970396 1.70177 0
M  V30 6052 H 564.053 0.508505 0.547203 0
M  V30 6053 H 566.715 1.75324 0.851322 0
M  V30 6054 H 565.811 2.05503 2.34894 0
M  V30 6055 N 566.112 -0.949982 1.2575 0
M  V30 6056 C 567.523 -1.50989 1.09815 0
M  V30 6057 C 567.874 -1.93497 -0.324556 0
M  V30 6058 O 566.999 -1.79068 -1.21506 0
M  V30 6059 C 567.594 -2.74394 1.98729 0
M  V30 6060 C 566.153 -3.26682 1.86965 0
M  V30 6061 C 565.3 -1.99498 1.92603 0
M  V30 6062 H 568.251 -0.766387 1.38968 0
M  V30 6063 H 568.272 -3.48383 1.53001 0
M  V30 6064 H 567.784 -2.43425 3.02268 0
M  V30 6065 H 565.885 -3.62461 0.863279 0
M  V30 6066 H 565.998 -3.94383 2.72027 0
M  V30 6067 H 564.362 -2.15005 1.36546 0
M  V30 6068 H 565.145 -1.70871 2.97755 0
M  V30 6069 N 567.59 -1.07411 -1.15328 0
M  V30 6070 C 568.836 -0.798831 -1.86404 0
M  V30 6071 C 569.169 0.673433 -1.8215 0
M  V30 6072 O 568.444 1.49428 -1.24505 0
M  V30 6073 C 568.727 -1.30846 -3.35487 0
M  V30 6074 C 568.58 -2.84532 -3.4837 0
M  V30 6075 C 569.899 -0.925486 -4.30259 0
M  V30 6076 H 567.018 -0.291659 -0.676834 0
M  V30 6077 H 569.66 -1.332 -1.35491 0
M  V30 6078 H 567.81 -0.854916 -3.78977 0
M  V30 6079 H 569.482 -3.3818 -3.13739 0
M  V30 6080 H 567.725 -3.22699 -2.8991 0
M  V30 6081 H 568.396 -3.15259 -4.53118 0
M  V30 6082 H 570.872 -1.3163 -3.94731 0
M  V30 6083 H 569.748 -1.3094 -5.33053 0
M  V30 6084 H 570.009 0.168525 -4.41779 0
M  V30 6085 N 569.068 1.32177 -0.85831 0
M  V30 6086 C 570.293 2.01847 -0.476718 0
M  V30 6087 C 570.718 1.64065 0.920021 0
M  V30 6088 O 570.076 0.843189 1.60499 0
M  V30 6089 C 570.124 3.55097 -0.627578 0
M  V30 6090 O 569.228 4.11012 0.338086 0
M  V30 6091 H 568.569 0.635907 -0.191099 0
M  V30 6092 H 571.099 1.68641 -1.15851 0
M  V30 6093 H 571.109 4.04718 -0.516476 0
M  V30 6094 H 569.784 3.81938 -1.64609 0
M  V30 6095 H 568.361 3.72451 0.182917 0
M  V30 6096 N 570.547 0.616602 1.45037 0
M  V30 6097 C 571.772 0.120192 2.07051 0
M  V30 6098 C 572.197 -1.19008 1.45666 0
M  V30 6099 O 571.555 -1.7267 0.552692 0
M  V30 6100 C 571.603 0.00354901 3.606 0
M  V30 6101 O 570.707 -1.04431 3.98958 0
M  V30 6102 H 570.048 0.0781599 0.659384 0
M  V30 6103 H 572.578 0.849167 1.86146 0
M  V30 6104 H 572.588 -0.191754 4.07549 0
M  V30 6105 H 571.263 0.960239 4.04663 0
M  V30 6106 H 569.84 -0.824749 3.63665 0
M  V30 6107 N 572.025 -1.5352 0.356285 0
M  V30 6108 C 573.25 -2.06007 -0.239961 0
M  V30 6109 C 573.675 -1.22872 -1.42422 0
M  V30 6110 O 573.033 -0.245516 -1.7963 0
M  V30 6111 C 573.081 -3.5522 -0.620587 0
M  V30 6112 O 572.185 -3.74864 -1.71902 0
M  V30 6113 H 571.526 -0.662961 -0.0371377 0
M  V30 6114 H 574.056 -1.98033 0.514194 0
M  V30 6115 H 574.066 -3.98081 -0.894197 0
M  V30 6116 H 572.741 -4.15175 0.245407 0
M  V30 6117 H 571.318 -3.43904 -1.44169 0
M  V30 6118 N 573.503 -0.0852151 -1.57369 0
M  V30 6119 C 574.433 0.874556 -2.16503 0
M  V30 6120 C 575.414 1.30111 -1.09568 0
M  V30 6121 O 576.599 1.36977 -1.37662 0
M  V30 6122 C 573.729 2.13731 -2.73745 0
M  V30 6123 C 572.683 1.84971 -3.85966 0
M  V30 6124 C 572.009 3.17991 -4.29867 0
M  V30 6125 C 573.309 1.14442 -5.09608 0
M  V30 6126 H 575.003 0.381899 -2.96954 0
M  V30 6127 H 572.549 0.18225 -1.42842 0
M  V30 6128 H 574.502 2.81302 -3.13763 0
M  V30 6129 H 573.226 2.65263 -1.90534 0
M  V30 6130 H 571.885 1.19801 -3.46473 0
M  V30 6131 H 571.533 3.6739 -3.4356 0
M  V30 6132 H 571.233 2.99534 -5.05523 0
M  V30 6133 H 572.757 3.86737 -4.72511 0
M  V30 6134 H 574.171 1.72105 -5.46857 0
M  V30 6135 H 572.568 1.06197 -5.90629 0
M  V30 6136 H 573.638 0.12559 -4.84737 0
M  V30 6137 N 574.981 1.5647 0.188427 0
M  V30 6138 C 576.211 1.84863 0.922463 0
M  V30 6139 C 576.619 0.666413 1.77075 0
M  V30 6140 O 575.962 -0.374044 1.79852 0
M  V30 6141 C 576.024 3.07447 1.86324 0
M  V30 6142 C 575.688 4.41066 1.19625 0
M  V30 6143 C 576.685 5.16767 0.569946 0
M  V30 6144 C 574.37 4.87802 1.19811 0
M  V30 6145 C 576.364 6.37384 -0.045594 0
M  V30 6146 C 574.051 6.08353 0.57874 0
M  V30 6147 C 575.049 6.82987 -0.0420259 0
M  V30 6148 O 574.737 8.01254 -0.651675 0
M  V30 6149 H 574.469 0.61784 0.274316 0
M  V30 6150 H 577.023 2.04437 0.198613 0
M  V30 6151 H 575.253 2.83774 2.62696 0
M  V30 6152 H 576.942 3.2243 2.46564 0
M  V30 6153 H 577.708 4.81749 0.560601 0
M  V30 6154 H 573.587 4.29662 1.67069 0
M  V30 6155 H 577.131 6.95578 -0.530731 0
M  V30 6156 H 573.028 6.42838 0.58561 0
M  V30 6157 H 573.796 8.16655 -0.549236 0
M  V30 6158 N 576.459 -0.456382 1.50847 0
M  V30 6159 C 577.736 -1.21739 1.53098 0
M  V30 6160 C 578.116 -2.09179 0.284132 0
M  V30 6161 O 577.464 -2.16466 -0.731773 0
M  V30 6162 C 577.674 -2.03573 2.83477 0
M  V30 6163 C 579.022 -2.61264 3.34703 0
M  V30 6164 O 580.046 -2.13802 2.84898 0
M  V30 6165 O 578.905 -3.47779 4.21559 0
M  V30 6166 H 575.999 -0.553219 0.614718 0
M  V30 6167 H 578.545 -0.467003 1.63148 0
M  V30 6168 H 577.317 -1.39232 3.65691 0
M  V30 6169 H 576.94 -2.85716 2.76499 0
M  V30 6170 N 577.937 -1.40673 -0.710563 0
M  V30 6171 C 578.867 -1.44095 -1.83736 0
M  V30 6172 C 579.848 -0.301286 -1.67411 0
M  V30 6173 O 581.033 -0.510618 -1.87367 0
M  V30 6174 C 578.163 -1.30773 -3.21738 0
M  V30 6175 C 577.117 -2.42395 -3.52745 0
M  V30 6176 C 576.443 -2.14147 -4.89944 0
M  V30 6177 C 577.743 -3.84738 -3.53234 0
M  V30 6178 H 579.437 -2.38396 -1.81129 0
M  V30 6179 H 576.983 -1.14746 -0.870017 0
M  V30 6180 H 578.936 -1.31783 -4.00264 0
M  V30 6181 H 577.66 -0.329507 -3.24934 0
M  V30 6182 H 576.319 -2.40643 -2.76562 0
M  V30 6183 H 575.967 -1.14703 -4.89747 0
M  V30 6184 H 575.667 -2.88934 -5.11655 0
M  V30 6185 H 577.191 -2.16848 -5.70797 0
M  V30 6186 H 578.605 -3.88286 -4.2179 0
M  V30 6187 H 577.002 -4.59085 -3.86473 0
M  V30 6188 H 578.072 -4.13962 -2.52514 0
M  V30 6189 N 579.415 0.9433 -1.26252 0
M  V30 6190 C 580.643 1.72367 -1.14443 0
M  V30 6191 C 581.058 1.86392 0.300572 0
M  V30 6192 O 580.415 1.36978 1.20596 0
M  V30 6193 C 580.466 3.13155 -1.806 0
M  V30 6194 O 580.187 2.99803 -3.19452 0
M  V30 6195 C 581.688 4.07417 -1.74717 0
M  V30 6196 H 578.908 0.539758 -0.398626 0
M  V30 6197 H 581.452 1.18268 -1.66832 0
M  V30 6198 H 579.607 3.64162 -1.32154 0
M  V30 6199 H 580.021 3.88697 -3.52158 0
M  V30 6200 H 581.495 5.03773 -2.25647 0
M  V30 6201 H 581.972 4.3337 -0.713244 0
M  V30 6202 H 582.578 3.6233 -2.22704 0
M  V30 6203 N 580.893 1.08022 1.14757 0
M  V30 6204 C 581.841 0.701088 2.21783 0
M  V30 6205 C 582.835 -0.291311 1.66876 0
M  V30 6206 O 584.041 -0.154296 1.79337 0
M  V30 6207 H 580.416 0.208668 0.722469 0
M  V30 6208 H 582.387 1.61321 2.51034 0
M  V30 6209 C 581.136 0.122278 3.47485 0
M  V30 6210 H 580.459 0.877065 3.90061 0
M  V30 6211 H 581.899 -0.105248 4.23869 0
M  V30 6212 C 580.358 -1.13883 3.17068 0
M  V30 6213 O 580.888 -2.22429 3.34497 0
M  V30 6214 N 579.094 -1.04767 2.71058 0
M  V30 6215 H 578.641 -0.164302 2.57075 0
M  V30 6216 H 578.599 -1.89224 2.51081 0
M  V30 6217 N 582.371 -1.3172 0.865308 0
M  V30 6218 C 583.617 -1.97168 0.474633 0
M  V30 6219 C 583.95 -1.68263 -0.969604 0
M  V30 6220 O 583.225 -0.976588 -1.68205 0
M  V30 6221 C 583.508 -3.52689 0.726808 0
M  V30 6222 C 583.361 -3.91185 2.22024 0
M  V30 6223 C 584.68 -4.39689 0.190201 0
M  V30 6224 H 581.799 -0.716185 0.17392 0
M  V30 6225 H 584.441 -1.55925 1.08569 0
M  V30 6226 H 582.591 -3.8795 0.206705 0
M  V30 6227 H 584.263 -3.66049 2.80724 0
M  V30 6228 H 582.506 -3.3996 2.69462 0
M  V30 6229 H 583.177 -4.99604 2.34735 0
M  V30 6230 H 585.653 -4.11225 0.635103 0
M  V30 6231 H 584.529 -5.47469 0.396132 0
M  V30 6232 H 584.79 -4.32683 -0.907625 0
M  V30 6233 N 583.85 -0.624285 -1.44708 0
M  V30 6234 C 585.127 -0.0572781 -1.95516 0
M  V30 6235 C 585.507 1.41516 -1.56641 0
M  V30 6236 O 584.855 2.12614 -0.837111 0
M  V30 6237 C 585.065 -0.272944 -3.47931 0
M  V30 6238 C 586.413 -0.162529 -4.24289 0
M  V30 6239 O 587.437 -0.203946 -3.55616 0
M  V30 6240 O 586.296 -0.0616847 -5.46465 0
M  V30 6241 H 583.389 0.0262219 -0.826584 0
M  V30 6242 H 585.936 -0.695512 -1.54793 0
M  V30 6243 H 584.707 -1.29492 -3.69253 0
M  V30 6244 H 584.331 0.399756 -3.95585 0
M  V30 6245 N 585.328 1.53329 -0.364422 0
M  V30 6246 C 586.556 2.05657 0.226424 0
M  V30 6247 C 586.971 1.23801 1.42544 0
M  V30 6248 O 586.328 0.27839 1.80364 0
M  V30 6249 C 586.379 3.56125 0.621056 0
M  V30 6250 O 586.1 4.34879 -0.530304 0
M  V30 6251 C 587.601 4.24706 1.27041 0
M  V30 6252 H 584.821 0.669806 0.0400056 0
M  V30 6253 H 587.365 1.97714 -0.522456 0
M  V30 6254 H 585.52 3.64223 1.31985 0
M  V30 6255 H 585.934 5.24073 -0.211546 0
M  V30 6256 H 587.408 5.3131 1.49711 0
M  V30 6257 H 587.885 3.78354 2.23036 0
M  V30 6258 H 588.491 4.20858 0.613079 0
M  V30 6259 N 586.806 0.0935595 1.57322 0
M  V30 6260 C 588.034 -0.578934 1.98635 0
M  V30 6261 C 588.449 -1.61819 0.972626 0
M  V30 6262 O 587.806 -1.82461 -0.0379638 0
M  V30 6263 C 587.857 -1.22802 3.40003 0
M  V30 6264 O 587.578 -0.230334 4.37494 0
M  V30 6265 C 589.079 -1.98627 3.96311 0
M  V30 6266 H 586.299 -0.155324 0.652775 0
M  V30 6267 H 588.843 0.172393 2.03772 0
M  V30 6268 H 586.998 -1.93029 3.35885 0
M  V30 6269 H 587.412 -0.698649 5.19826 0
M  V30 6270 H 588.886 -2.39405 4.97382 0
M  V30 6271 H 589.363 -2.85151 3.34044 0
M  V30 6272 H 589.969 -1.3322 4.03897 0
M  V30 6273 N 588.284 -1.56567 -0.180126 0
M  V30 6274 C 589.512 -1.85618 -0.913972 0
M  V30 6275 C 589.927 -0.677892 -1.7621 0
M  V30 6276 O 589.284 0.353171 -1.7905 0
M  V30 6277 C 589.335 -3.13619 -1.79793 0
M  V30 6278 O 589.056 -4.26906 -0.98402 0
M  V30 6279 C 590.557 -3.55954 -2.64219 0
M  V30 6280 H 587.777 -0.616043 -0.265954 0
M  V30 6281 H 590.321 -2.03681 -0.182872 0
M  V30 6282 H 588.476 -2.97409 -2.48247 0
M  V30 6283 H 588.89 -4.9989 -1.58776 0
M  V30 6284 H 590.364 -4.48444 -3.21873 0
M  V30 6285 H 590.841 -2.79653 -3.38661 0
M  V30 6286 H 591.447 -3.74746 -2.01111 0
M  V30 6287 N 589.762 0.448376 -1.51087 0
M  V30 6288 C 591.039 1.20926 -1.53741 0
M  V30 6289 C 591.419 2.09025 -0.295222 0
M  V30 6290 O 590.767 2.16851 0.720283 0
M  V30 6291 C 590.977 2.02067 -2.84552 0
M  V30 6292 C 592.325 2.59486 -3.36084 0
M  V30 6293 O 593.349 2.12289 -2.86028 0
M  V30 6294 O 592.208 3.45539 -4.23397 0
M  V30 6295 H 589.302 0.549951 -0.617643 0
M  V30 6296 H 591.848 0.458344 -1.63393 0
M  V30 6297 H 590.62 1.37291 -3.66425 0
M  V30 6298 H 590.243 2.84246 -2.78011 0
M  V30 6299 N 591.24 1.41047 0.703093 0
M  V30 6300 C 592.188 1.42494 1.83843 0
M  V30 6301 C 593.182 0.303885 1.66652 0
M  V30 6302 O 594.388 0.475544 1.73605 0
M  V30 6303 H 590.763 0.445685 0.605697 0
M  V30 6304 H 592.734 2.38194 1.79739 0
M  V30 6305 C 591.483 1.31666 3.21807 0
M  V30 6306 H 590.806 2.17212 3.35647 0
M  V30 6307 H 592.246 1.36738 4.01346 0
M  V30 6308 C 590.705 0.0281828 3.36888 0
M  V30 6309 O 591.235 -0.929995 3.90786 0
M  V30 6310 N 589.441 -0.0454322 2.90564 0
M  V30 6311 H 588.988 0.735046 2.4689 0
M  V30 6312 H 588.946 -0.906968 3.01034 0
M  V30 6313 N 592.718 -0.936591 1.26751 0
M  V30 6314 C 593.943 -1.72288 1.15462 0
M  V30 6315 C 594.368 -1.85915 -0.285887 0
M  V30 6316 O 593.726 -1.35272 -1.20711 0
M  V30 6317 C 593.774 -3.10503 1.83359 0
M  V30 6318 O 592.878 -3.96745 1.1255 0
M  V30 6319 H 592.219 -0.52843 0.402067 0
M  V30 6320 H 594.749 -1.17271 1.67656 0
M  V30 6321 H 594.759 -3.60867 1.90365 0
M  V30 6322 H 593.434 -2.99901 2.88153 0
M  V30 6323 H 592.011 -3.55191 1.13551 0
M  V30 6324 N 594.196 -1.08629 -1.14182 0
M  V30 6325 C 595.442 -0.818556 -1.85546 0
M  V30 6326 C 595.775 0.654076 -1.82854 0
M  V30 6327 O 595.05 1.48099 -1.26083 0
M  V30 6328 C 595.333 -1.34397 -3.3408 0
M  V30 6329 C 595.186 -2.8821 -3.45333 0
M  V30 6330 C 596.505 -0.971069 -4.29253 0
M  V30 6331 H 593.624 -0.298821 -0.673702 0
M  V30 6332 H 596.266 -1.34629 -1.34071 0
M  V30 6333 H 594.416 -0.895064 -3.78049 0
M  V30 6334 H 596.088 -3.41488 -3.10134 0
M  V30 6335 H 594.331 -3.25756 -2.86471 0
M  V30 6336 H 595.002 -3.20047 -4.49749 0
M  V30 6337 H 597.478 -1.35809 -3.93313 0
M  V30 6338 H 596.354 -1.36586 -5.31635 0
M  V30 6339 H 596.615 0.121659 -4.41933 0
M  V30 6340 N 595.674 1.31259 -0.872281 0
M  V30 6341 C 596.604 2.30929 -0.345554 0
M  V30 6342 C 597.585 1.60449 0.5648 0
M  V30 6343 O 598.77 1.8814 0.481335 0
M  V30 6344 C 595.9 3.44348 0.451823 0
M  V30 6345 C 594.854 4.26435 -0.365641 0
M  V30 6346 C 594.18 5.31785 0.557562 0
M  V30 6347 C 595.48 4.97159 -1.60095 0
M  V30 6348 H 597.174 2.75234 -1.17841 0
M  V30 6349 H 594.72 1.3232 -0.568094 0
M  V30 6350 H 596.673 4.13128 0.830854 0
M  V30 6351 H 595.397 2.98816 1.31821 0
M  V30 6352 H 594.056 3.59326 -0.726649 0
M  V30 6353 H 593.704 4.82502 1.4213 0
M  V30 6354 H 593.404 5.87598 0.0144878 0
M  V30 6355 H 594.928 6.03424 0.933387 0
M  V30 6356 H 596.342 5.58523 -1.29323 0
M  V30 6357 H 594.739 5.62779 -2.08327 0
M  V30 6358 H 595.809 4.24012 -2.35249 0
M  V30 6359 N 597.152 0.631951 1.44375 0
M  V30 6360 C 598.062 -0.073674 2.34484 0
M  V30 6361 C 599.078 -0.834825 1.52665 0
M  V30 6362 O 600.254 -0.786902 1.85391 0
M  V30 6363 C 597.319 -1.04247 3.30656 0
M  V30 6364 C 596.38 -0.280602 4.28382 0
M  V30 6365 C 595.613 -1.20325 5.19959 0
M  V30 6366 O 595.836 -2.44199 5.15484 0
M  V30 6367 O 594.77 -0.687128 5.97965 0
M  V30 6368 H 598.596 0.667477 2.96274 0
M  V30 6369 H 596.181 0.392144 1.44162 0
M  V30 6370 H 598.063 -1.59981 3.89851 0
M  V30 6371 H 596.738 -1.76422 2.71398 0
M  V30 6372 H 595.645 0.319804 3.72731 0
M  V30 6373 H 596.978 0.401144 4.90563 0
M  V30 6374 N 598.631 -1.53133 0.372548 0
M  V30 6375 C 599.88 -2.00539 -0.216115 0
M  V30 6376 C 600.193 -1.26374 -1.49295 0
M  V30 6377 O 601.399 -1.64404 -2.16064 0
M  V30 6378 C 599.855 -3.57253 -0.435678 0
M  V30 6379 C 599.463 -4.40302 0.82693 0
M  V30 6380 C 601.207 -4.12995 -0.981618 0
M  V30 6381 C 599.114 -5.88583 0.576567 0
M  V30 6382 H 598.044 -0.749246 -0.084536 0
M  V30 6383 H 600.695 -1.76771 0.492364 0
M  V30 6384 H 599.077 -3.77202 -1.20559 0
M  V30 6385 H 600.251 -4.32124 1.60017 0
M  V30 6386 H 598.566 -3.95699 1.29659 0
M  V30 6387 H 601.163 -5.21418 -1.18436 0
M  V30 6388 H 601.506 -3.68027 -1.94581 0
M  V30 6389 H 602.039 -3.96871 -0.271696 0
M  V30 6390 H 598.778 -6.37841 1.51128 0
M  V30 6391 H 598.298 -5.99592 -0.158047 0
M  V30 6392 H 599.977 -6.46676 0.204722 0
M  V30 6393 N 600.109 -0.101901 -1.5727 0
M  V30 6394 C 601.337 0.568392 -1.98939 0
M  V30 6395 C 601.752 1.61301 -0.981194 0
M  V30 6396 O 601.109 1.82478 0.0282869 0
M  V30 6397 C 601.16 1.20997 -3.40649 0
M  V30 6398 O 600.881 0.207129 -4.3761 0
M  V30 6399 C 602.382 1.96523 -3.97358 0
M  V30 6400 H 599.602 0.15186 -0.65359 0
M  V30 6401 H 602.146 -0.183198 -2.03678 0
M  V30 6402 H 600.301 1.91245 -3.36904 0
M  V30 6403 H 600.715 0.671071 -5.20189 0
M  V30 6404 H 602.189 2.36764 -4.98645 0
M  V30 6405 H 602.666 2.83376 -3.35552 0
M  V30 6406 H 603.272 1.31076 -4.04598 0
M  V30 6407 N 601.587 1.56661 0.17182 0
M  V30 6408 C 602.833 1.82235 0.889845 0
M  V30 6409 C 603.166 0.679673 1.81918 0
M  V30 6410 O 602.441 -0.318404 1.91876 0
M  V30 6411 C 602.724 3.18195 1.68595 0
M  V30 6412 C 602.577 4.42989 0.779773 0
M  V30 6413 C 603.896 3.5109 2.65375 0
M  V30 6414 H 601.015 0.66291 0.322056 0
M  V30 6415 H 603.657 1.89358 0.15608 0
M  V30 6416 H 601.807 3.12253 2.3115 0
M  V30 6417 H 603.479 4.60997 0.16714 0
M  V30 6418 H 601.722 4.33711 0.0877964 0
M  V30 6419 H 602.393 5.3467 1.3723 0
M  V30 6420 H 604.869 3.57482 2.12946 0
M  V30 6421 H 603.745 4.47298 3.18144 0
M  V30 6422 H 604.006 2.75768 3.45549 0
M  V30 6423 N 603.065 -0.440357 1.51323 0
M  V30 6424 C 604.295 -1.21079 1.67402 0
M  V30 6425 C 604.703 -1.85555 0.369599 0
M  V30 6426 O 604.046 -1.71375 -0.661525 0
M  V30 6427 C 604.108 -2.33839 2.73056 0
M  V30 6428 C 603.772 -1.89755 4.15743 0
M  V30 6429 C 604.769 -1.40268 5.0062 0
M  V30 6430 C 602.454 -1.97539 4.61826 0
M  V30 6431 C 604.448 -0.991474 6.29642 0
M  V30 6432 C 602.135 -1.56029 5.90845 0
M  V30 6433 C 603.133 -1.06915 6.7458 0
M  V30 6434 O 602.821 -0.659933 8.01187 0
M  V30 6435 H 602.553 -0.371133 0.56501 0
M  V30 6436 H 605.107 -0.528409 1.98487 0
M  V30 6437 H 603.337 -3.05345 2.37279 0
M  V30 6438 H 605.026 -2.95713 2.78044 0
M  V30 6439 H 605.792 -1.33652 4.66221 0
M  V30 6440 H 601.671 -2.34713 3.96776 0
M  V30 6441 H 605.215 -0.607425 6.9495 0
M  V30 6442 H 601.112 -1.62315 6.24759 0
M  V30 6443 H 601.88 -0.786052 8.14717 0
M  V30 6444 N 604.543 -1.41418 -0.695603 0
M  V30 6445 C 605.491 -1.43467 -1.83084 0
M  V30 6446 C 606.485 -0.312719 -1.66489 0
M  V30 6447 O 607.691 -0.484744 -1.7335 0
M  V30 6448 H 604.066 -0.448891 -0.603325 0
M  V30 6449 H 606.037 -2.39144 -1.78473 0
M  V30 6450 C 604.786 -1.3337 -3.21104 0
M  V30 6451 H 604.109 -2.18989 -3.3449 0
M  V30 6452 H 605.549 -1.38865 -4.00615 0
M  V30 6453 C 604.008 -0.0460484 -3.36869 0
M  V30 6454 O 604.538 0.909258 -3.91274 0
M  V30 6455 N 602.744 0.0300222 -2.90584 0
M  V30 6456 H 602.291 -0.748129 -2.46497 0
M  V30 6457 H 602.249 0.890991 -3.01511 0
M  V30 6458 N 606.021 0.929856 -1.27246 0
M  V30 6459 C 607.249 1.71144 -1.16265 0
M  V30 6460 C 607.664 1.867 0.280786 0
M  V30 6461 O 607.021 1.38249 1.19136 0
M  V30 6462 C 607.072 3.11222 -1.83911 0
M  V30 6463 O 606.793 2.96398 -3.22614 0
M  V30 6464 C 608.294 4.05541 -1.79028 0
M  V30 6465 H 605.514 0.535499 -0.404328 0
M  V30 6466 H 608.058 1.16492 -1.68077 0
M  V30 6467 H 606.213 3.6274 -1.36009 0
M  V30 6468 H 606.627 3.8494 -3.56261 0
M  V30 6469 H 608.101 5.01351 -2.30978 0
M  V30 6470 H 608.578 4.32589 -0.759168 0
M  V30 6471 H 609.184 3.59947 -2.26535 0
M  V30 6472 N 607.499 1.09233 1.13605 0
M  V30 6473 C 608.447 0.724572 2.21027 0
M  V30 6474 C 609.441 -0.273595 1.67176 0
M  V30 6475 O 610.647 -0.135266 1.79491 0
M  V30 6476 H 607.022 0.216319 0.720215 0
M  V30 6477 H 608.993 1.63975 2.49309 0
M  V30 6478 C 607.742 0.159126 3.47336 0
M  V30 6479 H 607.065 0.918387 3.89109 0
M  V30 6480 H 608.505 -0.0602851 4.23957 0
M  V30 6481 C 606.964 -1.10514 3.18258 0
M  V30 6482 O 607.494 -2.18869 3.36837 0
M  V30 6483 N 605.7 -1.01886 2.72154 0
M  V30 6484 H 605.247 -0.137027 2.57235 0
M  V30 6485 H 605.205 -1.8655 2.53074 0
M  V30 6486 N 608.977 -1.30795 0.87923 0
M  V30 6487 C 610.226 -1.95636 0.490875 0
M  V30 6488 C 610.539 -1.70214 -0.963674 0
M  V30 6489 O 611.745 -2.28991 -1.45861 0
M  V30 6490 C 610.201 -3.50271 0.826929 0
M  V30 6491 C 609.809 -3.84521 2.29886 0
M  V30 6492 C 611.553 -4.21456 0.507494 0
M  V30 6493 C 609.46 -5.32309 2.57685 0
M  V30 6494 H 608.39 -0.732238 0.179841 0
M  V30 6495 H 611.041 -1.48829 1.07341 0
M  V30 6496 H 609.423 -3.9562 0.173542 0
M  V30 6497 H 610.597 -3.50102 2.99609 0
M  V30 6498 H 608.912 -3.26425 2.58526 0
M  V30 6499 H 611.509 -5.30199 0.692293 0
M  V30 6500 H 611.852 -4.12614 -0.552718 0
M  V30 6501 H 612.385 -3.81772 1.11782 0
M  V30 6502 H 609.124 -5.46195 3.62424 0
M  V30 6503 H 608.644 -5.68048 1.92566 0
M  V30 6504 H 610.323 -5.99678 2.42889 0
M  V30 6505 N 610.455 -0.639598 -1.44038 0
M  V30 6506 C 611.732 -0.078012 -1.95444 0
M  V30 6507 C 612.112 1.39847 -1.58133 0
M  V30 6508 O 611.46 2.11714 -0.859614 0
M  V30 6509 C 611.67 -0.309832 -3.47622 0
M  V30 6510 C 613.018 -0.207521 -4.24093 0
M  V30 6511 O 614.042 -0.241653 -3.55379 0
M  V30 6512 O 612.901 -0.119641 -5.46369 0
M  V30 6513 H 609.995 0.0174534 -0.826816 0
M  V30 6514 H 612.541 -0.711891 -1.54046 0
M  V30 6515 H 611.313 -1.33401 -3.67858 0
M  V30 6516 H 610.936 0.357777 -3.95987 0
M  V30 6517 N 611.933 1.52934 -0.380664 0
M  V30 6518 C 612.881 2.27727 0.47361 0
M  V30 6519 C 613.875 1.31288 1.0705 0
M  V30 6520 O 615.081 1.4886 1.01197 0
M  V30 6521 H 611.456 0.732189 0.171475 0
M  V30 6522 H 613.427 2.97864 -0.178785 0
M  V30 6523 C 612.176 3.0904 1.59341 0
M  V30 6524 H 611.499 3.831 1.14343 0
M  V30 6525 H 612.939 3.64527 2.16555 0
M  V30 6526 C 611.398 2.20813 2.54447 0
M  V30 6527 O 611.928 1.82907 3.57642 0
M  V30 6528 N 610.134 1.85145 2.23986 0
M  V30 6529 H 609.681 2.16169 1.40103 0
M  V30 6530 H 609.639 1.26402 2.87871 0
M  V30 6531 N 613.412 0.11024 1.57214 0
M  V30 6532 C 614.828 -0.24638 1.57687 0
M  V30 6533 C 615.028 -1.67344 1.12241 0
M  V30 6534 O 614.084 -2.39298 0.805783 0
M  V30 6535 C 615.397 -0.0210288 3.00693 0
M  V30 6536 C 616.945 -0.0876077 3.12877 0
M  V30 6537 C 617.42 0.10994 4.57868 0
M  V30 6538 N 618.911 0.0556135 4.63167 0
M  V30 6539 C 619.646 0.183495 5.73106 0
M  V30 6540 N 619.142 0.367058 6.91827 0
M  V30 6541 N 620.935 0.123689 5.61964 0
M  V30 6542 H 613.086 1.04246 1.85058 0
M  V30 6543 H 615.349 0.40979 0.854854 0
M  V30 6544 H 615.055 0.965203 3.38196 0
M  V30 6545 H 614.929 -0.756748 3.69531 0
M  V30 6546 H 617.316 -1.06436 2.75237 0
M  V30 6547 H 617.397 0.67985 2.466 0
M  V30 6548 H 617.041 1.08362 4.96206 0
M  V30 6549 H 616.971 -0.677397 5.22225 0
M  V30 6550 H 619.462 -0.0831062 3.77809 0
M  V30 6551 H 619.775 0.455739 7.71455 0
M  V30 6552 H 618.12 0.40292 6.93831 0
M  V30 6553 H 621.311 -0.0186928 4.68096 0
M  V30 6554 H 621.484 0.226797 6.47603 0
M  V30 6555 N 614.89 -1.56749 -0.16351 0
M  V30 6556 C 615.84 -1.93424 -1.20712 0
M  V30 6557 C 616.824 -0.803469 -1.39403 0
M  V30 6558 O 618.016 -1.06675 -1.41243 0
M  V30 6559 C 615.145 -2.30431 -2.54473 0
M  V30 6560 C 614.231 -3.5004 -2.39443 0
M  V30 6561 N 614.622 -4.67058 -1.9414 0
M  V30 6562 C 612.92 -3.548 -2.70246 0
M  V30 6563 C 613.621 -5.49184 -1.9176 0
M  V30 6564 N 612.597 -4.9044 -2.34457 0
M  V30 6565 H 616.399 -2.8138 -0.848681 0
M  V30 6566 H 613.913 -1.58089 -0.371717 0
M  V30 6567 H 615.91 -2.54903 -3.29894 0
M  V30 6568 H 614.57 -1.43818 -2.91112 0
M  V30 6569 H 615.581 -4.91128 -1.64357 0
M  V30 6570 H 612.258 -2.78685 -3.10871 0
M  V30 6571 H 613.648 -6.5297 -1.58366 0
M  V30 6572 N 616.368 0.432326 -1.51554 0
M  V30 6573 C 617.278 1.55023 -1.76082 0
M  V30 6574 C 618.294 1.61593 -0.645265 0
M  V30 6575 O 619.47 1.78742 -0.928086 0
M  V30 6576 C 616.535 2.90964 -1.88523 0
M  V30 6577 C 615.596 2.9447 -3.12388 0
M  V30 6578 C 614.829 4.23926 -3.24225 0
M  V30 6579 O 615.052 5.16576 -2.4188 0
M  V30 6580 O 613.986 4.33818 -4.17235 0
M  V30 6581 H 617.812 1.37238 -2.70923 0
M  V30 6582 H 615.397 0.615845 -1.36117 0
M  V30 6583 H 617.279 3.71633 -1.98662 0
M  V30 6584 H 615.954 3.08865 -0.9687 0
M  V30 6585 H 614.861 2.12737 -3.07723 0
M  V30 6586 H 616.194 2.81514 -4.03746 0
M  V30 6587 N 617.846 1.41785 0.688094 0
M  V30 6588 C 618.779 1.38643 1.81255 0
M  V30 6589 C 619.757 0.252583 1.60626 0
M  V30 6590 O 620.941 0.440691 1.83276 0
M  V30 6591 C 618.068 1.16449 3.18053 0
M  V30 6592 C 617.114 2.32651 3.57457 0
M  V30 6593 S 617.947 3.95152 3.61407 0
M  V30 6594 C 619.103 3.75275 5.00919 0
M  V30 6595 H 619.336 2.33799 1.83644 0
M  V30 6596 H 616.869 1.28398 0.857513 0
M  V30 6597 H 618.827 1.0433 3.97021 0
M  V30 6598 H 617.488 0.229002 3.13264 0
M  V30 6599 H 616.681 2.12835 4.56856 0
M  V30 6600 H 616.283 2.41215 2.85817 0
M  V30 6601 H 618.575 3.35443 5.88629 0
M  V30 6602 H 619.518 4.74302 5.25778 0
M  V30 6603 H 619.926 3.08401 4.7281 0
M  V30 6604 N 619.324 -0.923095 1.27737 0
M  V30 6605 C 620.254 -2.04124 1.13383 0
M  V30 6606 C 621.235 -1.70066 0.0340658 0
M  V30 6607 O 622.42 -1.93068 0.209383 0
M  V30 6608 C 619.55 -3.3831 0.785097 0
M  V30 6609 C 618.504 -3.86496 1.8386 0
M  V30 6610 C 617.83 -5.1754 1.34373 0
M  V30 6611 C 619.13 -4.09381 3.24353 0
M  V30 6612 H 620.824 -2.1639 2.06919 0
M  V30 6613 H 618.37 -1.03976 0.996243 0
M  V30 6614 H 620.323 -4.16016 0.671485 0
M  V30 6615 H 619.047 -3.2607 -0.185969 0
M  V30 6616 H 617.706 -3.10987 1.9412 0
M  V30 6617 H 617.354 -5.01696 0.361989 0
M  V30 6618 H 617.054 -5.50751 2.04811 0
M  V30 6619 H 618.578 -5.97811 1.24315 0
M  V30 6620 H 619.992 -4.77641 3.17067 0
M  V30 6621 H 618.389 -4.53906 3.92542 0
M  V30 6622 H 619.459 -3.14515 3.69064 0
M  V30 6623 N 620.802 -1.09834 -1.13024 0
M  V30 6624 C 622.03 -0.858902 -1.8823 0
M  V30 6625 C 622.445 0.590164 -1.79339 0
M  V30 6626 O 621.802 1.4065 -1.16292 0
M  V30 6627 C 621.853 -1.29066 -3.37675 0
M  V30 6628 O 621.574 -2.6829 -3.46341 0
M  V30 6629 C 623.075 -1.08421 -4.29837 0
M  V30 6630 H 620.295 -0.308713 -0.595766 0
M  V30 6631 H 622.839 -1.4614 -1.4305 0
M  V30 6632 H 620.994 -0.731961 -3.80422 0
M  V30 6633 H 621.408 -2.86598 -4.39274 0
M  V30 6634 H 622.882 -1.43553 -5.33007 0
M  V30 6635 H 623.359 -0.0223315 -4.39194 0
M  V30 6636 H 623.965 -1.62907 -3.92863 0
M  V30 6637 N 622.28 1.30327 -0.886154 0
M  V30 6638 C 623.21 2.30549 -0.370028 0
M  V30 6639 C 624.191 1.61039 0.547751 0
M  V30 6640 O 625.376 1.8864 0.461353 0
M  V30 6641 C 622.506 3.44808 0.415275 0
M  V30 6642 C 621.46 4.26024 -0.41085 0
M  V30 6643 C 620.786 5.32347 0.501128 0
M  V30 6644 C 622.086 4.95433 -1.65359 0
M  V30 6645 H 623.78 2.73969 -1.20754 0
M  V30 6646 H 621.326 1.3171 -0.582097 0
M  V30 6647 H 623.279 4.13986 0.78699 0
M  V30 6648 H 622.003 3.00197 1.28644 0
M  V30 6649 H 620.662 3.58535 -0.764719 0
M  V30 6650 H 620.31 4.83982 1.37004 0
M  V30 6651 H 620.01 5.87581 -0.0478356 0
M  V30 6652 H 621.534 6.0438 0.869333 0
M  V30 6653 H 622.948 5.5712 -1.35239 0
M  V30 6654 H 621.345 5.60537 -2.14284 0
M  V30 6655 H 622.415 4.21493 -2.39733 0
M  V30 6656 N 623.758 0.647228 1.43697 0
M  V30 6657 C 624.668 -0.0487997 2.34549 0
M  V30 6658 C 625.684 -0.818586 1.53542 0
M  V30 6659 O 626.86 -0.767195 1.86215 0
M  V30 6660 C 623.925 -1.00734 3.31743 0
M  V30 6661 C 622.986 -0.23515 4.28655 0
M  V30 6662 C 622.219 -1.14803 5.21206 0
M  V30 6663 O 622.442 -2.38717 5.18045 0
M  V30 6664 O 621.376 -0.623667 5.9866 0
M  V30 6665 H 625.202 0.698863 2.9555 0
M  V30 6666 H 622.787 0.407412 1.43738 0
M  V30 6667 H 624.669 -1.55837 3.91526 0
M  V30 6668 H 623.344 -1.73534 2.73254 0
M  V30 6669 H 622.251 0.359319 3.7237 0
M  V30 6670 H 623.584 0.453152 4.9011 0
M  V30 6671 N 625.236 -1.5273 0.388769 0
M  V30 6672 C 626.647 -1.86505 -0.0853788 0
M  V30 6673 C 626.998 -1.30847 -1.46197 0
M  V30 6674 O 626.123 -0.639609 -2.06732 0
M  V30 6675 C 626.718 -3.38414 -0.161703 0
M  V30 6676 C 625.277 -3.71902 -0.580144 0
M  V30 6677 C 624.424 -2.76095 0.258218 0
M  V30 6678 H 627.375 -1.46647 0.606665 0
M  V30 6679 H 627.396 -3.67638 -0.980936 0
M  V30 6680 H 626.908 -3.78893 0.840333 0
M  V30 6681 H 625.009 -3.36992 -1.58957 0
M  V30 6682 H 625.122 -4.77902 -0.338663 0
M  V30 6683 H 623.486 -2.53195 -0.276432 0
M  V30 6684 H 624.269 -3.19411 1.25822 0
M  V30 6685 N 626.714 -0.118576 -1.57153 0
M  V30 6686 C 627.644 0.828436 -2.1831 0
M  V30 6687 C 628.625 1.27758 -1.12303 0
M  V30 6688 O 629.81 1.34026 -1.40537 0
M  V30 6689 C 626.94 2.07876 -2.78217 0
M  V30 6690 C 625.894 1.76742 -3.89803 0
M  V30 6691 C 625.22 3.08801 -4.36516 0
M  V30 6692 C 626.52 1.03606 -5.11921 0
M  V30 6693 H 628.214 0.318824 -2.97698 0
M  V30 6694 H 625.76 0.151911 -1.43196 0
M  V30 6695 H 627.713 2.74584 -3.19659 0
M  V30 6696 H 626.437 2.61161 -1.96118 0
M  V30 6697 H 625.096 1.12424 -3.48936 0
M  V30 6698 H 624.744 3.6002 -3.51276 0
M  V30 6699 H 624.444 2.88743 -5.11763 0
M  V30 6700 H 625.968 3.76627 -4.80608 0
M  V30 6701 H 627.382 1.60467 -5.50385 0
M  V30 6702 H 625.779 0.936454 -5.92748 0
M  V30 6703 H 626.849 0.0227421 -4.84895 0
M  V30 6704 N 628.193 1.56834 0.155195 0
M  V30 6705 C 629.143 1.94061 1.19684 0
M  V30 6706 C 630.127 0.810851 1.38975 0
M  V30 6707 O 631.319 1.07422 1.40675 0
M  V30 6708 C 628.448 2.31778 2.53247 0
M  V30 6709 C 627.534 3.51305 2.37583 0
M  V30 6710 N 627.925 4.68081 1.9166 0
M  V30 6711 C 626.223 3.56228 2.6836 0
M  V30 6712 C 626.924 5.50193 1.88845 0
M  V30 6713 N 625.9 4.91676 2.31852 0
M  V30 6714 H 629.702 2.81826 0.833747 0
M  V30 6715 H 627.216 1.58284 0.363328 0
M  V30 6716 H 629.213 2.56649 3.28538 0
M  V30 6717 H 627.873 1.4536 2.90346 0
M  V30 6718 H 628.884 4.91993 1.6175 0
M  V30 6719 H 625.561 2.8033 3.09389 0
M  V30 6720 H 626.951 6.53801 1.54901 0
M  V30 6721 N 629.671 -0.424282 1.51781 0
M  V30 6722 C 630.899 -1.1947 1.68921 0
M  V30 6723 C 631.314 -1.84683 0.39213 0
M  V30 6724 O 630.671 -1.71261 -0.630554 0
M  V30 6725 C 630.722 -2.26909 2.81416 0
M  V30 6726 O 630.443 -1.64361 4.061 0
M  V30 6727 C 631.944 -3.16945 3.09937 0
M  V30 6728 H 629.164 -0.359591 0.566511 0
M  V30 6729 H 631.708 -0.501139 1.98265 0
M  V30 6730 H 629.863 -2.91959 2.54635 0
M  V30 6731 H 630.277 -2.35468 4.68674 0
M  V30 6732 H 631.751 -3.88437 3.922 0
M  V30 6733 H 632.228 -3.78451 2.22871 0
M  V30 6734 H 632.834 -2.57581 3.38426 0
M  V30 6735 N 631.149 -1.42148 -0.680565 0
M  V30 6736 C 632.079 -1.4796 -1.80638 0
M  V30 6737 C 633.06 -0.336728 -1.66734 0
M  V30 6738 O 634.245 -0.550247 -1.86242 0
M  V30 6739 C 631.375 -1.37569 -3.18892 0
M  V30 6740 C 630.329 -2.49823 -3.47524 0
M  V30 6741 C 629.655 -2.24491 -4.85291 0
M  V30 6742 C 630.955 -3.92144 -3.44994 0
M  V30 6743 H 632.649 -2.42184 -1.76032 0
M  V30 6744 H 630.195 -1.16566 -0.845481 0
M  V30 6745 H 632.148 -1.40243 -3.97379 0
M  V30 6746 H 630.872 -0.398357 -3.24162 0
M  V30 6747 H 629.531 -2.46455 -2.71395 0
M  V30 6748 H 629.179 -1.25066 -4.87204 0
M  V30 6749 H 628.879 -2.99722 -5.05411 0
M  V30 6750 H 630.403 -2.28906 -5.66069 0
M  V30 6751 H 631.817 -3.97145 -4.13459 0
M  V30 6752 H 630.214 -4.67179 -3.76648 0
M  V30 6753 H 631.284 -4.19225 -2.43676 0
M  V30 6754 N 632.627 0.916307 -1.28225 0
M  V30 6755 C 633.557 2.0352 -1.14464 0
M  V30 6756 C 634.538 1.70045 -0.0430844 0
M  V30 6757 O 635.723 1.92954 -0.219619 0
M  V30 6758 C 632.853 3.37889 -0.803027 0
M  V30 6759 C 631.807 3.85516 -1.85908 0
M  V30 6760 C 631.133 5.1682 -1.37116 0
M  V30 6761 C 632.433 4.07655 -3.26519 0
M  V30 6762 H 634.127 2.1529 -2.08064 0
M  V30 6763 H 631.673 1.03446 -1.00174 0
M  V30 6764 H 633.626 4.15654 -0.693537 0
M  V30 6765 H 632.35 3.26164 0.168674 0
M  V30 6766 H 631.009 3.09953 -1.95767 0
M  V30 6767 H 630.657 5.01497 -0.38859 0
M  V30 6768 H 630.357 5.49657 -2.07728 0
M  V30 6769 H 631.881 5.97143 -1.27484 0
M  V30 6770 H 633.295 4.75953 -3.19596 0
M  V30 6771 H 631.692 4.51818 -3.94943 0
M  V30 6772 H 632.762 3.12553 -3.70727 0
M  V30 6773 N 634.105 1.10431 1.1244 0
M  V30 6774 C 635.055 0.722378 2.16254 0
M  V30 6775 C 636.039 -0.268427 1.58645 0
M  V30 6776 O 637.231 -0.077169 1.76832 0
M  V30 6777 C 634.36 0.155763 3.42946 0
M  V30 6778 C 633.446 1.17361 4.07538 0
M  V30 6779 N 633.837 2.36429 4.47141 0
M  V30 6780 C 632.135 1.01412 4.34317 0
M  V30 6781 C 632.836 3.01259 4.97612 0
M  V30 6782 N 631.812 2.28777 4.93115 0
M  V30 6783 H 635.614 1.62876 2.4464 0
M  V30 6784 H 633.128 0.982031 1.29344 0
M  V30 6785 H 635.125 -0.135936 4.16678 0
M  V30 6786 H 633.785 -0.745339 3.1603 0
M  V30 6787 H 634.796 2.73954 4.39511 0
M  V30 6788 H 631.473 0.168574 4.1716 0
M  V30 6789 H 632.863 4.02541 5.37968 0
M  V30 6790 N 635.583 -1.29855 0.893053 0
M  V30 6791 C 636.516 -2.26079 0.3104 0
M  V30 6792 C 637.494 -1.52145 -0.573644 0
M  V30 6793 O 638.678 -1.8113 -0.521937 0
M  V30 6794 C 635.805 -3.34069 -0.558179 0
M  V30 6795 C 634.851 -4.25721 0.257638 0
M  V30 6796 S 635.684 -5.09409 1.65114 0
M  V30 6797 C 636.84 -6.20903 0.789307 0
M  V30 6798 H 637.073 -2.75151 1.12602 0
M  V30 6799 H 634.606 -1.37975 0.692978 0
M  V30 6800 H 636.564 -3.9675 -1.05355 0
M  V30 6801 H 635.225 -2.83705 -1.34797 0
M  V30 6802 H 634.418 -5.02366 -0.405562 0
M  V30 6803 H 634.02 -3.67656 0.685917 0
M  V30 6804 H 636.312 -6.77499 0.00978451 0
M  V30 6805 H 637.255 -6.91426 1.52762 0
M  V30 6806 H 637.663 -5.63435 0.346634 0
M  V30 6807 N 637.061 -0.65484 -1.43351 0
M  V30 6808 C 638.008 0.0357713 -2.30772 0
M  V30 6809 C 638.978 0.813035 -1.44841 0
M  V30 6810 O 640.163 0.789314 -1.73708 0
M  V30 6811 C 637.303 0.995084 -3.30442 0
M  V30 6812 C 636.416 0.21375 -4.31471 0
M  V30 6813 C 635.551 1.16701 -5.18222 0
M  V30 6814 C 634.59 0.376201 -6.10943 0
M  V30 6815 N 633.727 1.28113 -6.90313 0
M  V30 6816 H 638.567 -0.71559 -2.89281 0
M  V30 6817 H 636.104 -0.364645 -1.42509 0
M  V30 6818 H 638.062 1.5649 -3.86739 0
M  V30 6819 H 636.692 1.7133 -2.7358 0
M  V30 6820 H 635.744 -0.472377 -3.77456 0
M  V30 6821 H 637.056 -0.401103 -4.97185 0
M  V30 6822 H 636.21 1.8074 -5.79153 0
M  V30 6823 H 634.949 1.81577 -4.52638 0
M  V30 6824 H 633.954 -0.277534 -5.49099 0
M  V30 6825 H 635.179 -0.268178 -6.7857 0
M  V30 6826 H 633.125 1.91666 -6.27376 0
M  V30 6827 H 633.042 0.720879 -7.52555 0
M  V30 6828 H 634.31 1.90962 -7.55747 0
M  V30 6829 N 638.539 1.52521 -0.396863 0
M  V30 6830 C 639.785 2.02641 0.175606 0
M  V30 6831 C 640.14 1.27782 1.43839 0
M  V30 6832 O 639.433 0.371921 1.87956 0
M  V30 6833 C 639.627 3.5403 0.489677 0
M  V30 6834 C 639.456 4.43551 -0.741113 0
M  V30 6835 C 638.226 4.8927 -1.26265 0
M  V30 6836 C 640.424 4.88263 -1.61565 0
M  V30 6837 N 638.406 5.62884 -2.4502 0
M  V30 6838 C 639.777 5.60534 -2.64955 0
M  V30 6839 C 641.832 4.70294 -1.63486 0
M  V30 6840 C 640.535 6.16744 -3.70162 0
M  V30 6841 C 642.561 5.27392 -2.67603 0
M  V30 6842 C 641.923 5.99575 -3.69715 0
M  V30 6843 H 638.022 0.781563 0.0261477 0
M  V30 6844 H 640.606 1.86816 -0.548454 0
M  V30 6845 H 638.777 3.69952 1.18279 0
M  V30 6846 H 640.509 3.90843 1.04996 0
M  V30 6847 H 637.264 4.66403 -0.822509 0
M  V30 6848 H 637.688 6.04339 -3.05128 0
M  V30 6849 H 642.33 4.13985 -0.858848 0
M  V30 6850 H 640.048 6.72131 -4.48626 0
M  V30 6851 H 643.634 5.15365 -2.69982 0
M  V30 6852 H 642.514 6.42967 -4.48958 0
M  V30 6853 N 640.017 0.126909 1.57088 0
M  V30 6854 C 640.964 -0.82036 2.15728 0
M  V30 6855 C 641.934 -1.25811 1.08447 0
M  V30 6856 O 643.119 -1.33422 1.36393 0
M  V30 6857 C 640.259 -2.06199 2.76724 0
M  V30 6858 C 639.372 -1.67188 3.98337 0
M  V30 6859 C 638.507 -2.86378 4.47393 0
M  V30 6860 C 637.546 -2.43644 5.61519 0
M  V30 6861 N 636.683 -3.55775 6.05284 0
M  V30 6862 H 641.523 -0.313472 2.96347 0
M  V30 6863 H 639.06 -0.14303 1.46403 0
M  V30 6864 H 641.018 -2.78959 3.10222 0
M  V30 6865 H 639.648 -2.54333 1.98782 0
M  V30 6866 H 638.7 -0.842714 3.70948 0
M  V30 6867 H 640.012 -1.31789 4.81075 0
M  V30 6868 H 639.166 -3.67353 4.82842 0
M  V30 6869 H 637.905 -3.25009 3.63621 0
M  V30 6870 H 636.91 -1.61104 5.25667 0
M  V30 6871 H 638.135 -2.06122 6.47063 0
M  V30 6872 H 636.081 -3.94065 5.24451 0
M  V30 6873 H 635.998 -3.24325 6.82898 0
M  V30 6874 H 637.266 -4.37166 6.45373 0
M  V30 6875 N 641.495 -1.56914 -0.146875 0
M  V30 6876 C 642.442 -1.98275 -1.18134 0
M  V30 6877 C 643.412 -0.850367 -1.42681 0
M  V30 6878 O 644.597 -1.11244 -1.55014 0
M  V30 6879 C 641.737 -2.36861 -2.5098 0
M  V30 6880 C 640.85 -3.63391 -2.33605 0
M  V30 6881 C 639.985 -3.91079 -3.59486 0
M  V30 6882 C 639.024 -5.10879 -3.37149 0
M  V30 6883 N 638.161 -5.34577 -4.55161 0
M  V30 6884 H 643.001 -2.8645 -0.821622 0
M  V30 6885 H 640.538 -1.41718 -0.394248 0
M  V30 6886 H 642.496 -2.57262 -3.28439 0
M  V30 6887 H 641.126 -1.51766 -2.84898 0
M  V30 6888 H 640.178 -3.50766 -1.47199 0
M  V30 6889 H 641.49 -4.51007 -2.13059 0
M  V30 6890 H 640.644 -4.11979 -4.45374 0
M  V30 6891 H 639.383 -3.01885 -3.83036 0
M  V30 6892 H 638.388 -4.89853 -2.49649 0
M  V30 6893 H 639.613 -6.01626 -3.14997 0
M  V30 6894 H 637.559 -4.48337 -4.78884 0
M  V30 6895 H 637.476 -6.16463 -4.37618 0
M  V30 6896 H 638.744 -5.59975 -5.42263 0
M  V30 6897 N 642.974 0.416227 -1.52004 0
M  V30 6898 C 644.221 1.16383 -1.65714 0
M  V30 6899 C 644.549 1.9068 -0.383594 0
M  V30 6900 O 643.804 1.85174 0.633185 0
M  V30 6901 C 644.103 2.18923 -2.82502 0
M  V30 6902 C 643.769 1.61485 -4.20991 0
M  V30 6903 C 642.431 1.45545 -4.58661 0
M  V30 6904 C 644.783 1.19468 -5.07323 0
M  V30 6905 C 642.111 0.860937 -5.80349 0
M  V30 6906 C 644.463 0.614386 -6.29609 0
M  V30 6907 C 643.127 0.442056 -6.66035 0
M  V30 6908 H 642.397 0.425875 -0.606392 0
M  V30 6909 H 645.044 0.45199 -1.8609 0
M  V30 6910 H 643.349 2.96225 -2.56433 0
M  V30 6911 H 645.046 2.76628 -2.90307 0
M  V30 6912 H 641.636 1.74873 -3.91302 0
M  V30 6913 H 645.82 1.30596 -4.78809 0
M  V30 6914 H 641.076 0.715372 -6.072 0
M  V30 6915 H 645.25 0.280393 -6.95835 0
M  V30 6916 H 642.877 -0.0207218 -7.60197 0
M  V30 6917 N 644.452 1.42507 0.673017 0
M  V30 6918 C 645.415 1.4582 1.76831 0
M  V30 6919 C 646.415 0.345542 1.57043 0
M  V30 6920 O 647.605 0.606447 1.63303 0
M  V30 6921 C 644.737 1.29158 3.15485 0
M  V30 6922 H 645.93 2.43345 1.7528 0
M  V30 6923 H 643.483 1.28981 0.882817 0
M  V30 6924 H 644.218 0.325626 3.22661 0
M  V30 6925 H 644.003 2.09797 3.31252 0
M  V30 6926 H 645.493 1.34363 3.95394 0
M  V30 6927 N 645.93 -0.909495 1.28709 0
M  V30 6928 C 646.877 -2.01245 1.13 0
M  V30 6929 C 647.847 -1.6608 0.0259684 0
M  V30 6930 O 649.032 -1.89835 0.191687 0
M  V30 6931 C 646.172 -3.35644 0.802315 0
M  V30 6932 C 645.285 -3.83653 1.98582 0
M  V30 6933 C 644.42 -5.06582 1.59837 0
M  V30 6934 C 643.459 -5.46934 2.74827 0
M  V30 6935 N 642.596 -6.61053 2.36546 0
M  V30 6936 H 647.436 -2.14013 2.0737 0
M  V30 6937 H 644.973 -1.0482 1.03205 0
M  V30 6938 H 646.931 -4.12963 0.593057 0
M  V30 6939 H 645.561 -3.22631 -0.104457 0
M  V30 6940 H 644.613 -3.02454 2.30708 0
M  V30 6941 H 645.925 -4.09515 2.84779 0
M  V30 6942 H 645.079 -5.91457 1.35143 0
M  V30 6943 H 643.818 -4.82537 0.707753 0
M  V30 6944 H 642.823 -4.60599 3.00215 0
M  V30 6945 H 644.048 -5.72965 3.64538 0
M  V30 6946 H 641.994 -6.3863 1.49959 0
M  V30 6947 H 641.911 -6.86662 3.16277 0
M  V30 6948 H 643.179 -7.49221 2.15146 0
M  V30 6949 N 647.408 -1.11026 -1.11852 0
M  V30 6950 C 648.358 -0.733836 -2.15868 0
M  V30 6951 C 649.342 0.26001 -1.58785 0
M  V30 6952 O 650.534 0.0677901 -1.7687 0
M  V30 6953 C 647.663 -0.173948 -3.42859 0
M  V30 6954 C 646.749 -1.1952 -4.0691 0
M  V30 6955 N 647.14 -2.38797 -4.45881 0
M  V30 6956 C 645.438 -1.03714 -4.33773 0
M  V30 6957 C 646.139 -3.03894 -4.96007 0
M  V30 6958 N 645.115 -2.31389 -4.91894 0
M  V30 6959 H 648.917 -1.64171 -2.43773 0
M  V30 6960 H 646.431 -0.988877 -1.28822 0
M  V30 6961 H 648.428 0.113836 -4.16745 0
M  V30 6962 H 647.088 0.728568 -3.16421 0
M  V30 6963 H 648.099 -2.76281 -4.38051 0
M  V30 6964 H 644.776 -0.190694 -4.17064 0
M  V30 6965 H 646.166 -4.05389 -5.35826 0
M  V30 6966 N 648.886 1.2938 -0.899927 0
M  V30 6967 C 649.819 2.25911 -0.322386 0
M  V30 6968 C 650.797 1.52447 0.565567 0
M  V30 6969 O 651.981 1.81404 0.512324 0
M  V30 6970 C 649.108 3.3436 0.540455 0
M  V30 6971 C 648.154 4.25579 -0.280211 0
M  V30 6972 S 648.987 5.08526 -1.67814 0
M  V30 6973 C 650.143 6.20476 -0.822224 0
M  V30 6974 H 650.376 2.7455 -1.1406 0
M  V30 6975 H 647.909 1.37606 -0.700285 0
M  V30 6976 H 649.867 3.97303 1.0325 0
M  V30 6977 H 648.528 2.84416 1.33291 0
M  V30 6978 H 647.721 5.02574 0.378915 0
M  V30 6979 H 647.323 3.67287 -0.705405 0
M  V30 6980 H 649.615 6.77485 -0.0457138 0
M  V30 6981 H 650.558 6.90606 -1.56426 0
M  V30 6982 H 650.966 5.63243 -0.37651 0
M  V30 6983 N 650.364 0.662433 1.43002 0
M  V30 6984 C 651.611 0.179591 2.01702 0
M  V30 6985 C 651.939 -1.20964 1.52309 0
M  V30 6986 O 651.194 -1.82343 0.7106 0
M  V30 6987 C 651.493 0.149363 3.57088 0
M  V30 6988 C 651.159 1.48158 4.25864 0
M  V30 6989 C 649.821 1.84638 4.44367 0
M  V30 6990 C 652.173 2.35953 4.64732 0
M  V30 6991 C 649.501 3.08561 4.99006 0
M  V30 6992 C 651.853 3.59176 5.20745 0
M  V30 6993 C 650.517 3.95841 5.37463 0
M  V30 6994 H 649.787 0.0657172 0.73808 0
M  V30 6995 H 652.434 0.854968 1.71355 0
M  V30 6996 H 650.739 -0.609491 3.8703 0
M  V30 6997 H 652.436 -0.241241 4.00274 0
M  V30 6998 H 649.026 1.18777 4.11813 0
M  V30 6999 H 653.21 2.09058 4.50121 0
M  V30 7000 H 648.466 3.37005 5.10135 0
M  V30 7001 H 652.64 4.27417 5.49807 0
M  V30 7002 H 650.267 4.91942 5.79566 0
M  V30 7003 N 651.842 -1.52309 0.404946 0
M  V30 7004 C 653.089 -2.01767 -0.1722 0
M  V30 7005 C 653.417 -1.29075 -1.45498 0
M  V30 7006 O 652.672 -0.3843 -1.9189 0
M  V30 7007 C 652.971 -3.54284 -0.470895 0
M  V30 7008 C 652.637 -4.45079 0.722194 0
M  V30 7009 C 651.299 -4.69617 1.04946 0
M  V30 7010 C 653.651 -4.98555 1.51962 0
M  V30 7011 C 650.979 -5.44878 2.17543 0
M  V30 7012 C 653.331 -5.75049 2.63632 0
M  V30 7013 C 651.995 -5.9786 2.9685 0
M  V30 7014 H 651.265 -0.738316 -0.0630125 0
M  V30 7015 H 653.912 -1.83566 0.545506 0
M  V30 7016 H 652.217 -3.70642 -1.27012 0
M  V30 7017 H 653.914 -3.90058 -0.930346 0
M  V30 7018 H 650.504 -4.26155 0.457131 0
M  V30 7019 H 654.688 -4.79509 1.28002 0
M  V30 7020 H 649.944 -5.60762 2.43631 0
M  V30 7021 H 654.118 -6.15483 3.25813 0
M  V30 7022 H 651.745 -6.5596 3.84215 0
M  V30 7023 N 653.32 -0.135238 -1.57019 0
M  V30 7024 C 654.25 0.805235 -2.19176 0
M  V30 7025 C 655.231 1.2656 -1.13651 0
M  V30 7026 O 656.416 1.32528 -1.4195 0
M  V30 7027 C 653.546 2.04914 -2.80406 0
M  V30 7028 C 652.5 1.72598 -3.91655 0
M  V30 7029 C 651.826 3.04154 -4.39766 0
M  V30 7030 C 653.126 0.981709 -5.12991 0
M  V30 7031 H 654.82 0.287232 -2.98019 0
M  V30 7032 H 652.366 0.136714 -1.4335 0
M  V30 7033 H 654.319 2.71178 -3.22553 0
M  V30 7034 H 653.043 2.59067 -1.98877 0
M  V30 7035 H 651.702 1.08717 -3.50109 0
M  V30 7036 H 651.35 3.56274 -3.55075 0
M  V30 7037 H 651.05 2.83299 -5.14796 0
M  V30 7038 H 652.574 3.71509 -4.84576 0
M  V30 7039 H 653.988 1.5462 -5.52056 0
M  V30 7040 H 652.385 0.873533 -5.93708 0
M  V30 7041 H 653.455 -0.0286887 -4.84892 0
M  V30 7042 N 654.798 1.5699 0.138552 0
M  V30 7043 C 656.023 1.88344 0.86841 0
M  V30 7044 C 656.448 0.725159 1.7356 0
M  V30 7045 O 655.806 -0.324992 1.78363 0
M  V30 7046 C 655.854 3.18334 1.69398 0
M  V30 7047 O 654.958 3.02863 2.79907 0
M  V30 7048 H 654.299 0.618577 0.241367 0
M  V30 7049 H 656.829 2.04207 0.126826 0
M  V30 7050 H 656.839 3.50567 2.08726 0
M  V30 7051 H 655.514 4.02238 1.05725 0
M  V30 7052 H 654.091 2.82056 2.43924 0
M  V30 7053 N 656.276 -0.40816 1.52223 0
M  V30 7054 C 657.523 -1.15502 1.66329 0
M  V30 7055 C 657.851 -1.90474 0.393701 0
M  V30 7056 O 657.106 -1.85507 -0.623356 0
M  V30 7057 C 657.405 -2.17422 2.83659 0
M  V30 7058 C 657.071 -1.5925 4.21841 0
M  V30 7059 C 655.733 -1.4311 4.59427 0
M  V30 7060 C 658.085 -1.16776 5.0795 0
M  V30 7061 C 655.413 -0.830148 5.80797 0
M  V30 7062 C 657.765 -0.580988 6.29926 0
M  V30 7063 C 656.429 -0.406729 6.6626 0
M  V30 7064 H 655.699 -0.422653 0.608642 0
M  V30 7065 H 658.346 -0.442114 1.86327 0
M  V30 7066 H 656.651 -2.94861 2.58001 0
M  V30 7067 H 658.348 -2.75084 2.9177 0
M  V30 7068 H 654.938 -1.72796 3.92224 0
M  V30 7069 H 659.122 -1.28055 4.79495 0
M  V30 7070 H 654.378 -0.68316 6.07571 0
M  V30 7071 H 658.552 -0.243488 6.95974 0
M  V30 7072 H 656.179 0.0610366 7.60175 0
M  V30 7073 N 657.755 -1.42862 -0.66545 0
M  V30 7074 C 658.995 -1.45323 -1.43738 0
M  V30 7075 C 659.359 -0.0707969 -1.91869 0
M  V30 7076 O 660.56 0.0298852 -2.68783 0
M  V30 7077 C 658.831 -2.45671 -2.59577 0
M  V30 7078 S 660.39 -2.6691 -3.48288 0
M  V30 7079 H 657.208 -0.51442 -0.490809 0
M  V30 7080 H 659.81 -1.79537 -0.773745 0
M  V30 7081 H 658.514 -3.44869 -2.22471 0
M  V30 7082 H 658.045 -2.12914 -3.30804 0
M  V30 7083 H 660.06 -1.95914 -4.55886 0
M  V30 7084 N 659.233 0.902656 -1.29189 0
M  V30 7085 C 660.48 1.65287 -1.16989 0
M  V30 7086 C 660.808 1.92485 0.279232 0
M  V30 7087 O 660.063 1.53143 1.21843 0
M  V30 7088 C 660.362 3.011 -1.92545 0
M  V30 7089 C 660.028 2.93521 -3.42281 0
M  V30 7090 C 658.69 2.91161 -3.83117 0
M  V30 7091 C 661.042 2.82947 -4.3771 0
M  V30 7092 C 658.37 2.76043 -5.17704 0
M  V30 7093 C 660.722 2.69368 -5.72384 0
M  V30 7094 C 659.386 2.65373 -6.12482 0
M  V30 7095 H 658.656 0.604828 -0.428094 0
M  V30 7096 H 661.303 1.05084 -1.60092 0
M  V30 7097 H 659.608 3.65153 -1.42024 0
M  V30 7098 H 661.305 3.58073 -1.80512 0
M  V30 7099 H 657.895 2.96158 -3.09819 0
M  V30 7100 H 662.079 2.83849 -4.07116 0
M  V30 7101 H 657.335 2.71352 -5.47885 0
M  V30 7102 H 661.509 2.60156 -6.45981 0
M  V30 7103 H 659.136 2.53415 -7.16718 0
M  V30 7104 N 660.711 1.11618 1.11262 0
M  V30 7105 C 661.941 0.88745 1.86569 0
M  V30 7106 C 662.349 -0.56636 1.80524 0
M  V30 7107 O 661.692 -1.40289 1.18594 0
M  V30 7108 C 661.754 1.27313 3.36202 0
M  V30 7109 C 661.418 2.73649 3.66013 0
M  V30 7110 C 662.415 3.71863 3.63337 0
M  V30 7111 C 660.1 3.10342 3.9496 0
M  V30 7112 C 662.094 5.04788 3.89188 0
M  V30 7113 C 659.781 4.43451 4.20469 0
M  V30 7114 C 660.779 5.40484 4.17572 0
M  V30 7115 O 660.467 6.71195 4.42439 0
M  V30 7116 H 660.199 0.317543 0.596777 0
M  V30 7117 H 662.753 1.48768 1.41624 0
M  V30 7118 H 660.983 0.616062 3.81761 0
M  V30 7119 H 662.672 1.01991 3.92877 0
M  V30 7120 H 663.438 3.44861 3.41022 0
M  V30 7121 H 659.317 2.35431 3.9635 0
M  V30 7122 H 662.861 5.80516 3.86842 0
M  V30 7123 H 658.758 4.70187 4.42261 0
M  V30 7124 H 659.526 6.77012 4.59997 0
M  V30 7125 N 662.189 -1.289 0.906776 0
M  V30 7126 C 663.436 -1.95269 0.536326 0
M  V30 7127 C 663.764 -1.71435 -0.918711 0
M  V30 7128 O 663.019 -1.02431 -1.66752 0
M  V30 7129 C 663.318 -3.48704 0.783617 0
M  V30 7130 C 662.984 -3.92626 2.21711 0
M  V30 7131 C 661.646 -4.04329 2.60906 0
M  V30 7132 C 663.998 -4.15218 3.15029 0
M  V30 7133 C 661.326 -4.35998 3.92584 0
M  V30 7134 C 663.678 -4.48365 4.46264 0
M  V30 7135 C 662.342 -4.58278 4.85322 0
M  V30 7136 H 661.612 -0.714538 0.196256 0
M  V30 7137 H 664.259 -1.53366 1.14678 0
M  V30 7138 H 662.564 -3.91696 0.0903048 0
M  V30 7139 H 664.261 -3.98162 0.476267 0
M  V30 7140 H 660.851 -3.84038 1.90296 0
M  V30 7141 H 665.035 -4.05636 2.8596 0
M  V30 7142 H 660.291 -4.41878 4.22557 0
M  V30 7143 H 664.465 -4.64795 5.18593 0
M  V30 7144 H 662.092 -4.82573 5.87391 0
M  V30 7145 N 663.667 -0.670007 -1.42649 0
M  V30 7146 C 664.914 -0.190286 -2.01604 0
M  V30 7147 C 665.242 1.20155 -1.52948 0
M  V30 7148 O 664.497 1.81964 -0.72026 0
M  V30 7149 C 664.796 -0.168298 -3.57004 0
M  V30 7150 C 664.462 -1.50415 -4.25072 0
M  V30 7151 C 663.124 -1.86992 -4.43382 0
M  V30 7152 C 665.476 -2.38414 -4.63474 0
M  V30 7153 C 662.804 -3.11203 -4.97363 0
M  V30 7154 C 665.156 -3.61933 -5.18833 0
M  V30 7155 C 663.82 -3.98685 -5.35356 0
M  V30 7156 H 663.09 -0.0696305 -0.737721 0
M  V30 7157 H 665.737 -0.864044 -1.70899 0
M  V30 7158 H 664.042 0.588958 -3.87348 0
M  V30 7159 H 665.739 0.22001 -4.00396 0
M  V30 7160 H 662.329 -1.20959 -4.11177 0
M  V30 7161 H 666.513 -2.11442 -4.49006 0
M  V30 7162 H 661.769 -3.39705 -5.08341 0
M  V30 7163 H 665.943 -4.30326 -5.47533 0
M  V30 7164 H 663.57 -4.95009 -5.76949 0
M  V30 7165 N 665.145 1.52092 -0.413018 0
M  V30 7166 C 666.375 2.05974 0.160648 0
M  V30 7167 C 666.783 1.28267 1.39084 0
M  V30 7168 O 666.126 0.328805 1.80733 0
M  V30 7169 C 666.188 3.54918 0.572169 0
M  V30 7170 C 665.852 4.53705 -0.547826 0
M  V30 7171 C 666.849 5.00342 -1.41259 0
M  V30 7172 C 664.534 4.97089 -0.721627 0
M  V30 7173 C 666.528 5.89011 -2.43607 0
M  V30 7174 C 664.215 5.85554 -1.74841 0
M  V30 7175 C 665.213 6.3141 -2.60403 0
M  V30 7176 O 664.901 7.18123 -3.61323 0
M  V30 7177 H 664.633 0.675636 0.0221936 0
M  V30 7178 H 667.187 1.96931 -0.58373 0
M  V30 7179 H 665.417 3.61661 1.36889 0
M  V30 7180 H 667.106 3.91428 1.0742 0
M  V30 7181 H 667.872 4.67537 -1.28974 0
M  V30 7182 H 663.751 4.60954 -0.0652911 0
M  V30 7183 H 667.295 6.24725 -3.10425 0
M  V30 7184 H 663.192 6.17773 -1.87156 0
M  V30 7185 H 663.96 7.36244 -3.57613 0
M  V30 7186 N 666.623 0.143563 1.56945 0
M  V30 7187 C 667.571 -0.814556 2.17871 0
M  V30 7188 C 668.565 -1.25778 1.13474 0
M  V30 7189 O 669.771 -1.22666 1.31731 0
M  V30 7190 H 666.146 -0.280873 0.697578 0
M  V30 7191 H 668.117 -0.276459 2.97117 0
M  V30 7192 C 666.866 -2.04503 2.81201 0
M  V30 7193 H 666.189 -1.71296 3.61245 0
M  V30 7194 H 667.629 -2.69493 3.27337 0
M  V30 7195 C 666.088 -2.85079 1.79532 0
M  V30 7196 O 666.618 -3.81306 1.26368 0
M  V30 7197 N 664.824 -2.49546 1.48913 0
M  V30 7198 H 664.371 -1.71359 1.92338 0
M  V30 7199 H 664.329 -3.03751 0.811348 0
M  V30 7200 N 668.101 -1.57061 -0.130224 0
M  V30 7201 C 669.35 -1.83446 -0.838488 0
M  V30 7202 C 669.663 -0.727468 -1.81569 0
M  V30 7203 O 670.869 -0.877394 -2.56932 0
M  V30 7204 C 669.325 -3.25201 -1.54182 0
M  V30 7205 C 668.933 -4.4388 -0.606178 0
M  V30 7206 C 670.677 -3.60844 -2.23588 0
M  V30 7207 C 668.584 -5.76661 -1.31209 0
M  V30 7208 H 667.514 -0.684185 -0.316871 0
M  V30 7209 H 670.165 -1.83273 -0.0912059 0
M  V30 7210 H 668.547 -3.1981 -2.33533 0
M  V30 7211 H 669.721 -4.60545 0.153308 0
M  V30 7212 H 668.036 -4.16395 -0.0196705 0
M  V30 7213 H 670.633 -4.57313 -2.77072 0
M  V30 7214 H 670.976 -2.87724 -3.00867 0
M  V30 7215 H 671.509 -3.67971 -1.51137 0
M  V30 7216 H 668.248 -6.52922 -0.580823 0
M  V30 7217 H 667.768 -5.63902 -2.04387 0
M  V30 7218 H 669.447 -6.20035 -1.8484 0
M  V30 7219 N 669.579 0.400081 -1.52437 0
M  V30 7220 C 670.807 1.16768 -1.70801 0
M  V30 7221 C 671.222 1.84036 -0.421462 0
M  V30 7222 O 670.579 1.72242 0.603228 0
M  V30 7223 C 670.63 2.22403 -2.8499 0
M  V30 7224 O 670.351 1.57879 -4.08663 0
M  V30 7225 C 671.852 3.11974 -3.1494 0
M  V30 7226 H 669.072 0.350533 -0.57216 0
M  V30 7227 H 671.616 0.469534 -1.99037 0
M  V30 7228 H 669.771 2.87871 -2.59247 0
M  V30 7229 H 670.185 2.27982 -4.7236 0
M  V30 7230 H 671.659 3.82148 -3.9833 0
M  V30 7231 H 672.136 3.74858 -2.28863 0
M  V30 7232 H 672.742 2.52165 -3.42481 0
M  V30 7233 N 671.057 1.43213 0.657864 0
M  V30 7234 C 671.987 1.50815 1.78262 0
M  V30 7235 C 672.968 0.363211 1.66177 0
M  V30 7236 O 674.153 0.579806 1.85343 0
M  V30 7237 C 671.283 1.42625 3.16663 0
M  V30 7238 C 670.237 2.5532 3.43505 0
M  V30 7239 C 669.563 2.32184 4.81658 0
M  V30 7240 C 670.863 3.97583 3.38711 0
M  V30 7241 H 672.557 2.44954 1.72157 0
M  V30 7242 H 670.103 1.17896 0.82683 0
M  V30 7243 H 672.056 1.46548 3.95097 0
M  V30 7244 H 670.78 0.449877 3.23487 0
M  V30 7245 H 669.439 2.50742 2.6744 0
M  V30 7246 H 669.087 1.32801 4.85153 0
M  V30 7247 H 668.787 3.07724 5.00579 0
M  V30 7248 H 670.311 2.37883 5.62356 0
M  V30 7249 H 671.725 4.03673 4.07089 0
M  V30 7250 H 670.122 4.73112 3.69168 0
M  V30 7251 H 671.192 4.23049 2.36976 0
M  V30 7252 N 672.536 -0.895792 1.29666 0
M  V30 7253 C 673.764 -1.68001 1.20761 0
M  V30 7254 C 674.179 -1.87379 -0.231187 0
M  V30 7255 O 673.536 -1.41359 -1.15429 0
M  V30 7256 C 673.587 -3.06236 1.92098 0
M  V30 7257 O 673.308 -2.8774 3.30359 0
M  V30 7258 C 674.809 -4.00652 1.89717 0
M  V30 7259 H 672.029 -0.524591 0.418384 0
M  V30 7260 H 674.573 -1.11995 1.71106 0
M  V30 7261 H 672.728 -3.59007 1.45578 0
M  V30 7262 H 673.142 -3.75359 3.66342 0
M  V30 7263 H 674.616 -4.95051 2.44189 0
M  V30 7264 H 675.093 -4.30424 0.873595 0
M  V30 7265 H 675.699 -3.53815 2.35998 0
M  V30 7266 N 674.014 -1.12206 -1.10668 0
M  V30 7267 C 674.944 -0.810086 -2.18997 0
M  V30 7268 C 675.925 0.225065 -1.68604 0
M  V30 7269 O 677.11 0.086783 -1.94006 0
M  V30 7270 C 674.24 -0.261262 -3.46316 0
M  V30 7271 C 673.194 -1.2292 -4.09969 0
M  V30 7272 C 672.52 -0.540713 -5.31959 0
M  V30 7273 C 673.82 -2.58295 -4.53962 0
M  V30 7274 H 675.514 -1.7159 -2.45352 0
M  V30 7275 H 673.06 -0.82646 -1.17922 0
M  V30 7276 H 675.013 -0.0307522 -4.21389 0
M  V30 7277 H 673.737 0.679879 -3.19445 0
M  V30 7278 H 672.396 -1.44548 -3.369 0
M  V30 7279 H 672.044 0.405492 -5.01363 0
M  V30 7280 H 671.744 -1.18637 -5.75499 0
M  V30 7281 H 673.268 -0.319184 -6.09765 0
M  V30 7282 H 674.682 -2.40709 -5.20319 0
M  V30 7283 H 673.079 -3.18916 -5.08343 0
M  V30 7284 H 674.149 -3.16918 -3.67002 0
M  V30 7285 N 675.492 1.28418 -0.913599 0
M  V30 7286 C 676.738 1.9527 -0.547484 0
M  V30 7287 C 677.071 1.71745 0.906486 0
M  V30 7288 O 676.346 1.03834 1.64465 0
M  V30 7289 C 676.629 3.49748 -0.857205 0
M  V30 7290 C 676.482 3.82675 -2.3639 0
M  V30 7291 C 677.801 4.3868 -0.353258 0
M  V30 7292 H 674.92 0.709236 -0.200381 0
M  V30 7293 H 677.562 1.51789 -1.14281 0
M  V30 7294 H 675.712 3.86915 -0.350548 0
M  V30 7295 H 677.384 3.55378 -2.94116 0
M  V30 7296 H 675.627 3.29724 -2.81894 0
M  V30 7297 H 676.298 4.90547 -2.53115 0
M  V30 7298 H 678.774 4.08584 -0.787288 0
M  V30 7299 H 677.65 5.45621 -0.599049 0
M  V30 7300 H 677.911 4.35753 0.746413 0
M  V30 7301 N 676.97 0.677563 1.42291 0
M  V30 7302 C 678.195 0.207901 2.06355 0
M  V30 7303 C 678.62 -1.12723 1.50583 0
M  V30 7304 O 677.978 -1.70171 0.62543 0
M  V30 7305 C 678.026 0.156489 3.6026 0
M  V30 7306 O 677.13 -0.874162 4.03029 0
M  V30 7307 H 676.471 0.106056 0.655475 0
M  V30 7308 H 679.001 0.927354 1.82377 0
M  V30 7309 H 679.011 -0.0187258 4.07996 0
M  V30 7310 H 677.686 1.13101 4.00226 0
M  V30 7311 H 676.263 -0.669764 3.66836 0
M  V30 7312 N 678.448 -1.51871 0.421078 0
M  V30 7313 C 679.678 -2.06057 -0.149723 0
M  V30 7314 C 680.086 -1.29002 -1.38402 0
M  V30 7315 O 679.429 -0.338385 -1.80556 0
M  V30 7316 C 679.491 -3.55216 -0.553339 0
M  V30 7317 C 679.155 -4.53408 0.571879 0
M  V30 7318 C 680.152 -4.99586 1.4391 0
M  V30 7319 C 677.837 -4.967 0.747979 0
M  V30 7320 C 679.831 -5.87711 2.46727 0
M  V30 7321 C 677.518 -5.84619 1.77944 0
M  V30 7322 C 678.516 -6.30021 2.63748 0
M  V30 7323 O 678.204 -7.16197 3.65126 0
M  V30 7324 H 677.936 -0.675744 -0.0186102 0
M  V30 7325 H 680.49 -1.96618 0.594166 0
M  V30 7326 H 678.72 -3.62381 -1.34969 0
M  V30 7327 H 680.409 -3.91992 -1.05342 0
M  V30 7328 H 681.175 -4.66846 1.31451 0
M  V30 7329 H 677.054 -4.60913 0.0897357 0
M  V30 7330 H 680.598 -6.2307 3.13734 0
M  V30 7331 H 676.495 -6.16771 1.90429 0
M  V30 7332 H 677.263 -7.34337 3.61512 0
M  V30 7333 N 679.926 -0.151884 -1.56866 0
M  V30 7334 C 681.156 0.504081 -2.00356 0
M  V30 7335 C 681.564 1.58639 -1.03103 0
M  V30 7336 O 680.907 1.83688 -0.0207931 0
M  V30 7337 C 680.969 1.15975 -3.40279 0
M  V30 7338 C 680.633 0.221453 -4.56463 0
M  V30 7339 C 681.63 -0.552766 -5.16953 0
M  V30 7340 C 679.315 0.122936 -5.0215 0
M  V30 7341 C 681.309 -1.4129 -6.21543 0
M  V30 7342 C 678.996 -0.740801 -6.06593 0
M  V30 7343 C 679.994 -1.50732 -6.6616 0
M  V30 7344 O 679.682 -2.35666 -7.68581 0
M  V30 7345 H 679.414 0.135279 -0.662326 0
M  V30 7346 H 681.968 -0.244916 -2.03935 0
M  V30 7347 H 680.198 1.95649 -3.33554 0
M  V30 7348 H 681.887 1.71594 -3.67846 0
M  V30 7349 H 682.653 -0.486716 -4.82552 0
M  V30 7350 H 678.532 0.70931 -4.5551 0
M  V30 7351 H 682.076 -2.01166 -6.67966 0
M  V30 7352 H 677.973 -0.808125 -6.40421 0
M  V30 7353 H 678.741 -2.28967 -7.85822 0
M  V30 7354 N 681.404 1.57128 0.121893 0
M  V30 7355 C 682.82 1.52357 0.47534 0
M  V30 7356 C 683.02 0.864417 1.82017 0
M  V30 7357 O 682.076 0.445529 2.48538 0
M  V30 7358 C 683.389 2.97122 0.4625 0
M  V30 7359 C 684.937 3.08196 0.546255 0
M  V30 7360 C 685.412 4.54516 0.563833 0
M  V30 7361 N 686.903 4.58959 0.625353 0
M  V30 7362 C 687.638 5.69585 0.660354 0
M  V30 7363 N 687.134 6.89714 0.653175 0
M  V30 7364 N 688.927 5.57685 0.703143 0
M  V30 7365 H 681.078 1.98364 -0.75931 0
M  V30 7366 H 683.341 0.905777 -0.279772 0
M  V30 7367 H 683.047 3.48706 -0.457943 0
M  V30 7368 H 682.921 3.54406 1.29136 0
M  V30 7369 H 685.308 2.56617 1.45712 0
M  V30 7370 H 685.389 2.53912 -0.310234 0
M  V30 7371 H 685.033 5.06741 -0.342974 0
M  V30 7372 H 684.963 5.06609 1.43716 0
M  V30 7373 H 687.454 3.72489 0.637182 0
M  V30 7374 H 687.767 7.69781 0.682425 0
M  V30 7375 H 686.112 6.92223 0.620646 0
M  V30 7376 H 689.303 4.62744 0.706095 0
M  V30 7377 H 689.476 6.43909 0.726952 0
M  V30 7378 N 682.882 -0.391992 1.52647 0
M  V30 7379 C 684.293 -0.970064 1.5952 0
M  V30 7380 C 684.644 -1.91059 0.446207 0
M  V30 7381 O 683.769 -2.12062 -0.431125 0
M  V30 7382 C 684.364 -1.76614 2.89125 0
M  V30 7383 C 682.923 -2.29396 2.9842 0
M  V30 7384 C 682.07 -1.09864 2.54608 0
M  V30 7385 H 685.021 -0.171638 1.57769 0
M  V30 7386 H 685.042 -2.62511 2.75442 0
M  V30 7387 H 684.554 -1.08135 3.72731 0
M  V30 7388 H 682.655 -3.01196 2.19344 0
M  V30 7389 H 682.768 -2.59088 4.03002 0
M  V30 7390 H 681.132 -1.45777 2.08857 0
M  V30 7391 H 681.915 -0.429249 3.40606 0
M  V30 7392 N 684.36 -1.4356 -0.65026 0
M  V30 7393 C 685.776 -1.27025 -0.966269 0
M  V30 7394 C 685.976 -0.192117 -2.00582 0
M  V30 7395 O 685.032 0.428459 -2.48838 0
M  V30 7396 C 686.345 -2.63556 -1.44772 0
M  V30 7397 C 687.893 -2.71111 -1.56421 0
M  V30 7398 C 688.368 -4.08067 -2.07956 0
M  V30 7399 N 689.859 -4.10146 -2.15254 0
M  V30 7400 C 690.594 -5.12952 -2.56258 0
M  V30 7401 N 690.09 -6.26129 -2.96537 0
M  V30 7402 N 691.883 -5.00306 -2.56224 0
M  V30 7403 H 684.034 -2.12367 0.0375758 0
M  V30 7404 H 686.297 -0.946894 -0.0457782 0
M  V30 7405 H 686.003 -3.43429 -0.758271 0
M  V30 7406 H 685.877 -2.89152 -2.42221 0
M  V30 7407 H 688.264 -1.91569 -2.24467 0
M  V30 7408 H 688.345 -2.49277 -0.573967 0
M  V30 7409 H 687.989 -4.88077 -1.40511 0
M  V30 7410 H 687.919 -4.27266 -3.07817 0
M  V30 7411 H 690.41 -3.28453 -1.86887 0
M  V30 7412 H 690.723 -7.00403 -3.26582 0
M  V30 7413 H 689.068 -6.29597 -2.94334 0
M  V30 7414 H 692.259 -4.10952 -2.24135 0
M  V30 7415 H 692.432 -5.80553 -2.87857 0
M  V30 7416 N 685.838 0.888903 -1.30139 0
M  V30 7417 C 686.748 2.02705 -1.18101 0
M  V30 7418 C 687.764 1.73702 -0.101809 0
M  V30 7419 O 688.94 1.98906 -0.315984 0
M  V30 7420 C 686.005 3.35616 -0.869651 0
M  V30 7421 C 685.066 3.78067 -2.03381 0
M  V30 7422 C 684.299 5.04635 -1.73721 0
M  V30 7423 O 684.522 5.66531 -0.663267 0
M  V30 7424 O 683.456 5.43399 -2.58845 0
M  V30 7425 H 687.282 2.15788 -2.13704 0
M  V30 7426 H 684.867 1.01426 -1.09695 0
M  V30 7427 H 686.749 4.15358 -0.711043 0
M  V30 7428 H 685.424 3.23651 0.0565002 0
M  V30 7429 H 684.331 2.99046 -2.24772 0
M  V30 7430 H 685.664 3.94631 -2.94155 0
M  V30 7431 N 687.317 1.12792 1.10072 0
M  V30 7432 C 688.227 0.812369 2.20086 0
M  V30 7433 C 689.243 -0.200349 1.72843 0
M  V30 7434 O 690.419 -0.0330262 2.01373 0
M  V30 7435 C 687.484 0.275685 3.45602 0
M  V30 7436 C 686.545 1.34881 4.07561 0
M  V30 7437 C 685.778 0.837639 5.27086 0
M  V30 7438 O 686.001 -0.327224 5.69461 0
M  V30 7439 O 684.935 1.60894 5.79997 0
M  V30 7440 H 688.761 1.73133 2.49517 0
M  V30 7441 H 686.346 0.904863 1.18881 0
M  V30 7442 H 688.228 -0.0185375 4.21396 0
M  V30 7443 H 686.903 -0.615783 3.17789 0
M  V30 7444 H 685.81 1.69625 3.33434 0
M  V30 7445 H 687.143 2.21418 4.39585 0
M  V30 7446 N 688.795 -1.27931 0.920396 0
M  V30 7447 C 689.705 -2.30824 0.419212 0
M  V30 7448 C 690.721 -1.66767 -0.496461 0
M  V30 7449 O 691.897 -1.97763 -0.38104 0
M  V30 7450 C 688.962 -3.45158 -0.326601 0
M  V30 7451 C 688.023 -4.24754 0.623098 0
M  V30 7452 C 687.256 -5.33629 -0.0872172 0
M  V30 7453 O 687.479 -5.55204 -1.30784 0
M  V30 7454 O 686.413 -5.99091 0.580875 0
M  V30 7455 H 690.239 -2.75716 1.27337 0
M  V30 7456 H 687.824 -1.32747 0.685465 0
M  V30 7457 H 689.706 -4.14716 -0.747559 0
M  V30 7458 H 688.381 -3.02336 -1.15648 0
M  V30 7459 H 687.288 -3.57759 1.09359 0
M  V30 7460 H 688.621 -4.71272 1.41998 0
M  V30 7461 N 690.273 -0.685099 -1.4193 0
M  V30 7462 C 691.236 -0.0222632 -2.29189 0
M  V30 7463 C 692.236 0.7186 -1.4385 0
M  V30 7464 O 693.426 0.555058 -1.6512 0
M  V30 7465 C 690.558 0.979013 -3.2654 0
M  V30 7466 H 691.751 -0.790424 -2.89296 0
M  V30 7467 H 689.304 -0.448012 -1.49742 0
M  V30 7468 H 690.039 1.77531 -2.71392 0
M  V30 7469 H 689.824 0.451037 -3.89497 0
M  V30 7470 H 691.314 1.44091 -3.91954 0
M  V30 7471 N 691.751 1.51645 -0.429126 0
M  V30 7472 C 693 2.01203 0.141538 0
M  V30 7473 C 693.313 1.31828 1.44502 0
M  V30 7474 O 694.519 1.7231 2.09813 0
M  V30 7475 C 692.975 3.58624 0.302786 0
M  V30 7476 C 692.583 4.3693 -0.989775 0
M  V30 7477 C 694.327 4.16353 0.827661 0
M  V30 7478 C 692.234 5.86037 -0.794619 0
M  V30 7479 H 691.164 0.751867 0.05667 0
M  V30 7480 H 693.815 1.74822 -0.557633 0
M  V30 7481 H 692.197 3.81417 1.06476 0
M  V30 7482 H 693.371 4.25887 -1.75945 0
M  V30 7483 H 691.686 3.90614 -1.44256 0
M  V30 7484 H 694.283 5.25455 0.990026 0
M  V30 7485 H 694.626 3.74995 1.80787 0
M  V30 7486 H 695.159 3.97606 0.124213 0
M  V30 7487 H 691.898 6.31792 -1.74697 0
M  V30 7488 H 691.418 5.99765 -0.0645968 0
M  V30 7489 H 693.097 6.45471 -0.444591 0
M  V30 7490 N 693.229 0.160201 1.56784 0
M  V30 7491 C 694.64 -0.358417 1.83227 0
M  V30 7492 C 694.991 -1.63831 1.07952 0
M  V30 7493 O 694.116 -2.13885 0.328995 0
M  V30 7494 C 694.711 -0.657058 3.32368 0
M  V30 7495 C 693.27 -1.12015 3.59346 0
M  V30 7496 C 692.417 -0.15015 2.76893 0
M  V30 7497 H 695.368 0.384669 1.53967 0
M  V30 7498 H 695.389 -1.51033 3.49241 0
M  V30 7499 H 694.901 0.274647 3.87127 0
M  V30 7500 H 693.002 -2.06734 3.09987 0
M  V30 7501 H 693.115 -1.037 4.67743 0
M  V30 7502 H 691.479 -0.645361 2.46388 0
M  V30 7503 H 692.262 0.775379 3.34429 0
M  V30 7504 N 694.707 -1.5719 -0.113559 0
M  V30 7505 C 695.657 -1.97166 -1.14497 0
M  V30 7506 C 696.641 -0.847413 -1.36776 0
M  V30 7507 O 697.833 -1.11114 -1.37777 0
M  V30 7508 C 694.962 -2.38411 -2.47013 0
M  V30 7509 C 694.048 -3.5748 -2.28185 0
M  V30 7510 N 694.439 -4.72998 -1.79182 0
M  V30 7511 C 692.737 -3.63218 -2.58821 0
M  V30 7512 C 693.438 -5.55007 -1.74191 0
M  V30 7513 N 692.414 -4.9765 -2.18735 0
M  V30 7514 H 696.216 -2.83937 -0.758733 0
M  V30 7515 H 693.73 -1.59191 -0.321234 0
M  V30 7516 H 695.727 -2.65269 -3.21618 0
M  V30 7517 H 694.387 -1.53007 -2.8639 0
M  V30 7518 H 695.398 -4.96109 -1.48649 0
M  V30 7519 H 692.075 -2.88434 -3.01847 0
M  V30 7520 H 693.465 -6.57678 -1.37512 0
M  V30 7521 N 696.185 0.383891 -1.52853 0
M  V30 7522 C 697.596 0.961591 -1.60032 0
M  V30 7523 C 697.947 1.90819 -0.456333 0
M  V30 7524 O 697.072 2.12288 0.419873 0
M  V30 7525 C 697.667 1.75078 -2.90057 0
M  V30 7526 C 696.226 2.2781 -2.99632 0
M  V30 7527 C 695.373 1.08512 -2.55187 0
M  V30 7528 H 698.324 0.163269 -1.57858 0
M  V30 7529 H 698.345 2.61046 -2.7683 0
M  V30 7530 H 697.857 1.06157 -3.73299 0
M  V30 7531 H 695.958 3.00028 -2.20939 0
M  V30 7532 H 696.071 2.56947 -4.0437 0
M  V30 7533 H 694.435 1.44667 -2.09627 0
M  V30 7534 H 695.218 0.41118 -3.40829 0
M  V30 7535 N 697.663 1.43903 0.642637 0
M  V30 7536 C 698.593 1.52697 1.76652 0
M  V30 7537 C 699.574 0.380816 1.65782 0
M  V30 7538 O 700.759 0.599432 1.84717 0
M  V30 7539 C 697.889 1.45975 3.15133 0
M  V30 7540 C 696.843 2.58949 3.40778 0
M  V30 7541 C 696.169 2.37279 4.79169 0
M  V30 7542 C 697.469 4.01153 3.34475 0
M  V30 7543 H 699.163 2.46766 1.69549 0
M  V30 7544 H 696.709 1.18767 0.814279 0
M  V30 7545 H 698.662 1.5073 3.93521 0
M  V30 7546 H 697.386 0.484162 3.22991 0
M  V30 7547 H 696.045 2.53564 2.64765 0
M  V30 7548 H 695.693 1.37939 4.83717 0
M  V30 7549 H 695.393 3.13016 4.97287 0
M  V30 7550 H 696.917 2.43834 5.59801 0
M  V30 7551 H 698.331 4.07968 4.02784 0
M  V30 7552 H 696.728 4.77001 3.64129 0
M  V30 7553 H 697.798 4.25539 2.32475 0
M  V30 7554 N 699.141 -0.881989 1.30609 0
M  V30 7555 C 700.104 -1.96957 1.1722 0
M  V30 7556 C 701.104 -1.60472 0.102598 0
M  V30 7557 O 702.294 -1.70628 0.350943 0
M  V30 7558 C 699.426 -3.31463 0.796572 0
M  V30 7559 H 700.619 -2.10262 2.13846 0
M  V30 7560 H 698.172 -1.06877 1.14048 0
M  V30 7561 H 698.907 -3.23859 -0.169053 0
M  V30 7562 H 698.692 -3.59314 1.56959 0
M  V30 7563 H 700.182 -4.11233 0.72645 0
M  V30 7564 N 700.619 -1.13374 -1.09472 0
M  V30 7565 C 701.549 -0.833268 -2.18126 0
M  V30 7566 C 702.53 0.207169 -1.68834 0
M  V30 7567 O 703.715 0.0662012 -1.94087 0
M  V30 7568 C 700.845 -0.297979 -3.46019 0
M  V30 7569 C 699.799 -1.27261 -4.08642 0
M  V30 7570 C 699.125 -0.597104 -5.31356 0
M  V30 7571 C 700.425 -2.63095 -4.51197 0
M  V30 7572 H 702.119 -1.74182 -2.43518 0
M  V30 7573 H 699.665 -0.838921 -1.17039 0
M  V30 7574 H 701.618 -0.0754444 -4.21332 0
M  V30 7575 H 700.342 0.645959 -3.20148 0
M  V30 7576 H 699.001 -1.48113 -3.35348 0
M  V30 7577 H 698.649 0.352293 -5.01765 0
M  V30 7578 H 698.349 -1.24734 -5.74208 0
M  V30 7579 H 699.873 -0.38384 -6.09392 0
M  V30 7580 H 701.287 -2.46214 -5.17737 0
M  V30 7581 H 699.684 -3.2429 -5.04932 0
M  V30 7582 H 700.754 -3.20793 -3.6362 0
M  V30 7583 N 702.098 1.27442 -0.927168 0
M  V30 7584 C 703.326 1.98498 -0.583622 0
M  V30 7585 C 703.741 1.69171 0.838241 0
M  V30 7586 O 703.098 0.951969 1.55704 0
M  V30 7587 C 703.149 3.52552 -0.799341 0
M  V30 7588 O 702.87 3.80851 -2.16527 0
M  V30 7589 C 704.371 4.4086 -0.464436 0
M  V30 7590 H 701.591 0.633487 -0.221213 0
M  V30 7591 H 704.135 1.62308 -1.24404 0
M  V30 7592 H 702.29 3.86955 -0.185728 0
M  V30 7593 H 702.704 4.75441 -2.21487 0
M  V30 7594 H 704.178 5.47967 -0.666075 0
M  V30 7595 H 704.655 4.35082 0.599995 0
M  V30 7596 H 705.261 4.11977 -1.05617 0
M  V30 7597 N 703.576 0.692616 1.41565 0
M  V30 7598 C 704.526 0.00231847 2.28 0
M  V30 7599 C 705.51 -0.755793 1.42044 0
M  V30 7600 O 706.702 -0.631772 1.65341 0
M  V30 7601 C 703.831 -0.935468 3.30309 0
M  V30 7602 C 702.917 -0.173761 4.23744 0
M  V30 7603 N 703.308 0.830872 4.98929 0
M  V30 7604 C 701.606 -0.409666 4.44115 0
M  V30 7605 C 702.307 1.28656 5.67294 0
M  V30 7606 N 701.283 0.613053 5.40132 0
M  V30 7607 H 705.085 0.772635 2.83562 0
M  V30 7608 H 702.599 0.523198 1.53741 0
M  V30 7609 H 704.596 -1.44513 3.91052 0
M  V30 7610 H 703.256 -1.70542 2.76307 0
M  V30 7611 H 704.267 1.21101 5.03542 0
M  V30 7612 H 700.944 -1.15773 4.01127 0
M  V30 7613 H 702.334 2.12006 6.37576 0
M  V30 7614 N 705.054 -1.51416 0.437162 0
M  V30 7615 C 706.001 -2.27743 -0.374374 0
M  V30 7616 C 706.971 -1.31327 -1.01698 0
M  V30 7617 O 708.156 -1.60229 -1.03592 0
M  V30 7618 C 705.296 -3.12241 -1.46969 0
M  V30 7619 C 704.409 -4.23651 -0.845236 0
M  V30 7620 C 703.544 -4.95458 -1.91559 0
M  V30 7621 C 702.583 -5.98789 -1.26956 0
M  V30 7622 N 701.72 -6.64005 -2.28126 0
M  V30 7623 H 706.56 -2.96654 0.282892 0
M  V30 7624 H 704.097 -1.46319 0.151352 0
M  V30 7625 H 706.055 -3.59556 -2.11602 0
M  V30 7626 H 704.685 -2.45445 -2.09659 0
M  V30 7627 H 703.737 -3.803 -0.0872059 0
M  V30 7628 H 705.049 -4.97683 -0.333582 0
M  V30 7629 H 704.203 -5.46321 -2.63854 0
M  V30 7630 H 702.942 -4.21055 -2.46097 0
M  V30 7631 H 701.947 -5.47219 -0.53207 0
M  V30 7632 H 703.172 -6.75149 -0.731509 0
M  V30 7633 H 701.118 -5.92415 -2.81745 0
M  V30 7634 H 701.035 -7.33802 -1.81852 0
M  V30 7635 H 702.303 -7.19498 -2.99905 0
M  V30 7636 N 706.532 -0.168513 -1.56696 0
M  V30 7637 C 707.465 0.801477 -2.13662 0
M  V30 7638 C 708.443 1.22786 -1.06594 0
M  V30 7639 O 709.627 1.32014 -1.34554 0
M  V30 7640 C 706.754 2.07896 -2.6739 0
M  V30 7641 C 705.8 1.79681 -3.86803 0
M  V30 7642 S 706.633 0.968556 -5.26668 0
M  V30 7643 C 707.789 2.25676 -5.83799 0
M  V30 7644 H 708.022 0.317121 -2.95604 0
M  V30 7645 H 705.555 0.0461132 -1.54331 0
M  V30 7646 H 707.513 2.81272 -2.98992 0
M  V30 7647 H 706.174 2.53445 -1.85539 0
M  V30 7648 H 705.367 2.74461 -4.22714 0
M  V30 7649 H 704.969 1.14402 -3.56073 0
M  V30 7650 H 707.261 3.2116 -5.96542 0
M  V30 7651 H 708.204 1.94238 -6.80939 0
M  V30 7652 H 708.612 2.37308 -5.12197 0
M  V30 7653 N 708.01 1.57248 0.105221 0
M  V30 7654 C 709.258 1.85204 0.808951 0
M  V30 7655 C 709.579 0.75574 1.7976 0
M  V30 7656 O 708.849 -0.218984 1.94672 0
M  V30 7657 H 707.429 0.683346 0.301739 0
M  V30 7658 H 710.091 1.94695 0.0892605 0
M  V30 7659 H 709.187 2.81595 1.34575 0
M  V30 7660 N 709.488 -0.375779 1.53054 0
M  V30 7661 C 710.734 -1.11767 1.6994 0
M  V30 7662 C 711.089 -1.87288 0.440574 0
M  V30 7663 O 710.382 -1.83045 -0.566146 0
M  V30 7664 C 710.576 -2.11356 2.88207 0
M  V30 7665 C 710.405 -1.45619 4.25471 0
M  V30 7666 C 709.175 -1.21464 4.90484 0
M  V30 7667 C 711.373 -0.899276 5.06377 0
M  V30 7668 N 709.355 -0.519705 6.11696 0
M  V30 7669 C 710.726 -0.333138 6.19104 0
M  V30 7670 C 712.781 -0.79697 4.9148 0
M  V30 7671 C 711.484 0.325316 7.18564 0
M  V30 7672 C 713.51 -0.152315 5.91204 0
M  V30 7673 C 712.872 0.402994 7.03246 0
M  V30 7674 H 708.971 -0.394489 0.675206 0
M  V30 7675 H 711.555 -0.40541 1.90432 0
M  V30 7676 H 709.726 -2.79905 2.69272 0
M  V30 7677 H 711.458 -2.78148 2.93966 0
M  V30 7678 H 708.213 -1.49319 4.49445 0
M  V30 7679 H 708.637 -0.187896 6.76739 0
M  V30 7680 H 713.279 -1.21208 4.05054 0
M  V30 7681 H 710.997 0.752399 8.0459 0
M  V30 7682 H 714.583 -0.074223 5.81753 0
M  V30 7683 H 713.463 0.89394 7.79088 0
M  V30 7684 N 710.966 -1.44241 -0.634997 0
M  V30 7685 C 711.896 -1.53632 -1.7584 0
M  V30 7686 C 712.877 -0.389603 -1.65578 0
M  V30 7687 O 714.062 -0.609219 -1.84397 0
M  V30 7688 C 711.192 -1.47644 -3.14354 0
M  V30 7689 C 710.146 -2.60752 -3.394 0
M  V30 7690 C 709.472 -2.39817 -4.77904 0
M  V30 7691 C 710.772 -4.02921 -3.32343 0
M  V30 7692 H 712.466 -2.47662 -1.68238 0
M  V30 7693 H 710.012 -1.19197 -0.807969 0
M  V30 7694 H 711.965 -1.52815 -3.92716 0
M  V30 7695 H 710.689 -0.501284 -3.2273 0
M  V30 7696 H 709.348 -2.54965 -2.63417 0
M  V30 7697 H 708.996 -1.40502 -4.82978 0
M  V30 7698 H 708.696 -3.15649 -4.9562 0
M  V30 7699 H 710.22 -2.46799 -5.585 0
M  V30 7700 H 711.634 -4.10098 -4.00615 0
M  V30 7701 H 710.031 -4.78925 -3.61595 0
M  V30 7702 H 711.101 -4.26766 -2.30215 0
M  V30 7703 N 712.444 0.87505 -1.31075 0
M  V30 7704 C 713.376 1.98773 -1.14114 0
M  V30 7705 C 714.389 1.62595 -0.0816119 0
M  V30 7706 O 715.578 1.75449 -0.32861 0
M  V30 7707 C 712.678 3.31159 -0.720224 0
M  V30 7708 C 711.851 3.9571 -1.86366 0
M  V30 7709 C 710.91 5.06407 -1.42965 0
M  V30 7710 O 709.936 5.27501 -2.13848 0
M  V30 7711 N 711.138 5.79649 -0.314194 0
M  V30 7712 H 713.903 2.1387 -2.09951 0
M  V30 7713 H 711.464 1.04873 -1.23342 0
M  V30 7714 H 713.456 4.0259 -0.412687 0
M  V30 7715 H 712.026 3.12257 0.146396 0
M  V30 7716 H 711.246 3.17324 -2.33879 0
M  V30 7717 H 712.534 4.35576 -2.62966 0
M  V30 7718 H 711.932 5.65025 0.276228 0
M  V30 7719 H 710.489 6.51766 -0.0661641 0
M  V30 7720 N 713.922 1.13953 1.08869 0
M  V30 7721 C 714.852 0.844824 2.17681 0
M  V30 7722 C 715.833 -0.198213 1.68941 0
M  V30 7723 O 717.018 -0.0559073 1.9412 0
M  V30 7724 C 714.148 0.316325 3.45856 0
M  V30 7725 C 713.102 1.29426 4.07962 0
M  V30 7726 C 712.428 0.625275 5.31031 0
M  V30 7727 C 713.728 2.65484 4.49795 0
M  V30 7728 H 715.422 1.75471 2.42591 0
M  V30 7729 H 712.968 0.845116 1.16592 0
M  V30 7730 H 714.921 0.0977876 4.21287 0
M  V30 7731 H 713.645 -0.628972 3.20486 0
M  V30 7732 H 712.304 1.49889 3.34558 0
M  V30 7733 H 711.952 -0.325678 5.01945 0
M  V30 7734 H 711.652 1.27777 5.73539 0
M  V30 7735 H 713.176 0.416152 6.0918 0
M  V30 7736 H 714.59 2.48957 5.16424 0
M  V30 7737 H 712.987 3.26963 5.03205 0
M  V30 7738 H 714.057 3.22717 3.61914 0
M  V30 7739 N 715.4 -1.26948 0.933913 0
M  V30 7740 C 716.33 -2.29017 0.45534 0
M  V30 7741 C 717.311 -1.62961 -0.487605 0
M  V30 7742 O 718.496 -1.90223 -0.391022 0
M  V30 7743 C 715.626 -3.46112 -0.287015 0
M  V30 7744 C 714.58 -4.24205 0.568682 0
M  V30 7745 C 713.906 -5.3384 -0.303206 0
M  V30 7746 C 715.206 -4.88954 1.83633 0
M  V30 7747 H 716.9 -2.69298 1.30839 0
M  V30 7748 H 714.446 -1.29459 0.630579 0
M  V30 7749 H 716.399 -4.16622 -0.6328 0
M  V30 7750 H 715.123 -3.04765 -1.17414 0
M  V30 7751 H 713.782 -3.5545 0.897261 0
M  V30 7752 H 713.43 -4.88734 -1.18947 0
M  V30 7753 H 713.13 -5.86998 0.265879 0
M  V30 7754 H 714.654 -6.0719 -0.644423 0
M  V30 7755 H 716.068 -5.51717 1.55823 0
M  V30 7756 H 714.465 -5.52198 2.34941 0
M  V30 7757 H 715.535 -4.12305 2.55211 0
M  V30 7758 N 716.879 -0.700114 -1.41195 0
M  V30 7759 C 718.127 -0.232546 -2.00758 0
M  V30 7760 C 718.448 1.1734 -1.55745 0
M  V30 7761 O 717.718 1.79262 -0.790058 0
M  V30 7762 H 716.298 -0.0829845 -0.742376 0
M  V30 7763 H 718.96 -0.902289 -1.72756 0
M  V30 7764 H 718.056 -0.253521 -3.11069 0
M  V30 7765 N 718.357 1.51182 -0.445186 0
M  V30 7766 C 719.773 1.59299 -0.0978954 0
M  V30 7767 C 719.973 1.4555 1.39346 0
M  V30 7768 O 719.029 1.30073 2.16419 0
M  V30 7769 C 720.342 2.94133 -0.625005 0
M  V30 7770 C 721.89 3.07463 -0.586137 0
M  V30 7771 C 722.365 4.44832 -1.09035 0
M  V30 7772 N 723.856 4.51173 -1.04867 0
M  V30 7773 C 724.591 5.55804 -1.40959 0
M  V30 7774 N 724.087 6.67816 -1.84375 0
M  V30 7775 N 725.88 5.46205 -1.32726 0
M  V30 7776 H 718.031 1.58363 -1.41544 0
M  V30 7777 H 720.294 0.746946 -0.58376 0
M  V30 7778 H 720 3.09589 -1.66876 0
M  V30 7779 H 719.874 3.77161 -0.0542262 0
M  V30 7780 H 722.261 2.9167 0.448646 0
M  V30 7781 H 722.342 2.26255 -1.19341 0
M  V30 7782 H 721.986 4.61372 -2.12364 0
M  V30 7783 H 721.916 5.24591 -0.459539 0
M  V30 7784 H 724.407 3.70783 -0.729932 0
M  V30 7785 H 724.72 7.43683 -2.10131 0
M  V30 7786 H 723.065 6.69003 -1.88308 0
M  V30 7787 H 726.256 4.57583 -0.986678 0
M  V30 7788 H 726.429 6.27634 -1.61182 0
M  V30 7789 N 719.835 0.176821 1.56605 0
M  V30 7790 C 720.768 -0.790135 2.14084 0
M  V30 7791 C 721.746 -1.22219 1.07244 0
M  V30 7792 O 722.93 -1.31298 1.35252 0
M  V30 7793 C 720.057 -2.06475 2.68488 0
M  V30 7794 C 719.103 -1.77628 3.87751 0
M  V30 7795 S 719.936 -0.940612 5.27174 0
M  V30 7796 C 721.092 -2.22577 5.84988 0
M  V30 7797 H 721.325 -0.30144 2.95768 0
M  V30 7798 H 718.858 -0.0379279 1.54353 0
M  V30 7799 H 720.816 -2.79683 3.00479 0
M  V30 7800 H 719.477 -2.52457 1.8688 0
M  V30 7801 H 718.67 -2.72215 4.24164 0
M  V30 7802 H 718.272 -1.12512 3.56675 0
M  V30 7803 H 720.564 -3.17992 5.98237 0
M  V30 7804 H 721.507 -1.90624 6.81959 0
M  V30 7805 H 721.915 -2.34588 5.13448 0
M  V30 7806 N 721.313 -1.57302 -0.09688 0
M  V30 7807 C 722.56 -1.85997 -0.800699 0
M  V30 7808 C 722.888 -0.765089 -1.7882 0
M  V30 7809 O 722.143 0.241492 -1.94204 0
M  V30 7810 C 722.442 -3.21272 -1.56586 0
M  V30 7811 C 722.108 -4.45104 -0.72064 0
M  V30 7812 C 720.77 -4.78723 -0.487632 0
M  V30 7813 C 723.122 -5.2103 -0.132948 0
M  V30 7814 C 720.45 -5.85697 0.34296 0
M  V30 7815 C 722.802 -6.28881 0.684957 0
M  V30 7816 C 721.466 -6.61017 0.928073 0
M  V30 7817 H 720.736 -0.680613 -0.292997 0
M  V30 7818 H 723.383 -1.91399 -0.0622474 0
M  V30 7819 H 721.688 -3.11547 -2.37583 0
M  V30 7820 H 723.385 -3.40702 -2.11478 0
M  V30 7821 H 719.975 -4.18777 -0.912359 0
M  V30 7822 H 724.159 -4.95392 -0.300132 0
M  V30 7823 H 719.415 -6.09008 0.540317 0
M  V30 7824 H 723.589 -6.86886 1.14721 0
M  V30 7825 H 721.216 -7.43738 1.57348 0
M  V30 7826 N 722.791 0.367657 -1.53252 0
M  V30 7827 C 724.037 1.11216 -1.69584 0
M  V30 7828 C 724.37 1.89026 -0.445269 0
M  V30 7829 O 723.645 1.86342 0.557404 0
M  V30 7830 C 723.928 2.07308 -2.94441 0
M  V30 7831 C 723.781 1.3312 -4.2965 0
M  V30 7832 C 725.1 3.07459 -3.14892 0
M  V30 7833 H 722.219 0.40294 -0.617096 0
M  V30 7834 H 724.861 0.393201 -1.85887 0
M  V30 7835 H 723.011 2.68617 -2.80673 0
M  V30 7836 H 724.683 0.746111 -4.55226 0
M  V30 7837 H 722.926 0.633051 -4.29156 0
M  V30 7838 H 723.597 2.03443 -5.13142 0
M  V30 7839 H 726.073 2.56252 -3.27832 0
M  V30 7840 H 724.949 3.71919 -4.03693 0
M  V30 7841 H 725.21 3.77514 -2.30077 0
M  V30 7842 N 724.269 1.44576 0.627338 0
M  V30 7843 C 725.199 1.54562 1.75022 0
M  V30 7844 C 726.18 0.398378 1.65369 0
M  V30 7845 O 727.365 0.61899 1.84071 0
M  V30 7846 C 724.495 1.49309 3.13567 0
M  V30 7847 C 723.449 2.62549 3.38012 0
M  V30 7848 C 722.775 2.42348 4.76625 0
M  V30 7849 C 724.075 4.04678 3.30202 0
M  V30 7850 H 725.769 2.4855 1.66922 0
M  V30 7851 H 723.315 1.19624 0.801636 0
M  V30 7852 H 725.268 1.54895 3.919 0
M  V30 7853 H 723.992 0.518392 3.2246 0
M  V30 7854 H 722.651 2.56358 2.62061 0
M  V30 7855 H 722.299 1.43062 4.82226 0
M  V30 7856 H 721.999 3.18273 4.93939 0
M  V30 7857 H 723.523 2.49758 5.57183 0
M  V30 7858 H 724.937 4.12217 3.98435 0
M  V30 7859 H 723.334 4.80836 3.5905 0
M  V30 7860 H 724.404 4.2798 2.27949 0
M  V30 7861 N 725.747 -0.868086 1.31537 0
M  V30 7862 C 726.996 -1.61607 1.20689 0
M  V30 7863 C 727.309 -1.94204 -0.233275 0
M  V30 7864 O 728.515 -2.67515 -0.463465 0
M  V30 7865 C 726.971 -2.91348 2.11292 0
M  V30 7866 C 726.579 -2.66227 3.60315 0
M  V30 7867 C 728.323 -3.69344 2.09249 0
M  V30 7868 C 726.23 -3.91887 4.42921 0
M  V30 7869 H 725.16 -0.606373 0.448138 0
M  V30 7870 H 727.811 -0.959666 1.56405 0
M  V30 7871 H 726.193 -3.58374 1.68477 0
M  V30 7872 H 727.367 -2.07597 4.11388 0
M  V30 7873 H 725.682 -2.01582 3.64354 0
M  V30 7874 H 728.279 -4.62567 2.68209 0
M  V30 7875 H 728.622 -4.02044 1.0801 0
M  V30 7876 H 729.155 -3.09205 2.50274 0
M  V30 7877 H 725.894 -3.64336 5.44922 0
M  V30 7878 H 725.414 -4.49961 3.96605 0
M  V30 7879 H 727.093 -4.59754 4.55231 0
M  V30 7880 N 727.225 -1.14528 -1.08264 0
M  V30 7881 C 728.471 -0.925721 -1.81113 0
M  V30 7882 C 728.826 0.54185 -1.84612 0
M  V30 7883 O 728.119 1.39628 -1.31205 0
M  V30 7884 C 728.313 -1.46226 -3.26117 0
M  V30 7885 C 728.142 -2.98047 -3.36746 0
M  V30 7886 C 726.912 -3.66508 -3.4785 0
M  V30 7887 C 729.11 -3.95903 -3.28277 0
M  V30 7888 N 727.092 -5.06227 -3.47285 0
M  V30 7889 C 728.463 -5.21883 -3.34721 0
M  V30 7890 C 730.518 -3.88002 -3.12024 0
M  V30 7891 C 729.221 -6.40886 -3.26585 0
M  V30 7892 C 731.247 -5.06553 -3.05219 0
M  V30 7893 C 730.609 -6.31403 -3.12266 0
M  V30 7894 H 726.708 -0.392294 -0.676483 0
M  V30 7895 H 729.292 -1.45567 -1.293 0
M  V30 7896 H 727.463 -0.959076 -3.76373 0
M  V30 7897 H 729.195 -1.18247 -3.8704 0
M  V30 7898 H 725.95 -3.17067 -3.51804 0
M  V30 7899 H 726.374 -5.79172 -3.50555 0
M  V30 7900 H 731.016 -2.9235 -3.05436 0
M  V30 7901 H 728.734 -7.36781 -3.31934 0
M  V30 7902 H 732.32 -5.02191 -2.93761 0
M  V30 7903 H 731.2 -7.21596 -3.07032 0
M  V30 7904 N 728.703 1.26451 -0.940633 0
M  V30 7905 C 729.666 2.24651 -0.454378 0
M  V30 7906 C 730.666 1.54826 0.434222 0
M  V30 7907 O 731.856 1.72628 0.233477 0
M  V30 7908 C 728.988 3.39148 0.345192 0
M  V30 7909 H 730.181 2.69182 -1.32217 0
M  V30 7910 H 727.734 1.38596 -0.722547 0
M  V30 7911 H 728.469 3.00018 1.23125 0
M  V30 7912 H 728.254 3.9101 -0.292107 0
M  V30 7913 H 729.744 4.12103 0.675341 0
M  V30 7914 N 730.181 0.707592 1.40822 0
M  V30 7915 C 731.114 -0.000859377 2.282 0
M  V30 7916 C 732.092 -0.7758 1.42899 0
M  V30 7917 O 733.276 -0.76411 1.72318 0
M  V30 7918 C 730.403 -1.00861 3.23334 0
M  V30 7919 C 729.449 -0.32543 4.25257 0
M  V30 7920 S 730.282 0.940908 5.27169 0
M  V30 7921 C 731.438 -0.0649459 6.25866 0
M  V30 7922 H 731.671 0.740207 2.87938 0
M  V30 7923 H 729.204 0.498311 1.46138 0
M  V30 7924 H 731.162 -1.58485 3.78672 0
M  V30 7925 H 729.823 -1.72233 2.62668 0
M  V30 7926 H 729.016 -1.08697 4.92139 0
M  V30 7927 H 728.618 0.178044 3.73576 0
M  V30 7928 H 730.91 -0.914377 6.71301 0
M  V30 7929 H 731.853 0.570276 7.058 0
M  V30 7930 H 732.261 -0.425098 5.62897 0
M  V30 7931 N 731.66 -1.50943 0.453197 0
M  V30 7932 C 732.9 -2.0412 -0.106894 0
M  V30 7933 C 733.264 -1.32895 -1.38575 0
M  V30 7934 O 734.465 -1.76529 -2.02709 0
M  V30 7935 C 732.736 -3.561 -0.304565 0
M  V30 7936 S 734.295 -4.3096 -0.825784 0
M  V30 7937 H 731.113 -0.710581 -0.0243969 0
M  V30 7938 H 733.715 -1.85534 0.616239 0
M  V30 7939 H 732.419 -4.055 0.632277 0
M  V30 7940 H 731.95 -3.79009 -1.05433 0
M  V30 7941 H 733.965 -4.49503 -2.10147 0
M  V30 7942 N 733.138 -0.185124 -1.56509 0
M  V30 7943 C 734.387 0.456421 -1.96468 0
M  V30 7944 C 734.7 1.63448 -1.07444 0
M  V30 7945 O 735.906 2.34316 -1.37143 0
M  V30 7946 C 734.362 0.863404 -3.4939 0
M  V30 7947 C 733.97 -0.289815 -4.47062 0
M  V30 7948 C 735.714 1.47259 -3.98139 0
M  V30 7949 C 733.621 0.137571 -5.9124 0
M  V30 7950 H 732.551 0.17429 -0.733579 0
M  V30 7951 H 735.202 -0.275554 -1.81419 0
M  V30 7952 H 733.584 1.65176 -3.59907 0
M  V30 7953 H 734.758 -1.06728 -4.4827 0
M  V30 7954 H 733.073 -0.809851 -4.08449 0
M  V30 7955 H 735.67 1.80463 -5.03326 0
M  V30 7956 H 736.013 2.3755 -3.41871 0
M  V30 7957 H 736.546 0.748405 -3.90696 0
M  V30 7958 H 733.285 -0.730907 -6.51412 0
M  V30 7959 H 732.805 0.8801 -5.93308 0
M  V30 7960 H 734.484 0.576771 -6.44424 0
M  V30 7961 N 734.616 1.57351 0.0885366 0
M  V30 7962 C 735.841 1.91011 0.80805 0
M  V30 7963 C 736.266 0.780009 1.71165 0
M  V30 7964 O 735.624 -0.268083 1.79307 0
M  V30 7965 C 735.672 3.23562 1.59185 0
M  V30 7966 O 734.776 3.11615 2.7013 0
M  V30 7967 H 734.117 0.625943 0.221565 0
M  V30 7968 H 736.647 2.04507 0.0617954 0
M  V30 7969 H 736.657 3.5703 1.97468 0
M  V30 7970 H 735.332 4.05398 0.928741 0
M  V30 7971 H 733.909 2.89673 2.34827 0
M  V30 7972 N 736.094 -0.359525 1.53444 0
M  V30 7973 C 737.34 -1.10315 1.70172 0
M  V30 7974 C 737.673 -1.88788 0.455287 0
M  V30 7975 O 736.948 -1.86635 -0.547514 0
M  V30 7976 C 737.231 -2.05744 2.95536 0
M  V30 7977 C 737.084 -1.3084 4.3035 0
M  V30 7978 C 738.403 -3.05784 3.16518 0
M  V30 7979 H 735.522 -0.399662 0.619225 0
M  V30 7980 H 738.164 -0.383338 1.86093 0
M  V30 7981 H 736.314 -2.67125 2.82093 0
M  V30 7982 H 737.986 -0.721959 4.55615 0
M  V30 7983 H 736.229 -0.610283 4.29486 0
M  V30 7984 H 736.9 -2.00718 5.14214 0
M  V30 7985 H 739.376 -2.5451 3.29187 0
M  V30 7986 H 738.252 -3.69772 4.05659 0
M  V30 7987 H 738.513 -3.76289 2.32076 0
M  V30 7988 N 737.572 -1.44907 -0.619662 0
M  V30 7989 C 738.519 -1.52654 -1.73105 0
M  V30 7990 C 739.489 -0.373334 -1.6185 0
M  V30 7991 O 740.674 -0.585143 -1.81606 0
M  V30 7992 C 737.814 -1.48769 -3.11387 0
M  V30 7993 C 736.927 -2.74551 -3.33535 0
M  V30 7994 C 736.062 -2.62421 -4.61854 0
M  V30 7995 C 735.101 -3.83312 -4.77219 0
M  V30 7996 N 734.238 -3.69789 -5.96826 0
M  V30 7997 H 739.078 -2.47605 -1.65819 0
M  V30 7998 H 736.615 -1.22875 -0.808719 0
M  V30 7999 H 738.573 -1.44507 -3.91374 0
M  V30 8000 H 737.203 -0.573783 -3.1766 0
M  V30 8001 H 736.255 -2.88953 -2.47408 0
M  V30 8002 H 737.567 -3.64253 -3.40765 0
M  V30 8003 H 736.721 -2.56056 -5.50019 0
M  V30 8004 H 735.46 -1.70298 -4.57001 0
M  V30 8005 H 734.465 -3.90049 -3.87481 0
M  V30 8006 H 735.69 -4.76486 -4.83878 0
M  V30 8007 H 733.636 -2.80426 -5.93041 0
M  V30 8008 H 733.553 -4.53116 -6.05163 0
M  V30 8009 H 734.821 -3.67335 -6.87521 0
M  V30 8010 N 739.05 0.861098 -1.31996 0
M  V30 8011 C 739.96 2.00154 -1.22374 0
M  V30 8012 C 740.976 1.73447 -0.138631 0
M  V30 8013 O 742.152 1.98191 -0.358104 0
M  V30 8014 C 739.217 3.33696 -0.940645 0
M  V30 8015 C 738.278 3.73668 -2.11355 0
M  V30 8016 C 737.511 5.00837 -1.84386 0
M  V30 8017 O 737.734 5.64996 -0.783287 0
M  V30 8018 O 736.668 5.37787 -2.70313 0
M  V30 8019 H 740.494 2.11207 -2.18233 0
M  V30 8020 H 738.079 0.990768 -1.11822 0
M  V30 8021 H 739.961 4.13756 -0.798987 0
M  V30 8022 H 738.636 3.23698 -0.0121636 0
M  V30 8023 H 737.543 2.94211 -2.31065 0
M  V30 8024 H 738.876 3.88303 -3.02459 0
M  V30 8025 N 740.528 1.15101 1.07655 0
M  V30 8026 C 741.776 0.922149 1.79836 0
M  V30 8027 C 742.097 -0.552346 1.87014 0
M  V30 8028 O 741.367 -1.40145 1.3688 0
M  V30 8029 H 739.947 0.338182 0.666064 0
M  V30 8030 H 742.609 1.45107 1.30115 0
M  V30 8031 H 741.705 1.32883 2.82398 0
M  V30 8032 N 742.006 -1.2595 0.947325 0
M  V30 8033 C 743.255 -1.92759 0.593887 0
M  V30 8034 C 743.568 -1.75083 -0.872093 0
M  V30 8035 O 744.774 -2.36401 -1.33518 0
M  V30 8036 C 743.23 -3.45395 1.01144 0
M  V30 8037 C 742.838 -3.71795 2.49946 0
M  V30 8038 C 744.582 -4.18173 0.730185 0
M  V30 8039 C 742.489 -5.17901 2.85539 0
M  V30 8040 H 741.419 -0.721676 0.218403 0
M  V30 8041 H 744.07 -1.4293 1.15079 0
M  V30 8042 H 742.452 -3.94143 0.383007 0
M  V30 8043 H 743.626 -3.33728 3.17746 0
M  V30 8044 H 741.941 -3.12263 2.75465 0
M  V30 8045 H 744.538 -5.25784 0.972367 0
M  V30 8046 H 744.881 -4.14964 -0.333223 0
M  V30 8047 H 745.414 -3.75309 1.31862 0
M  V30 8048 H 742.153 -5.26216 3.90867 0
M  V30 8049 H 741.673 -5.57042 2.22406 0
M  V30 8050 H 743.352 -5.8596 2.74336 0
M  V30 8051 N 743.484 -0.715051 -1.40445 0
M  V30 8052 C 744.447 -0.0708726 -2.2909 0
M  V30 8053 C 745.447 0.687926 -1.45342 0
M  V30 8054 O 746.637 0.519908 -1.66261 0
M  V30 8055 C 743.769 0.909528 -3.28543 0
M  V30 8056 H 744.962 -0.851611 -2.87555 0
M  V30 8057 H 742.515 -0.479674 -1.48758 0
M  V30 8058 H 743.25 1.71734 -2.75096 0
M  V30 8059 H 743.035 0.368318 -3.90366 0
M  V30 8060 H 744.525 1.35744 -3.94922 0
M  V30 8061 N 744.962 1.50701 -0.461195 0
M  V30 8062 C 746.211 2.01458 0.0988277 0
M  V30 8063 C 746.524 1.34863 1.41673 0
M  V30 8064 O 747.73 1.76721 2.06111 0
M  V30 8065 C 746.186 3.59186 0.226648 0
M  V30 8066 C 745.794 4.34732 -1.08223 0
M  V30 8067 C 747.538 4.18015 0.73916 0
M  V30 8068 C 745.445 5.8422 -0.918747 0
M  V30 8069 H 744.375 0.7529 0.040709 0
M  V30 8070 H 747.026 1.736 -0.594589 0
M  V30 8071 H 745.408 3.83589 0.983621 0
M  V30 8072 H 746.582 4.22059 -1.84939 0
M  V30 8073 H 744.897 3.87466 -1.52509 0
M  V30 8074 H 747.494 5.27436 0.878347 0
M  V30 8075 H 747.837 3.78746 1.72793 0
M  V30 8076 H 748.37 3.9778 0.0398469 0
M  V30 8077 H 745.109 6.27944 -1.88059 0
M  V30 8078 H 744.629 5.99493 -0.191801 0
M  V30 8079 H 746.308 6.44382 -0.581405 0
M  V30 8080 N 746.441 0.193421 1.56409 0
M  V30 8081 C 747.688 -0.445789 1.97532 0
M  V30 8082 C 748.016 -1.61744 1.08024 0
M  V30 8083 O 747.271 -1.95338 0.118982 0
M  V30 8084 C 747.57 -0.949718 3.44551 0
M  V30 8085 C 747.236 0.108383 4.5077 0
M  V30 8086 C 745.898 0.399126 4.79542 0
M  V30 8087 C 748.25 0.825423 5.14622 0
M  V30 8088 C 745.578 1.41192 5.69457 0
M  V30 8089 C 747.93 1.82735 6.05632 0
M  V30 8090 C 746.594 2.12531 6.32761 0
M  V30 8091 H 745.864 -0.163126 0.722822 0
M  V30 8092 H 748.511 0.290035 1.89291 0
M  V30 8093 H 746.816 -1.76378 3.49854 0
M  V30 8094 H 748.513 -1.45367 3.73724 0
M  V30 8095 H 745.103 -0.128392 4.28408 0
M  V30 8096 H 749.287 0.61403 4.92487 0
M  V30 8097 H 744.543 1.6487 5.88751 0
M  V30 8098 H 748.717 2.3882 6.5417 0
M  V30 8099 H 746.344 2.91155 7.02234 0
M  V30 8100 N 747.919 -1.57396 -0.0801906 0
M  V30 8101 C 748.849 -2.06145 -1.09665 0
M  V30 8102 C 749.83 -0.953273 -1.40878 0
M  V30 8103 O 751.015 -1.22548 -1.50651 0
M  V30 8104 C 748.145 -2.49836 -2.41245 0
M  V30 8105 C 747.099 -3.64454 -2.24405 0
M  V30 8106 C 746.425 -3.94172 -3.61293 0
M  V30 8107 C 747.725 -4.94807 -1.67223 0
M  V30 8108 H 749.419 -2.91316 -0.691028 0
M  V30 8109 H 746.965 -1.40145 -0.330957 0
M  V30 8110 H 748.918 -2.82552 -3.12638 0
M  V30 8111 H 747.642 -1.61683 -2.83771 0
M  V30 8112 H 746.301 -3.32008 -1.55454 0
M  V30 8113 H 745.949 -3.03163 -4.01374 0
M  V30 8114 H 745.649 -4.71345 -3.50867 0
M  V30 8115 H 747.173 -4.29376 -4.3413 0
M  V30 8116 H 748.587 -5.25807 -2.28472 0
M  V30 8117 H 746.984 -5.76245 -1.67515 0
M  V30 8118 H 748.054 -4.80751 -0.632944 0
M  V30 8119 N 749.397 0.351382 -1.53633 0
M  V30 8120 C 750.327 1.43688 -1.84055 0
M  V30 8121 C 751.308 1.55251 -0.695073 0
M  V30 8122 O 752.493 1.69587 -0.946257 0
M  V30 8123 C 749.623 2.80843 -2.04315 0
M  V30 8124 C 748.577 2.84094 -3.20117 0
M  V30 8125 C 747.903 4.2406 -3.25696 0
M  V30 8126 C 749.203 2.50334 -4.58399 0
M  V30 8127 H 750.897 1.18478 -2.74961 0
M  V30 8128 H 748.443 0.568509 -1.32303 0
M  V30 8129 H 750.396 3.56821 -2.2418 0
M  V30 8130 H 749.12 3.07471 -1.10132 0
M  V30 8131 H 747.779 2.10568 -3.00094 0
M  V30 8132 H 747.427 4.47785 -2.29123 0
M  V30 8133 H 747.127 4.27147 -4.03509 0
M  V30 8134 H 748.651 5.0189 -3.47762 0
M  V30 8135 H 750.065 3.16025 -4.78332 0
M  V30 8136 H 748.462 2.64717 -5.38558 0
M  V30 8137 H 749.532 1.45542 -4.62543 0
M  V30 8138 N 750.875 1.45233 0.611969 0
M  V30 8139 C 752.291 1.29542 0.932251 0
M  V30 8140 C 752.491 0.24523 2.00002 0
M  V30 8141 O 751.547 -0.362333 2.49887 0
M  V30 8142 C 752.86 2.67301 1.37733 0
M  V30 8143 C 754.408 2.75163 1.49178 0
M  V30 8144 C 754.883 4.13437 1.97064 0
M  V30 8145 N 756.374 4.15709 2.04304 0
M  V30 8146 C 757.109 5.19566 2.42568 0
M  V30 8147 N 756.605 6.33771 2.79832 0
M  V30 8148 N 758.398 5.06923 2.42869 0
M  V30 8149 H 750.549 2.12192 -0.0938679 0
M  V30 8150 H 752.812 0.947775 0.0206569 0
M  V30 8151 H 752.518 3.45318 0.666951 0
M  V30 8152 H 752.392 2.95472 2.3447 0
M  V30 8153 H 754.779 1.97453 2.19309 0
M  V30 8154 H 754.86 2.50712 0.507674 0
M  V30 8155 H 754.504 4.91631 1.27521 0
M  V30 8156 H 754.434 4.35277 2.9638 0
M  V30 8157 H 756.925 3.33293 1.78113 0
M  V30 8158 H 757.238 7.08815 3.07898 0
M  V30 8159 H 755.583 6.37179 2.77538 0
M  V30 8160 H 758.774 4.1675 2.1316 0
M  V30 8161 H 758.947 5.87981 2.72364 0
M  V30 8162 N 752.353 -0.854086 1.3245 0
M  V30 8163 C 753.764 -1.42427 1.20712 0
M  V30 8164 C 754.115 -1.95371 -0.18013 0
M  V30 8165 O 753.24 -1.87587 -1.07889 0
M  V30 8166 C 753.835 -2.58897 2.18536 0
M  V30 8167 C 752.394 -3.11913 2.10683 0
M  V30 8168 C 751.541 -1.84661 2.06871 0
M  V30 8169 H 754.492 -0.661192 1.4427 0
M  V30 8170 H 754.513 -3.36074 1.78422 0
M  V30 8171 H 754.025 -2.20333 3.19492 0
M  V30 8172 H 752.126 -3.55059 1.12977 0
M  V30 8173 H 752.239 -3.73119 3.00532 0
M  V30 8174 H 750.603 -2.04285 1.52118 0
M  V30 8175 H 751.386 -1.48314 3.09609 0
M  V30 8176 N 753.831 -1.1567 -1.07043 0
M  V30 8177 C 755.056 -0.957946 -1.83952 0
M  V30 8178 C 755.481 0.488807 -1.81638 0
M  V30 8179 O 754.839 1.34869 -1.21162 0
M  V30 8180 C 754.887 -1.48064 -3.288 0
M  V30 8181 O 753.991 -0.681921 -4.06723 0
M  V30 8182 H 753.332 -0.341453 -0.569479 0
M  V30 8183 H 755.862 -1.53728 -1.35015 0
M  V30 8184 H 755.872 -1.49484 -3.7963 0
M  V30 8185 H 754.547 -2.53388 -3.29799 0
M  V30 8186 H 753.124 -0.737612 -3.65532 0
M  V30 8187 N 755.309 1.25446 -0.953992 0
M  V30 8188 C 756.586 1.884 -0.525823 0
M  V30 8189 C 756.966 1.86079 0.996891 0
M  V30 8190 O 756.314 1.32389 1.8624 0
M  V30 8191 C 756.524 3.31154 -1.10172 0
M  V30 8192 C 757.872 4.07926 -1.17819 0
M  V30 8193 O 758.896 3.40273 -1.05323 0
M  V30 8194 O 757.755 5.28942 -1.37415 0
M  V30 8195 H 754.849 0.808629 -0.173345 0
M  V30 8196 H 757.395 1.33522 -1.04738 0
M  V30 8197 H 756.167 3.27271 -2.14499 0
M  V30 8198 H 755.79 3.93588 -0.56338 0
M  V30 8199 N 756.787 0.722489 1.40064 0
M  V30 8200 C 757.717 0.0892452 2.33329 0
M  V30 8201 C 758.698 -0.737992 1.53257 0
M  V30 8202 O 759.883 -0.685516 1.81698 0
M  V30 8203 C 757.013 -0.828139 3.37282 0
M  V30 8204 C 755.967 -0.106005 4.27869 0
M  V30 8205 C 755.293 -1.13957 5.22415 0
M  V30 8206 C 756.593 1.04395 5.11761 0
M  V30 8207 H 758.287 0.868269 2.86534 0
M  V30 8208 H 755.833 0.418982 1.3777 0
M  V30 8209 H 757.786 -1.28058 4.01471 0
M  V30 8210 H 756.51 -1.63914 2.82489 0
M  V30 8211 H 755.169 0.326683 3.65142 0
M  V30 8212 H 754.817 -1.9438 4.63924 0
M  V30 8213 H 754.517 -0.661233 5.83868 0
M  V30 8214 H 756.041 -1.59197 5.89482 0
M  V30 8215 H 757.455 0.670541 5.69365 0
M  V30 8216 H 755.852 1.4511 5.82291 0
M  V30 8217 H 756.922 1.87144 4.47331 0
M  V30 8218 N 758.265 -1.50454 0.469181 0
M  V30 8219 C 759.197 -2.26319 -0.362247 0
M  V30 8220 C 760.21 -1.31574 -0.958751 0
M  V30 8221 O 761.399 -1.57099 -0.847482 0
M  V30 8222 C 758.499 -3.02808 -1.52187 0
M  V30 8223 C 757.672 -4.24893 -1.03849 0
M  V30 8224 C 756.731 -4.83691 -2.07194 0
M  V30 8225 O 755.757 -5.44659 -1.65333 0
M  V30 8226 N 756.959 -4.70522 -3.39985 0
M  V30 8227 H 759.724 -2.98312 0.288124 0
M  V30 8228 H 757.285 -1.59099 0.299856 0
M  V30 8229 H 759.277 -3.39023 -2.21011 0
M  V30 8230 H 757.847 -2.33625 -2.07697 0
M  V30 8231 H 757.067 -3.93806 -0.176203 0
M  V30 8232 H 758.355 -5.04053 -0.693435 0
M  V30 8233 H 757.753 -4.2203 -3.76706 0
M  V30 8234 H 756.31 -5.11011 -4.04612 0
M  V30 8235 N 759.743 -0.201713 -1.56304 0
M  V30 8236 C 760.968 0.443815 -2.02596 0
M  V30 8237 C 761.393 1.53945 -1.08086 0
M  V30 8238 O 760.751 1.81182 -0.0655056 0
M  V30 8239 C 760.799 0.971066 -3.47279 0
M  V30 8240 O 759.903 2.0836 -3.55893 0
M  V30 8241 H 759.244 0.10294 -0.655972 0
M  V30 8242 H 761.774 -0.314533 -2.02168 0
M  V30 8243 H 761.784 1.28598 -3.87204 0
M  V30 8244 H 760.459 0.169048 -4.15556 0
M  V30 8245 H 759.036 1.77683 -3.27846 0
M  V30 8246 N 761.222 1.57436 0.0718424 0
M  V30 8247 C 762.471 1.86431 0.769826 0
M  V30 8248 C 762.784 0.794355 1.78744 0
M  V30 8249 O 763.99 0.972148 2.53499 0
M  V30 8250 C 762.446 3.307 1.42006 0
M  V30 8251 C 762.054 4.45824 0.441017 0
M  V30 8252 C 763.798 3.68894 2.10041 0
M  V30 8253 C 761.705 5.81134 1.09717 0
M  V30 8254 H 760.635 0.695474 0.291259 0
M  V30 8255 H 763.286 1.83485 0.0231224 0
M  V30 8256 H 761.668 3.28257 2.21502 0
M  V30 8257 H 762.842 4.59659 -0.32413 0
M  V30 8258 H 761.157 4.16181 -0.134886 0
M  V30 8259 H 763.754 4.67281 2.59908 0
M  V30 8260 H 764.097 2.98692 2.89981 0
M  V30 8261 H 764.63 3.73326 1.37376 0
M  V30 8262 H 761.369 6.54628 0.338095 0
M  V30 8263 H 760.889 5.711 1.83317 0
M  V30 8264 H 762.568 6.26468 1.617 0
M  V30 8265 N 762.7 -0.34323 1.53817 0
M  V30 8266 C 763.63 -1.42709 1.84814 0
M  V30 8267 C 764.611 -1.5488 0.703297 0
M  V30 8268 O 765.796 -1.69082 0.955237 0
M  V30 8269 C 762.926 -2.79756 2.05801 0
M  V30 8270 C 761.88 -2.82392 3.21619 0
M  V30 8271 C 761.206 -4.22326 3.2794 0
M  V30 8272 C 762.506 -2.479 4.59721 0
M  V30 8273 H 764.2 -1.17018 2.75585 0
M  V30 8274 H 761.746 -0.561485 1.32602 0
M  V30 8275 H 763.699 -3.55627 2.26069 0
M  V30 8276 H 762.423 -3.06883 1.11761 0
M  V30 8277 H 761.082 -2.08974 3.01207 0
M  V30 8278 H 760.73 -4.46564 2.31494 0
M  V30 8279 H 760.43 -4.25001 4.05768 0
M  V30 8280 H 761.954 -5.00039 3.50419 0
M  V30 8281 H 763.368 -3.13484 4.80001 0
M  V30 8282 H 761.765 -2.61857 5.39954 0
M  V30 8283 H 762.835 -1.43087 4.63308 0
M  V30 8284 N 764.178 -1.45556 -0.604258 0
M  V30 8285 C 765.403 -1.53509 -1.39462 0
M  V30 8286 C 765.828 -0.169638 -1.87333 0
M  V30 8287 O 765.186 0.846346 -1.60333 0
M  V30 8288 C 765.234 -2.52654 -2.5729 0
M  V30 8289 O 764.338 -2.04666 -3.5803 0
M  V30 8290 H 763.679 -0.517355 -0.416221 0
M  V30 8291 H 766.209 -1.90939 -0.735072 0
M  V30 8292 H 766.219 -2.71568 -3.04491 0
M  V30 8293 H 764.894 -3.51823 -2.21797 0
M  V30 8294 H 763.471 -1.95643 -3.17456 0
M  V30 8295 N 765.656 0.84705 -1.32902 0
M  V30 8296 C 766.933 1.58583 -1.14503 0
M  V30 8297 C 767.313 2.09075 0.291724 0
M  V30 8298 O 766.661 1.88636 1.28952 0
M  V30 8299 C 766.871 2.72605 -2.17916 0
M  V30 8300 C 768.219 3.41993 -2.51646 0
M  V30 8301 O 769.243 2.82838 -2.1652 0
M  V30 8302 O 768.102 4.48761 -3.1189 0
M  V30 8303 H 765.196 0.698756 -0.442345 0
M  V30 8304 H 767.742 0.890516 -1.44457 0
M  V30 8305 H 766.514 2.32876 -3.14459 0
M  V30 8306 H 766.137 3.49807 -1.89 0
M  V30 8307 N 767.134 1.16236 1.06428 0
M  V30 8308 C 768.097 0.870163 2.1204 0
M  V30 8309 C 769.097 -0.134239 1.60239 0
M  V30 8310 O 770.287 0.0964932 1.73933 0
M  V30 8311 C 767.419 0.301033 3.39568 0
M  V30 8312 H 768.612 1.8064 2.39394 0
M  V30 8313 H 766.165 0.971116 1.2247 0
M  V30 8314 H 766.9 -0.642948 3.17863 0
M  V30 8315 H 766.685 1.02475 3.78472 0
M  V30 8316 H 768.175 0.114494 4.17443 0
M  V30 8317 N 768.612 -1.24939 0.960631 0
M  V30 8318 C 769.858 -1.93425 0.629155 0
M  V30 8319 C 770.213 -1.73784 -0.825635 0
M  V30 8320 O 769.506 -1.07595 -1.58536 0
M  V30 8321 C 769.7 -3.45066 0.930809 0
M  V30 8322 C 769.529 -3.79455 2.41337 0
M  V30 8323 C 768.299 -4.01195 3.07197 0
M  V30 8324 C 770.497 -3.86492 3.39306 0
M  V30 8325 N 768.479 -4.22626 4.45265 0
M  V30 8326 C 769.85 -4.12682 4.62702 0
M  V30 8327 C 771.905 -3.69198 3.34061 0
M  V30 8328 C 770.608 -4.23376 5.81502 0
M  V30 8329 C 772.634 -3.81135 4.52206 0
M  V30 8330 C 771.996 -4.07743 5.74391 0
M  V30 8331 H 768.095 -0.729791 0.280943 0
M  V30 8332 H 770.679 -1.50597 1.23404 0
M  V30 8333 H 768.85 -3.86776 0.354801 0
M  V30 8334 H 770.582 -4.00826 0.558627 0
M  V30 8335 H 767.337 -3.97319 2.5775 0
M  V30 8336 H 767.761 -4.37335 5.16785 0
M  V30 8337 H 772.403 -3.47639 2.40638 0
M  V30 8338 H 770.121 -4.4375 6.75361 0
M  V30 8339 H 773.707 -3.69133 4.49702 0
M  V30 8340 H 772.587 -4.16768 6.64284 0
M  V30 8341 N 770.09 -0.729906 -1.39679 0
M  V30 8342 C 771.337 -0.275622 -2.00615 0
M  V30 8343 C 771.665 1.13559 -1.57907 0
M  V30 8344 O 770.92 1.78745 -0.796789 0
M  V30 8345 C 771.219 -0.319564 -3.55968 0
M  V30 8346 C 770.885 -1.68308 -4.1831 0
M  V30 8347 C 769.547 -2.05629 -4.35052 0
M  V30 8348 C 771.899 -2.57857 -4.52945 0
M  V30 8349 C 769.227 -3.32018 -4.83716 0
M  V30 8350 C 771.579 -3.83613 -5.03015 0
M  V30 8351 C 770.243 -4.21033 -5.17965 0
M  V30 8352 H 769.513 -0.100857 -0.734104 0
M  V30 8353 H 772.16 -0.93575 -1.67081 0
M  V30 8354 H 770.465 0.42414 -3.89497 0
M  V30 8355 H 772.162 0.0499905 -4.00969 0
M  V30 8356 H 768.752 -1.3829 -4.05677 0
M  V30 8357 H 772.936 -2.30295 -4.39634 0
M  V30 8358 H 768.192 -3.6096 -4.93475 0
M  V30 8359 H 772.366 -4.53162 -5.28788 0
M  V30 8360 H 769.993 -5.19034 -5.55435 0
M  V30 8361 N 771.568 1.50203 -0.477153 0
M  V30 8362 C 772.518 2.25561 0.332625 0
M  V30 8363 C 773.502 1.29401 0.956249 0
M  V30 8364 O 774.694 1.54267 0.867795 0
M  V30 8365 C 771.823 3.12984 1.41052 0
M  V30 8366 C 770.909 4.16595 0.79433 0
M  V30 8367 N 771.3 5.05722 -0.0889633 0
M  V30 8368 C 769.598 4.33279 1.0576 0
M  V30 8369 C 770.299 5.80039 -0.439286 0
M  V30 8370 N 769.275 5.43278 0.187018 0
M  V30 8371 H 773.077 2.91836 -0.347718 0
M  V30 8372 H 770.591 1.59759 -0.291686 0
M  V30 8373 H 772.588 3.65582 2.00388 0
M  V30 8374 H 771.248 2.48258 2.09279 0
M  V30 8375 H 772.259 5.15869 -0.458205 0
M  V30 8376 H 768.936 3.79769 1.7344 0
M  V30 8377 H 770.326 6.61802 -1.1605 0
M  V30 8378 N 773.046 0.209999 1.56195 0
M  V30 8379 C 774.293 -0.424813 1.97994 0
M  V30 8380 C 774.621 -1.60589 1.09733 0
M  V30 8381 O 773.876 -1.95201 0.139693 0
M  V30 8382 C 774.175 -0.91312 3.45539 0
M  V30 8383 C 773.841 0.156187 4.50629 0
M  V30 8384 C 772.503 0.449966 4.79092 0
M  V30 8385 C 774.855 0.879959 5.13718 0
M  V30 8386 C 772.183 1.47223 5.67928 0
M  V30 8387 C 774.535 1.89148 6.0366 0
M  V30 8388 C 773.199 2.1923 6.30472 0
M  V30 8389 H 772.469 -0.15545 0.724511 0
M  V30 8390 H 775.116 0.310095 1.88973 0
M  V30 8391 H 773.421 -1.72658 3.51705 0
M  V30 8392 H 775.118 -1.41395 3.75245 0
M  V30 8393 H 771.708 -0.0829466 4.2852 0
M  V30 8394 H 775.892 0.66623 4.91808 0
M  V30 8395 H 771.148 1.71105 5.86969 0
M  V30 8396 H 775.322 2.45745 6.516 0
M  V30 8397 H 772.949 2.98587 6.99107 0
M  V30 8398 N 774.524 -1.57472 -0.0634922 0
M  V30 8399 C 775.77 -1.87932 -0.762194 0
M  V30 8400 C 776.103 -0.803377 -1.76804 0
M  V30 8401 O 775.378 0.185468 -1.93614 0
M  V30 8402 C 775.661 -3.29053 -1.46275 0
M  V30 8403 C 775.514 -4.47309 -0.472755 0
M  V30 8404 C 776.833 -3.68537 -2.40558 0
M  V30 8405 H 773.952 -0.683521 -0.275624 0
M  V30 8406 H 776.594 -1.89983 -0.0252651 0
M  V30 8407 H 774.744 -3.27435 -2.0909 0
M  V30 8408 H 776.416 -4.61053 0.150828 0
M  V30 8409 H 774.659 -4.33286 0.211187 0
M  V30 8410 H 775.33 -5.42853 -1.00072 0
M  V30 8411 H 777.806 -3.71302 -1.87814 0
M  V30 8412 H 776.682 -4.68152 -2.86574 0
M  V30 8413 H 776.943 -2.98917 -3.25731 0
M  V30 8414 N 776.003 0.335068 -1.53997 0
M  V30 8415 C 777.25 1.07435 -1.71651 0
M  V30 8416 C 777.578 1.88378 -0.48413 0
M  V30 8417 O 776.833 1.8827 0.534139 0
M  V30 8418 C 777.132 2.0364 -2.9371 0
M  V30 8419 C 776.798 1.38942 -4.28959 0
M  V30 8420 C 775.46 1.21027 -4.65732 0
M  V30 8421 C 777.812 0.924083 -5.12943 0
M  V30 8422 C 775.14 0.552097 -5.84097 0
M  V30 8423 C 777.492 0.27978 -6.31981 0
M  V30 8424 C 776.156 0.0883843 -6.67441 0
M  V30 8425 H 775.426 0.393133 -0.628114 0
M  V30 8426 H 778.073 0.352712 -1.88224 0
M  V30 8427 H 776.378 2.82215 -2.71775 0
M  V30 8428 H 778.075 2.6085 -3.04562 0
M  V30 8429 H 774.665 1.53885 -4.00022 0
M  V30 8430 H 778.849 1.05032 -4.85059 0
M  V30 8431 H 774.105 0.392502 -6.10139 0
M  V30 8432 H 778.279 -0.0888479 -6.96343 0
M  V30 8433 H 775.906 -0.423657 -7.59019 0
M  V30 8434 N 777.481 1.45874 0.596531 0
M  V30 8435 C 778.728 1.50467 1.35521 0
M  V30 8436 C 779.056 0.150802 1.93915 0
M  V30 8437 O 778.311 -0.851913 1.76184 0
M  V30 8438 C 778.61 2.54034 2.51399 0
M  V30 8439 C 778.276 3.9844 2.11085 0
M  V30 8440 C 776.938 4.37758 1.99804 0
M  V30 8441 C 779.29 4.89209 1.79788 0
M  V30 8442 C 776.618 5.65727 1.55465 0
M  V30 8443 C 778.97 6.17602 1.36931 0
M  V30 8444 C 777.634 6.5584 1.24218 0
M  V30 8445 H 776.904 0.550597 0.495907 0
M  V30 8446 H 779.551 1.79279 0.673145 0
M  V30 8447 H 777.856 2.18832 3.24992 0
M  V30 8448 H 779.553 2.54822 3.09624 0
M  V30 8449 H 776.143 3.67353 2.20794 0
M  V30 8450 H 780.327 4.59562 1.87395 0
M  V30 8451 H 775.583 5.94139 1.44253 0
M  V30 8452 H 779.757 6.87373 1.11764 0
M  V30 8453 H 777.384 7.54897 0.896353 0
M  V30 8454 N 778.959 -0.83999 1.33349 0
M  V30 8455 C 780.208 -1.59011 1.2409 0
M  V30 8456 C 780.521 -1.94655 -0.192029 0
M  V30 8457 O 781.727 -2.68438 -0.406617 0
M  V30 8458 C 780.183 -2.86801 2.17425 0
M  V30 8459 C 779.791 -2.58525 3.65881 0
M  V30 8460 C 781.535 -3.64823 2.17036 0
M  V30 8461 C 779.442 -3.82404 4.51133 0
M  V30 8462 H 778.372 -0.596731 0.460899 0
M  V30 8463 H 781.023 -0.926274 1.58406 0
M  V30 8464 H 779.405 -3.54719 1.7604 0
M  V30 8465 H 780.579 -1.98824 4.15699 0
M  V30 8466 H 778.894 -1.93808 3.68548 0
M  V30 8467 H 781.491 -4.56774 2.7796 0
M  V30 8468 H 781.834 -3.99663 1.16513 0
M  V30 8469 H 782.367 -3.03826 2.56777 0
M  V30 8470 H 779.106 -3.52696 5.52527 0
M  V30 8471 H 778.626 -4.41447 4.0606 0
M  V30 8472 H 780.305 -4.49995 4.6488 0
M  V30 8473 N 780.437 -1.16799 -1.0581 0
M  V30 8474 C 781.369 -0.836774 -2.13379 0
M  V30 8475 C 782.382 0.158116 -1.6203 0
M  V30 8476 O 783.571 -0.0673211 -1.78373 0
M  V30 8477 C 780.671 -0.225959 -3.38146 0
M  V30 8478 C 779.844 -1.26217 -4.18794 0
M  V30 8479 C 778.903 -0.670257 -5.21914 0
M  V30 8480 O 777.929 -1.34042 -5.53192 0
M  V30 8481 N 779.131 0.540683 -5.77977 0
M  V30 8482 H 781.896 -1.76257 -2.42391 0
M  V30 8483 H 779.457 -1.06599 -1.21853 0
M  V30 8484 H 781.449 0.18317 -4.04285 0
M  V30 8485 H 780.019 0.603494 -3.06719 0
M  V30 8486 H 779.239 -1.84729 -3.48237 0
M  V30 8487 H 780.527 -1.9613 -4.69479 0
M  V30 8488 H 779.925 1.10322 -5.54838 0
M  V30 8489 H 778.482 0.891958 -6.45668 0
M  V30 8490 N 781.915 1.24427 -0.967243 0
M  V30 8491 C 782.878 2.23637 -0.501927 0
M  V30 8492 C 783.878 1.55712 0.401283 0
M  V30 8493 O 785.068 1.73085 0.196808 0
M  V30 8494 C 782.2 3.39804 0.273176 0
M  V30 8495 H 783.393 2.66317 -1.37897 0
M  V30 8496 H 780.946 1.37033 -0.751783 0
M  V30 8497 H 781.681 3.02562 1.16733 0
M  V30 8498 H 781.466 3.90303 -0.37498 0
M  V30 8499 H 782.956 4.13443 0.587776 0
M  V30 8500 N 783.393 0.737304 1.3929 0
M  V30 8501 C 784.639 0.286681 2.00763 0
M  V30 8502 C 784.972 -1.12388 1.58375 0
M  V30 8503 O 784.247 -1.76661 0.813699 0
M  V30 8504 C 784.53 0.391147 3.57969 0
M  V30 8505 C 784.383 1.84165 4.1037 0
M  V30 8506 C 785.702 -0.225072 4.39524 0
M  V30 8507 H 782.821 0.105642 0.729389 0
M  V30 8508 H 785.463 0.933892 1.65464 0
M  V30 8509 H 783.613 -0.159875 3.88171 0
M  V30 8510 H 785.285 2.44972 3.90879 0
M  V30 8511 H 783.528 2.3622 3.63844 0
M  V30 8512 H 784.199 1.866 5.19504 0
M  V30 8513 H 786.675 0.244677 4.1538 0
M  V30 8514 H 785.551 -0.121646 5.48765 0
M  V30 8515 H 785.812 -1.31141 4.22202 0
M  V30 8516 N 784.871 -1.49948 0.485112 0
M  V30 8517 C 785.801 -2.31675 -0.291364 0
M  V30 8518 C 786.782 -1.39216 -0.977383 0
M  V30 8519 O 787.967 -1.68133 -0.971855 0
M  V30 8520 C 785.097 -3.19326 -1.36558 0
M  V30 8521 C 784.051 -4.2045 -0.800359 0
M  V30 8522 C 783.377 -4.96931 -1.97391 0
M  V30 8523 C 784.677 -5.21925 0.197867 0
M  V30 8524 H 786.371 -2.96839 0.390775 0
M  V30 8525 H 783.917 -1.42749 0.189375 0
M  V30 8526 H 785.87 -3.75304 -1.91638 0
M  V30 8527 H 784.594 -2.52074 -2.07668 0
M  V30 8528 H 783.253 -3.65594 -0.271428 0
M  V30 8529 H 782.901 -4.26141 -2.67232 0
M  V30 8530 H 782.601 -5.65344 -1.60187 0
M  V30 8531 H 784.125 -5.55749 -2.52935 0
M  V30 8532 H 785.539 -5.72691 -0.264239 0
M  V30 8533 H 783.936 -5.98138 0.484908 0
M  V30 8534 H 785.006 -4.71809 1.11912 0
M  V30 8535 N 786.349 -0.21828 -1.56081 0
M  V30 8536 C 787.595 0.414921 -1.9851 0
M  V30 8537 C 787.928 1.59648 -1.10573 0
M  V30 8538 O 787.203 1.93818 -0.162695 0
M  V30 8539 C 787.486 0.852647 -3.4986 0
M  V30 8540 C 787.339 -0.33232 -4.48571 0
M  V30 8541 C 788.658 1.70998 -4.05521 0
M  V30 8542 H 785.777 0.149344 -0.72171 0
M  V30 8543 H 788.419 -0.313858 -1.8739 0
M  V30 8544 H 786.569 1.47362 -3.59467 0
M  V30 8545 H 788.241 -0.970418 -4.50977 0
M  V30 8546 H 786.484 -0.980302 -4.22578 0
M  V30 8547 H 787.155 0.0168407 -5.51997 0
M  V30 8548 H 789.631 1.18606 -3.98838 0
M  V30 8549 H 788.507 1.98517 -5.11744 0
M  V30 8550 H 788.768 2.67219 -3.52202 0
M  V30 8551 N 787.827 1.57504 0.0551401 0
M  V30 8552 C 789.076 1.87237 0.750009 0
M  V30 8553 C 789.389 0.813268 1.77891 0
M  V30 8554 O 790.595 0.99898 2.52453 0
M  V30 8555 C 789.051 3.32187 1.38491 0
M  V30 8556 C 788.659 4.46267 0.393707 0
M  V30 8557 C 790.403 3.71101 2.06117 0
M  V30 8558 C 788.31 5.82265 1.03547 0
M  V30 8559 H 787.24 0.698524 0.283866 0
M  V30 8560 H 789.891 1.835 0.00365997 0
M  V30 8561 H 788.273 3.30588 2.18008 0
M  V30 8562 H 789.447 4.59289 -0.372865 0
M  V30 8563 H 787.762 4.16015 -0.17902 0
M  V30 8564 H 790.359 4.70012 2.54937 0
M  V30 8565 H 790.702 3.01751 2.86796 0
M  V30 8566 H 791.235 3.74762 1.33409 0
M  V30 8567 H 787.974 6.54949 0.268644 0
M  V30 8568 H 787.494 5.73012 1.7725 0
M  V30 8569 H 789.173 6.28148 1.55047 0
M  V30 8570 N 789.305 -0.326896 1.54172 0
M  V30 8571 C 790.235 -1.40741 1.86317 0
M  V30 8572 C 791.216 -1.54125 0.719684 0
M  V30 8573 O 792.401 -1.6806 0.973117 0
M  V30 8574 C 789.531 -2.77557 2.08757 0
M  V30 8575 C 788.485 -2.78965 3.24596 0
M  V30 8576 C 787.811 -4.18824 3.32401 0
M  V30 8577 C 789.111 -2.4301 4.62324 0
M  V30 8578 H 790.805 -1.14088 2.76811 0
M  V30 8579 H 788.351 -0.547389 1.3319 0
M  V30 8580 H 790.304 -3.53209 2.29829 0
M  V30 8581 H 789.028 -3.0568 1.15009 0
M  V30 8582 H 787.687 -2.05767 3.03406 0
M  V30 8583 H 787.335 -4.44083 2.36218 0
M  V30 8584 H 787.035 -4.20673 4.10253 0
M  V30 8585 H 788.559 -4.96294 3.55703 0
M  V30 8586 H 789.973 -3.08375 4.83299 0
M  V30 8587 H 788.37 -2.56116 5.42701 0
M  V30 8588 H 789.44 -1.38165 4.64799 0
M  V30 8589 N 790.784 -1.46188 -0.588786 0
M  V30 8590 C 792.009 -1.5498 -1.37826 0
M  V30 8591 C 792.434 -0.189498 -1.87143 0
M  V30 8592 O 791.792 0.829293 -1.61222 0
M  V30 8593 C 791.84 -2.55369 -2.54596 0
M  V30 8594 O 790.944 -2.08452 -3.55839 0
M  V30 8595 H 790.285 -0.521741 -0.41071 0
M  V30 8596 H 792.815 -1.91708 -0.714779 0
M  V30 8597 H 792.825 -2.74782 -3.01594 0
M  V30 8598 H 791.5 -3.54155 -2.18052 0
M  V30 8599 H 790.077 -1.98999 -3.15363 0
M  V30 8600 N 792.262 0.832906 -1.33792 0
M  V30 8601 C 793.508 1.59089 -1.25772 0
M  V30 8602 C 793.841 1.93414 0.174601 0
M  V30 8603 O 793.116 1.59195 1.11746 0
M  V30 8604 C 793.399 2.89699 -2.13885 0
M  V30 8605 C 793.252 2.62017 -3.65605 0
M  V30 8606 C 794.571 3.91182 -2.01654 0
M  V30 8607 H 791.69 0.577232 -0.458227 0
M  V30 8608 H 794.332 0.960227 -1.6395 0
M  V30 8609 H 792.482 3.4352 -1.81456 0
M  V30 8610 H 794.154 2.14582 -4.08353 0
M  V30 8611 H 792.397 1.95621 -3.87189 0
M  V30 8612 H 793.068 3.55112 -4.2261 0
M  V30 8613 H 795.544 3.46684 -2.30107 0
M  V30 8614 H 794.42 4.80391 -2.65548 0
M  V30 8615 H 794.681 4.30861 -0.990536 0
M  V30 8616 N 793.74 1.17359 1.05189 0
M  V30 8617 C 794.987 0.961987 1.78191 0
M  V30 8618 C 795.315 -0.509363 1.87712 0
M  V30 8619 O 794.57 -1.39425 1.37329 0
M  V30 8620 C 794.869 1.54821 3.22126 0
M  V30 8621 C 794.535 3.04378 3.32663 0
M  V30 8622 C 793.197 3.45201 3.35246 0
M  V30 8623 C 795.549 4.00387 3.33677 0
M  V30 8624 C 792.877 4.80629 3.36471 0
M  V30 8625 C 795.229 5.35715 3.36441 0
M  V30 8626 C 793.893 5.76002 3.37311 0
M  V30 8627 H 793.163 0.352016 0.652047 0
M  V30 8628 H 795.81 1.46249 1.23627 0
M  V30 8629 H 794.115 0.969432 3.79617 0
M  V30 8630 H 795.812 1.36004 3.77232 0
M  V30 8631 H 792.402 2.71836 3.31366 0
M  V30 8632 H 796.586 3.69906 3.30882 0
M  V30 8633 H 791.842 5.11155 3.35455 0
M  V30 8634 H 796.016 6.09886 3.36173 0
M  V30 8635 H 793.643 6.80919 3.38013 0
M  V30 8636 N 795.218 -1.23913 0.973828 0
M  V30 8637 C 796.148 -2.27453 0.527969 0
M  V30 8638 C 797.129 -1.6443 -0.435513 0
M  V30 8639 O 798.314 -1.9137 -0.330306 0
M  V30 8640 C 795.444 -3.4685 -0.176757 0
M  V30 8641 C 794.398 -4.22181 0.703352 0
M  V30 8642 C 793.724 -5.34534 -0.133215 0
M  V30 8643 C 795.024 -4.82865 1.99096 0
M  V30 8644 H 796.718 -2.65 1.3934 0
M  V30 8645 H 794.264 -1.27388 0.671446 0
M  V30 8646 H 796.217 -4.18424 -0.499934 0
M  V30 8647 H 794.941 -3.08346 -1.07659 0
M  V30 8648 H 793.6 -3.52416 1.00989 0
M  V30 8649 H 793.248 -4.92271 -1.03338 0
M  V30 8650 H 792.948 -5.85855 0.452494 0
M  V30 8651 H 794.472 -6.08933 -0.450924 0
M  V30 8652 H 795.886 -5.46481 1.73297 0
M  V30 8653 H 794.283 -5.44444 2.52389 0
M  V30 8654 H 795.353 -4.03977 2.68199 0
M  V30 8655 N 796.696 -0.74468 -1.38897 0
M  V30 8656 C 797.926 -0.306982 -2.04307 0
M  V30 8657 C 798.334 1.06652 -1.56275 0
M  V30 8658 O 797.677 1.68699 -0.72708 0
M  V30 8659 C 797.739 -0.241186 -3.5869 0
M  V30 8660 C 797.403 -1.55476 -4.2974 0
M  V30 8661 C 798.4 -2.50229 -4.55721 0
M  V30 8662 C 796.085 -1.82173 -4.68101 0
M  V30 8663 C 798.079 -3.69905 -5.19085 0
M  V30 8664 C 795.766 -3.02125 -5.31191 0
M  V30 8665 C 796.764 -3.95812 -5.56616 0
M  V30 8666 O 796.452 -5.13656 -6.18395 0
M  V30 8667 H 796.184 -0.130416 -0.663301 0
M  V30 8668 H 798.738 -1.01192 -1.78744 0
M  V30 8669 H 796.968 0.519925 -3.83189 0
M  V30 8670 H 798.657 0.165806 -4.05561 0
M  V30 8671 H 799.423 -2.30877 -4.26522 0
M  V30 8672 H 795.302 -1.10091 -4.47662 0
M  V30 8673 H 798.846 -4.43047 -5.38846 0
M  V30 8674 H 794.743 -3.21374 -5.59811 0
M  V30 8675 H 795.511 -5.14119 -6.36886 0
M  V30 8676 N 798.174 1.49689 -0.493057 0
M  V30 8677 C 799.104 2.31826 0.279073 0
M  V30 8678 C 800.085 1.39733 0.969987 0
M  V30 8679 O 801.27 1.68646 0.962925 0
M  V30 8680 C 798.4 3.20046 1.34862 0
M  V30 8681 C 797.354 4.20869 0.77805 0
M  V30 8682 C 796.68 4.97971 1.94753 0
M  V30 8683 C 797.98 5.21813 -0.225543 0
M  V30 8684 H 799.674 2.96627 -0.406512 0
M  V30 8685 H 797.22 1.42647 -0.196943 0
M  V30 8686 H 799.173 3.76315 1.89645 0
M  V30 8687 H 797.897 2.53172 2.06328 0
M  V30 8688 H 796.556 3.65733 0.252036 0
M  V30 8689 H 796.204 4.27552 2.64969 0
M  V30 8690 H 795.904 5.66186 1.57187 0
M  V30 8691 H 797.428 5.57082 2.49984 0
M  V30 8692 H 798.842 5.72823 0.233864 0
M  V30 8693 H 797.239 5.97872 -0.516622 0
M  V30 8694 H 798.309 4.71209 -1.14412 0
M  V30 8695 N 799.652 0.226554 1.55963 0
M  V30 8696 C 800.899 -0.403789 1.98433 0
M  V30 8697 C 801.227 -1.59416 1.1143 0
M  V30 8698 O 800.482 -1.95042 0.160389 0
M  V30 8699 C 800.781 -0.87642 3.46488 0
M  V30 8700 C 800.447 0.203973 4.50438 0
M  V30 8701 C 799.109 0.500754 4.78587 0
M  V30 8702 C 801.461 0.934396 5.12756 0
M  V30 8703 C 798.789 1.53239 5.66334 0
M  V30 8704 C 801.141 1.9554 6.0162 0
M  V30 8705 C 799.805 2.25905 6.28111 0
M  V30 8706 H 799.075 -0.147757 0.726119 0
M  V30 8707 H 801.722 0.330121 1.88633 0
M  V30 8708 H 800.027 -1.68918 3.53517 0
M  V30 8709 H 801.724 -1.37407 3.76723 0
M  V30 8710 H 798.314 -0.0374917 4.28584 0
M  V30 8711 H 802.498 0.718355 4.91074 0
M  V30 8712 H 797.754 1.77321 5.85122 0
M  V30 8713 H 801.928 2.52642 6.48957 0
M  V30 8714 H 799.555 3.05985 6.959 0
M  V30 8715 N 801.13 -1.57531 -0.0467866 0
M  V30 8716 C 802.093 -2.04379 -1.03738 0
M  V30 8717 C 803.093 -0.944881 -1.3011 0
M  V30 8718 O 804.283 -1.20904 -1.25411 0
M  V30 8719 C 801.415 -2.44572 -2.37482 0
M  V30 8720 H 802.608 -2.93142 -0.633063 0
M  V30 8721 H 800.161 -1.53526 -0.293177 0
M  V30 8722 H 800.896 -1.58911 -2.82697 0
M  V30 8723 H 800.681 -3.24785 -2.19675 0
M  V30 8724 H 802.171 -2.81307 -3.08636 0
M  V30 8725 N 802.608 0.318715 -1.54344 0
M  V30 8726 C 803.838 1.07394 -1.76494 0
M  V30 8727 C 804.246 1.82031 -0.515881 0
M  V30 8728 O 803.589 1.7609 0.52325 0
M  V30 8729 C 803.651 2.11401 -2.90775 0
M  V30 8730 C 803.315 1.56118 -4.29507 0
M  V30 8731 C 804.312 1.00043 -5.10184 0
M  V30 8732 C 801.997 1.60215 -4.76063 0
M  V30 8733 C 803.991 0.487993 -6.35529 0
M  V30 8734 C 801.678 1.08584 -6.01376 0
M  V30 8735 C 802.676 0.529714 -6.80943 0
M  V30 8736 O 802.364 0.0211823 -8.03897 0
M  V30 8737 H 802.096 0.325061 -0.592715 0
M  V30 8738 H 804.65 0.36901 -2.02058 0
M  V30 8739 H 802.88 2.85524 -2.60793 0
M  V30 8740 H 804.569 2.72683 -3.00664 0
M  V30 8741 H 805.335 0.961811 -4.75367 0
M  V30 8742 H 801.214 2.02441 -4.14172 0
M  V30 8743 H 804.758 0.0532608 -6.9758 0
M  V30 8744 H 800.655 1.12155 -6.35682 0
M  V30 8745 H 801.423 0.136151 -8.18387 0
M  V30 8746 N 804.086 1.46499 0.581025 0
M  V30 8747 C 805.033 1.5719 1.68997 0
M  V30 8748 C 806.003 0.416114 1.60803 0
M  V30 8749 O 807.188 0.633086 1.79991 0
M  V30 8750 C 804.328 1.56973 3.07333 0
M  V30 8751 C 803.441 2.83298 3.26139 0
M  V30 8752 C 802.576 2.74574 4.54734 0
M  V30 8753 C 801.615 3.9583 4.66889 0
M  V30 8754 N 800.752 3.85482 5.86811 0
M  V30 8755 H 805.592 2.51914 1.59196 0
M  V30 8756 H 803.129 1.24975 0.775857 0
M  V30 8757 H 805.087 1.54832 3.87405 0
M  V30 8758 H 803.717 0.657803 3.16027 0
M  V30 8759 H 802.769 2.95411 2.3966 0
M  V30 8760 H 804.081 3.7316 3.30988 0
M  V30 8761 H 803.235 2.70548 5.43036 0
M  V30 8762 H 801.974 1.82354 4.52325 0
M  V30 8763 H 800.979 4.00186 3.77003 0
M  V30 8764 H 802.204 4.89148 4.71075 0
M  V30 8765 H 800.15 2.96051 5.85397 0
M  V30 8766 H 800.067 4.69002 5.92936 0
M  V30 8767 H 801.335 3.85434 6.7754 0
M  V30 8768 N 805.565 -0.825799 1.34232 0
M  V30 8769 C 806.475 -1.9684 1.27638 0
M  V30 8770 C 807.491 -1.73018 0.184569 0
M  V30 8771 O 808.667 -1.97172 0.410525 0
M  V30 8772 C 805.732 -3.31084 1.02879 0
M  V30 8773 C 804.793 -3.67933 2.21188 0
M  V30 8774 C 804.026 -4.95772 1.976 0
M  V30 8775 O 804.249 -5.62721 0.93281 0
M  V30 8776 O 803.183 -5.30431 2.84477 0
M  V30 8777 H 807.009 -2.05346 2.23756 0
M  V30 8778 H 804.594 -0.960772 1.1441 0
M  V30 8779 H 806.476 -4.11492 0.908406 0
M  V30 8780 H 805.151 -3.23552 0.0979821 0
M  V30 8781 H 804.058 -2.87981 2.38784 0
M  V30 8782 H 805.391 -3.80147 3.12648 0
M  V30 8783 N 807.043 -1.17915 -1.04565 0
M  V30 8784 C 808.273 -0.994716 -1.81077 0
M  V30 8785 C 808.681 0.460146 -1.83519 0
M  V30 8786 O 808.024 1.33136 -1.26572 0
M  V30 8787 C 808.086 -1.46698 -3.28207 0
M  V30 8788 C 807.75 -2.94523 -3.49436 0
M  V30 8789 C 808.747 -3.92414 -3.41038 0
M  V30 8790 C 806.432 -3.32841 -3.76194 0
M  V30 8791 C 808.426 -5.2662 -3.59096 0
M  V30 8792 C 806.113 -4.67212 -3.93899 0
M  V30 8793 C 807.111 -5.6391 -3.8535 0
M  V30 8794 O 806.799 -6.95849 -4.02554 0
M  V30 8795 H 806.531 -0.351797 -0.577248 0
M  V30 8796 H 809.085 -1.56772 -1.32709 0
M  V30 8797 H 807.315 -0.837592 -3.7752 0
M  V30 8798 H 809.004 -1.24724 -3.86263 0
M  V30 8799 H 809.77 -3.64157 -3.20336 0
M  V30 8800 H 805.649 -2.58139 -3.81949 0
M  V30 8801 H 809.193 -6.02082 -3.52339 0
M  V30 8802 H 805.09 -4.95172 -4.14095 0
M  V30 8803 H 805.858 -7.02679 -4.19743 0
M  V30 8804 N 808.521 1.23394 -0.980386 0
M  V30 8805 C 809.451 2.2717 -0.540024 0
M  V30 8806 C 810.432 1.64659 0.426787 0
M  V30 8807 O 811.617 1.91543 0.320153 0
M  V30 8808 C 808.747 3.46939 0.15836 0
M  V30 8809 C 807.701 4.21802 -0.725732 0
M  V30 8810 C 807.027 5.34597 0.104866 0
M  V30 8811 C 808.327 4.81802 -2.01654 0
M  V30 8812 H 810.021 2.64257 -1.40743 0
M  V30 8813 H 807.567 1.2703 -0.678193 0
M  V30 8814 H 809.52 4.18683 0.477737 0
M  V30 8815 H 808.244 3.08912 1.06022 0
M  V30 8816 H 806.903 3.51875 -1.02857 0
M  V30 8817 H 806.551 4.92812 1.00726 0
M  V30 8818 H 806.251 5.85607 -0.483557 0
M  V30 8819 H 807.775 6.09163 0.418624 0
M  V30 8820 H 809.189 5.45554 -1.76193 0
M  V30 8821 H 807.586 5.43098 -2.55273 0
M  V30 8822 H 808.656 4.02549 -2.70338 0
M  V30 8823 N 809.999 0.752036 1.385 0
M  V30 8824 C 810.962 0.131587 2.28822 0
M  V30 8825 C 811.962 -0.649149 1.47115 0
M  V30 8826 O 813.152 -0.475645 1.67581 0
M  V30 8827 C 810.284 -0.822101 3.30839 0
M  V30 8828 H 811.477 0.927551 2.85196 0
M  V30 8829 H 809.03 0.518945 1.47434 0
M  V30 8830 H 809.765 -1.6438 2.79553 0
M  V30 8831 H 809.55 -0.264689 3.91206 0
M  V30 8832 H 811.04 -1.25226 3.98382 0
M  V30 8833 N 811.477 -1.49425 0.500989 0
M  V30 8834 C 812.717 -2.04357 -0.0419004 0
M  V30 8835 C 813.081 -1.37236 -1.34277 0
M  V30 8836 O 814.282 -1.82889 -1.9699 0
M  V30 8837 C 812.553 -3.56889 -0.19112 0
M  V30 8838 S 814.112 -4.33369 -0.688259 0
M  V30 8839 H 810.93 -0.710998 -0.00177796 0
M  V30 8840 H 813.532 -1.83479 0.674953 0
M  V30 8841 H 812.236 -4.03283 0.760964 0
M  V30 8842 H 811.767 -3.82171 -0.933214 0
M  V30 8843 H 813.782 -4.55961 -1.9574 0
M  V30 8844 N 812.955 -0.234822 -1.55841 0
M  V30 8845 C 813.885 0.664217 -2.23854 0
M  V30 8846 C 814.866 1.19076 -1.2147 0
M  V30 8847 O 816.051 1.23232 -1.50091 0
M  V30 8848 C 813.181 1.86666 -2.9287 0
M  V30 8849 C 812.135 1.47341 -4.01839 0
M  V30 8850 C 811.461 2.75571 -4.58219 0
M  V30 8851 C 812.761 0.653479 -5.18196 0
M  V30 8852 H 814.455 0.0971213 -2.99242 0
M  V30 8853 H 812.001 0.0452724 -1.43929 0
M  V30 8854 H 813.954 2.50116 -3.39146 0
M  V30 8855 H 812.678 2.45894 -2.1495 0
M  V30 8856 H 811.337 0.862314 -3.56314 0
M  V30 8857 H 810.985 3.32971 -3.77014 0
M  V30 8858 H 810.685 2.49987 -5.31771 0
M  V30 8859 H 812.209 3.39939 -5.07221 0
M  V30 8860 H 813.623 1.19198 -5.60771 0
M  V30 8861 H 812.02 0.494188 -5.98062 0
M  V30 8862 H 813.09 -0.337004 -4.83728 0
M  V30 8863 N 814.433 1.57553 0.0384317 0
M  V30 8864 C 815.679 1.89121 0.732199 0
M  V30 8865 C 816.012 0.831404 1.75503 0
M  V30 8866 O 815.287 -0.154642 1.93884 0
M  V30 8867 C 815.57 3.31338 1.41021 0
M  V30 8868 C 815.423 4.48004 0.401532 0
M  V30 8869 C 816.742 3.72318 2.34665 0
M  V30 8870 H 813.861 0.687819 0.264715 0
M  V30 8871 H 816.503 1.89999 -0.00496279 0
M  V30 8872 H 814.653 3.3072 2.03854 0
M  V30 8873 H 816.325 4.60755 -0.224159 0
M  V30 8874 H 814.568 4.32895 -0.280092 0
M  V30 8875 H 815.239 5.44377 0.91423 0
M  V30 8876 H 817.715 3.74243 1.81883 0
M  V30 8877 H 816.591 4.72652 2.7909 0
M  V30 8878 H 816.852 3.04062 3.20934 0
M  V30 8879 N 815.911 -0.310526 1.54511 0
M  V30 8880 C 816.841 -1.38757 1.878 0
M  V30 8881 C 817.822 -1.53353 0.735991 0
M  V30 8882 O 819.007 -1.67018 0.990887 0
M  V30 8883 C 816.137 -2.75327 2.11689 0
M  V30 8884 C 815.091 -2.75506 3.27537 0
M  V30 8885 C 814.417 -4.15275 3.36824 0
M  V30 8886 C 815.717 -2.38093 4.64875 0
M  V30 8887 H 817.411 -1.11146 2.78005 0
M  V30 8888 H 814.957 -0.533232 1.33763 0
M  V30 8889 H 816.91 -3.50752 2.33562 0
M  V30 8890 H 815.634 -3.04443 1.18245 0
M  V30 8891 H 814.293 -2.02538 3.05572 0
M  V30 8892 H 813.941 -4.41553 2.40915 0
M  V30 8893 H 813.641 -4.16299 4.14692 0
M  V30 8894 H 815.165 -4.92493 3.60947 0
M  V30 8895 H 816.579 -3.03232 4.86542 0
M  V30 8896 H 814.976 -2.50345 5.45387 0
M  V30 8897 H 816.046 -1.33227 4.66239 0
M  V30 8898 N 817.389 -1.46805 -0.573248 0
M  V30 8899 C 818.352 -1.57655 -1.66366 0
M  V30 8900 C 819.352 -0.452905 -1.5429 0
M  V30 8901 O 820.542 -0.717502 -1.58737 0
M  V30 8902 C 817.674 -1.50584 -3.05839 0
M  V30 8903 H 818.867 -2.54842 -1.581 0
M  V30 8904 H 816.42 -1.34756 -0.791868 0
M  V30 8905 H 817.155 -0.547127 -3.19651 0
M  V30 8906 H 816.94 -2.32118 -3.16012 0
M  V30 8907 H 818.43 -1.61282 -3.85199 0
M  V30 8908 N 818.867 0.818669 -1.34668 0
M  V30 8909 C 819.8 1.93516 -1.20941 0
M  V30 8910 C 820.778 1.62292 -0.100061 0
M  V30 8911 O 821.962 1.86614 -0.265983 0
M  V30 8912 C 819.089 3.27612 -0.859524 0
M  V30 8913 C 818.135 3.77794 -1.97923 0
M  V30 8914 S 818.968 3.97043 -3.59329 0
M  V30 8915 C 820.124 5.3406 -3.2639 0
M  V30 8916 H 820.357 2.04864 -2.15449 0
M  V30 8917 H 817.89 0.974716 -1.19744 0
M  V30 8918 H 819.848 4.05087 -0.664444 0
M  V30 8919 H 818.509 3.14028 0.0672835 0
M  V30 8920 H 817.702 4.74883 -1.68827 0
M  V30 8921 H 817.304 3.0728 -2.13202 0
M  V30 8922 H 819.596 6.17626 -2.78469 0
M  V30 8923 H 820.539 5.68143 -4.22634 0
M  V30 8924 H 820.947 4.99773 -2.62464 0
M  V30 8925 N 820.346 1.18468 1.03938 0
M  V30 8926 C 821.309 0.914944 2.10146 0
M  V30 8927 C 822.309 -0.10022 1.60487 0
M  V30 8928 O 823.499 0.133365 1.73689 0
M  V30 8929 C 820.631 0.372993 3.38853 0
M  V30 8930 H 821.824 1.85677 2.35508 0
M  V30 8931 H 819.377 0.996876 1.20383 0
M  V30 8932 H 820.112 -0.57538 3.19155 0
M  V30 8933 H 819.897 1.1048 3.76213 0
M  V30 8934 H 821.387 0.203014 4.17106 0
M  V30 8935 N 821.824 -1.22873 0.986916 0
M  V30 8936 C 822.754 -2.2688 0.552064 0
M  V30 8937 C 823.735 -1.64883 -0.418048 0
M  V30 8938 O 824.92 -1.9171 -0.30999 0
M  V30 8939 C 822.05 -3.47018 -0.139959 0
M  V30 8940 C 821.004 -4.21411 0.748091 0
M  V30 8941 C 820.33 -5.34645 -0.0765132 0
M  V30 8942 C 821.63 -4.80726 2.04206 0
M  V30 8943 H 823.324 -2.63507 1.42143 0
M  V30 8944 H 820.87 -1.26668 0.68492 0
M  V30 8945 H 822.823 -4.18931 -0.455527 0
M  V30 8946 H 821.547 -3.0947 -1.04382 0
M  V30 8947 H 820.206 -3.51325 1.04721 0
M  V30 8948 H 819.854 -4.93339 -0.981109 0
M  V30 8949 H 819.554 -5.85342 0.514606 0
M  V30 8950 H 821.078 -6.09377 -0.386313 0
M  V30 8951 H 822.492 -5.44612 1.79083 0
M  V30 8952 H 820.889 -5.41737 2.5815 0
M  V30 8953 H 821.959 -4.01109 2.72469 0
M  V30 8954 N 823.302 -0.75937 -1.38099 0
M  V30 8955 C 824.55 -0.317485 -1.99591 0
M  V30 8956 C 824.871 1.10628 -1.60581 0
M  V30 8957 O 824.141 1.7575 -0.865378 0
M  V30 8958 H 822.721 -0.114397 -0.738189 0
M  V30 8959 H 825.383 -0.974749 -1.68774 0
M  V30 8960 H 824.479 -0.385227 -3.09713 0
M  V30 8961 N 824.78 1.49157 -0.508906 0
M  V30 8962 C 826.026 2.03385 0.0248089 0
M  V30 8963 C 826.381 1.381 1.33964 0
M  V30 8964 O 825.674 0.510317 1.84679 0
M  V30 8965 C 825.868 3.56687 0.225717 0
M  V30 8966 C 825.697 4.36832 -1.06809 0
M  V30 8967 C 824.467 4.78556 -1.6221 0
M  V30 8968 C 826.665 4.74934 -1.97338 0
M  V30 8969 N 824.647 5.43158 -2.86098 0
M  V30 8970 C 826.018 5.39336 -3.05805 0
M  V30 8971 C 828.073 4.56872 -1.97921 0
M  V30 8972 C 826.776 5.87587 -4.1489 0
M  V30 8973 C 828.802 5.06089 -3.05987 0
M  V30 8974 C 828.164 5.70499 -4.13172 0
M  V30 8975 H 824.263 0.781349 -0.0318988 0
M  V30 8976 H 826.847 1.82233 -0.685518 0
M  V30 8977 H 825.018 3.77707 0.905108 0
M  V30 8978 H 826.75 3.97554 0.757147 0
M  V30 8979 H 823.505 4.59017 -1.16621 0
M  V30 8980 H 823.929 5.8004 -3.49116 0
M  V30 8981 H 828.571 4.06474 -1.16357 0
M  V30 8982 H 826.289 6.37002 -4.97247 0
M  V30 8983 H 829.875 4.93919 -3.07466 0
M  V30 8984 H 828.755 6.07893 -4.95415 0
M  V30 8985 N 826.258 0.243083 1.55714 0
M  V30 8986 C 827.221 -0.644723 2.19945 0
M  V30 8987 C 828.221 -1.10562 1.16759 0
M  V30 8988 O 829.411 -1.01095 1.41865 0
M  V30 8989 C 826.543 -1.88569 2.83997 0
M  V30 8990 H 827.736 -0.0843839 2.99781 0
M  V30 8991 H 825.289 -0.00647246 1.56299 0
M  V30 8992 H 826.024 -2.48736 2.08089 0
M  V30 8993 H 825.809 -1.56345 3.59581 0
M  V30 8994 H 827.299 -2.51774 3.33166 0
M  V30 8995 N 827.736 -1.57571 -0.0300757 0
M  V30 8996 C 828.684 -2.0758 -1.04944 0
M  V30 8997 C 829.678 -0.989384 -1.37505 0
M  V30 8998 O 830.884 -1.17427 -1.36422 0
M  V30 8999 H 827.259 -0.662419 -0.355956 0
M  V30 9000 H 829.23 -2.92268 -0.601848 0
M  V30 9001 C 827.979 -2.5698 -2.34215 0
M  V30 9002 H 827.302 -3.40193 -2.10021 0
M  V30 9003 H 828.742 -2.95682 -3.03888 0
M  V30 9004 C 827.201 -1.47059 -3.03109 0
M  V30 9005 O 827.731 -0.83625 -3.92899 0
M  V30 9006 N 825.937 -1.20538 -2.64422 0
M  V30 9007 H 825.484 -1.72305 -1.9149 0
M  V30 9008 H 825.442 -0.472045 -3.10836 0
M  V30 9009 N 829.214 0.302327 -1.54673 0
M  V30 9010 C 830.147 1.39738 -1.80412 0
M  V30 9011 C 831.125 1.48813 -0.655241 0
M  V30 9012 O 832.309 1.65895 -0.89505 0
M  V30 9013 C 829.436 2.7766 -1.93966 0
M  V30 9014 C 828.482 2.86014 -3.16383 0
M  V30 9015 S 829.315 2.48246 -4.74483 0
M  V30 9016 C 830.471 3.88198 -4.90971 0
M  V30 9017 H 830.704 1.17696 -2.73011 0
M  V30 9018 H 828.237 0.500364 -1.46068 0
M  V30 9019 H 830.195 3.571 -2.0246 0
M  V30 9020 H 828.856 2.96971 -1.02307 0
M  V30 9021 H 828.049 3.87174 -3.22664 0
M  V30 9022 H 827.651 2.14568 -3.06328 0
M  V30 9023 H 829.943 4.83181 -4.74913 0
M  V30 9024 H 830.886 3.86887 -5.93063 0
M  V30 9025 H 831.294 3.78139 -4.19131 0
M  V30 9026 N 830.692 1.47107 0.565454 0
M  V30 9027 C 831.622 1.61846 1.68309 0
M  V30 9028 C 832.603 0.468159 1.63531 0
M  V30 9029 O 833.788 0.696504 1.8128 0
M  V30 9030 C 830.918 1.62474 3.06952 0
M  V30 9031 C 829.872 2.76649 3.26572 0
M  V30 9032 C 829.198 2.62345 4.65917 0
M  V30 9033 C 830.498 4.18319 3.12741 0
M  V30 9034 H 832.192 2.55407 1.5623 0
M  V30 9035 H 829.738 1.22916 0.750179 0
M  V30 9036 H 831.691 1.71378 3.84977 0
M  V30 9037 H 830.415 0.654692 3.19971 0
M  V30 9038 H 829.074 2.67242 2.50952 0
M  V30 9039 H 828.722 1.63386 4.75725 0
M  V30 9040 H 828.422 3.38936 4.79996 0
M  V30 9041 H 829.946 2.73165 5.46089 0
M  V30 9042 H 831.36 4.28745 3.80593 0
M  V30 9043 H 829.757 4.95632 3.38333 0
M  V30 9044 H 830.827 4.37263 2.09592 0
M  V30 9045 N 832.17 -0.811516 1.35101 0
M  V30 9046 C 833.4 -1.59749 1.31011 0
M  V30 9047 C 833.808 -1.88847 -0.115566 0
M  V30 9048 O 833.151 -1.48854 -1.07649 0
M  V30 9049 C 833.213 -2.95714 2.04435 0
M  V30 9050 C 832.877 -2.89456 3.53645 0
M  V30 9051 C 833.874 -2.63237 4.48333 0
M  V30 9052 C 831.559 -3.08728 3.96222 0
M  V30 9053 C 833.553 -2.56361 5.83573 0
M  V30 9054 C 831.24 -3.01475 5.3156 0
M  V30 9055 C 832.238 -2.75326 6.25048 0
M  V30 9056 O 831.926 -2.68026 7.57903 0
M  V30 9057 H 831.658 -0.502889 0.45175 0
M  V30 9058 H 834.212 -1.01687 1.78462 0
M  V30 9059 H 832.442 -3.55739 1.51613 0
M  V30 9060 H 834.131 -3.56816 1.93487 0
M  V30 9061 H 834.897 -2.48072 4.16756 0
M  V30 9062 H 830.776 -3.28094 3.23845 0
M  V30 9063 H 834.32 -2.35871 6.56514 0
M  V30 9064 H 830.217 -3.16197 5.62752 0
M  V30 9065 H 830.985 -2.8367 7.67772 0
M  V30 9066 N 833.648 -1.19017 -1.03309 0
M  V30 9067 C 834.878 -1.01387 -1.80012 0
M  V30 9068 C 835.286 0.440655 -1.83997 0
M  V30 9069 O 834.629 1.31786 -1.27977 0
M  V30 9070 C 834.691 -1.50171 -3.26633 0
M  V30 9071 C 834.355 -2.98213 -3.46292 0
M  V30 9072 C 835.352 -3.96009 -3.36857 0
M  V30 9073 C 833.037 -3.36812 -3.72643 0
M  V30 9074 C 835.031 -5.30399 -3.5349 0
M  V30 9075 C 832.718 -4.71363 -3.88922 0
M  V30 9076 C 833.716 -5.67966 -3.79347 0
M  V30 9077 O 833.404 -7.00079 -3.95151 0
M  V30 9078 H 833.136 -0.357899 -0.573484 0
M  V30 9079 H 835.69 -1.58171 -1.31039 0
M  V30 9080 H 833.92 -0.877586 -3.7661 0
M  V30 9081 H 835.609 -1.28814 -3.84918 0
M  V30 9082 H 836.375 -3.67534 -3.16455 0
M  V30 9083 H 832.254 -2.62175 -3.7919 0
M  V30 9084 H 835.798 -6.05786 -3.45933 0
M  V30 9085 H 831.695 -4.99536 -4.0882 0
M  V30 9086 H 832.463 -7.07092 -4.12266 0
M  V30 9087 N 835.127 1.22348 -0.993418 0
M  V30 9088 C 836.355 1.95125 -0.688021 0
M  V30 9089 C 836.77 1.73377 0.747388 0
M  V30 9090 O 836.127 1.03317 1.50439 0
M  V30 9091 C 836.178 3.47819 -0.985097 0
M  V30 9092 O 835.899 3.68838 -2.3641 0
M  V30 9093 C 837.4 4.37779 -0.697474 0
M  V30 9094 H 834.62 0.62087 -0.254481 0
M  V30 9095 H 837.164 1.55485 -1.32833 0
M  V30 9096 H 835.319 3.85426 -0.390583 0
M  V30 9097 H 835.733 4.63032 -2.46377 0
M  V30 9098 H 837.207 5.43666 -0.955604 0
M  V30 9099 H 837.684 4.37651 0.368524 0
M  V30 9100 H 838.29 4.05799 -1.27306 0
M  V30 9101 N 836.605 0.766683 1.37694 0
M  V30 9102 C 838.021 0.445739 1.53249 0
M  V30 9103 C 838.221 -1.03935 1.72626 0
M  V30 9104 O 837.277 -1.82525 1.74473 0
M  V30 9105 C 838.59 1.2564 2.73194 0
M  V30 9106 C 840.138 1.24779 2.87053 0
M  V30 9107 C 840.613 2.04169 4.09974 0
M  V30 9108 N 842.104 2.01497 4.17077 0
M  V30 9109 C 842.839 2.5971 5.11212 0
M  V30 9110 N 842.335 3.26691 6.10938 0
M  V30 9111 N 844.128 2.49568 5.03659 0
M  V30 9112 H 836.279 1.72899 1.23368 0
M  V30 9113 H 838.542 0.733701 0.600322 0
M  V30 9114 H 838.248 2.30859 2.65324 0
M  V30 9115 H 838.122 0.882133 3.6674 0
M  V30 9116 H 840.509 0.203603 2.94397 0
M  V30 9117 H 840.59 1.66166 1.9448 0
M  V30 9118 H 840.234 3.08606 4.03392 0
M  V30 9119 H 840.164 1.60167 5.01651 0
M  V30 9120 H 842.655 1.52728 3.45662 0
M  V30 9121 H 842.968 3.68497 6.79286 0
M  V30 9122 H 841.313 3.30789 6.11231 0
M  V30 9123 H 844.504 1.96859 4.24693 0
M  V30 9124 H 844.677 2.95231 5.76839 0
M  V30 9125 N 838.083 -1.48885 0.516809 0
M  V30 9126 C 839.331 -2.02088 -0.0220166 0
M  V30 9127 C 839.652 -1.39735 -1.36011 0
M  V30 9128 O 838.922 -0.558119 -1.87781 0
M  V30 9129 H 837.502 -0.746917 -0.0111255 0
M  V30 9130 H 840.164 -1.8274 0.677647 0
M  V30 9131 H 839.26 -3.11786 -0.140067 0
M  V30 9132 N 839.561 -0.251338 -1.55583 0
M  V30 9133 C 840.808 0.372169 -1.99051 0
M  V30 9134 C 841.136 1.57623 -1.13953 0
M  V30 9135 O 840.391 1.94762 -0.191398 0
M  V30 9136 C 840.69 0.821186 -3.47838 0
M  V30 9137 C 840.356 -0.275608 -4.50057 0
M  V30 9138 C 839.018 -0.57683 -4.7773 0
M  V30 9139 C 841.37 -1.01585 -5.11204 0
M  V30 9140 C 838.698 -1.62229 -5.63825 0
M  V30 9141 C 841.05 -2.05087 -5.98433 0
M  V30 9142 C 839.714 -2.35869 -6.24437 0
M  V30 9143 H 838.984 0.136186 -0.728378 0
M  V30 9144 H 841.631 -0.360089 -1.88084 0
M  V30 9145 H 839.936 1.63272 -3.56159 0
M  V30 9146 H 841.633 1.31396 -3.78861 0
M  V30 9147 H 838.223 -0.030697 -4.28589 0
M  V30 9148 H 842.407 -0.79639 -4.89869 0
M  V30 9149 H 837.663 -1.86607 -5.82226 0
M  V30 9150 H 841.837 -2.62934 -6.44855 0
M  V30 9151 H 839.464 -3.17017 -6.90944 0
M  V30 9152 N 841.039 1.57585 0.0217189 0
M  V30 9153 C 841.971 2.03849 1.04777 0
M  V30 9154 C 842.984 0.952558 1.32023 0
M  V30 9155 O 844.173 1.22974 1.29381 0
M  V30 9156 C 841.273 2.40504 2.3877 0
M  V30 9157 C 840.446 3.71566 2.30775 0
M  V30 9158 C 839.505 3.95329 3.47277 0
M  V30 9159 O 838.531 4.66289 3.26441 0
M  V30 9160 N 839.733 3.41536 4.69397 0
M  V30 9161 H 842.498 2.92491 0.653395 0
M  V30 9162 H 840.059 1.60538 0.209527 0
M  V30 9163 H 842.051 2.53532 3.15442 0
M  V30 9164 H 840.621 1.57494 2.70027 0
M  V30 9165 H 839.841 3.68822 1.39155 0
M  V30 9166 H 841.129 4.5753 2.22584 0
M  V30 9167 H 840.527 2.84033 4.89226 0
M  V30 9168 H 839.084 3.59932 5.43408 0
M  V30 9169 N 842.517 -0.29412 1.54831 0
M  V30 9170 C 843.742 -1.05156 1.78765 0
M  V30 9171 C 844.167 -1.79916 0.548809 0
M  V30 9172 O 843.525 -1.74243 -0.500909 0
M  V30 9173 C 843.573 -2.00242 2.99893 0
M  V30 9174 O 842.677 -3.08662 2.73499 0
M  V30 9175 H 842.018 -0.301737 0.591482 0
M  V30 9176 H 844.548 -0.329449 2.0193 0
M  V30 9177 H 844.558 -2.42583 3.28051 0
M  V30 9178 H 843.233 -1.45235 3.89717 0
M  V30 9179 H 841.81 -2.70786 2.56377 0
M  V30 9180 N 843.995 -1.47404 -0.557645 0
M  V30 9181 C 844.928 -1.54399 -1.68036 0
M  V30 9182 C 845.906 -0.396175 -1.577 0
M  V30 9183 O 847.09 -0.603911 -1.78564 0
M  V30 9184 C 844.217 -1.44611 -3.06277 0
M  V30 9185 C 843.263 -2.63889 -3.35059 0
M  V30 9186 S 844.096 -4.26086 -3.24362 0
M  V30 9187 C 845.252 -4.1885 -4.65097 0
M  V30 9188 H 845.485 -2.49384 -1.61849 0
M  V30 9189 H 843.018 -1.35597 -0.738429 0
M  V30 9190 H 844.976 -1.39651 -3.86015 0
M  V30 9191 H 843.637 -0.510114 -3.0993 0
M  V30 9192 H 842.83 -2.53103 -4.35838 0
M  V30 9193 H 842.432 -2.65969 -2.62938 0
M  V30 9194 H 844.724 -3.87077 -5.56037 0
M  V30 9195 H 845.667 -5.19714 -4.8094 0
M  V30 9196 H 846.075 -3.49717 -4.43123 0
M  V30 9197 N 845.473 0.80434 -1.35529 0
M  V30 9198 C 846.721 1.55845 -1.28673 0
M  V30 9199 C 847.042 1.94511 0.137976 0
M  V30 9200 O 846.312 1.63775 1.07492 0
M  V30 9201 H 844.892 0.577931 -0.473291 0
M  V30 9202 H 847.554 0.959293 -1.69657 0
M  V30 9203 H 846.65 2.47285 -1.90411 0
M  V30 9204 N 846.951 1.19563 1.02676 0
M  V30 9205 C 847.884 0.878638 2.10607 0
M  V30 9206 C 848.862 -0.165176 1.61759 0
M  V30 9207 O 850.046 -0.041014 1.88455 0
M  V30 9208 C 847.173 0.315347 3.37229 0
M  V30 9209 C 846.219 1.33855 4.04951 0
M  V30 9210 S 847.052 2.89982 4.50189 0
M  V30 9211 C 848.208 2.35202 5.80027 0
M  V30 9212 H 848.441 1.79268 2.37171 0
M  V30 9213 H 845.974 1.023 1.15646 0
M  V30 9214 H 847.932 -0.00311911 4.105 0
M  V30 9215 H 846.593 -0.577035 3.08754 0
M  V30 9216 H 845.786 0.893581 4.96015 0
M  V30 9217 H 845.388 1.60397 3.37859 0
M  V30 9218 H 847.68 1.74329 6.54687 0
M  V30 9219 H 848.623 3.24622 6.29306 0
M  V30 9220 H 849.031 1.77702 5.35801 0
M  V30 9221 N 848.429 -1.21819 0.999893 0
M  V30 9222 C 849.659 -1.94475 0.697346 0
M  V30 9223 C 850.067 -1.73991 -0.743228 0
M  V30 9224 O 849.41 -1.04042 -1.51397 0
M  V30 9225 C 849.472 -3.47204 0.932181 0
M  V30 9226 C 849.136 -3.91432 2.3586 0
M  V30 9227 C 850.133 -3.98545 3.33853 0
M  V30 9228 C 847.818 -4.23888 2.69489 0
M  V30 9229 C 849.812 -4.37499 4.63545 0
M  V30 9230 C 847.499 -4.62519 3.99399 0
M  V30 9231 C 848.497 -4.69294 4.96238 0
M  V30 9232 O 848.185 -5.07048 6.23825 0
M  V30 9233 H 847.917 -0.625419 0.256567 0
M  V30 9234 H 850.471 -1.55728 1.33933 0
M  V30 9235 H 848.701 -3.85997 0.233025 0
M  V30 9236 H 850.39 -4.01078 0.623807 0
M  V30 9237 H 851.156 -3.73654 3.09205 0
M  V30 9238 H 847.035 -4.17815 1.94812 0
M  V30 9239 H 850.579 -4.42702 5.3913 0
M  V30 9240 H 846.476 -4.86864 4.23833 0
M  V30 9241 H 847.244 -5.25098 6.27865 0
M  V30 9242 N 849.908 -0.773975 -1.37286 0
M  V30 9243 C 851.133 -0.349561 -2.04433 0
M  V30 9244 C 851.558 1.02082 -1.5799 0
M  V30 9245 O 850.916 1.65458 -0.741172 0
M  V30 9246 C 850.964 -0.404292 -3.58326 0
M  V30 9247 O 850.068 0.594447 -4.08093 0
M  V30 9248 H 849.409 -0.150959 -0.646612 0
M  V30 9249 H 851.939 -1.05079 -1.75555 0
M  V30 9250 H 851.949 -0.262378 -4.07155 0
M  V30 9251 H 850.624 -1.40403 -3.91484 0
M  V30 9252 H 849.201 0.415468 -3.70578 0
M  V30 9253 N 851.386 1.48609 -0.524698 0
M  V30 9254 C 852.632 2.02797 0.0113382 0
M  V30 9255 C 852.965 1.40147 1.34433 0
M  V30 9256 O 852.24 0.545368 1.86698 0
M  V30 9257 C 852.523 3.59832 0.138931 0
M  V30 9258 C 852.376 4.32971 -1.21886 0
M  V30 9259 C 853.695 4.3145 0.868265 0
M  V30 9260 H 850.814 0.736995 0.00264645 0
M  V30 9261 H 853.456 1.77388 -0.680704 0
M  V30 9262 H 851.606 3.81612 0.72834 0
M  V30 9263 H 853.278 4.22624 -1.84897 0
M  V30 9264 H 851.521 3.94597 -1.80211 0
M  V30 9265 H 852.192 5.41279 -1.08263 0
M  V30 9266 H 854.668 4.14468 0.368145 0
M  V30 9267 H 853.544 5.41025 0.926428 0
M  V30 9268 H 853.805 3.98358 1.91737 0
M  V30 9269 N 852.864 0.259585 1.55447 0
M  V30 9270 C 853.797 -0.675542 2.17972 0
M  V30 9271 C 854.775 -1.16362 1.13572 0
M  V30 9272 O 855.959 -1.23944 1.42021 0
M  V30 9273 C 853.086 -1.91952 2.79056 0
M  V30 9274 C 852.132 -1.56824 3.96621 0
M  V30 9275 S 852.965 -0.659846 5.31419 0
M  V30 9276 C 854.121 -1.91255 5.95963 0
M  V30 9277 H 854.354 -0.144236 2.9695 0
M  V30 9278 H 851.887 0.0439448 1.54337 0
M  V30 9279 H 853.845 -2.63362 3.14882 0
M  V30 9280 H 852.506 -2.42196 2 0
M  V30 9281 H 851.699 -2.49348 4.37997 0
M  V30 9282 H 851.301 -0.934472 3.62138 0
M  V30 9283 H 853.593 -2.85834 6.14252 0
M  V30 9284 H 854.536 -1.54207 6.91105 0
M  V30 9285 H 854.944 -2.07042 5.25161 0
M  V30 9286 N 854.342 -1.57594 -0.0133615 0
M  V30 9287 C 855.591 -1.8916 -0.700103 0
M  V30 9288 C 855.904 -0.860147 -1.75673 0
M  V30 9289 O 857.11 -1.06556 -2.49716 0
M  V30 9290 C 855.566 -3.35742 -1.29635 0
M  V30 9291 C 855.174 -4.47154 -0.275249 0
M  V30 9292 C 856.918 -3.76436 -1.96205 0
M  V30 9293 C 854.825 -5.84805 -0.880726 0
M  V30 9294 H 853.755 -0.705805 -0.265247 0
M  V30 9295 H 856.406 -1.83445 0.044993 0
M  V30 9296 H 854.788 -3.36252 -2.09167 0
M  V30 9297 H 855.962 -4.58139 0.494506 0
M  V30 9298 H 854.277 -4.15394 0.289256 0
M  V30 9299 H 856.874 -4.76606 -2.42386 0
M  V30 9300 H 857.217 -3.09249 -2.78695 0
M  V30 9301 H 857.75 -3.78168 -1.23426 0
M  V30 9302 H 854.489 -6.55431 -0.0949013 0
M  V30 9303 H 854.009 -5.7751 -1.61995 0
M  V30 9304 H 855.688 -6.32038 -1.38338 0
M  V30 9305 N 855.82 0.285905 -1.54985 0
M  V30 9306 C 856.752 1.37505 -1.83371 0
M  V30 9307 C 857.765 1.46138 -0.717454 0
M  V30 9308 O 858.954 1.48186 -0.995142 0
M  V30 9309 C 856.054 2.7575 -1.97016 0
M  V30 9310 C 855.227 2.89866 -3.27561 0
M  V30 9311 C 854.286 4.08704 -3.31433 0
M  V30 9312 O 853.312 4.00073 -4.04883 0
M  V30 9313 N 854.514 5.20062 -2.57907 0
M  V30 9314 H 857.279 1.13505 -2.77375 0
M  V30 9315 H 854.84 0.476006 -1.54744 0
M  V30 9316 H 856.832 3.5352 -1.96991 0
M  V30 9317 H 855.402 2.9263 -1.09938 0
M  V30 9318 H 854.622 1.99085 -3.40234 0
M  V30 9319 H 855.91 2.96219 -4.13681 0
M  V30 9320 H 855.308 5.29958 -1.97891 0
M  V30 9321 H 853.865 5.96111 -2.63619 0
M  V30 9322 N 857.298 1.47698 0.54982 0
M  V30 9323 C 858.245 1.60739 1.65625 0
M  V30 9324 C 859.215 0.450129 1.59884 0
M  V30 9325 O 860.4 0.671123 1.78607 0
M  V30 9326 C 857.54 1.63457 3.03934 0
M  V30 9327 C 856.653 2.90152 3.20056 0
M  V30 9328 C 855.788 2.84157 4.48807 0
M  V30 9329 C 854.827 4.05644 4.58387 0
M  V30 9330 N 853.964 3.97843 5.78503 0
M  V30 9331 H 858.804 2.55234 1.53817 0
M  V30 9332 H 856.341 1.26593 0.749173 0
M  V30 9333 H 858.299 1.63015 3.84034 0
M  V30 9334 H 856.929 0.724689 3.1456 0
M  V30 9335 H 855.981 3.00428 2.33339 0
M  V30 9336 H 857.293 3.80097 3.22998 0
M  V30 9337 H 856.447 2.82006 5.37175 0
M  V30 9338 H 855.186 1.91908 4.48356 0
M  V30 9339 H 854.191 4.08092 3.6843 0
M  V30 9340 H 855.416 4.9903 4.60593 0
M  V30 9341 H 853.362 3.08401 5.78986 0
M  V30 9342 H 853.279 4.81473 5.82855 0
M  V30 9343 H 854.547 3.99719 6.69212 0
M  V30 9344 N 858.776 -0.797141 1.35954 0
M  V30 9345 C 860.022 -1.55698 1.29946 0
M  V30 9346 C 860.355 -1.93808 -0.123259 0
M  V30 9347 O 859.63 -1.62102 -1.07486 0
M  V30 9348 C 859.913 -2.83926 2.2149 0
M  V30 9349 C 859.766 -2.52232 3.72423 0
M  V30 9350 C 861.085 -3.85698 2.11955 0
M  V30 9351 H 858.204 -0.56488 0.47337 0
M  V30 9352 H 860.846 -0.916421 1.66438 0
M  V30 9353 H 858.996 -3.38588 1.905 0
M  V30 9354 H 860.668 -2.0368 4.13899 0
M  V30 9355 H 858.911 -1.85286 3.92239 0
M  V30 9356 H 859.582 -3.43782 4.31877 0
M  V30 9357 H 862.058 -3.40462 2.39218 0
M  V30 9358 H 860.934 -4.73182 2.78191 0
M  V30 9359 H 861.195 -4.28083 1.10442 0
M  V30 9360 N 860.254 -1.20106 -1.0204 0
M  V30 9361 C 861.503 -1.00316 -1.74985 0
M  V30 9362 C 861.816 0.465814 -1.89972 0
M  V30 9363 O 863.022 0.782749 -2.59972 0
M  V30 9364 C 861.478 -1.74608 -3.14706 0
M  V30 9365 C 861.086 -3.25573 -3.07744 0
M  V30 9366 C 862.83 -1.63172 -3.91887 0
M  V30 9367 C 860.737 -3.92419 -4.42449 0
M  V30 9368 H 859.667 -0.371728 -0.655999 0
M  V30 9369 H 862.318 -1.43688 -1.14131 0
M  V30 9370 H 860.7 -1.24021 -3.76078 0
M  V30 9371 H 861.874 -3.83345 -2.55702 0
M  V30 9372 H 860.189 -3.3738 -2.44057 0
M  V30 9373 H 862.786 -2.10457 -4.9154 0
M  V30 9374 H 863.129 -0.58728 -4.12137 0
M  V30 9375 H 863.662 -2.11152 -3.37135 0
M  V30 9376 H 860.401 -4.96998 -4.27403 0
M  V30 9377 H 859.921 -3.39436 -4.94513 0
M  V30 9378 H 861.6 -3.96453 -5.11306 0
M  V30 9379 N 861.732 1.21287 -1.00634 0
M  V30 9380 C 862.662 2.25973 -0.588089 0
M  V30 9381 C 863.643 1.65527 0.391764 0
M  V30 9382 O 864.828 1.92179 0.279452 0
M  V30 9383 C 861.958 3.47197 0.0847336 0
M  V30 9384 C 860.912 4.20168 -0.815039 0
M  V30 9385 C 860.238 5.34699 -0.00855393 0
M  V30 9386 C 861.538 4.77416 -2.11828 0
M  V30 9387 H 863.232 2.61212 -1.46317 0
M  V30 9388 H 860.778 1.25563 -0.704985 0
M  V30 9389 H 862.731 4.19602 0.388821 0
M  V30 9390 H 861.455 3.11092 0.994456 0
M  V30 9391 H 860.114 3.49614 -1.10297 0
M  V30 9392 H 859.762 4.94837 0.902499 0
M  V30 9393 H 859.462 5.84449 -0.607664 0
M  V30 9394 H 860.986 6.09914 0.289317 0
M  V30 9395 H 862.4 5.41694 -1.87725 0
M  V30 9396 H 860.797 5.37561 -2.66736 0
M  V30 9397 H 861.867 3.96724 -2.78816 0
M  V30 9398 N 863.21 0.781244 1.36873 0
M  V30 9399 C 864.16 0.147313 2.27524 0
M  V30 9400 C 865.144 -0.663928 1.46563 0
M  V30 9401 O 866.336 -0.525343 1.69024 0
M  V30 9402 C 863.465 -0.723511 3.35589 0
M  V30 9403 C 862.551 0.0960763 4.23991 0
M  V30 9404 N 862.942 1.14649 4.92635 0
M  V30 9405 C 861.24 -0.126397 4.45821 0
M  V30 9406 C 861.941 1.64474 5.57964 0
M  V30 9407 N 860.917 0.955316 5.3514 0
M  V30 9408 H 864.719 0.951406 2.78075 0
M  V30 9409 H 862.233 0.619913 1.50103 0
M  V30 9410 H 864.23 -1.19351 3.99451 0
M  V30 9411 H 862.89 -1.52624 2.86594 0
M  V30 9412 H 863.901 1.5288 4.94821 0
M  V30 9413 H 860.578 -0.900284 4.07678 0
M  V30 9414 H 861.968 2.52124 6.22803 0
M  V30 9415 N 864.689 -1.48329 0.532571 0
M  V30 9416 C 865.966 -1.95492 -0.0650985 0
M  V30 9417 C 866.346 -1.47485 -1.51034 0
M  V30 9418 O 865.694 -0.702516 -2.17433 0
M  V30 9419 C 865.904 -3.48957 0.0548341 0
M  V30 9420 C 867.252 -4.24475 -0.103115 0
M  V30 9421 O 868.276 -3.56195 -0.0188343 0
M  V30 9422 O 867.135 -5.45781 -0.280164 0
M  V30 9423 H 864.229 -0.823327 -0.0778603 0
M  V30 9424 H 866.775 -1.58839 0.597353 0
M  V30 9425 H 865.547 -3.76628 1.06148 0
M  V30 9426 H 865.17 -3.92311 -0.64635 0
M  V30 9427 N 866.167 -0.267825 -1.55308 0
M  V30 9428 C 867.413 0.351556 -1.9973 0
M  V30 9429 C 867.746 1.56049 -1.15596 0
M  V30 9430 O 867.021 1.93203 -0.224274 0
M  V30 9431 C 867.304 0.74091 -3.52395 0
M  V30 9432 C 867.157 -0.474861 -4.47286 0
M  V30 9433 C 868.476 1.5801 -4.10756 0
M  V30 9434 H 865.595 0.126308 -0.726096 0
M  V30 9435 H 868.237 -0.373316 -1.86296 0
M  V30 9436 H 866.387 1.35851 -3.63973 0
M  V30 9437 H 868.059 -1.1134 -4.47662 0
M  V30 9438 H 866.302 -1.11425 -4.19246 0
M  V30 9439 H 866.973 -0.158782 -5.51772 0
M  V30 9440 H 869.449 1.05857 -4.0241 0
M  V30 9441 H 868.325 1.82135 -5.17801 0
M  V30 9442 H 868.586 2.55878 -3.60526 0
M  V30 9443 N 867.645 1.57599 0.00500368 0
M  V30 9444 C 868.575 2.11143 0.99705 0
M  V30 9445 C 869.556 1.0194 1.3617 0
M  V30 9446 O 870.741 1.29596 1.44632 0
M  V30 9447 C 867.871 2.61062 2.2905 0
M  V30 9448 C 866.825 3.74745 2.0676 0
M  V30 9449 C 866.151 4.10961 3.42075 0
M  V30 9450 C 867.451 5.02222 1.43424 0
M  V30 9451 H 869.145 2.94281 0.551251 0
M  V30 9452 H 866.691 1.41565 0.263715 0
M  V30 9453 H 868.644 2.97146 2.98801 0
M  V30 9454 H 867.368 1.75038 2.75734 0
M  V30 9455 H 866.027 3.39047 1.39436 0
M  V30 9456 H 865.675 3.21968 3.86453 0
M  V30 9457 H 865.375 4.87549 3.27979 0
M  V30 9458 H 866.899 4.49599 4.1315 0
M  V30 9459 H 868.313 5.36109 2.03125 0
M  V30 9460 H 866.71 5.83581 1.39831 0
M  V30 9461 H 867.78 4.83224 0.40285 0
M  V30 9462 N 869.123 -0.277682 1.55134 0
M  V30 9463 C 870.07 -1.34313 1.87693 0
M  V30 9464 C 871.04 -1.49298 0.727973 0
M  V30 9465 O 872.225 -1.6378 0.978807 0
M  V30 9466 C 869.365 -2.69922 2.15026 0
M  V30 9467 C 868.478 -2.63197 3.42565 0
M  V30 9468 C 867.613 -3.90955 3.59622 0
M  V30 9469 C 866.652 -3.78722 4.8087 0
M  V30 9470 N 865.789 -4.98303 4.94609 0
M  V30 9471 H 870.629 -1.05847 2.78569 0
M  V30 9472 H 868.166 -0.511469 1.37922 0
M  V30 9473 H 870.124 -3.48817 2.28872 0
M  V30 9474 H 868.754 -2.966 1.2739 0
M  V30 9475 H 867.806 -1.76038 3.37216 0
M  V30 9476 H 869.118 -2.50056 4.31594 0
M  V30 9477 H 868.272 -4.78291 3.7326 0
M  V30 9478 H 867.011 -4.06957 2.6877 0
M  V30 9479 H 866.016 -2.89769 4.67241 0
M  V30 9480 H 867.241 -3.64242 5.73153 0
M  V30 9481 H 865.187 -5.14725 4.06687 0
M  V30 9482 H 865.104 -4.87675 5.77676 0
M  V30 9483 H 866.372 -5.87225 5.12628 0
M  V30 9484 N 870.601 -1.47988 -0.541979 0
M  V30 9485 C 871.848 -1.55393 -1.29843 0
M  V30 9486 C 872.176 -0.222668 -1.93221 0
M  V30 9487 O 871.431 0.785936 -1.79225 0
M  V30 9488 C 871.73 -2.63189 -2.41798 0
M  V30 9489 C 871.396 -4.05999 -1.96151 0
M  V30 9490 C 870.058 -4.44872 -1.83419 0
M  V30 9491 C 872.41 -4.95545 -1.61507 0
M  V30 9492 C 869.738 -5.71108 -1.34361 0
M  V30 9493 C 872.09 -6.22259 -1.13915 0
M  V30 9494 C 870.754 -6.59998 -0.997911 0
M  V30 9495 H 870.024 -0.568623 -0.47513 0
M  V30 9496 H 872.671 -1.81654 -0.606142 0
M  V30 9497 H 870.976 -2.30743 -3.16647 0
M  V30 9498 H 872.673 -2.66138 -2.99953 0
M  V30 9499 H 869.263 -3.75294 -2.07008 0
M  V30 9500 H 873.447 -4.662 -1.70209 0
M  V30 9501 H 868.703 -5.99083 -1.22103 0
M  V30 9502 H 872.877 -6.91048 -0.861755 0
M  V30 9503 H 870.504 -7.57704 -0.615561 0
M  V30 9504 N 872.079 0.78992 -1.36375 0
M  V30 9505 C 873.009 1.91683 -1.33341 0
M  V30 9506 C 873.99 1.68861 -0.204965 0
M  V30 9507 O 875.175 1.89982 -0.402531 0
M  V30 9508 C 872.305 3.28696 -1.12143 0
M  V30 9509 C 871.259 3.66041 -2.21806 0
M  V30 9510 C 870.585 5.01399 -1.85751 0
M  V30 9511 C 871.885 3.74677 -3.63888 0
M  V30 9512 H 873.579 1.94478 -2.27637 0
M  V30 9513 H 871.125 0.934271 -1.09578 0
M  V30 9514 H 873.078 4.07151 -1.08656 0
M  V30 9515 H 871.802 3.26287 -0.142974 0
M  V30 9516 H 870.461 2.89883 -2.24418 0
M  V30 9517 H 870.109 4.9551 -0.864817 0
M  V30 9518 H 869.809 5.27355 -2.59173 0
M  V30 9519 H 871.333 5.82274 -1.83819 0
M  V30 9520 H 872.747 4.43324 -3.63506 0
M  V30 9521 H 871.144 4.12118 -4.3621 0
M  V30 9522 H 872.214 2.75795 -3.9883 0
M  V30 9523 N 873.557 1.20646 1.01402 0
M  V30 9524 C 874.804 1.01819 1.7504 0
M  V30 9525 C 875.132 -0.449386 1.89237 0
M  V30 9526 O 874.387 -1.34985 1.41695 0
M  V30 9527 C 874.686 1.64991 3.17037 0
M  V30 9528 C 874.352 3.14808 3.22811 0
M  V30 9529 C 873.014 3.55692 3.24094 0
M  V30 9530 C 875.366 4.108 3.2077 0
M  V30 9531 C 872.694 4.9109 3.2101 0
M  V30 9532 C 875.046 5.46147 3.19227 0
M  V30 9533 C 873.71 5.86441 3.18815 0
M  V30 9534 H 872.98 0.372582 0.640518 0
M  V30 9535 H 875.627 1.50108 1.18911 0
M  V30 9536 H 873.932 1.08971 3.76341 0
M  V30 9537 H 875.629 1.47937 3.72714 0
M  V30 9538 H 872.219 2.8224 3.2255 0
M  V30 9539 H 876.403 3.80246 3.18946 0
M  V30 9540 H 871.659 5.21569 3.19023 0
M  V30 9541 H 875.833 6.20272 3.166 0
M  V30 9542 H 873.46 6.91328 3.16179 0
M  V30 9543 N 875.035 -1.20752 1.01276 0
M  V30 9544 C 876.281 -1.90302 0.700924 0
M  V30 9545 C 876.614 -1.78406 -0.767142 0
M  V30 9546 O 875.889 -1.16575 -1.55694 0
M  V30 9547 C 876.172 -3.41831 1.13242 0
M  V30 9548 C 876.025 -3.6268 2.66051 0
M  V30 9549 C 877.344 -4.34486 0.700738 0
M  V30 9550 H 874.463 -0.69107 0.256107 0
M  V30 9551 H 877.105 -1.42227 1.25982 0
M  V30 9552 H 875.255 -3.82906 0.656902 0
M  V30 9553 H 876.927 -3.30882 3.21426 0
M  V30 9554 H 875.17 -3.06281 3.07204 0
M  V30 9555 H 875.841 -4.68882 2.91296 0
M  V30 9556 H 878.317 -4.01036 1.10948 0
M  V30 9557 H 877.193 -5.39136 1.03073 0
M  V30 9558 H 877.454 -4.40307 -0.39778 0
M  V30 9559 N 876.513 -0.788492 -1.36457 0
M  V30 9560 C 877.743 -0.371825 -2.03227 0
M  V30 9561 C 878.151 1.01627 -1.59589 0
M  V30 9562 O 877.494 1.663 -0.780382 0
M  V30 9563 C 877.556 -0.355179 -3.57741 0
M  V30 9564 C 877.22 -1.69069 -4.24576 0
M  V30 9565 C 878.217 -2.64601 -4.47529 0
M  V30 9566 C 875.902 -1.96973 -4.62068 0
M  V30 9567 C 877.896 -3.86232 -5.07054 0
M  V30 9568 C 875.583 -3.18872 -5.2131 0
M  V30 9569 C 876.581 -4.1332 -5.43742 0
M  V30 9570 O 876.269 -5.3307 -6.0174 0
M  V30 9571 H 876.001 -0.151452 -0.658816 0
M  V30 9572 H 878.555 -1.06827 -1.75434 0
M  V30 9573 H 876.785 0.397753 -3.84649 0
M  V30 9574 H 878.474 0.0366955 -4.05883 0
M  V30 9575 H 879.24 -2.44329 -4.18961 0
M  V30 9576 H 875.119 -1.24277 -4.43933 0
M  V30 9577 H 878.663 -4.59965 -5.24478 0
M  V30 9578 H 874.56 -3.39022 -5.49304 0
M  V30 9579 H 875.328 -5.34121 -6.20207 0
M  V30 9580 N 877.991 1.48044 -0.54043 0
M  V30 9581 C 879.24 2.01698 -0.00809961 0
M  V30 9582 C 879.553 1.42184 1.34325 0
M  V30 9583 O 880.759 1.87398 1.96454 0
M  V30 9584 C 879.215 3.59882 0.035933 0
M  V30 9585 C 878.823 4.28384 -1.31115 0
M  V30 9586 C 880.567 4.21346 0.51654 0
M  V30 9587 C 878.474 5.78529 -1.22714 0
M  V30 9588 H 877.404 0.754 0.000742174 0
M  V30 9589 H 880.055 1.70204 -0.685775 0
M  V30 9590 H 878.437 3.88264 0.778906 0
M  V30 9591 H 879.611 4.11663 -2.07051 0
M  V30 9592 H 877.926 3.78837 -1.72834 0
M  V30 9593 H 880.523 5.31351 0.597529 0
M  V30 9594 H 880.866 3.87373 1.52473 0
M  V30 9595 H 881.399 3.97432 -0.171064 0
M  V30 9596 H 878.138 6.17093 -2.21081 0
M  V30 9597 H 877.658 5.97634 -0.50931 0
M  V30 9598 H 879.337 6.40395 -0.92216 0
M  V30 9599 N 879.47 0.276058 1.55163 0
M  V30 9600 C 880.716 -0.340959 1.99913 0
M  V30 9601 C 881.049 -1.55434 1.16422 0
M  V30 9602 O 880.324 -1.93081 0.234517 0
M  V30 9603 C 880.607 -0.722211 3.52783 0
M  V30 9604 C 880.46 0.498575 4.47028 0
M  V30 9605 C 881.779 -1.5583 4.11589 0
M  V30 9606 H 878.898 -0.122455 0.726756 0
M  V30 9607 H 881.54 0.38319 1.86096 0
M  V30 9608 H 879.69 -1.33919 3.64689 0
M  V30 9609 H 881.362 1.13713 4.47065 0
M  V30 9610 H 879.605 1.13646 4.18649 0
M  V30 9611 H 880.276 0.188041 5.5168 0
M  V30 9612 H 882.752 -1.03722 4.02965 0
M  V30 9613 H 881.628 -1.79387 5.1876 0
M  V30 9614 H 881.889 -2.53963 3.61877 0
M  V30 9615 N 880.948 -1.576 0.00335426 0
M  V30 9616 C 882.195 -1.90713 -0.680791 0
M  V30 9617 C 882.523 -0.877263 -1.73592 0
M  V30 9618 O 881.778 0.117497 -1.95347 0
M  V30 9619 C 882.077 -3.3058 -1.35837 0
M  V30 9620 C 881.743 -4.48786 -0.436111 0
M  V30 9621 C 880.405 -4.80855 -0.182195 0
M  V30 9622 C 882.757 -5.20821 0.198677 0
M  V30 9623 C 880.085 -5.8233 0.714747 0
M  V30 9624 C 882.437 -6.23252 1.08351 0
M  V30 9625 C 881.101 -6.53776 1.34658 0
M  V30 9626 H 880.371 -0.697869 -0.249119 0
M  V30 9627 H 883.018 -1.91407 0.0596011 0
M  V30 9628 H 881.323 -3.26026 -2.17289 0
M  V30 9629 H 883.02 -3.53462 -1.89383 0
M  V30 9630 H 879.61 -4.23731 -0.644186 0
M  V30 9631 H 883.794 -4.96298 0.0155259 0
M  V30 9632 H 879.05 -6.04339 0.926529 0
M  V30 9633 H 883.224 -6.78199 1.58172 0
M  V30 9634 H 880.851 -7.32225 2.04328 0
M  V30 9635 N 882.426 0.269451 -1.5528 0
M  V30 9636 C 883.356 1.33729 -1.91413 0
M  V30 9637 C 884.337 1.51348 -0.776391 0
M  V30 9638 O 885.522 1.64332 -1.03482 0
M  V30 9639 C 882.652 2.69618 -2.18914 0
M  V30 9640 C 881.606 2.66725 -3.34726 0
M  V30 9641 C 880.932 4.06199 -3.47716 0
M  V30 9642 C 882.232 2.25684 -4.71025 0
M  V30 9643 H 883.926 1.03736 -2.80854 0
M  V30 9644 H 881.472 0.497579 -1.3513 0
M  V30 9645 H 883.425 3.44436 -2.42779 0
M  V30 9646 H 882.149 3.01201 -1.26275 0
M  V30 9647 H 880.808 1.94365 -3.10834 0
M  V30 9648 H 880.456 4.3501 -2.52537 0
M  V30 9649 H 880.156 4.05157 -4.25583 0
M  V30 9650 H 881.68 4.8275 -3.73877 0
M  V30 9651 H 883.094 2.90225 -4.94411 0
M  V30 9652 H 881.491 2.35797 -5.51833 0
M  V30 9653 H 882.561 1.20819 -4.69607 0
M  V30 9654 N 883.904 1.48273 0.534124 0
M  V30 9655 C 884.834 1.6538 1.64839 0
M  V30 9656 C 885.815 0.502741 1.62501 0
M  V30 9657 O 887 0.734799 1.79762 0
M  V30 9658 C 884.13 1.68949 3.03436 0
M  V30 9659 C 883.084 2.83513 3.20631 0
M  V30 9660 C 882.41 2.72169 4.60248 0
M  V30 9661 C 883.71 4.24858 3.03797 0
M  V30 9662 H 885.404 2.58663 1.50777 0
M  V30 9663 H 882.95 1.24479 0.723937 0
M  V30 9664 H 884.903 1.79505 3.81256 0
M  V30 9665 H 883.627 0.722415 3.1851 0
M  V30 9666 H 882.286 2.72505 2.45227 0
M  V30 9667 H 881.934 1.7344 4.72152 0
M  V30 9668 H 881.634 3.49042 4.72698 0
M  V30 9669 H 883.158 2.84687 5.40172 0
M  V30 9670 H 884.572 4.36721 3.71413 0
M  V30 9671 H 882.969 5.02697 3.27743 0
M  V30 9672 H 884.039 4.41611 2.0027 0
M  V30 9673 N 885.382 -0.782676 1.36792 0
M  V30 9674 C 886.63 -1.53778 1.31136 0
M  V30 9675 C 886.951 -1.94706 -0.107014 0
M  V30 9676 O 886.221 -1.65465 -1.04872 0
M  V30 9677 H 884.801 -0.570328 0.482426 0
M  V30 9678 H 887.463 -0.932181 1.71162 0
M  V30 9679 H 886.559 -2.44224 1.94321 0
M  V30 9680 N 886.86 -1.21182 -1.00761 0
M  V30 9681 C 888.107 -1.02746 -1.74498 0
M  V30 9682 C 888.435 0.439344 -1.89473 0
M  V30 9683 O 887.69 1.34232 -1.42409 0
M  V30 9684 C 887.989 -1.6667 -3.16158 0
M  V30 9685 C 887.655 -3.16515 -3.21137 0
M  V30 9686 C 886.317 -3.57405 -3.22203 0
M  V30 9687 C 888.669 -4.12495 -3.18587 0
M  V30 9688 C 885.997 -4.92786 -3.18401 0
M  V30 9689 C 888.349 -5.47833 -3.16326 0
M  V30 9690 C 887.013 -5.88124 -3.157 0
M  V30 9691 H 886.283 -0.375974 -0.638533 0
M  V30 9692 H 888.93 -1.50736 -1.18114 0
M  V30 9693 H 887.235 -1.10966 -3.75758 0
M  V30 9694 H 888.932 -1.49911 -3.71924 0
M  V30 9695 H 885.522 -2.83947 -3.21048 0
M  V30 9696 H 889.706 -3.81932 -3.16925 0
M  V30 9697 H 884.962 -5.23253 -3.16253 0
M  V30 9698 H 889.136 -6.21942 -3.13306 0
M  V30 9699 H 886.763 -6.92995 -3.12508 0
M  V30 9700 N 888.338 1.20213 -1.01915 0
M  V30 9701 C 889.586 1.89272 -0.708552 0
M  V30 9702 C 889.907 1.79394 0.76438 0
M  V30 9703 O 889.177 1.198 1.54999 0
M  V30 9704 H 887.757 0.700628 -0.259094 0
M  V30 9705 H 890.419 1.45985 -1.29129 0
M  V30 9706 H 889.515 2.95841 -0.994215 0
M  V30 9707 N 889.816 0.795718 1.36037 0
M  V30 9708 C 891.062 0.371574 1.99367 0
M  V30 9709 C 891.395 -1.0557 1.62999 0
M  V30 9710 O 890.67 -1.73051 0.887895 0
M  V30 9711 C 890.953 0.542622 3.55988 0
M  V30 9712 C 890.806 2.01404 4.0219 0
M  V30 9713 C 892.125 -0.0384527 4.40083 0
M  V30 9714 H 889.244 0.136483 0.724252 0
M  V30 9715 H 891.886 1.00323 1.61355 0
M  V30 9716 H 890.036 0.0049053 3.885 0
M  V30 9717 H 891.708 2.6133 3.80137 0
M  V30 9718 H 889.951 2.51439 3.53498 0
M  V30 9719 H 890.622 2.08466 5.11122 0
M  V30 9720 H 893.098 0.420634 4.13968 0
M  V30 9721 H 891.974 0.111214 5.48787 0
M  V30 9722 H 892.235 -1.13116 4.27384 0
M  V30 9723 N 891.294 -1.47756 0.548274 0
M  V30 9724 C 892.257 -2.28379 -0.193857 0
M  V30 9725 C 893.257 -1.36436 -0.850986 0
M  V30 9726 O 894.447 -1.59154 -0.70822 0
M  V30 9727 C 891.579 -3.15858 -1.28243 0
M  V30 9728 H 892.772 -2.95458 0.514231 0
M  V30 9729 H 890.325 -1.53298 0.304879 0
M  V30 9730 H 891.06 -2.5345 -2.0232 0
M  V30 9731 H 890.845 -3.83512 -0.816148 0
M  V30 9732 H 892.335 -3.76627 -1.80393 0
M  V30 9733 N 892.772 -0.284283 -1.55015 0
M  V30 9734 C 893.702 0.592663 -2.25853 0
M  V30 9735 C 894.683 1.15151 -1.25197 0
M  V30 9736 O 895.868 1.18395 -1.53936 0
M  V30 9737 C 892.998 1.77254 -2.98661 0
M  V30 9738 C 891.952 1.34482 -4.06323 0
M  V30 9739 C 891.278 2.60853 -4.66754 0
M  V30 9740 C 892.578 0.488288 -5.20013 0
M  V30 9741 H 894.272 0.00187041 -2.994 0
M  V30 9742 H 891.818 -0.000540402 -1.44 0
M  V30 9743 H 893.771 2.39199 -3.46932 0
M  V30 9744 H 892.495 2.38931 -2.22664 0
M  V30 9745 H 891.154 0.748519 -3.58877 0
M  V30 9746 H 890.802 3.20808 -3.87416 0
M  V30 9747 H 890.502 2.32942 -5.39455 0
M  V30 9748 H 892.026 3.23631 -5.1778 0
M  V30 9749 H 893.44 1.01298 -5.6428 0
M  V30 9750 H 891.837 0.303669 -5.99331 0
M  V30 9751 H 892.907 -0.490727 -4.8241 0
M  V30 9752 N 894.251 1.57596 -0.0117121 0
M  V30 9753 C 895.214 2.08089 0.960816 0
M  V30 9754 C 896.214 0.992519 1.26514 0
M  V30 9755 O 897.404 1.25475 1.20837 0
M  V30 9756 C 894.536 2.53217 2.28241 0
M  V30 9757 H 895.729 2.9529 0.523829 0
M  V30 9758 H 893.282 1.54508 0.235995 0
M  V30 9759 H 894.017 1.69294 2.76604 0
M  V30 9760 H 893.802 3.32714 2.0747 0
M  V30 9761 H 895.292 2.92568 2.97983 0
M  V30 9762 N 895.729 -0.261212 1.5542 0
M  V30 9763 C 896.954 -1.01341 1.80955 0
M  V30 9764 C 897.379 -1.78711 0.586849 0
M  V30 9765 O 896.737 -1.75266 -0.463837 0
M  V30 9766 C 896.785 -1.93835 3.04073 0
M  V30 9767 O 895.889 -3.02791 2.79985 0
M  V30 9768 H 895.23 -0.289123 0.597749 0
M  V30 9769 H 897.76 -0.286543 2.02584 0
M  V30 9770 H 897.77 -2.3557 3.33123 0
M  V30 9771 H 896.445 -1.36936 3.9271 0
M  V30 9772 H 895.022 -2.65287 2.62063 0
M  V30 9773 N 897.207 -1.48554 -0.526253 0
M  V30 9774 C 898.137 -1.66252 -1.63959 0
M  V30 9775 C 899.118 -0.511351 -1.62232 0
M  V30 9776 O 900.303 -0.744322 -1.7937 0
M  V30 9777 C 897.433 -1.70556 -3.02536 0
M  V30 9778 C 896.387 -2.8521 -3.19123 0
M  V30 9779 C 895.713 -2.74606 -4.58798 0
M  V30 9780 C 897.013 -4.26463 -3.0154 0
M  V30 9781 H 898.707 -2.59459 -1.49404 0
M  V30 9782 H 896.253 -1.24862 -0.717326 0
M  V30 9783 H 898.206 -1.81524 -3.80298 0
M  V30 9784 H 896.93 -0.739297 -3.18123 0
M  V30 9785 H 895.589 -2.73802 -2.43779 0
M  V30 9786 H 895.237 -1.75941 -4.71226 0
M  V30 9787 H 894.937 -3.51544 -4.70841 0
M  V30 9788 H 896.461 -2.87548 -5.38655 0
M  V30 9789 H 897.875 -4.38685 -3.69091 0
M  V30 9790 H 896.272 -5.04428 -3.25073 0
M  V30 9791 H 897.342 -4.42667 -1.97925 0
M  V30 9792 N 898.685 0.775411 -1.37205 0
M  V30 9793 C 899.934 1.52909 -1.31536 0
M  V30 9794 C 900.247 1.9535 0.0989374 0
M  V30 9795 O 901.453 2.70072 0.278079 0
M  V30 9796 C 899.909 2.761 -2.30861 0
M  V30 9797 C 899.517 2.40773 -3.77799 0
M  V30 9798 C 901.261 3.54052 -2.34195 0
M  V30 9799 C 899.168 3.60444 -4.68865 0
M  V30 9800 H 898.098 0.574061 -0.488845 0
M  V30 9801 H 900.749 0.849642 -1.62645 0
M  V30 9802 H 899.131 3.45916 -1.92764 0
M  V30 9803 H 900.305 1.78764 -4.24712 0
M  V30 9804 H 898.62 1.76004 -3.77375 0
M  V30 9805 H 901.217 4.42992 -2.99437 0
M  V30 9806 H 901.56 3.93649 -1.35449 0
M  V30 9807 H 902.093 2.91229 -2.7098 0
M  V30 9808 H 898.832 3.25932 -5.68725 0
M  V30 9809 H 898.352 4.21571 -4.26659 0
M  V30 9810 H 900.031 4.27302 -4.85821 0
M  V30 9811 N 900.163 1.21714 1.00117 0
M  V30 9812 C 901.073 0.99597 2.12409 0
M  V30 9813 C 902.089 -0.0531431 1.73919 0
M  V30 9814 O 903.265 0.137757 2.00928 0
M  V30 9815 C 900.33 0.567593 3.42022 0
M  V30 9816 C 899.391 1.68936 3.94663 0
M  V30 9817 C 898.624 1.28133 5.1809 0
M  V30 9818 O 898.847 0.156574 5.70185 0
M  V30 9819 O 897.781 2.0947 5.64275 0
M  V30 9820 H 901.607 1.93657 2.33946 0
M  V30 9821 H 899.192 1.00236 1.10784 0
M  V30 9822 H 901.074 0.338664 4.20037 0
M  V30 9823 H 899.749 -0.34424 3.21864 0
M  V30 9824 H 898.656 1.97274 3.17858 0
M  V30 9825 H 899.989 2.57876 4.19238 0
M  V30 9826 N 901.641 -1.19671 1.02551 0
M  V30 9827 C 902.588 -2.22773 0.603394 0
M  V30 9828 C 903.558 -1.61669 -0.381081 0
M  V30 9829 O 904.743 -1.88756 -0.278505 0
M  V30 9830 C 901.883 -3.45073 -0.0431034 0
M  V30 9831 C 900.996 -4.20574 0.987006 0
M  V30 9832 C 900.131 -5.30291 0.310626 0
M  V30 9833 C 899.17 -5.97545 1.32688 0
M  V30 9834 N 898.307 -6.98833 0.676542 0
M  V30 9835 H 903.147 -2.58238 1.48719 0
M  V30 9836 H 900.684 -1.26881 0.744286 0
M  V30 9837 H 902.642 -4.14925 -0.435141 0
M  V30 9838 H 901.272 -3.10274 -0.890495 0
M  V30 9839 H 900.324 -3.497 1.49713 0
M  V30 9840 H 901.636 -4.66736 1.75952 0
M  V30 9841 H 900.79 -6.06547 -0.136438 0
M  V30 9842 H 899.529 -4.8519 -0.49412 0
M  V30 9843 H 898.534 -5.20043 1.78424 0
M  V30 9844 H 899.759 -6.4473 2.13306 0
M  V30 9845 H 897.705 -6.55911 -0.108172 0
M  V30 9846 H 897.622 -7.43168 1.38699 0
M  V30 9847 H 898.89 -7.79088 0.253367 0
M  V30 9848 N 903.119 -0.802921 -1.35613 0
M  V30 9849 C 904.359 -0.387163 -2.007 0
M  V30 9850 C 904.723 1.02546 -1.62322 0
M  V30 9851 O 905.924 1.54303 -2.201 0
M  V30 9852 C 904.195 -0.560813 -3.52973 0
M  V30 9853 S 905.754 -0.234935 -4.38171 0
M  V30 9854 H 902.572 -0.147218 -0.695592 0
M  V30 9855 H 905.174 -1.04437 -1.65267 0
M  V30 9856 H 903.878 -1.58897 -3.78391 0
M  V30 9857 H 903.409 0.111845 -3.93241 0
M  V30 9858 H 905.424 0.958715 -4.8685 0
M  V30 9859 N 904.597 1.47463 -0.556102 0
M  V30 9860 C 906.008 1.86298 -0.122429 0
M  V30 9861 C 906.359 1.46285 1.30749 0
M  V30 9862 O 905.484 0.865405 1.98342 0
M  V30 9863 C 906.079 3.38115 -0.215407 0
M  V30 9864 C 904.638 3.76046 0.163223 0
M  V30 9865 C 903.785 2.71515 -0.563466 0
M  V30 9866 H 906.736 1.38996 -0.765888 0
M  V30 9867 H 906.757 3.76263 0.566271 0
M  V30 9868 H 906.269 3.67207 -1.25622 0
M  V30 9869 H 904.37 3.5257 1.20519 0
M  V30 9870 H 904.483 4.78705 -0.194568 0
M  V30 9871 H 902.847 2.54699 -0.00667879 0
M  V30 9872 H 903.63 3.03449 -1.60542 0
M  V30 9873 N 906.075 0.2925 1.54862 0
M  V30 9874 C 907.022 -0.587365 2.23201 0
M  V30 9875 C 907.992 -1.13623 1.21157 0
M  V30 9876 O 909.177 -1.18233 1.49752 0
M  V30 9877 C 906.317 -1.75745 2.96998 0
M  V30 9878 C 905.43 -1.24078 4.13798 0
M  V30 9879 C 904.565 -2.37405 4.75197 0
M  V30 9880 C 903.604 -1.82829 5.84157 0
M  V30 9881 N 902.741 -2.89696 6.39547 0
M  V30 9882 H 907.581 0.00202207 2.98 0
M  V30 9883 H 905.118 0.012766 1.47094 0
M  V30 9884 H 907.076 -2.44549 3.38011 0
M  V30 9885 H 905.706 -2.3186 2.24591 0
M  V30 9886 H 904.758 -0.445268 3.77785 0
M  V30 9887 H 906.07 -0.801186 4.92324 0
M  V30 9888 H 905.224 -3.14172 5.19019 0
M  V30 9889 H 903.963 -2.84688 3.95985 0
M  V30 9890 H 902.968 -1.04548 5.39768 0
M  V30 9891 H 904.193 -1.36461 6.65248 0
M  V30 9892 H 902.139 -3.36328 5.63222 0
M  V30 9893 H 902.056 -2.50206 7.13395 0
M  V30 9894 H 903.324 -3.66386 6.88027 0
M  V30 9895 N 907.553 -1.57587 0.0200696 0
M  V30 9896 C 908.83 -1.82696 -0.698677 0
M  V30 9897 C 909.21 -0.902082 -1.90855 0
M  V30 9898 O 908.558 0.0444834 -2.28457 0
M  V30 9899 C 908.768 -3.31691 -1.08546 0
M  V30 9900 C 910.116 -3.97938 -1.4809 0
M  V30 9901 O 911.14 -3.36133 -1.17869 0
M  V30 9902 O 909.999 -5.06851 -2.04364 0
M  V30 9903 H 907.093 -0.752997 -0.341942 0
M  V30 9904 H 909.639 -1.69635 0.04706 0
M  V30 9905 H 908.411 -3.90659 -0.223956 0
M  V30 9906 H 908.034 -3.49825 -1.88965 0
M  V30 9907 N 909.032 0.252966 -1.55557 0
M  V30 9908 C 909.98 1.33289 -1.90622 0
M  V30 9909 C 910.974 1.50133 -0.784638 0
M  V30 9910 O 912.18 1.51679 -0.969196 0
M  V30 9911 H 908.555 0.446196 -0.605321 0
M  V30 9912 H 910.526 1.00977 -2.80796 0
M  V30 9913 C 909.275 2.68254 -2.21213 0
M  V30 9914 H 908.598 2.5609 -3.07014 0
M  V30 9915 H 910.038 3.42707 -2.49656 0
M  V30 9916 C 908.497 3.20884 -1.02642 0
M  V30 9917 O 909.027 4.00783 -0.271292 0
M  V30 9918 N 907.233 2.7883 -0.818682 0
M  V30 9919 H 906.78 2.13966 -1.43444 0
M  V30 9920 H 906.738 3.14388 -0.0269989 0
M  V30 9921 N 910.51 1.48831 0.518367 0
M  V30 9922 C 911.457 1.64216 1.62178 0
M  V30 9923 C 912.427 0.483942 1.58894 0
M  V30 9924 O 913.612 0.708857 1.77144 0
M  V30 9925 C 910.752 1.69867 3.00399 0
M  V30 9926 C 909.865 2.96875 3.1383 0
M  V30 9927 C 909 2.93613 4.42679 0
M  V30 9928 C 908.039 4.15276 4.4968 0
M  V30 9929 N 907.176 4.10024 5.69934 0
M  V30 9930 H 912.016 2.58439 1.48368 0
M  V30 9931 H 909.553 1.28154 0.722152 0
M  V30 9932 H 911.511 1.71124 3.8049 0
M  V30 9933 H 910.141 0.791249 3.12952 0
M  V30 9934 H 909.193 3.0531 2.26914 0
M  V30 9935 H 910.505 3.86863 3.14863 0
M  V30 9936 H 909.659 2.93337 5.31073 0
M  V30 9937 H 908.398 2.01375 4.44184 0
M  V30 9938 H 907.403 4.15816 3.59691 0
M  V30 9939 H 908.628 5.08687 4.49904 0
M  V30 9940 H 906.574 3.20613 5.72314 0
M  V30 9941 H 906.491 4.93728 5.72511 0
M  V30 9942 H 907.759 4.13824 6.60583 0
M  V30 9943 N 911.988 -0.768124 1.37614 0
M  V30 9944 C 913.265 -1.51637 1.23554 0
M  V30 9945 C 913.645 -2.1042 -0.169331 0
M  V30 9946 O 912.993 -1.95834 -1.17735 0
M  V30 9947 C 913.203 -2.59436 2.33439 0
M  V30 9948 C 914.551 -3.2674 2.71157 0
M  V30 9949 O 915.575 -2.69733 2.32642 0
M  V30 9950 O 914.434 -4.29814 3.37524 0
M  V30 9951 H 911.528 -0.671778 0.482332 0
M  V30 9952 H 914.074 -0.804779 1.49403 0
M  V30 9953 H 912.846 -2.14146 3.27502 0
M  V30 9954 H 912.469 -3.38192 2.09073 0
M  V30 9955 N 913.466 -1.22244 -0.994698 0
M  V30 9956 C 914.706 -1.05747 -1.7492 0
M  V30 9957 C 915.07 0.4007 -1.87772 0
M  V30 9958 O 916.271 0.686469 -2.59887 0
M  V30 9959 C 914.542 -1.7471 -3.11787 0
M  V30 9960 S 916.101 -1.73604 -4.02998 0
M  V30 9961 H 912.919 -0.378731 -0.601734 0
M  V30 9962 H 915.521 -1.55155 -1.18942 0
M  V30 9963 H 914.225 -2.79972 -3.00073 0
M  V30 9964 H 913.756 -1.25525 -3.72836 0
M  V30 9965 H 915.771 -0.784445 -4.8996 0
M  V30 9966 N 914.944 1.19125 -1.03184 0
M  V30 9967 C 916.169 1.93379 -0.749628 0
M  V30 9968 C 916.594 1.75153 0.685785 0
M  V30 9969 O 915.952 1.05579 1.47386 0
M  V30 9970 C 916 3.43101 -1.1097 0
M  V30 9971 O 915.104 4.11758 -0.230053 0
M  V30 9972 H 914.445 0.603605 -0.276689 0
M  V30 9973 H 916.975 1.51116 -1.37931 0
M  V30 9974 H 916.985 3.93778 -1.06785 0
M  V30 9975 H 915.66 3.55688 -2.15544 0
M  V30 9976 H 914.237 3.7143 -0.330748 0
M  V30 9977 N 916.422 0.810101 1.35185 0
M  V30 9978 C 917.647 0.40364 2.03434 0
M  V30 9979 C 918.072 -0.97857 1.60641 0
M  V30 9980 O 917.43 -1.63435 0.784779 0
M  V30 9981 C 917.478 0.499154 3.57129 0
M  V30 9982 O 916.582 -0.486039 4.09526 0
M  V30 9983 H 915.923 0.168049 0.642383 0
M  V30 9984 H 918.453 1.09696 1.72708 0
M  V30 9985 H 918.463 0.370236 4.06317 0
M  V30 9986 H 917.138 1.50733 3.87624 0
M  V30 9987 H 915.715 -0.31707 3.7155 0
M  V30 9988 N 917.9 -1.47166 0.563914 0
M  V30 9989 C 919.13 -2.06546 0.0473599 0
M  V30 9990 C 919.538 -1.41607 -1.25476 0
M  V30 9991 O 918.881 -0.50894 -1.76509 0
M  V30 9992 C 918.943 -3.58873 -0.212249 0
M  V30 9993 C 918.607 -4.45893 1.00144 0
M  V30 9994 C 919.604 -4.83594 1.90873 0
M  V30 9995 C 917.289 -4.87309 1.218 0
M  V30 9996 C 919.283 -5.61519 3.01621 0
M  V30 9997 C 916.97 -5.64997 2.32856 0
M  V30 9998 C 917.968 -6.02013 3.22597 0
M  V30 9999 O 917.656 -6.78135 4.31727 0
M  V30 10000 H 917.388 -0.674441 0.0458823 0
M  V30 10001 H 919.942 -1.9006 0.778865 0
M  V30 10002 H 918.172 -3.73596 -0.998145 0
M  V30 10003 H 919.861 -4.00248 -0.675005 0
M  V30 10004 H 920.627 -4.52192 1.7535 0
M  V30 10005 H 916.506 -4.57959 0.528641 0
M  V30 10006 H 920.05 -5.90331 3.71693 0
M  V30 10007 H 915.947 -5.95813 2.48349 0
M  V30 10008 H 916.715 -6.96537 4.29859 0
M  V30 10009 N 919.378 -0.300708 -1.54705 0
M  V30 10010 C 920.626 0.308044 -1.99739 0
M  V30 10011 C 920.947 1.54433 -1.19061 0
M  V30 10012 O 920.217 1.93794 -0.286507 0
M  V30 10013 H 918.797 0.116811 -0.73781 0
M  V30 10014 H 921.459 -0.41197 -1.90496 0
M  V30 10015 H 920.555 0.580287 -3.06658 0
M  V30 10016 N 920.856 1.57574 -0.0284266 0
M  V30 10017 C 922.081 1.96479 0.664137 0
M  V30 10018 C 922.506 0.904826 1.64908 0
M  V30 10019 O 921.864 -0.134339 1.80802 0
M  V30 10020 C 921.912 3.34479 1.34745 0
M  V30 10021 O 921.016 3.30794 2.46271 0
M  V30 10022 H 920.357 0.640654 0.174524 0
M  V30 10023 H 922.887 2.04402 -0.0900729 0
M  V30 10024 H 922.897 3.70694 1.7044 0
M  V30 10025 H 921.572 4.1117 0.625468 0
M  V30 10026 H 920.149 3.06294 2.12693 0
M  V30 10027 N 922.334 -0.244713 1.55689 0
M  V30 10028 C 923.581 -0.972446 1.77622 0
M  V30 10029 C 923.909 -1.85235 0.593137 0
M  V30 10030 O 923.164 -1.91064 -0.423464 0
M  V30 10031 C 923.463 -1.8617 3.05083 0
M  V30 10032 C 923.129 -1.13696 4.3633 0
M  V30 10033 C 921.791 -0.936679 4.71996 0
M  V30 10034 C 924.143 -0.623451 5.17458 0
M  V30 10035 C 921.471 -0.210612 5.86322 0
M  V30 10036 C 923.823 0.0891587 6.32537 0
M  V30 10037 C 922.487 0.300904 6.66821 0
M  V30 10038 H 921.757 -0.355843 0.649967 0
M  V30 10039 H 924.404 -0.242372 1.8996 0
M  V30 10040 H 922.709 -2.6589 2.87767 0
M  V30 10041 H 924.406 -2.4265 3.19253 0
M  V30 10042 H 920.996 -1.30301 4.08313 0
M  V30 10043 H 925.18 -0.765725 4.90357 0
M  V30 10044 H 920.436 -0.0361062 6.11389 0
M  V30 10045 H 924.61 0.494685 6.94641 0
M  V30 10046 H 922.237 0.865466 7.55257 0
M  V30 10047 N 923.813 -1.49104 -0.510467 0
M  V30 10048 C 925.038 -1.62068 -1.29417 0
M  V30 10049 C 925.463 -0.288432 -1.85875 0
M  V30 10050 O 924.821 0.742667 -1.65391 0
M  V30 10051 C 924.869 -2.68506 -2.40701 0
M  V30 10052 O 923.973 -2.27021 -3.4429 0
M  V30 10053 H 923.314 -0.542778 -0.382476 0
M  V30 10054 H 925.844 -1.95228 -0.612154 0
M  V30 10055 H 925.854 -2.90383 -2.86604 0
M  V30 10056 H 924.529 -3.65216 -1.98973 0
M  V30 10057 H 923.106 -2.15436 -3.04371 0
M  V30 10058 N 925.291 0.760815 -1.38019 0
M  V30 10059 C 926.568 1.5098 -1.24356 0
M  V30 10060 C 926.948 2.10507 0.158169 0
M  V30 10061 O 926.296 1.96455 1.16695 0
M  V30 10062 C 926.506 2.58195 -2.34811 0
M  V30 10063 C 927.854 3.25297 -2.72886 0
M  V30 10064 O 928.878 2.68496 -2.34069 0
M  V30 10065 O 927.737 4.28018 -3.39799 0
M  V30 10066 H 924.831 0.66921 -0.485888 0
M  V30 10067 H 927.377 0.796844 -1.49828 0
M  V30 10068 H 926.149 2.12406 -3.28633 0
M  V30 10069 H 925.772 3.37079 -2.10864 0
M  V30 10070 N 926.769 1.22769 0.988202 0
M  V30 10071 C 927.732 1.00325 2.06076 0
M  V30 10072 C 928.732 -0.0320618 1.60768 0
M  V30 10073 O 929.922 0.206912 1.72967 0
M  V30 10074 C 927.054 0.516376 3.36966 0
M  V30 10075 H 928.247 1.95499 2.27421 0
M  V30 10076 H 925.8 1.04704 1.16047 0
M  V30 10077 H 926.535 -0.439498 3.21308 0
M  V30 10078 H 926.32 1.26337 3.71189 0
M  V30 10079 H 927.81 0.37974 4.1587 0
M  V30 10080 N 928.247 -1.18576 1.03814 0
M  V30 10081 C 929.493 -1.88773 0.741132 0
M  V30 10082 C 929.826 -1.79993 -0.729127 0
M  V30 10083 O 929.101 -1.19851 -1.53186 0
M  V30 10084 C 929.384 -3.39352 1.20468 0
M  V30 10085 C 929.237 -3.56955 2.73684 0
M  V30 10086 C 930.556 -4.32901 0.792741 0
M  V30 10087 H 927.675 -0.685482 0.270708 0
M  V30 10088 H 930.317 -1.39523 1.2897 0
M  V30 10089 H 928.467 -3.81427 0.737974 0
M  V30 10090 H 930.139 -3.2399 3.28372 0
M  V30 10091 H 928.382 -2.99696 3.13632 0
M  V30 10092 H 929.053 -4.62598 3.01176 0
M  V30 10093 H 931.529 -3.98592 1.1943 0
M  V30 10094 H 930.405 -5.36828 1.14486 0
M  V30 10095 H 930.666 -4.41052 -0.304295 0
M  V30 10096 N 929.725 -0.817259 -1.34754 0
M  V30 10097 C 930.655 -0.249769 -2.3216 0
M  V30 10098 C 931.636 0.630663 -1.57977 0
M  V30 10099 O 932.821 0.558719 -1.85989 0
M  V30 10100 C 929.951 0.593825 -3.42186 0
M  V30 10101 C 928.905 -0.188997 -4.27583 0
M  V30 10102 C 928.231 0.776979 -5.29025 0
M  V30 10103 C 929.531 -1.39401 -5.03354 0
M  V30 10104 H 931.225 -1.06359 -2.79872 0
M  V30 10105 H 928.771 -0.512894 -1.34556 0
M  V30 10106 H 930.724 1.00097 -4.09339 0
M  V30 10107 H 929.448 1.44064 -2.93109 0
M  V30 10108 H 928.107 -0.577445 -3.62024 0
M  V30 10109 H 927.755 1.61959 -4.76212 0
M  V30 10110 H 927.455 0.257448 -5.87036 0
M  V30 10111 H 928.979 1.18211 -5.99048 0
M  V30 10112 H 930.393 -1.06117 -5.63393 0
M  V30 10113 H 928.79 -1.84878 -5.70912 0
M  V30 10114 H 929.86 -2.17515 -4.33377 0
M  V30 10115 N 931.203 1.46865 -0.571711 0
M  V30 10116 C 932.113 2.33979 0.170571 0
M  V30 10117 C 933.129 1.49083 0.897239 0
M  V30 10118 O 934.305 1.81979 0.862888 0
M  V30 10119 C 931.37 3.26063 1.17831 0
M  V30 10120 C 930.431 4.26855 0.457499 0
M  V30 10121 C 929.664 5.14539 1.41722 0
M  V30 10122 O 929.887 5.04945 2.65305 0
M  V30 10123 O 928.821 5.94612 0.9338 0
M  V30 10124 H 932.647 2.98781 -0.544396 0
M  V30 10125 H 930.232 1.4566 -0.332198 0
M  V30 10126 H 932.114 3.82903 1.75965 0
M  V30 10127 H 930.789 2.63871 1.87493 0
M  V30 10128 H 929.696 3.73734 -0.165406 0
M  V30 10129 H 931.029 4.91802 -0.197953 0
M  V30 10130 N 932.681 0.308908 1.54543 0
M  V30 10131 C 933.611 -0.556657 2.26768 0
M  V30 10132 C 934.592 -1.13145 1.27013 0
M  V30 10133 O 935.777 -1.15931 1.558 0
M  V30 10134 C 932.907 -1.72481 3.01443 0
M  V30 10135 C 931.861 -1.28001 4.08411 0
M  V30 10136 C 931.187 -2.53395 4.70845 0
M  V30 10137 C 932.487 -0.405497 5.20724 0
M  V30 10138 H 934.181 0.0457618 2.99365 0
M  V30 10139 H 931.727 0.0234495 1.43981 0
M  V30 10140 H 933.68 -2.3365 3.50693 0
M  V30 10141 H 932.404 -2.35359 2.26437 0
M  V30 10142 H 931.063 -0.69133 3.60022 0
M  V30 10143 H 930.711 -3.14604 3.92471 0
M  V30 10144 H 930.411 -2.2433 5.43093 0
M  V30 10145 H 931.935 -3.15352 5.22863 0
M  V30 10146 H 933.349 -0.923076 5.6582 0
M  V30 10147 H 931.746 -0.208282 5.99738 0
M  V30 10148 H 932.816 0.567412 4.81569 0
M  V30 10149 N 934.159 -1.57557 0.0367827 0
M  V30 10150 C 935.406 -1.92114 -0.640185 0
M  V30 10151 C 935.734 -0.913887 -1.71693 0
M  V30 10152 O 934.989 0.0760343 -1.95552 0
M  V30 10153 C 935.288 -3.33387 -1.28794 0
M  V30 10154 C 934.954 -4.4961 -0.340819 0
M  V30 10155 C 933.616 -4.81133 -0.0801574 0
M  V30 10156 C 935.968 -5.20283 0.309106 0
M  V30 10157 C 933.296 -5.80683 0.838107 0
M  V30 10158 C 935.648 -6.20813 1.21547 0
M  V30 10159 C 934.312 -6.50773 1.48495 0
M  V30 10160 H 933.582 -0.702996 -0.23426 0
M  V30 10161 H 936.229 -1.91238 0.100188 0
M  V30 10162 H 934.534 -3.30561 -2.10324 0
M  V30 10163 H 936.231 -3.57399 -1.81843 0
M  V30 10164 H 932.821 -4.25002 -0.554161 0
M  V30 10165 H 937.005 -4.96153 0.120794 0
M  V30 10166 H 932.261 -6.02238 1.05451 0
M  V30 10167 H 936.435 -6.74692 1.72522 0
M  V30 10168 H 934.062 -7.27727 2.19814 0
M  V30 10169 N 935.637 0.236453 -1.55816 0
M  V30 10170 C 936.584 1.29289 -1.91188 0
M  V30 10171 C 937.554 1.47315 -0.767301 0
M  V30 10172 O 938.739 1.61128 -1.02189 0
M  V30 10173 C 935.879 2.64126 -2.22107 0
M  V30 10174 C 934.992 2.54022 -3.49423 0
M  V30 10175 C 934.127 3.81282 -3.69861 0
M  V30 10176 C 933.166 3.65839 -4.90743 0
M  V30 10177 N 932.303 4.85014 -5.07647 0
M  V30 10178 H 937.143 0.98424 -2.81277 0
M  V30 10179 H 934.68 0.474722 -1.39229 0
M  V30 10180 H 936.638 3.42626 -2.3804 0
M  V30 10181 H 935.268 2.93118 -1.35209 0
M  V30 10182 H 934.32 1.67036 -3.41765 0
M  V30 10183 H 935.632 2.38525 -4.38072 0
M  V30 10184 H 934.786 4.68226 -3.8581 0
M  V30 10185 H 933.525 3.99688 -2.79465 0
M  V30 10186 H 932.53 2.77279 -4.74759 0
M  V30 10187 H 933.755 3.48918 -5.82609 0
M  V30 10188 H 931.701 5.03762 -4.20191 0
M  V30 10189 H 931.618 4.72188 -5.90402 0
M  V30 10190 H 932.886 5.73427 -5.28017 0
M  V30 10191 N 937.115 1.49373 0.502552 0
M  V30 10192 C 938.045 1.68839 1.61294 0
M  V30 10193 C 939.026 0.537096 1.61398 0
M  V30 10194 O 940.211 0.772764 1.78163 0
M  V30 10195 C 937.341 1.75347 2.99784 0
M  V30 10196 C 936.295 2.90251 3.14545 0
M  V30 10197 C 935.621 2.8187 4.54371 0
M  V30 10198 C 936.921 4.31207 2.94717 0
M  V30 10199 H 938.615 2.61803 1.45257 0
M  V30 10200 H 936.161 1.25987 0.697371 0
M  V30 10201 H 938.114 1.87552 3.77362 0
M  V30 10202 H 936.838 0.789814 3.16906 0
M  V30 10203 H 935.497 2.77646 2.39392 0
M  V30 10204 H 935.145 1.83416 4.68367 0
M  V30 10205 H 934.845 3.5899 4.65188 0
M  V30 10206 H 936.369 2.96081 5.34012 0
M  V30 10207 H 937.783 4.44501 3.62065 0
M  V30 10208 H 936.18 5.09536 3.17007 0
M  V30 10209 H 937.25 4.45759 1.90857 0
M  V30 10210 N 938.594 -0.753485 1.38421 0
M  V30 10211 C 939.822 -1.54272 1.37868 0
M  V30 10212 C 940.237 -1.88774 -0.0315155 0
M  V30 10213 O 939.594 -1.52785 -0.998148 0
M  V30 10214 C 939.645 -2.84179 2.23438 0
M  V30 10215 O 939.366 -2.51149 3.58965 0
M  V30 10216 C 940.867 -3.78316 2.31067 0
M  V30 10217 H 938.087 -0.47735 0.47157 0
M  V30 10218 H 940.631 -0.932509 1.82001 0
M  V30 10219 H 938.786 -3.41577 1.82767 0
M  V30 10220 H 939.2 -3.34466 4.04021 0
M  V30 10221 H 940.674 -4.66418 2.95226 0
M  V30 10222 H 941.151 -4.18757 1.32436 0
M  V30 10223 H 941.757 -3.26842 2.72129 0
M  V30 10224 N 940.072 -1.23292 -0.981677 0
M  V30 10225 C 941.321 -1.05832 -1.71705 0
M  V30 10226 C 941.634 0.40514 -1.91358 0
M  V30 10227 O 942.84 0.699645 -2.6233 0
M  V30 10228 C 941.296 -1.84532 -3.08992 0
M  V30 10229 C 940.904 -3.35199 -2.9723 0
M  V30 10230 C 942.648 -1.75557 -3.86497 0
M  V30 10231 C 940.555 -4.06296 -4.29741 0
M  V30 10232 H 939.485 -0.39241 -0.64384 0
M  V30 10233 H 942.136 -1.47247 -1.09502 0
M  V30 10234 H 940.518 -1.35923 -3.71942 0
M  V30 10235 H 941.692 -3.91286 -2.43377 0
M  V30 10236 H 940.007 -3.44973 -2.332 0
M  V30 10237 H 942.604 -2.25989 -4.84596 0
M  V30 10238 H 942.947 -0.718101 -4.1006 0
M  V30 10239 H 943.48 -2.21771 -3.30246 0
M  V30 10240 H 940.219 -5.10344 -4.11375 0
M  V30 10241 H 939.739 -3.54997 -4.83464 0
M  V30 10242 H 941.418 -4.12519 -4.98434 0
M  V30 10243 N 941.55 1.18024 -1.04442 0
M  V30 10244 C 942.798 1.87727 -0.74854 0
M  V30 10245 C 943.119 1.80975 0.726156 0
M  V30 10246 O 942.389 1.23061 1.52423 0
M  V30 10247 H 940.969 0.694974 -0.273897 0
M  V30 10248 H 943.631 1.43213 -1.32197 0
M  V30 10249 H 942.727 2.93665 -1.05674 0
M  V30 10250 N 943.028 0.824394 1.34319 0
M  V30 10251 C 943.958 0.262077 2.32025 0
M  V30 10252 C 944.939 -0.622277 1.58309 0
M  V30 10253 O 946.124 -0.548848 1.86283 0
M  V30 10254 C 943.254 -0.57567 3.42496 0
M  V30 10255 C 942.208 0.21167 4.27476 0
M  V30 10256 C 941.534 -0.748913 5.29429 0
M  V30 10257 C 942.834 1.42068 5.02607 0
M  V30 10258 H 944.528 1.07842 2.79304 0
M  V30 10259 H 942.074 0.520022 1.34282 0
M  V30 10260 H 944.027 -0.979251 4.09864 0
M  V30 10261 H 942.751 -1.42508 2.93869 0
M  V30 10262 H 941.41 0.596636 3.61712 0
M  V30 10263 H 941.058 -1.59432 4.77064 0
M  V30 10264 H 940.758 -0.226313 5.87164 0
M  V30 10265 H 942.282 -1.15032 5.99667 0
M  V30 10266 H 943.696 1.09103 5.62823 0
M  V30 10267 H 942.093 1.87903 5.69923 0
M  V30 10268 H 943.163 2.1981 4.32217 0
M  V30 10269 N 944.506 -1.46559 0.579492 0
M  V30 10270 C 945.754 -2.02 0.0637157 0
M  V30 10271 C 946.075 -1.45378 -1.29962 0
M  V30 10272 O 945.345 -0.637262 -1.85245 0
M  V30 10273 H 943.925 -0.746717 0.0205638 0
M  V30 10274 H 946.587 -1.79702 0.754544 0
M  V30 10275 H 945.683 -3.12099 -0.00770254 0
M  V30 10276 N 945.984 -0.3171 -1.54377 0
M  V30 10277 C 947.261 0.341348 -1.92598 0
M  V30 10278 C 947.641 1.70402 -1.24605 0
M  V30 10279 O 946.989 2.25191 -0.387448 0
M  V30 10280 C 947.199 0.440003 -3.46215 0
M  V30 10281 C 948.547 0.703327 -4.18734 0
M  V30 10282 O 949.571 0.523181 -3.52337 0
M  V30 10283 O 948.43 1.05042 -5.3631 0
M  V30 10284 H 945.524 0.193696 -0.803997 0
M  V30 10285 H 948.07 -0.366341 -1.65699 0
M  V30 10286 H 946.842 -0.517299 -3.87866 0
M  V30 10287 H 946.465 1.19553 -3.792 0
M  V30 10288 N 947.462 1.57535 -0.0451378 0
M  V30 10289 C 948.392 2.14208 0.929372 0
M  V30 10290 C 949.373 1.06221 1.32858 0
M  V30 10291 O 950.558 1.34132 1.40436 0
M  V30 10292 C 947.688 2.68217 2.20629 0
M  V30 10293 C 946.642 3.81134 1.94734 0
M  V30 10294 C 945.968 4.21636 3.28828 0
M  V30 10295 C 947.268 5.06531 1.27374 0
M  V30 10296 H 948.962 2.95886 0.457348 0
M  V30 10297 H 946.508 1.42332 0.218544 0
M  V30 10298 H 948.461 3.06502 2.89196 0
M  V30 10299 H 947.185 1.83722 2.70026 0
M  V30 10300 H 945.844 3.43312 1.28579 0
M  V30 10301 H 945.492 3.34099 3.76014 0
M  V30 10302 H 945.192 4.97736 3.12302 0
M  V30 10303 H 946.716 4.62516 3.98637 0
M  V30 10304 H 948.13 5.423 1.85967 0
M  V30 10305 H 946.527 5.87735 1.21194 0
M  V30 10306 H 947.597 4.84261 0.248913 0
M  V30 10307 N 948.94 -0.228186 1.55939 0
M  V30 10308 C 949.888 -1.30239 1.92719 0
M  V30 10309 C 950.882 -1.48865 0.808424 0
M  V30 10310 O 952.088 -1.50118 0.993204 0
M  V30 10311 H 948.463 -0.436509 0.612343 0
M  V30 10312 H 950.434 -0.964965 2.82367 0
M  V30 10313 C 949.183 -2.647 2.25453 0
M  V30 10314 H 948.506 -2.51173 3.1105 0
M  V30 10315 H 949.946 -3.38691 2.55077 0
M  V30 10316 C 948.405 -3.1921 1.07734 0
M  V30 10317 O 948.935 -4.00301 0.335019 0
M  V30 10318 N 947.141 -2.77492 0.862938 0
M  V30 10319 H 946.688 -2.11657 1.4683 0
M  V30 10320 H 946.646 -3.14306 0.0770119 0
M  V30 10321 N 950.418 -1.49637 -0.494624 0
M  V30 10322 C 951.667 -1.58691 -1.24499 0
M  V30 10323 C 951.98 -0.281763 -1.9356 0
M  V30 10324 O 953.186 -0.250925 -2.70338 0
M  V30 10325 C 951.642 -2.8002 -2.26091 0
M  V30 10326 C 951.25 -4.17318 -1.6294 0
M  V30 10327 C 952.994 -2.98407 -3.01916 0
M  V30 10328 C 950.901 -5.29862 -2.62679 0
M  V30 10329 H 949.831 -0.590888 -0.468367 0
M  V30 10330 H 952.482 -1.76034 -0.518112 0
M  V30 10331 H 950.864 -2.56185 -3.01969 0
M  V30 10332 H 952.038 -4.51315 -0.930108 0
M  V30 10333 H 950.353 -4.04342 -0.994819 0
M  V30 10334 H 952.95 -3.79658 -3.76516 0
M  V30 10335 H 953.293 -2.09214 -3.5991 0
M  V30 10336 H 953.826 -3.22312 -2.33152 0
M  V30 10337 H 950.565 -6.21134 -2.09458 0
M  V30 10338 H 950.085 -5.00311 -3.3083 0
M  V30 10339 H 951.764 -5.59461 -3.2498 0
M  V30 10340 N 951.896 0.746133 -1.38819 0
M  V30 10341 C 952.828 1.86991 -1.3254 0
M  V30 10342 C 953.841 1.61077 -0.236216 0
M  V30 10343 O 955.03 1.71518 -0.494341 0
M  V30 10344 C 952.13 3.22786 -1.03258 0
M  V30 10345 C 951.303 3.76145 -2.23234 0
M  V30 10346 C 950.362 4.90474 -1.90581 0
M  V30 10347 O 949.388 5.04717 -2.63153 0
M  V30 10348 N 950.59 5.74015 -0.86525 0
M  V30 10349 H 953.355 1.92885 -2.2938 0
M  V30 10350 H 950.916 0.926392 -1.32776 0
M  V30 10351 H 952.908 3.96824 -0.794533 0
M  V30 10352 H 951.478 3.12231 -0.151895 0
M  V30 10353 H 950.698 2.93587 -2.63059 0
M  V30 10354 H 951.986 4.08528 -3.03285 0
M  V30 10355 H 951.384 5.65086 -0.263577 0
M  V30 10356 H 949.941 6.48168 -0.687087 0
M  V30 10357 N 953.375 1.23811 0.975125 0
M  V30 10358 C 954.307 0.981779 2.07108 0
M  V30 10359 C 955.32 -0.0461211 1.62735 0
M  V30 10360 O 956.509 0.190039 1.77486 0
M  V30 10361 C 953.609 0.458364 3.35786 0
M  V30 10362 C 952.782 1.54767 4.09104 0
M  V30 10363 C 951.841 1.0282 5.16057 0
M  V30 10364 O 950.867 1.71831 5.42644 0
M  V30 10365 N 952.069 -0.141243 5.80328 0
M  V30 10366 H 954.834 1.92537 2.29673 0
M  V30 10367 H 952.395 1.1474 1.14221 0
M  V30 10368 H 954.387 0.0957686 4.04587 0
M  V30 10369 H 952.957 -0.390768 3.10148 0
M  V30 10370 H 952.177 2.08279 3.34684 0
M  V30 10371 H 953.465 2.28006 4.54853 0
M  V30 10372 H 952.863 -0.718382 5.6112 0
M  V30 10373 H 951.42 -0.445052 6.50279 0
M  V30 10374 N 954.853 -1.17469 1.05066 0
M  V30 10375 C 955.801 -2.23495 0.644418 0
M  V30 10376 C 956.795 -1.66081 -0.333685 0
M  V30 10377 O 958.001 -1.78887 -0.199886 0
M  V30 10378 H 954.376 -0.727546 0.190214 0
M  V30 10379 H 956.347 -2.55058 1.5488 0
M  V30 10380 C 955.096 -3.47684 0.0338051 0
M  V30 10381 H 954.419 -3.92167 0.777513 0
M  V30 10382 H 955.859 -4.23464 -0.213086 0
M  V30 10383 C 954.318 -3.14067 -1.21915 0
M  V30 10384 O 954.848 -3.28728 -2.3087 0
M  V30 10385 N 953.054 -2.68304 -1.11631 0
M  V30 10386 H 952.601 -2.56574 -0.229673 0
M  V30 10387 H 952.559 -2.46184 -1.95553 0
M  V30 10388 N 956.331 -0.831506 -1.3388 0
M  V30 10389 C 957.556 -0.435954 -2.02766 0
M  V30 10390 C 957.981 0.952889 -1.62178 0
M  V30 10391 O 957.339 1.62166 -0.810681 0
M  V30 10392 C 957.387 -0.555907 -3.56289 0
M  V30 10393 O 956.491 0.420826 -4.10247 0
M  V30 10394 H 955.832 -0.178248 -0.639628 0
M  V30 10395 H 958.362 -1.1243 -1.70941 0
M  V30 10396 H 958.372 -0.434831 -4.05676 0
M  V30 10397 H 957.047 -1.56881 -3.85177 0
M  V30 10398 H 955.624 0.257919 -3.72007 0
M  V30 10399 N 957.809 1.4625 -0.587256 0
M  V30 10400 C 958.756 2.30354 0.143384 0
M  V30 10401 C 959.726 1.40891 0.879716 0
M  V30 10402 O 960.911 1.69837 0.869486 0
M  V30 10403 C 958.051 3.25441 1.14815 0
M  V30 10404 C 957.164 4.30004 0.414792 0
M  V30 10405 C 956.299 5.12214 1.40748 0
M  V30 10406 C 955.338 6.08523 0.660786 0
M  V30 10407 N 954.475 6.83585 1.60176 0
M  V30 10408 H 959.315 2.92304 -0.579866 0
M  V30 10409 H 956.852 1.44055 -0.29777 0
M  V30 10410 H 958.81 3.79018 1.7436 0
M  V30 10411 H 957.44 2.6529 1.83906 0
M  V30 10412 H 956.492 3.79248 -0.295787 0
M  V30 10413 H 957.804 4.98515 -0.168738 0
M  V30 10414 H 956.958 5.70091 2.0756 0
M  V30 10415 H 955.697 4.43675 2.02494 0
M  V30 10416 H 954.702 5.49796 -0.0210864 0
M  V30 10417 H 955.927 6.79083 0.0486551 0
M  V30 10418 H 953.873 6.17752 2.20724 0
M  V30 10419 H 953.79 7.48373 1.07115 0
M  V30 10420 H 955.058 7.46016 2.26009 0
M  V30 10421 N 959.287 0.325282 1.54207 0
M  V30 10422 C 960.517 -0.278285 2.04717 0
M  V30 10423 C 960.925 -1.46198 1.20095 0
M  V30 10424 O 960.268 -1.82319 0.224813 0
M  V30 10425 C 960.33 -0.774387 3.51061 0
M  V30 10426 C 959.994 0.287225 4.56096 0
M  V30 10427 C 960.991 1.12388 5.07607 0
M  V30 10428 C 958.676 0.435908 5.00405 0
M  V30 10429 C 960.67 2.09492 6.0199 0
M  V30 10430 C 958.357 1.41037 5.94602 0
M  V30 10431 C 959.355 2.23834 6.45281 0
M  V30 10432 O 959.043 3.19625 7.37628 0
M  V30 10433 H 958.775 -0.0608309 0.673257 0
M  V30 10434 H 961.329 0.470049 1.99949 0
M  V30 10435 H 959.559 -1.57366 3.53232 0
M  V30 10436 H 961.248 -1.29649 3.84637 0
M  V30 10437 H 962.014 1.02 4.74153 0
M  V30 10438 H 957.893 -0.198668 4.60572 0
M  V30 10439 H 961.437 2.74157 6.4147 0
M  V30 10440 H 957.334 1.51487 6.27473 0
M  V30 10441 H 958.102 3.14884 7.55507 0
M  V30 10442 N 960.765 -1.57509 0.0534917 0
M  V30 10443 C 962.176 -1.80374 -0.481867 0
M  V30 10444 C 962.527 -0.965917 -1.70776 0
M  V30 10445 O 961.652 -0.183167 -2.15623 0
M  V30 10446 C 962.247 -3.27146 -0.880978 0
M  V30 10447 C 960.806 -3.50921 -1.3613 0
M  V30 10448 C 959.953 -2.75237 -0.337611 0
M  V30 10449 H 962.904 -1.56222 0.279353 0
M  V30 10450 H 962.925 -3.38193 -1.74373 0
M  V30 10451 H 962.437 -3.88098 0.011441 0
M  V30 10452 H 960.538 -2.95251 -2.27283 0
M  V30 10453 H 960.651 -4.59632 -1.35186 0
M  V30 10454 H 959.015 -2.41444 -0.810991 0
M  V30 10455 H 959.798 -3.38918 0.546763 0
M  V30 10456 N 962.243 0.219913 -1.56058 0
M  V30 10457 C 963.492 0.942119 -1.78345 0
M  V30 10458 C 963.805 1.85435 -0.622344 0
M  V30 10459 O 965.011 2.61533 -0.728886 0
M  V30 10460 C 963.467 1.72544 -3.15843 0
M  V30 10461 C 963.075 0.859263 -4.39682 0
M  V30 10462 C 964.819 2.43876 -3.47455 0
M  V30 10463 C 962.726 1.64003 -5.68205 0
M  V30 10464 H 961.656 0.355514 -0.664925 0
M  V30 10465 H 964.307 0.195963 -1.82451 0
M  V30 10466 H 962.689 2.51456 -3.05918 0
M  V30 10467 H 963.863 0.110562 -4.60667 0
M  V30 10468 H 962.178 0.257985 -4.156 0
M  V30 10469 H 964.775 3.02794 -4.40704 0
M  V30 10470 H 965.118 3.16843 -2.7003 0
M  V30 10471 H 965.651 1.71952 -3.58716 0
M  V30 10472 H 962.39 0.953606 -6.48526 0
M  V30 10473 H 961.91 2.3633 -5.51279 0
M  V30 10474 H 963.589 2.20028 -6.08438 0
M  V30 10475 N 963.721 1.49897 0.486681 0
M  V30 10476 C 964.651 1.7054 1.59494 0
M  V30 10477 C 965.632 0.554184 1.60819 0
M  V30 10478 O 966.817 0.791617 1.77333 0
M  V30 10479 C 963.947 1.78517 2.97908 0
M  V30 10480 C 962.901 2.93571 3.11449 0
M  V30 10481 C 962.227 2.86674 4.51356 0
M  V30 10482 C 963.527 4.34308 2.90127 0
M  V30 10483 H 965.221 2.63329 1.42472 0
M  V30 10484 H 962.767 1.2672 0.683969 0
M  V30 10485 H 964.72 1.91544 3.75352 0
M  V30 10486 H 963.444 0.823381 3.16051 0
M  V30 10487 H 962.103 2.80169 2.36433 0
M  V30 10488 H 961.751 1.88373 4.66395 0
M  V30 10489 H 961.451 3.63903 4.61355 0
M  V30 10490 H 962.975 3.01728 5.30841 0
M  V30 10491 H 964.389 4.48317 3.57331 0
M  V30 10492 H 962.786 5.12869 3.11585 0
M  V30 10493 H 963.856 4.47759 1.86119 0
M  V30 10494 N 965.199 -0.738761 1.39212 0
M  V30 10495 C 966.446 -1.49824 1.36231 0
M  V30 10496 C 966.774 -1.94453 -0.0429552 0
M  V30 10497 O 966.029 -1.6683 -1.02304 0
M  V30 10498 C 966.328 -2.75435 2.2775 0
M  V30 10499 C 965.994 -2.49694 3.75451 0
M  V30 10500 C 964.656 -2.42383 4.15697 0
M  V30 10501 C 967.008 -2.27587 4.68885 0
M  V30 10502 C 964.336 -2.11001 5.47444 0
M  V30 10503 C 966.688 -1.97723 6.00906 0
M  V30 10504 C 965.352 -1.88879 6.4022 0
M  V30 10505 H 964.622 -0.548247 0.498504 0
M  V30 10506 H 967.269 -0.848244 1.71689 0
M  V30 10507 H 965.574 -3.45159 1.85398 0
M  V30 10508 H 967.271 -3.33449 2.22739 0
M  V30 10509 H 963.861 -2.56261 3.43552 0
M  V30 10510 H 968.045 -2.32206 4.38628 0
M  V30 10511 H 963.301 -2.02673 5.76831 0
M  V30 10512 H 967.475 -1.79625 6.72836 0
M  V30 10513 H 965.102 -1.64327 7.42227 0
M  V30 10514 N 966.677 -1.24326 -0.968545 0
M  V30 10515 C 967.607 -1.05951 -2.08079 0
M  V30 10516 C 968.588 0.0272666 -1.70078 0
M  V30 10517 O 969.773 -0.139644 -1.93697 0
M  V30 10518 C 966.903 -0.662623 -3.4092 0
M  V30 10519 C 965.857 -1.69807 -3.92873 0
M  V30 10520 C 965.183 -1.15628 -5.22048 0
M  V30 10521 C 966.483 -3.09383 -4.20808 0
M  V30 10522 H 968.177 -1.98984 -2.23709 0
M  V30 10523 H 965.723 -0.958112 -1.075 0
M  V30 10524 H 967.676 -0.521071 -4.18166 0
M  V30 10525 H 966.4 0.303399 -3.25188 0
M  V30 10526 H 965.059 -1.82783 -3.17783 0
M  V30 10527 H 964.707 -0.180888 -5.02675 0
M  V30 10528 H 964.407 -1.84822 -5.57776 0
M  V30 10529 H 965.931 -1.02683 -6.01904 0
M  V30 10530 H 967.345 -2.99642 -4.88761 0
M  V30 10531 H 965.742 -3.75923 -4.67763 0
M  V30 10532 H 966.812 -3.57486 -3.27616 0
M  V30 10533 N 968.156 1.1691 -1.05688 0
M  V30 10534 C 969.403 1.87292 -0.76993 0
M  V30 10535 C 969.731 1.81339 0.703295 0
M  V30 10536 O 968.986 1.21959 1.5305 0
M  V30 10537 C 969.285 3.36578 -1.20207 0
M  V30 10538 C 968.951 3.62732 -2.67836 0
M  V30 10539 C 967.613 3.69579 -3.08163 0
M  V30 10540 C 969.965 3.73803 -3.63209 0
M  V30 10541 C 967.293 3.84992 -4.42717 0
M  V30 10542 C 969.645 3.90735 -4.97503 0
M  V30 10543 C 968.309 3.95823 -5.37476 0
M  V30 10544 H 967.579 0.68535 -0.281737 0
M  V30 10545 H 970.226 1.38274 -1.32486 0
M  V30 10546 H 968.531 3.87687 -0.566222 0
M  V30 10547 H 970.228 3.89409 -0.957183 0
M  V30 10548 H 966.818 3.58031 -2.35609 0
M  V30 10549 H 971.002 3.67829 -3.3319 0
M  V30 10550 H 966.258 3.87181 -4.73182 0
M  V30 10551 H 970.432 3.98243 -5.71293 0
M  V30 10552 H 968.059 4.07518 -6.41742 0
M  V30 10553 N 969.634 0.838594 1.33437 0
M  V30 10554 C 970.564 0.286672 2.31734 0
M  V30 10555 C 971.545 -0.605451 1.5896 0
M  V30 10556 O 972.73 -0.529059 1.86854 0
M  V30 10557 C 969.86 -0.539311 3.43087 0
M  V30 10558 C 968.814 0.256997 4.27228 0
M  V30 10559 C 968.14 -0.692718 5.30194 0
M  V30 10560 C 969.44 1.47391 5.01072 0
M  V30 10561 H 971.134 1.10798 2.78144 0
M  V30 10562 H 968.68 0.534235 1.33723 0
M  V30 10563 H 970.633 -0.935724 4.1088 0
M  V30 10564 H 969.357 -1.39383 2.95364 0
M  V30 10565 H 968.016 0.634967 3.61059 0
M  V30 10566 H 967.664 -1.54363 4.78729 0
M  V30 10567 H 967.364 -0.164023 5.87371 0
M  V30 10568 H 968.888 -1.08665 6.00853 0
M  V30 10569 H 970.302 1.15067 5.61634 0
M  V30 10570 H 968.699 1.93937 5.67898 0
M  V30 10571 H 969.769 2.24382 4.29861 0
M  V30 10572 N 971.112 -1.45937 0.595003 0
M  V30 10573 C 972.042 -2.33198 -0.11871 0
M  V30 10574 C 973.023 -1.46083 -0.871423 0
M  V30 10575 O 974.208 -1.74879 -0.844461 0
M  V30 10576 C 971.338 -3.28576 -1.12495 0
M  V30 10577 C 970.292 -4.25229 -0.486275 0
M  V30 10578 C 969.618 -5.10204 -1.59986 0
M  V30 10579 C 970.918 -5.19019 0.584473 0
M  V30 10580 H 972.612 -2.93122 0.609886 0
M  V30 10581 H 970.158 -1.40951 0.294742 0
M  V30 10582 H 972.111 -3.88485 -1.6327 0
M  V30 10583 H 970.835 -2.66784 -1.88398 0
M  V30 10584 H 969.494 -3.666 0.000507962 0
M  V30 10585 H 969.142 -4.44789 -2.34886 0
M  V30 10586 H 968.842 -5.75669 -1.1781 0
M  V30 10587 H 970.366 -5.7298 -2.11014 0
M  V30 10588 H 971.78 -5.73073 0.161297 0
M  V30 10589 H 970.177 -5.92893 0.927256 0
M  V30 10590 H 971.247 -4.62208 1.46601 0
M  V30 10591 N 972.59 -0.333456 -1.54032 0
M  V30 10592 C 973.839 0.267081 -1.99924 0
M  V30 10593 C 974.152 1.52463 -1.22534 0
M  V30 10594 O 975.358 2.20178 -1.58852 0
M  V30 10595 C 973.814 0.526456 -3.56029 0
M  V30 10596 C 973.422 -0.714607 -4.42264 0
M  V30 10597 C 975.166 1.0864 -4.10363 0
M  V30 10598 C 973.073 -0.42659 -5.89859 0
M  V30 10599 H 972.003 0.103577 -0.746852 0
M  V30 10600 H 974.654 -0.447218 -1.77967 0
M  V30 10601 H 973.036 1.3012 -3.74012 0
M  V30 10602 H 974.21 -1.48968 -4.36056 0
M  V30 10603 H 972.525 -1.19547 -3.9887 0
M  V30 10604 H 975.122 1.31668 -5.18235 0
M  V30 10605 H 975.465 2.03884 -3.62956 0
M  V30 10606 H 975.998 0.37261 -3.96051 0
M  V30 10607 H 972.737 -1.34847 -6.4148 0
M  V30 10608 H 972.257 0.310588 -5.98995 0
M  V30 10609 H 973.936 -0.0400807 -6.46988 0
M  V30 10610 N 974.068 1.57479 -0.061844 0
M  V30 10611 C 975.296 1.97429 0.618837 0
M  V30 10612 C 975.711 0.939826 1.63746 0
M  V30 10613 O 975.068 -0.0747173 1.82347 0
M  V30 10614 C 975.119 3.3746 1.29628 0
M  V30 10615 O 974.84 4.36941 0.318431 0
M  V30 10616 C 976.341 3.92228 2.06572 0
M  V30 10617 H 973.561 0.649513 0.168444 0
M  V30 10618 H 976.105 2.04078 -0.131303 0
M  V30 10619 H 974.26 3.31928 1.99757 0
M  V30 10620 H 974.674 5.18313 0.803239 0
M  V30 10621 H 976.148 4.92458 2.49377 0
M  V30 10622 H 976.625 3.28231 2.91824 0
M  V30 10623 H 977.231 4.01131 1.4133 0
M  V30 10624 N 975.546 -0.211634 1.56173 0
M  V30 10625 C 976.776 -0.949805 1.83473 0
M  V30 10626 C 977.184 -1.78045 0.640053 0
M  V30 10627 O 976.527 -1.79277 -0.400702 0
M  V30 10628 C 976.589 -1.90868 3.04647 0
M  V30 10629 C 976.253 -1.26159 4.39241 0
M  V30 10630 C 977.25 -0.646597 5.15863 0
M  V30 10631 C 974.935 -1.27039 4.85969 0
M  V30 10632 C 976.929 -0.0490313 6.37381 0
M  V30 10633 C 974.616 -0.668987 6.07427 0
M  V30 10634 C 975.614 -0.0593687 6.82974 0
M  V30 10635 O 975.302 0.532656 8.02133 0
M  V30 10636 H 975.034 -0.283458 0.6137 0
M  V30 10637 H 977.588 -0.22894 2.0412 0
M  V30 10638 H 975.818 -2.6688 2.79843 0
M  V30 10639 H 977.507 -2.51323 3.18734 0
M  V30 10640 H 978.273 -0.632056 4.80864 0
M  V30 10641 H 974.152 -1.73429 4.27134 0
M  V30 10642 H 977.696 0.427414 6.96289 0
M  V30 10643 H 973.593 -0.680975 6.41898 0
M  V30 10644 H 974.361 0.427942 8.17381 0
M  V30 10645 N 977.024 -1.50153 -0.478725 0
M  V30 10646 C 978.27 -1.60998 -1.23318 0
M  V30 10647 C 978.603 -0.305868 -1.91776 0
M  V30 10648 O 977.878 0.692158 -1.81767 0
M  V30 10649 C 978.161 -2.78495 -2.28282 0
M  V30 10650 C 978.014 -4.18767 -1.64178 0
M  V30 10651 C 979.333 -2.91569 -3.2966 0
M  V30 10652 H 976.452 -0.585983 -0.446982 0
M  V30 10653 H 979.094 -1.82514 -0.528063 0
M  V30 10654 H 977.244 -2.60281 -2.8842 0
M  V30 10655 H 978.916 -4.48552 -1.07696 0
M  V30 10656 H 977.159 -4.23379 -0.94514 0
M  V30 10657 H 977.83 -4.96894 -2.40417 0
M  V30 10658 H 980.306 -3.08219 -2.79536 0
M  V30 10659 H 979.182 -3.75419 -4.0044 0
M  V30 10660 H 979.443 -2.01859 -3.93326 0
M  V30 10661 N 978.502 0.731368 -1.39602 0
M  V30 10662 C 979.751 1.48647 -1.36334 0
M  V30 10663 C 980.064 1.95565 0.0367383 0
M  V30 10664 O 981.27 2.7082 0.192017 0
M  V30 10665 C 979.726 2.68616 -2.39528 0
M  V30 10666 C 979.334 2.28632 -3.85268 0
M  V30 10667 C 981.078 3.46422 -2.45341 0
M  V30 10668 C 978.985 3.45345 -4.80095 0
M  V30 10669 H 977.915 0.558218 -0.506861 0
M  V30 10670 H 980.566 0.797467 -1.65266 0
M  V30 10671 H 978.948 3.39609 -2.03671 0
M  V30 10672 H 980.122 1.65162 -4.30184 0
M  V30 10673 H 978.437 1.63909 -3.82783 0
M  V30 10674 H 981.034 4.33241 -3.13379 0
M  V30 10675 H 981.377 3.8914 -1.47904 0
M  V30 10676 H 981.91 2.82461 -2.80108 0
M  V30 10677 H 978.649 3.07674 -5.78807 0
M  V30 10678 H 978.169 4.07784 -4.39855 0
M  V30 10679 H 979.848 4.1163 -4.99169 0
M  V30 10680 N 979.98 1.24838 0.961938 0
M  V30 10681 C 980.91 1.07053 2.07514 0
M  V30 10682 C 981.891 -0.0182465 1.7009 0
M  V30 10683 O 983.076 0.149915 1.9362 0
M  V30 10684 C 980.206 0.680693 3.40564 0
M  V30 10685 C 979.16 1.71889 3.91967 0
M  V30 10686 C 978.486 1.18395 5.21428 0
M  V30 10687 C 979.786 3.1161 4.19161 0
M  V30 10688 H 981.48 2.00167 2.22651 0
M  V30 10689 H 979.026 0.963799 1.0699 0
M  V30 10690 H 980.979 0.54324 4.17884 0
M  V30 10691 H 979.703 -0.28615 3.25344 0
M  V30 10692 H 978.362 1.84465 3.16809 0
M  V30 10693 H 978.01 0.207543 5.02572 0
M  V30 10694 H 977.71 1.87778 5.56788 0
M  V30 10695 H 979.234 1.05873 6.01351 0
M  V30 10696 H 980.648 3.0223 4.87165 0
M  V30 10697 H 979.045 3.78398 4.65763 0
M  V30 10698 H 980.115 3.59218 3.25715 0
M  V30 10699 N 981.458 -1.16348 1.06306 0
M  V30 10700 C 982.686 -1.90782 0.800614 0
M  V30 10701 C 983.101 -1.77439 -0.645033 0
M  V30 10702 O 982.458 -1.11912 -1.4416 0
M  V30 10703 C 982.509 -3.41484 1.18621 0
M  V30 10704 O 982.23 -3.54428 2.57512 0
M  V30 10705 C 983.731 -4.32968 0.951525 0
M  V30 10706 H 980.951 -0.604977 0.290247 0
M  V30 10707 H 983.495 -1.47476 1.41672 0
M  V30 10708 H 981.65 -3.82493 0.614633 0
M  V30 10709 H 982.064 -4.4788 2.72954 0
M  V30 10710 H 983.538 -5.37169 1.27095 0
M  V30 10711 H 984.015 -4.39055 -0.112734 0
M  V30 10712 H 984.621 -3.97687 1.50749 0
M  V30 10713 N 982.937 -0.845659 -1.3299 0
M  V30 10714 C 984.184 -0.444653 -1.97558 0
M  V30 10715 C 984.512 0.997682 -1.66963 0
M  V30 10716 O 983.767 1.71349 -0.94541 0
M  V30 10717 C 984.066 -0.6201 -3.51979 0
M  V30 10718 C 983.732 -2.03155 -4.02541 0
M  V30 10719 C 982.394 -2.4176 -4.16059 0
M  V30 10720 C 984.746 -2.95317 -4.29462 0
M  V30 10721 C 982.074 -3.71818 -4.53837 0
M  V30 10722 C 984.426 -4.24863 -4.68694 0
M  V30 10723 C 983.09 -4.63416 -4.80419 0
M  V30 10724 H 982.36 -0.16271 -0.722915 0
M  V30 10725 H 985.007 -1.07399 -1.58549 0
M  V30 10726 H 983.312 0.092513 -3.91691 0
M  V30 10727 H 985.009 -0.290012 -3.9995 0
M  V30 10728 H 981.599 -1.72174 -3.92497 0
M  V30 10729 H 985.783 -2.66726 -4.18534 0
M  V30 10730 H 981.039 -4.01484 -4.61108 0
M  V30 10731 H 985.213 -4.96347 -4.8848 0
M  V30 10732 H 982.84 -5.6424 -5.09448 0
M  V30 10733 N 984.415 1.45619 -0.602734 0
M  V30 10734 C 985.661 2.02572 -0.0961759 0
M  V30 10735 C 985.994 1.47076 1.26815 0
M  V30 10736 O 985.269 0.643566 1.83544 0
M  V30 10737 C 985.552 3.60062 -0.0520032 0
M  V30 10738 C 985.405 4.25901 -1.44665 0
M  V30 10739 C 986.724 4.35446 0.638342 0
M  V30 10740 H 983.843 0.736099 -0.0364238 0
M  V30 10741 H 986.485 1.7353 -0.773776 0
M  V30 10742 H 984.635 3.84936 0.525032 0
M  V30 10743 H 986.307 4.12228 -2.0704 0
M  V30 10744 H 984.55 3.84489 -2.00874 0
M  V30 10745 H 985.221 5.34779 -1.36803 0
M  V30 10746 H 987.697 4.15837 0.147926 0
M  V30 10747 H 986.573 5.45176 0.63834 0
M  V30 10748 H 986.834 4.07962 1.70351 0
M  V30 10749 N 985.893 0.34162 1.53853 0
M  V30 10750 C 986.823 -0.508431 2.27897 0
M  V30 10751 C 987.804 -1.10425 1.29384 0
M  V30 10752 O 988.989 -1.126 1.58224 0
M  V30 10753 C 986.119 -1.66048 3.05034 0
M  V30 10754 C 985.073 -1.19309 4.11035 0
M  V30 10755 C 984.399 -2.4335 4.76114 0
M  V30 10756 C 985.699 -0.294952 5.21467 0
M  V30 10757 H 987.393 0.109251 2.99201 0
M  V30 10758 H 984.939 0.0539847 1.43899 0
M  V30 10759 H 986.892 -2.26158 3.5557 0
M  V30 10760 H 985.616 -2.30503 2.31379 0
M  V30 10761 H 984.275 -0.614809 3.61408 0
M  V30 10762 H 983.923 -3.06208 3.99056 0
M  V30 10763 H 983.623 -2.1276 5.47729 0
M  V30 10764 H 985.147 -3.0419 5.29434 0
M  V30 10765 H 986.561 -0.80285 5.67651 0
M  V30 10766 H 984.958 -0.0810221 6.00045 0
M  V30 10767 H 986.028 0.669433 4.80257 0
M  V30 10768 N 987.371 -1.57444 0.0701946 0
M  V30 10769 C 988.301 -2.15659 -0.895176 0
M  V30 10770 C 989.282 -1.08321 -1.31151 0
M  V30 10771 O 990.467 -1.36349 -1.38284 0
M  V30 10772 C 987.597 -2.71693 -2.16334 0
M  V30 10773 C 986.551 -3.84183 -1.88645 0
M  V30 10774 C 985.877 -4.26814 -3.22078 0
M  V30 10775 C 987.177 -5.08493 -1.19299 0
M  V30 10776 H 988.871 -2.96576 -0.410217 0
M  V30 10777 H 986.417 -1.42662 -0.195872 0
M  V30 10778 H 988.37 -3.11064 -2.84284 0
M  V30 10779 H 987.094 -1.87994 -2.67069 0
M  V30 10780 H 985.753 -3.45314 -1.23101 0
M  V30 10781 H 985.401 -3.40039 -3.70651 0
M  V30 10782 H 985.101 -5.02642 -3.04344 0
M  V30 10783 H 986.625 -4.68799 -3.91228 0
M  V30 10784 H 988.039 -5.4519 -1.77316 0
M  V30 10785 H 986.436 -5.89588 -1.11828 0
M  V30 10786 H 987.506 -4.84595 -0.171839 0
M  V30 10787 N 988.849 0.203349 -1.56283 0
M  V30 10788 C 989.779 1.2549 -1.96912 0
M  V30 10789 C 990.76 1.47919 -0.839884 0
M  V30 10790 O 991.945 1.59795 -1.10359 0
M  V30 10791 C 989.075 2.6009 -2.30153 0
M  V30 10792 C 988.029 2.52289 -3.45738 0
M  V30 10793 C 987.355 3.91086 -3.64632 0
M  V30 10794 C 988.655 2.05503 -4.80173 0
M  V30 10795 H 990.349 0.917306 -2.85002 0
M  V30 10796 H 987.895 0.439818 -1.37119 0
M  V30 10797 H 989.848 3.33829 -2.5717 0
M  V30 10798 H 988.572 2.95574 -1.38937 0
M  V30 10799 H 987.231 1.81006 -3.18798 0
M  V30 10800 H 986.879 4.23908 -2.7076 0
M  V30 10801 H 986.579 3.86742 -4.42385 0
M  V30 10802 H 988.103 4.66459 -3.94016 0
M  V30 10803 H 989.517 2.68995 -5.06275 0
M  V30 10804 H 987.914 2.1218 -5.61337 0
M  V30 10805 H 988.984 1.00793 -4.74309 0
M  V30 10806 N 990.327 1.50405 0.470755 0
M  V30 10807 C 991.275 1.6982 1.58946 0
M  V30 10808 C 992.269 0.56407 1.59733 0
M  V30 10809 O 993.475 0.744576 1.63878 0
M  V30 10810 H 989.85 0.536016 0.527438 0
M  V30 10811 H 991.821 2.63662 1.39732 0
M  V30 10812 C 990.57 1.80986 2.96883 0
M  V30 10813 H 989.893 2.67645 2.96996 0
M  V30 10814 H 991.333 1.98596 3.74614 0
M  V30 10815 C 989.792 0.561551 3.32187 0
M  V30 10816 O 990.322 -0.299136 4.00585 0
M  V30 10817 N 988.528 0.415476 2.87615 0
M  V30 10818 H 988.075 1.11691 2.32127 0
M  V30 10819 H 988.033 -0.418592 3.11601 0
M  V30 10820 N 991.805 -0.723954 1.39988 0
M  V30 10821 C 992.738 -1.84725 1.33985 0
M  V30 10822 C 993.716 -1.61217 0.211623 0
M  V30 10823 O 994.9 -1.84338 0.393905 0
M  V30 10824 C 992.027 -3.20913 1.08317 0
M  V30 10825 C 991.073 -3.63262 2.23478 0
M  V30 10826 S 991.906 -3.71346 3.85827 0
M  V30 10827 C 993.062 -5.10307 3.62405 0
M  V30 10828 H 993.295 -1.89535 2.2905 0
M  V30 10829 H 990.828 -0.889911 1.26174 0
M  V30 10830 H 992.786 -3.99547 0.941921 0
M  V30 10831 H 991.447 -3.13745 0.149203 0
M  V30 10832 H 990.64 -4.62124 2.01139 0
M  V30 10833 H 990.242 -2.91863 2.33863 0
M  V30 10834 H 992.534 -5.96975 3.20354 0
M  V30 10835 H 993.477 -5.37679 4.60768 0
M  V30 10836 H 993.885 -4.80505 2.96269 0
M  V30 10837 N 993.283 -1.25346 -0.955304 0
M  V30 10838 C 994.213 -1.08152 -2.06943 0
M  V30 10839 C 995.194 0.00922598 -1.70097 0
M  V30 10840 O 996.379 -0.160181 -1.93538 0
M  V30 10841 C 993.509 -0.698745 -3.40198 0
M  V30 10842 C 992.463 -1.73965 -3.9105 0
M  V30 10843 C 991.789 -1.21158 -5.20792 0
M  V30 10844 C 993.089 -3.13829 -4.17503 0
M  V30 10845 H 994.783 -2.01345 -2.21586 0
M  V30 10846 H 992.329 -0.969459 -1.06478 0
M  V30 10847 H 994.282 -0.565394 -4.1759 0
M  V30 10848 H 993.006 0.268892 -3.25491 0
M  V30 10849 H 991.665 -1.86143 -3.15827 0
M  V30 10850 H 991.313 -0.234193 -5.02455 0
M  V30 10851 H 991.013 -1.90728 -5.55785 0
M  V30 10852 H 992.537 -1.09061 -6.00781 0
M  V30 10853 H 993.951 -3.04809 -4.85556 0
M  V30 10854 H 992.348 -3.80863 -4.63749 0
M  V30 10855 H 993.418 -3.6094 -3.23806 0
M  V30 10856 N 994.761 1.15782 -1.06922 0
M  V30 10857 C 996.01 1.85807 -0.784774 0
M  V30 10858 C 996.323 1.82967 0.691551 0
M  V30 10859 O 997.529 2.48632 1.0906 0
M  V30 10860 C 995.985 3.33469 -1.35375 0
M  V30 10861 C 995.593 3.44766 -2.86077 0
M  V30 10862 C 997.337 4.08707 -1.14713 0
M  V30 10863 C 995.244 4.86551 -3.36187 0
M  V30 10864 H 994.174 0.696046 -0.28989 0
M  V30 10865 H 996.825 1.30629 -1.28873 0
M  V30 10866 H 995.207 3.88292 -0.77754 0
M  V30 10867 H 996.381 3.00073 -3.49704 0
M  V30 10868 H 994.696 2.82969 -3.05479 0
M  V30 10869 H 997.293 5.13336 -1.49633 0
M  V30 10870 H 997.636 4.16211 -0.0858868 0
M  V30 10871 H 998.169 3.60142 -1.68946 0
M  V30 10872 H 994.908 4.84229 -4.41818 0
M  V30 10873 H 994.428 5.31844 -2.77312 0
M  V30 10874 H 996.107 5.55392 -3.31887 0
M  V30 10875 N 996.239 0.8527 1.3254 0
M  V30 10876 C 997.202 0.300959 2.27215 0
M  V30 10877 C 998.202 -0.538235 1.51525 0
M  V30 10878 O 999.392 -0.350027 1.70647 0
M  V30 10879 C 996.524 -0.574428 3.36025 0
M  V30 10880 H 997.717 1.13655 2.77529 0
M  V30 10881 H 995.27 0.626878 1.43178 0
M  V30 10882 H 996.005 -1.43191 2.90976 0
M  V30 10883 H 995.79 0.0262265 3.92091 0
M  V30 10884 H 997.28 -0.9533 4.06573 0
M  V30 10885 N 997.718 -1.45297 0.610449 0
M  V30 10886 C 998.648 -2.33311 -0.0939698 0
M  V30 10887 C 999.629 -1.46999 -0.85588 0
M  V30 10888 O 1000.81 -1.75764 -0.825865 0
M  V30 10889 C 997.944 -3.29751 -1.09003 0
M  V30 10890 C 996.898 -4.2572 -0.441146 0
M  V30 10891 C 996.224 -5.11873 -1.54566 0
M  V30 10892 C 997.524 -5.1837 0.639489 0
M  V30 10893 H 999.218 -2.92459 0.640941 0
M  V30 10894 H 996.764 -1.40631 0.309675 0
M  V30 10895 H 998.717 -3.90195 -1.59141 0
M  V30 10896 H 997.441 -2.68768 -1.85557 0
M  V30 10897 H 996.1 -3.66579 0.0393908 0
M  V30 10898 H 995.748 -4.47256 -2.30155 0
M  V30 10899 H 995.448 -5.76886 -1.11698 0
M  V30 10900 H 996.972 -5.75185 -2.04925 0
M  V30 10901 H 998.386 -5.7287 0.22207 0
M  V30 10902 H 996.783 -5.91876 0.990089 0
M  V30 10903 H 997.853 -4.60627 1.51495 0
M  V30 10904 N 999.196 -0.349774 -1.5367 0
M  V30 10905 C 1000.13 0.547309 -2.2154 0
M  V30 10906 C 1001.11 1.09543 -1.20163 0
M  V30 10907 O 1002.29 1.15453 -1.49006 0
M  V30 10908 C 999.418 1.75356 -2.89772 0
M  V30 10909 C 998.464 1.33433 -4.0509 0
M  V30 10910 S 999.297 0.348891 -5.34362 0
M  V30 10911 C 1000.45 1.56183 -6.061 0
M  V30 10912 H 1000.69 -0.0291392 -2.97286 0
M  V30 10913 H 998.219 -0.133853 -1.53819 0
M  V30 10914 H 1000.18 2.44555 -3.29701 0
M  V30 10915 H 998.838 2.30123 -2.1378 0
M  V30 10916 H 998.031 2.23388 -4.5179 0
M  V30 10917 H 997.633 0.721746 -3.6697 0
M  V30 10918 H 999.925 2.49535 -6.29872 0
M  V30 10919 H 1000.87 1.13651 -6.9892 0
M  V30 10920 H 1001.28 1.76071 -5.36339 0
M  V30 10921 N 1000.67 1.57404 -0.0785433 0
M  V30 10922 C 1001.92 1.93361 0.58786 0
M  V30 10923 C 1002.24 0.959856 1.6974 0
M  V30 10924 O 1001.51 0.0091173 1.95898 0
M  V30 10925 H 1000.09 0.713825 0.220141 0
M  V30 10926 H 1002.75 1.94411 -0.137986 0
M  V30 10927 H 1001.85 2.95346 1.00881 0
M  V30 10928 N 1002.15 -0.195058 1.56388 0
M  V30 10929 C 1003.06 -1.26219 1.97752 0
M  V30 10930 C 1004.08 -1.49801 0.885192 0
M  V30 10931 O 1005.25 -1.62415 1.19094 0
M  V30 10932 C 1002.32 -2.5865 2.3087 0
M  V30 10933 C 1001.38 -2.4314 3.5381 0
M  V30 10934 C 1000.61 -3.69255 3.85339 0
M  V30 10935 O 1000.84 -4.73425 3.18159 0
M  V30 10936 O 999.77 -3.64782 4.78767 0
M  V30 10937 H 1003.6 -0.941161 2.88749 0
M  V30 10938 H 1001.18 -0.40006 1.43944 0
M  V30 10939 H 1003.06 -3.36814 2.53247 0
M  V30 10940 H 1001.74 -2.9038 1.43042 0
M  V30 10941 H 1000.64 -1.63086 3.3668 0
M  V30 10942 H 1001.98 -2.16341 4.42105 0
M  V30 10943 N 1003.63 -1.50653 -0.462772 0
M  V30 10944 C 1004.86 -1.65826 -1.23731 0
M  V30 10945 C 1005.27 -0.345002 -1.85621 0
M  V30 10946 O 1004.63 0.673935 -1.69601 0
M  V30 10947 C 1004.68 -2.7555 -2.33997 0
M  V30 10948 O 1004.4 -4.01785 -1.74643 0
M  V30 10949 C 1005.9 -3.0177 -3.2473 0
M  V30 10950 H 1003.12 -0.557177 -0.373892 0
M  V30 10951 H 1005.67 -1.96925 -0.551434 0
M  V30 10952 H 1003.82 -2.47122 -2.98345 0
M  V30 10953 H 1004.24 -4.62529 -2.4732 0
M  V30 10954 H 1005.71 -3.82188 -3.98292 0
M  V30 10955 H 1006.19 -2.13167 -3.84001 0
M  V30 10956 H 1006.79 -3.31761 -2.66111 0
M  V30 10957 N 1005.11 0.71652 -1.4037 0
M  V30 10958 C 1006.35 1.47857 -1.38803 0
M  V30 10959 C 1006.69 1.94197 0.0100536 0
M  V30 10960 O 1005.96 1.68093 0.978521 0
M  V30 10961 C 1006.25 2.7053 -2.37667 0
M  V30 10962 C 1006.1 2.3009 -3.86496 0
M  V30 10963 C 1007.42 3.72684 -2.34082 0
M  V30 10964 H 1004.54 0.53632 -0.505499 0
M  V30 10965 H 1007.18 0.817824 -1.71498 0
M  V30 10966 H 1005.33 3.26906 -2.09916 0
M  V30 10967 H 1007 1.79202 -4.2507 0
M  V30 10968 H 1005.24 1.62102 -4.02375 0
M  V30 10969 H 1005.91 3.18018 -4.51186 0
M  V30 10970 H 1008.39 3.25935 -2.58661 0
M  V30 10971 H 1007.27 4.56157 -3.05306 0
M  V30 10972 H 1007.53 4.20916 -1.35213 0
M  V30 10973 N 1006.59 1.25851 0.948643 0
M  V30 10974 C 1007.5 1.08516 2.07994 0
M  V30 10975 C 1008.51 0.0206696 1.73988 0
M  V30 10976 O 1009.69 0.222854 2.00163 0
M  V30 10977 C 1006.75 0.712145 3.39307 0
M  V30 10978 C 1005.81 1.85523 3.87143 0
M  V30 10979 C 1005.05 1.49992 5.1219 0
M  V30 10980 O 1005.27 0.398268 5.69008 0
M  V30 10981 O 1004.2 2.33215 5.54882 0
M  V30 10982 H 1008.03 2.03405 2.25522 0
M  V30 10983 H 1005.62 1.04844 1.06433 0
M  V30 10984 H 1007.5 0.516512 4.18223 0
M  V30 10985 H 1006.17 -0.207416 3.23035 0
M  V30 10986 H 1005.08 2.10578 3.09205 0
M  V30 10987 H 1006.41 2.75425 4.07924 0
M  V30 10988 N 1008.06 -1.15214 1.07534 0
M  V30 10989 C 1009.01 -2.22078 0.69168 0
M  V30 10990 C 1010.01 -1.66751 -0.298382 0
M  V30 10991 O 1011.21 -1.7927 -0.161897 0
M  V30 10992 H 1007.59 -0.723347 0.205604 0
M  V30 10993 H 1009.56 -2.51716 1.60256 0
M  V30 10994 C 1008.31 -3.47534 0.107546 0
M  V30 10995 H 1007.63 -3.90429 0.860522 0
M  V30 10996 H 1009.07 -4.23821 -0.123215 0
M  V30 10997 C 1007.53 -3.16583 -1.15226 0
M  V30 10998 O 1008.06 -3.33551 -2.23845 0
M  V30 10999 N 1006.27 -2.70611 -1.05915 0
M  V30 11000 H 1005.81 -2.57004 -0.175198 0
M  V30 11001 H 1005.77 -2.50277 -1.90287 0
M  V30 11002 N 1009.54 -0.859717 -1.32086 0
M  V30 11003 C 1010.79 -0.466271 -1.97367 0
M  V30 11004 C 1011.12 0.976728 -1.6785 0
M  V30 11005 O 1010.4 1.68618 -0.969449 0
M  V30 11006 C 1010.68 -0.711851 -3.52994 0
M  V30 11007 C 1010.53 -2.20364 -3.92122 0
M  V30 11008 C 1011.85 -0.17156 -4.39765 0
M  V30 11009 H 1008.97 -0.170883 -0.716916 0
M  V30 11010 H 1011.61 -1.07907 -1.56384 0
M  V30 11011 H 1009.76 -0.190258 -3.88034 0
M  V30 11012 H 1011.43 -2.7917 -3.67236 0
M  V30 11013 H 1009.68 -2.68019 -3.41099 0
M  V30 11014 H 1010.35 -2.32615 -5.00594 0
M  V30 11015 H 1012.82 -0.617665 -4.1149 0
M  V30 11016 H 1011.7 -0.372921 -5.47632 0
M  V30 11017 H 1011.96 0.925959 -4.32294 0
M  V30 11018 N 1011.02 1.44971 -0.618145 0
M  V30 11019 C 1012.25 2.07039 -0.122395 0
M  V30 11020 C 1012.67 1.45793 1.18853 0
M  V30 11021 O 1012.03 0.55453 1.72611 0
M  V30 11022 C 1012.08 3.60599 -0.0073864 0
M  V30 11023 O 1011.18 3.99069 1.04007 0
M  V30 11024 H 1010.52 0.6593 -0.0788615 0
M  V30 11025 H 1013.05 1.86055 -0.851147 0
M  V30 11026 H 1013.06 4.07569 0.187417 0
M  V30 11027 H 1011.74 4.04561 -0.964544 0
M  V30 11028 H 1010.31 3.63753 0.820879 0
M  V30 11029 N 1012.5 0.357919 1.53482 0
M  V30 11030 C 1013.45 -0.49217 2.25491 0
M  V30 11031 C 1014.42 -1.08382 1.25867 0
M  V30 11032 O 1015.6 -1.11775 1.54632 0
M  V30 11033 C 1012.74 -1.6299 3.04185 0
M  V30 11034 C 1011.85 -1.06416 4.18688 0
M  V30 11035 C 1010.99 -2.17037 4.84839 0
M  V30 11036 C 1010.03 -1.57889 5.91386 0
M  V30 11037 N 1009.16 -2.6231 6.51259 0
M  V30 11038 H 1014 0.128412 2.97723 0
M  V30 11039 H 1011.54 0.0751423 1.46908 0
M  V30 11040 H 1013.5 -2.29993 3.48079 0
M  V30 11041 H 1012.13 -2.22125 2.34223 0
M  V30 11042 H 1011.18 -0.284635 3.79334 0
M  V30 11043 H 1012.49 -0.591654 4.95279 0
M  V30 11044 H 1011.65 -2.91876 5.31877 0
M  V30 11045 H 1010.39 -2.67636 4.07703 0
M  V30 11046 H 1009.39 -0.815605 5.43717 0
M  V30 11047 H 1010.62 -1.08123 6.70437 0
M  V30 11048 H 1008.56 -3.12137 5.7698 0
M  V30 11049 H 1008.48 -2.19724 7.23365 0
M  V30 11050 H 1009.75 -3.36875 7.02948 0
M  V30 11051 N 1013.98 -1.5736 0.0868897 0
M  V30 11052 C 1014.89 -2.17087 -0.889402 0
M  V30 11053 C 1015.9 -1.13809 -1.31619 0
M  V30 11054 O 1017.08 -1.46143 -1.38579 0
M  V30 11055 C 1014.14 -2.73286 -2.13344 0
M  V30 11056 C 1013.2 -3.91491 -1.76164 0
M  V30 11057 C 1012.44 -4.45 -2.94637 0
M  V30 11058 O 1012.66 -3.97467 -4.09116 0
M  V30 11059 O 1011.59 -5.36133 -2.73579 0
M  V30 11060 H 1015.42 -3.00902 -0.411275 0
M  V30 11061 H 1013.01 -1.4877 -0.137015 0
M  V30 11062 H 1014.89 -3.0924 -2.86266 0
M  V30 11063 H 1013.56 -1.92521 -2.60225 0
M  V30 11064 H 1012.47 -3.60363 -1.00447 0
M  V30 11065 H 1013.8 -4.73593 -1.34053 0
M  V30 11066 N 1015.45 0.186762 -1.56489 0
M  V30 11067 C 1016.68 0.925916 -1.85584 0
M  V30 11068 C 1017.1 1.75708 -0.671446 0
M  V30 11069 O 1016.46 1.7728 0.379687 0
M  V30 11070 C 1016.51 1.79107 -3.12975 0
M  V30 11071 O 1015.61 2.89088 -2.94112 0
M  V30 11072 H 1014.96 0.260275 -0.610863 0
M  V30 11073 H 1017.49 0.189561 -2.0372 0
M  V30 11074 H 1017.5 2.19408 -3.43983 0
M  V30 11075 H 1016.17 1.18044 -3.98796 0
M  V30 11076 H 1014.75 2.52482 -2.74422 0
M  V30 11077 N 1016.93 1.50896 0.454776 0
M  V30 11078 C 1017.84 1.73762 1.5762 0
M  V30 11079 C 1018.86 0.621206 1.62533 0
M  V30 11080 O 1020.03 0.901449 1.801 0
M  V30 11081 C 1017.1 1.84183 2.9373 0
M  V30 11082 C 1016.16 3.07982 2.99075 0
M  V30 11083 C 1015.39 3.17896 4.28693 0
M  V30 11084 O 1015.62 2.34184 5.20109 0
M  V30 11085 O 1014.55 4.10749 4.39964 0
M  V30 11086 H 1018.38 2.68856 1.41245 0
M  V30 11087 H 1015.96 1.35187 0.635984 0
M  V30 11088 H 1017.84 1.93123 3.74542 0
M  V30 11089 H 1016.52 0.922742 3.10269 0
M  V30 11090 H 1015.43 3.04531 2.17282 0
M  V30 11091 H 1016.76 3.99523 2.87476 0
M  V30 11092 N 1018.41 -0.709066 1.40748 0
M  V30 11093 C 1019.83 -1.01797 1.22921 0
M  V30 11094 C 1020.03 -2.01205 0.109011 0
M  V30 11095 O 1019.08 -2.46854 -0.530987 0
M  V30 11096 C 1020.4 -1.55546 2.57344 0
M  V30 11097 C 1021.94 -1.67498 2.64412 0
M  V30 11098 C 1022.42 -2.24652 3.99119 0
M  V30 11099 N 1023.91 -2.3203 4.00895 0
M  V30 11100 C 1024.64 -2.7725 5.01917 0
M  V30 11101 N 1024.14 -3.22174 6.13332 0
M  V30 11102 N 1025.93 -2.76692 4.89283 0
M  V30 11103 H 1018.08 -0.0502704 2.12341 0
M  V30 11104 H 1020.35 -0.0848933 0.944191 0
M  V30 11105 H 1020.05 -0.899631 3.39999 0
M  V30 11106 H 1019.93 -2.53971 2.78888 0
M  V30 11107 H 1022.31 -2.32196 1.82123 0
M  V30 11108 H 1022.4 -0.676553 2.46691 0
M  V30 11109 H 1022.04 -1.60573 4.81849 0
M  V30 11110 H 1021.97 -3.25221 4.14173 0
M  V30 11111 H 1024.46 -2.00309 3.20444 0
M  V30 11112 H 1024.77 -3.55265 6.86299 0
M  V30 11113 H 1023.12 -3.20116 6.16888 0
M  V30 11114 H 1026.31 -2.40936 4.01332 0
M  V30 11115 H 1026.48 -3.11617 5.68154 0
M  V30 11116 N 1019.89 -1.26353 -0.941956 0
M  V30 11117 C 1021.14 -1.11241 -1.68251 0
M  V30 11118 C 1021.45 0.344055 -1.9255 0
M  V30 11119 O 1022.66 0.615832 -2.64423 0
M  V30 11120 C 1021.11 -1.94269 -3.02965 0
M  V30 11121 C 1020.72 -3.44485 -2.86415 0
M  V30 11122 C 1022.47 -1.87764 -3.80716 0
M  V30 11123 C 1020.37 -4.19763 -4.16597 0
M  V30 11124 H 1019.3 -0.412694 -0.63103 0
M  V30 11125 H 1021.95 -1.50656 -1.04762 0
M  V30 11126 H 1020.34 -1.47687 -3.6743 0
M  V30 11127 H 1021.51 -3.9883 -2.30805 0
M  V30 11128 H 1019.82 -3.52218 -2.22107 0
M  V30 11129 H 1022.42 -2.41292 -4.77161 0
M  V30 11130 H 1022.76 -0.848195 -4.07568 0
M  V30 11131 H 1023.3 -2.32165 -3.23024 0
M  V30 11132 H 1020.04 -5.23173 -3.9493 0
M  V30 11133 H 1019.56 -3.70198 -4.71925 0
M  V30 11134 H 1021.24 -4.28168 -4.85058 0
M  V30 11135 N 1021.37 1.14642 -1.08144 0
M  V30 11136 C 1022.61 1.86115 -0.820533 0
M  V30 11137 C 1022.97 1.81208 0.646635 0
M  V30 11138 O 1022.26 1.22997 1.46909 0
M  V30 11139 C 1022.46 3.33953 -1.2732 0
M  V30 11140 C 1022.28 3.53254 -2.78283 0
M  V30 11141 C 1021.05 3.68259 -3.45996 0
M  V30 11142 C 1023.25 3.504 -3.76463 0
M  V30 11143 N 1021.23 3.75692 -4.85519 0
M  V30 11144 C 1022.61 3.64045 -5.01868 0
M  V30 11145 C 1024.66 3.33722 -3.69505 0
M  V30 11146 C 1023.36 3.62734 -6.21141 0
M  V30 11147 C 1025.39 3.33713 -4.88251 0
M  V30 11148 C 1024.75 3.47896 -6.12493 0
M  V30 11149 H 1020.85 0.697829 -0.352929 0
M  V30 11150 H 1023.43 1.3742 -1.37927 0
M  V30 11151 H 1021.61 3.81245 -0.742066 0
M  V30 11152 H 1023.34 3.93174 -0.958991 0
M  V30 11153 H 1020.09 3.69376 -2.96409 0
M  V30 11154 H 1020.52 3.83133 -5.58156 0
M  V30 11155 H 1025.16 3.2167 -2.74387 0
M  V30 11156 H 1022.88 3.73563 -7.16573 0
M  V30 11157 H 1026.46 3.22025 -4.84553 0
M  V30 11158 H 1025.34 3.47833 -7.02838 0
M  V30 11159 N 1022.85 0.866709 1.31628 0
M  V30 11160 C 1024.26 0.558188 1.49521 0
M  V30 11161 C 1024.46 -0.90844 1.7986 0
M  V30 11162 O 1023.52 -1.6908 1.87531 0
M  V30 11163 C 1024.83 1.45559 2.63122 0
M  V30 11164 C 1026.38 1.45728 2.77006 0
M  V30 11165 C 1026.85 2.34017 3.937 0
M  V30 11166 N 1028.34 2.31879 4.00982 0
M  V30 11167 C 1029.08 2.96915 4.90539 0
M  V30 11168 N 1028.58 3.71109 5.85021 0
M  V30 11169 N 1030.37 2.86241 4.83759 0
M  V30 11170 H 1022.52 1.81574 1.10203 0
M  V30 11171 H 1024.78 0.77621 0.544244 0
M  V30 11172 H 1024.49 2.49904 2.47469 0
M  V30 11173 H 1024.36 1.15174 3.59186 0
M  V30 11174 H 1026.75 0.421419 2.92075 0
M  V30 11175 H 1026.83 1.80134 1.81619 0
M  V30 11176 H 1026.47 3.37678 3.79389 0
M  V30 11177 H 1026.4 1.96937 4.88388 0
M  V30 11178 H 1028.9 1.77948 3.33381 0
M  V30 11179 H 1029.21 4.1787 6.5008 0
M  V30 11180 H 1027.55 3.75217 5.8501 0
M  V30 11181 H 1030.74 2.27819 4.08921 0
M  V30 11182 H 1030.92 3.37206 5.5335 0
M  V30 11183 N 1024.32 -1.44642 0.625825 0
M  V30 11184 C 1025.25 -2.33397 -0.0692188 0
M  V30 11185 C 1026.23 -1.47898 -0.840241 0
M  V30 11186 O 1027.42 -1.7663 -0.807176 0
M  V30 11187 C 1024.55 -3.30888 -1.055 0
M  V30 11188 C 1023.5 -4.26164 -0.395968 0
M  V30 11189 C 1022.83 -5.13483 -1.49128 0
M  V30 11190 C 1024.13 -5.17663 0.694433 0
M  V30 11191 H 1025.82 -2.91763 0.671925 0
M  V30 11192 H 1023.37 -1.40294 0.324573 0
M  V30 11193 H 1025.32 -3.91861 -1.54993 0
M  V30 11194 H 1024.05 -2.7072 -1.82696 0
M  V30 11195 H 1022.71 -3.66516 0.0782691 0
M  V30 11196 H 1022.35 -4.49672 -2.25399 0
M  V30 11197 H 1022.05 -5.78038 -1.05573 0
M  V30 11198 H 1023.58 -5.77327 -1.98813 0
M  V30 11199 H 1024.99 -5.72602 0.282818 0
M  V30 11200 H 1023.39 -5.90793 1.05281 0
M  V30 11201 H 1024.46 -4.58994 1.56372 0
M  V30 11202 N 1025.8 -0.366053 -1.5329 0
M  V30 11203 C 1026.73 0.514916 -2.23341 0
M  V30 11204 C 1027.75 1.04579 -1.24768 0
M  V30 11205 O 1028.94 0.952084 -1.50989 0
M  V30 11206 C 1026.04 1.72374 -2.91788 0
M  V30 11207 C 1025.21 1.32429 -4.16871 0
M  V30 11208 C 1024.27 2.39524 -4.68524 0
M  V30 11209 O 1023.29 2.01895 -5.32191 0
M  V30 11210 N 1024.5 3.71116 -4.46378 0
M  V30 11211 H 1027.26 -0.0851272 -2.99579 0
M  V30 11212 H 1024.82 -0.191255 -1.60766 0
M  V30 11213 H 1026.81 2.43496 -3.23252 0
M  V30 11214 H 1025.38 2.23064 -2.19 0
M  V30 11215 H 1024.6 0.442901 -3.91704 0
M  V30 11216 H 1025.89 1.03372 -4.98188 0
M  V30 11217 H 1025.29 4.04463 -3.95508 0
M  V30 11218 H 1023.85 4.38341 -4.82391 0
M  V30 11219 N 1027.28 1.57312 -0.0952337 0
M  V30 11220 C 1028.7 1.57445 0.261416 0
M  V30 11221 C 1028.9 1.10639 1.68408 0
M  V30 11222 O 1027.95 0.782912 2.40056 0
M  V30 11223 C 1029.26 3.00659 0.0497206 0
M  V30 11224 C 1030.81 3.1278 0.117459 0
M  V30 11225 C 1031.29 4.57952 -0.0662441 0
M  V30 11226 N 1032.78 4.63199 -0.0114146 0
M  V30 11227 C 1033.51 5.73255 -0.128799 0
M  V30 11228 N 1033.01 6.92146 -0.301026 0
M  V30 11229 N 1034.8 5.62056 -0.0700599 0
M  V30 11230 H 1026.95 1.86045 -1.02475 0
M  V30 11231 H 1029.22 0.858726 -0.401614 0
M  V30 11232 H 1028.92 3.39102 -0.932888 0
M  V30 11233 H 1028.8 3.68792 0.791975 0
M  V30 11234 H 1031.18 2.74209 1.09057 0
M  V30 11235 H 1031.26 2.47238 -0.656288 0
M  V30 11236 H 1030.91 4.97217 -1.03623 0
M  V30 11237 H 1030.84 5.21555 0.727198 0
M  V30 11238 H 1033.33 3.77712 0.119154 0
M  V30 11239 H 1033.64 7.71855 -0.382104 0
M  V30 11240 H 1031.99 6.94184 -0.336695 0
M  V30 11241 H 1035.18 4.68057 0.0633587 0
M  V30 11242 H 1035.35 6.4779 -0.164991 0
M  V30 11243 N 1028.76 -0.17846 1.56586 0
M  V30 11244 C 1029.72 -1.20479 1.94981 0
M  V30 11245 C 1030.72 -1.37561 0.832677 0
M  V30 11246 O 1031.91 -1.35089 1.09984 0
M  V30 11247 C 1029.04 -2.57117 2.23839 0
M  V30 11248 H 1030.24 -0.876173 2.86816 0
M  V30 11249 H 1027.79 -0.420635 1.50534 0
M  V30 11250 H 1028.52 -2.95005 1.34695 0
M  V30 11251 H 1028.31 -2.46086 3.05261 0
M  V30 11252 H 1029.8 -3.31096 2.5449 0
M  V30 11253 N 1030.24 -1.51135 -0.446768 0
M  V30 11254 C 1031.65 -1.39101 -0.782504 0
M  V30 11255 C 1031.85 -0.46599 -1.96038 0
M  V30 11256 O 1030.91 0.0823679 -2.52366 0
M  V30 11257 C 1032.22 -2.80953 -1.07173 0
M  V30 11258 C 1033.77 -2.90038 -1.17673 0
M  V30 11259 C 1034.24 -4.32777 -1.49894 0
M  V30 11260 N 1035.73 -4.3584 -1.56837 0
M  V30 11261 C 1036.47 -5.43305 -1.83322 0
M  V30 11262 N 1035.97 -6.60945 -2.07662 0
M  V30 11263 N 1037.76 -5.30775 -1.85026 0
M  V30 11264 H 1029.91 -2.09835 0.329114 0
M  V30 11265 H 1032.17 -0.944199 0.0848054 0
M  V30 11266 H 1031.88 -3.50591 -0.279037 0
M  V30 11267 H 1031.75 -3.197 -2.00179 0
M  V30 11268 H 1034.14 -2.20603 -1.96005 0
M  V30 11269 H 1034.22 -2.54801 -0.225892 0
M  V30 11270 H 1033.86 -5.02757 -0.720924 0
M  V30 11271 H 1033.79 -4.6552 -2.46168 0
M  V30 11272 H 1036.29 -3.51023 -1.39968 0
M  V30 11273 H 1036.6 -7.38643 -2.27214 0
M  V30 11274 H 1034.94 -6.64077 -2.05003 0
M  V30 11275 H 1038.13 -4.37858 -1.65523 0
M  V30 11276 H 1038.31 -6.14609 -2.05329 0
M  V30 11277 N 1031.71 0.701592 -1.41122 0
M  V30 11278 C 1032.94 1.49049 -1.43499 0
M  V30 11279 C 1033.36 1.88761 -0.0385684 0
M  V30 11280 O 1032.71 1.56384 0.940755 0
M  V30 11281 C 1032.76 2.7569 -2.33832 0
M  V30 11282 O 1032.49 2.37653 -3.68039 0
M  V30 11283 C 1033.99 3.69479 -2.44949 0
M  V30 11284 H 1031.21 0.459519 -0.488961 0
M  V30 11285 H 1033.75 0.864318 -1.85337 0
M  V30 11286 H 1031.91 3.34559 -1.95318 0
M  V30 11287 H 1032.32 3.19241 -4.16156 0
M  V30 11288 H 1033.79 4.55139 -3.12334 0
M  V30 11289 H 1034.27 4.13553 -1.47887 0
M  V30 11290 H 1034.88 3.16517 -2.84072 0
M  V30 11291 N 1033.19 1.2685 0.935242 0
M  V30 11292 C 1034.44 1.12132 1.67658 0
M  V30 11293 C 1034.75 -0.333839 1.9273 0
M  V30 11294 O 1035.96 -0.601801 2.64746 0
M  V30 11295 C 1034.42 1.95873 3.0193 0
M  V30 11296 C 1034.02 3.46 2.84584 0
M  V30 11297 C 1035.77 1.89781 3.79715 0
M  V30 11298 C 1033.67 4.21966 4.14365 0
M  V30 11299 H 1032.6 0.416035 0.628833 0
M  V30 11300 H 1035.26 1.51209 1.03962 0
M  V30 11301 H 1033.64 1.49633 3.66641 0
M  V30 11302 H 1034.81 4.00049 2.28687 0
M  V30 11303 H 1033.13 3.53391 2.20236 0
M  V30 11304 H 1035.72 2.43819 4.75875 0
M  V30 11305 H 1036.07 0.869797 4.07112 0
M  V30 11306 H 1036.6 2.33875 3.21788 0
M  V30 11307 H 1033.34 5.2526 3.9215 0
M  V30 11308 H 1032.86 3.72696 4.69955 0
M  V30 11309 H 1034.54 4.30734 4.82781 0
M  V30 11310 N 1034.67 -1.14067 1.0875 0
M  V30 11311 C 1035.6 -2.21385 0.74236 0
M  V30 11312 C 1036.58 -1.67833 -0.276805 0
M  V30 11313 O 1037.77 -1.93647 -0.1464 0
M  V30 11314 C 1034.9 -3.46956 0.154644 0
M  V30 11315 C 1033.85 -4.13555 1.10255 0
M  V30 11316 C 1033.18 -5.3337 0.376877 0
M  V30 11317 C 1034.48 -4.6169 2.44213 0
M  V30 11318 H 1036.17 -2.50512 1.63964 0
M  V30 11319 H 1033.72 -1.20408 0.789807 0
M  V30 11320 H 1035.67 -4.21284 -0.0988419 0
M  V30 11321 H 1034.39 -3.17203 -0.777789 0
M  V30 11322 H 1033.05 -3.41186 1.34119 0
M  V30 11323 H 1032.7 -4.99879 -0.559472 0
M  V30 11324 H 1032.4 -5.78875 1.00884 0
M  V30 11325 H 1033.92 -6.10458 0.131527 0
M  V30 11326 H 1035.34 -5.27475 2.24595 0
M  V30 11327 H 1033.74 -5.17909 3.03134 0
M  V30 11328 H 1034.81 -3.76574 3.05483 0
M  V30 11329 N 1036.15 -0.873678 -1.31166 0
M  V30 11330 C 1037.06 -0.335726 -2.32185 0
M  V30 11331 C 1038.07 0.556259 -1.64869 0
M  V30 11332 O 1039.25 0.452087 -1.9626 0
M  V30 11333 C 1036.32 0.450822 -3.43756 0
M  V30 11334 C 1035.38 -0.469565 -4.26724 0
M  V30 11335 C 1034.61 0.279538 -5.32967 0
M  V30 11336 O 1034.83 1.50715 -5.50128 0
M  V30 11337 O 1033.77 -0.36452 -6.00795 0
M  V30 11338 H 1037.59 -1.17314 -2.80127 0
M  V30 11339 H 1035.18 -0.637163 -1.35132 0
M  V30 11340 H 1037.06 0.896582 -4.11752 0
M  V30 11341 H 1035.73 1.26472 -2.9797 0
M  V30 11342 H 1034.64 -0.963902 -3.61469 0
M  V30 11343 H 1035.97 -1.24916 -4.76085 0
M  V30 11344 N 1037.63 1.44308 -0.633487 0
M  V30 11345 C 1038.87 2.02023 -0.138917 0
M  V30 11346 C 1039.2 1.49841 1.24008 0
M  V30 11347 O 1038.46 0.673718 1.83738 0
M  V30 11348 C 1038.76 3.57316 -0.0773886 0
M  V30 11349 C 1038.42 4.28762 -1.39548 0
M  V30 11350 C 1037.08 4.47997 -1.75648 0
M  V30 11351 C 1039.44 4.69391 -2.26542 0
M  V30 11352 C 1036.76 5.05121 -2.98445 0
M  V30 11353 C 1039.12 5.27876 -3.48612 0
M  V30 11354 C 1037.78 5.45329 -3.84932 0
M  V30 11355 H 1037.05 0.739254 -0.0508333 0
M  V30 11356 H 1039.7 1.73043 -0.820271 0
M  V30 11357 H 1038 3.85724 0.687345 0
M  V30 11358 H 1039.7 3.99706 0.321837 0
M  V30 11359 H 1036.29 4.14122 -1.10456 0
M  V30 11360 H 1040.47 4.54241 -1.99946 0
M  V30 11361 H 1035.73 5.16821 -3.26658 0
M  V30 11362 H 1039.9 5.58307 -4.16253 0
M  V30 11363 H 1037.53 5.8936 -4.80166 0
M  V30 11364 N 1039.1 0.374177 1.53094 0
M  V30 11365 C 1040.01 -0.475935 2.29722 0
M  V30 11366 C 1041.03 -1.085 1.36029 0
M  V30 11367 O 1042.21 -1.09408 1.69091 0
M  V30 11368 C 1039.27 -1.59572 3.07795 0
M  V30 11369 C 1038.33 -1.01332 4.17169 0
M  V30 11370 C 1037.57 -2.07975 4.9151 0
M  V30 11371 O 1037.79 -3.29232 4.65793 0
M  V30 11372 O 1036.72 -1.7055 5.77232 0
M  V30 11373 H 1040.55 0.147877 3.0334 0
M  V30 11374 H 1038.13 0.138312 1.48758 0
M  V30 11375 H 1040.02 -2.24658 3.5652 0
M  V30 11376 H 1038.69 -2.20478 2.37005 0
M  V30 11377 H 1037.6 -0.326133 3.72676 0
M  V30 11378 H 1038.93 -0.4487 4.90151 0
M  V30 11379 N 1040.58 -1.57259 0.103575 0
M  V30 11380 C 1041.53 -2.14487 -0.852295 0
M  V30 11381 C 1042.5 -1.06567 -1.27407 0
M  V30 11382 O 1043.68 -1.34398 -1.35432 0
M  V30 11383 C 1040.82 -2.73632 -2.10284 0
M  V30 11384 C 1039.94 -3.95811 -1.73083 0
M  V30 11385 C 1039.07 -4.43093 -2.92988 0
M  V30 11386 C 1038.11 -5.5784 -2.51953 0
M  V30 11387 N 1037.25 -5.99936 -3.64721 0
M  V30 11388 H 1042.09 -2.95849 -0.35743 0
M  V30 11389 H 1039.63 -1.46175 -0.164748 0
M  V30 11390 H 1041.58 -3.06046 -2.83534 0
M  V30 11391 H 1040.21 -1.94985 -2.57256 0
M  V30 11392 H 1039.27 -3.69656 -0.897688 0
M  V30 11393 H 1040.58 -4.79066 -1.38916 0
M  V30 11394 H 1039.73 -4.77335 -3.74481 0
M  V30 11395 H 1038.47 -3.58756 -3.30372 0
M  V30 11396 H 1037.48 -5.23217 -1.6889 0
M  V30 11397 H 1038.7 -6.43932 -2.15705 0
M  V30 11398 H 1036.65 -5.18543 -4.01807 0
M  V30 11399 H 1036.56 -6.78008 -3.34427 0
M  V30 11400 H 1037.83 -6.38812 -4.46699 0
M  V30 11401 N 1042.06 0.170153 -1.56679 0
M  V30 11402 C 1042.99 1.23945 -1.91606 0
M  V30 11403 C 1043.97 1.42725 -0.779004 0
M  V30 11404 O 1045.16 1.57712 -1.03243 0
M  V30 11405 C 1042.28 2.60222 -2.168 0
M  V30 11406 C 1041.33 2.58172 -3.39484 0
M  V30 11407 S 1042.16 2.0714 -4.93815 0
M  V30 11408 C 1043.32 3.45192 -5.22105 0
M  V30 11409 H 1043.55 0.941345 -2.82004 0
M  V30 11410 H 1041.08 0.374771 -1.49783 0
M  V30 11411 H 1043.04 3.38656 -2.31996 0
M  V30 11412 H 1041.7 2.87232 -1.27107 0
M  V30 11413 H 1040.9 3.58435 -3.54317 0
M  V30 11414 H 1040.5 1.87834 -3.2341 0
M  V30 11415 H 1042.79 4.41194 -5.14154 0
M  V30 11416 H 1043.73 3.35233 -6.23718 0
M  V30 11417 H 1044.14 3.41257 -4.49671 0
M  V30 11418 N 1043.54 1.5137 0.438746 0
M  V30 11419 C 1044.47 1.75528 1.53987 0
M  V30 11420 C 1045.45 0.605067 1.58975 0
M  V30 11421 O 1046.63 0.847634 1.74725 0
M  V30 11422 C 1043.76 1.87904 2.92078 0
M  V30 11423 C 1042.72 3.0333 3.01951 0
M  V30 11424 C 1042.04 3.00888 4.42007 0
M  V30 11425 C 1043.34 4.43319 2.76163 0
M  V30 11426 H 1045.04 2.67728 1.34022 0
M  V30 11427 H 1042.58 1.28831 0.643308 0
M  V30 11428 H 1044.54 2.03388 3.69068 0
M  V30 11429 H 1043.26 0.923514 3.13271 0
M  V30 11430 H 1041.92 2.87549 2.274 0
M  V30 11431 H 1041.57 2.03116 4.60166 0
M  V30 11432 H 1041.27 3.78397 4.49544 0
M  V30 11433 H 1042.79 3.18464 5.20973 0
M  V30 11434 H 1044.21 4.59458 3.42887 0
M  V30 11435 H 1042.6 5.22523 2.9511 0
M  V30 11436 H 1043.67 4.53453 1.71779 0
M  V30 11437 N 1045.02 -0.694098 1.41492 0
M  V30 11438 C 1046.43 -1.27407 1.36471 0
M  V30 11439 C 1046.78 -1.9614 0.0485209 0
M  V30 11440 O 1045.9 -1.98871 -0.853188 0
M  V30 11441 C 1046.5 -2.31698 2.47188 0
M  V30 11442 C 1045.06 -2.85268 2.45559 0
M  V30 11443 C 1044.2 -1.59325 2.2696 0
M  V30 11444 H 1047.16 -0.488756 1.50986 0
M  V30 11445 H 1047.18 -3.1302 2.1633 0
M  V30 11446 H 1046.69 -1.81644 3.42968 0
M  V30 11447 H 1044.79 -3.39494 1.5354 0
M  V30 11448 H 1044.9 -3.35598 3.41922 0
M  V30 11449 H 1043.27 -1.85188 1.74864 0
M  V30 11450 H 1044.05 -1.11265 3.24769 0
M  V30 11451 N 1046.49 -1.27344 -0.928501 0
M  V30 11452 C 1047.4 -1.11812 -2.06241 0
M  V30 11453 C 1048.42 -0.048347 -1.73933 0
M  V30 11454 O 1049.6 -0.25467 -1.99783 0
M  V30 11455 C 1046.66 -0.766036 -3.38131 0
M  V30 11456 C 1045.72 -1.91659 -3.84142 0
M  V30 11457 C 1044.96 -1.58121 -5.09738 0
M  V30 11458 O 1045.18 -0.488742 -5.68302 0
M  V30 11459 O 1044.11 -2.42013 -5.51102 0
M  V30 11460 H 1047.94 -2.06967 -2.22258 0
M  V30 11461 H 1045.52 -1.06524 -1.04752 0
M  V30 11462 H 1047.41 -0.582982 -4.17348 0
M  V30 11463 H 1046.08 0.155998 -3.23324 0
M  V30 11464 H 1044.99 -2.1547 -3.05816 0
M  V30 11465 H 1046.32 -2.8188 -4.0349 0
M  V30 11466 N 1047.97 1.13488 -1.09353 0
M  V30 11467 C 1049.22 1.85234 -0.840227 0
M  V30 11468 C 1049.57 1.81884 0.627379 0
M  V30 11469 O 1048.87 1.24548 1.45596 0
M  V30 11470 C 1049.06 3.32584 -1.30854 0
M  V30 11471 C 1048.89 3.50283 -2.82014 0
M  V30 11472 C 1047.66 3.64569 -3.49883 0
M  V30 11473 C 1049.86 3.46388 -3.80158 0
M  V30 11474 N 1047.84 3.70522 -4.89476 0
M  V30 11475 C 1049.21 3.58701 -5.05701 0
M  V30 11476 C 1051.27 3.29784 -3.73024 0
M  V30 11477 C 1049.97 3.56126 -6.24953 0
M  V30 11478 C 1051.99 3.28516 -4.91763 0
M  V30 11479 C 1051.36 3.4138 -6.16149 0
M  V30 11480 H 1047.46 0.694046 -0.36031 0
M  V30 11481 H 1050.04 1.35949 -1.39377 0
M  V30 11482 H 1048.21 3.80437 -0.78246 0
M  V30 11483 H 1049.94 3.92134 -1.00064 0
M  V30 11484 H 1046.7 3.66211 -3.0031 0
M  V30 11485 H 1047.12 3.77191 -5.62188 0
M  V30 11486 H 1051.76 3.18741 -2.77784 0
M  V30 11487 H 1049.48 3.65942 -7.20494 0
M  V30 11488 H 1053.07 3.16867 -4.87941 0
M  V30 11489 H 1051.95 3.40359 -7.06488 0
M  V30 11490 N 1049.45 0.880621 1.30701 0
M  V30 11491 C 1050.38 0.360251 2.30704 0
M  V30 11492 C 1051.36 -0.554572 1.60806 0
M  V30 11493 O 1052.55 -0.469345 1.88443 0
M  V30 11494 C 1049.68 -0.429888 3.44629 0
M  V30 11495 C 1048.63 0.392786 4.26194 0
M  V30 11496 C 1047.96 -0.52369 5.32129 0
M  V30 11497 C 1049.26 1.63258 4.96129 0
M  V30 11498 H 1050.95 1.19591 2.74478 0
M  V30 11499 H 1048.5 0.576508 1.31956 0
M  V30 11500 H 1050.45 -0.804532 4.13649 0
M  V30 11501 H 1049.17 -1.29916 2.99649 0
M  V30 11502 H 1047.83 0.749514 3.58856 0
M  V30 11503 H 1047.48 -1.39054 4.83397 0
M  V30 11504 H 1047.18 0.0229272 5.87596 0
M  V30 11505 H 1048.71 -0.894946 6.04006 0
M  V30 11506 H 1050.12 1.32877 5.57689 0
M  V30 11507 H 1048.52 2.11906 5.61441 0
M  V30 11508 H 1049.59 2.37944 4.22505 0
M  V30 11509 N 1050.93 -1.4397 0.641131 0
M  V30 11510 C 1052.35 -1.56607 0.30762 0
M  V30 11511 C 1052.55 -1.62694 -1.18882 0
M  V30 11512 O 1051.6 -1.57541 -1.97325 0
M  V30 11513 C 1052.91 -2.83289 1.00834 0
M  V30 11514 C 1054.46 -2.97016 0.98744 0
M  V30 11515 C 1054.94 -4.26514 1.66882 0
M  V30 11516 N 1056.43 -4.33351 1.63589 0
M  V30 11517 C 1057.16 -5.32292 2.13196 0
M  V30 11518 N 1056.66 -6.37582 2.71038 0
M  V30 11519 N 1058.45 -5.23866 2.03766 0
M  V30 11520 H 1050.6 -1.38262 1.61237 0
M  V30 11521 H 1052.87 -0.663221 0.677378 0
M  V30 11522 H 1052.57 -2.84812 2.06337 0
M  V30 11523 H 1052.45 -3.73134 0.552333 0
M  V30 11524 H 1054.83 -2.95041 -0.0591395 0
M  V30 11525 H 1054.91 -2.08493 1.48203 0
M  V30 11526 H 1054.56 -4.2925 2.71491 0
M  V30 11527 H 1054.49 -5.13912 1.14898 0
M  V30 11528 H 1056.98 -3.5788 1.21368 0
M  V30 11529 H 1057.29 -7.09378 3.06597 0
M  V30 11530 H 1055.64 -6.38239 2.75093 0
M  V30 11531 H 1058.83 -4.40524 1.58291 0
M  V30 11532 H 1059 -6.00819 2.42737 0
M  V30 11533 N 1052.41 -0.382291 -1.52893 0
M  V30 11534 C 1053.63 0.204961 -2.06385 0
M  V30 11535 C 1054.06 1.40316 -1.25271 0
M  V30 11536 O 1053.42 1.79187 -0.275969 0
M  V30 11537 C 1053.46 0.560205 -3.56222 0
M  V30 11538 O 1052.57 1.65515 -3.77728 0
M  V30 11539 H 1051.91 0.0258798 -0.663495 0
M  V30 11540 H 1054.44 -0.547733 -1.97132 0
M  V30 11541 H 1054.45 0.826501 -3.99541 0
M  V30 11542 H 1053.12 -0.31584 -4.14699 0
M  V30 11543 H 1051.7 1.38311 -3.46301 0
M  V30 11544 N 1053.89 1.57202 -0.111913 0
M  V30 11545 C 1055.3 1.57713 0.244702 0
M  V30 11546 C 1055.5 1.12419 1.67225 0
M  V30 11547 O 1054.56 0.808329 2.39212 0
M  V30 11548 C 1055.87 3.00695 0.0178289 0
M  V30 11549 C 1057.42 3.12887 0.0842781 0
M  V30 11550 C 1057.89 4.57856 -0.114812 0
M  V30 11551 N 1059.38 4.6316 -0.0605423 0
M  V30 11552 C 1060.12 5.73086 -0.189594 0
M  V30 11553 N 1059.62 6.91787 -0.37442 0
M  V30 11554 N 1061.41 5.6195 -0.12967 0
M  V30 11555 H 1053.56 1.84947 -1.04443 0
M  V30 11556 H 1055.82 0.854418 -0.4107 0
M  V30 11557 H 1055.53 3.38093 -0.968802 0
M  V30 11558 H 1055.4 3.69611 0.752815 0
M  V30 11559 H 1057.79 2.7535 1.06143 0
M  V30 11560 H 1057.87 2.46528 -0.682474 0
M  V30 11561 H 1057.51 4.9609 -1.0889 0
M  V30 11562 H 1057.44 5.22297 0.671839 0
M  V30 11563 H 1059.94 3.77817 0.0790856 0
M  V30 11564 H 1060.25 7.71406 -0.463948 0
M  V30 11565 H 1058.59 6.93788 -0.410303 0
M  V30 11566 H 1061.78 4.68098 0.0137115 0
M  V30 11567 H 1061.96 6.47578 -0.233688 0
M  V30 11568 N 1055.36 -0.161842 1.56767 0
M  V30 11569 C 1056.61 -0.876925 1.82527 0
M  V30 11570 C 1056.94 -1.81831 0.690492 0
M  V30 11571 O 1056.19 -1.9304 -0.32159 0
M  V30 11572 C 1056.49 -1.69736 3.14522 0
M  V30 11573 C 1056.16 -0.904075 4.41743 0
M  V30 11574 C 1054.82 -0.685168 4.76297 0
M  V30 11575 C 1057.17 -0.348282 5.20035 0
M  V30 11576 C 1054.5 0.10048 5.86614 0
M  V30 11577 C 1056.85 0.424327 6.31175 0
M  V30 11578 C 1055.52 0.653948 6.64289 0
M  V30 11579 H 1054.79 -0.320889 0.667915 0
M  V30 11580 H 1057.43 -0.141338 1.90978 0
M  V30 11581 H 1055.74 -2.50262 3.01456 0
M  V30 11582 H 1057.44 -2.25386 3.31666 0
M  V30 11583 H 1054.03 -1.08474 4.14646 0
M  V30 11584 H 1058.21 -0.504721 4.93727 0
M  V30 11585 H 1053.47 0.288029 6.10721 0
M  V30 11586 H 1057.64 0.862203 6.91042 0
M  V30 11587 H 1055.27 1.26459 7.49608 0
M  V30 11588 N 1056.84 -1.516 -0.430713 0
M  V30 11589 C 1058.26 -1.39923 -0.767706 0
M  V30 11590 C 1058.46 -0.486756 -1.95532 0
M  V30 11591 O 1057.51 0.0555965 -2.52439 0
M  V30 11592 C 1058.83 -2.82074 -1.04187 0
M  V30 11593 C 1060.37 -2.9127 -1.1459 0
M  V30 11594 C 1060.85 -4.34342 -1.45295 0
M  V30 11595 N 1062.34 -4.37479 -1.52206 0
M  V30 11596 C 1063.08 -5.45219 -1.77549 0
M  V30 11597 N 1062.57 -6.6311 -2.0064 0
M  V30 11598 N 1064.36 -5.32707 -1.79386 0
M  V30 11599 H 1056.52 -2.09474 0.351351 0
M  V30 11600 H 1058.78 -0.943247 0.0948151 0
M  V30 11601 H 1058.48 -3.50868 -0.241837 0
M  V30 11602 H 1058.36 -3.21805 -1.96777 0
M  V30 11603 H 1060.75 -2.2267 -1.93655 0
M  V30 11604 H 1060.83 -2.55026 -0.198854 0
M  V30 11605 H 1060.47 -5.03494 -0.667559 0
M  V30 11606 H 1060.4 -4.68105 -2.41217 0
M  V30 11607 H 1062.89 -3.52488 -1.36237 0
M  V30 11608 H 1063.2 -7.41012 -2.19366 0
M  V30 11609 H 1061.55 -6.66214 -1.97948 0
M  V30 11610 H 1064.74 -4.39589 -1.60869 0
M  V30 11611 H 1064.91 -6.16752 -1.98799 0
M  V30 11612 N 1058.32 0.686584 -1.41858 0
M  V30 11613 C 1059.25 1.81107 -1.38836 0
M  V30 11614 C 1060.23 1.60599 -0.254293 0
M  V30 11615 O 1061.41 1.83229 -0.442641 0
M  V30 11616 C 1058.54 3.17928 -1.16787 0
M  V30 11617 C 1057.59 3.5721 -2.33031 0
M  V30 11618 S 1058.42 3.60986 -3.95536 0
M  V30 11619 C 1059.58 5.00519 -3.75808 0
M  V30 11620 H 1059.81 1.83396 -2.33994 0
M  V30 11621 H 1057.34 0.856146 -1.28489 0
M  V30 11622 H 1059.3 3.9691 -1.04752 0
M  V30 11623 H 1057.96 3.1324 -0.232335 0
M  V30 11624 H 1057.15 4.56629 -2.13321 0
M  V30 11625 H 1056.76 2.8556 -2.41519 0
M  V30 11626 H 1059.05 5.88272 -3.36069 0
M  V30 11627 H 1059.99 5.25273 -4.74862 0
M  V30 11628 H 1060.4 4.72481 -3.08904 0
M  V30 11629 N 1059.8 1.27835 0.921735 0
M  V30 11630 C 1061.05 1.14296 1.66676 0
M  V30 11631 C 1061.37 -0.310493 1.92512 0
M  V30 11632 O 1060.64 -1.21637 1.53562 0
M  V30 11633 H 1059.22 0.419994 0.617749 0
M  V30 11634 H 1061.88 1.60449 1.10644 0
M  V30 11635 H 1060.97 1.67654 2.63246 0
M  V30 11636 N 1061.28 -1.12907 1.09954 0
M  V30 11637 C 1062.19 -2.22082 0.756095 0
M  V30 11638 C 1063.2 -1.72277 -0.244272 0
M  V30 11639 O 1064.38 -2.01224 -0.0842637 0
M  V30 11640 C 1061.44 -3.46192 0.187642 0
M  V30 11641 C 1060.5 -4.10861 1.24465 0
M  V30 11642 C 1059.74 -5.29047 0.703227 0
M  V30 11643 O 1059.96 -5.68443 -0.472043 0
M  V30 11644 O 1058.89 -5.83904 1.46082 0
M  V30 11645 H 1062.72 -2.53842 1.66727 0
M  V30 11646 H 1060.3 -1.21145 0.874316 0
M  V30 11647 H 1062.19 -4.21212 -0.125774 0
M  V30 11648 H 1060.86 -3.16119 -0.696459 0
M  V30 11649 H 1059.77 -3.37643 1.61085 0
M  V30 11650 H 1061.1 -4.45078 2.10159 0
M  V30 11651 N 1062.75 -0.88754 -1.30232 0
M  V30 11652 C 1063.68 -0.372481 -2.3051 0
M  V30 11653 C 1064.66 0.546037 -1.61098 0
M  V30 11654 O 1065.85 0.459345 -1.88689 0
M  V30 11655 C 1062.98 0.411605 -3.44852 0
M  V30 11656 C 1061.93 -0.415383 -4.2598 0
M  V30 11657 C 1061.26 0.495463 -5.324 0
M  V30 11658 C 1062.56 -1.65886 -4.95257 0
M  V30 11659 H 1064.25 -1.21045 -2.7384 0
M  V30 11660 H 1061.8 -0.583498 -1.31648 0
M  V30 11661 H 1063.75 0.782584 -4.1407 0
M  V30 11662 H 1062.48 1.28325 -3.00334 0
M  V30 11663 H 1061.14 -0.768534 -3.58454 0
M  V30 11664 H 1060.78 1.36489 -4.84128 0
M  V30 11665 H 1060.48 -0.0540885 -5.87575 0
M  V30 11666 H 1062.01 0.862901 -6.04472 0
M  V30 11667 H 1063.42 -1.35832 -5.56976 0
M  V30 11668 H 1061.82 -2.14881 -5.60309 0
M  V30 11669 H 1062.89 -2.40181 -4.21237 0
M  V30 11670 N 1064.23 1.43628 -0.648757 0
M  V30 11671 C 1065.47 2.03742 -0.163878 0
M  V30 11672 C 1065.84 1.50047 1.19791 0
M  V30 11673 O 1067.04 2.01777 1.77594 0
M  V30 11674 C 1065.31 3.57001 -0.168849 0
M  V30 11675 S 1066.87 4.38094 0.248835 0
M  V30 11676 H 1063.69 0.70757 -0.0697515 0
M  V30 11677 H 1066.29 1.75759 -0.856094 0
M  V30 11678 H 1064.99 3.93583 -1.16277 0
M  V30 11679 H 1064.52 3.8962 0.544048 0
M  V30 11680 H 1066.54 4.73338 1.48882 0
M  V30 11681 N 1065.71 0.390394 1.52688 0
M  V30 11682 C 1066.66 -0.444229 2.26485 0
M  V30 11683 C 1067.63 -1.05688 1.28138 0
M  V30 11684 O 1068.81 -1.0847 1.56968 0
M  V30 11685 C 1065.95 -1.56501 3.07574 0
M  V30 11686 C 1065.07 -0.975111 4.20851 0
M  V30 11687 C 1064.2 -2.06704 4.89333 0
M  V30 11688 C 1063.24 -1.45309 5.94602 0
M  V30 11689 N 1062.38 -2.48437 6.56676 0
M  V30 11690 H 1067.22 0.191535 2.97384 0
M  V30 11691 H 1064.75 0.106287 1.46716 0
M  V30 11692 H 1066.71 -2.22558 3.52879 0
M  V30 11693 H 1065.34 -2.17107 2.38881 0
M  V30 11694 H 1064.39 -0.204109 3.79852 0
M  V30 11695 H 1065.71 -0.486465 4.96422 0
M  V30 11696 H 1064.86 -2.80528 5.37949 0
M  V30 11697 H 1063.6 -2.58928 4.13289 0
M  V30 11698 H 1062.6 -0.700091 5.45324 0
M  V30 11699 H 1063.83 -0.938775 6.7258 0
M  V30 11700 H 1061.77 -2.99829 5.83471 0
M  V30 11701 H 1061.69 -2.04331 7.27863 0
M  V30 11702 H 1062.96 -3.21888 7.09935 0
M  V30 11703 N 1067.19 -1.57141 0.120249 0
M  V30 11704 C 1068.43 -1.95527 -0.538245 0
M  V30 11705 C 1068.77 -1.00373 -1.6625 0
M  V30 11706 O 1068.04 -0.0411734 -1.94456 0
M  V30 11707 C 1068.33 -3.43843 -1.06976 0
M  V30 11708 C 1068.18 -4.49771 0.0511596 0
M  V30 11709 C 1069.5 -3.94035 -1.96022 0
M  V30 11710 H 1066.62 -0.710958 -0.194183 0
M  V30 11711 H 1069.26 -1.88986 0.196061 0
M  V30 11712 H 1067.41 -3.49548 -1.69553 0
M  V30 11713 H 1069.08 -4.56163 0.686503 0
M  V30 11714 H 1067.32 -4.27882 0.714127 0
M  V30 11715 H 1067.99 -5.50812 -0.361995 0
M  V30 11716 H 1070.47 -3.9064 -1.43315 0
M  V30 11717 H 1069.35 -4.98329 -2.3013 0
M  V30 11718 H 1069.61 -3.34803 -2.8872 0
M  V30 11719 N 1068.67 0.153526 -1.5685 0
M  V30 11720 C 1069.63 1.17362 -1.96873 0
M  V30 11721 C 1070.63 1.36219 -0.854456 0
M  V30 11722 O 1071.82 1.33322 -1.1212 0
M  V30 11723 C 1068.95 2.53523 -2.27901 0
M  V30 11724 H 1070.14 0.830432 -2.88173 0
M  V30 11725 H 1067.7 0.396633 -1.51184 0
M  V30 11726 H 1068.43 2.92824 -1.39371 0
M  V30 11727 H 1068.22 2.41198 -3.09137 0
M  V30 11728 H 1069.71 3.27006 -2.59725 0
M  V30 11729 N 1070.14 1.51827 0.422667 0
M  V30 11730 C 1071.05 1.77066 1.53899 0
M  V30 11731 C 1072.07 0.655541 1.61179 0
M  V30 11732 O 1073.25 0.939448 1.78147 0
M  V30 11733 C 1070.31 1.90372 2.89758 0
M  V30 11734 C 1069.37 3.14256 2.92475 0
M  V30 11735 C 1068.61 3.26918 4.21853 0
M  V30 11736 O 1068.83 2.45164 5.15025 0
M  V30 11737 O 1067.76 4.19989 4.31153 0
M  V30 11738 H 1071.59 2.71791 1.35511 0
M  V30 11739 H 1069.17 1.36506 0.607165 0
M  V30 11740 H 1071.06 2.01024 3.70361 0
M  V30 11741 H 1069.73 0.988347 3.08242 0
M  V30 11742 H 1068.64 3.09072 2.10773 0
M  V30 11743 H 1069.97 4.0553 2.78937 0
M  V30 11744 N 1071.62 -0.679052 1.4222 0
M  V30 11745 C 1072.9 -1.43473 1.32947 0
M  V30 11746 C 1073.28 -2.11071 -0.0351689 0
M  V30 11747 O 1072.63 -2.02925 -1.05042 0
M  V30 11748 C 1072.84 -2.44065 2.49466 0
M  V30 11749 C 1074.19 -3.08834 2.91387 0
M  V30 11750 O 1075.21 -2.54392 2.49325 0
M  V30 11751 O 1074.07 -4.07478 3.64175 0
M  V30 11752 H 1071.16 -0.639743 0.524078 0
M  V30 11753 H 1073.71 -0.708134 1.54219 0
M  V30 11754 H 1072.48 -1.92884 3.40457 0
M  V30 11755 H 1072.1 -3.24212 2.30158 0
M  V30 11756 N 1073.1 -1.28322 -0.914942 0
M  V30 11757 C 1074.38 -1.06111 -1.64316 0
M  V30 11758 C 1074.76 0.399934 -2.07277 0
M  V30 11759 O 1074.11 1.38577 -1.81683 0
M  V30 11760 C 1074.32 -2.03461 -2.83557 0
M  V30 11761 C 1075.66 -2.33541 -3.54604 0
M  V30 11762 O 1076.69 -2.01536 -2.93704 0
M  V30 11763 O 1075.55 -2.88158 -4.64357 0
M  V30 11764 H 1072.64 -0.405451 -0.72079 0
M  V30 11765 H 1075.19 -1.39636 -0.964352 0
M  V30 11766 H 1073.96 -3.01938 -2.48896 0
M  V30 11767 H 1073.58 -1.70574 -3.59152 0
M  V30 11768 N 1074.58 1.12322 -1.10551 0
M  V30 11769 C 1075.83 1.83858 -0.848674 0
M  V30 11770 C 1076.15 1.84159 0.62575 0
M  V30 11771 O 1075.41 1.28341 1.4774 0
M  V30 11772 C 1075.71 3.31177 -1.34375 0
M  V30 11773 C 1075.37 3.51046 -2.8298 0
M  V30 11774 C 1074.04 3.56177 -3.23561 0
M  V30 11775 C 1076.39 3.58061 -3.78737 0
M  V30 11776 C 1073.72 3.65868 -4.58647 0
M  V30 11777 C 1076.07 3.69283 -5.13627 0
M  V30 11778 C 1074.73 3.7267 -5.53781 0
M  V30 11779 H 1074 0.672784 -0.310552 0
M  V30 11780 H 1076.65 1.3253 -1.38232 0
M  V30 11781 H 1074.95 3.84937 -0.730144 0
M  V30 11782 H 1076.65 3.84998 -1.12148 0
M  V30 11783 H 1073.24 3.47716 -2.50582 0
M  V30 11784 H 1077.42 3.53366 -3.48491 0
M  V30 11785 H 1072.68 3.66763 -4.89178 0
M  V30 11786 H 1076.85 3.73654 -5.8767 0
M  V30 11787 H 1074.48 3.79932 -6.58449 0
M  V30 11788 N 1076.06 0.894434 1.2976 0
M  V30 11789 C 1077.47 0.589778 1.48303 0
M  V30 11790 C 1077.67 -0.870085 1.81746 0
M  V30 11791 O 1076.73 -1.65065 1.91076 0
M  V30 11792 C 1078.04 1.51107 2.59975 0
M  V30 11793 C 1079.59 1.51571 2.73853 0
M  V30 11794 C 1080.06 2.42316 3.88648 0
M  V30 11795 N 1081.56 2.40333 3.95973 0
M  V30 11796 C 1082.29 3.07254 4.84131 0
M  V30 11797 N 1081.79 3.83435 5.77018 0
M  V30 11798 N 1083.58 2.96438 4.77578 0
M  V30 11799 H 1075.73 1.83871 1.06327 0
M  V30 11800 H 1077.99 0.78758 0.527657 0
M  V30 11801 H 1077.7 2.55097 2.42112 0
M  V30 11802 H 1077.57 1.22767 3.56662 0
M  V30 11803 H 1079.96 0.483277 2.91116 0
M  V30 11804 H 1080.04 1.83946 1.77757 0
M  V30 11805 H 1079.69 3.4565 3.72141 0
M  V30 11806 H 1079.62 2.07252 4.84101 0
M  V30 11807 H 1082.11 1.84979 3.29532 0
M  V30 11808 H 1082.42 4.31565 6.4107 0
M  V30 11809 H 1080.76 3.87542 5.7692 0
M  V30 11810 H 1083.96 2.36442 4.03996 0
M  V30 11811 H 1084.13 3.48867 5.46073 0
M  V30 11812 N 1077.53 -1.43282 0.656365 0
M  V30 11813 C 1078.46 -2.33492 -0.0196962 0
M  V30 11814 C 1079.45 -1.49647 -0.80868 0
M  V30 11815 O 1080.63 -1.78303 -0.769529 0
M  V30 11816 C 1077.76 -3.33052 -0.984574 0
M  V30 11817 C 1076.71 -4.26908 -0.305483 0
M  V30 11818 C 1076.04 -5.16531 -1.38202 0
M  V30 11819 C 1077.34 -5.16073 0.804081 0
M  V30 11820 H 1079.03 -2.90272 0.733661 0
M  V30 11821 H 1076.58 -1.39574 0.354259 0
M  V30 11822 H 1078.53 -3.9506 -1.46647 0
M  V30 11823 H 1077.26 -2.74535 -1.76913 0
M  V30 11824 H 1075.92 -3.66268 0.155995 0
M  V30 11825 H 1075.56 -4.54351 -2.1581 0
M  V30 11826 H 1075.26 -5.80148 -0.932878 0
M  V30 11827 H 1076.79 -5.81414 -1.86522 0
M  V30 11828 H 1078.2 -5.71873 0.404212 0
M  V30 11829 H 1076.6 -5.88427 1.17789 0
M  V30 11830 H 1077.67 -4.55574 1.66073 0
M  V30 11831 N 1079.01 -0.398486 -1.52479 0
M  V30 11832 C 1080.25 0.180412 -2.03602 0
M  V30 11833 C 1080.62 1.43276 -1.27812 0
M  V30 11834 O 1081.82 2.08941 -1.69107 0
M  V30 11835 C 1080.09 0.432744 -3.5477 0
M  V30 11836 S 1081.65 0.980612 -4.27703 0
M  V30 11837 H 1078.47 0.0499981 -0.70924 0
M  V30 11838 H 1081.07 -0.548952 -1.87635 0
M  V30 11839 H 1079.77 -0.48568 -4.07516 0
M  V30 11840 H 1079.3 1.19028 -3.74961 0
M  V30 11841 H 1081.32 2.26216 -4.41634 0
M  V30 11842 N 1080.49 1.57075 -0.12858 0
M  V30 11843 C 1081.42 2.18833 0.814519 0
M  V30 11844 C 1082.4 1.13114 1.2704 0
M  V30 11845 O 1083.59 1.41387 1.33129 0
M  V30 11846 C 1080.72 2.79535 2.06101 0
M  V30 11847 C 1079.67 3.9092 1.74257 0
M  V30 11848 C 1079 4.38473 3.06015 0
M  V30 11849 C 1080.3 5.1257 1.00345 0
M  V30 11850 H 1081.99 2.97895 0.299862 0
M  V30 11851 H 1079.54 1.4329 0.14279 0
M  V30 11852 H 1081.49 3.21401 2.72543 0
M  V30 11853 H 1080.21 1.97777 2.59907 0
M  V30 11854 H 1078.87 3.49645 1.102 0
M  V30 11855 H 1078.52 3.53561 3.57776 0
M  V30 11856 H 1078.22 5.13591 2.85479 0
M  V30 11857 H 1079.75 4.82997 3.7356 0
M  V30 11858 H 1081.16 5.51395 1.56959 0
M  V30 11859 H 1079.56 5.93333 0.898693 0
M  V30 11860 H 1080.63 4.84899 -0.0081335 0
M  V30 11861 N 1081.97 -0.145205 1.5693 0
M  V30 11862 C 1083.39 -0.497905 1.51635 0
M  V30 11863 C 1083.59 -1.8328 0.837301 0
M  V30 11864 O 1082.64 -2.49172 0.408584 0
M  V30 11865 C 1083.95 -0.506557 2.96403 0
M  V30 11866 C 1085.5 -0.591947 3.07352 0
M  V30 11867 C 1085.98 -0.631244 4.53629 0
M  V30 11868 N 1087.47 -0.693417 4.5798 0
M  V30 11869 C 1088.2 -0.744836 5.68542 0
M  V30 11870 N 1087.7 -0.755492 6.88668 0
M  V30 11871 N 1089.49 -0.785854 5.5658 0
M  V30 11872 H 1081.64 0.729779 1.99469 0
M  V30 11873 H 1083.91 0.266295 0.90983 0
M  V30 11874 H 1083.61 0.406127 3.49347 0
M  V30 11875 H 1083.49 -1.34383 3.5245 0
M  V30 11876 H 1085.87 -1.49505 2.54425 0
M  V30 11877 H 1085.95 0.272507 2.54344 0
M  V30 11878 H 1085.6 0.26771 5.07194 0
M  V30 11879 H 1085.53 -1.51221 5.0442 0
M  V30 11880 H 1088.02 -0.692408 3.71503 0
M  V30 11881 H 1088.33 -0.796624 7.68683 0
M  V30 11882 H 1086.68 -0.723339 6.91226 0
M  V30 11883 H 1089.87 -0.774712 4.61645 0
M  V30 11884 H 1090.04 -0.822461 6.42759 0
M  V30 11885 N 1083.45 -1.52049 -0.414609 0
M  V30 11886 C 1084.7 -1.65067 -1.15912 0
M  V30 11887 C 1085.01 -0.383969 -1.91794 0
M  V30 11888 O 1086.22 -0.393872 -2.68628 0
M  V30 11889 C 1084.67 -2.91611 -2.1093 0
M  V30 11890 C 1084.28 -4.25369 -1.4059 0
M  V30 11891 C 1086.02 -3.13992 -2.85674 0
M  V30 11892 C 1083.93 -5.43041 -2.34223 0
M  V30 11893 H 1082.86 -0.614884 -0.436387 0
M  V30 11894 H 1085.51 -1.78533 -0.424072 0
M  V30 11895 H 1083.89 -2.71831 -2.87965 0
M  V30 11896 H 1085.07 -4.55611 -0.689568 0
M  V30 11897 H 1083.38 -4.09047 -0.779088 0
M  V30 11898 H 1085.98 -3.99082 -3.55861 0
M  V30 11899 H 1086.32 -2.27998 -3.48314 0
M  V30 11900 H 1086.86 -3.34217 -2.1574 0
M  V30 11901 H 1083.59 -6.31364 -1.76238 0
M  V30 11902 H 1083.11 -5.17144 -3.03845 0
M  V30 11903 H 1084.79 -5.75901 -2.94868 0
M  V30 11904 N 1084.93 0.6715 -1.42579 0
M  V30 11905 C 1085.87 1.80623 -1.46554 0
M  V30 11906 C 1086.87 1.65934 -0.340932 0
M  V30 11907 O 1088.07 1.72502 -0.514098 0
M  V30 11908 H 1084.45 0.595619 -0.459067 0
M  V30 11909 H 1086.42 1.74388 -2.42139 0
M  V30 11910 C 1085.17 3.18794 -1.38801 0
M  V30 11911 H 1084.49 3.30725 -2.24635 0
M  V30 11912 H 1085.93 3.98201 -1.45645 0
M  V30 11913 C 1084.39 3.36742 -0.103219 0
M  V30 11914 O 1084.92 3.92761 0.842715 0
M  V30 11915 N 1083.13 2.90594 -0.0193034 0
M  V30 11916 H 1082.67 2.45192 -0.78986 0
M  V30 11917 H 1082.63 3.0298 0.839686 0
M  V30 11918 N 1086.4 1.28806 0.908124 0
M  V30 11919 C 1087.31 1.15079 2.04436 0
M  V30 11920 C 1088.33 0.076012 1.73834 0
M  V30 11921 O 1089.51 0.286421 1.99353 0
M  V30 11922 C 1086.57 0.819733 3.3687 0
M  V30 11923 C 1085.63 1.97746 3.81045 0
M  V30 11924 C 1084.86 1.66211 5.07158 0
M  V30 11925 O 1085.09 0.579092 5.67453 0
M  V30 11926 O 1084.02 2.5075 5.47182 0
M  V30 11927 H 1087.85 2.10477 2.18937 0
M  V30 11928 H 1085.43 1.08177 1.03044 0
M  V30 11929 H 1087.31 0.649304 4.16368 0
M  V30 11930 H 1085.99 -0.10454 3.23531 0
M  V30 11931 H 1084.9 2.20308 3.02349 0
M  V30 11932 H 1086.23 2.88264 3.98955 0
M  V30 11933 N 1087.88 -1.11734 1.11145 0
M  V30 11934 C 1089.13 -1.83677 0.859684 0
M  V30 11935 C 1089.46 -1.84265 -0.613182 0
M  V30 11936 O 1088.74 -1.29351 -1.45254 0
M  V30 11937 C 1089.02 -3.31003 1.41805 0
M  V30 11938 C 1088.87 -3.38827 2.95831 0
M  V30 11939 C 1090.19 -4.26984 1.06645 0
M  V30 11940 H 1087.31 -0.666879 0.313754 0
M  V30 11941 H 1089.95 -1.31038 1.37583 0
M  V30 11942 H 1088.1 -3.75961 0.979054 0
M  V30 11943 H 1089.77 -3.02451 3.48312 0
M  V30 11944 H 1088.02 -2.79143 3.32056 0
M  V30 11945 H 1088.69 -4.42508 3.29986 0
M  V30 11946 H 1091.16 -3.9019 1.44537 0
M  V30 11947 H 1090.04 -5.2846 1.48394 0
M  V30 11948 H 1090.3 -4.42094 -0.0231866 0
M  V30 11949 N 1089.36 -0.901303 -1.29284 0
M  V30 11950 C 1090.31 -0.378666 -2.27672 0
M  V30 11951 C 1091.28 0.540102 -1.57074 0
M  V30 11952 O 1092.46 0.464997 -1.85047 0
M  V30 11953 C 1089.6 0.38635 -3.42931 0
M  V30 11954 C 1088.71 -0.563496 -4.28309 0
M  V30 11955 C 1087.85 0.218731 -5.30749 0
M  V30 11956 C 1086.89 -0.725536 -6.07785 0
M  V30 11957 N 1086.03 0.0223854 -7.02096 0
M  V30 11958 H 1090.87 -1.22277 -2.71758 0
M  V30 11959 H 1088.4 -0.614302 -1.33659 0
M  V30 11960 H 1090.36 0.845967 -4.08533 0
M  V30 11961 H 1088.99 1.1949 -2.9987 0
M  V30 11962 H 1088.04 -1.14163 -3.62865 0
M  V30 11963 H 1089.35 -1.28623 -4.81931 0
M  V30 11964 H 1088.51 0.739473 -6.02177 0
M  V30 11965 H 1087.25 0.97459 -4.77863 0
M  V30 11966 H 1086.25 -1.25776 -5.3522 0
M  V30 11967 H 1087.48 -1.48075 -6.6276 0
M  V30 11968 H 1085.42 0.760482 -6.51577 0
M  V30 11969 H 1085.34 -0.640408 -7.53283 0
M  V30 11970 H 1086.61 0.523339 -7.77741 0
M  V30 11971 N 1090.84 1.42931 -0.663954 0
M  V30 11972 C 1092.08 2.02505 -0.190647 0
M  V30 11973 C 1092.44 1.51506 1.18591 0
M  V30 11974 O 1091.73 0.702962 1.78239 0
M  V30 11975 C 1091.93 3.57072 -0.153163 0
M  V30 11976 C 1091.75 4.23069 -1.52454 0
M  V30 11977 C 1090.52 4.58694 -2.11961 0
M  V30 11978 C 1092.72 4.51373 -2.46509 0
M  V30 11979 N 1090.7 5.09818 -3.41993 0
M  V30 11980 C 1092.08 5.03931 -3.61184 0
M  V30 11981 C 1094.13 4.33351 -2.45176 0
M  V30 11982 C 1092.83 5.40362 -4.74765 0
M  V30 11983 C 1094.86 4.70851 -3.57845 0
M  V30 11984 C 1094.22 5.23551 -4.71246 0
M  V30 11985 H 1090.32 0.773581 -0.114438 0
M  V30 11986 H 1092.9 1.73951 -0.874589 0
M  V30 11987 H 1091.08 3.85166 0.500156 0
M  V30 11988 H 1092.81 4.03336 0.332015 0
M  V30 11989 H 1089.56 4.44091 -1.6456 0
M  V30 11990 H 1089.99 5.39821 -4.08561 0
M  V30 11991 H 1094.63 3.91871 -1.58735 0
M  V30 11992 H 1092.35 5.8078 -5.6189 0
M  V30 11993 H 1095.93 4.58593 -3.58028 0
M  V30 11994 H 1094.81 5.52029 -5.56986 0
M  V30 11995 N 1092.32 0.406567 1.52266 0
M  V30 11996 C 1093.54 -0.169624 2.06204 0
M  V30 11997 C 1093.96 -1.39076 1.27684 0
M  V30 11998 O 1093.32 -1.79528 0.328023 0
M  V30 11999 C 1093.37 -0.522611 3.57702 0
M  V30 12000 O 1093.09 0.650028 4.33251 0
M  V30 12001 C 1094.59 -1.15281 4.28048 0
M  V30 12002 H 1091.81 -0.0215191 0.670655 0
M  V30 12003 H 1094.35 0.576781 1.96198 0
M  V30 12004 H 1092.51 -1.21891 3.67725 0
M  V30 12005 H 1092.92 0.355989 5.23291 0
M  V30 12006 H 1094.4 -1.35002 5.35237 0
M  V30 12007 H 1094.87 -2.12517 3.84361 0
M  V30 12008 H 1095.48 -0.496786 4.22389 0
M  V30 12009 N 1093.79 -1.57004 0.136909 0
M  V30 12010 C 1094.7 -2.19807 -0.819887 0
M  V30 12011 C 1095.72 -1.17939 -1.27932 0
M  V30 12012 O 1096.9 -1.50478 -1.3386 0
M  V30 12013 C 1093.96 -2.79935 -2.04542 0
M  V30 12014 C 1093.02 -3.96897 -1.6362 0
M  V30 12015 C 1092.26 -4.54148 -2.80331 0
M  V30 12016 O 1092.48 -4.10282 -3.96264 0
M  V30 12017 O 1091.41 -5.44565 -2.56384 0
M  V30 12018 H 1095.24 -3.02058 -0.315337 0
M  V30 12019 H 1092.82 -1.49131 -0.0896151 0
M  V30 12020 H 1094.71 -3.18191 -2.76283 0
M  V30 12021 H 1093.38 -2.00703 -2.53969 0
M  V30 12022 H 1092.29 -3.63376 -0.889316 0
M  V30 12023 H 1093.62 -4.77618 -1.18918 0
M  V30 12024 N 1095.27 0.136881 -1.57004 0
M  V30 12025 C 1096.52 0.844147 -1.85056 0
M  V30 12026 C 1096.87 1.78328 -0.722278 0
M  V30 12027 O 1096.17 1.89557 0.279059 0
M  V30 12028 C 1096.36 1.64711 -3.17183 0
M  V30 12029 C 1096.19 0.787229 -4.42756 0
M  V30 12030 C 1094.96 0.448938 -5.03302 0
M  V30 12031 C 1097.16 0.112947 -5.14176 0
M  V30 12032 N 1095.14 -0.423481 -6.12438 0
M  V30 12033 C 1096.51 -0.619195 -6.169 0
M  V30 12034 C 1098.57 0.0346687 -4.97888 0
M  V30 12035 C 1097.27 -1.42224 -7.05099 0
M  V30 12036 C 1099.29 -0.755143 -5.86559 0
M  V30 12037 C 1098.66 -1.47553 -6.88772 0
M  V30 12038 H 1094.76 0.286398 -0.727668 0
M  V30 12039 H 1097.34 0.108903 -1.94395 0
M  V30 12040 H 1095.51 2.35352 -3.08972 0
M  V30 12041 H 1097.24 2.29833 -3.33105 0
M  V30 12042 H 1094 0.787068 -4.67014 0
M  V30 12043 H 1094.42 -0.851013 -6.7163 0
M  V30 12044 H 1099.06 0.577271 -4.18841 0
M  V30 12045 H 1096.78 -1.97606 -7.83567 0
M  V30 12046 H 1100.37 -0.817835 -5.76023 0
M  V30 12047 H 1099.25 -2.07687 -7.56198 0
M  V30 12048 N 1096.75 1.52266 0.40654 0
M  V30 12049 C 1097.7 1.75794 1.4955 0
M  V30 12050 C 1098.67 0.600472 1.54866 0
M  V30 12051 O 1099.85 0.838305 1.71397 0
M  V30 12052 C 1096.99 1.91682 2.86971 0
M  V30 12053 C 1096.11 3.19337 2.90943 0
M  V30 12054 C 1095.24 3.25641 4.1968 0
M  V30 12055 C 1094.28 4.47488 4.17637 0
M  V30 12056 N 1093.42 4.51171 5.37949 0
M  V30 12057 H 1098.26 2.68733 1.28789 0
M  V30 12058 H 1095.79 1.33157 0.625102 0
M  V30 12059 H 1097.75 1.98877 3.66748 0
M  V30 12060 H 1096.38 1.02121 3.06221 0
M  V30 12061 H 1095.43 3.21301 2.03642 0
M  V30 12062 H 1096.75 4.09153 2.85299 0
M  V30 12063 H 1095.9 3.31922 5.07851 0
M  V30 12064 H 1094.64 2.33769 4.28023 0
M  V30 12065 H 1093.64 4.41351 3.27856 0
M  V30 12066 H 1094.87 5.40659 4.10932 0
M  V30 12067 H 1092.81 3.62182 5.46955 0
M  V30 12068 H 1092.73 5.34835 5.3431 0
M  V30 12069 H 1094 4.61685 6.28066 0
M  V30 12070 N 1098.23 -0.663929 1.42933 0
M  V30 12071 C 1099.46 -1.45192 1.474 0
M  V30 12072 C 1099.87 -1.88592 0.0886014 0
M  V30 12073 O 1099.23 -1.58824 -0.898962 0
M  V30 12074 C 1099.28 -2.69394 2.41059 0
M  V30 12075 O 1099 -2.27812 3.7421 0
M  V30 12076 C 1100.5 -3.62855 2.54659 0
M  V30 12077 H 1097.72 -0.446394 0.500973 0
M  V30 12078 H 1100.27 -0.814875 1.87563 0
M  V30 12079 H 1098.42 -3.29262 2.0412 0
M  V30 12080 H 1098.83 -3.08095 4.24474 0
M  V30 12081 H 1100.31 -4.46698 3.24291 0
M  V30 12082 H 1100.79 -4.09487 1.58799 0
M  V30 12083 H 1101.39 -3.08874 2.92364 0
M  V30 12084 N 1099.71 -1.29285 -0.901281 0
M  V30 12085 C 1100.66 -1.10907 -1.99208 0
M  V30 12086 C 1101.64 -0.0289641 -1.60874 0
M  V30 12087 O 1102.83 -0.2505 -1.75218 0
M  V30 12088 C 1099.96 -0.785997 -3.34181 0
M  V30 12089 C 1099.05 -1.90556 -3.78879 0
M  V30 12090 N 1099.44 -3.14888 -3.95827 0
M  V30 12091 C 1097.74 -1.79824 -4.08141 0
M  V30 12092 C 1098.44 -3.87919 -4.33467 0
M  V30 12093 N 1097.41 -3.15852 -4.42424 0
M  V30 12094 H 1101.22 -2.05227 -2.10379 0
M  V30 12095 H 1098.73 -1.20387 -1.08999 0
M  V30 12096 H 1100.73 -0.635381 -4.1203 0
M  V30 12097 H 1099.39 0.149302 -3.24357 0
M  V30 12098 H 1100.4 -3.5036 -3.81403 0
M  V30 12099 H 1097.07 -0.935548 -4.06883 0
M  V30 12100 H 1098.46 -4.94909 -4.54439 0
M  V30 12101 N 1101.18 1.11143 -1.11736 0
M  V30 12102 C 1102.43 1.83219 -0.869413 0
M  V30 12103 C 1102.76 1.84588 0.603402 0
M  V30 12104 O 1102.04 1.30119 1.44566 0
M  V30 12105 C 1102.32 3.30247 -1.43559 0
M  V30 12106 C 1102.17 3.37253 -2.97624 0
M  V30 12107 C 1103.49 4.26412 -1.08907 0
M  V30 12108 H 1100.61 0.665205 -0.317286 0
M  V30 12109 H 1103.25 1.30307 -1.38275 0
M  V30 12110 H 1101.4 3.75437 -0.998978 0
M  V30 12111 H 1103.08 3.00599 -3.49911 0
M  V30 12112 H 1101.32 2.77378 -3.33532 0
M  V30 12113 H 1101.99 4.40752 -3.32328 0
M  V30 12114 H 1104.47 3.89418 -1.46604 0
M  V30 12115 H 1103.34 5.27666 -1.51195 0
M  V30 12116 H 1103.6 4.421 -0.000259009 0
M  V30 12117 N 1102.66 0.908147 1.28804 0
M  V30 12118 C 1103.89 0.553431 1.9988 0
M  V30 12119 C 1104.31 -0.856714 1.67458 0
M  V30 12120 O 1103.67 -1.57163 0.903849 0
M  V30 12121 C 1103.72 0.762688 3.52442 0
M  V30 12122 O 1102.82 -0.180924 4.12003 0
M  V30 12123 H 1102.16 0.215237 0.628147 0
M  V30 12124 H 1104.69 1.22205 1.64095 0
M  V30 12125 H 1104.7 0.670612 4.02451 0
M  V30 12126 H 1103.38 1.79071 3.75375 0
M  V30 12127 H 1101.96 -0.0405897 3.72878 0
M  V30 12128 N 1104.14 -1.42577 0.671525 0
M  V30 12129 C 1105.39 -2.01584 0.192431 0
M  V30 12130 C 1105.72 -1.53076 -1.19992 0
M  V30 12131 O 1104.97 -0.722196 -1.81887 0
M  V30 12132 C 1105.27 -3.56985 0.172097 0
M  V30 12133 C 1104.94 -4.24912 1.50867 0
M  V30 12134 C 1103.6 -4.43182 1.87464 0
M  V30 12135 C 1105.95 -4.6322 2.38908 0
M  V30 12136 C 1103.28 -4.97031 3.11732 0
M  V30 12137 C 1105.63 -5.18447 3.62485 0
M  V30 12138 C 1104.29 -5.34932 3.99255 0
M  V30 12139 H 1103.56 -0.737647 0.0704155 0
M  V30 12140 H 1106.21 -1.70807 0.865862 0
M  V30 12141 H 1104.52 -3.87411 -0.584835 0
M  V30 12142 H 1106.21 -4.00419 -0.215749 0
M  V30 12143 H 1102.8 -4.11048 1.21397 0
M  V30 12144 H 1106.99 -4.4878 2.1192 0
M  V30 12145 H 1102.24 -5.07979 3.40246 0
M  V30 12146 H 1106.42 -5.47075 4.30909 0
M  V30 12147 H 1104.04 -5.76422 4.95623 0
M  V30 12148 N 1105.62 -0.414636 -1.52048 0
M  V30 12149 C 1106.55 0.399119 -2.30064 0
M  V30 12150 C 1107.53 1.04126 -1.34506 0
M  V30 12151 O 1108.71 1.04923 -1.63416 0
M  V30 12152 C 1105.84 1.51305 -3.12608 0
M  V30 12153 C 1104.8 0.995621 -4.16259 0
M  V30 12154 C 1104.12 2.20357 -4.87183 0
M  V30 12155 C 1105.42 0.0458178 -5.2228 0
M  V30 12156 H 1107.12 -0.251879 -2.98339 0
M  V30 12157 H 1104.66 -0.122579 -1.43477 0
M  V30 12158 H 1106.62 2.08936 -3.65956 0
M  V30 12159 H 1105.34 2.19201 -2.42113 0
M  V30 12160 H 1104 0.441676 -3.6393 0
M  V30 12161 H 1103.65 2.8682 -4.13211 0
M  V30 12162 H 1103.35 1.86385 -5.57256 0
M  V30 12163 H 1104.87 2.78584 -5.43345 0
M  V30 12164 H 1106.29 0.531102 -5.70835 0
M  V30 12165 H 1104.68 -0.20536 -5.99749 0
M  V30 12166 H 1105.75 -0.897807 -4.76516 0
M  V30 12167 N 1107.1 1.56929 -0.145233 0
M  V30 12168 C 1108.04 2.17958 0.812237 0
M  V30 12169 C 1109.04 1.13608 1.25657 0
M  V30 12170 O 1110.24 1.31861 1.22526 0
M  V30 12171 H 1106.62 0.697876 0.28013 0
M  V30 12172 H 1108.59 2.97146 0.273297 0
M  V30 12173 C 1107.34 2.81418 2.04203 0
M  V30 12174 H 1106.66 3.61427 1.70911 0
M  V30 12175 H 1108.1 3.27624 2.69144 0
M  V30 12176 C 1106.56 1.79835 2.84888 0
M  V30 12177 O 1107.09 1.26773 3.81171 0
M  V30 12178 N 1105.3 1.49179 2.49387 0
M  V30 12179 H 1104.84 1.9252 1.71154 0
M  V30 12180 H 1104.8 0.81458 3.03664 0
M  V30 12181 N 1108.58 -0.128553 1.57075 0
M  V30 12182 C 1109.49 -1.17718 2.02927 0
M  V30 12183 C 1110.5 -1.45912 0.947932 0
M  V30 12184 O 1111.68 -1.57217 1.25876 0
M  V30 12185 C 1108.74 -2.48625 2.41633 0
M  V30 12186 C 1107.8 -2.27914 3.63804 0
M  V30 12187 C 1107.04 -3.52579 4.00654 0
M  V30 12188 O 1107.26 -4.59505 3.37952 0
M  V30 12189 O 1106.19 -3.44147 4.93808 0
M  V30 12190 H 1110.02 -0.817846 2.92481 0
M  V30 12191 H 1107.6 -0.338649 1.45511 0
M  V30 12192 H 1109.49 -3.2577 2.67305 0
M  V30 12193 H 1108.16 -2.84052 1.55229 0
M  V30 12194 H 1107.07 -1.4866 3.43294 0
M  V30 12195 H 1108.4 -1.97395 4.50883 0
M  V30 12196 N 1110.05 -1.5248 -0.398459 0
M  V30 12197 C 1111.33 -1.57634 -1.15805 0
M  V30 12198 C 1111.71 -0.363785 -2.07942 0
M  V30 12199 O 1111.06 0.648598 -2.19101 0
M  V30 12200 C 1111.27 -2.91042 -1.92602 0
M  V30 12201 C 1112.62 -3.44433 -2.48296 0
M  V30 12202 O 1113.64 -2.92853 -2.0277 0
M  V30 12203 O 1112.5 -4.34529 -3.31432 0
M  V30 12204 H 1109.59 -0.63539 -0.529347 0
M  V30 12205 H 1112.14 -1.64812 -0.404376 0
M  V30 12206 H 1110.91 -3.7074 -1.25169 0
M  V30 12207 H 1110.53 -2.87206 -2.74952 0
M  V30 12208 N 1111.53 0.65634 -1.43283 0
M  V30 12209 C 1112.94 1.23744 -1.39801 0
M  V30 12210 C 1113.29 1.95942 -0.100507 0
M  V30 12211 O 1112.42 2.01063 0.800161 0
M  V30 12212 C 1113.01 2.25062 -2.53244 0
M  V30 12213 C 1111.57 2.78657 -2.53036 0
M  V30 12214 C 1110.72 1.53251 -2.31105 0
M  V30 12215 H 1113.67 0.448553 -1.52229 0
M  V30 12216 H 1113.69 3.07174 -2.24553 0
M  V30 12217 H 1113.2 1.72487 -3.47664 0
M  V30 12218 H 1111.3 3.35304 -1.62487 0
M  V30 12219 H 1111.42 3.26414 -3.507 0
M  V30 12220 H 1109.78 1.80487 -1.79713 0
M  V30 12221 H 1110.56 1.02615 -3.27605 0
M  V30 12222 N 1113.01 1.29761 0.894412 0
M  V30 12223 C 1114.26 1.17806 1.64214 0
M  V30 12224 C 1114.58 -0.269588 1.93127 0
M  V30 12225 O 1113.85 -1.18352 1.56107 0
M  V30 12226 H 1112.43 0.433002 0.608702 0
M  V30 12227 H 1115.09 1.6276 1.07216 0
M  V30 12228 H 1114.19 1.73201 2.5963 0
M  V30 12229 N 1114.49 -1.10549 1.12324 0
M  V30 12230 C 1115.9 -1.63991 0.892402 0
M  V30 12231 C 1116.25 -1.87631 -0.573506 0
M  V30 12232 O 1115.37 -1.6174 -1.43768 0
M  V30 12233 C 1115.97 -2.97914 1.61347 0
M  V30 12234 C 1114.53 -3.48227 1.42881 0
M  V30 12235 C 1113.68 -2.22857 1.65015 0
M  V30 12236 H 1116.63 -0.94065 1.27818 0
M  V30 12237 H 1116.65 -3.65326 1.06382 0
M  V30 12238 H 1116.16 -2.80677 2.68034 0
M  V30 12239 H 1114.26 -3.70611 0.384441 0
M  V30 12240 H 1114.37 -4.26419 2.18413 0
M  V30 12241 H 1112.74 -2.30941 1.07417 0
M  V30 12242 H 1113.52 -2.08152 2.72997 0
M  V30 12243 N 1115.97 -0.914965 -1.28321 0
M  V30 12244 C 1117.21 -0.549562 -1.95212 0
M  V30 12245 C 1117.54 0.904658 -1.71842 0
M  V30 12246 O 1116.82 1.64354 -1.04009 0
M  V30 12247 C 1117.1 -0.860927 -3.49657 0
M  V30 12248 C 1116.96 -2.36797 -3.82423 0
M  V30 12249 C 1118.27 -0.357926 -4.38642 0
M  V30 12250 H 1115.39 -0.201136 -0.709023 0
M  V30 12251 H 1118.04 -1.14443 -1.51667 0
M  V30 12252 H 1116.19 -0.354665 -3.86878 0
M  V30 12253 H 1117.86 -2.94494 -3.55065 0
M  V30 12254 H 1116.1 -2.82245 -3.29424 0
M  V30 12255 H 1116.77 -2.53637 -4.90278 0
M  V30 12256 H 1119.25 -0.791636 -4.085 0
M  V30 12257 H 1118.12 -0.604855 -5.45557 0
M  V30 12258 H 1118.38 0.741775 -4.35833 0
M  V30 12259 N 1117.44 1.42219 -0.679077 0
M  V30 12260 C 1118.86 1.55737 -0.349034 0
M  V30 12261 C 1119.06 1.65789 1.14527 0
M  V30 12262 O 1118.12 1.62717 1.93079 0
M  V30 12263 C 1119.43 2.80516 -1.0831 0
M  V30 12264 C 1120.98 2.94294 -1.06584 0
M  V30 12265 C 1121.45 4.2194 -1.78132 0
M  V30 12266 N 1122.94 4.28861 -1.75021 0
M  V30 12267 C 1123.68 5.26453 -2.27234 0
M  V30 12268 N 1123.17 6.30171 -2.87847 0
M  V30 12269 N 1124.97 5.1828 -2.17584 0
M  V30 12270 H 1117.12 1.33939 -1.64846 0
M  V30 12271 H 1119.38 0.645029 -0.694725 0
M  V30 12272 H 1119.09 2.79241 -2.13816 0
M  V30 12273 H 1118.96 3.71539 -0.651069 0
M  V30 12274 H 1121.35 2.95094 -0.0191061 0
M  V30 12275 H 1121.43 2.04491 -1.53679 0
M  V30 12276 H 1121.07 4.21901 -2.82776 0
M  V30 12277 H 1121 5.10685 -1.28483 0
M  V30 12278 H 1123.49 3.54537 -1.30814 0
M  V30 12279 H 1123.81 7.01 -3.25298 0
M  V30 12280 H 1122.15 6.30721 -2.91918 0
M  V30 12281 H 1125.34 4.36172 -1.69916 0
M  V30 12282 H 1125.52 5.94172 -2.58581 0
M  V30 12283 N 1118.92 0.422693 1.51826 0
M  V30 12284 C 1120.34 0.0742364 1.59427 0
M  V30 12285 C 1120.54 -1.41491 1.43466 0
M  V30 12286 O 1119.59 -2.18326 1.26846 0
M  V30 12287 C 1120.91 0.581272 2.95028 0
M  V30 12288 C 1122.45 0.54043 3.08299 0
M  V30 12289 C 1122.93 1.0242 4.46401 0
M  V30 12290 N 1124.42 0.981576 4.5268 0
M  V30 12291 C 1125.16 1.32693 5.57835 0
M  V30 12292 N 1124.65 1.74441 6.70479 0
M  V30 12293 N 1126.44 1.24603 5.48115 0
M  V30 12294 H 1118.6 1.39178 1.60447 0
M  V30 12295 H 1120.86 0.572607 0.75553 0
M  V30 12296 H 1120.56 1.62261 3.12032 0
M  V30 12297 H 1120.44 -0.00176969 3.772 0
M  V30 12298 H 1122.83 -0.491895 2.90971 0
M  V30 12299 H 1122.91 1.15969 2.28002 0
M  V30 12300 H 1122.55 2.05491 4.64474 0
M  V30 12301 H 1122.48 0.381613 5.25215 0
M  V30 12302 H 1124.97 0.674808 3.71826 0
M  V30 12303 H 1125.28 1.99068 7.46721 0
M  V30 12304 H 1123.63 1.78356 6.71725 0
M  V30 12305 H 1126.82 0.918641 4.58997 0
M  V30 12306 H 1126.99 1.51847 6.29958 0
M  V30 12307 N 1120.4 -1.5685 0.153553 0
M  V30 12308 C 1121.63 -2.00701 -0.502678 0
M  V30 12309 C 1122.04 -1.0337 -1.57988 0
M  V30 12310 O 1121.4 -0.0317233 -1.82472 0
M  V30 12311 C 1121.45 -3.44443 -1.09732 0
M  V30 12312 O 1121.17 -4.38054 -0.0631405 0
M  V30 12313 C 1122.67 -4.03605 -1.83352 0
M  V30 12314 H 1119.89 -0.658229 -0.130289 0
M  V30 12315 H 1122.44 -2.02965 0.250063 0
M  V30 12316 H 1120.59 -3.43009 -1.80065 0
M  V30 12317 H 1121.01 -5.22114 -0.499681 0
M  V30 12318 H 1122.48 -5.0616 -2.20241 0
M  V30 12319 H 1122.96 -3.44687 -2.7219 0
M  V30 12320 H 1123.56 -4.08688 -1.17703 0
M  V30 12321 N 1121.88 0.120221 -1.57141 0
M  V30 12322 C 1123.15 0.858458 -1.75755 0
M  V30 12323 C 1123.53 1.98124 -0.728693 0
M  V30 12324 O 1122.88 2.27155 0.247573 0
M  V30 12325 C 1123.09 1.37627 -3.20718 0
M  V30 12326 C 1124.44 1.82909 -3.83183 0
M  V30 12327 O 1125.46 1.47309 -3.24312 0
M  V30 12328 O 1124.32 2.4865 -4.86657 0
M  V30 12329 H 1121.42 0.407583 -0.719587 0
M  V30 12330 H 1123.96 0.104057 -1.69381 0
M  V30 12331 H 1122.74 0.570651 -3.87117 0
M  V30 12332 H 1122.36 2.19341 -3.31625 0
M  V30 12333 N 1123.36 1.52689 0.390367 0
M  V30 12334 C 1124.6 1.67666 1.13553 0
M  V30 12335 C 1124.93 0.415903 1.90001 0
M  V30 12336 O 1124.19 -0.601664 1.86222 0
M  V30 12337 C 1124.49 2.86177 2.14096 0
M  V30 12338 C 1124.15 4.23671 1.54316 0
M  V30 12339 C 1122.81 4.61066 1.37739 0
M  V30 12340 C 1125.17 5.09278 1.1084 0
M  V30 12341 C 1122.49 5.81727 0.76231 0
M  V30 12342 C 1124.85 6.30562 0.507433 0
M  V30 12343 C 1123.51 6.66689 0.328945 0
M  V30 12344 H 1122.78 0.613533 0.415521 0
M  V30 12345 H 1125.43 1.8683 0.420339 0
M  V30 12346 H 1123.73 2.61424 2.9183 0
M  V30 12347 H 1125.43 2.9496 2.7166 0
M  V30 12348 H 1122.02 3.94214 1.68207 0
M  V30 12349 H 1126.2 4.80957 1.2245 0
M  V30 12350 H 1121.46 6.08327 0.612208 0
M  V30 12351 H 1125.63 6.96211 0.162248 0
M  V30 12352 H 1123.26 7.60052 -0.149748 0
M  V30 12353 N 1124.83 -0.648732 1.43629 0
M  V30 12354 C 1125.78 -1.78269 1.49409 0
M  V30 12355 C 1126.78 -1.6537 0.367288 0
M  V30 12356 O 1127.98 -1.71663 0.541476 0
M  V30 12357 H 1124.36 -0.58824 0.468484 0
M  V30 12358 H 1126.33 -1.70514 2.44883 0
M  V30 12359 C 1125.08 -3.16545 1.43856 0
M  V30 12360 H 1124.4 -3.2711 2.29868 0
M  V30 12361 H 1125.84 -3.95833 1.51961 0
M  V30 12362 C 1124.3 -3.36535 0.156779 0
M  V30 12363 O 1124.83 -3.94052 -0.780124 0
M  V30 12364 N 1123.04 -2.90526 0.0655319 0
M  V30 12365 H 1122.58 -2.43904 0.828768 0
M  V30 12366 H 1122.54 -3.04277 -0.791379 0
M  V30 12367 N 1126.31 -1.30234 -0.887518 0
M  V30 12368 C 1127.26 -1.164 -1.99298 0
M  V30 12369 C 1128.23 -0.0541536 -1.66012 0
M  V30 12370 O 1129.41 -0.223881 -1.89482 0
M  V30 12371 C 1126.55 -0.859169 -3.34234 0
M  V30 12372 C 1125.67 -2.05065 -3.80227 0
M  V30 12373 C 1124.8 -1.68413 -5.03796 0
M  V30 12374 C 1123.84 -2.8407 -5.4219 0
M  V30 12375 N 1122.98 -2.47732 -6.56942 0
M  V30 12376 H 1127.82 -2.10973 -2.10463 0
M  V30 12377 H 1125.36 -1.04969 -1.03053 0
M  V30 12378 H 1127.31 -0.663064 -4.11897 0
M  V30 12379 H 1125.94 0.0496808 -3.22762 0
M  V30 12380 H 1125 -2.35808 -2.98494 0
M  V30 12381 H 1126.31 -2.91688 -4.04623 0
M  V30 12382 H 1125.46 -1.45162 -5.89078 0
M  V30 12383 H 1124.2 -0.789553 -4.81266 0
M  V30 12384 H 1123.21 -3.0799 -4.55437 0
M  V30 12385 H 1124.43 -3.74211 -5.66695 0
M  V30 12386 H 1122.38 -1.60777 -6.35993 0
M  V30 12387 H 1122.29 -3.27887 -6.81195 0
M  V30 12388 H 1123.56 -2.27831 -7.45462 0
M  V30 12389 N 1127.79 1.09952 -1.12909 0
M  V30 12390 C 1129.04 1.81386 -0.882163 0
M  V30 12391 C 1129.35 1.86376 0.593592 0
M  V30 12392 O 1130.56 2.54064 0.957275 0
M  V30 12393 C 1129.01 3.25824 -1.52861 0
M  V30 12394 C 1128.62 3.29117 -3.0395 0
M  V30 12395 C 1130.37 4.02051 -1.36216 0
M  V30 12396 C 1128.27 4.68047 -3.61505 0
M  V30 12397 H 1127.2 0.679701 -0.326378 0
M  V30 12398 H 1129.85 1.23614 -1.35616 0
M  V30 12399 H 1128.24 3.83624 -0.982271 0
M  V30 12400 H 1129.41 2.81114 -3.65119 0
M  V30 12401 H 1127.73 2.66379 -3.20049 0
M  V30 12402 H 1130.32 5.04683 -1.76633 0
M  V30 12403 H 1130.67 4.15171 -0.306391 0
M  V30 12404 H 1131.2 3.5068 -1.87799 0
M  V30 12405 H 1127.94 4.60128 -4.66865 0
M  V30 12406 H 1127.46 5.16397 -3.05114 0
M  V30 12407 H 1129.14 5.37018 -3.6086 0
M  V30 12408 N 1129.27 0.921757 1.27833 0
M  V30 12409 C 1130.2 0.373575 2.26135 0
M  V30 12410 C 1131.21 -0.492414 1.55174 0
M  V30 12411 O 1132.4 -0.305998 1.75858 0
M  V30 12412 C 1129.5 -0.483911 3.35427 0
M  V30 12413 C 1128.68 0.361411 4.35904 0
M  V30 12414 C 1127.73 -0.432461 5.2442 0
M  V30 12415 O 1126.76 0.15777 5.68981 0
M  V30 12416 N 1127.96 -1.73367 5.54007 0
M  V30 12417 H 1130.73 1.21856 2.73809 0
M  V30 12418 H 1128.29 0.788552 1.41398 0
M  V30 12419 H 1130.28 -1.02193 3.91585 0
M  V30 12420 H 1128.85 -1.22963 2.874 0
M  V30 12421 H 1128.07 1.08076 3.79095 0
M  V30 12422 H 1129.36 0.939528 5.0005 0
M  V30 12423 H 1128.76 -2.23561 5.19651 0
M  V30 12424 H 1127.31 -2.21834 6.12889 0
M  V30 12425 N 1130.75 -1.41857 0.686609 0
M  V30 12426 C 1132.02 -1.95082 0.142228 0
M  V30 12427 C 1132.4 -1.62646 -1.34572 0
M  V30 12428 O 1131.75 -0.928757 -2.08773 0
M  V30 12429 C 1131.96 -3.46415 0.423955 0
M  V30 12430 C 1133.31 -4.23181 0.346842 0
M  V30 12431 O 1134.33 -3.54393 0.358363 0
M  V30 12432 O 1133.19 -5.4568 0.299211 0
M  V30 12433 H 1130.29 -0.826943 0.00974 0
M  V30 12434 H 1132.83 -1.51622 0.762153 0
M  V30 12435 H 1131.6 -3.63273 1.45424 0
M  V30 12436 H 1131.23 -3.96949 -0.227391 0
M  V30 12437 N 1132.22 -0.430739 -1.51599 0
M  V30 12438 C 1133.45 0.139197 -2.06932 0
M  V30 12439 C 1133.87 1.3626 -1.29672 0
M  V30 12440 O 1133.23 1.78219 -0.332836 0
M  V30 12441 C 1133.28 0.446593 -3.57824 0
M  V30 12442 O 1132.38 1.53414 -3.82803 0
M  V30 12443 H 1131.73 0.00475812 -0.663983 0
M  V30 12444 H 1134.26 -0.610171 -1.9529 0
M  V30 12445 H 1134.27 0.698972 -4.01968 0
M  V30 12446 H 1132.94 -0.447613 -4.13484 0
M  V30 12447 H 1131.52 1.27224 -3.50526 0
M  V30 12448 N 1133.7 1.56767 -0.161869 0
M  V30 12449 C 1134.93 2.01401 0.49523 0
M  V30 12450 C 1135.35 1.04133 1.56646 0
M  V30 12451 O 1134.71 0.0193747 1.8129 0
M  V30 12452 C 1134.76 3.44695 1.05913 0
M  V30 12453 O 1133.86 3.50475 2.1735 0
M  V30 12454 H 1133.2 0.65314 0.1196 0
M  V30 12455 H 1135.73 2.02903 -0.26298 0
M  V30 12456 H 1135.74 3.83805 1.3841 0
M  V30 12457 H 1134.42 4.14991 0.274749 0
M  V30 12458 H 1133 3.23218 1.85969 0
M  V30 12459 N 1135.18 -0.111886 1.57202 0
M  V30 12460 C 1136.6 -0.465629 1.52657 0
M  V30 12461 C 1136.8 -1.81463 0.875989 0
M  V30 12462 O 1135.85 -2.4825 0.461345 0
M  V30 12463 C 1137.17 -0.443571 2.9741 0
M  V30 12464 C 1138.71 -0.52662 3.08538 0
M  V30 12465 C 1139.19 -0.53488 4.54866 0
M  V30 12466 N 1140.68 -0.596117 4.59348 0
M  V30 12467 C 1141.41 -0.624073 5.69994 0
M  V30 12468 N 1140.91 -0.609245 6.90116 0
M  V30 12469 N 1142.7 -0.667619 5.58121 0
M  V30 12470 H 1134.85 0.771925 1.97876 0
M  V30 12471 H 1137.12 0.285534 0.903977 0
M  V30 12472 H 1136.82 0.480138 3.48407 0
M  V30 12473 H 1136.7 -1.26876 3.55221 0
M  V30 12474 H 1139.08 -1.44075 2.57539 0
M  V30 12475 H 1139.17 0.326396 2.53709 0
M  V30 12476 H 1138.81 0.375233 5.06512 0
M  V30 12477 H 1138.74 -1.40488 5.07514 0
M  V30 12478 H 1141.23 -0.613452 3.72888 0
M  V30 12479 H 1141.54 -0.633396 7.702 0
M  V30 12480 H 1139.89 -0.576557 6.92604 0
M  V30 12481 H 1143.08 -0.676616 4.63184 0
M  V30 12482 H 1143.25 -0.685938 6.44359 0
M  V30 12483 N 1136.66 -1.52894 -0.382264 0
M  V30 12484 C 1137.61 -1.78799 -1.48774 0
M  V30 12485 C 1138.6 -0.65624 -1.56173 0
M  V30 12486 O 1139.81 -0.838856 -1.59258 0
M  V30 12487 H 1136.18 -0.565855 -0.49529 0
M  V30 12488 H 1138.15 -2.7136 -1.24122 0
M  V30 12489 C 1136.9 -1.97987 -2.85826 0
M  V30 12490 H 1136.22 -2.84505 -2.80886 0
M  V30 12491 H 1137.66 -2.20099 -3.62398 0
M  V30 12492 C 1136.12 -0.75427 -3.28348 0
M  V30 12493 O 1136.65 0.0650749 -4.01647 0
M  V30 12494 N 1134.86 -0.582457 -2.84703 0
M  V30 12495 H 1134.41 -1.25034 -2.2522 0
M  V30 12496 H 1134.36 0.236208 -3.13511 0
M  V30 12497 N 1138.14 0.641106 -1.43971 0
M  V30 12498 C 1139.09 1.77474 -1.50352 0
M  V30 12499 C 1140.08 1.65173 -0.376052 0
M  V30 12500 O 1141.29 1.71373 -0.550572 0
M  V30 12501 H 1137.66 0.585747 -0.471597 0
M  V30 12502 H 1139.63 1.69213 -2.45784 0
M  V30 12503 C 1138.38 3.15778 -1.45532 0
M  V30 12504 H 1137.7 3.25886 -2.316 0
M  V30 12505 H 1139.14 3.95022 -1.54058 0
M  V30 12506 C 1137.6 3.36447 -0.174624 0
M  V30 12507 O 1138.13 3.9446 0.759215 0
M  V30 12508 N 1136.34 2.90487 -0.0809383 0
M  V30 12509 H 1135.89 2.43461 -0.841691 0
M  V30 12510 H 1135.84 3.04693 0.775231 0
M  V30 12511 N 1139.62 1.30703 0.880598 0
M  V30 12512 C 1140.84 1.22843 1.67106 0
M  V30 12513 C 1141.27 -0.204788 1.86982 0
M  V30 12514 O 1140.62 -1.14716 1.40392 0
M  V30 12515 C 1140.67 1.96685 3.02237 0
M  V30 12516 O 1139.78 1.29693 3.91476 0
M  V30 12517 H 1139.12 0.424661 0.51045 0
M  V30 12518 H 1141.65 1.72596 1.09871 0
M  V30 12519 H 1141.66 2.05874 3.52249 0
M  V30 12520 H 1140.33 3.00919 2.8709 0
M  V30 12521 H 1138.91 1.28886 3.49918 0
M  V30 12522 N 1141.09 -1.09351 1.1349 0
M  V30 12523 C 1142.04 -2.16008 0.812981 0
M  V30 12524 C 1143.01 -1.64566 -0.225252 0
M  V30 12525 O 1144.2 -1.90552 -0.0973261 0
M  V30 12526 C 1141.34 -3.43913 0.285996 0
M  V30 12527 C 1140.45 -4.09251 1.38338 0
M  V30 12528 C 1139.58 -5.24916 0.814652 0
M  V30 12529 C 1138.62 -5.82178 1.89038 0
M  V30 12530 N 1137.76 -6.89203 1.33955 0
M  V30 12531 H 1142.6 -2.42887 1.72655 0
M  V30 12532 H 1140.14 -1.19209 0.861833 0
M  V30 12533 H 1142.09 -4.17183 -0.0376794 0
M  V30 12534 H 1140.72 -3.17349 -0.590707 0
M  V30 12535 H 1139.78 -3.33838 1.82363 0
M  V30 12536 H 1141.09 -4.4784 2.19638 0
M  V30 12537 H 1140.24 -6.05086 0.442306 0
M  V30 12538 H 1138.98 -4.87691 -0.029416 0
M  V30 12539 H 1137.99 -5.00669 2.27179 0
M  V30 12540 H 1139.21 -6.21464 2.73787 0
M  V30 12541 H 1137.16 -6.53956 0.517494 0
M  V30 12542 H 1137.07 -7.26565 2.08902 0
M  V30 12543 H 1138.34 -7.73126 0.994793 0
M  V30 12544 N 1142.57 -0.928524 -1.27343 0
M  V30 12545 C 1143.8 -0.585734 -1.98436 0
M  V30 12546 C 1144.21 0.83644 -1.69261 0
M  V30 12547 O 1143.57 1.55603 -0.953626 0
M  V30 12548 C 1143.62 -0.803092 -3.52467 0
M  V30 12549 O 1143.34 -2.16932 -3.80621 0
M  V30 12550 C 1144.84 -0.469127 -4.40811 0
M  V30 12551 H 1142.06 -0.221887 -0.633251 0
M  V30 12552 H 1144.61 -1.24577 -1.62175 0
M  V30 12553 H 1142.76 -0.189846 -3.86935 0
M  V30 12554 H 1143.18 -2.21992 -4.75205 0
M  V30 12555 H 1144.65 -0.671906 -5.47895 0
M  V30 12556 H 1145.13 0.595365 -4.35146 0
M  V30 12557 H 1145.73 -1.06055 -4.11865 0
M  V30 12558 N 1144.05 1.41491 -0.694123 0
M  V30 12559 C 1145.28 2.05579 -0.233466 0
M  V30 12560 C 1145.69 1.5223 1.11675 0
M  V30 12561 O 1145.05 0.669937 1.69759 0
M  V30 12562 C 1145.1 3.61047 -0.180967 0
M  V30 12563 O 1144.82 4.12421 -1.47785 0
M  V30 12564 C 1146.32 4.42278 0.300853 0
M  V30 12565 H 1143.54 0.662097 -0.108943 0
M  V30 12566 H 1146.09 1.81288 -0.946299 0
M  V30 12567 H 1144.24 3.84381 0.482678 0
M  V30 12568 H 1144.66 5.06454 -1.364 0
M  V30 12569 H 1146.13 5.51256 0.286464 0
M  V30 12570 H 1146.61 4.18276 1.33948 0
M  V30 12571 H 1147.21 4.24004 -0.331741 0
M  V30 12572 N 1145.53 0.438773 1.51369 0
M  V30 12573 C 1146.46 -0.362467 2.3067 0
M  V30 12574 C 1147.44 -1.01973 1.36145 0
M  V30 12575 O 1148.62 -1.0231 1.65065 0
M  V30 12576 C 1145.75 -1.46313 3.14976 0
M  V30 12577 C 1144.71 -0.929272 4.1779 0
M  V30 12578 C 1144.03 -2.12579 4.90627 0
M  V30 12579 C 1145.33 0.0372782 5.22287 0
M  V30 12580 H 1147.03 0.29931 2.979 0
M  V30 12581 H 1144.57 0.14539 1.43264 0
M  V30 12582 H 1146.53 -2.03088 3.69233 0
M  V30 12583 H 1145.25 -2.15321 2.45569 0
M  V30 12584 H 1143.91 -0.383722 3.64586 0
M  V30 12585 H 1143.56 -2.8021 4.17722 0
M  V30 12586 H 1143.26 -1.77496 5.60151 0
M  V30 12587 H 1144.78 -2.69905 5.47708 0
M  V30 12588 H 1146.2 -0.44022 5.71607 0
M  V30 12589 H 1144.59 0.300748 5.99346 0
M  V30 12590 H 1145.66 0.973503 4.75027 0
M  V30 12591 N 1147.01 -1.56678 0.170181 0
M  V30 12592 C 1147.95 -2.19222 -0.777459 0
M  V30 12593 C 1148.95 -1.15592 -1.23834 0
M  V30 12594 O 1150.15 -1.33794 -1.20412 0
M  V30 12595 H 1146.53 -0.702244 -0.268992 0
M  V30 12596 H 1148.5 -2.97543 -0.225989 0
M  V30 12597 C 1147.25 -2.84631 -1.997 0
M  V30 12598 H 1146.57 -3.641 -1.65139 0
M  V30 12599 H 1148.01 -3.31864 -2.63898 0
M  V30 12600 C 1146.47 -1.84345 -2.81991 0
M  V30 12601 O 1147 -1.32821 -3.79106 0
M  V30 12602 N 1145.21 -1.53127 -2.46983 0
M  V30 12603 H 1144.75 -1.95219 -1.6807 0
M  V30 12604 H 1144.71 -0.862787 -3.0233 0
M  V30 12605 N 1148.48 0.103547 -1.57259 0
M  V30 12606 C 1149.45 1.11039 -2.00507 0
M  V30 12607 C 1150.45 1.33432 -0.897361 0
M  V30 12608 O 1151.64 1.29688 -1.16304 0
M  V30 12609 C 1148.77 2.46144 -2.35851 0
M  V30 12610 H 1149.96 0.738332 -2.90669 0
M  V30 12611 H 1147.51 0.348334 -1.52369 0
M  V30 12612 H 1148.25 2.88242 -1.48617 0
M  V30 12613 H 1148.03 2.31241 -3.16654 0
M  V30 12614 H 1149.52 3.18577 -2.69997 0
M  V30 12615 N 1149.96 1.53094 0.37415 0
M  V30 12616 C 1151.21 1.68861 1.11769 0
M  V30 12617 C 1151.54 0.436032 1.89549 0
M  V30 12618 O 1150.79 -0.581879 1.86849 0
M  V30 12619 C 1151.09 2.88432 2.11049 0
M  V30 12620 C 1150.76 4.25284 1.49814 0
M  V30 12621 C 1149.42 4.62501 1.32841 0
M  V30 12622 C 1151.77 5.10425 1.05433 0
M  V30 12623 C 1149.1 5.82502 0.700567 0
M  V30 12624 C 1151.45 6.31064 0.440525 0
M  V30 12625 C 1150.11 6.67 0.258216 0
M  V30 12626 H 1149.38 0.617906 0.40899 0
M  V30 12627 H 1152.03 1.87265 0.4005 0
M  V30 12628 H 1150.34 2.64505 2.8904 0
M  V30 12629 H 1152.03 2.97825 2.68517 0
M  V30 12630 H 1148.62 3.95976 1.64016 0
M  V30 12631 H 1152.81 4.82229 1.17342 0
M  V30 12632 H 1148.06 6.08942 0.547652 0
M  V30 12633 H 1152.24 6.96344 0.0883962 0
M  V30 12634 H 1149.86 7.59851 -0.230354 0
M  V30 12635 N 1151.44 -0.633461 1.44309 0
M  V30 12636 C 1152.35 -1.77428 1.53481 0
M  V30 12637 C 1153.37 -1.68839 0.420628 0
M  V30 12638 O 1154.54 -1.89658 0.677638 0
M  V30 12639 C 1151.61 -3.13801 1.47409 0
M  V30 12640 C 1150.67 -3.34039 2.6966 0
M  V30 12641 C 1149.9 -4.63907 2.63868 0
M  V30 12642 O 1150.12 -5.44559 1.69741 0
M  V30 12643 O 1149.06 -4.86295 3.54684 0
M  V30 12644 H 1152.88 -1.72642 2.49857 0
M  V30 12645 H 1150.47 -0.794399 1.26529 0
M  V30 12646 H 1152.35 -3.95101 1.46537 0
M  V30 12647 H 1151.03 -3.19134 0.541769 0
M  V30 12648 H 1149.93 -2.52427 2.761 0
M  V30 12649 H 1151.27 -3.33566 3.61931 0
M  V30 12650 N 1152.92 -1.31168 -0.873655 0
M  V30 12651 C 1153.83 -1.20458 -2.01313 0
M  V30 12652 C 1154.84 -0.122074 -1.73571 0
M  V30 12653 O 1156.02 -0.339176 -1.98523 0
M  V30 12654 C 1153.09 -0.90876 -3.34578 0
M  V30 12655 C 1152.15 -2.07779 -3.75668 0
M  V30 12656 C 1151.38 -1.79599 -5.02573 0
M  V30 12657 O 1151.6 -0.729338 -5.65718 0
M  V30 12658 O 1150.54 -2.65169 -5.40341 0
M  V30 12659 H 1154.36 -2.16207 -2.13279 0
M  V30 12660 H 1151.95 -1.10871 -1.00139 0
M  V30 12661 H 1153.83 -0.759469 -4.145 0
M  V30 12662 H 1152.5 0.0187249 -3.23695 0
M  V30 12663 H 1151.41 -2.28247 -2.96402 0
M  V30 12664 H 1152.74 -2.9874 -3.91172 0
M  V30 12665 N 1154.4 1.08748 -1.14068 0
M  V30 12666 C 1155.64 1.81333 -0.908081 0
M  V30 12667 C 1155.98 1.85826 0.564112 0
M  V30 12668 O 1155.25 1.33157 1.41773 0
M  V30 12669 C 1155.53 3.27127 -1.50531 0
M  V30 12670 C 1155.39 3.30865 -3.04711 0
M  V30 12671 C 1156.71 4.24006 -1.17928 0
M  V30 12672 H 1153.82 0.658326 -0.331325 0
M  V30 12673 H 1156.47 1.27345 -1.41008 0
M  V30 12674 H 1154.62 3.73233 -1.07839 0
M  V30 12675 H 1156.29 2.93109 -3.56209 0
M  V30 12676 H 1154.53 2.70241 -3.39341 0
M  V30 12677 H 1155.2 4.33603 -3.41603 0
M  V30 12678 H 1157.68 3.86221 -1.54831 0
M  V30 12679 H 1156.55 5.2434 -1.62353 0
M  V30 12680 H 1156.82 4.42 -0.0940349 0
M  V30 12681 N 1155.87 0.935264 1.26849 0
M  V30 12682 C 1156.78 0.446122 2.30319 0
M  V30 12683 C 1157.8 -0.476965 1.67335 0
M  V30 12684 O 1158.98 -0.357934 1.98194 0
M  V30 12685 C 1156.04 -0.286297 3.45516 0
M  V30 12686 C 1155.1 0.672626 4.23998 0
M  V30 12687 C 1154.34 -0.0249345 5.33694 0
M  V30 12688 O 1154.56 -1.24296 5.56693 0
M  V30 12689 O 1153.49 0.650752 5.98372 0
M  V30 12690 H 1157.32 1.30546 2.74211 0
M  V30 12691 H 1154.9 0.70091 1.31938 0
M  V30 12692 H 1156.79 -0.699109 4.1556 0
M  V30 12693 H 1155.46 -1.12112 3.03665 0
M  V30 12694 H 1154.37 1.13527 3.56458 0
M  V30 12695 H 1155.7 1.47489 4.69583 0
M  V30 12696 N 1157.35 -1.41121 0.701616 0
M  V30 12697 C 1158.26 -2.34565 0.0407815 0
M  V30 12698 C 1159.28 -1.56555 -0.75937 0
M  V30 12699 O 1160.45 -1.89008 -0.695542 0
M  V30 12700 C 1157.52 -3.35347 -0.879954 0
M  V30 12701 C 1156.58 -4.29241 -0.0713279 0
M  V30 12702 C 1155.81 -5.25209 -0.948211 0
M  V30 12703 O 1156.04 -5.26781 -2.18766 0
M  V30 12704 O 1154.97 -6.00605 -0.394657 0
M  V30 12705 H 1158.8 -2.92666 0.811188 0
M  V30 12706 H 1156.38 -1.42077 0.461991 0
M  V30 12707 H 1158.26 -3.9719 -1.40776 0
M  V30 12708 H 1156.94 -2.7968 -1.62975 0
M  V30 12709 H 1155.85 -3.70727 0.50122 0
M  V30 12710 H 1157.18 -4.88022 0.639935 0
M  V30 12711 N 1158.83 -0.446794 -1.51134 0
M  V30 12712 C 1160.08 0.116493 -2.02165 0
M  V30 12713 C 1160.41 1.41884 -1.33039 0
M  V30 12714 O 1159.66 1.90757 -0.437071 0
M  V30 12715 C 1159.96 0.373015 -3.55448 0
M  V30 12716 C 1159.63 -0.844659 -4.42918 0
M  V30 12717 C 1158.29 -1.17857 -4.66544 0
M  V30 12718 C 1160.64 -1.65653 -4.94174 0
M  V30 12719 C 1157.97 -2.32486 -5.38672 0
M  V30 12720 C 1160.32 -2.7939 -5.6756 0
M  V30 12721 C 1158.98 -3.13224 -5.89446 0
M  V30 12722 H 1158.25 0.0426279 -0.739773 0
M  V30 12723 H 1160.9 -0.595921 -1.81992 0
M  V30 12724 H 1159.21 1.16742 -3.74003 0
M  V30 12725 H 1160.9 0.822425 -3.92476 0
M  V30 12726 H 1157.49 -0.574478 -4.24733 0
M  V30 12727 H 1161.68 -1.41176 -4.75797 0
M  V30 12728 H 1156.93 -2.59003 -5.5383 0
M  V30 12729 H 1161.11 -3.42662 -6.06264 0
M  V30 12730 H 1158.73 -4.02158 -6.45115 0
M  V30 12731 N 1160.31 1.56586 -0.178487 0
M  V30 12732 C 1161.72 1.83633 0.337009 0
M  V30 12733 C 1162.07 1.09857 1.6256 0
M  V30 12734 O 1161.2 0.353933 2.13486 0
M  V30 12735 C 1161.79 3.33112 0.618225 0
M  V30 12736 C 1160.35 3.60629 1.07814 0
M  V30 12737 C 1159.5 2.7705 0.117825 0
M  V30 12738 H 1162.45 1.53508 -0.402612 0
M  V30 12739 H 1162.47 3.5098 1.46947 0
M  V30 12740 H 1161.98 3.8678 -0.319808 0
M  V30 12741 H 1160.08 3.12378 2.03103 0
M  V30 12742 H 1160.19 4.68921 0.982339 0
M  V30 12743 H 1158.56 2.47125 0.616563 0
M  V30 12744 H 1159.34 3.33501 -0.814356 0
M  V30 12745 N 1161.79 -0.095206 1.57312 0
M  V30 12746 C 1162.7 -1.13388 2.05379 0
M  V30 12747 C 1163.71 -1.43868 0.978668 0
M  V30 12748 O 1164.89 -1.54512 1.29182 0
M  V30 12749 C 1161.95 -2.43444 2.46852 0
M  V30 12750 C 1161.01 -2.20146 3.68557 0
M  V30 12751 C 1160.25 -3.44001 4.08043 0
M  V30 12752 O 1160.47 -4.52233 3.47623 0
M  V30 12753 O 1159.4 -3.33596 5.00997 0
M  V30 12754 H 1163.23 -0.755622 2.9415 0
M  V30 12755 H 1160.82 -0.307707 1.46197 0
M  V30 12756 H 1162.7 -3.20027 2.74155 0
M  V30 12757 H 1161.37 -2.80696 1.61219 0
M  V30 12758 H 1160.28 -1.41345 3.46371 0
M  V30 12759 H 1161.61 -1.87787 4.54969 0
M  V30 12760 N 1163.26 -1.53291 -0.366026 0
M  V30 12761 C 1164.49 -1.73359 -1.12934 0
M  V30 12762 C 1164.91 -0.462352 -1.83051 0
M  V30 12763 O 1164.26 0.564711 -1.73543 0
M  V30 12764 C 1164.32 -2.89873 -2.15999 0
M  V30 12765 O 1164.04 -4.12079 -1.48737 0
M  V30 12766 C 1165.54 -3.21811 -3.04881 0
M  V30 12767 H 1162.76 -0.579827 -0.337701 0
M  V30 12768 H 1165.3 -2.00033 -0.425081 0
M  V30 12769 H 1163.46 -2.65595 -2.82025 0
M  V30 12770 H 1163.87 -4.77322 -2.17404 0
M  V30 12771 H 1165.34 -4.06744 -3.7318 0
M  V30 12772 H 1165.82 -2.37156 -3.69667 0
M  V30 12773 H 1166.43 -3.48013 -2.44473 0
M  V30 12774 N 1164.74 0.6258 -1.44643 0
M  V30 12775 C 1165.97 1.41726 -1.51422 0
M  V30 12776 C 1166.39 1.87565 -0.14181 0
M  V30 12777 O 1165.75 1.59059 0.870054 0
M  V30 12778 C 1165.8 2.61012 -2.48807 0
M  V30 12779 O 1164.9 3.61029 -1.99328 0
M  V30 12780 H 1164.24 0.423855 -0.511119 0
M  V30 12781 H 1166.77 0.763336 -1.89827 0
M  V30 12782 H 1166.78 3.08489 -2.67018 0
M  V30 12783 H 1165.46 2.26995 -3.48491 0
M  V30 12784 H 1164.04 3.20325 -1.90909 0
M  V30 12785 N 1166.22 1.31629 0.866686 0
M  V30 12786 C 1167.47 1.21683 1.62238 0
M  V30 12787 C 1167.8 -0.223767 1.92907 0
M  V30 12788 O 1167.07 -1.15761 1.563 0
M  V30 12789 C 1167.36 2.06443 2.95048 0
M  V30 12790 C 1167.21 3.58818 2.71237 0
M  V30 12791 C 1168.53 1.91634 3.96187 0
M  V30 12792 H 1165.65 0.443389 0.588707 0
M  V30 12793 H 1168.29 1.61453 1.00164 0
M  V30 12794 H 1166.44 1.72654 3.48027 0
M  V30 12795 H 1168.11 4.0276 2.24905 0
M  V30 12796 H 1166.36 3.82085 2.05411 0
M  V30 12797 H 1167.03 4.13436 3.65752 0
M  V30 12798 H 1169.5 2.21209 3.52428 0
M  V30 12799 H 1168.38 2.53236 4.86993 0
M  V30 12800 H 1168.64 0.880564 4.33242 0
M  V30 12801 O 1167.74 -1.0035 1.26539 0
M  V30 12802 H 1168.43 -1.62413 1.05554 0
M  V30 END ATOM
M  V30 BEGIN BOND
M  V30 END BOND
M  V30 END CTAB
M  END
$$$$
