drugbank_target|O14842 Free fatty acid receptor 1 (DB00159)
 OpenBabel12092119373D

  0  0  0     0  0            999 V3000
M  V30 BEGIN CTAB
M  V30 COUNTS 4506 4572 0 0 0
M  V30 BEGIN ATOM
M  V30 1 H -0.908 1.98254 -0.117106 0
M  V30 2 N 0 1.576 0 0
M  V30 3 C 0.933 2.03868 1.02534 0
M  V30 4 C 1.911 0.928543 1.3348 0
M  V30 5 O 3.095 1.19667 1.45644 0
M  V30 6 C 0.222 2.43627 2.35294 0
M  V30 7 C -0.732 3.65373 2.2001 0
M  V30 8 S 0.101 5.13292 1.52614 0
M  V30 9 C 1.257 5.56322 2.86805 0
M  V30 10 H 1.49 2.90518 0.631377 0
M  V30 11 H -0.977 1.52953 0.210867 0
M  V30 12 H 0.981 2.67203 3.11629 0
M  V30 13 H -0.358 1.57376 2.7183 0
M  V30 14 H -1.165 3.90944 3.18086 0
M  V30 15 H -1.563 3.418 1.51819 0
M  V30 16 H 0.729 5.58782 3.83104 0
M  V30 17 H 1.672 6.56266 2.65933 0
M  V30 18 H 2.08 4.83886 2.90714 0
M  V30 19 N 1.4781 -0.272755 1.55222 0
M  V30 20 C 2.7551 -1.02562 1.66555 0
M  V30 21 C 3.1351 -2.04282 0.532189 0
M  V30 22 O 2.4831 -2.23662 -0.467717 0
M  V30 23 C 2.6931 -1.6822 3.05782 0
M  V30 24 C 4.0411 -2.19373 3.63539 0
M  V30 25 O 5.0651 -1.78206 3.08417 0
M  V30 26 O 3.9241 -2.94883 4.60115 0
M  V30 27 H 1.0181 -0.475755 0.676451 0
M  V30 28 H 3.5641 -0.268593 1.67561 0
M  V30 29 H 2.3361 -0.945112 3.79715 0
M  V30 30 H 1.9591 -2.50609 3.08676 0
M  V30 31 N 2.9562 -1.48159 -0.537278 0
M  V30 32 C 3.8862 -1.65029 -1.6519 0
M  V30 33 C 4.8672 -0.499281 -1.62607 0
M  V30 34 O 6.0522 -0.730972 -1.79918 0
M  V30 35 C 3.1822 -1.68303 -3.03795 0
M  V30 36 C 2.1362 -2.8283 -3.21234 0
M  V30 37 C 1.4622 -2.71189 -4.60826 0
M  V30 38 C 2.7622 -4.24211 -3.04701 0
M  V30 39 H 4.4562 -2.58341 -1.51328 0
M  V30 40 H 2.0022 -1.24325 -0.726585 0
M  V30 41 H 3.9552 -1.78693 -3.81637 0
M  V30 42 H 2.6792 -0.715635 -3.18663 0
M  V30 43 H 1.3382 -2.71983 -2.45807 0
M  V30 44 H 0.9862 -1.72435 -4.7252 0
M  V30 45 H 0.6862 -3.48035 -4.7344 0
M  V30 46 H 2.2102 -2.83537 -5.40777 0
M  V30 47 H 3.6242 -4.3593 -3.72341 0
M  V30 48 H 2.0212 -5.01998 -3.28813 0
M  V30 49 H 3.0912 -4.41184 -2.01209 0
M  V30 50 N 4.4343 0.785586 -1.36625 0
M  V30 51 C 5.8453 1.36101 -1.27803 0
M  V30 52 C 6.1963 1.96035 0.0804875 0
M  V30 53 O 5.3213 1.92834 0.982042 0
M  V30 54 C 5.9163 2.47442 -2.31426 0
M  V30 55 C 4.4753 3.00789 -2.26281 0
M  V30 56 C 3.6223 1.73896 -2.15999 0
M  V30 57 H 6.5733 0.586928 -1.47448 0
M  V30 58 H 6.5943 3.2656 -1.95291 0
M  V30 59 H 6.1063 2.03791 -3.30289 0
M  V30 60 H 4.2073 3.48851 -1.30896 0
M  V30 61 H 4.3203 3.57343 -3.19128 0
M  V30 62 H 2.6843 1.9628 -1.62316 0
M  V30 63 H 3.4673 1.32368 -3.16755 0
M  V30 64 N 5.9124 1.20967 1.01018 0
M  V30 65 C 7.3234 1.02319 1.56165 0
M  V30 66 C 7.6744 -0.418546 1.91684 0
M  V30 67 O 6.7994 -1.30096 1.72928 0
M  V30 68 C 7.3944 1.85109 2.8376 0
M  V30 69 C 5.9534 1.70809 3.35412 0
M  V30 70 C 5.1004 1.82643 2.08655 0
M  V30 71 H 8.0514 1.35065 0.833255 0
M  V30 72 H 8.0724 1.35827 3.55431 0
M  V30 73 H 7.5844 2.90035 2.57878 0
M  V30 74 H 5.6854 0.685464 3.66241 0
M  V30 75 H 5.7984 2.52467 4.07182 0
M  V30 76 H 4.1624 1.25896 2.21409 0
M  V30 77 H 4.9454 2.89066 1.85191 0
M  V30 78 N 7.3905 -1.2043 1.01659 0
M  V30 79 C 8.3225 -2.22626 0.544988 0
M  V30 80 C 9.3355 -1.58479 -0.372609 0
M  V30 81 O 10.5245 -1.77679 -0.170958 0
M  V30 82 C 7.6245 -3.38141 -0.22663 0
M  V30 83 C 6.7975 -4.31877 0.692876 0
M  V30 84 C 5.8565 -5.26191 -0.0311616 0
M  V30 85 O 4.8825 -5.6612 0.591343 0
M  V30 86 N 6.0845 -5.65618 -1.30601 0
M  V30 87 H 8.8495 -2.63716 1.42388 0
M  V30 88 H 6.4105 -1.34971 0.894116 0
M  V30 89 H 8.4025 -3.98239 -0.72024 0
M  V30 90 H 6.9725 -2.95943 -1.00681 0
M  V30 91 H 6.1925 -3.69746 1.36679 0
M  V30 92 H 7.4805 -4.91426 1.31824 0
M  V30 93 H 6.8785 -5.3519 -1.83269 0
M  V30 94 H 5.4355 -6.28025 -1.74435 0
M  V30 95 N 8.8686 -0.792821 -1.36206 0
M  V30 96 C 9.7986 -0.207853 -2.32573 0
M  V30 97 C 10.7796 0.659055 -1.56813 0
M  V30 98 O 11.9646 0.592176 -1.84951 0
M  V30 99 C 9.0946 0.655449 -3.41059 0
M  V30 100 C 8.0486 -0.111842 -4.27854 0
M  V30 101 C 7.3746 0.872274 -5.27537 0
M  V30 102 C 8.6746 -1.30299 -5.05786 0
M  V30 103 H 10.3686 -1.01294 -2.81744 0
M  V30 104 H 7.9146 -0.48854 -1.3546 0
M  V30 105 H 9.8676 1.07464 -4.07467 0
M  V30 106 H 8.5916 1.49328 -2.90463 0
M  V30 107 H 7.2506 -0.512053 -3.63006 0
M  V30 108 H 6.8986 1.70523 -4.73214 0
M  V30 109 H 6.5986 0.363291 -5.86476 0
M  V30 110 H 8.1226 1.28996 -5.96818 0
M  V30 111 H 9.5366 -0.959379 -5.65216 0
M  V30 112 H 7.9336 -1.7455 -5.74154 0
M  V30 113 H 9.0036 -2.09663 -4.37229 0
M  V30 114 N 10.3467 1.47872 -0.545128 0
M  V30 115 C 11.5717 2.07391 -0.0190611 0
M  V30 116 C 11.9967 1.39688 1.25971 0
M  V30 117 O 11.3547 0.467816 1.7516 0
M  V30 118 C 11.4027 3.60188 0.172335 0
M  V30 119 O 10.5067 3.9339 1.23766 0
M  V30 120 H 9.8477 0.662411 -0.0459059 0
M  V30 121 H 12.3777 1.90066 -0.757365 0
M  V30 122 H 12.3877 4.06129 0.390305 0
M  V30 123 H 11.0627 4.08865 -0.761725 0
M  V30 124 H 9.6397 3.5921 1.00114 0
M  V30 125 N 11.8248 0.280983 1.55075 0
M  V30 126 C 13.0718 -0.334115 1.99725 0
M  V30 127 C 13.3998 -1.5542 1.1694 0
M  V30 128 O 12.6548 -1.94361 0.228531 0
M  V30 129 C 12.9538 -0.754656 3.49342 0
M  V30 130 C 12.6198 0.361445 4.49449 0
M  V30 131 C 11.2818 0.667893 4.76542 0
M  V30 132 C 13.6338 1.11322 5.09173 0
M  V30 133 C 10.9618 1.7296 5.60626 0
M  V30 134 C 13.3138 2.1647 5.9441 0
M  V30 135 C 11.9778 2.47742 6.19822 0
M  V30 136 H 11.2478 -0.122261 0.730844 0
M  V30 137 H 13.8948 0.395917 1.87363 0
M  V30 138 H 12.1998 -1.56446 3.5921 0
M  V30 139 H 13.8968 -1.24142 3.813 0
M  V30 140 H 10.4868 0.112481 4.28452 0
M  V30 141 H 14.6708 0.88973 4.8826 0
M  V30 142 H 9.9268 1.97684 5.78559 0
M  V30 143 H 14.1008 2.75193 6.3972 0
M  V30 144 H 11.7278 3.30145 6.84769 0
M  V30 145 N 13.3029 -1.57598 0.00835791 0
M  V30 146 C 14.5509 -1.90551 -0.6734 0
M  V30 147 C 14.8719 -0.883301 -1.73847 0
M  V30 148 O 14.1419 0.0781442 -1.95744 0
M  V30 149 H 12.7219 -0.703312 -0.251717 0
M  V30 150 H 15.3839 -1.94833 0.0512592 0
M  V30 151 H 14.4799 -2.9056 -1.13935 0
M  V30 152 N 14.781 0.264519 -1.55364 0
M  V30 153 C 15.711 1.33121 -1.91836 0
M  V30 154 C 16.692 1.51101 -0.781192 0
M  V30 155 O 17.877 1.64003 -1.04003 0
M  V30 156 C 15.007 2.68921 -2.19769 0
M  V30 157 C 13.961 2.65661 -3.35571 0
M  V30 158 C 13.287 4.05093 -3.49004 0
M  V30 159 C 14.587 2.24187 -4.71739 0
M  V30 160 H 16.281 1.02844 -2.81182 0
M  V30 161 H 13.827 0.493286 -1.35287 0
M  V30 162 H 15.78 3.43663 -2.43872 0
M  V30 163 H 14.504 3.00799 -1.27231 0
M  V30 164 H 13.163 1.93377 -3.1145 0
M  V30 165 H 12.811 4.34206 -2.53917 0
M  V30 166 H 12.511 4.03804 -4.26868 0
M  V30 167 H 14.035 4.81561 -3.75408 0
M  V30 168 H 15.449 2.88654 -4.9533 0
M  V30 169 H 13.846 2.34044 -5.52579 0
M  V30 170 H 14.916 1.19327 -4.69988 0
M  V30 171 N 16.2591 1.48442 0.529413 0
M  V30 172 C 17.4891 1.59919 1.30804 0
M  V30 173 C 17.8971 0.258792 1.87422 0
M  V30 174 O 17.2401 -0.762096 1.67146 0
M  V30 175 C 17.3021 2.58693 2.49636 0
M  V30 176 C 16.9661 4.03745 2.14101 0
M  V30 177 C 17.9631 4.9141 1.6974 0
M  V30 178 C 15.6481 4.49285 2.24607 0
M  V30 179 C 17.6421 6.22645 1.36351 0
M  V30 180 C 15.3291 5.8054 1.9083 0
M  V30 181 C 16.3271 6.67043 1.46773 0
M  V30 182 O 16.0151 7.95856 1.1344 0
M  V30 183 H 15.7471 0.541981 0.404021 0
M  V30 184 H 18.3011 1.95 0.645309 0
M  V30 185 H 16.5311 2.18734 3.18892 0
M  V30 186 H 18.2201 2.59999 3.11698 0
M  V30 187 H 18.9861 4.57465 1.61094 0
M  V30 188 H 14.8651 3.82142 2.57854 0
M  V30 189 H 18.4091 6.90119 1.01891 0
M  V30 190 H 14.3061 6.14022 1.99117 0
M  V30 191 H 15.0741 8.08613 1.26832 0
M  V30 192 N 17.7372 -0.778329 1.37039 0
M  V30 193 C 18.9832 -1.53892 1.32079 0
M  V30 194 C 19.3162 -1.9396 -0.0965386 0
M  V30 195 O 18.5912 -1.63568 -1.05242 0
M  V30 196 C 18.8742 -2.80847 2.25382 0
M  V30 197 C 18.7272 -2.47076 3.75864 0
M  V30 198 C 20.0462 -3.82741 2.1725 0
M  V30 199 H 17.1652 -0.558303 0.48111 0
M  V30 200 H 19.8072 -0.893397 1.67685 0
M  V30 201 H 17.9572 -3.35931 1.95148 0
M  V30 202 H 19.6292 -1.97957 4.16666 0
M  V30 203 H 17.8722 -1.79863 3.94755 0
M  V30 204 H 18.5432 -3.37798 4.36574 0
M  V30 205 H 21.0192 -3.37133 2.43887 0
M  V30 206 H 19.8952 -4.69303 2.84686 0
M  V30 207 H 20.1562 -4.2652 1.16331 0
M  V30 208 N 19.2153 -1.21501 -1.00376 0
M  V30 209 C 20.1783 -0.976927 -2.07337 0
M  V30 210 C 21.1783 0.0525322 -1.60714 0
M  V30 211 O 22.3683 -0.184869 -1.73216 0
M  V30 212 C 19.5003 -0.473423 -3.37597 0
M  V30 213 H 20.6933 -1.92587 -2.29892 0
M  V30 214 H 18.2463 -1.03217 -1.17371 0
M  V30 215 H 18.9813 0.480379 -3.20722 0
M  V30 216 H 18.7663 -1.216 -3.72768 0
M  V30 217 H 20.2563 -0.32675 -4.1632 0
M  V30 218 N 20.6934 1.19889 -1.02296 0
M  V30 219 C 21.6564 2.21116 -0.603351 0
M  V30 220 C 22.6564 1.5738 0.329884 0
M  V30 221 O 23.8464 1.73802 0.117702 0
M  V30 222 C 20.9784 3.40696 0.117992 0
M  V30 223 H 22.1714 2.59754 -1.49893 0
M  V30 224 H 19.7244 1.33463 -0.813468 0
M  V30 225 H 20.4594 3.07569 1.0282 0
M  V30 226 H 20.2444 3.88188 -0.552511 0
M  V30 227 H 21.7344 4.15692 0.398696 0
M  V30 228 N 22.1715 0.800033 1.35784 0
M  V30 229 C 23.4185 0.377342 1.98953 0
M  V30 230 C 23.7465 -1.05378 1.6348 0
M  V30 231 O 23.0015 -1.74459 0.886707 0
M  V30 232 C 23.3005 0.500276 3.53881 0
M  V30 233 C 22.9665 1.89375 4.09204 0
M  V30 234 C 21.6285 2.27499 4.24025 0
M  V30 235 C 23.9805 2.8057 4.39238 0
M  V30 236 C 21.3085 3.562 4.66195 0
M  V30 237 C 23.6605 4.0871 4.82844 0
M  V30 238 C 22.3245 4.46843 4.95871 0
M  V30 239 H 21.5945 0.138079 0.728021 0
M  V30 240 H 24.2415 1.01955 1.62103 0
M  V30 241 H 22.5465 -0.225405 3.91151 0
M  V30 242 H 24.2435 0.154097 4.00704 0
M  V30 243 H 20.8335 1.58753 3.98115 0
M  V30 244 H 25.0175 2.52367 4.27346 0
M  V30 245 H 20.2735 3.85602 4.74469 0
M  V30 246 H 24.4475 4.79481 5.05046 0
M  V30 247 H 22.0745 5.46623 5.28306 0
M  V30 248 N 23.6496 -1.47581 0.552962 0
M  V30 249 C 24.6126 -2.28439 -0.186605 0
M  V30 250 C 25.6126 -1.36706 -0.84665 0
M  V30 251 O 26.8026 -1.59378 -0.703164 0
M  V30 252 C 23.9346 -3.16264 -1.2724 0
M  V30 253 H 25.1276 -2.95294 0.523609 0
M  V30 254 H 22.6806 -1.532 0.309745 0
M  V30 255 H 23.4156 -2.54091 -2.01514 0
M  V30 256 H 23.2006 -3.83769 -0.803968 0
M  V30 257 H 24.6906 -3.77198 -1.79196 0
M  V30 258 N 25.1277 -0.289203 -1.54924 0
M  V30 259 C 26.0577 0.58549 -2.2604 0
M  V30 260 C 27.0387 1.14753 -1.25562 0
M  V30 261 O 28.2237 1.17906 -1.54311 0
M  V30 262 C 25.3537 1.76305 -2.99222 0
M  V30 263 C 24.3077 1.33191 -4.06748 0
M  V30 264 C 23.6337 2.5937 -4.6758 0
M  V30 265 C 24.9337 0.471775 -5.20165 0
M  V30 266 H 26.6277 -0.00763532 -2.99399 0
M  V30 267 H 24.1737 -0.00511229 -1.43999 0
M  V30 268 H 26.1267 2.38097 -3.47689 0
M  V30 269 H 24.8507 2.38223 -2.23422 0
M  V30 270 H 23.5097 0.737121 -3.59113 0
M  V30 271 H 23.1577 3.19576 -3.88433 0
M  V30 272 H 22.8577 2.31228 -5.40192 0
M  V30 273 H 24.3817 3.21985 -5.18804 0
M  V30 274 H 25.7957 0.995056 -5.64599 0
M  V30 275 H 24.1927 0.284639 -5.99425 0
M  V30 276 H 25.2627 -0.506041 -4.82252 0
M  V30 277 N 26.6058 1.57591 -0.0167156 0
M  V30 278 C 27.8538 1.90906 0.663285 0
M  V30 279 C 28.1748 0.892509 1.73376 0
M  V30 280 O 27.4448 -0.0677623 1.95783 0
M  V30 281 H 26.0248 0.704637 0.247983 0
M  V30 282 H 28.6868 1.94803 -0.0615909 0
M  V30 283 H 27.7828 2.9116 1.12393 0
M  V30 284 N 28.0839 -0.256276 1.55502 0
M  V30 285 C 29.3309 -0.985619 1.76895 0
M  V30 286 C 29.6589 -1.85671 0.579355 0
M  V30 287 O 28.9139 -1.90744 -0.437651 0
M  V30 288 C 29.2129 -1.88432 3.03691 0
M  V30 289 C 28.8789 -1.16936 4.35473 0
M  V30 290 C 27.5409 -0.97173 4.71286 0
M  V30 291 C 29.8929 -0.661889 5.1698 0
M  V30 292 C 27.2209 -0.254179 5.86149 0
M  V30 293 C 29.5729 0.042149 6.32586 0
M  V30 294 C 28.2369 0.25134 6.67027 0
M  V30 295 H 27.5069 -0.360663 0.647304 0
M  V30 296 H 30.1539 -0.256483 1.89775 0
M  V30 297 H 28.4589 -2.68021 2.85783 0
M  V30 298 H 30.1559 -2.45015 3.1744 0
M  V30 299 H 26.7459 -1.33332 4.07333 0
M  V30 300 H 30.9299 -0.802145 4.89775 0
M  V30 301 H 26.1859 -0.0815408 6.11346 0
M  V30 302 H 30.3599 0.443049 6.94989 0
M  V30 303 H 27.9869 0.809314 7.5588 0
M  V30 304 N 29.562 -1.4872 -0.521534 0
M  V30 305 C 30.973 -1.50607 -1.10337 0
M  V30 306 C 31.324 -0.280612 -1.94183 0
M  V30 307 O 30.449 0.611507 -2.0758 0
M  V30 308 C 31.044 -2.72903 -2.00772 0
M  V30 309 C 29.603 -2.77634 -2.54158 0
M  V30 310 C 28.75 -2.44241 -1.31307 0
M  V30 311 H 31.701 -1.55714 -0.306388 0
M  V30 312 H 31.722 -2.519 -2.85178 0
M  V30 313 H 31.234 -3.62077 -1.39721 0
M  V30 314 H 29.335 -1.92689 -3.18907 0
M  V30 315 H 29.448 -3.79283 -2.92714 0
M  V30 316 H 27.812 -1.95577 -1.63161 0
M  V30 317 H 28.595 -3.35666 -0.719943 0
M  V30 318 N 31.0401 0.771051 -1.3745 0
M  V30 319 C 31.9701 1.89827 -1.3597 0
M  V30 320 C 32.9511 1.68562 -0.228216 0
M  V30 321 O 34.1361 1.8941 -0.428675 0
M  V30 322 C 31.2661 3.2712 -1.16662 0
M  V30 323 C 30.2201 3.6295 -2.2683 0
M  V30 324 C 29.5461 4.98791 -1.92644 0
M  V30 325 C 30.8461 3.69627 -3.69017 0
M  V30 326 H 32.5401 1.91323 -2.30295 0
M  V30 327 H 30.0861 0.919082 -1.10855 0
M  V30 328 H 32.0391 4.05615 -1.14256 0
M  V30 329 H 30.7631 3.26059 -0.187926 0
M  V30 330 H 29.4221 2.86763 -2.28392 0
M  V30 331 H 29.0701 4.94271 -0.933021 0
M  V30 332 H 28.7701 5.23733 -2.66416 0
M  V30 333 H 30.2941 5.79685 -1.91826 0
M  V30 334 H 31.7081 4.38273 -3.69581 0
M  V30 335 H 30.1051 4.06067 -4.41848 0
M  V30 336 H 31.1751 2.70273 -4.02592 0
M  V30 337 N 32.5182 1.22032 0.997298 0
M  V30 338 C 33.4662 0.983634 2.10778 0
M  V30 339 C 34.4602 -0.0717564 1.69248 0
M  V30 340 O 35.6662 0.080304 1.79821 0
M  V30 341 H 32.0412 0.300877 0.689186 0
M  V30 342 H 34.0122 1.92606 2.27916 0
M  V30 343 C 32.7612 0.57326 3.42942 0
M  V30 344 H 32.0842 1.37702 3.75338 0
M  V30 345 H 33.5242 0.447031 4.21637 0
M  V30 346 C 31.9832 -0.7167 3.29188 0
M  V30 347 O 32.5132 -1.77027 3.60589 0
M  V30 348 N 30.7192 -0.686167 2.82383 0
M  V30 349 H 30.2662 0.171507 2.57028 0
M  V30 350 H 30.2242 -1.54955 2.73562 0
M  V30 351 N 33.9963 -1.19345 1.0293 0
M  V30 352 C 35.2423 -1.89318 0.727083 0
M  V30 353 C 35.5753 -1.79446 -0.742483 0
M  V30 354 O 34.8503 -1.1871 -1.54072 0
M  V30 355 C 35.1333 -3.40238 1.17942 0
M  V30 356 C 34.9863 -3.58979 2.71024 0
M  V30 357 C 36.3053 -4.33479 0.760548 0
M  V30 358 H 33.4243 -0.687475 0.265606 0
M  V30 359 H 36.0663 -1.40477 1.2793 0
M  V30 360 H 34.2163 -3.81964 0.709608 0
M  V30 361 H 35.8883 -3.26421 3.25955 0
M  V30 362 H 34.1313 -3.02018 3.11396 0
M  V30 363 H 34.8023 -4.64823 2.9773 0
M  V30 364 H 37.2783 -3.99469 1.16464 0
M  V30 365 H 36.1543 -5.37664 1.10493 0
M  V30 366 H 36.4153 -4.40813 -0.337063 0
M  V30 367 N 35.4744 -0.807222 -1.35358 0
M  V30 368 C 36.4044 -0.232509 -2.3234 0
M  V30 369 C 37.3854 0.642386 -1.57504 0
M  V30 370 O 38.5704 0.572526 -1.85569 0
M  V30 371 C 35.7004 0.619238 -3.41735 0
M  V30 372 C 34.6544 -0.157215 -4.27711 0
M  V30 373 C 33.9804 0.816273 -5.28433 0
M  V30 374 C 35.2804 -1.35656 -5.04376 0
M  V30 375 H 36.9744 -1.04276 -2.80654 0
M  V30 376 H 34.5204 -0.50288 -1.34934 0
M  V30 377 H 36.4734 1.03137 -4.08584 0
M  V30 378 H 35.1974 1.46239 -2.92031 0
M  V30 379 H 33.8564 -0.550525 -3.62443 0
M  V30 380 H 33.5044 1.65494 -4.74996 0
M  V30 381 H 33.2044 0.301067 -5.86828 0
M  V30 382 H 34.7284 1.22659 -5.98153 0
M  V30 383 H 36.1424 -1.01927 -5.64166 0
M  V30 384 H 34.5394 -1.8063 -5.7227 0
M  V30 385 H 35.6094 -2.14288 -4.34981 0
M  V30 386 N 36.9525 1.47285 -0.560781 0
M  V30 387 C 37.9155 2.28535 0.174488 0
M  V30 388 C 38.9155 1.37153 0.839388 0
M  V30 389 O 40.1055 1.59748 0.694702 0
M  V30 390 C 37.2375 3.16934 1.25561 0
M  V30 391 H 38.4305 2.95012 -0.539262 0
M  V30 392 H 35.9835 1.53034 -0.317865 0
M  V30 393 H 36.7185 2.55157 2.00164 0
M  V30 394 H 36.5035 3.8419 0.783604 0
M  V30 395 H 37.9935 3.78143 1.77193 0
M  V30 396 N 38.4306 0.297415 1.54768 0
M  V30 397 C 39.6796 -0.313669 1.99246 0
M  V30 398 C 39.9926 -1.55281 1.18942 0
M  V30 399 O 41.1986 -2.23825 1.5367 0
M  V30 400 C 39.6546 -0.609407 3.54703 0
M  V30 401 C 39.2626 0.611192 4.43811 0
M  V30 402 C 41.0066 -1.18188 4.07715 0
M  V30 403 C 38.9136 0.288805 5.90694 0
M  V30 404 H 37.8436 -0.120979 0.744231 0
M  V30 405 H 40.4946 0.40556 1.78962 0
M  V30 406 H 38.8766 -1.38813 3.70873 0
M  V30 407 H 40.0506 1.3875 4.39414 0
M  V30 408 H 38.3656 1.10205 4.01552 0
M  V30 409 H 40.9626 -1.43727 5.15021 0
M  V30 410 H 41.3056 -2.12299 3.58099 0
M  V30 411 H 41.8386 -0.464944 3.95074 0
M  V30 412 H 38.5776 1.19838 6.44453 0
M  V30 413 H 38.0976 -0.450305 5.98107 0
M  V30 414 H 39.7766 -0.110933 6.46905 0
M  V30 415 N 39.9087 -1.5758 0.0250728 0
M  V30 416 C 41.3247 -1.56124 -0.331282 0
M  V30 417 C 41.5247 -1.03029 -1.73169 0
M  V30 418 O 40.5807 -0.675215 -2.43305 0
M  V30 419 C 41.8937 -3.00139 -0.183584 0
M  V30 420 C 43.4417 -3.11946 -0.256654 0
M  V30 421 C 43.9167 -4.57793 -0.137792 0
M  V30 422 N 45.4077 -4.6279 -0.194904 0
M  V30 423 C 46.1427 -5.7326 -0.126655 0
M  V30 424 N 45.6387 -6.928 -0.00755288 0
M  V30 425 N 47.4317 -5.61811 -0.180348 0
M  V30 426 H 39.5827 -1.90424 0.94087 0
M  V30 427 H 41.8457 -0.875761 0.362968 0
M  V30 428 H 41.5517 -3.4292 0.780927 0
M  V30 429 H 41.4257 -3.64899 -0.955448 0
M  V30 430 H 43.8127 -2.69079 -1.21162 0
M  V30 431 H 43.8937 -2.49915 0.545517 0
M  V30 432 H 43.5377 -5.01339 0.813739 0
M  V30 433 H 43.4677 -5.17798 -0.958775 0
M  V30 434 H 45.9587 -3.76807 -0.287267 0
M  V30 435 H 46.2717 -7.72791 0.0379428 0
M  V30 436 H 44.6167 -6.94995 0.0271731 0
M  V30 437 H 47.8077 -4.6731 -0.271767 0
M  V30 438 H 47.9807 -6.47882 -0.123697 0
M  V30 439 N 41.3868 0.248026 -1.55636 0
M  V30 440 C 42.6348 0.974295 -1.77065 0
M  V30 441 C 42.9558 1.85897 -0.588849 0
M  V30 442 O 42.2258 1.91868 0.395407 0
M  V30 443 H 40.8058 0.362733 -0.653019 0
M  V30 444 H 43.4678 0.266244 -1.93073 0
M  V30 445 H 42.5638 1.59667 -2.68166 0
M  V30 446 N 42.8649 1.48995 0.513639 0
M  V30 447 C 43.8279 1.64229 1.59879 0
M  V30 448 C 44.8279 0.514696 1.5234 0
M  V30 449 O 46.0179 0.78087 1.55718 0
M  V30 450 C 43.1499 1.62783 2.99524 0
M  V30 451 H 44.3429 2.61004 1.47705 0
M  V30 452 H 41.8959 1.37837 0.736936 0
M  V30 453 H 42.6309 0.675461 3.17188 0
M  V30 454 H 42.4159 2.4466 3.06404 0
M  V30 455 H 43.9059 1.76669 3.78388 0
M  V30 456 N 44.343 -0.763751 1.37857 0
M  V30 457 C 45.571 -1.55293 1.36718 0
M  V30 458 C 45.986 -1.88745 -0.0455434 0
M  V30 459 O 45.343 -1.52039 -1.00947 0
M  V30 460 C 45.394 -2.85831 2.2132 0
M  V30 461 O 45.115 -2.5381 3.57089 0
M  V30 462 C 46.616 -3.80023 2.28249 0
M  V30 463 H 43.836 -0.480841 0.468009 0
M  V30 464 H 46.38 -0.946009 1.81303 0
M  V30 465 H 44.535 -3.42926 1.80223 0
M  V30 466 H 44.949 -3.37459 4.01524 0
M  V30 467 H 46.423 -4.68599 2.91752 0
M  V30 468 H 46.9 -4.1973 1.2932 0
M  V30 469 H 47.506 -3.28855 2.69693 0
M  V30 470 N 45.8211 -1.22559 -0.990812 0
M  V30 471 C 46.7841 -0.998863 -2.0629 0
M  V30 472 C 47.7841 0.0354834 -1.60761 0
M  V30 473 O 48.9741 -0.203231 -1.7301 0
M  V30 474 C 46.1061 -0.509203 -3.37076 0
M  V30 475 H 47.2991 -1.95014 -2.27837 0
M  V30 476 H 44.8521 -1.04456 -1.16269 0
M  V30 477 H 45.5871 0.446335 -3.21214 0
M  V30 478 H 45.3721 -1.25547 -3.71457 0
M  V30 479 H 46.8621 -0.370888 -4.1595 0
M  V30 480 N 47.2992 1.18797 -1.03562 0
M  V30 481 C 48.2492 2.20161 -0.592724 0
M  V30 482 C 49.2332 1.56772 0.362133 0
M  V30 483 O 50.4252 1.76062 0.182009 0
M  V30 484 C 47.5542 3.43266 0.0481024 0
M  V30 485 C 46.6402 4.13786 -0.9296 0
M  V30 486 N 47.0312 4.60388 -2.09467 0
M  V30 487 C 45.3292 4.39572 -0.754499 0
M  V30 488 C 46.0302 5.14619 -2.71187 0
M  V30 489 N 45.0062 5.05826 -1.991 0
M  V30 490 H 48.8082 2.53877 -1.48066 0
M  V30 491 H 46.3222 1.34946 -0.903514 0
M  V30 492 H 48.3192 4.15136 0.383058 0
M  V30 493 H 46.9792 3.11048 0.931636 0
M  V30 494 H 47.9902 4.54999 -2.47379 0
M  V30 495 H 44.6672 4.17425 0.0793713 0
M  V30 496 H 46.0572 5.60917 -3.69895 0
M  V30 497 N 48.7773 0.814389 1.34928 0
M  V30 498 C 49.7403 0.235759 2.27984 0
M  V30 499 C 50.7403 -0.581412 1.49921 0
M  V30 500 O 51.9303 -0.398758 1.69575 0
M  V30 501 C 49.0623 -0.670433 3.34242 0
M  V30 502 H 50.2553 1.05659 2.80671 0
M  V30 503 H 47.8083 0.585614 1.44915 0
M  V30 504 H 48.5433 -1.51466 2.86755 0
M  V30 505 H 48.3283 -0.0860822 3.92005 0
M  V30 506 H 49.8183 -1.06935 4.03676 0
M  V30 507 N 50.2554 -1.46986 0.568584 0
M  V30 508 C 51.6714 -1.57946 0.229189 0
M  V30 509 C 51.8714 -1.56567 -1.26843 0
M  V30 510 O 50.9274 -1.47511 -2.04931 0
M  V30 511 C 52.2404 -2.87963 0.865909 0
M  V30 512 C 53.7884 -3.01568 0.838188 0
M  V30 513 C 54.2634 -4.34301 1.45419 0
M  V30 514 N 55.7544 -4.40965 1.41788 0
M  V30 515 C 56.4894 -5.42256 1.86403 0
M  V30 516 N 55.9854 -6.50297 2.38926 0
M  V30 517 N 57.7784 -5.3337 1.77405 0
M  V30 518 H 49.9294 -1.46126 1.54146 0
M  V30 519 H 52.1924 -0.696156 0.643484 0
M  V30 520 H 51.8984 -2.94742 1.91886 0
M  V30 521 H 51.7724 -3.75423 0.365687 0
M  V30 522 H 54.1594 -2.94379 -0.206106 0
M  V30 523 H 54.2404 -2.1562 1.37629 0
M  V30 524 H 53.8844 -4.42247 2.49761 0
M  V30 525 H 53.8144 -5.19 0.891435 0
M  V30 526 H 56.3054 -3.63484 1.03381 0
M  V30 527 H 56.6184 -7.23777 2.70863 0
M  V30 528 H 54.9634 -6.51155 2.42944 0
M  V30 529 H 58.1544 -4.47865 1.3614 0
M  V30 530 H 58.3274 -6.12169 2.12492 0
M  V30 531 N 51.7335 -0.305618 -1.54608 0
M  V30 532 C 52.6635 0.561482 -2.26649 0
M  V30 533 C 53.6445 1.13415 -1.26772 0
M  V30 534 O 54.8295 1.16262 -1.55553 0
M  V30 535 C 51.9595 1.73122 -3.01075 0
M  V30 536 C 50.9135 1.2887 -4.08138 0
M  V30 537 C 50.2395 2.54396 -4.70305 0
M  V30 538 C 51.5395 0.416578 -5.20636 0
M  V30 539 H 53.2335 -0.0393902 -2.99374 0
M  V30 540 H 50.7795 -0.020385 -1.43986 0
M  V30 541 H 52.7325 2.34396 -3.50195 0
M  V30 542 H 51.4565 2.3584 -2.25936 0
M  V30 543 H 50.1155 0.698991 -3.59875 0
M  V30 544 H 49.7635 3.15439 -3.918 0
M  V30 545 H 49.4635 2.25486 -5.42614 0
M  V30 546 H 50.9875 3.16464 -5.2219 0
M  V30 547 H 52.4015 0.935116 -5.65622 0
M  V30 548 H 50.7985 0.221046 -5.99693 0
M  V30 549 H 51.8685 -0.557162 -4.81688 0
M  V30 550 N 53.2116 1.57565 -0.0334293 0
M  V30 551 C 54.6276 1.56297 0.322997 0
M  V30 552 C 54.8276 1.03945 1.7262 0
M  V30 553 O 53.8836 0.688109 2.42943 0
M  V30 554 C 55.1966 3.00232 0.167664 0
M  V30 555 C 56.7446 3.12078 0.240107 0
M  V30 556 C 57.2196 4.57859 0.113513 0
M  V30 557 N 58.7106 4.62887 0.170359 0
M  V30 558 C 59.4456 5.73319 0.0962517 0
M  V30 559 N 58.9416 6.92794 -0.0291881 0
M  V30 560 N 60.7346 5.61898 0.150551 0
M  V30 561 H 52.8856 1.89923 -0.950956 0
M  V30 562 H 55.1486 0.873824 -0.367608 0
M  V30 563 H 54.8546 3.42501 -0.799102 0
M  V30 564 H 54.7286 3.654 0.936083 0
M  V30 565 H 57.1156 2.69718 1.19733 0
M  V30 566 H 57.1966 2.49623 -0.558763 0
M  V30 567 H 56.8406 5.009 -0.840314 0
M  V30 568 H 56.7706 5.18299 0.931302 0
M  V30 569 H 59.2616 3.76954 0.26728 0
M  V30 570 H 59.5746 7.7276 -0.0789252 0
M  V30 571 H 57.9196 6.94971 -0.0640299 0
M  V30 572 H 61.1106 4.67448 0.246981 0
M  V30 573 H 61.2836 6.47938 0.0893365 0
M  V30 574 N 54.6897 -0.239769 1.55765 0
M  V30 575 C 55.6197 -1.30052 1.9393 0
M  V30 576 C 56.6007 -1.49839 0.805132 0
M  V30 577 O 57.7857 -1.62328 1.06599 0
M  V30 578 C 54.9157 -2.65391 2.2402 0
M  V30 579 C 53.8697 -2.60289 3.39755 0
M  V30 580 C 53.1957 -3.99489 3.55405 0
M  V30 581 C 54.4957 -2.16654 4.75246 0
M  V30 582 H 56.1897 -0.983573 2.82783 0
M  V30 583 H 53.7357 -0.471701 1.36055 0
M  V30 584 H 55.6887 -3.3974 2.49308 0
M  V30 585 H 54.4127 -2.98736 1.32 0
M  V30 586 H 53.0717 -1.88398 3.14487 0
M  V30 587 H 52.7197 -4.30112 2.60793 0
M  V30 588 H 52.4197 -3.96962 4.33238 0
M  V30 589 H 53.9437 -4.75528 3.83022 0
M  V30 590 H 55.3577 -2.80737 4.99859 0
M  V30 591 H 53.7547 -2.25223 5.56232 0
M  V30 592 H 54.8247 -1.11835 4.71827 0
M  V30 593 N 56.1678 -1.49265 -0.50573 0
M  V30 594 C 57.3958 -1.62215 -1.28429 0
M  V30 595 C 57.8108 -0.291697 -1.86533 0
M  V30 596 O 57.1678 0.722233 -1.67601 0
M  V30 597 C 57.2188 -2.68735 -2.41793 0
M  V30 598 O 56.9398 -3.96619 -1.86078 0
M  V30 599 C 58.4408 -2.92346 -3.3324 0
M  V30 600 H 55.6608 -0.546239 -0.389697 0
M  V30 601 H 58.2048 -1.95265 -0.607609 0
M  V30 602 H 56.3598 -2.38476 -3.053 0
M  V30 603 H 56.7738 -4.55256 -2.60465 0
M  V30 604 H 58.2478 -3.70623 -4.09075 0
M  V30 605 H 58.7248 -2.02081 -3.89948 0
M  V30 606 H 59.3308 -3.24003 -2.75503 0
M  V30 607 N 57.6459 0.756429 -1.3826 0
M  V30 608 C 59.0569 1.33359 -1.30661 0
M  V30 609 C 59.4079 1.96161 0.0388875 0
M  V30 610 O 58.5329 1.94874 0.940918 0
M  V30 611 C 59.1279 2.42477 -2.36622 0
M  V30 612 C 57.6869 2.95922 -2.3261 0
M  V30 613 C 56.8339 1.69275 -2.19639 0
M  V30 614 H 59.7849 0.55552 -1.4866 0
M  V30 615 H 59.8059 3.22345 -2.02174 0
M  V30 616 H 59.3179 1.96739 -3.34538 0
M  V30 617 H 57.4189 3.45996 -1.38267 0
M  V30 618 H 57.5319 3.50494 -3.26636 0
M  V30 619 H 55.8959 1.92793 -1.66442 0
M  V30 620 H 56.6789 1.25619 -3.19491 0
M  V30 621 N 59.124 1.23083 0.984299 0
M  V30 622 C 60.349 1.088 1.76571 0
M  V30 623 C 60.774 -0.356657 1.84688 0
M  V30 624 O 60.132 -1.25788 1.30565 0
M  V30 625 C 60.18 1.71371 3.17277 0
M  V30 626 O 59.284 0.973213 4.00752 0
M  V30 627 H 58.625 0.381599 0.543395 0
M  V30 628 H 61.155 1.63057 1.23587 0
M  V30 629 H 61.165 1.76449 3.67872 0
M  V30 630 H 59.84 2.76493 3.10684 0
M  V30 631 H 58.417 0.999078 3.59267 0
M  V30 632 N 60.6021 -1.18246 1.0419 0
M  V30 633 C 61.5321 -2.24127 0.654914 0
M  V30 634 C 62.5131 -1.66617 -0.342451 0
M  V30 635 O 63.6981 -1.92924 -0.222277 0
M  V30 636 C 60.8281 -3.47295 0.0183757 0
M  V30 637 C 59.7821 -4.17563 0.939414 0
M  V30 638 C 59.1081 -5.34438 0.167286 0
M  V30 639 C 60.4081 -4.70917 2.25908 0
M  V30 640 H 62.1021 -2.56753 1.54007 0
M  V30 641 H 59.6481 -1.23414 0.74195 0
M  V30 642 H 61.6011 -4.20572 -0.264082 0
M  V30 643 H 60.3251 -3.13907 -0.901664 0
M  V30 644 H 58.9841 -3.46186 1.20628 0
M  V30 645 H 58.6321 -4.97298 -0.7552 0
M  V30 646 H 58.3321 -5.82388 0.780901 0
M  V30 647 H 59.8561 -6.10504 -0.108125 0
M  V30 648 H 61.2701 -5.35882 2.03724 0
M  V30 649 H 59.6671 -5.29406 2.82577 0
M  V30 650 H 60.7371 -3.88272 2.9047 0
M  V30 651 N 62.0802 -0.821533 -1.34494 0
M  V30 652 C 63.3262 -0.409552 -1.98622 0
M  V30 653 C 63.6592 1.0244 -1.64984 0
M  V30 654 O 62.9342 1.71325 -0.920758 0
M  V30 655 C 63.2172 -0.610458 -3.54888 0
M  V30 656 C 63.0702 -2.09043 -3.98273 0
M  V30 657 C 64.3892 -0.0455379 -4.40076 0
M  V30 658 H 61.5082 -0.15028 -0.721516 0
M  V30 659 H 64.1502 -1.03384 -1.59411 0
M  V30 660 H 62.3002 -0.079044 -3.8842 0
M  V30 661 H 63.9722 -2.68537 -3.75081 0
M  V30 662 H 62.2152 -2.58139 -3.48635 0
M  V30 663 H 62.8862 -2.18182 -5.07051 0
M  V30 664 H 65.3622 -0.499557 -4.1309 0
M  V30 665 H 64.2382 -0.215922 -5.48475 0
M  V30 666 H 64.4992 1.04939 -4.29465 0
M  V30 667 N 63.5583 1.46682 -0.576371 0
M  V30 668 C 64.7883 2.06498 -0.0648694 0
M  V30 669 C 65.1963 1.42665 1.24271 0
M  V30 670 O 64.5393 0.523886 1.76071 0
M  V30 671 C 64.6013 3.5904 0.181816 0
M  V30 672 C 64.2653 4.45028 -1.0392 0
M  V30 673 C 65.2623 4.81959 -1.94966 0
M  V30 674 C 62.9473 4.86259 -1.25927 0
M  V30 675 C 64.9413 5.58942 -3.06371 0
M  V30 676 C 62.6283 5.63002 -2.37638 0
M  V30 677 C 63.6263 5.99257 -3.2769 0
M  V30 678 O 63.3143 6.7445 -4.37461 0
M  V30 679 H 63.0463 0.674028 -0.0515987 0
M  V30 680 H 65.6003 1.89393 -0.794951 0
M  V30 681 H 63.8303 3.74429 0.966436 0
M  V30 682 H 65.5193 4.00806 0.641047 0
M  V30 683 H 66.2853 4.50689 -1.79177 0
M  V30 684 H 62.1643 4.57494 -0.567448 0
M  V30 685 H 65.7083 5.87158 -3.76684 0
M  V30 686 H 61.6053 5.93686 -2.53392 0
M  V30 687 H 62.3733 6.92867 -4.35749 0
M  V30 688 N 65.0364 0.313813 1.54444 0
M  V30 689 C 65.9994 -0.54379 2.22656 0
M  V30 690 C 66.9994 -1.05124 1.21678 0
M  V30 691 O 68.1894 -0.945225 1.46325 0
M  V30 692 C 65.3214 -1.75427 2.92298 0
M  V30 693 H 66.5144 0.0523599 2.99854 0
M  V30 694 H 64.0674 0.0647834 1.56166 0
M  V30 695 H 64.8024 -2.38991 2.19211 0
M  V30 696 H 64.5874 -1.39791 3.66334 0
M  V30 697 H 66.0774 -2.36325 3.44297 0
M  V30 698 N 66.5145 -1.57545 0.0417849 0
M  V30 699 C 67.4445 -2.14009 -0.933929 0
M  V30 700 C 68.4255 -1.05938 -1.33083 0
M  V30 701 O 69.6105 -1.33833 -1.40721 0
M  V30 702 C 66.7405 -2.67747 -2.21199 0
M  V30 703 C 65.6945 -3.80718 -1.95544 0
M  V30 704 C 65.0205 -4.20935 -3.29724 0
M  V30 705 C 66.3205 -5.06258 -1.28452 0
M  V30 706 H 68.0145 -2.95788 -0.463645 0
M  V30 707 H 65.5605 -1.42285 -0.221573 0
M  V30 708 H 67.5135 -3.05886 -2.89848 0
M  V30 709 H 66.2375 -1.83147 -2.70416 0
M  V30 710 H 64.8965 -3.43037 -1.2931 0
M  V30 711 H 64.5445 -3.33298 -3.76724 0
M  V30 712 H 64.2445 -4.9707 -3.13361 0
M  V30 713 H 65.7685 -4.61666 -3.9962 0
M  V30 714 H 67.1825 -5.41903 -1.8712 0
M  V30 715 H 65.5795 -5.87475 -1.22445 0
M  V30 716 H 66.6495 -4.84207 -0.259219 0
M  V30 717 N 67.9926 0.231505 -1.5589 0
M  V30 718 C 68.9406 1.30649 -1.92441 0
M  V30 719 C 69.9346 1.49037 -0.805254 0
M  V30 720 O 71.1406 1.50329 -0.990007 0
M  V30 721 H 67.5156 0.437812 -0.611412 0
M  V30 722 H 69.4866 0.970973 -2.82161 0
M  V30 723 C 68.2356 2.65179 -2.24889 0
M  V30 724 H 67.5586 2.51835 -3.10514 0
M  V30 725 H 68.9986 3.39234 -2.54355 0
M  V30 726 C 67.4576 3.19439 -1.07054 0
M  V30 727 O 67.9876 4.00371 -0.326499 0
M  V30 728 N 66.1936 2.77675 -0.85703 0
M  V30 729 H 65.7406 2.11969 -1.46379 0
M  V30 730 H 65.6986 3.14321 -0.0703223 0
M  V30 731 N 69.4707 1.49531 0.497807 0
M  V30 732 C 70.4007 1.6935 1.60757 0
M  V30 733 C 71.3817 0.542218 1.61227 0
M  V30 734 O 72.5667 0.778417 1.77917 0
M  V30 735 C 69.6967 1.76298 2.99226 0
M  V30 736 C 68.6507 2.91248 3.13622 0
M  V30 737 C 67.9767 2.83312 4.53474 0
M  V30 738 C 69.2767 4.3214 2.93346 0
M  V30 739 H 70.9707 2.62263 1.44425 0
M  V30 740 H 68.5167 1.26208 0.693367 0
M  V30 741 H 70.4697 1.88749 3.76765 0
M  V30 742 H 69.1937 0.799871 3.16654 0
M  V30 743 H 67.8527 2.78404 2.38509 0
M  V30 744 H 67.5007 1.84902 4.67782 0
M  V30 745 H 67.2007 3.60465 4.64046 0
M  V30 746 H 68.7247 2.97775 5.33069 0
M  V30 747 H 70.1387 4.45649 3.60652 0
M  V30 748 H 68.5357 5.1054 3.15387 0
M  V30 749 H 69.6057 4.46363 1.89441 0
M  V30 750 N 70.9488 -0.749086 1.3866 0
M  V30 751 C 72.1968 -1.50535 1.34847 0
M  V30 752 C 72.5178 -1.94909 -0.0595016 0
M  V30 753 O 71.7878 -1.67973 -1.00806 0
M  V30 754 H 70.3678 -0.558395 0.49619 0
M  V30 755 H 73.0298 -0.890165 1.73384 0
M  V30 756 H 72.1258 -2.39413 2.00219 0
M  V30 757 N 72.4269 -1.23603 -0.977757 0
M  V30 758 C 73.6669 -1.08148 -1.73446 0
M  V30 759 C 74.0309 0.374785 -1.88307 0
M  V30 760 O 75.2319 0.650588 -2.60808 0
M  V30 761 C 73.5029 -1.78991 -3.0935 0
M  V30 762 S 75.0619 -1.79141 -4.00567 0
M  V30 763 H 71.8799 -0.386987 -0.596458 0
M  V30 764 H 74.4819 -1.5678 -1.16792 0
M  V30 765 H 73.1859 -2.8408 -2.96187 0
M  V30 766 H 72.7169 -1.30651 -3.71071 0
M  V30 767 H 74.7319 -0.851892 -4.88833 0
M  V30 768 N 73.905 1.17692 -1.04816 0
M  V30 769 C 75.13 1.92327 -0.776207 0
M  V30 770 C 75.555 1.76082 0.661581 0
M  V30 771 O 74.913 1.076 1.45917 0
M  V30 772 C 74.961 3.41539 -1.15687 0
M  V30 773 O 74.065 4.11402 -0.286775 0
M  V30 774 H 73.406 0.599735 -0.284981 0
M  V30 775 H 75.936 1.49201 -1.4 0
M  V30 776 H 75.946 3.92269 -1.12202 0
M  V30 777 H 74.621 3.52684 -2.20425 0
M  V30 778 H 73.198 3.70939 -0.381903 0
M  V30 779 N 75.3831 0.828654 1.34056 0
M  V30 780 C 76.6601 0.341809 1.9259 0
M  V30 781 C 77.0401 -1.17158 1.75605 0
M  V30 782 O 76.3881 -1.98132 1.13824 0
M  V30 783 C 76.5981 0.777453 3.4023 0
M  V30 784 C 77.9461 0.779579 4.17382 0
M  V30 785 O 78.9701 0.7204 3.48839 0
M  V30 786 O 77.8291 0.857996 5.39723 0
M  V30 787 H 74.9231 0.0946085 0.821571 0
M  V30 788 H 77.4691 0.913827 1.42994 0
M  V30 789 H 76.2411 1.8196 3.46419 0
M  V30 790 H 75.8641 0.181444 3.97186 0
M  V30 791 N 76.8612 -1.46375 0.584142 0
M  V30 792 C 77.7912 -2.33103 -0.136037 0
M  V30 793 C 78.7722 -1.45431 -0.882255 0
M  V30 794 O 79.9572 -1.74246 -0.857434 0
M  V30 795 C 77.0872 -3.27731 -1.14933 0
M  V30 796 C 76.0412 -4.24855 -0.517862 0
M  V30 797 C 75.3672 -5.09001 -1.63773 0
M  V30 798 C 76.6672 -5.19439 0.545886 0
M  V30 799 H 78.3612 -2.93568 0.588086 0
M  V30 800 H 75.9072 -1.41166 0.284259 0
M  V30 801 H 77.8602 -3.87261 -1.66153 0
M  V30 802 H 76.5842 -2.65377 -1.90375 0
M  V30 803 H 75.2432 -3.6659 -0.0267361 0
M  V30 804 H 74.8912 -4.43031 -2.38185 0
M  V30 805 H 74.5912 -5.74777 -1.22085 0
M  V30 806 H 76.1152 -5.71396 -2.15266 0
M  V30 807 H 77.5292 -5.73177 0.118704 0
M  V30 808 H 75.9262 -5.93566 0.88317 0
M  V30 809 H 76.9962 -4.63285 1.43162 0
M  V30 810 N 78.3393 -0.321999 -1.54275 0
M  V30 811 C 79.2693 0.537411 -2.27231 0
M  V30 812 C 80.2503 1.12064 -1.27968 0
M  V30 813 O 81.4353 1.14606 -1.56777 0
M  V30 814 C 78.5653 1.69919 -3.02894 0
M  V30 815 C 77.5193 1.24534 -4.09482 0
M  V30 816 C 76.8453 2.49394 -4.72977 0
M  V30 817 C 78.1453 0.361335 -5.21049 0
M  V30 818 H 79.8393 -0.0711406 -2.99315 0
M  V30 819 H 77.3853 -0.0356555 -1.43956 0
M  V30 820 H 79.3383 2.30668 -3.52662 0
M  V30 821 H 78.0623 2.33431 -2.28424 0
M  V30 822 H 76.7213 0.660782 -3.60596 0
M  V30 823 H 76.3693 3.11265 -3.95124 0
M  V30 824 H 76.0693 2.19718 -5.44975 0
M  V30 825 H 77.5933 3.10908 -5.25517 0
M  V30 826 H 79.0073 0.875072 -5.66582 0
M  V30 827 H 77.4043 0.157428 -5.99893 0
M  V30 828 H 78.4743 -0.60822 -4.8107 0
M  V30 829 N 79.8174 1.5752 -0.0501392 0
M  V30 830 C 80.7474 2.14502 0.922566 0
M  V30 831 C 81.7284 1.06642 1.3252 0
M  V30 832 O 82.9134 1.34577 1.4001 0
M  V30 833 C 80.0434 2.68916 2.19776 0
M  V30 834 C 78.9974 3.8175 1.93523 0
M  V30 835 C 78.3234 4.22677 3.27487 0
M  V30 836 C 79.6234 5.06932 1.25765 0
M  V30 837 H 81.3174 2.9603 0.447952 0
M  V30 838 H 78.8634 1.42401 0.214024 0
M  V30 839 H 80.8164 3.07419 2.88222 0
M  V30 840 H 79.5404 1.84578 2.69441 0
M  V30 841 H 78.1994 3.43718 1.27489 0
M  V30 842 H 77.8474 3.35291 3.74952 0
M  V30 843 H 77.5474 4.98725 3.1072 0
M  V30 844 H 79.0714 4.63779 3.97166 0
M  V30 845 H 80.4854 5.42888 1.84244 0
M  V30 846 H 78.8824 5.88116 1.19328 0
M  V30 847 H 79.9524 4.84337 0.233536 0
M  V30 848 N 81.2955 -0.223234 1.56011 0
M  V30 849 C 82.5235 -0.964812 1.83027 0
M  V30 850 C 82.9385 -1.78013 0.62904 0
M  V30 851 O 82.2955 -1.78008 -0.402414 0
M  V30 852 C 82.3465 -1.88373 3.08542 0
M  V30 853 O 82.0675 -1.10137 4.2403 0
M  V30 854 C 83.5685 -2.73934 3.48533 0
M  V30 855 H 80.7885 -0.282842 0.608475 0
M  V30 856 H 83.3325 -0.238971 2.03099 0
M  V30 857 H 81.4875 -2.56354 2.9045 0
M  V30 858 H 81.9015 -1.72501 4.95322 0
M  V30 859 H 83.3755 -3.34117 4.39397 0
M  V30 860 H 83.8525 -3.46244 2.70207 0
M  V30 861 H 84.4585 -2.11369 3.69057 0
M  V30 862 N 82.7736 -1.49793 -0.48987 0
M  V30 863 C 84.0196 -1.60078 -1.24511 0
M  V30 864 C 84.3526 -0.291608 -1.91998 0
M  V30 865 O 83.6276 0.705647 -1.81248 0
M  V30 866 C 83.9106 -2.76791 -2.30345 0
M  V30 867 C 83.7636 -4.17535 -1.67286 0
M  V30 868 C 85.0826 -2.89111 -3.31817 0
M  V30 869 H 82.2016 -0.582645 -0.451324 0
M  V30 870 H 84.8436 -1.82117 -0.541612 0
M  V30 871 H 82.9936 -2.5813 -2.90346 0
M  V30 872 H 84.6656 -4.4774 -1.11026 0
M  V30 873 H 82.9086 -4.22665 -0.976577 0
M  V30 874 H 83.5796 -4.95094 -2.44103 0
M  V30 875 H 86.0556 -3.06133 -2.81819 0
M  V30 876 H 84.9316 -3.72433 -4.03219 0
M  V30 877 H 85.1926 -1.9893 -3.94815 0
M  V30 878 N 84.2517 0.741722 -1.39055 0
M  V30 879 C 85.4767 1.53607 -1.39354 0
M  V30 880 C 85.9017 1.88096 0.0116905 0
M  V30 881 O 85.2597 1.5143 0.996924 0
M  V30 882 C 85.3077 2.80441 -2.26682 0
M  V30 883 O 84.4117 3.76088 -1.69208 0
M  V30 884 H 83.7527 0.464142 -0.474835 0
M  V30 885 H 86.2827 0.915665 -1.82967 0
M  V30 886 H 86.2927 3.29246 -2.40959 0
M  V30 887 H 84.9677 2.5467 -3.2881 0
M  V30 888 H 83.5447 3.34833 -1.64138 0
M  V30 889 N 85.7298 1.2412 0.971189 0
M  V30 890 C 86.6598 1.05508 2.08304 0
M  V30 891 C 87.6408 -0.0308864 1.70072 0
M  V30 892 O 88.8258 0.135521 1.93727 0
M  V30 893 C 85.9558 0.655365 3.4106 0
M  V30 894 C 84.9098 1.68971 3.93234 0
M  V30 895 C 84.2358 1.14516 5.22293 0
M  V30 896 C 85.5358 3.08487 4.21465 0
M  V30 897 H 87.2298 1.98507 2.24132 0
M  V30 898 H 84.7758 0.955821 1.07704 0
M  V30 899 H 86.7288 0.51217 4.18276 0
M  V30 900 H 85.4528 -0.31032 3.25122 0
M  V30 901 H 84.1118 1.82106 3.18171 0
M  V30 902 H 83.7598 0.170189 5.02712 0
M  V30 903 H 83.4598 1.83635 5.58168 0
M  V30 904 H 84.9838 1.01401 6.02121 0
M  V30 905 H 86.3978 2.98601 4.89398 0
M  V30 906 H 84.7948 3.74926 4.68562 0
M  V30 907 H 85.8648 3.56787 3.28376 0
M  V30 908 N 87.2079 -1.17134 1.05439 0
M  V30 909 C 88.6189 -1.69084 0.791676 0
M  V30 910 C 88.9699 -1.83822 -0.685839 0
M  V30 911 O 88.0949 -1.52757 -1.53278 0
M  V30 912 C 88.6899 -3.07119 1.4305 0
M  V30 913 C 87.2489 -3.56225 1.21577 0
M  V30 914 C 86.3959 -2.32421 1.51247 0
M  V30 915 H 89.3469 -1.01617 1.219 0
M  V30 916 H 89.3679 -3.71087 0.84112 0
M  V30 917 H 88.8799 -2.9636 2.50584 0
M  V30 918 H 86.9809 -3.72257 0.159787 0
M  V30 919 H 87.0939 -4.38837 1.92246 0
M  V30 920 H 85.4579 -2.3701 0.932653 0
M  V30 921 H 86.2409 -2.24268 2.5992 0
M  V30 922 N 88.686 -0.835752 -1.33615 0
M  V30 923 C 89.616 -0.281739 -2.31794 0
M  V30 924 C 90.597 0.608833 -1.58831 0
M  V30 925 O 91.782 0.533035 -1.86741 0
M  V30 926 C 88.912 0.546612 -3.42971 0
M  V30 927 C 87.866 -0.247904 -4.27281 0
M  V30 928 C 87.192 0.704001 -5.30045 0
M  V30 929 C 88.492 -1.46324 -5.01385 0
M  V30 930 H 90.186 -1.10206 -2.78379 0
M  V30 931 H 87.732 -0.531388 -1.33837 0
M  V30 932 H 89.685 0.944467 -4.1068 0
M  V30 933 H 88.409 1.40011 -2.95067 0
M  V30 934 H 87.068 -0.627281 -3.61194 0
M  V30 935 H 86.716 1.55381 -4.78399 0
M  V30 936 H 86.416 0.176524 -5.87335 0
M  V30 937 H 87.94 1.09944 -6.0062 0
M  V30 938 H 89.354 -1.13871 -5.61877 0
M  V30 939 H 87.751 -1.92728 -5.6831 0
M  V30 940 H 88.821 -2.23467 -4.30338 0
M  V30 941 N 90.1641 1.46063 -0.591896 0
M  V30 942 C 91.1111 2.30399 0.136069 0
M  V30 943 C 92.0811 1.41169 0.875238 0
M  V30 944 O 93.2661 1.70112 0.86409 0
M  V30 945 C 90.4061 3.25804 1.13781 0
M  V30 946 C 89.5191 4.30134 0.401137 0
M  V30 947 C 88.6541 5.12659 1.39121 0
M  V30 948 C 87.6931 6.0873 0.641462 0
M  V30 949 N 86.8301 6.8409 1.58004 0
M  V30 950 H 91.6701 2.92118 -0.589144 0
M  V30 951 H 89.2071 1.43959 -0.302342 0
M  V30 952 H 91.1651 3.79569 1.73156 0
M  V30 953 H 89.7951 2.65872 1.83062 0
M  V30 954 H 88.8471 3.79152 -0.307826 0
M  V30 955 H 90.1591 4.98458 -0.184565 0
M  V30 956 H 89.3131 5.70747 2.05749 0
M  V30 957 H 88.0521 4.44316 2.01084 0
M  V30 958 H 87.0571 5.49786 -0.0385419 0
M  V30 959 H 88.2821 6.79095 0.0270945 0
M  V30 960 H 86.2281 6.18449 2.18761 0
M  V30 961 H 86.1451 7.48709 1.04738 0
M  V30 962 H 87.4131 7.4673 2.23639 0
M  V30 963 N 91.6422 0.330177 1.54103 0
M  V30 964 C 92.6052 -0.520144 2.2322 0
M  V30 965 C 93.6052 -1.03828 1.22786 0
M  V30 966 O 94.7952 -0.929652 1.4732 0
M  V30 967 C 91.9272 -1.72317 2.94142 0
M  V30 968 H 93.1202 0.0841605 2.99782 0
M  V30 969 H 90.6732 0.0813433 1.56088 0
M  V30 970 H 91.4082 -2.36653 2.21734 0
M  V30 971 H 91.1932 -1.35898 3.67796 0
M  V30 972 H 92.6832 -2.3266 3.46784 0
M  V30 973 N 93.1203 -1.57491 0.0584922 0
M  V30 974 C 94.3663 -1.93264 -0.614558 0
M  V30 975 C 94.6993 -0.937717 -1.7006 0
M  V30 976 O 93.9743 0.0351652 -1.94468 0
M  V30 977 C 94.2573 -3.3938 -1.20386 0
M  V30 978 C 94.1103 -4.49625 -0.125375 0
M  V30 979 C 95.4293 -3.86039 -2.11334 0
M  V30 980 H 92.5483 -0.702791 -0.221933 0
M  V30 981 H 95.1903 -1.8961 0.12175 0
M  V30 982 H 93.3403 -3.42626 -1.83139 0
M  V30 983 H 95.0123 -4.58506 0.506971 0
M  V30 984 H 93.2553 -4.30354 0.545672 0
M  V30 985 H 93.9263 -5.48967 -0.577861 0
M  V30 986 H 96.4023 -3.84716 -1.58534 0
M  V30 987 H 95.2783 -4.88914 -2.49507 0
M  V30 988 H 95.5393 -3.23215 -3.01636 0
M  V30 989 N 94.5984 0.214957 -1.56127 0
M  V30 990 C 95.5084 1.28727 -1.96129 0
M  V30 991 C 96.5244 1.50916 -0.866044 0
M  V30 992 O 97.7004 1.63918 -1.17016 0
M  V30 993 C 94.7654 2.61569 -2.27558 0
M  V30 994 C 93.8264 2.47625 -3.50685 0
M  V30 995 C 93.0594 3.74132 -3.80606 0
M  V30 996 O 93.2824 4.77438 -3.12104 0
M  V30 997 O 92.2164 3.70849 -4.74083 0
M  V30 998 H 96.0424 0.977855 -2.87527 0
M  V30 999 H 93.6274 0.418358 -1.43423 0
M  V30 1000 H 95.5094 3.40012 -2.48938 0
M  V30 1001 H 94.1844 2.92178 -1.39332 0
M  V30 1002 H 93.0914 1.67361 -3.34576 0
M  V30 1003 H 94.4244 2.21954 -4.39315 0
M  V30 1004 N 96.0765 1.50051 0.48192 0
M  V30 1005 C 97.0395 1.67584 1.5636 0
M  V30 1006 C 98.0395 0.546894 1.51214 0
M  V30 1007 O 99.2295 0.813725 1.54026 0
M  V30 1008 C 96.3615 1.691 2.96003 0
M  V30 1009 H 97.5545 2.64078 1.42136 0
M  V30 1010 H 95.1075 1.39369 0.707533 0
M  V30 1011 H 95.8425 0.742589 3.15684 0
M  V30 1012 H 95.6275 2.51105 3.01146 0
M  V30 1013 H 97.1175 1.84656 3.74556 0
M  V30 1014 N 97.5546 -0.734337 1.39446 0
M  V30 1015 C 98.4846 -1.86155 1.40955 0
M  V30 1016 C 99.4656 -1.67898 0.272827 0
M  V30 1017 O 100.651 -1.88207 0.478743 0
M  V30 1018 C 97.7806 -3.23912 1.25294 0
M  V30 1019 C 96.7346 -3.56808 2.36373 0
M  V30 1020 C 96.0606 -4.93508 2.058 0
M  V30 1021 C 97.3606 -3.59713 3.78687 0
M  V30 1022 H 99.0546 -1.8515 2.35287 0
M  V30 1023 H 96.6006 -0.889367 1.13253 0
M  V30 1024 H 98.5536 -4.02443 1.2497 0
M  V30 1025 H 97.2776 -3.25446 0.274308 0
M  V30 1026 H 95.9366 -2.80606 2.35914 0
M  V30 1027 H 95.5846 -4.91623 1.06374 0
M  V30 1028 H 95.2846 -5.16486 2.80208 0
M  V30 1029 H 96.8086 -5.74396 2.07128 0
M  V30 1030 H 98.2226 -4.2832 3.81071 0
M  V30 1031 H 96.6196 -3.94209 4.52459 0
M  V30 1032 H 97.6896 -2.59504 4.09617 0
M  V30 1033 N 99.0327 -1.24633 -0.964593 0
M  V30 1034 C 99.9957 -1.0424 -2.04124 0
M  V30 1035 C 100.996 0.00137563 -1.608 0
M  V30 1036 O 102.186 -0.239883 -1.7254 0
M  V30 1037 C 99.3177 -0.580588 -3.3592 0
M  V30 1038 H 100.511 -1.99803 -2.23649 0
M  V30 1039 H 98.0637 -1.06899 -1.14027 0
M  V30 1040 H 98.7987 0.3781 -3.22088 0
M  V30 1041 H 98.5837 -1.33398 -3.6871 0
M  V30 1042 H 100.074 -0.459034 -4.15069 0
M  V30 1043 N 100.511 1.16574 -1.06058 0
M  V30 1044 C 101.736 1.91493 -0.796562 0
M  V30 1045 C 102.161 1.76773 0.642868 0
M  V30 1046 O 101.519 1.09142 1.44768 0
M  V30 1047 C 101.567 3.40293 -1.19303 0
M  V30 1048 O 100.671 4.11074 -0.330394 0
M  V30 1049 H 100.012 0.596678 -0.291326 0
M  V30 1050 H 102.542 1.47708 -1.41575 0
M  V30 1051 H 102.552 3.91057 -1.16356 0
M  V30 1052 H 101.227 3.50326 -2.24153 0
M  V30 1053 H 99.8038 3.70513 -0.421225 0
M  V30 1054 N 101.989 0.842826 1.3317 0
M  V30 1055 C 103.237 0.439577 1.97262 0
M  V30 1056 C 103.558 -1.00548 1.67078 0
M  V30 1057 O 102.828 -1.70098 0.971779 0
M  V30 1058 H 101.408 0.159558 0.72976 0
M  V30 1059 H 104.07 1.07665 1.62463 0
M  V30 1060 H 103.166 0.574886 3.0676 0
M  V30 1061 N 103.467 -1.45747 0.599634 0
M  V30 1062 C 104.43 -2.28917 -0.113835 0
M  V30 1063 C 105.43 -1.3933 -0.802729 0
M  V30 1064 O 106.62 -1.61534 -0.652103 0
M  V30 1065 C 103.752 -3.20152 -1.17114 0
M  V30 1066 H 104.945 -2.93478 0.617289 0
M  V30 1067 H 102.498 -1.52137 0.358327 0
M  V30 1068 H 103.233 -2.60374 -1.93329 0
M  V30 1069 H 103.018 -3.86133 -0.681468 0
M  V30 1070 H 104.508 -3.82708 -1.67105 0
M  V30 1071 N 104.945 -0.338344 -1.53925 0
M  V30 1072 C 106.191 0.252842 -2.01822 0
M  V30 1073 C 106.546 1.48612 -1.22197 0
M  V30 1074 O 105.839 1.89238 -0.299892 0
M  V30 1075 C 106.033 0.62448 -3.51902 0
M  V30 1076 C 105.862 -0.571235 -4.46057 0
M  V30 1077 C 104.632 -1.07493 -4.93734 0
M  V30 1078 C 106.83 -1.42807 -4.94076 0
M  V30 1079 N 104.812 -2.23351 -5.71828 0
M  V30 1080 C 106.183 -2.43362 -5.70241 0
M  V30 1081 C 108.238 -1.45412 -4.76193 0
M  V30 1082 C 106.941 -3.46346 -6.30426 0
M  V30 1083 C 108.967 -2.47274 -5.37224 0
M  V30 1084 C 108.329 -3.46555 -6.13253 0
M  V30 1085 H 104.428 0.0559669 -0.779995 0
M  V30 1086 H 107.012 -0.476732 -1.88773 0
M  V30 1087 H 105.183 1.32317 -3.65167 0
M  V30 1088 H 106.915 1.19841 -3.86549 0
M  V30 1089 H 103.67 -0.643848 -4.69203 0
M  V30 1090 H 104.094 -2.81834 -6.15548 0
M  V30 1091 H 108.736 -0.700171 -4.16962 0
M  V30 1092 H 106.454 -4.22638 -6.88769 0
M  V30 1093 H 110.04 -2.50109 -5.25297 0
M  V30 1094 H 108.92 -4.24083 -6.59638 0
M  V30 1095 N 106.423 1.57458 -0.0668435 0
M  V30 1096 C 107.834 1.80776 0.466558 0
M  V30 1097 C 108.185 0.980361 1.69951 0
M  V30 1098 O 107.31 0.201441 2.1546 0
M  V30 1099 C 107.905 3.27881 0.85321 0
M  V30 1100 C 106.464 3.52062 1.3315 0
M  V30 1101 C 105.611 2.75513 0.314264 0
M  V30 1102 H 108.562 1.5598 -0.292588 0
M  V30 1103 H 108.583 3.39659 1.715 0
M  V30 1104 H 108.095 3.88075 -0.0443439 0
M  V30 1105 H 106.196 2.97167 2.24772 0
M  V30 1106 H 106.309 4.60762 1.31285 0
M  V30 1107 H 104.673 2.42123 0.790492 0
M  V30 1108 H 105.456 3.38442 -0.575477 0
M  V30 1109 N 107.901 -0.206675 1.56239 0
M  V30 1110 C 108.831 -1.25909 1.96645 0
M  V30 1111 C 109.812 -1.48097 0.836734 0
M  V30 1112 O 110.997 -1.6003 1.10019 0
M  V30 1113 C 108.127 -2.6058 2.29599 0
M  V30 1114 C 107.081 -2.53024 3.452 0
M  V30 1115 C 106.407 -3.91861 3.63798 0
M  V30 1116 C 107.707 -2.06524 4.79734 0
M  V30 1117 H 109.401 -0.923369 2.84806 0
M  V30 1118 H 106.947 -0.442735 1.37025 0
M  V30 1119 H 108.9 -3.34375 2.56459 0
M  V30 1120 H 107.624 -2.95869 1.38307 0
M  V30 1121 H 106.283 -1.81684 3.18412 0
M  V30 1122 H 105.931 -4.24483 2.69857 0
M  V30 1123 H 105.631 -3.87683 4.4156 0
M  V30 1124 H 107.155 -4.67296 3.93022 0
M  V30 1125 H 108.569 -2.70072 5.05702 0
M  V30 1126 H 106.966 -2.13374 5.60885 0
M  V30 1127 H 108.036 -1.01802 4.74093 0
M  V30 1128 N 109.379 -1.50304 -0.473955 0
M  V30 1129 C 110.79 -1.54042 -1.0549 0
M  V30 1130 C 111.141 -0.342248 -1.93192 0
M  V30 1131 O 110.266 0.545157 -2.09421 0
M  V30 1132 C 110.861 -2.79152 -1.91989 0
M  V30 1133 C 109.42 -2.8558 -2.45196 0
M  V30 1134 C 108.567 -2.48295 -1.2347 0
M  V30 1135 H 111.518 -1.5661 -0.256693 0
M  V30 1136 H 111.539 -2.60845 -2.7702 0
M  V30 1137 H 111.051 -3.66339 -1.28131 0
M  V30 1138 H 109.152 -2.02738 -3.12615 0
M  V30 1139 H 109.265 -3.88403 -2.80499 0
M  V30 1140 H 107.629 -2.00669 -1.56856 0
M  V30 1141 H 108.412 -3.37787 -0.612789 0
M  V30 1142 N 110.857 0.726932 -1.39834 0
M  V30 1143 C 111.82 1.82269 -1.38962 0
M  V30 1144 C 112.82 1.58248 -0.285334 0
M  V30 1145 O 114.01 1.65499 -0.54366 0
M  V30 1146 C 111.142 3.20186 -1.17019 0
M  V30 1147 H 112.335 1.84443 -2.36476 0
M  V30 1148 H 109.888 0.931416 -1.25516 0
M  V30 1149 H 110.623 3.23669 -0.202204 0
M  V30 1150 H 110.408 3.3902 -1.96998 0
M  V30 1151 H 111.898 4.00235 -1.1917 0
M  V30 1152 N 112.336 1.25143 0.95797 0
M  V30 1153 C 113.561 1.12521 1.74223 0
M  V30 1154 C 113.986 -0.317402 1.85403 0
M  V30 1155 O 113.344 -1.2299 1.33204 0
M  V30 1156 C 113.392 1.78062 3.1357 0
M  V30 1157 O 112.496 1.058 3.98598 0
M  V30 1158 H 111.837 0.39304 0.535178 0
M  V30 1159 H 114.367 1.65641 1.201 0
M  V30 1160 H 114.377 1.84213 3.64046 0
M  V30 1161 H 113.052 2.83021 3.04749 0
M  V30 1162 H 111.629 1.07506 3.57067 0
M  V30 1163 N 113.814 -1.1601 1.06675 0
M  V30 1164 C 114.744 -2.22688 0.702307 0
M  V30 1165 C 115.725 -1.67306 -0.307032 0
M  V30 1166 O 116.91 -1.93352 -0.181305 0
M  V30 1167 C 114.04 -3.47178 0.092038 0
M  V30 1168 C 112.994 -4.15477 1.02777 0
M  V30 1169 C 112.32 -5.33963 0.28061 0
M  V30 1170 C 113.62 -4.66019 2.35846 0
M  V30 1171 H 115.314 -2.53429 1.59419 0
M  V30 1172 H 112.86 -1.21813 0.767961 0
M  V30 1173 H 114.813 -4.21037 -0.174814 0
M  V30 1174 H 113.537 -3.15749 -0.834877 0
M  V30 1175 H 112.196 -3.43549 1.27944 0
M  V30 1176 H 111.844 -4.98788 -0.649545 0
M  V30 1177 H 111.544 -5.806 0.904258 0
M  V30 1178 H 113.068 -6.10596 0.021396 0
M  V30 1179 H 114.482 -5.3144 2.15045 0
M  V30 1180 H 112.879 -5.23293 2.93743 0
M  V30 1181 H 113.949 -3.82023 2.98641 0
M  V30 1182 N 115.292 -0.849877 -1.32721 0
M  V30 1183 C 116.532 -0.457146 -1.99222 0
M  V30 1184 C 116.896 0.968038 -1.6581 0
M  V30 1185 O 118.097 1.46507 -2.25364 0
M  V30 1186 C 116.368 -0.683966 -3.50794 0
M  V30 1187 S 117.927 -0.388095 -4.3708 0
M  V30 1188 H 114.745 -0.171464 -0.690015 0
M  V30 1189 H 117.347 -1.10155 -1.61512 0
M  V30 1190 H 116.051 -1.72038 -3.726 0
M  V30 1191 H 115.582 -0.0258086 -3.93392 0
M  V30 1192 H 117.597 0.787791 -4.89906 0
M  V30 1193 N 116.77 1.45427 -0.607355 0
M  V30 1194 C 118.181 1.85756 -0.187535 0
M  V30 1195 C 118.532 1.5077 1.25551 0
M  V30 1196 O 117.657 0.93427 1.95193 0
M  V30 1197 C 118.252 3.37154 -0.333572 0
M  V30 1198 C 116.811 3.76387 0.0315542 0
M  V30 1199 C 115.958 2.69377 -0.658117 0
M  V30 1200 H 118.909 1.36231 -0.81405 0
M  V30 1201 H 118.93 3.78014 0.43428 0
M  V30 1202 H 118.442 3.62586 -1.38393 0
M  V30 1203 H 116.543 3.56571 1.0811 0
M  V30 1204 H 116.656 4.77731 -0.361935 0
M  V30 1205 H 115.02 2.5452 -0.0957873 0
M  V30 1206 H 115.803 2.97646 -1.7106 0
M  V30 1207 N 118.248 0.346503 1.53744 0
M  V30 1208 C 119.494 -0.249473 2.0126 0
M  V30 1209 C 119.827 -1.49965 1.23386 0
M  V30 1210 O 119.102 -1.91811 0.32229 0
M  V30 1211 C 119.385 -0.560643 3.55709 0
M  V30 1212 C 119.238 0.701836 4.44291 0
M  V30 1213 C 120.557 -1.36905 4.18264 0
M  V30 1214 H 117.676 -0.0891987 0.731582 0
M  V30 1215 H 120.318 0.467624 1.84156 0
M  V30 1216 H 118.468 -1.17156 3.70414 0
M  V30 1217 H 120.14 1.33974 4.41417 0
M  V30 1218 H 118.383 1.32612 4.13033 0
M  V30 1219 H 119.054 0.43933 5.50249 0
M  V30 1220 H 121.53 -0.852448 4.07275 0
M  V30 1221 H 120.406 -1.55553 5.26398 0
M  V30 1222 H 120.667 -2.37203 3.73078 0
M  V30 1223 N 119.726 -1.57421 0.075193 0
M  V30 1224 C 120.973 -1.93618 -0.593146 0
M  V30 1225 C 121.301 -0.955484 -1.69413 0
M  V30 1226 O 120.556 0.0283251 -1.9568 0
M  V30 1227 C 120.855 -3.36428 -1.20626 0
M  V30 1228 C 120.521 -4.50307 -0.231078 0
M  V30 1229 C 119.183 -4.81186 0.0371936 0
M  V30 1230 C 121.535 -5.19374 0.435888 0
M  V30 1231 C 118.863 -5.78466 0.979461 0
M  V30 1232 C 121.215 -6.17665 1.3665 0
M  V30 1233 C 119.879 -6.46958 1.6432 0
M  V30 1234 H 119.149 -0.708499 -0.217047 0
M  V30 1235 H 121.796 -1.90937 0.146793 0
M  V30 1236 H 120.101 -3.35592 -2.02201 0
M  V30 1237 H 121.798 -3.61727 -1.73073 0
M  V30 1238 H 118.388 -4.26227 -0.450357 0
M  V30 1239 H 122.572 -4.95711 0.241748 0
M  V30 1240 H 117.828 -5.99487 1.20106 0
M  V30 1241 H 122.002 -6.70284 1.88924 0
M  V30 1242 H 119.629 -7.2215 2.37494 0
M  V30 1243 N 121.204 0.198386 -1.56346 0
M  V30 1244 C 122.167 1.22952 -1.93431 0
M  V30 1245 C 123.167 1.38611 -0.815092 0
M  V30 1246 O 124.357 1.36479 -1.08255 0
M  V30 1247 C 121.489 2.59946 -2.20546 0
M  V30 1248 H 122.682 0.912626 -2.85677 0
M  V30 1249 H 120.235 0.43977 -1.49986 0
M  V30 1250 H 120.97 2.96696 -1.30927 0
M  V30 1251 H 120.755 2.49953 -3.02102 0
M  V30 1252 H 122.245 3.3431 -2.50253 0
M  V30 1253 N 122.682 1.50554 0.465978 0
M  V30 1254 C 123.928 1.62038 1.21949 0
M  V30 1255 C 124.261 0.322116 1.9151 0
M  V30 1256 O 123.536 -0.676723 1.82348 0
M  V30 1257 C 123.819 2.80421 2.25912 0
M  V30 1258 C 123.672 4.20144 1.60622 0
M  V30 1259 C 124.991 2.94354 3.27176 0
M  V30 1260 H 122.11 0.589752 0.441998 0
M  V30 1261 H 124.752 1.82956 0.51257 0
M  V30 1262 H 122.902 2.62717 2.86203 0
M  V30 1263 H 124.574 4.49449 1.03889 0
M  V30 1264 H 122.817 4.24165 0.909211 0
M  V30 1265 H 123.488 4.98914 2.36196 0
M  V30 1266 H 125.964 3.10578 2.76913 0
M  V30 1267 H 124.84 3.788 3.97242 0
M  V30 1268 H 125.101 2.05186 3.916 0
M  V30 1269 N 124.16 -0.719506 1.40217 0
M  V30 1270 C 125.123 -1.8153 1.39927 0
M  V30 1271 C 126.123 -1.58095 0.293723 0
M  V30 1272 O 127.313 -1.65209 0.552429 0
M  V30 1273 C 124.445 -3.19561 1.18716 0
M  V30 1274 H 125.638 -1.83186 2.37451 0
M  V30 1275 H 123.191 -0.924746 1.26008 0
M  V30 1276 H 123.926 -3.23557 0.219366 0
M  V30 1277 H 123.711 -3.3797 1.98793 0
M  V30 1278 H 125.201 -3.99598 1.21291 0
M  V30 1279 N 125.638 -1.25649 -0.95132 0
M  V30 1280 C 126.588 -1.03004 -2.03406 0
M  V30 1281 C 127.572 0.034187 -1.60864 0
M  V30 1282 O 128.764 -0.181549 -1.76066 0
M  V30 1283 C 125.893 -0.654255 -3.37008 0
M  V30 1284 C 124.979 -1.75542 -3.86065 0
M  V30 1285 N 125.37 -2.99113 -4.07879 0
M  V30 1286 C 123.668 -1.63669 -4.14884 0
M  V30 1287 C 124.369 -3.70611 -4.48356 0
M  V30 1288 N 123.345 -2.98247 -4.54477 0
M  V30 1289 H 127.147 -1.96813 -2.1827 0
M  V30 1290 H 124.661 -1.16017 -1.13639 0
M  V30 1291 H 126.658 -0.473206 -4.14206 0
M  V30 1292 H 125.318 0.276468 -3.23521 0
M  V30 1293 H 126.329 -3.35124 -3.94857 0
M  V30 1294 H 123.006 -0.775161 -4.10241 0
M  V30 1295 H 124.396 -4.76695 -4.73509 0
M  V30 1296 N 127.117 1.15442 -1.07289 0
M  V30 1297 C 128.364 1.86213 -0.795668 0
M  V30 1298 C 128.692 1.82291 0.678238 0
M  V30 1299 O 127.947 1.24057 1.51355 0
M  V30 1300 C 128.246 3.3489 -1.24834 0
M  V30 1301 C 127.912 3.59007 -2.72809 0
M  V30 1302 C 126.574 3.65298 -3.13227 0
M  V30 1303 C 128.926 3.68762 -3.68326 0
M  V30 1304 C 126.254 3.78854 -4.4798 0
M  V30 1305 C 128.606 3.83842 -5.0284 0
M  V30 1306 C 127.27 3.88378 -5.4288 0
M  V30 1307 H 126.54 0.681403 -0.291155 0
M  V30 1308 H 129.187 1.36435 -1.34379 0
M  V30 1309 H 127.492 3.8687 -0.619595 0
M  V30 1310 H 129.189 3.88052 -1.01076 0
M  V30 1311 H 125.779 3.5475 -2.40521 0
M  V30 1312 H 129.963 3.63202 -3.38227 0
M  V30 1313 H 125.219 3.80623 -4.78472 0
M  V30 1314 H 129.393 3.90332 -5.76727 0
M  V30 1315 H 127.02 3.98635 -6.47298 0
M  V30 1316 N 128.595 0.856903 1.32268 0
M  V30 1317 C 129.842 0.461386 1.97174 0
M  V30 1318 C 130.17 -0.983491 1.67803 0
M  V30 1319 O 129.425 -1.70541 0.959903 0
M  V30 1320 C 129.724 0.649919 3.51441 0
M  V30 1321 C 129.39 2.0656 4.00804 0
M  V30 1322 C 128.052 2.45279 4.13995 0
M  V30 1323 C 130.404 2.98947 4.26943 0
M  V30 1324 C 127.732 3.75653 4.50668 0
M  V30 1325 C 130.084 4.28822 4.65075 0
M  V30 1326 C 128.748 4.67472 4.76472 0
M  V30 1327 H 128.018 0.168833 0.72151 0
M  V30 1328 H 130.665 1.08739 1.57633 0
M  V30 1329 H 128.97 -0.0593018 3.91755 0
M  V30 1330 H 130.667 0.32391 3.9969 0
M  V30 1331 H 127.257 1.75495 3.91024 0
M  V30 1332 H 131.441 2.70265 4.16258 0
M  V30 1333 H 126.697 4.05379 4.57688 0
M  V30 1334 H 130.871 5.0047 4.84255 0
M  V30 1335 H 128.498 5.68539 5.04646 0
M  V30 1336 N 130.073 -1.45103 0.615059 0
M  V30 1337 C 131.484 -1.85654 0.197383 0
M  V30 1338 C 131.835 -1.51433 -1.24749 0
M  V30 1339 O 130.96 -0.944608 -1.94695 0
M  V30 1340 C 131.555 -3.36972 0.351448 0
M  V30 1341 C 130.114 -3.76398 -0.011593 0
M  V30 1342 C 129.261 -2.69024 0.672394 0
M  V30 1343 H 132.212 -1.35797 0.821263 0
M  V30 1344 H 132.233 -3.78239 -0.414227 0
M  V30 1345 H 131.745 -3.61847 1.40314 0
M  V30 1346 H 129.846 -3.5714 -1.06217 0
M  V30 1347 H 129.959 -4.77532 0.387265 0
M  V30 1348 H 128.323 -2.54465 0.109284 0
M  V30 1349 H 129.106 -2.96735 1.72636 0
M  V30 1350 N 131.551 -0.354651 -1.53558 0
M  V30 1351 C 132.481 0.489091 -2.2832 0
M  V30 1352 C 133.462 1.09324 -1.30316 0
M  V30 1353 O 134.647 1.11255 -1.59173 0
M  V30 1354 C 131.777 1.63456 -3.0643 0
M  V30 1355 C 130.731 1.1582 -4.12031 0
M  V30 1356 C 130.057 2.39305 -4.7816 0
M  V30 1357 C 131.357 0.250731 -5.21698 0
M  V30 1358 H 133.051 -0.134614 -2.99097 0
M  V30 1359 H 130.597 -0.0661826 -1.43848 0
M  V30 1360 H 132.55 2.23136 -3.57475 0
M  V30 1361 H 131.274 2.28533 -2.33325 0
M  V30 1362 H 129.933 0.584146 -3.61916 0
M  V30 1363 H 129.581 3.02814 -4.01637 0
M  V30 1364 H 129.281 2.08109 -5.49513 0
M  V30 1365 H 130.805 2.99691 -5.31994 0
M  V30 1366 H 132.219 0.754695 -5.68311 0
M  V30 1367 H 130.616 0.0301468 -6.00092 0
M  V30 1368 H 131.686 -0.710125 -4.79672 0
M  V30 1369 N 133.029 1.57378 -0.0835403 0
M  V30 1370 C 134.259 1.97975 0.590713 0
M  V30 1371 C 134.667 0.961083 1.62972 0
M  V30 1372 O 134.01 -0.0590879 1.83605 0
M  V30 1373 C 134.072 3.34915 1.3066 0
M  V30 1374 C 133.736 4.55069 0.419698 0
M  V30 1375 C 134.733 5.18868 -0.32749 0
M  V30 1376 C 132.418 5.0114 0.341137 0
M  V30 1377 C 134.412 6.27098 -1.14134 0
M  V30 1378 C 132.099 6.0924 -0.476374 0
M  V30 1379 C 133.097 6.72083 -1.21627 0
M  V30 1380 O 132.785 7.781 -2.02028 0
M  V30 1381 H 132.517 0.655818 0.163947 0
M  V30 1382 H 135.071 2.04807 -0.156021 0
M  V30 1383 H 133.301 3.24733 2.09966 0
M  V30 1384 H 134.99 3.60037 1.87424 0
M  V30 1385 H 135.756 4.84211 -0.276459 0
M  V30 1386 H 131.635 4.51996 0.90668 0
M  V30 1387 H 135.179 6.7608 -1.71935 0
M  V30 1388 H 131.076 6.43329 -0.528927 0
M  V30 1389 H 131.844 7.95034 -1.94586 0
M  V30 1390 N 134.507 -0.190092 1.56449 0
M  V30 1391 C 135.47 -1.21925 1.9408 0
M  V30 1392 C 136.47 -1.38176 0.822431 0
M  V30 1393 O 137.66 -1.35903 1.08977 0
M  V30 1394 C 134.792 -2.58773 2.21922 0
M  V30 1395 H 135.985 -0.897464 2.86157 0
M  V30 1396 H 133.538 -0.43181 1.50217 0
M  V30 1397 H 134.273 -2.95998 1.32499 0
M  V30 1398 H 134.058 -2.48348 3.03424 0
M  V30 1399 H 135.548 -3.32978 2.52022 0
M  V30 1400 N 135.985 -1.50799 -0.457987 0
M  V30 1401 C 137.233 -1.62121 -1.2067 0
M  V30 1402 C 137.554 -0.329793 -1.92191 0
M  V30 1403 O 136.824 0.653409 -1.84682 0
M  V30 1404 H 135.404 -0.597441 -0.448411 0
M  V30 1405 H 138.066 -1.87637 -0.527096 0
M  V30 1406 H 137.162 -2.43882 -1.94751 0
M  V30 1407 N 137.463 0.71206 -1.40597 0
M  V30 1408 C 138.711 1.46907 -1.38791 0
M  V30 1409 C 139.032 1.94998 0.00780391 0
M  V30 1410 O 138.302 1.70587 0.963174 0
M  V30 1411 H 136.882 0.545043 -0.51082 0
M  V30 1412 H 139.544 0.843882 -1.75683 0
M  V30 1413 H 138.64 2.34021 -2.06496 0
M  V30 1414 N 138.941 1.26152 0.944643 0
M  V30 1415 C 140.189 1.11271 1.6871 0
M  V30 1416 C 140.51 -0.345166 1.91921 0
M  V30 1417 O 139.78 -1.24387 1.51343 0
M  V30 1418 H 138.36 0.408783 0.625224 0
M  V30 1419 H 141.022 1.58427 1.1352 0
M  V30 1420 H 140.118 1.62879 2.66227 0
M  V30 1421 N 140.419 -1.14872 1.07899 0
M  V30 1422 C 141.666 -1.85789 0.805532 0
M  V30 1423 C 141.994 -1.82649 -0.668561 0
M  V30 1424 O 141.249 -1.24858 -1.50695 0
M  V30 1425 C 141.548 -3.34223 1.26609 0
M  V30 1426 C 141.214 -3.57555 2.74709 0
M  V30 1427 C 139.876 -3.63631 3.1516 0
M  V30 1428 C 142.228 -3.66803 3.70277 0
M  V30 1429 C 139.556 -3.76473 4.49983 0
M  V30 1430 C 141.908 -3.8117 5.04869 0
M  V30 1431 C 140.572 -3.85494 5.44932 0
M  V30 1432 H 139.842 -0.679849 0.294765 0
M  V30 1433 H 142.489 -1.3572 1.35101 0
M  V30 1434 H 140.794 -3.86536 0.640103 0
M  V30 1435 H 142.491 -3.87511 1.03132 0
M  V30 1436 H 139.081 -3.5347 2.42398 0
M  V30 1437 H 143.265 -3.61404 3.40149 0
M  V30 1438 H 138.521 -3.7808 4.80484 0
M  V30 1439 H 142.695 -3.87268 5.78789 0
M  V30 1440 H 140.322 -3.95197 6.49403 0
M  V30 1441 N 141.898 -0.863906 -1.31812 0
M  V30 1442 C 142.828 -0.330843 -2.31144 0
M  V30 1443 C 143.809 0.575005 -1.60087 0
M  V30 1444 O 144.994 0.493304 -1.8783 0
M  V30 1445 C 142.124 0.47374 -3.44054 0
M  V30 1446 C 141.078 -0.338481 -4.26659 0
M  V30 1447 C 140.404 0.591412 -5.31419 0
M  V30 1448 C 141.704 -1.56926 -4.98168 0
M  V30 1449 H 143.398 -1.16086 -2.75979 0
M  V30 1450 H 140.944 -0.559657 -1.32679 0
M  V30 1451 H 142.897 0.857143 -4.12591 0
M  V30 1452 H 141.621 1.33721 -2.9797 0
M  V30 1453 H 140.28 -0.703754 -3.59782 0
M  V30 1454 H 139.928 1.45199 -4.81587 0
M  V30 1455 H 139.628 0.0519022 -5.87577 0
M  V30 1456 H 141.152 0.97179 -6.02817 0
M  V30 1457 H 142.566 -1.25764 -5.59336 0
M  V30 1458 H 140.963 -2.04739 -5.64094 0
M  V30 1459 H 142.033 -2.32544 -4.25501 0
M  V30 1460 N 143.376 1.44774 -0.622745 0
M  V30 1461 C 144.339 2.29069 0.0774015 0
M  V30 1462 C 145.339 1.4059 0.780461 0
M  V30 1463 O 146.529 1.62551 0.626322 0
M  V30 1464 C 143.661 3.21974 1.12006 0
M  V30 1465 H 144.854 2.92459 -0.663901 0
M  V30 1466 H 142.407 1.51548 -0.382486 0
M  V30 1467 H 143.142 2.63417 1.89162 0
M  V30 1468 H 142.927 3.87168 0.619951 0
M  V30 1469 H 144.417 3.85318 1.60995 0
M  V30 1470 N 144.854 0.36279 1.53368 0
M  V30 1471 C 145.817 -0.472679 2.24273 0
M  V30 1472 C 146.817 -1.012 1.24961 0
M  V30 1473 O 148.007 -0.898194 1.49259 0
M  V30 1474 C 145.139 -1.66039 2.97731 0
M  V30 1475 H 146.332 0.14773 2.99536 0
M  V30 1476 H 143.885 0.114434 1.55881 0
M  V30 1477 H 144.62 -2.31896 2.26704 0
M  V30 1478 H 144.405 -1.28066 3.70596 0
M  V30 1479 H 145.895 -2.25252 3.51641 0
M  V30 1480 N 146.332 -1.57332 0.0918853 0
M  V30 1481 C 147.262 -2.16872 -0.865371 0
M  V30 1482 C 148.243 -1.10118 -1.29646 0
M  V30 1483 O 149.428 -1.38242 -1.36392 0
M  V30 1484 C 146.558 -2.74649 -2.12569 0
M  V30 1485 C 145.512 -3.86747 -1.83333 0
M  V30 1486 C 144.838 -4.31212 -3.16166 0
M  V30 1487 C 146.138 -5.10089 -1.1228 0
M  V30 1488 H 147.832 -2.97114 -0.369307 0
M  V30 1489 H 145.378 -1.42918 -0.176194 0
M  V30 1490 H 147.331 -3.14952 -2.7997 0
M  V30 1491 H 146.055 -1.91657 -2.64452 0
M  V30 1492 H 144.714 -3.46978 -1.18331 0
M  V30 1493 H 144.362 -3.45115 -3.6593 0
M  V30 1494 H 144.062 -5.06788 -2.97388 0
M  V30 1495 H 145.586 -4.74146 -3.84731 0
M  V30 1496 H 147 -5.47582 -1.69785 0
M  V30 1497 H 145.397 -5.91073 -1.03693 0
M  V30 1498 H 146.467 -4.84786 -0.105041 0
M  V30 1499 N 147.81 0.181792 -1.56548 0
M  V30 1500 C 149.035 0.920019 -1.85877 0
M  V30 1501 C 149.46 1.75494 -0.677021 0
M  V30 1502 O 148.818 1.77399 0.374056 0
M  V30 1503 C 148.866 1.78112 -3.13542 0
M  V30 1504 O 147.97 2.88152 -2.95029 0
M  V30 1505 H 147.311 0.258334 -0.611686 0
M  V30 1506 H 149.841 0.183092 -2.03779 0
M  V30 1507 H 149.851 2.18314 -3.44678 0
M  V30 1508 H 148.526 1.16777 -3.99169 0
M  V30 1509 H 147.103 2.51609 -2.75222 0
M  V30 1510 N 149.288 1.51039 0.449983 0
M  V30 1511 C 150.251 1.70863 1.5277 0
M  V30 1512 C 151.251 0.578846 1.5002 0
M  V30 1513 O 152.441 0.846213 1.52266 0
M  V30 1514 C 149.573 1.75341 2.9235 0
M  V30 1515 H 150.766 2.67034 1.36502 0
M  V30 1516 H 148.319 1.40838 0.677812 0
M  V30 1517 H 149.054 0.809383 3.14037 0
M  V30 1518 H 148.839 2.57436 2.95752 0
M  V30 1519 H 150.329 1.92559 3.70555 0
M  V30 1520 N 150.766 -0.704594 1.40972 0
M  V30 1521 C 152.014 -1.46169 1.39568 0
M  V30 1522 C 152.335 -1.95 0.00253745 0
M  V30 1523 O 151.605 -1.71095 -0.954114 0
M  V30 1524 H 150.185 -0.542326 0.513704 0
M  V30 1525 H 152.847 -0.834553 1.76128 0
M  V30 1526 H 151.943 -2.32922 2.07735 0
M  V30 1527 N 152.244 -1.26651 -0.937939 0
M  V30 1528 C 153.66 -1.03834 -1.21205 0
M  V30 1529 C 153.86 0.234502 -2.00131 0
M  V30 1530 O 152.916 0.942767 -2.3424 0
M  V30 1531 C 154.229 -2.27167 -1.97017 0
M  V30 1532 C 155.777 -2.32101 -2.09996 0
M  V30 1533 C 156.252 -3.55136 -2.8921 0
M  V30 1534 N 157.743 -3.55632 -2.96783 0
M  V30 1535 C 158.478 -4.475 -3.58512 0
M  V30 1536 N 157.974 -5.4966 -4.21717 0
M  V30 1537 N 159.767 -4.35145 -3.55816 0
M  V30 1538 H 151.918 -2.08398 -0.410391 0
M  V30 1539 H 154.181 -0.916031 -0.244114 0
M  V30 1540 H 153.887 -3.19765 -1.46434 0
M  V30 1541 H 153.761 -2.31672 -2.97671 0
M  V30 1542 H 156.148 -1.40015 -2.59769 0
M  V30 1543 H 156.229 -2.31605 -1.08594 0
M  V30 1544 H 155.873 -4.47553 -2.40123 0
M  V30 1545 H 155.803 -3.5288 -3.90875 0
M  V30 1546 H 158.294 -2.81743 -2.51852 0
M  V30 1547 H 158.607 -6.15943 -4.66727 0
M  V30 1548 H 156.952 -5.53514 -4.20294 0
M  V30 1549 H 160.143 -3.5455 -3.05634 0
M  V30 1550 H 160.316 -5.06934 -4.03636 0
M  V30 1551 N 153.722 1.14298 -1.08507 0
M  V30 1552 C 154.952 1.88945 -0.835663 0
M  V30 1553 C 155.36 1.78894 0.615928 0
M  V30 1554 O 154.703 1.1468 1.43506 0
M  V30 1555 C 154.765 3.39585 -1.17994 0
M  V30 1556 C 154.429 3.7342 -2.63451 0
M  V30 1557 C 155.426 3.73454 -3.61702 0
M  V30 1558 C 153.111 4.03368 -2.99332 0
M  V30 1559 C 155.105 4.02961 -4.93864 0
M  V30 1560 C 152.792 4.32538 -4.31687 0
M  V30 1561 C 153.79 4.32318 -5.28763 0
M  V30 1562 O 153.478 4.6078 -6.58739 0
M  V30 1563 H 153.21 0.605307 -0.300965 0
M  V30 1564 H 155.764 1.45673 -1.44806 0
M  V30 1565 H 153.994 3.83315 -0.51055 0
M  V30 1566 H 155.683 3.9554 -0.911182 0
M  V30 1567 H 156.449 3.50403 -3.35325 0
M  V30 1568 H 152.328 4.02692 -2.24411 0
M  V30 1569 H 155.872 4.02704 -5.69627 0
M  V30 1570 H 151.769 4.55059 -4.57812 0
M  V30 1571 H 152.537 4.78492 -6.64069 0
M  V30 1572 N 155.201 0.870884 1.31352 0
M  V30 1573 C 156.131 0.343096 2.30966 0
M  V30 1574 C 157.112 -0.566507 1.60389 0
M  V30 1575 O 158.297 -0.483336 1.88089 0
M  V30 1576 C 155.427 -0.455487 3.443 0
M  V30 1577 C 154.381 0.361103 4.26474 0
M  V30 1578 C 153.707 -0.563221 5.31725 0
M  V30 1579 C 155.007 1.59566 4.97329 0
M  V30 1580 H 156.701 1.17548 2.75359 0
M  V30 1581 H 154.247 0.566686 1.32381 0
M  V30 1582 H 156.2 -0.83525 4.13039 0
M  V30 1583 H 154.924 -1.32139 2.98675 0
M  V30 1584 H 153.583 0.722825 3.59403 0
M  V30 1585 H 153.231 -1.42643 4.82351 0
M  V30 1586 H 152.931 -0.0207409 5.87596 0
M  V30 1587 H 154.455 -0.939808 6.03324 0
M  V30 1588 H 155.869 1.28728 5.58661 0
M  V30 1589 H 154.266 2.07728 5.63 0
M  V30 1590 H 155.336 2.34798 4.24262 0
M  V30 1591 N 156.679 -1.44442 0.630414 0
M  V30 1592 C 157.927 -2.01653 0.134351 0
M  V30 1593 C 158.248 -1.49836 -1.24796 0
M  V30 1594 O 157.518 -0.701684 -1.82902 0
M  V30 1595 H 156.098 -0.74554 0.0466769 0
M  V30 1596 H 158.76 -1.76952 0.816955 0
M  V30 1597 H 157.856 -3.11935 0.101498 0
M  V30 1598 N 158.157 -0.370918 -1.53173 0
M  V30 1599 C 159.12 0.460778 -2.24521 0
M  V30 1600 C 160.12 1.00536 -1.25496 0
M  V30 1601 O 161.31 0.890266 -1.49733 0
M  V30 1602 C 158.442 1.64457 -2.98608 0
M  V30 1603 H 159.635 -0.163613 -2.99453 0
M  V30 1604 H 157.188 -0.122699 -1.55818 0
M  V30 1605 H 157.923 2.30691 -2.2793 0
M  V30 1606 H 157.708 1.26099 -3.7127 0
M  V30 1607 H 159.198 2.23384 -3.5283 0
M  V30 1608 N 159.635 1.57281 -0.100228 0
M  V30 1609 C 160.598 2.13158 0.842398 0
M  V30 1610 C 161.598 1.06202 1.20738 0
M  V30 1611 O 162.788 1.32066 1.13597 0
M  V30 1612 C 159.92 2.65639 2.13655 0
M  V30 1613 H 161.113 2.97766 0.357114 0
M  V30 1614 H 158.666 1.5559 0.148823 0
M  V30 1615 H 159.401 1.84566 2.66657 0
M  V30 1616 H 159.186 3.43844 1.88451 0
M  V30 1617 H 160.676 3.08846 2.81077 0
M  V30 1618 N 161.113 -0.173488 1.56642 0
M  V30 1619 C 162.36 -0.890465 1.81871 0
M  V30 1620 C 162.688 -1.82339 0.67696 0
M  V30 1621 O 161.943 -1.92795 -0.335926 0
M  V30 1622 C 162.242 -1.72069 3.13252 0
M  V30 1623 C 161.908 -0.936878 4.41059 0
M  V30 1624 C 160.57 -0.720545 4.75775 0
M  V30 1625 C 162.922 -0.386919 5.19762 0
M  V30 1626 C 160.25 0.0568829 5.86672 0
M  V30 1627 C 162.602 0.37741 6.31473 0
M  V30 1628 C 161.266 0.604563 6.64757 0
M  V30 1629 H 160.536 -0.325844 0.665512 0
M  V30 1630 H 163.183 -0.155527 1.90867 0
M  V30 1631 H 161.488 -2.52496 2.99588 0
M  V30 1632 H 163.185 -2.27844 3.29982 0
M  V30 1633 H 159.775 -1.11553 4.13828 0
M  V30 1634 H 163.959 -0.541398 4.93338 0
M  V30 1635 H 159.215 0.242635 6.10918 0
M  V30 1636 H 163.389 0.810825 6.91664 0
M  V30 1637 H 161.016 1.20885 7.50527 0
M  V30 1638 N 162.591 -1.51276 -0.441967 0
M  V30 1639 C 164.002 -1.56244 -1.02199 0
M  V30 1640 C 164.353 -0.383149 -1.92422 0
M  V30 1641 O 163.478 0.500613 -2.1053 0
M  V30 1642 C 164.073 -2.83162 -1.86024 0
M  V30 1643 C 162.632 -2.90716 -2.39084 0
M  V30 1644 C 161.779 -2.50858 -1.18175 0
M  V30 1645 H 164.73 -1.5712 -0.223416 0
M  V30 1646 H 164.751 -2.66663 -2.71425 0
M  V30 1647 H 164.263 -3.68974 -1.20331 0
M  V30 1648 H 162.364 -2.09323 -3.08244 0
M  V30 1649 H 162.477 -3.94266 -2.72198 0
M  V30 1650 H 160.841 -2.03951 -1.52565 0
M  V30 1651 H 161.624 -3.3901 -0.541001 0
M  V30 1652 N 164.069 0.697108 -1.41344 0
M  V30 1653 C 164.999 1.82353 -1.45841 0
M  V30 1654 C 165.98 1.67115 -0.317247 0
M  V30 1655 O 167.165 1.86871 -0.528474 0
M  V30 1656 C 164.295 3.20476 -1.33838 0
M  V30 1657 C 163.249 3.50415 -2.4575 0
M  V30 1658 C 162.575 4.87878 -2.18813 0
M  V30 1659 C 163.875 3.49546 -3.88091 0
M  V30 1660 H 165.569 1.78846 -2.40113 0
M  V30 1661 H 163.115 0.859028 -1.15571 0
M  V30 1662 H 165.068 3.98988 -1.35596 0
M  V30 1663 H 163.792 3.24604 -0.360498 0
M  V30 1664 H 162.451 2.74253 -2.43271 0
M  V30 1665 H 162.099 4.8863 -1.19371 0
M  V30 1666 H 161.799 5.08875 -2.93803 0
M  V30 1667 H 163.323 5.68702 -2.22284 0
M  V30 1668 H 164.737 4.18066 -3.92293 0
M  V30 1669 H 163.134 3.82075 -4.62751 0
M  V30 1670 H 164.204 2.48552 -4.16353 0
M  V30 1671 N 165.547 1.27147 0.931209 0
M  V30 1672 C 166.795 1.13055 1.6752 0
M  V30 1673 C 167.116 -0.324791 1.92276 0
M  V30 1674 O 166.386 -1.22775 1.52654 0
M  V30 1675 H 164.966 0.415391 0.620854 0
M  V30 1676 H 167.628 1.59623 1.11833 0
M  V30 1677 H 166.724 1.65694 2.64485 0
M  V30 1678 N 167.025 -1.13721 1.09112 0
M  V30 1679 C 168.255 -1.88499 0.845671 0
M  V30 1680 C 168.663 -1.79218 -0.606432 0
M  V30 1681 O 168.006 -1.1544 -1.42896 0
M  V30 1682 C 168.068 -3.38954 1.19793 0
M  V30 1683 C 167.732 -3.72018 2.65428 0
M  V30 1684 C 168.729 -3.7153 3.63677 0
M  V30 1685 C 166.414 -4.01775 3.01467 0
M  V30 1686 C 168.408 -4.00336 4.95994 0
M  V30 1687 C 166.095 -4.30243 4.33975 0
M  V30 1688 C 167.093 -4.29508 5.31048 0
M  V30 1689 O 166.781 -4.5728 6.61173 0
M  V30 1690 H 166.513 -0.603702 0.304171 0
M  V30 1691 H 169.067 -1.44903 1.45576 0
M  V30 1692 H 167.297 -3.83039 0.530871 0
M  V30 1693 H 168.986 -3.95052 0.932146 0
M  V30 1694 H 169.752 -3.4862 3.37179 0
M  V30 1695 H 165.631 -4.01496 2.26544 0
M  V30 1696 H 169.175 -3.99678 5.71755 0
M  V30 1697 H 165.072 -4.52625 4.60219 0
M  V30 1698 H 165.84 -4.74964 6.66597 0
M  V30 1699 N 168.503 -0.877838 -1.30888 0
M  V30 1700 C 169.435 -0.296607 -2.27273 0
M  V30 1701 C 170.448 0.544799 -1.53414 0
M  V30 1702 O 171.637 0.365511 -1.74718 0
M  V30 1703 C 168.737 0.597481 -3.33592 0
M  V30 1704 C 167.91 -0.213251 -4.3688 0
M  V30 1705 C 166.969 0.610208 -5.2265 0
M  V30 1706 O 165.995 0.035441 -5.69189 0
M  V30 1707 N 167.197 1.92071 -5.47804 0
M  V30 1708 H 169.962 -1.12492 -2.77787 0
M  V30 1709 H 167.523 -0.740105 -1.43993 0
M  V30 1710 H 169.515 1.15425 -3.87891 0
M  V30 1711 H 168.085 1.32647 -2.83061 0
M  V30 1712 H 167.305 -0.951466 -3.82545 0
M  V30 1713 H 168.593 -0.769262 -5.02951 0
M  V30 1714 H 167.991 2.4107 -5.11763 0
M  V30 1715 H 166.548 2.42508 -6.05007 0
M  V30 1716 N 169.982 1.44106 -0.638065 0
M  V30 1717 C 170.945 2.29138 0.0531013 0
M  V30 1718 C 171.945 1.41409 0.765506 0
M  V30 1719 O 173.135 1.63206 0.609046 0
M  V30 1720 C 170.267 3.23144 1.08584 0
M  V30 1721 H 171.46 2.91739 -0.694883 0
M  V30 1722 H 169.013 1.51134 -0.398538 0
M  V30 1723 H 169.748 2.65408 1.86357 0
M  V30 1724 H 169.533 3.87804 0.578852 0
M  V30 1725 H 171.023 3.87004 1.56899 0
M  V30 1726 N 171.46 0.379036 1.52974 0
M  V30 1727 C 172.707 -0.206421 2.01445 0
M  V30 1728 C 173.035 -1.47668 1.26587 0
M  V30 1729 O 172.29 -1.92514 0.351675 0
M  V30 1730 C 172.589 -0.53096 3.53434 0
M  V30 1731 C 172.255 0.646546 4.46241 0
M  V30 1732 C 170.917 0.969604 4.7133 0
M  V30 1733 C 173.269 1.43479 5.01062 0
M  V30 1734 C 170.597 2.08263 5.48492 0
M  V30 1735 C 172.949 2.53834 5.7944 0
M  V30 1736 C 171.613 2.86659 6.02812 0
M  V30 1737 H 170.883 -0.0755349 0.73714 0
M  V30 1738 H 173.53 0.514271 1.84465 0
M  V30 1739 H 171.835 -1.33285 3.68432 0
M  V30 1740 H 173.532 -0.996417 3.88423 0
M  V30 1741 H 170.122 0.384734 4.2687 0
M  V30 1742 H 174.306 1.19844 4.81613 0
M  V30 1743 H 169.562 2.34078 5.64816 0
M  V30 1744 H 173.736 3.15319 6.20924 0
M  V30 1745 H 171.363 3.73026 6.62387 0
M  V30 1746 N 172.938 -1.57226 0.108567 0
M  V30 1747 C 174.354 -1.5766 -0.248058 0
M  V30 1748 C 174.554 -1.12063 -1.67464 0
M  V30 1749 O 173.61 -0.803236 -2.39383 0
M  V30 1750 C 174.923 -3.0069 -0.0242287 0
M  V30 1751 C 176.471 -3.12868 -0.0909372 0
M  V30 1752 C 176.946 -4.57879 0.105067 0
M  V30 1753 N 178.437 -4.63172 0.0506846 0
M  V30 1754 C 179.172 -5.73126 0.177396 0
M  V30 1755 N 178.668 -6.91866 0.359696 0
M  V30 1756 N 180.461 -5.61977 0.117709 0
M  V30 1757 H 172.612 -1.85169 1.04049 0
M  V30 1758 H 174.875 -0.85529 0.40888 0
M  V30 1759 H 174.581 -3.38299 0.961604 0
M  V30 1760 H 174.455 -3.6945 -0.76068 0
M  V30 1761 H 176.842 -2.75124 -1.06729 0
M  V30 1762 H 176.923 -2.46672 0.677225 0
M  V30 1763 H 176.567 -4.96321 1.07834 0
M  V30 1764 H 176.497 -5.22153 -0.682954 0
M  V30 1765 H 178.988 -3.778 -0.0871266 0
M  V30 1766 H 179.301 -7.71503 0.447529 0
M  V30 1767 H 177.646 -6.93874 0.395536 0
M  V30 1768 H 180.837 -4.68094 -0.0236741 0
M  V30 1769 H 181.01 -6.47627 0.219905 0
M  V30 1770 N 174.416 0.165178 -1.56732 0
M  V30 1771 C 175.832 0.517174 -1.50988 0
M  V30 1772 C 176.032 1.84331 -0.813894 0
M  V30 1773 O 175.088 2.49672 -0.37682 0
M  V30 1774 C 176.401 0.544261 -2.95733 0
M  V30 1775 C 177.949 0.631039 -3.06573 0
M  V30 1776 C 178.424 0.68896 -4.52788 0
M  V30 1777 N 179.915 0.751683 -4.5706 0
M  V30 1778 C 180.65 0.817177 -5.67547 0
M  V30 1779 N 180.146 0.843129 -6.8765 0
M  V30 1780 N 181.939 0.856668 -5.55534 0
M  V30 1781 H 174.09 -0.704318 -2.00382 0
M  V30 1782 H 176.353 -0.254687 -0.913148 0
M  V30 1783 H 176.059 -0.361607 -3.49836 0
M  V30 1784 H 175.933 1.3886 -3.5071 0
M  V30 1785 H 178.32 1.52733 -2.52501 0
M  V30 1786 H 178.401 -0.240095 -2.54671 0
M  V30 1787 H 178.045 -0.2031 -5.07494 0
M  V30 1788 H 177.975 1.57633 -5.02454 0
M  V30 1789 H 180.466 0.739661 -3.70591 0
M  V30 1790 H 180.779 0.894448 -7.67606 0
M  V30 1791 H 179.124 0.811304 -6.90248 0
M  V30 1792 H 182.315 0.833437 -4.60621 0
M  V30 1793 H 182.488 0.904247 -6.4166 0
M  V30 1794 N 175.894 1.51508 0.433938 0
M  V30 1795 C 177.305 1.56784 1.01369 0
M  V30 1796 C 177.656 0.393349 1.92217 0
M  V30 1797 O 176.781 -0.489441 2.10792 0
M  V30 1798 C 177.376 2.84144 1.8452 0
M  V30 1799 C 175.935 2.9198 2.37539 0
M  V30 1800 C 175.082 2.51482 1.16843 0
M  V30 1801 H 178.033 1.57236 0.215081 0
M  V30 1802 H 178.054 2.68098 2.70007 0
M  V30 1803 H 177.566 3.69607 1.18373 0
M  V30 1804 H 175.667 2.10955 3.0713 0
M  V30 1805 H 175.78 3.95704 2.70103 0
M  V30 1806 H 174.144 2.04758 1.51481 0
M  V30 1807 H 174.927 3.39293 0.523015 0
M  V30 1808 N 177.372 -0.689602 1.41712 0
M  V30 1809 C 178.612 -1.46184 1.42862 0
M  V30 1810 C 178.976 -1.91962 0.0382204 0
M  V30 1811 O 180.177 -2.68694 -0.0755019 0
M  V30 1812 C 178.448 -2.6371 2.4123 0
M  V30 1813 S 180.007 -3.52768 2.6096 0
M  V30 1814 H 176.825 -0.49947 0.506015 0
M  V30 1815 H 179.427 -0.804107 1.78198 0
M  V30 1816 H 178.131 -2.28293 3.41044 0
M  V30 1817 H 177.662 -3.3437 2.07269 0
M  V30 1818 H 179.677 -4.59146 1.88148 0
M  V30 1819 N 178.85 -1.27639 -0.924453 0
M  V30 1820 C 180.08 -1.16819 -1.70402 0
M  V30 1821 C 180.488 0.277191 -1.87158 0
M  V30 1822 O 179.831 1.20025 -1.39067 0
M  V30 1823 C 179.893 -1.78305 -3.12166 0
M  V30 1824 C 179.557 -3.27502 -3.18734 0
M  V30 1825 C 180.554 -4.2409 -3.00738 0
M  V30 1826 C 178.239 -3.68269 -3.4159 0
M  V30 1827 C 180.233 -5.59422 -3.05492 0
M  V30 1828 C 177.92 -5.0373 -3.45977 0
M  V30 1829 C 178.918 -5.99116 -3.27946 0
M  V30 1830 O 178.606 -7.32108 -3.32074 0
M  V30 1831 H 178.338 -0.406931 -0.539799 0
M  V30 1832 H 180.892 -1.69078 -1.16626 0
M  V30 1833 H 179.122 -1.20528 -3.67437 0
M  V30 1834 H 180.811 -1.62154 -3.72103 0
M  V30 1835 H 181.577 -3.93931 -2.82919 0
M  V30 1836 H 177.456 -2.94496 -3.54673 0
M  V30 1837 H 181 -6.33852 -2.91337 0
M  V30 1838 H 176.897 -5.33543 -3.63321 0
M  V30 1839 H 177.665 -7.40598 -3.48507 0
M  V30 1840 N 180.328 1.1314 -1.09713 0
M  V30 1841 C 181.553 1.88862 -0.857081 0
M  V30 1842 C 181.978 1.78729 0.586304 0
M  V30 1843 O 181.336 1.13692 1.41222 0
M  V30 1844 C 181.384 3.36325 -1.30069 0
M  V30 1845 O 180.488 4.09815 -0.461007 0
M  V30 1846 H 179.829 0.587108 -0.310162 0
M  V30 1847 H 182.359 1.43129 -1.46203 0
M  V30 1848 H 182.369 3.87157 -1.28738 0
M  V30 1849 H 181.044 3.43017 -2.35185 0
M  V30 1850 H 179.621 3.68986 -0.538888 0
M  V30 1851 N 181.806 0.884767 1.30421 0
M  V30 1852 C 183.052 0.513218 1.96819 0
M  V30 1853 C 183.407 -0.927347 1.68577 0
M  V30 1854 O 182.7 -1.64644 0.979941 0
M  V30 1855 C 182.894 0.724318 3.49983 0
M  V30 1856 C 182.723 2.18385 3.93113 0
M  V30 1857 C 181.493 2.82839 4.18725 0
M  V30 1858 C 183.691 3.15763 4.05953 0
M  V30 1859 N 181.673 4.1939 4.48314 0
M  V30 1860 C 183.044 4.37387 4.39423 0
M  V30 1861 C 185.099 3.11555 3.88379 0
M  V30 1862 C 183.802 5.55343 4.5715 0
M  V30 1863 C 185.828 4.28782 4.07308 0
M  V30 1864 C 185.19 5.49172 4.41123 0
M  V30 1865 H 181.289 0.237123 0.745182 0
M  V30 1866 H 183.873 1.14246 1.57658 0
M  V30 1867 H 182.044 0.124565 3.882 0
M  V30 1868 H 183.776 0.31969 4.03435 0
M  V30 1869 H 180.531 2.33708 4.11919 0
M  V30 1870 H 180.955 4.89911 4.67243 0
M  V30 1871 H 185.597 2.19576 3.61312 0
M  V30 1872 H 183.315 6.47826 4.8306 0
M  V30 1873 H 186.901 4.26995 3.95179 0
M  V30 1874 H 185.781 6.38371 4.55469 0
M  V30 1875 N 183.284 -1.43765 0.645699 0
M  V30 1876 C 184.532 -2.01499 0.155731 0
M  V30 1877 C 184.853 -1.51151 -1.232 0
M  V30 1878 O 184.123 -0.721044 -1.82148 0
M  V30 1879 H 182.703 -0.745003 0.0545817 0
M  V30 1880 H 185.365 -1.76075 0.835677 0
M  V30 1881 H 184.461 -3.1181 0.134577 0
M  V30 1882 N 184.763 -0.387143 -1.52771 0
M  V30 1883 C 186.009 0.196025 -2.0185 0
M  V30 1884 C 186.342 1.46641 -1.27319 0
M  V30 1885 O 185.617 1.90889 -0.373032 0
M  V30 1886 C 185.9 0.466136 -3.5707 0
M  V30 1887 C 185.753 -0.819385 -4.42274 0
M  V30 1888 C 187.072 1.25768 -4.21747 0
M  V30 1889 H 184.191 0.0697708 -0.73369 0
M  V30 1890 H 186.833 -0.516286 -1.82851 0
M  V30 1891 H 184.983 1.07293 -3.7339 0
M  V30 1892 H 186.655 -1.4563 -4.37709 0
M  V30 1893 H 184.898 -1.43517 -4.09372 0
M  V30 1894 H 185.569 -0.585065 -5.48891 0
M  V30 1895 H 188.045 0.744167 -4.09391 0
M  V30 1896 H 186.921 1.41541 -5.30337 0
M  V30 1897 H 187.182 2.27228 -3.79236 0
M  V30 1898 N 186.241 1.57166 -0.116904 0
M  V30 1899 C 187.481 1.97008 0.544715 0
M  V30 1900 C 187.845 0.998713 1.63981 0
M  V30 1901 O 189.046 1.28644 2.36018 0
M  V30 1902 C 187.317 3.41145 1.06559 0
M  V30 1903 S 188.876 4.02998 1.73603 0
M  V30 1904 H 185.694 0.688587 0.177112 0
M  V30 1905 H 188.296 1.94459 -0.201487 0
M  V30 1906 H 187 4.09592 0.257374 0
M  V30 1907 H 186.531 3.4734 1.84712 0
M  V30 1908 H 188.546 3.93585 3.02168 0
M  V30 1909 N 187.719 -0.156864 1.56817 0
M  V30 1910 C 188.682 -1.17781 1.96622 0
M  V30 1911 C 189.682 -1.36401 0.851555 0
M  V30 1912 O 190.872 -1.33561 1.11836 0
M  V30 1913 C 188.004 -2.54008 2.27361 0
M  V30 1914 H 189.197 -0.836564 2.87996 0
M  V30 1915 H 186.75 -0.39985 1.51099 0
M  V30 1916 H 187.485 -2.9312 1.38748 0
M  V30 1917 H 187.27 -2.41856 3.08623 0
M  V30 1918 H 188.76 -3.27558 2.59029 0
M  V30 1919 N 189.197 -1.51736 -0.425897 0
M  V30 1920 C 190.16 -1.73271 -1.50032 0
M  V30 1921 C 191.16 -0.602639 -1.4908 0
M  V30 1922 O 192.35 -0.87033 -1.509 0
M  V30 1923 C 189.482 -1.79969 -2.89523 0
M  V30 1924 H 190.675 -2.69172 -1.32237 0
M  V30 1925 H 188.228 -1.41899 -0.65532 0
M  V30 1926 H 188.963 -0.859241 -3.1271 0
M  V30 1927 H 188.748 -2.62109 -2.91619 0
M  V30 1928 H 190.238 -1.9843 -3.67444 0
M  V30 1929 N 190.675 0.682077 -1.42076 0
M  V30 1930 C 191.924 1.43786 -1.41451 0
M  V30 1931 C 192.237 1.95574 -0.0317074 0
M  V30 1932 O 193.443 2.71326 0.0971462 0
M  V30 1933 C 191.899 2.60071 -2.48779 0
M  V30 1934 C 191.507 2.15013 -3.93031 0
M  V30 1935 C 193.251 3.37626 -2.57311 0
M  V30 1936 C 191.158 3.28336 -4.91883 0
M  V30 1937 H 190.088 0.540143 -0.526082 0
M  V30 1938 H 192.739 0.739157 -1.67955 0
M  V30 1939 H 191.121 3.32275 -2.15429 0
M  V30 1940 H 192.295 1.5001 -4.35699 0
M  V30 1941 H 190.61 1.50416 -3.88284 0
M  V30 1942 H 193.207 4.22012 -3.28345 0
M  V30 1943 H 193.55 3.83727 -1.61429 0
M  V30 1944 H 194.083 2.72488 -2.89819 0
M  V30 1945 H 190.822 2.87234 -5.89217 0
M  V30 1946 H 190.342 3.92145 -4.53853 0
M  V30 1947 H 192.021 3.93913 -5.13265 0
M  V30 1948 N 192.153 1.28127 0.917671 0
M  V30 1949 C 193.399 1.16232 1.66918 0
M  V30 1950 C 193.754 -0.28701 1.90247 0
M  V30 1951 O 193.047 -1.20586 1.48895 0
M  V30 1952 C 193.241 1.89018 3.03327 0
M  V30 1953 C 193.07 3.4088 2.9331 0
M  V30 1954 C 191.84 4.10214 2.95047 0
M  V30 1955 C 194.038 4.36689 2.71675 0
M  V30 1956 N 192.02 5.48571 2.75577 0
M  V30 1957 C 193.391 5.62382 2.6101 0
M  V30 1958 C 195.446 4.26661 2.56641 0
M  V30 1959 C 194.149 6.79189 2.36843 0
M  V30 1960 C 196.175 5.432 2.33853 0
M  V30 1961 C 195.537 6.67855 2.23939 0
M  V30 1962 H 191.636 0.48024 0.617166 0
M  V30 1963 H 194.22 1.61727 1.08409 0
M  V30 1964 H 192.391 1.45963 3.59929 0
M  V30 1965 H 194.123 1.69541 3.67475 0
M  V30 1966 H 190.878 3.61762 3.05655 0
M  V30 1967 H 191.302 6.21287 2.68945 0
M  V30 1968 H 195.944 3.30998 2.63059 0
M  V30 1969 H 193.662 7.74926 2.29164 0
M  V30 1970 H 197.248 5.37328 2.23091 0
M  V30 1971 H 196.128 7.56511 2.06546 0
M  V30 1972 N 193.631 -1.12557 1.10312 0
M  V30 1973 C 194.594 -2.16434 0.75424 0
M  V30 1974 C 195.594 -1.59278 -0.220685 0
M  V30 1975 O 196.784 -1.742 0.00230591 0
M  V30 1976 C 193.916 -3.40699 0.116987 0
M  V30 1977 H 195.109 -2.48811 1.67431 0
M  V30 1978 H 192.662 -1.27542 0.903475 0
M  V30 1979 H 193.397 -3.13921 -0.813877 0
M  V30 1980 H 193.182 -3.83459 0.818613 0
M  V30 1981 H 194.672 -4.17451 -0.111387 0
M  V30 1982 N 195.109 -0.891671 -1.2995 0
M  V30 1983 C 196.039 -0.379797 -2.30391 0
M  V30 1984 C 197.02 0.540919 -1.6127 0
M  V30 1985 O 198.205 0.453352 -1.88834 0
M  V30 1986 C 195.335 0.400654 -3.44981 0
M  V30 1987 C 194.289 -0.428905 -4.25846 0
M  V30 1988 C 193.615 0.478557 -5.32554 0
M  V30 1989 C 194.915 -1.67458 -4.94727 0
M  V30 1990 H 196.609 -1.21914 -2.73454 0
M  V30 1991 H 194.155 -0.587675 -1.31462 0
M  V30 1992 H 196.108 0.769434 -4.14316 0
M  V30 1993 H 194.832 1.27371 -3.0074 0
M  V30 1994 H 193.491 -0.779911 -3.58208 0
M  V30 1995 H 193.139 1.34951 -4.84559 0
M  V30 1996 H 192.839 -0.0727433 -5.87555 0
M  V30 1997 H 194.363 0.843705 -6.04743 0
M  V30 1998 H 195.777 -1.376 -5.56542 0
M  V30 1999 H 194.174 -2.16659 -5.59624 0
M  V30 2000 H 195.244 -2.41518 -4.20473 0
M  V30 2001 N 196.587 1.43421 -0.653314 0
M  V30 2002 C 197.833 2.02111 -0.166992 0
M  V30 2003 C 198.166 1.51423 1.21592 0
M  V30 2004 O 197.441 0.707389 1.8118 0
M  V30 2005 C 197.724 3.5966 -0.177948 0
M  V30 2006 C 197.577 4.20579 -1.59478 0
M  V30 2007 C 198.896 4.37413 0.4856 0
M  V30 2008 H 196.015 0.734374 -0.0621557 0
M  V30 2009 H 198.657 1.70717 -0.834016 0
M  V30 2010 H 196.807 3.86537 0.390032 0
M  V30 2011 H 198.479 4.04732 -2.21336 0
M  V30 2012 H 196.722 3.77226 -2.14204 0
M  V30 2013 H 197.393 5.29665 -1.5543 0
M  V30 2014 H 199.869 4.161 0.00234528 0
M  V30 2015 H 198.745 5.47075 0.447207 0
M  V30 2016 H 199.006 4.13672 1.55974 0
M  V30 2017 N 198.065 0.39524 1.52563 0
M  V30 2018 C 198.995 -0.428384 2.29537 0
M  V30 2019 C 199.976 -1.05831 1.33169 0
M  V30 2020 O 201.161 -1.06995 1.62067 0
M  V30 2021 C 198.291 -1.55274 3.10656 0
M  V30 2022 C 197.245 -1.04855 4.14957 0
M  V30 2023 C 196.571 -2.26543 4.84337 0
M  V30 2024 C 197.871 -0.112324 5.22179 0
M  V30 2025 H 199.565 0.213867 2.98635 0
M  V30 2026 H 197.111 0.104298 1.43622 0
M  V30 2027 H 199.064 -2.1358 3.63265 0
M  V30 2028 H 197.788 -2.22266 2.39302 0
M  V30 2029 H 196.447 -0.487985 3.63338 0
M  V30 2030 H 196.095 -2.92059 4.09525 0
M  V30 2031 H 195.795 -1.93466 5.54837 0
M  V30 2032 H 197.319 -2.85481 5.39753 0
M  V30 2033 H 198.733 -0.603752 5.70112 0
M  V30 2034 H 197.13 0.128968 5.99961 0
M  V30 2035 H 198.2 0.837052 4.77621 0
M  V30 2036 N 199.544 -1.57102 0.125237 0
M  V30 2037 C 200.784 -1.97294 -0.534259 0
M  V30 2038 C 201.148 -1.0074 -1.63449 0
M  V30 2039 O 202.349 -1.29893 -2.35332 0
M  V30 2040 C 200.62 -3.41705 -1.04748 0
M  V30 2041 S 202.179 -4.03913 -1.71463 0
M  V30 2042 H 198.997 -0.689517 -0.173458 0
M  V30 2043 H 201.599 -1.94349 0.211797 0
M  V30 2044 H 200.303 -4.09723 -0.235649 0
M  V30 2045 H 199.834 -3.48315 -1.82867 0
M  V30 2046 H 201.849 -3.95182 -3.00077 0
M  V30 2047 N 201.022 0.148545 -1.56898 0
M  V30 2048 C 201.972 1.1886 -1.94567 0
M  V30 2049 C 202.956 1.3863 -0.816735 0
M  V30 2050 O 204.148 1.40218 -1.08018 0
M  V30 2051 C 201.277 2.52262 -2.32849 0
M  V30 2052 C 200.363 2.36092 -3.52309 0
M  V30 2053 N 200.754 1.89674 -4.6889 0
M  V30 2054 C 199.052 2.66848 -3.57363 0
M  V30 2055 C 199.753 1.86511 -5.50989 0
M  V30 2056 N 198.729 2.29766 -4.92655 0
M  V30 2057 H 202.531 0.821793 -2.82177 0
M  V30 2058 H 200.045 0.356615 -1.58436 0
M  V30 2059 H 202.042 3.27447 -2.58039 0
M  V30 2060 H 200.702 2.89727 -1.46589 0
M  V30 2061 H 201.713 1.59663 -4.92674 0
M  V30 2062 H 198.39 3.08198 -2.81639 0
M  V30 2063 H 199.78 1.52128 -6.54452 0
M  V30 2064 N 202.5 1.5196 0.417844 0
M  V30 2065 C 203.43 1.77634 1.51554 0
M  V30 2066 C 204.411 0.626918 1.58126 0
M  V30 2067 O 205.596 0.871632 1.7354 0
M  V30 2068 C 202.726 1.91911 2.8946 0
M  V30 2069 C 201.68 3.07463 2.97743 0
M  V30 2070 C 201.006 3.06951 4.37819 0
M  V30 2071 C 202.306 4.47082 2.70027 0
M  V30 2072 H 204 2.6955 1.3032 0
M  V30 2073 H 201.546 1.29706 0.625492 0
M  V30 2074 H 203.499 2.08455 3.6623 0
M  V30 2075 H 202.223 0.966598 3.11969 0
M  V30 2076 H 200.882 2.90656 2.23416 0
M  V30 2077 H 200.53 2.09438 4.57323 0
M  V30 2078 H 200.23 3.84556 4.44286 0
M  V30 2079 H 201.754 3.25613 5.16535 0
M  V30 2080 H 203.168 4.6414 3.36522 0
M  V30 2081 H 201.565 5.2654 2.87881 0
M  V30 2082 H 202.635 4.55777 1.65514 0
M  V30 2083 N 203.978 -0.674533 1.42435 0
M  V30 2084 C 205.226 -1.43175 1.42637 0
M  V30 2085 C 205.547 -1.94951 0.0438992 0
M  V30 2086 O 204.817 -1.7308 -0.917607 0
M  V30 2087 H 203.397 -0.531307 0.525092 0
M  V30 2088 H 206.059 -0.797006 1.77859 0
M  V30 2089 H 205.155 -2.28463 2.12629 0
M  V30 2090 N 205.456 -1.28612 -0.910864 0
M  V30 2091 C 206.386 -1.15326 -2.03032 0
M  V30 2092 C 207.367 -0.0502924 -1.70026 0
M  V30 2093 O 208.552 -0.227797 -1.92859 0
M  V30 2094 C 205.682 -0.817343 -3.37545 0
M  V30 2095 C 204.636 -1.8754 -3.84724 0
M  V30 2096 C 203.962 -1.39305 -5.16235 0
M  V30 2097 C 205.262 -3.28244 -4.06267 0
M  V30 2098 H 206.956 -2.08975 -2.14406 0
M  V30 2099 H 204.502 -1.00612 -1.03021 0
M  V30 2100 H 206.455 -0.711151 -4.15356 0
M  V30 2101 H 205.179 0.154846 -3.26233 0
M  V30 2102 H 203.838 -1.97079 -3.09121 0
M  V30 2103 H 203.486 -0.409846 -5.01328 0
M  V30 2104 H 203.186 -2.10057 -5.48771 0
M  V30 2105 H 204.71 -1.30014 -5.96598 0
M  V30 2106 H 206.124 -3.21611 -4.74594 0
M  V30 2107 H 204.521 -3.96855 -4.5014 0
M  V30 2108 H 205.591 -3.72048 -3.10979 0
M  V30 2109 N 206.934 1.1197 -1.10907 0
M  V30 2110 C 208.18 1.8386 -0.855773 0
M  V30 2111 C 208.513 1.84134 0.617103 0
M  V30 2112 O 207.788 1.29041 1.45529 0
M  V30 2113 C 208.071 3.31305 -1.411 0
M  V30 2114 C 207.924 3.39456 -2.9511 0
M  V30 2115 C 209.243 4.2721 -1.05736 0
M  V30 2116 H 206.362 0.667545 -0.312334 0
M  V30 2117 H 209.004 1.31331 -1.37303 0
M  V30 2118 H 207.154 3.76169 -0.97105 0
M  V30 2119 H 208.826 3.03191 -3.47668 0
M  V30 2120 H 207.069 2.79849 -3.31462 0
M  V30 2121 H 207.74 4.43209 -3.29044 0
M  V30 2122 H 210.216 3.90497 -1.43706 0
M  V30 2123 H 209.092 5.28775 -1.47269 0
M  V30 2124 H 209.353 4.42088 0.0325958 0
M  V30 2125 N 208.412 0.89855 1.29475 0
M  V30 2126 C 209.659 0.523882 1.95606 0
M  V30 2127 C 209.987 -0.929608 1.70847 0
M  V30 2128 O 209.242 -1.67401 1.01367 0
M  V30 2129 C 209.541 0.761398 3.49195 0
M  V30 2130 C 209.207 2.19207 3.94029 0
M  V30 2131 C 207.869 2.58326 4.05982 0
M  V30 2132 C 210.221 3.12379 4.17216 0
M  V30 2133 C 207.549 3.898 4.38489 0
M  V30 2134 C 209.901 4.43401 4.51197 0
M  V30 2135 C 208.565 4.82394 4.61359 0
M  V30 2136 H 207.835 0.191702 0.715773 0
M  V30 2137 H 210.482 1.13699 1.54094 0
M  V30 2138 H 208.787 0.0653622 3.91745 0
M  V30 2139 H 210.484 0.450904 3.98457 0
M  V30 2140 H 207.074 1.87846 3.85242 0
M  V30 2141 H 211.258 2.83371 4.07449 0
M  V30 2142 H 206.514 4.19734 4.44559 0
M  V30 2143 H 210.688 5.15623 4.68087 0
M  V30 2144 H 208.315 5.84306 4.86303 0
M  V30 2145 N 209.89 -1.43072 0.660911 0
M  V30 2146 C 211.138 -2.01323 0.177094 0
M  V30 2147 C 211.459 -1.5245 -1.2159 0
M  V30 2148 O 210.729 -0.740322 -1.81373 0
M  V30 2149 H 209.309 -0.744382 0.0624804 0
M  V30 2150 H 211.971 -1.75179 0.854305 0
M  V30 2151 H 211.067 -3.11649 0.167641 0
M  V30 2152 N 211.368 -0.403325 -1.52352 0
M  V30 2153 C 212.298 0.416205 -2.29761 0
M  V30 2154 C 213.279 1.05123 -1.33728 0
M  V30 2155 O 214.464 1.06134 -1.62632 0
M  V30 2156 C 211.594 1.53624 -3.11475 0
M  V30 2157 C 210.548 1.02653 -4.15507 0
M  V30 2158 C 209.874 2.23971 -4.85532 0
M  V30 2159 C 211.174 0.08463 -5.22231 0
M  V30 2160 H 212.868 -0.229701 -2.98518 0
M  V30 2161 H 210.414 -0.111913 -1.43564 0
M  V30 2162 H 212.367 2.1165 -3.64393 0
M  V30 2163 H 211.091 2.20994 -2.40477 0
M  V30 2164 H 209.75 0.46871 -3.63591 0
M  V30 2165 H 209.398 2.89883 -4.11068 0
M  V30 2166 H 209.098 1.90521 -5.55856 0
M  V30 2167 H 210.622 2.82614 -5.41259 0
M  V30 2168 H 212.036 0.573509 -5.70424 0
M  V30 2169 H 210.433 -0.160783 -5.99885 0
M  V30 2170 H 211.503 -0.86237 -4.7717 0
M  V30 2171 N 212.846 1.57033 -0.133567 0
M  V30 2172 C 213.756 2.19632 0.824564 0
M  V30 2173 C 214.772 1.17666 1.28182 0
M  V30 2174 O 215.948 1.50193 1.3418 0
M  V30 2175 C 213.013 2.79499 2.05137 0
M  V30 2176 C 212.074 3.96548 1.64464 0
M  V30 2177 C 211.307 4.5355 2.81297 0
M  V30 2178 O 211.53 4.09438 3.97136 0
M  V30 2179 O 210.464 5.44018 2.57542 0
M  V30 2180 H 214.29 3.01991 0.321766 0
M  V30 2181 H 211.875 1.49112 0.0927889 0
M  V30 2182 H 213.757 3.17602 2.7696 0
M  V30 2183 H 212.432 2.00162 2.54395 0
M  V30 2184 H 211.339 3.63186 0.897048 0
M  V30 2185 H 212.672 4.77364 1.19934 0
M  V30 2186 N 214.325 -0.140222 1.56975 0
M  V30 2187 C 215.288 -1.15689 1.97861 0
M  V30 2188 C 216.288 -1.3549 0.865974 0
M  V30 2189 O 217.478 -1.32367 1.13246 0
M  V30 2190 C 214.61 -2.51582 2.30042 0
M  V30 2191 H 215.803 -0.805971 2.88867 0
M  V30 2192 H 213.356 -0.383801 1.51515 0
M  V30 2193 H 214.091 -2.91632 1.41849 0
M  V30 2194 H 213.876 -2.38569 3.11171 0
M  V30 2195 H 215.366 -3.24792 2.62488 0
M  V30 2196 N 215.803 -1.52179 -0.40978 0
M  V30 2197 C 217.214 -1.58377 -0.988615 0
M  V30 2198 C 217.565 -0.423879 -1.91566 0
M  V30 2199 O 216.69 0.455844 -2.11544 0
M  V30 2200 C 217.285 -2.87044 -1.79976 0
M  V30 2201 C 215.844 -2.95722 -2.32863 0
M  V30 2202 C 214.991 -2.53309 -1.12828 0
M  V30 2203 H 217.942 -1.57558 -0.190039 0
M  V30 2204 H 217.963 -2.7236 -2.65707 0
M  V30 2205 H 217.475 -3.71444 -1.12478 0
M  V30 2206 H 215.576 -2.15814 -3.03735 0
M  V30 2207 H 215.689 -3.99951 -2.63773 0
M  V30 2208 H 214.053 -2.07142 -1.48204 0
M  V30 2209 H 214.836 -3.40082 -0.46897 0
M  V30 2210 N 217.281 0.66697 -1.42791 0
M  V30 2211 C 218.529 1.42417 -1.43394 0
M  V30 2212 C 218.85 1.94925 -0.0542373 0
M  V30 2213 O 218.12 1.73564 0.908415 0
M  V30 2214 H 216.7 0.528515 -0.527902 0
M  V30 2215 H 219.362 0.787562 -1.78279 0
M  V30 2216 H 218.458 2.27333 -2.13837 0
M  V30 2217 N 218.759 1.29093 0.90403 0
M  V30 2218 C 220.007 1.16583 1.65085 0
M  V30 2219 C 220.328 -0.283933 1.92922 0
M  V30 2220 O 219.598 -1.19509 1.55224 0
M  V30 2221 H 218.178 0.428467 0.611903 0
M  V30 2222 H 220.84 1.61959 1.08422 0
M  V30 2223 H 219.936 1.71266 2.6091 0
M  V30 2224 N 220.237 -1.11381 1.11499 0
M  V30 2225 C 221.483 -1.83597 0.875423 0
M  V30 2226 C 221.838 -1.83048 -0.592555 0
M  V30 2227 O 221.131 -1.27304 -1.43193 0
M  V30 2228 C 221.325 -3.30026 1.37177 0
M  V30 2229 C 221.154 -3.44837 2.88647 0
M  V30 2230 C 219.924 -3.57825 3.56776 0
M  V30 2231 C 222.122 -3.3907 3.86699 0
M  V30 2232 N 220.104 -3.61113 4.96458 0
M  V30 2233 C 221.475 -3.48986 5.12454 0
M  V30 2234 C 223.53 -3.22605 3.7925 0
M  V30 2235 C 222.233 -3.44135 6.31636 0
M  V30 2236 C 224.259 -3.19072 4.97943 0
M  V30 2237 C 223.621 -3.29559 6.22551 0
M  V30 2238 H 219.72 -0.687044 0.37349 0
M  V30 2239 H 222.304 -1.33265 1.41946 0
M  V30 2240 H 220.475 -3.78874 0.854919 0
M  V30 2241 H 222.207 -3.90153 1.07529 0
M  V30 2242 H 218.962 -3.60414 3.07244 0
M  V30 2243 H 219.386 -3.66394 5.69284 0
M  V30 2244 H 224.028 -3.13382 2.83816 0
M  V30 2245 H 221.746 -3.52126 7.27347 0
M  V30 2246 H 225.332 -3.07498 4.93899 0
M  V30 2247 H 224.212 -3.26815 7.12855 0
M  V30 2248 N 221.715 -0.905404 -1.28997 0
M  V30 2249 C 222.645 -0.404212 -2.29975 0
M  V30 2250 C 223.626 0.523784 -1.61835 0
M  V30 2251 O 224.811 0.433298 -1.89304 0
M  V30 2252 C 221.941 0.364042 -3.45387 0
M  V30 2253 C 220.895 -0.474048 -4.25367 0
M  V30 2254 C 220.221 0.422045 -5.33032 0
M  V30 2255 C 221.521 -1.72696 -4.92923 0
M  V30 2256 H 223.215 -1.24807 -2.72146 0
M  V30 2257 H 220.761 -0.601585 -1.30832 0
M  V30 2258 H 222.714 0.725447 -4.15109 0
M  V30 2259 H 221.438 1.24174 -3.02074 0
M  V30 2260 H 220.097 -0.81786 -3.57361 0
M  V30 2261 H 219.745 1.29804 -4.85963 0
M  V30 2262 H 219.445 -0.135057 -5.87445 0
M  V30 2263 H 220.969 0.779517 -6.05604 0
M  V30 2264 H 222.383 -1.43495 -5.55051 0
M  V30 2265 H 220.78 -2.22582 -5.57295 0
M  V30 2266 H 221.85 -2.45964 -4.17887 0
M  V30 2267 N 223.193 1.4272 -0.668489 0
M  V30 2268 C 224.47 1.95248 -0.117373 0
M  V30 2269 C 224.85 1.60919 1.36632 0
M  V30 2270 O 224.198 0.902095 2.09939 0
M  V30 2271 C 224.408 3.46927 -0.379806 0
M  V30 2272 C 225.756 4.23588 -0.292923 0
M  V30 2273 O 226.78 3.5482 -0.313204 0
M  V30 2274 O 225.639 5.46017 -0.229697 0
M  V30 2275 H 222.733 0.827 0.00079152 0
M  V30 2276 H 225.279 1.52581 -0.742783 0
M  V30 2277 H 224.051 3.65096 -1.40786 0
M  V30 2278 H 223.674 3.96627 0.277923 0
M  V30 2279 N 224.671 0.411399 1.52136 0
M  V30 2280 C 225.621 -0.430376 2.23901 0
M  V30 2281 C 226.605 -1.0116 1.25121 0
M  V30 2282 O 227.797 -0.934044 1.50348 0
M  V30 2283 C 224.926 -1.54527 3.06556 0
M  V30 2284 C 224.012 -0.9747 4.12747 0
M  V30 2285 N 224.403 -0.130991 5.0563 0
M  V30 2286 C 222.701 -1.24497 4.28271 0
M  V30 2287 C 223.402 0.186689 5.814 0
M  V30 2288 N 222.378 -0.42304 5.41951 0
M  V30 2289 H 226.18 0.220509 2.93072 0
M  V30 2290 H 223.694 0.221952 1.60876 0
M  V30 2291 H 225.691 -2.16093 3.56524 0
M  V30 2292 H 224.351 -2.19875 2.38925 0
M  V30 2293 H 225.362 0.23349 5.17373 0
M  V30 2294 H 222.039 -1.89787 3.7187 0
M  V30 2295 H 223.429 0.871673 6.66222 0
M  V30 2296 N 226.149 -1.5696 0.141893 0
M  V30 2297 C 227.374 -2.00754 -0.520838 0
M  V30 2298 C 227.799 -1.0213 -1.57959 0
M  V30 2299 O 227.157 0.00371324 -1.813 0
M  V30 2300 C 227.205 -3.43318 -1.10294 0
M  V30 2301 O 226.309 -3.47679 -2.21795 0
M  V30 2302 H 225.65 -0.651564 -0.127908 0
M  V30 2303 H 228.18 -2.03221 0.23712 0
M  V30 2304 H 228.19 -3.82012 -1.43287 0
M  V30 2305 H 226.865 -4.14608 -0.327574 0
M  V30 2306 H 225.442 -3.20824 -1.9007 0
M  V30 2307 N 227.627 0.131896 -1.57047 0
M  V30 2308 C 228.575 1.18146 -2.0036 0
M  V30 2309 C 229.569 1.43614 -0.898406 0
M  V30 2310 O 230.775 1.43729 -1.08361 0
M  V30 2311 H 227.15 0.398042 -0.638018 0
M  V30 2312 H 229.121 0.789564 -2.87765 0
M  V30 2313 C 227.87 2.50341 -2.41298 0
M  V30 2314 H 227.193 2.31578 -3.25902 0
M  V30 2315 H 228.633 3.22371 -2.75414 0
M  V30 2316 C 227.092 3.11984 -1.27153 0
M  V30 2317 O 227.622 3.97484 -0.580459 0
M  V30 2318 N 225.828 2.71662 -1.03189 0
M  V30 2319 H 225.375 2.02231 -1.59564 0
M  V30 2320 H 225.333 3.13238 -0.270077 0
M  V30 2321 N 229.106 1.52395 0.401703 0
M  V30 2322 C 230.334 1.70676 1.16949 0
M  V30 2323 C 230.749 0.419503 1.8408 0
M  V30 2324 O 230.106 -0.605061 1.72178 0
M  V30 2325 C 230.157 2.84753 2.22706 0
M  V30 2326 O 229.878 4.08495 1.58314 0
M  V30 2327 C 231.379 3.14608 3.12309 0
M  V30 2328 H 228.599 0.571787 0.351142 0
M  V30 2329 H 231.143 1.98987 0.471652 0
M  V30 2330 H 229.298 2.58941 2.88147 0
M  V30 2331 H 229.712 4.72117 2.28485 0
M  V30 2332 H 231.186 3.97923 3.82572 0
M  V30 2333 H 231.663 2.28464 3.75101 0
M  V30 2334 H 232.269 3.42212 2.52529 0
M  V30 2335 N 230.584 -0.659388 1.43143 0
M  V30 2336 C 231.809 -1.45221 1.48073 0
M  V30 2337 C 232.234 -1.87845 0.097995 0
M  V30 2338 O 231.592 -1.56985 -0.90694 0
M  V30 2339 C 231.64 -2.66748 2.42647 0
M  V30 2340 O 230.744 -3.65583 1.90848 0
M  V30 2341 H 230.085 -0.435669 0.501088 0
M  V30 2342 H 232.615 -0.807432 1.87994 0
M  V30 2343 H 232.625 -3.14637 2.59745 0
M  V30 2344 H 231.3 -2.35067 3.43098 0
M  V30 2345 H 229.877 -3.24693 1.83381 0
M  V30 2346 N 232.062 -1.29571 -0.897171 0
M  V30 2347 C 232.992 -1.17473 -2.01798 0
M  V30 2348 C 233.973 -0.068323 -1.69963 0
M  V30 2349 O 235.158 -0.248239 -1.92607 0
M  V30 2350 C 232.288 -0.853099 -3.36659 0
M  V30 2351 C 231.242 -1.9161 -3.82713 0
M  V30 2352 C 230.568 -1.44773 -5.14728 0
M  V30 2353 C 231.868 -3.32535 -4.02763 0
M  V30 2354 H 233.562 -2.11237 -2.12177 0
M  V30 2355 H 231.108 -1.01699 -1.01948 0
M  V30 2356 H 233.061 -0.755165 -4.14578 0
M  V30 2357 H 231.785 0.120236 -3.26379 0
M  V30 2358 H 230.444 -2.00346 -3.07013 0
M  V30 2359 H 230.092 -0.462995 -5.00865 0
M  V30 2360 H 229.792 -2.15865 -5.46513 0
M  V30 2361 H 231.316 -1.36334 -5.95185 0
M  V30 2362 H 232.73 -3.26626 -4.71156 0
M  V30 2363 H 231.127 -4.01607 -4.45905 0
M  V30 2364 H 232.197 -3.75326 -3.07016 0
M  V30 2365 N 233.54 1.10788 -1.12088 0
M  V30 2366 C 234.788 1.8231 -0.872205 0
M  V30 2367 C 235.109 1.85419 0.603709 0
M  V30 2368 O 234.379 1.32963 1.43867 0
M  V30 2369 H 232.959 0.675137 -0.319686 0
M  V30 2370 H 235.621 1.34068 -1.41463 0
M  V30 2371 H 234.717 2.85955 -1.25045 0
M  V30 2372 N 235.018 0.912232 1.28515 0
M  V30 2373 C 236.267 0.540504 1.94323 0
M  V30 2374 C 236.58 -0.920044 1.72611 0
M  V30 2375 O 237.786 -1.39986 2.32629 0
M  V30 2376 C 236.242 0.915803 3.48053 0
M  V30 2377 C 235.85 2.39598 3.78546 0
M  V30 2378 C 237.594 0.614588 4.20027 0
M  V30 2379 C 235.501 2.71148 5.25578 0
M  V30 2380 H 234.431 0.198418 0.727424 0
M  V30 2381 H 237.082 1.11094 1.46049 0
M  V30 2382 H 235.464 0.274168 3.9505 0
M  V30 2383 H 236.638 3.08422 3.42364 0
M  V30 2384 H 234.953 2.66749 3.1974 0
M  V30 2385 H 237.55 0.827002 5.28266 0
M  V30 2386 H 237.893 -0.447531 4.13887 0
M  V30 2387 H 238.426 1.21462 3.78803 0
M  V30 2388 H 235.165 3.76207 5.36794 0
M  V30 2389 H 234.685 2.0696 5.62963 0
M  V30 2390 H 236.364 2.58072 5.93302 0
M  V30 2391 N 236.496 -1.42363 0.676048 0
M  V30 2392 C 237.444 -2.32596 -0.0131507 0
M  V30 2393 C 238.438 -1.49891 -0.789238 0
M  V30 2394 O 239.644 -1.65955 -0.697061 0
M  V30 2395 H 236.019 -0.751647 -0.0230481 0
M  V30 2396 H 237.99 -2.88421 0.765243 0
M  V30 2397 C 236.739 -3.34479 -0.949702 0
M  V30 2398 H 236.062 -3.98158 -0.361938 0
M  V30 2399 H 237.502 -4.00199 -1.4006 0
M  V30 2400 C 235.961 -2.66838 -2.05667 0
M  V30 2401 O 236.491 -2.50124 -3.14326 0
M  V30 2402 N 234.697 -2.25843 -1.82875 0
M  V30 2403 H 234.244 -2.39637 -0.945085 0
M  V30 2404 H 234.202 -1.80918 -2.5713 0
M  V30 2405 N 237.974 -0.419461 -1.51915 0
M  V30 2406 C 239.202 0.152136 -2.0634 0
M  V30 2407 C 239.617 1.37988 -1.28859 0
M  V30 2408 O 238.974 1.79243 -0.343232 0
M  V30 2409 C 239.025 0.492266 -3.58133 0
M  V30 2410 O 238.746 -0.686736 -4.32684 0
M  V30 2411 C 240.247 1.11648 -4.2901 0
M  V30 2412 H 237.467 0.0158325 -0.670813 0
M  V30 2413 H 240.011 -0.593394 -1.95702 0
M  V30 2414 H 238.166 1.18769 -3.68745 0
M  V30 2415 H 238.58 -0.400341 -5.2297 0
M  V30 2416 H 240.054 1.3046 -5.36362 0
M  V30 2417 H 240.531 2.09251 -3.86148 0
M  V30 2418 H 241.137 0.460958 -4.22795 0
M  V30 2419 N 239.452 1.56882 -0.150215 0
M  V30 2420 C 240.863 1.82995 0.370076 0
M  V30 2421 C 241.214 1.06907 1.64515 0
M  V30 2422 O 240.339 0.315369 2.1409 0
M  V30 2423 C 240.934 3.31942 0.678208 0
M  V30 2424 C 239.493 3.58625 1.14301 0
M  V30 2425 C 238.64 2.76792 0.167778 0
M  V30 2426 H 241.591 1.54209 -0.374858 0
M  V30 2427 H 241.612 3.48272 1.53254 0
M  V30 2428 H 241.124 3.87294 -0.249991 0
M  V30 2429 H 239.225 3.08664 2.08704 0
M  V30 2430 H 239.338 4.67073 1.06676 0
M  V30 2431 H 237.702 2.45972 0.661037 0
M  V30 2432 H 238.485 3.34916 -0.754069 0
M  V30 2433 N 240.93 -0.123565 1.57115 0
M  V30 2434 C 242.176 -0.833386 1.84885 0
M  V30 2435 C 242.509 -1.79742 0.735292 0
M  V30 2436 O 241.784 -1.92764 -0.25925 0
M  V30 2437 C 242.067 -1.5873 3.23228 0
M  V30 2438 C 241.92 -0.643183 4.45178 0
M  V30 2439 C 243.239 -2.54453 3.59085 0
M  V30 2440 H 240.358 -0.301518 0.6725 0
M  V30 2441 H 243 -0.097778 1.89748 0
M  V30 2442 H 241.15 -2.21438 3.19214 0
M  V30 2443 H 242.822 -0.0253015 4.61293 0
M  V30 2444 H 241.065 0.0456139 4.33776 0
M  V30 2445 H 241.736 -1.20724 5.38637 0
M  V30 2446 H 244.212 -2.01853 3.63861 0
M  V30 2447 H 243.088 -3.04238 4.5687 0
M  V30 2448 H 243.349 -3.36906 2.86264 0
M  V30 2449 N 242.408 -1.52605 -0.393616 0
M  V30 2450 C 243.356 -1.77688 -1.50099 0
M  V30 2451 C 244.35 -0.644615 -1.56656 0
M  V30 2452 O 245.556 -0.826997 -1.59877 0
M  V30 2453 H 241.931 -0.562159 -0.499481 0
M  V30 2454 H 243.902 -2.7043 -1.26135 0
M  V30 2455 C 242.651 -1.95858 -2.87289 0
M  V30 2456 H 241.974 -2.8241 -2.82992 0
M  V30 2457 H 243.414 -2.174 -3.64024 0
M  V30 2458 C 241.873 -0.729848 -3.28899 0
M  V30 2459 O 242.403 0.0949217 -4.01588 0
M  V30 2460 N 240.609 -0.561283 -2.85128 0
M  V30 2461 H 240.156 -1.23357 -2.26143 0
M  V30 2462 H 240.114 0.2595 -3.13327 0
M  V30 2463 N 243.887 0.651787 -1.4349 0
M  V30 2464 C 245.135 1.40888 -1.44897 0
M  V30 2465 C 245.456 1.94856 -0.0749086 0
M  V30 2466 O 244.726 1.74518 0.889956 0
M  V30 2467 H 243.306 0.522887 -0.533478 0
M  V30 2468 H 245.968 0.768609 -1.79104 0
M  V30 2469 H 245.064 2.25052 -2.16236 0
M  V30 2470 N 245.365 1.30045 0.890287 0
M  V30 2471 C 246.59 1.21598 1.68014 0
M  V30 2472 C 247.015 -0.218678 1.86825 0
M  V30 2473 O 246.373 -1.15756 1.39536 0
M  V30 2474 C 246.421 1.94434 3.03691 0
M  V30 2475 O 245.525 1.2678 3.92429 0
M  V30 2476 H 244.866 0.420856 0.513592 0
M  V30 2477 H 247.396 1.71775 1.11151 0
M  V30 2478 H 247.406 2.03251 3.5377 0
M  V30 2479 H 246.081 2.98777 2.89318 0
M  V30 2480 H 244.658 1.26282 3.50866 0
M  V30 2481 N 246.843 -1.10192 1.12674 0
M  V30 2482 C 248.254 -1.63707 0.897604 0
M  V30 2483 C 248.605 -1.87812 -0.567546 0
M  V30 2484 O 247.73 -1.62196 -1.43253 0
M  V30 2485 C 248.325 -2.974 1.62292 0
M  V30 2486 C 246.884 -3.47772 1.43986 0
M  V30 2487 C 246.031 -2.22332 1.65722 0
M  V30 2488 H 248.982 -0.936587 1.28116 0
M  V30 2489 H 249.003 -3.64986 1.07541 0
M  V30 2490 H 248.515 -2.79824 2.68924 0
M  V30 2491 H 246.616 -3.70487 0.396206 0
M  V30 2492 H 246.729 -4.25723 2.19765 0
M  V30 2493 H 245.093 -2.30599 1.08149 0
M  V30 2494 H 245.876 -2.07285 2.73657 0
M  V30 2495 N 248.321 -0.919034 -1.28029 0
M  V30 2496 C 249.567 -0.555757 -1.95036 0
M  V30 2497 C 249.9 0.899198 -1.72128 0
M  V30 2498 O 249.175 1.64023 -1.04531 0
M  V30 2499 C 249.458 -0.872024 -3.49382 0
M  V30 2500 C 249.311 -2.3801 -3.81669 0
M  V30 2501 C 250.63 -0.37185 -4.38526 0
M  V30 2502 H 247.749 -0.203386 -0.708381 0
M  V30 2503 H 250.391 -1.14924 -1.51303 0
M  V30 2504 H 248.541 -0.366946 -3.86763 0
M  V30 2505 H 250.213 -2.9562 -3.54128 0
M  V30 2506 H 248.456 -2.83289 -3.28526 0
M  V30 2507 H 249.127 -2.55192 -4.8947 0
M  V30 2508 H 251.603 -0.804602 -4.08247 0
M  V30 2509 H 250.479 -0.622173 -5.45362 0
M  V30 2510 H 250.74 0.727934 -4.36066 0
M  V30 2511 N 249.799 1.42003 -0.683588 0
M  V30 2512 C 251.039 2.03282 -0.213513 0
M  V30 2513 C 251.403 1.52924 1.16097 0
M  V30 2514 O 252.604 2.06048 1.7262 0
M  V30 2515 C 250.875 3.56483 -0.255856 0
M  V30 2516 S 252.434 4.3857 0.14193 0
M  V30 2517 H 249.252 0.705659 -0.0869853 0
M  V30 2518 H 251.854 1.73619 -0.8987 0
M  V30 2519 H 250.558 3.90631 -1.25841 0
M  V30 2520 H 250.089 3.90831 0.448875 0
M  V30 2521 H 252.104 4.76828 1.37295 0
M  V30 2522 N 251.277 0.427512 1.51691 0
M  V30 2523 C 252.207 -0.3796 2.30394 0
M  V30 2524 C 253.188 -1.02982 1.35384 0
M  V30 2525 O 254.373 -1.03534 1.643 0
M  V30 2526 C 251.503 -1.48649 3.1388 0
M  V30 2527 C 250.457 -0.960294 4.17088 0
M  V30 2528 C 249.783 -2.16219 4.89033 0
M  V30 2529 C 251.083 -0.00153679 5.223 0
M  V30 2530 H 252.777 0.277164 2.98114 0
M  V30 2531 H 250.323 0.134739 1.43368 0
M  V30 2532 H 252.276 -2.05826 3.67714 0
M  V30 2533 H 251 -2.1714 2.43962 0
M  V30 2534 H 249.659 -0.410806 3.64291 0
M  V30 2535 H 249.307 -2.83307 4.15628 0
M  V30 2536 H 249.007 -1.81654 5.58816 0
M  V30 2537 H 250.531 -2.73968 5.45687 0
M  V30 2538 H 251.945 -0.482687 5.71264 0
M  V30 2539 H 250.342 0.256199 5.99553 0
M  V30 2540 H 251.412 0.938174 4.75738 0
M  V30 2541 N 252.755 -1.56801 0.158532 0
M  V30 2542 C 253.665 -2.20916 -0.789518 0
M  V30 2543 C 254.681 -1.1969 -1.26294 0
M  V30 2544 O 255.857 -1.52308 -1.31773 0
M  V30 2545 C 252.922 -2.82727 -2.00665 0
M  V30 2546 C 251.983 -3.99114 -1.58134 0
M  V30 2547 C 251.216 -4.57968 -2.74045 0
M  V30 2548 O 251.439 -4.15704 -3.90572 0
M  V30 2549 O 250.373 -5.48047 -2.48855 0
M  V30 2550 H 254.199 -3.02464 -0.273681 0
M  V30 2551 H 251.784 -1.4924 -0.0690548 0
M  V30 2552 H 253.666 -3.21968 -2.71872 0
M  V30 2553 H 252.341 -2.04184 -2.51179 0
M  V30 2554 H 251.248 -3.64567 -0.839155 0
M  V30 2555 H 252.581 -4.79212 -1.12325 0
M  V30 2556 N 254.233 0.115231 -1.57178 0
M  V30 2557 C 255.196 1.12526 -1.99676 0
M  V30 2558 C 256.196 1.34095 -0.88742 0
M  V30 2559 O 257.386 1.30548 -1.15337 0
M  V30 2560 C 254.518 2.4789 -2.34015 0
M  V30 2561 H 255.711 0.759912 -2.90113 0
M  V30 2562 H 253.264 0.359648 -1.52106 0
M  V30 2563 H 253.999 2.89339 -1.4647 0
M  V30 2564 H 253.784 2.33588 -3.14927 0
M  V30 2565 H 255.274 3.20575 -2.67622 0
M  V30 2566 N 255.711 1.52812 0.385517 0
M  V30 2567 C 256.957 1.69225 1.12847 0
M  V30 2568 C 257.312 0.42864 1.87564 0
M  V30 2569 O 256.605 -0.57779 1.8268 0
M  V30 2570 C 256.799 2.86856 2.13187 0
M  V30 2571 C 256.628 4.24535 1.48325 0
M  V30 2572 C 255.398 4.89701 1.24585 0
M  V30 2573 C 257.596 5.05794 0.931501 0
M  V30 2574 N 255.578 6.11353 0.558644 0
M  V30 2575 C 256.949 6.1888 0.372552 0
M  V30 2576 C 259.004 4.90963 0.828248 0
M  V30 2577 C 257.707 7.18757 -0.279556 0
M  V30 2578 C 259.733 5.91095 0.189956 0
M  V30 2579 C 259.095 7.03489 -0.358207 0
M  V30 2580 H 255.194 0.67268 0.39878 0
M  V30 2581 H 257.778 1.9017 0.417528 0
M  V30 2582 H 255.949 2.67484 2.81614 0
M  V30 2583 H 257.681 2.92188 2.80014 0
M  V30 2584 H 254.436 4.48485 1.52178 0
M  V30 2585 H 254.86 6.76606 0.230983 0
M  V30 2586 H 259.502 4.04274 1.23784 0
M  V30 2587 H 257.22 8.05052 -0.701152 0
M  V30 2588 H 260.806 5.81694 0.111264 0
M  V30 2589 H 259.686 7.79642 -0.844314 0
M  V30 2590 N 257.189 -0.644168 1.43834 0
M  V30 2591 C 258.466 -1.40188 1.36406 0
M  V30 2592 C 258.846 -2.11094 0.0163124 0
M  V30 2593 O 258.194 -2.05426 -1.00062 0
M  V30 2594 C 258.404 -2.3791 2.55343 0
M  V30 2595 C 259.752 -3.01637 2.98832 0
M  V30 2596 O 260.776 -2.48237 2.55455 0
M  V30 2597 O 259.635 -3.98477 3.74003 0
M  V30 2598 H 256.729 -0.626773 0.539523 0
M  V30 2599 H 259.275 -0.670317 1.559 0
M  V30 2600 H 258.047 -1.84525 3.4506 0
M  V30 2601 H 257.67 -3.18503 2.37995 0
M  V30 2602 N 258.668 -1.30515 -0.883378 0
M  V30 2603 C 260.079 -1.17509 -1.45081 0
M  V30 2604 C 260.43 0.223605 -1.94922 0
M  V30 2605 O 259.555 1.12041 -1.85137 0
M  V30 2606 C 260.15 -2.12715 -2.63701 0
M  V30 2607 C 258.709 -2.03682 -3.16529 0
M  V30 2608 C 257.856 -2.02706 -1.89224 0
M  V30 2609 H 260.807 -1.42762 -0.693165 0
M  V30 2610 H 260.828 -1.70891 -3.39965 0
M  V30 2611 H 260.34 -3.14505 -2.27395 0
M  V30 2612 H 258.441 -1.05039 -3.57488 0
M  V30 2613 H 258.554 -2.92146 -3.7972 0
M  V30 2614 H 256.918 -1.4753 -2.07622 0
M  V30 2615 H 257.701 -3.06229 -1.55174 0
M  V30 2616 N 260.146 1.09593 -1.13257 0
M  V30 2617 C 261.109 2.14359 -0.811358 0
M  V30 2618 C 262.109 1.59808 0.178377 0
M  V30 2619 O 263.299 1.74132 -0.0484911 0
M  V30 2620 C 260.431 3.40269 -0.207276 0
M  V30 2621 H 261.624 2.44284 -1.73969 0
M  V30 2622 H 259.177 1.25102 -0.936973 0
M  V30 2623 H 259.912 3.15969 0.73036 0
M  V30 2624 H 259.697 3.81154 -0.919992 0
M  V30 2625 H 261.187 4.176 0.000667944 0
M  V30 2626 N 261.624 0.925811 1.2754 0
M  V30 2627 C 262.849 0.580924 1.99098 0
M  V30 2628 C 263.274 -0.833555 1.68622 0
M  V30 2629 O 262.632 -1.55903 0.925422 0
M  V30 2630 C 262.68 0.811186 3.51358 0
M  V30 2631 O 261.784 -0.124129 4.12213 0
M  V30 2632 H 261.125 0.223873 0.625122 0
M  V30 2633 H 263.655 1.24455 1.62395 0
M  V30 2634 H 263.665 0.72601 4.01489 0
M  V30 2635 H 262.34 1.84227 3.72872 0
M  V30 2636 H 260.917 0.0108006 3.72898 0
M  V30 2637 N 263.102 -1.41638 0.69111 0
M  V30 2638 C 264.065 -2.29178 0.0319786 0
M  V30 2639 C 265.065 -1.44153 -0.712496 0
M  V30 2640 O 266.255 -1.65354 -0.548053 0
M  V30 2641 C 263.387 -3.26952 -0.965161 0
M  V30 2642 H 264.58 -2.88959 0.802681 0
M  V30 2643 H 262.133 -1.4955 0.454356 0
M  V30 2644 H 262.868 -2.72142 -1.76378 0
M  V30 2645 H 262.653 -3.89685 -0.434522 0
M  V30 2646 H 264.143 -3.92561 -1.42428 0
M  V30 2647 N 264.58 -0.43555 -1.51462 0
M  V30 2648 C 265.828 0.131254 -2.01673 0
M  V30 2649 C 266.149 1.43368 -1.32177 0
M  V30 2650 O 265.419 1.90524 -0.455769 0
M  V30 2651 H 263.999 0.0514954 -0.745223 0
M  V30 2652 H 266.661 -0.577847 -1.86137 0
M  V30 2653 H 265.757 0.308446 -3.10572 0
M  V30 2654 N 266.058 1.56714 -0.166846 0
M  V30 2655 C 267.469 1.83378 0.350646 0
M  V30 2656 C 267.82 1.08646 1.63372 0
M  V30 2657 O 266.945 0.338058 2.13743 0
M  V30 2658 C 267.54 3.32643 0.642963 0
M  V30 2659 C 266.099 3.59818 1.10491 0
M  V30 2660 C 265.246 2.76954 0.138411 0
M  V30 2661 H 268.197 1.53803 -0.391193 0
M  V30 2662 H 268.218 3.49878 1.49551 0
M  V30 2663 H 267.73 3.87007 -0.291055 0
M  V30 2664 H 265.831 3.1086 2.05418 0
M  V30 2665 H 265.944 4.68178 1.01716 0
M  V30 2666 H 264.308 2.4666 0.634911 0
M  V30 2667 H 265.091 3.34097 -0.789549 0
M  V30 2668 N 267.536 -0.106894 1.57237 0
M  V30 2669 C 268.499 -1.11466 2.0027 0
M  V30 2670 C 269.499 -1.33623 0.894519 0
M  V30 2671 O 270.689 -1.29935 1.16028 0
M  V30 2672 C 267.821 -2.46646 2.35327 0
M  V30 2673 H 269.014 -0.744516 2.90512 0
M  V30 2674 H 266.567 -0.351576 1.52295 0
M  V30 2675 H 267.302 -2.88558 1.48003 0
M  V30 2676 H 267.087 -2.31915 3.16161 0
M  V30 2677 H 268.577 -3.19151 2.69318 0
M  V30 2678 N 269.014 -1.53014 -0.377408 0
M  V30 2679 C 270.43 -1.42523 -0.718281 0
M  V30 2680 C 270.63 -0.55487 -1.9371 0
M  V30 2681 O 269.686 -0.0327593 -2.52479 0
M  V30 2682 C 270.999 -2.85546 -0.942539 0
M  V30 2683 C 272.547 -2.95101 -1.04329 0
M  V30 2684 C 273.022 -4.3916 -1.3001 0
M  V30 2685 N 274.513 -4.42536 -1.36806 0
M  V30 2686 C 275.248 -5.51097 -1.58364 0
M  V30 2687 N 274.744 -6.69724 -1.77317 0
M  V30 2688 N 276.537 -5.38657 -1.60638 0
M  V30 2689 H 268.688 -2.08116 0.424426 0
M  V30 2690 H 270.951 -0.939352 0.127759 0
M  V30 2691 H 270.657 -3.51499 -0.118929 0
M  V30 2692 H 270.531 -3.28493 -1.85397 0
M  V30 2693 H 272.918 -2.29309 -1.85745 0
M  V30 2694 H 272.999 -2.55566 -0.109505 0
M  V30 2695 H 272.643 -5.05521 -0.490991 0
M  V30 2696 H 272.573 -4.76258 -2.24691 0
M  V30 2697 H 275.064 -3.57039 -1.23821 0
M  V30 2698 H 275.377 -7.48233 -1.93306 0
M  V30 2699 H 273.722 -6.72732 -1.74518 0
M  V30 2700 H 276.913 -4.44948 -1.45391 0
M  V30 2701 H 277.086 -6.2333 -1.77098 0
M  V30 2702 N 270.492 0.636531 -1.44174 0
M  V30 2703 C 271.739 1.39619 -1.46672 0
M  V30 2704 C 272.067 1.94257 -0.0972691 0
M  V30 2705 O 271.322 1.73768 0.900175 0
M  V30 2706 C 271.621 2.58309 -2.47005 0
M  V30 2707 C 271.287 2.21992 -3.92467 0
M  V30 2708 C 269.949 2.118 -4.32081 0
M  V30 2709 C 272.301 1.9321 -4.84065 0
M  V30 2710 C 269.629 1.71007 -5.61225 0
M  V30 2711 C 271.981 1.53911 -6.13591 0
M  V30 2712 C 270.645 1.42257 -6.52165 0
M  V30 2713 H 269.915 0.510902 -0.536712 0
M  V30 2714 H 272.562 0.722328 -1.77355 0
M  V30 2715 H 270.867 3.30903 -2.09786 0
M  V30 2716 H 272.564 3.16533 -2.46186 0
M  V30 2717 H 269.154 2.30841 -3.61124 0
M  V30 2718 H 273.338 1.99997 -4.54219 0
M  V30 2719 H 268.594 1.60583 -5.89935 0
M  V30 2720 H 272.768 1.30677 -6.8403 0
M  V30 2721 H 270.395 1.10419 -7.52138 0
M  V30 2722 N 271.97 1.30982 0.876444 0
M  V30 2723 C 273.195 1.23373 1.66715 0
M  V30 2724 C 273.62 -0.19885 1.87046 0
M  V30 2725 O 272.978 -1.1427 1.40756 0
M  V30 2726 C 273.026 1.97644 3.01611 0
M  V30 2727 O 272.13 1.30935 3.91062 0
M  V30 2728 H 271.471 0.426279 0.509099 0
M  V30 2729 H 274.001 1.72944 1.09323 0
M  V30 2730 H 274.011 2.06992 3.51594 0
M  V30 2731 H 272.686 3.01829 2.86133 0
M  V30 2732 H 271.263 1.29996 3.49507 0
M  V30 2733 N 273.449 -1.08991 1.13837 0
M  V30 2734 C 274.379 -2.17771 0.842507 0
M  V30 2735 C 275.36 -1.6892 -0.20001 0
M  V30 2736 O 276.545 -1.94113 -0.0579731 0
M  V30 2737 C 273.675 -3.4589 0.312644 0
M  V30 2738 C 272.629 -4.08099 1.28992 0
M  V30 2739 C 271.955 -5.31098 0.619623 0
M  V30 2740 C 273.255 -4.50077 2.65005 0
M  V30 2741 H 274.949 -2.42777 1.75213 0
M  V30 2742 H 272.495 -1.16682 0.843875 0
M  V30 2743 H 274.448 -4.21297 0.0933043 0
M  V30 2744 H 273.172 -3.20419 -0.632382 0
M  V30 2745 H 271.831 -3.34717 1.49533 0
M  V30 2746 H 271.479 -5.0191 -0.33102 0
M  V30 2747 H 271.179 -5.73674 1.27167 0
M  V30 2748 H 272.703 -6.09224 0.409669 0
M  V30 2749 H 274.117 -5.16688 2.48407 0
M  V30 2750 H 272.514 -5.03553 3.26427 0
M  V30 2751 H 273.584 -3.62257 3.22332 0
M  V30 2752 N 274.927 -0.932562 -1.27047 0
M  V30 2753 C 276.152 -0.591474 -1.98787 0
M  V30 2754 C 276.577 0.824601 -1.69062 0
M  V30 2755 O 275.935 1.5541 -0.933677 0
M  V30 2756 C 275.983 -0.829808 -3.50922 0
M  V30 2757 O 275.087 0.102266 -4.12273 0
M  V30 2758 H 274.428 -0.227185 -0.623926 0
M  V30 2759 H 276.958 -1.25314 -1.61733 0
M  V30 2760 H 276.968 -0.747292 -4.01098 0
M  V30 2761 H 275.643 -1.86201 -3.7189 0
M  V30 2762 H 274.22 -0.0305761 -3.72887 0
M  V30 2763 N 276.405 1.4127 -0.698611 0
M  V30 2764 C 277.335 2.33447 -0.049629 0
M  V30 2765 C 278.316 1.51982 0.763898 0
M  V30 2766 O 279.501 1.80509 0.716257 0
M  V30 2767 C 276.631 3.35828 0.885267 0
M  V30 2768 C 275.585 4.27627 0.178613 0
M  V30 2769 C 274.911 5.20406 1.22807 0
M  V30 2770 C 276.211 5.13459 -0.956933 0
M  V30 2771 H 277.905 2.87966 -0.81951 0
M  V30 2772 H 275.451 1.38461 -0.395538 0
M  V30 2773 H 277.404 3.9924 1.34854 0
M  V30 2774 H 276.128 2.79666 1.68685 0
M  V30 2775 H 274.787 3.65643 -0.26466 0
M  V30 2776 H 274.435 4.60558 2.02226 0
M  V30 2777 H 274.135 5.82661 0.760239 0
M  V30 2778 H 275.659 5.86695 1.69179 0
M  V30 2779 H 277.073 5.70421 -0.573805 0
M  V30 2780 H 275.47 5.8467 -1.35205 0
M  V30 2781 H 276.54 4.50443 -1.79524 0
M  V30 2782 N 277.883 0.443576 1.51229 0
M  V30 2783 C 278.813 -0.355142 2.30783 0
M  V30 2784 C 279.794 -1.0154 1.36468 0
M  V30 2785 O 280.979 -1.01785 1.65389 0
M  V30 2786 C 278.109 -1.45312 3.15439 0
M  V30 2787 C 277.063 -0.916002 4.18083 0
M  V30 2788 C 276.389 -2.1102 4.91299 0
M  V30 2789 C 277.689 0.0538602 5.22272 0
M  V30 2790 H 279.383 0.308767 2.97804 0
M  V30 2791 H 276.929 0.149937 1.43217 0
M  V30 2792 H 278.882 -2.01914 3.69876 0
M  V30 2793 H 277.606 -2.14541 2.46252 0
M  V30 2794 H 276.265 -0.372145 3.64706 0
M  V30 2795 H 275.913 -2.78882 4.18609 0
M  V30 2796 H 275.613 -1.75717 5.60712 0
M  V30 2797 H 277.137 -2.68164 5.48562 0
M  V30 2798 H 278.551 -0.422069 5.71744 0
M  V30 2799 H 276.948 0.319776 5.99247 0
M  V30 2800 H 278.018 0.98858 4.74716 0
M  V30 2801 N 279.361 -1.56624 0.175154 0
M  V30 2802 C 280.291 -2.21155 -0.749195 0
M  V30 2803 C 281.272 -1.16836 -1.23626 0
M  V30 2804 O 282.457 -1.45277 -1.28873 0
M  V30 2805 C 279.587 -2.8553 -1.97711 0
M  V30 2806 C 278.541 -3.95921 -1.62575 0
M  V30 2807 C 277.867 -4.47365 -2.92864 0
M  V30 2808 C 279.167 -5.15323 -0.850838 0
M  V30 2809 H 280.861 -2.98653 -0.211295 0
M  V30 2810 H 278.407 -1.43651 -0.100188 0
M  V30 2811 H 280.36 -3.2935 -2.62881 0
M  V30 2812 H 279.084 -2.05406 -2.53921 0
M  V30 2813 H 277.743 -3.52762 -0.997719 0
M  V30 2814 H 277.391 -3.64027 -3.47122 0
M  V30 2815 H 277.091 -5.21839 -2.70106 0
M  V30 2816 H 278.615 -4.93873 -3.59056 0
M  V30 2817 H 280.029 -5.55812 -1.40521 0
M  V30 2818 H 278.426 -5.95739 -0.722154 0
M  V30 2819 H 279.496 -4.84661 0.152082 0
M  V30 2820 N 280.839 0.0985539 -1.57292 0
M  V30 2821 C 282.086 0.802678 -1.85912 0
M  V30 2822 C 282.414 1.78901 -0.763186 0
M  V30 2823 O 281.669 1.94178 0.243559 0
M  V30 2824 C 281.968 1.56927 -3.21105 0
M  V30 2825 C 281.634 0.725376 -4.45027 0
M  V30 2826 C 280.296 0.492726 -4.78671 0
M  V30 2827 C 282.648 0.138493 -5.21016 0
M  V30 2828 C 279.976 -0.336727 -5.85733 0
M  V30 2829 C 282.328 -0.678264 -6.28953 0
M  V30 2830 C 280.992 -0.921039 -6.61115 0
M  V30 2831 H 280.262 0.293721 -0.680301 0
M  V30 2832 H 282.909 0.0642841 -1.91392 0
M  V30 2833 H 281.214 2.37914 -3.11294 0
M  V30 2834 H 282.911 2.11841 -3.40477 0
M  V30 2835 H 279.501 0.916815 -4.18679 0
M  V30 2836 H 283.685 0.305404 -4.95359 0
M  V30 2837 H 278.941 -0.533836 -6.09065 0
M  V30 2838 H 283.115 -1.1399 -6.87007 0
M  V30 2839 H 280.742 -1.56556 -7.43905 0
M  V30 2840 N 282.317 1.53212 0.369288 0
M  V30 2841 C 283.564 1.69215 1.11232 0
M  V30 2842 C 283.892 0.442048 1.8941 0
M  V30 2843 O 283.147 -0.575944 1.87033 0
M  V30 2844 C 283.446 2.89101 2.10132 0
M  V30 2845 C 283.112 4.25758 1.48463 0
M  V30 2846 C 281.774 4.6292 1.31372 0
M  V30 2847 C 284.126 5.10757 1.03811 0
M  V30 2848 C 281.454 5.82722 0.68207 0
M  V30 2849 C 283.806 6.31201 0.420487 0
M  V30 2850 C 282.47 6.67079 0.237038 0
M  V30 2851 H 281.74 0.619201 0.407027 0
M  V30 2852 H 284.387 1.87391 0.394552 0
M  V30 2853 H 282.692 2.65421 2.88199 0
M  V30 2854 H 284.389 2.98676 2.6757 0
M  V30 2855 H 280.979 3.96494 1.62758 0
M  V30 2856 H 285.163 4.82599 1.1581 0
M  V30 2857 H 280.419 6.09113 0.528316 0
M  V30 2858 H 284.593 6.96368 0.0662874 0
M  V30 2859 H 282.22 7.59774 -0.254477 0
M  V30 2860 N 283.795 -0.628877 1.44509 0
M  V30 2861 C 284.725 -1.75187 1.54376 0
M  V30 2862 C 285.706 -1.65411 0.396618 0
M  V30 2863 O 286.891 -1.84137 0.617031 0
M  V30 2864 C 284.021 -3.13725 1.48976 0
M  V30 2865 C 282.975 -3.38291 2.62189 0
M  V30 2866 C 282.301 -4.76883 2.41841 0
M  V30 2867 C 283.601 -3.30632 4.04326 0
M  V30 2868 H 285.295 -1.67187 2.48373 0
M  V30 2869 H 282.841 -0.802909 1.19538 0
M  V30 2870 H 284.794 -3.92064 1.54478 0
M  V30 2871 H 283.518 -3.22515 0.514961 0
M  V30 2872 H 282.177 -2.62334 2.56079 0
M  V30 2873 H 281.825 -4.82378 1.42548 0
M  V30 2874 H 281.525 -4.94278 3.17747 0
M  V30 2875 H 283.049 -5.57449 2.49165 0
M  V30 2876 H 284.463 -3.98873 4.11793 0
M  V30 2877 H 282.86 -3.59561 4.80454 0
M  V30 2878 H 283.93 -2.28404 4.27738 0
M  V30 2879 N 285.273 -1.31445 -0.869486 0
M  V30 2880 C 286.684 -1.19042 -1.43826 0
M  V30 2881 C 287.035 0.202919 -1.95148 0
M  V30 2882 O 286.16 1.10071 -1.86315 0
M  V30 2883 C 286.755 -2.15499 -2.6143 0
M  V30 2884 C 285.314 -2.07028 -3.14351 0
M  V30 2885 C 284.461 -2.04701 -1.87063 0
M  V30 2886 H 287.412 -1.43489 -0.677984 0
M  V30 2887 H 287.433 -1.74488 -3.38134 0
M  V30 2888 H 286.945 -3.16899 -2.24046 0
M  V30 2889 H 285.046 -1.08825 -3.56354 0
M  V30 2890 H 285.159 -2.96157 -3.766 0
M  V30 2891 H 283.523 -1.49724 -2.06046 0
M  V30 2892 H 284.306 -3.07857 -1.51917 0
M  V30 2893 N 286.751 1.08385 -1.14413 0
M  V30 2894 C 287.681 2.17321 -0.854044 0
M  V30 2895 C 288.662 1.69024 0.191049 0
M  V30 2896 O 289.847 1.94141 0.0476779 0
M  V30 2897 C 286.977 3.45719 -0.330983 0
M  V30 2898 C 285.931 4.07409 -1.31155 0
M  V30 2899 C 285.257 5.30762 -0.64778 0
M  V30 2900 C 286.557 4.48665 -2.67388 0
M  V30 2901 H 288.251 2.41845 -1.76498 0
M  V30 2902 H 285.797 1.16233 -0.850051 0
M  V30 2903 H 287.75 4.21241 -0.115645 0
M  V30 2904 H 286.474 3.2075 0.615381 0
M  V30 2905 H 285.133 3.33919 -1.51306 0
M  V30 2906 H 284.781 5.02078 0.304398 0
M  V30 2907 H 284.481 5.72992 -1.30207 0
M  V30 2908 H 286.005 6.08998 -0.441972 0
M  V30 2909 H 287.419 5.15364 -2.51143 0
M  V30 2910 H 285.816 5.01814 -3.29093 0
M  V30 2911 H 286.886 3.60543 -3.24248 0
M  V30 2912 N 288.23 0.939286 1.26551 0
M  V30 2913 C 289.193 0.451987 2.24699 0
M  V30 2914 C 290.193 -0.435869 1.5478 0
M  V30 2915 O 291.383 -0.235314 1.72603 0
M  V30 2916 C 288.515 -0.348801 3.39111 0
M  V30 2917 H 289.708 1.3193 2.69322 0
M  V30 2918 H 287.261 0.721072 1.38673 0
M  V30 2919 H 287.996 -1.23444 2.99887 0
M  V30 2920 H 287.781 0.287945 3.91041 0
M  V30 2921 H 289.271 -0.679726 4.12031 0
M  V30 2922 N 289.708 -1.40897 0.706093 0
M  V30 2923 C 290.957 -2.00284 0.238574 0
M  V30 2924 C 291.27 -1.56604 -1.17194 0
M  V30 2925 O 292.476 -2.08624 -1.73748 0
M  V30 2926 C 290.932 -3.57934 0.375623 0
M  V30 2927 C 290.54 -4.10591 1.79217 0
M  V30 2928 C 292.284 -4.24488 -0.0315857 0
M  V30 2929 C 290.191 -5.60712 1.88032 0
M  V30 2930 H 289.121 -0.749144 0.0854398 0
M  V30 2931 H 291.772 -1.61251 0.875813 0
M  V30 2932 H 290.154 -3.94622 -0.330042 0
M  V30 2933 H 291.328 -3.85301 2.52745 0
M  V30 2934 H 289.643 -3.56601 2.15 0
M  V30 2935 H 292.24 -5.34698 0.0136842 0
M  V30 2936 H 292.583 -4.02261 -1.072 0
M  V30 2937 H 293.116 -3.92873 0.624181 0
M  V30 2938 H 289.855 -5.87781 2.90161 0
M  V30 2939 H 289.375 -5.87896 1.18903 0
M  V30 2940 H 291.054 -6.25658 1.64805 0
M  V30 2941 N 291.186 -0.45159 -1.50991 0
M  V30 2942 C 292.414 0.108334 -2.06616 0
M  V30 2943 C 292.829 1.35224 -1.31757 0
M  V30 2944 O 292.186 1.78475 -0.381174 0
M  V30 2945 C 292.237 0.41619 -3.59096 0
M  V30 2946 O 291.958 -0.778361 -4.3113 0
M  V30 2947 C 293.459 1.02523 -4.31282 0
M  V30 2948 H 290.679 0.00159995 -0.670998 0
M  V30 2949 H 293.223 -0.634771 -1.94399 0
M  V30 2950 H 291.378 1.10921 -3.71181 0
M  V30 2951 H 291.792 -0.511181 -5.22003 0
M  V30 2952 H 293.266 1.19053 -5.39009 0
M  V30 2953 H 293.743 2.01013 -3.905 0
M  V30 2954 H 294.349 0.371173 -4.23677 0
M  V30 2955 N 292.664 1.56529 -0.183458 0
M  V30 2956 C 293.627 2.17324 0.728223 0
M  V30 2957 C 294.627 1.12453 1.14939 0
M  V30 2958 O 295.817 1.37902 1.06437 0
M  V30 2959 C 292.949 2.76591 1.99274 0
M  V30 2960 H 294.142 2.99241 0.198772 0
M  V30 2961 H 291.695 1.5616 0.0661391 0
M  V30 2962 H 292.43 1.98441 2.56499 0
M  V30 2963 H 292.215 3.5335 1.69959 0
M  V30 2964 H 293.705 3.23311 2.6431 0
M  V30 2965 N 294.142 -0.090211 1.57342 0
M  V30 2966 C 295.389 -0.792807 1.86335 0
M  V30 2967 C 295.717 -1.78494 0.772662 0
M  V30 2968 O 294.972 -1.94305 -0.233258 0
M  V30 2969 C 295.271 -1.55222 3.21933 0
M  V30 2970 C 294.937 -0.701765 4.45406 0
M  V30 2971 C 293.599 -0.467334 4.78925 0
M  V30 2972 C 295.951 -0.11086 5.21082 0
M  V30 2973 C 293.279 0.367785 5.85546 0
M  V30 2974 C 295.631 0.711609 6.28585 0
M  V30 2975 C 294.295 0.956086 6.60617 0
M  V30 2976 H 293.565 -0.290109 0.681849 0
M  V30 2977 H 296.212 -0.0541332 1.91423 0
M  V30 2978 H 294.517 -2.3626 3.12551 0
M  V30 2979 H 296.214 -2.10032 3.41595 0
M  V30 2980 H 292.804 -0.894598 4.1916 0
M  V30 2981 H 296.988 -0.279129 4.95514 0
M  V30 2982 H 292.244 0.566128 6.08773 0
M  V30 2983 H 296.418 1.17632 6.86393 0
M  V30 2984 H 294.045 1.60499 7.43064 0
M  V30 2985 N 295.62 -1.53406 -0.361157 0
M  V30 2986 C 296.86 -1.71507 -1.11197 0
M  V30 2987 C 297.224 -0.459337 -1.86425 0
M  V30 2988 O 298.425 -0.517102 -2.63779 0
M  V30 2989 C 296.696 -2.93307 -2.0422 0
M  V30 2990 S 298.255 -3.32135 -2.86761 0
M  V30 2991 H 295.073 -0.603448 -0.375995 0
M  V30 2992 H 297.675 -1.91516 -0.392642 0
M  V30 2993 H 296.379 -3.82891 -1.47724 0
M  V30 2994 H 295.91 -2.75712 -2.80618 0
M  V30 2995 H 297.925 -2.84493 -4.06544 0
M  V30 2996 N 297.098 0.621204 -1.44841 0
M  V30 2997 C 298.328 1.40548 -1.51426 0
M  V30 2998 C 298.736 1.88673 -0.141083 0
M  V30 2999 O 298.079 1.62053 0.865128 0
M  V30 3000 C 298.141 2.65325 -2.42576 0
M  V30 3001 C 297.805 2.3893 -3.89566 0
M  V30 3002 C 298.802 2.00138 -4.79834 0
M  V30 3003 C 296.487 2.52263 -4.3436 0
M  V30 3004 C 298.481 1.75021 -6.129 0
M  V30 3005 C 296.168 2.2676 -5.67471 0
M  V30 3006 C 297.166 1.88199 -6.56559 0
M  V30 3007 O 296.854 1.62986 -7.87204 0
M  V30 3008 H 296.586 0.437122 -0.515655 0
M  V30 3009 H 299.14 0.765987 -1.90583 0
M  V30 3010 H 297.37 3.31947 -1.98364 0
M  V30 3011 H 299.059 3.27347 -2.39998 0
M  V30 3012 H 299.825 1.89386 -4.46495 0
M  V30 3013 H 295.704 2.81246 -3.65269 0
M  V30 3014 H 299.248 1.44848 -6.82396 0
M  V30 3015 H 295.145 2.37125 -6.00368 0
M  V30 3016 H 295.913 1.7715 -7.991 0
M  V30 3017 N 298.576 1.31904 0.862503 0
M  V30 3018 C 299.822 1.22197 1.61851 0
M  V30 3019 C 300.155 -0.217641 1.92977 0
M  V30 3020 O 299.43 -1.15264 1.56666 0
M  V30 3021 C 299.713 2.07378 2.94391 0
M  V30 3022 C 299.566 3.59678 2.70096 0
M  V30 3023 C 300.885 1.92891 3.95577 0
M  V30 3024 H 298.004 0.445255 0.587296 0
M  V30 3025 H 300.646 1.6177 0.99651 0
M  V30 3026 H 298.796 1.73758 3.47477 0
M  V30 3027 H 300.468 4.03472 2.23625 0
M  V30 3028 H 298.711 3.82735 2.04197 0
M  V30 3029 H 299.382 4.14595 3.64438 0
M  V30 3030 H 301.858 2.22327 3.51724 0
M  V30 3031 H 300.734 2.54781 4.86187 0
M  V30 3032 H 300.995 0.894315 4.3296 0
M  V30 3033 N 300.054 -1.07777 1.14986 0
M  V30 3034 C 301.302 -1.79934 0.920235 0
M  V30 3035 C 301.623 -1.86955 -0.554336 0
M  V30 3036 O 300.893 -1.36731 -1.40291 0
M  V30 3037 H 299.473 -0.666424 0.337473 0
M  V30 3038 H 302.135 -1.3027 1.44968 0
M  V30 3039 H 301.231 -2.82539 1.32583 0
M  V30 3040 N 301.532 -0.945985 -1.26051 0
M  V30 3041 C 302.772 -0.603665 -1.95282 0
M  V30 3042 C 303.136 0.842377 -1.72534 0
M  V30 3043 O 304.337 1.29387 -2.35611 0
M  V30 3044 C 302.608 -0.942292 -3.44754 0
M  V30 3045 S 304.167 -0.711242 -4.32997 0
M  V30 3046 H 300.985 -0.222176 -0.675395 0
M  V30 3047 H 303.587 -1.21832 -1.52896 0
M  V30 3048 H 302.291 -1.99203 -3.58812 0
M  V30 3049 H 301.822 -0.317546 -3.92116 0
M  V30 3050 H 303.837 0.422221 -4.944 0
M  V30 3051 N 303.011 1.40521 -0.713556 0
M  V30 3052 C 303.941 2.33381 -0.0743864 0
M  V30 3053 C 304.922 1.52784 0.747735 0
M  V30 3054 O 306.107 1.81258 0.697071 0
M  V30 3055 C 303.237 3.36748 0.849598 0
M  V30 3056 C 302.191 4.27793 0.133247 0
M  V30 3057 C 301.517 5.21679 1.17281 0
M  V30 3058 C 302.817 5.12415 -1.01134 0
M  V30 3059 H 304.511 2.87081 -0.850007 0
M  V30 3060 H 302.057 1.38034 -0.410201 0
M  V30 3061 H 304.01 4.00648 1.30612 0
M  V30 3062 H 302.734 2.81439 1.65709 0
M  V30 3063 H 301.393 3.65342 -0.303426 0
M  V30 3064 H 301.041 4.62677 1.9733 0
M  V30 3065 H 300.741 5.83435 0.698397 0
M  V30 3066 H 302.265 5.88456 1.62947 0
M  V30 3067 H 303.679 5.69781 -0.634274 0
M  V30 3068 H 302.076 5.83203 -1.41399 0
M  V30 3069 H 303.146 4.48514 -1.84292 0
M  V30 3070 N 304.489 0.459591 1.5075 0
M  V30 3071 C 305.905 0.113092 1.59199 0
M  V30 3072 C 306.105 -1.37951 1.46874 0
M  V30 3073 O 305.161 -2.15168 1.32132 0
M  V30 3074 C 306.474 0.653043 2.93523 0
M  V30 3075 C 308.022 0.615449 3.0689 0
M  V30 3076 C 308.497 1.13275 4.43771 0
M  V30 3077 N 309.988 1.09167 4.50152 0
M  V30 3078 C 310.723 1.46256 5.54434 0
M  V30 3079 N 310.219 1.90739 6.66026 0
M  V30 3080 N 312.012 1.37932 5.44914 0
M  V30 3081 H 304.163 1.43049 1.57005 0
M  V30 3082 H 306.426 0.590861 0.741341 0
M  V30 3083 H 306.132 1.69822 3.07983 0
M  V30 3084 H 306.006 0.0902132 3.77092 0
M  V30 3085 H 308.393 -0.420793 2.92084 0
M  V30 3086 H 308.474 1.21495 2.25106 0
M  V30 3087 H 308.118 2.16757 4.59324 0
M  V30 3088 H 308.048 0.509576 5.24129 0
M  V30 3089 H 310.539 0.76528 3.7007 0
M  V30 3090 H 310.852 2.17218 7.41644 0
M  V30 3091 H 309.197 1.94683 6.67176 0
M  V30 3092 H 312.388 1.0303 4.56621 0
M  V30 3093 H 312.561 1.67164 6.26067 0
M  V30 3094 N 305.967 -1.56429 0.191757 0
M  V30 3095 C 306.93 -2.17707 -0.716688 0
M  V30 3096 C 307.93 -1.13061 -1.14341 0
M  V30 3097 O 309.12 -1.38464 -1.05704 0
M  V30 3098 C 306.252 -2.77644 -1.97804 0
M  V30 3099 H 307.445 -2.99342 -0.1829 0
M  V30 3100 H 304.998 -1.56193 -0.0578566 0
M  V30 3101 H 305.733 -1.99799 -2.55443 0
M  V30 3102 H 305.518 -3.54246 -1.68083 0
M  V30 3103 H 307.008 -3.24708 -2.62592 0
M  V30 3104 N 307.445 0.0818655 -1.57387 0
M  V30 3105 C 308.375 1.09885 -2.06028 0
M  V30 3106 C 309.356 1.4098 -0.951774 0
M  V30 3107 O 310.541 1.50781 -1.22387 0
M  V30 3108 C 307.671 2.4151 -2.4958 0
M  V30 3109 C 306.625 2.24792 -3.64215 0
M  V30 3110 C 305.951 3.61712 -3.93787 0
M  V30 3111 C 307.251 1.67749 -4.94629 0
M  V30 3112 H 308.945 0.694128 -2.91243 0
M  V30 3113 H 306.491 0.332448 -1.4011 0
M  V30 3114 H 308.444 3.12939 -2.82219 0
M  V30 3115 H 307.168 2.83943 -1.61381 0
M  V30 3116 H 305.827 1.55807 -3.31843 0
M  V30 3117 H 305.475 4.01697 -3.02735 0
M  V30 3118 H 305.175 3.51368 -4.70971 0
M  V30 3119 H 306.699 4.34587 -4.28913 0
M  V30 3120 H 308.113 2.29032 -5.25564 0
M  V30 3121 H 306.51 1.68128 -5.76067 0
M  V30 3122 H 307.58 0.638059 -4.80684 0
M  V30 3123 N 308.923 1.53595 0.353017 0
M  V30 3124 C 309.886 1.80232 1.41594 0
M  V30 3125 C 310.886 0.673081 1.46035 0
M  V30 3126 O 312.076 0.941335 1.46576 0
M  V30 3127 C 309.208 1.93578 2.80607 0
M  V30 3128 H 310.401 2.75174 1.19244 0
M  V30 3129 H 307.954 1.44864 0.586872 0
M  V30 3130 H 308.689 1.00746 3.08254 0
M  V30 3131 H 308.474 2.75724 2.78781 0
M  V30 3132 H 309.964 2.15735 3.57558 0
M  V30 3133 N 310.401 -0.613514 1.45168 0
M  V30 3134 C 311.817 -0.933629 1.29443 0
M  V30 3135 C 312.017 -2.00028 0.243101 0
M  V30 3136 O 311.073 -2.49848 -0.364992 0
M  V30 3137 C 312.386 -1.38018 2.67155 0
M  V30 3138 C 313.934 -1.49471 2.75004 0
M  V30 3139 C 314.409 -1.97503 4.13227 0
M  V30 3140 N 315.9 -2.04746 4.15491 0
M  V30 3141 C 316.635 -2.43121 5.19307 0
M  V30 3142 N 316.131 -2.80506 6.33473 0
M  V30 3143 N 317.924 -2.43408 5.06664 0
M  V30 3144 H 310.075 0.0916097 2.12202 0
M  V30 3145 H 312.338 -0.0216655 0.947752 0
M  V30 3146 H 312.044 -0.670625 3.45247 0
M  V30 3147 H 311.918 -2.34784 2.95222 0
M  V30 3148 H 314.305 -2.19519 1.9722 0
M  V30 3149 H 314.386 -0.510342 2.50657 0
M  V30 3150 H 314.03 -1.28045 4.91495 0
M  V30 3151 H 313.96 -2.96843 4.34962 0
M  V30 3152 H 316.451 -1.78468 3.33103 0
M  V30 3153 H 316.764 -3.08652 7.08487 0
M  V30 3154 H 315.109 -2.78216 6.36884 0
M  V30 3155 H 318.3 -2.13604 4.16523 0
M  V30 3156 H 318.473 -2.72989 5.87691 0
M  V30 3157 N 311.879 -1.3236 -0.855495 0
M  V30 3158 C 313.104 -1.2601 -1.64731 0
M  V30 3159 C 313.529 0.169068 -1.87339 0
M  V30 3160 O 312.887 1.12016 -1.42556 0
M  V30 3161 C 312.935 -2.02417 -2.98429 0
M  V30 3162 O 312.039 -1.3714 -3.8893 0
M  V30 3163 H 311.38 -0.434325 -0.502253 0
M  V30 3164 H 313.91 -1.74661 -1.06558 0
M  V30 3165 H 313.92 -2.12559 -3.48257 0
M  V30 3166 H 312.595 -3.06343 -2.81295 0
M  V30 3167 H 311.172 -1.3554 -3.47395 0
M  V30 3168 N 313.357 1.07166 -1.15556 0
M  V30 3169 C 314.605 1.79443 -0.929764 0
M  V30 3170 C 314.926 1.87246 0.544414 0
M  V30 3171 O 314.196 1.37473 1.39564 0
M  V30 3172 H 312.776 0.664625 -0.341003 0
M  V30 3173 H 315.438 1.29499 -1.45657 0
M  V30 3174 H 314.534 2.81832 -1.34079 0
M  V30 3175 N 314.835 0.952656 1.25548 0
M  V30 3176 C 315.765 0.489287 2.28316 0
M  V30 3177 C 316.746 -0.463359 1.63667 0
M  V30 3178 O 317.931 -0.36274 1.90782 0
M  V30 3179 C 315.061 -0.235603 3.465 0
M  V30 3180 C 314.015 0.631593 4.23314 0
M  V30 3181 C 313.341 -0.223923 5.34231 0
M  V30 3182 C 314.641 1.90871 4.86174 0
M  V30 3183 H 316.335 1.34822 2.67326 0
M  V30 3184 H 313.881 0.649728 1.28509 0
M  V30 3185 H 315.834 -0.570882 4.17515 0
M  V30 3186 H 314.558 -1.12877 3.06474 0
M  V30 3187 H 313.217 0.949929 3.54079 0
M  V30 3188 H 312.865 -1.11678 4.90446 0
M  V30 3189 H 312.565 0.35299 5.86539 0
M  V30 3190 H 314.089 -0.554214 6.0808 0
M  V30 3191 H 315.503 1.63997 5.49343 0
M  V30 3192 H 313.9 2.43112 5.4865 0
M  V30 3193 H 314.97 2.61304 4.08471 0
M  V30 3194 N 316.313 -1.40141 0.720998 0
M  V30 3195 C 317.541 -2.05096 0.272656 0
M  V30 3196 C 317.956 -1.54334 -1.0875 0
M  V30 3197 O 317.313 -0.702211 -1.6845 0
M  V30 3198 C 317.364 -3.60636 0.249835 0
M  V30 3199 O 317.085 -4.09526 1.55629 0
M  V30 3200 C 318.586 -4.42772 -0.216396 0
M  V30 3201 H 315.806 -0.659897 0.121558 0
M  V30 3202 H 318.35 -1.79449 0.980723 0
M  V30 3203 H 316.505 -3.85232 -0.409237 0
M  V30 3204 H 316.919 -5.03758 1.4604 0
M  V30 3205 H 318.393 -5.51702 -0.181212 0
M  V30 3206 H 318.87 -4.20756 -1.25941 0
M  V30 3207 H 319.476 -4.23294 0.412596 0
M  V30 3208 N 317.792 -0.46758 -1.50504 0
M  V30 3209 C 318.742 0.34698 -2.25344 0
M  V30 3210 C 319.726 0.964469 -1.2879 0
M  V30 3211 O 320.918 0.8776 -1.53711 0
M  V30 3212 C 318.047 1.43042 -3.1208 0
M  V30 3213 C 317.133 0.82084 -4.16081 0
M  V30 3214 N 317.524 -0.0567602 -5.05768 0
M  V30 3215 C 315.822 1.08517 -4.32597 0
M  V30 3216 C 316.523 -0.402343 -5.80307 0
M  V30 3217 N 315.499 0.221607 -5.43148 0
M  V30 3218 H 319.301 -0.329129 -2.92051 0
M  V30 3219 H 316.815 -0.281508 -1.59942 0
M  V30 3220 H 318.812 2.02712 -3.64299 0
M  V30 3221 H 317.472 2.10856 -2.46921 0
M  V30 3222 H 318.483 -0.425349 -5.1615 0
M  V30 3223 H 315.16 1.75855 -3.78657 0
M  V30 3224 H 316.55 -1.11834 -6.62528 0
M  V30 3225 N 319.27 1.56325 -0.20005 0
M  V30 3226 C 320.686 1.58839 0.155716 0
M  V30 3227 C 320.886 1.21636 1.60645 0
M  V30 3228 O 319.942 0.941437 2.34293 0
M  V30 3229 C 321.255 3.0032 -0.151124 0
M  V30 3230 C 322.803 3.12866 -0.0916284 0
M  V30 3231 C 323.278 4.56488 -0.371845 0
M  V30 3232 N 324.769 4.62089 -0.320641 0
M  V30 3233 C 325.504 5.71116 -0.511243 0
M  V30 3234 N 325 6.88592 -0.762461 0
M  V30 3235 N 326.793 5.60335 -0.445157 0
M  V30 3236 H 318.944 1.78788 -1.14668 0
M  V30 3237 H 321.207 0.829996 -0.458051 0
M  V30 3238 H 320.913 3.32117 -1.15721 0
M  V30 3239 H 320.787 3.73257 0.543986 0
M  V30 3240 H 323.174 2.80878 0.905065 0
M  V30 3241 H 323.255 2.42304 -0.81989 0
M  V30 3242 H 322.899 4.89189 -1.36588 0
M  V30 3243 H 322.829 5.25246 0.377362 0
M  V30 3244 H 325.32 3.77665 -0.13329 0
M  V30 3245 H 325.633 7.67581 -0.896576 0
M  V30 3246 H 323.978 6.90387 -0.799412 0
M  V30 3247 H 327.169 4.67436 -0.249278 0
M  V30 3248 H 327.342 6.45243 -0.597116 0
M  V30 3249 N 320.748 -0.0735177 1.57428 0
M  V30 3250 C 322.164 -0.428264 1.53747 0
M  V30 3251 C 322.364 -1.79272 0.91998 0
M  V30 3252 O 321.42 -2.47051 0.521745 0
M  V30 3253 C 322.733 -0.370914 2.98404 0
M  V30 3254 C 324.281 -0.451224 3.0973 0
M  V30 3255 C 324.756 -0.4238 4.56035 0
M  V30 3256 N 326.247 -0.483925 4.60665 0
M  V30 3257 C 326.982 -0.484891 5.71346 0
M  V30 3258 N 326.478 -0.440775 6.91396 0
M  V30 3259 N 328.271 -0.531319 5.59583 0
M  V30 3260 H 320.422 0.819949 1.95935 0
M  V30 3261 H 322.685 0.307493 0.896745 0
M  V30 3262 H 322.391 0.564956 3.47133 0
M  V30 3263 H 322.265 -1.18176 3.5821 0
M  V30 3264 H 324.652 -1.37752 2.60976 0
M  V30 3265 H 324.733 0.388167 2.52838 0
M  V30 3266 H 324.377 0.498638 5.05446 0
M  V30 3267 H 324.307 -1.2807 5.10789 0
M  V30 3268 H 326.798 -0.522338 3.74273 0
M  V30 3269 H 327.111 -0.44539 7.71515 0
M  V30 3270 H 325.456 -0.40749 6.93804 0
M  V30 3271 H 328.647 -0.563464 4.64696 0
M  V30 3272 H 328.82 -0.528603 6.4584 0
M  V30 3273 N 322.226 -1.5378 -0.344866 0
M  V30 3274 C 323.173 -1.81676 -1.42346 0
M  V30 3275 C 324.143 -0.662376 -1.52321 0
M  V30 3276 O 325.328 -0.906675 -1.67881 0
M  V30 3277 C 322.468 -2.03087 -2.79015 0
M  V30 3278 C 321.581 -3.30799 -2.77842 0
M  V30 3279 C 320.716 -3.42285 -4.0622 0
M  V30 3280 C 319.755 -4.6395 -3.9927 0
M  V30 3281 N 318.892 -4.72477 -5.19336 0
M  V30 3282 H 323.732 -2.73703 -1.17858 0
M  V30 3283 H 321.269 -1.35568 -0.570949 0
M  V30 3284 H 323.227 -2.1349 -3.58438 0
M  V30 3285 H 321.857 -1.14375 -3.01858 0
M  V30 3286 H 320.909 -3.29244 -1.90533 0
M  V30 3287 H 322.221 -4.20314 -2.68584 0
M  V30 3288 H 321.375 -3.52113 -4.94066 0
M  V30 3289 H 320.114 -2.50823 -4.18258 0
M  V30 3290 H 319.119 -4.54201 -3.09809 0
M  V30 3291 H 320.344 -5.56775 -3.88817 0
M  V30 3292 H 318.29 -3.83924 -5.3192 0
M  V30 3293 H 318.207 -5.55927 -5.12329 0
M  V30 3294 H 319.475 -4.86613 -6.08957 0
M  V30 3295 N 323.704 0.605807 -1.45491 0
M  V30 3296 C 324.634 1.72709 -1.57143 0
M  V30 3297 C 325.615 1.6476 -0.422884 0
M  V30 3298 O 326.8 1.83132 -0.646247 0
M  V30 3299 C 323.93 3.11316 -1.53948 0
M  V30 3300 C 322.884 3.34077 -2.67537 0
M  V30 3301 C 322.21 4.72975 -2.49397 0
M  V30 3302 C 323.51 3.24158 -4.09535 0
M  V30 3303 H 325.204 1.63214 -2.51001 0
M  V30 3304 H 322.75 0.78379 -1.208 0
M  V30 3305 H 324.703 3.89557 -1.60696 0
M  V30 3306 H 323.427 3.21655 -0.566205 0
M  V30 3307 H 322.086 2.58227 -2.6022 0
M  V30 3308 H 321.734 4.8005 -1.50205 0
M  V30 3309 H 321.434 4.8916 -3.25571 0
M  V30 3310 H 322.958 5.53414 -2.58002 0
M  V30 3311 H 324.372 3.92271 -4.18086 0
M  V30 3312 H 322.769 3.51872 -4.86113 0
M  V30 3313 H 323.839 2.2157 -4.31317 0
M  V30 3314 N 325.182 1.32811 0.848464 0
M  V30 3315 C 326.598 1.11937 1.13764 0
M  V30 3316 C 326.798 -0.0960789 2.01271 0
M  V30 3317 O 325.854 -0.779165 2.40178 0
M  V30 3318 C 327.167 2.402 1.809 0
M  V30 3319 C 328.715 2.46016 1.93508 0
M  V30 3320 C 329.19 3.74215 2.64059 0
M  V30 3321 N 330.681 3.75232 2.71579 0
M  V30 3322 C 331.416 4.71134 3.26833 0
M  V30 3323 N 330.912 5.77406 3.8285 0
M  V30 3324 N 332.705 4.58623 3.24995 0
M  V30 3325 H 324.856 2.1073 0.265855 0
M  V30 3326 H 327.119 0.930671 0.180431 0
M  V30 3327 H 326.825 3.29093 1.24058 0
M  V30 3328 H 326.699 2.51628 2.81004 0
M  V30 3329 H 329.086 1.57577 2.49506 0
M  V30 3330 H 329.167 2.38536 0.923811 0
M  V30 3331 H 328.811 4.63031 2.08722 0
M  V30 3332 H 328.741 3.78968 3.65637 0
M  V30 3333 H 331.232 2.98423 2.31845 0
M  V30 3334 H 331.545 6.46632 4.23187 0
M  V30 3335 H 329.89 5.81152 3.81165 0
M  V30 3336 H 333.081 3.74762 2.80484 0
M  V30 3337 H 333.254 5.33535 3.67756 0
M  V30 3338 N 326.66 -1.06551 1.16123 0
M  V30 3339 C 327.623 -2.12132 0.867906 0
M  V30 3340 C 328.623 -1.60224 -0.135944 0
M  V30 3341 O 329.813 -1.73943 0.0946422 0
M  V30 3342 C 326.945 -3.396 0.297419 0
M  V30 3343 H 328.138 -2.39586 1.80385 0
M  V30 3344 H 325.691 -1.22574 0.969812 0
M  V30 3345 H 326.426 -3.17794 -0.64633 0
M  V30 3346 H 326.211 -3.78581 1.02073 0
M  V30 3347 H 327.701 -4.17455 0.110052 0
M  V30 3348 N 328.138 -0.959301 -1.25041 0
M  V30 3349 C 329.101 -0.487677 -2.23952 0
M  V30 3350 C 330.101 0.41119 -1.55454 0
M  V30 3351 O 331.291 0.207825 -1.72956 0
M  V30 3352 C 328.423 0.294807 -3.39623 0
M  V30 3353 H 329.616 -1.36198 -2.67189 0
M  V30 3354 H 327.169 -0.743042 -1.37508 0
M  V30 3355 H 327.904 1.18658 -3.01813 0
M  V30 3356 H 327.689 -0.35012 -3.90534 0
M  V30 3357 H 329.179 0.614089 -4.1306 0
M  V30 3358 N 329.616 1.39756 -0.72842 0
M  V30 3359 C 330.862 2.01425 -0.282761 0
M  V30 3360 C 331.217 1.56754 1.11561 0
M  V30 3361 O 330.51 0.783482 1.74849 0
M  V30 3362 C 330.704 3.56002 -0.315776 0
M  V30 3363 C 330.533 4.1568 -1.71582 0
M  V30 3364 C 329.303 4.48555 -2.32651 0
M  V30 3365 C 331.501 4.39667 -2.66829 0
M  V30 3366 N 329.483 4.93698 -3.64877 0
M  V30 3367 C 330.854 4.86942 -3.8378 0
M  V30 3368 C 332.909 4.21724 -2.64675 0
M  V30 3369 C 331.612 5.18158 -4.98904 0
M  V30 3370 C 333.638 4.54049 -3.78937 0
M  V30 3371 C 333 5.01525 -4.94623 0
M  V30 3372 H 329.099 0.76756 -0.149583 0
M  V30 3373 H 331.683 1.69784 -0.952976 0
M  V30 3374 H 329.854 3.87046 0.324057 0
M  V30 3375 H 331.586 4.0443 0.147808 0
M  V30 3376 H 328.341 4.36128 -1.84633 0
M  V30 3377 H 328.765 5.20635 -4.32744 0
M  V30 3378 H 333.407 3.84228 -1.76433 0
M  V30 3379 H 331.125 5.54562 -5.87781 0
M  V30 3380 H 334.711 4.41795 -3.78561 0
M  V30 3381 H 333.591 5.26065 -5.81572 0
M  V30 3382 N 331.094 0.475555 1.50254 0
M  V30 3383 C 332.34 -0.0780073 2.0265 0
M  V30 3384 C 332.673 -1.38968 1.35652 0
M  V30 3385 O 331.948 -1.8839 0.483691 0
M  V30 3386 C 332.231 -0.257161 3.59181 0
M  V30 3387 C 332.084 1.07585 4.36744 0
M  V30 3388 C 333.403 -1.00965 4.28362 0
M  V30 3389 H 330.522 -0.0268758 0.73651 0
M  V30 3390 H 333.164 0.622015 1.7953 0
M  V30 3391 H 331.314 -0.853412 3.79011 0
M  V30 3392 H 332.986 1.70902 4.28474 0
M  V30 3393 H 331.229 1.6714 4.00308 0
M  V30 3394 H 331.9 0.904088 5.44546 0
M  V30 3395 H 334.376 -0.504214 4.13034 0
M  V30 3396 H 333.252 -1.10381 5.37687 0
M  V30 3397 H 333.513 -2.04731 3.91839 0
M  V30 3398 N 332.573 -1.56217 0.208337 0
M  V30 3399 C 333.536 -2.18455 -0.693557 0
M  V30 3400 C 334.536 -1.14268 -1.13135 0
M  V30 3401 O 335.726 -1.39577 -1.0423 0
M  V30 3402 C 332.858 -2.79727 -1.94848 0
M  V30 3403 H 334.051 -2.99519 -0.15114 0
M  V30 3404 H 331.604 -1.56245 -0.041287 0
M  V30 3405 H 332.339 -2.02497 -2.53309 0
M  V30 3406 H 332.124 -3.56009 -1.64316 0
M  V30 3407 H 333.614 -3.27475 -2.59133 0
M  V30 3408 N 334.051 0.0651679 -1.57465 0
M  V30 3409 C 335.299 0.761555 -1.87202 0
M  V30 3410 C 335.62 1.77778 -0.801243 0
M  V30 3411 O 334.89 1.95166 0.16937 0
M  V30 3412 H 333.47 0.284251 -0.690804 0
M  V30 3413 H 336.132 0.0396827 -1.9486 0
M  V30 3414 H 335.228 1.27365 -2.84929 0
M  V30 3415 N 335.529 1.53961 0.336706 0
M  V30 3416 C 336.777 1.71197 1.07405 0
M  V30 3417 C 337.098 0.481475 1.88962 0
M  V30 3418 O 336.368 -0.504585 1.8929 0
M  V30 3419 H 334.948 0.631185 0.399517 0
M  V30 3420 H 337.61 1.91232 0.376323 0
M  V30 3421 H 336.706 2.58587 1.74755 0
M  V30 3422 N 337.007 -0.598083 1.45811 0
M  V30 3423 C 337.97 -1.69018 1.54808 0
M  V30 3424 C 338.97 -1.55037 0.426652 0
M  V30 3425 O 340.16 -1.59932 0.690456 0
M  V30 3426 C 337.292 -3.0835 1.45371 0
M  V30 3427 H 338.485 -1.62403 2.52121 0
M  V30 3428 H 336.038 -0.814626 1.33392 0
M  V30 3429 H 336.773 -3.20534 0.492793 0
M  V30 3430 H 336.558 -3.19907 2.26721 0
M  V30 3431 H 338.048 -3.8788 1.54721 0
M  V30 3432 N 338.485 -1.33259 -0.841409 0
M  V30 3433 C 339.415 -1.25926 -1.96634 0
M  V30 3434 C 340.396 -0.140349 -1.6952 0
M  V30 3435 O 341.581 -0.329707 -1.91381 0
M  V30 3436 C 338.711 -0.99512 -3.32738 0
M  V30 3437 C 337.665 -2.0767 -3.74242 0
M  V30 3438 C 336.991 -1.66474 -5.08125 0
M  V30 3439 C 338.291 -3.49318 -3.88297 0
M  V30 3440 H 339.985 -2.20046 -2.03027 0
M  V30 3441 H 337.531 -1.05931 -0.975425 0
M  V30 3442 H 339.484 -0.930323 -4.11002 0
M  V30 3443 H 338.208 -0.0183004 -3.26595 0
M  V30 3444 H 336.867 -2.13187 -2.98239 0
M  V30 3445 H 336.515 -0.675012 -4.9845 0
M  V30 3446 H 336.215 -2.3885 -5.36865 0
M  V30 3447 H 337.739 -1.61455 -5.88867 0
M  V30 3448 H 339.153 -3.46316 -4.56879 0
M  V30 3449 H 337.55 -4.20158 -4.28471 0
M  V30 3450 H 338.62 -3.8801 -2.9082 0
M  V30 3451 N 339.963 1.05934 -1.16686 0
M  V30 3452 C 340.893 2.1546 -0.899949 0
M  V30 3453 C 341.874 1.69391 0.155154 0
M  V30 3454 O 343.059 1.94199 0.00648693 0
M  V30 3455 C 340.189 3.44939 -0.404241 0
M  V30 3456 C 339.143 4.04536 -1.39767 0
M  V30 3457 C 338.469 5.29268 -0.760216 0
M  V30 3458 C 339.769 4.42893 -2.76845 0
M  V30 3459 H 341.463 2.38046 -1.81588 0
M  V30 3460 H 339.009 1.14404 -0.874514 0
M  V30 3461 H 340.962 4.20901 -0.204971 0
M  V30 3462 H 339.686 3.21983 0.547206 0
M  V30 3463 H 338.345 3.30635 -1.58355 0
M  V30 3464 H 337.993 5.02611 0.197831 0
M  V30 3465 H 337.693 5.70101 -1.42332 0
M  V30 3466 H 339.217 6.07924 -0.57105 0
M  V30 3467 H 340.631 5.09921 -2.62019 0
M  V30 3468 H 339.028 4.94721 -3.39663 0
M  V30 3469 H 340.098 3.53584 -3.31823 0
M  V30 3470 N 341.441 0.965919 1.2453 0
M  V30 3471 C 342.669 0.644385 1.96609 0
M  V30 3472 C 343.084 -0.785823 1.71669 0
M  V30 3473 O 342.441 -1.52703 0.999399 0
M  V30 3474 C 342.492 0.907375 3.49927 0
M  V30 3475 O 342.213 2.28136 3.74013 0
M  V30 3476 C 343.714 0.599784 4.39224 0
M  V30 3477 H 340.934 0.240588 0.626385 0
M  V30 3478 H 343.478 1.29337 1.58405 0
M  V30 3479 H 341.633 0.304631 3.862 0
M  V30 3480 H 342.047 2.36002 4.68405 0
M  V30 3481 H 343.521 0.834263 5.45659 0
M  V30 3482 H 343.998 -0.465921 4.36722 0
M  V30 3483 H 344.604 1.18235 4.08535 0
M  V30 3484 N 342.919 -1.39368 0.735821 0
M  V30 3485 C 343.849 -2.33234 0.111506 0
M  V30 3486 C 344.83 -1.53954 -0.723334 0
M  V30 3487 O 346.015 -1.82344 -0.668147 0
M  V30 3488 C 343.145 -3.38057 -0.795917 0
M  V30 3489 C 342.099 -4.2795 -0.065172 0
M  V30 3490 C 341.425 -5.23479 -1.08967 0
M  V30 3491 C 342.725 -5.10741 1.09273 0
M  V30 3492 H 344.419 -2.85692 0.895571 0
M  V30 3493 H 341.965 -1.37364 0.432109 0
M  V30 3494 H 343.918 -4.02675 -1.24221 0
M  V30 3495 H 342.642 -2.8404 -1.61211 0
M  V30 3496 H 341.301 -3.64813 0.361511 0
M  V30 3497 H 340.949 -4.65758 -1.89944 0
M  V30 3498 H 340.649 -5.84472 -0.605489 0
M  V30 3499 H 342.173 -5.90974 -1.53565 0
M  V30 3500 H 343.587 -5.68699 0.724841 0
M  V30 3501 H 341.984 -5.8088 1.50659 0
M  V30 3502 H 343.054 -4.45525 1.91404 0
M  V30 3503 N 344.397 -0.483516 -1.5 0
M  V30 3504 C 345.327 0.293829 -2.31644 0
M  V30 3505 C 346.308 0.978864 -1.39112 0
M  V30 3506 O 347.493 0.973644 -1.68029 0
M  V30 3507 C 344.623 1.36897 -3.19181 0
M  V30 3508 C 343.577 0.804833 -4.20365 0
M  V30 3509 C 342.903 1.9792 -4.96721 0
M  V30 3510 C 344.203 -0.192313 -5.21946 0
M  V30 3511 H 345.897 -0.387616 -2.9688 0
M  V30 3512 H 343.443 -0.187856 -1.42769 0
M  V30 3513 H 345.396 1.92037 -3.751 0
M  V30 3514 H 344.12 2.07936 -2.51853 0
M  V30 3515 H 342.779 0.275319 -3.65565 0
M  V30 3516 H 342.427 2.67686 -4.25856 0
M  V30 3517 H 342.127 1.60789 -5.65173 0
M  V30 3518 H 343.651 2.53526 -5.55479 0
M  V30 3519 H 345.065 0.270333 -5.72662 0
M  V30 3520 H 343.462 -0.478543 -5.98189 0
M  V30 3521 H 344.532 -1.11409 -4.71928 0
M  V30 3522 N 345.875 1.56104 -0.216619 0
M  V30 3523 C 346.805 2.23063 0.690296 0
M  V30 3524 C 347.786 1.20072 1.20485 0
M  V30 3525 O 348.971 1.48643 1.24976 0
M  V30 3526 C 346.101 2.90672 1.90072 0
M  V30 3527 C 345.055 4.00092 1.5202 0
M  V30 3528 C 344.381 4.54972 2.80899 0
M  V30 3529 C 345.681 5.17398 0.71391 0
M  V30 3530 H 347.375 2.99109 0.132038 0
M  V30 3531 H 344.921 1.43866 0.0620664 0
M  V30 3532 H 346.874 3.36204 2.54057 0
M  V30 3533 H 345.598 2.12066 2.48386 0
M  V30 3534 H 344.257 3.55283 0.903839 0
M  V30 3535 H 343.905 3.73102 3.37348 0
M  V30 3536 H 343.605 5.28817 2.56176 0
M  V30 3537 H 345.129 5.0322 3.45836 0
M  V30 3538 H 346.543 5.59342 1.25735 0
M  V30 3539 H 344.94 5.97444 0.563951 0
M  V30 3540 H 346.01 4.84088 -0.280527 0
M  V30 3541 N 347.353 -0.0568162 1.57498 0
M  V30 3542 C 348.593 -0.758273 1.89815 0
M  V30 3543 C 348.957 -1.73978 0.812132 0
M  V30 3544 O 350.158 -2.48744 1.01881 0
M  V30 3545 C 348.429 -1.43465 3.27342 0
M  V30 3546 S 349.988 -2.1691 3.81439 0
M  V30 3547 H 346.806 -0.251836 0.664906 0
M  V30 3548 H 349.408 -0.0137997 1.95495 0
M  V30 3549 H 348.112 -0.706693 4.0427 0
M  V30 3550 H 347.643 -2.21825 3.24896 0
M  V30 3551 H 349.658 -3.43658 3.5793 0
M  V30 3552 N 348.832 -1.54138 -0.328536 0
M  V30 3553 C 350.078 -1.7236 -1.06865 0
M  V30 3554 C 350.411 -0.493231 -1.87832 0
M  V30 3555 O 349.686 0.5098 -1.877 0
M  V30 3556 C 349.969 -2.99621 -1.99747 0
M  V30 3557 C 349.822 -4.32899 -1.22143 0
M  V30 3558 C 351.141 -3.22615 -2.99345 0
M  V30 3559 H 348.26 -0.627151 -0.387105 0
M  V30 3560 H 350.902 -1.86827 -0.345767 0
M  V30 3561 H 349.052 -2.87418 -2.61387 0
M  V30 3562 H 350.724 -4.56978 -0.630017 0
M  V30 3563 H 348.967 -4.30628 -0.523628 0
M  V30 3564 H 349.638 -5.18154 -1.90318 0
M  V30 3565 H 352.114 -3.34248 -2.47826 0
M  V30 3566 H 350.99 -4.13027 -3.61524 0
M  V30 3567 H 351.251 -2.3961 -3.71536 0
M  V30 3568 N 350.31 0.590341 -1.46126 0
M  V30 3569 C 351.558 1.34616 -1.50742 0
M  V30 3570 C 351.879 1.94363 -0.157486 0
M  V30 3571 O 351.149 1.78136 0.815136 0
M  V30 3572 H 349.729 0.499789 -0.555175 0
M  V30 3573 H 352.391 0.691953 -1.82203 0
M  V30 3574 H 351.487 2.15678 -2.25587 0
M  V30 3575 N 351.788 1.33704 0.83433 0
M  V30 3576 C 353.199 1.22813 1.4062 0
M  V30 3577 C 353.55 -0.151107 1.95617 0
M  V30 3578 O 352.675 -1.05092 1.89168 0
M  V30 3579 C 353.27 2.22355 2.55624 0
M  V30 3580 C 351.829 2.1529 3.08751 0
M  V30 3581 C 350.976 2.09589 1.8157 0
M  V30 3582 H 353.927 1.45236 0.639702 0
M  V30 3583 H 353.948 1.83391 3.33389 0
M  V30 3584 H 353.46 3.22728 2.15566 0
M  V30 3585 H 351.561 1.18235 3.53343 0
M  V30 3586 H 351.674 3.06038 3.68616 0
M  V30 3587 H 350.038 1.55134 2.02004 0
M  V30 3588 H 350.821 3.11777 1.43701 0
M  V30 3589 N 353.266 -1.05314 1.17247 0
M  V30 3590 C 354.496 -1.81707 0.983166 0
M  V30 3591 C 354.904 -1.83222 -0.471822 0
M  V30 3592 O 354.247 -1.25721 -1.3394 0
M  V30 3593 C 354.309 -3.29134 1.44606 0
M  V30 3594 C 353.973 -3.51304 2.92292 0
M  V30 3595 C 354.97 -3.4353 3.90235 0
M  V30 3596 C 352.655 -3.78306 3.30439 0
M  V30 3597 C 354.649 -3.62442 5.24323 0
M  V30 3598 C 352.336 -3.96866 4.64694 0
M  V30 3599 C 353.334 -3.88933 5.61445 0
M  V30 3600 O 353.022 -4.06976 6.93272 0
M  V30 3601 H 352.754 -0.579476 0.348114 0
M  V30 3602 H 355.308 -1.33705 1.55924 0
M  V30 3603 H 353.538 -3.78046 0.813537 0
M  V30 3604 H 355.227 -3.87049 1.22262 0
M  V30 3605 H 355.993 -3.22648 3.62109 0
M  V30 3606 H 351.872 -3.83585 2.55702 0
M  V30 3607 H 355.416 -3.56165 5.99827 0
M  V30 3608 H 351.313 -4.1724 4.92525 0
M  V30 3609 H 352.081 -4.24209 6.99992 0
M  V30 3610 N 354.744 -0.972509 -1.24016 0
M  V30 3611 C 355.692 -0.498562 -2.27194 0
M  V30 3612 C 356.686 0.440372 -1.63576 0
M  V30 3613 O 357.892 0.315133 -1.7722 0
M  V30 3614 H 354.267 -0.142775 -0.738322 0
M  V30 3615 H 356.238 -1.38065 -2.64539 0
M  V30 3616 C 354.987 0.191072 -3.47175 0
M  V30 3617 H 354.31 -0.522318 -3.96373 0
M  V30 3618 H 355.75 0.486445 -4.212 0
M  V30 3619 C 354.209 1.41967 -3.05527 0
M  V30 3620 O 354.739 2.51642 -3.13112 0
M  V30 3621 N 352.945 1.28746 -2.60524 0
M  V30 3622 H 352.492 0.395089 -2.54552 0
M  V30 3623 H 352.45 2.11061 -2.33025 0
M  V30 3624 N 356.222 1.38976 -0.743202 0
M  V30 3625 C 357.185 2.28901 -0.117014 0
M  V30 3626 C 358.185 1.46698 0.658503 0
M  V30 3627 O 359.375 1.67274 0.486305 0
M  V30 3628 C 356.507 3.30309 0.84315 0
M  V30 3629 H 357.7 2.8578 -0.909373 0
M  V30 3630 H 355.253 1.47761 -0.509547 0
M  V30 3631 H 355.988 2.785 1.66157 0
M  V30 3632 H 355.773 3.91029 0.289594 0
M  V30 3633 H 357.263 3.97577 1.2776 0
M  V30 3634 N 357.7 0.491464 1.49741 0
M  V30 3635 C 358.925 -0.0557177 2.07325 0
M  V30 3636 C 359.35 -1.30925 1.35056 0
M  V30 3637 O 358.708 -1.76733 0.404365 0
M  V30 3638 C 358.756 -0.302074 3.59333 0
M  V30 3639 O 357.86 -1.37868 3.88672 0
M  V30 3640 H 357.201 0.0219956 0.663636 0
M  V30 3641 H 359.731 0.688352 1.92673 0
M  V30 3642 H 359.741 -0.536464 4.04458 0
M  V30 3643 H 358.416 0.61383 4.11345 0
M  V30 3644 H 356.993 -1.12999 3.55367 0
M  V30 3645 N 359.178 -1.55987 0.224894 0
M  V30 3646 C 360.126 -2.21808 -0.700283 0
M  V30 3647 C 361.12 -1.19854 -1.19714 0
M  V30 3648 O 362.326 -1.37925 -1.15658 0
M  V30 3649 H 358.701 -0.711226 -0.244258 0
M  V30 3650 H 360.672 -2.98152 -0.121749 0
M  V30 3651 C 359.421 -2.91444 -1.8962 0
M  V30 3652 H 358.744 -3.69655 -1.52299 0
M  V30 3653 H 360.184 -3.40894 -2.52125 0
M  V30 3654 C 358.643 -1.94098 -2.75368 0
M  V30 3655 O 359.173 -1.46004 -3.74227 0
M  V30 3656 N 357.379 -1.61675 -2.41474 0
M  V30 3657 H 356.926 -2.00979 -1.61137 0
M  V30 3658 H 356.884 -0.968036 -2.99126 0
M  V30 3659 N 360.656 0.0484629 -1.57525 0
M  V30 3660 C 361.902 0.744226 -1.88651 0
M  V30 3661 C 362.235 1.76029 -0.820212 0
M  V30 3662 O 361.51 1.93782 0.166985 0
M  V30 3663 C 361.793 1.43128 -3.30434 0
M  V30 3664 C 361.646 0.43005 -4.47739 0
M  V30 3665 C 362.965 2.37031 -3.70816 0
M  V30 3666 H 360.084 0.269089 -0.68612 0
M  V30 3667 H 362.726 0.00713532 -1.89999 0
M  V30 3668 H 360.876 2.05956 -3.29415 0
M  V30 3669 H 362.548 -0.194816 -4.60888 0
M  V30 3670 H 360.791 -0.252522 -4.33064 0
M  V30 3671 H 361.462 0.948874 -5.43783 0
M  V30 3672 H 363.938 1.84263 -3.73077 0
M  V30 3673 H 362.814 2.82094 -4.70865 0
M  V30 3674 H 363.075 3.22864 -3.02012 0
M  V30 3675 N 362.134 1.5431 0.320358 0
M  V30 3676 C 363.097 1.83195 1.3774 0
M  V30 3677 C 364.097 0.703906 1.44575 0
M  V30 3678 O 365.287 0.972214 1.44546 0
M  V30 3679 C 362.419 1.99487 2.76438 0
M  V30 3680 H 363.612 2.77642 1.1338 0
M  V30 3681 H 361.165 1.46076 0.556012 0
M  V30 3682 H 361.9 1.07262 3.06048 0
M  V30 3683 H 361.685 2.81575 2.7287 0
M  V30 3684 H 363.175 2.23271 3.52902 0
M  V30 3685 N 363.613 -0.582584 1.46437 0
M  V30 3686 C 364.838 -1.37168 1.55563 0
M  V30 3687 C 365.263 -1.87061 0.19743 0
M  V30 3688 O 364.621 -1.61572 -0.822451 0
M  V30 3689 C 364.669 -2.53511 2.56446 0
M  V30 3690 O 363.773 -3.54953 2.09958 0
M  V30 3691 H 363.114 -0.408494 0.523477 0
M  V30 3692 H 365.644 -0.706646 1.9201 0
M  V30 3693 H 365.654 -3.00426 2.76058 0
M  V30 3694 H 364.329 -2.16549 3.55076 0
M  V30 3695 H 362.906 -3.14516 2.00334 0
M  V30 3696 N 365.091 -1.34144 -0.827227 0
M  V30 3697 C 366.338 -1.26258 -1.58319 0
M  V30 3698 C 366.666 0.168595 -1.93768 0
M  V30 3699 O 365.921 1.12877 -1.59866 0
M  V30 3700 C 366.22 -2.09464 -2.89585 0
M  V30 3701 C 365.886 -3.58521 -2.73448 0
M  V30 3702 C 364.548 -3.99155 -2.68754 0
M  V30 3703 C 366.9 -4.53189 -2.57428 0
M  V30 3704 C 364.228 -5.32656 -2.45957 0
M  V30 3705 C 366.58 -5.86864 -2.36163 0
M  V30 3706 C 365.244 -6.26667 -2.29879 0
M  V30 3707 H 364.514 -0.462013 -0.579332 0
M  V30 3708 H 367.161 -1.65845 -0.95748 0
M  V30 3709 H 365.466 -1.62692 -3.56425 0
M  V30 3710 H 367.163 -2.00712 -3.47154 0
M  V30 3711 H 363.753 -3.26264 -2.77939 0
M  V30 3712 H 367.937 -4.22696 -2.60081 0
M  V30 3713 H 363.193 -5.62519 -2.39546 0
M  V30 3714 H 367.367 -6.59813 -2.22754 0
M  V30 3715 H 364.994 -7.30049 -2.11975 0
M  V30 3716 N 366.569 1.04691 -1.17803 0
M  V30 3717 C 367.499 2.14494 -0.92275 0
M  V30 3718 C 368.48 1.69546 0.137179 0
M  V30 3719 O 369.665 1.94195 -0.0141108 0
M  V30 3720 C 366.795 3.44491 -0.440803 0
M  V30 3721 C 365.749 4.03031 -1.4405 0
M  V30 3722 C 365.075 5.28432 -0.81631 0
M  V30 3723 C 366.375 4.39932 -2.81527 0
M  V30 3724 H 368.069 2.36107 -1.84103 0
M  V30 3725 H 365.615 1.1347 -0.886599 0
M  V30 3726 H 367.568 4.2066 -0.249602 0
M  V30 3727 H 366.292 3.22546 0.513025 0
M  V30 3728 H 364.951 3.28937 -1.61853 0
M  V30 3729 H 364.599 5.02792 0.144511 0
M  V30 3730 H 364.299 5.68559 -1.48371 0
M  V30 3731 H 365.823 6.07284 -0.635496 0
M  V30 3732 H 367.237 5.07113 -2.67412 0
M  V30 3733 H 365.634 4.9109 -3.44892 0
M  V30 3734 H 366.704 3.50045 -3.35554 0
M  V30 3735 N 368.047 0.979072 1.23499 0
M  V30 3736 C 369.277 0.664237 1.95631 0
M  V30 3737 C 369.685 -0.772653 1.72704 0
M  V30 3738 O 369.028 -1.53141 1.01457 0
M  V30 3739 C 369.09 0.873115 3.48736 0
M  V30 3740 C 368.754 2.29182 3.95379 0
M  V30 3741 C 369.751 3.2704 4.04155 0
M  V30 3742 C 367.436 2.62256 4.28401 0
M  V30 3743 C 369.43 4.56052 4.45304 0
M  V30 3744 C 367.117 3.91491 4.69231 0
M  V30 3745 C 368.115 4.88201 4.77649 0
M  V30 3746 O 367.803 6.15129 5.17563 0
M  V30 3747 H 367.535 0.245915 0.629684 0
M  V30 3748 H 370.089 1.3127 1.57979 0
M  V30 3749 H 368.319 0.167476 3.86337 0
M  V30 3750 H 370.008 0.555642 4.02079 0
M  V30 3751 H 370.774 3.02819 3.78848 0
M  V30 3752 H 366.653 1.87692 4.21061 0
M  V30 3753 H 370.197 5.31538 4.51789 0
M  V30 3754 H 366.094 4.15508 4.93987 0
M  V30 3755 H 366.862 6.18862 5.35679 0
M  V30 3756 N 369.525 -1.3858 0.750561 0
M  V30 3757 C 370.936 -1.82927 0.373438 0
M  V30 3758 C 371.287 -1.62634 -1.09748 0
M  V30 3759 O 370.412 -1.12588 -1.84805 0
M  V30 3760 C 371.007 -3.32088 0.671029 0
M  V30 3761 C 369.566 -3.74795 0.34722 0
M  V30 3762 C 368.713 -2.61391 0.92575 0
M  V30 3763 H 371.664 -1.27351 0.946958 0
M  V30 3764 H 371.685 -3.80465 -0.0518269 0
M  V30 3765 H 371.197 -3.46826 1.74164 0
M  V30 3766 H 369.298 -3.65638 -0.716933 0
M  V30 3767 H 369.411 -4.71667 0.840656 0
M  V30 3768 H 367.775 -2.52265 0.351327 0
M  V30 3769 H 368.558 -2.78929 2.00133 0
M  V30 3770 N 371.003 -0.499398 -1.49478 0
M  V30 3771 C 371.951 0.293604 -2.3074 0
M  V30 3772 C 372.945 0.96427 -1.39277 0
M  V30 3773 O 374.151 0.892141 -1.56336 0
M  V30 3774 H 370.526 0.113541 -0.743379 0
M  V30 3775 H 372.497 -0.411772 -2.95545 0
M  V30 3776 C 371.246 1.3462 -3.20582 0
M  V30 3777 H 370.569 0.83954 -3.90886 0
M  V30 3778 H 372.009 1.87308 -3.80384 0
M  V30 3779 C 370.468 2.36351 -2.40083 0
M  V30 3780 O 370.998 3.422 -2.10385 0
M  V30 3781 N 369.204 2.0878 -2.02137 0
M  V30 3782 H 368.751 1.22723 -2.26488 0
M  V30 3783 H 368.709 2.77075 -1.48583 0
M  V30 3784 N 372.481 1.55866 -0.233164 0
M  V30 3785 C 373.411 2.23783 0.666599 0
M  V30 3786 C 374.392 1.21343 1.19205 0
M  V30 3787 O 375.577 1.4996 1.23392 0
M  V30 3788 C 372.707 2.92671 1.86978 0
M  V30 3789 C 371.661 4.01682 1.47768 0
M  V30 3790 C 370.987 4.57926 2.76058 0
M  V30 3791 C 372.287 5.18126 0.658993 0
M  V30 3792 H 373.981 2.99232 0.100306 0
M  V30 3793 H 371.527 1.43924 0.046804 0
M  V30 3794 H 373.48 3.3888 2.50476 0
M  V30 3795 H 372.204 2.14688 2.46123 0
M  V30 3796 H 370.863 3.56222 0.866106 0
M  V30 3797 H 370.511 3.76659 3.33372 0
M  V30 3798 H 370.211 5.31505 2.50552 0
M  V30 3799 H 371.735 5.06859 3.40479 0
M  V30 3800 H 373.149 5.60644 1.19795 0
M  V30 3801 H 371.546 5.98009 0.500552 0
M  V30 3802 H 372.616 4.83763 -0.331856 0
M  V30 3803 N 373.959 -0.0401083 1.57549 0
M  V30 3804 C 375.207 -0.731677 1.8839 0
M  V30 3805 C 375.528 -1.76481 0.829425 0
M  V30 3806 O 374.798 -1.95411 -0.1383 0
M  V30 3807 H 373.378 -0.273225 0.695239 0
M  V30 3808 H 376.04 -0.00867725 1.94898 0
M  V30 3809 H 375.136 -1.22816 2.86919 0
M  V30 3810 N 375.437 -1.54477 -0.31217 0
M  V30 3811 C 376.685 -1.72884 -1.04668 0
M  V30 3812 C 377.006 -0.511477 -1.88173 0
M  V30 3813 O 376.276 0.474407 -1.90069 0
M  V30 3814 H 374.856 -0.637461 -0.389425 0
M  V30 3815 H 377.518 -1.91807 -0.345852 0
M  V30 3816 H 376.614 -2.61334 -1.70619 0
M  V30 3817 N 376.915 0.57481 -1.46744 0
M  V30 3818 C 378.14 1.36341 -1.56288 0
M  V30 3819 C 378.565 1.86954 -0.207347 0
M  V30 3820 O 377.923 1.62006 0.813871 0
M  V30 3821 C 377.971 2.52147 -2.57787 0
M  V30 3822 O 377.075 3.53834 -2.11838 0
M  V30 3823 H 376.416 0.405713 -0.525636 0
M  V30 3824 H 378.946 0.696453 -1.92382 0
M  V30 3825 H 378.956 2.98958 -2.77648 0
M  V30 3826 H 377.631 2.14663 -3.5622 0
M  V30 3827 H 376.208 3.1345 -2.01999 0
M  V30 3828 N 378.394 1.34581 0.820102 0
M  V30 3829 C 379.64 1.28294 1.57836 0
M  V30 3830 C 379.995 -0.145099 1.91852 0
M  V30 3831 O 379.288 -1.09209 1.57429 0
M  V30 3832 C 379.482 2.10997 2.8847 0
M  V30 3833 C 379.311 3.61698 2.67216 0
M  V30 3834 C 378.081 4.3097 2.63805 0
M  V30 3835 C 380.279 4.55638 2.38534 0
M  V30 3836 N 378.261 5.67502 2.34126 0
M  V30 3837 C 379.632 5.80194 2.18574 0
M  V30 3838 C 381.687 4.44523 2.24285 0
M  V30 3839 C 380.39 6.94886 1.8581 0
M  V30 3840 C 382.416 5.5905 1.92916 0
M  V30 3841 C 381.778 6.82627 1.73782 0
M  V30 3842 H 377.877 0.524697 0.579842 0
M  V30 3843 H 380.461 1.69323 0.961139 0
M  V30 3844 H 378.632 1.7226 3.48111 0
M  V30 3845 H 380.364 1.96333 3.53886 0
M  V30 3846 H 377.119 3.83438 2.77978 0
M  V30 3847 H 377.543 6.39525 2.22118 0
M  V30 3848 H 382.185 3.49599 2.37782 0
M  V30 3849 H 379.903 7.89789 1.7105 0
M  V30 3850 H 383.489 5.52396 1.82619 0
M  V30 3851 H 382.369 7.69748 1.49861 0
M  V30 3852 N 379.872 -1.04064 1.18357 0
M  V30 3853 C 381.288 -1.2947 0.933258 0
M  V30 3854 C 381.488 -1.97466 -0.401169 0
M  V30 3855 O 380.544 -2.25528 -1.13549 0
M  V30 3856 C 381.857 -2.15337 2.09882 0
M  V30 3857 C 383.405 -2.28683 2.13712 0
M  V30 3858 C 383.88 -3.17917 3.29686 0
M  V30 3859 N 385.371 -3.25504 3.29547 0
M  V30 3860 C 386.106 -3.94706 4.15926 0
M  V30 3861 N 385.602 -4.66239 5.12439 0
M  V30 3862 N 387.395 -3.90986 4.0384 0
M  V30 3863 H 379.546 -0.583359 2.04232 0
M  V30 3864 H 381.809 -0.319921 0.892387 0
M  V30 3865 H 381.515 -1.72682 3.06389 0
M  V30 3866 H 381.389 -3.16015 2.05947 0
M  V30 3867 H 383.776 -2.70575 1.17784 0
M  V30 3868 H 383.857 -1.27596 2.21705 0
M  V30 3869 H 383.501 -2.76736 4.25887 0
M  V30 3870 H 383.431 -4.19036 3.1893 0
M  V30 3871 H 385.922 -2.74547 2.59677 0
M  V30 3872 H 386.235 -5.16638 5.74722 0
M  V30 3873 H 384.58 -4.65143 5.16398 0
M  V30 3874 H 387.771 -3.34234 3.27727 0
M  V30 3875 H 387.944 -4.44646 4.71375 0
M  V30 3876 N 381.35 -0.985608 -1.22978 0
M  V30 3877 C 382.297 -0.529825 -2.24636 0
M  V30 3878 C 383.267 0.434028 -1.60329 0
M  V30 3879 O 384.452 0.340414 -1.87739 0
M  V30 3880 C 381.592 0.156533 -3.44745 0
M  V30 3881 C 380.705 -0.848197 -4.23591 0
M  V30 3882 C 379.84 -0.136109 -5.31026 0
M  V30 3883 C 378.879 -1.1297 -6.01585 0
M  V30 3884 N 378.016 -0.446415 -7.00679 0
M  V30 3885 H 382.856 -1.40148 -2.62988 0
M  V30 3886 H 380.393 -0.702168 -1.29259 0
M  V30 3887 H 382.351 0.571324 -4.1327 0
M  V30 3888 H 380.981 0.992025 -3.07179 0
M  V30 3889 H 380.033 -1.38135 -3.54433 0
M  V30 3890 H 381.345 -1.60512 -4.72268 0
M  V30 3891 H 380.499 0.335784 -6.0577 0
M  V30 3892 H 379.238 0.653373 -4.83304 0
M  V30 3893 H 378.243 -1.6123 -5.25628 0
M  V30 3894 H 379.468 -1.91993 -6.51395 0
M  V30 3895 H 377.414 0.323763 -6.55201 0
M  V30 3896 H 377.331 -1.1419 -7.47326 0
M  V30 3897 H 378.599 0.00291697 -7.795 0
M  V30 3898 N 382.828 1.3818 -0.7579 0
M  V30 3899 C 383.758 2.33027 -0.148597 0
M  V30 3900 C 384.739 1.55085 0.69875 0
M  V30 3901 O 385.924 1.83384 0.639053 0
M  V30 3902 C 383.054 3.3928 0.742034 0
M  V30 3903 C 382.008 4.28 -0.00291946 0
M  V30 3904 C 381.334 5.25146 1.00625 0
M  V30 3905 C 382.634 5.08938 -1.17385 0
M  V30 3906 H 384.328 2.84231 -0.940909 0
M  V30 3907 H 381.874 1.36659 -0.453908 0
M  V30 3908 H 383.827 4.046 1.17799 0
M  V30 3909 H 382.551 2.86569 1.56671 0
M  V30 3910 H 381.21 3.64192 -0.419504 0
M  V30 3911 H 380.858 4.68721 1.8251 0
M  V30 3912 H 380.558 5.85361 0.512428 0
M  V30 3913 H 382.082 5.93342 1.44143 0
M  V30 3914 H 383.496 5.67474 -0.815224 0
M  V30 3915 H 381.893 5.7841 -1.59882 0
M  V30 3916 H 382.963 4.42424 -1.98468 0
M  V30 3917 N 384.306 0.507319 1.49211 0
M  V30 3918 C 385.554 -0.0348839 2.0207 0
M  V30 3919 C 385.875 -1.36898 1.38866 0
M  V30 3920 O 385.145 -1.88133 0.546151 0
M  V30 3921 H 383.725 -0.0158812 0.746831 0
M  V30 3922 H 386.387 0.665998 1.83168 0
M  V30 3923 H 385.483 -0.159917 3.1169 0
M  V30 3924 N 385.784 -1.5574 0.241426 0
M  V30 3925 C 386.714 -2.24133 -0.654722 0
M  V30 3926 C 387.695 -1.21974 -1.1856 0
M  V30 3927 O 388.88 -1.50612 -1.22595 0
M  V30 3928 C 386.01 -2.93659 -1.85423 0
M  V30 3929 C 384.964 -4.0246 -1.45636 0
M  V30 3930 C 384.29 -4.59383 -2.73626 0
M  V30 3931 C 385.59 -5.18468 -0.631506 0
M  V30 3932 H 387.284 -2.99281 -0.0844353 0
M  V30 3933 H 384.83 -1.43947 -0.0391707 0
M  V30 3934 H 386.783 -3.40203 -2.48676 0
M  V30 3935 H 385.507 -2.15991 -2.44981 0
M  V30 3936 H 384.166 -3.56676 -0.847202 0
M  V30 3937 H 383.814 -3.78422 -3.3137 0
M  V30 3938 H 383.514 -5.32826 -2.4773 0
M  V30 3939 H 385.038 -5.08658 -3.37786 0
M  V30 3940 H 386.452 -5.61272 -1.1682 0
M  V30 3941 H 384.849 -5.98266 -0.468831 0
M  V30 3942 H 385.919 -4.8358 0.357506 0
M  V30 3943 N 387.262 0.0317525 -1.57568 0
M  V30 3944 C 388.511 0.722131 -1.8833 0
M  V30 3945 C 388.824 1.76664 -0.839587 0
M  V30 3946 O 390.03 2.50942 -1.03635 0
M  V30 3947 C 388.486 1.33544 -3.34207 0
M  V30 3948 C 388.094 0.327415 -4.46802 0
M  V30 3949 C 389.838 2.00585 -3.7412 0
M  V30 3950 C 387.745 0.948915 -5.83738 0
M  V30 3951 H 386.675 0.273466 -0.702661 0
M  V30 3952 H 389.326 -0.0235811 -1.83485 0
M  V30 3953 H 387.708 2.13077 -3.33788 0
M  V30 3954 H 388.882 -0.441006 -4.58685 0
M  V30 3955 H 387.197 -0.240758 -4.15703 0
M  V30 3956 H 389.794 2.47932 -4.73744 0
M  V30 3957 H 390.137 2.82285 -3.05975 0
M  V30 3958 H 390.67 1.27831 -3.76702 0
M  V30 3959 H 387.409 0.171387 -6.55276 0
M  V30 3960 H 386.929 1.68724 -5.7558 0
M  V30 3961 H 388.608 1.45705 -6.3038 0
M  V30 3962 N 388.74 1.54641 0.303973 0
M  V30 3963 C 389.968 1.77768 1.05858 0
M  V30 3964 C 390.383 0.535722 1.8104 0
M  V30 3965 O 389.74 -0.494337 1.75677 0
M  V30 3966 C 389.791 2.9834 2.04146 0
M  V30 3967 O 389.512 4.17736 1.32015 0
M  V30 3968 C 391.013 3.33832 2.91669 0
M  V30 3969 H 388.233 0.592961 0.314067 0
M  V30 3970 H 390.777 2.01583 0.344149 0
M  V30 3971 H 388.932 2.76742 2.71096 0
M  V30 3972 H 389.346 4.85693 1.97998 0
M  V30 3973 H 390.82 4.21448 3.56491 0
M  V30 3974 H 391.297 2.51857 3.59812 0
M  V30 3975 H 391.903 3.57579 2.30254 0
M  V30 3976 N 390.218 -0.567019 1.47046 0
M  V30 3977 C 391.466 -1.322 1.52864 0
M  V30 3978 C 391.787 -1.94088 0.188388 0
M  V30 3979 O 391.057 -1.7941 -0.786693 0
M  V30 3980 H 389.637 -0.490894 0.563056 0
M  V30 3981 H 392.299 -0.662879 1.83281 0
M  V30 3982 H 391.395 -2.12062 2.2899 0
M  V30 3983 N 391.696 -1.35014 -0.812953 0
M  V30 3984 C 392.659 -1.27292 -1.90602 0
M  V30 3985 C 393.659 -0.185817 -1.59723 0
M  V30 3986 O 394.849 -0.439102 -1.68575 0
M  V30 3987 C 391.981 -0.967676 -3.26877 0
M  V30 3988 H 393.174 -2.24479 -1.9887 0
M  V30 3989 H 390.727 -1.19446 -1.00808 0
M  V30 3990 H 391.462 0.0005954 -3.243 0
M  V30 3991 H 391.247 -1.75412 -3.50675 0
M  V30 3992 H 392.737 -0.939085 -4.06904 0
M  V30 3993 N 393.175 1.03435 -1.18907 0
M  V30 3994 C 394.421 1.7713 -0.99982 0
M  V30 3995 C 394.776 1.86695 0.465049 0
M  V30 3996 O 394.069 1.36866 1.34083 0
M  V30 3997 C 394.263 3.19792 -1.59586 0
M  V30 3998 C 394.092 3.24134 -3.11717 0
M  V30 3999 C 392.862 3.32398 -3.80578 0
M  V30 4000 C 395.06 3.11625 -4.09138 0
M  V30 4001 N 393.042 3.26055 -5.20155 0
M  V30 4002 C 394.413 3.12855 -5.35277 0
M  V30 4003 C 396.468 2.95713 -4.00572 0
M  V30 4004 C 395.171 2.99805 -6.53842 0
M  V30 4005 C 397.197 2.84011 -5.1874 0
M  V30 4006 C 396.559 2.8589 -6.43775 0
M  V30 4007 H 392.658 0.659683 -0.419931 0
M  V30 4008 H 395.242 1.2317 -1.50789 0
M  V30 4009 H 393.413 3.72085 -1.11389 0
M  V30 4010 H 395.145 3.81819 -1.3415 0
M  V30 4011 H 391.9 3.38392 -3.31342 0
M  V30 4012 H 392.324 3.26307 -5.93172 0
M  V30 4013 H 396.966 2.93086 -3.0473 0
M  V30 4014 H 394.684 3.01184 -7.49876 0
M  V30 4015 H 398.27 2.72744 -5.13909 0
M  V30 4016 H 397.15 2.76931 -7.33675 0
M  V30 4017 N 394.653 0.992116 1.22453 0
M  V30 4018 C 395.878 0.685644 1.95739 0
M  V30 4019 C 396.303 -0.743 1.72804 0
M  V30 4020 O 395.661 -1.50778 1.00676 0
M  V30 4021 C 395.709 0.996293 3.46564 0
M  V30 4022 O 394.813 0.0945512 4.12292 0
M  V30 4023 H 394.154 0.256694 0.612376 0
M  V30 4024 H 396.684 1.32888 1.5557 0
M  V30 4025 H 396.694 0.93781 3.97076 0
M  V30 4026 H 395.369 2.03733 3.62582 0
M  V30 4027 H 393.946 0.208451 3.72317 0
M  V30 4028 N 396.131 -1.37776 0.765217 0
M  V30 4029 C 397.377 -2.00145 0.327072 0
M  V30 4030 C 397.71 -1.60607 -1.09175 0
M  V30 4031 O 396.985 -0.849127 -1.74986 0
M  V30 4032 C 397.268 -3.57109 0.46319 0
M  V30 4033 C 397.121 -4.06576 1.92395 0
M  V30 4034 C 398.44 -4.39888 -0.136473 0
M  V30 4035 H 395.559 -0.727113 0.120316 0
M  V30 4036 H 398.201 -1.63549 0.967039 0
M  V30 4037 H 396.351 -3.88414 -0.0816358 0
M  V30 4038 H 398.023 -3.85864 2.52798 0
M  V30 4039 H 396.266 -3.59011 2.43503 0
M  V30 4040 H 396.937 -5.15639 1.97028 0
M  V30 4041 H 399.413 -4.14803 0.328317 0
M  V30 4042 H 398.289 -5.48899 -0.0110582 0
M  V30 4043 H 398.55 -4.24758 -1.22608 0
M  V30 4044 N 397.609 -0.515225 -1.4894 0
M  V30 4045 C 398.855 0.0242508 -2.02785 0
M  V30 4046 C 399.188 1.35323 -1.39289 0
M  V30 4047 O 398.463 1.87041 -0.533469 0
M  V30 4048 C 398.746 0.16184 -3.59736 0
M  V30 4049 C 398.599 -1.19127 -4.33738 0
M  V30 4050 C 399.918 0.895719 -4.30888 0
M  V30 4051 H 397.037 0.00733914 -0.736963 0
M  V30 4052 H 399.679 -0.669395 -1.77818 0
M  V30 4053 H 397.829 0.752624 -3.8114 0
M  V30 4054 H 399.501 -1.82202 -4.23792 0
M  V30 4055 H 397.744 -1.77695 -3.95736 0
M  V30 4056 H 398.415 -1.04815 -5.41957 0
M  V30 4057 H 400.891 0.394528 -4.14225 0
M  V30 4058 H 399.767 0.960859 -5.40425 0
M  V30 4059 H 400.028 1.9427 -3.97129 0
M  V30 4060 N 399.087 1.5561 -0.249682 0
M  V30 4061 C 400.017 2.24477 0.642826 0
M  V30 4062 C 400.998 1.22601 1.17911 0
M  V30 4063 O 402.183 1.5126 1.21795 0
M  V30 4064 C 399.313 2.94638 1.83863 0
M  V30 4065 C 398.267 4.03227 1.435 0
M  V30 4066 C 397.593 4.60828 2.71186 0
M  V30 4067 C 398.893 5.18796 0.604002 0
M  V30 4068 H 400.587 2.99321 0.0685625 0
M  V30 4069 H 398.133 1.43965 0.0315363 0
M  V30 4070 H 400.086 3.41517 2.46868 0
M  V30 4071 H 398.81 2.17287 2.43832 0
M  V30 4072 H 397.469 3.57121 0.828275 0
M  V30 4073 H 397.117 3.80174 3.29358 0
M  V30 4074 H 396.817 5.34132 2.44901 0
M  V30 4075 H 398.341 5.10442 3.35084 0
M  V30 4076 H 399.755 5.61883 1.13842 0
M  V30 4077 H 398.152 5.98506 0.437097 0
M  V30 4078 H 399.222 4.83384 -0.383147 0
M  V30 4079 N 400.565 -0.0233959 1.57583 0
M  V30 4080 C 401.513 -1.04063 2.08023 0
M  V30 4081 C 402.507 -1.37084 0.995204 0
M  V30 4082 O 403.713 -1.35923 1.18004 0
M  V30 4083 H 400.088 -0.353144 0.663922 0
M  V30 4084 H 402.059 -0.589453 2.9252 0
M  V30 4085 C 400.808 -2.33123 2.57971 0
M  V30 4086 H 400.131 -2.08577 3.4108 0
M  V30 4087 H 401.571 -3.02632 2.96967 0
M  V30 4088 C 400.03 -3.02483 1.48342 0
M  V30 4089 O 400.56 -3.92541 0.852898 0
M  V30 4090 N 398.766 -2.63909 1.21658 0
M  V30 4091 H 398.313 -1.90758 1.73116 0
M  V30 4092 H 398.271 -3.10633 0.485218 0
M  V30 4093 N 402.043 -1.548 -0.295768 0
M  V30 4094 C 403.454 -1.65274 -0.868411 0
M  V30 4095 C 403.805 -0.56481 -1.87894 0
M  V30 4096 O 402.93 0.29767 -2.14343 0
M  V30 4097 C 403.525 -2.99603 -1.58188 0
M  V30 4098 C 402.084 -3.12181 -2.10286 0
M  V30 4099 C 401.231 -2.6098 -0.93727 0
M  V30 4100 H 404.182 -1.58534 -0.0726422 0
M  V30 4101 H 404.203 -2.91319 -2.44772 0
M  V30 4102 H 403.715 -3.78764 -0.846151 0
M  V30 4103 H 401.816 -2.3775 -2.8689 0
M  V30 4104 H 401.929 -4.18415 -2.33379 0
M  V30 4105 H 400.293 -2.17564 -1.32431 0
M  V30 4106 H 401.076 -3.42623 -0.215414 0
M  V30 4107 N 403.521 0.559213 -1.47345 0
M  V30 4108 C 404.451 1.67622 -1.62558 0
M  V30 4109 C 405.432 1.63331 -0.475087 0
M  V30 4110 O 406.617 1.80983 -0.704182 0
M  V30 4111 C 403.747 3.0626 -1.63774 0
M  V30 4112 C 402.701 3.25397 -2.7803 0
M  V30 4113 C 402.027 4.64801 -2.64318 0
M  V30 4114 C 403.327 3.10965 -4.19641 0
M  V30 4115 H 405.021 1.55146 -2.56067 0
M  V30 4116 H 402.567 0.744961 -1.23233 0
M  V30 4117 H 404.52 3.84247 -1.73008 0
M  V30 4118 H 403.244 3.1969 -0.66825 0
M  V30 4119 H 401.903 2.49817 -2.68304 0
M  V30 4120 H 401.551 4.75028 -1.65401 0
M  V30 4121 H 401.251 4.78555 -3.40968 0
M  V30 4122 H 402.775 5.44926 -2.75478 0
M  V30 4123 H 404.189 3.78772 -4.30354 0
M  V30 4124 H 402.586 3.36229 -4.97062 0
M  V30 4125 H 403.656 2.07736 -4.38148 0
M  V30 4126 N 404.999 1.35443 0.805782 0
M  V30 4127 C 406.245 1.28952 1.56522 0
M  V30 4128 C 406.578 -0.135597 1.93726 0
M  V30 4129 O 405.853 -1.08516 1.61414 0
M  V30 4130 C 406.136 2.19678 2.85331 0
M  V30 4131 C 405.989 3.7081 2.54598 0
M  V30 4132 C 407.308 2.09495 3.8704 0
M  V30 4133 H 404.427 0.469764 0.567883 0
M  V30 4134 H 407.069 1.65851 0.927001 0
M  V30 4135 H 405.219 1.8834 3.39795 0
M  V30 4136 H 406.891 4.12593 2.06312 0
M  V30 4137 H 405.134 3.91051 1.8778 0
M  V30 4138 H 405.805 4.29679 3.46525 0
M  V30 4139 H 408.281 2.37045 3.41978 0
M  V30 4140 H 407.157 2.75173 4.74943 0
M  V30 4141 H 407.418 1.07714 4.28777 0
M  V30 4142 N 406.477 -1.02803 1.19454 0
M  V30 4143 C 407.705 -1.79841 1.02297 0
M  V30 4144 C 408.12 -1.83879 -0.428259 0
M  V30 4145 O 407.477 -1.28345 -1.29745 0
M  V30 4146 C 407.528 -3.24852 1.58598 0
M  V30 4147 O 407.249 -3.21097 2.98041 0
M  V30 4148 C 408.75 -4.18485 1.46236 0
M  V30 4149 H 405.97 -0.565936 0.360496 0
M  V30 4150 H 408.514 -1.2948 1.58288 0
M  V30 4151 H 406.669 -3.72401 1.06753 0
M  V30 4152 H 407.083 -4.12033 3.24545 0
M  V30 4153 H 408.557 -5.18121 1.90407 0
M  V30 4154 H 409.034 -4.37254 0.41301 0
M  V30 4155 H 409.64 -3.76811 1.97215 0
M  V30 4156 N 407.956 -0.998596 -1.21925 0
M  V30 4157 C 409.204 -0.676325 -1.90448 0
M  V30 4158 C 409.525 0.794719 -1.78071 0
M  V30 4159 O 408.795 1.5701 -1.17152 0
M  V30 4160 H 407.375 -0.247165 -0.704925 0
M  V30 4161 H 410.037 -1.26633 -1.48156 0
M  V30 4162 H 409.133 -0.943858 -2.97486 0
M  V30 4163 N 409.434 1.37368 -0.772513 0
M  V30 4164 C 410.664 2.03647 -0.348082 0
M  V30 4165 C 411.072 1.58392 1.03482 0
M  V30 4166 O 410.415 0.760921 1.672 0
M  V30 4167 C 410.477 3.58131 -0.313404 0
M  V30 4168 C 410.141 4.2652 -1.64102 0
M  V30 4169 C 411.138 4.50587 -2.5936 0
M  V30 4170 C 408.823 4.64335 -1.91567 0
M  V30 4171 C 410.817 5.11526 -3.80289 0
M  V30 4172 C 408.504 5.24996 -3.12766 0
M  V30 4173 C 409.502 5.48529 -4.06946 0
M  V30 4174 O 409.19 6.07921 -5.26011 0
M  V30 4175 H 408.922 0.660538 -0.143753 0
M  V30 4176 H 411.476 1.76669 -1.04772 0
M  V30 4177 H 409.706 3.84159 0.442617 0
M  V30 4178 H 411.395 4.05813 0.0840613 0
M  V30 4179 H 412.161 4.21784 -2.39423 0
M  V30 4180 H 408.04 4.45353 -1.19088 0
M  V30 4181 H 411.584 5.29811 -4.53813 0
M  V30 4182 H 407.481 5.53223 -3.32588 0
M  V30 4183 H 408.249 6.26398 -5.26847 0
M  V30 4184 N 410.912 0.523116 1.48665 0
M  V30 4185 C 411.842 -0.23231 2.32342 0
M  V30 4186 C 412.823 -0.941637 1.41659 0
M  V30 4187 O 414.008 -0.928751 1.70552 0
M  V30 4188 C 411.138 -1.28387 3.22698 0
M  V30 4189 C 410.092 -0.693098 4.22351 0
M  V30 4190 C 409.418 -1.8468 5.01794 0
M  V30 4191 C 410.718 0.33063 5.21252 0
M  V30 4192 H 412.412 0.466192 2.95748 0
M  V30 4193 H 409.958 0.225643 1.42221 0
M  V30 4194 H 411.911 -1.82024 3.80059 0
M  V30 4195 H 410.635 -2.01186 2.57278 0
M  V30 4196 H 409.294 -0.178299 3.66166 0
M  V30 4197 H 408.942 -2.56301 4.32804 0
M  V30 4198 H 408.642 -1.45747 5.69238 0
M  V30 4199 H 410.166 -2.38709 5.62006 0
M  V30 4200 H 411.58 -0.118407 5.73178 0
M  V30 4201 H 409.977 0.636974 5.9671 0
M  V30 4202 H 411.047 1.23883 4.68808 0
M  V30 4203 N 412.39 -1.55475 0.257931 0
M  V30 4204 C 413.638 -1.98813 -0.363009 0
M  V30 4205 C 413.959 -1.14757 -1.57657 0
M  V30 4206 O 413.229 -0.232956 -1.9451 0
M  V30 4207 H 411.809 -0.734308 -0.137113 0
M  V30 4208 H 414.471 -1.9156 0.359281 0
M  V30 4209 H 413.567 -3.04941 -0.664634 0
M  V30 4210 N 413.868 0.0150385 -1.57593 0
M  V30 4211 C 415.284 0.370907 -1.5523 0
M  V30 4212 C 415.484 1.75735 -0.985882 0
M  V30 4213 O 414.54 2.44944 -0.613077 0
M  V30 4214 C 415.853 0.259908 -2.99575 0
M  V30 4215 C 417.401 0.335959 -3.11192 0
M  V30 4216 C 417.876 0.254253 -4.57294 0
M  V30 4217 N 419.367 0.312618 -4.62144 0
M  V30 4218 C 420.102 0.272505 -5.72752 0
M  V30 4219 N 419.598 0.183864 -6.92556 0
M  V30 4220 N 421.391 0.323267 -5.6117 0
M  V30 4221 H 413.542 -0.892104 -1.92757 0
M  V30 4222 H 415.805 -0.340563 -0.884715 0
M  V30 4223 H 415.511 -0.693403 -3.44797 0
M  V30 4224 H 415.385 1.048 -3.62349 0
M  V30 4225 H 417.772 1.27971 -2.65909 0
M  V30 4226 H 417.853 -0.481739 -2.51223 0
M  V30 4227 H 417.497 -0.685887 -5.03247 0
M  V30 4228 H 417.427 1.09024 -5.15191 0
M  V30 4229 H 419.918 0.38307 -3.75953 0
M  V30 4230 H 420.231 0.15874 -7.72637 0
M  V30 4231 H 418.576 0.149708 -6.94839 0
M  V30 4232 H 421.767 0.390607 -4.66467 0
M  V30 4233 H 421.94 0.288539 -6.47357 0
M  V30 4234 N 415.346 1.54954 0.287554 0
M  V30 4235 C 416.594 1.74528 1.01904 0
M  V30 4236 C 416.915 0.541349 1.87335 0
M  V30 4237 O 416.185 -0.444108 1.908 0
M  V30 4238 H 414.765 0.643576 0.379235 0
M  V30 4239 H 417.427 1.92333 0.315294 0
M  V30 4240 H 416.523 2.64015 1.6644 0
M  V30 4241 N 416.824 -0.551391 1.4764 0
M  V30 4242 C 418.235 -1.13349 1.48354 0
M  V30 4243 C 418.586 -1.94709 0.241432 0
M  V30 4244 O 417.711 -2.06306 -0.653205 0
M  V30 4245 C 418.306 -2.0623 2.68802 0
M  V30 4246 C 416.865 -2.597 2.72457 0
M  V30 4247 C 416.012 -1.36201 2.41546 0
M  V30 4248 H 418.963 -0.337698 1.55065 0
M  V30 4249 H 418.984 -2.90196 2.46103 0
M  V30 4250 H 418.496 -1.46987 3.59188 0
M  V30 4251 H 416.597 -3.22724 1.86225 0
M  V30 4252 H 416.71 -3.00296 3.73308 0
M  V30 4253 H 415.074 -1.67068 1.9225 0
M  V30 4254 H 415.857 -0.787425 3.34147 0
M  V30 4255 N 418.302 -1.35869 -0.798587 0
M  V30 4256 C 419.55 -1.29332 -1.55298 0
M  V30 4257 C 419.871 0.129729 -1.94568 0
M  V30 4258 O 419.141 1.06796 -1.6423 0
M  V30 4259 H 417.721 -0.475737 -0.57592 0
M  V30 4260 H 420.383 -1.70062 -0.952093 0
M  V30 4261 H 419.479 -1.91458 -2.46476 0
M  V30 4262 N 419.78 1.02168 -1.19998 0
M  V30 4263 C 420.71 2.12488 -0.96804 0
M  V30 4264 C 421.691 1.69799 0.101185 0
M  V30 4265 O 422.876 1.94121 -0.0552993 0
M  V30 4266 C 420.006 3.43479 -0.513776 0
M  V30 4267 C 418.96 3.99884 -1.52566 0
M  V30 4268 C 418.286 5.26582 -0.928214 0
M  V30 4269 C 419.586 4.33861 -2.90795 0
M  V30 4270 H 421.28 2.32149 -1.89069 0
M  V30 4271 H 418.826 1.11564 -0.910468 0
M  V30 4272 H 420.779 4.20036 -0.338774 0
M  V30 4273 H 419.503 3.23561 0.444493 0
M  V30 4274 H 418.162 3.25429 -1.68794 0
M  V30 4275 H 417.81 5.02986 0.0378289 0
M  V30 4276 H 417.51 5.65284 -1.60397 0
M  V30 4277 H 419.034 6.05799 -0.764167 0
M  V30 4278 H 420.448 5.01327 -2.78109 0
M  V30 4279 H 418.845 4.83664 -3.55231 0
M  V30 4280 H 419.915 3.42848 -3.42904 0
M  V30 4281 N 421.258 1.00505 1.21394 0
M  V30 4282 C 422.205 0.565496 2.23765 0
M  V30 4283 C 423.175 -0.408466 1.60999 0
M  V30 4284 O 424.36 -0.310503 1.88257 0
M  V30 4285 C 421.5 -0.101667 3.4495 0
M  V30 4286 C 420.613 0.915479 4.22188 0
M  V30 4287 C 419.748 0.220574 5.30742 0
M  V30 4288 C 418.787 1.22527 5.99711 0
M  V30 4289 N 417.924 0.557831 6.9988 0
M  V30 4290 H 422.764 1.44314 2.60725 0
M  V30 4291 H 420.301 0.722643 1.28126 0
M  V30 4292 H 422.259 -0.505504 4.14126 0
M  V30 4293 H 420.889 -0.94303 3.08718 0
M  V30 4294 H 419.941 1.43756 3.52191 0
M  V30 4295 H 421.253 1.68005 4.69655 0
M  V30 4296 H 420.407 -0.239368 6.06228 0
M  V30 4297 H 419.146 -0.576401 4.84282 0
M  V30 4298 H 418.151 1.69571 5.22997 0
M  V30 4299 H 419.376 2.02332 6.48258 0
M  V30 4300 H 417.322 -0.219486 6.55633 0
M  V30 4301 H 417.239 1.26065 7.45415 0
M  V30 4302 H 418.507 0.121095 7.79406 0
M  V30 4303 N 422.737 -1.36956 0.779787 0
M  V30 4304 C 423.965 -2.03755 0.359398 0
M  V30 4305 C 424.38 -1.58807 -1.02106 0
M  V30 4306 O 423.737 -0.773024 -1.6532 0
M  V30 4307 C 423.788 -3.59251 0.402568 0
M  V30 4308 O 423.509 -4.02557 1.72858 0
M  V30 4309 C 425.01 -4.43291 -0.0284068 0
M  V30 4310 H 422.23 -0.654148 0.149437 0
M  V30 4311 H 424.774 -1.75128 1.05595 0
M  V30 4312 H 422.929 -3.86621 -0.245478 0
M  V30 4313 H 423.343 -4.97111 1.67275 0
M  V30 4314 H 424.817 -5.51975 0.0529466 0
M  V30 4315 H 425.294 -4.25719 -1.07982 0
M  V30 4316 H 425.9 -4.21163 0.591758 0
M  V30 4317 N 424.215 -0.530993 -1.48385 0
M  V30 4318 C 425.461 0.00274135 -2.028 0
M  V30 4319 C 425.794 1.33838 -1.40716 0
M  V30 4320 O 425.069 1.86465 -0.553277 0
M  V30 4321 C 425.352 0.123676 -3.59888 0
M  V30 4322 C 425.205 -1.2372 -4.3245 0
M  V30 4323 C 426.524 0.849967 -4.31814 0
M  V30 4324 H 423.643 -0.000477758 -0.737 0
M  V30 4325 H 426.285 -0.688217 -1.77098 0
M  V30 4326 H 424.435 0.712157 -3.81917 0
M  V30 4327 H 426.107 -1.86687 -4.21836 0
M  V30 4328 H 424.35 -1.81882 -3.93829 0
M  V30 4329 H 425.021 -1.10557 -5.40815 0
M  V30 4330 H 427.497 0.350572 -4.14621 0
M  V30 4331 H 426.373 0.903486 -5.41413 0
M  V30 4332 H 426.634 1.90047 -3.99167 0
M  V30 4333 N 425.693 1.55336 -0.266172 0
M  V30 4334 C 426.933 2.01303 0.354459 0
M  V30 4335 C 427.297 1.15046 1.53715 0
M  V30 4336 O 428.498 1.50554 2.22681 0
M  V30 4337 C 426.769 3.49748 0.735579 0
M  V30 4338 S 428.328 4.1771 1.34401 0
M  V30 4339 H 425.146 0.702333 0.110674 0
M  V30 4340 H 427.748 1.91653 -0.385916 0
M  V30 4341 H 426.452 4.10181 -0.134196 0
M  V30 4342 H 425.983 3.63364 1.50764 0
M  V30 4343 H 427.998 4.20594 2.63278 0
M  V30 4344 N 427.171 -0.0066808 1.57599 0
M  V30 4345 C 428.134 -0.985035 2.06953 0
M  V30 4346 C 429.134 -1.27663 0.977687 0
M  V30 4347 O 430.324 -1.22293 1.24057 0
M  V30 4348 C 427.456 -2.3118 2.50536 0
M  V30 4349 H 428.649 -0.558255 2.94658 0
M  V30 4350 H 426.202 -0.254011 1.54222 0
M  V30 4351 H 426.937 -2.78561 1.66054 0
M  V30 4352 H 426.722 -2.11338 3.3027 0
M  V30 4353 H 428.212 -3.01377 2.8907 0
M  V30 4354 N 428.649 -1.55105 -0.279332 0
M  V30 4355 C 429.612 -1.86783 -1.32834 0
M  V30 4356 C 430.612 -0.74199 -1.42657 0
M  V30 4357 O 431.802 -1.0102 -1.41918 0
M  V30 4358 C 428.934 -2.06746 -2.71052 0
M  V30 4359 H 430.127 -2.8055 -1.05979 0
M  V30 4360 H 427.68 -1.47499 -0.517087 0
M  V30 4361 H 428.415 -1.15339 -3.03097 0
M  V30 4362 H 428.2 -2.88711 -2.65309 0
M  V30 4363 H 429.69 -2.32549 -3.46858 0
M  V30 4364 N 430.127 0.543554 -1.4793 0
M  V30 4365 C 431.543 0.870806 -1.3375 0
M  V30 4366 C 431.743 1.9864 -0.338261 0
M  V30 4367 O 430.799 2.51305 0.245371 0
M  V30 4368 C 432.112 1.25114 -2.73435 0
M  V30 4369 C 433.66 1.3618 -2.81823 0
M  V30 4370 C 434.135 1.77563 -4.22179 0
M  V30 4371 N 435.626 1.8469 -4.24787 0
M  V30 4372 C 436.361 2.18067 -5.30315 0
M  V30 4373 N 435.857 2.49963 -6.46135 0
M  V30 4374 N 437.65 2.18958 -5.17701 0
M  V30 4375 H 429.801 -0.19275 -2.11524 0
M  V30 4376 H 432.064 -0.0235777 -0.947707 0
M  V30 4377 H 431.77 0.50514 -3.48053 0
M  V30 4378 H 431.644 2.20431 -3.06088 0
M  V30 4379 H 434.031 2.09859 -2.07468 0
M  V30 4380 H 434.112 0.390169 -2.52807 0
M  V30 4381 H 433.756 1.04449 -4.97044 0
M  V30 4382 H 433.686 2.75753 -4.48629 0
M  V30 4383 H 436.177 1.62372 -3.41239 0
M  V30 4384 H 436.49 2.74497 -7.22406 0
M  V30 4385 H 434.835 2.47513 -6.49432 0
M  V30 4386 H 438.026 1.93488 -4.2624 0
M  V30 4387 H 438.199 2.44639 -6.00047 0
M  V30 4388 N 431.605 1.3629 0.791371 0
M  V30 4389 C 432.833 1.33562 1.58016 0
M  V30 4390 C 433.248 -0.0835616 1.88615 0
M  V30 4391 O 432.605 -1.0399 1.49974 0
M  V30 4392 C 432.656 2.15517 2.90232 0
M  V30 4393 O 432.377 3.51902 2.60953 0
M  V30 4394 C 433.878 2.20546 3.84544 0
M  V30 4395 H 431.098 0.458226 0.490173 0
M  V30 4396 H 433.642 1.79361 0.982345 0
M  V30 4397 H 431.797 1.73278 3.46487 0
M  V30 4398 H 432.211 3.94644 3.4548 0
M  V30 4399 H 433.685 2.82252 4.74382 0
M  V30 4400 H 434.162 1.20838 4.2225 0
M  V30 4401 H 434.768 2.63013 3.34222 0
M  V30 4402 N 433.083 -1.0153 1.20538 0
M  V30 4403 C 434.015 -2.10224 0.913155 0
M  V30 4404 C 435.028 -1.62495 -0.0995998 0
M  V30 4405 O 436.217 -1.78014 0.131582 0
M  V30 4406 C 433.317 -3.37111 0.347717 0
M  V30 4407 C 432.49 -4.13971 1.41233 0
M  V30 4408 C 431.549 -5.19158 0.857976 0
M  V30 4409 O 430.575 -5.48 1.53897 0
M  V30 4410 N 431.777 -5.7955 -0.331966 0
M  V30 4411 H 434.542 -2.35879 1.84881 0
M  V30 4412 H 432.103 -1.17931 1.10923 0
M  V30 4413 H 434.095 -4.04683 -0.0373026 0
M  V30 4414 H 432.665 -3.08696 -0.492527 0
M  V30 4415 H 431.885 -3.41351 1.97163 0
M  V30 4416 H 433.173 -4.62103 2.12928 0
M  V30 4417 H 432.571 -5.58455 -0.902478 0
M  V30 4418 H 431.128 -6.48464 -0.65861 0
M  V30 4419 N 434.561 -1.01147 -1.20859 0
M  V30 4420 C 435.809 -0.696486 -1.89719 0
M  V30 4421 C 436.13 0.775788 -1.78904 0
M  V30 4422 O 435.4 1.55759 -1.18811 0
M  V30 4423 H 433.98 -0.254628 -0.702263 0
M  V30 4424 H 436.642 -1.28197 -1.46804 0
M  V30 4425 H 435.738 -0.975357 -2.96468 0
M  V30 4426 N 436.039 1.36541 -0.78704 0
M  V30 4427 C 437.287 1.98911 -0.357633 0
M  V30 4428 C 437.608 1.62778 1.07371 0
M  V30 4429 O 436.878 0.900612 1.73971 0
M  V30 4430 H 435.458 0.735734 -0.129246 0
M  V30 4431 H 438.12 1.66776 -1.00855 0
M  V30 4432 H 437.216 3.08874 -0.447549 0
M  V30 4433 N 437.518 0.538854 1.48102 0
M  V30 4434 C 438.465 -0.219042 2.29758 0
M  V30 4435 C 439.435 -0.925562 1.37922 0
M  V30 4436 O 440.62 -0.924855 1.66886 0
M  V30 4437 C 437.76 -1.25452 3.2149 0
M  V30 4438 C 436.873 -0.555943 4.28408 0
M  V30 4439 C 436.008 -1.57512 5.0731 0
M  V30 4440 C 435.047 -0.860498 6.06021 0
M  V30 4441 N 434.184 -1.82564 6.77949 0
M  V30 4442 H 439.024 0.483449 2.94052 0
M  V30 4443 H 436.561 0.250247 1.44956 0
M  V30 4444 H 438.519 -1.86727 3.7308 0
M  V30 4445 H 437.149 -1.92528 2.591 0
M  V30 4446 H 436.201 0.170938 3.80016 0
M  V30 4447 H 437.513 0.00474616 4.988 0
M  V30 4448 H 436.667 -2.26191 5.62959 0
M  V30 4449 H 435.406 -2.16972 4.36778 0
M  V30 4450 H 434.411 -0.159686 5.49568 0
M  V30 4451 H 435.636 -0.271897 6.78555 0
M  V30 4452 H 433.582 -2.40915 6.10161 0
M  V30 4453 H 433.499 -1.31662 7.44447 0
M  V30 4454 H 434.767 -2.50414 7.38182 0
M  V30 4455 N 438.996 -1.55193 0.274407 0
M  V30 4456 C 440.221 -2.04446 -0.348824 0
M  V30 4457 C 440.646 -1.15149 -1.48735 0
M  V30 4458 O 440.004 -0.149952 -1.80679 0
M  V30 4459 C 440.052 -3.51431 -0.808009 0
M  V30 4460 O 439.156 -3.65225 -1.91531 0
M  V30 4461 H 438.497 -0.66006 -0.0722276 0
M  V30 4462 H 441.027 -2.00481 0.408498 0
M  V30 4463 H 441.037 -3.92781 -1.10395 0
M  V30 4464 H 439.712 -4.15892 0.0249865 0
M  V30 4465 H 438.289 -3.35778 -1.62196 0
M  V30 4466 N 440.474 -0.00167713 -1.576 0
M  V30 4467 C 441.406 1.0174 -2.05382 0
M  V30 4468 C 442.419 1.30595 -0.972052 0
M  V30 4469 O 443.608 1.27542 -1.24882 0
M  V30 4470 C 440.708 2.35174 -2.44022 0
M  V30 4471 C 439.881 2.25234 -3.74951 0
M  V30 4472 C 438.94 3.4137 -4.00441 0
M  V30 4473 O 437.966 3.19483 -4.71083 0
M  V30 4474 N 439.168 4.64275 -3.48467 0
M  V30 4475 H 441.933 0.609902 -2.93428 0
M  V30 4476 H 439.494 0.185672 -1.60832 0
M  V30 4477 H 441.486 3.11643 -2.58187 0
M  V30 4478 H 440.056 2.67659 -1.61485 0
M  V30 4479 H 439.276 1.33664 -3.70847 0
M  V30 4480 H 440.564 2.15767 -4.60784 0
M  V30 4481 H 439.962 4.84955 -2.91264 0
M  V30 4482 H 438.519 5.38005 -3.67959 0
M  V30 4483 N 441.952 1.55251 0.271103 0
M  V30 4484 C 442.899 1.88261 1.33516 0
M  V30 4485 C 443.869 0.734296 1.48988 0
M  V30 4486 O 445.054 0.985741 1.63364 0
M  V30 4487 C 442.194 2.16168 2.69008 0
M  V30 4488 C 441.307 3.43678 2.61743 0
M  V30 4489 C 440.442 3.61276 3.89427 0
M  V30 4490 C 439.481 4.82472 3.7668 0
M  V30 4491 N 438.618 4.96717 4.96202 0
M  V30 4492 H 443.458 2.79015 1.04665 0
M  V30 4493 H 440.995 1.38137 0.505618 0
M  V30 4494 H 442.953 2.30349 3.47844 0
M  V30 4495 H 441.583 1.28646 2.96057 0
M  V30 4496 H 440.635 3.37959 1.74607 0
M  V30 4497 H 441.947 4.3265 2.48224 0
M  V30 4498 H 441.101 3.75284 4.76704 0
M  V30 4499 H 439.84 2.70492 4.05814 0
M  V30 4500 H 438.845 4.68465 2.87786 0
M  V30 4501 H 440.07 5.74692 3.61809 0
M  V30 4502 H 438.016 4.08865 5.12997 0
M  V30 4503 H 437.933 5.79738 4.85222 0
M  V30 4504 H 439.201 5.15113 5.85046 0
M  V30 4505 O 443.469 -0.416875 1.56027 0
M  V30 4506 H 444.16 -1.06974 1.61481 0
M  V30 END ATOM
M  V30 BEGIN BOND
M  V30 END BOND
M  V30 END CTAB
M  END
$$$$
