drugbank_target|P0ABQ4 Dihydrofolate reductase (DB00440; DB02015; DB02363; DB03461; DB07262; DB12769)
 OpenBabel12092120033D

  0  0  0     0  0            999 V3000
M  V30 BEGIN CTAB
M  V30 COUNTS 2491 2525 0 0 0
M  V30 BEGIN ATOM
M  V30 1 H -0.908 1.98254 -0.117106 0
M  V30 2 N 0 1.576 0 0
M  V30 3 C 0.933 2.03868 1.02534 0
M  V30 4 C 1.911 0.928543 1.3348 0
M  V30 5 O 3.095 1.19667 1.45644 0
M  V30 6 C 0.222 2.43627 2.35294 0
M  V30 7 C -0.732 3.65373 2.2001 0
M  V30 8 S 0.101 5.13292 1.52614 0
M  V30 9 C 1.257 5.56322 2.86805 0
M  V30 10 H 1.49 2.90518 0.631377 0
M  V30 11 H -0.977 1.52953 0.210867 0
M  V30 12 H 0.981 2.67203 3.11629 0
M  V30 13 H -0.358 1.57376 2.7183 0
M  V30 14 H -1.165 3.90944 3.18086 0
M  V30 15 H -1.563 3.418 1.51819 0
M  V30 16 H 0.729 5.58782 3.83104 0
M  V30 17 H 1.672 6.56266 2.65933 0
M  V30 18 H 2.08 4.83886 2.90714 0
M  V30 19 N 1.4781 -0.272755 1.55222 0
M  V30 20 C 2.7271 -1.00211 1.75045 0
M  V30 21 C 3.0401 -1.87441 0.559046 0
M  V30 22 O 4.2461 -2.63856 0.639698 0
M  V30 23 C 2.7021 -1.83165 3.09804 0
M  V30 24 C 2.3101 -1.008 4.36513 0
M  V30 25 C 4.0541 -2.55529 3.38977 0
M  V30 26 C 1.9611 -1.83194 5.62311 0
M  V30 27 H 0.8911 -0.377878 0.652476 0
M  V30 28 H 3.5421 -0.257776 1.8168 0
M  V30 29 H 1.9241 -2.61694 2.97207 0
M  V30 30 H 3.0981 -0.266855 4.60027 0
M  V30 31 H 1.4131 -0.398897 4.14485 0
M  V30 32 H 4.0101 -3.17578 4.30172 0
M  V30 33 H 4.3531 -3.25825 2.59121 0
M  V30 34 H 4.8861 -1.84029 3.52673 0
M  V30 35 H 1.6251 -1.17318 6.44916 0
M  V30 36 H 1.1451 -2.54905 5.4294 0
M  V30 37 H 2.8241 -2.40552 6.00619 0
M  V30 38 N 2.9562 -1.48159 -0.537278 0
M  V30 39 C 4.1812 -1.59707 -1.32319 0
M  V30 40 C 4.6062 -0.254859 -1.86365 0
M  V30 41 O 3.9642 0.772378 -1.64024 0
M  V30 42 C 4.0122 -2.6412 -2.45505 0
M  V30 43 O 3.1162 -2.20774 -3.48328 0
M  V30 44 H 2.4572 -0.535791 -0.392204 0
M  V30 45 H 4.9872 -1.94092 -0.647268 0
M  V30 46 H 4.9972 -2.85166 -2.91795 0
M  V30 47 H 3.6722 -3.61567 -2.05528 0
M  V30 48 H 2.2492 -2.09911 -3.08207 0
M  V30 49 N 4.4343 0.785586 -1.36625 0
M  V30 50 C 5.3643 1.91259 -1.33949 0
M  V30 51 C 6.3453 1.68795 -0.210325 0
M  V30 52 O 7.5303 1.89854 -0.408561 0
M  V30 53 C 4.6603 3.28339 -1.13186 0
M  V30 54 C 3.6143 3.65335 -2.22967 0
M  V30 55 C 2.9403 5.00806 -1.87342 0
M  V30 56 C 4.2403 3.7352 -3.65075 0
M  V30 57 H 5.9343 1.93755 -2.28253 0
M  V30 58 H 3.4803 0.930788 -1.09874 0
M  V30 59 H 5.4333 4.06804 -1.09948 0
M  V30 60 H 4.1573 3.2624 -0.153332 0
M  V30 61 H 2.8163 2.89169 -2.25337 0
M  V30 62 H 2.4643 4.95233 -0.880545 0
M  V30 63 H 2.1643 5.26529 -2.60846 0
M  V30 64 H 3.6883 5.81687 -1.85667 0
M  V30 65 H 5.1023 4.42168 -3.64911 0
M  V30 66 H 3.4993 4.10731 -4.37516 0
M  V30 67 H 4.5693 2.74527 -3.99703 0
M  V30 68 N 5.9124 1.20967 1.01018 0
M  V30 69 C 7.1614 1.01796 1.74128 0
M  V30 70 C 7.4744 -0.449691 1.90361 0
M  V30 71 O 8.6804 -0.76068 2.60626 0
M  V30 72 C 7.1364 1.7727 3.13215 0
M  V30 73 C 6.7444 3.28171 3.04972 0
M  V30 74 C 8.4884 1.66489 3.90489 0
M  V30 75 C 6.3954 3.96156 4.39107 0
M  V30 76 H 5.3254 0.377276 0.652824 0
M  V30 77 H 7.9764 1.44651 1.12909 0
M  V30 78 H 6.3584 1.27205 3.75013 0
M  V30 79 H 7.5324 3.85499 2.52443 0
M  V30 80 H 5.8474 3.39437 2.41188 0
M  V30 81 H 8.4444 2.14617 4.89738 0
M  V30 82 H 8.7874 0.6222 4.11624 0
M  V30 83 H 9.3204 2.14003 3.35332 0
M  V30 84 H 6.0594 5.00604 4.23174 0
M  V30 85 H 5.5794 3.43617 4.91617 0
M  V30 86 H 7.2584 4.00774 5.07926 0
M  V30 87 N 7.3905 -1.2043 1.01659 0
M  V30 88 C 8.3535 -2.21433 0.591616 0
M  V30 89 C 9.3535 -1.57203 -0.338226 0
M  V30 90 O 10.5435 -1.73737 -0.126918 0
M  V30 91 C 7.6755 -3.40628 -0.136058 0
M  V30 92 H 8.8685 -2.60545 1.48514 0
M  V30 93 H 6.4215 -1.33893 0.806379 0
M  V30 94 H 7.1565 -3.07019 -1.04449 0
M  V30 95 H 6.9415 -3.88475 0.531917 0
M  V30 96 H 8.4315 -4.15475 -0.420735 0
M  V30 97 N 8.8686 -0.792821 -1.36206 0
M  V30 98 C 9.8316 -0.199459 -2.2833 0
M  V30 99 C 10.8316 0.605189 -1.48977 0
M  V30 100 O 12.0216 0.425685 -1.68919 0
M  V30 101 C 9.1536 0.723523 -3.33134 0
M  V30 102 H 10.3466 -1.01181 -2.82316 0
M  V30 103 H 7.8996 -0.562485 -1.45828 0
M  V30 104 H 8.6346 1.56008 -2.84309 0
M  V30 105 H 8.4196 0.148436 -3.91819 0
M  V30 106 H 9.9096 1.13344 -4.01924 0
M  V30 107 N 10.3467 1.47872 -0.545128 0
M  V30 108 C 11.2767 2.32661 0.197793 0
M  V30 109 C 12.2577 1.43041 0.920504 0
M  V30 110 O 13.4427 1.71912 0.90333 0
M  V30 111 C 10.5727 3.24569 1.23582 0
M  V30 112 C 9.5267 4.23333 0.630323 0
M  V30 113 C 8.8527 5.0448 1.77211 0
M  V30 114 C 10.1527 5.20704 -0.407974 0
M  V30 115 H 11.8467 2.95024 -0.510045 0
M  V30 116 H 9.3927 1.4187 -0.246731 0
M  V30 117 H 11.3457 3.8272 1.76362 0
M  V30 118 H 10.0697 2.60236 1.97344 0
M  V30 119 H 8.7287 3.6639 0.123922 0
M  V30 120 H 8.3767 4.36561 2.49847 0
M  V30 121 H 8.0767 5.71339 1.37281 0
M  V30 122 H 9.6007 5.65487 2.3034 0
M  V30 123 H 11.0147 5.7329 0.033305 0
M  V30 124 H 9.4117 5.95699 -0.725486 0
M  V30 125 H 10.4817 4.66917 -1.30828 0
M  V30 126 N 11.8248 0.280983 1.55075 0
M  V30 127 C 12.7878 -0.590896 2.21452 0
M  V30 128 C 13.7878 -1.07682 1.19421 0
M  V30 129 O 14.9778 -0.97605 1.44288 0
M  V30 130 C 12.1098 -1.81587 2.88511 0
M  V30 131 H 13.3028 -0.0112554 2.99898 0
M  V30 132 H 10.8558 0.0316438 1.56268 0
M  V30 133 H 11.5908 -2.43587 2.14093 0
M  V30 134 H 11.3758 -1.4753 3.63287 0
M  V30 135 H 12.8658 -2.43575 3.39206 0
M  V30 136 N 13.3029 -1.57598 0.00835791 0
M  V30 137 C 14.5489 -1.91211 -0.675732 0
M  V30 138 C 14.8819 -0.883139 -1.72958 0
M  V30 139 O 14.1569 0.097016 -1.94258 0
M  V30 140 C 14.4399 -3.35379 -1.31123 0
M  V30 141 C 14.2929 -4.48999 -0.268356 0
M  V30 142 C 15.6119 -3.7912 -2.23508 0
M  V30 143 H 12.7309 -0.695374 -0.244179 0
M  V30 144 H 15.3729 -1.89901 0.0613655 0
M  V30 145 H 13.5229 -3.36626 -1.93946 0
M  V30 146 H 15.1949 -4.59887 0.360844 0
M  V30 147 H 13.4379 -4.31873 0.408482 0
M  V30 148 H 14.1089 -5.46851 -0.752218 0
M  V30 149 H 16.5849 -3.79477 -1.70693 0
M  V30 150 H 15.4609 -4.80729 -2.64936 0
M  V30 151 H 15.7219 -3.13455 -3.11766 0
M  V30 152 N 14.781 0.264519 -1.55364 0
M  V30 153 C 16.058 1.01677 -1.67096 0
M  V30 154 C 16.438 2.03996 -0.543015 0
M  V30 155 O 15.786 2.23907 0.45585 0
M  V30 156 C 15.996 1.66596 -3.0667 0
M  V30 157 C 17.344 2.17442 -3.64697 0
M  V30 158 O 18.368 1.76568 -3.09358 0
M  V30 159 O 17.227 2.92439 -4.61673 0
M  V30 160 H 14.321 0.472161 -0.678965 0
M  V30 161 H 16.867 0.259703 -1.67701 0
M  V30 162 H 15.639 0.924962 -3.80211 0
M  V30 163 H 15.262 2.48968 -3.10001 0
M  V30 164 N 16.2591 1.48442 0.529413 0
M  V30 165 C 17.6751 1.34575 0.858004 0
M  V30 166 C 17.8751 0.3572 1.98309 0
M  V30 167 O 16.9311 -0.221379 2.51528 0
M  V30 168 C 18.2441 2.74617 1.22499 0
M  V30 169 C 19.7921 2.83109 1.33484 0
M  V30 170 C 20.2671 4.23854 1.73526 0
M  V30 171 N 21.7581 4.2653 1.80628 0
M  V30 172 C 22.4931 5.32372 2.12997 0
M  V30 173 N 21.9891 6.48491 2.43786 0
M  V30 174 N 23.7821 5.19766 2.14008 0
M  V30 175 H 15.9331 2.1133 -0.212925 0
M  V30 176 H 18.1961 0.947439 -0.0326199 0
M  V30 177 H 17.9021 3.4852 0.471905 0
M  V30 178 H 17.7761 3.08177 2.17501 0
M  V30 179 H 20.1631 2.09462 2.0787 0
M  V30 180 H 20.2441 2.53168 0.366027 0
M  V30 181 H 19.8881 4.98018 0.997013 0
M  V30 182 H 19.8181 4.5124 2.71459 0
M  V30 183 H 22.3091 3.42772 1.59108 0
M  V30 184 H 22.6221 7.24993 2.67592 0
M  V30 185 H 20.9671 6.51765 2.41304 0
M  V30 186 H 24.1581 4.28066 1.89412 0
M  V30 187 H 24.3311 6.02354 2.38902 0
M  V30 188 N 17.7372 -0.778329 1.37039 0
M  V30 189 C 18.9832 -1.53892 1.32079 0
M  V30 190 C 19.3162 -1.9396 -0.0965386 0
M  V30 191 O 18.5912 -1.63568 -1.05242 0
M  V30 192 C 18.8742 -2.80847 2.25382 0
M  V30 193 C 18.7272 -2.47076 3.75864 0
M  V30 194 C 20.0462 -3.82741 2.1725 0
M  V30 195 H 17.1652 -0.558303 0.48111 0
M  V30 196 H 19.8072 -0.893397 1.67685 0
M  V30 197 H 17.9572 -3.35931 1.95148 0
M  V30 198 H 19.6292 -1.97957 4.16666 0
M  V30 199 H 17.8722 -1.79863 3.94755 0
M  V30 200 H 18.5432 -3.37798 4.36574 0
M  V30 201 H 21.0192 -3.37133 2.43887 0
M  V30 202 H 19.8952 -4.69303 2.84686 0
M  V30 203 H 20.1562 -4.2652 1.16331 0
M  V30 204 N 19.2153 -1.21501 -1.00376 0
M  V30 205 C 20.4643 -1.02718 -1.73586 0
M  V30 206 C 20.7773 0.439589 -1.90596 0
M  V30 207 O 21.9833 0.746848 -2.61026 0
M  V30 208 C 20.4393 -1.78929 -3.1227 0
M  V30 209 C 20.0473 -3.29783 -3.03228 0
M  V30 210 C 21.7913 -1.68557 -3.89601 0
M  V30 211 C 19.6983 -3.98479 -4.36999 0
M  V30 212 H 18.6283 -0.380733 -0.650814 0
M  V30 213 H 21.2793 -1.45248 -1.1214 0
M  V30 214 H 19.6613 -1.29192 -3.74333 0
M  V30 215 H 20.8353 -3.86832 -2.50395 0
M  V30 216 H 19.1503 -3.40711 -2.39385 0
M  V30 217 H 21.7473 -2.17211 -4.88593 0
M  V30 218 H 22.0903 -0.644021 -4.11288 0
M  V30 219 H 22.6233 -2.15778 -3.34193 0
M  V30 220 H 19.3623 -5.02841 -4.20513 0
M  V30 221 H 18.8823 -3.46219 -4.89788 0
M  V30 222 H 20.5613 -4.03462 -5.05794 0
M  V30 223 N 20.6934 1.19889 -1.02296 0
M  V30 224 C 21.9414 1.89046 -0.714558 0
M  V30 225 C 22.2624 1.79636 0.758681 0
M  V30 226 O 21.5324 1.20292 1.54618 0
M  V30 227 H 20.1124 0.699802 -0.261317 0
M  V30 228 H 22.7744 1.45574 -1.29592 0
M  V30 229 H 21.8704 2.95524 -1.0036 0
M  V30 230 N 22.1715 0.800033 1.35784 0
M  V30 231 C 23.1045 0.151499 2.27697 0
M  V30 232 C 24.0825 -0.678663 1.4776 0
M  V30 233 O 25.2665 -0.647358 1.77035 0
M  V30 234 C 22.3935 -0.790492 3.29346 0
M  V30 235 C 21.4395 -0.0407832 4.26481 0
M  V30 236 S 22.2725 1.29077 5.19711 0
M  V30 237 C 23.4285 0.353055 6.24903 0
M  V30 238 H 23.6615 0.930796 2.82353 0
M  V30 239 H 21.1945 0.594767 1.42485 0
M  V30 240 H 23.1525 -1.3285 3.88409 0
M  V30 241 H 21.8135 -1.54312 2.73581 0
M  V30 242 H 21.0065 -0.755971 4.98298 0
M  V30 243 H 20.6085 0.427063 3.71554 0
M  V30 244 H 22.9005 -0.464147 6.75908 0
M  V30 245 H 23.8435 1.04023 7.00418 0
M  V30 246 H 24.2515 -0.0483344 5.64479 0
M  V30 247 N 23.6496 -1.47581 0.552962 0
M  V30 248 C 24.5596 -2.33743 -0.200353 0
M  V30 249 C 25.5756 -1.47928 -0.916151 0
M  V30 250 O 26.7516 -1.80865 -0.885993 0
M  V30 251 C 23.8166 -3.24536 -1.21973 0
M  V30 252 C 22.8776 -4.26238 -0.511819 0
M  V30 253 C 22.1106 -5.12693 -1.48263 0
M  V30 254 O 22.3336 -5.01525 -2.71714 0
M  V30 255 O 21.2676 -5.93375 -1.00945 0
M  V30 256 H 25.0936 -2.9945 0.506304 0
M  V30 257 H 22.6786 -1.46071 0.313622 0
M  V30 258 H 24.5606 -3.80631 -1.80827 0
M  V30 259 H 23.2356 -2.61462 -1.90839 0
M  V30 260 H 22.1426 -3.73914 0.117799 0
M  V30 261 H 23.4756 -4.92014 0.135308 0
M  V30 262 N 25.1277 -0.289203 -1.54924 0
M  V30 263 C 26.0757 0.607966 -2.24514 0
M  V30 264 C 27.0697 1.14655 -1.24702 0
M  V30 265 O 28.2757 1.09856 -1.4259 0
M  V30 266 H 24.6507 0.21464 -0.720718 0
M  V30 267 H 26.6217 -0.00164182 -2.984 0
M  V30 268 C 25.3707 1.77406 -2.99036 0
M  V30 269 H 24.6937 1.36884 -3.75637 0
M  V30 270 H 26.1337 2.37814 -3.51028 0
M  V30 271 C 24.5927 2.67107 -2.05318 0
M  V30 272 O 25.1227 3.6787 -1.61353 0
M  V30 273 N 23.3287 2.34582 -1.71521 0
M  V30 274 H 22.8757 1.52688 -2.07471 0
M  V30 275 H 22.8337 2.94867 -1.0909 0
M  V30 276 N 26.6058 1.57591 -0.0167156 0
M  V30 277 C 27.5688 2.08393 0.954204 0
M  V30 278 C 28.5688 0.996531 1.26198 0
M  V30 279 O 29.7588 1.25858 1.20438 0
M  V30 280 C 26.8908 2.5394 2.27436 0
M  V30 281 H 28.0838 2.95455 0.514451 0
M  V30 282 H 25.6368 1.54582 0.231089 0
M  V30 283 H 26.3718 1.70171 2.76066 0
M  V30 284 H 26.1568 3.33371 2.06412 0
M  V30 285 H 27.6468 2.93512 2.97053 0
M  V30 286 N 28.0839 -0.256276 1.55502 0
M  V30 287 C 29.0169 -1.34321 1.84481 0
M  V30 288 C 29.9949 -1.46802 0.699131 0
M  V30 289 O 31.1789 -1.63165 0.943904 0
M  V30 290 C 28.3059 -2.71779 2.02123 0
M  V30 291 C 27.3519 -2.76496 3.24734 0
M  V30 292 S 28.1849 -2.3405 4.81644 0
M  V30 293 C 29.3409 -3.73452 5.02279 0
M  V30 294 H 29.5739 -1.09539 2.76385 0
M  V30 295 H 27.1069 -0.45678 1.47489 0
M  V30 296 H 29.0649 -3.50932 2.12972 0
M  V30 297 H 27.7259 -2.93803 1.11078 0
M  V30 298 H 26.9189 -3.77424 3.34016 0
M  V30 299 H 26.5209 -2.05379 3.12563 0
M  V30 300 H 28.8129 -4.6887 4.89047 0
M  V30 301 H 29.7559 -3.6911 6.04287 0
M  V30 302 H 30.1639 -3.6553 4.30172 0
M  V30 303 N 29.562 -1.4872 -0.521534 0
M  V30 304 C 30.973 -1.50607 -1.10337 0
M  V30 305 C 31.324 -0.280612 -1.94183 0
M  V30 306 O 30.449 0.611507 -2.0758 0
M  V30 307 C 31.044 -2.72903 -2.00772 0
M  V30 308 C 29.603 -2.77634 -2.54158 0
M  V30 309 C 28.75 -2.44241 -1.31307 0
M  V30 310 H 31.701 -1.55714 -0.306388 0
M  V30 311 H 31.722 -2.519 -2.85178 0
M  V30 312 H 31.234 -3.62077 -1.39721 0
M  V30 313 H 29.335 -1.92689 -3.18907 0
M  V30 314 H 29.448 -3.79283 -2.92714 0
M  V30 315 H 27.812 -1.95577 -1.63161 0
M  V30 316 H 28.595 -3.35666 -0.719943 0
M  V30 317 N 31.0401 0.771051 -1.3745 0
M  V30 318 C 32.2861 1.53109 -1.339 0
M  V30 319 C 32.6411 1.9225 0.0758401 0
M  V30 320 O 31.9341 1.61264 1.03463 0
M  V30 321 C 32.1281 2.80676 -2.2126 0
M  V30 322 C 31.9571 2.54003 -3.71096 0
M  V30 323 C 30.7271 2.48097 -4.402 0
M  V30 324 C 32.9251 2.21953 -4.63941 0
M  V30 325 N 30.9071 2.13515 -5.75573 0
M  V30 326 C 32.2781 1.97516 -5.87697 0
M  V30 327 C 34.3331 2.08114 -4.5232 0
M  V30 328 C 33.0361 1.60638 -7.01133 0
M  V30 329 C 35.0621 1.72636 -5.65642 0
M  V30 330 C 34.4241 1.4906 -6.88448 0
M  V30 331 H 30.5231 0.56055 -0.54526 0
M  V30 332 H 33.1071 0.899472 -1.72678 0
M  V30 333 H 31.2781 3.41674 -1.84698 0
M  V30 334 H 33.0101 3.46578 -2.08963 0
M  V30 335 H 29.7651 2.63974 -3.93211 0
M  V30 336 H 30.1891 1.98919 -6.47117 0
M  V30 337 H 34.8311 2.25024 -3.57944 0
M  V30 338 H 32.5491 1.42467 -7.95443 0
M  V30 339 H 36.1351 1.62586 -5.58621 0
M  V30 340 H 35.0151 1.22014 -7.7465 0
M  V30 341 N 32.5182 1.22032 0.997298 0
M  V30 342 C 33.4662 0.983634 2.10778 0
M  V30 343 C 34.4602 -0.0717564 1.69248 0
M  V30 344 O 35.6662 0.080304 1.79821 0
M  V30 345 H 32.0412 0.300877 0.689186 0
M  V30 346 H 34.0122 1.92606 2.27916 0
M  V30 347 C 32.7612 0.57326 3.42942 0
M  V30 348 H 32.0842 1.37702 3.75338 0
M  V30 349 H 33.5242 0.447031 4.21637 0
M  V30 350 C 31.9832 -0.7167 3.29188 0
M  V30 351 O 32.5132 -1.77027 3.60589 0
M  V30 352 N 30.7192 -0.686167 2.82383 0
M  V30 353 H 30.2662 0.171507 2.57028 0
M  V30 354 H 30.2242 -1.54955 2.73562 0
M  V30 355 N 33.9963 -1.19345 1.0293 0
M  V30 356 C 34.9263 -2.2481 0.631105 0
M  V30 357 C 35.9073 -1.66245 -0.360104 0
M  V30 358 O 37.0923 -1.92677 -0.242726 0
M  V30 359 C 34.2223 -3.47295 -0.0184607 0
M  V30 360 C 33.1763 -4.18536 0.895073 0
M  V30 361 C 32.5023 -5.34586 0.110592 0
M  V30 362 C 33.8023 -4.73287 2.209 0
M  V30 363 H 35.4963 -2.58372 1.51275 0
M  V30 364 H 33.0423 -1.24194 0.728818 0
M  V30 365 H 34.9953 -4.20268 -0.308675 0
M  V30 366 H 33.7193 -3.12933 -0.934907 0
M  V30 367 H 32.3783 -3.47446 1.16949 0
M  V30 368 H 32.0263 -4.96469 -0.807902 0
M  V30 369 H 31.7263 -5.83183 0.719087 0
M  V30 370 H 33.2503 -6.10355 -0.172871 0
M  V30 371 H 34.6643 -5.38013 1.98028 0
M  V30 372 H 33.0613 -5.32373 2.76946 0
M  V30 373 H 34.1313 -3.91331 2.86336 0
M  V30 374 N 35.4744 -0.807222 -1.35358 0
M  V30 375 C 36.8854 -0.44876 -1.81226 0
M  V30 376 C 37.2364 1.02929 -1.67033 0
M  V30 377 O 36.3614 1.79991 -1.20133 0
M  V30 378 C 36.9564 -0.807774 -3.2903 0
M  V30 379 C 35.5154 -0.501901 -3.73039 0
M  V30 380 C 34.6624 -1.03304 -2.57339 0
M  V30 381 H 37.6134 -0.998808 -1.23327 0
M  V30 382 H 37.6344 -0.10554 -3.80354 0
M  V30 383 H 37.1464 -1.88357 -3.39328 0
M  V30 384 H 35.2474 0.565128 -3.68289 0
M  V30 385 H 35.3604 -1.03497 -4.67787 0
M  V30 386 H 33.7244 -0.455339 -2.50597 0
M  V30 387 H 34.5074 -2.11496 -2.70415 0
M  V30 388 N 36.9525 1.47285 -0.560781 0
M  V30 389 C 37.9155 2.28535 0.174488 0
M  V30 390 C 38.9155 1.37153 0.839388 0
M  V30 391 O 40.1055 1.59748 0.694702 0
M  V30 392 C 37.2375 3.16934 1.25561 0
M  V30 393 H 38.4305 2.95012 -0.539262 0
M  V30 394 H 35.9835 1.53034 -0.317865 0
M  V30 395 H 36.7185 2.55157 2.00164 0
M  V30 396 H 36.5035 3.8419 0.783604 0
M  V30 397 H 37.9935 3.78143 1.77193 0
M  V30 398 N 38.4306 0.297415 1.54768 0
M  V30 399 C 39.7076 -0.365847 1.92148 0
M  V30 400 C 40.0876 -1.71975 1.22424 0
M  V30 401 O 39.4356 -2.25666 0.358739 0
M  V30 402 C 39.6456 -0.484056 3.45627 0
M  V30 403 C 40.9936 -0.756594 4.17805 0
M  V30 404 O 42.0176 -0.568007 3.51642 0
M  V30 405 O 40.8766 -1.11863 5.34929 0
M  V30 406 H 37.9706 -0.203919 0.801465 0
M  V30 407 H 40.5166 0.34521 1.66152 0
M  V30 408 H 39.2886 0.467865 3.88493 0
M  V30 409 H 38.9116 -1.24372 3.77647 0
M  V30 410 N 39.9087 -1.5758 0.0250728 0
M  V30 411 C 40.8387 -2.13007 -0.956575 0
M  V30 412 C 41.8197 -1.0452 -1.342 0
M  V30 413 O 43.0047 -1.32332 -1.42133 0
M  V30 414 C 40.1347 -2.65386 -2.24026 0
M  V30 415 C 39.0887 -3.78623 -1.99571 0
M  V30 416 C 38.4147 -4.17414 -3.3417 0
M  V30 417 C 39.7147 -5.04867 -1.33814 0
M  V30 418 H 41.4087 -2.9528 -0.494991 0
M  V30 419 H 38.9547 -1.42042 -0.236651 0
M  V30 420 H 40.9077 -3.02794 -2.93076 0
M  V30 421 H 39.6317 -1.80268 -2.72343 0
M  V30 422 H 38.2907 -3.41646 -1.32941 0
M  V30 423 H 37.9387 -3.29284 -3.80238 0
M  V30 424 H 37.6387 -4.93719 -3.18615 0
M  V30 425 H 39.1627 -4.57402 -4.04495 0
M  V30 426 H 40.5767 -5.39888 -1.92857 0
M  V30 427 H 38.9737 -5.86144 -1.28669 0
M  V30 428 H 40.0437 -4.83904 -0.310561 0
M  V30 429 N 41.3868 0.248026 -1.55636 0
M  V30 430 C 42.3498 1.29044 -1.89421 0
M  V30 431 C 43.3498 1.41134 -0.770581 0
M  V30 432 O 44.5398 1.39854 -1.03858 0
M  V30 433 C 41.6718 2.66831 -2.12165 0
M  V30 434 H 42.8648 1.00305 -2.82629 0
M  V30 435 H 40.4178 0.487265 -1.48511 0
M  V30 436 H 41.1528 3.00711 -1.21422 0
M  V30 437 H 40.9378 2.59438 -2.93997 0
M  V30 438 H 42.4278 3.42103 -2.3949 0
M  V30 439 N 42.8649 1.48995 0.513639 0
M  V30 440 C 44.1109 1.59053 1.26783 0
M  V30 441 C 44.4659 0.268136 1.90522 0
M  V30 442 O 43.7589 -0.730534 1.77126 0
M  V30 443 C 43.9529 2.67756 2.36731 0
M  V30 444 C 43.7819 4.10437 1.83771 0
M  V30 445 C 42.5519 4.7738 1.65639 0
M  V30 446 C 44.7499 4.9608 1.35681 0
M  V30 447 N 42.7319 6.04419 1.07476 0
M  V30 448 C 44.1029 6.13496 0.895715 0
M  V30 449 C 46.1579 4.82177 1.24136 0
M  V30 450 C 44.8609 7.1854 0.3306 0
M  V30 451 C 46.8869 5.87358 0.690229 0
M  V30 452 C 46.2489 7.03993 0.239292 0
M  V30 453 H 42.3479 0.636463 0.454355 0
M  V30 454 H 44.9319 1.85948 0.577196 0
M  V30 455 H 43.1029 2.42655 3.03271 0
M  V30 456 H 44.8349 2.67406 3.0377 0
M  V30 457 H 41.5899 4.33974 1.8964 0
M  V30 458 H 42.0139 6.72214 0.803579 0
M  V30 459 H 46.6559 3.92329 1.57601 0
M  V30 460 H 44.3739 8.08098 -0.0163435 0
M  V30 461 H 47.9599 5.78658 0.603852 0
M  V30 462 H 46.8399 7.83992 -0.180526 0
M  V30 463 N 44.343 -0.763751 1.37857 0
M  V30 464 C 45.59 -1.52257 1.33506 0
M  V30 465 C 45.918 -1.94343 -0.078022 0
M  V30 466 O 45.173 -1.64958 -1.05297 0
M  V30 467 C 45.472 -2.79499 2.22745 0
M  V30 468 C 45.138 -2.56426 3.70886 0
M  V30 469 C 43.8 -2.49842 4.11257 0
M  V30 470 C 46.152 -2.36008 4.64704 0
M  V30 471 C 43.48 -2.20841 5.43549 0
M  V30 472 C 45.832 -2.0853 5.97242 0
M  V30 473 C 44.496 -2.00396 6.36709 0
M  V30 474 H 43.766 -0.557149 0.488534 0
M  V30 475 H 46.413 -0.879073 1.70131 0
M  V30 476 H 44.718 -3.48447 1.79142 0
M  V30 477 H 46.415 -3.37413 2.16688 0
M  V30 478 H 43.005 -2.62416 3.38874 0
M  V30 479 H 47.189 -2.40079 4.34368 0
M  V30 480 H 42.445 -2.13045 5.73081 0
M  V30 481 H 46.619 -1.91732 6.69486 0
M  V30 482 H 44.246 -1.77688 7.39142 0
M  V30 483 N 45.8211 -1.22559 -0.990812 0
M  V30 484 C 46.7681 -0.997519 -2.0813 0
M  V30 485 C 47.7381 0.0814702 -1.659 0
M  V30 486 O 48.9231 -0.0685424 -1.90677 0
M  V30 487 C 46.0631 -0.583615 -3.40129 0
M  V30 488 C 45.1761 -1.7336 -3.9569 0
M  V30 489 C 44.3111 -1.26748 -5.15857 0
M  V30 490 C 43.3501 -2.38888 -5.63559 0
M  V30 491 N 42.4871 -1.93308 -6.74964 0
M  V30 492 H 47.3271 -1.93099 -2.26973 0
M  V30 493 H 44.8641 -0.962114 -1.11273 0
M  V30 494 H 46.8221 -0.324801 -4.15934 0
M  V30 495 H 45.4521 0.312845 -3.2128 0
M  V30 496 H 44.5041 -2.10669 -3.16738 0
M  V30 497 H 45.8161 -2.57704 -4.27071 0
M  V30 498 H 44.9701 -0.966173 -5.98957 0
M  V30 499 H 43.7091 -0.394272 -4.86104 0
M  V30 500 H 42.7141 -2.69805 -4.79046 0
M  V30 501 H 43.9391 -3.26728 -5.95336 0
M  V30 502 H 41.8851 -1.08352 -6.4699 0
M  V30 503 H 41.8021 -2.71217 -7.05675 0
M  V30 504 H 43.0701 -1.66252 -7.61564 0
M  V30 505 N 47.2992 1.18797 -1.03562 0
M  V30 506 C 48.7152 1.40671 -0.753917 0
M  V30 507 C 48.9152 1.9043 0.658686 0
M  V30 508 O 47.9712 2.08538 1.42366 0
M  V30 509 C 49.2842 2.41192 -1.79574 0
M  V30 510 C 50.8322 2.54928 -1.81606 0
M  V30 511 C 51.3072 3.58709 -2.84766 0
M  V30 512 N 52.7982 3.66212 -2.83625 0
M  V30 513 C 53.5332 4.46225 -3.60098 0
M  V30 514 N 53.0292 5.29888 -4.46308 0
M  V30 515 N 54.8222 4.40939 -3.4861 0
M  V30 516 H 46.9732 0.848221 -1.94728 0
M  V30 517 H 49.2362 0.435081 -0.842264 0
M  V30 518 H 48.9422 2.11669 -2.80872 0
M  V30 519 H 48.8162 3.40467 -1.62365 0
M  V30 520 H 51.2032 2.83771 -0.809817 0
M  V30 521 H 51.2842 1.55784 -2.02891 0
M  V30 522 H 50.9282 3.30607 -3.85566 0
M  V30 523 H 50.8582 4.57519 -2.60737 0
M  V30 524 H 53.3492 3.06466 -2.21105 0
M  V30 525 H 53.6622 5.88078 -5.01382 0
M  V30 526 H 52.0072 5.29326 -4.50377 0
M  V30 527 H 55.1982 3.74624 -2.80668 0
M  V30 528 H 55.3712 5.03056 -4.08459 0
M  V30 529 N 48.7773 0.814389 1.34928 0
M  V30 530 C 49.7253 0.218424 2.31572 0
M  V30 531 C 50.7193 -0.636128 1.57002 0
M  V30 532 O 51.9253 -0.52842 1.72069 0
M  V30 533 H 48.3003 0.0518799 0.750208 0
M  V30 534 H 50.2713 1.04852 2.79372 0
M  V30 535 C 49.0203 -0.61207 3.4227 0
M  V30 536 H 48.3433 0.0361578 3.99784 0
M  V30 537 H 49.7833 -0.995317 4.12152 0
M  V30 538 C 48.2423 -1.78087 2.85984 0
M  V30 539 O 48.7723 -2.8787 2.80168 0
M  V30 540 N 46.9783 -1.59488 2.42924 0
M  V30 541 H 46.5253 -0.701874 2.47854 0
M  V30 542 H 46.4833 -2.37846 2.05613 0
M  V30 543 N 50.2554 -1.46986 0.568584 0
M  V30 544 C 51.4834 -2.0683 0.0539956 0
M  V30 545 C 51.8984 -1.41953 -1.24478 0
M  V30 546 O 51.2554 -0.519933 -1.74937 0
M  V30 547 C 51.3064 -3.61254 -0.133362 0
M  V30 548 O 51.0274 -4.237 1.11399 0
M  V30 549 C 52.5284 -4.37992 -0.683927 0
M  V30 550 H 49.7484 -0.669058 0.0510141 0
M  V30 551 H 52.2924 -1.88824 0.785234 0
M  V30 552 H 50.4474 -3.78735 -0.81477 0
M  V30 553 H 50.8614 -5.16388 0.91888 0
M  V30 554 H 52.3354 -5.46684 -0.764263 0
M  V30 555 H 52.8124 -4.05058 -1.69778 0
M  V30 556 H 53.4184 -4.25283 -0.0378494 0
M  V30 557 N 51.7335 -0.305618 -1.54608 0
M  V30 558 C 52.6635 0.561482 -2.26649 0
M  V30 559 C 53.6445 1.13415 -1.26772 0
M  V30 560 O 54.8295 1.16262 -1.55553 0
M  V30 561 C 51.9595 1.73122 -3.01075 0
M  V30 562 C 50.9135 1.2887 -4.08138 0
M  V30 563 C 50.2395 2.54396 -4.70305 0
M  V30 564 C 51.5395 0.416578 -5.20636 0
M  V30 565 H 53.2335 -0.0393902 -2.99374 0
M  V30 566 H 50.7795 -0.020385 -1.43986 0
M  V30 567 H 52.7325 2.34396 -3.50195 0
M  V30 568 H 51.4565 2.3584 -2.25936 0
M  V30 569 H 50.1155 0.698991 -3.59875 0
M  V30 570 H 49.7635 3.15439 -3.918 0
M  V30 571 H 49.4635 2.25486 -5.42614 0
M  V30 572 H 50.9875 3.16464 -5.2219 0
M  V30 573 H 52.4015 0.935116 -5.65622 0
M  V30 574 H 50.7985 0.221046 -5.99693 0
M  V30 575 H 51.8685 -0.557162 -4.81688 0
M  V30 576 N 53.2116 1.57565 -0.0334293 0
M  V30 577 C 54.1596 2.1164 0.96496 0
M  V30 578 C 55.1536 1.04398 1.33407 0
M  V30 579 O 56.3596 1.22828 1.3158 0
M  V30 580 H 52.7346 0.676222 0.32898 0
M  V30 581 H 54.7056 2.94455 0.483614 0
M  V30 582 C 53.4546 2.66207 2.23672 0
M  V30 583 H 52.7776 3.48378 1.96145 0
M  V30 584 H 54.2176 3.07685 2.9173 0
M  V30 585 C 52.6766 1.59151 2.96939 0
M  V30 586 O 53.2066 0.993858 3.89211 0
M  V30 587 N 51.4126 1.31093 2.59351 0
M  V30 588 H 50.9596 1.7988 1.84393 0
M  V30 589 H 50.9176 0.596889 3.08682 0
M  V30 590 N 54.6897 -0.239769 1.55765 0
M  V30 591 C 55.6367 -1.29696 1.90913 0
M  V30 592 C 56.6067 -1.47478 0.764164 0
M  V30 593 O 57.7917 -1.61345 1.01845 0
M  V30 594 C 54.9317 -2.64598 2.21544 0
M  V30 595 C 54.0447 -2.54765 3.48882 0
M  V30 596 C 53.1797 -3.82069 3.69049 0
M  V30 597 C 52.2187 -3.66883 4.89963 0
M  V30 598 N 51.3557 -4.86094 5.06614 0
M  V30 599 H 56.1957 -0.990224 2.81067 0
M  V30 600 H 53.7327 -0.477684 1.39128 0
M  V30 601 H 55.6907 -3.43132 2.3731 0
M  V30 602 H 54.3207 -2.93405 1.34585 0
M  V30 603 H 53.3727 -1.67763 3.41409 0
M  V30 604 H 54.6847 -2.39457 4.37563 0
M  V30 605 H 53.8387 -4.69046 3.84812 0
M  V30 606 H 52.5777 -4.00282 2.78614 0
M  V30 607 H 51.5827 -2.78289 4.74168 0
M  V30 608 H 52.8077 -3.50157 5.81865 0
M  V30 609 H 50.7537 -5.04655 4.19117 0
M  V30 610 H 50.6707 -4.73443 5.89396 0
M  V30 611 H 51.9387 -5.74549 5.26795 0
M  V30 612 N 56.1678 -1.49265 -0.50573 0
M  V30 613 C 57.5788 -1.51769 -1.08734 0
M  V30 614 C 57.9298 -0.301192 -1.93874 0
M  V30 615 O 57.0548 0.589456 -2.08217 0
M  V30 616 C 57.6498 -2.75017 -1.97867 0
M  V30 617 C 56.2088 -2.80314 -2.51199 0
M  V30 618 C 55.3558 -2.4562 -1.28709 0
M  V30 619 H 58.3068 -1.56031 -0.289855 0
M  V30 620 H 58.3278 -2.5491 -2.82491 0
M  V30 621 H 57.8398 -3.63539 -1.35873 0
M  V30 622 H 55.9408 -1.96061 -3.16845 0
M  V30 623 H 56.0538 -3.82366 -2.88675 0
M  V30 624 H 54.4178 -1.97297 -1.61078 0
M  V30 625 H 55.2008 -3.36411 -0.6843 0
M  V30 626 N 57.6459 0.756429 -1.3826 0
M  V30 627 C 58.8919 1.51772 -1.34511 0
M  V30 628 C 59.2249 1.94089 0.0656691 0
M  V30 629 O 58.4999 1.65221 1.02626 0
M  V30 630 C 58.7829 2.77226 -2.29821 0
M  V30 631 C 58.6359 2.41065 -3.79747 0
M  V30 632 C 59.9549 3.79236 -2.23312 0
M  V30 633 H 57.0739 0.550578 -0.489931 0
M  V30 634 H 59.7159 0.866607 -1.69086 0
M  V30 635 H 57.8659 3.32784 -2.00467 0
M  V30 636 H 59.5379 1.91303 -4.19763 0
M  V30 637 H 57.7809 1.7356 -3.97567 0
M  V30 638 H 58.4519 3.3081 -4.41892 0
M  V30 639 H 60.9279 3.3321 -2.49219 0
M  V30 640 H 59.8039 4.64714 -2.92116 0
M  V30 641 H 60.0649 4.24615 -1.23102 0
M  V30 642 N 59.124 1.23083 0.984299 0
M  V30 643 C 60.373 1.05466 1.71929 0
M  V30 644 C 60.686 -0.409211 1.91272 0
M  V30 645 O 61.892 -0.705226 2.62181 0
M  V30 646 C 60.348 1.83874 3.09384 0
M  V30 647 C 59.956 3.34566 2.97943 0
M  V30 648 C 61.7 1.74734 3.8687 0
M  V30 649 C 59.607 4.05381 4.30605 0
M  V30 650 H 58.537 0.391039 0.644674 0
M  V30 651 H 61.188 1.47013 1.09815 0
M  V30 652 H 59.57 1.35131 3.72231 0
M  V30 653 H 60.744 3.90767 2.44209 0
M  V30 654 H 59.059 3.44476 2.33934 0
M  V30 655 H 61.656 2.24957 4.85076 0
M  V30 656 H 61.999 0.709372 4.10212 0
M  V30 657 H 62.532 2.21067 3.30717 0
M  V30 658 H 59.271 5.09467 4.1246 0
M  V30 659 H 58.791 3.53967 4.84218 0
M  V30 660 H 60.47 4.11458 4.99311 0
M  V30 661 N 60.6021 -1.18246 1.0419 0
M  V30 662 C 61.5351 -2.20746 0.578474 0
M  V30 663 C 62.5131 -1.57912 -0.387624 0
M  V30 664 O 63.6971 -1.86071 -0.301634 0
M  V30 665 C 60.8241 -3.38346 -0.154762 0
M  V30 666 C 59.8701 -4.19587 0.764782 0
M  V30 667 S 60.7031 -4.86014 2.24835 0
M  V30 668 C 61.8591 -6.07012 1.526 0
M  V30 669 H 62.0921 -2.59715 1.44691 0
M  V30 670 H 59.6251 -1.287 0.85297 0
M  V30 671 H 61.5831 -4.065 -0.571641 0
M  V30 672 H 60.2441 -2.97786 -0.999105 0
M  V30 673 H 59.4371 -5.03611 0.197976 0
M  V30 674 H 59.0391 -3.56818 1.12057 0
M  V30 675 H 61.3311 -6.72523 0.819733 0
M  V30 676 H 62.2741 -6.68202 2.34333 0
M  V30 677 H 62.6821 -5.55249 1.01779 0
M  V30 678 N 62.0802 -0.821533 -1.34494 0
M  V30 679 C 63.3282 -0.408139 -1.97936 0
M  V30 680 C 63.6492 1.03193 -1.65457 0
M  V30 681 O 62.9192 1.71622 -0.944595 0
M  V30 682 H 61.4992 -0.147928 -0.732206 0
M  V30 683 H 64.1612 -1.05067 -1.64155 0
M  V30 684 H 63.2572 -0.52601 -3.07635 0
M  V30 685 N 63.5583 1.46682 -0.576371 0
M  V30 686 C 64.9743 1.57822 -0.237562 0
M  V30 687 C 65.1743 1.57237 1.26011 0
M  V30 688 O 64.2303 1.48596 2.04146 0
M  V30 689 C 65.5433 2.87499 -0.881168 0
M  V30 690 C 67.0913 3.01119 -0.85417 0
M  V30 691 C 67.5663 4.33524 -1.4772 0
M  V30 692 N 69.0573 4.40207 -1.44125 0
M  V30 693 C 69.7923 5.4126 -1.89276 0
M  V30 694 N 69.2883 6.49021 -2.42371 0
M  V30 695 N 71.0813 5.32422 -1.80231 0
M  V30 696 H 63.2323 1.45306 -1.54919 0
M  V30 697 H 65.4953 0.692733 -0.647167 0
M  V30 698 H 65.2013 2.9372 -1.93447 0
M  V30 699 H 65.0753 3.75224 -0.385592 0
M  V30 700 H 67.4623 2.94485 0.190491 0
M  V30 701 H 67.5433 2.14887 -1.3877 0
M  V30 702 H 67.1873 4.40916 -2.52103 0
M  V30 703 H 67.1173 5.1852 -0.918947 0
M  V30 704 H 69.6083 3.62931 -1.05307 0
M  V30 705 H 69.9213 7.2233 -2.74698 0
M  V30 706 H 68.2663 6.49858 -2.46393 0
M  V30 707 H 71.4573 4.47137 -1.38514 0
M  V30 708 H 71.6303 6.11034 -2.15735 0
M  V30 709 N 65.0364 0.313813 1.54444 0
M  V30 710 C 65.9864 -0.571898 2.20711 0
M  V30 711 C 66.9704 -1.08913 1.18435 0
M  V30 712 O 68.1624 -1.02777 1.44104 0
M  V30 713 C 65.2914 -1.7371 2.96108 0
M  V30 714 C 64.3774 -1.23522 4.05713 0
M  V30 715 N 64.7684 -0.452288 5.03774 0
M  V30 716 C 63.0664 -1.51482 4.19487 0
M  V30 717 C 63.7674 -0.183438 5.81411 0
M  V30 718 N 62.7434 -0.766845 5.38164 0
M  V30 719 H 66.5454 0.0336802 2.93881 0
M  V30 720 H 64.0594 0.119192 1.61962 0
M  V30 721 H 66.0564 -2.38329 3.4206 0
M  V30 722 H 64.7164 -2.34625 2.24458 0
M  V30 723 H 65.7274 -0.0960131 5.17811 0
M  V30 724 H 62.4044 -2.13053 3.59047 0
M  V30 725 H 63.7944 0.446216 6.70417 0
M  V30 726 N 66.5145 -1.57545 0.0417849 0
M  V30 727 C 67.7425 -1.96624 -0.643928 0
M  V30 728 C 68.1575 -0.918897 -1.64929 0
M  V30 729 O 67.5145 0.0979323 -1.82237 0
M  V30 730 C 67.5655 -3.35781 -1.33914 0
M  V30 731 O 67.2865 -4.365 -0.374048 0
M  V30 732 C 68.7875 -3.89566 -2.1155 0
M  V30 733 H 66.0075 -0.647316 -0.176702 0
M  V30 734 H 68.5515 -2.04229 0.105304 0
M  V30 735 H 66.7065 -3.29357 -2.03968 0
M  V30 736 H 67.1205 -5.17248 -0.869179 0
M  V30 737 H 68.5945 -4.89242 -2.55628 0
M  V30 738 H 69.0715 -3.24488 -2.9598 0
M  V30 739 H 69.6775 -3.99298 -1.46427 0
M  V30 740 N 67.9926 0.231505 -1.5589 0
M  V30 741 C 69.2386 0.954429 -1.79617 0
M  V30 742 C 69.5936 1.82367 -0.613199 0
M  V30 743 O 68.8866 1.87524 0.393094 0
M  V30 744 C 69.0806 1.83577 -3.0665 0
M  V30 745 C 68.9096 1.05334 -4.3719 0
M  V30 746 C 67.6796 0.75225 -4.99669 0
M  V30 747 C 69.8776 0.423444 -5.12554 0
M  V30 748 N 67.8596 -0.052627 -6.13877 0
M  V30 749 C 69.2306 -0.245287 -6.19515 0
M  V30 750 C 71.2856 0.335466 -4.96769 0
M  V30 751 C 69.9886 -0.993566 -7.12405 0
M  V30 752 C 72.0146 -0.399321 -5.9005 0
M  V30 753 C 71.3766 -1.05663 -6.9643 0
M  V30 754 H 67.4756 0.329846 -0.709031 0
M  V30 755 H 70.0596 0.226172 -1.93382 0
M  V30 756 H 68.2306 2.53592 -2.94186 0
M  V30 757 H 69.9626 2.49541 -3.18608 0
M  V30 758 H 66.7176 1.06783 -4.61405 0
M  V30 759 H 67.1416 -0.443609 -6.75545 0
M  V30 760 H 71.7836 0.829311 -4.14587 0
M  V30 761 H 69.5016 -1.49896 -7.94076 0
M  V30 762 H 73.0876 -0.468265 -5.79913 0
M  V30 763 H 71.9676 -1.61612 -7.67366 0
M  V30 764 N 69.4707 1.49531 0.497807 0
M  V30 765 C 70.3807 1.69176 1.62532 0
M  V30 766 C 71.3967 0.5744 1.64246 0
M  V30 767 O 72.5727 0.849497 1.82608 0
M  V30 768 C 69.6377 1.75695 2.98885 0
M  V30 769 C 68.6987 2.9929 3.07773 0
M  V30 770 C 67.9317 3.05488 4.37622 0
M  V30 771 O 68.1547 2.19192 5.26603 0
M  V30 772 O 67.0887 3.9798 4.51548 0
M  V30 773 H 70.9147 2.647 1.48887 0
M  V30 774 H 68.4997 1.3331 0.674441 0
M  V30 775 H 70.3817 1.82317 3.79919 0
M  V30 776 H 69.0567 0.8335 3.12785 0
M  V30 777 H 67.9637 2.98183 2.25915 0
M  V30 778 H 69.2967 3.91125 2.98801 0
M  V30 779 N 70.9488 -0.749086 1.3866 0
M  V30 780 C 72.1738 -1.54344 1.38538 0
M  V30 781 C 72.5988 -1.88088 -0.0216655 0
M  V30 782 O 71.9568 -1.50899 -1.00494 0
M  V30 783 C 72.0048 -2.8164 2.25192 0
M  V30 784 O 71.1088 -3.7698 1.67212 0
M  V30 785 H 70.4498 -0.466654 0.472367 0
M  V30 786 H 72.9798 -0.925355 1.82478 0
M  V30 787 H 72.9898 -3.30519 2.3921 0
M  V30 788 H 71.6648 -2.56411 3.27454 0
M  V30 789 H 70.2418 -3.35699 1.6236 0
M  V30 790 N 72.4269 -1.23603 -0.977757 0
M  V30 791 C 73.6759 -1.06377 -1.71368 0
M  V30 792 C 73.9889 0.399062 -1.91486 0
M  V30 793 O 75.1949 0.691312 -2.62551 0
M  V30 794 C 73.6509 -1.85512 -3.08404 0
M  V30 795 C 73.2589 -3.36141 -2.96164 0
M  V30 796 C 75.0029 -1.76783 -3.85938 0
M  V30 797 C 72.9099 -4.07659 -4.28449 0
M  V30 798 H 71.8399 -0.394452 -0.642591 0
M  V30 799 H 74.4909 -1.47594 -1.09034 0
M  V30 800 H 72.8729 -1.37103 -3.71509 0
M  V30 801 H 74.0469 -3.92056 -2.42133 0
M  V30 802 H 72.3619 -3.45712 -2.32104 0
M  V30 803 H 74.9589 -2.27526 -4.83876 0
M  V30 804 H 75.3019 -0.731116 -4.0983 0
M  V30 805 H 75.8349 -2.22818 -3.2954 0
M  V30 806 H 72.5739 -5.11648 -4.09752 0
M  V30 807 H 72.0939 -3.5653 -4.82334 0
M  V30 808 H 73.7729 -4.141 -4.97122 0
M  V30 809 N 73.905 1.17692 -1.04816 0
M  V30 810 C 75.153 1.87488 -0.754497 0
M  V30 811 C 75.474 1.81205 0.720407 0
M  V30 812 O 74.744 1.23544 1.52032 0
M  V30 813 H 73.324 0.694101 -0.276102 0
M  V30 814 H 75.986 1.42793 -1.32651 0
M  V30 815 H 75.082 2.93328 -1.06606 0
M  V30 816 N 75.3831 0.828654 1.34056 0
M  V30 817 C 76.7991 0.515135 1.51058 0
M  V30 818 C 76.9991 -0.959581 1.77184 0
M  V30 819 O 76.0551 -1.74382 1.82612 0
M  V30 820 C 77.3681 1.37963 2.67183 0
M  V30 821 C 78.9161 1.37735 2.81066 0
M  V30 822 C 79.3911 2.22645 4.00241 0
M  V30 823 N 80.8821 2.203 4.07458 0
M  V30 824 C 81.6171 2.82744 4.98842 0
M  V30 825 N 81.1131 3.54201 5.9541 0
M  V30 826 N 82.9061 2.72268 4.91759 0
M  V30 827 H 75.0571 1.78343 1.15358 0
M  V30 828 H 77.3201 0.760304 0.566252 0
M  V30 829 H 77.0261 2.42714 2.54525 0
M  V30 830 H 76.9001 1.0484 3.62338 0
M  V30 831 H 79.2871 0.337593 2.93163 0
M  V30 832 H 79.3681 1.74859 1.86703 0
M  V30 833 H 79.0121 3.26674 3.88905 0
M  V30 834 H 78.9421 1.82869 4.93829 0
M  V30 835 H 81.4331 1.68327 3.38341 0
M  V30 836 H 81.7461 3.9908 6.61782 0
M  V30 837 H 80.0911 3.58308 5.95517 0
M  V30 838 H 83.2821 2.16014 4.15278 0
M  V30 839 H 83.4551 3.21219 5.62781 0
M  V30 840 N 76.8612 -1.46375 0.584142 0
M  V30 841 C 78.2722 -1.86031 0.157959 0
M  V30 842 C 78.6232 -1.48753 -1.27933 0
M  V30 843 O 77.7482 -0.903098 -1.96655 0
M  V30 844 C 78.3432 -3.37642 0.279892 0
M  V30 845 C 76.9022 -3.76289 -0.09143 0
M  V30 846 C 76.0492 -2.7039 0.615178 0
M  V30 847 H 79.0002 -1.37509 0.792274 0
M  V30 848 H 79.0212 -3.77275 -0.494364 0
M  V30 849 H 78.5332 -3.64742 1.32607 0
M  V30 850 H 76.6342 -3.54806 -1.13769 0
M  V30 851 H 76.7472 -4.78246 0.285886 0
M  V30 852 H 75.1112 -2.5464 0.0552833 0
M  V30 853 H 75.8942 -3.0033 1.66303 0
M  V30 854 N 78.3393 -0.321999 -1.54275 0
M  V30 855 C 79.2693 0.537411 -2.27231 0
M  V30 856 C 80.2503 1.12064 -1.27968 0
M  V30 857 O 81.4353 1.14606 -1.56777 0
M  V30 858 C 78.5653 1.69919 -3.02894 0
M  V30 859 C 77.5193 1.24534 -4.09482 0
M  V30 860 C 76.8453 2.49394 -4.72977 0
M  V30 861 C 78.1453 0.361335 -5.21049 0
M  V30 862 H 79.8393 -0.0711406 -2.99315 0
M  V30 863 H 77.3853 -0.0356555 -1.43956 0
M  V30 864 H 79.3383 2.30668 -3.52662 0
M  V30 865 H 78.0623 2.33431 -2.28424 0
M  V30 866 H 76.7213 0.660782 -3.60596 0
M  V30 867 H 76.3693 3.11265 -3.95124 0
M  V30 868 H 76.0693 2.19718 -5.44975 0
M  V30 869 H 77.5933 3.10908 -5.25517 0
M  V30 870 H 79.0073 0.875072 -5.66582 0
M  V30 871 H 77.4043 0.157428 -5.99893 0
M  V30 872 H 78.4743 -0.60822 -4.8107 0
M  V30 873 N 79.8174 1.5752 -0.0501392 0
M  V30 874 C 81.2284 1.80271 0.485705 0
M  V30 875 C 81.5794 0.96228 1.70981 0
M  V30 876 O 80.7044 0.178578 2.15662 0
M  V30 877 C 81.2994 3.26957 0.887938 0
M  V30 878 C 79.8584 3.5063 1.36877 0
M  V30 879 C 79.0054 2.75165 0.343468 0
M  V30 880 H 81.9564 1.56281 -0.276028 0
M  V30 881 H 81.9774 3.37821 1.75093 0
M  V30 882 H 81.4894 3.881 -0.0031809 0
M  V30 883 H 79.5904 2.94766 2.27911 0
M  V30 884 H 79.7034 4.59343 1.36164 0
M  V30 885 H 78.0674 2.4127 0.816128 0
M  V30 886 H 78.8504 3.39034 -0.539548 0
M  V30 887 N 81.2955 -0.223234 1.56011 0
M  V30 888 C 82.5435 -0.946003 1.78592 0
M  V30 889 C 82.8645 -1.84936 0.618349 0
M  V30 890 O 82.1345 -1.92473 -0.364833 0
M  V30 891 H 80.7145 -0.352298 0.658707 0
M  V30 892 H 83.3765 -0.235494 1.93472 0
M  V30 893 H 82.4725 -1.55381 2.70672 0
M  V30 894 N 82.7736 -1.49793 -0.48987 0
M  V30 895 C 84.1896 -1.36803 -0.822022 0
M  V30 896 C 84.3896 -0.409652 -1.97292 0
M  V30 897 O 83.4456 0.154614 -2.52026 0
M  V30 898 C 84.7586 -2.77768 -1.15175 0
M  V30 899 C 86.3066 -2.86549 -1.25931 0
M  V30 900 C 86.7816 -4.28306 -1.62228 0
M  V30 901 N 88.2726 -4.31169 -1.69256 0
M  V30 902 C 89.0076 -5.37832 -1.98807 0
M  V30 903 N 88.5036 -6.54726 -2.26507 0
M  V30 904 N 90.2966 -5.25258 -2.00152 0
M  V30 905 H 82.4476 -2.10691 0.268881 0
M  V30 906 H 84.7106 -0.946241 0.057728 0
M  V30 907 H 84.4166 -3.49648 -0.379335 0
M  V30 908 H 84.2906 -3.13836 -2.09253 0
M  V30 909 H 86.6776 -2.14899 -2.02243 0
M  V30 910 H 86.7586 -2.54049 -0.298776 0
M  V30 911 H 86.4026 -5.00486 -0.864622 0
M  V30 912 H 86.3326 -4.58279 -2.594 0
M  V30 913 H 88.8236 -3.4687 -1.49965 0
M  V30 914 H 89.1366 -7.31833 -2.48276 0
M  V30 915 H 87.4816 -6.57933 -2.23939 0
M  V30 916 H 90.6726 -4.32938 -1.77996 0
M  V30 917 H 90.8456 -6.08476 -2.22848 0
M  V30 918 N 84.2517 0.741722 -1.39055 0
M  V30 919 C 85.1987 1.85566 -1.37237 0
M  V30 920 C 86.1687 1.64457 -0.233072 0
M  V30 921 O 87.3537 1.85957 -0.427147 0
M  V30 922 C 84.4937 3.23004 -1.215 0
M  V30 923 C 83.6067 3.55864 -2.44918 0
M  V30 924 C 82.7417 4.82669 -2.21821 0
M  V30 925 C 81.7807 5.08351 -3.40948 0
M  V30 926 N 80.9177 6.26356 -3.17211 0
M  V30 927 H 85.7577 1.86455 -2.32462 0
M  V30 928 H 83.2947 0.911176 -1.15482 0
M  V30 929 H 85.2527 4.02331 -1.10389 0
M  V30 930 H 83.8827 3.21411 -0.29908 0
M  V30 931 H 82.9347 2.7129 -2.66657 0
M  V30 932 H 84.2467 3.70765 -3.33668 0
M  V30 933 H 83.4007 5.69962 -2.07914 0
M  V30 934 H 82.1397 4.69929 -1.30454 0
M  V30 935 H 81.1447 4.19522 -3.55361 0
M  V30 936 H 82.3697 5.22981 -4.33207 0
M  V30 937 H 80.3157 6.14917 -2.28502 0
M  V30 938 H 80.2327 6.41813 -3.99515 0
M  V30 939 H 81.5007 7.16506 -3.06984 0
M  V30 940 N 85.7298 1.2412 0.971189 0
M  V30 941 C 86.6778 1.02812 2.08644 0
M  V30 942 C 87.6718 -0.0358403 1.69362 0
M  V30 943 O 88.8778 0.118429 1.7961 0
M  V30 944 H 85.2528 0.315428 0.682649 0
M  V30 945 H 87.2238 1.97397 2.23779 0
M  V30 946 C 85.9728 0.645874 3.41649 0
M  V30 947 H 85.2958 1.45632 3.72332 0
M  V30 948 H 86.7358 0.536366 4.20594 0
M  V30 949 C 85.1948 -0.646713 3.30635 0
M  V30 950 O 85.7248 -1.69338 3.64263 0
M  V30 951 N 83.9308 -0.626115 2.83775 0
M  V30 952 H 83.4778 0.225988 2.56607 0
M  V30 953 H 83.4358 -1.49117 2.76788 0
M  V30 954 N 87.2079 -1.17134 1.05439 0
M  V30 955 C 88.4569 -1.86791 0.761049 0
M  V30 956 C 88.7699 -1.82072 -0.714795 0
M  V30 957 O 89.9759 -2.47223 -1.12218 0
M  V30 958 C 88.4319 -3.35166 1.31117 0
M  V30 959 C 88.0399 -3.48381 2.81664 0
M  V30 960 C 89.7839 -4.10134 1.09499 0
M  V30 961 C 87.6909 -4.90793 3.29964 0
M  V30 962 H 86.6209 -0.699681 0.281002 0
M  V30 963 H 89.2719 -1.3226 1.27199 0
M  V30 964 H 87.6539 -3.8925 0.72803 0
M  V30 965 H 88.8279 -3.04502 3.45855 0
M  V30 966 H 87.1429 -2.86836 3.01851 0
M  V30 967 H 89.7399 -5.152 1.43084 0
M  V30 968 H 90.0829 -4.16287 0.0328772 0
M  V30 969 H 90.6159 -3.62264 1.64346 0
M  V30 970 H 87.3549 -4.89816 4.35616 0
M  V30 971 H 86.8749 -5.35333 2.70516 0
M  V30 972 H 88.5539 -5.59573 3.24787 0
M  V30 973 N 88.686 -0.835752 -1.33615 0
M  V30 974 C 89.935 -0.426289 -1.97144 0
M  V30 975 C 90.248 1.01912 -1.66953 0
M  V30 976 O 91.454 1.53311 -2.24072 0
M  V30 977 C 89.91 -0.711321 -3.52801 0
M  V30 978 C 89.518 -2.1712 -3.91871 0
M  V30 979 C 91.262 -0.368654 -4.22896 0
M  V30 980 C 89.169 -2.40044 -5.40493 0
M  V30 981 H 88.099 -0.15567 -0.737755 0
M  V30 982 H 90.75 -1.0239 -1.52278 0
M  V30 983 H 89.132 -0.0433766 -3.95976 0
M  V30 984 H 90.306 -2.87936 -3.59763 0
M  V30 985 H 88.621 -2.47654 -3.34749 0
M  V30 986 H 91.218 -0.517601 -5.32189 0
M  V30 987 H 91.561 0.688078 -4.10574 0
M  V30 988 H 92.094 -0.991702 -3.8524 0
M  V30 989 H 88.833 -3.44271 -5.57815 0
M  V30 990 H 88.353 -1.73785 -5.74072 0
M  V30 991 H 90.032 -2.23042 -6.0734 0
M  V30 992 N 90.1641 1.46063 -0.591896 0
M  V30 993 C 91.0941 2.33172 0.123673 0
M  V30 994 C 92.0751 1.45897 0.87453 0
M  V30 995 O 93.2601 1.74698 0.848181 0
M  V30 996 C 90.3901 3.28336 1.13194 0
M  V30 997 C 89.3441 4.25124 0.495324 0
M  V30 998 C 88.6701 5.09863 1.61071 0
M  V30 999 C 89.9701 5.19143 -0.573425 0
M  V30 1000 H 91.6641 2.93252 -0.603646 0
M  V30 1001 H 89.2101 1.41014 -0.291741 0
M  V30 1002 H 91.1631 3.88137 1.64097 0
M  V30 1003 H 89.8871 2.66383 1.88965 0
M  V30 1004 H 88.5461 3.66599 0.00729452 0
M  V30 1005 H 88.1941 4.44288 2.35832 0
M  V30 1006 H 87.8941 5.75417 1.19035 0
M  V30 1007 H 89.4181 5.72529 2.12233 0
M  V30 1008 H 90.8321 5.73106 -0.1491 0
M  V30 1009 H 89.2291 5.93089 -0.914636 0
M  V30 1010 H 90.2991 4.62519 -1.45617 0
M  V30 1011 N 91.6422 0.330177 1.54103 0
M  V30 1012 C 92.8672 -0.274893 2.0557 0
M  V30 1013 C 93.2922 -1.44487 1.20437 0
M  V30 1014 O 92.6502 -1.80021 0.214991 0
M  V30 1015 C 92.6982 -0.68079 3.54115 0
M  V30 1016 O 91.8022 -1.7824 3.71893 0
M  V30 1017 H 91.1432 -0.0483849 0.662235 0
M  V30 1018 H 93.6732 0.480508 1.98878 0
M  V30 1019 H 93.6832 -0.961635 3.96505 0
M  V30 1020 H 92.3582 0.174903 4.15532 0
M  V30 1021 H 90.9352 -1.49985 3.41407 0
M  V30 1022 N 93.1203 -1.57491 0.0584922 0
M  V30 1023 C 94.3453 -1.97711 -0.62652 0
M  V30 1024 C 94.7703 -0.936132 -1.63151 0
M  V30 1025 O 94.1283 0.099811 -1.81025 0
M  V30 1026 C 94.1763 -3.36989 -1.28338 0
M  V30 1027 O 93.2803 -3.35433 -2.39913 0
M  V30 1028 H 92.6213 -0.643868 -0.162266 0
M  V30 1029 H 95.1513 -2.04193 0.129064 0
M  V30 1030 H 95.1613 -3.73879 -1.63335 0
M  V30 1031 H 93.8363 -4.12289 -0.546889 0
M  V30 1032 H 92.4133 -3.10298 -2.06809 0
M  V30 1033 N 94.5984 0.214957 -1.56127 0
M  V30 1034 C 95.5304 1.29004 -1.89448 0
M  V30 1035 C 96.5434 1.42716 -0.783326 0
M  V30 1036 O 97.7324 1.43496 -1.06166 0
M  V30 1037 C 94.8324 2.66482 -2.09381 0
M  V30 1038 C 94.0054 2.74633 -3.40434 0
M  V30 1039 C 93.0644 3.9317 -3.49719 0
M  V30 1040 O 92.0904 3.812 -4.227 0
M  V30 1041 N 93.2924 5.07765 -2.81346 0
M  V30 1042 H 96.0574 1.00743 -2.82261 0
M  V30 1043 H 93.6184 0.40497 -1.56753 0
M  V30 1044 H 95.6104 3.44173 -2.12901 0
M  V30 1045 H 94.1804 2.87314 -1.23163 0
M  V30 1046 H 93.4004 1.83368 -3.48955 0
M  V30 1047 H 94.6884 2.77054 -4.26754 0
M  V30 1048 H 94.0864 5.20386 -2.21843 0
M  V30 1049 H 92.6434 5.83474 -2.90519 0
M  V30 1050 N 96.0765 1.50051 0.48192 0
M  V30 1051 C 97.4875 1.5348 1.06305 0
M  V30 1052 C 97.8385 0.331997 1.93371 0
M  V30 1053 O 96.9635 -0.556256 2.09129 0
M  V30 1054 C 97.5585 2.7813 1.93466 0
M  V30 1055 C 96.1175 2.84275 2.46707 0
M  V30 1056 C 95.2645 2.47637 1.24785 0
M  V30 1057 H 98.2155 1.56472 0.264995 0
M  V30 1058 H 98.2365 2.59372 2.78399 0
M  V30 1059 H 97.7485 3.65654 1.30072 0
M  V30 1060 H 95.8495 2.01077 3.13686 0
M  V30 1061 H 95.9625 3.8691 2.82555 0
M  V30 1062 H 94.3265 1.99835 1.57918 0
M  V30 1063 H 95.1095 3.37457 0.630694 0
M  V30 1064 N 97.5546 -0.734337 1.39446 0
M  V30 1065 C 98.8026 -1.49096 1.36436 0
M  V30 1066 C 99.1236 -1.94961 -0.0388255 0
M  V30 1067 O 98.3936 -1.69033 -0.990191 0
M  V30 1068 H 96.9736 -0.5531 0.502085 0
M  V30 1069 H 99.6356 -0.871725 1.74319 0
M  V30 1070 H 98.7316 -2.37276 2.02747 0
M  V30 1071 N 99.0327 -1.24633 -0.964593 0
M  V30 1072 C 100.261 -1.11501 -1.74285 0
M  V30 1073 C 100.676 0.332165 -1.85855 0
M  V30 1074 O 100.033 1.22903 -1.34911 0
M  V30 1075 C 100.084 -1.75258 -3.16175 0
M  V30 1076 O 99.8047 -3.14318 -3.05182 0
M  V30 1077 C 101.306 -1.67776 -4.10324 0
M  V30 1078 H 98.5257 -0.389407 -0.546446 0
M  V30 1079 H 101.07 -1.64801 -1.21083 0
M  V30 1080 H 99.2247 -1.25954 -3.66353 0
M  V30 1081 H 99.6387 -3.4551 -3.94618 0
M  V30 1082 H 101.113 -2.17064 -5.0753 0
M  V30 1083 H 101.59 -0.639584 -4.34518 0
M  V30 1084 H 102.196 -2.16522 -3.66058 0
M  V30 1085 N 100.511 1.16574 -1.06058 0
M  V30 1086 C 101.788 1.83048 -0.689416 0
M  V30 1087 C 102.168 1.94122 0.829443 0
M  V30 1088 O 101.516 1.48249 1.7388 0
M  V30 1089 C 101.726 3.20186 -1.38859 0
M  V30 1090 C 103.074 3.95989 -1.53226 0
M  V30 1091 O 104.098 3.29696 -1.3483 0
M  V30 1092 O 102.957 5.14813 -1.83384 0
M  V30 1093 H 100.051 0.790258 -0.243764 0
M  V30 1094 H 102.597 1.23797 -1.16071 0
M  V30 1095 H 101.369 3.07146 -2.4244 0
M  V30 1096 H 100.992 3.87112 -0.907216 0
M  V30 1097 N 101.989 0.842826 1.3317 0
M  V30 1098 C 103.266 0.362216 1.92217 0
M  V30 1099 C 103.646 -1.15289 1.76838 0
M  V30 1100 O 102.994 -1.96914 1.15919 0
M  V30 1101 C 103.204 0.813495 3.39387 0
M  V30 1102 C 104.552 0.823804 4.16532 0
M  V30 1103 O 105.576 0.757358 3.48055 0
M  V30 1104 O 104.435 0.915193 5.38782 0
M  V30 1105 H 101.529 0.103317 0.820521 0
M  V30 1106 H 104.075 0.928942 1.42017 0
M  V30 1107 H 102.847 1.85624 3.4447 0
M  V30 1108 H 102.47 0.223561 3.96971 0
M  V30 1109 N 103.467 -1.45747 0.599634 0
M  V30 1110 C 104.883 -1.57424 0.26264 0
M  V30 1111 C 105.083 -1.59222 -1.23493 0
M  V30 1112 O 104.139 -1.51825 -2.01756 0
M  V30 1113 C 105.452 -2.86061 0.926795 0
M  V30 1114 C 107 -2.99722 0.901967 0
M  V30 1115 C 107.475 -4.31119 1.54598 0
M  V30 1116 N 108.966 -4.37858 1.5111 0
M  V30 1117 C 109.701 -5.3818 1.97863 0
M  V30 1118 N 109.197 -6.45083 2.52666 0
M  V30 1119 N 110.99 -5.29487 1.88679 0
M  V30 1120 H 103.141 -1.42823 1.57211 0
M  V30 1121 H 105.404 -0.68235 0.658105 0
M  V30 1122 H 105.11 -2.90605 1.98095 0
M  V30 1123 H 104.984 -3.74563 0.445238 0
M  V30 1124 H 107.371 -2.9475 -0.143617 0
M  V30 1125 H 107.452 -2.12652 1.42171 0
M  V30 1126 H 107.096 -4.36849 2.59085 0
M  V30 1127 H 107.026 -5.16992 1.00132 0
M  V30 1128 H 109.517 -3.61209 1.11068 0
M  V30 1129 H 109.83 -7.17869 2.86155 0
M  V30 1130 H 108.175 -6.45856 2.56701 0
M  V30 1131 H 111.366 -4.44877 1.4561 0
M  V30 1132 H 111.539 -6.07524 2.25429 0
M  V30 1133 N 104.945 -0.338344 -1.53925 0
M  V30 1134 C 106.191 0.260143 -2.01125 0
M  V30 1135 C 106.524 1.50617 -1.22589 0
M  V30 1136 O 105.799 1.91979 -0.312113 0
M  V30 1137 C 106.082 0.579499 -3.55407 0
M  V30 1138 C 105.935 -0.678264 -4.44657 0
M  V30 1139 C 107.254 1.39122 -4.17532 0
M  V30 1140 H 104.373 0.0930772 -0.731099 0
M  V30 1141 H 107.015 -0.457852 -1.84401 0
M  V30 1142 H 105.165 1.19118 -3.69788 0
M  V30 1143 H 106.837 -1.31631 -4.42121 0
M  V30 1144 H 105.08 -1.3042 -4.13731 0
M  V30 1145 H 105.751 -0.410143 -5.50474 0
M  V30 1146 H 108.227 0.874035 -4.06817 0
M  V30 1147 H 107.103 1.58342 -5.25565 0
M  V30 1148 H 107.364 2.39178 -3.71815 0
M  V30 1149 N 106.423 1.57458 -0.0668435 0
M  V30 1150 C 107.651 1.97624 0.612565 0
M  V30 1151 C 108.066 0.94502 1.63447 0
M  V30 1152 O 107.423 -0.0689276 1.8237 0
M  V30 1153 C 107.474 3.37869 1.28555 0
M  V30 1154 O 107.195 4.3704 0.304557 0
M  V30 1155 C 108.696 3.92882 2.05325 0
M  V30 1156 H 105.916 0.650045 0.166381 0
M  V30 1157 H 108.46 2.04035 -0.137782 0
M  V30 1158 H 106.615 3.3256 1.98702 0
M  V30 1159 H 107.029 5.18565 0.786779 0
M  V30 1160 H 108.503 4.93247 2.47812 0
M  V30 1161 H 108.98 3.29156 2.9078 0
M  V30 1162 H 109.586 4.01577 1.40056 0
M  V30 1163 N 107.901 -0.206675 1.56239 0
M  V30 1164 C 109.147 -0.925733 1.81113 0
M  V30 1165 C 109.502 -1.81368 0.642135 0
M  V30 1166 O 108.795 -1.88126 -0.363211 0
M  V30 1167 C 108.989 -1.78675 3.09532 0
M  V30 1168 C 108.818 -0.98365 4.3881 0
M  V30 1169 C 107.588 -0.672661 5.00803 0
M  V30 1170 C 109.786 -0.341847 5.13163 0
M  V30 1171 N 107.768 0.150283 6.13716 0
M  V30 1172 C 109.139 0.343815 6.19046 0
M  V30 1173 C 111.194 -0.256392 4.97239 0
M  V30 1174 C 109.897 1.10678 7.10734 0
M  V30 1175 C 111.923 0.493142 5.8934 0
M  V30 1176 C 111.285 1.16729 6.94661 0
M  V30 1177 H 107.384 -0.318524 0.714189 0
M  V30 1178 H 109.968 -0.195378 1.93717 0
M  V30 1179 H 108.139 -2.4888 2.98183 0
M  V30 1180 H 109.871 -2.44441 3.22538 0
M  V30 1181 H 106.626 -0.994294 4.63045 0
M  V30 1182 H 107.05 0.551026 6.74754 0
M  V30 1183 H 111.692 -0.763249 4.15854 0
M  V30 1184 H 109.41 1.6251 7.91591 0
M  V30 1185 H 112.996 0.560465 5.79094 0
M  V30 1186 H 111.876 1.738 7.64698 0
M  V30 1187 N 109.379 -1.50304 -0.473955 0
M  V30 1188 C 110.625 -1.61389 -1.22806 0
M  V30 1189 C 110.958 -0.311955 -1.91678 0
M  V30 1190 O 110.233 0.686384 -1.81986 0
M  V30 1191 C 110.516 -2.79219 -2.27396 0
M  V30 1192 C 110.369 -4.19286 -1.62848 0
M  V30 1193 C 111.688 -2.92614 -3.28732 0
M  V30 1194 H 108.807 -0.587399 -0.445119 0
M  V30 1195 H 111.449 -1.82681 -0.522265 0
M  V30 1196 H 109.599 -2.61195 -2.87592 0
M  V30 1197 H 111.271 -4.48892 -1.06271 0
M  V30 1198 H 109.514 -4.23677 -0.931693 0
M  V30 1199 H 110.185 -4.97655 -2.38838 0
M  V30 1200 H 112.661 -3.09105 -2.78556 0
M  V30 1201 H 111.537 -3.76688 -3.99246 0
M  V30 1202 H 111.798 -2.03107 -3.92683 0
M  V30 1203 N 110.857 0.726932 -1.39834 0
M  V30 1204 C 111.804 1.841 -1.39197 0
M  V30 1205 C 112.774 1.642 -0.250502 0
M  V30 1206 O 113.959 1.85494 -0.446846 0
M  V30 1207 C 111.099 3.21697 -1.24919 0
M  V30 1208 C 110.212 3.53247 -2.48678 0
M  V30 1209 C 109.347 4.80289 -2.26928 0
M  V30 1210 C 108.386 5.04707 -3.4632 0
M  V30 1211 N 107.523 6.22956 -3.23836 0
M  V30 1212 H 112.363 1.83979 -2.34427 0
M  V30 1213 H 109.9 0.898876 -1.16442 0
M  V30 1214 H 111.858 4.01137 -1.1465 0
M  V30 1215 H 110.488 3.21076 -0.333153 0
M  V30 1216 H 109.54 2.68447 -2.69519 0
M  V30 1217 H 110.852 3.67205 -3.37582 0
M  V30 1218 H 110.006 5.67725 -2.13947 0
M  V30 1219 H 108.745 4.68519 -1.35431 0
M  V30 1220 H 107.75 4.1573 -3.5979 0
M  V30 1221 H 108.975 5.18357 -4.38729 0
M  V30 1222 H 106.921 6.12459 -2.35011 0
M  V30 1223 H 106.838 6.37539 -4.063 0
M  V30 1224 H 108.106 7.1321 -3.14566 0
M  V30 1225 N 112.336 1.25143 0.95797 0
M  V30 1226 C 113.561 1.12521 1.74223 0
M  V30 1227 C 113.986 -0.317402 1.85403 0
M  V30 1228 O 113.344 -1.2299 1.33204 0
M  V30 1229 C 113.392 1.78062 3.1357 0
M  V30 1230 O 112.496 1.058 3.98598 0
M  V30 1231 H 111.837 0.39304 0.535178 0
M  V30 1232 H 114.367 1.65641 1.201 0
M  V30 1233 H 114.377 1.84213 3.64046 0
M  V30 1234 H 113.052 2.83021 3.04749 0
M  V30 1235 H 111.629 1.07506 3.57067 0
M  V30 1236 N 113.814 -1.1601 1.06675 0
M  V30 1237 C 115.06 -1.86909 0.786945 0
M  V30 1238 C 115.393 -1.81717 -0.685018 0
M  V30 1239 O 114.668 -1.23551 -1.50218 0
M  V30 1240 C 114.951 -3.36313 1.28707 0
M  V30 1241 C 114.804 -3.50175 2.82308 0
M  V30 1242 C 116.123 -4.3084 0.898071 0
M  V30 1243 H 113.242 -0.678677 0.287343 0
M  V30 1244 H 115.884 -1.36336 1.32334 0
M  V30 1245 H 114.034 -3.79513 0.830768 0
M  V30 1246 H 115.706 -3.15886 3.36175 0
M  V30 1247 H 113.949 -2.91959 3.20847 0
M  V30 1248 H 114.62 -4.55116 3.12368 0
M  V30 1249 H 117.096 -3.95561 1.29114 0
M  V30 1250 H 115.972 -5.33876 1.27543 0
M  V30 1251 H 116.233 -4.41662 -0.196651 0
M  V30 1252 N 115.292 -0.849877 -1.32721 0
M  V30 1253 C 116.569 -0.372405 -1.92022 0
M  V30 1254 C 116.949 1.1435 -1.77447 0
M  V30 1255 O 116.297 1.96296 -1.16962 0
M  V30 1256 C 116.507 -0.831482 -3.3895 0
M  V30 1257 C 117.855 -0.845882 -4.16089 0
M  V30 1258 O 118.879 -0.775806 -3.47649 0
M  V30 1259 O 117.738 -0.943753 -5.38289 0
M  V30 1260 H 114.832 -0.107667 -0.819961 0
M  V30 1261 H 117.378 -0.93646 -1.41522 0
M  V30 1262 H 116.15 -1.87448 -3.4348 0
M  V30 1263 H 115.773 -0.24461 -3.96847 0
M  V30 1264 N 116.77 1.45427 -0.607355 0
M  V30 1265 C 117.68 2.34325 0.113463 0
M  V30 1266 C 118.696 1.51226 0.860617 0
M  V30 1267 O 119.872 1.84029 0.818255 0
M  V30 1268 C 116.937 3.28839 1.09844 0
M  V30 1269 C 115.998 4.27844 0.353271 0
M  V30 1270 C 115.231 5.17842 1.29133 0
M  V30 1271 O 115.454 5.11264 2.52913 0
M  V30 1272 O 114.388 5.96713 0.788523 0
M  V30 1273 H 118.214 2.97364 -0.617094 0
M  V30 1274 H 115.799 1.44807 -0.367619 0
M  V30 1275 H 117.681 3.8708 1.66575 0
M  V30 1276 H 116.356 2.68365 1.81003 0
M  V30 1277 H 115.263 3.7322 -0.256494 0
M  V30 1278 H 116.596 4.91173 -0.317822 0
M  V30 1279 N 118.248 0.346503 1.53744 0
M  V30 1280 C 119.211 -0.496439 2.23759 0
M  V30 1281 C 120.211 -1.0252 1.2388 0
M  V30 1282 O 121.401 -0.913974 1.48297 0
M  V30 1283 C 118.533 -1.69187 2.95954 0
M  V30 1284 H 119.726 0.115952 2.99676 0
M  V30 1285 H 117.279 0.0978939 1.55993 0
M  V30 1286 H 118.014 -2.34288 2.24231 0
M  V30 1287 H 117.799 -1.31989 3.69217 0
M  V30 1288 H 119.289 -2.28969 3.49232 0
M  V30 1289 N 119.726 -1.57421 0.075193 0
M  V30 1290 C 120.975 -1.92794 -0.592731 0
M  V30 1291 C 121.288 -0.957478 -1.70563 0
M  V30 1292 O 122.494 -1.20417 -2.43335 0
M  V30 1293 C 120.95 -3.42495 -1.10569 0
M  V30 1294 C 120.558 -4.47994 -0.0236121 0
M  V30 1295 C 122.302 -3.86864 -1.74748 0
M  V30 1296 C 120.209 -5.88829 -0.550803 0
M  V30 1297 H 119.139 -0.719591 -0.225177 0
M  V30 1298 H 121.79 -1.82902 0.147978 0
M  V30 1299 H 120.172 -3.47471 -1.89947 0
M  V30 1300 H 121.346 -4.54637 0.751099 0
M  V30 1301 H 119.661 -4.13113 0.522159 0
M  V30 1302 H 122.258 -4.8947 -2.15229 0
M  V30 1303 H 122.601 -3.24417 -2.60882 0
M  V30 1304 H 123.134 -3.84504 -1.01986 0
M  V30 1305 H 119.873 -6.54929 0.273457 0
M  V30 1306 H 119.393 -5.85698 -1.29296 0
M  V30 1307 H 121.072 -6.38811 -1.02613 0
M  V30 1308 N 121.204 0.198386 -1.56346 0
M  V30 1309 C 122.167 1.22952 -1.93431 0
M  V30 1310 C 123.167 1.38611 -0.815092 0
M  V30 1311 O 124.357 1.36479 -1.08255 0
M  V30 1312 C 121.489 2.59946 -2.20546 0
M  V30 1313 H 122.682 0.912626 -2.85677 0
M  V30 1314 H 120.235 0.43977 -1.49986 0
M  V30 1315 H 120.97 2.96696 -1.30927 0
M  V30 1316 H 120.755 2.49953 -3.02102 0
M  V30 1317 H 122.245 3.3431 -2.50253 0
M  V30 1318 N 122.682 1.50554 0.465978 0
M  V30 1319 C 123.645 1.69233 1.54574 0
M  V30 1320 C 124.645 0.562901 1.50626 0
M  V30 1321 O 125.835 0.830016 1.53155 0
M  V30 1322 C 122.967 1.7223 2.94193 0
M  V30 1323 H 124.16 2.65571 1.39327 0
M  V30 1324 H 121.713 1.40111 0.692711 0
M  V30 1325 H 122.448 0.77603 3.14878 0
M  V30 1326 H 122.233 2.54285 2.98466 0
M  V30 1327 H 123.723 1.88618 3.72576 0
M  V30 1328 N 124.16 -0.719506 1.40217 0
M  V30 1329 C 125.4 -1.49181 1.39729 0
M  V30 1330 C 125.764 -1.92 -0.00250614 0
M  V30 1331 O 126.965 -2.68473 -0.132479 0
M  V30 1332 C 125.236 -2.68767 2.35582 0
M  V30 1333 S 126.795 -3.58224 2.53418 0
M  V30 1334 H 123.613 -0.510091 0.495307 0
M  V30 1335 H 126.215 -0.841724 1.76452 0
M  V30 1336 H 124.919 -2.35475 3.36124 0
M  V30 1337 H 124.45 -3.38691 2.0013 0
M  V30 1338 H 126.465 -4.63033 1.78367 0
M  V30 1339 N 125.638 -1.25649 -0.95132 0
M  V30 1340 C 126.886 -1.10375 -1.69298 0
M  V30 1341 C 127.207 0.355339 -1.91735 0
M  V30 1342 O 126.477 1.25188 -1.50681 0
M  V30 1343 H 125.057 -0.405461 -0.627384 0
M  V30 1344 H 127.719 -1.57823 -1.14358 0
M  V30 1345 H 126.815 -1.61465 -2.67087 0
M  V30 1346 N 127.117 1.15442 -1.07289 0
M  V30 1347 C 128.394 1.82306 -0.708792 0
M  V30 1348 C 128.774 1.94991 0.808807 0
M  V30 1349 O 128.122 1.50085 1.72298 0
M  V30 1350 C 128.332 3.18695 -1.42247 0
M  V30 1351 C 129.68 3.94341 -1.57417 0
M  V30 1352 O 130.704 3.28247 -1.38319 0
M  V30 1353 O 129.563 5.12839 -1.88834 0
M  V30 1354 H 126.657 0.787628 -0.252132 0
M  V30 1355 H 129.203 1.22559 -1.17377 0
M  V30 1356 H 127.975 3.04557 -2.45684 0
M  V30 1357 H 127.598 3.86128 -0.948223 0
M  V30 1358 N 128.595 0.856903 1.32268 0
M  V30 1359 C 129.841 0.462069 1.97466 0
M  V30 1360 C 130.174 -0.980298 1.67642 0
M  V30 1361 O 129.449 -1.68824 0.965858 0
M  V30 1362 C 129.732 0.704336 3.53145 0
M  V30 1363 C 129.585 2.19529 3.9259 0
M  V30 1364 C 130.904 0.1622 4.39801 0
M  V30 1365 H 128.023 0.169357 0.717278 0
M  V30 1366 H 130.665 1.07574 1.56614 0
M  V30 1367 H 128.815 0.181999 3.88073 0
M  V30 1368 H 130.487 2.78387 3.67829 0
M  V30 1369 H 128.73 2.67292 3.41668 0
M  V30 1370 H 129.401 2.31549 5.01088 0
M  V30 1371 H 131.877 0.608905 4.11621 0
M  V30 1372 H 130.753 0.361265 5.4771 0
M  V30 1373 H 131.014 -0.935158 4.32096 0
M  V30 1374 N 130.073 -1.45103 0.615059 0
M  V30 1375 C 131.484 -1.85654 0.197383 0
M  V30 1376 C 131.835 -1.51433 -1.24749 0
M  V30 1377 O 130.96 -0.944608 -1.94695 0
M  V30 1378 C 131.555 -3.36972 0.351448 0
M  V30 1379 C 130.114 -3.76398 -0.011593 0
M  V30 1380 C 129.261 -2.69024 0.672394 0
M  V30 1381 H 132.212 -1.35797 0.821263 0
M  V30 1382 H 132.233 -3.78239 -0.414227 0
M  V30 1383 H 131.745 -3.61847 1.40314 0
M  V30 1384 H 129.846 -3.5714 -1.06217 0
M  V30 1385 H 129.959 -4.77532 0.387265 0
M  V30 1386 H 128.323 -2.54465 0.109284 0
M  V30 1387 H 129.106 -2.96735 1.72636 0
M  V30 1388 N 131.551 -0.354651 -1.53558 0
M  V30 1389 C 132.461 0.50515 -2.29097 0
M  V30 1390 C 133.477 1.10223 -1.34636 0
M  V30 1391 O 134.653 1.11553 -1.67684 0
M  V30 1392 C 131.718 1.63479 -3.05738 0
M  V30 1393 C 130.779 1.06636 -4.15845 0
M  V30 1394 C 130.012 2.14217 -4.88822 0
M  V30 1395 O 130.235 3.35137 -4.61562 0
M  V30 1396 O 129.169 1.77887 -5.75013 0
M  V30 1397 H 132.995 -0.109237 -3.03503 0
M  V30 1398 H 130.58 -0.119357 -1.48922 0
M  V30 1399 H 132.462 2.2918 -3.5363 0
M  V30 1400 H 131.137 2.23478 -2.34178 0
M  V30 1401 H 130.044 0.373565 -3.7223 0
M  V30 1402 H 131.377 0.511081 -4.89539 0
M  V30 1403 N 133.029 1.57378 -0.0835403 0
M  V30 1404 C 134.278 1.93106 0.582498 0
M  V30 1405 C 134.591 0.96651 1.70053 0
M  V30 1406 O 135.797 1.21705 2.42693 0
M  V30 1407 C 134.253 3.43076 1.08751 0
M  V30 1408 C 133.861 4.48 -0.000146404 0
M  V30 1409 C 135.605 3.87785 1.72694 0
M  V30 1410 C 133.512 5.89113 0.519568 0
M  V30 1411 H 132.442 0.720775 0.221358 0
M  V30 1412 H 135.093 1.82821 -0.157675 0
M  V30 1413 H 133.475 3.48474 1.88101 0
M  V30 1414 H 134.649 4.54233 -0.775199 0
M  V30 1415 H 132.964 4.1283 -0.54406 0
M  V30 1416 H 135.561 4.90604 2.1263 0
M  V30 1417 H 135.904 3.25796 2.59158 0
M  V30 1418 H 136.437 3.8504 0.999457 0
M  V30 1419 H 133.176 6.54775 -0.308186 0
M  V30 1420 H 132.696 5.86376 1.26188 0
M  V30 1421 H 134.375 6.39346 0.992237 0
M  V30 1422 N 134.507 -0.190092 1.56449 0
M  V30 1423 C 135.44 -1.26375 1.90012 0
M  V30 1424 C 136.418 -1.43705 0.760765 0
M  V30 1425 O 137.602 -1.59014 1.01226 0
M  V30 1426 C 134.729 -2.62962 2.13468 0
M  V30 1427 C 133.775 -2.62474 3.36169 0
M  V30 1428 S 134.608 -2.13412 4.91137 0
M  V30 1429 C 135.764 -3.51812 5.17667 0
M  V30 1430 H 135.997 -0.977181 2.80782 0
M  V30 1431 H 133.53 -0.393814 1.49293 0
M  V30 1432 H 135.488 -3.41583 2.27664 0
M  V30 1433 H 134.149 -2.88828 1.23439 0
M  V30 1434 H 133.342 -3.62918 3.49723 0
M  V30 1435 H 132.944 -1.91937 3.20992 0
M  V30 1436 H 135.236 -4.47706 5.08494 0
M  V30 1437 H 136.179 -3.43148 6.19399 0
M  V30 1438 H 136.587 -3.46956 4.45288 0
M  V30 1439 N 135.985 -1.50799 -0.457987 0
M  V30 1440 C 137.231 -1.62683 -1.21088 0
M  V30 1441 C 137.564 -0.332268 -1.91336 0
M  V30 1442 O 136.839 0.667043 -1.82704 0
M  V30 1443 C 137.122 -2.81615 -2.24422 0
M  V30 1444 C 136.975 -4.20989 -1.58392 0
M  V30 1445 C 138.294 -2.96085 -3.2561 0
M  V30 1446 H 135.413 -0.592087 -0.438864 0
M  V30 1447 H 138.055 -1.83225 -0.50286 0
M  V30 1448 H 136.205 -2.64231 -2.84806 0
M  V30 1449 H 137.877 -4.49994 -1.01504 0
M  V30 1450 H 136.12 -4.24641 -0.886704 0
M  V30 1451 H 136.791 -5.0016 -2.33547 0
M  V30 1452 H 139.267 -3.12042 -2.75262 0
M  V30 1453 H 138.143 -3.80902 -3.95228 0
M  V30 1454 H 138.404 -2.0726 -3.90507 0
M  V30 1455 N 137.463 0.71206 -1.40597 0
M  V30 1456 C 138.712 1.46754 -1.38369 0
M  V30 1457 C 139.025 1.95598 0.0097839 0
M  V30 1458 O 140.231 2.71059 0.154677 0
M  V30 1459 C 138.687 2.65289 -2.43207 0
M  V30 1460 C 138.295 2.23301 -3.88382 0
M  V30 1461 C 140.039 3.43008 -2.50091 0
M  V30 1462 C 137.946 3.38696 -4.84808 0
M  V30 1463 H 136.876 0.55118 -0.514506 0
M  V30 1464 H 139.527 0.774616 -1.66349 0
M  V30 1465 H 137.909 3.36769 -2.08332 0
M  V30 1466 H 139.083 1.59218 -4.32419 0
M  V30 1467 H 137.398 1.58618 -3.85006 0
M  V30 1468 H 139.995 4.28881 -3.1932 0
M  V30 1469 H 140.338 3.87065 -1.53253 0
M  V30 1470 H 140.871 2.78574 -2.83974 0
M  V30 1471 H 137.61 2.99668 -5.82992 0
M  V30 1472 H 137.13 4.01683 -4.45433 0
M  V30 1473 H 138.809 4.04712 -5.04794 0
M  V30 1474 N 138.941 1.26152 0.944643 0
M  V30 1475 C 140.189 1.11271 1.6871 0
M  V30 1476 C 140.51 -0.345166 1.91921 0
M  V30 1477 O 139.78 -1.24387 1.51343 0
M  V30 1478 H 138.36 0.408783 0.625224 0
M  V30 1479 H 141.022 1.58427 1.1352 0
M  V30 1480 H 140.118 1.62879 2.66227 0
M  V30 1481 N 140.419 -1.14872 1.07899 0
M  V30 1482 C 141.667 -1.85422 0.803941 0
M  V30 1483 C 141.988 -1.83051 -0.67211 0
M  V30 1484 O 141.258 -1.27532 -1.48703 0
M  V30 1485 H 139.838 -0.686537 0.294408 0
M  V30 1486 H 142.5 -1.39226 1.3639 0
M  V30 1487 H 141.596 -2.90399 1.14346 0
M  V30 1488 N 141.898 -0.863906 -1.31812 0
M  V30 1489 C 143.146 -0.470904 -1.96537 0
M  V30 1490 C 143.467 0.978771 -1.68657 0
M  V30 1491 O 142.737 1.6853 -0.998717 0
M  V30 1492 H 141.317 -0.171148 -0.72713 0
M  V30 1493 H 143.979 -1.10236 -1.60729 0
M  V30 1494 H 143.075 -0.623616 -3.05806 0
M  V30 1495 N 143.376 1.44774 -0.622745 0
M  V30 1496 C 144.792 1.56986 -0.287652 0
M  V30 1497 C 144.992 1.61167 1.20944 0
M  V30 1498 O 144.048 1.55015 1.99315 0
M  V30 1499 C 145.361 2.84551 -0.972188 0
M  V30 1500 C 146.909 2.9825 -0.949536 0
M  V30 1501 C 147.384 4.28605 -1.61437 0
M  V30 1502 N 148.875 4.35399 -1.58057 0
M  V30 1503 C 149.61 5.34964 -2.064 0
M  V30 1504 N 149.106 6.40981 -2.62897 0
M  V30 1505 N 150.899 5.26419 -1.97078 0
M  V30 1506 H 143.05 1.40304 -1.59463 0
M  V30 1507 H 145.313 0.671794 -0.668878 0
M  V30 1508 H 145.019 2.87417 -2.02693 0
M  V30 1509 H 144.893 3.73807 -0.504771 0
M  V30 1510 H 147.28 2.94941 0.0967067 0
M  V30 1511 H 147.361 2.10364 -1.45536 0
M  V30 1512 H 147.005 4.32672 -2.66002 0
M  V30 1513 H 146.935 5.15334 -1.08344 0
M  V30 1514 H 149.426 3.59397 -1.16801 0
M  V30 1515 H 149.739 7.13225 -2.97539 0
M  V30 1516 H 148.084 6.4169 -2.66943 0
M  V30 1517 H 151.275 4.42504 -1.52669 0
M  V30 1518 H 151.448 6.03861 -2.35066 0
M  V30 1519 N 144.854 0.36279 1.53368 0
M  V30 1520 C 146.1 -0.228113 2.01513 0
M  V30 1521 C 146.433 -1.48648 1.2497 0
M  V30 1522 O 145.708 -1.91459 0.342616 0
M  V30 1523 C 145.991 -0.522884 3.56284 0
M  V30 1524 C 145.844 0.74892 4.43521 0
M  V30 1525 C 147.163 -1.32461 4.19693 0
M  V30 1526 H 144.282 -0.0814343 0.732487 0
M  V30 1527 H 146.924 0.48713 1.83649 0
M  V30 1528 H 145.074 -1.1322 3.71636 0
M  V30 1529 H 146.746 1.38648 4.39971 0
M  V30 1530 H 144.989 1.36986 4.11603 0
M  V30 1531 H 145.66 0.497667 5.49752 0
M  V30 1532 H 148.136 -0.809203 4.08156 0
M  V30 1533 H 147.012 -1.49961 5.28018 0
M  V30 1534 H 147.273 -2.33232 3.75573 0
M  V30 1535 N 146.332 -1.57332 0.0918853 0
M  V30 1536 C 147.562 -1.98286 -0.580205 0
M  V30 1537 C 147.97 -0.969713 -1.6246 0
M  V30 1538 O 147.313 0.0493501 -1.83634 0
M  V30 1539 C 147.375 -3.35603 -1.28882 0
M  V30 1540 C 147.039 -4.55285 -0.395559 0
M  V30 1541 C 148.036 -5.18687 0.355002 0
M  V30 1542 C 145.721 -5.01314 -0.314556 0
M  V30 1543 C 147.715 -6.26484 1.17458 0
M  V30 1544 C 145.402 -6.08979 0.508677 0
M  V30 1545 C 146.4 -6.71429 1.2519 0
M  V30 1546 O 146.088 -7.77018 2.06151 0
M  V30 1547 H 145.82 -0.656678 -0.160466 0
M  V30 1548 H 148.374 -2.04721 0.16688 0
M  V30 1549 H 146.604 -3.25842 -2.08241 0
M  V30 1550 H 148.293 -3.61026 -1.85512 0
M  V30 1551 H 149.059 -4.84058 0.302134 0
M  V30 1552 H 144.938 -4.5247 -0.882697 0
M  V30 1553 H 148.482 -6.75159 1.75518 0
M  V30 1554 H 144.379 -6.4304 0.563037 0
M  V30 1555 H 145.147 -7.93991 1.98799 0
M  V30 1556 N 147.81 0.181792 -1.56548 0
M  V30 1557 C 148.72 1.24538 -1.98815 0
M  V30 1558 C 149.736 1.49045 -0.897861 0
M  V30 1559 O 150.912 1.61399 -1.20467 0
M  V30 1560 C 147.977 2.56683 -2.33055 0
M  V30 1561 C 147.038 2.40131 -3.55859 0
M  V30 1562 C 146.271 3.65975 -3.88456 0
M  V30 1563 O 146.494 4.70711 -3.22161 0
M  V30 1564 O 145.428 3.6071 -4.81842 0
M  V30 1565 H 149.254 0.916647 -2.89536 0
M  V30 1566 H 146.839 0.387842 -1.44278 0
M  V30 1567 H 148.721 3.34655 -2.56094 0
M  V30 1568 H 147.396 2.89157 -1.45498 0
M  V30 1569 H 146.303 1.60226 -3.38051 0
M  V30 1570 H 147.636 2.12585 -4.43924 0
M  V30 1571 N 149.288 1.51039 0.449983 0
M  V30 1572 C 150.22 1.67617 1.56324 0
M  V30 1573 C 151.233 0.557083 1.52972 0
M  V30 1574 O 152.422 0.830989 1.57977 0
M  V30 1575 C 149.522 1.66402 2.95235 0
M  V30 1576 C 148.695 2.9469 3.23229 0
M  V30 1577 C 147.754 2.85832 4.41799 0
M  V30 1578 O 146.78 3.59785 4.41071 0
M  V30 1579 N 147.982 2.00821 5.44657 0
M  V30 1580 H 150.747 2.63648 1.42512 0
M  V30 1581 H 148.308 1.48767 0.638737 0
M  V30 1582 H 150.3 1.58062 3.72557 0
M  V30 1583 H 148.87 0.780182 3.02708 0
M  V30 1584 H 148.09 3.16996 2.34323 0
M  V30 1585 H 149.378 3.79636 3.38754 0
M  V30 1586 H 148.776 1.40091 5.48079 0
M  V30 1587 H 147.333 1.98368 6.20881 0
M  V30 1588 N 150.766 -0.704594 1.40972 0
M  V30 1589 C 152.013 -1.46458 1.39844 0
M  V30 1590 C 152.341 -1.94499 0.00447594 0
M  V30 1591 O 151.596 -1.69275 -0.982057 0
M  V30 1592 C 151.895 -2.698 2.34399 0
M  V30 1593 C 151.561 -2.40464 3.81429 0
M  V30 1594 C 150.223 -2.32174 4.21484 0
M  V30 1595 C 152.575 -2.16086 4.74296 0
M  V30 1596 C 149.903 -1.97589 5.52427 0
M  V30 1597 C 152.255 -1.83011 6.05549 0
M  V30 1598 C 150.919 -1.7321 6.44635 0
M  V30 1599 H 150.189 -0.535927 0.511725 0
M  V30 1600 H 152.836 -0.806124 1.73706 0
M  V30 1601 H 151.141 -3.40536 1.93759 0
M  V30 1602 H 152.838 -3.27919 2.30804 0
M  V30 1603 H 149.428 -2.47808 3.49699 0
M  V30 1604 H 153.612 -2.2144 4.4416 0
M  V30 1605 H 148.868 -1.88547 5.81601 0
M  V30 1606 H 153.042 -1.63164 6.77016 0
M  V30 1607 H 150.669 -1.46179 7.46013 0
M  V30 1608 N 152.244 -1.26651 -0.937939 0
M  V30 1609 C 153.174 -1.10993 -2.05433 0
M  V30 1610 C 154.155 -0.0142161 -1.70094 0
M  V30 1611 O 155.34 -0.186837 -1.93299 0
M  V30 1612 C 152.47 -0.745561 -3.39203 0
M  V30 1613 C 151.424 -1.79337 -3.88616 0
M  V30 1614 C 150.75 -1.28324 -5.19073 0
M  V30 1615 C 152.05 -3.19553 -4.13138 0
M  V30 1616 H 153.744 -2.0438 -2.1879 0
M  V30 1617 H 151.29 -0.984041 -1.05131 0
M  V30 1618 H 153.243 -0.622888 -4.16771 0
M  V30 1619 H 151.967 0.22401 -3.25831 0
M  V30 1620 H 150.626 -1.90477 -3.13231 0
M  V30 1621 H 150.274 -0.303414 -5.02084 0
M  V30 1622 H 149.974 -1.98369 -5.53103 0
M  V30 1623 H 151.498 -1.1733 -5.99221 0
M  V30 1624 H 152.912 -3.11471 -4.81309 0
M  V30 1625 H 151.309 -3.87218 -4.58457 0
M  V30 1626 H 152.379 -3.65368 -3.18801 0
M  V30 1627 N 153.722 1.14298 -1.08507 0
M  V30 1628 C 155.133 1.66926 -0.836227 0
M  V30 1629 C 155.484 1.85576 0.63686 0
M  V30 1630 O 154.609 1.56767 1.49175 0
M  V30 1631 C 155.204 3.03219 -1.51142 0
M  V30 1632 C 153.763 3.52876 -1.30979 0
M  V30 1633 C 152.91 2.2833 -1.57356 0
M  V30 1634 H 155.861 0.983491 -1.24552 0
M  V30 1635 H 155.882 3.68726 -0.939211 0
M  V30 1636 H 155.394 2.89612 -2.58353 0
M  V30 1637 H 153.495 3.71703 -0.258429 0
M  V30 1638 H 153.608 4.33586 -2.03814 0
M  V30 1639 H 151.972 2.34454 -0.995164 0
M  V30 1640 H 152.755 2.17298 -2.65775 0
M  V30 1641 N 155.201 0.870884 1.31352 0
M  V30 1642 C 156.148 0.325425 2.28494 0
M  V30 1643 C 157.118 -0.576615 1.5577 0
M  V30 1644 O 158.303 -0.508059 1.83911 0
M  V30 1645 C 155.443 -0.466283 3.41935 0
M  V30 1646 C 154.556 0.463378 4.29508 0
M  V30 1647 C 153.691 -0.342544 5.30094 0
M  V30 1648 C 152.73 0.583486 6.09313 0
M  V30 1649 N 151.867 -0.186244 7.01853 0
M  V30 1650 H 156.707 1.15901 2.74538 0
M  V30 1651 H 154.244 0.58294 1.35056 0
M  V30 1652 H 156.202 -0.941085 4.06447 0
M  V30 1653 H 154.832 -1.26456 2.97 0
M  V30 1654 H 153.884 1.05663 3.65431 0
M  V30 1655 H 155.196 1.1734 4.84802 0
M  V30 1656 H 154.35 -0.879816 6.00287 0
M  V30 1657 H 153.089 -1.08585 4.75458 0
M  V30 1658 H 152.094 1.13251 5.3801 0
M  V30 1659 H 153.319 1.32566 6.66035 0
M  V30 1660 H 151.265 -0.912348 6.49625 0
M  V30 1661 H 151.182 0.464422 7.54572 0
M  V30 1662 H 152.45 -0.704716 7.76308 0
M  V30 1663 N 156.679 -1.44442 0.630414 0
M  V30 1664 C 157.642 -2.29107 -0.0652523 0
M  V30 1665 C 158.642 -1.41002 -0.772995 0
M  V30 1666 O 159.832 -1.62881 -0.617692 0
M  V30 1667 C 156.964 -3.22564 -1.10296 0
M  V30 1668 H 158.157 -2.92103 0.679401 0
M  V30 1669 H 155.71 -1.51343 0.390517 0
M  V30 1670 H 156.445 -2.64416 -1.87762 0
M  V30 1671 H 156.23 -3.87491 -0.59941 0
M  V30 1672 H 157.72 -3.86167 -1.5895 0
M  V30 1673 N 158.157 -0.370918 -1.53173 0
M  V30 1674 C 159.089 0.507823 -2.23503 0
M  V30 1675 C 160.102 1.04182 -1.251 0
M  V30 1676 O 161.291 0.947286 -1.5129 0
M  V30 1677 C 158.391 1.71447 -2.92334 0
M  V30 1678 C 157.564 1.31105 -4.17289 0
M  V30 1679 C 156.623 2.38035 -4.69282 0
M  V30 1680 O 155.649 2.00204 -5.32829 0
M  V30 1681 N 156.851 3.69697 -4.47554 0
M  V30 1682 H 159.616 -0.0946382 -2.99551 0
M  V30 1683 H 157.177 -0.196358 -1.60705 0
M  V30 1684 H 159.169 2.42469 -3.24023 0
M  V30 1685 H 157.739 2.22368 -2.19707 0
M  V30 1686 H 156.959 0.430462 -3.91843 0
M  V30 1687 H 158.247 1.0179 -4.98514 0
M  V30 1688 H 157.645 4.03205 -3.9679 0
M  V30 1689 H 156.202 4.36807 -4.8378 0
M  V30 1690 N 159.635 1.57281 -0.100228 0
M  V30 1691 C 160.582 2.14305 0.856858 0
M  V30 1692 C 161.552 1.06296 1.27634 0
M  V30 1693 O 162.737 1.34109 1.35718 0
M  V30 1694 C 159.877 2.73184 2.10866 0
M  V30 1695 C 158.99 3.95442 1.73925 0
M  V30 1696 C 158.125 4.42468 2.93931 0
M  V30 1697 C 157.164 5.57303 2.5314 0
M  V30 1698 N 156.301 5.99158 3.65997 0
M  V30 1699 H 161.141 2.95772 0.363726 0
M  V30 1700 H 158.678 1.46139 0.167858 0
M  V30 1701 H 160.636 3.05442 2.84185 0
M  V30 1702 H 159.266 1.94437 2.57671 0
M  V30 1703 H 158.318 3.69464 0.905554 0
M  V30 1704 H 159.63 4.78769 1.39935 0
M  V30 1705 H 158.784 4.76537 3.75496 0
M  V30 1706 H 157.523 3.58052 3.31134 0
M  V30 1707 H 156.528 5.22857 1.70003 0
M  V30 1708 H 157.753 6.43471 2.17075 0
M  V30 1709 H 155.699 5.17687 4.02909 0
M  V30 1710 H 155.616 6.77295 3.35869 0
M  V30 1711 H 156.884 6.3786 4.48057 0
M  V30 1712 N 161.113 -0.173488 1.56642 0
M  V30 1713 C 162.043 -1.2171 1.99271 0
M  V30 1714 C 163.024 -1.46289 0.867959 0
M  V30 1715 O 164.209 -1.5766 1.13388 0
M  V30 1716 C 161.339 -2.55651 2.35074 0
M  V30 1717 C 160.293 -2.45645 3.50489 0
M  V30 1718 C 159.619 -3.84056 3.72028 0
M  V30 1719 C 160.919 -1.96302 4.84007 0
M  V30 1720 H 162.613 -0.86275 2.867 0
M  V30 1721 H 160.159 -0.413571 1.37933 0
M  V30 1722 H 162.112 -3.2886 2.63494 0
M  V30 1723 H 160.836 -2.92869 1.44552 0
M  V30 1724 H 159.495 -1.7489 3.22194 0
M  V30 1725 H 159.143 -4.18664 2.788 0
M  V30 1726 H 158.843 -3.7823 4.49684 0
M  V30 1727 H 160.367 -4.58854 4.02846 0
M  V30 1728 H 161.781 -2.59284 5.11317 0
M  V30 1729 H 160.178 -2.01429 5.65284 0
M  V30 1730 H 161.248 -0.917226 4.76146 0
M  V30 1731 N 162.591 -1.51276 -0.441967 0
M  V30 1732 C 163.821 -1.67273 -1.21257 0
M  V30 1733 C 164.229 -0.367624 -1.85594 0
M  V30 1734 O 163.572 0.663349 -1.71305 0
M  V30 1735 C 163.634 -2.72807 -2.34129 0
M  V30 1736 C 163.298 -4.1554 -1.90198 0
M  V30 1737 C 164.295 -5.00471 -1.40801 0
M  V30 1738 C 161.98 -4.61616 -1.9803 0
M  V30 1739 C 163.974 -6.29536 -0.998174 0
M  V30 1740 C 161.661 -5.90679 -1.56658 0
M  V30 1741 C 162.659 -6.74466 -1.07633 0
M  V30 1742 O 162.347 -8.01116 -0.668459 0
M  V30 1743 H 162.079 -0.564614 -0.371734 0
M  V30 1744 H 164.633 -1.9843 -0.530521 0
M  V30 1745 H 162.863 -2.36954 -3.05597 0
M  V30 1746 H 164.552 -2.77729 -2.96009 0
M  V30 1747 H 165.318 -4.66079 -1.34148 0
M  V30 1748 H 161.197 -3.96526 -2.35135 0
M  V30 1749 H 164.741 -6.94885 -0.61482 0
M  V30 1750 H 160.638 -6.24586 -1.62979 0
M  V30 1751 H 161.406 -8.14633 -0.794722 0
M  V30 1752 N 164.069 0.697108 -1.41344 0
M  V30 1753 C 164.999 1.82353 -1.45841 0
M  V30 1754 C 165.98 1.67115 -0.317247 0
M  V30 1755 O 167.165 1.86871 -0.528474 0
M  V30 1756 C 164.295 3.20476 -1.33838 0
M  V30 1757 C 163.249 3.50415 -2.4575 0
M  V30 1758 C 162.575 4.87878 -2.18813 0
M  V30 1759 C 163.875 3.49546 -3.88091 0
M  V30 1760 H 165.569 1.78846 -2.40113 0
M  V30 1761 H 163.115 0.859028 -1.15571 0
M  V30 1762 H 165.068 3.98988 -1.35596 0
M  V30 1763 H 163.792 3.24604 -0.360498 0
M  V30 1764 H 162.451 2.74253 -2.43271 0
M  V30 1765 H 162.099 4.8863 -1.19371 0
M  V30 1766 H 161.799 5.08875 -2.93803 0
M  V30 1767 H 163.323 5.68702 -2.22284 0
M  V30 1768 H 164.737 4.18066 -3.92293 0
M  V30 1769 H 163.134 3.82075 -4.62751 0
M  V30 1770 H 164.204 2.48552 -4.16353 0
M  V30 1771 N 165.547 1.27147 0.931209 0
M  V30 1772 C 166.775 1.16082 1.71267 0
M  V30 1773 C 167.19 -0.282772 1.8667 0
M  V30 1774 O 166.547 -1.19283 1.38122 0
M  V30 1775 C 166.598 1.8358 3.11417 0
M  V30 1776 O 166.319 3.22299 2.96741 0
M  V30 1777 C 167.82 1.78597 4.05732 0
M  V30 1778 H 165.04 0.403758 0.535929 0
M  V30 1779 H 167.584 1.67953 1.16671 0
M  V30 1780 H 165.739 1.35623 3.62885 0
M  V30 1781 H 166.153 3.55851 3.85319 0
M  V30 1782 H 167.627 2.30444 5.01597 0
M  V30 1783 H 168.104 0.754564 4.3267 0
M  V30 1784 H 168.71 2.26152 3.60188 0
M  V30 1785 N 167.025 -1.13721 1.09112 0
M  V30 1786 C 167.975 -2.17082 0.697091 0
M  V30 1787 C 168.959 -1.58321 -0.286923 0
M  V30 1788 O 170.151 -1.7673 -0.0978008 0
M  V30 1789 C 167.28 -3.43105 0.115729 0
M  V30 1790 C 166.366 -4.0888 1.12596 0
M  V30 1791 N 166.757 -4.4987 2.31195 0
M  V30 1792 C 165.055 -4.35471 0.963366 0
M  V30 1793 C 165.756 -5.01094 2.95431 0
M  V30 1794 N 164.732 -4.95751 2.23006 0
M  V30 1795 H 168.534 -2.46524 1.6001 0
M  V30 1796 H 166.048 -1.30481 0.966869 0
M  V30 1797 H 168.045 -4.16491 -0.184555 0
M  V30 1798 H 166.705 -3.15138 -0.78217 0
M  V30 1799 H 167.716 -4.42678 2.68806 0
M  V30 1800 H 164.393 -4.17328 0.119878 0
M  V30 1801 H 165.783 -5.4263 3.96236 0
M  V30 1802 N 168.503 -0.877838 -1.30888 0
M  V30 1803 C 169.752 -0.488793 -1.95688 0
M  V30 1804 C 170.065 0.965485 -1.70111 0
M  V30 1805 O 171.271 1.46104 -2.28836 0
M  V30 1806 C 169.727 -0.823201 -3.50359 0
M  V30 1807 C 169.335 -2.29477 -3.84765 0
M  V30 1808 C 171.079 -0.503009 -4.21509 0
M  V30 1809 C 168.986 -2.57118 -5.32583 0
M  V30 1810 H 167.916 -0.179062 -0.732429 0
M  V30 1811 H 170.567 -1.07183 -1.48943 0
M  V30 1812 H 168.949 -0.169331 -3.95638 0
M  V30 1813 H 170.123 -2.99236 -3.5042 0
M  V30 1814 H 168.438 -2.58178 -3.267 0
M  V30 1815 H 171.035 -0.68665 -5.30273 0
M  V30 1816 H 171.378 0.557109 -4.12555 0
M  V30 1817 H 171.911 -1.11376 -3.8189 0
M  V30 1818 H 168.65 -3.61843 -5.4658 0
M  V30 1819 H 168.17 -1.91961 -5.68253 0
M  V30 1820 H 169.849 -2.42251 -5.99936 0
M  V30 1821 N 169.982 1.44106 -0.638065 0
M  V30 1822 C 171.259 1.95453 -0.0759321 0
M  V30 1823 C 171.639 1.57984 1.40015 0
M  V30 1824 O 170.987 0.857361 2.11806 0
M  V30 1825 C 171.197 3.47655 -0.306132 0
M  V30 1826 C 172.545 4.24114 -0.203008 0
M  V30 1827 O 173.569 3.55405 -0.237871 0
M  V30 1828 O 172.428 5.46381 -0.113827 0
M  V30 1829 H 169.522 0.826797 0.0183332 0
M  V30 1830 H 172.068 1.54122 -0.710251 0
M  V30 1831 H 170.84 3.68 -1.3301 0
M  V30 1832 H 170.463 3.95949 0.361991 0
M  V30 1833 N 171.46 0.379036 1.52974 0
M  V30 1834 C 172.423 -0.448865 2.24762 0
M  V30 1835 C 173.423 -0.998689 1.26027 0
M  V30 1836 O 174.613 -0.882313 1.50203 0
M  V30 1837 C 171.745 -1.62872 2.99476 0
M  V30 1838 H 172.938 0.179491 2.99362 0
M  V30 1839 H 170.491 0.13096 1.5575 0
M  V30 1840 H 171.226 -2.29479 2.29151 0
M  V30 1841 H 171.011 -1.24128 3.71934 0
M  V30 1842 H 172.501 -2.2151 3.5401 0
M  V30 1843 N 172.938 -1.57226 0.108567 0
M  V30 1844 C 173.848 -2.18292 -0.859401 0
M  V30 1845 C 174.864 -1.15612 -1.30038 0
M  V30 1846 O 176.04 -1.48039 -1.36552 0
M  V30 1847 C 173.105 -2.762 -2.09558 0
M  V30 1848 C 172.166 -3.93881 -1.70752 0
M  V30 1849 C 171.399 -4.49018 -2.88477 0
M  V30 1850 O 171.622 -4.03068 -4.036 0
M  V30 1851 O 170.556 -5.39852 -2.66164 0
M  V30 1852 H 174.382 -3.01441 -0.369769 0
M  V30 1853 H 171.967 -1.48945 -0.1165 0
M  V30 1854 H 173.849 -3.13156 -2.81978 0
M  V30 1855 H 172.524 -1.96089 -2.57548 0
M  V30 1856 H 171.431 -3.61713 -0.954714 0
M  V30 1857 H 172.764 -4.75396 -1.27513 0
M  V30 1858 N 174.416 0.165178 -1.56732 0
M  V30 1859 C 175.662 0.882112 -1.82611 0
M  V30 1860 C 175.995 1.81628 -0.687378 0
M  V30 1861 O 175.27 1.92009 0.310267 0
M  V30 1862 C 175.553 1.67245 -3.18906 0
M  V30 1863 C 175.406 0.760987 -4.43316 0
M  V30 1864 C 176.725 2.63884 -3.52212 0
M  V30 1865 H 173.844 0.319242 -0.664269 0
M  V30 1866 H 176.486 0.148052 -1.89422 0
M  V30 1867 H 174.636 2.29824 -3.1323 0
M  V30 1868 H 176.308 0.147596 -4.61064 0
M  V30 1869 H 174.551 0.0694102 -4.33744 0
M  V30 1870 H 175.222 1.34962 -5.35247 0
M  V30 1871 H 177.698 2.11429 -3.58381 0
M  V30 1872 H 176.574 3.16245 -4.48643 0
M  V30 1873 H 176.835 3.44377 -2.77231 0
M  V30 1874 N 175.894 1.51508 0.433938 0
M  V30 1875 C 176.804 1.75917 1.5521 0
M  V30 1876 C 177.82 0.643545 1.61662 0
M  V30 1877 O 178.996 0.926183 1.7884 0
M  V30 1878 C 176.061 1.88213 2.91164 0
M  V30 1879 C 175.122 3.12074 2.94802 0
M  V30 1880 C 174.355 3.23774 4.24271 0
M  V30 1881 O 174.578 2.4133 5.16833 0
M  V30 1882 O 173.512 4.16774 4.34262 0
M  V30 1883 H 177.338 2.70777 1.37527 0
M  V30 1884 H 174.923 1.36051 0.617293 0
M  V30 1885 H 176.805 1.98267 3.71845 0
M  V30 1886 H 175.48 0.965413 3.08968 0
M  V30 1887 H 174.387 3.07497 2.13065 0
M  V30 1888 H 175.72 4.03446 2.81943 0
M  V30 1889 N 177.372 -0.689602 1.41712 0
M  V30 1890 C 178.62 -1.4468 1.4111 0
M  V30 1891 C 178.941 -1.94986 0.0232196 0
M  V30 1892 O 178.211 -1.72097 -0.935913 0
M  V30 1893 H 176.791 -0.536847 0.519427 0
M  V30 1894 H 179.453 -0.815825 1.77004 0
M  V30 1895 H 178.549 -2.30706 2.10193 0
M  V30 1896 N 178.85 -1.27639 -0.924453 0
M  V30 1897 C 180.127 -1.04887 -1.651 0
M  V30 1898 C 180.507 0.415327 -2.06974 0
M  V30 1899 O 179.855 1.39923 -1.80648 0
M  V30 1900 C 180.065 -2.01348 -2.85061 0
M  V30 1901 C 181.413 -2.30899 -3.56329 0
M  V30 1902 O 182.437 -1.99348 -2.95193 0
M  V30 1903 O 181.296 -2.84699 -4.66485 0
M  V30 1904 H 178.39 -0.400083 -0.723784 0
M  V30 1905 H 180.936 -1.38916 -0.974703 0
M  V30 1906 H 179.708 -3.0008 -2.51133 0
M  V30 1907 H 179.331 -1.679 -3.6041 0
M  V30 1908 N 180.328 1.1314 -1.09713 0
M  V30 1909 C 181.556 1.88321 -0.856898 0
M  V30 1910 C 181.971 1.79276 0.592073 0
M  V30 1911 O 181.328 1.16142 1.40774 0
M  V30 1912 C 181.379 3.37812 -1.28706 0
M  V30 1913 O 181.1 3.46627 -2.67921 0
M  V30 1914 C 182.601 4.29952 -1.07964 0
M  V30 1915 H 179.821 0.596094 -0.308079 0
M  V30 1916 H 182.365 1.43205 -1.45988 0
M  V30 1917 H 180.52 3.805 -0.727912 0
M  V30 1918 H 180.934 4.39579 -2.8613 0
M  V30 1919 H 182.408 5.33159 -1.42986 0
M  V30 1920 H 182.885 4.39196 -0.0176577 0
M  V30 1921 H 183.491 3.93036 -1.62489 0
M  V30 1922 N 181.806 0.884767 1.30421 0
M  V30 1923 C 182.756 0.322846 2.25703 0
M  V30 1924 C 183.74 -0.548582 1.51259 0
M  V30 1925 O 184.932 -0.39304 1.72581 0
M  V30 1926 C 182.061 -0.461787 3.4018 0
M  V30 1927 C 181.147 0.423717 4.21978 0
M  V30 1928 N 181.538 1.52408 4.82292 0
M  V30 1929 C 179.836 0.218795 4.45463 0
M  V30 1930 C 180.537 2.07136 5.43571 0
M  V30 1931 N 179.513 1.36635 5.26148 0
M  V30 1932 H 183.315 1.16363 2.69883 0
M  V30 1933 H 180.829 0.73415 1.44859 0
M  V30 1934 H 182.826 -0.880985 4.07485 0
M  V30 1935 H 181.486 -1.30001 2.9754 0
M  V30 1936 H 182.497 1.90693 4.81515 0
M  V30 1937 H 179.174 -0.582275 4.1342 0
M  V30 1938 H 180.564 2.99538 6.01437 0
M  V30 1939 N 183.284 -1.43765 0.645699 0
M  V30 1940 C 184.531 -2.01898 0.15604 0
M  V30 1941 C 184.859 -1.50887 -1.22733 0
M  V30 1942 O 184.114 -0.689271 -1.8316 0
M  V30 1943 C 184.413 -3.57238 0.107679 0
M  V30 1944 C 184.079 -4.27564 1.43178 0
M  V30 1945 C 182.741 -4.46492 1.7944 0
M  V30 1946 C 185.093 -4.67454 2.30513 0
M  V30 1947 C 182.421 -5.02573 3.02716 0
M  V30 1948 C 184.773 -5.24901 3.53074 0
M  V30 1949 C 183.437 -5.42046 3.89541 0
M  V30 1950 H 182.707 -0.738797 0.057099 0
M  V30 1951 H 185.354 -1.72341 0.834912 0
M  V30 1952 H 183.659 -3.86293 -0.654618 0
M  V30 1953 H 185.356 -3.99965 -0.287938 0
M  V30 1954 H 181.946 -4.13171 1.13963 0
M  V30 1955 H 186.13 -4.5253 2.0379 0
M  V30 1956 H 181.386 -5.14033 3.31028 0
M  V30 1957 H 185.56 -5.54758 4.20971 0
M  V30 1958 H 183.187 -5.85268 4.85145 0
M  V30 1959 N 184.763 -0.387143 -1.52771 0
M  V30 1960 C 186.174 0.0873634 -1.86495 0
M  V30 1961 C 186.525 1.46336 -1.30691 0
M  V30 1962 O 185.65 2.068 -0.637409 0
M  V30 1963 C 186.245 0.165305 -3.38396 0
M  V30 1964 C 184.804 0.584101 -3.7184 0
M  V30 1965 C 183.951 -0.255279 -2.76122 0
M  V30 1966 H 186.902 -0.605104 -1.46711 0
M  V30 1967 H 186.923 0.984848 -3.67534 0
M  V30 1968 H 186.435 -0.836301 -3.78982 0
M  V30 1969 H 184.536 1.59315 -3.36823 0
M  V30 1970 H 184.649 0.343749 -4.77865 0
M  V30 1971 H 183.013 0.279126 -2.53166 0
M  V30 1972 H 183.796 -1.25482 -3.19545 0
M  V30 1973 N 186.241 1.57166 -0.116904 0
M  V30 1974 C 187.518 1.86645 0.585049 0
M  V30 1975 C 187.898 1.0177 1.84949 0
M  V30 1976 O 187.246 0.0960379 2.28298 0
M  V30 1977 C 187.456 3.37736 0.879507 0
M  V30 1978 C 188.804 4.06289 1.23348 0
M  V30 1979 O 189.828 3.42743 0.969836 0
M  V30 1980 O 188.687 5.18455 1.7282 0
M  V30 1981 H 185.781 0.772593 0.295007 0
M  V30 1982 H 188.327 1.69025 -0.151249 0
M  V30 1983 H 187.099 3.91296 -0.0166136 0
M  V30 1984 H 186.722 3.6078 1.67103 0
M  V30 1985 N 187.719 -0.156864 1.56817 0
M  V30 1986 C 188.949 -0.885031 1.86684 0
M  V30 1987 C 189.357 -1.75696 0.701954 0
M  V30 1988 O 188.7 -1.80569 -0.337732 0
M  V30 1989 C 188.762 -1.80092 3.11138 0
M  V30 1990 C 188.426 -1.10714 4.43386 0
M  V30 1991 C 189.423 -0.465714 5.1781 0
M  V30 1992 C 187.108 -1.09959 4.90117 0
M  V30 1993 C 189.102 0.174002 6.37162 0
M  V30 1994 C 186.789 -0.456055 6.09396 0
M  V30 1995 C 187.787 0.179622 6.82764 0
M  V30 1996 O 187.475 0.812975 7.99779 0
M  V30 1997 H 187.207 -0.261813 0.623242 0
M  V30 1998 H 189.761 -0.157383 2.04796 0
M  V30 1999 H 187.991 -2.56926 2.89009 0
M  V30 2000 H 189.68 -2.40018 3.27332 0
M  V30 2001 H 190.446 -0.463427 4.82781 0
M  V30 2002 H 186.325 -1.58378 4.3294 0
M  V30 2003 H 189.869 0.670765 6.94368 0
M  V30 2004 H 185.766 -0.455975 6.43888 0
M  V30 2005 H 186.534 0.71366 8.15383 0
M  V30 2006 N 189.197 -1.51736 -0.425897 0
M  V30 2007 C 190.107 -1.76738 -1.54275 0
M  V30 2008 C 191.123 -0.65211 -1.61318 0
M  V30 2009 O 192.299 -0.935654 -1.78346 0
M  V30 2010 C 189.364 -1.89755 -2.90162 0
M  V30 2011 C 188.425 -3.13633 -2.93143 0
M  V30 2012 C 187.658 -3.2602 -4.22548 0
M  V30 2013 O 187.881 -2.44067 -5.15546 0
M  V30 2014 O 186.815 -4.19071 -4.32046 0
M  V30 2015 H 190.641 -2.71502 -1.36089 0
M  V30 2016 H 188.226 -1.36376 -0.610069 0
M  V30 2017 H 190.108 -2.00236 -3.70788 0
M  V30 2018 H 188.783 -0.981785 -3.08452 0
M  V30 2019 H 187.69 -3.08622 -2.11431 0
M  V30 2020 H 189.023 -4.04936 -2.798 0
M  V30 2021 N 190.675 0.682077 -1.42076 0
M  V30 2022 C 192.086 1.26246 -1.37546 0
M  V30 2023 C 192.437 1.96092 -0.0651481 0
M  V30 2024 O 191.562 1.99587 0.836297 0
M  V30 2025 C 192.157 2.29594 -2.49143 0
M  V30 2026 C 190.716 2.83175 -2.47969 0
M  V30 2027 C 189.863 1.57395 -2.28303 0
M  V30 2028 H 192.814 0.475937 -1.51395 0
M  V30 2029 H 192.835 3.11175 -2.18976 0
M  V30 2030 H 192.347 1.78729 -3.44496 0
M  V30 2031 H 190.448 3.3818 -1.56413 0
M  V30 2032 H 190.561 3.32687 -3.44755 0
M  V30 2033 H 188.925 1.83699 -1.76428 0
M  V30 2034 H 189.708 1.08507 -3.25701 0
M  V30 2035 N 192.153 1.28127 0.917671 0
M  V30 2036 C 193.43 1.05761 1.64542 0
M  V30 2037 C 193.81 -0.404344 2.07191 0
M  V30 2038 O 193.158 -1.38963 1.81388 0
M  V30 2039 C 193.368 2.02857 2.83989 0
M  V30 2040 C 194.716 2.32786 3.551 0
M  V30 2041 O 195.74 2.0091 2.94132 0
M  V30 2042 O 194.599 2.87169 4.64969 0
M  V30 2043 H 191.693 0.403916 0.721652 0
M  V30 2044 H 194.239 1.39431 0.967322 0
M  V30 2045 H 193.011 3.01407 2.49538 0
M  V30 2046 H 192.634 1.69809 3.59514 0
M  V30 2047 N 193.631 -1.12557 1.10312 0
M  V30 2048 C 194.908 -1.80363 0.756878 0
M  V30 2049 C 195.288 -1.97067 -0.756824 0
M  V30 2050 O 194.636 -1.54601 -1.68259 0
M  V30 2051 C 194.846 -3.14812 1.50647 0
M  V30 2052 C 196.194 -3.90029 1.67817 0
M  V30 2053 O 197.218 -3.24464 1.46974 0
M  V30 2054 O 196.077 -5.07652 2.02365 0
M  V30 2055 H 193.171 -0.780667 0.272926 0
M  V30 2056 H 195.717 -1.19404 1.20586 0
M  V30 2057 H 194.489 -2.97936 2.53672 0
M  V30 2058 H 194.112 -3.83478 1.05026 0
M  V30 2059 N 195.109 -0.891671 -1.2995 0
M  V30 2060 C 196.355 -0.523649 -1.96544 0
M  V30 2061 C 196.71 0.918394 -1.69066 0
M  V30 2062 O 196.003 1.64122 -0.988659 0
M  V30 2063 C 196.197 -0.742868 -3.49594 0
M  V30 2064 C 196.026 -2.20467 -3.9195 0
M  V30 2065 C 194.796 -2.85055 -4.17219 0
M  V30 2066 C 196.994 -3.17912 -4.04273 0
M  V30 2067 N 194.976 -4.21762 -4.46083 0
M  V30 2068 C 196.347 -4.39712 -4.37097 0
M  V30 2069 C 198.402 -3.1361 -3.86721 0
M  V30 2070 C 197.105 -5.5776 -4.54199 0
M  V30 2071 C 199.131 -4.30936 -4.05028 0
M  V30 2072 C 198.493 -5.51504 -4.38204 0
M  V30 2073 H 194.592 -0.241072 -0.743914 0
M  V30 2074 H 197.176 -1.15081 -1.5705 0
M  V30 2075 H 195.347 -0.14515 -3.88129 0
M  V30 2076 H 197.079 -0.341081 -4.0326 0
M  V30 2077 H 193.834 -2.35889 -4.10674 0
M  V30 2078 H 194.258 -4.92382 -4.64638 0
M  V30 2079 H 198.9 -2.21489 -3.60142 0
M  V30 2080 H 196.618 -6.50379 -4.79618 0
M  V30 2081 H 200.204 -4.29085 -3.92909 0
M  V30 2082 H 199.084 -6.40778 -4.52077 0
M  V30 2083 N 196.587 1.43421 -0.653314 0
M  V30 2084 C 197.497 2.34568 0.0388565 0
M  V30 2085 C 198.513 1.53888 0.81207 0
M  V30 2086 O 199.689 1.86539 0.759294 0
M  V30 2087 C 196.754 3.32167 0.993269 0
M  V30 2088 C 195.815 4.28751 0.216977 0
M  V30 2089 C 195.048 5.21688 1.12593 0
M  V30 2090 O 195.271 5.19052 2.36519 0
M  V30 2091 O 194.205 5.98919 0.598284 0
M  V30 2092 H 198.031 2.95251 -0.711386 0
M  V30 2093 H 195.616 1.43564 -0.413502 0
M  V30 2094 H 197.498 3.92183 1.54176 0
M  V30 2095 H 196.173 2.73987 1.72374 0
M  V30 2096 H 195.08 3.72215 -0.375101 0
M  V30 2097 H 196.413 4.89913 -0.473924 0
M  V30 2098 N 198.065 0.39524 1.52563 0
M  V30 2099 C 199.29 -0.187456 2.06551 0
M  V30 2100 C 199.715 -1.39249 1.26457 0
M  V30 2101 O 199.073 -1.78947 0.291151 0
M  V30 2102 C 199.121 -0.529985 3.56684 0
M  V30 2103 O 198.225 -1.62307 3.79118 0
M  V30 2104 H 197.566 -0.0202537 0.663691 0
M  V30 2105 H 200.096 0.564426 1.96661 0
M  V30 2106 H 200.106 -0.792598 4.00227 0
M  V30 2107 H 198.781 0.350987 4.14416 0
M  V30 2108 H 197.358 -1.3537 3.47461 0
M  V30 2109 N 199.544 -1.57102 0.125237 0
M  V30 2110 C 200.79 -1.95697 -0.532035 0
M  V30 2111 C 201.123 -1.009 -1.6593 0
M  V30 2112 O 200.398 -0.047347 -1.94442 0
M  V30 2113 C 200.681 -3.44181 -1.05884 0
M  V30 2114 C 200.534 -4.49752 0.0654392 0
M  V30 2115 C 201.853 -3.94655 -1.9477 0
M  V30 2116 H 198.972 -0.711571 -0.191925 0
M  V30 2117 H 201.614 -1.88923 0.20206 0
M  V30 2118 H 199.764 -3.50085 -1.68442 0
M  V30 2119 H 201.436 -4.55943 0.700982 0
M  V30 2120 H 199.679 -4.27653 0.727709 0
M  V30 2121 H 200.35 -5.50924 -0.344505 0
M  V30 2122 H 202.826 -3.91094 -1.42074 0
M  V30 2123 H 201.702 -4.99057 -2.28546 0
M  V30 2124 H 201.963 -3.35718 -2.87656 0
M  V30 2125 N 201.022 0.148545 -1.56898 0
M  V30 2126 C 202.269 0.861418 -1.83264 0
M  V30 2127 C 202.597 1.81239 -0.705883 0
M  V30 2128 O 201.852 1.93305 0.305212 0
M  V30 2129 C 202.151 1.67064 -3.1595 0
M  V30 2130 C 201.817 0.866591 -4.42494 0
M  V30 2131 C 200.479 0.644762 -4.76861 0
M  V30 2132 C 202.831 0.30418 -5.20312 0
M  V30 2133 C 200.159 -0.15021 -5.86508 0
M  V30 2134 C 202.511 -0.477824 -6.30793 0
M  V30 2135 C 201.175 -0.710244 -6.63711 0
M  V30 2136 H 200.445 0.315215 -0.670612 0
M  V30 2137 H 203.092 0.125142 -1.91091 0
M  V30 2138 H 201.397 2.47698 -3.03567 0
M  V30 2139 H 203.094 2.22566 -3.33565 0
M  V30 2140 H 199.684 1.04955 -4.15551 0
M  V30 2141 H 203.868 0.462844 -4.94137 0
M  V30 2142 H 199.124 -0.339796 -6.10455 0
M  V30 2143 H 203.298 -0.92076 -6.90286 0
M  V30 2144 H 200.925 -1.3281 -7.48509 0
M  V30 2145 N 202.5 1.5196 0.417844 0
M  V30 2146 C 203.725 1.69717 1.1921 0
M  V30 2147 C 204.15 0.402148 1.83751 0
M  V30 2148 O 203.508 -0.639593 1.69643 0
M  V30 2149 C 203.556 2.82794 2.2374 0
M  V30 2150 O 202.66 2.47756 3.29683 0
M  V30 2151 H 202.001 0.565263 0.348387 0
M  V30 2152 H 204.531 1.98621 0.490985 0
M  V30 2153 H 204.541 3.07452 2.68212 0
M  V30 2154 H 203.216 3.76756 1.76146 0
M  V30 2155 H 201.793 2.33739 2.90552 0
M  V30 2156 N 203.978 -0.674533 1.42435 0
M  V30 2157 C 204.888 -1.81751 1.48337 0
M  V30 2158 C 205.904 -1.69975 0.372099 0
M  V30 2159 O 207.08 -1.91521 0.62304 0
M  V30 2160 C 204.145 -3.17895 1.38361 0
M  V30 2161 C 203.206 -3.41625 2.59982 0
M  V30 2162 C 202.439 -4.71274 2.50473 0
M  V30 2163 O 202.662 -5.49197 1.54075 0
M  V30 2164 O 201.596 -4.96254 3.4061 0
M  V30 2165 H 205.422 -1.79728 2.44809 0
M  V30 2166 H 203.007 -0.830312 1.24202 0
M  V30 2167 H 204.889 -3.99136 1.35161 0
M  V30 2168 H 203.564 -3.20555 0.450144 0
M  V30 2169 H 202.471 -2.60231 2.68757 0
M  V30 2170 H 203.804 -3.43796 3.52229 0
M  V30 2171 N 205.456 -1.28612 -0.910864 0
M  V30 2172 C 206.703 -1.15934 -1.66029 0
M  V30 2173 C 207.031 0.291483 -1.92303 0
M  V30 2174 O 206.286 1.22816 -1.52364 0
M  V30 2175 C 206.585 -1.90624 -3.0232 0
M  V30 2176 C 206.251 -3.40405 -2.95695 0
M  V30 2177 C 204.913 -3.81255 -2.93595 0
M  V30 2178 C 207.265 -4.359 -2.85728 0
M  V30 2179 C 204.593 -5.15936 -2.79334 0
M  V30 2180 C 206.945 -5.70657 -2.73007 0
M  V30 2181 C 205.609 -6.10779 -2.69267 0
M  V30 2182 H 204.879 -0.424234 -0.607541 0
M  V30 2183 H 207.526 -1.5942 -1.06101 0
M  V30 2184 H 205.831 -1.39696 -3.6605 0
M  V30 2185 H 207.528 -1.78228 -3.59215 0
M  V30 2186 H 204.118 -3.07927 -2.98125 0
M  V30 2187 H 208.302 -4.053 -2.86436 0
M  V30 2188 H 203.558 -5.46146 -2.74835 0
M  V30 2189 H 207.732 -6.44311 -2.64264 0
M  V30 2190 H 205.359 -7.1509 -2.57974 0
M  V30 2191 N 206.934 1.1197 -1.10907 0
M  V30 2192 C 207.884 2.15946 -0.731538 0
M  V30 2193 C 208.868 1.58758 0.261699 0
M  V30 2194 O 210.06 1.76863 0.0696722 0
M  V30 2195 C 207.189 3.42877 -0.170299 0
M  V30 2196 C 206.275 4.07037 -1.19087 0
M  V30 2197 N 206.666 4.46135 -2.38322 0
M  V30 2198 C 204.964 4.33884 -1.03252 0
M  V30 2199 C 205.665 4.96331 -3.03366 0
M  V30 2200 N 204.641 4.9214 -2.30865 0
M  V30 2201 H 208.443 2.43947 -1.63912 0
M  V30 2202 H 205.957 1.28927 -0.987505 0
M  V30 2203 H 207.954 4.16732 0.118271 0
M  V30 2204 H 206.614 3.16343 0.731935 0
M  V30 2205 H 207.625 4.38345 -2.75815 0
M  V30 2206 H 204.302 4.17084 -0.186256 0
M  V30 2207 H 205.692 5.36257 -4.04818 0
M  V30 2208 N 208.412 0.89855 1.29475 0
M  V30 2209 C 209.689 0.443416 1.90508 0
M  V30 2210 C 210.069 -1.07685 1.81569 0
M  V30 2211 O 209.417 -1.9182 1.24166 0
M  V30 2212 C 209.627 0.956708 3.35631 0
M  V30 2213 C 210.975 0.999728 4.12663 0
M  V30 2214 O 211.999 0.904299 3.4453 0
M  V30 2215 O 210.858 1.14289 5.34416 0
M  V30 2216 H 207.952 0.138025 0.815401 0
M  V30 2217 H 210.498 0.98834 1.37949 0
M  V30 2218 H 209.27 2.00067 3.36287 0
M  V30 2219 H 208.893 0.391728 3.95666 0
M  V30 2220 N 209.89 -1.43072 0.660911 0
M  V30 2221 C 210.853 -2.29194 -0.0166406 0
M  V30 2222 C 211.853 -1.42609 -0.742912 0
M  V30 2223 O 213.043 -1.64155 -0.583004 0
M  V30 2224 C 210.175 -3.24831 -1.0343 0
M  V30 2225 H 211.368 -2.90596 0.741208 0
M  V30 2226 H 208.921 -1.5048 0.422532 0
M  V30 2227 H 209.656 -2.68339 -1.82111 0
M  V30 2228 H 209.441 -3.88676 -0.517082 0
M  V30 2229 H 210.931 -3.89451 -1.50723 0
M  V30 2230 N 211.368 -0.403325 -1.52352 0
M  V30 2231 C 212.645 0.232611 -1.94212 0
M  V30 2232 C 213.025 1.63133 -1.33981 0
M  V30 2233 O 212.373 2.22659 -0.513344 0
M  V30 2234 C 212.583 0.244811 -3.4814 0
M  V30 2235 C 213.931 0.46698 -4.22024 0
M  V30 2236 O 214.955 0.324419 -3.5472 0
M  V30 2237 O 213.814 0.74747 -5.41364 0
M  V30 2238 H 210.908 0.148223 -0.813609 0
M  V30 2239 H 213.454 -0.458848 -1.63379 0
M  V30 2240 H 212.226 -0.734378 -3.84347 0
M  V30 2241 H 211.849 0.980611 -3.85318 0
M  V30 2242 N 212.846 1.57033 -0.133567 0
M  V30 2243 C 213.809 2.14897 0.796995 0
M  V30 2244 C 214.809 1.0874 1.18458 0
M  V30 2245 O 215.999 1.34446 1.1077 0
M  V30 2246 C 213.131 2.70112 2.07973 0
M  V30 2247 H 214.324 2.98457 0.293873 0
M  V30 2248 H 211.877 1.55871 0.115787 0
M  V30 2249 H 212.612 1.9018 2.62682 0
M  V30 2250 H 212.397 3.47764 1.81115 0
M  V30 2251 H 213.887 3.14738 2.74462 0
M  V30 2252 N 214.325 -0.140222 1.56975 0
M  V30 2253 C 215.257 -1.19818 1.95388 0
M  V30 2254 C 216.27 -1.38816 0.850525 0
M  V30 2255 O 217.459 -1.38267 1.12891 0
M  V30 2256 C 214.559 -2.56189 2.21857 0
M  V30 2257 C 213.732 -2.58077 3.5315 0
M  V30 2258 C 212.791 -3.76037 3.6808 0
M  V30 2259 O 211.817 -3.60598 4.40406 0
M  V30 2260 N 213.019 -4.93763 3.05251 0
M  V30 2261 H 215.784 -0.871609 2.86746 0
M  V30 2262 H 213.345 -0.32972 1.58507 0
M  V30 2263 H 215.337 -3.33623 2.2908 0
M  V30 2264 H 213.907 -2.81111 1.36731 0
M  V30 2265 H 213.127 -1.6651 3.57307 0
M  V30 2266 H 214.415 -2.56377 4.39486 0
M  V30 2267 H 213.813 -5.09209 2.46419 0
M  V30 2268 H 212.37 -5.68949 3.18026 0
M  V30 2269 N 215.803 -1.52179 -0.40978 0
M  V30 2270 C 216.751 -1.76086 -1.51975 0
M  V30 2271 C 217.745 -0.627964 -1.57331 0
M  V30 2272 O 218.951 -0.809993 -1.60745 0
M  V30 2273 H 215.326 -0.556829 -0.505416 0
M  V30 2274 H 217.297 -2.69077 -1.28996 0
M  V30 2275 C 216.046 -1.92799 -2.8935 0
M  V30 2276 H 215.369 -2.79392 -2.85972 0
M  V30 2277 H 216.809 -2.13527 -3.66309 0
M  V30 2278 C 215.268 -0.694923 -3.29655 0
M  V30 2279 O 215.798 0.13751 -4.01465 0
M  V30 2280 N 214.004 -0.53101 -2.85707 0
M  V30 2281 H 213.551 -1.20952 -2.27439 0
M  V30 2282 H 213.509 0.292718 -3.13034 0
M  V30 2283 N 217.281 0.66697 -1.42791 0
M  V30 2284 C 218.506 1.46004 -1.47301 0
M  V30 2285 C 218.931 1.87894 -0.0880317 0
M  V30 2286 O 218.289 1.56502 0.915253 0
M  V30 2287 C 218.337 2.68031 -2.41229 0
M  V30 2288 O 217.441 3.6659 -1.88906 0
M  V30 2289 H 216.782 0.43832 -0.49877 0
M  V30 2290 H 219.312 0.817391 -1.87563 0
M  V30 2291 H 219.322 3.1601 -2.58073 0
M  V30 2292 H 217.997 2.36883 -3.41847 0
M  V30 2293 H 216.574 3.25661 -1.81656 0
M  V30 2294 N 218.759 1.29093 0.90403 0
M  V30 2295 C 219.709 1.10482 1.99443 0
M  V30 2296 C 220.693 0.0255401 1.6088 0
M  V30 2297 O 221.885 0.24677 1.75271 0
M  V30 2298 C 219.014 0.778882 3.34348 0
M  V30 2299 C 218.1 1.89749 3.79284 0
M  V30 2300 N 218.491 3.14045 3.96497 0
M  V30 2301 C 216.789 1.78955 4.08523 0
M  V30 2302 C 217.49 3.86996 4.34292 0
M  V30 2303 N 216.466 3.14909 4.43095 0
M  V30 2304 H 220.268 2.04778 2.10815 0
M  V30 2305 H 217.782 1.20155 1.09255 0
M  V30 2306 H 219.779 0.62661 4.12164 0
M  V30 2307 H 218.439 -0.156205 3.24324 0
M  V30 2308 H 219.45 3.49548 3.82148 0
M  V30 2309 H 216.127 0.926886 4.07081 0
M  V30 2310 H 217.517 4.93941 4.55491 0
M  V30 2311 N 220.237 -1.11381 1.11499 0
M  V30 2312 C 221.462 -1.87475 0.887019 0
M  V30 2313 C 221.887 -1.79639 -0.557796 0
M  V30 2314 O 221.245 -1.15924 -1.39396 0
M  V30 2315 C 221.293 -3.34213 1.35403 0
M  V30 2316 O 220.397 -4.0903 0.526146 0
M  V30 2317 H 219.738 -0.582099 0.319463 0
M  V30 2318 H 222.268 -1.40785 1.48461 0
M  V30 2319 H 222.278 -3.8506 1.34881 0
M  V30 2320 H 220.953 -3.39232 2.40612 0
M  V30 2321 H 219.53 -3.68082 0.597522 0
M  V30 2322 N 221.715 -0.905404 -1.28997 0
M  V30 2323 C 222.945 -0.549049 -1.99171 0
M  V30 2324 C 223.353 0.87203 -1.67906 0
M  V30 2325 O 222.696 1.58796 -0.923561 0
M  V30 2326 C 222.758 -0.668306 -3.53234 0
M  V30 2327 C 222.422 -2.0574 -4.08069 0
M  V30 2328 C 223.419 -3.0292 -4.22534 0
M  V30 2329 C 221.104 -2.36833 -4.42962 0
M  V30 2330 C 223.098 -4.29314 -4.71135 0
M  V30 2331 C 220.785 -3.63467 -4.91258 0
M  V30 2332 C 221.783 -4.59522 -5.053 0
M  V30 2333 O 221.471 -5.83907 -5.52546 0
M  V30 2334 H 221.203 -0.208784 -0.64295 0
M  V30 2335 H 223.757 -1.21836 -1.65363 0
M  V30 2336 H 221.987 0.0580547 -3.86656 0
M  V30 2337 H 223.676 -0.320273 -4.04634 0
M  V30 2338 H 224.442 -2.80216 -3.95859 0
M  V30 2339 H 220.321 -1.62824 -4.31288 0
M  V30 2340 H 223.865 -5.04293 -4.8201 0
M  V30 2341 H 219.762 -3.86 -5.17372 0
M  V30 2342 H 220.53 -5.86578 -5.70849 0
M  V30 2343 N 223.193 1.4272 -0.668489 0
M  V30 2344 C 224.433 2.03497 -0.19194 0
M  V30 2345 C 224.797 1.51684 1.17712 0
M  V30 2346 O 225.998 2.04205 1.74796 0
M  V30 2347 C 224.269 3.56734 -0.218032 0
M  V30 2348 S 225.828 4.38395 0.188438 0
M  V30 2349 H 222.646 0.706542 -0.0794959 0
M  V30 2350 H 225.248 1.74563 -0.880235 0
M  V30 2351 H 223.952 3.91943 -1.2169 0
M  V30 2352 H 223.483 3.90333 0.490303 0
M  V30 2353 H 225.498 4.75345 1.42345 0
M  V30 2354 N 224.671 0.411399 1.52136 0
M  V30 2355 C 225.918 -0.163645 2.01838 0
M  V30 2356 C 226.246 -1.4495 1.29691 0
M  V30 2357 O 225.501 -1.91725 0.392431 0
M  V30 2358 C 225.8 -0.455872 3.54481 0
M  V30 2359 C 225.466 0.741055 4.44769 0
M  V30 2360 C 224.128 1.06936 4.69167 0
M  V30 2361 C 226.48 1.54075 4.97906 0
M  V30 2362 C 223.808 2.19851 5.43951 0
M  V30 2363 C 226.16 2.66067 5.73926 0
M  V30 2364 C 224.824 2.99381 5.96596 0
M  V30 2365 H 224.094 -0.0598821 0.738576 0
M  V30 2366 H 226.741 0.553283 1.83333 0
M  V30 2367 H 225.046 -1.2544 3.71177 0
M  V30 2368 H 226.743 -0.913802 3.90449 0
M  V30 2369 H 223.333 0.475192 4.25958 0
M  V30 2370 H 227.517 1.30033 4.78963 0
M  V30 2371 H 222.773 2.46006 5.59724 0
M  V30 2372 H 226.947 3.28419 6.14096 0
M  V30 2373 H 224.574 3.86992 6.54325 0
M  V30 2374 N 226.149 -1.5696 0.141893 0
M  V30 2375 C 227.059 -2.20066 -0.812905 0
M  V30 2376 C 228.075 -1.18344 -1.27557 0
M  V30 2377 O 229.251 -1.50902 -1.33381 0
M  V30 2378 C 226.316 -2.80583 -2.03652 0
M  V30 2379 C 225.377 -3.97414 -1.62359 0
M  V30 2380 C 224.61 -4.55036 -2.78887 0
M  V30 2381 O 224.833 -4.11538 -3.94959 0
M  V30 2382 O 223.767 -5.45376 -2.54653 0
M  V30 2383 H 227.593 -3.02157 -0.305746 0
M  V30 2384 H 225.178 -1.49159 -0.0848799 0
M  V30 2385 H 227.06 -3.19067 -2.75272 0
M  V30 2386 H 225.735 -2.01508 -2.5333 0
M  V30 2387 H 224.642 -3.63656 -0.877775 0
M  V30 2388 H 225.975 -4.77994 -1.17401 0
M  V30 2389 N 227.627 0.131896 -1.57047 0
M  V30 2390 C 228.876 0.84044 -1.83356 0
M  V30 2391 C 229.189 1.81646 -0.725535 0
M  V30 2392 O 230.395 2.57025 -0.874659 0
M  V30 2393 C 228.851 1.54528 -3.25037 0
M  V30 2394 C 228.459 0.610902 -4.43815 0
M  V30 2395 C 230.203 2.23972 -3.60606 0
M  V30 2396 C 228.11 1.31823 -5.76521 0
M  V30 2397 H 227.04 0.317599 -0.683847 0
M  V30 2398 H 229.691 0.0931561 -1.83263 0
M  V30 2399 H 228.073 2.33873 -3.19561 0
M  V30 2400 H 229.247 -0.148407 -4.60561 0
M  V30 2401 H 227.562 0.0241016 -4.16393 0
M  V30 2402 H 230.159 2.77558 -4.57018 0
M  V30 2403 H 230.502 3.01173 -2.87403 0
M  V30 2404 H 231.035 1.51529 -3.6781 0
M  V30 2405 H 227.774 0.587771 -6.52859 0
M  V30 2406 H 227.294 2.04987 -5.63685 0
M  V30 2407 H 228.973 1.855 -6.19838 0
M  V30 2408 N 229.106 1.52395 0.401703 0
M  V30 2409 C 230.036 1.79231 1.49661 0
M  V30 2410 C 231.017 0.643654 1.57452 0
M  V30 2411 O 232.202 0.889989 1.72606 0
M  V30 2412 C 229.332 1.94971 2.87409 0
M  V30 2413 C 228.286 3.10604 2.94465 0
M  V30 2414 C 227.612 3.11577 4.34538 0
M  V30 2415 C 228.912 4.49921 2.6527 0
M  V30 2416 H 230.606 2.70917 1.27454 0
M  V30 2417 H 228.152 1.30362 0.6117 0
M  V30 2418 H 230.105 2.12328 3.63999 0
M  V30 2419 H 228.829 0.999632 3.10926 0
M  V30 2420 H 227.488 2.93009 2.20321 0
M  V30 2421 H 227.136 2.14277 4.55076 0
M  V30 2422 H 226.836 3.89247 4.40183 0
M  V30 2423 H 228.36 3.31073 5.13053 0
M  V30 2424 H 229.774 4.67683 3.31581 0
M  V30 2425 H 228.171 5.29564 2.82281 0
M  V30 2426 H 229.241 4.57507 1.60671 0
M  V30 2427 N 230.584 -0.659388 1.43143 0
M  V30 2428 C 231.494 -1.80167 1.50256 0
M  V30 2429 C 232.51 -1.69571 0.390106 0
M  V30 2430 O 233.686 -1.90849 0.643319 0
M  V30 2431 C 230.751 -3.16409 1.41725 0
M  V30 2432 C 229.812 -3.38848 2.63591 0
M  V30 2433 C 229.045 -4.68591 2.55458 0
M  V30 2434 O 229.268 -5.47532 1.59891 0
M  V30 2435 O 228.202 -4.92614 3.45854 0
M  V30 2436 H 232.028 -1.77121 2.46702 0
M  V30 2437 H 229.613 -0.817092 1.25076 0
M  V30 2438 H 231.495 -3.9768 1.39387 0
M  V30 2439 H 230.17 -3.20059 0.484118 0
M  V30 2440 H 229.077 -2.57366 2.71502 0
M  V30 2441 H 230.41 -3.4004 3.55856 0
M  V30 2442 N 232.062 -1.29571 -0.897171 0
M  V30 2443 C 233.478 -1.07637 -1.17841 0
M  V30 2444 C 233.678 0.170713 -2.00776 0
M  V30 2445 O 232.734 0.867768 -2.3712 0
M  V30 2446 C 234.047 -2.3332 -1.8969 0
M  V30 2447 C 235.595 -2.38664 -2.02505 0
M  V30 2448 C 236.07 -3.64157 -2.77765 0
M  V30 2449 N 237.561 -3.64894 -2.85318 0
M  V30 2450 C 238.296 -4.58679 -3.44094 0
M  V30 2451 N 237.792 -5.62799 -4.04017 0
M  V30 2452 N 239.585 -4.46245 -3.41793 0
M  V30 2453 H 231.736 -2.09598 -0.343883 0
M  V30 2454 H 233.999 -0.923333 -0.214848 0
M  V30 2455 H 233.705 -3.24262 -1.36187 0
M  V30 2456 H 233.579 -2.41025 -2.9015 0
M  V30 2457 H 235.966 -1.48208 -2.55183 0
M  V30 2458 H 236.047 -2.34943 -1.01171 0
M  V30 2459 H 235.691 -4.54965 -2.25763 0
M  V30 2460 H 235.621 -3.65137 -3.7945 0
M  V30 2461 H 238.112 -2.89613 -2.42761 0
M  V30 2462 H 238.425 -6.3048 -4.46895 0
M  V30 2463 H 236.77 -5.66605 -4.02472 0
M  V30 2464 H 239.961 -3.64094 -2.94199 0
M  V30 2465 H 240.134 -5.19518 -3.87304 0
M  V30 2466 N 233.54 1.10788 -1.12088 0
M  V30 2467 C 234.956 1.34691 -0.856186 0
M  V30 2468 C 235.156 1.94791 0.515615 0
M  V30 2469 O 234.212 2.18524 1.26505 0
M  V30 2470 C 235.525 2.27208 -1.9697 0
M  V30 2471 C 237.073 2.40755 -2.00016 0
M  V30 2472 C 237.548 3.36598 -3.1059 0
M  V30 2473 N 239.039 3.44164 -3.10008 0
M  V30 2474 C 239.774 4.18284 -3.92206 0
M  V30 2475 N 239.27 4.95322 -4.84384 0
M  V30 2476 N 241.063 4.13865 -3.80357 0
M  V30 2477 H 233.214 0.70144 -2.00483 0
M  V30 2478 H 235.477 0.371405 -0.872217 0
M  V30 2479 H 235.183 1.90251 -2.958 0
M  V30 2480 H 235.057 3.27485 -1.87172 0
M  V30 2481 H 237.444 2.76982 -1.01808 0
M  V30 2482 H 237.525 1.40305 -2.13888 0
M  V30 2483 H 237.169 3.01096 -4.09028 0
M  V30 2484 H 237.099 4.36918 -2.93956 0
M  V30 2485 H 239.59 2.8922 -2.43228 0
M  V30 2486 H 239.903 5.49267 -5.43623 0
M  V30 2487 H 238.248 4.94459 -4.884 0
M  V30 2488 H 241.439 3.52773 -3.07683 0
M  V30 2489 H 241.612 4.71372 -4.44649 0
M  V30 2490 O 235.057 1.04415 1.23206 0
M  V30 2491 H 235.748 0.716727 1.79952 0
M  V30 END ATOM
M  V30 BEGIN BOND
M  V30 END BOND
M  V30 END CTAB
M  END
$$$$
