drugbank_target|Q93050 V-type proton ATPase 116 kDa subunit a isoform 1 (DB01133)
 OpenBabel12092121233D

  0  0  0     0  0            999 V3000
M  V30 BEGIN CTAB
M  V30 COUNTS 13560 13733 0 0 0
M  V30 BEGIN ATOM
M  V30 1 H -0.908 1.98254 -0.117106 0
M  V30 2 N 0 1.576 0 0
M  V30 3 C 0.933 2.03868 1.02534 0
M  V30 4 C 1.911 0.928543 1.3348 0
M  V30 5 O 3.095 1.19667 1.45644 0
M  V30 6 C 0.222 2.43627 2.35294 0
M  V30 7 C -0.732 3.65373 2.2001 0
M  V30 8 S 0.101 5.13292 1.52614 0
M  V30 9 C 1.257 5.56322 2.86805 0
M  V30 10 H 1.49 2.90518 0.631377 0
M  V30 11 H -0.977 1.52953 0.210867 0
M  V30 12 H 0.981 2.67203 3.11629 0
M  V30 13 H -0.358 1.57376 2.7183 0
M  V30 14 H -1.165 3.90944 3.18086 0
M  V30 15 H -1.563 3.418 1.51819 0
M  V30 16 H 0.729 5.58782 3.83104 0
M  V30 17 H 1.672 6.56266 2.65933 0
M  V30 18 H 2.08 4.83886 2.90714 0
M  V30 19 N 1.4781 -0.272755 1.55222 0
M  V30 20 C 2.7261 -1.00234 1.75492 0
M  V30 21 C 3.0471 -1.8681 0.5592 0
M  V30 22 O 2.3171 -1.91215 -0.425882 0
M  V30 23 H 0.8971 -0.373076 0.647166 0
M  V30 24 H 3.5591 -0.296926 1.92625 0
M  V30 25 H 2.6551 -1.63913 2.65592 0
M  V30 26 N 2.9562 -1.48159 -0.537278 0
M  V30 27 C 3.8662 -1.64807 -1.6696 0
M  V30 28 C 4.8822 -0.530651 -1.65711 0
M  V30 29 O 6.0582 -0.800784 -1.84796 0
M  V30 30 C 3.1232 -1.67708 -3.03438 0
M  V30 31 C 2.1842 -2.91025 -3.156 0
M  V30 32 C 1.4172 -2.93778 -4.45567 0
M  V30 33 O 1.6402 -2.05153 -5.3223 0
M  V30 34 O 0.5742 -3.85868 -4.61941 0
M  V30 35 H 4.4002 -2.6066 -1.55853 0
M  V30 36 H 1.9852 -1.31475 -0.709549 0
M  V30 37 H 3.8672 -1.7218 -3.84619 0
M  V30 38 H 2.5422 -0.750278 -3.14885 0
M  V30 39 H 1.4492 -2.92089 -2.33741 0
M  V30 40 H 2.7822 -3.83065 -3.09066 0
M  V30 41 N 4.4343 0.785586 -1.36625 0
M  V30 42 C 5.3643 1.91259 -1.33949 0
M  V30 43 C 6.3453 1.68795 -0.210325 0
M  V30 44 O 7.5303 1.89854 -0.408561 0
M  V30 45 C 4.6603 3.28339 -1.13186 0
M  V30 46 C 3.6143 3.65335 -2.22967 0
M  V30 47 C 2.9403 5.00806 -1.87342 0
M  V30 48 C 4.2403 3.7352 -3.65075 0
M  V30 49 H 5.9343 1.93755 -2.28253 0
M  V30 50 H 3.4803 0.930788 -1.09874 0
M  V30 51 H 5.4333 4.06804 -1.09948 0
M  V30 52 H 4.1573 3.2624 -0.153332 0
M  V30 53 H 2.8163 2.89169 -2.25337 0
M  V30 54 H 2.4643 4.95233 -0.880545 0
M  V30 55 H 2.1643 5.26529 -2.60846 0
M  V30 56 H 3.6883 5.81687 -1.85667 0
M  V30 57 H 5.1023 4.42168 -3.64911 0
M  V30 58 H 3.4993 4.10731 -4.37516 0
M  V30 59 H 4.5693 2.74527 -3.99703 0
M  V30 60 N 5.9124 1.20967 1.01018 0
M  V30 61 C 7.1594 1.02374 1.74716 0
M  V30 62 C 7.4874 -0.443375 1.89379 0
M  V30 63 O 6.7424 -1.34535 1.42123 0
M  V30 64 C 7.0414 1.65997 3.16512 0
M  V30 65 C 6.7074 3.15831 3.2181 0
M  V30 66 C 5.3694 3.56719 3.22963 0
M  V30 67 C 7.7214 4.11816 3.19464 0
M  V30 68 C 5.0494 4.92107 3.19449 0
M  V30 69 C 7.4014 5.47158 3.17491 0
M  V30 70 C 6.0654 5.87451 3.16951 0
M  V30 71 H 5.3354 0.374614 0.639332 0
M  V30 72 H 7.9824 1.50485 1.18434 0
M  V30 73 H 6.2874 1.10166 3.75993 0
M  V30 74 H 7.9844 1.49119 3.72242 0
M  V30 75 H 4.5744 2.83263 3.21652 0
M  V30 76 H 8.7584 3.81257 3.17737 0
M  V30 77 H 4.0144 5.22579 3.17366 0
M  V30 78 H 8.1884 6.21274 3.14629 0
M  V30 79 H 5.8154 6.92329 3.13983 0
M  V30 80 N 7.3905 -1.2043 1.01659 0
M  V30 81 C 8.8065 -1.41852 0.731442 0
M  V30 82 C 9.0065 -1.89358 -0.688898 0
M  V30 83 O 8.0625 -2.06247 -1.45666 0
M  V30 84 C 9.3755 -2.44019 1.75714 0
M  V30 85 C 10.9235 -2.57785 1.77527 0
M  V30 86 C 11.3985 -3.63194 2.79023 0
M  V30 87 N 12.8895 -3.70678 2.77763 0
M  V30 88 C 13.6245 -4.51897 3.52954 0
M  V30 89 N 13.1205 -5.36921 4.37821 0
M  V30 90 N 14.9135 -4.4643 3.41551 0
M  V30 91 H 7.0645 -0.879093 1.93354 0
M  V30 92 H 9.3275 -0.448425 0.835236 0
M  V30 93 H 9.0335 -2.1611 2.77469 0
M  V30 94 H 8.9075 -3.43007 1.56927 0
M  V30 95 H 11.2945 -2.85023 0.764569 0
M  V30 96 H 11.3755 -1.58992 2.00387 0
M  V30 97 H 11.0195 -3.36699 3.80258 0
M  V30 98 H 10.9495 -4.61609 2.53425 0
M  V30 99 H 13.4405 -3.09944 2.16201 0
M  V30 100 H 13.7535 -5.95981 4.91962 0
M  V30 101 H 12.0985 -5.36424 4.41899 0
M  V30 102 H 15.2895 -3.79042 2.74672 0
M  V30 103 H 15.4625 -5.09491 4.00404 0
M  V30 104 N 8.8686 -0.792821 -1.36206 0
M  V30 105 C 10.0936 -0.377701 -2.03932 0
M  V30 106 C 10.5186 0.998947 -1.59382 0
M  V30 107 O 9.8766 1.64421 -0.763903 0
M  V30 108 C 9.9246 -0.453635 -3.57735 0
M  V30 109 O 9.0286 0.538151 -4.08874 0
M  V30 110 H 8.3696 -0.159855 -0.644471 0
M  V30 111 H 10.8996 -1.07488 -1.7409 0
M  V30 112 H 10.9096 -0.318464 -4.06755 0
M  V30 113 H 9.5846 -1.45784 -3.89512 0
M  V30 114 H 8.1616 0.364359 -3.71116 0
M  V30 115 N 10.3467 1.47872 -0.545128 0
M  V30 116 C 11.2567 2.33633 0.212746 0
M  V30 117 C 12.2727 1.4744 0.923983 0
M  V30 118 O 13.4487 1.80393 0.895572 0
M  V30 119 C 10.5137 3.23884 1.23693 0
M  V30 120 C 9.5747 4.25961 0.534417 0
M  V30 121 C 8.8077 5.11899 1.5098 0
M  V30 122 O 9.0307 5.00077 2.7437 0
M  V30 123 O 7.9647 5.92831 1.0409 0
M  V30 124 H 11.7907 2.99714 -0.490416 0
M  V30 125 H 9.3757 1.46235 -0.305871 0
M  V30 126 H 11.2577 3.79666 1.82843 0
M  V30 127 H 9.9327 2.60446 1.92222 0
M  V30 128 H 8.8397 3.73972 -0.0979679 0
M  V30 129 H 10.1727 4.92079 -0.109213 0
M  V30 130 N 11.8248 0.280983 1.55075 0
M  V30 131 C 12.7348 -0.61388 2.26426 0
M  V30 132 C 13.7508 -1.16521 1.29224 0
M  V30 133 O 14.9268 -1.19426 1.62171 0
M  V30 134 C 11.9918 -1.7788 2.9759 0
M  V30 135 C 11.0528 -1.26355 4.10284 0
M  V30 136 C 10.2858 -2.37295 4.78045 0
M  V30 137 O 10.5088 -3.56777 4.45047 0
M  V30 138 O 9.4428 -2.05119 5.65871 0
M  V30 139 H 13.2688 -0.0356932 3.03679 0
M  V30 140 H 10.8538 0.0481686 1.49322 0
M  V30 141 H 12.7358 -2.45791 3.42293 0
M  V30 142 H 11.4108 -2.34397 2.23249 0
M  V30 143 H 10.3178 -0.550735 3.70024 0
M  V30 144 H 11.6508 -0.744065 4.86543 0
M  V30 145 N 13.3029 -1.57598 0.00835791 0
M  V30 146 C 14.2359 -2.04409 -1.01451 0
M  V30 147 C 15.2139 -0.935609 -1.32985 0
M  V30 148 O 16.3979 -1.20437 -1.45007 0
M  V30 149 C 13.5249 -2.44872 -2.33999 0
M  V30 150 C 12.5709 -3.66535 -2.18069 0
M  V30 151 S 13.4039 -5.14095 -1.4989 0
M  V30 152 C 14.5599 -5.57835 -2.8385 0
M  V30 153 H 14.7929 -2.90849 -0.615961 0
M  V30 154 H 12.3259 -1.53063 -0.202752 0
M  V30 155 H 14.2839 -2.68852 -3.10208 0
M  V30 156 H 12.9449 -1.58815 -2.70992 0
M  V30 157 H 12.1379 -3.92626 -3.16008 0
M  V30 158 H 11.7399 -3.426 -1.50004 0
M  V30 159 H 14.0319 -5.60806 -3.80136 0
M  V30 160 H 14.9749 -6.57667 -2.62449 0
M  V30 161 H 15.3829 -4.85421 -2.88144 0
M  V30 162 N 14.781 0.264519 -1.55364 0
M  V30 163 C 16.009 1.013 -1.80405 0
M  V30 164 C 16.424 1.79618 -0.581622 0
M  V30 165 O 15.781 1.76879 0.449468 0
M  V30 166 C 15.832 1.96487 -3.03439 0
M  V30 167 O 15.553 1.21341 -4.20961 0
M  V30 168 C 17.054 2.83079 -3.41147 0
M  V30 169 H 14.274 0.298875 -0.600762 0
M  V30 170 H 16.818 0.292736 -2.02394 0
M  V30 171 H 14.973 2.63965 -2.83551 0
M  V30 172 H 15.387 1.85573 -4.90574 0
M  V30 173 H 16.861 3.4565 -4.30384 0
M  V30 174 H 17.338 3.53286 -2.60932 0
M  V30 175 H 17.944 2.2108 -3.63323 0
M  V30 176 N 16.2591 1.48442 0.529413 0
M  V30 177 C 17.1891 1.65902 1.64313 0
M  V30 178 C 18.1701 0.507897 1.6234 0
M  V30 179 O 19.3551 0.740503 1.79528 0
M  V30 180 C 16.4851 1.69911 3.02898 0
M  V30 181 C 15.4391 2.8453 3.19729 0
M  V30 182 C 14.7651 2.73629 4.59381 0
M  V30 183 C 16.0651 4.25821 3.02447 0
M  V30 184 H 17.7591 2.5914 1.49955 0
M  V30 185 H 15.3051 1.24709 0.719982 0
M  V30 186 H 17.2581 1.80715 3.80684 0
M  V30 187 H 15.9821 0.732524 3.18279 0
M  V30 188 H 14.6411 2.73283 2.44361 0
M  V30 189 H 14.2891 1.74938 4.71599 0
M  V30 190 H 13.9891 3.50541 4.71588 0
M  V30 191 H 15.5131 2.86401 5.39265 0
M  V30 192 H 16.9271 4.37898 3.70024 0
M  V30 193 H 15.3241 5.03735 3.26146 0
M  V30 194 H 16.3941 4.42244 1.98867 0
M  V30 195 N 17.7372 -0.778329 1.37039 0
M  V30 196 C 18.7002 -1.87301 1.32102 0
M  V30 197 C 19.7002 -1.59198 0.226405 0
M  V30 198 O 20.8902 -1.67403 0.481861 0
M  V30 199 C 18.0222 -3.24309 1.05055 0
M  V30 200 H 19.2152 -1.93093 2.29467 0
M  V30 201 H 16.7682 -0.977358 1.21973 0
M  V30 202 H 17.5032 -3.24196 0.0819373 0
M  V30 203 H 17.2882 -3.46098 1.84279 0
M  V30 204 H 18.7782 -4.04382 1.04234 0
M  V30 205 N 19.2153 -1.21501 -1.00376 0
M  V30 206 C 20.1473 -0.933174 -2.09343 0
M  V30 207 C 21.1603 0.0840896 -1.62583 0
M  V30 208 O 22.3493 -0.148563 -1.77881 0
M  V30 209 C 19.4493 -0.379869 -3.36764 0
M  V30 210 C 18.6223 -1.45176 -4.12605 0
M  V30 211 C 17.6813 -0.907476 -5.18316 0
M  V30 212 O 16.7073 -1.5912 -5.46507 0
M  V30 213 N 17.9093 0.276649 -5.7984 0
M  V30 214 H 20.6743 -1.87124 -2.34104 0
M  V30 215 H 18.2353 -1.12043 -1.16867 0
M  V30 216 H 20.2273 -0.00131488 -4.047 0
M  V30 217 H 18.7973 0.463048 -3.09151 0
M  V30 218 H 18.0173 -2.00411 -3.39454 0
M  V30 219 H 19.3053 -2.17328 -4.6005 0
M  V30 220 H 18.7033 0.849147 -5.59291 0
M  V30 221 H 17.2603 0.596702 -6.49063 0
M  V30 222 N 20.6934 1.19889 -1.02296 0
M  V30 223 C 21.6234 2.25141 -0.619174 0
M  V30 224 C 22.6044 1.66051 0.368915 0
M  V30 225 O 23.7894 1.92546 0.252941 0
M  V30 226 C 20.9194 3.4728 0.0368783 0
M  V30 227 C 19.8734 4.19005 -0.872865 0
M  V30 228 C 19.1994 5.34637 -0.0822402 0
M  V30 229 C 20.4994 4.74452 -2.18387 0
M  V30 230 H 22.1934 2.59171 -1.49903 0
M  V30 231 H 19.7394 1.24579 -0.722222 0
M  V30 232 H 21.6924 4.20098 0.330958 0
M  V30 233 H 20.4164 3.12433 0.95149 0
M  V30 234 H 19.0754 3.48061 -1.15105 0
M  V30 235 H 18.7234 4.96034 0.83422 0
M  V30 236 H 18.4234 5.83557 -0.688149 0
M  V30 237 H 19.9474 6.10255 0.205238 0
M  V30 238 H 21.3614 5.39055 -1.95172 0
M  V30 239 H 19.7584 5.33834 -2.74119 0
M  V30 240 H 20.8284 3.92844 -2.84257 0
M  V30 241 N 22.1715 0.800033 1.35784 0
M  V30 242 C 23.4185 0.377342 1.98953 0
M  V30 243 C 23.7465 -1.05378 1.6348 0
M  V30 244 O 23.0015 -1.74459 0.886707 0
M  V30 245 C 23.3005 0.500276 3.53881 0
M  V30 246 C 22.9665 1.89375 4.09204 0
M  V30 247 C 21.6285 2.27499 4.24025 0
M  V30 248 C 23.9805 2.8057 4.39238 0
M  V30 249 C 21.3085 3.562 4.66195 0
M  V30 250 C 23.6605 4.0871 4.82844 0
M  V30 251 C 22.3245 4.46843 4.95871 0
M  V30 252 H 21.5945 0.138079 0.728021 0
M  V30 253 H 24.2415 1.01955 1.62103 0
M  V30 254 H 22.5465 -0.225405 3.91151 0
M  V30 255 H 24.2435 0.154097 4.00704 0
M  V30 256 H 20.8335 1.58753 3.98115 0
M  V30 257 H 25.0175 2.52367 4.27346 0
M  V30 258 H 20.2735 3.85602 4.74469 0
M  V30 259 H 24.4475 4.79481 5.05046 0
M  V30 260 H 22.0745 5.46623 5.28306 0
M  V30 261 N 23.6496 -1.47581 0.552962 0
M  V30 262 C 24.5796 -2.32762 -0.185451 0
M  V30 263 C 25.5606 -1.43527 -0.912905 0
M  V30 264 O 26.7456 -1.72388 -0.894201 0
M  V30 265 C 23.8756 -3.25219 -1.21859 0
M  V30 266 C 22.8296 -4.23661 -0.607864 0
M  V30 267 C 22.1556 -5.05413 -1.74533 0
M  V30 268 C 23.4556 -5.20481 0.435582 0
M  V30 269 H 25.1496 -2.94749 0.525684 0
M  V30 270 H 22.6956 -1.41738 0.254251 0
M  V30 271 H 24.6486 -3.8365 -1.7433 0
M  V30 272 H 23.3726 -2.61279 -1.95961 0
M  V30 273 H 22.0316 -3.66451 -0.104489 0
M  V30 274 H 21.6796 -4.3788 -2.47529 0
M  V30 275 H 21.3796 -5.72059 -1.34249 0
M  V30 276 H 22.9036 -5.66701 -2.27338 0
M  V30 277 H 24.3176 -5.733 -0.00290157 0
M  V30 278 H 22.7146 -5.95305 0.757067 0
M  V30 279 H 23.7846 -4.66217 1.33303 0
M  V30 280 N 25.1277 -0.289203 -1.54924 0
M  V30 281 C 26.0597 0.625583 -2.20497 0
M  V30 282 C 27.0727 1.10667 -1.19402 0
M  V30 283 O 28.2617 1.02615 -1.46056 0
M  V30 284 C 25.3617 1.86702 -2.82835 0
M  V30 285 C 24.5347 1.5304 -4.09753 0
M  V30 286 C 23.5937 2.62576 -4.56005 0
M  V30 287 O 22.6197 2.28167 -5.21468 0
M  V30 288 N 23.8217 3.92901 -4.27328 0
M  V30 289 H 26.5867 0.0642801 -2.99631 0
M  V30 290 H 24.1477 -0.110896 -1.6152 0
M  V30 291 H 26.1397 2.59304 -3.10715 0
M  V30 292 H 24.7097 2.33702 -2.07611 0
M  V30 293 H 23.9297 0.637564 -3.8901 0
M  V30 294 H 25.2177 1.28072 -4.92418 0
M  V30 295 H 24.6157 4.23671 -3.74859 0
M  V30 296 H 23.1727 4.61837 -4.59946 0
M  V30 297 N 26.6058 1.57591 -0.0167156 0
M  V30 298 C 27.8308 1.9598 0.67872 0
M  V30 299 C 28.2558 0.892546 1.65575 0
M  V30 300 O 27.6138 -0.147772 1.80697 0
M  V30 301 C 27.6618 3.33468 1.37227 0
M  V30 302 O 26.7658 3.28954 2.48722 0
M  V30 303 H 26.1068 0.639339 0.17928 0
M  V30 304 H 28.6368 2.04463 -0.0748802 0
M  V30 305 H 28.6468 3.69417 1.7319 0
M  V30 306 H 27.3218 4.10694 0.656007 0
M  V30 307 H 25.8988 3.04705 2.14963 0
M  V30 308 N 28.0839 -0.256276 1.55502 0
M  V30 309 C 28.9939 -1.33882 1.92647 0
M  V30 310 C 30.0099 -1.53159 0.825727 0
M  V30 311 O 31.1859 -1.66963 1.12629 0
M  V30 312 C 28.2509 -2.6751 2.20543 0
M  V30 313 C 27.3119 -2.56836 3.43997 0
M  V30 314 C 26.5449 -3.84092 3.70553 0
M  V30 315 O 26.7679 -4.85545 2.99336 0
M  V30 316 O 25.7019 -3.83288 4.64084 0
M  V30 317 H 29.5279 -1.05374 2.84833 0
M  V30 318 H 27.1129 -0.456237 1.42263 0
M  V30 319 H 28.9949 -3.46492 2.39835 0
M  V30 320 H 27.6699 -2.9577 1.31536 0
M  V30 321 H 26.5769 -1.76172 3.30021 0
M  V30 322 H 27.9099 -2.33523 4.33275 0
M  V30 323 N 29.562 -1.4872 -0.521534 0
M  V30 324 C 30.525 -1.63379 -1.60748 0
M  V30 325 C 31.525 -0.50661 -1.52611 0
M  V30 326 O 32.715 -0.772601 -1.5613 0
M  V30 327 C 29.847 -1.61192 -3.00383 0
M  V30 328 H 31.04 -2.60217 -1.49087 0
M  V30 329 H 28.593 -1.37444 -0.744235 0
M  V30 330 H 29.328 -0.65863 -3.17541 0
M  V30 331 H 29.113 -2.43032 -3.07698 0
M  V30 332 H 30.603 -1.7466 -3.7932 0
M  V30 333 N 31.0401 0.771051 -1.3745 0
M  V30 334 C 32.0031 1.86598 -1.33093 0
M  V30 335 C 33.0031 1.59076 -0.234845 0
M  V30 336 O 34.1931 1.67145 -0.490732 0
M  V30 337 C 31.3251 3.23747 -1.06773 0
M  V30 338 H 32.5181 1.91873 -2.30488 0
M  V30 339 H 30.0711 0.970876 -1.2249 0
M  V30 340 H 30.8061 3.24148 -0.099129 0
M  V30 341 H 30.5911 3.45115 -1.86112 0
M  V30 342 H 32.0811 4.03824 -1.06377 0
M  V30 343 N 32.5182 1.22032 0.997298 0
M  V30 344 C 33.7482 1.06686 1.76923 0
M  V30 345 C 34.1562 -0.385838 1.85224 0
M  V30 346 O 33.4992 -1.27929 1.31833 0
M  V30 347 C 33.5612 1.59802 3.22031 0
M  V30 348 C 33.2252 3.08362 3.37286 0
M  V30 349 C 34.2222 4.05835 3.24952 0
M  V30 350 C 31.9072 3.47727 3.6248 0
M  V30 351 C 33.9012 5.4066 3.37588 0
M  V30 352 C 31.5882 4.82701 3.74757 0
M  V30 353 C 32.5862 5.78977 3.62319 0
M  V30 354 O 32.2742 7.11502 3.74193 0
M  V30 355 H 32.0062 0.374767 0.562606 0
M  V30 356 H 34.5602 1.61991 1.26286 0
M  V30 357 H 32.7902 0.989003 3.73839 0
M  V30 358 H 34.4792 1.40184 3.80924 0
M  V30 359 H 35.2452 3.76766 3.05405 0
M  V30 360 H 31.1242 2.73317 3.7124 0
M  V30 361 H 34.6682 6.15788 3.27796 0
M  V30 362 H 30.5652 5.11453 3.9381 0
M  V30 363 H 31.3332 7.19019 3.91093 0
M  V30 364 N 33.9963 -1.19345 1.0293 0
M  V30 365 C 35.2363 -1.90738 0.734727 0
M  V30 366 C 35.6003 -1.7785 -0.723414 0
M  V30 367 O 36.8013 -2.43844 -1.13108 0
M  V30 368 C 35.0723 -3.37569 1.17396 0
M  V30 369 S 36.6313 -4.27176 1.00329 0
M  V30 370 H 33.4493 -0.658771 0.267474 0
M  V30 371 H 36.0513 -1.4428 1.31922 0
M  V30 372 H 34.7553 -3.44475 2.23081 0
M  V30 373 H 34.2863 -3.8906 0.582772 0
M  V30 374 H 36.3013 -4.96126 -0.0859152 0
M  V30 375 N 35.4744 -0.807222 -1.35358 0
M  V30 376 C 36.7144 -0.393534 -2.00576 0
M  V30 377 C 37.0784 1.0203 -1.62647 0
M  V30 378 O 38.2794 1.53603 -2.20589 0
M  V30 379 C 36.5504 -0.572017 -3.52793 0
M  V30 380 S 38.1094 -0.248845 -4.38094 0
M  V30 381 H 34.9274 -0.149425 -0.695121 0
M  V30 382 H 37.5294 -1.04961 -1.64935 0
M  V30 383 H 36.2334 -1.60097 -3.77885 0
M  V30 384 H 35.7644 0.099359 -3.93275 0
M  V30 385 H 37.7794 0.943253 -4.87152 0
M  V30 386 N 36.9525 1.47285 -0.560781 0
M  V30 387 C 38.1985 2.02764 -0.0381184 0
M  V30 388 C 38.5315 1.43384 1.30976 0
M  V30 389 O 37.8065 0.590733 1.85312 0
M  V30 390 C 38.0895 3.60064 0.0511427 0
M  V30 391 C 37.9425 4.2987 -1.32408 0
M  V30 392 C 39.2615 4.33439 0.762795 0
M  V30 393 H 36.3805 0.736841 -0.0153264 0
M  V30 394 H 39.0225 1.75675 -0.723759 0
M  V30 395 H 37.1725 3.83274 0.635065 0
M  V30 396 H 38.8445 4.17989 -1.95148 0
M  V30 397 H 37.0875 3.90085 -1.8978 0
M  V30 398 H 37.7585 5.38478 -1.21431 0
M  V30 399 H 40.2345 4.15243 0.266965 0
M  V30 400 H 39.1105 5.43124 0.794221 0
M  V30 401 H 39.3715 4.02915 1.81966 0
M  V30 402 N 38.4306 0.297415 1.54768 0
M  V30 403 C 39.6556 -0.318435 2.04941 0
M  V30 404 C 40.0806 -1.4701 1.17345 0
M  V30 405 O 39.4386 -1.80436 0.176758 0
M  V30 406 C 39.4866 -0.755749 3.52592 0
M  V30 407 O 38.5906 -1.86088 3.68028 0
M  V30 408 H 37.9316 -0.062421 0.661059 0
M  V30 409 H 40.4616 0.438215 1.99852 0
M  V30 410 H 40.4716 -1.04552 3.94376 0
M  V30 411 H 39.1466 0.0867233 4.1581 0
M  V30 412 H 37.7236 -1.57193 3.38149 0
M  V30 413 N 39.9087 -1.5758 0.0250728 0
M  V30 414 C 40.8187 -2.1343 -0.973905 0
M  V30 415 C 41.8347 -1.08556 -1.35984 0
M  V30 416 O 43.0107 -1.40592 -1.44207 0
M  V30 417 C 40.0757 -2.64703 -2.23904 0
M  V30 418 C 39.1367 -3.84276 -1.91391 0
M  V30 419 C 38.3697 -4.33095 -3.11873 0
M  V30 420 O 38.5927 -3.81107 -4.24398 0
M  V30 421 O 37.5267 -5.24984 -2.94406 0
M  V30 422 H 41.3527 -2.99057 -0.529036 0
M  V30 423 H 38.9377 -1.48118 -0.195288 0
M  V30 424 H 40.8197 -2.97769 -2.98181 0
M  V30 425 H 39.4947 -1.82161 -2.6758 0
M  V30 426 H 38.4017 -3.56143 -1.14511 0
M  V30 427 H 39.7347 -4.67968 -1.52534 0
M  V30 428 N 41.3868 0.248026 -1.55636 0
M  V30 429 C 42.3168 1.31079 -1.93237 0
M  V30 430 C 43.2978 1.50264 -0.797174 0
M  V30 431 O 44.4828 1.62891 -1.05737 0
M  V30 432 C 41.6128 2.66575 -2.22609 0
M  V30 433 C 40.5668 2.62087 -3.3837 0
M  V30 434 C 39.8928 4.01369 -3.53281 0
M  V30 435 C 41.1928 2.19171 -4.7409 0
M  V30 436 H 42.8868 0.998556 -2.82257 0
M  V30 437 H 40.4328 0.47891 -1.35803 0
M  V30 438 H 42.3858 3.41057 -2.47503 0
M  V30 439 H 41.1098 2.99432 -1.30414 0
M  V30 440 H 39.7688 1.90063 -3.13483 0
M  V30 441 H 39.4168 4.31489 -2.58508 0
M  V30 442 H 39.1168 3.99254 -4.31127 0
M  V30 443 H 40.6408 4.77552 -3.80495 0
M  V30 444 H 42.0548 2.83384 -4.98363 0
M  V30 445 H 40.4518 2.2817 -5.5503 0
M  V30 446 H 41.5218 1.14336 -4.71227 0
M  V30 447 N 42.8649 1.48995 0.513639 0
M  V30 448 C 44.1129 1.57531 1.26604 0
M  V30 449 C 44.4339 0.258236 1.93283 0
M  V30 450 O 43.7039 -0.721502 1.8213 0
M  V30 451 H 42.2839 0.580387 0.470276 0
M  V30 452 H 44.9459 1.85552 0.596373 0
M  V30 453 H 44.0419 2.36486 2.03669 0
M  V30 454 N 44.343 -0.763751 1.37857 0
M  V30 455 C 45.253 -1.90817 1.36478 0
M  V30 456 C 46.269 -1.71997 0.263248 0
M  V30 457 O 47.445 -1.95095 0.499979 0
M  V30 458 C 44.51 -3.2605 1.17864 0
M  V30 459 C 43.571 -3.57467 2.3773 0
M  V30 460 C 42.804 -4.86249 2.19995 0
M  V30 461 O 43.027 -5.57884 1.18836 0
M  V30 462 O 41.961 -5.16911 3.08361 0
M  V30 463 H 45.787 -1.94933 2.32884 0
M  V30 464 H 43.372 -0.907619 1.1867 0
M  V30 465 H 45.254 -4.06924 1.09504 0
M  V30 466 H 43.929 -3.22769 0.245372 0
M  V30 467 H 42.836 -2.76796 2.51664 0
M  V30 468 H 44.169 -3.655 3.29652 0
M  V30 469 N 45.8211 -1.22559 -0.990812 0
M  V30 470 C 46.7511 -1.0218 -2.09956 0
M  V30 471 C 47.7321 0.0579394 -1.70001 0
M  V30 472 O 48.9171 -0.104684 -1.93918 0
M  V30 473 C 46.0471 -0.601023 -3.4206 0
M  V30 474 C 45.0011 -1.62694 -3.95872 0
M  V30 475 C 44.3271 -1.06193 -5.24049 0
M  V30 476 C 45.6271 -3.01743 -4.2632 0
M  V30 477 H 47.3211 -1.94916 -2.27262 0
M  V30 478 H 44.8671 -0.938566 -1.09211 0
M  V30 479 H 46.8201 -0.445561 -4.19038 0
M  V30 480 H 45.5441 0.362005 -3.24588 0
M  V30 481 H 44.2031 -1.77021 -3.21028 0
M  V30 482 H 43.8511 -0.0901903 -5.02919 0
M  V30 483 H 43.5511 -1.74732 -5.61019 0
M  V30 484 H 45.0751 -0.918092 -6.03658 0
M  V30 485 H 46.4891 -2.90777 -4.94087 0
M  V30 486 H 44.8861 -3.67425 -4.74467 0
M  V30 487 H 45.9561 -3.51518 -3.34011 0
M  V30 488 N 47.2992 1.18797 -1.03562 0
M  V30 489 C 48.5472 1.88278 -0.734569 0
M  V30 490 C 48.8682 1.8043 0.739586 0
M  V30 491 O 48.1382 1.21925 1.53333 0
M  V30 492 H 46.7182 0.696991 -0.268725 0
M  V30 493 H 49.3802 1.44192 -1.31129 0
M  V30 494 H 48.4762 2.94443 -1.03489 0
M  V30 495 N 48.7773 0.814389 1.34928 0
M  V30 496 C 49.7243 0.22822 2.29669 0
M  V30 497 C 50.6943 -0.642164 1.53184 0
M  V30 498 O 51.8793 -0.585605 1.81591 0
M  V30 499 C 49.0193 -0.61089 3.3965 0
M  V30 500 C 48.1323 0.280792 4.31086 0
M  V30 501 C 47.2673 -0.567067 5.28165 0
M  V30 502 C 46.3063 0.324531 6.11239 0
M  V30 503 N 45.4433 -0.483756 7.00431 0
M  V30 504 H 50.2833 1.04153 2.79206 0
M  V30 505 H 47.8203 0.525133 1.37407 0
M  V30 506 H 49.7783 -1.11263 4.0209 0
M  V30 507 H 48.4083 -1.38939 2.91369 0
M  V30 508 H 47.4603 0.900688 3.69583 0
M  V30 509 H 48.7723 0.966723 4.89342 0
M  V30 510 H 47.9263 -1.13363 5.96015 0
M  V30 511 H 46.6653 -1.28654 4.70425 0
M  V30 512 H 45.6703 0.903298 5.42329 0
M  V30 513 H 46.8953 1.04198 6.71059 0
M  V30 514 H 44.8413 -1.18706 6.45171 0
M  V30 515 H 44.7583 0.143965 7.55863 0
M  V30 516 H 46.0263 -1.03334 7.7262 0
M  V30 517 N 50.2554 -1.46986 0.568584 0
M  V30 518 C 51.5014 -2.02741 0.0488709 0
M  V30 519 C 51.8344 -1.44077 -1.30214 0
M  V30 520 O 51.1094 -0.600552 -1.84996 0
M  V30 521 C 51.3924 -3.60086 -0.032047 0
M  V30 522 C 51.2454 -4.29162 1.34686 0
M  V30 523 C 52.5644 -4.33838 -0.739798 0
M  V30 524 H 49.6834 -0.736749 0.0192338 0
M  V30 525 H 52.3254 -1.75289 0.733065 0
M  V30 526 H 50.4754 -3.83606 -0.61473 0
M  V30 527 H 52.1474 -4.16948 1.97362 0
M  V30 528 H 50.3904 -3.89073 1.91846 0
M  V30 529 H 51.0614 -5.37826 1.24285 0
M  V30 530 H 53.5374 -4.15378 -0.244939 0
M  V30 531 H 52.4134 -5.43537 -0.765406 0
M  V30 532 H 52.6744 -4.03875 -1.79827 0
M  V30 533 N 51.7335 -0.305618 -1.54608 0
M  V30 534 C 52.6655 0.602161 -2.21149 0
M  V30 535 C 53.6785 1.09394 -1.20569 0
M  V30 536 O 54.8675 1.0106 -1.47136 0
M  V30 537 C 51.9675 1.83692 -2.84799 0
M  V30 538 C 51.1405 1.48686 -4.11353 0
M  V30 539 C 50.1995 2.57725 -4.58764 0
M  V30 540 O 49.2255 2.22623 -5.23858 0
M  V30 541 N 50.4275 3.88346 -4.31471 0
M  V30 542 H 53.1925 0.0324966 -2.99682 0
M  V30 543 H 50.7535 -0.128021 -1.61393 0
M  V30 544 H 52.7455 2.55994 -3.13448 0
M  V30 545 H 51.3155 2.31486 -2.10078 0
M  V30 546 H 50.5355 0.596269 -3.89664 0
M  V30 547 H 51.8235 1.22842 -4.93748 0
M  V30 548 H 51.2215 4.19671 -3.79331 0
M  V30 549 H 49.7785 4.56932 -4.64818 0
M  V30 550 N 53.2116 1.57565 -0.0334293 0
M  V30 551 C 54.4586 1.91978 0.644272 0
M  V30 552 C 54.7866 0.910231 1.71887 0
M  V30 553 O 54.0416 -0.0801961 1.95536 0
M  V30 554 C 54.3406 3.33112 1.29504 0
M  V30 555 C 54.0066 4.49537 0.350388 0
M  V30 556 C 52.6686 4.81115 0.0903974 0
M  V30 557 C 55.0206 5.20347 -0.298032 0
M  V30 558 C 52.3486 5.8086 -0.825746 0
M  V30 559 C 54.7006 6.2107 -1.20226 0
M  V30 560 C 53.3646 6.51088 -1.4711 0
M  V30 561 H 52.6346 0.702496 0.235756 0
M  V30 562 H 55.2816 1.91259 -0.0961176 0
M  V30 563 H 53.5866 3.30113 2.11028 0
M  V30 564 H 55.2836 3.57011 1.82603 0
M  V30 565 H 51.8736 4.24883 0.563205 0
M  V30 566 H 56.0576 4.96178 -0.110234 0
M  V30 567 H 51.3136 6.02461 -1.04169 0
M  V30 568 H 55.4876 6.75057 -1.71086 0
M  V30 569 H 53.1146 7.28193 -2.18264 0
M  V30 570 N 54.6897 -0.239769 1.55765 0
M  V30 571 C 56.1057 -0.588624 1.48349 0
M  V30 572 C 56.3057 -1.88005 0.72502 0
M  V30 573 O 55.3617 -2.51186 0.257269 0
M  V30 574 C 56.6747 -0.68474 2.928 0
M  V30 575 C 58.2227 -0.77659 3.03213 0
M  V30 576 C 58.6977 -0.904207 4.48986 0
M  V30 577 N 60.1887 -0.968896 4.52953 0
M  V30 578 C 60.9237 -1.08703 5.63002 0
M  V30 579 N 60.4197 -1.17026 6.82845 0
M  V30 580 N 62.2127 -1.12074 5.50814 0
M  V30 581 H 54.3637 0.607911 2.03515 0
M  V30 582 H 56.6267 0.21083 0.924259 0
M  V30 583 H 56.3327 0.194284 3.51163 0
M  V30 584 H 56.2067 -1.55435 3.43686 0
M  V30 585 H 58.5937 -1.64606 2.44926 0
M  V30 586 H 58.6747 0.118315 2.55526 0
M  V30 587 H 58.3187 -0.0392633 5.07885 0
M  V30 588 H 58.2487 -1.81426 4.9436 0
M  V30 589 H 60.7397 -0.915633 3.6664 0
M  V30 590 H 61.0527 -1.25966 7.62465 0
M  V30 591 H 59.3977 -1.13971 6.85591 0
M  V30 592 H 62.5887 -1.05226 4.5612 0
M  V30 593 H 62.7617 -1.20936 6.36615 0
M  V30 594 N 56.1678 -1.49265 -0.50573 0
M  V30 595 C 57.4448 -1.49012 -1.26707 0
M  V30 596 C 57.8248 -0.215205 -2.1 0
M  V30 597 O 57.1728 0.802547 -2.13943 0
M  V30 598 C 57.3828 -2.7663 -2.12783 0
M  V30 599 C 58.7308 -3.25932 -2.72127 0
M  V30 600 O 59.7548 -2.77715 -2.23054 0
M  V30 601 O 58.6138 -4.09897 -3.61451 0
M  V30 602 H 55.7078 -0.596197 -0.57313 0
M  V30 603 H 58.2538 -1.61524 -0.52039 0
M  V30 604 H 57.0258 -3.60916 -1.5118 0
M  V30 605 H 56.6488 -2.66956 -2.94653 0
M  V30 606 N 57.6459 0.756429 -1.3826 0
M  V30 607 C 58.5759 1.88374 -1.37976 0
M  V30 608 C 59.5569 1.68311 -0.246082 0
M  V30 609 O 60.7419 1.88944 -0.44874 0
M  V30 610 C 57.8719 3.25864 -1.20125 0
M  V30 611 C 56.8259 3.60523 -2.30666 0
M  V30 612 C 56.1519 4.9672 -1.97923 0
M  V30 613 C 57.4519 3.65692 -3.72916 0
M  V30 614 H 59.1459 1.88869 -2.32312 0
M  V30 615 H 56.6919 0.907272 -1.11824 0
M  V30 616 H 58.6449 4.0438 -1.18552 0
M  V30 617 H 57.3689 3.25841 -0.222498 0
M  V30 618 H 56.0279 2.84324 -2.3142 0
M  V30 619 H 55.6759 4.93253 -0.985393 0
M  V30 620 H 55.3759 5.20878 -2.71955 0
M  V30 621 H 56.8999 5.77618 -1.97964 0
M  V30 622 H 58.3139 4.34328 -3.74208 0
M  V30 623 H 56.7109 4.01358 -4.4613 0
M  V30 624 H 57.7809 2.65987 -4.05436 0
M  V30 625 N 59.124 1.23083 0.984299 0
M  V30 626 C 60.072 1.00593 2.09723 0
M  V30 627 C 61.066 -0.0538014 1.69315 0
M  V30 628 O 62.272 0.0993719 1.79725 0
M  V30 629 H 58.647 0.30817 0.685956 0
M  V30 630 H 60.618 1.95012 2.2586 0
M  V30 631 C 59.367 0.609601 3.42314 0
M  V30 632 H 58.69 1.41675 3.73856 0
M  V30 633 H 60.13 0.491726 4.21139 0
M  V30 634 C 58.589 -0.681745 3.2993 0
M  V30 635 O 59.119 -1.73192 3.62446 0
M  V30 636 N 57.325 -0.656178 2.83095 0
M  V30 637 H 56.872 0.198759 2.56832 0
M  V30 638 H 56.83 -1.52044 2.75191 0
M  V30 639 N 60.6021 -1.18246 1.0419 0
M  V30 640 C 62.0131 -1.69914 0.773698 0
M  V30 641 C 62.3641 -1.83085 -0.705297 0
M  V30 642 O 61.4891 -1.51123 -1.5489 0
M  V30 643 C 62.0841 -3.08619 1.39784 0
M  V30 644 C 60.6431 -3.57494 1.17792 0
M  V30 645 C 59.7901 -2.34013 1.48773 0
M  V30 646 H 62.7411 -1.02904 1.20816 0
M  V30 647 H 62.7621 -3.71958 0.801714 0
M  V30 648 H 62.2741 -2.99001 2.47426 0
M  V30 649 H 60.3751 -3.72406 0.120295 0
M  V30 650 H 60.4881 -4.40852 1.87581 0
M  V30 651 H 58.8521 -2.37986 0.907463 0
M  V30 652 H 59.6351 -2.27013 2.57527 0
M  V30 653 N 62.0802 -0.821533 -1.34494 0
M  V30 654 C 63.3572 -0.33159 -1.92769 0
M  V30 655 C 63.7372 1.18088 -1.74981 0
M  V30 656 O 63.0852 1.98733 -1.12772 0
M  V30 657 C 63.2952 -0.759398 -3.40638 0
M  V30 658 C 64.6432 -0.757433 -4.1779 0
M  V30 659 O 65.6672 -0.70189 -3.49216 0
M  V30 660 O 64.5262 -0.829361 -5.4017 0
M  V30 661 H 61.6202 -0.0902502 -0.822061 0
M  V30 662 H 64.1662 -0.906231 -1.43477 0
M  V30 663 H 62.9382 -1.8012 -3.47379 0
M  V30 664 H 62.5612 -0.160378 -3.97276 0
M  V30 665 N 63.5583 1.46682 -0.576371 0
M  V30 666 C 64.8043 2.02712 -0.0596221 0
M  V30 667 C 65.1373 1.44765 1.29448 0
M  V30 668 O 64.4123 0.610355 1.84675 0
M  V30 669 C 64.6953 3.60098 0.0129503 0
M  V30 670 C 64.5483 4.28441 -1.3696 0
M  V30 671 C 65.8673 4.34224 0.71678 0
M  V30 672 H 62.9863 0.736637 -0.0231407 0
M  V30 673 H 65.6283 1.74898 -0.742351 0
M  V30 674 H 63.7783 3.83926 0.594378 0
M  V30 675 H 65.4503 4.15896 -1.9957 0
M  V30 676 H 63.6933 3.8805 -1.93907 0
M  V30 677 H 64.3643 5.3716 -1.27135 0
M  V30 678 H 66.8403 4.15503 0.222908 0
M  V30 679 H 65.7163 5.43936 0.73657 0
M  V30 680 H 65.9773 4.04823 1.77682 0
M  V30 681 N 65.0364 0.313813 1.54444 0
M  V30 682 C 65.9844 -0.572171 2.25453 0
M  V30 683 C 66.9784 -1.12657 1.2651 0
M  V30 684 O 68.1844 -1.07573 1.44319 0
M  V30 685 H 64.5594 -0.203146 0.724041 0
M  V30 686 H 66.5304 0.0491145 2.9836 0
M  V30 687 C 65.2794 -1.72626 3.0182 0
M  V30 688 H 64.6024 -1.30891 3.77767 0
M  V30 689 H 66.0424 -2.32199 3.54767 0
M  V30 690 C 64.5014 -2.63806 2.09542 0
M  V30 691 O 65.0314 -3.65256 1.67185 0
M  V30 692 N 63.2374 -2.31824 1.75232 0
M  V30 693 H 62.7844 -1.49368 2.09873 0
M  V30 694 H 62.7424 -2.93095 1.13767 0
M  V30 695 N 66.5145 -1.57545 0.0417849 0
M  V30 696 C 67.7605 -1.92601 -0.635021 0
M  V30 697 C 68.0935 -0.919627 -1.71045 0
M  V30 698 O 67.3685 0.0557892 -1.9442 0
M  V30 699 C 67.6515 -3.38085 -1.23979 0
M  V30 700 C 67.5045 -4.49467 -0.173057 0
M  V30 701 C 68.8235 -3.83776 -2.15416 0
M  V30 702 H 65.9425 -0.700397 -0.229374 0
M  V30 703 H 68.5845 -1.89728 0.101633 0
M  V30 704 H 66.7345 -3.40664 -1.86762 0
M  V30 705 H 68.4065 -4.59018 0.458312 0
M  V30 706 H 66.6495 -4.30909 0.499996 0
M  V30 707 H 67.3205 -5.48323 -0.636054 0
M  V30 708 H 69.7965 -3.83013 -1.62605 0
M  V30 709 H 68.6725 -4.8624 -2.54679 0
M  V30 710 H 68.9335 -3.19998 -3.05047 0
M  V30 711 N 67.9926 0.231505 -1.5589 0
M  V30 712 C 69.2396 0.957352 -1.78441 0
M  V30 713 C 69.5676 1.84726 -0.60882 0
M  V30 714 O 68.8226 1.91416 0.40725 0
M  V30 715 C 69.1216 1.83577 -3.0665 0
M  V30 716 C 68.7876 1.09993 -4.37278 0
M  V30 717 C 67.4496 0.896629 -4.72773 0
M  V30 718 C 69.8016 0.579558 -5.17968 0
M  V30 719 C 67.1296 0.160896 -5.86479 0
M  V30 720 C 69.4816 -0.142783 -6.32439 0
M  V30 721 C 68.1456 -0.357427 -6.66542 0
M  V30 722 H 67.4156 0.35032 -0.65296 0
M  V30 723 H 70.0626 0.226259 -1.90159 0
M  V30 724 H 68.3676 2.63441 -2.90011 0
M  V30 725 H 70.0646 2.39934 -3.21298 0
M  V30 726 H 66.6546 1.26835 -4.09403 0
M  V30 727 H 70.8386 0.724125 -4.90989 0
M  V30 728 H 66.0946 -0.0157293 -6.11398 0
M  V30 729 H 70.2686 -0.553559 -6.94196 0
M  V30 730 H 67.8956 -0.929466 -7.54497 0
M  V30 731 N 69.4707 1.49531 0.497807 0
M  V30 732 C 70.4027 1.62559 1.61578 0
M  V30 733 C 71.4157 0.508134 1.54667 0
M  V30 734 O 72.6047 0.780309 1.60541 0
M  V30 735 C 69.7047 1.56925 3.00379 0
M  V30 736 C 68.8777 2.84257 3.3244 0
M  V30 737 C 67.9367 2.71632 4.50669 0
M  V30 738 O 66.9627 3.4557 4.52294 0
M  V30 739 N 68.1647 1.83391 5.5077 0
M  V30 740 H 70.9297 2.58981 1.50828 0
M  V30 741 H 68.4907 1.4666 0.685743 0
M  V30 742 H 70.4827 1.46129 3.77397 0
M  V30 743 H 69.0527 0.683483 3.05037 0
M  V30 744 H 68.2727 3.09381 2.44289 0
M  V30 745 H 69.5607 3.68666 3.5066 0
M  V30 746 H 68.9587 1.22583 5.52259 0
M  V30 747 H 67.5157 1.78515 6.26878 0
M  V30 748 N 70.9488 -0.749086 1.3866 0
M  V30 749 C 72.3648 -1.05276 1.19955 0
M  V30 750 C 72.5648 -2.01435 0.05134 0
M  V30 751 O 71.6208 -2.45232 -0.60147 0
M  V30 752 C 72.9338 -1.62853 2.52783 0
M  V30 753 C 74.4818 -1.75002 2.59506 0
M  V30 754 C 74.9568 -2.35991 3.92521 0
M  V30 755 N 76.4478 -2.43416 3.94085 0
M  V30 756 C 77.1828 -2.91511 4.9377 0
M  V30 757 N 76.6788 -3.39608 6.03853 0
M  V30 758 N 78.4718 -2.90592 4.81157 0
M  V30 759 H 70.6228 -0.111066 2.12109 0
M  V30 760 H 72.8858 -0.111901 0.941373 0
M  V30 761 H 72.5918 -0.99664 3.37283 0
M  V30 762 H 72.4658 -2.61854 2.715 0
M  V30 763 H 74.8528 -2.37317 1.75398 0
M  V30 764 H 74.9338 -0.74693 2.44652 0
M  V30 765 H 74.5778 -1.74308 4.77053 0
M  V30 766 H 74.5078 -3.3695 4.04688 0
M  V30 767 H 76.9988 -2.09405 3.14576 0
M  V30 768 H 77.3118 -3.74775 6.75843 0
M  V30 769 H 75.6568 -3.37653 6.07466 0
M  V30 770 H 78.8478 -2.52332 3.94267 0
M  V30 771 H 79.0208 -3.27762 5.58996 0
M  V30 772 N 72.4269 -1.23603 -0.977757 0
M  V30 773 C 73.3739 -1.01954 -2.07061 0
M  V30 774 C 74.3439 0.0638697 -1.65977 0
M  V30 775 O 75.5289 -0.0887624 -1.90593 0
M  V30 776 C 72.6689 -0.619658 -3.39491 0
M  V30 777 C 71.7819 -1.77547 -3.93829 0
M  V30 778 C 70.9169 -1.32212 -5.14484 0
M  V30 779 C 69.9559 -2.44852 -5.60994 0
M  V30 780 N 69.0929 -2.00456 -6.72876 0
M  V30 781 H 73.9329 -1.95495 -2.24913 0
M  V30 782 H 71.4699 -0.973861 -1.10247 0
M  V30 783 H 73.4279 -0.368898 -4.15566 0
M  V30 784 H 72.0579 0.278752 -3.21594 0
M  V30 785 H 71.1099 -2.14016 -3.14486 0
M  V30 786 H 72.4219 -2.62219 -4.24314 0
M  V30 787 H 71.5759 -1.02965 -5.97899 0
M  V30 788 H 70.3149 -0.445808 -4.85658 0
M  V30 789 H 69.3199 -2.74871 -4.76157 0
M  V30 790 H 70.5449 -3.33024 -5.91837 0
M  V30 791 H 68.4909 -1.15208 -6.45804 0
M  V30 792 H 68.4079 -2.78687 -7.02759 0
M  V30 793 H 69.6759 -1.7432 -7.59758 0
M  V30 794 N 73.905 1.17692 -1.04816 0
M  V30 795 C 75.152 1.87859 -0.75599 0
M  V30 796 C 75.48 1.80812 0.716752 0
M  V30 797 O 74.735 1.20819 1.53952 0
M  V30 798 C 75.034 3.37462 -1.17703 0
M  V30 799 C 74.7 3.64713 -2.65133 0
M  V30 800 C 73.362 3.71859 -3.05408 0
M  V30 801 C 75.714 3.76492 -3.60421 0
M  V30 802 C 73.042 3.88271 -4.39843 0
M  V30 803 C 75.394 3.94421 -4.94585 0
M  V30 804 C 74.058 3.99806 -5.3452 0
M  V30 805 H 73.328 0.687425 -0.276636 0
M  V30 806 H 75.975 1.39255 -1.31455 0
M  V30 807 H 74.28 3.88097 -0.537395 0
M  V30 808 H 75.977 3.90109 -0.928218 0
M  V30 809 H 72.567 3.59772 -2.32942 0
M  V30 810 H 76.751 3.70295 -3.30447 0
M  V30 811 H 72.007 3.90687 -4.70291 0
M  V30 812 H 76.181 4.02477 -5.68318 0
M  V30 813 H 73.808 4.12276 -6.38696 0
M  V30 814 N 75.3831 0.828654 1.34056 0
M  V30 815 C 76.6291 0.42008 1.98402 0
M  V30 816 C 76.9621 -1.01564 1.65525 0
M  V30 817 O 76.2371 -1.70834 0.929831 0
M  V30 818 C 76.5201 0.62927 3.54559 0
M  V30 819 C 76.3731 2.11152 3.97159 0
M  V30 820 C 77.6921 0.0688756 4.40046 0
M  V30 821 H 74.8111 0.154104 0.720709 0
M  V30 822 H 77.4531 1.04228 1.5886 0
M  V30 823 H 75.6031 0.0996418 3.88372 0
M  V30 824 H 77.2751 2.70522 3.73651 0
M  V30 825 H 75.5181 2.59985 3.47261 0
M  V30 826 H 76.1891 2.20868 5.05887 0
M  V30 827 H 78.6651 0.521458 4.1282 0
M  V30 828 H 77.5411 0.245006 5.48353 0
M  V30 829 H 77.8021 -1.0266 4.30015 0
M  V30 830 N 76.8612 -1.46375 0.584142 0
M  V30 831 C 77.8092 -2.32042 -0.161047 0
M  V30 832 C 78.8032 -1.44569 -0.882966 0
M  V30 833 O 80.0092 -1.61186 -0.801191 0
M  V30 834 H 76.3842 -0.748659 -0.0708033 0
M  V30 835 H 78.3552 -2.92704 0.580269 0
M  V30 836 C 77.1042 -3.27762 -1.1605 0
M  V30 837 H 76.4272 -3.95051 -0.614419 0
M  V30 838 H 77.8672 -3.90481 -1.65228 0
M  V30 839 C 76.3262 -2.53218 -2.22221 0
M  V30 840 O 76.8562 -2.29628 -3.29597 0
M  V30 841 N 75.0622 -2.13756 -1.96868 0
M  V30 842 H 74.6092 -2.33142 -1.09557 0
M  V30 843 H 74.5672 -1.642 -2.68115 0
M  V30 844 N 78.3393 -0.321999 -1.54275 0
M  V30 845 C 79.2493 0.553631 -2.27974 0
M  V30 846 C 80.2653 1.13054 -1.32268 0
M  V30 847 O 81.4413 1.15084 -1.6528 0
M  V30 848 C 78.5063 1.69927 -3.02201 0
M  V30 849 C 77.5673 1.15433 -4.1349 0
M  V30 850 C 76.8003 2.24537 -4.84168 0
M  V30 851 O 77.0233 3.44852 -4.5435 0
M  V30 852 O 75.9573 1.90044 -5.7111 0
M  V30 853 H 79.7833 -0.0448345 -3.03667 0
M  V30 854 H 77.3683 -0.0877418 -1.49142 0
M  V30 855 H 79.2503 2.3663 -3.48689 0
M  V30 856 H 77.9253 2.28395 -2.29385 0
M  V30 857 H 76.8323 0.452436 -3.71354 0
M  V30 858 H 78.1653 0.614805 -4.88345 0
M  V30 859 N 79.8174 1.5752 -0.0501392 0
M  V30 860 C 81.0634 1.92936 0.624798 0
M  V30 861 C 81.3964 0.928685 1.70555 0
M  V30 862 O 80.6714 -0.0454779 1.94447 0
M  V30 863 C 80.9544 3.38737 1.22185 0
M  V30 864 C 80.8074 4.49552 0.149218 0
M  V30 865 C 82.1264 3.84913 2.13378 0
M  V30 866 H 79.2454 0.701604 0.225657 0
M  V30 867 H 81.8874 1.89671 -0.111693 0
M  V30 868 H 80.0374 3.4165 1.84953 0
M  V30 869 H 81.7094 4.58768 -0.482648 0
M  V30 870 H 79.9524 4.30638 -0.522841 0
M  V30 871 H 80.6234 5.48653 0.606966 0
M  V30 872 H 83.0994 3.8387 1.60572 0
M  V30 873 H 81.9754 4.87584 2.52097 0
M  V30 874 H 82.2364 3.21611 3.03346 0
M  V30 875 N 81.2955 -0.223234 1.56011 0
M  V30 876 C 82.7115 -0.572856 1.48965 0
M  V30 877 C 82.9115 -1.87225 0.74492 0
M  V30 878 O 81.9675 -2.50899 0.283896 0
M  V30 879 C 83.2805 -0.653646 2.9351 0
M  V30 880 C 84.8285 -0.744386 3.0402 0
M  V30 881 C 85.3035 -0.856535 4.49919 0
M  V30 882 N 86.7945 -0.9208 4.53955 0
M  V30 883 C 87.5295 -1.02726 5.64123 0
M  V30 884 N 87.0255 -1.09777 6.84047 0
M  V30 885 N 88.8185 -1.06226 5.51971 0
M  V30 886 H 80.9695 0.629462 2.02858 0
M  V30 887 H 83.2325 0.220621 0.921971 0
M  V30 888 H 82.9385 0.231518 3.50937 0
M  V30 889 H 82.8125 -1.51781 3.45315 0
M  V30 890 H 85.1995 -1.61999 2.46658 0
M  V30 891 H 85.2805 0.14541 2.55386 0
M  V30 892 H 84.9245 0.0146069 5.07898 0
M  V30 893 H 84.8545 -1.76172 4.96257 0
M  V30 894 H 87.3455 -0.876694 3.6759 0
M  V30 895 H 87.6585 -1.17872 7.63758 0
M  V30 896 H 86.0035 -1.06693 6.86762 0
M  V30 897 H 89.1945 -1.00382 4.5721 0
M  V30 898 H 89.3675 -1.14177 6.37862 0
M  V30 899 N 82.7736 -1.49793 -0.48987 0
M  V30 900 C 84.1896 -1.36803 -0.822022 0
M  V30 901 C 84.3896 -0.409652 -1.97292 0
M  V30 902 O 83.4456 0.154614 -2.52026 0
M  V30 903 C 84.7586 -2.77768 -1.15175 0
M  V30 904 C 86.3066 -2.86549 -1.25931 0
M  V30 905 C 86.7816 -4.28306 -1.62228 0
M  V30 906 N 88.2726 -4.31169 -1.69256 0
M  V30 907 C 89.0076 -5.37832 -1.98807 0
M  V30 908 N 88.5036 -6.54726 -2.26507 0
M  V30 909 N 90.2966 -5.25258 -2.00152 0
M  V30 910 H 82.4476 -2.10691 0.268881 0
M  V30 911 H 84.7106 -0.946241 0.057728 0
M  V30 912 H 84.4166 -3.49648 -0.379335 0
M  V30 913 H 84.2906 -3.13836 -2.09253 0
M  V30 914 H 86.6776 -2.14899 -2.02243 0
M  V30 915 H 86.7586 -2.54049 -0.298776 0
M  V30 916 H 86.4026 -5.00486 -0.864622 0
M  V30 917 H 86.3326 -4.58279 -2.594 0
M  V30 918 H 88.8236 -3.4687 -1.49965 0
M  V30 919 H 89.1366 -7.31833 -2.48276 0
M  V30 920 H 87.4816 -6.57933 -2.23939 0
M  V30 921 H 90.6726 -4.32938 -1.77996 0
M  V30 922 H 90.8456 -6.08476 -2.22848 0
M  V30 923 N 84.2517 0.741722 -1.39055 0
M  V30 924 C 85.4917 1.51385 -1.37338 0
M  V30 925 C 85.8557 1.91972 0.0330513 0
M  V30 926 O 87.0567 2.68229 0.175174 0
M  V30 927 C 85.3277 2.72481 -2.31276 0
M  V30 928 S 86.8867 3.62211 -2.47687 0
M  V30 929 H 83.7047 0.517906 -0.487129 0
M  V30 930 H 86.3067 0.86969 -1.7509 0
M  V30 931 H 85.0107 2.40793 -3.32336 0
M  V30 932 H 84.5417 3.41832 -1.94716 0
M  V30 933 H 86.5567 4.65812 -1.70978 0
M  V30 934 N 85.7298 1.2412 0.971189 0
M  V30 935 C 86.6398 1.04747 2.09917 0
M  V30 936 C 87.6558 -0.0107162 1.73997 0
M  V30 937 O 88.8318 0.186714 2.00533 0
M  V30 938 C 85.8968 0.650828 3.40537 0
M  V30 939 C 84.9578 1.7851 3.90426 0
M  V30 940 C 84.1908 1.40729 5.14812 0
M  V30 941 O 84.4138 0.29557 5.69634 0
M  V30 942 O 83.3478 2.23168 5.58999 0
M  V30 943 H 87.1738 1.99304 2.29154 0
M  V30 944 H 84.7588 1.02908 1.08307 0
M  V30 945 H 86.6408 0.440992 4.19086 0
M  V30 946 H 85.3158 -0.265649 3.22608 0
M  V30 947 H 84.2228 2.04966 3.12953 0
M  V30 948 H 85.5558 2.68023 4.12825 0
M  V30 949 N 87.2079 -1.17134 1.05439 0
M  V30 950 C 88.1179 -2.24878 0.668365 0
M  V30 951 C 89.1339 -1.71186 -0.311687 0
M  V30 952 O 90.3099 -2.00738 -0.163161 0
M  V30 953 C 87.3749 -3.46662 0.051648 0
M  V30 954 C 86.4359 -4.15429 1.08246 0
M  V30 955 C 85.6689 -5.31399 0.495082 0
M  V30 956 O 85.8919 -5.66153 -0.694743 0
M  V30 957 O 84.8259 -5.89187 1.23056 0
M  V30 958 H 88.6519 -2.60189 1.56637 0
M  V30 959 H 86.2369 -1.24482 0.826104 0
M  V30 960 H 88.1189 -4.20394 -0.290966 0
M  V30 961 H 86.7939 -3.13142 -0.819971 0
M  V30 962 H 85.7009 -3.43704 1.47711 0
M  V30 963 H 87.0339 -4.52982 1.92532 0
M  V30 964 N 88.686 -0.835752 -1.33615 0
M  V30 965 C 89.619 -0.211815 -2.27215 0
M  V30 966 C 90.597 0.639249 -1.49507 0
M  V30 967 O 91.781 0.600193 -1.78689 0
M  V30 968 C 88.908 0.702893 -3.31326 0
M  V30 969 C 87.954 -0.0723049 -4.26439 0
M  V30 970 S 88.787 -1.42811 -5.16106 0
M  V30 971 C 89.943 -0.518613 -6.23748 0
M  V30 972 H 90.176 -1.00533 -2.79786 0
M  V30 973 H 87.709 -0.632336 -1.40858 0
M  V30 974 H 89.667 1.22505 -3.91794 0
M  V30 975 H 88.328 1.47004 -2.77576 0
M  V30 976 H 87.521 0.62359 -5.00127 0
M  V30 977 H 87.123 -0.525424 -3.70291 0
M  V30 978 H 89.415 0.284778 -6.76901 0
M  V30 979 H 90.358 -1.22556 -6.97413 0
M  V30 980 H 90.766 -0.101344 -5.64409 0
M  V30 981 N 90.1641 1.46063 -0.591896 0
M  V30 982 C 91.4411 1.95595 -0.0137119 0
M  V30 983 C 91.8211 1.5345 1.4497 0
M  V30 984 O 91.1691 0.789543 2.14426 0
M  V30 985 C 91.3791 3.48453 -0.195373 0
M  V30 986 C 92.7271 4.24546 -0.0679765 0
M  V30 987 O 93.7511 3.55982 -0.124681 0
M  V30 988 O 92.6101 5.46467 0.0600579 0
M  V30 989 H 89.7041 0.825795 0.0446279 0
M  V30 990 H 92.2501 1.56303 -0.660859 0
M  V30 991 H 91.0221 3.72045 -1.21235 0
M  V30 992 H 90.6451 3.94597 0.487775 0
M  V30 993 N 91.6422 0.330177 1.54103 0
M  V30 994 C 93.0582 -0.0222371 1.59585 0
M  V30 995 C 93.2582 -1.49902 1.34654 0
M  V30 996 O 92.3142 -2.25592 1.13421 0
M  V30 997 C 93.6272 0.401932 2.98002 0
M  V30 998 C 95.1752 0.353145 3.11001 0
M  V30 999 C 95.6502 0.752576 4.51775 0
M  V30 1000 N 97.1412 0.706239 4.57784 0
M  V30 1001 C 97.8762 0.987417 5.64834 0
M  V30 1002 N 97.3722 1.33607 6.79795 0
M  V30 1003 N 99.1652 0.91254 5.54643 0
M  V30 1004 H 91.3162 1.29228 1.68564 0
M  V30 1005 H 93.5792 0.525906 0.78875 0
M  V30 1006 H 93.2852 1.4311 3.21267 0
M  V30 1007 H 93.1592 -0.229699 3.765 0
M  V30 1008 H 95.5462 -0.666822 2.87467 0
M  V30 1009 H 95.6272 1.0198 2.34593 0
M  V30 1010 H 95.2712 1.77049 4.76042 0
M  V30 1011 H 95.2012 0.0635409 5.26562 0
M  V30 1012 H 97.6922 0.44889 3.75224 0
M  V30 1013 H 98.0052 1.53582 7.57385 0
M  V30 1014 H 96.3502 1.37439 6.81275 0
M  V30 1015 H 99.5412 0.639601 4.6371 0
M  V30 1016 H 99.7142 1.13503 6.37982 0
M  V30 1017 N 93.1203 -1.57491 0.0584922 0
M  V30 1018 C 94.0673 -2.11958 -0.913376 0
M  V30 1019 C 95.0373 -1.02875 -1.30407 0
M  V30 1020 O 96.2223 -1.30464 -1.39226 0
M  V30 1021 C 93.3623 -2.67497 -2.18035 0
M  V30 1022 C 92.4753 -3.90691 -1.84349 0
M  V30 1023 C 91.6103 -4.3452 -3.05559 0
M  V30 1024 C 90.6493 -5.50395 -2.67827 0
M  V30 1025 N 89.7863 -5.89244 -3.81754 0
M  V30 1026 H 94.6263 -2.94704 -0.442017 0
M  V30 1027 H 92.1633 -1.45643 -0.206545 0
M  V30 1028 H 94.1213 -2.978 -2.92183 0
M  V30 1029 H 92.7513 -1.87537 -2.62735 0
M  V30 1030 H 91.8033 -3.66934 -1.00319 0
M  V30 1031 H 93.1153 -4.7489 -1.5258 0
M  V30 1032 H 92.2693 -4.66414 -3.87998 0
M  V30 1033 H 91.0083 -3.49147 -3.40511 0
M  V30 1034 H 90.0133 -5.18165 -1.83806 0
M  V30 1035 H 91.2383 -6.3749 -2.34059 0
M  V30 1036 H 89.1843 -5.06823 -4.16493 0
M  V30 1037 H 89.1013 -6.68151 -3.53708 0
M  V30 1038 H 90.3693 -6.25756 -4.64811 0
M  V30 1039 N 94.5984 0.214957 -1.56127 0
M  V30 1040 C 95.5284 1.2695 -1.95974 0
M  V30 1041 C 96.5094 1.48539 -0.828868 0
M  V30 1042 O 97.6944 1.60611 -1.09168 0
M  V30 1043 C 94.8244 2.61794 -2.28214 0
M  V30 1044 C 93.7784 2.54851 -3.43853 0
M  V30 1045 C 93.1044 3.93785 -3.61715 0
M  V30 1046 C 94.4044 2.09065 -4.78632 0
M  V30 1047 H 96.0984 0.93846 -2.84312 0
M  V30 1048 H 93.6444 0.449996 -1.36788 0
M  V30 1049 H 95.5974 3.35731 -2.54682 0
M  V30 1050 H 94.3214 2.96599 -1.36736 0
M  V30 1051 H 92.9804 1.8337 -3.17444 0
M  V30 1052 H 92.6284 4.25908 -2.67602 0
M  V30 1053 H 92.3284 3.90019 -4.39498 0
M  V30 1054 H 93.8524 4.69374 -3.90539 0
M  V30 1055 H 95.2664 2.7275 -5.04262 0
M  V30 1056 H 93.6634 2.16346 -5.59745 0
M  V30 1057 H 94.7334 1.04315 -4.73547 0
M  V30 1058 N 96.0765 1.50051 0.48192 0
M  V30 1059 C 97.4925 1.37237 0.814756 0
M  V30 1060 C 97.6925 0.420109 1.97072 0
M  V30 1061 O 96.7485 -0.141246 2.52105 0
M  V30 1062 C 98.0615 2.78375 1.13701 0
M  V30 1063 C 99.6095 2.87213 1.2441 0
M  V30 1064 C 100.084 4.29161 1.59954 0
M  V30 1065 N 101.575 4.32061 1.66967 0
M  V30 1066 C 102.31 5.38879 1.95952 0
M  V30 1067 N 101.806 6.55918 2.23031 0
M  V30 1068 N 103.599 5.26312 1.97363 0
M  V30 1069 H 95.7505 2.10546 -0.28005 0
M  V30 1070 H 98.0135 0.945921 -0.0627454 0
M  V30 1071 H 97.7195 3.49845 0.360787 0
M  V30 1072 H 97.5935 3.14941 2.07586 0
M  V30 1073 H 99.9805 2.15969 2.01101 0
M  V30 1074 H 100.061 2.54204 0.285299 0
M  V30 1075 H 99.7055 5.00938 0.838067 0
M  V30 1076 H 99.6355 4.59648 2.56966 0
M  V30 1077 H 102.126 3.47661 1.48123 0
M  V30 1078 H 102.439 7.33139 2.44391 0
M  V30 1079 H 100.784 6.59112 2.20447 0
M  V30 1080 H 103.975 4.33876 1.75697 0
M  V30 1081 H 104.148 6.09649 2.19618 0
M  V30 1082 N 97.5546 -0.734337 1.39446 0
M  V30 1083 C 98.8016 -1.49391 1.36706 0
M  V30 1084 C 99.1296 -1.94465 -0.0367813 0
M  V30 1085 O 98.3846 -1.67154 -1.01774 0
M  V30 1086 C 98.6836 -2.74711 2.28623 0
M  V30 1087 C 98.3496 -2.48501 3.76242 0
M  V30 1088 C 97.0116 -2.41062 4.16464 0
M  V30 1089 C 99.3636 -2.26098 4.69606 0
M  V30 1090 C 96.6916 -2.09262 5.48112 0
M  V30 1091 C 99.0436 -1.95814 6.01531 0
M  V30 1092 C 97.7076 -1.86845 6.40816 0
M  V30 1093 H 96.9776 -0.546661 0.500243 0
M  V30 1094 H 99.6246 -0.842788 1.71957 0
M  V30 1095 H 97.9296 -3.44569 1.86492 0
M  V30 1096 H 99.6266 -3.32741 2.23796 0
M  V30 1097 H 96.2166 -2.55169 3.44364 0
M  V30 1098 H 100.401 -2.30812 4.39363 0
M  V30 1099 H 95.6566 -2.00841 5.77471 0
M  V30 1100 H 99.8306 -1.77488 6.73403 0
M  V30 1101 H 97.4576 -1.6197 7.42745 0
M  V30 1102 N 99.0327 -1.24633 -0.964593 0
M  V30 1103 C 100.279 -1.08949 -1.71049 0
M  V30 1104 C 100.612 0.370302 -1.90637 0
M  V30 1105 O 99.8867 1.27349 -1.47011 0
M  V30 1106 C 100.17 -1.83329 -3.0994 0
M  V30 1107 C 100.023 -3.37077 -2.97824 0
M  V30 1108 C 101.342 -1.60846 -4.09654 0
M  V30 1109 H 98.4607 -0.397178 -0.620821 0
M  V30 1110 H 101.103 -1.5334 -1.12191 0
M  V30 1111 H 99.2527 -1.45597 -3.60186 0
M  V30 1112 H 100.925 -3.84425 -2.5498 0
M  V30 1113 H 99.1677 -3.65298 -2.33965 0
M  V30 1114 H 99.8387 -3.84324 -3.96231 0
M  V30 1115 H 102.315 -1.93674 -3.68279 0
M  V30 1116 H 101.191 -2.1534 -5.04896 0
M  V30 1117 H 101.452 -0.547434 -4.38698 0
M  V30 1118 N 100.511 1.16574 -1.06058 0
M  V30 1119 C 101.421 2.2452 -0.680282 0
M  V30 1120 C 102.437 1.71348 0.302604 0
M  V30 1121 O 103.613 2.00822 0.152513 0
M  V30 1122 C 100.678 3.46629 -0.0700315 0
M  V30 1123 C 99.7388 4.14849 -1.10448 0
M  V30 1124 C 98.9718 5.31129 -0.523256 0
M  V30 1125 O 99.1948 5.66514 0.664709 0
M  V30 1126 O 98.1288 5.88526 -1.26179 0
M  V30 1127 H 101.955 2.59355 -1.58015 0
M  V30 1128 H 99.5398 1.24043 -0.832694 0
M  V30 1129 H 101.422 4.20543 0.268667 0
M  V30 1130 H 100.097 3.13573 0.803353 0
M  V30 1131 H 99.0038 3.42916 -1.49532 0
M  V30 1132 H 100.337 4.51954 -1.94931 0
M  V30 1133 N 101.989 0.842826 1.3317 0
M  V30 1134 C 102.936 0.276885 2.29133 0
M  V30 1135 C 103.906 -0.609527 1.54512 0
M  V30 1136 O 105.091 -0.546955 1.82792 0
M  V30 1137 C 102.231 -0.538707 3.40869 0
M  V30 1138 C 101.344 0.372169 4.30394 0
M  V30 1139 C 100.479 -0.454908 5.29249 0
M  V30 1140 C 99.5179 0.45411 6.10413 0
M  V30 1141 N 98.6549 -0.335075 7.013 0
M  V30 1142 H 103.495 1.10052 2.76934 0
M  V30 1143 H 101.032 0.554161 1.36262 0
M  V30 1144 H 102.99 -1.02709 4.0436 0
M  V30 1145 H 101.62 -1.32727 2.9425 0
M  V30 1146 H 100.672 0.97888 3.6759 0
M  V30 1147 H 101.984 1.0703 4.87182 0
M  V30 1148 H 101.138 -1.00695 5.98285 0
M  V30 1149 H 99.8769 -1.18646 4.73048 0
M  V30 1150 H 98.8819 1.01813 5.40291 0
M  V30 1151 H 100.107 1.18409 6.68697 0
M  V30 1152 H 98.0529 -1.04994 6.47543 0
M  V30 1153 H 97.9699 0.304262 7.55387 0
M  V30 1154 H 99.2379 -0.869224 7.74638 0
M  V30 1155 N 103.467 -1.45747 0.599634 0
M  V30 1156 C 104.377 -2.34262 -0.125888 0
M  V30 1157 C 105.393 -1.50768 -0.868625 0
M  V30 1158 O 106.569 -1.83592 -0.828003 0
M  V30 1159 C 103.634 -3.28252 -1.11587 0
M  V30 1160 C 102.695 -4.27651 -0.375956 0
M  V30 1161 C 101.928 -5.1715 -1.31877 0
M  V30 1162 O 102.151 -5.09916 -2.55621 0
M  V30 1163 O 101.085 -5.96286 -0.820157 0
M  V30 1164 H 104.911 -2.97688 0.601315 0
M  V30 1165 H 102.496 -1.44999 0.359934 0
M  V30 1166 H 104.378 -3.86191 -1.68626 0
M  V30 1167 H 103.053 -2.67401 -1.82424 0
M  V30 1168 H 101.96 -3.7335 0.236698 0
M  V30 1169 H 103.293 -4.91334 0.29177 0
M  V30 1170 N 104.945 -0.338344 -1.53925 0
M  V30 1171 C 106.194 0.260732 -2.00008 0
M  V30 1172 C 106.507 1.52073 -1.23017 0
M  V30 1173 O 107.713 2.19672 -1.5955 0
M  V30 1174 C 106.169 0.51515 -3.56194 0
M  V30 1175 C 105.777 -0.728645 -4.42035 0
M  V30 1176 C 107.521 1.07337 -4.10706 0
M  V30 1177 C 105.428 -0.445315 -5.89721 0
M  V30 1178 H 104.358 0.101205 -0.747177 0
M  V30 1179 H 107.009 -0.452866 -1.77824 0
M  V30 1180 H 105.391 1.28932 -3.74423 0
M  V30 1181 H 106.565 -1.50352 -4.35581 0
M  V30 1182 H 104.88 -1.20813 -3.98489 0
M  V30 1183 H 107.477 1.30022 -5.18651 0
M  V30 1184 H 107.82 2.0273 -3.63602 0
M  V30 1185 H 108.353 0.360034 -3.96167 0
M  V30 1186 H 105.092 -1.36883 -6.41049 0
M  V30 1187 H 104.612 0.291569 -5.99091 0
M  V30 1188 H 106.291 -0.0606218 -6.46972 0
M  V30 1189 N 106.423 1.57458 -0.0668435 0
M  V30 1190 C 107.839 1.56947 0.289772 0
M  V30 1191 C 108.039 1.07584 1.70376 0
M  V30 1192 O 107.095 0.739486 2.41429 0
M  V30 1193 C 108.408 3.0052 0.103943 0
M  V30 1194 C 109.956 3.12517 0.173857 0
M  V30 1195 C 110.431 4.57997 0.0163682 0
M  V30 1196 N 111.922 4.63144 0.0721352 0
M  V30 1197 C 112.657 5.73394 -0.0253794 0
M  V30 1198 N 112.153 6.92576 -0.176133 0
M  V30 1199 N 113.946 5.62091 0.0313305 0
M  V30 1200 H 106.097 1.87863 -0.991027 0
M  V30 1201 H 108.36 0.86583 -0.38606 0
M  V30 1202 H 108.066 3.40729 -0.871572 0
M  V30 1203 H 107.94 3.67304 0.858366 0
M  V30 1204 H 110.327 2.72197 1.13985 0
M  V30 1205 H 110.408 2.48381 -0.611586 0
M  V30 1206 H 110.052 4.99005 -0.946374 0
M  V30 1207 H 109.982 5.20158 0.821153 0
M  V30 1208 H 112.473 3.77436 0.187263 0
M  V30 1209 H 112.786 7.72418 -0.242821 0
M  V30 1210 H 111.131 6.94678 -0.211429 0
M  V30 1211 H 114.322 4.67867 0.147773 0
M  V30 1212 H 114.495 6.47982 -0.048121 0
M  V30 1213 N 107.901 -0.206675 1.56239 0
M  V30 1214 C 108.848 -1.25617 1.93621 0
M  V30 1215 C 109.818 -1.45824 0.795274 0
M  V30 1216 O 111.003 -1.59148 1.05245 0
M  V30 1217 C 108.143 -2.59839 2.27107 0
M  V30 1218 C 107.256 -2.47308 3.54207 0
M  V30 1219 C 106.391 -3.74155 3.7707 0
M  V30 1220 C 105.43 -3.56407 4.97635 0
M  V30 1221 N 104.567 -4.75238 5.1681 0
M  V30 1222 H 109.407 -0.930383 2.83104 0
M  V30 1223 H 106.944 -0.448065 1.4011 0
M  V30 1224 H 108.902 -3.38021 2.44535 0
M  V30 1225 H 107.532 -2.90485 1.40778 0
M  V30 1226 H 106.584 -1.60483 3.4489 0
M  V30 1227 H 107.896 -2.30122 4.42544 0
M  V30 1228 H 107.05 -4.60778 3.94675 0
M  V30 1229 H 105.789 -3.94282 2.87042 0
M  V30 1230 H 104.794 -2.68168 4.79964 0
M  V30 1231 H 106.019 -3.37736 5.89161 0
M  V30 1232 H 103.965 -4.95651 4.29728 0
M  V30 1233 H 103.882 -4.60835 5.99306 0
M  V30 1234 H 105.15 -5.63246 5.38864 0
M  V30 1235 N 109.379 -1.50304 -0.473955 0
M  V30 1236 C 110.342 -1.6841 -1.55469 0
M  V30 1237 C 111.342 -0.554905 -1.50922 0
M  V30 1238 O 112.532 -0.821882 -1.53593 0
M  V30 1239 C 109.664 -1.70667 -2.95102 0
M  V30 1240 H 110.857 -2.64828 -1.40733 0
M  V30 1241 H 108.41 -1.39742 -0.700132 0
M  V30 1242 H 109.145 -0.75932 -3.15285 0
M  V30 1243 H 108.93 -2.52698 -2.9981 0
M  V30 1244 H 110.42 -1.8664 -3.73571 0
M  V30 1245 N 110.857 0.726932 -1.39834 0
M  V30 1246 C 111.805 1.86235 -1.39353 0
M  V30 1247 C 112.799 1.67144 -0.275555 0
M  V30 1248 O 114.005 1.74387 -0.44601 0
M  V30 1249 H 110.38 0.613174 -0.43534 0
M  V30 1250 H 112.351 1.83756 -2.35109 0
M  V30 1251 C 111.1 3.23995 -1.26185 0
M  V30 1252 H 110.423 3.39285 -2.11484 0
M  V30 1253 H 111.863 4.03609 -1.29907 0
M  V30 1254 C 110.322 3.36888 0.0290018 0
M  V30 1255 O 110.852 3.89152 0.99619 0
M  V30 1256 N 109.058 2.90446 0.0947437 0
M  V30 1257 H 108.605 2.48102 -0.693035 0
M  V30 1258 H 108.563 2.99451 0.957932 0
M  V30 1259 N 112.336 1.25143 0.95797 0
M  V30 1260 C 113.585 1.0909 1.69654 0
M  V30 1261 C 113.898 -0.368548 1.92097 0
M  V30 1262 O 115.104 -0.649455 2.63618 0
M  V30 1263 C 113.56 1.90395 3.05414 0
M  V30 1264 C 113.168 3.4081 2.90779 0
M  V30 1265 C 114.912 1.82901 3.83076 0
M  V30 1266 C 112.819 4.14423 4.21909 0
M  V30 1267 H 111.749 0.404625 0.636235 0
M  V30 1268 H 114.4 1.4931 1.06672 0
M  V30 1269 H 112.782 1.42996 3.69281 0
M  V30 1270 H 113.956 3.95859 2.35865 0
M  V30 1271 H 112.271 3.49361 2.26575 0
M  V30 1272 H 114.868 2.35196 4.80195 0
M  V30 1273 H 115.211 0.796224 4.08615 0
M  V30 1274 H 115.744 2.28033 3.25954 0
M  V30 1275 H 112.483 5.18102 4.01561 0
M  V30 1276 H 112.003 3.64159 4.76601 0
M  V30 1277 H 113.682 4.21956 4.90471 0
M  V30 1278 N 113.814 -1.1601 1.06675 0
M  V30 1279 C 115.225 -1.68235 0.809565 0
M  V30 1280 C 115.576 -1.8454 -0.666303 0
M  V30 1281 O 114.701 -1.54374 -1.5165 0
M  V30 1282 C 115.296 -3.05585 1.46299 0
M  V30 1283 C 113.855 -3.54915 1.25349 0
M  V30 1284 C 113.002 -2.30804 1.53703 0
M  V30 1285 H 115.953 -1.00318 1.22971 0
M  V30 1286 H 115.974 -3.70174 0.880431 0
M  V30 1287 H 115.486 -2.93686 2.53713 0
M  V30 1288 H 113.587 -3.72067 0.199261 0
M  V30 1289 H 113.7 -4.36774 1.9689 0
M  V30 1290 H 112.064 -2.36007 0.957739 0
M  V30 1291 H 112.847 -2.21499 2.62284 0
M  V30 1292 N 115.292 -0.849877 -1.32721 0
M  V30 1293 C 116.541 -0.447175 -1.96681 0
M  V30 1294 C 116.854 1.00135 -1.68025 0
M  V30 1295 O 118.06 1.50926 -2.25685 0
M  V30 1296 C 116.516 -0.7487 -3.52026 0
M  V30 1297 C 116.124 -2.21264 -3.89546 0
M  V30 1298 C 117.868 -0.413487 -4.22481 0
M  V30 1299 C 115.775 -2.45763 -5.37917 0
M  V30 1300 H 114.705 -0.163486 -0.736063 0
M  V30 1301 H 117.356 -1.03999 -1.51183 0
M  V30 1302 H 115.738 -0.0853727 -3.95908 0
M  V30 1303 H 116.912 -2.91736 -3.56689 0
M  V30 1304 H 115.227 -2.5119 -3.32103 0
M  V30 1305 H 117.824 -0.574017 -5.3161 0
M  V30 1306 H 118.167 0.644492 -4.11281 0
M  V30 1307 H 118.7 -1.03251 -3.84167 0
M  V30 1308 H 115.439 -3.50168 -5.54132 0
M  V30 1309 H 114.959 -1.79864 -5.72197 0
M  V30 1310 H 116.638 -2.29471 -6.0494 0
M  V30 1311 N 116.77 1.45427 -0.607355 0
M  V30 1312 C 117.703 2.27635 0.160482 0
M  V30 1313 C 118.681 1.37122 0.873857 0
M  V30 1314 O 119.865 1.66551 0.882775 0
M  V30 1315 C 116.992 3.15486 1.23231 0
M  V30 1316 C 116.038 4.21939 0.622097 0
M  V30 1317 S 116.871 5.32459 -0.569852 0
M  V30 1318 C 118.027 6.23879 0.502577 0
M  V30 1319 H 118.26 2.9241 -0.536983 0
M  V30 1320 H 115.793 1.49265 -0.394868 0
M  V30 1321 H 117.751 3.66659 1.84585 0
M  V30 1322 H 116.412 2.49977 1.90185 0
M  V30 1323 H 115.605 4.8333 1.42856 0
M  V30 1324 H 115.207 3.73906 0.0837063 0
M  V30 1325 H 117.499 6.63261 1.38171 0
M  V30 1326 H 118.442 7.0806 -0.0751759 0
M  V30 1327 H 118.85 5.58545 0.8178 0
M  V30 1328 N 118.248 0.346503 1.53744 0
M  V30 1329 C 119.525 -0.304532 1.93215 0
M  V30 1330 C 119.905 -1.67993 1.27834 0
M  V30 1331 O 119.253 -2.24411 0.430352 0
M  V30 1332 C 119.463 -0.373852 3.46992 0
M  V30 1333 C 120.811 -0.62329 4.2 0
M  V30 1334 O 121.835 -0.455847 3.53271 0
M  V30 1335 O 120.694 -0.947879 5.38217 0
M  V30 1336 H 117.788 -0.178318 0.807547 0
M  V30 1337 H 120.334 0.397895 1.64969 0
M  V30 1338 H 119.106 0.591224 3.86808 0
M  V30 1339 H 118.729 -1.12294 3.81413 0
M  V30 1340 N 119.726 -1.57421 0.075193 0
M  V30 1341 C 120.954 -1.97946 -0.602076 0
M  V30 1342 C 121.369 -0.953674 -1.62943 0
M  V30 1343 O 120.726 0.0592551 -1.82404 0
M  V30 1344 C 120.777 -3.38546 -1.26762 0
M  V30 1345 O 120.498 -4.37195 -0.281376 0
M  V30 1346 C 121.999 -3.93966 -2.03239 0
M  V30 1347 H 119.219 -0.650918 -0.162931 0
M  V30 1348 H 121.763 -2.03959 0.148601 0
M  V30 1349 H 119.918 -3.33609 -1.96936 0
M  V30 1350 H 120.332 -5.18975 -0.759267 0
M  V30 1351 H 121.806 -4.94555 -2.45193 0
M  V30 1352 H 122.283 -3.30693 -2.8903 0
M  V30 1353 H 122.889 -4.02315 -1.37924 0
M  V30 1354 N 121.204 0.198386 -1.56346 0
M  V30 1355 C 122.452 0.91747 -1.80075 0
M  V30 1356 C 122.773 1.83929 -0.647692 0
M  V30 1357 O 122.043 1.93029 0.334166 0
M  V30 1358 H 120.623 0.341774 -0.664228 0
M  V30 1359 H 123.285 0.204684 -1.93822 0
M  V30 1360 H 122.381 1.51055 -2.7311 0
M  V30 1361 N 122.682 1.50554 0.465978 0
M  V30 1362 C 123.592 1.72585 1.58907 0
M  V30 1363 C 124.608 0.60911 1.6299 0
M  V30 1364 O 125.784 0.88804 1.80765 0
M  V30 1365 C 122.849 1.81995 2.95091 0
M  V30 1366 C 121.91 3.05751 3.01355 0
M  V30 1367 C 121.143 3.14702 4.31043 0
M  V30 1368 O 121.366 2.30313 5.21835 0
M  V30 1369 O 120.3 4.07468 4.43005 0
M  V30 1370 H 124.126 2.67799 1.43239 0
M  V30 1371 H 121.711 1.34711 0.646013 0
M  V30 1372 H 123.593 1.90335 3.75966 0
M  V30 1373 H 122.268 0.899659 3.10947 0
M  V30 1374 H 121.175 3.02908 2.19539 0
M  V30 1375 H 122.508 3.97375 2.90437 0
M  V30 1376 N 124.16 -0.719506 1.40217 0
M  V30 1377 C 125.108 -1.85493 1.40339 0
M  V30 1378 C 126.102 -1.66995 0.284415 0
M  V30 1379 O 127.308 -1.74148 0.455252 0
M  V30 1380 H 123.683 -0.610857 0.438586 0
M  V30 1381 H 125.654 -1.82506 2.36081 0
M  V30 1382 C 124.403 -3.23321 1.27901 0
M  V30 1383 H 123.726 -3.38159 2.1328 0
M  V30 1384 H 125.166 -4.02914 1.32045 0
M  V30 1385 C 123.625 -3.36898 -0.0111355 0
M  V30 1386 O 124.155 -3.89674 -0.975538 0
M  V30 1387 N 122.361 -2.90492 -0.0793393 0
M  V30 1388 H 121.908 -2.47731 0.706183 0
M  V30 1389 H 121.866 -2.99955 -0.942038 0
M  V30 1390 N 125.638 -1.25649 -0.95132 0
M  V30 1391 C 127.049 -1.09654 -1.51106 0
M  V30 1392 C 127.4 0.326615 -1.93462 0
M  V30 1393 O 126.525 1.21697 -1.78938 0
M  V30 1394 C 127.12 -1.98437 -2.74605 0
M  V30 1395 C 125.679 -1.86618 -3.2688 0
M  V30 1396 C 124.826 -1.9239 -1.99703 0
M  V30 1397 H 127.777 -1.38887 -0.767865 0
M  V30 1398 H 127.798 -1.5263 -3.48546 0
M  V30 1399 H 127.31 -3.02009 -2.43746 0
M  V30 1400 H 125.411 -0.859421 -3.62553 0
M  V30 1401 H 125.524 -2.71607 -3.94673 0
M  V30 1402 H 123.888 -1.36317 -2.15151 0
M  V30 1403 H 124.671 -2.97573 -1.71188 0
M  V30 1404 N 127.117 1.15442 -1.07289 0
M  V30 1405 C 128.027 2.23786 -0.704057 0
M  V30 1406 C 129.043 1.7166 0.284413 0
M  V30 1407 O 130.219 2.00972 0.131205 0
M  V30 1408 C 127.284 3.46535 -0.106792 0
M  V30 1409 C 126.345 4.13654 -1.14842 0
M  V30 1410 C 125.578 5.30544 -0.57956 0
M  V30 1411 O 125.801 5.67187 0.604585 0
M  V30 1412 O 124.735 5.87154 -1.32414 0
M  V30 1413 H 128.561 2.57664 -1.60757 0
M  V30 1414 H 126.146 1.23152 -0.845803 0
M  V30 1415 H 128.028 4.20804 0.224048 0
M  V30 1416 H 126.703 3.14407 0.770049 0
M  V30 1417 H 125.61 3.4131 -1.5316 0
M  V30 1418 H 126.943 4.49861 -1.99714 0
M  V30 1419 N 128.595 0.856903 1.32268 0
M  V30 1420 C 129.841 0.462069 1.97466 0
M  V30 1421 C 130.174 -0.980298 1.67642 0
M  V30 1422 O 129.449 -1.68824 0.965858 0
M  V30 1423 C 129.732 0.704336 3.53145 0
M  V30 1424 C 129.585 2.19529 3.9259 0
M  V30 1425 C 130.904 0.1622 4.39801 0
M  V30 1426 H 128.023 0.169357 0.717278 0
M  V30 1427 H 130.665 1.07574 1.56614 0
M  V30 1428 H 128.815 0.181999 3.88073 0
M  V30 1429 H 130.487 2.78387 3.67829 0
M  V30 1430 H 128.73 2.67292 3.41668 0
M  V30 1431 H 129.401 2.31549 5.01088 0
M  V30 1432 H 131.877 0.608905 4.11621 0
M  V30 1433 H 130.753 0.361265 5.4771 0
M  V30 1434 H 131.014 -0.935158 4.32096 0
M  V30 1435 N 130.073 -1.45103 0.615059 0
M  V30 1436 C 131.484 -1.85654 0.197383 0
M  V30 1437 C 131.835 -1.51433 -1.24749 0
M  V30 1438 O 130.96 -0.944608 -1.94695 0
M  V30 1439 C 131.555 -3.36972 0.351448 0
M  V30 1440 C 130.114 -3.76398 -0.011593 0
M  V30 1441 C 129.261 -2.69024 0.672394 0
M  V30 1442 H 132.212 -1.35797 0.821263 0
M  V30 1443 H 132.233 -3.78239 -0.414227 0
M  V30 1444 H 131.745 -3.61847 1.40314 0
M  V30 1445 H 129.846 -3.5714 -1.06217 0
M  V30 1446 H 129.959 -4.77532 0.387265 0
M  V30 1447 H 128.323 -2.54465 0.109284 0
M  V30 1448 H 129.106 -2.96735 1.72636 0
M  V30 1449 N 131.551 -0.354651 -1.53558 0
M  V30 1450 C 132.798 0.238443 -2.01091 0
M  V30 1451 C 133.126 1.49663 -1.24222 0
M  V30 1452 O 132.381 1.93049 -0.321003 0
M  V30 1453 C 132.68 0.587121 -3.52545 0
M  V30 1454 C 132.346 -0.575472 -4.47213 0
M  V30 1455 C 131.008 -0.894497 -4.72813 0
M  V30 1456 C 133.36 -1.35489 -5.03281 0
M  V30 1457 C 130.688 -1.99511 -5.51736 0
M  V30 1458 C 133.04 -2.44583 -5.83405 0
M  V30 1459 C 131.704 -2.77033 -6.07296 0
M  V30 1460 H 130.974 0.0872526 -0.735845 0
M  V30 1461 H 133.621 -0.484859 -1.8526 0
M  V30 1462 H 131.926 1.39129 -3.66265 0
M  V30 1463 H 133.623 1.05809 -3.86789 0
M  V30 1464 H 130.213 -0.316774 -4.27428 0
M  V30 1465 H 134.397 -1.12167 -4.83459 0
M  V30 1466 H 129.653 -2.25063 -5.68469 0
M  V30 1467 H 133.827 -3.05401 -6.25862 0
M  V30 1468 H 131.454 -3.6244 -6.68237 0
M  V30 1469 N 133.029 1.57378 -0.0835403 0
M  V30 1470 C 134.44 1.81261 0.447358 0
M  V30 1471 C 134.791 0.998331 1.68902 0
M  V30 1472 O 133.916 0.224282 2.15235 0
M  V30 1473 C 134.511 3.28767 0.818386 0
M  V30 1474 C 133.07 3.53455 1.29409 0
M  V30 1475 C 132.217 2.75831 0.285024 0
M  V30 1476 H 135.168 1.5566 -0.309115 0
M  V30 1477 H 135.189 3.41459 1.67887 0
M  V30 1478 H 134.701 3.88006 -0.0855019 0
M  V30 1479 H 132.802 2.99534 2.21608 0
M  V30 1480 H 132.915 4.62128 1.2639 0
M  V30 1481 H 131.279 2.42947 0.764767 0
M  V30 1482 H 132.062 3.37813 -0.611341 0
M  V30 1483 N 134.507 -0.190092 1.56449 0
M  V30 1484 C 135.923 -0.54113 1.50146 0
M  V30 1485 C 136.123 -1.85603 0.784465 0
M  V30 1486 O 135.179 -2.5024 0.337051 0
M  V30 1487 C 136.492 -0.591241 2.9483 0
M  V30 1488 C 138.04 -0.679732 3.0553 0
M  V30 1489 C 138.515 -0.760908 4.51635 0
M  V30 1490 N 140.006 -0.824302 4.55806 0
M  V30 1491 C 140.741 -0.907365 5.66175 0
M  V30 1492 N 140.237 -0.952422 6.86222 0
M  V30 1493 N 142.03 -0.94494 5.541 0
M  V30 1494 H 134.181 0.67235 2.01478 0
M  V30 1495 H 136.444 0.240127 0.917084 0
M  V30 1496 H 136.15 0.305905 3.50367 0
M  V30 1497 H 136.024 -1.44422 3.48457 0
M  V30 1498 H 138.411 -1.56731 2.50039 0
M  V30 1499 H 138.492 0.199549 2.5502 0
M  V30 1500 H 138.136 0.122336 5.07753 0
M  V30 1501 H 138.066 -1.65606 4.99882 0
M  V30 1502 H 140.557 -0.798526 3.69367 0
M  V30 1503 H 140.87 -1.01645 7.66086 0
M  V30 1504 H 139.215 -0.921014 6.8887 0
M  V30 1505 H 142.406 -0.906612 4.59236 0
M  V30 1506 H 142.579 -1.00622 6.4014 0
M  V30 1507 N 135.985 -1.50799 -0.457987 0
M  V30 1508 C 137.262 -1.52968 -1.21902 0
M  V30 1509 C 137.642 -0.281906 -2.09209 0
M  V30 1510 O 136.99 0.734076 -2.16388 0
M  V30 1511 C 137.2 -2.8326 -2.03875 0
M  V30 1512 C 138.548 -3.34425 -2.6162 0
M  V30 1513 O 139.572 -2.8467 -2.14106 0
M  V30 1514 O 138.431 -4.21188 -3.48228 0
M  V30 1515 H 135.525 -0.614129 -0.553873 0
M  V30 1516 H 138.071 -1.63098 -0.468739 0
M  V30 1517 H 136.843 -3.65543 -1.39621 0
M  V30 1518 H 136.466 -2.76195 -2.8601 0
M  V30 1519 N 137.463 0.71206 -1.40597 0
M  V30 1520 C 138.396 1.83582 -1.35546 0
M  V30 1521 C 139.374 1.61032 -0.225284 0
M  V30 1522 O 140.558 1.83998 -0.409519 0
M  V30 1523 C 137.685 3.19983 -1.11034 0
M  V30 1524 C 136.731 3.61355 -2.2655 0
M  V30 1525 S 137.564 3.68062 -3.88961 0
M  V30 1526 C 138.72 5.07216 -3.66719 0
M  V30 1527 H 138.953 1.87586 -2.30648 0
M  V30 1528 H 136.486 0.879182 -1.26924 0
M  V30 1529 H 138.444 3.98734 -0.975761 0
M  V30 1530 H 137.105 3.13608 -0.175798 0
M  V30 1531 H 136.298 4.60403 -2.0505 0
M  V30 1532 H 135.9 2.8987 -2.36329 0
M  V30 1533 H 138.192 5.94238 -3.25404 0
M  V30 1534 H 139.135 5.33753 -4.6531 0
M  V30 1535 H 139.543 4.77976 -3.00332 0
M  V30 1536 N 138.941 1.26152 0.944643 0
M  V30 1537 C 140.19 1.10883 1.68487 0
M  V30 1538 C 140.503 -0.348153 1.92477 0
M  V30 1539 O 141.709 -0.621459 2.64292 0
M  V30 1540 C 140.165 1.93624 3.03377 0
M  V30 1541 C 139.773 3.43875 2.87148 0
M  V30 1542 C 141.517 1.86954 3.81115 0
M  V30 1543 C 139.424 4.18875 4.1749 0
M  V30 1544 H 138.354 0.41135 0.631907 0
M  V30 1545 H 141.005 1.50433 1.05082 0
M  V30 1546 H 139.387 1.46904 3.67743 0
M  V30 1547 H 140.561 3.98338 2.31653 0
M  V30 1548 H 138.876 3.51744 2.22856 0
M  V30 1549 H 141.473 2.40275 4.77673 0
M  V30 1550 H 141.816 0.839518 4.07747 0
M  V30 1551 H 142.349 2.31477 3.23517 0
M  V30 1552 H 139.088 5.22332 3.96043 0
M  V30 1553 H 138.608 3.69193 4.72712 0
M  V30 1554 H 140.287 4.27134 4.85968 0
M  V30 1555 N 140.419 -1.14872 1.07899 0
M  V30 1556 C 141.696 -1.81928 0.71845 0
M  V30 1557 C 142.076 -1.95417 -0.798455 0
M  V30 1558 O 141.424 -1.50997 -1.715 0
M  V30 1559 C 141.634 -3.17937 1.43935 0
M  V30 1560 C 142.982 -3.93501 1.59506 0
M  V30 1561 O 144.006 -3.27509 1.40058 0
M  V30 1562 O 142.865 -5.1183 1.91551 0
M  V30 1563 H 139.959 -0.78628 0.256305 0
M  V30 1564 H 142.505 -1.21934 1.18026 0
M  V30 1565 H 141.277 -3.0325 2.47295 0
M  V30 1566 H 140.9 -3.85619 0.968687 0
M  V30 1567 N 141.898 -0.863906 -1.31812 0
M  V30 1568 C 142.828 -0.330843 -2.31144 0
M  V30 1569 C 143.809 0.575005 -1.60087 0
M  V30 1570 O 144.994 0.493304 -1.8783 0
M  V30 1571 C 142.124 0.47374 -3.44054 0
M  V30 1572 C 141.078 -0.338481 -4.26659 0
M  V30 1573 C 140.404 0.591412 -5.31419 0
M  V30 1574 C 141.704 -1.56926 -4.98168 0
M  V30 1575 H 143.398 -1.16086 -2.75979 0
M  V30 1576 H 140.944 -0.559657 -1.32679 0
M  V30 1577 H 142.897 0.857143 -4.12591 0
M  V30 1578 H 141.621 1.33721 -2.9797 0
M  V30 1579 H 140.28 -0.703754 -3.59782 0
M  V30 1580 H 139.928 1.45199 -4.81587 0
M  V30 1581 H 139.628 0.0519022 -5.87577 0
M  V30 1582 H 141.152 0.97179 -6.02817 0
M  V30 1583 H 142.566 -1.25764 -5.59336 0
M  V30 1584 H 140.963 -2.04739 -5.64094 0
M  V30 1585 H 142.033 -2.32544 -4.25501 0
M  V30 1586 N 143.376 1.44774 -0.622745 0
M  V30 1587 C 144.286 2.34433 0.0886031 0
M  V30 1588 C 145.302 1.52131 0.844529 0
M  V30 1589 O 146.478 1.84886 0.798691 0
M  V30 1590 C 143.543 3.29986 1.0635 0
M  V30 1591 C 142.604 4.28195 0.307873 0
M  V30 1592 C 141.837 5.19183 1.23633 0
M  V30 1593 O 142.06 5.13918 2.47476 0
M  V30 1594 O 140.994 5.97515 0.725189 0
M  V30 1595 H 144.82 2.96693 -0.648599 0
M  V30 1596 H 142.405 1.44408 -0.382957 0
M  V30 1597 H 144.287 3.88825 1.6246 0
M  V30 1598 H 142.962 2.70269 1.78146 0
M  V30 1599 H 141.869 3.72927 -0.296064 0
M  V30 1600 H 143.202 4.90808 -0.3699 0
M  V30 1601 N 144.854 0.36279 1.53368 0
M  V30 1602 C 145.817 -0.472679 2.24273 0
M  V30 1603 C 146.817 -1.012 1.24961 0
M  V30 1604 O 148.007 -0.898194 1.49259 0
M  V30 1605 C 145.139 -1.66039 2.97731 0
M  V30 1606 H 146.332 0.14773 2.99536 0
M  V30 1607 H 143.885 0.114434 1.55881 0
M  V30 1608 H 144.62 -2.31896 2.26704 0
M  V30 1609 H 144.405 -1.28066 3.70596 0
M  V30 1610 H 145.895 -2.25252 3.51641 0
M  V30 1611 N 146.332 -1.57332 0.0918853 0
M  V30 1612 C 147.28 -2.15075 -0.885747 0
M  V30 1613 C 148.274 -1.09277 -1.29441 0
M  V30 1614 O 149.48 -1.27627 -1.26931 0
M  V30 1615 H 145.855 -0.687966 -0.303656 0
M  V30 1616 H 147.826 -2.96047 -0.373995 0
M  V30 1617 C 146.575 -2.74325 -2.13638 0
M  V30 1618 H 145.898 -3.55418 -1.8308 0
M  V30 1619 H 147.338 -3.183 -2.80109 0
M  V30 1620 C 145.797 -1.70062 -2.90827 0
M  V30 1621 O 146.327 -1.13763 -3.85254 0
M  V30 1622 N 144.533 -1.40628 -2.54307 0
M  V30 1623 H 144.08 -1.866 -1.7759 0
M  V30 1624 H 144.038 -0.711043 -3.06254 0
M  V30 1625 N 147.81 0.181792 -1.56548 0
M  V30 1626 C 149.057 0.900097 -1.81396 0
M  V30 1627 C 149.385 1.82695 -0.667281 0
M  V30 1628 O 148.64 1.92614 0.346146 0
M  V30 1629 C 148.939 1.73728 -3.12335 0
M  V30 1630 C 148.605 0.960255 -4.40556 0
M  V30 1631 C 147.267 0.745766 -4.75386 0
M  V30 1632 C 149.619 0.414477 -5.19549 0
M  V30 1633 C 146.947 -0.0257694 -5.86694 0
M  V30 1634 C 149.299 -0.343916 -6.31664 0
M  V30 1635 C 147.963 -0.569301 -6.65068 0
M  V30 1636 H 147.233 0.329369 -0.663775 0
M  V30 1637 H 149.88 0.165647 -1.90782 0
M  V30 1638 H 148.185 2.54081 -2.98245 0
M  V30 1639 H 149.882 2.29591 -3.28769 0
M  V30 1640 H 146.472 1.13746 -4.13231 0
M  V30 1641 H 150.656 0.567554 -4.93044 0
M  V30 1642 H 145.912 -0.210233 -6.11038 0
M  V30 1643 H 150.086 -0.774133 -6.92084 0
M  V30 1644 H 147.713 -1.16903 -7.51158 0
M  V30 1645 N 149.288 1.51039 0.449983 0
M  V30 1646 C 150.198 1.74261 1.57067 0
M  V30 1647 C 151.214 0.626363 1.62335 0
M  V30 1648 O 152.39 0.907162 1.79812 0
M  V30 1649 C 149.455 1.85114 2.93144 0
M  V30 1650 C 148.516 3.0893 2.98095 0
M  V30 1651 C 147.749 3.19256 4.27681 0
M  V30 1652 O 147.972 2.35835 5.19363 0
M  V30 1653 O 146.906 4.12144 4.38658 0
M  V30 1654 H 150.732 2.69303 1.40391 0
M  V30 1655 H 148.317 1.35389 0.631688 0
M  V30 1656 H 150.199 1.94311 3.73926 0
M  V30 1657 H 148.874 0.932588 3.09975 0
M  V30 1658 H 147.781 3.0522 2.16314 0
M  V30 1659 H 149.114 4.00433 2.86206 0
M  V30 1660 N 150.766 -0.704594 1.40972 0
M  V30 1661 C 151.713 -1.81862 1.42109 0
M  V30 1662 C 152.683 -1.63781 0.276593 0
M  V30 1663 O 153.868 -1.84759 0.4763 0
M  V30 1664 C 151.008 -3.19669 1.30022 0
M  V30 1665 C 150.121 -3.49246 2.54267 0
M  V30 1666 C 149.256 -4.76618 2.3454 0
M  V30 1667 C 148.295 -4.99133 3.54306 0
M  V30 1668 N 147.432 -6.17726 3.33706 0
M  V30 1669 H 152.272 -1.80226 2.37324 0
M  V30 1670 H 149.809 -0.880238 1.17857 0
M  V30 1671 H 151.767 -3.99263 1.21018 0
M  V30 1672 H 150.397 -3.20506 0.384192 0
M  V30 1673 H 149.449 -2.64125 2.73756 0
M  V30 1674 H 150.761 -3.61788 3.43381 0
M  V30 1675 H 149.915 -5.64249 2.22952 0
M  V30 1676 H 148.654 -4.66305 1.42867 0
M  V30 1677 H 147.659 -4.09953 3.66359 0
M  V30 1678 H 148.884 -5.11311 4.4692 0
M  V30 1679 H 146.83 -6.08642 2.44725 0
M  V30 1680 H 146.747 -6.30995 4.16391 0
M  V30 1681 H 148.015 -7.08115 3.25873 0
M  V30 1682 N 152.244 -1.26651 -0.937939 0
M  V30 1683 C 153.493 -1.11775 -1.67897 0
M  V30 1684 C 153.806 0.33794 -1.92659 0
M  V30 1685 O 155.012 0.607434 -2.64618 0
M  V30 1686 C 153.468 -1.9523 -3.02346 0
M  V30 1687 C 153.076 -3.45393 -2.8532 0
M  V30 1688 C 154.82 -1.88972 -3.80118 0
M  V30 1689 C 152.727 -4.21083 -4.15263 0
M  V30 1690 H 151.657 -0.414696 -0.629717 0
M  V30 1691 H 154.308 -1.50988 -1.04283 0
M  V30 1692 H 152.69 -1.48853 -3.66959 0
M  V30 1693 H 153.864 -3.99561 -2.29537 0
M  V30 1694 H 152.179 -3.52921 -2.20988 0
M  V30 1695 H 154.776 -2.42805 -4.76392 0
M  V30 1696 H 155.119 -0.86113 -4.07296 0
M  V30 1697 H 155.652 -2.33189 -3.22285 0
M  V30 1698 H 152.391 -5.24425 -3.93267 0
M  V30 1699 H 151.911 -3.71695 -4.70747 0
M  V30 1700 H 153.59 -4.29706 -4.83696 0
M  V30 1701 N 153.722 1.14298 -1.08507 0
M  V30 1702 C 154.632 2.23027 -0.727753 0
M  V30 1703 C 155.648 1.71952 0.26619 0
M  V30 1704 O 156.824 2.011 0.109882 0
M  V30 1705 C 153.889 3.46403 -0.143541 0
M  V30 1706 C 152.95 4.12413 -1.19223 0
M  V30 1707 C 152.183 5.29899 -0.635798 0
M  V30 1708 O 152.406 5.67796 0.544393 0
M  V30 1709 O 151.34 5.85717 -1.38634 0
M  V30 1710 H 155.166 2.55945 -1.63481 0
M  V30 1711 H 152.751 1.22248 -0.858817 0
M  V30 1712 H 154.633 4.21018 0.179404 0
M  V30 1713 H 153.308 3.15206 0.736659 0
M  V30 1714 H 152.215 3.39667 -1.56772 0
M  V30 1715 H 153.548 4.47718 -2.04474 0
M  V30 1716 N 155.201 0.870884 1.31352 0
M  V30 1717 C 156.149 0.316445 2.30437 0
M  V30 1718 C 157.143 -0.568965 1.59559 0
M  V30 1719 O 158.349 -0.454964 1.74155 0
M  V30 1720 H 154.724 0.0836521 0.747333 0
M  V30 1721 H 156.695 1.16606 2.74673 0
M  V30 1722 C 155.444 -0.46635 3.44558 0
M  V30 1723 H 154.767 0.205687 3.99271 0
M  V30 1724 H 156.207 -0.819614 4.16003 0
M  V30 1725 C 154.666 -1.65797 2.9328 0
M  V30 1726 O 155.196 -2.75728 2.92125 0
M  V30 1727 N 153.402 -1.49041 2.4947 0
M  V30 1728 H 152.949 -0.59612 2.50608 0
M  V30 1729 H 152.907 -2.28911 2.15516 0
M  V30 1730 N 156.679 -1.44442 0.630414 0
M  V30 1731 C 157.589 -2.34476 -0.0761693 0
M  V30 1732 C 158.605 -1.52576 -0.836449 0
M  V30 1733 O 159.781 -1.85307 -0.788874 0
M  V30 1734 C 156.846 -3.30545 -1.04599 0
M  V30 1735 C 155.907 -4.28352 -0.28516 0
M  V30 1736 C 155.14 -5.19831 -1.20878 0
M  V30 1737 O 155.363 -5.15223 -2.44747 0
M  V30 1738 O 154.297 -5.97892 -0.693491 0
M  V30 1739 H 158.123 -2.96345 0.664324 0
M  V30 1740 H 155.708 -1.44203 0.39061 0
M  V30 1741 H 157.59 -3.89681 -1.60396 0
M  V30 1742 H 156.265 -2.7121 -1.76711 0
M  V30 1743 H 155.172 -3.72764 0.315837 0
M  V30 1744 H 156.505 -4.90605 0.395924 0
M  V30 1745 N 158.157 -0.370918 -1.53173 0
M  V30 1746 C 159.087 0.464847 -2.28826 0
M  V30 1747 C 160.068 1.07936 -1.31468 0
M  V30 1748 O 161.253 1.0956 -1.60344 0
M  V30 1749 C 158.383 1.60196 -3.08147 0
M  V30 1750 C 157.337 1.11443 -4.13237 0
M  V30 1751 C 156.663 2.3422 -4.80672 0
M  V30 1752 C 157.963 0.195384 -5.21934 0
M  V30 1753 H 159.657 -0.166329 -2.98938 0
M  V30 1754 H 157.203 -0.0814359 -1.4377 0
M  V30 1755 H 159.156 2.19332 -3.59822 0
M  V30 1756 H 157.88 2.26045 -2.35735 0
M  V30 1757 H 156.539 0.545727 -3.62515 0
M  V30 1758 H 156.187 2.98537 -4.04827 0
M  V30 1759 H 155.887 2.02269 -5.51689 0
M  V30 1760 H 157.411 2.94032 -5.35143 0
M  V30 1761 H 158.825 0.694375 -5.69079 0
M  V30 1762 H 157.222 -0.0335027 -6.00091 0
M  V30 1763 H 158.292 -0.760961 -4.78892 0
M  V30 1764 N 159.635 1.57281 -0.100228 0
M  V30 1765 C 160.582 2.14305 0.856858 0
M  V30 1766 C 161.552 1.06296 1.27634 0
M  V30 1767 O 162.737 1.34109 1.35718 0
M  V30 1768 C 159.877 2.73184 2.10866 0
M  V30 1769 C 158.99 3.95442 1.73925 0
M  V30 1770 C 158.125 4.42468 2.93931 0
M  V30 1771 C 157.164 5.57303 2.5314 0
M  V30 1772 N 156.301 5.99158 3.65997 0
M  V30 1773 H 161.141 2.95772 0.363726 0
M  V30 1774 H 158.678 1.46139 0.167858 0
M  V30 1775 H 160.636 3.05442 2.84185 0
M  V30 1776 H 159.266 1.94437 2.57671 0
M  V30 1777 H 158.318 3.69464 0.905554 0
M  V30 1778 H 159.63 4.78769 1.39935 0
M  V30 1779 H 158.784 4.76537 3.75496 0
M  V30 1780 H 157.523 3.58052 3.31134 0
M  V30 1781 H 156.528 5.22857 1.70003 0
M  V30 1782 H 157.753 6.43471 2.17075 0
M  V30 1783 H 155.699 5.17687 4.02909 0
M  V30 1784 H 155.616 6.77295 3.35869 0
M  V30 1785 H 156.884 6.3786 4.48057 0
M  V30 1786 N 161.113 -0.173488 1.56642 0
M  V30 1787 C 162.023 -1.23482 1.99473 0
M  V30 1788 C 163.039 -1.48567 0.905752 0
M  V30 1789 O 164.215 -1.60758 1.21321 0
M  V30 1790 C 161.28 -2.55444 2.34413 0
M  V30 1791 C 160.341 -2.38241 3.57127 0
M  V30 1792 C 159.574 -3.63909 3.90392 0
M  V30 1793 O 159.797 -4.68996 3.24653 0
M  V30 1794 O 158.731 -3.58149 4.83749 0
M  V30 1795 H 162.557 -0.901279 2.90018 0
M  V30 1796 H 160.142 -0.380185 1.44482 0
M  V30 1797 H 162.024 -3.33292 2.57865 0
M  V30 1798 H 160.699 -2.88382 1.4703 0
M  V30 1799 H 159.606 -1.58431 3.38896 0
M  V30 1800 H 160.939 -2.10228 4.45045 0
M  V30 1801 N 162.591 -1.51276 -0.441967 0
M  V30 1802 C 163.84 -1.6295 -1.18871 0
M  V30 1803 C 164.153 -0.349312 -1.92456 0
M  V30 1804 O 165.359 -0.345355 -2.69295 0
M  V30 1805 C 163.815 -2.87759 -2.16155 0
M  V30 1806 C 163.423 -4.22764 -1.48239 0
M  V30 1807 C 165.167 -3.08788 -2.91291 0
M  V30 1808 C 163.074 -5.38728 -2.4398 0
M  V30 1809 H 162.004 -0.606913 -0.447406 0
M  V30 1810 H 164.655 -1.77739 -0.456205 0
M  V30 1811 H 163.037 -2.66593 -2.92821 0
M  V30 1812 H 164.211 -4.54293 -0.771635 0
M  V30 1813 H 162.526 -4.07575 -0.852741 0
M  V30 1814 H 165.123 -3.92599 -3.63002 0
M  V30 1815 H 165.466 -2.21679 -3.5237 0
M  V30 1816 H 165.999 -3.30272 -2.21733 0
M  V30 1817 H 162.738 -6.28082 -1.87598 0
M  V30 1818 H 162.258 -5.1158 -3.13123 0
M  V30 1819 H 163.937 -5.70489 -3.05207 0
M  V30 1820 N 164.069 0.697108 -1.41344 0
M  V30 1821 C 165.017 1.83237 -1.43272 0
M  V30 1822 C 166.011 1.66522 -0.310947 0
M  V30 1823 O 167.217 1.73402 -0.482899 0
M  V30 1824 H 163.592 0.603802 -0.448249 0
M  V30 1825 H 165.563 1.78727 -2.38954 0
M  V30 1826 C 164.312 3.21245 -1.33029 0
M  V30 1827 H 163.635 3.34723 -2.18633 0
M  V30 1828 H 165.075 4.00763 -1.38439 0
M  V30 1829 C 163.534 3.36873 -0.0424635 0
M  V30 1830 O 164.064 3.91177 0.913421 0
M  V30 1831 N 162.27 2.90581 0.0331145 0
M  V30 1832 H 161.817 2.46577 -0.745506 0
M  V30 1833 H 161.775 3.01416 0.894199 0
M  V30 1834 N 165.547 1.27147 0.931209 0
M  V30 1835 C 166.775 1.16082 1.71267 0
M  V30 1836 C 167.19 -0.282772 1.8667 0
M  V30 1837 O 166.547 -1.19283 1.38122 0
M  V30 1838 C 166.598 1.8358 3.11417 0
M  V30 1839 O 166.319 3.22299 2.96741 0
M  V30 1840 C 167.82 1.78597 4.05732 0
M  V30 1841 H 165.04 0.403758 0.535929 0
M  V30 1842 H 167.584 1.67953 1.16671 0
M  V30 1843 H 165.739 1.35623 3.62885 0
M  V30 1844 H 166.153 3.55851 3.85319 0
M  V30 1845 H 167.627 2.30444 5.01597 0
M  V30 1846 H 168.104 0.754564 4.3267 0
M  V30 1847 H 168.71 2.26152 3.60188 0
M  V30 1848 N 167.025 -1.13721 1.09112 0
M  V30 1849 C 167.973 -2.21103 0.722219 0
M  V30 1850 C 168.967 -1.67147 -0.275374 0
M  V30 1851 O 170.173 -1.79477 -0.137176 0
M  V30 1852 H 166.548 -0.720445 0.215553 0
M  V30 1853 H 168.519 -2.49483 1.63709 0
M  V30 1854 C 167.268 -3.47352 0.15543 0
M  V30 1855 H 166.591 -3.89206 0.914246 0
M  V30 1856 H 168.031 -4.2395 -0.0647967 0
M  V30 1857 C 166.49 -3.1814 -1.10852 0
M  V30 1858 O 167.02 -3.36604 -2.19227 0
M  V30 1859 N 165.226 -2.72045 -1.02176 0
M  V30 1860 H 164.773 -2.57221 -0.139764 0
M  V30 1861 H 164.731 -2.52875 -1.8682 0
M  V30 1862 N 168.503 -0.877838 -1.30888 0
M  V30 1863 C 169.435 -0.296607 -2.27273 0
M  V30 1864 C 170.448 0.544799 -1.53414 0
M  V30 1865 O 171.637 0.365511 -1.74718 0
M  V30 1866 C 168.737 0.597481 -3.33592 0
M  V30 1867 C 167.91 -0.213251 -4.3688 0
M  V30 1868 C 166.969 0.610208 -5.2265 0
M  V30 1869 O 165.995 0.035441 -5.69189 0
M  V30 1870 N 167.197 1.92071 -5.47804 0
M  V30 1871 H 169.962 -1.12492 -2.77787 0
M  V30 1872 H 167.523 -0.740105 -1.43993 0
M  V30 1873 H 169.515 1.15425 -3.87891 0
M  V30 1874 H 168.085 1.32647 -2.83061 0
M  V30 1875 H 167.305 -0.951466 -3.82545 0
M  V30 1876 H 168.593 -0.769262 -5.02951 0
M  V30 1877 H 167.991 2.4107 -5.11763 0
M  V30 1878 H 166.548 2.42508 -6.05007 0
M  V30 1879 N 169.982 1.44106 -0.638065 0
M  V30 1880 C 170.892 2.34513 0.0637334 0
M  V30 1881 C 171.908 1.53018 0.828346 0
M  V30 1882 O 173.084 1.85723 0.779036 0
M  V30 1883 C 170.149 3.31095 1.02844 0
M  V30 1884 C 169.21 4.28497 0.26244 0
M  V30 1885 C 168.443 5.20465 1.1812 0
M  V30 1886 O 168.666 5.16514 2.42011 0
M  V30 1887 O 167.6 5.98251 0.661774 0
M  V30 1888 H 171.426 2.95989 -0.68003 0
M  V30 1889 H 169.011 1.43994 -0.398252 0
M  V30 1890 H 170.893 3.90526 1.58327 0
M  V30 1891 H 169.568 2.72144 1.7527 0
M  V30 1892 H 168.475 3.72592 -0.335602 0
M  V30 1893 H 169.808 4.90388 -0.421936 0
M  V30 1894 N 171.46 0.379036 1.52974 0
M  V30 1895 C 172.423 -0.448865 2.24762 0
M  V30 1896 C 173.423 -0.998689 1.26027 0
M  V30 1897 O 174.613 -0.882313 1.50203 0
M  V30 1898 C 171.745 -1.62872 2.99476 0
M  V30 1899 H 172.938 0.179491 2.99362 0
M  V30 1900 H 170.491 0.13096 1.5575 0
M  V30 1901 H 171.226 -2.29479 2.29151 0
M  V30 1902 H 171.011 -1.24128 3.71934 0
M  V30 1903 H 172.501 -2.2151 3.5401 0
M  V30 1904 N 172.938 -1.57226 0.108567 0
M  V30 1905 C 173.868 -2.17778 -0.84232 0
M  V30 1906 C 174.849 -1.11487 -1.2847 0
M  V30 1907 O 176.034 -1.39681 -1.34918 0
M  V30 1908 C 173.164 -2.76888 -2.09644 0
M  V30 1909 C 172.118 -3.88669 -1.79221 0
M  V30 1910 C 171.444 -4.34541 -3.11574 0
M  V30 1911 C 172.744 -5.11251 -1.06864 0
M  V30 1912 H 174.438 -2.97489 -0.337774 0
M  V30 1913 H 171.984 -1.43097 -0.161025 0
M  V30 1914 H 173.937 -3.17904 -2.76614 0
M  V30 1915 H 172.661 -1.94451 -2.62405 0
M  V30 1916 H 171.32 -3.48213 -1.14644 0
M  V30 1917 H 170.968 -3.48977 -3.62249 0
M  V30 1918 H 170.668 -5.09914 -2.91996 0
M  V30 1919 H 172.192 -4.782 -3.7968 0
M  V30 1920 H 173.606 -5.49352 -1.63968 0
M  V30 1921 H 172.003 -5.9214 -0.974178 0
M  V30 1922 H 173.073 -4.8487 -0.0536168 0
M  V30 1923 N 174.416 0.165178 -1.56732 0
M  V30 1924 C 175.363 1.2044 -1.96883 0
M  V30 1925 C 176.333 1.43664 -0.833657 0
M  V30 1926 O 177.518 1.56302 -1.09427 0
M  V30 1927 C 174.658 2.53727 -2.33916 0
M  V30 1928 C 173.771 2.3783 -3.6064 0
M  V30 1929 C 172.906 3.64026 -3.86857 0
M  V30 1930 C 171.945 3.43088 -5.06909 0
M  V30 1931 N 171.082 4.61369 -5.29229 0
M  V30 1932 H 175.922 0.854996 -2.85471 0
M  V30 1933 H 173.459 0.41076 -1.41249 0
M  V30 1934 H 175.417 3.31419 -2.53411 0
M  V30 1935 H 174.047 2.8665 -1.48431 0
M  V30 1936 H 173.099 1.51282 -3.49024 0
M  V30 1937 H 174.411 2.18308 -4.4849 0
M  V30 1938 H 173.565 4.50152 -4.06753 0
M  V30 1939 H 172.304 3.86533 -2.97394 0
M  V30 1940 H 171.309 2.55349 -4.86906 0
M  V30 1941 H 172.534 3.21997 -5.97909 0
M  V30 1942 H 170.48 4.84084 -4.42718 0
M  V30 1943 H 170.397 4.44783 -6.11313 0
M  V30 1944 H 171.665 5.48761 -5.53608 0
M  V30 1945 N 175.894 1.51508 0.433938 0
M  V30 1946 C 177.31 1.39759 0.770682 0
M  V30 1947 C 177.51 0.482594 1.95636 0
M  V30 1948 O 176.566 -0.0609691 2.52426 0
M  V30 1949 C 177.879 2.81851 1.04787 0
M  V30 1950 C 179.427 2.91025 1.1521 0
M  V30 1951 C 179.902 4.34032 1.46219 0
M  V30 1952 N 181.393 4.37154 1.53136 0
M  V30 1953 C 182.128 5.4484 1.78709 0
M  V30 1954 N 181.624 6.62682 2.02051 0
M  V30 1955 N 183.417 5.32324 1.80519 0
M  V30 1956 H 175.568 2.09548 -0.346892 0
M  V30 1957 H 177.831 0.943446 -0.0928074 0
M  V30 1958 H 177.537 3.50815 0.249304 0
M  V30 1959 H 177.411 3.21386 1.97461 0
M  V30 1960 H 179.798 2.22257 1.94128 0
M  V30 1961 H 179.879 2.54983 0.204281 0
M  V30 1962 H 179.523 5.03351 0.678274 0
M  V30 1963 H 179.453 4.6759 2.42212 0
M  V30 1964 H 181.944 3.52197 1.36987 0
M  V30 1965 H 182.257 7.40543 2.20943 0
M  V30 1966 H 180.602 6.65791 1.99366 0
M  V30 1967 H 183.793 4.39246 1.61805 0
M  V30 1968 H 183.966 6.16328 2.00111 0
M  V30 1969 N 177.372 -0.689602 1.41712 0
M  V30 1970 C 178.32 -1.82475 1.44242 0
M  V30 1971 C 179.314 -1.66354 0.319774 0
M  V30 1972 O 180.52 -1.73143 0.492089 0
M  V30 1973 H 176.895 -0.601416 0.451445 0
M  V30 1974 H 178.866 -1.77458 2.39899 0
M  V30 1975 C 177.615 -3.20535 1.3473 0
M  V30 1976 H 176.938 -3.33559 2.20405 0
M  V30 1977 H 178.378 -4.00023 1.40562 0
M  V30 1978 C 176.837 -3.36846 0.0603281 0
M  V30 1979 O 177.367 -3.91656 -0.892663 0
M  V30 1980 N 175.573 -2.90595 -0.0177039 0
M  V30 1981 H 175.12 -2.46178 0.758572 0
M  V30 1982 H 175.078 -3.01886 -0.878201 0
M  V30 1983 N 178.85 -1.27639 -0.924453 0
M  V30 1984 C 180.097 -1.14167 -1.67249 0
M  V30 1985 C 180.425 0.311863 -1.91984 0
M  V30 1986 O 179.68 1.24425 -1.51053 0
M  V30 1987 C 179.979 -1.87407 -3.04325 0
M  V30 1988 C 179.645 -3.37249 -2.99289 0
M  V30 1989 C 178.307 -3.7812 -2.97622 0
M  V30 1990 C 180.659 -4.32845 -2.90336 0
M  V30 1991 C 177.987 -5.12944 -2.8479 0
M  V30 1992 C 180.339 -5.6773 -2.79045 0
M  V30 1993 C 179.003 -6.07889 -2.7573 0
M  V30 1994 H 178.273 -0.417766 -0.612007 0
M  V30 1995 H 180.92 -1.58286 -1.07786 0
M  V30 1996 H 179.225 -1.35805 -3.67511 0
M  V30 1997 H 180.922 -1.74408 -3.61086 0
M  V30 1998 H 177.512 -3.04748 -3.01374 0
M  V30 1999 H 181.696 -4.02239 -2.90719 0
M  V30 2000 H 176.952 -5.432 -2.80612 0
M  V30 2001 H 181.126 -6.41472 -2.71083 0
M  V30 2002 H 178.753 -7.12314 -2.65544 0
M  V30 2003 N 180.328 1.1314 -1.09713 0
M  V30 2004 C 181.258 2.20748 -0.761102 0
M  V30 2005 C 182.239 1.68061 0.262566 0
M  V30 2006 O 183.424 1.93765 0.129977 0
M  V30 2007 C 180.554 3.46812 -0.184054 0
M  V30 2008 C 179.508 4.12606 -1.13757 0
M  V30 2009 C 178.834 5.33031 -0.422083 0
M  V30 2010 C 180.134 4.59603 -2.48118 0
M  V30 2011 H 181.828 2.49113 -1.66082 0
M  V30 2012 H 179.374 1.19734 -0.799987 0
M  V30 2013 H 181.327 4.21353 0.0631215 0
M  V30 2014 H 180.051 3.17851 0.750868 0
M  V30 2015 H 178.71 3.40036 -1.37007 0
M  V30 2016 H 178.358 5.00335 0.517072 0
M  V30 2017 H 178.058 5.77999 -1.05788 0
M  V30 2018 H 179.582 6.10325 -0.183277 0
M  V30 2019 H 180.996 5.25552 -2.29059 0
M  V30 2020 H 179.393 5.15321 -3.07514 0
M  V30 2021 H 180.463 3.73971 -3.08665 0
M  V30 2022 N 181.806 0.884767 1.30421 0
M  V30 2023 C 182.716 0.355398 2.31892 0
M  V30 2024 C 183.732 -0.542261 1.65335 0
M  V30 2025 O 184.908 -0.435432 1.96637 0
M  V30 2026 C 181.973 -0.421661 3.44126 0
M  V30 2027 C 181.034 0.505727 4.26311 0
M  V30 2028 C 180.267 -0.234343 5.33185 0
M  V30 2029 O 180.49 -1.46045 5.51386 0
M  V30 2030 O 179.424 0.415443 6.00465 0
M  V30 2031 H 183.25 1.19685 2.79122 0
M  V30 2032 H 180.835 0.648596 1.34587 0
M  V30 2033 H 182.717 -0.861641 4.12497 0
M  V30 2034 H 181.392 -1.23942 2.99032 0
M  V30 2035 H 180.299 0.994513 3.60639 0
M  V30 2036 H 181.632 1.28948 4.75009 0
M  V30 2037 N 183.284 -1.43765 0.645699 0
M  V30 2038 C 184.214 -2.33471 -0.0370477 0
M  V30 2039 C 185.195 -1.49042 -0.819779 0
M  V30 2040 O 186.38 -1.77726 -0.782758 0
M  V30 2041 C 183.51 -3.32311 -1.0093 0
M  V30 2042 C 182.464 -4.2667 -0.337201 0
M  V30 2043 C 181.79 -5.1549 -1.42037 0
M  V30 2044 C 183.09 -5.16657 0.765706 0
M  V30 2045 H 184.784 -2.90809 0.712069 0
M  V30 2046 H 182.33 -1.39834 0.343876 0
M  V30 2047 H 184.283 -3.9396 -1.49578 0
M  V30 2048 H 183.007 -2.73213 -1.78948 0
M  V30 2049 H 181.666 -3.66374 0.128771 0
M  V30 2050 H 181.314 -4.52735 -2.1918 0
M  V30 2051 H 181.014 -5.79438 -0.975966 0
M  V30 2052 H 182.538 -5.80012 -1.90838 0
M  V30 2053 H 183.952 -5.72158 0.361702 0
M  V30 2054 H 182.349 -5.89286 1.13413 0
M  V30 2055 H 183.419 -4.56796 1.62683 0
M  V30 2056 N 184.763 -0.387143 -1.52771 0
M  V30 2057 C 185.991 0.195869 -2.05971 0
M  V30 2058 C 186.406 1.40691 -1.25903 0
M  V30 2059 O 185.763 1.79931 -0.305134 0
M  V30 2060 C 185.814 0.56812 -3.57008 0
M  V30 2061 O 185.535 -0.594803 -4.34043 0
M  V30 2062 C 187.036 1.20723 -4.26545 0
M  V30 2063 H 184.256 0.0300578 -0.670326 0
M  V30 2064 H 186.8 -0.551749 -1.96916 0
M  V30 2065 H 184.955 1.26564 -3.66143 0
M  V30 2066 H 185.369 -0.289322 -5.23701 0
M  V30 2067 H 186.843 1.41807 -5.33474 0
M  V30 2068 H 187.32 2.17395 -3.81623 0
M  V30 2069 H 187.926 0.550535 -4.21722 0
M  V30 2070 N 186.241 1.57166 -0.116904 0
M  V30 2071 C 187.151 2.18745 0.847812 0
M  V30 2072 C 188.167 1.163 1.29423 0
M  V30 2073 O 189.343 1.48761 1.35765 0
M  V30 2074 C 186.408 2.77307 2.0809 0
M  V30 2075 C 185.469 3.94781 1.68661 0
M  V30 2076 C 184.702 4.50541 2.86091 0
M  V30 2077 O 184.925 4.05202 4.01456 0
M  V30 2078 O 183.859 5.41256 2.63298 0
M  V30 2079 H 187.685 3.01632 0.353778 0
M  V30 2080 H 185.27 1.49005 0.108599 0
M  V30 2081 H 187.152 3.14647 2.80313 0
M  V30 2082 H 185.827 1.97452 2.56504 0
M  V30 2083 H 184.734 3.62214 0.935518 0
M  V30 2084 H 186.067 4.76065 1.24991 0
M  V30 2085 N 187.719 -0.156864 1.56817 0
M  V30 2086 C 188.649 -1.19589 2.00551 0
M  V30 2087 C 189.63 -1.4536 0.883426 0
M  V30 2088 O 190.815 -1.56449 1.15054 0
M  V30 2089 C 187.945 -2.53143 2.37773 0
M  V30 2090 C 186.899 -2.41913 3.53075 0
M  V30 2091 C 186.225 -3.80088 3.76081 0
M  V30 2092 C 187.525 -1.91157 4.86062 0
M  V30 2093 H 189.219 -0.832293 2.87599 0
M  V30 2094 H 186.765 -0.398918 1.38364 0
M  V30 2095 H 188.718 -3.26047 2.66967 0
M  V30 2096 H 187.442 -2.91319 1.4765 0
M  V30 2097 H 186.101 -1.71462 3.24031 0
M  V30 2098 H 185.749 -4.15683 2.83225 0
M  V30 2099 H 185.449 -3.73439 4.53671 0
M  V30 2100 H 186.973 -4.54556 4.0769 0
M  V30 2101 H 188.387 -2.53846 5.14038 0
M  V30 2102 H 186.784 -1.95422 5.67389 0
M  V30 2103 H 187.854 -0.866673 4.77092 0
M  V30 2104 N 189.197 -1.51736 -0.425897 0
M  V30 2105 C 190.144 -1.73875 -1.51776 0
M  V30 2106 C 191.114 -0.580702 -1.55618 0
M  V30 2107 O 192.299 -0.81641 -1.72451 0
M  V30 2108 C 189.439 -1.88012 -2.89388 0
M  V30 2109 C 188.552 -3.15606 -2.94986 0
M  V30 2110 C 187.687 -3.20271 -4.23793 0
M  V30 2111 C 186.726 -4.42134 -4.23302 0
M  V30 2112 N 185.863 -4.44284 -5.43651 0
M  V30 2113 H 190.703 -2.67071 -1.32201 0
M  V30 2114 H 188.24 -1.32351 -0.642008 0
M  V30 2115 H 190.198 -1.9419 -3.69251 0
M  V30 2116 H 188.828 -0.98213 -3.07496 0
M  V30 2117 H 187.88 -3.18681 -2.07717 0
M  V30 2118 H 189.192 -4.05486 -2.90486 0
M  V30 2119 H 188.346 -3.25428 -5.12036 0
M  V30 2120 H 187.085 -2.28299 -4.30965 0
M  V30 2121 H 186.09 -4.3714 -3.3345 0
M  V30 2122 H 187.315 -5.35382 -4.17783 0
M  V30 2123 H 185.261 -3.55188 -5.51523 0
M  V30 2124 H 185.178 -5.27988 -5.41078 0
M  V30 2125 H 186.446 -4.53649 -6.33895 0
M  V30 2126 N 190.675 0.682077 -1.42076 0
M  V30 2127 C 191.922 1.44215 -1.42156 0
M  V30 2128 C 192.25 1.94468 -0.0354186 0
M  V30 2129 O 191.505 1.70816 0.955002 0
M  V30 2130 C 191.804 2.66036 -2.38662 0
M  V30 2131 C 191.47 2.34366 -3.85206 0
M  V30 2132 C 190.132 2.25439 -4.25124 0
M  V30 2133 C 192.484 2.08513 -4.77673 0
M  V30 2134 C 189.812 1.88775 -5.55501 0
M  V30 2135 C 192.164 1.73354 -6.08384 0
M  V30 2136 C 190.828 1.62933 -6.47309 0
M  V30 2137 H 190.098 0.527718 -0.520187 0
M  V30 2138 H 192.745 0.778387 -1.74967 0
M  V30 2139 H 191.05 3.3741 -1.99152 0
M  V30 2140 H 192.747 3.24205 -2.35991 0
M  V30 2141 H 189.337 2.42213 -3.53597 0
M  V30 2142 H 193.521 2.14346 -4.47626 0
M  V30 2143 H 188.777 1.7927 -5.84527 0
M  V30 2144 H 192.951 1.52373 -6.79526 0
M  V30 2145 H 190.578 1.34292 -7.48244 0
M  V30 2146 N 192.153 1.28127 0.917671 0
M  V30 2147 C 193.402 1.14432 1.66097 0
M  V30 2148 C 193.715 -0.307247 1.93172 0
M  V30 2149 O 194.921 -0.565259 2.65551 0
M  V30 2150 C 193.377 2.00015 2.99202 0
M  V30 2151 C 192.985 3.49889 2.79789 0
M  V30 2152 C 194.729 1.94996 3.77064 0
M  V30 2153 C 192.636 4.27636 4.08511 0
M  V30 2154 H 191.566 0.424662 0.62304 0
M  V30 2155 H 194.217 1.52628 1.01868 0
M  V30 2156 H 192.599 1.54672 3.64544 0
M  V30 2157 H 193.773 4.03162 2.23152 0
M  V30 2158 H 192.088 3.56392 2.15345 0
M  V30 2159 H 194.685 2.50354 4.72469 0
M  V30 2160 H 195.028 0.925819 4.05875 0
M  V30 2161 H 195.561 2.38287 3.18534 0
M  V30 2162 H 192.3 5.30615 3.84874 0
M  V30 2163 H 191.82 3.79137 4.64774 0
M  V30 2164 H 193.499 4.37346 4.76799 0
M  V30 2165 N 193.631 -1.12557 1.10312 0
M  V30 2166 C 194.561 -2.20341 0.772798 0
M  V30 2167 C 195.542 -1.68198 -0.25365 0
M  V30 2168 O 196.727 -1.93831 -0.119699 0
M  V30 2169 C 193.857 -3.46709 0.202443 0
M  V30 2170 C 192.811 -4.11996 1.15943 0
M  V30 2171 C 192.137 -5.328 0.450345 0
M  V30 2172 C 193.437 -4.5828 2.50552 0
M  V30 2173 H 195.131 -2.48229 1.674 0
M  V30 2174 H 192.677 -1.19308 0.806326 0
M  V30 2175 H 194.63 -4.2138 -0.0407752 0
M  V30 2176 H 193.354 -3.18245 -0.734001 0
M  V30 2177 H 192.013 -3.39305 1.38808 0
M  V30 2178 H 191.661 -5.00602 -0.490531 0
M  V30 2179 H 191.361 -5.7743 1.08851 0
M  V30 2180 H 192.885 -6.10219 0.215642 0
M  V30 2181 H 194.299 -5.2433 2.31843 0
M  V30 2182 H 192.696 -5.13683 3.10242 0
M  V30 2183 H 193.766 -3.72329 3.10643 0
M  V30 2184 N 195.109 -0.891671 -1.2995 0
M  V30 2185 C 196.525 -0.58662 -1.48428 0
M  V30 2186 C 196.725 0.873951 -1.81561 0
M  V30 2187 O 195.781 1.65471 -1.90724 0
M  V30 2188 C 197.094 -1.50553 -2.60296 0
M  V30 2189 C 198.642 -1.50988 -2.74175 0
M  V30 2190 C 199.117 -2.41488 -3.89163 0
M  V30 2191 N 200.608 -2.39489 -3.96483 0
M  V30 2192 C 201.343 -3.06223 -4.84784 0
M  V30 2193 N 200.839 -3.82206 -5.77833 0
M  V30 2194 N 202.632 -2.95421 -4.78208 0
M  V30 2195 H 194.783 -1.83644 -1.06718 0
M  V30 2196 H 197.046 -0.786455 -0.529332 0
M  V30 2197 H 196.752 -2.54581 -2.42654 0
M  V30 2198 H 196.626 -1.22008 -3.56923 0
M  V30 2199 H 199.013 -0.47708 -2.91218 0
M  V30 2200 H 199.094 -1.83567 -1.78148 0
M  V30 2201 H 198.738 -3.44857 -3.72876 0
M  V30 2202 H 198.668 -2.06222 -4.84541 0
M  V30 2203 H 201.159 -1.84278 -3.29924 0
M  V30 2204 H 201.472 -4.302 -6.41988 0
M  V30 2205 H 199.817 -3.86313 -5.77743 0
M  V30 2206 H 203.008 -2.35581 -4.04499 0
M  V30 2207 H 203.181 -3.47704 -5.46814 0
M  V30 2208 N 196.587 1.43421 -0.653314 0
M  V30 2209 C 197.534 2.30768 0.0382271 0
M  V30 2210 C 198.504 1.44755 0.814576 0
M  V30 2211 O 199.689 1.73624 0.791162 0
M  V30 2212 C 196.829 3.30336 0.998599 0
M  V30 2213 C 195.942 4.31448 0.218342 0
M  V30 2214 C 195.077 5.18098 1.17252 0
M  V30 2215 C 194.116 6.10902 0.382702 0
M  V30 2216 N 193.253 6.90176 1.28848 0
M  V30 2217 H 198.093 2.89357 -0.712511 0
M  V30 2218 H 195.63 1.42548 -0.363128 0
M  V30 2219 H 197.588 3.86572 1.56901 0
M  V30 2220 H 196.218 2.73397 1.71621 0
M  V30 2221 H 195.27 3.77506 -0.46836 0
M  V30 2222 H 196.582 4.97227 -0.395812 0
M  V30 2223 H 195.736 5.7896 1.81356 0
M  V30 2224 H 194.475 4.52444 1.82058 0
M  V30 2225 H 193.48 5.49128 -0.27169 0
M  V30 2226 H 194.705 6.78598 -0.260957 0
M  V30 2227 H 192.651 6.27171 1.92334 0
M  V30 2228 H 192.568 7.52478 0.728887 0
M  V30 2229 H 193.836 7.55543 1.91766 0
M  V30 2230 N 198.065 0.39524 1.52563 0
M  V30 2231 C 199.293 -0.184943 2.06072 0
M  V30 2232 C 199.708 -1.40021 1.26647 0
M  V30 2233 O 199.065 -1.79767 0.314672 0
M  V30 2234 C 199.116 -0.549179 3.57304 0
M  V30 2235 O 198.837 0.617813 4.33722 0
M  V30 2236 C 200.338 -1.18459 4.2718 0
M  V30 2237 H 197.558 -0.0265025 0.670476 0
M  V30 2238 H 200.102 0.562184 1.96621 0
M  V30 2239 H 198.257 -1.2462 3.66809 0
M  V30 2240 H 198.671 0.317091 5.23541 0
M  V30 2241 H 200.145 -1.38976 5.34219 0
M  V30 2242 H 200.622 -2.15368 3.82771 0
M  V30 2243 H 201.228 -0.528163 4.22008 0
M  V30 2244 N 199.544 -1.57102 0.125237 0
M  V30 2245 C 200.476 -2.12726 -0.853237 0
M  V30 2246 C 201.489 -1.07145 -1.22571 0
M  V30 2247 O 202.678 -1.34497 -1.17358 0
M  V30 2248 C 199.778 -2.61709 -2.15317 0
M  V30 2249 C 198.951 -3.91456 -1.95143 0
M  V30 2250 C 198.01 -4.25973 -3.08923 0
M  V30 2251 O 197.036 -4.94682 -2.81564 0
M  V30 2252 N 198.238 -3.83795 -4.35524 0
M  V30 2253 H 201.003 -2.97307 -0.377964 0
M  V30 2254 H 198.564 -1.61792 -0.0590011 0
M  V30 2255 H 200.556 -2.81826 -2.90441 0
M  V30 2256 H 199.126 -1.81974 -2.54174 0
M  V30 2257 H 198.346 -3.80185 -1.04177 0
M  V30 2258 H 199.634 -4.76283 -1.78976 0
M  V30 2259 H 199.032 -3.2839 -4.60626 0
M  V30 2260 H 197.589 -4.09008 -5.07499 0
M  V30 2261 N 201.022 0.148545 -1.56898 0
M  V30 2262 C 201.954 1.20852 -1.9475 0
M  V30 2263 C 202.967 1.39265 -0.843152 0
M  V30 2264 O 204.156 1.38864 -1.12156 0
M  V30 2265 C 201.256 2.57362 -2.20495 0
M  V30 2266 C 200.429 2.59947 -3.51776 0
M  V30 2267 C 199.488 3.77984 -3.6608 0
M  V30 2268 O 198.514 3.62929 -4.38487 0
M  V30 2269 N 199.716 4.95375 -3.02629 0
M  V30 2270 H 202.481 0.886804 -2.86279 0
M  V30 2271 H 200.042 0.338121 -1.5833 0
M  V30 2272 H 202.034 3.34833 -2.27307 0
M  V30 2273 H 200.604 2.81832 -1.35238 0
M  V30 2274 H 199.824 1.68403 -3.56419 0
M  V30 2275 H 201.112 2.58704 -4.38121 0
M  V30 2276 H 200.51 5.10509 -2.43715 0
M  V30 2277 H 199.067 5.70627 -3.15004 0
M  V30 2278 N 202.5 1.5196 0.417844 0
M  V30 2279 C 203.747 1.65591 1.16559 0
M  V30 2280 C 204.075 0.381565 1.90721 0
M  V30 2281 O 203.33 -0.635156 1.85106 0
M  V30 2282 C 203.629 2.82269 2.19223 0
M  V30 2283 C 203.295 4.20819 1.61933 0
M  V30 2284 C 201.957 4.58506 1.46033 0
M  V30 2285 C 204.309 5.07196 1.20008 0
M  V30 2286 C 201.637 5.80257 0.867113 0
M  V30 2287 C 203.989 6.29544 0.621086 0
M  V30 2288 C 202.653 6.65987 0.449144 0
M  V30 2289 H 201.923 0.605939 0.42652 0
M  V30 2290 H 204.57 1.86041 0.45397 0
M  V30 2291 H 202.875 2.56118 2.96498 0
M  V30 2292 H 204.572 2.90012 2.76936 0
M  V30 2293 H 201.162 3.91116 1.7529 0
M  V30 2294 H 205.346 4.7867 1.31105 0
M  V30 2295 H 200.602 6.07124 0.721833 0
M  V30 2296 H 204.776 6.95805 0.287798 0
M  V30 2297 H 202.403 7.60199 -0.012632 0
M  V30 2298 N 203.978 -0.674533 1.42435 0
M  V30 2299 C 205.225 -1.43459 1.42919 0
M  V30 2300 C 205.553 -1.94446 0.0457312 0
M  V30 2301 O 204.808 -1.7132 -0.94593 0
M  V30 2302 C 205.107 -2.64767 2.40069 0
M  V30 2303 C 204.773 -2.3232 3.86443 0
M  V30 2304 C 203.435 -2.23182 4.26314 0
M  V30 2305 C 205.787 -2.05977 4.78773 0
M  V30 2306 C 203.115 -1.85827 5.56494 0
M  V30 2307 C 205.467 -1.70125 6.09295 0
M  V30 2308 C 204.131 -1.59498 6.48164 0
M  V30 2309 H 203.401 -0.524952 0.522978 0
M  V30 2310 H 206.048 -0.769097 1.75377 0
M  V30 2311 H 204.353 -3.36349 2.00939 0
M  V30 2312 H 206.05 -3.22949 2.37707 0
M  V30 2313 H 202.64 -2.40334 3.54877 0
M  V30 2314 H 206.824 -2.11969 4.48757 0
M  V30 2315 H 202.08 -1.76168 5.8547 0
M  V30 2316 H 206.254 -1.48767 6.80324 0
M  V30 2317 H 203.881 -1.30322 7.48946 0
M  V30 2318 N 205.456 -1.28612 -0.910864 0
M  V30 2319 C 206.733 -1.06632 -1.63979 0
M  V30 2320 C 207.113 0.393351 -2.07403 0
M  V30 2321 O 206.461 1.37999 -1.82122 0
M  V30 2322 C 206.671 -2.0436 -2.8291 0
M  V30 2323 C 208.019 -2.34666 -3.5386 0
M  V30 2324 O 209.043 -2.02467 -2.93062 0
M  V30 2325 O 207.902 -2.89631 -4.63439 0
M  V30 2326 H 204.996 -0.407737 -0.7195 0
M  V30 2327 H 207.542 -1.39942 -0.959914 0
M  V30 2328 H 206.314 -3.02727 -2.47936 0
M  V30 2329 H 205.937 -1.71714 -3.58609 0
M  V30 2330 N 206.934 1.1197 -1.10907 0
M  V30 2331 C 207.844 2.21433 -0.774896 0
M  V30 2332 C 208.86 1.72478 0.229657 0
M  V30 2333 O 210.036 2.01288 0.0672008 0
M  V30 2334 C 207.101 3.4602 -0.216986 0
M  V30 2335 C 206.162 4.09791 -1.27944 0
M  V30 2336 C 205.395 5.28431 -0.748055 0
M  V30 2337 O 205.618 5.68823 0.423833 0
M  V30 2338 O 204.552 5.82644 -1.51027 0
M  V30 2339 H 208.378 2.5242 -1.68873 0
M  V30 2340 H 205.963 1.20399 -0.884555 0
M  V30 2341 H 207.845 4.21304 0.090059 0
M  V30 2342 H 206.52 3.16698 0.669633 0
M  V30 2343 H 205.427 3.36265 -1.63941 0
M  V30 2344 H 206.76 4.4328 -2.13925 0
M  V30 2345 N 208.412 0.89855 1.29475 0
M  V30 2346 C 209.345 0.319981 2.25945 0
M  V30 2347 C 210.323 -0.567189 1.52387 0
M  V30 2348 O 211.507 -0.514254 1.8135 0
M  V30 2349 C 208.634 -0.544013 3.34303 0
M  V30 2350 C 207.68 0.275682 4.25608 0
M  V30 2351 S 208.513 1.67272 5.08704 0
M  V30 2352 C 209.669 0.815621 6.20563 0
M  V30 2353 H 209.902 1.13767 2.74671 0
M  V30 2354 H 207.435 0.69882 1.3768 0
M  V30 2355 H 209.393 -1.03673 3.97193 0
M  V30 2356 H 208.054 -1.33593 2.84274 0
M  V30 2357 H 207.247 -0.384263 5.02533 0
M  V30 2358 H 206.849 0.701496 3.67362 0
M  V30 2359 H 209.141 0.0385042 6.77489 0
M  V30 2360 H 210.084 1.55691 6.90772 0
M  V30 2361 H 210.492 0.370516 5.63283 0
M  V30 2362 N 209.89 -1.43072 0.660911 0
M  V30 2363 C 210.853 -2.29194 -0.0166406 0
M  V30 2364 C 211.853 -1.42609 -0.742912 0
M  V30 2365 O 213.043 -1.64155 -0.583004 0
M  V30 2366 C 210.175 -3.24831 -1.0343 0
M  V30 2367 H 211.368 -2.90596 0.741208 0
M  V30 2368 H 208.921 -1.5048 0.422532 0
M  V30 2369 H 209.656 -2.68339 -1.82111 0
M  V30 2370 H 209.441 -3.88676 -0.517082 0
M  V30 2371 H 210.931 -3.89451 -1.50723 0
M  V30 2372 N 211.368 -0.403325 -1.52352 0
M  V30 2373 C 212.645 0.232611 -1.94212 0
M  V30 2374 C 213.025 1.63133 -1.33981 0
M  V30 2375 O 212.373 2.22659 -0.513344 0
M  V30 2376 C 212.583 0.244811 -3.4814 0
M  V30 2377 C 213.931 0.46698 -4.22024 0
M  V30 2378 O 214.955 0.324419 -3.5472 0
M  V30 2379 O 213.814 0.74747 -5.41364 0
M  V30 2380 H 210.908 0.148223 -0.813609 0
M  V30 2381 H 213.454 -0.458848 -1.63379 0
M  V30 2382 H 212.226 -0.734378 -3.84347 0
M  V30 2383 H 211.849 0.980611 -3.85318 0
M  V30 2384 N 212.846 1.57033 -0.133567 0
M  V30 2385 C 214.257 1.82593 0.389464 0
M  V30 2386 C 214.608 1.05156 1.6564 0
M  V30 2387 O 213.733 0.292644 2.14412 0
M  V30 2388 C 214.328 3.31204 0.713377 0
M  V30 2389 C 212.887 3.57393 1.18098 0
M  V30 2390 C 212.034 2.76598 0.197126 0
M  V30 2391 H 214.985 1.54598 -0.358481 0
M  V30 2392 H 215.006 3.46627 1.56939 0
M  V30 2393 H 214.518 3.87537 -0.2089 0
M  V30 2394 H 212.619 3.06433 2.11966 0
M  V30 2395 H 212.732 4.65915 1.11624 0
M  V30 2396 H 211.096 2.45257 0.687088 0
M  V30 2397 H 211.879 3.35697 -0.718504 0
M  V30 2398 N 214.325 -0.140222 1.56975 0
M  V30 2399 C 215.602 -0.880769 1.74648 0
M  V30 2400 C 215.982 -1.99036 0.703404 0
M  V30 2401 O 215.33 -2.26821 -0.27648 0
M  V30 2402 C 215.54 -1.417 3.18939 0
M  V30 2403 C 216.888 -1.87774 3.80823 0
M  V30 2404 O 217.912 -1.51427 3.2241 0
M  V30 2405 O 216.771 -2.54827 4.83452 0
M  V30 2406 H 213.865 -0.416713 0.714338 0
M  V30 2407 H 216.411 -0.125618 1.69234 0
M  V30 2408 H 215.183 -0.619902 3.86359 0
M  V30 2409 H 214.806 -2.23546 3.28805 0
M  V30 2410 N 215.803 -1.52179 -0.40978 0
M  V30 2411 C 216.733 -1.78435 -1.5061 0
M  V30 2412 C 217.714 -0.635295 -1.57791 0
M  V30 2413 O 218.899 -0.880823 -1.73076 0
M  V30 2414 C 216.029 -1.93444 -2.88439 0
M  V30 2415 C 214.983 -3.09038 -2.96108 0
M  V30 2416 C 214.309 -3.09268 -4.36185 0
M  V30 2417 C 215.609 -4.48508 -2.67652 0
M  V30 2418 H 217.303 -2.70237 -1.28889 0
M  V30 2419 H 214.849 -1.30036 -0.618605 0
M  V30 2420 H 216.802 -2.10394 -3.65119 0
M  V30 2421 H 215.526 -0.983129 -3.11452 0
M  V30 2422 H 214.185 -2.91837 -2.21872 0
M  V30 2423 H 213.833 -2.11861 -4.56206 0
M  V30 2424 H 213.533 -3.86907 -4.42241 0
M  V30 2425 H 215.057 -3.28348 -5.14801 0
M  V30 2426 H 216.471 -4.65918 -3.34056 0
M  V30 2427 H 214.868 -5.28059 -2.85085 0
M  V30 2428 H 215.938 -4.56649 -1.63095 0
M  V30 2429 N 217.281 0.66697 -1.42791 0
M  V30 2430 C 218.211 1.79218 -1.49677 0
M  V30 2431 C 219.192 1.66405 -0.352623 0
M  V30 2432 O 220.377 1.85708 -0.567993 0
M  V30 2433 C 217.507 3.17565 -1.40605 0
M  V30 2434 C 216.461 3.45124 -2.53127 0
M  V30 2435 C 215.787 4.83127 -2.29112 0
M  V30 2436 C 217.087 3.41236 -3.95418 0
M  V30 2437 H 218.781 1.73713 -2.43853 0
M  V30 2438 H 216.327 0.83432 -1.17367 0
M  V30 2439 H 218.28 3.96022 -1.44029 0
M  V30 2440 H 217.004 3.23767 -0.429271 0
M  V30 2441 H 215.663 2.69031 -2.49034 0
M  V30 2442 H 215.311 4.85988 -1.29709 0
M  V30 2443 H 215.011 5.02528 -3.04531 0
M  V30 2444 H 216.535 5.63859 -2.34297 0
M  V30 2445 H 217.949 4.09651 -4.01073 0
M  V30 2446 H 216.346 3.72173 -4.70752 0
M  V30 2447 H 217.416 2.39665 -4.21532 0
M  V30 2448 N 218.759 1.29093 0.90403 0
M  V30 2449 C 219.669 1.15727 2.0407 0
M  V30 2450 C 220.685 0.0815308 1.73809 0
M  V30 2451 O 221.861 0.292749 1.99261 0
M  V30 2452 C 218.926 0.830424 3.36608 0
M  V30 2453 C 217.987 1.98955 3.80415 0
M  V30 2454 C 217.22 1.6782 5.06628 0
M  V30 2455 O 217.443 0.597105 5.67266 0
M  V30 2456 O 216.377 2.52486 5.46383 0
M  V30 2457 H 220.203 2.11171 2.18267 0
M  V30 2458 H 217.788 1.08504 1.027 0
M  V30 2459 H 219.67 0.662521 4.16159 0
M  V30 2460 H 218.345 -0.0942678 3.23563 0
M  V30 2461 H 217.252 2.21267 3.01648 0
M  V30 2462 H 218.585 2.89529 3.98037 0
M  V30 2463 N 220.237 -1.11381 1.11499 0
M  V30 2464 C 221.147 -2.21019 0.786628 0
M  V30 2465 C 222.163 -1.72597 -0.220507 0
M  V30 2466 O 223.339 -2.01321 -0.0565251 0
M  V30 2467 C 220.404 -3.459 0.235333 0
M  V30 2468 C 219.465 -4.09107 1.30115 0
M  V30 2469 C 218.698 -5.28027 0.776068 0
M  V30 2470 O 218.921 -5.6904 -0.393661 0
M  V30 2471 O 217.855 -5.81835 1.54114 0
M  V30 2472 H 221.681 -2.51521 1.70209 0
M  V30 2473 H 219.266 -1.19928 0.890928 0
M  V30 2474 H 221.148 -4.21346 -0.067715 0
M  V30 2475 H 219.823 -3.17049 -0.652828 0
M  V30 2476 H 218.73 -3.35391 1.65722 0
M  V30 2477 H 220.063 -4.42139 2.16273 0
M  V30 2478 N 221.715 -0.905404 -1.28997 0
M  V30 2479 C 222.94 -0.549175 -1.99997 0
M  V30 2480 C 223.365 0.860276 -1.67275 0
M  V30 2481 O 222.723 1.57355 -0.900502 0
M  V30 2482 C 222.771 -0.755185 -3.52604 0
M  V30 2483 O 221.875 0.189692 -4.11964 0
M  V30 2484 H 221.216 -0.213899 -0.628604 0
M  V30 2485 H 223.746 -1.21856 -1.64354 0
M  V30 2486 H 223.756 -0.662045 -4.02593 0
M  V30 2487 H 222.431 -1.78271 -3.75755 0
M  V30 2488 H 221.008 0.0485257 -3.72868 0
M  V30 2489 N 223.193 1.4272 -0.668489 0
M  V30 2490 C 224.418 2.06484 -0.194758 0
M  V30 2491 C 224.843 1.49862 1.13679 0
M  V30 2492 O 224.201 0.614582 1.70565 0
M  V30 2493 C 224.249 3.60353 -0.133546 0
M  V30 2494 O 223.353 4.02464 0.899806 0
M  V30 2495 H 222.694 0.656137 -0.10188 0
M  V30 2496 H 225.224 1.82964 -0.915722 0
M  V30 2497 H 225.234 4.07976 0.0447041 0
M  V30 2498 H 223.909 4.00938 -1.1055 0
M  V30 2499 H 222.486 3.66402 0.693109 0
M  V30 2500 N 224.671 0.411399 1.52136 0
M  V30 2501 C 225.896 -0.165538 2.06738 0
M  V30 2502 C 226.321 -1.379 1.27926 0
M  V30 2503 O 225.679 -1.78628 0.310114 0
M  V30 2504 C 225.727 -0.492124 3.57226 0
M  V30 2505 O 224.831 -1.58276 3.80818 0
M  V30 2506 H 224.172 -0.0132132 0.663869 0
M  V30 2507 H 226.702 0.585253 1.96051 0
M  V30 2508 H 226.712 -0.750104 4.01045 0
M  V30 2509 H 225.387 0.394922 4.14021 0
M  V30 2510 H 223.964 -1.31677 3.48877 0
M  V30 2511 N 226.149 -1.5696 0.141893 0
M  V30 2512 C 227.079 -2.19516 -0.795936 0
M  V30 2513 C 228.06 -1.14187 -1.26077 0
M  V30 2514 O 229.245 -1.42511 -1.31925 0
M  V30 2515 C 226.375 -2.81272 -2.03723 0
M  V30 2516 C 225.329 -3.92384 -1.70936 0
M  V30 2517 C 224.655 -4.41052 -3.02287 0
M  V30 2518 C 225.955 -5.13403 -0.959954 0
M  V30 2519 H 227.649 -2.98138 -0.274596 0
M  V30 2520 H 225.195 -1.43406 -0.130636 0
M  V30 2521 H 227.148 -3.237 -2.69808 0
M  V30 2522 H 225.872 -1.99973 -2.58221 0
M  V30 2523 H 224.531 -3.50566 -1.07232 0
M  V30 2524 H 224.179 -3.56582 -3.54765 0
M  V30 2525 H 223.879 -5.15993 -2.81114 0
M  V30 2526 H 225.403 -4.86146 -3.69451 0
M  V30 2527 H 226.817 -5.52706 -1.52279 0
M  V30 2528 H 225.214 -5.94073 -0.848357 0
M  V30 2529 H 226.284 -4.84875 0.0492434 0
M  V30 2530 N 227.627 0.131896 -1.57047 0
M  V30 2531 C 228.557 1.16384 -2.02428 0
M  V30 2532 C 229.538 1.43936 -0.90644 0
M  V30 2533 O 230.723 1.54599 -1.17528 0
M  V30 2534 C 227.853 2.49328 -2.4177 0
M  V30 2535 C 226.807 2.36266 -3.56879 0
M  V30 2536 C 226.133 3.74057 -3.8208 0
M  V30 2537 C 227.433 1.834 -4.89042 0
M  V30 2538 H 229.127 0.786433 -2.88887 0
M  V30 2539 H 226.673 0.376855 -1.38981 0
M  V30 2540 H 228.626 3.21759 -2.7212 0
M  V30 2541 H 227.35 2.88934 -1.52266 0
M  V30 2542 H 226.009 1.66286 -3.26718 0
M  V30 2543 H 225.657 4.11125 -2.89803 0
M  V30 2544 H 225.357 3.66174 -4.59554 0
M  V30 2545 H 226.881 4.48012 -4.1487 0
M  V30 2546 H 228.295 2.45636 -5.18011 0
M  V30 2547 H 226.692 1.8637 -5.70426 0
M  V30 2548 H 227.762 0.790662 -4.7841 0
M  V30 2549 N 229.106 1.52395 0.401703 0
M  V30 2550 C 230.016 1.7917 1.51444 0
M  V30 2551 C 231.032 0.677691 1.6026 0
M  V30 2552 O 232.208 0.963909 1.76835 0
M  V30 2553 C 229.273 1.94347 2.87107 0
M  V30 2554 C 228.334 3.18257 2.88116 0
M  V30 2555 C 227.567 3.32701 4.17308 0
M  V30 2556 O 227.79 2.52238 5.11598 0
M  V30 2557 O 226.724 4.25891 4.25324 0
M  V30 2558 H 230.55 2.73633 1.31752 0
M  V30 2559 H 228.135 1.3733 0.588296 0
M  V30 2560 H 230.017 2.06109 3.67555 0
M  V30 2561 H 228.692 1.03073 3.06851 0
M  V30 2562 H 227.599 3.11947 2.06494 0
M  V30 2563 H 228.932 4.09336 2.73322 0
M  V30 2564 N 230.584 -0.659388 1.43143 0
M  V30 2565 C 231.995 -1.24041 1.39537 0
M  V30 2566 C 232.346 -1.95963 0.0963364 0
M  V30 2567 O 231.471 -2.00892 -0.804438 0
M  V30 2568 C 232.066 -2.25601 2.52764 0
M  V30 2569 C 230.625 -2.79195 2.52443 0
M  V30 2570 C 229.772 -1.53743 2.30778 0
M  V30 2571 H 232.723 -0.451792 1.52133 0
M  V30 2572 H 232.744 -3.07651 2.23899 0
M  V30 2573 H 232.256 -1.73226 3.47296 0
M  V30 2574 H 230.357 -3.35649 1.61773 0
M  V30 2575 H 230.47 -3.2716 3.50004 0
M  V30 2576 H 228.834 -1.80869 1.79328 0
M  V30 2577 H 229.617 -1.03312 3.27386 0
M  V30 2578 N 232.062 -1.29571 -0.897171 0
M  V30 2579 C 233.287 -1.20705 -1.68656 0
M  V30 2580 C 233.712 0.228582 -1.86706 0
M  V30 2581 O 233.07 1.16494 -1.3892 0
M  V30 2582 C 233.118 -1.9282 -3.04717 0
M  V30 2583 O 232.222 -1.24697 -3.93096 0
M  V30 2584 H 231.563 -0.418126 -0.515816 0
M  V30 2585 H 234.093 -1.71183 -1.12061 0
M  V30 2586 H 234.103 -2.01372 -3.54843 0
M  V30 2587 H 232.778 -2.97239 -2.90899 0
M  V30 2588 H 231.355 -1.2442 -3.51531 0
M  V30 2589 N 233.54 1.10788 -1.12088 0
M  V30 2590 C 234.45 2.20599 -0.798338 0
M  V30 2591 C 235.466 1.72712 0.21135 0
M  V30 2592 O 236.642 2.01348 0.0458477 0
M  V30 2593 C 233.707 3.45771 -0.253674 0
M  V30 2594 C 232.768 4.08411 -1.32283 0
M  V30 2595 C 232.001 5.27608 -0.80406 0
M  V30 2596 O 232.224 5.69241 0.363478 0
M  V30 2597 O 231.158 5.8101 -1.57198 0
M  V30 2598 H 234.984 2.50614 -1.7154 0
M  V30 2599 H 232.569 1.19454 -0.897275 0
M  V30 2600 H 234.451 4.21376 0.0453691 0
M  V30 2601 H 233.126 3.1739 0.636005 0
M  V30 2602 H 232.033 3.34507 -1.67499 0
M  V30 2603 H 233.366 4.40986 -2.18614 0
M  V30 2604 N 235.018 0.912232 1.28515 0
M  V30 2605 C 235.951 0.343928 2.25593 0
M  V30 2606 C 236.929 -0.550994 1.5298 0
M  V30 2607 O 238.113 -0.494991 1.81885 0
M  V30 2608 C 235.24 -0.508525 3.34861 0
M  V30 2609 C 234.286 0.320808 4.25292 0
M  V30 2610 S 235.119 1.72658 5.06902 0
M  V30 2611 C 236.275 0.881394 6.19663 0
M  V30 2612 H 236.508 1.16674 2.73449 0
M  V30 2613 H 234.041 0.713384 1.36931 0
M  V30 2614 H 235.999 -0.994539 3.9827 0
M  V30 2615 H 234.66 -1.30571 2.85675 0
M  V30 2616 H 233.853 -0.330941 5.02912 0
M  V30 2617 H 233.455 0.74042 3.66598 0
M  V30 2618 H 235.747 0.110359 6.7741 0
M  V30 2619 H 236.69 1.63009 6.89082 0
M  V30 2620 H 237.098 0.430239 5.62858 0
M  V30 2621 N 236.496 -1.42363 0.676048 0
M  V30 2622 C 237.744 -2.01123 0.198437 0
M  V30 2623 C 238.065 -1.53731 -1.19966 0
M  V30 2624 O 237.335 -0.759518 -1.80577 0
M  V30 2625 H 235.915 -0.743678 0.0703721 0
M  V30 2626 H 238.577 -1.74263 0.872837 0
M  V30 2627 H 237.673 -3.11454 0.200686 0
M  V30 2628 N 237.974 -0.419461 -1.51915 0
M  V30 2629 C 239.39 -0.0708431 -1.59443 0
M  V30 2630 C 239.59 1.41796 -1.43164 0
M  V30 2631 O 238.646 2.18596 -1.26381 0
M  V30 2632 C 239.959 -0.574991 -2.95151 0
M  V30 2633 C 241.507 -0.533867 -3.08413 0
M  V30 2634 C 241.982 -1.01469 -4.46618 0
M  V30 2635 N 243.473 -0.971939 -4.52888 0
M  V30 2636 C 244.208 -1.31505 -5.58116 0
M  V30 2637 N 243.704 -1.73014 -6.70849 0
M  V30 2638 N 245.497 -1.23436 -5.48379 0
M  V30 2639 H 237.648 -1.38836 -1.60743 0
M  V30 2640 H 239.911 -0.570998 -0.756747 0
M  V30 2641 H 239.617 -1.61597 -3.12377 0
M  V30 2642 H 239.491 0.00979777 -3.77199 0
M  V30 2643 H 241.878 0.498086 -2.90866 0
M  V30 2644 H 241.959 -1.15484 -2.28248 0
M  V30 2645 H 241.603 -2.04502 -4.6491 0
M  V30 2646 H 241.533 -0.370433 -5.25295 0
M  V30 2647 H 244.024 -0.666893 -3.71969 0
M  V30 2648 H 244.337 -1.97479 -7.47143 0
M  V30 2649 H 242.682 -1.76926 -6.72103 0
M  V30 2650 H 245.873 -0.908869 -4.59192 0
M  V30 2651 H 246.046 -1.50506 -6.30279 0
M  V30 2652 N 239.452 1.56882 -0.150215 0
M  V30 2653 C 240.7 1.9584 0.499105 0
M  V30 2654 C 241.021 1.03623 1.65188 0
M  V30 2655 O 240.291 0.0984084 1.95653 0
M  V30 2656 H 238.871 0.723119 0.187373 0
M  V30 2657 H 241.533 1.9358 -0.226466 0
M  V30 2658 H 240.629 2.99638 0.873122 0
M  V30 2659 N 240.93 -0.123565 1.57115 0
M  V30 2660 C 242.158 -0.846461 1.88793 0
M  V30 2661 C 242.573 -1.73652 0.740976 0
M  V30 2662 O 241.93 -1.80207 -0.288393 0
M  V30 2663 C 241.981 -1.6837 3.19897 0
M  V30 2664 O 241.702 -0.829477 4.30176 0
M  V30 2665 C 243.203 -2.51214 3.65248 0
M  V30 2666 H 240.423 -0.243573 0.625231 0
M  V30 2667 H 242.967 -0.109324 2.04208 0
M  V30 2668 H 241.122 -2.37364 3.06165 0
M  V30 2669 H 241.536 -1.40651 5.0529 0
M  V30 2670 H 243.01 -3.05497 4.59756 0
M  V30 2671 H 243.487 -3.28359 2.9168 0
M  V30 2672 H 244.093 -1.8747 3.81752 0
M  V30 2673 N 242.408 -1.52605 -0.393616 0
M  V30 2674 C 243.819 -1.59417 -0.971761 0
M  V30 2675 C 244.17 -0.444173 -1.91106 0
M  V30 2676 O 243.295 0.433382 -2.12016 0
M  V30 2677 C 243.89 -2.88936 -1.76921 0
M  V30 2678 C 242.449 -2.98175 -2.29714 0
M  V30 2679 C 241.596 -2.54491 -1.10135 0
M  V30 2680 H 244.547 -1.57751 -0.173317 0
M  V30 2681 H 244.568 -2.75163 -2.62804 0
M  V30 2682 H 244.08 -3.72616 -1.08532 0
M  V30 2683 H 242.181 -2.19024 -3.01429 0
M  V30 2684 H 242.294 -4.02726 -2.59517 0
M  V30 2685 H 240.658 -2.08702 -1.45999 0
M  V30 2686 H 241.441 -3.4056 -0.432874 0
M  V30 2687 N 243.887 0.651787 -1.4349 0
M  V30 2688 C 244.817 1.77621 -1.51569 0
M  V30 2689 C 245.798 1.66022 -0.370253 0
M  V30 2690 O 246.983 1.85095 -0.587658 0
M  V30 2691 C 244.113 3.16056 -1.43966 0
M  V30 2692 C 243.067 3.4242 -2.56774 0
M  V30 2693 C 242.393 4.8067 -2.34223 0
M  V30 2694 C 243.693 3.37023 -3.99015 0
M  V30 2695 H 245.387 1.71117 -2.45681 0
M  V30 2696 H 242.933 0.821825 -1.18246 0
M  V30 2697 H 244.886 3.94472 -1.48221 0
M  V30 2698 H 243.61 3.23293 -0.463586 0
M  V30 2699 H 242.269 2.66375 -2.51873 0
M  V30 2700 H 241.917 4.84585 -1.34856 0
M  V30 2701 H 241.617 4.9927 -3.09844 0
M  V30 2702 H 243.141 5.61342 -2.40265 0
M  V30 2703 H 244.555 4.05374 -4.05395 0
M  V30 2704 H 242.952 3.67159 -4.74673 0
M  V30 2705 H 244.022 2.3518 -4.2405 0
M  V30 2706 N 245.365 1.30045 0.890287 0
M  V30 2707 C 246.781 1.08261 1.17268 0
M  V30 2708 C 246.981 -0.160063 2.00863 0
M  V30 2709 O 246.037 -0.855181 2.37577 0
M  V30 2710 C 247.35 2.34323 1.8845 0
M  V30 2711 C 248.898 2.39735 2.01237 0
M  V30 2712 C 249.373 3.65625 2.7583 0
M  V30 2713 N 250.864 3.66402 2.83379 0
M  V30 2714 C 251.599 4.60498 3.41657 0
M  V30 2715 N 251.095 5.64933 4.01026 0
M  V30 2716 N 252.888 4.48051 3.39421 0
M  V30 2717 H 245.039 2.09777 0.332762 0
M  V30 2718 H 247.302 0.92446 0.209948 0
M  V30 2719 H 247.008 3.2498 1.34465 0
M  V30 2720 H 246.882 2.4256 2.88867 0
M  V30 2721 H 249.269 1.4956 2.54393 0
M  V30 2722 H 249.35 2.35476 0.999232 0
M  V30 2723 H 248.994 4.56156 2.23347 0
M  V30 2724 H 248.924 3.67144 3.77509 0
M  V30 2725 H 251.415 2.90896 2.41222 0
M  V30 2726 H 251.728 6.32841 4.43545 0
M  V30 2727 H 250.073 5.68732 3.99461 0
M  V30 2728 H 253.264 3.65649 2.92264 0
M  V30 2729 H 253.437 5.21565 3.84544 0
M  V30 2730 N 246.843 -1.10192 1.12674 0
M  V30 2731 C 247.773 -2.18652 0.819362 0
M  V30 2732 C 248.754 -1.68698 -0.217915 0
M  V30 2733 O 249.939 -1.94041 -0.0785581 0
M  V30 2734 C 247.069 -3.46202 0.27594 0
M  V30 2735 C 246.023 -4.09444 1.24656 0
M  V30 2736 C 245.349 -5.31725 0.563258 0
M  V30 2737 C 246.649 -4.52863 2.60217 0
M  V30 2738 H 248.343 -2.44622 1.72628 0
M  V30 2739 H 245.889 -1.17571 0.831451 0
M  V30 2740 H 247.842 -4.21372 0.0486149 0
M  V30 2741 H 246.566 -3.1973 -0.666331 0
M  V30 2742 H 245.225 -3.36284 1.45974 0
M  V30 2743 H 244.873 -5.0153 -0.384235 0
M  V30 2744 H 244.573 -5.74991 1.21075 0
M  V30 2745 H 246.097 -6.09624 0.34503 0
M  V30 2746 H 247.511 -5.19294 2.42913 0
M  V30 2747 H 245.908 -5.06986 3.21068 0
M  V30 2748 H 246.978 -3.65656 3.18471 0
M  V30 2749 N 248.321 -0.919034 -1.28029 0
M  V30 2750 C 249.569 -0.553838 -1.94363 0
M  V30 2751 C 249.89 0.906357 -1.72656 0
M  V30 2752 O 249.16 1.64143 -1.0693 0
M  V30 2753 H 247.74 -0.201834 -0.719216 0
M  V30 2754 H 250.402 -1.16954 -1.55909 0
M  V30 2755 H 249.498 -0.752758 -3.02886 0
M  V30 2756 N 249.799 1.42003 -0.683588 0
M  V30 2757 C 251.046 2.01413 -0.209514 0
M  V30 2758 C 251.374 1.54088 1.1869 0
M  V30 2759 O 250.629 0.737591 1.81268 0
M  V30 2760 C 250.928 3.56827 -0.202357 0
M  V30 2761 C 250.594 4.23617 -1.54464 0
M  V30 2762 C 249.256 4.41577 -1.91215 0
M  V30 2763 C 251.608 4.61178 -2.42826 0
M  V30 2764 C 248.936 4.9437 -3.15935 0
M  V30 2765 C 251.288 5.15355 -3.66867 0
M  V30 2766 C 249.952 5.31528 -4.03776 0
M  V30 2767 H 249.222 0.737023 -0.0766668 0
M  V30 2768 H 251.869 1.70067 -0.880312 0
M  V30 2769 H 250.174 3.87892 0.551969 0
M  V30 2770 H 251.871 4.00588 0.181793 0
M  V30 2771 H 248.461 4.10004 -1.24877 0
M  V30 2772 H 252.645 4.46968 -2.15717 0
M  V30 2773 H 247.901 5.05076 -3.44541 0
M  V30 2774 H 252.075 5.43402 -4.35531 0
M  V30 2775 H 249.702 5.72199 -5.00492 0
M  V30 2776 N 251.277 0.427512 1.51691 0
M  V30 2777 C 252.523 -0.142439 2.02299 0
M  V30 2778 C 252.856 -1.43214 1.31162 0
M  V30 2779 O 252.131 -1.89833 0.423511 0
M  V30 2780 C 252.414 -0.371301 3.58181 0
M  V30 2781 C 252.267 0.936358 4.39946 0
M  V30 2782 C 253.586 -1.14542 4.24933 0
M  V30 2783 H 250.705 -0.0502937 0.735282 0
M  V30 2784 H 253.347 0.564584 1.81418 0
M  V30 2785 H 251.497 -0.973559 3.76104 0
M  V30 2786 H 253.169 1.57184 4.33694 0
M  V30 2787 H 251.412 1.5432 4.05423 0
M  V30 2788 H 252.083 0.730388 5.47147 0
M  V30 2789 H 254.559 -0.635362 4.11221 0
M  V30 2790 H 253.435 -1.27431 5.33903 0
M  V30 2791 H 253.696 -2.17093 3.85127 0
M  V30 2792 N 252.755 -1.56801 0.158532 0
M  V30 2793 C 253.718 -2.16138 -0.762705 0
M  V30 2794 C 254.718 -1.1061 -1.16713 0
M  V30 2795 O 255.908 -1.36191 -1.08617 0
M  V30 2796 C 253.04 -2.73386 -2.03649 0
M  V30 2797 H 254.233 -2.98886 -0.246354 0
M  V30 2798 H 251.786 -1.56035 -0.0909744 0
M  V30 2799 H 252.521 -1.94335 -2.59623 0
M  V30 2800 H 252.306 -3.50601 -1.75559 0
M  V30 2801 H 253.796 -3.19065 -2.6942 0
M  V30 2802 N 254.233 0.115231 -1.57178 0
M  V30 2803 C 255.481 0.820727 -1.84685 0
M  V30 2804 C 255.802 1.80237 -0.744279 0
M  V30 2805 O 255.072 1.94529 0.231375 0
M  V30 2806 H 253.652 0.306084 -0.681411 0
M  V30 2807 H 256.314 0.101656 -1.94635 0
M  V30 2808 H 255.41 1.36366 -2.80733 0
M  V30 2809 N 255.711 1.52812 0.385517 0
M  V30 2810 C 256.957 1.68275 1.13188 0
M  V30 2811 C 257.29 0.423179 1.89533 0
M  V30 2812 O 256.565 -0.579113 1.85679 0
M  V30 2813 C 256.848 2.92001 2.1073 0
M  V30 2814 C 256.701 4.28067 1.38125 0
M  V30 2815 C 258.02 3.11283 3.11113 0
M  V30 2816 H 255.139 0.612352 0.410115 0
M  V30 2817 H 257.781 1.85415 0.414869 0
M  V30 2818 H 255.931 2.77519 2.71874 0
M  V30 2819 H 257.603 4.54324 0.799187 0
M  V30 2820 H 255.846 4.28388 0.683092 0
M  V30 2821 H 256.517 5.10733 2.09417 0
M  V30 2822 H 258.993 3.2482 2.6006 0
M  V30 2823 H 257.869 3.99325 3.76605 0
M  V30 2824 H 258.13 2.25656 3.80173 0
M  V30 2825 N 257.189 -0.644168 1.43834 0
M  V30 2826 C 258.438 -1.39985 1.45214 0
M  V30 2827 C 258.751 -1.95421 0.0835494 0
M  V30 2828 O 259.957 -2.71488 -0.0251748 0
M  V30 2829 C 258.413 -2.53384 2.55587 0
M  V30 2830 C 258.021 -2.04517 3.98594 0
M  V30 2831 C 259.765 -3.30685 2.66172 0
M  V30 2832 C 257.672 -3.1518 5.00416 0
M  V30 2833 H 256.602 -0.526005 0.540218 0
M  V30 2834 H 259.253 -0.694367 1.69855 0
M  V30 2835 H 257.635 -3.26446 2.24163 0
M  V30 2836 H 258.809 -1.38405 4.39523 0
M  V30 2837 H 257.124 -1.40068 3.92135 0
M  V30 2838 H 259.721 -4.13158 3.39418 0
M  V30 2839 H 260.064 -3.79312 1.71546 0
M  V30 2840 H 260.597 -2.64708 2.96942 0
M  V30 2841 H 257.336 -2.71511 5.96625 0
M  V30 2842 H 256.856 -3.79974 4.64091 0
M  V30 2843 H 258.535 -3.80166 5.23529 0
M  V30 2844 N 258.668 -1.30515 -0.883378 0
M  V30 2845 C 259.616 -1.16941 -2.01066 0
M  V30 2846 C 260.61 -0.0809148 -1.69207 0
M  V30 2847 O 261.816 -0.241877 -1.78367 0
M  V30 2848 H 258.191 -0.361705 -0.659298 0
M  V30 2849 H 260.162 -2.12344 -2.09649 0
M  V30 2850 C 258.911 -0.879694 -3.36388 0
M  V30 2851 H 258.234 -1.70936 -3.61415 0
M  V30 2852 H 259.674 -0.82483 -4.159 0
M  V30 2853 C 258.133 0.417409 -3.34304 0
M  V30 2854 O 258.663 1.43843 -3.75063 0
M  V30 2855 N 256.869 0.429141 -2.87414 0
M  V30 2856 H 256.416 -0.402222 -2.5444 0
M  V30 2857 H 256.374 1.29696 -2.86403 0
M  V30 2858 N 260.146 1.09593 -1.13257 0
M  V30 2859 C 261.562 1.33775 -0.870423 0
M  V30 2860 C 261.762 1.95327 0.494926 0
M  V30 2861 O 260.818 2.19853 1.2418 0
M  V30 2862 C 262.131 2.25106 -1.99369 0
M  V30 2863 C 263.679 2.3862 -2.02558 0
M  V30 2864 C 264.154 3.33285 -3.14142 0
M  V30 2865 N 265.645 3.40857 -3.13641 0
M  V30 2866 C 266.38 4.14101 -3.96621 0
M  V30 2867 N 265.876 4.90157 -4.8961 0
M  V30 2868 N 267.669 4.09808 -3.84726 0
M  V30 2869 H 259.82 0.680136 -2.01216 0
M  V30 2870 H 262.083 0.362133 -0.876107 0
M  V30 2871 H 261.789 1.87103 -2.97801 0
M  V30 2872 H 261.663 3.25481 -1.90635 0
M  V30 2873 H 264.05 2.75887 -1.0474 0
M  V30 2874 H 264.131 1.38028 -2.15364 0
M  V30 2875 H 263.775 2.96741 -4.12198 0
M  V30 2876 H 263.705 4.33776 -2.98574 0
M  V30 2877 H 266.196 2.86624 -2.46282 0
M  V30 2878 H 266.509 5.4347 -5.49418 0
M  V30 2879 H 264.854 4.89251 -4.93617 0
M  V30 2880 H 268.045 3.4949 -3.11408 0
M  V30 2881 H 268.218 4.66629 -4.49623 0
M  V30 2882 N 261.624 0.925811 1.2754 0
M  V30 2883 C 262.534 0.428993 2.30644 0
M  V30 2884 C 263.55 -0.489387 1.66976 0
M  V30 2885 O 264.726 -0.372653 1.97922 0
M  V30 2886 C 261.791 -0.311967 3.45294 0
M  V30 2887 C 260.852 0.641098 4.24486 0
M  V30 2888 C 260.085 -0.0645955 5.33661 0
M  V30 2889 O 260.308 -1.28429 5.55754 0
M  V30 2890 O 259.242 0.606265 5.98839 0
M  V30 2891 H 263.068 1.28504 2.75173 0
M  V30 2892 H 260.653 0.691086 1.32455 0
M  V30 2893 H 262.535 -0.729972 4.15029 0
M  V30 2894 H 261.21 -1.14365 3.02824 0
M  V30 2895 H 260.117 1.10874 3.57292 0
M  V30 2896 H 261.45 1.43995 4.70666 0
M  V30 2897 N 263.102 -1.41638 0.69111 0
M  V30 2898 C 264.518 -1.55435 0.362224 0
M  V30 2899 C 264.718 -1.66754 -1.13117 0
M  V30 2900 O 263.774 -1.64348 -1.91692 0
M  V30 2901 C 265.087 -2.79588 1.10684 0
M  V30 2902 C 266.635 -2.9338 1.09075 0
M  V30 2903 C 267.11 -4.20414 1.81703 0
M  V30 2904 N 268.601 -4.27362 1.7865 0
M  V30 2905 C 269.336 -5.24507 2.31689 0
M  V30 2906 N 268.832 -6.27708 2.93179 0
M  V30 2907 N 270.625 -5.16416 2.2197 0
M  V30 2908 H 262.776 -1.32536 1.65976 0
M  V30 2909 H 265.039 -0.639115 0.700168 0
M  V30 2910 H 264.745 -2.77419 2.16175 0
M  V30 2911 H 264.619 -3.70973 0.682545 0
M  V30 2912 H 267.006 -2.95067 0.0441238 0
M  V30 2913 H 267.087 -2.0318 1.55407 0
M  V30 2914 H 266.731 -4.19488 2.86343 0
M  V30 2915 H 266.661 -5.09578 1.32808 0
M  V30 2916 H 269.152 -3.53415 1.33815 0
M  V30 2917 H 269.465 -6.98217 3.31229 0
M  V30 2918 H 267.81 -6.28223 2.97255 0
M  V30 2919 H 271.001 -4.34716 1.73607 0
M  V30 2920 H 271.174 -5.91958 2.63609 0
M  V30 2921 N 264.58 -0.43555 -1.51462 0
M  V30 2922 C 265.829 0.133007 -2.01261 0
M  V30 2923 C 266.142 1.43942 -1.32439 0
M  V30 2924 O 267.348 2.09081 -1.73198 0
M  V30 2925 C 265.804 0.287581 -3.58749 0
M  V30 2926 C 265.412 -1.00829 -4.36506 0
M  V30 2927 C 267.156 0.810004 -4.167 0
M  V30 2928 C 265.063 -0.819454 -5.85695 0
M  V30 2929 H 263.993 0.0534822 -0.752101 0
M  V30 2930 H 266.644 -0.565038 -1.74584 0
M  V30 2931 H 265.026 1.04859 -3.81865 0
M  V30 2932 H 266.2 -1.77749 -4.25138 0
M  V30 2933 H 264.515 -1.45911 -3.89999 0
M  V30 2934 H 267.112 0.967743 -5.2587 0
M  V30 2935 H 267.455 1.79196 -3.75758 0
M  V30 2936 H 267.988 0.107357 -3.97655 0
M  V30 2937 H 264.727 -1.77374 -6.31046 0
M  V30 2938 H 264.247 -0.0900208 -5.99732 0
M  V30 2939 H 265.926 -0.471949 -6.45276 0
M  V30 2940 N 266.058 1.56714 -0.166846 0
M  V30 2941 C 267.469 1.83378 0.350646 0
M  V30 2942 C 267.82 1.08646 1.63372 0
M  V30 2943 O 266.945 0.338058 2.13743 0
M  V30 2944 C 267.54 3.32643 0.642963 0
M  V30 2945 C 266.099 3.59818 1.10491 0
M  V30 2946 C 265.246 2.76954 0.138411 0
M  V30 2947 H 268.197 1.53803 -0.391193 0
M  V30 2948 H 268.218 3.49878 1.49551 0
M  V30 2949 H 267.73 3.87007 -0.291055 0
M  V30 2950 H 265.831 3.1086 2.05418 0
M  V30 2951 H 265.944 4.68178 1.01716 0
M  V30 2952 H 264.308 2.4666 0.634911 0
M  V30 2953 H 265.091 3.34097 -0.789549 0
M  V30 2954 N 267.536 -0.106894 1.57237 0
M  V30 2955 C 268.764 -0.826389 1.8968 0
M  V30 2956 C 269.179 -1.72856 0.759353 0
M  V30 2957 O 268.536 -1.80503 -0.269263 0
M  V30 2958 C 268.587 -1.64967 3.21665 0
M  V30 2959 O 268.308 -0.783804 4.31031 0
M  V30 2960 C 269.809 -2.47326 3.67892 0
M  V30 2961 H 267.029 -0.236927 0.627779 0
M  V30 2962 H 269.573 -0.0876593 2.04312 0
M  V30 2963 H 267.728 -2.34103 3.08666 0
M  V30 2964 H 268.142 -1.35284 5.06753 0
M  V30 2965 H 269.616 -3.00604 4.6297 0
M  V30 2966 H 270.093 -3.25247 2.95146 0
M  V30 2967 H 270.699 -1.83411 3.83719 0
M  V30 2968 N 269.014 -1.53014 -0.377408 0
M  V30 2969 C 270.261 -1.68623 -1.12128 0
M  V30 2970 C 270.589 -0.431997 -1.89642 0
M  V30 2971 O 269.844 0.585855 -1.86725 0
M  V30 2972 C 270.143 -2.87982 -2.11663 0
M  V30 2973 C 269.809 -4.24964 -1.50719 0
M  V30 2974 C 268.471 -4.62217 -1.33825 0
M  V30 2975 C 270.823 -5.10199 -1.06519 0
M  V30 2976 C 268.151 -5.82352 -0.712963 0
M  V30 2977 C 270.503 -6.30969 -0.453955 0
M  V30 2978 C 269.167 -6.66944 -0.272411 0
M  V30 2979 H 268.437 -0.617034 -0.410305 0
M  V30 2980 H 271.084 -1.8718 -0.404484 0
M  V30 2981 H 269.389 -2.63889 -2.89603 0
M  V30 2982 H 271.086 -2.97253 -2.6915 0
M  V30 2983 H 267.676 -3.95626 -1.64858 0
M  V30 2984 H 271.86 -4.81978 -1.18368 0
M  V30 2985 H 267.116 -6.08824 -0.560611 0
M  V30 2986 H 271.29 -6.96324 -0.103217 0
M  V30 2987 H 268.917 -7.59898 0.214181 0
M  V30 2988 N 270.492 0.636531 -1.44174 0
M  V30 2989 C 271.402 1.77754 -1.53103 0
M  V30 2990 C 272.418 1.68928 -0.417034 0
M  V30 2991 O 273.594 1.89801 -0.6736 0
M  V30 2992 C 270.659 3.14115 -1.46741 0
M  V30 2993 C 269.72 3.34612 -2.68948 0
M  V30 2994 C 268.953 4.64467 -2.6288 0
M  V30 2995 O 269.176 5.44919 -1.68581 0
M  V30 2996 O 268.11 4.87049 -3.53648 0
M  V30 2997 H 271.936 1.73174 -2.49489 0
M  V30 2998 H 269.521 0.79709 -1.2636 0
M  V30 2999 H 271.403 3.95412 -1.45696 0
M  V30 3000 H 270.078 3.19249 -0.534975 0
M  V30 3001 H 268.985 2.53014 -2.75562 0
M  V30 3002 H 270.318 3.34336 -3.61221 0
M  V30 3003 N 271.97 1.30982 0.876444 0
M  V30 3004 C 273.386 1.09498 1.16113 0
M  V30 3005 C 273.586 -0.13875 2.01022 0
M  V30 3006 O 272.642 -0.829935 2.38471 0
M  V30 3007 C 273.955 2.36308 1.85954 0
M  V30 3008 C 275.503 2.41856 1.98683 0
M  V30 3009 C 275.978 3.6853 2.71937 0
M  V30 3010 N 277.469 3.69387 2.79477 0
M  V30 3011 C 278.204 4.64096 3.36753 0
M  V30 3012 N 277.7 5.69155 3.95012 0
M  V30 3013 N 279.493 4.51626 3.3465 0
M  V30 3014 H 271.644 2.10118 0.310494 0
M  V30 3015 H 273.907 0.926634 0.200131 0
M  V30 3016 H 273.613 3.26388 1.31011 0
M  V30 3017 H 273.487 2.4561 2.86278 0
M  V30 3018 H 275.874 1.52249 2.52793 0
M  V30 3019 H 275.955 2.36523 0.9742 0
M  V30 3020 H 275.599 4.58499 2.18496 0
M  V30 3021 H 275.529 3.71127 3.73593 0
M  V30 3022 H 278.02 2.93438 2.38123 0
M  V30 3023 H 278.333 6.3751 4.36808 0
M  V30 3024 H 276.678 5.72937 3.93406 0
M  V30 3025 H 279.869 3.68728 2.8837 0
M  V30 3026 H 280.042 5.25614 3.7899 0
M  V30 3027 N 273.449 -1.08991 1.13837 0
M  V30 3028 C 274.382 -2.15049 0.763477 0
M  V30 3029 C 275.36 -1.60629 -0.252398 0
M  V30 3030 O 276.544 -1.87958 -0.142853 0
M  V30 3031 C 273.671 -3.38441 0.132545 0
M  V30 3032 C 272.717 -4.11596 1.11763 0
M  V30 3033 S 273.55 -4.6521 2.65216 0
M  V30 3034 C 274.706 -5.91896 2.03495 0
M  V30 3035 H 274.939 -2.46518 1.66182 0
M  V30 3036 H 272.472 -1.21008 0.958976 0
M  V30 3037 H 274.43 -4.09883 -0.225074 0
M  V30 3038 H 273.091 -3.05182 -0.743135 0
M  V30 3039 H 272.284 -5.00121 0.624076 0
M  V30 3040 H 271.886 -3.46038 1.41894 0
M  V30 3041 H 274.178 -6.63156 1.38675 0
M  V30 3042 H 275.121 -6.45938 2.9012 0
M  V30 3043 H 275.529 -5.44625 1.48471 0
M  V30 3044 N 274.927 -0.932562 -1.27047 0
M  V30 3045 C 275.857 -0.452902 -2.29066 0
M  V30 3046 C 276.838 0.489338 -1.62909 0
M  V30 3047 O 278.023 0.393046 -1.90181 0
M  V30 3048 C 275.153 0.290698 -3.46081 0
M  V30 3049 C 274.107 -0.564168 -4.24265 0
M  V30 3050 C 273.433 0.308886 -5.33807 0
M  V30 3051 C 274.733 -1.83112 -4.89149 0
M  V30 3052 H 276.427 -1.30552 -2.69437 0
M  V30 3053 H 273.973 -0.629201 -1.29526 0
M  V30 3054 H 275.926 0.637233 -4.16554 0
M  V30 3055 H 274.65 1.17738 -3.0464 0
M  V30 3056 H 273.309 -0.893477 -3.55545 0
M  V30 3057 H 272.957 1.19467 -4.88607 0
M  V30 3058 H 272.657 -0.259633 -5.87026 0
M  V30 3059 H 274.181 0.650884 -6.07121 0
M  V30 3060 H 275.595 -1.55236 -5.51883 0
M  V30 3061 H 273.992 -2.34353 -5.52448 0
M  V30 3062 H 275.062 -2.54772 -4.12576 0
M  V30 3063 N 276.405 1.4127 -0.698611 0
M  V30 3064 C 277.651 2.01979 -0.239972 0
M  V30 3065 C 278.006 1.54353 1.14861 0
M  V30 3066 O 277.299 0.746218 1.76471 0
M  V30 3067 C 277.493 3.56592 -0.240192 0
M  V30 3068 C 277.322 4.19226 -1.62726 0
M  V30 3069 C 276.092 4.53389 -2.23084 0
M  V30 3070 C 278.29 4.45228 -2.57443 0
M  V30 3071 N 276.272 5.01327 -3.54323 0
M  V30 3072 C 277.643 4.94973 -3.73365 0
M  V30 3073 C 279.698 4.27243 -2.55671 0
M  V30 3074 C 278.401 5.28624 -4.878 0
M  V30 3075 C 280.427 4.61985 -3.69221 0
M  V30 3076 C 279.789 5.11904 -4.83873 0
M  V30 3077 H 275.888 0.770561 -0.133269 0
M  V30 3078 H 278.472 1.71767 -0.916748 0
M  V30 3079 H 276.643 3.86271 0.406082 0
M  V30 3080 H 278.375 4.04025 0.23356 0
M  V30 3081 H 275.13 4.39946 -1.75341 0
M  V30 3082 H 275.554 5.29697 -4.21604 0
M  V30 3083 H 280.196 3.87884 -1.68243 0
M  V30 3084 H 277.914 5.66905 -5.75885 0
M  V30 3085 H 281.5 4.49725 -3.69105 0
M  V30 3086 H 280.38 5.38282 -5.70282 0
M  V30 3087 N 277.883 0.443576 1.51229 0
M  V30 3088 C 279.299 0.0962001 1.5931 0
M  V30 3089 C 279.499 -1.39501 1.45402 0
M  V30 3090 O 278.555 -2.16557 1.29843 0
M  V30 3091 C 279.868 0.621875 2.94199 0
M  V30 3092 C 281.416 0.582865 3.07525 0
M  V30 3093 C 281.891 1.08562 4.44948 0
M  V30 3094 N 283.382 1.04387 4.51284 0
M  V30 3095 C 284.117 1.40368 5.55954 0
M  V30 3096 N 283.613 1.83664 6.68011 0
M  V30 3097 N 285.406 1.32145 5.46346 0
M  V30 3098 H 277.557 1.41376 1.58514 0
M  V30 3099 H 279.82 0.582965 0.747567 0
M  V30 3100 H 279.526 1.66546 3.09767 0
M  V30 3101 H 279.4 0.0502125 3.77167 0
M  V30 3102 H 281.787 -0.451749 2.91622 0
M  V30 3103 H 281.868 1.191 2.26382 0
M  V30 3104 H 281.512 2.11873 4.61598 0
M  V30 3105 H 281.442 0.453956 5.2464 0
M  V30 3106 H 283.933 0.725986 3.70861 0
M  V30 3107 H 284.246 2.0934 7.43906 0
M  V30 3108 H 282.591 1.87596 6.69203 0
M  V30 3109 H 285.782 0.981808 4.57688 0
M  V30 3110 H 285.955 1.60514 6.27805 0
M  V30 3111 N 279.361 -1.56624 0.175154 0
M  V30 3112 C 280.607 -1.9729 -0.469506 0
M  V30 3113 C 280.94 -1.06128 -1.62636 0
M  V30 3114 O 280.215 -0.109183 -1.94193 0
M  V30 3115 C 280.498 -3.47375 -0.948804 0
M  V30 3116 C 280.351 -4.49317 0.208491 0
M  V30 3117 C 281.67 -4.00652 -1.82116 0
M  V30 3118 H 278.789 -0.717317 -0.16919 0
M  V30 3119 H 281.431 -1.88184 0.262062 0
M  V30 3120 H 279.581 -3.55267 -1.57219 0
M  V30 3121 H 281.253 -4.53482 0.845682 0
M  V30 3122 H 279.496 -4.25121 0.863395 0
M  V30 3123 H 280.167 -5.51741 -0.169059 0
M  V30 3124 H 282.643 -3.95416 -1.2956 0
M  V30 3125 H 281.519 -5.06075 -2.12554 0
M  V30 3126 H 281.78 -3.44699 -2.7683 0
M  V30 3127 N 280.839 0.0985539 -1.57292 0
M  V30 3128 C 282.079 0.808332 -1.87737 0
M  V30 3129 C 282.443 1.7607 -0.76572 0
M  V30 3130 O 283.644 2.51358 -0.952499 0
M  V30 3131 C 281.915 1.52093 -3.23423 0
M  V30 3132 S 283.474 2.26947 -3.75554 0
M  V30 3133 H 280.292 0.269377 -0.657995 0
M  V30 3134 H 282.894 0.0656269 -1.9539 0
M  V30 3135 H 281.598 0.81363 -4.02254 0
M  V30 3136 H 281.129 2.30361 -3.189 0
M  V30 3137 H 283.144 3.53027 -3.48692 0
M  V30 3138 N 282.317 1.53212 0.369288 0
M  V30 3139 C 283.733 1.42902 0.710712 0
M  V30 3140 C 283.933 0.565135 1.93413 0
M  V30 3141 O 282.989 0.0461484 2.52458 0
M  V30 3142 C 284.302 2.86042 0.927382 0
M  V30 3143 C 285.85 2.9565 1.02762 0
M  V30 3144 C 286.325 4.39843 1.27679 0
M  V30 3145 N 287.816 4.43256 1.34457 0
M  V30 3146 C 288.551 5.51929 1.55439 0
M  V30 3147 N 288.047 6.70655 1.73762 0
M  V30 3148 N 289.84 5.39502 1.57779 0
M  V30 3149 H 281.991 2.07888 -0.435457 0
M  V30 3150 H 284.254 0.938661 -0.132739 0
M  V30 3151 H 283.96 3.51557 0.100287 0
M  V30 3152 H 283.834 3.29472 1.83653 0
M  V30 3153 H 286.221 2.30291 1.84527 0
M  V30 3154 H 286.302 2.5562 0.0959504 0
M  V30 3155 H 285.946 5.05774 0.464175 0
M  V30 3156 H 285.876 4.77443 2.22162 0
M  V30 3157 H 288.367 3.5769 1.21926 0
M  V30 3158 H 288.68 7.49248 1.89335 0
M  V30 3159 H 287.025 6.73648 1.70948 0
M  V30 3160 H 290.216 4.45713 1.43029 0
M  V30 3161 H 290.389 6.2426 1.7379 0
M  V30 3162 N 283.795 -0.628877 1.44509 0
M  V30 3163 C 285.043 -1.38565 1.4712 0
M  V30 3164 C 285.364 -1.94712 0.105899 0
M  V30 3165 O 284.634 -1.75912 -0.862079 0
M  V30 3166 H 283.214 -0.514333 0.541729 0
M  V30 3167 H 285.876 -0.740018 1.80305 0
M  V30 3168 H 284.972 -2.21583 2.19789 0
M  V30 3169 N 285.273 -1.31445 -0.869486 0
M  V30 3170 C 286.221 -1.19067 -1.99814 0
M  V30 3171 C 287.215 -0.0988569 -1.69111 0
M  V30 3172 O 288.421 -0.260781 -1.78101 0
M  V30 3173 H 284.796 -0.368677 -0.655425 0
M  V30 3174 H 286.767 -2.14555 -2.07385 0
M  V30 3175 C 285.516 -0.915323 -3.35436 0
M  V30 3176 H 284.839 -1.74759 -3.59582 0
M  V30 3177 H 286.279 -0.868895 -4.15001 0
M  V30 3178 C 284.738 0.381928 -3.34728 0
M  V30 3179 O 285.268 1.39857 -3.76567 0
M  V30 3180 N 283.474 0.398633 -2.87853 0
M  V30 3181 H 283.021 -0.429186 -2.54 0
M  V30 3182 H 282.979 1.26651 -2.87762 0
M  V30 3183 N 286.751 1.08385 -1.14413 0
M  V30 3184 C 287.997 1.81044 -0.913834 0
M  V30 3185 C 288.33 1.86004 0.558209 0
M  V30 3186 O 287.605 1.33606 1.4135 0
M  V30 3187 C 287.888 3.26648 -1.51569 0
M  V30 3188 C 287.741 3.29895 -3.0576 0
M  V30 3189 C 289.06 4.23629 -1.19273 0
M  V30 3190 H 286.179 0.65727 -0.333414 0
M  V30 3191 H 288.821 1.26896 -1.41412 0
M  V30 3192 H 286.971 3.72889 -1.09023 0
M  V30 3193 H 288.643 2.91977 -3.57137 0
M  V30 3194 H 286.886 2.69163 -3.40197 0
M  V30 3195 H 287.557 4.32516 -3.42977 0
M  V30 3196 H 290.033 3.85727 -1.56057 0
M  V30 3197 H 288.909 5.23822 -1.64017 0
M  V30 3198 H 289.17 4.41968 -0.108068 0
M  V30 3199 N 288.23 0.939286 1.26551 0
M  V30 3200 C 289.477 0.585847 1.9384 0
M  V30 3201 C 289.805 -0.874784 1.73718 0
M  V30 3202 O 289.06 -1.64092 1.06642 0
M  V30 3203 C 289.359 0.872106 3.46596 0
M  V30 3204 C 289.025 2.31632 3.86856 0
M  V30 3205 C 287.687 2.71111 3.97558 0
M  V30 3206 C 290.039 3.25494 4.07066 0
M  V30 3207 C 287.367 4.03553 4.25866 0
M  V30 3208 C 289.719 4.57531 4.36862 0
M  V30 3209 C 288.383 4.96828 4.45778 0
M  V30 3210 H 287.653 0.214377 0.709312 0
M  V30 3211 H 290.3 1.18544 1.50398 0
M  V30 3212 H 288.605 0.18996 3.91339 0
M  V30 3213 H 290.302 0.577442 3.96821 0
M  V30 3214 H 286.892 2.00008 3.79071 0
M  V30 3215 H 291.076 2.9619 3.98227 0
M  V30 3216 H 286.332 4.33665 4.30981 0
M  V30 3217 H 290.506 5.30254 4.51446 0
M  V30 3218 H 288.133 5.99482 4.67468 0
M  V30 3219 N 289.708 -1.40897 0.706093 0
M  V30 3220 C 290.638 -2.33418 0.0620085 0
M  V30 3221 C 291.619 -1.52385 -0.755827 0
M  V30 3222 O 292.804 -1.80886 -0.706674 0
M  V30 3223 C 289.934 -3.36293 -0.867445 0
M  V30 3224 C 288.888 -4.27716 -0.155932 0
M  V30 3225 C 288.214 -5.2105 -1.20046 0
M  V30 3226 C 289.514 -5.12944 0.984149 0
M  V30 3227 H 291.208 -2.87527 0.83477 0
M  V30 3228 H 288.754 -1.38249 0.402875 0
M  V30 3229 H 290.707 -3.99949 -1.32735 0
M  V30 3230 H 289.431 -2.80556 -1.67199 0
M  V30 3231 H 288.09 -3.65498 0.284047 0
M  V30 3232 H 287.738 -4.61624 -1.99781 0
M  V30 3233 H 287.438 -5.83056 -0.729328 0
M  V30 3234 H 288.962 -5.87584 -1.66066 0
M  V30 3235 H 290.376 -5.70109 0.604048 0
M  V30 3236 H 288.773 -5.83945 1.38304 0
M  V30 3237 H 289.843 -4.49485 1.81911 0
M  V30 3238 N 291.186 -0.45159 -1.50991 0
M  V30 3239 C 292.602 -0.104647 -1.59257 0
M  V30 3240 C 292.802 1.38728 -1.4614 0
M  V30 3241 O 291.858 2.15866 -1.30989 0
M  V30 3242 C 293.171 -0.637468 -2.93865 0
M  V30 3243 C 294.719 -0.599166 -3.07212 0
M  V30 3244 C 295.194 -1.1092 -4.44366 0
M  V30 3245 N 296.685 -1.06778 -4.50725 0
M  V30 3246 C 297.42 -1.43314 -5.55201 0
M  V30 3247 N 296.916 -1.87204 -6.67028 0
M  V30 3248 N 298.709 -1.3504 -5.45638 0
M  V30 3249 H 290.86 -1.42214 -1.57762 0
M  V30 3250 H 293.123 -0.586921 -0.744465 0
M  V30 3251 H 292.829 -1.68187 -3.08879 0
M  V30 3252 H 292.703 -0.0702139 -3.77135 0
M  V30 3253 H 295.09 0.436277 -2.91857 0
M  V30 3254 H 295.171 -1.20299 -2.25747 0
M  V30 3255 H 294.815 -2.14318 -4.60467 0
M  V30 3256 H 294.745 -0.481773 -5.24392 0
M  V30 3257 H 297.236 -0.745643 -3.70471 0
M  V30 3258 H 297.549 -2.13282 -7.42786 0
M  V30 3259 H 295.894 -1.91142 -6.68199 0
M  V30 3260 H 299.085 -1.00607 -4.57161 0
M  V30 3261 H 299.258 -1.63841 -6.26945 0
M  V30 3262 N 292.664 1.56529 -0.183458 0
M  V30 3263 C 293.596 2.15747 0.773697 0
M  V30 3264 C 294.609 1.1162 1.1851 0
M  V30 3265 O 295.798 1.3876 1.12285 0
M  V30 3266 C 292.898 2.6952 2.05456 0
M  V30 3267 C 292.071 3.98429 1.8048 0
M  V30 3268 C 291.13 4.37145 2.92901 0
M  V30 3269 O 290.156 5.04791 2.6301 0
M  V30 3270 N 291.358 3.99695 4.2098 0
M  V30 3271 H 294.123 2.98505 0.26736 0
M  V30 3272 H 291.684 1.619 -0.0010878 0
M  V30 3273 H 293.676 2.92412 2.79781 0
M  V30 3274 H 292.246 1.91282 2.47245 0
M  V30 3275 H 291.466 3.8379 0.899947 0
M  V30 3276 H 292.754 4.82597 1.61175 0
M  V30 3277 H 292.152 3.4526 4.48121 0
M  V30 3278 H 290.709 4.27562 4.9197 0
M  V30 3279 N 294.142 -0.090211 1.57342 0
M  V30 3280 C 295.105 -1.09335 2.01441 0
M  V30 3281 C 296.105 -1.32666 0.908641 0
M  V30 3282 O 297.295 -1.28697 1.174 0
M  V30 3283 C 294.427 -2.44136 2.3793 0
M  V30 3284 H 295.62 -0.713662 2.91285 0
M  V30 3285 H 293.173 -0.335404 1.52659 0
M  V30 3286 H 293.908 -2.86972 1.51055 0
M  V30 3287 H 293.693 -2.28548 3.18603 0
M  V30 3288 H 295.183 -3.16277 2.72688 0
M  V30 3289 N 295.62 -1.53406 -0.361157 0
M  V30 3290 C 296.53 -1.83122 -1.4664 0
M  V30 3291 C 297.546 -0.719943 -1.58407 0
M  V30 3292 O 298.722 -1.01046 -1.74218 0
M  V30 3293 C 295.787 -2.01891 -2.81853 0
M  V30 3294 C 294.848 -3.25784 -2.79577 0
M  V30 3295 C 294.081 -3.43648 -4.0834 0
M  V30 3296 O 294.304 -2.65714 -5.0473 0
M  V30 3297 O 293.238 -4.37018 -4.13883 0
M  V30 3298 H 297.064 -2.7703 -1.24451 0
M  V30 3299 H 294.649 -1.38841 -0.551678 0
M  V30 3300 H 296.531 -2.15782 -3.61962 0
M  V30 3301 H 295.206 -1.11173 -3.0401 0
M  V30 3302 H 294.113 -3.17312 -1.98151 0
M  V30 3303 H 295.446 -4.16439 -2.62373 0
M  V30 3304 N 297.098 0.621204 -1.44841 0
M  V30 3305 C 298.347 1.37658 -1.47422 0
M  V30 3306 C 298.66 1.95264 -0.114629 0
M  V30 3307 O 299.866 2.71494 -0.0180199 0
M  V30 3308 C 298.322 2.49285 -2.59586 0
M  V30 3309 C 297.93 1.98149 -4.01797 0
M  V30 3310 C 299.674 3.26409 -2.71399 0
M  V30 3311 C 297.581 3.07178 -5.05367 0
M  V30 3312 H 296.511 0.517344 -0.548517 0
M  V30 3313 H 299.162 0.667257 -1.70938 0
M  V30 3314 H 297.544 3.22839 -2.29328 0
M  V30 3315 H 298.718 1.31395 -4.41669 0
M  V30 3316 H 297.033 1.33812 -3.94314 0
M  V30 3317 H 299.63 4.07706 -3.45948 0
M  V30 3318 H 299.973 3.76535 -1.77559 0
M  V30 3319 H 300.506 2.5995 -3.01116 0
M  V30 3320 H 297.245 2.61985 -6.00869 0
M  V30 3321 H 296.765 3.72542 -4.70077 0
M  V30 3322 H 298.444 3.71789 -5.29511 0
M  V30 3323 N 298.576 1.31904 0.862503 0
M  V30 3324 C 299.486 1.22161 2.00285 0
M  V30 3325 C 300.502 0.136785 1.73462 0
M  V30 3326 O 301.678 0.355994 1.98229 0
M  V30 3327 C 298.743 0.937093 3.33796 0
M  V30 3328 C 297.804 2.10957 3.73893 0
M  V30 3329 C 297.037 1.83853 5.01033 0
M  V30 3330 O 297.26 0.777274 5.65079 0
M  V30 3331 O 296.194 2.69741 5.38074 0
M  V30 3332 H 300.02 2.18008 2.11439 0
M  V30 3333 H 297.605 1.11716 0.991957 0
M  V30 3334 H 299.487 0.794583 4.13841 0
M  V30 3335 H 298.162 0.00871894 3.23699 0
M  V30 3336 H 297.069 2.30752 2.94456 0
M  V30 3337 H 298.402 3.02046 3.88625 0
M  V30 3338 N 300.054 -1.07777 1.14986 0
M  V30 3339 C 301.002 -2.16964 0.838406 0
M  V30 3340 C 301.996 -1.68372 -0.186386 0
M  V30 3341 O 303.202 -1.79951 -0.0418465 0
M  V30 3342 H 299.577 -0.708006 0.253439 0
M  V30 3343 H 301.548 -2.40454 1.76704 0
M  V30 3344 C 300.297 -3.4604 0.339335 0
M  V30 3345 H 299.62 -3.83813 1.11927 0
M  V30 3346 H 301.06 -4.23698 0.160021 0
M  V30 3347 C 299.519 -3.23569 -0.938325 0
M  V30 3348 O 300.049 -3.47752 -2.01077 0
M  V30 3349 N 298.255 -2.77079 -0.876117 0
M  V30 3350 H 297.802 -2.576 -0.00322037 0
M  V30 3351 H 297.76 -2.62422 -1.73153 0
M  V30 3352 N 301.532 -0.945985 -1.26051 0
M  V30 3353 C 302.943 -0.638096 -1.75457 0
M  V30 3354 C 303.294 0.846672 -1.76991 0
M  V30 3355 O 302.419 1.66262 -1.38513 0
M  V30 3356 C 303.014 -1.15157 -3.18629 0
M  V30 3357 C 301.573 -0.894004 -3.65629 0
M  V30 3358 C 300.72 -1.29967 -2.44957 0
M  V30 3359 H 303.671 -1.12376 -1.1206 0
M  V30 3360 H 303.692 -0.507615 -3.77099 0
M  V30 3361 H 303.204 -2.23222 -3.1748 0
M  V30 3362 H 301.305 0.172057 -3.72203 0
M  V30 3363 H 301.418 -1.52439 -4.54202 0
M  V30 3364 H 299.782 -0.718078 -2.44368 0
M  V30 3365 H 300.565 -2.38935 -2.46505 0
M  V30 3366 N 303.011 1.40521 -0.713556 0
M  V30 3367 C 303.941 2.33381 -0.0743864 0
M  V30 3368 C 304.922 1.52784 0.747735 0
M  V30 3369 O 306.107 1.81258 0.697071 0
M  V30 3370 C 303.237 3.36748 0.849598 0
M  V30 3371 C 302.191 4.27793 0.133247 0
M  V30 3372 C 301.517 5.21679 1.17281 0
M  V30 3373 C 302.817 5.12415 -1.01134 0
M  V30 3374 H 304.511 2.87081 -0.850007 0
M  V30 3375 H 302.057 1.38034 -0.410201 0
M  V30 3376 H 304.01 4.00648 1.30612 0
M  V30 3377 H 302.734 2.81439 1.65709 0
M  V30 3378 H 301.393 3.65342 -0.303426 0
M  V30 3379 H 301.041 4.62677 1.9733 0
M  V30 3380 H 300.741 5.83435 0.698397 0
M  V30 3381 H 302.265 5.88456 1.62947 0
M  V30 3382 H 303.679 5.69781 -0.634274 0
M  V30 3383 H 302.076 5.83203 -1.41399 0
M  V30 3384 H 303.146 4.48514 -1.84292 0
M  V30 3385 N 304.489 0.459591 1.5075 0
M  V30 3386 C 305.399 -0.34613 2.32033 0
M  V30 3387 C 306.415 -1.00686 1.41909 0
M  V30 3388 O 307.591 -0.997361 1.7497 0
M  V30 3389 C 304.656 -1.42029 3.16273 0
M  V30 3390 C 303.717 -0.777362 4.22203 0
M  V30 3391 C 302.95 -1.80034 5.02418 0
M  V30 3392 O 303.173 -3.02544 4.83553 0
M  V30 3393 O 302.107 -1.37853 5.85901 0
M  V30 3394 H 305.933 0.318054 3.0203 0
M  V30 3395 H 303.518 0.221663 1.47746 0
M  V30 3396 H 305.4 -2.04275 3.68578 0
M  V30 3397 H 304.075 -2.06815 2.49016 0
M  V30 3398 H 302.982 -0.116256 3.73919 0
M  V30 3399 H 304.315 -0.172634 4.91897 0
M  V30 3400 N 305.967 -1.56429 0.191757 0
M  V30 3401 C 307.244 -1.89224 -0.495332 0
M  V30 3402 C 307.624 -1.10478 -1.79883 0
M  V30 3403 O 306.972 -0.204852 -2.2758 0
M  V30 3404 C 307.182 -3.41548 -0.717367 0
M  V30 3405 C 308.53 -4.11711 -1.03823 0
M  V30 3406 O 309.554 -3.4698 -0.805204 0
M  V30 3407 O 308.413 -5.2611 -1.47887 0
M  V30 3408 H 305.507 -0.785788 -0.25781 0
M  V30 3409 H 308.053 -1.68111 0.231721 0
M  V30 3410 H 306.825 -3.90772 0.203287 0
M  V30 3411 H 306.448 -3.68342 -1.497 0
M  V30 3412 N 307.445 0.0818655 -1.57387 0
M  V30 3413 C 308.856 0.634871 -1.75574 0
M  V30 3414 C 309.207 1.78435 -0.815809 0
M  V30 3415 O 308.332 2.164 0.0025366 0
M  V30 3416 C 308.927 1.15845 -3.18379 0
M  V30 3417 C 307.486 1.65741 -3.37945 0
M  V30 3418 C 306.633 0.572549 -2.71325 0
M  V30 3419 H 309.584 -0.144268 -1.58043 0
M  V30 3420 H 309.605 2.02751 -3.21982 0
M  V30 3421 H 309.117 0.321631 -3.86765 0
M  V30 3422 H 307.218 2.51781 -2.74658 0
M  V30 3423 H 307.331 1.74129 -4.46336 0
M  V30 3424 H 305.695 1.01518 -2.33594 0
M  V30 3425 H 306.478 -0.253918 -3.4236 0
M  V30 3426 N 308.923 1.53595 0.353017 0
M  V30 3427 C 310.169 1.70638 1.09593 0
M  V30 3428 C 310.502 0.463286 1.88593 0
M  V30 3429 O 309.777 -0.539597 1.86865 0
M  V30 3430 C 310.06 2.96406 2.04489 0
M  V30 3431 C 309.913 4.30901 1.29014 0
M  V30 3432 C 311.232 3.17812 3.0444 0
M  V30 3433 H 308.351 0.620913 0.397034 0
M  V30 3434 H 310.993 1.86254 0.375446 0
M  V30 3435 H 309.143 2.83223 2.65927 0
M  V30 3436 H 310.815 4.55917 0.702638 0
M  V30 3437 H 309.058 4.29741 0.592071 0
M  V30 3438 H 309.729 5.1506 1.98537 0
M  V30 3439 H 312.205 3.30263 2.53112 0
M  V30 3440 H 311.081 4.07223 3.6805 0
M  V30 3441 H 311.342 2.33669 3.75301 0
M  V30 3442 N 310.401 -0.613514 1.45168 0
M  V30 3443 C 311.629 -1.39946 1.5239 0
M  V30 3444 C 312.044 -1.88167 0.154531 0
M  V30 3445 O 311.401 -1.61872 -0.842843 0
M  V30 3446 C 311.452 -2.60795 2.50337 0
M  V30 3447 O 311.173 -2.1458 3.81952 0
M  V30 3448 C 312.674 -3.53723 2.67198 0
M  V30 3449 H 309.894 -0.428593 0.516284 0
M  V30 3450 H 312.438 -0.748753 1.903 0
M  V30 3451 H 310.593 -3.21919 2.15515 0
M  V30 3452 H 311.007 -2.93055 4.34993 0
M  V30 3453 H 312.481 -4.35079 3.39721 0
M  V30 3454 H 312.958 -4.0368 1.73029 0
M  V30 3455 H 313.564 -2.98456 3.02992 0
M  V30 3456 N 311.879 -1.3236 -0.855495 0
M  V30 3457 C 313.127 -1.22629 -1.60644 0
M  V30 3458 C 313.448 0.212136 -1.93843 0
M  V30 3459 O 312.718 1.13666 -1.59552 0
M  V30 3460 H 311.298 -0.450882 -0.595579 0
M  V30 3461 H 313.96 -1.65871 -1.02337 0
M  V30 3462 H 313.056 -1.80832 -2.54374 0
M  V30 3463 N 313.357 1.07166 -1.15556 0
M  V30 3464 C 314.634 1.76546 -0.842069 0
M  V30 3465 C 315.014 2.00453 0.661939 0
M  V30 3466 O 314.362 1.62452 1.60691 0
M  V30 3467 C 314.572 3.07266 -1.65495 0
M  V30 3468 C 315.92 3.81578 -1.86234 0
M  V30 3469 O 316.944 3.17083 -1.62287 0
M  V30 3470 O 315.803 4.97419 -2.26355 0
M  V30 3471 H 312.897 0.766756 -0.309862 0
M  V30 3472 H 315.443 1.13514 -1.26145 0
M  V30 3473 H 314.215 2.85494 -2.67598 0
M  V30 3474 H 313.838 3.7803 -1.23203 0
M  V30 3475 N 314.835 0.952656 1.25548 0
M  V30 3476 C 316.065 0.622592 1.96996 0
M  V30 3477 C 316.473 -0.809112 1.71026 0
M  V30 3478 O 315.816 -1.55258 0.981861 0
M  V30 3479 C 315.878 0.798946 3.5051 0
M  V30 3480 C 315.542 2.20744 4.00151 0
M  V30 3481 C 316.539 3.18394 4.11001 0
M  V30 3482 C 314.224 2.5311 4.33867 0
M  V30 3483 C 316.218 4.46504 4.54877 0
M  V30 3484 C 313.905 3.8145 4.7743 0
M  V30 3485 C 314.903 4.77959 4.87897 0
M  V30 3486 O 314.591 6.04012 5.30494 0
M  V30 3487 H 314.323 0.232503 0.634758 0
M  V30 3488 H 316.877 1.2789 1.60728 0
M  V30 3489 H 315.107 0.0854903 3.86605 0
M  V30 3490 H 316.796 0.47023 4.03167 0
M  V30 3491 H 317.562 2.94715 3.85186 0
M  V30 3492 H 313.441 1.78719 4.24948 0
M  V30 3493 H 316.985 5.21835 4.62962 0
M  V30 3494 H 312.882 4.04936 5.0269 0
M  V30 3495 H 313.65 6.0736 5.48685 0
M  V30 3496 N 316.313 -1.40141 0.720998 0
M  V30 3497 C 317.559 -2.01084 0.263231 0
M  V30 3498 C 317.892 -1.57052 -1.14229 0
M  V30 3499 O 317.167 -0.793027 -1.77599 0
M  V30 3500 C 317.45 -3.58401 0.349344 0
M  V30 3501 C 317.303 -4.12491 1.79363 0
M  V30 3502 C 318.622 -4.39231 -0.276351 0
M  V30 3503 H 315.741 -0.730572 0.0971228 0
M  V30 3504 H 318.383 -1.66543 0.914518 0
M  V30 3505 H 316.533 -3.87958 -0.205165 0
M  V30 3506 H 318.205 -3.93711 2.40394 0
M  V30 3507 H 316.448 -3.66576 2.31958 0
M  V30 3508 H 317.119 -5.21646 1.80524 0
M  V30 3509 H 319.595 -4.15637 0.196184 0
M  V30 3510 H 318.471 -5.48586 -0.185681 0
M  V30 3511 H 318.732 -4.20643 -1.36059 0
M  V30 3512 N 317.792 -0.46758 -1.50504 0
M  V30 3513 C 318.742 0.34698 -2.25344 0
M  V30 3514 C 319.726 0.964469 -1.2879 0
M  V30 3515 O 320.918 0.8776 -1.53711 0
M  V30 3516 C 318.047 1.43042 -3.1208 0
M  V30 3517 C 317.133 0.82084 -4.16081 0
M  V30 3518 N 317.524 -0.0567602 -5.05768 0
M  V30 3519 C 315.822 1.08517 -4.32597 0
M  V30 3520 C 316.523 -0.402343 -5.80307 0
M  V30 3521 N 315.499 0.221607 -5.43148 0
M  V30 3522 H 319.301 -0.329129 -2.92051 0
M  V30 3523 H 316.815 -0.281508 -1.59942 0
M  V30 3524 H 318.812 2.02712 -3.64299 0
M  V30 3525 H 317.472 2.10856 -2.46921 0
M  V30 3526 H 318.483 -0.425349 -5.1615 0
M  V30 3527 H 315.16 1.75855 -3.78657 0
M  V30 3528 H 316.55 -1.11834 -6.62528 0
M  V30 3529 N 319.27 1.56325 -0.20005 0
M  V30 3530 C 320.217 2.1932 0.718833 0
M  V30 3531 C 321.187 1.14198 1.20615 0
M  V30 3532 O 322.372 1.42469 1.26914 0
M  V30 3533 C 319.512 2.86041 1.93066 0
M  V30 3534 C 318.625 4.05702 1.48425 0
M  V30 3535 C 317.76 4.60266 2.65196 0
M  V30 3536 C 316.799 5.72273 2.17185 0
M  V30 3537 N 315.936 6.21221 3.27152 0
M  V30 3538 H 320.776 2.97486 0.17489 0
M  V30 3539 H 318.313 1.46911 0.0745794 0
M  V30 3540 H 320.271 3.22897 2.64184 0
M  V30 3541 H 318.901 2.1043 2.44783 0
M  V30 3542 H 317.953 3.74475 0.668755 0
M  V30 3543 H 319.265 4.86699 1.09204 0
M  V30 3544 H 318.419 4.99453 3.4443 0
M  V30 3545 H 317.158 3.78386 3.07693 0
M  V30 3546 H 316.163 5.3261 1.36407 0
M  V30 3547 H 317.388 6.55974 1.75713 0
M  V30 3548 H 315.334 5.42263 3.69171 0
M  V30 3549 H 315.251 6.97284 2.92116 0
M  V30 3550 H 316.519 6.65063 4.06585 0
M  V30 3551 N 320.748 -0.0735177 1.57428 0
M  V30 3552 C 321.973 -0.789787 1.91774 0
M  V30 3553 C 322.398 -1.70413 0.796306 0
M  V30 3554 O 321.756 -1.79555 -0.250961 0
M  V30 3555 C 321.804 -1.5609 3.25067 0
M  V30 3556 O 320.908 -2.67144 3.14178 0
M  V30 3557 H 320.249 -0.215582 0.628029 0
M  V30 3558 H 322.779 -0.0422781 2.04556 0
M  V30 3559 H 322.789 -1.94052 3.58898 0
M  V30 3560 H 321.464 -0.890015 4.06265 0
M  V30 3561 H 320.041 -2.32052 2.91901 0
M  V30 3562 N 322.226 -1.5378 -0.344866 0
M  V30 3563 C 323.472 -1.71216 -1.08687 0
M  V30 3564 C 323.805 -0.473281 -1.88345 0
M  V30 3565 O 323.08 0.52968 -1.87149 0
M  V30 3566 C 323.363 -2.97486 -2.02914 0
M  V30 3567 C 323.216 -4.31579 -1.26727 0
M  V30 3568 C 324.535 -3.19422 -3.0275 0
M  V30 3569 H 321.654 -0.62301 -0.393735 0
M  V30 3570 H 324.296 -1.8645 -0.365563 0
M  V30 3571 H 322.446 -2.84629 -2.64421 0
M  V30 3572 H 324.118 -4.56284 -0.67845 0
M  V30 3573 H 322.361 -4.30049 -0.569273 0
M  V30 3574 H 323.032 -5.16106 -1.95803 0
M  V30 3575 H 325.508 -3.316 -2.51357 0
M  V30 3576 H 324.384 -4.09169 -3.65885 0
M  V30 3577 H 324.645 -2.35656 -3.74057 0
M  V30 3578 N 323.704 0.605807 -1.45491 0
M  V30 3579 C 324.951 1.36476 -1.49601 0
M  V30 3580 C 325.279 1.94007 -0.138452 0
M  V30 3581 O 324.534 1.75638 0.863114 0
M  V30 3582 C 324.833 2.53012 -2.52428 0
M  V30 3583 C 324.499 2.13617 -3.97087 0
M  V30 3584 C 323.161 2.02587 -4.36477 0
M  V30 3585 C 325.513 1.82899 -4.88055 0
M  V30 3586 C 322.841 1.59064 -5.64726 0
M  V30 3587 C 325.193 1.40861 -6.16718 0
M  V30 3588 C 323.857 1.28391 -6.55036 0
M  V30 3589 H 323.127 0.499402 -0.547429 0
M  V30 3590 H 325.774 0.684546 -1.78847 0
M  V30 3591 H 324.079 3.26379 -2.16758 0
M  V30 3592 H 325.776 3.1124 -2.52845 0
M  V30 3593 H 322.366 2.23129 -3.65939 0
M  V30 3594 H 326.55 1.90317 -4.58359 0
M  V30 3595 H 321.806 1.48034 -5.93208 0
M  V30 3596 H 325.98 1.16138 -6.86648 0
M  V30 3597 H 323.607 0.944403 -7.54311 0
M  V30 3598 N 325.182 1.32811 0.848464 0
M  V30 3599 C 326.431 1.23075 1.59798 0
M  V30 3600 C 326.744 -0.204419 1.94529 0
M  V30 3601 O 327.95 -0.423701 2.68173 0
M  V30 3602 C 326.406 2.15594 2.88179 0
M  V30 3603 C 326.014 3.64228 2.60849 0
M  V30 3604 C 327.758 2.14709 3.66197 0
M  V30 3605 C 325.665 4.48689 3.85269 0
M  V30 3606 H 324.595 0.457091 0.599653 0
M  V30 3607 H 327.246 1.57813 0.936342 0
M  V30 3608 H 325.628 1.73778 3.55833 0
M  V30 3609 H 326.802 4.14424 2.01467 0
M  V30 3610 H 325.117 3.67306 1.96151 0
M  V30 3611 H 327.714 2.75046 4.58534 0
M  V30 3612 H 328.057 1.13966 4.00397 0
M  V30 3613 H 328.59 2.54837 3.05455 0
M  V30 3614 H 325.329 5.5027 3.56207 0
M  V30 3615 H 324.849 4.03241 4.44024 0
M  V30 3616 H 326.528 4.62006 4.52946 0
M  V30 3617 N 326.66 -1.06551 1.16123 0
M  V30 3618 C 327.909 -1.78687 0.935622 0
M  V30 3619 C 328.222 -1.88056 -0.538001 0
M  V30 3620 O 329.428 -2.56794 -0.88143 0
M  V30 3621 C 327.884 -3.21143 1.62466 0
M  V30 3622 C 327.492 -3.19949 3.13587 0
M  V30 3623 C 329.236 -3.9783 1.48092 0
M  V30 3624 C 327.143 -4.57108 3.75241 0
M  V30 3625 H 326.073 -0.669712 0.346412 0
M  V30 3626 H 328.724 -1.19534 1.39226 0
M  V30 3627 H 327.106 -3.80539 1.09572 0
M  V30 3628 H 328.28 -2.70151 3.73303 0
M  V30 3629 H 326.595 -2.5676 3.27816 0
M  V30 3630 H 329.192 -4.99217 1.91538 0
M  V30 3631 H 329.535 -4.14078 0.429507 0
M  V30 3632 H 330.068 -3.4495 1.98127 0
M  V30 3633 H 326.807 -4.46065 4.80319 0
M  V30 3634 H 326.327 -5.07111 3.20309 0
M  V30 3635 H 328.006 -5.26069 3.76644 0
M  V30 3636 N 328.138 -0.959301 -1.25041 0
M  V30 3637 C 329.385 -0.616611 -1.92884 0
M  V30 3638 C 329.713 0.847036 -1.75087 0
M  V30 3639 O 328.968 1.62374 -1.09239 0
M  V30 3640 C 329.267 -0.927136 -3.45165 0
M  V30 3641 C 328.933 -2.37757 -3.83122 0
M  V30 3642 C 327.595 -2.77402 -3.93194 0
M  V30 3643 C 329.947 -3.31929 -4.01836 0
M  V30 3644 C 327.275 -4.10277 -4.19392 0
M  V30 3645 C 329.627 -4.64423 -4.29528 0
M  V30 3646 C 328.291 -5.03857 -4.37818 0
M  V30 3647 H 327.561 -0.225634 -0.705812 0
M  V30 3648 H 330.208 -1.20921 -1.48493 0
M  V30 3649 H 328.513 -0.252195 -3.90987 0
M  V30 3650 H 330.21 -0.6405 -3.95852 0
M  V30 3651 H 326.8 -2.06013 -3.75841 0
M  V30 3652 H 330.984 -3.02488 -3.93465 0
M  V30 3653 H 326.24 -4.40467 -4.24027 0
M  V30 3654 H 330.414 -5.37369 -4.42953 0
M  V30 3655 H 328.041 -6.06843 -4.57871 0
M  V30 3656 N 329.616 1.39756 -0.72842 0
M  V30 3657 C 330.863 2.00645 -0.273487 0
M  V30 3658 C 331.191 1.57786 1.13727 0
M  V30 3659 O 330.446 0.794886 1.7883 0
M  V30 3660 C 330.745 3.56002 -0.315776 0
M  V30 3661 C 330.411 4.18489 -1.67863 0
M  V30 3662 C 329.073 4.3527 -2.05166 0
M  V30 3663 C 331.425 4.53219 -2.57375 0
M  V30 3664 C 328.753 4.84069 -3.31503 0
M  V30 3665 C 331.105 5.03423 -3.83077 0
M  V30 3666 C 329.769 5.18413 -4.20481 0
M  V30 3667 H 329.039 0.734211 -0.100076 0
M  V30 3668 H 331.686 1.6718 -0.933972 0
M  V30 3669 H 329.991 3.89452 0.428285 0
M  V30 3670 H 331.688 4.00963 0.0542575 0
M  V30 3671 H 328.278 4.05824 -1.37858 0
M  V30 3672 H 332.462 4.39878 -2.29827 0
M  V30 3673 H 327.718 4.93859 -3.60435 0
M  V30 3674 H 331.892 5.2927 -4.52599 0
M  V30 3675 H 329.519 5.55987 -5.18443 0
M  V30 3676 N 331.094 0.475555 1.50254 0
M  V30 3677 C 332.026 -0.352649 2.26471 0
M  V30 3678 C 333.039 -0.953165 1.3198 0
M  V30 3679 O 334.228 -0.840815 1.57457 0
M  V30 3680 C 331.328 -1.50902 3.0345 0
M  V30 3681 C 330.501 -1.02047 4.25329 0
M  V30 3682 C 329.56 -2.05142 4.84565 0
M  V30 3683 O 328.586 -1.63023 5.45355 0
M  V30 3684 N 329.788 -3.37987 4.71959 0
M  V30 3685 H 332.553 0.300767 2.98187 0
M  V30 3686 H 330.114 0.306598 1.5897 0
M  V30 3687 H 332.106 -2.19572 3.39956 0
M  V30 3688 H 330.676 -2.06705 2.34504 0
M  V30 3689 H 329.896 -0.159507 3.93877 0
M  V30 3690 H 331.184 -0.672061 5.04342 0
M  V30 3691 H 330.582 -3.74913 4.23623 0
M  V30 3692 H 329.139 -4.02443 5.12721 0
M  V30 3693 N 332.573 -1.56217 0.208337 0
M  V30 3694 C 333.821 -1.97558 -0.426076 0
M  V30 3695 C 334.142 -1.09683 -1.61229 0
M  V30 3696 O 333.412 -0.170956 -1.95153 0
M  V30 3697 H 331.992 -0.729575 -0.160405 0
M  V30 3698 H 334.654 -1.92606 0.298155 0
M  V30 3699 H 333.75 -3.02672 -0.761312 0
M  V30 3700 N 334.051 0.0651679 -1.57465 0
M  V30 3701 C 335.328 0.79644 -1.78651 0
M  V30 3702 C 335.708 1.95454 -0.797566 0
M  V30 3703 O 335.056 2.27882 0.167946 0
M  V30 3704 C 335.266 1.26322 -3.25337 0
M  V30 3705 C 336.614 1.6939 -3.89348 0
M  V30 3706 O 337.638 1.35872 -3.29268 0
M  V30 3707 O 336.497 2.31471 -4.95059 0
M  V30 3708 H 333.591 0.382157 -0.733407 0
M  V30 3709 H 336.137 0.0447311 -1.69641 0
M  V30 3710 H 334.909 0.434859 -3.88876 0
M  V30 3711 H 334.532 2.07604 -3.39096 0
M  V30 3712 N 335.529 1.53961 0.336706 0
M  V30 3713 C 336.461 1.78751 1.4346 0
M  V30 3714 C 337.474 0.669019 1.48418 0
M  V30 3715 O 338.663 0.945884 1.51378 0
M  V30 3716 C 335.763 1.87844 2.82078 0
M  V30 3717 C 334.936 3.17854 3.00479 0
M  V30 3718 C 333.995 3.17816 4.19379 0
M  V30 3719 O 333.021 3.91511 4.13168 0
M  V30 3720 N 334.223 2.40669 5.2826 0
M  V30 3721 H 336.988 2.73493 1.22563 0
M  V30 3722 H 334.549 1.53096 0.526625 0
M  V30 3723 H 336.541 1.85261 3.59806 0
M  V30 3724 H 335.111 1.00257 2.96086 0
M  V30 3725 H 334.331 3.33504 2.10163 0
M  V30 3726 H 335.619 4.03718 3.0966 0
M  V30 3727 H 335.017 1.8036 5.36178 0
M  V30 3728 H 333.574 2.43877 6.04456 0
M  V30 3729 N 337.007 -0.598083 1.45811 0
M  V30 3730 C 337.937 -1.71873 1.58057 0
M  V30 3731 C 338.918 -1.64533 0.431615 0
M  V30 3732 O 340.103 -1.82787 0.65595 0
M  V30 3733 C 337.233 -3.10495 1.55597 0
M  V30 3734 C 336.187 -3.32654 2.69305 0
M  V30 3735 C 335.513 -4.71646 2.51902 0
M  V30 3736 C 336.813 -3.21981 4.11248 0
M  V30 3737 H 338.507 -1.61881 2.51863 0
M  V30 3738 H 336.053 -0.777372 1.21214 0
M  V30 3739 H 338.006 -3.88699 1.6276 0
M  V30 3740 H 336.73 -3.2135 0.583255 0
M  V30 3741 H 335.389 -2.56843 2.61586 0
M  V30 3742 H 335.037 -4.79246 1.52748 0
M  V30 3743 H 334.737 -4.87426 3.2816 0
M  V30 3744 H 336.261 -5.52038 2.60933 0
M  V30 3745 H 337.675 -3.90049 4.20161 0
M  V30 3746 H 336.072 -3.49289 4.87972 0
M  V30 3747 H 337.142 -2.1928 4.32486 0
M  V30 3748 N 338.485 -1.33259 -0.841409 0
M  V30 3749 C 339.432 -1.23302 -1.95103 0
M  V30 3750 C 340.402 -0.112204 -1.65721 0
M  V30 3751 O 341.587 -0.290038 -1.88583 0
M  V30 3752 C 338.727 -0.975583 -3.31023 0
M  V30 3753 C 337.84 -2.18243 -3.72819 0
M  V30 3754 C 336.975 -1.85936 -4.97595 0
M  V30 3755 C 336.014 -3.02866 -5.3192 0
M  V30 3756 N 335.151 -2.70565 -6.47873 0
M  V30 3757 H 339.991 -2.18207 -2.02952 0
M  V30 3758 H 337.528 -1.0851 -0.993173 0
M  V30 3759 H 339.486 -0.80677 -4.09325 0
M  V30 3760 H 338.116 -0.0632755 -3.22738 0
M  V30 3761 H 337.168 -2.46107 -2.90061 0
M  V30 3762 H 338.48 -3.05666 -3.94169 0
M  V30 3763 H 337.634 -1.65684 -5.83638 0
M  V30 3764 H 336.373 -0.957452 -4.78209 0
M  V30 3765 H 335.378 -3.23736 -4.44382 0
M  V30 3766 H 336.603 -3.93809 -5.53255 0
M  V30 3767 H 334.549 -1.8293 -6.29978 0
M  V30 3768 H 334.466 -3.51519 -6.69306 0
M  V30 3769 H 335.734 -2.53774 -7.37034 0
M  V30 3770 N 339.963 1.05934 -1.16686 0
M  V30 3771 C 340.911 2.15603 -0.872817 0
M  V30 3772 C 341.905 1.68647 0.159576 0
M  V30 3773 O 343.111 1.79995 0.0132125 0
M  V30 3774 H 339.486 0.703885 -0.264671 0
M  V30 3775 H 341.457 2.37613 -1.80507 0
M  V30 3776 C 340.206 3.45457 -0.394344 0
M  V30 3777 H 339.529 3.81984 -1.18019 0
M  V30 3778 H 340.969 4.2339 -0.227408 0
M  V30 3779 C 339.428 3.25021 0.88673 0
M  V30 3780 O 339.958 3.50906 1.95519 0
M  V30 3781 N 338.164 2.78437 0.831925 0
M  V30 3782 H 337.711 2.57572 -0.0377619 0
M  V30 3783 H 337.669 2.65144 1.68956 0
M  V30 3784 N 341.441 0.965919 1.2453 0
M  V30 3785 C 342.857 0.67216 1.44756 0
M  V30 3786 C 343.057 -0.766609 1.86347 0
M  V30 3787 O 342.113 -1.5407 2.00047 0
M  V30 3788 C 343.426 1.65473 2.51076 0
M  V30 3789 C 344.974 1.66716 2.64905 0
M  V30 3790 C 345.449 2.63766 3.74421 0
M  V30 3791 N 346.94 2.62198 3.81846 0
M  V30 3792 C 347.675 3.33966 4.66106 0
M  V30 3793 N 347.171 4.15245 5.54566 0
M  V30 3794 N 348.964 3.22799 4.60171 0
M  V30 3795 H 341.115 1.89553 0.958293 0
M  V30 3796 H 343.378 0.815979 0.482579 0
M  V30 3797 H 343.084 2.68296 2.27399 0
M  V30 3798 H 342.958 1.4261 3.49202 0
M  V30 3799 H 345.345 0.646057 2.87941 0
M  V30 3800 H 345.426 1.93642 1.67142 0
M  V30 3801 H 345.07 3.6601 3.52135 0
M  V30 3802 H 345 2.34121 4.71694 0
M  V30 3803 H 347.491 2.032 3.18619 0
M  V30 3804 H 347.804 4.66898 6.15814 0
M  V30 3805 H 346.149 4.1934 5.54237 0
M  V30 3806 H 349.34 2.58764 3.90075 0
M  V30 3807 H 349.513 3.78994 5.25612 0
M  V30 3808 N 342.919 -1.39368 0.735821 0
M  V30 3809 C 344.165 -2.00794 0.284544 0
M  V30 3810 C 344.498 -1.58255 -1.12557 0
M  V30 3811 O 343.773 -0.811819 -1.76748 0
M  V30 3812 C 344.056 -3.58011 0.387337 0
M  V30 3813 C 343.909 -4.10566 1.83728 0
M  V30 3814 C 345.228 -4.395 -0.22975 0
M  V30 3815 H 342.347 -0.729501 0.104866 0
M  V30 3816 H 344.989 -1.65564 0.93213 0
M  V30 3817 H 343.139 -3.88154 -0.164006 0
M  V30 3818 H 344.811 -3.91139 2.44556 0
M  V30 3819 H 343.054 -3.64095 2.35833 0
M  V30 3820 H 343.725 -5.19702 1.86047 0
M  V30 3821 H 346.201 -4.15406 0.240257 0
M  V30 3822 H 345.077 -5.48752 -0.127485 0
M  V30 3823 H 345.338 -4.22062 -1.3159 0
M  V30 3824 N 344.397 -0.483516 -1.5 0
M  V30 3825 C 345.344 0.304164 -2.28787 0
M  V30 3826 C 346.314 0.976114 -1.34392 0
M  V30 3827 O 347.499 0.986156 -1.63339 0
M  V30 3828 C 344.639 1.37298 -3.16612 0
M  V30 3829 C 343.752 0.714561 -4.26049 0
M  V30 3830 C 342.887 1.76232 -5.01114 0
M  V30 3831 C 341.926 1.08483 -6.0241 0
M  V30 3832 N 341.063 2.076 -6.70706 0
M  V30 3833 H 345.903 -0.373981 -2.95644 0
M  V30 3834 H 343.44 -0.196275 -1.45785 0
M  V30 3835 H 345.398 2.00445 -3.65893 0
M  V30 3836 H 344.028 2.02012 -2.51776 0
M  V30 3837 H 343.08 -0.0297798 -3.80388 0
M  V30 3838 H 344.392 0.180383 -4.98474 0
M  V30 3839 H 343.546 2.46929 -5.54176 0
M  V30 3840 H 342.285 2.33033 -4.28424 0
M  V30 3841 H 341.29 0.363545 -5.48597 0
M  V30 3842 H 342.515 0.523551 -6.77079 0
M  V30 3843 H 340.461 2.63394 -6.00799 0
M  V30 3844 H 340.378 1.59201 -7.39047 0
M  V30 3845 H 341.646 2.77639 -7.2838 0
M  V30 3846 N 345.875 1.56104 -0.216619 0
M  V30 3847 C 346.822 2.2007 0.695531 0
M  V30 3848 C 347.792 1.15471 1.19397 0
M  V30 3849 O 348.977 1.43807 1.25396 0
M  V30 3850 C 346.117 2.88073 1.90021 0
M  V30 3851 C 345.23 4.07253 1.44113 0
M  V30 3852 C 344.365 4.63052 2.603 0
M  V30 3853 C 343.404 5.74545 2.11103 0
M  V30 3854 N 342.541 6.24656 3.20545 0
M  V30 3855 H 347.381 2.97655 0.143327 0
M  V30 3856 H 344.918 1.46982 0.0589934 0
M  V30 3857 H 346.876 3.25681 2.60745 0
M  V30 3858 H 345.506 2.13015 2.42538 0
M  V30 3859 H 344.558 3.75164 0.628999 0
M  V30 3860 H 345.87 4.8783 1.04036 0
M  V30 3861 H 345.024 5.03078 3.39113 0
M  V30 3862 H 343.763 3.81628 3.03663 0
M  V30 3863 H 342.768 5.34027 1.3075 0
M  V30 3864 H 343.993 6.57801 1.68746 0
M  V30 3865 H 341.939 5.46148 3.63399 0
M  V30 3866 H 341.856 7.00343 2.84704 0
M  V30 3867 H 343.124 6.69338 3.99508 0
M  V30 3868 N 347.353 -0.0568162 1.57498 0
M  V30 3869 C 348.602 -0.752001 1.87157 0
M  V30 3870 C 348.915 -1.77978 0.811375 0
M  V30 3871 O 350.121 -2.52559 0.996293 0
M  V30 3872 C 348.577 -1.38844 3.3204 0
M  V30 3873 C 348.185 -0.398456 4.46225 0
M  V30 3874 C 349.929 -2.06512 3.70882 0
M  V30 3875 C 347.836 -1.04166 5.82154 0
M  V30 3876 H 346.766 -0.28461 0.698222 0
M  V30 3877 H 349.417 -0.00561272 1.83499 0
M  V30 3878 H 347.799 -2.1836 3.30356 0
M  V30 3879 H 348.973 0.367977 4.59328 0
M  V30 3880 H 347.288 0.174592 4.16034 0
M  V30 3881 H 349.885 -2.55437 4.6974 0
M  V30 3882 H 350.228 -2.87117 3.01445 0
M  V30 3883 H 350.761 -1.33808 3.7462 0
M  V30 3884 H 347.5 -0.275614 6.5492 0
M  V30 3885 H 347.02 -1.7786 5.72823 0
M  V30 3886 H 348.699 -1.55715 6.27982 0
M  V30 3887 N 348.832 -1.54138 -0.328536 0
M  V30 3888 C 350.072 -1.73827 -1.07534 0
M  V30 3889 C 350.436 -0.498777 -1.85408 0
M  V30 3890 O 351.637 -0.572937 -2.62623 0
M  V30 3891 C 349.908 -2.97573 -1.97952 0
M  V30 3892 S 351.467 -3.38143 -2.79652 0
M  V30 3893 H 348.285 -0.611287 -0.36311 0
M  V30 3894 H 350.887 -1.92306 -0.351931 0
M  V30 3895 H 349.591 -3.85939 -1.39569 0
M  V30 3896 H 349.122 -2.81603 -2.74706 0
M  V30 3897 H 351.137 -2.93052 -4.00418 0
M  V30 3898 N 350.31 0.590341 -1.46126 0
M  V30 3899 C 351.22 1.72793 -1.58681 0
M  V30 3900 C 352.236 1.67516 -0.470566 0
M  V30 3901 O 353.412 1.87562 -0.733642 0
M  V30 3902 C 350.477 3.09287 -1.5666 0
M  V30 3903 C 349.538 3.25886 -2.79458 0
M  V30 3904 C 348.771 4.55869 -2.77524 0
M  V30 3905 O 348.994 5.3928 -1.85832 0
M  V30 3906 O 347.928 4.75552 -3.68964 0
M  V30 3907 H 351.754 1.65149 -2.54872 0
M  V30 3908 H 349.339 0.756486 -1.28832 0
M  V30 3909 H 351.221 3.90577 -1.58202 0
M  V30 3910 H 349.896 3.17385 -0.636271 0
M  V30 3911 H 348.803 2.44119 -2.83472 0
M  V30 3912 H 350.136 3.22675 -3.71674 0
M  V30 3913 N 351.788 1.33704 0.83433 0
M  V30 3914 C 353.036 1.25169 1.58673 0
M  V30 3915 C 353.357 -0.18127 1.94156 0
M  V30 3916 O 352.627 -1.11113 1.6134 0
M  V30 3917 H 351.207 0.4603 0.58833 0
M  V30 3918 H 353.869 1.67478 0.996847 0
M  V30 3919 H 352.965 1.84856 2.51465 0
M  V30 3920 N 353.266 -1.05314 1.17247 0
M  V30 3921 C 354.513 -1.78293 0.960091 0
M  V30 3922 C 354.841 -1.87658 -0.51136 0
M  V30 3923 O 354.096 -1.3718 -1.39571 0
M  V30 3924 C 354.395 -3.2229 1.54479 0
M  V30 3925 C 354.061 -3.32987 3.04024 0
M  V30 3926 C 352.723 -3.35613 3.44844 0
M  V30 3927 C 355.075 -3.34102 4.00031 0
M  V30 3928 C 352.403 -3.36982 4.8027 0
M  V30 3929 C 354.755 -3.3701 5.35357 0
M  V30 3930 C 353.419 -3.37923 5.75642 0
M  V30 3931 H 352.689 -0.652422 0.351322 0
M  V30 3932 H 355.336 -1.23782 1.46117 0
M  V30 3933 H 353.641 -3.7972 0.965391 0
M  V30 3934 H 355.338 -3.77376 1.35603 0
M  V30 3935 H 351.928 -3.31655 2.71483 0
M  V30 3936 H 356.112 -3.31276 3.69554 0
M  V30 3937 H 351.368 -3.35999 5.10798 0
M  V30 3938 H 355.542 -3.36822 6.09528 0
M  V30 3939 H 353.169 -3.38738 6.80559 0
M  V30 3940 N 354.744 -0.972509 -1.24016 0
M  V30 3941 C 356.16 -0.679827 -1.44397 0
M  V30 3942 C 356.36 0.756716 -1.86751 0
M  V30 3943 O 355.416 1.53007 -2.00861 0
M  V30 3944 C 356.729 -1.66803 -2.50195 0
M  V30 3945 C 358.277 -1.68119 -2.64017 0
M  V30 3946 C 358.752 -2.65748 -3.73017 0
M  V30 3947 N 360.243 -2.64219 -3.8045 0
M  V30 3948 C 360.978 -3.36433 -4.64328 0
M  V30 3949 N 360.474 -4.1818 -5.52356 0
M  V30 3950 N 362.267 -3.25235 -4.58453 0
M  V30 3951 H 354.418 -1.90059 -0.948228 0
M  V30 3952 H 356.681 -0.818527 -0.478245 0
M  V30 3953 H 356.387 -2.69498 -2.25973 0
M  V30 3954 H 356.261 -1.4446 -3.48441 0
M  V30 3955 H 358.648 -0.661319 -2.87594 0
M  V30 3956 H 358.729 -1.94525 -1.66113 0
M  V30 3957 H 358.373 -3.67872 -3.50189 0
M  V30 3958 H 358.303 -2.36619 -4.70446 0
M  V30 3959 H 360.794 -2.04887 -3.17537 0
M  V30 3960 H 361.107 -4.70157 -6.13329 0
M  V30 3961 H 359.452 -4.22273 -5.52006 0
M  V30 3962 H 362.643 -2.60829 -3.88698 0
M  V30 3963 H 362.816 -3.81776 -5.23594 0
M  V30 3964 N 356.222 1.38976 -0.743202 0
M  V30 3965 C 357.185 2.28901 -0.117014 0
M  V30 3966 C 358.185 1.46698 0.658503 0
M  V30 3967 O 359.375 1.67274 0.486305 0
M  V30 3968 C 356.507 3.30309 0.84315 0
M  V30 3969 H 357.7 2.8578 -0.909373 0
M  V30 3970 H 355.253 1.47761 -0.509547 0
M  V30 3971 H 355.988 2.785 1.66157 0
M  V30 3972 H 355.773 3.91029 0.289594 0
M  V30 3973 H 357.263 3.97577 1.2776 0
M  V30 3974 N 357.7 0.491464 1.49741 0
M  V30 3975 C 358.925 -0.0557177 2.07325 0
M  V30 3976 C 359.35 -1.30925 1.35056 0
M  V30 3977 O 358.708 -1.76733 0.404365 0
M  V30 3978 C 358.756 -0.302074 3.59333 0
M  V30 3979 O 357.86 -1.37868 3.88672 0
M  V30 3980 H 357.201 0.0219956 0.663636 0
M  V30 3981 H 359.731 0.688352 1.92673 0
M  V30 3982 H 359.741 -0.536464 4.04458 0
M  V30 3983 H 358.416 0.61383 4.11345 0
M  V30 3984 H 356.993 -1.12999 3.55367 0
M  V30 3985 N 359.178 -1.55987 0.224894 0
M  V30 3986 C 360.108 -2.23426 -0.678457 0
M  V30 3987 C 361.089 -1.20709 -1.19847 0
M  V30 3988 O 362.274 -1.49304 -1.24186 0
M  V30 3989 C 359.404 -2.91676 -1.88527 0
M  V30 3990 C 358.358 -4.00893 -1.49896 0
M  V30 3991 C 357.684 -4.56455 -2.78483 0
M  V30 3992 C 358.984 -5.17769 -0.686461 0
M  V30 3993 H 360.678 -2.99175 -0.116173 0
M  V30 3994 H 358.224 -1.43897 -0.054436 0
M  V30 3995 H 360.177 -3.37547 -2.5227 0
M  V30 3996 H 358.901 -2.1338 -2.47258 0
M  V30 3997 H 357.56 -3.55758 -0.884985 0
M  V30 3998 H 357.208 -3.74886 -3.35365 0
M  V30 3999 H 356.908 -5.30169 -2.53368 0
M  V30 4000 H 358.432 -5.05047 -3.43162 0
M  V30 4001 H 359.846 -5.60001 -1.22767 0
M  V30 4002 H 358.243 -5.97735 -0.532259 0
M  V30 4003 H 359.313 -4.83932 0.306196 0
M  V30 4004 N 360.656 0.0484629 -1.57525 0
M  V30 4005 C 361.886 0.754326 -1.92337 0
M  V30 4006 C 362.294 1.70443 -0.82132 0
M  V30 4007 O 361.637 1.82466 0.21254 0
M  V30 4008 C 361.699 1.58231 -3.22805 0
M  V30 4009 C 361.363 0.799074 -4.4996 0
M  V30 4010 C 362.36 0.1079 -5.19788 0
M  V30 4011 C 360.045 0.759345 -4.96527 0
M  V30 4012 C 362.039 -0.612516 -6.3445 0
M  V30 4013 C 359.726 0.0351713 -6.1109 0
M  V30 4014 C 360.724 -0.649537 -6.79904 0
M  V30 4015 O 360.412 -1.36199 -7.92278 0
M  V30 4016 H 360.144 0.218257 -0.639797 0
M  V30 4017 H 362.698 0.0159295 -2.05394 0
M  V30 4018 H 360.928 2.36406 -3.06021 0
M  V30 4019 H 362.617 2.16898 -3.43089 0
M  V30 4020 H 363.383 0.129748 -4.84826 0
M  V30 4021 H 359.262 1.28177 -4.42822 0
M  V30 4022 H 362.806 -1.14751 -6.88097 0
M  V30 4023 H 358.703 0.0113314 -6.45499 0
M  V30 4024 H 359.471 -1.27366 -8.0853 0
M  V30 4025 N 362.134 1.5431 0.320358 0
M  V30 4026 C 363.545 1.63872 0.894594 0
M  V30 4027 C 363.896 0.534847 1.88769 0
M  V30 4028 O 363.021 -0.331732 2.13842 0
M  V30 4029 C 363.616 2.97049 1.62934 0
M  V30 4030 C 362.175 3.08796 2.15226 0
M  V30 4031 C 361.322 2.59456 0.978671 0
M  V30 4032 H 364.273 1.58398 0.0978544 0
M  V30 4033 H 364.294 2.87388 2.49376 0
M  V30 4034 H 363.806 3.7737 0.906302 0
M  V30 4035 H 361.907 2.33156 2.90636 0
M  V30 4036 H 362.02 4.14649 2.40006 0
M  V30 4037 H 360.384 2.1543 1.35875 0
M  V30 4038 H 361.167 3.42237 0.269895 0
M  V30 4039 N 363.613 -0.582584 1.46437 0
M  V30 4040 C 364.853 -1.35184 1.53312 0
M  V30 4041 C 365.217 -1.9115 0.180508 0
M  V30 4042 O 366.418 -2.68514 0.124017 0
M  V30 4043 C 364.689 -2.45089 2.60127 0
M  V30 4044 S 366.248 -3.32439 2.86408 0
M  V30 4045 H 363.066 -0.460559 0.54167 0
M  V30 4046 H 365.668 -0.669709 1.83671 0
M  V30 4047 H 364.372 -2.02366 3.57038 0
M  V30 4048 H 363.903 -3.18074 2.315 0
M  V30 4049 H 365.918 -4.43924 2.21688 0
M  V30 4050 N 365.091 -1.34144 -0.827227 0
M  V30 4051 C 366.502 -1.23557 -1.39966 0
M  V30 4052 C 366.853 0.140731 -1.95695 0
M  V30 4053 O 365.978 1.04087 -1.89723 0
M  V30 4054 C 366.573 -2.23708 -2.54441 0
M  V30 4055 C 365.132 -2.16924 -3.07605 0
M  V30 4056 C 364.279 -2.10549 -1.80456 0
M  V30 4057 H 367.23 -1.45573 -0.631991 0
M  V30 4058 H 367.251 -1.85157 -3.32411 0
M  V30 4059 H 366.763 -3.23866 -2.13851 0
M  V30 4060 H 364.864 -1.20107 -3.52711 0
M  V30 4061 H 364.977 -3.07988 -3.66988 0
M  V30 4062 H 363.341 -1.56203 -2.01178 0
M  V30 4063 H 364.124 -3.12535 -1.42046 0
M  V30 4064 N 366.569 1.04691 -1.17803 0
M  V30 4065 C 367.479 2.16057 -0.914151 0
M  V30 4066 C 368.495 1.73589 0.119503 0
M  V30 4067 O 369.671 2.01308 -0.0609468 0
M  V30 4068 C 366.736 3.4394 -0.436603 0
M  V30 4069 C 365.797 4.00825 -1.53746 0
M  V30 4070 C 365.03 5.22604 -1.0826 0
M  V30 4071 O 365.253 5.70367 0.0612244 0
M  V30 4072 O 364.187 5.7186 -1.87775 0
M  V30 4073 H 368.013 2.41169 -1.84584 0
M  V30 4074 H 365.598 1.1453 -0.959334 0
M  V30 4075 H 367.48 4.21024 -0.178057 0
M  V30 4076 H 366.155 3.20316 0.466869 0
M  V30 4077 H 365.062 3.25158 -1.84995 0
M  V30 4078 H 366.395 4.28778 -2.41683 0
M  V30 4079 N 368.047 0.979072 1.23499 0
M  V30 4080 C 369.275 0.665202 1.95915 0
M  V30 4081 C 369.69 -0.767571 1.72493 0
M  V30 4082 O 369.047 -1.51635 1.01554 0
M  V30 4083 C 369.098 0.944438 3.48945 0
M  V30 4084 O 368.819 2.3209 3.71572 0
M  V30 4085 C 370.32 0.646336 4.38563 0
M  V30 4086 H 367.54 0.247218 0.623798 0
M  V30 4087 H 370.084 1.31009 1.57025 0
M  V30 4088 H 368.239 0.345575 3.85856 0
M  V30 4089 H 368.653 2.40957 4.65876 0
M  V30 4090 H 370.127 0.892091 5.44744 0
M  V30 4091 H 370.604 -0.419575 4.37191 0
M  V30 4092 H 371.21 1.22562 4.07258 0
M  V30 4093 N 369.525 -1.3858 0.750561 0
M  V30 4094 C 370.936 -1.82927 0.373438 0
M  V30 4095 C 371.287 -1.62634 -1.09748 0
M  V30 4096 O 370.412 -1.12588 -1.84805 0
M  V30 4097 C 371.007 -3.32088 0.671029 0
M  V30 4098 C 369.566 -3.74795 0.34722 0
M  V30 4099 C 368.713 -2.61391 0.92575 0
M  V30 4100 H 371.664 -1.27351 0.946958 0
M  V30 4101 H 371.685 -3.80465 -0.0518269 0
M  V30 4102 H 371.197 -3.46826 1.74164 0
M  V30 4103 H 369.298 -3.65638 -0.716933 0
M  V30 4104 H 369.411 -4.71667 0.840656 0
M  V30 4105 H 367.775 -2.52265 0.351327 0
M  V30 4106 H 368.558 -2.78929 2.00133 0
M  V30 4107 N 371.003 -0.499398 -1.49478 0
M  V30 4108 C 371.935 0.316575 -2.27003 0
M  V30 4109 C 372.948 0.932047 -1.33479 0
M  V30 4110 O 374.137 0.815658 -1.58774 0
M  V30 4111 C 371.237 1.46055 -3.05812 0
M  V30 4112 C 370.41 0.952679 -4.26899 0
M  V30 4113 C 369.469 1.97407 -4.87767 0
M  V30 4114 O 368.495 1.54326 -5.4788 0
M  V30 4115 N 369.697 3.30436 -4.77276 0
M  V30 4116 H 372.462 -0.348168 -2.97671 0
M  V30 4117 H 370.023 -0.33185 -1.58463 0
M  V30 4118 H 372.015 2.14135 -3.43407 0
M  V30 4119 H 370.585 2.02948 -2.37762 0
M  V30 4120 H 369.805 0.0968248 -3.94081 0
M  V30 4121 H 371.093 0.59174 -5.05347 0
M  V30 4122 H 370.491 3.68126 -4.29534 0
M  V30 4123 H 369.048 3.94235 -5.19059 0
M  V30 4124 N 372.481 1.55866 -0.233164 0
M  V30 4125 C 373.391 2.24431 0.683217 0
M  V30 4126 C 374.407 1.2558 1.2044 0
M  V30 4127 O 375.583 1.58422 1.24356 0
M  V30 4128 C 372.648 2.91979 1.86947 0
M  V30 4129 C 371.709 4.06204 1.38912 0
M  V30 4130 C 370.942 4.70522 2.51883 0
M  V30 4131 O 371.165 4.33865 3.70293 0
M  V30 4132 O 370.099 5.59296 2.22423 0
M  V30 4133 H 373.925 3.03426 0.129059 0
M  V30 4134 H 371.51 1.494 -0.0022283 0
M  V30 4135 H 373.392 3.34573 2.56201 0
M  V30 4136 H 372.067 2.15935 2.41151 0
M  V30 4137 H 370.974 3.68155 0.664259 0
M  V30 4138 H 372.307 4.84025 0.893328 0
M  V30 4139 N 373.959 -0.0401083 1.57549 0
M  V30 4140 C 375.375 -0.395556 1.54621 0
M  V30 4141 C 375.575 -1.77281 0.957799 0
M  V30 4142 O 374.631 -2.45888 0.574031 0
M  V30 4143 C 375.944 -0.307535 2.99123 0
M  V30 4144 C 377.492 -0.385425 3.10618 0
M  V30 4145 C 377.967 -0.326973 4.56831 0
M  V30 4146 N 379.458 -0.386102 4.61588 0
M  V30 4147 C 380.193 -0.363591 5.72246 0
M  V30 4148 N 379.689 -0.29402 6.92176 0
M  V30 4149 N 381.482 -0.412503 5.60584 0
M  V30 4150 H 373.633 0.861325 1.94152 0
M  V30 4151 H 375.896 0.326445 0.890021 0
M  V30 4152 H 375.602 0.638461 3.45856 0
M  V30 4153 H 375.476 -1.10552 3.60636 0
M  V30 4154 H 377.863 -1.32185 2.63839 0
M  V30 4155 H 377.944 0.44171 2.51957 0
M  V30 4156 H 377.588 0.605738 5.04275 0
M  V30 4157 H 377.518 -1.17207 5.13391 0
M  V30 4158 H 380.009 -0.442832 3.75296 0
M  V30 4159 H 380.322 -0.28164 7.72287 0
M  V30 4160 H 378.667 -0.260232 6.94513 0
M  V30 4161 H 381.858 -0.464769 4.65787 0
M  V30 4162 H 382.031 -0.391492 6.46816 0
M  V30 4163 N 375.437 -1.54477 -0.31217 0
M  V30 4164 C 376.384 -1.84655 -1.38461 0
M  V30 4165 C 377.354 -0.694536 -1.50882 0
M  V30 4166 O 378.539 -0.942081 -1.6592 0
M  V30 4167 C 375.679 -2.0896 -2.74645 0
M  V30 4168 C 374.792 -3.36618 -2.70763 0
M  V30 4169 C 373.927 -3.50824 -3.98868 0
M  V30 4170 C 372.966 -4.72315 -3.89339 0
M  V30 4171 N 372.103 -4.83387 -5.09197 0
M  V30 4172 H 376.943 -2.76142 -1.12026 0
M  V30 4173 H 374.48 -1.36748 -0.542065 0
M  V30 4174 H 376.438 -2.21045 -3.53829 0
M  V30 4175 H 375.068 -1.20752 -2.99364 0
M  V30 4176 H 374.12 -3.33211 -1.83506 0
M  V30 4177 H 375.432 -4.25917 -2.59608 0
M  V30 4178 H 374.586 -3.62513 -4.86486 0
M  V30 4179 H 373.325 -2.59638 -4.12843 0
M  V30 4180 H 372.33 -4.6067 -3.00105 0
M  V30 4181 H 373.555 -5.64897 -3.76919 0
M  V30 4182 H 371.501 -3.9512 -5.23657 0
M  V30 4183 H 371.418 -5.66669 -5.00422 0
M  V30 4184 H 372.686 -4.9942 -5.98498 0
M  V30 4185 N 376.915 0.57481 -1.46744 0
M  V30 4186 C 377.825 1.711 -1.60505 0
M  V30 4187 C 378.841 1.67008 -0.488307 0
M  V30 4188 O 380.017 1.86774 -0.753495 0
M  V30 4189 C 377.082 3.07608 -1.59932 0
M  V30 4190 C 376.143 3.22904 -2.82898 0
M  V30 4191 C 375.376 4.529 -2.82343 0
M  V30 4192 O 375.599 5.37278 -1.91542 0
M  V30 4193 O 374.533 4.71611 -3.73987 0
M  V30 4194 H 378.359 1.62436 -2.56609 0
M  V30 4195 H 375.944 0.742779 -1.29627 0
M  V30 4196 H 377.826 3.88877 -1.62336 0
M  V30 4197 H 376.501 3.16692 -0.669898 0
M  V30 4198 H 375.408 2.41099 -2.86046 0
M  V30 4199 H 376.741 3.18715 -3.75076 0
M  V30 4200 N 378.394 1.34581 0.820102 0
M  V30 4201 C 379.327 1.20735 1.93644 0
M  V30 4202 C 380.305 0.0983343 1.62302 0
M  V30 4203 O 381.489 0.263997 1.86642 0
M  V30 4204 C 378.616 0.856037 3.27704 0
M  V30 4205 C 377.662 1.97521 3.78005 0
M  V30 4206 S 378.495 3.58906 3.97425 0
M  V30 4207 C 379.651 3.25822 5.34407 0
M  V30 4208 H 379.884 2.15231 2.05093 0
M  V30 4209 H 377.417 1.1964 0.97599 0
M  V30 4210 H 379.375 0.660133 4.05157 0
M  V30 4211 H 378.036 -0.0706253 3.14021 0
M  V30 4212 H 377.229 1.68321 4.75062 0
M  V30 4213 H 376.831 2.12875 3.07507 0
M  V30 4214 H 379.123 2.77812 6.17922 0
M  V30 4215 H 380.066 4.22029 5.68592 0
M  V30 4216 H 380.474 2.61932 5.00052 0
M  V30 4217 N 379.872 -1.04064 1.18357 0
M  V30 4218 C 380.835 -2.10243 0.912707 0
M  V30 4219 C 381.835 -1.60477 -0.101928 0
M  V30 4220 O 383.025 -1.73703 0.131517 0
M  V30 4221 C 380.157 -3.38893 0.369387 0
M  V30 4222 H 381.35 -2.35706 1.85426 0
M  V30 4223 H 378.903 -1.20489 0.995594 0
M  V30 4224 H 379.638 -3.19094 -0.578776 0
M  V30 4225 H 379.423 -3.76331 1.1008 0
M  V30 4226 H 380.913 -4.17128 0.198575 0
M  V30 4227 N 381.35 -0.985608 -1.22978 0
M  V30 4228 C 382.575 -0.675254 -1.961 0
M  V30 4229 C 383 0.752154 -1.72407 0
M  V30 4230 O 382.358 1.5131 -0.998751 0
M  V30 4231 C 382.406 -0.977899 -3.47087 0
M  V30 4232 O 381.51 -0.072685 -4.12336 0
M  V30 4233 H 380.851 -0.253443 -0.613728 0
M  V30 4234 H 383.381 -1.32061 -1.56272 0
M  V30 4235 H 383.391 -0.916739 -3.97567 0
M  V30 4236 H 382.066 -2.01807 -3.63657 0
M  V30 4237 H 380.643 -0.188703 -3.72422 0
M  V30 4238 N 382.828 1.3818 -0.7579 0
M  V30 4239 C 384.076 1.99624 -0.315361 0
M  V30 4240 C 384.397 1.60464 1.10799 0
M  V30 4241 O 383.667 0.863507 1.75842 0
M  V30 4242 H 382.247 0.73831 -0.113611 0
M  V30 4243 H 384.909 1.68878 -0.972952 0
M  V30 4244 H 384.005 3.09754 -0.381931 0
M  V30 4245 N 384.306 0.507319 1.49211 0
M  V30 4246 C 385.552 -0.0350047 2.0277 0
M  V30 4247 C 385.885 -1.3606 1.38569 0
M  V30 4248 O 385.16 -1.87321 0.523542 0
M  V30 4249 C 385.443 -0.180916 3.59645 0
M  V30 4250 C 385.296 1.16825 4.34364 0
M  V30 4251 C 386.615 -0.918558 4.30407 0
M  V30 4252 H 383.734 -0.0112473 0.736914 0
M  V30 4253 H 386.376 0.659956 1.7817 0
M  V30 4254 H 384.526 -0.772826 3.80736 0
M  V30 4255 H 386.198 1.79952 4.24753 0
M  V30 4256 H 384.441 1.75594 3.96673 0
M  V30 4257 H 385.112 1.01939 5.42506 0
M  V30 4258 H 387.588 -0.41649 4.1401 0
M  V30 4259 H 386.464 -0.989505 5.39907 0
M  V30 4260 H 386.725 -1.96373 3.96093 0
M  V30 4261 N 385.784 -1.5574 0.241426 0
M  V30 4262 C 386.732 -2.22538 -0.676718 0
M  V30 4263 C 387.726 -1.21117 -1.18436 0
M  V30 4264 O 388.932 -1.39144 -1.14188 0
M  V30 4265 H 385.307 -0.713776 -0.236701 0
M  V30 4266 H 387.278 -2.98264 -0.0901187 0
M  V30 4267 C 386.027 -2.93439 -1.86518 0
M  V30 4268 H 385.35 -3.7125 -1.4837 0
M  V30 4269 H 386.79 -3.43549 -2.48495 0
M  V30 4270 C 385.249 -1.97008 -2.73294 0
M  V30 4271 O 385.779 -1.49965 -3.72657 0
M  V30 4272 N 383.985 -1.64227 -2.39745 0
M  V30 4273 H 383.532 -2.02677 -1.58996 0
M  V30 4274 H 383.49 -0.999708 -2.98083 0
M  V30 4275 N 387.262 0.0317525 -1.57568 0
M  V30 4276 C 388.49 0.734949 -1.93407 0
M  V30 4277 C 388.905 1.69036 -0.84096 0
M  V30 4278 O 388.262 1.81582 0.182836 0
M  V30 4279 C 388.313 1.49432 -3.29169 0
M  V30 4280 O 388.034 0.577261 -4.3428 0
M  V30 4281 C 389.535 2.29492 -3.79273 0
M  V30 4282 H 386.755 0.206706 -0.638368 0
M  V30 4283 H 389.299 -0.00992046 -2.04498 0
M  V30 4284 H 387.454 2.1911 -3.19483 0
M  V30 4285 H 387.868 1.10952 -5.1263 0
M  V30 4286 H 389.342 2.78172 -4.76785 0
M  V30 4287 H 389.819 3.10794 -3.10328 0
M  V30 4288 H 390.425 1.64894 -3.92033 0
M  V30 4289 N 388.74 1.54641 0.303973 0
M  V30 4290 C 390.156 1.45788 0.649463 0
M  V30 4291 C 390.356 0.64666 1.90842 0
M  V30 4292 O 389.412 0.153183 2.52035 0
M  V30 4293 C 390.725 2.89718 0.805227 0
M  V30 4294 C 392.273 2.99742 0.901305 0
M  V30 4295 C 392.748 4.44863 1.08909 0
M  V30 4296 N 394.239 4.48559 1.15536 0
M  V30 4297 C 394.974 5.58026 1.3189 0
M  V30 4298 N 394.47 6.77422 1.45161 0
M  V30 4299 N 396.263 5.45708 1.34755 0
M  V30 4300 H 388.414 2.05854 -0.523237 0
M  V30 4301 H 390.677 0.932186 -0.172431 0
M  V30 4302 H 390.383 3.51666 -0.0489108 0
M  V30 4303 H 390.257 3.36964 1.69513 0
M  V30 4304 H 392.644 2.3791 1.74593 0
M  V30 4305 H 392.725 2.55797 -0.0125531 0
M  V30 4306 H 392.369 5.07288 0.249241 0
M  V30 4307 H 392.299 4.86436 2.01713 0
M  V30 4308 H 394.79 3.6254 1.06646 0
M  V30 4309 H 395.103 7.56604 1.57387 0
M  V30 4310 H 393.448 6.80292 1.42223 0
M  V30 4311 H 396.639 4.51378 1.23996 0
M  V30 4312 H 396.812 6.3107 1.47157 0
M  V30 4313 N 390.218 -0.567019 1.47046 0
M  V30 4314 C 391.467 -1.32091 1.5243 0
M  V30 4315 C 391.78 -1.94704 0.187021 0
M  V30 4316 O 392.986 -2.7124 0.118771 0
M  V30 4317 C 391.442 -2.39479 2.68659 0
M  V30 4318 C 391.05 -1.831 4.08874 0
M  V30 4319 C 392.794 -3.16111 2.83327 0
M  V30 4320 C 390.701 -2.8821 5.16419 0
M  V30 4321 H 389.631 -0.496629 0.56734 0
M  V30 4322 H 392.282 -0.603354 1.73297 0
M  V30 4323 H 390.664 -3.14105 2.41152 0
M  V30 4324 H 391.838 -1.14913 4.46242 0
M  V30 4325 H 390.153 -1.19085 3.99008 0
M  V30 4326 H 392.75 -3.94585 3.60842 0
M  V30 4327 H 393.093 -3.69686 1.91411 0
M  V30 4328 H 393.626 -2.48595 3.10556 0
M  V30 4329 H 390.365 -2.39504 6.10179 0
M  V30 4330 H 389.885 -3.54839 4.8358 0
M  V30 4331 H 391.564 -3.51881 5.42945 0
M  V30 4332 N 391.696 -1.35014 -0.812953 0
M  V30 4333 C 392.973 -1.18502 -1.55617 0
M  V30 4334 C 393.353 0.238421 -2.09749 0
M  V30 4335 O 392.701 1.2411 -1.91857 0
M  V30 4336 C 392.911 -2.24783 -2.66971 0
M  V30 4337 C 394.259 -2.60268 -3.35478 0
M  V30 4338 O 395.283 -2.23648 -2.77236 0
M  V30 4339 O 394.142 -3.2321 -4.40678 0
M  V30 4340 H 391.236 -0.459984 -0.687272 0
M  V30 4341 H 393.782 -1.46677 -0.853464 0
M  V30 4342 H 392.554 -3.20284 -2.24798 0
M  V30 4343 H 392.177 -1.97841 -3.44884 0
M  V30 4344 N 393.175 1.03435 -1.18907 0
M  V30 4345 C 394.452 1.73778 -0.89781 0
M  V30 4346 C 394.832 2.02458 0.597832 0
M  V30 4347 O 394.18 1.67482 1.55441 0
M  V30 4348 C 394.39 3.01845 -1.75187 0
M  V30 4349 C 395.738 3.7546 -1.9828 0
M  V30 4350 O 396.762 3.11759 -1.72293 0
M  V30 4351 O 395.621 4.89966 -2.42065 0
M  V30 4352 H 392.715 0.75651 -0.334098 0
M  V30 4353 H 395.261 1.09444 -1.29693 0
M  V30 4354 H 394.033 2.76836 -2.76545 0
M  V30 4355 H 393.656 3.73919 -1.35167 0
M  V30 4356 N 394.653 0.992116 1.22453 0
M  V30 4357 C 395.583 0.561677 2.26644 0
M  V30 4358 C 396.564 -0.411055 1.65059 0
M  V30 4359 O 397.749 -0.301861 1.9184 0
M  V30 4360 C 394.879 -0.125247 3.47074 0
M  V30 4361 C 393.833 0.765948 4.21091 0
M  V30 4362 C 393.159 -0.0538484 5.34673 0
M  V30 4363 C 394.459 2.06242 4.79856 0
M  V30 4364 H 396.153 1.43259 2.62902 0
M  V30 4365 H 393.699 0.690283 1.26377 0
M  V30 4366 H 395.652 -0.437764 4.1912 0
M  V30 4367 H 394.376 -1.03069 3.0991 0
M  V30 4368 H 393.035 1.0621 3.50878 0
M  V30 4369 H 392.683 -0.960188 4.9375 0
M  V30 4370 H 392.383 0.539415 5.85119 0
M  V30 4371 H 393.907 -0.360477 6.09535 0
M  V30 4372 H 395.321 1.8139 5.43848 0
M  V30 4373 H 393.718 2.60444 5.40638 0
M  V30 4374 H 394.788 2.74167 3.99951 0
M  V30 4375 N 396.131 -1.37776 0.765217 0
M  V30 4376 C 397.063 -2.28958 0.105361 0
M  V30 4377 C 398.076 -1.48316 -0.67128 0
M  V30 4378 O 399.265 -1.71046 -0.51045 0
M  V30 4379 C 396.365 -3.27421 -0.874569 0
M  V30 4380 C 395.538 -4.37132 -0.153123 0
M  V30 4381 C 394.597 -5.1571 -1.04547 0
M  V30 4382 O 393.623 -5.66896 -0.511672 0
M  V30 4383 N 394.825 -5.29808 -2.37243 0
M  V30 4384 H 397.59 -2.86227 0.888495 0
M  V30 4385 H 395.151 -1.49682 0.617 0
M  V30 4386 H 397.143 -3.7687 -1.47483 0
M  V30 4387 H 395.713 -2.70967 -1.55871 0
M  V30 4388 H 394.933 -3.89166 0.627975 0
M  V30 4389 H 396.221 -5.07625 0.345643 0
M  V30 4390 H 395.619 -4.89793 -2.83054 0
M  V30 4391 H 394.176 -5.82589 -2.9229 0
M  V30 4392 N 397.609 -0.515225 -1.4894 0
M  V30 4393 C 398.542 0.302518 -2.26186 0
M  V30 4394 C 399.52 0.957895 -1.31389 0
M  V30 4395 O 400.704 0.985198 -1.60705 0
M  V30 4396 C 397.831 1.42719 -3.07163 0
M  V30 4397 C 396.877 0.884736 -4.17223 0
M  V30 4398 S 397.71 -0.235767 -5.34981 0
M  V30 4399 C 398.866 0.891731 -6.19515 0
M  V30 4400 H 399.099 -0.353076 -2.95196 0
M  V30 4401 H 396.632 -0.300753 -1.51443 0
M  V30 4402 H 398.59 2.07152 -3.54398 0
M  V30 4403 H 397.251 2.05445 -2.37595 0
M  V30 4404 H 396.444 1.72801 -4.73451 0
M  V30 4405 H 396.046 0.317362 -3.72651 0
M  V30 4406 H 398.338 1.79377 -6.53322 0
M  V30 4407 H 399.281 0.367751 -7.07144 0
M  V30 4408 H 399.689 1.16548 -5.52338 0
M  V30 4409 N 399.087 1.5561 -0.249682 0
M  V30 4410 C 400.333 1.99306 0.374841 0
M  V30 4411 C 400.666 1.13767 1.57387 0
M  V30 4412 O 399.941 0.201711 1.93451 0
M  V30 4413 C 400.224 3.51507 0.781986 0
M  V30 4414 C 400.077 4.4781 -0.422629 0
M  V30 4415 C 401.396 4.08884 1.62793 0
M  V30 4416 H 398.515 0.724572 0.134773 0
M  V30 4417 H 401.157 1.86719 -0.351549 0
M  V30 4418 H 399.307 3.62363 1.4009 0
M  V30 4419 H 400.979 4.48931 -1.06108 0
M  V30 4420 H 399.222 4.20518 -1.06524 0
M  V30 4421 H 399.893 5.51919 -0.0943766 0
M  V30 4422 H 402.369 4.01147 1.10547 0
M  V30 4423 H 401.245 5.1564 1.88166 0
M  V30 4424 H 401.506 3.57515 2.60068 0
M  V30 4425 N 400.565 -0.0233959 1.57583 0
M  V30 4426 C 401.495 -1.02162 2.09965 0
M  V30 4427 C 402.476 -1.3735 1.00344 0
M  V30 4428 O 403.661 -1.46135 1.27899 0
M  V30 4429 C 400.791 -2.32081 2.58371 0
M  V30 4430 C 399.745 -2.1112 3.72307 0
M  V30 4431 C 399.071 -3.46848 4.06941 0
M  V30 4432 C 400.371 -1.49276 5.00514 0
M  V30 4433 H 402.065 -0.585557 2.93618 0
M  V30 4434 H 399.611 -0.280218 1.41247 0
M  V30 4435 H 401.564 -3.02249 2.93639 0
M  V30 4436 H 400.288 -2.77758 1.71808 0
M  V30 4437 H 398.947 -1.43384 3.37397 0
M  V30 4438 H 398.595 -3.90184 3.17436 0
M  V30 4439 H 398.295 -3.33646 4.83688 0
M  V30 4440 H 399.819 -4.18369 4.44747 0
M  V30 4441 H 401.233 -2.09368 5.33702 0
M  V30 4442 H 399.63 -1.46632 5.8191 0
M  V30 4443 H 400.7 -0.459217 4.82721 0
M  V30 4444 N 402.043 -1.548 -0.295768 0
M  V30 4445 C 402.991 -1.86874 -1.38495 0
M  V30 4446 C 403.985 -0.742938 -1.52239 0
M  V30 4447 O 405.191 -0.926999 -1.54294 0
M  V30 4448 H 401.566 -0.592786 -0.462719 0
M  V30 4449 H 403.537 -2.77904 -1.08682 0
M  V30 4450 C 402.286 -2.13732 -2.74252 0
M  V30 4451 H 401.609 -2.99835 -2.64459 0
M  V30 4452 H 403.049 -2.4011 -3.49461 0
M  V30 4453 C 401.508 -0.937539 -3.23592 0
M  V30 4454 O 402.038 -0.160665 -4.01379 0
M  V30 4455 N 400.244 -0.741478 -2.80981 0
M  V30 4456 H 399.791 -1.37489 -2.1784 0
M  V30 4457 H 399.749 0.0597103 -3.14343 0
M  V30 4458 N 403.521 0.559213 -1.47345 0
M  V30 4459 C 404.453 1.68161 -1.55738 0
M  V30 4460 C 405.466 1.56636 -0.443744 0
M  V30 4461 O 406.655 1.6363 -0.713258 0
M  V30 4462 C 403.755 3.06611 -1.4437 0
M  V30 4463 C 402.928 3.4391 -2.70268 0
M  V30 4464 C 401.987 4.61515 -2.52765 0
M  V30 4465 O 401.013 4.66197 -3.26572 0
M  V30 4466 N 402.215 5.57883 -1.6046 0
M  V30 4467 H 404.98 1.61408 -2.52522 0
M  V30 4468 H 402.541 0.7458 -1.43699 0
M  V30 4469 H 404.533 3.83117 -1.30398 0
M  V30 4470 H 403.103 3.07602 -0.556766 0
M  V30 4471 H 402.323 2.56873 -2.99015 0
M  V30 4472 H 403.611 3.65605 -3.53851 0
M  V30 4473 H 403.009 5.56855 -0.996422 0
M  V30 4474 H 401.566 6.33723 -1.52441 0
M  V30 4475 N 404.999 1.35443 0.805782 0
M  V30 4476 C 406.227 1.31878 1.59423 0
M  V30 4477 C 406.642 -0.103562 1.88516 0
M  V30 4478 O 405.999 -1.05575 1.48863 0
M  V30 4479 C 406.05 2.12426 2.92502 0
M  V30 4480 O 405.771 3.49115 2.6467 0
M  V30 4481 C 407.272 2.16455 3.86862 0
M  V30 4482 H 404.492 0.453002 0.495005 0
M  V30 4483 H 407.036 1.78309 1.00131 0
M  V30 4484 H 405.191 1.69593 3.48306 0
M  V30 4485 H 405.605 3.90957 3.49647 0
M  V30 4486 H 407.079 2.77204 4.77349 0
M  V30 4487 H 407.556 1.16352 4.23508 0
M  V30 4488 H 408.162 2.59453 3.36993 0
M  V30 4489 N 406.477 -1.02803 1.19454 0
M  V30 4490 C 407.387 -2.14575 0.948408 0
M  V30 4491 C 408.403 -1.73757 -0.091871 0
M  V30 4492 O 409.579 -2.01185 0.0929654 0
M  V30 4493 C 406.644 -3.43202 0.491265 0
M  V30 4494 C 405.705 -3.98328 1.60103 0
M  V30 4495 C 404.938 -5.20816 1.16561 0
M  V30 4496 O 405.161 -5.70392 0.0295238 0
M  V30 4497 O 404.095 -5.68801 1.96849 0
M  V30 4498 H 407.921 -2.38202 1.88397 0
M  V30 4499 H 405.506 -1.12989 0.977433 0
M  V30 4500 H 407.388 -4.20687 0.245015 0
M  V30 4501 H 406.063 -3.21018 -0.415851 0
M  V30 4502 H 404.97 -3.22174 1.90144 0
M  V30 4503 H 406.303 -4.24879 2.48473 0
M  V30 4504 N 407.956 -0.998596 -1.21925 0
M  V30 4505 C 409.233 -0.593401 -1.86382 0
M  V30 4506 C 409.613 0.92916 -1.89552 0
M  V30 4507 O 408.961 1.81347 -1.39017 0
M  V30 4508 C 409.171 -1.22039 -3.26967 0
M  V30 4509 C 410.519 -1.32449 -4.03413 0
M  V30 4510 O 411.543 -1.17522 -3.36254 0
M  V30 4511 O 410.402 -1.56395 -5.23644 0
M  V30 4512 H 407.496 -0.202385 -0.801854 0
M  V30 4513 H 410.042 -1.09484 -1.29659 0
M  V30 4514 H 408.814 -2.26158 -3.19325 0
M  V30 4515 H 408.437 -0.704906 -3.91301 0
M  V30 4516 N 409.434 1.37368 -0.772513 0
M  V30 4517 C 410.384 2.27613 -0.132823 0
M  V30 4518 C 411.368 1.46138 0.673247 0
M  V30 4519 O 412.56 1.68686 0.536095 0
M  V30 4520 C 409.689 3.35122 0.744864 0
M  V30 4521 C 408.775 4.24044 -0.0690771 0
M  V30 4522 N 409.166 4.93355 -1.1151 0
M  V30 4523 C 407.464 4.45731 0.154782 0
M  V30 4524 C 408.165 5.59 -1.60917 0
M  V30 4525 N 407.141 5.35737 -0.921222 0
M  V30 4526 H 410.943 2.78675 -0.933681 0
M  V30 4527 H 408.457 1.50494 -0.610342 0
M  V30 4528 H 410.454 3.98683 1.21892 0
M  V30 4529 H 409.114 2.85616 1.54446 0
M  V30 4530 H 410.125 4.95785 -1.49726 0
M  V30 4531 H 406.802 4.07096 0.926224 0
M  V30 4532 H 408.192 6.24395 -2.48153 0
M  V30 4533 N 410.912 0.523116 1.48665 0
M  V30 4534 C 412.328 0.180511 1.58576 0
M  V30 4535 C 412.528 -1.31597 1.52592 0
M  V30 4536 O 411.584 -2.0937 1.4114 0
M  V30 4537 C 412.897 0.776949 2.90489 0
M  V30 4538 C 414.445 0.745058 3.04003 0
M  V30 4539 C 414.92 1.31995 4.38567 0
M  V30 4540 N 416.411 1.28162 4.45117 0
M  V30 4541 C 417.146 1.6964 5.47731 0
M  V30 4542 N 416.642 2.18816 6.57337 0
M  V30 4543 N 418.435 1.6092 5.38573 0
M  V30 4544 H 410.586 1.4958 1.50797 0
M  V30 4545 H 412.849 0.621772 0.715614 0
M  V30 4546 H 412.555 1.82732 3.00503 0
M  V30 4547 H 412.429 0.25007 3.7637 0
M  V30 4548 H 414.816 -0.296532 2.93606 0
M  V30 4549 H 414.897 1.30933 2.1975 0
M  V30 4550 H 414.541 2.36043 4.49718 0
M  V30 4551 H 414.471 0.731418 5.21496 0
M  V30 4552 H 416.962 0.92155 3.66491 0
M  V30 4553 H 417.275 2.48478 7.31764 0
M  V30 4554 H 415.62 2.22805 6.58318 0
M  V30 4555 H 418.811 1.22304 4.5184 0
M  V30 4556 H 418.984 1.93567 6.18414 0
M  V30 4557 N 412.39 -1.55475 0.257931 0
M  V30 4558 C 413.322 -2.19192 -0.669881 0
M  V30 4559 C 414.335 -1.17148 -1.1305 0
M  V30 4560 O 415.524 -1.43959 -1.05537 0
M  V30 4561 C 412.624 -2.79016 -1.92363 0
M  V30 4562 C 411.797 -4.06586 -1.61265 0
M  V30 4563 C 410.856 -4.50622 -2.7171 0
M  V30 4564 O 409.882 -5.16765 -2.38627 0
M  V30 4565 N 411.084 -4.19325 -4.01431 0
M  V30 4566 H 413.849 -2.99441 -0.124635 0
M  V30 4567 H 411.41 -1.6171 0.0783311 0
M  V30 4568 H 413.402 -3.05427 -2.65511 0
M  V30 4569 H 411.972 -2.0286 -2.37837 0
M  V30 4570 H 411.192 -3.87646 -0.715811 0
M  V30 4571 H 412.48 -4.89737 -1.37967 0
M  V30 4572 H 411.878 -3.66247 -4.31138 0
M  V30 4573 H 410.435 -4.50547 -4.7101 0
M  V30 4574 N 413.868 0.0150385 -1.57593 0
M  V30 4575 C 415.284 0.370907 -1.5523 0
M  V30 4576 C 415.484 1.75735 -0.985882 0
M  V30 4577 O 414.54 2.44944 -0.613077 0
M  V30 4578 C 415.853 0.259908 -2.99575 0
M  V30 4579 C 417.401 0.335959 -3.11192 0
M  V30 4580 C 417.876 0.254253 -4.57294 0
M  V30 4581 N 419.367 0.312618 -4.62144 0
M  V30 4582 C 420.102 0.272505 -5.72752 0
M  V30 4583 N 419.598 0.183864 -6.92556 0
M  V30 4584 N 421.391 0.323267 -5.6117 0
M  V30 4585 H 413.542 -0.892104 -1.92757 0
M  V30 4586 H 415.805 -0.340563 -0.884715 0
M  V30 4587 H 415.511 -0.693403 -3.44797 0
M  V30 4588 H 415.385 1.048 -3.62349 0
M  V30 4589 H 417.772 1.27971 -2.65909 0
M  V30 4590 H 417.853 -0.481739 -2.51223 0
M  V30 4591 H 417.497 -0.685887 -5.03247 0
M  V30 4592 H 417.427 1.09024 -5.15191 0
M  V30 4593 H 419.918 0.38307 -3.75953 0
M  V30 4594 H 420.231 0.15874 -7.72637 0
M  V30 4595 H 418.576 0.149708 -6.94839 0
M  V30 4596 H 421.767 0.390607 -4.66467 0
M  V30 4597 H 421.94 0.288539 -6.47357 0
M  V30 4598 N 415.346 1.54954 0.287554 0
M  V30 4599 C 416.592 1.75132 1.02257 0
M  V30 4600 C 416.925 0.542858 1.86458 0
M  V30 4601 O 416.2 -0.459856 1.88986 0
M  V30 4602 C 416.483 3.04812 1.91733 0
M  V30 4603 C 416.336 4.35985 1.10622 0
M  V30 4604 C 417.655 3.30438 2.90687 0
M  V30 4605 H 414.774 0.637194 0.370341 0
M  V30 4606 H 417.416 1.87678 0.296111 0
M  V30 4607 H 415.566 2.94247 2.53675 0
M  V30 4608 H 417.238 4.58487 0.508636 0
M  V30 4609 H 415.481 4.31865 0.409271 0
M  V30 4610 H 416.152 5.23017 1.76513 0
M  V30 4611 H 418.628 3.40701 2.38877 0
M  V30 4612 H 417.504 4.22467 3.50447 0
M  V30 4613 H 417.765 2.49377 3.65053 0
M  V30 4614 N 416.824 -0.551391 1.4764 0
M  V30 4615 C 417.754 -1.66757 1.63445 0
M  V30 4616 C 418.735 -1.63077 0.483742 0
M  V30 4617 O 419.92 -1.80607 0.71377 0
M  V30 4618 C 417.05 -3.05387 1.65396 0
M  V30 4619 C 416.004 -3.23918 2.79752 0
M  V30 4620 C 415.33 -4.63393 2.66779 0
M  V30 4621 C 416.63 -3.08735 4.21284 0
M  V30 4622 H 418.324 -1.53786 2.56886 0
M  V30 4623 H 415.87 -0.738415 1.23626 0
M  V30 4624 H 417.823 -3.83325 1.75043 0
M  V30 4625 H 416.547 -3.19332 0.685195 0
M  V30 4626 H 415.206 -2.48391 2.69625 0
M  V30 4627 H 414.854 -4.74144 1.67918 0
M  V30 4628 H 414.554 -4.7674 3.43501 0
M  V30 4629 H 416.078 -5.43458 2.78364 0
M  V30 4630 H 417.492 -3.76484 4.32357 0
M  V30 4631 H 415.889 -3.33588 4.98838 0
M  V30 4632 H 416.959 -2.0541 4.39243 0
M  V30 4633 N 418.302 -1.35869 -0.798587 0
M  V30 4634 C 419.234 -1.25305 -1.91915 0
M  V30 4635 C 420.247 -0.174548 -1.61862 0
M  V30 4636 O 421.436 -0.428499 -1.73281 0
M  V30 4637 C 418.536 -0.9086 -3.26493 0
M  V30 4638 C 417.709 -2.08711 -3.84394 0
M  V30 4639 C 416.768 -1.71717 -4.97393 0
M  V30 4640 O 415.794 -2.43692 -5.14396 0
M  V30 4641 N 416.996 -0.645473 -5.769 0
M  V30 4642 H 419.761 -2.21849 -2.01502 0
M  V30 4643 H 417.322 -1.29143 -0.976408 0
M  V30 4644 H 419.314 -0.642455 -3.99568 0
M  V30 4645 H 417.884 -0.0325815 -3.12583 0
M  V30 4646 H 417.104 -2.51659 -3.03416 0
M  V30 4647 H 418.392 -2.87468 -4.19809 0
M  V30 4648 H 417.79 -0.047648 -5.6568 0
M  V30 4649 H 416.347 -0.43913 -6.50319 0
M  V30 4650 N 419.78 1.02168 -1.19998 0
M  V30 4651 C 420.743 2.08765 -0.94604 0
M  V30 4652 C 421.743 1.60618 0.0763846 0
M  V30 4653 O 422.933 1.73472 -0.159135 0
M  V30 4654 C 420.065 3.38262 -0.423255 0
M  V30 4655 H 421.258 2.32726 -1.89153 0
M  V30 4656 H 418.811 1.1889 -1.01464 0
M  V30 4657 H 419.546 3.19974 0.527938 0
M  V30 4658 H 419.331 3.74532 -1.16053 0
M  V30 4659 H 420.821 4.16759 -0.264911 0
M  V30 4660 N 421.258 1.00505 1.21394 0
M  V30 4661 C 422.221 0.570459 2.21987 0
M  V30 4662 C 423.221 -0.353211 1.56873 0
M  V30 4663 O 424.411 -0.14349 1.73608 0
M  V30 4664 C 421.543 -0.168555 3.40483 0
M  V30 4665 H 422.736 1.46021 2.6195 0
M  V30 4666 H 420.289 0.793565 1.34656 0
M  V30 4667 H 421.024 -1.07374 3.06009 0
M  V30 4668 H 420.809 0.494823 3.88965 0
M  V30 4669 H 422.299 -0.460362 4.15055 0
M  V30 4670 N 422.737 -1.36956 0.779787 0
M  V30 4671 C 423.7 -2.2851 0.177662 0
M  V30 4672 C 424.7 -1.48393 -0.619377 0
M  V30 4673 O 425.89 -1.68505 -0.441785 0
M  V30 4674 C 423.022 -3.32428 -0.755279 0
M  V30 4675 H 424.215 -2.83269 0.984823 0
M  V30 4676 H 421.768 -1.46358 0.548544 0
M  V30 4677 H 422.503 -2.82808 -1.58714 0
M  V30 4678 H 422.288 -3.91659 -0.185817 0
M  V30 4679 H 423.778 -4.00824 -1.17174 0
M  V30 4680 N 424.215 -0.530993 -1.48385 0
M  V30 4681 C 425.162 0.231223 -2.29639 0
M  V30 4682 C 426.132 0.932864 -1.37429 0
M  V30 4683 O 427.317 0.933692 -1.66394 0
M  V30 4684 C 424.457 1.27155 -3.2082 0
M  V30 4685 C 423.57 0.578655 -4.28107 0
M  V30 4686 C 422.705 1.602 -5.06467 0
M  V30 4687 C 421.744 0.892625 -6.05556 0
M  V30 4688 N 420.881 1.86157 -6.76971 0
M  V30 4689 H 425.721 -0.467848 -2.94305 0
M  V30 4690 H 423.258 -0.242556 -1.45086 0
M  V30 4691 H 425.216 1.88703 -3.72085 0
M  V30 4692 H 423.846 1.939 -2.58075 0
M  V30 4693 H 422.898 -0.150782 -3.80101 0
M  V30 4694 H 424.21 0.0217065 -4.98795 0
M  V30 4695 H 423.364 2.29173 -5.61751 0
M  V30 4696 H 422.103 2.19285 -4.35621 0
M  V30 4697 H 421.108 0.188829 -5.49476 0
M  V30 4698 H 422.333 0.307878 -6.78402 0
M  V30 4699 H 420.279 2.44147 -6.08875 0
M  V30 4700 H 420.196 1.35608 -7.43738 0
M  V30 4701 H 421.464 2.54325 -7.36844 0
M  V30 4702 N 425.693 1.55336 -0.266172 0
M  V30 4703 C 426.641 2.23587 0.641228 0
M  V30 4704 C 427.635 1.22986 1.16494 0
M  V30 4705 O 428.841 1.40943 1.1196 0
M  V30 4706 H 425.216 0.717452 0.225315 0
M  V30 4707 H 427.187 2.9837 0.0426561 0
M  V30 4708 C 425.936 2.96369 1.81826 0
M  V30 4709 H 425.259 3.73563 1.42445 0
M  V30 4710 H 426.699 3.47459 2.42998 0
M  V30 4711 C 425.158 2.0133 2.70125 0
M  V30 4712 O 425.688 1.55875 3.70224 0
M  V30 4713 N 423.894 1.6802 2.37102 0
M  V30 4714 H 423.441 2.05181 1.55751 0
M  V30 4715 H 423.399 1.047 2.96454 0
M  V30 4716 N 427.171 -0.0066808 1.57599 0
M  V30 4717 C 428.42 -0.692078 1.89455 0
M  V30 4718 C 428.733 -1.75306 0.867586 0
M  V30 4719 O 429.939 -2.49262 1.07614 0
M  V30 4720 C 428.395 -1.2821 3.36289 0
M  V30 4721 C 428.003 -0.256291 4.47266 0
M  V30 4722 C 429.747 -1.94608 3.77264 0
M  V30 4723 C 427.654 -0.855927 5.85173 0
M  V30 4724 H 426.584 -0.262252 0.706923 0
M  V30 4725 H 429.235 0.052769 1.83424 0
M  V30 4726 H 427.617 -2.0774 3.37135 0
M  V30 4727 H 428.791 0.513923 4.57925 0
M  V30 4728 H 427.106 0.306862 4.15268 0
M  V30 4729 H 429.703 -2.40364 4.77629 0
M  V30 4730 H 430.046 -2.77382 3.10427 0
M  V30 4731 H 430.579 -1.21822 3.78688 0
M  V30 4732 H 427.318 -0.0671161 6.55466 0
M  V30 4733 H 426.838 -1.59546 5.78191 0
M  V30 4734 H 428.517 -1.35658 6.32618 0
M  V30 4735 N 428.649 -1.55105 -0.279332 0
M  V30 4736 C 430.065 -1.46803 -0.626187 0
M  V30 4737 C 430.265 -0.676939 -1.89789 0
M  V30 4738 O 429.321 -0.19326 -2.51759 0
M  V30 4739 C 430.634 -2.90962 -0.759034 0
M  V30 4740 C 432.182 -3.01138 -0.853504 0
M  V30 4741 C 432.657 -4.46539 -1.01818 0
M  V30 4742 N 434.148 -4.50341 -1.08386 0
M  V30 4743 C 434.883 -5.60053 -1.22996 0
M  V30 4744 N 434.379 -6.79645 -1.34366 0
M  V30 4745 N 436.172 -5.47783 -1.26056 0
M  V30 4746 H 428.323 -2.04996 0.555921 0
M  V30 4747 H 430.586 -0.929325 0.187239 0
M  V30 4748 H 430.292 -3.51544 0.104852 0
M  V30 4749 H 430.166 -3.39619 -1.64131 0
M  V30 4750 H 432.553 -2.40658 -1.70786 0
M  V30 4751 H 432.634 -2.55745 0.0532466 0
M  V30 4752 H 432.278 -5.0762 -0.168504 0
M  V30 4753 H 432.208 -4.89583 -1.93948 0
M  V30 4754 H 434.699 -3.64191 -1.00864 0
M  V30 4755 H 435.012 -7.59012 -1.4533 0
M  V30 4756 H 433.357 -6.82469 -1.31382 0
M  V30 4757 H 436.548 -4.53294 -1.168 0
M  V30 4758 H 436.721 -6.33331 -1.37098 0
M  V30 4759 N 430.127 0.543554 -1.4793 0
M  V30 4760 C 431.373 1.30201 -1.55485 0
M  V30 4761 C 431.706 1.92925 -0.222201 0
M  V30 4762 O 430.981 1.78586 0.77053 0
M  V30 4763 C 431.264 2.40174 -2.68307 0
M  V30 4764 C 431.117 1.8223 -4.11233 0
M  V30 4765 C 432.436 3.42024 -2.76961 0
M  V30 4766 H 429.555 0.472036 -0.565996 0
M  V30 4767 H 432.197 0.606914 -1.80046 0
M  V30 4768 H 430.347 2.99463 -2.47495 0
M  V30 4769 H 432.019 1.27096 -4.43446 0
M  V30 4770 H 430.262 1.12832 -4.18869 0
M  V30 4771 H 430.933 2.61793 -4.85972 0
M  V30 4772 H 433.409 2.92672 -2.95774 0
M  V30 4773 H 432.285 4.16383 -3.57654 0
M  V30 4774 H 432.546 4.0173 -1.84568 0
M  V30 4775 N 431.605 1.3629 0.791371 0
M  V30 4776 C 432.851 1.31613 1.5508 0
M  V30 4777 C 433.206 -0.104372 1.92117 0
M  V30 4778 O 432.499 -1.05845 1.5971 0
M  V30 4779 C 432.693 2.17068 2.8393 0
M  V30 4780 C 432.522 3.67285 2.59484 0
M  V30 4781 C 431.292 4.36469 2.54604 0
M  V30 4782 C 433.49 4.60595 2.28816 0
M  V30 4783 N 431.472 5.7234 2.22036 0
M  V30 4784 C 432.843 5.847 2.06218 0
M  V30 4785 C 434.898 4.4918 2.14806 0
M  V30 4786 C 433.601 6.98671 1.71028 0
M  V30 4787 C 435.627 5.63017 1.81014 0
M  V30 4788 C 434.989 6.86159 1.59263 0
M  V30 4789 H 431.088 0.536878 0.568582 0
M  V30 4790 H 433.672 1.71323 0.925007 0
M  V30 4791 H 431.843 1.79605 3.44378 0
M  V30 4792 H 433.575 2.03795 3.49642 0
M  V30 4793 H 430.33 3.89249 2.69782 0
M  V30 4794 H 430.754 6.44093 2.08503 0
M  V30 4795 H 435.396 3.54564 2.30313 0
M  V30 4796 H 433.114 7.9324 1.54259 0
M  V30 4797 H 436.7 5.56146 1.70861 0
M  V30 4798 H 435.58 7.72753 1.335 0
M  V30 4799 N 433.083 -1.0153 1.20538 0
M  V30 4800 C 434.33 -1.75149 1.01633 0
M  V30 4801 C 434.658 -1.89189 -0.451399 0
M  V30 4802 O 433.913 -1.41551 -1.35136 0
M  V30 4803 C 434.212 -3.17213 1.64654 0
M  V30 4804 C 433.878 -3.23146 3.14464 0
M  V30 4805 C 432.54 -3.24472 3.55347 0
M  V30 4806 C 434.892 -3.21207 4.10458 0
M  V30 4807 C 432.22 -3.21532 4.90748 0
M  V30 4808 C 434.572 -3.19808 5.45807 0
M  V30 4809 C 433.236 -3.19439 5.86102 0
M  V30 4810 H 432.506 -0.640914 0.3719 0
M  V30 4811 H 435.153 -1.19071 1.49981 0
M  V30 4812 H 433.458 -3.76457 1.08571 0
M  V30 4813 H 435.155 -3.72871 1.4754 0
M  V30 4814 H 431.745 -3.2285 2.81897 0
M  V30 4815 H 435.929 -3.19351 3.79906 0
M  V30 4816 H 431.185 -3.19578 5.21229 0
M  V30 4817 H 435.359 -3.1726 6.19935 0
M  V30 4818 H 432.986 -3.16915 6.90991 0
M  V30 4819 N 434.561 -1.01147 -1.20859 0
M  V30 4820 C 435.81 -0.693214 -1.89413 0
M  V30 4821 C 436.123 0.779969 -1.79376 0
M  V30 4822 O 437.329 1.21057 -2.43017 0
M  V30 4823 C 435.785 -1.18949 -3.39675 0
M  V30 4824 C 435.393 -2.68921 -3.58309 0
M  V30 4825 C 437.137 -0.94642 -4.13815 0
M  V30 4826 C 435.044 -3.12056 -5.0237 0
M  V30 4827 H 433.974 -0.255595 -0.709357 0
M  V30 4828 H 436.625 -1.22349 -1.36759 0
M  V30 4829 H 435.007 -0.587228 -3.91622 0
M  V30 4830 H 436.181 -3.34652 -3.16772 0
M  V30 4831 H 434.496 -2.91314 -2.97532 0
M  V30 4832 H 437.093 -1.24417 -5.20023 0
M  V30 4833 H 437.436 0.117219 -4.16135 0
M  V30 4834 H 437.969 -1.5118 -3.67953 0
M  V30 4835 H 434.708 -4.17674 -5.05202 0
M  V30 4836 H 434.228 -2.51041 -5.44737 0
M  V30 4837 H 435.907 -3.04403 -5.70918 0
M  V30 4838 N 436.039 1.36541 -0.78704 0
M  V30 4839 C 436.986 2.30082 -0.181901 0
M  V30 4840 C 437.956 1.5186 0.672896 0
M  V30 4841 O 439.141 1.80374 0.622072 0
M  V30 4842 C 436.281 3.3835 0.679197 0
M  V30 4843 C 435.394 4.31565 -0.193882 0
M  V30 4844 C 434.529 5.26915 0.673364 0
M  V30 4845 C 433.568 6.11769 -0.201315 0
M  V30 4846 N 432.705 6.99315 0.624777 0
M  V30 4847 H 437.545 2.81248 -0.985064 0
M  V30 4848 H 435.082 1.38437 -0.497342 0
M  V30 4849 H 437.04 3.99767 1.19341 0
M  V30 4850 H 435.67 2.8851 1.44781 0
M  V30 4851 H 434.722 3.71323 -0.826044 0
M  V30 4852 H 436.034 4.91191 -0.867937 0
M  V30 4853 H 435.188 5.9361 1.25348 0
M  V30 4854 H 433.927 4.67737 1.38105 0
M  V30 4855 H 432.932 5.44039 -0.793849 0
M  V30 4856 H 434.157 6.73022 -0.906568 0
M  V30 4857 H 432.103 6.42648 1.3168 0
M  V30 4858 H 432.02 7.56 0.00835237 0
M  V30 4859 H 433.288 7.70382 1.18879 0
M  V30 4860 N 437.518 0.538854 1.48102 0
M  V30 4861 C 438.764 0.00801365 2.02798 0
M  V30 4862 C 439.097 -1.3309 1.41424 0
M  V30 4863 O 438.372 -1.86169 0.563158 0
M  V30 4864 C 438.655 -0.104589 3.59948 0
M  V30 4865 C 438.508 1.26012 4.31788 0
M  V30 4866 C 439.827 -0.827055 4.32259 0
M  V30 4867 H 436.946 0.00438624 0.736987 0
M  V30 4868 H 439.588 0.6976 1.7673 0
M  V30 4869 H 437.738 -0.691893 3.82289 0
M  V30 4870 H 439.41 1.88922 4.2084 0
M  V30 4871 H 437.653 1.83968 3.92859 0
M  V30 4872 H 438.324 1.13424 5.40221 0
M  V30 4873 H 440.8 -0.328578 4.14801 0
M  V30 4874 H 439.676 -0.87476 5.41885 0
M  V30 4875 H 439.937 -1.87927 4.0017 0
M  V30 4876 N 438.996 -1.55193 0.274407 0
M  V30 4877 C 440.412 -1.59401 -0.0797543 0
M  V30 4878 C 440.612 -1.29162 -1.54659 0
M  V30 4879 O 439.668 -1.05215 -2.29534 0
M  V30 4880 C 440.981 -2.99257 0.294238 0
M  V30 4881 C 442.529 -3.12072 0.240796 0
M  V30 4882 C 443.004 -4.54194 0.589218 0
M  V30 4883 N 444.495 -4.60033 0.540744 0
M  V30 4884 C 445.23 -5.68027 0.783147 0
M  V30 4885 N 444.726 -6.8417 1.09013 0
M  V30 4886 N 446.519 -5.57572 0.711993 0
M  V30 4887 H 438.67 -1.73113 1.23067 0
M  V30 4888 H 440.933 -0.807197 0.497129 0
M  V30 4889 H 440.639 -3.26217 1.31435 0
M  V30 4890 H 440.513 -3.75427 -0.365281 0
M  V30 4891 H 442.9 -2.84877 -0.770024 0
M  V30 4892 H 442.981 -2.38117 0.934563 0
M  V30 4893 H 442.625 -4.82115 1.59772 0
M  V30 4894 H 442.555 -5.26448 -0.126331 0
M  V30 4895 H 445.046 -3.76599 0.313327 0
M  V30 4896 H 445.359 -7.6243 1.26178 0
M  V30 4897 H 443.704 -6.85787 1.12789 0
M  V30 4898 H 446.895 -4.65714 0.472014 0
M  V30 4899 H 447.068 -6.41659 0.90429 0
M  V30 4900 N 440.474 -0.00167713 -1.576 0
M  V30 4901 C 441.421 0.989195 -2.08527 0
M  V30 4902 C 442.391 1.34031 -0.981065 0
M  V30 4903 O 443.576 1.43839 -1.2536 0
M  V30 4904 C 440.716 2.27537 -2.59463 0
M  V30 4905 C 439.829 1.98314 -3.83791 0
M  V30 4906 C 438.964 3.21025 -4.23222 0
M  V30 4907 C 438.003 2.87495 -5.40382 0
M  V30 4908 N 437.14 4.02749 -5.75098 0
M  V30 4909 H 441.98 0.547973 -2.92919 0
M  V30 4910 H 439.517 0.258917 -1.44803 0
M  V30 4911 H 441.475 3.02729 -2.87073 0
M  V30 4912 H 440.105 2.69325 -1.77943 0
M  V30 4913 H 439.157 1.13482 -3.63078 0
M  V30 4914 H 440.469 1.69601 -4.69081 0
M  V30 4915 H 439.623 4.04561 -4.52123 0
M  V30 4916 H 438.362 3.52877 -3.36644 0
M  V30 4917 H 437.367 2.02367 -5.11202 0
M  V30 4918 H 438.592 2.56889 -6.28637 0
M  V30 4919 H 436.538 4.34494 -4.91478 0
M  V30 4920 H 436.455 3.77566 -6.54966 0
M  V30 4921 H 437.723 4.87068 -6.08592 0
M  V30 4922 N 441.952 1.55251 0.271103 0
M  V30 4923 C 442.885 1.83191 1.36075 0
M  V30 4924 C 443.863 0.685091 1.47463 0
M  V30 4925 O 445.047 0.928292 1.64058 0
M  V30 4926 C 442.174 1.99521 2.73696 0
M  V30 4927 C 441.22 3.22081 2.79582 0
M  V30 4928 S 442.053 4.79388 2.38636 0
M  V30 4929 C 443.209 4.98693 3.78228 0
M  V30 4930 H 443.442 2.75327 1.12171 0
M  V30 4931 H 440.975 1.47046 0.470833 0
M  V30 4932 H 442.933 2.09613 3.52948 0
M  V30 4933 H 441.594 1.0827 2.9485 0
M  V30 4934 H 440.787 3.304 3.80594 0
M  V30 4935 H 440.389 3.10589 2.08352 0
M  V30 4936 H 442.681 4.84551 4.73515 0
M  V30 4937 H 443.624 6.00738 3.7486 0
M  V30 4938 H 444.032 4.26665 3.69618 0
M  V30 4939 N 443.43 -0.535701 1.48216 0
M  V30 4940 C 444.377 -1.64083 1.62312 0
M  V30 4941 C 445.347 -1.59448 0.465365 0
M  V30 4942 O 446.532 -1.77959 0.688135 0
M  V30 4943 C 443.672 -3.0236 1.66349 0
M  V30 4944 C 442.785 -3.17273 2.93193 0
M  V30 4945 C 441.92 -4.46075 2.88427 0
M  V30 4946 C 440.959 -4.54496 4.1 0
M  V30 4947 N 440.096 -5.7468 4.03345 0
M  V30 4948 H 444.936 -1.51374 2.5669 0
M  V30 4949 H 442.473 -0.737059 1.27302 0
M  V30 4950 H 444.431 -3.82461 1.66672 0
M  V30 4951 H 443.061 -3.13854 0.754672 0
M  V30 4952 H 442.113 -2.30462 3.02641 0
M  V30 4953 H 443.425 -3.19357 3.83162 0
M  V30 4954 H 442.579 -5.3446 2.87119 0
M  V30 4955 H 441.318 -4.46504 1.96177 0
M  V30 4956 H 440.323 -3.64519 4.11589 0
M  V30 4957 H 441.548 -4.5581 5.03402 0
M  V30 4958 H 439.494 -5.76017 3.13912 0
M  V30 4959 H 439.411 -5.78234 4.87013 0
M  V30 4960 H 440.679 -6.65367 4.06087 0
M  V30 4961 N 444.908 -1.36708 -0.784132 0
M  V30 4962 C 445.871 -1.31307 -1.87859 0
M  V30 4963 C 446.871 -0.219654 -1.59293 0
M  V30 4964 O 448.061 -0.47476 -1.67606 0
M  V30 4965 C 445.193 -1.03679 -3.24751 0
M  V30 4966 H 446.386 -2.28647 -1.94064 0
M  V30 4967 H 443.939 -1.21558 -0.98252 0
M  V30 4968 H 444.674 -0.0681936 -3.24228 0
M  V30 4969 H 444.459 -1.82811 -3.46876 0
M  V30 4970 H 445.949 -1.02518 -4.04821 0
M  V30 4971 N 446.386 1.0089 -1.21074 0
M  V30 4972 C 447.635 1.74019 -1.01981 0
M  V30 4973 C 447.948 1.90408 0.447665 0
M  V30 4974 O 449.154 2.60707 0.757906 0
M  V30 4975 C 447.61 3.13026 -1.77603 0
M  V30 4976 C 447.218 3.04623 -3.28495 0
M  V30 4977 C 448.962 3.90312 -1.66904 0
M  V30 4978 C 446.869 4.38685 -3.96623 0
M  V30 4979 H 445.799 0.652422 -0.377971 0
M  V30 4980 H 448.45 1.12755 -1.44771 0
M  V30 4981 H 446.832 3.74878 -1.27604 0
M  V30 4982 H 448.006 2.52032 -3.85767 0
M  V30 4983 H 446.321 2.40827 -3.39693 0
M  V30 4984 H 448.918 4.8951 -2.15138 0
M  V30 4985 H 449.261 4.11558 -0.62658 0
M  V30 4986 H 449.794 3.35104 -2.14359 0
M  V30 4987 H 446.533 4.22641 -5.01054 0
M  V30 4988 H 446.053 4.91252 -3.4414 0
M  V30 4989 H 447.732 5.075 -4.01314 0
M  V30 4990 N 447.864 1.01787 1.20321 0
M  V30 4991 C 449.094 0.72614 1.93419 0
M  V30 4992 C 449.502 -0.717317 1.75075 0
M  V30 4993 O 448.845 -1.49836 1.06278 0
M  V30 4994 C 448.907 0.983621 3.45782 0
M  V30 4995 C 448.571 2.41645 3.87888 0
M  V30 4996 C 449.568 3.39732 3.93545 0
M  V30 4997 C 447.253 2.75752 4.19841 0
M  V30 4998 C 449.247 4.69988 4.30569 0
M  V30 4999 C 446.934 4.06221 4.56539 0
M  V30 5000 C 447.932 5.0315 4.61876 0
M  V30 5001 O 447.62 6.31284 4.97731 0
M  V30 5002 H 447.352 0.265824 0.621541 0
M  V30 5003 H 449.906 1.3623 1.53722 0
M  V30 5004 H 448.136 0.290301 3.85609 0
M  V30 5005 H 449.825 0.683279 4.00108 0
M  V30 5006 H 450.591 3.14718 3.69022 0
M  V30 5007 H 446.47 2.00993 4.14877 0
M  V30 5008 H 450.014 5.45642 4.3465 0
M  V30 5009 H 445.911 4.31013 4.80518 0
M  V30 5010 H 446.679 6.35591 5.15719 0
M  V30 5011 N 449.342 -1.36122 0.79427 0
M  V30 5012 C 450.292 -2.27373 0.169017 0
M  V30 5013 C 451.276 -1.4719 -0.649913 0
M  V30 5014 O 452.468 -1.69518 -0.50919 0
M  V30 5015 C 449.597 -3.36264 -0.691455 0
M  V30 5016 C 448.683 -4.2388 0.13653 0
M  V30 5017 N 449.074 -4.91519 1.19345 0
M  V30 5018 C 447.372 -4.45921 -0.0838499 0
M  V30 5019 C 448.073 -5.56369 1.6979 0
M  V30 5020 N 447.049 -5.34204 1.00634 0
M  V30 5021 H 450.851 -2.77154 0.977897 0
M  V30 5022 H 448.365 -1.49504 0.634208 0
M  V30 5023 H 450.362 -4.00572 -1.15534 0
M  V30 5024 H 449.022 -2.88037 -1.49883 0
M  V30 5025 H 450.033 -4.9334 1.57594 0
M  V30 5026 H 446.71 -4.08518 -0.861341 0
M  V30 5027 H 448.1 -6.20368 2.58055 0
M  V30 5028 N 450.82 -0.546701 -1.47814 0
M  V30 5029 C 452.048 -0.0232857 -2.06887 0
M  V30 5030 C 452.463 1.26571 -1.4009 0
M  V30 5031 O 451.82 1.7569 -0.493906 0
M  V30 5032 C 451.871 0.186975 -3.61016 0
M  V30 5033 O 451.592 -1.05097 -4.25307 0
M  V30 5034 C 453.093 0.748872 -4.36929 0
M  V30 5035 H 450.313 -0.0410763 -0.669742 0
M  V30 5036 H 452.857 -0.757117 -1.89968 0
M  V30 5037 H 451.012 0.870903 -3.77484 0
M  V30 5038 H 451.426 -0.842121 -5.17695 0
M  V30 5039 H 452.9 0.845334 -5.45489 0
M  V30 5040 H 453.377 1.75772 -4.02493 0
M  V30 5041 H 453.983 0.100979 -4.2518 0
M  V30 5042 N 452.299 1.55045 -0.282633 0
M  V30 5043 C 453.229 2.2579 0.595066 0
M  V30 5044 C 454.21 1.25074 1.15284 0
M  V30 5045 O 455.395 1.5381 1.18559 0
M  V30 5046 C 452.525 2.98472 1.77572 0
M  V30 5047 C 451.479 4.0618 1.34914 0
M  V30 5048 C 450.805 4.66477 2.6135 0
M  V30 5049 C 452.105 5.1996 0.493821 0
M  V30 5050 H 453.799 2.994 0.00505653 0
M  V30 5051 H 451.345 1.44 0.000992001 0
M  V30 5052 H 453.298 3.46677 2.39568 0
M  V30 5053 H 452.022 2.2241 2.39168 0
M  V30 5054 H 450.681 3.58797 0.752338 0
M  V30 5055 H 450.329 3.87074 3.2122 0
M  V30 5056 H 450.029 5.39207 2.33516 0
M  V30 5057 H 451.553 5.17435 3.24181 0
M  V30 5058 H 452.967 5.64172 1.01898 0
M  V30 5059 H 451.364 5.99299 0.310047 0
M  V30 5060 H 452.434 4.82462 -0.485593 0
M  V30 5061 N 453.777 0.010035 1.57597 0
M  V30 5062 C 454.725 -0.996272 2.10184 0
M  V30 5063 C 455.719 -1.34942 1.02406 0
M  V30 5064 O 456.925 -1.33389 1.20861 0
M  V30 5065 H 453.3 -0.338982 0.671264 0
M  V30 5066 H 455.271 -0.527272 2.93705 0
M  V30 5067 C 454.02 -2.27599 2.62857 0
M  V30 5068 H 453.343 -2.01295 3.45428 0
M  V30 5069 H 454.783 -2.96265 3.0332 0
M  V30 5070 C 453.242 -2.99269 1.54725 0
M  V30 5071 O 453.772 -3.90644 0.93597 0
M  V30 5072 N 451.978 -2.61269 1.27228 0
M  V30 5073 H 451.525 -1.87043 1.77123 0
M  V30 5074 H 451.483 -3.09534 0.550999 0
M  V30 5075 N 455.255 -1.55392 -0.262866 0
M  V30 5076 C 456.185 -1.91978 -1.32917 0
M  V30 5077 C 457.166 -0.7828 -1.51017 0
M  V30 5078 O 458.351 -1.04178 -1.63892 0
M  V30 5079 C 455.481 -2.20055 -2.68687 0
M  V30 5080 C 454.435 -3.35854 -2.65304 0
M  V30 5081 C 453.761 -3.49435 -4.04721 0
M  V30 5082 C 455.061 -4.71977 -2.23685 0
M  V30 5083 H 456.755 -2.81292 -1.02544 0
M  V30 5084 H 454.301 -1.3534 -0.491846 0
M  V30 5085 H 456.254 -2.44237 -3.43404 0
M  V30 5086 H 454.978 -1.27551 -3.00663 0
M  V30 5087 H 453.637 -3.11655 -1.93045 0
M  V30 5088 H 453.285 -2.54379 -4.33936 0
M  V30 5089 H 452.985 -4.27297 -4.0335 0
M  V30 5090 H 454.509 -3.7592 -4.81161 0
M  V30 5091 H 455.923 -4.95637 -2.88127 0
M  V30 5092 H 454.32 -5.52828 -2.33456 0
M  V30 5093 H 455.39 -4.70115 -1.18827 0
M  V30 5094 N 456.733 0.527833 -1.48498 0
M  V30 5095 C 457.973 1.29401 -1.58224 0
M  V30 5096 C 458.337 1.90348 -0.251327 0
M  V30 5097 O 459.538 2.67868 -0.223588 0
M  V30 5098 C 457.809 2.35266 -2.69044 0
M  V30 5099 S 459.368 3.2158 -2.98549 0
M  V30 5100 H 456.186 0.440138 -0.558391 0
M  V30 5101 H 458.788 0.601079 -1.8603 0
M  V30 5102 H 457.492 1.88975 -3.64303 0
M  V30 5103 H 457.023 3.09263 -2.43146 0
M  V30 5104 H 459.038 4.35391 -2.38011 0
M  V30 5105 N 458.211 1.37122 0.776871 0
M  V30 5106 C 459.159 1.32549 1.91138 0
M  V30 5107 C 460.153 0.215119 1.68029 0
M  V30 5108 O 461.359 0.382852 1.75881 0
M  V30 5109 H 457.734 0.412952 0.62847 0
M  V30 5110 H 459.705 2.28332 1.92112 0
M  V30 5111 C 458.454 1.14422 3.28333 0
M  V30 5112 H 457.777 1.99115 3.46689 0
M  V30 5113 H 459.217 1.15272 4.0803 0
M  V30 5114 C 457.676 -0.150434 3.36564 0
M  V30 5115 O 458.206 -1.13584 3.85307 0
M  V30 5116 N 456.412 -0.19939 2.89915 0
M  V30 5117 H 455.959 0.603142 2.5044 0
M  V30 5118 H 455.917 -1.06526 2.95803 0
M  V30 5119 N 459.689 -1.00246 1.21608 0
M  V30 5120 C 460.938 -1.73476 1.02902 0
M  V30 5121 C 461.251 -1.90643 -0.437561 0
M  V30 5122 O 462.457 -2.61105 -0.74407 0
M  V30 5123 C 460.913 -3.12079 1.79261 0
M  V30 5124 C 460.521 -3.02877 3.30106 0
M  V30 5125 C 462.265 -3.89421 1.68972 0
M  V30 5126 C 460.172 -4.36575 3.98944 0
M  V30 5127 H 459.102 -0.650408 0.381425 0
M  V30 5128 H 461.753 -1.11985 1.45367 0
M  V30 5129 H 460.135 -3.74196 1.2959 0
M  V30 5130 H 461.309 -2.49983 3.87098 0
M  V30 5131 H 459.624 -2.39022 3.40965 0
M  V30 5132 H 462.221 -4.88362 2.17731 0
M  V30 5133 H 462.564 -4.1122 0.648397 0
M  V30 5134 H 463.097 -3.33963 2.16133 0
M  V30 5135 H 459.836 -4.19978 5.03288 0
M  V30 5136 H 459.356 -4.8942 3.4674 0
M  V30 5137 H 461.035 -5.05364 4.04 0
M  V30 5138 N 461.167 -1.02423 -1.1978 0
M  V30 5139 C 462.444 -0.632802 -1.85081 0
M  V30 5140 C 462.824 0.888745 -1.9148 0
M  V30 5141 O 462.172 1.78357 -1.42832 0
M  V30 5142 C 462.382 -1.28947 -3.24305 0
M  V30 5143 C 463.73 -1.40976 -4.00513 0
M  V30 5144 O 464.754 -1.24628 -3.33686 0
M  V30 5145 O 463.613 -1.67467 -5.20209 0
M  V30 5146 H 460.707 -0.219348 -0.79738 0
M  V30 5147 H 463.253 -1.12209 -1.27307 0
M  V30 5148 H 462.025 -2.3288 -3.14456 0
M  V30 5149 H 461.648 -0.787748 -3.89718 0
M  V30 5150 N 462.645 1.35699 -0.801477 0
M  V30 5151 C 463.891 1.99208 -0.380022 0
M  V30 5152 C 464.224 1.63445 1.04878 0
M  V30 5153 O 463.499 0.895223 1.72673 0
M  V30 5154 C 463.782 3.55755 -0.557708 0
M  V30 5155 C 463.635 4.01332 -2.03107 0
M  V30 5156 C 464.954 4.40096 0.0197968 0
M  V30 5157 H 462.073 0.723667 -0.139552 0
M  V30 5158 H 464.715 1.60928 -1.01006 0
M  V30 5159 H 462.865 3.88494 -0.0213741 0
M  V30 5160 H 464.537 3.79026 -2.62939 0
M  V30 5161 H 462.78 3.52429 -2.52936 0
M  V30 5162 H 463.451 5.10234 -2.1063 0
M  V30 5163 H 465.927 4.13786 -0.438179 0
M  V30 5164 H 464.803 5.48735 -0.134477 0
M  V30 5165 H 465.064 4.2786 1.11303 0
M  V30 5166 N 464.123 0.554532 1.47522 0
M  V30 5167 C 465.351 0.034257 2.06872 0
M  V30 5168 C 465.766 -1.25826 1.40759 0
M  V30 5169 O 465.123 -1.75425 0.503217 0
M  V30 5170 C 465.174 -0.167827 3.6111 0
M  V30 5171 O 464.895 1.07351 4.24744 0
M  V30 5172 C 466.396 -0.72569 4.3732 0
M  V30 5173 H 463.616 0.0446275 0.669514 0
M  V30 5174 H 466.16 0.767181 1.89564 0
M  V30 5175 H 464.315 -0.850872 3.7794 0
M  V30 5176 H 464.729 0.869563 5.17242 0
M  V30 5177 H 466.203 -0.816394 5.45929 0
M  V30 5178 H 466.68 -1.73635 4.0342 0
M  V30 5179 H 467.286 -0.0784292 4.25228 0
M  V30 5180 N 465.601 -1.54893 0.290851 0
M  V30 5181 C 466.533 -2.20564 -0.623236 0
M  V30 5182 C 467.546 -1.19519 -1.1054 0
M  V30 5183 O 468.735 -1.46165 -1.02459 0
M  V30 5184 C 465.835 -2.83033 -1.86401 0
M  V30 5185 C 465.008 -4.09916 -1.52604 0
M  V30 5186 C 464.067 -4.56284 -2.62091 0
M  V30 5187 O 463.093 -5.2171 -2.27612 0
M  V30 5188 N 464.295 -4.27746 -3.92446 0
M  V30 5189 H 467.06 -2.99638 -0.0610915 0
M  V30 5190 H 464.621 -1.61508 0.112615 0
M  V30 5191 H 466.613 -3.1099 -2.58973 0
M  V30 5192 H 465.183 -2.0786 -2.33481 0
M  V30 5193 H 464.403 -3.89078 -0.633424 0
M  V30 5194 H 465.691 -4.92554 -1.27547 0
M  V30 5195 H 465.089 -3.7531 -4.23272 0
M  V30 5196 H 463.646 -4.60437 -4.61347 0
M  V30 5197 N 467.08 -0.0183926 -1.57589 0
M  V30 5198 C 468.027 0.967022 -2.09565 0
M  V30 5199 C 468.997 1.32983 -0.995225 0
M  V30 5200 O 470.182 1.42501 -1.26878 0
M  V30 5201 C 467.322 2.24772 -2.61861 0
M  V30 5202 C 466.435 1.94232 -3.85873 0
M  V30 5203 C 465.57 3.16518 -4.26603 0
M  V30 5204 C 464.609 2.81748 -5.43401 0
M  V30 5205 N 463.746 3.96626 -5.79338 0
M  V30 5206 H 468.586 0.516874 -2.93483 0
M  V30 5207 H 466.123 0.243544 -1.4507 0
M  V30 5208 H 468.081 2.99667 -2.90268 0
M  V30 5209 H 466.711 2.67423 -1.8079 0
M  V30 5210 H 465.763 1.09625 -3.64262 0
M  V30 5211 H 467.075 1.64616 -4.70853 0
M  V30 5212 H 466.229 3.99743 -4.56389 0
M  V30 5213 H 464.968 3.49286 -3.40368 0
M  V30 5214 H 463.973 1.96933 -5.1332 0
M  V30 5215 H 465.198 2.50207 -6.31327 0
M  V30 5216 H 463.144 4.29257 -4.96059 0
M  V30 5217 H 463.061 3.70598 -6.58933 0
M  V30 5218 H 464.329 4.80586 -6.13724 0
M  V30 5219 N 468.558 1.5553 0.254621 0
M  V30 5220 C 469.798 1.7876 0.991179 0
M  V30 5221 C 470.162 0.586669 1.82817 0
M  V30 5222 O 471.363 0.697585 2.5959 0
M  V30 5223 C 469.634 3.06679 1.83529 0
M  V30 5224 S 471.193 3.511 2.632 0
M  V30 5225 H 468.011 0.627916 0.333531 0
M  V30 5226 H 470.613 1.93766 0.259778 0
M  V30 5227 H 469.317 3.92158 1.20996 0
M  V30 5228 H 468.848 2.94388 2.60958 0
M  V30 5229 H 470.863 3.11823 3.8598 0
M  V30 5230 N 470.036 -0.519951 1.48776 0
M  V30 5231 C 470.966 -1.63253 1.66945 0
M  V30 5232 C 471.947 -1.62014 0.518224 0
M  V30 5233 O 473.132 -1.79053 0.751919 0
M  V30 5234 C 470.262 -3.0181 1.71836 0
M  V30 5235 C 469.216 -3.17911 2.8656 0
M  V30 5236 C 468.542 -4.5763 2.76548 0
M  V30 5237 C 469.842 -2.99729 4.27738 0
M  V30 5238 H 471.536 -1.48302 2.6009 0
M  V30 5239 H 469.082 -0.712026 1.25165 0
M  V30 5240 H 471.035 -3.79525 1.83135 0
M  V30 5241 H 469.759 -3.17806 0.752775 0
M  V30 5242 H 468.418 -2.42616 2.74833 0
M  V30 5243 H 468.066 -4.70476 1.77937 0
M  V30 5244 H 467.766 -4.69346 3.53536 0
M  V30 5245 H 469.29 -5.37431 2.89828 0
M  V30 5246 H 470.704 -3.67228 4.40246 0
M  V30 5247 H 469.101 -3.22932 5.05801 0
M  V30 5248 H 470.171 -1.96047 4.43502 0
M  V30 5249 N 471.514 -1.37532 -0.769588 0
M  V30 5250 C 472.763 -1.32183 -1.5235 0
M  V30 5251 C 473.076 0.0906555 -1.9539 0
M  V30 5252 O 474.282 0.266628 -2.70188 0
M  V30 5253 C 472.738 -2.32029 -2.75119 0
M  V30 5254 C 472.346 -3.78816 -2.3917 0
M  V30 5255 C 474.09 -2.35694 -3.53056 0
M  V30 5256 C 471.997 -4.70388 -3.58453 0
M  V30 5257 H 470.927 -0.491275 -0.571984 0
M  V30 5258 H 473.578 -1.63004 -0.842739 0
M  V30 5259 H 471.96 -1.94229 -3.45096 0
M  V30 5260 H 473.134 -4.25466 -1.76962 0
M  V30 5261 H 471.449 -3.78117 -1.74402 0
M  V30 5262 H 474.046 -3.01312 -4.41718 0
M  V30 5263 H 474.389 -1.37117 -3.93071 0
M  V30 5264 H 474.922 -2.72212 -2.90078 0
M  V30 5265 H 471.661 -5.70102 -3.23518 0
M  V30 5266 H 471.181 -4.28442 -4.19758 0
M  V30 5267 H 472.86 -4.87628 -4.25239 0
M  V30 5268 N 472.992 0.995999 -1.22138 0
M  V30 5269 C 473.955 2.06711 -0.990109 0
M  V30 5270 C 474.955 1.60744 0.0422978 0
M  V30 5271 O 476.145 1.73095 -0.195895 0
M  V30 5272 C 473.277 3.37288 -0.49491 0
M  V30 5273 H 474.47 2.28661 -1.94047 0
M  V30 5274 H 472.023 1.16711 -1.03963 0
M  V30 5275 H 472.758 3.21022 0.459948 0
M  V30 5276 H 472.543 3.71986 -1.23971 0
M  V30 5277 H 474.033 4.16103 -0.353253 0
M  V30 5278 N 474.47 1.03057 1.19235 0
M  V30 5279 C 475.38 0.622922 2.26179 0
M  V30 5280 C 476.396 -0.346113 1.70523 0
M  V30 5281 O 477.572 -0.203572 2.00369 0
M  V30 5282 C 474.637 -0.0182063 3.46695 0
M  V30 5283 C 473.698 0.998546 4.17526 0
M  V30 5284 C 472.931 0.387917 5.32288 0
M  V30 5285 O 473.154 -0.808668 5.64639 0
M  V30 5286 O 472.088 1.1116 5.91546 0
M  V30 5287 H 475.914 1.51363 2.63292 0
M  V30 5288 H 473.499 0.800856 1.26122 0
M  V30 5289 H 475.381 -0.375606 4.19723 0
M  V30 5290 H 474.056 -0.882895 3.11427 0
M  V30 5291 H 472.963 1.40756 3.4661 0
M  V30 5292 H 474.296 1.83366 4.56769 0
M  V30 5293 N 475.948 -1.35272 0.808662 0
M  V30 5294 C 477.194 -1.99003 0.390581 0
M  V30 5295 C 477.527 -1.63999 -1.0401 0
M  V30 5296 O 476.802 -0.904368 -1.72196 0
M  V30 5297 C 477.085 -3.55454 0.576566 0
M  V30 5298 C 476.938 -4.00249 2.05233 0
M  V30 5299 C 478.257 -4.401 0.00354277 0
M  V30 5300 H 475.376 -0.722917 0.143388 0
M  V30 5301 H 478.018 -1.6039 1.01858 0
M  V30 5302 H 476.168 -3.88477 0.0419766 0
M  V30 5303 H 477.84 -3.77626 2.64946 0
M  V30 5304 H 476.083 -3.51082 2.54801 0
M  V30 5305 H 476.754 -5.0911 2.13333 0
M  V30 5306 H 479.23 -4.13548 0.460117 0
M  V30 5307 H 478.106 -5.48656 0.163575 0
M  V30 5308 H 478.367 -4.28444 -1.09032 0
M  V30 5309 N 477.426 -0.562348 -1.47226 0
M  V30 5310 C 478.672 -0.0485293 -2.03342 0
M  V30 5311 C 479.027 1.28898 -1.42839 0
M  V30 5312 O 478.32 1.82719 -0.576563 0
M  V30 5313 C 478.514 0.0969817 -3.57268 0
M  V30 5314 C 478.343 -1.22487 -4.32697 0
M  V30 5315 C 477.113 -1.79357 -4.72397 0
M  V30 5316 C 479.311 -2.14332 -4.67511 0
M  V30 5317 N 477.293 -3.05493 -5.32491 0
M  V30 5318 C 478.664 -3.25049 -5.27961 0
M  V30 5319 C 480.719 -2.14263 -4.4944 0
M  V30 5320 C 479.422 -4.35804 -5.72248 0
M  V30 5321 C 481.448 -3.24033 -4.94729 0
M  V30 5322 C 480.81 -4.3347 -5.55233 0
M  V30 5323 H 476.909 -0.0600464 -0.779691 0
M  V30 5324 H 479.493 -0.750769 -1.79643 0
M  V30 5325 H 477.664 0.768353 -3.80724 0
M  V30 5326 H 479.396 0.613333 -4.00025 0
M  V30 5327 H 476.151 -1.33093 -4.54514 0
M  V30 5328 H 476.575 -3.698 -5.67077 0
M  V30 5329 H 481.217 -1.30935 -4.02015 0
M  V30 5330 H 478.935 -5.19888 -6.18661 0
M  V30 5331 H 482.521 -3.25073 -4.82513 0
M  V30 5332 H 481.401 -5.17008 -5.89638 0
M  V30 5333 N 478.904 1.54736 -0.299062 0
M  V30 5334 C 480.144 2.0201 0.31168 0
M  V30 5335 C 480.508 1.18281 1.5124 0
M  V30 5336 O 481.709 1.55243 2.19438 0
M  V30 5337 C 479.98 3.5123 0.661227 0
M  V30 5338 S 481.539 4.20467 1.2551 0
M  V30 5339 H 478.357 0.704523 0.0957517 0
M  V30 5340 H 480.959 1.90791 -0.426482 0
M  V30 5341 H 479.663 4.09804 -0.221171 0
M  V30 5342 H 479.194 3.66481 1.43023 0
M  V30 5343 H 481.209 4.26083 2.54298 0
M  V30 5344 N 480.382 0.0267497 1.57577 0
M  V30 5345 C 481.793 -0.512413 1.79531 0
M  V30 5346 C 482.144 -1.72391 0.936791 0
M  V30 5347 O 481.269 -2.15903 0.146543 0
M  V30 5348 C 481.864 -0.936378 3.25603 0
M  V30 5349 C 480.423 -1.42067 3.4856 0
M  V30 5350 C 479.57 -0.384278 2.74624 0
M  V30 5351 H 482.521 0.252797 1.56674 0
M  V30 5352 H 482.542 -1.80088 3.35184 0
M  V30 5353 H 482.054 -0.0544332 3.88062 0
M  V30 5354 H 480.155 -2.32262 2.9135 0
M  V30 5355 H 480.268 -1.42968 4.57271 0
M  V30 5356 H 478.632 -0.851855 2.40032 0
M  V30 5357 H 479.415 0.489159 3.39797 0
M  V30 5358 N 481.861 -1.55662 -0.24637 0
M  V30 5359 C 483.107 -1.77782 -0.975779 0
M  V30 5360 C 483.44 -0.592103 -1.84953 0
M  V30 5361 O 482.715 0.409588 -1.90138 0
M  V30 5362 C 482.998 -3.09788 -1.83584 0
M  V30 5363 C 482.851 -4.38764 -0.990241 0
M  V30 5364 C 484.17 -3.38029 -2.81823 0
M  V30 5365 H 481.289 -0.646789 -0.353317 0
M  V30 5366 H 483.931 -1.88398 -0.246248 0
M  V30 5367 H 482.081 -3.00869 -2.45784 0
M  V30 5368 H 483.753 -4.59675 -0.386897 0
M  V30 5369 H 481.996 -4.32798 -0.294626 0
M  V30 5370 H 482.667 -5.27514 -1.62584 0
M  V30 5371 H 485.143 -3.46915 -2.2976 0
M  V30 5372 H 484.019 -4.3161 -3.39122 0
M  V30 5373 H 484.28 -2.58968 -3.58313 0
M  V30 5374 N 483.339 0.512053 -1.4905 0
M  V30 5375 C 484.567 1.29116 -1.61669 0
M  V30 5376 C 484.982 1.86655 -0.283787 0
M  V30 5377 O 484.339 1.67293 0.729331 0
M  V30 5378 C 484.39 2.4293 -2.67707 0
M  V30 5379 O 484.111 1.87758 -3.95826 0
M  V30 5380 C 485.612 3.34476 -2.90931 0
M  V30 5381 H 482.832 0.392009 -0.544583 0
M  V30 5382 H 485.376 0.615881 -1.95006 0
M  V30 5383 H 483.531 3.06308 -2.37179 0
M  V30 5384 H 483.945 2.62393 -4.54148 0
M  V30 5385 H 485.419 4.10642 -3.68886 0
M  V30 5386 H 485.896 3.90801 -2.00427 0
M  V30 5387 H 486.502 2.76874 -3.22832 0
M  V30 5388 N 484.817 1.37938 0.762283 0
M  V30 5389 C 486.094 1.24196 1.51112 0
M  V30 5390 C 486.474 -0.160409 2.1049 0
M  V30 5391 O 485.822 -1.16904 1.96331 0
M  V30 5392 C 486.032 2.34537 2.58445 0
M  V30 5393 C 487.38 2.7254 3.25588 0
M  V30 5394 O 488.404 2.33783 2.68745 0
M  V30 5395 O 487.263 3.39343 4.28379 0
M  V30 5396 H 484.357 0.485175 0.669727 0
M  V30 5397 H 486.903 1.49743 0.798438 0
M  V30 5398 H 485.675 3.28406 2.12756 0
M  V30 5399 H 485.298 2.10505 3.37303 0
M  V30 5400 N 486.295 -0.989507 1.22664 0
M  V30 5401 C 487.225 -2.09847 1.02404 0
M  V30 5402 C 488.206 -1.70007 -0.0561303 0
M  V30 5403 O 489.391 -1.93906 0.106748 0
M  V30 5404 C 486.521 -3.41996 0.604663 0
M  V30 5405 C 485.475 -3.95699 1.63115 0
M  V30 5406 C 484.801 -5.23936 1.0675 0
M  V30 5407 C 486.101 -4.25999 3.02196 0
M  V30 5408 H 487.795 -2.27054 1.95158 0
M  V30 5409 H 485.341 -1.09111 0.939727 0
M  V30 5410 H 487.294 -4.1899 0.45002 0
M  V30 5411 H 486.018 -3.24626 -0.35855 0
M  V30 5412 H 484.677 -3.2084 1.77362 0
M  V30 5413 H 484.325 -5.02909 0.0955422 0
M  V30 5414 H 484.025 -5.60833 1.75328 0
M  V30 5415 H 485.549 -6.0356 0.924516 0
M  V30 5416 H 486.963 -4.93777 2.91303 0
M  V30 5417 H 485.36 -4.74076 3.67929 0
M  V30 5418 H 486.43 -3.33636 3.51873 0
M  V30 5419 N 487.773 -1.03688 -1.18687 0
M  V30 5420 C 489.05 -0.652397 -1.84399 0
M  V30 5421 C 489.43 0.868386 -1.92412 0
M  V30 5422 O 488.778 1.76832 -1.44716 0
M  V30 5423 C 488.988 -1.3238 -3.22919 0
M  V30 5424 C 490.336 -1.45216 -3.98996 0
M  V30 5425 O 491.36 -1.2816 -3.32345 0
M  V30 5426 O 490.219 -1.72975 -5.18403 0
M  V30 5427 H 487.313 -0.227793 -0.795009 0
M  V30 5428 H 489.859 -1.13553 -1.2611 0
M  V30 5429 H 488.631 -2.36202 -3.11968 0
M  V30 5430 H 488.254 -0.829039 -3.88861 0
M  V30 5431 N 489.251 1.34841 -0.815825 0
M  V30 5432 C 490.476 2.03261 -0.41226 0
M  V30 5433 C 490.901 1.61055 0.971751 0
M  V30 5434 O 490.259 0.7917 1.63101 0
M  V30 5435 C 490.307 3.56914 -0.514289 0
M  V30 5436 O 489.411 4.09728 0.468675 0
M  V30 5437 H 488.752 0.641664 -0.170771 0
M  V30 5438 H 491.282 1.72241 -1.10427 0
M  V30 5439 H 491.292 4.06156 -0.387457 0
M  V30 5440 H 489.967 3.86982 -1.52375 0
M  V30 5441 H 488.544 3.71681 0.301316 0
M  V30 5442 N 490.729 0.570148 1.46925 0
M  V30 5443 C 491.978 0.0487352 2.01641 0
M  V30 5444 C 492.291 -1.31433 1.44861 0
M  V30 5445 O 493.497 -1.92638 1.91318 0
M  V30 5446 C 491.953 0.0365817 3.59881 0
M  V30 5447 C 491.561 1.39719 4.25655 0
M  V30 5448 C 493.305 -0.431545 4.22301 0
M  V30 5449 C 491.212 1.34345 5.75939 0
M  V30 5450 H 490.142 0.0144492 0.753862 0
M  V30 5451 H 492.793 0.719928 1.68788 0
M  V30 5452 H 491.175 -0.700522 3.89755 0
M  V30 5453 H 492.349 2.15303 4.07408 0
M  V30 5454 H 490.664 1.80431 3.75278 0
M  V30 5455 H 493.261 -0.490354 5.32447 0
M  V30 5456 H 493.604 -1.44638 3.90366 0
M  V30 5457 H 494.137 0.251102 3.97007 0
M  V30 5458 H 490.876 2.33469 6.12513 0
M  V30 5459 H 490.396 0.629615 5.96486 0
M  V30 5460 H 492.075 1.051 6.38407 0
M  V30 5461 N 492.207 -1.54576 0.307264 0
M  V30 5462 C 493.139 -2.21212 -0.599807 0
M  V30 5463 C 494.152 -1.20685 -1.09266 0
M  V30 5464 O 495.341 -1.47244 -1.00903 0
M  V30 5465 C 492.441 -2.84994 -1.83389 0
M  V30 5466 C 491.614 -4.11511 -1.48248 0
M  V30 5467 C 490.673 -4.59038 -2.57237 0
M  V30 5468 O 489.699 -5.24095 -2.22065 0
M  V30 5469 N 490.901 -4.31884 -3.87887 0
M  V30 5470 H 493.666 -2.99686 -0.0293075 0
M  V30 5471 H 491.227 -1.61379 0.129738 0
M  V30 5472 H 493.219 -3.1372 -2.5566 0
M  V30 5473 H 491.789 -2.10324 -2.31263 0
M  V30 5474 H 491.009 -3.89728 -0.592122 0
M  V30 5475 H 492.297 -4.93879 -1.22316 0
M  V30 5476 H 491.695 -3.79778 -4.19268 0
M  V30 5477 H 490.252 -4.65304 -4.56438 0
M  V30 5478 N 493.685 -0.035106 -1.57561 0
M  V30 5479 C 494.932 0.642229 -1.92046 0
M  V30 5480 C 495.26 1.7179 -0.91206 0
M  V30 5481 O 494.515 1.95544 0.0781153 0
M  V30 5482 C 494.814 1.29149 -3.3325 0
M  V30 5483 C 494.48 0.345604 -4.49574 0
M  V30 5484 C 493.142 0.0852775 -4.81124 0
M  V30 5485 C 495.494 -0.303569 -5.20315 0
M  V30 5486 C 492.822 -0.831927 -5.80772 0
M  V30 5487 C 495.174 -1.20886 -6.20942 0
M  V30 5488 C 493.838 -1.47802 -6.50931 0
M  V30 5489 H 493.108 0.235008 -0.702746 0
M  V30 5490 H 495.755 -0.0981529 -1.91248 0
M  V30 5491 H 494.06 2.10676 -3.30337 0
M  V30 5492 H 495.757 1.82223 -3.57205 0
M  V30 5493 H 492.347 0.558683 -4.24943 0
M  V30 5494 H 496.531 -0.115515 -4.96166 0
M  V30 5495 H 491.787 -1.0481 -6.02349 0
M  V30 5496 H 495.961 -1.71804 -6.74875 0
M  V30 5497 H 493.588 -2.19039 -7.2796 0
M  V30 5498 N 495.163 1.55791 0.238111 0
M  V30 5499 C 496.126 1.90239 1.27835 0
M  V30 5500 C 497.126 0.779552 1.4064 0
M  V30 5501 O 498.316 1.04747 1.3919 0
M  V30 5502 C 495.448 2.13859 2.65475 0
M  V30 5503 H 496.641 2.83262 0.985034 0
M  V30 5504 H 494.194 1.48818 0.477799 0
M  V30 5505 H 494.929 1.23334 2.99932 0
M  V30 5506 H 494.714 2.95643 2.57561 0
M  V30 5507 H 496.204 2.41664 3.40571 0
M  V30 5508 N 496.642 -0.504142 1.49319 0
M  V30 5509 C 497.572 -1.61473 1.68667 0
M  V30 5510 C 498.553 -1.61455 0.535378 0
M  V30 5511 O 499.738 -1.78245 0.770868 0
M  V30 5512 C 496.868 -2.99971 1.75028 0
M  V30 5513 C 495.822 -3.14854 2.89916 0
M  V30 5514 C 495.148 -4.54671 2.81387 0
M  V30 5515 C 496.448 -2.95176 4.30893 0
M  V30 5516 H 498.142 -1.45535 2.61648 0
M  V30 5517 H 495.688 -0.698711 1.25913 0
M  V30 5518 H 497.641 -3.77562 1.8715 0
M  V30 5519 H 496.365 -3.1699 0.786441 0
M  V30 5520 H 495.024 -2.39687 2.77391 0
M  V30 5521 H 494.672 -4.68562 1.82917 0
M  V30 5522 H 494.372 -4.6557 3.58494 0
M  V30 5523 H 495.896 -5.34327 2.95512 0
M  V30 5524 H 497.31 -3.62538 4.44116 0
M  V30 5525 H 495.707 -3.17549 5.09198 0
M  V30 5526 H 496.777 -1.91332 4.45556 0
M  V30 5527 N 498.12 -1.38341 -0.754957 0
M  V30 5528 C 499.536 -1.19508 -1.05783 0
M  V30 5529 C 499.736 -0.0428005 -2.01455 0
M  V30 5530 O 498.792 0.611861 -2.44975 0
M  V30 5531 C 500.105 -2.52091 -1.63923 0
M  V30 5532 C 501.653 -2.58762 -1.76101 0
M  V30 5533 C 502.128 -3.91517 -2.37652 0
M  V30 5534 N 503.619 -3.93049 -2.45085 0
M  V30 5535 C 504.354 -4.9253 -2.93602 0
M  V30 5536 N 503.85 -6.02408 -3.42165 0
M  V30 5537 N 505.643 -4.79921 -2.92629 0
M  V30 5538 H 497.794 -2.1206 -0.120056 0
M  V30 5539 H 500.057 -0.94089 -0.11589 0
M  V30 5540 H 499.763 -3.36858 -1.01093 0
M  V30 5541 H 499.637 -2.70388 -2.63003 0
M  V30 5542 H 502.024 -1.74391 -2.38058 0
M  V30 5543 H 502.105 -2.44333 -0.757294 0
M  V30 5544 H 501.749 -4.76309 -1.76329 0
M  V30 5545 H 501.679 -4.03256 -3.38662 0
M  V30 5546 H 504.17 -3.13685 -2.10736 0
M  V30 5547 H 504.483 -6.74248 -3.77637 0
M  V30 5548 H 502.828 -6.0603 -3.40225 0
M  V30 5549 H 506.019 -3.93194 -2.54001 0
M  V30 5550 H 506.192 -5.57601 -3.30128 0
M  V30 5551 N 499.598 0.982988 -1.23187 0
M  V30 5552 C 501.014 1.2487 -0.993967 0
M  V30 5553 C 501.214 1.99155 0.306498 0
M  V30 5554 O 500.27 2.30688 1.0266 0
M  V30 5555 C 501.583 2.05078 -2.19917 0
M  V30 5556 C 503.131 2.18227 -2.2438 0
M  V30 5557 C 503.606 3.01825 -3.44479 0
M  V30 5558 N 505.097 3.09411 -3.44702 0
M  V30 5559 C 505.832 3.74412 -4.34285 0
M  V30 5560 N 505.328 4.41259 -5.341 0
M  V30 5561 N 507.121 3.71273 -4.22035 0
M  V30 5562 H 499.272 0.485253 -2.06783 0
M  V30 5563 H 501.535 0.276979 -0.906635 0
M  V30 5564 H 501.241 1.57867 -3.14279 0
M  V30 5565 H 501.115 3.05829 -2.2079 0
M  V30 5566 H 503.502 2.64648 -1.30559 0
M  V30 5567 H 503.583 1.16873 -2.2754 0
M  V30 5568 H 503.227 2.56102 -4.38605 0
M  V30 5569 H 503.157 4.03342 -3.38559 0
M  V30 5570 H 505.648 2.61845 -2.7248 0
M  V30 5571 H 505.961 4.88629 -5.98717 0
M  V30 5572 H 504.306 4.39975 -5.38002 0
M  V30 5573 H 507.497 3.18217 -3.43301 0
M  V30 5574 H 507.67 4.21649 -4.92053 0
M  V30 5575 N 501.076 1.04316 1.18135 0
M  V30 5576 C 502.324 0.746542 1.87806 0
M  V30 5577 C 502.645 -0.728082 1.80898 0
M  V30 5578 O 501.915 -1.52554 1.22899 0
M  V30 5579 H 500.495 0.273157 0.695265 0
M  V30 5580 H 503.157 1.32044 1.43354 0
M  V30 5581 H 502.253 1.05362 2.93778 0
M  V30 5582 N 502.554 -1.34406 0.822964 0
M  V30 5583 C 503.782 -2.02508 0.424039 0
M  V30 5584 C 504.197 -1.61975 -0.970022 0
M  V30 5585 O 503.554 -0.825228 -1.62777 0
M  V30 5586 C 503.605 -3.57789 0.516657 0
M  V30 5587 O 503.326 -3.96853 1.85577 0
M  V30 5588 C 504.827 -4.43157 0.112637 0
M  V30 5589 H 502.047 -0.649063 0.170173 0
M  V30 5590 H 504.591 -1.7168 1.11113 0
M  V30 5591 H 502.746 -3.87207 -0.122353 0
M  V30 5592 H 503.16 -4.91538 1.83005 0
M  V30 5593 H 504.634 -5.51527 0.228526 0
M  V30 5594 H 505.111 -4.28939 -0.943837 0
M  V30 5595 H 505.717 -4.19067 0.725449 0
M  V30 5596 N 504.032 -0.577932 -1.46621 0
M  V30 5597 C 504.942 0.160651 -2.34049 0
M  V30 5598 C 505.958 0.890911 -1.49462 0
M  V30 5599 O 507.134 0.855166 -1.82343 0
M  V30 5600 C 504.199 1.16447 -3.26559 0
M  V30 5601 C 503.26 0.4394 -4.27045 0
M  V30 5602 C 502.493 1.3954 -5.15135 0
M  V30 5603 O 502.716 2.63162 -5.06065 0
M  V30 5604 O 501.65 0.908585 -5.95003 0
M  V30 5605 H 505.476 -0.557057 -2.98547 0
M  V30 5606 H 503.061 -0.338369 -1.45518 0
M  V30 5607 H 504.943 1.7434 -3.83645 0
M  V30 5608 H 503.618 1.86373 -2.64663 0
M  V30 5609 H 502.525 -0.181247 -3.73661 0
M  V30 5610 H 503.858 -0.218799 -4.91713 0
M  V30 5611 N 505.51 1.54411 -0.315457 0
M  V30 5612 C 506.46 2.20772 0.569549 0
M  V30 5613 C 507.444 1.18551 1.08787 0
M  V30 5614 O 508.636 1.44213 1.02624 0
M  V30 5615 C 505.765 2.96293 1.73394 0
M  V30 5616 C 504.851 4.05844 1.2309 0
M  V30 5617 N 505.242 5.03822 0.446927 0
M  V30 5618 C 503.54 4.19648 1.51035 0
M  V30 5619 C 504.241 5.8143 0.17725 0
M  V30 5620 N 503.217 5.38245 0.761118 0
M  V30 5621 H 507.019 2.93877 -0.0368076 0
M  V30 5622 H 504.533 1.61949 -0.120915 0
M  V30 5623 H 506.53 3.42313 2.37965 0
M  V30 5624 H 505.19 2.24708 2.34386 0
M  V30 5625 H 506.201 5.17821 0.0905027 0
M  V30 5626 H 502.878 3.59274 2.1267 0
M  V30 5627 H 504.268 6.70369 -0.45335 0
M  V30 5628 N 506.988 0.0434614 1.5754 0
M  V30 5629 C 508.213 -0.645358 1.97104 0
M  V30 5630 C 508.638 -1.64037 0.920521 0
M  V30 5631 O 507.996 -1.80922 -0.11708 0
M  V30 5632 C 508.044 -1.31547 3.35749 0
M  V30 5633 O 507.148 -2.43103 3.33129 0
M  V30 5634 H 506.489 -0.168403 0.64229 0
M  V30 5635 H 509.019 0.109573 2.04306 0
M  V30 5636 H 509.029 -1.66895 3.72304 0
M  V30 5637 H 507.704 -0.586205 4.11748 0
M  V30 5638 H 506.281 -2.0976 3.0831 0
M  V30 5639 N 508.466 -1.55915 -0.229846 0
M  V30 5640 C 509.714 -1.7819 -0.953565 0
M  V30 5641 C 510.035 -0.610504 -1.85197 0
M  V30 5642 O 509.305 0.372988 -1.92316 0
M  V30 5643 H 507.885 -0.657208 -0.355087 0
M  V30 5644 H 510.547 -1.9337 -0.243693 0
M  V30 5645 H 509.643 -2.70011 -1.56527 0
M  V30 5646 N 509.944 0.496216 -1.49584 0
M  V30 5647 C 511.169 1.27865 -1.63295 0
M  V30 5648 C 511.594 1.85592 -0.306156 0
M  V30 5649 O 510.952 1.66092 0.726851 0
M  V30 5650 C 511 2.38128 -2.7079 0
M  V30 5651 O 510.104 3.42108 -2.30296 0
M  V30 5652 H 509.445 0.377279 -0.546403 0
M  V30 5653 H 511.975 0.593497 -1.95803 0
M  V30 5654 H 511.985 2.8382 -2.93104 0
M  V30 5655 H 510.66 1.95479 -3.67098 0
M  V30 5656 H 509.237 3.02301 -2.18331 0
M  V30 5657 N 511.423 1.38739 0.74761 0
M  V30 5658 C 512.651 1.38521 1.53686 0
M  V30 5659 C 513.066 -0.0235129 1.88785 0
M  V30 5660 O 512.423 -0.991662 1.53207 0
M  V30 5661 C 512.474 2.24641 2.83229 0
M  V30 5662 O 512.195 3.60026 2.49625 0
M  V30 5663 C 513.696 2.32669 3.77333 0
M  V30 5664 H 510.916 0.473589 0.475347 0
M  V30 5665 H 513.46 1.82395 0.924786 0
M  V30 5666 H 511.615 1.84213 3.40799 0
M  V30 5667 H 512.029 4.05435 3.3275 0
M  V30 5668 H 513.503 2.97201 4.65162 0
M  V30 5669 H 513.98 1.3421 4.18192 0
M  V30 5670 H 514.586 2.73512 3.25685 0
M  V30 5671 N 512.901 -0.976442 1.23707 0
M  V30 5672 C 514.147 -1.72081 1.07312 0
M  V30 5673 C 514.48 -1.90275 -0.388476 0
M  V30 5674 O 513.755 -1.4579 -1.28746 0
M  V30 5675 C 514.038 -3.11675 1.80363 0
M  V30 5676 C 513.891 -3.01027 3.3422 0
M  V30 5677 C 515.21 -4.1117 1.5693 0
M  V30 5678 H 512.329 -0.624583 0.391236 0
M  V30 5679 H 514.971 -1.13649 1.52263 0
M  V30 5680 H 513.121 -3.61559 1.42153 0
M  V30 5681 H 514.793 -2.58637 3.81975 0
M  V30 5682 H 513.036 -2.3744 3.63049 0
M  V30 5683 H 513.707 -3.9988 3.80525 0
M  V30 5684 H 516.183 -3.7011 1.90151 0
M  V30 5685 H 515.059 -5.06928 2.10513 0
M  V30 5686 H 515.32 -4.392 0.505548 0
M  V30 5687 N 514.379 -1.04941 -1.1758 0
M  V30 5688 C 515.79 -0.784501 -1.69418 0
M  V30 5689 C 516.141 0.693625 -1.8353 0
M  V30 5690 O 515.266 1.53925 -1.52106 0
M  V30 5691 C 515.861 -1.41746 -3.07723 0
M  V30 5692 C 514.42 -1.20066 -3.56737 0
M  V30 5693 C 513.567 -1.5026 -2.33061 0
M  V30 5694 H 516.518 -1.21469 -1.02133 0
M  V30 5695 H 516.539 -0.825381 -3.7144 0
M  V30 5696 H 516.051 -2.49325 -2.9742 0
M  V30 5697 H 514.152 -0.144006 -3.72322 0
M  V30 5698 H 514.265 -1.90384 -4.39648 0
M  V30 5699 H 512.629 -0.922598 -2.37403 0
M  V30 5700 H 513.412 -2.58967 -2.25368 0
M  V30 5701 N 515.857 1.33968 -0.830081 0
M  V30 5702 C 517.082 2.02813 -0.433796 0
M  V30 5703 C 517.507 1.62076 0.954614 0
M  V30 5704 O 516.865 0.808955 1.62252 0
M  V30 5705 C 516.913 3.56348 -0.552115 0
M  V30 5706 O 516.017 4.10202 0.425191 0
M  V30 5707 H 515.358 0.639817 -0.177567 0
M  V30 5708 H 517.888 1.7106 -1.12248 0
M  V30 5709 H 517.898 4.05722 -0.430513 0
M  V30 5710 H 516.573 3.85344 -1.56471 0
M  V30 5711 H 515.15 3.71979 0.261878 0
M  V30 5712 N 517.335 0.585699 1.46312 0
M  V30 5713 C 518.584 0.0701192 2.01578 0
M  V30 5714 C 518.897 -1.29889 1.46247 0
M  V30 5715 O 520.103 -1.90598 1.93351 0
M  V30 5716 C 518.559 0.0747499 3.59822 0
M  V30 5717 C 518.167 1.44226 4.24149 0
M  V30 5718 C 519.911 -0.38673 4.22735 0
M  V30 5719 C 517.818 1.40446 5.74481 0
M  V30 5720 H 516.748 0.0224441 0.753666 0
M  V30 5721 H 519.399 0.737789 1.68015 0
M  V30 5722 H 517.781 -0.659144 3.90476 0
M  V30 5723 H 518.955 2.19612 4.05101 0
M  V30 5724 H 517.27 1.84401 3.73343 0
M  V30 5725 H 519.867 -0.433853 5.32937 0
M  V30 5726 H 520.21 -1.40489 3.91878 0
M  V30 5727 H 520.743 0.293195 3.96718 0
M  V30 5728 H 517.482 2.39952 6.10003 0
M  V30 5729 H 517.002 0.692845 5.95785 0
M  V30 5730 H 518.681 1.11865 6.37256 0
M  V30 5731 N 518.813 -1.54241 0.323641 0
M  V30 5732 C 519.743 -2.27289 -0.534993 0
M  V30 5733 C 520.724 -1.28087 -1.11927 0
M  V30 5734 O 521.909 -1.56899 -1.14439 0
M  V30 5735 C 519.039 -3.03075 -1.69596 0
M  V30 5736 C 517.993 -4.09614 -1.24098 0
M  V30 5737 C 517.319 -4.73242 -2.4889 0
M  V30 5738 C 518.619 -5.21087 -0.355789 0
M  V30 5739 H 520.313 -2.99308 0.0743257 0
M  V30 5740 H 517.859 -1.43952 0.0371874 0
M  V30 5741 H 519.812 -3.52907 -2.30293 0
M  V30 5742 H 518.536 -2.28673 -2.33187 0
M  V30 5743 H 517.195 -3.60666 -0.656945 0
M  V30 5744 H 516.843 -3.95455 -3.10845 0
M  V30 5745 H 516.543 -5.45209 -2.19138 0
M  V30 5746 H 518.067 -5.25848 -3.10348 0
M  V30 5747 H 519.481 -5.66675 -0.869042 0
M  V30 5748 H 517.878 -5.9991 -0.151045 0
M  V30 5749 H 518.948 -4.81005 0.613339 0
M  V30 5750 N 520.291 -0.0518155 -1.57515 0
M  V30 5751 C 521.239 0.940195 -2.12751 0
M  V30 5752 C 522.233 1.3218 -1.05948 0
M  V30 5753 O 523.439 1.30138 -1.24355 0
M  V30 5754 H 519.814 0.321066 -0.680015 0
M  V30 5755 H 521.785 0.449217 -2.94999 0
M  V30 5756 C 520.534 2.2055 -2.68799 0
M  V30 5757 H 519.857 1.92066 -3.50643 0
M  V30 5758 H 521.297 2.88119 -3.11068 0
M  V30 5759 C 519.756 2.95061 -1.62605 0
M  V30 5760 O 520.286 3.88025 -1.03921 0
M  V30 5761 N 518.492 2.57804 -1.34111 0
M  V30 5762 H 518.039 1.82281 -1.8202 0
M  V30 5763 H 517.997 3.07964 -0.632872 0
M  V30 5764 N 521.769 1.56035 0.221574 0
M  V30 5765 C 523.185 1.49026 0.571271 0
M  V30 5766 C 523.385 0.746912 1.87146 0
M  V30 5767 O 522.441 0.286566 2.50869 0
M  V30 5768 C 523.754 2.93579 0.650522 0
M  V30 5769 C 525.302 3.04099 0.741151 0
M  V30 5770 C 525.777 4.5001 0.851747 0
M  V30 5771 N 527.268 4.54053 0.915968 0
M  V30 5772 C 528.003 5.64232 1.02125 0
M  V30 5773 N 527.499 6.84164 1.09049 0
M  V30 5774 N 529.292 5.52084 1.05639 0
M  V30 5775 H 521.443 2.02791 -0.63162 0
M  V30 5776 H 523.706 0.921736 -0.221602 0
M  V30 5777 H 523.412 3.50912 -0.235253 0
M  V30 5778 H 523.286 3.45476 1.51413 0
M  V30 5779 H 525.673 2.4683 1.61737 0
M  V30 5780 H 525.754 2.55371 -0.148128 0
M  V30 5781 H 525.398 5.07896 -0.0200117 0
M  V30 5782 H 525.328 4.96444 1.75644 0
M  V30 5783 H 527.819 3.67683 0.872782 0
M  V30 5784 H 528.132 7.63883 1.1706 0
M  V30 5785 H 526.477 6.86875 1.05962 0
M  V30 5786 H 529.668 4.57317 0.998953 0
M  V30 5787 H 529.841 6.37983 1.13498 0
M  V30 5788 N 523.247 -0.488276 1.49845 0
M  V30 5789 C 524.18 -1.60651 1.62069 0
M  V30 5790 C 525.158 -1.5568 0.469308 0
M  V30 5791 O 526.342 -1.75553 0.686551 0
M  V30 5792 C 523.469 -2.99197 1.58741 0
M  V30 5793 C 522.515 -3.22385 2.79232 0
M  V30 5794 S 523.348 -3.04133 4.40753 0
M  V30 5795 C 524.504 -4.45052 4.4009 0
M  V30 5796 H 524.737 -1.50039 2.56662 0
M  V30 5797 H 522.27 -0.674371 1.38894 0
M  V30 5798 H 524.228 -3.79081 1.57506 0
M  V30 5799 H 522.889 -3.07213 0.654136 0
M  V30 5800 H 522.082 -4.23557 2.73159 0
M  V30 5801 H 521.684 -2.50245 2.77945 0
M  V30 5802 H 523.976 -5.37375 4.12594 0
M  V30 5803 H 524.919 -4.56172 5.41583 0
M  V30 5804 H 525.327 -4.26327 3.70008 0
M  V30 5805 N 524.725 -1.39134 -0.740242 0
M  V30 5806 C 525.657 -1.33332 -1.86428 0
M  V30 5807 C 526.67 -0.243042 -1.60976 0
M  V30 5808 O 527.859 -0.501608 -1.71307 0
M  V30 5809 C 524.959 -1.04626 -3.22346 0
M  V30 5810 C 524.132 -2.24826 -3.75196 0
M  V30 5811 C 523.191 -1.92659 -4.89662 0
M  V30 5812 O 522.217 -2.6529 -5.03597 0
M  V30 5813 N 523.419 -0.889575 -5.73643 0
M  V30 5814 H 526.184 -2.30196 -1.91911 0
M  V30 5815 H 523.745 -1.33168 -0.920756 0
M  V30 5816 H 525.737 -0.811347 -3.96484 0
M  V30 5817 H 524.307 -0.165129 -3.12164 0
M  V30 5818 H 523.527 -2.64301 -2.9247 0
M  V30 5819 H 524.815 -3.05015 -4.07239 0
M  V30 5820 H 524.213 -0.287529 -5.64969 0
M  V30 5821 H 522.77 -0.714557 -6.47871 0
M  V30 5822 N 526.204 0.969867 -1.24223 0
M  V30 5823 C 527.432 1.74756 -1.10761 0
M  V30 5824 C 527.847 1.85713 0.340041 0
M  V30 5825 O 527.204 1.34389 1.23474 0
M  V30 5826 C 527.255 3.16915 -1.73917 0
M  V30 5827 O 526.976 3.06511 -3.13021 0
M  V30 5828 C 528.477 4.11032 -1.66036 0
M  V30 5829 H 525.697 0.548092 -0.387087 0
M  V30 5830 H 528.241 1.2178 -1.64286 0
M  V30 5831 H 526.396 3.66884 -1.244 0
M  V30 5832 H 526.81 3.96079 -3.43834 0
M  V30 5833 H 528.284 5.08446 -2.14911 0
M  V30 5834 H 528.761 4.34785 -0.621159 0
M  V30 5835 H 529.367 3.66972 -2.14969 0
M  V30 5836 N 527.682 1.05563 1.17022 0
M  V30 5837 C 528.63 0.653887 2.2322 0
M  V30 5838 C 529.624 -0.326642 1.66221 0
M  V30 5839 O 530.83 -0.192301 1.7897 0
M  V30 5840 H 527.205 0.193297 0.726733 0
M  V30 5841 H 529.176 1.5596 2.54399 0
M  V30 5842 C 527.925 0.0485434 3.47666 0
M  V30 5843 H 527.248 0.79413 3.91834 0
M  V30 5844 H 528.688 -0.195133 4.23551 0
M  V30 5845 C 527.147 -1.20583 3.14581 0
M  V30 5846 O 527.677 -2.29475 3.29703 0
M  V30 5847 N 525.883 -1.10493 2.68774 0
M  V30 5848 H 525.43 -0.218795 2.56669 0
M  V30 5849 H 525.388 -1.94507 2.47011 0
M  V30 5850 N 529.16 -1.33526 0.837174 0
M  V30 5851 C 530.092 -2.28077 0.226579 0
M  V30 5852 C 531.105 -1.51666 -0.591717 0
M  V30 5853 O 532.294 -1.73511 -0.419064 0
M  V30 5854 C 529.394 -3.31597 -0.69978 0
M  V30 5855 C 528.567 -4.37329 0.0788067 0
M  V30 5856 C 527.626 -5.20526 -0.770637 0
M  V30 5857 O 526.652 -5.68811 -0.210453 0
M  V30 5858 N 527.854 -5.41639 -2.08825 0
M  V30 5859 H 530.619 -2.81115 1.03897 0
M  V30 5860 H 528.18 -1.46201 0.695476 0
M  V30 5861 H 530.172 -3.84158 -1.27298 0
M  V30 5862 H 528.742 -2.78848 -1.41288 0
M  V30 5863 H 527.962 -3.8529 0.833381 0
M  V30 5864 H 529.25 -5.05079 0.614238 0
M  V30 5865 H 528.648 -5.04108 -2.56693 0
M  V30 5866 H 527.205 -5.97263 -2.60998 0
M  V30 5867 N 530.638 -0.59345 -1.46 0
M  V30 5868 C 531.866 -0.0890934 -2.06708 0
M  V30 5869 C 532.281 1.2205 -1.44046 0
M  V30 5870 O 531.638 1.74029 -0.549551 0
M  V30 5871 C 531.689 0.0720263 -3.61428 0
M  V30 5872 O 531.41 -1.18574 -4.21748 0
M  V30 5873 C 532.911 0.609487 -4.3909 0
M  V30 5874 H 530.131 -0.0623628 -0.668096 0
M  V30 5875 H 532.675 -0.817171 -1.87464 0
M  V30 5876 H 530.83 0.750369 -3.80063 0
M  V30 5877 H 531.244 -1.0064 -5.14754 0
M  V30 5878 H 532.718 0.671363 -5.47902 0
M  V30 5879 H 533.195 1.62878 -4.07882 0
M  V30 5880 H 533.801 -0.03434 -4.25286 0
M  V30 5881 N 532.116 1.54067 -0.331816 0
M  V30 5882 C 533.527 1.86059 0.15454 0
M  V30 5883 C 533.878 1.25331 1.50952 0
M  V30 5884 O 533.003 0.562441 2.08963 0
M  V30 5885 C 533.598 3.37581 0.287192 0
M  V30 5886 C 532.157 3.69493 0.717773 0
M  V30 5887 C 531.304 2.76863 -0.155569 0
M  V30 5888 H 534.255 1.48797 -0.55182 0
M  V30 5889 H 534.276 3.63744 1.11671 0
M  V30 5890 H 533.788 3.81751 -0.699131 0
M  V30 5891 H 531.889 3.3086 1.71354 0
M  V30 5892 H 532.002 4.76315 0.5158 0
M  V30 5893 H 530.366 2.51995 0.370213 0
M  V30 5894 H 531.149 3.23861 -1.13881 0
M  V30 5895 N 533.594 0.0601682 1.57485 0
M  V30 5896 C 535.005 -0.474217 1.80577 0
M  V30 5897 C 535.356 -1.70365 0.973147 0
M  V30 5898 O 534.481 -2.15544 0.192306 0
M  V30 5899 C 535.076 -0.867102 3.27516 0
M  V30 5900 C 533.635 -1.34642 3.51495 0
M  V30 5901 C 532.782 -0.32594 2.75378 0
M  V30 5902 H 535.733 0.285973 1.56102 0
M  V30 5903 H 535.754 -1.72938 3.38929 0
M  V30 5904 H 535.266 0.0278927 3.8809 0
M  V30 5905 H 533.367 -2.2603 2.96212 0
M  V30 5906 H 533.48 -1.33237 4.60201 0
M  V30 5907 H 531.844 -0.800749 2.41785 0
M  V30 5908 H 532.627 0.561125 3.38683 0
M  V30 5909 N 535.072 -1.5615 -0.213296 0
M  V30 5910 C 536.3 -1.83638 -0.953139 0
M  V30 5911 C 536.715 -0.640362 -1.77609 0
M  V30 5912 O 536.072 0.391071 -1.78261 0
M  V30 5913 C 536.123 -3.09735 -1.86405 0
M  V30 5914 O 535.844 -4.24723 -1.07435 0
M  V30 5915 C 537.345 -3.5027 -2.71709 0
M  V30 5916 H 534.565 -0.610263 -0.278962 0
M  V30 5917 H 537.109 -2.03247 -0.226035 0
M  V30 5918 H 535.264 -2.92077 -2.545 0
M  V30 5919 H 535.678 -4.9641 -1.69343 0
M  V30 5920 H 537.152 -4.41515 -3.31313 0
M  V30 5921 H 537.629 -2.72406 -3.44516 0
M  V30 5922 H 538.235 -3.70396 -2.09015 0
M  V30 5923 N 536.55 0.480323 -1.50102 0
M  V30 5924 C 537.78 1.25475 -1.64133 0
M  V30 5925 C 538.188 1.8647 -0.320272 0
M  V30 5926 O 537.531 1.69561 0.70673 0
M  V30 5927 C 537.593 2.40996 -2.6676 0
M  V30 5928 C 537.257 2.00711 -4.10565 0
M  V30 5929 C 538.254 1.53492 -4.96725 0
M  V30 5930 C 535.939 2.09714 -4.56427 0
M  V30 5931 C 537.933 1.15806 -6.26792 0
M  V30 5932 C 535.62 1.7164 -5.86501 0
M  V30 5933 C 536.618 1.24763 -6.71508 0
M  V30 5934 O 536.306 0.872122 -7.99155 0
M  V30 5935 H 536.038 0.385983 -0.554971 0
M  V30 5936 H 538.592 0.580848 -1.97016 0
M  V30 5937 H 536.822 3.11528 -2.291 0
M  V30 5938 H 538.511 3.02981 -2.70106 0
M  V30 5939 H 539.277 1.45966 -4.62514 0
M  V30 5940 H 535.156 2.4515 -3.90413 0
M  V30 5941 H 538.7 0.791465 -6.93096 0
M  V30 5942 H 534.597 1.78822 -6.20236 0
M  V30 5943 H 535.365 1.00178 -8.12346 0
M  V30 5944 N 538.028 1.39524 0.732853 0
M  V30 5945 C 538.976 1.38563 1.86824 0
M  V30 5946 C 539.97 0.268467 1.67259 0
M  V30 5947 O 541.176 0.438613 1.74574 0
M  V30 5948 H 537.551 0.432737 0.615014 0
M  V30 5949 H 539.522 2.34328 1.84751 0
M  V30 5950 C 538.271 1.2481 3.24527 0
M  V30 5951 H 537.594 2.10044 3.40179 0
M  V30 5952 H 539.034 1.28194 4.04156 0
M  V30 5953 C 537.493 -0.0432825 3.36872 0
M  V30 5954 O 538.023 -1.01268 3.88726 0
M  V30 5955 N 536.229 -0.107055 2.90403 0
M  V30 5956 H 535.776 0.682512 2.48394 0
M  V30 5957 H 535.734 -0.970618 2.99042 0
M  V30 5958 N 539.506 -0.963266 1.24736 0
M  V30 5959 C 540.453 -2.05857 1.04363 0
M  V30 5960 C 541.423 -1.6604 -0.0444951 0
M  V30 5961 O 542.608 -1.90477 0.110999 0
M  V30 5962 C 539.748 -3.38745 0.659235 0
M  V30 5963 C 538.861 -3.9173 1.82131 0
M  V30 5964 C 537.996 -5.12906 1.38208 0
M  V30 5965 C 537.035 -5.58098 2.51382 0
M  V30 5966 N 536.172 -6.7049 2.08295 0
M  V30 5967 H 541.012 -2.22616 1.98107 0
M  V30 5968 H 538.549 -1.09103 0.986661 0
M  V30 5969 H 540.507 -4.15107 0.417371 0
M  V30 5970 H 539.137 -3.21898 -0.241201 0
M  V30 5971 H 538.189 -3.11966 2.17672 0
M  V30 5972 H 539.501 -4.21225 2.67153 0
M  V30 5973 H 538.655 -5.96657 1.09935 0
M  V30 5974 H 537.394 -4.85105 0.502456 0
M  V30 5975 H 536.399 -4.72917 2.80409 0
M  V30 5976 H 537.624 -5.87911 3.39909 0
M  V30 5977 H 535.57 -6.44416 1.22737 0
M  V30 5978 H 535.487 -6.99458 2.86869 0
M  V30 5979 H 536.755 -7.57672 1.83175 0
M  V30 5980 N 540.985 -1.06182 -1.16461 0
M  V30 5981 C 542.213 -0.798583 -1.90867 0
M  V30 5982 C 542.628 0.646921 -1.77371 0
M  V30 5983 O 541.985 1.44279 -1.11758 0
M  V30 5984 C 542.036 -1.18258 -3.4161 0
M  V30 5985 O 541.757 -2.57135 -3.54701 0
M  V30 5986 C 543.258 -0.946917 -4.33069 0
M  V30 5987 H 540.478 -0.289603 -0.605286 0
M  V30 5988 H 543.022 -1.41515 -1.47627 0
M  V30 5989 H 541.177 -0.610562 -3.82558 0
M  V30 5990 H 541.591 -2.72477 -4.4817 0
M  V30 5991 H 543.065 -1.26523 -5.37304 0
M  V30 5992 H 543.542 0.117406 -4.39043 0
M  V30 5993 H 544.148 -1.50326 -3.97847 0
M  V30 5994 N 542.463 1.3308 -0.844243 0
M  V30 5995 C 543.411 2.31028 -0.269954 0
M  V30 5996 C 544.405 1.58381 0.600997 0
M  V30 5997 O 545.611 1.73203 0.48996 0
M  V30 5998 H 541.986 0.748866 -0.0685782 0
M  V30 5999 H 543.957 2.76967 -1.11049 0
M  V30 6000 C 542.706 3.43549 0.535676 0
M  V30 6001 H 542.029 3.99604 -0.125202 0
M  V30 6002 H 543.469 4.14267 0.903262 0
M  V30 6003 C 541.928 2.8988 1.71672 0
M  V30 6004 O 542.458 2.86511 2.81557 0
M  V30 6005 N 540.664 2.46416 1.54037 0
M  V30 6006 H 540.211 2.49356 0.64649 0
M  V30 6007 H 540.169 2.1086 2.33207 0
M  V30 6008 N 543.941 0.601185 1.45683 0
M  V30 6009 C 544.888 -0.121396 2.30481 0
M  V30 6010 C 545.858 -0.866232 1.41724 0
M  V30 6011 O 547.043 -0.85324 1.70659 0
M  V30 6012 C 544.183 -1.11704 3.26521 0
M  V30 6013 C 543.296 -0.373741 4.3038 0
M  V30 6014 C 542.431 -1.35854 5.13534 0
M  V30 6015 C 541.47 -0.602689 6.09126 0
M  V30 6016 N 540.607 -1.53645 6.85082 0
M  V30 6017 H 545.447 0.607732 2.91737 0
M  V30 6018 H 542.984 0.311502 1.43764 0
M  V30 6019 H 544.942 -1.70735 3.80664 0
M  V30 6020 H 543.572 -1.81366 2.67032 0
M  V30 6021 H 542.624 0.331962 3.78949 0
M  V30 6022 H 543.936 0.2163 4.98331 0
M  V30 6023 H 543.09 -2.02111 5.72046 0
M  V30 6024 H 541.829 -1.98251 4.45587 0
M  V30 6025 H 540.834 0.0735482 5.49751 0
M  V30 6026 H 542.059 0.0161467 6.79098 0
M  V30 6027 H 540.005 -2.14819 6.1983 0
M  V30 6028 H 539.922 -0.999688 7.49361 0
M  V30 6029 H 541.19 -2.1888 7.48139 0
M  V30 6030 N 545.419 -1.53889 0.339982 0
M  V30 6031 C 546.666 -2.00855 -0.257621 0
M  V30 6032 C 546.994 -1.22788 -1.50842 0
M  V30 6033 O 546.249 -0.302567 -1.93347 0
M  V30 6034 C 546.548 -3.51968 -0.620735 0
M  V30 6035 C 546.214 -4.47741 0.532771 0
M  V30 6036 C 544.876 -4.73645 0.849339 0
M  V30 6037 C 547.228 -5.04551 1.3068 0
M  V30 6038 C 544.556 -5.53614 1.94237 0
M  V30 6039 C 546.908 -5.85713 2.39005 0
M  V30 6040 C 545.572 -6.09912 2.71225 0
M  V30 6041 H 544.842 -0.734979 -0.0942703 0
M  V30 6042 H 547.489 -1.85714 0.467159 0
M  V30 6043 H 545.794 -3.64921 -1.42618 0
M  V30 6044 H 547.491 -3.85762 -1.09495 0
M  V30 6045 H 544.081 -4.27711 0.275973 0
M  V30 6046 H 548.265 -4.84507 1.07549 0
M  V30 6047 H 543.521 -5.7059 2.19628 0
M  V30 6048 H 547.695 -6.28748 2.99415 0
M  V30 6049 H 545.322 -6.71665 3.56047 0
M  V30 6050 N 546.897 -0.0685191 -1.57451 0
M  V30 6051 C 548.125 0.610462 -1.97689 0
M  V30 6052 C 548.54 1.63346 -0.946758 0
M  V30 6053 O 547.897 1.82377 0.0669868 0
M  V30 6054 C 547.948 1.28196 -3.38006 0
M  V30 6055 O 547.669 0.299906 -4.37072 0
M  V30 6056 C 549.17 2.04907 -3.931 0
M  V30 6057 H 546.39 0.165689 -0.650222 0
M  V30 6058 H 548.934 -0.139953 -2.04021 0
M  V30 6059 H 547.089 1.98348 -3.32771 0
M  V30 6060 H 547.503 0.78126 -5.18649 0
M  V30 6061 H 548.977 2.47287 -4.93511 0
M  V30 6062 H 549.454 2.9043 -3.29465 0
M  V30 6063 H 550.06 1.39629 -4.01726 0
M  V30 6064 N 548.375 1.56261 0.205012 0
M  V30 6065 C 549.605 1.83874 0.942018 0
M  V30 6066 C 550.013 0.647595 1.77772 0
M  V30 6067 O 549.356 -0.393098 1.79445 0
M  V30 6068 C 549.418 3.05453 1.89575 0
M  V30 6069 C 549.082 4.39772 1.24296 0
M  V30 6070 C 550.079 5.16133 0.624724 0
M  V30 6071 C 547.764 4.86504 1.24978 0
M  V30 6072 C 549.758 6.37396 0.0220117 0
M  V30 6073 C 547.445 6.07705 0.643232 0
M  V30 6074 C 548.443 6.82993 0.0304164 0
M  V30 6075 O 548.131 8.019 -0.566654 0
M  V30 6076 H 547.863 0.614896 0.280854 0
M  V30 6077 H 550.417 2.04215 0.220285 0
M  V30 6078 H 548.647 2.80972 2.65691 0
M  V30 6079 H 550.336 3.19797 2.4997 0
M  V30 6080 H 551.102 4.81127 0.611666 0
M  V30 6081 H 546.981 4.27865 1.71616 0
M  V30 6082 H 550.525 6.96102 -0.456926 0
M  V30 6083 H 546.422 6.42181 0.653759 0
M  V30 6084 H 547.19 8.17192 -0.462588 0
M  V30 6085 N 549.853 -0.472356 1.50355 0
M  V30 6086 C 551.101 -1.22211 1.60962 0
M  V30 6087 C 551.422 -1.92497 0.311439 0
M  V30 6088 O 550.692 -1.8405 -0.671002 0
M  V30 6089 H 549.272 -0.454092 0.593135 0
M  V30 6090 H 551.934 -0.544977 1.87126 0
M  V30 6091 H 551.03 -1.9707 2.42012 0
M  V30 6092 N 551.331 -1.39911 -0.725443 0
M  V30 6093 C 552.578 -1.37654 -1.48518 0
M  V30 6094 C 552.906 0.0243982 -1.94485 0
M  V30 6095 O 552.161 1.00708 -1.67799 0
M  V30 6096 C 552.46 -2.30368 -2.7325 0
M  V30 6097 C 552.126 -3.77817 -2.461 0
M  V30 6098 C 550.788 -4.17991 -2.38405 0
M  V30 6099 C 553.14 -4.71036 -2.23103 0
M  V30 6100 C 550.468 -5.49433 -2.05768 0
M  V30 6101 C 552.82 -6.02766 -1.9198 0
M  V30 6102 C 551.484 -6.41993 -1.82761 0
M  V30 6103 H 550.754 -0.503713 -0.543465 0
M  V30 6104 H 553.401 -1.7249 -0.831822 0
M  V30 6105 H 551.706 -1.88683 -3.43375 0
M  V30 6106 H 553.403 -2.2591 -3.31309 0
M  V30 6107 H 549.993 -3.45982 -2.52972 0
M  V30 6108 H 554.177 -4.40823 -2.2801 0
M  V30 6109 H 549.433 -5.78738 -1.9716 0
M  V30 6110 H 553.607 -6.74519 -1.73197 0
M  V30 6111 H 551.234 -7.43761 -1.57237 0
M  V30 6112 N 552.809 0.956637 -1.25245 0
M  V30 6113 C 553.741 2.05628 -1.01242 0
M  V30 6114 C 554.754 1.62785 0.0219579 0
M  V30 6115 O 555.943 1.77184 -0.216365 0
M  V30 6116 C 553.043 3.35069 -0.508161 0
M  V30 6117 C 552.216 4.06761 -1.60823 0
M  V30 6118 C 551.275 5.14473 -1.1047 0
M  V30 6119 O 550.301 5.40033 -1.79868 0
M  V30 6120 N 551.503 5.80474 0.0550773 0
M  V30 6121 H 554.268 2.2679 -1.95925 0
M  V30 6122 H 551.829 1.12505 -1.16423 0
M  V30 6123 H 553.821 4.044 -0.155819 0
M  V30 6124 H 552.391 3.10694 0.344683 0
M  V30 6125 H 551.611 3.31555 -2.13224 0
M  V30 6126 H 552.899 4.51418 -2.34733 0
M  V30 6127 H 552.297 5.62125 0.635004 0
M  V30 6128 H 550.854 6.50868 0.348469 0
M  V30 6129 N 554.287 1.06798 1.15896 0
M  V30 6130 C 555.235 0.677525 2.22514 0
M  V30 6131 C 556.229 -0.308994 1.66558 0
M  V30 6132 O 557.435 -0.173308 1.79164 0
M  V30 6133 H 553.81 0.200994 0.724642 0
M  V30 6134 H 555.781 1.5865 2.52731 0
M  V30 6135 C 554.53 0.0854153 3.47595 0
M  V30 6136 H 553.853 0.835645 3.90969 0
M  V30 6137 H 555.293 -0.150199 4.23734 0
M  V30 6138 C 553.752 -1.1724 3.15843 0
M  V30 6139 O 554.282 -2.25965 3.32119 0
M  V30 6140 N 552.488 -1.07636 2.69931 0
M  V30 6141 H 552.035 -0.191559 2.56887 0
M  V30 6142 H 551.993 -1.91876 2.4906 0
M  V30 6143 N 555.766 -1.3263 0.851289 0
M  V30 6144 C 557.015 -1.96633 0.449267 0
M  V30 6145 C 557.328 -1.68131 -0.999562 0
M  V30 6146 O 558.534 -2.25845 -1.50685 0
M  V30 6147 C 556.99 -3.51946 0.752446 0
M  V30 6148 C 556.598 -3.89311 2.21678 0
M  V30 6149 C 558.342 -4.22437 0.417983 0
M  V30 6150 C 556.249 -5.37655 2.46336 0
M  V30 6151 H 555.179 -0.735888 0.164269 0
M  V30 6152 H 557.83 -1.51073 1.0416 0
M  V30 6153 H 556.212 -3.95899 0.0895858 0
M  V30 6154 H 557.386 -3.56378 2.92115 0
M  V30 6155 H 555.701 -3.31836 2.51543 0
M  V30 6156 H 558.298 -5.31549 0.579674 0
M  V30 6157 H 558.641 -4.11349 -0.640115 0
M  V30 6158 H 559.174 -3.84057 1.03659 0
M  V30 6159 H 555.913 -5.5376 3.50757 0
M  V30 6160 H 555.433 -5.72005 1.80473 0
M  V30 6161 H 557.112 -6.04695 2.30115 0
M  V30 6162 N 557.244 -0.608902 -1.45362 0
M  V30 6163 C 558.49 -0.104762 -2.02529 0
M  V30 6164 C 558.823 1.26191 -1.47613 0
M  V30 6165 O 558.098 1.8327 -0.65134 0
M  V30 6166 C 558.381 -0.0672661 -3.60037 0
M  V30 6167 C 558.234 -1.4647 -4.25284 0
M  V30 6168 C 559.553 0.619877 -4.35713 0
M  V30 6169 H 556.672 -0.0395438 -0.735938 0
M  V30 6170 H 559.314 -0.781126 -1.73201 0
M  V30 6171 H 557.464 0.50871 -3.85155 0
M  V30 6172 H 559.136 -2.08785 -4.11347 0
M  V30 6173 H 557.379 -2.02502 -3.83634 0
M  V30 6174 H 558.05 -1.39069 -5.34195 0
M  V30 6175 H 560.526 0.130297 -4.15896 0
M  V30 6176 H 559.402 0.615224 -5.45441 0
M  V30 6177 H 559.663 1.68621 -4.0868 0
M  V30 6178 N 558.722 1.53707 -0.348139 0
M  V30 6179 C 559.999 1.93247 0.302475 0
M  V30 6180 C 560.379 1.28012 1.67857 0
M  V30 6181 O 559.727 0.43274 2.24365 0
M  V30 6182 C 559.937 3.47031 0.370159 0
M  V30 6183 C 561.285 4.20066 0.61882 0
M  V30 6184 O 562.309 3.53319 0.452087 0
M  V30 6185 O 561.168 5.38318 0.94215 0
M  V30 6186 H 558.262 0.807736 0.177458 0
M  V30 6187 H 560.808 1.64927 -0.399651 0
M  V30 6188 H 559.58 3.86745 -0.59534 0
M  V30 6189 H 559.203 3.81532 1.11888 0
M  V30 6190 N 560.2 0.0768682 1.57412 0
M  V30 6191 C 561.163 -0.873949 2.11884 0
M  V30 6192 C 562.163 -1.22301 1.04398 0
M  V30 6193 O 563.353 -1.15545 1.30365 0
M  V30 6194 C 560.485 -2.17575 2.62438 0
M  V30 6195 H 561.678 -0.401278 2.97203 0
M  V30 6196 H 559.231 -0.171904 1.55352 0
M  V30 6197 H 559.966 -2.69368 1.80587 0
M  V30 6198 H 559.751 -1.93534 3.41009 0
M  V30 6199 H 561.241 -2.85631 3.04639 0
M  V30 6200 N 561.678 -1.56367 -0.196722 0
M  V30 6201 C 562.908 -1.84371 -0.932254 0
M  V30 6202 C 563.316 -0.657013 -1.77426 0
M  V30 6203 O 562.659 0.383576 -1.79651 0
M  V30 6204 C 562.721 -3.06454 -1.87952 0
M  V30 6205 C 562.385 -4.40425 -1.21962 0
M  V30 6206 C 563.382 -5.16457 -0.597343 0
M  V30 6207 C 561.067 -4.8716 -1.22396 0
M  V30 6208 C 563.061 -6.37399 0.0117913 0
M  V30 6209 C 560.748 -6.08038 -0.610995 0
M  V30 6210 C 561.746 -6.83 0.00580487 0
M  V30 6211 O 561.434 -8.01589 0.609173 0
M  V30 6212 H 561.166 -0.616377 -0.277589 0
M  V30 6213 H 563.72 -2.04329 -0.209452 0
M  V30 6214 H 561.95 -2.82377 -2.64197 0
M  V30 6215 H 563.639 -3.21118 -2.48271 0
M  V30 6216 H 564.405 -4.81445 -0.586142 0
M  V30 6217 H 560.284 -4.2877 -1.69345 0
M  V30 6218 H 563.828 -6.9585 0.493836 0
M  V30 6219 H 559.725 -6.42519 -0.619693 0
M  V30 6220 H 560.493 -8.16935 0.505919 0
M  V30 6221 N 563.156 0.464375 -1.50603 0
M  V30 6222 C 564.404 1.21356 -1.61608 0
M  V30 6223 C 564.725 1.92329 -0.321643 0
M  V30 6224 O 563.995 1.84403 0.661232 0
M  V30 6225 H 562.575 0.45094 -0.595535 0
M  V30 6226 H 565.237 0.535046 -1.87412 0
M  V30 6227 H 564.333 1.95783 -2.43054 0
M  V30 6228 N 564.634 1.40294 0.718013 0
M  V30 6229 C 565.883 1.37746 1.4734 0
M  V30 6230 C 566.196 -0.0180754 1.95592 0
M  V30 6231 O 567.402 -0.166166 2.70991 0
M  V30 6232 C 565.858 2.4208 2.66318 0
M  V30 6233 C 565.466 3.87432 2.24945 0
M  V30 6234 C 567.21 2.48635 3.44065 0
M  V30 6235 C 565.117 4.83368 3.40748 0
M  V30 6236 H 564.047 0.512165 0.553356 0
M  V30 6237 H 566.698 1.66019 0.781661 0
M  V30 6238 H 565.08 2.06903 3.3765 0
M  V30 6239 H 566.254 4.3174 1.6105 0
M  V30 6240 H 564.569 3.8433 1.60249 0
M  V30 6241 H 567.166 3.17499 4.30231 0
M  V30 6242 H 567.509 1.51611 3.87711 0
M  V30 6243 H 568.042 2.82791 2.79775 0
M  V30 6244 H 564.781 5.81716 3.02136 0
M  V30 6245 H 564.301 4.43726 4.03568 0
M  V30 6246 H 565.98 5.03074 4.06848 0
M  V30 6247 N 566.112 -0.949982 1.2575 0
M  V30 6248 C 567.36 -1.6918 1.10555 0
M  V30 6249 C 567.681 -1.91773 -0.353298 0
M  V30 6250 O 566.951 -1.50814 -1.25027 0
M  V30 6251 H 565.531 -0.626952 0.406129 0
M  V30 6252 H 568.193 -1.1419 1.57945 0
M  V30 6253 H 567.289 -2.66915 1.61749 0
M  V30 6254 N 567.59 -1.07411 -1.15328 0
M  V30 6255 C 568.818 -0.818782 -1.90009 0
M  V30 6256 C 569.233 0.628072 -1.78047 0
M  V30 6257 O 568.59 1.43085 -1.13282 0
M  V30 6258 C 568.641 -1.21874 -3.40337 0
M  V30 6259 O 568.362 -2.60883 -3.51954 0
M  V30 6260 C 569.863 -0.992796 -4.3204 0
M  V30 6261 H 567.083 -0.296007 -0.60218 0
M  V30 6262 H 569.627 -1.43073 -1.46117 0
M  V30 6263 H 567.782 -0.651103 -3.81889 0
M  V30 6264 H 568.196 -2.77216 -4.45255 0
M  V30 6265 H 569.67 -1.32215 -5.35932 0
M  V30 6266 H 570.147 0.0708331 -4.39143 0
M  V30 6267 H 570.753 -1.54537 -3.9623 0
M  V30 6268 N 569.068 1.32177 -0.85831 0
M  V30 6269 C 570.298 2.01021 -0.476889 0
M  V30 6270 C 570.706 1.64653 0.931995 0
M  V30 6271 O 570.049 0.865713 1.62022 0
M  V30 6272 C 570.111 3.55413 -0.540528 0
M  V30 6273 C 569.775 4.1522 -1.90895 0
M  V30 6274 C 570.772 4.3318 -2.87491 0
M  V30 6275 C 568.457 4.51212 -2.20709 0
M  V30 6276 C 570.451 4.86306 -4.1205 0
M  V30 6277 C 568.138 5.04042 -3.45521 0
M  V30 6278 C 569.136 5.21538 -4.41007 0
M  V30 6279 O 568.824 5.73238 -5.63608 0
M  V30 6280 H 568.556 0.650059 -0.18547 0
M  V30 6281 H 571.11 1.69648 -1.15796 0
M  V30 6282 H 569.34 3.86196 0.19741 0
M  V30 6283 H 571.029 4.05526 -0.174191 0
M  V30 6284 H 571.795 4.05704 -2.65762 0
M  V30 6285 H 567.674 4.36878 -1.4717 0
M  V30 6286 H 571.218 4.99877 -4.86589 0
M  V30 6287 H 567.115 5.30952 -3.67098 0
M  V30 6288 H 567.883 5.91625 -5.65617 0
M  V30 6289 N 570.547 0.616602 1.45037 0
M  V30 6290 C 571.963 0.280994 1.57107 0
M  V30 6291 C 572.163 -1.21627 1.60653 0
M  V30 6292 O 571.219 -1.9997 1.54169 0
M  V30 6293 C 572.532 0.960116 2.8496 0
M  V30 6294 C 574.08 0.936884 2.98649 0
M  V30 6295 C 574.555 1.59619 4.29285 0
M  V30 6296 N 576.046 1.5621 4.36065 0
M  V30 6297 C 576.781 2.04131 5.35834 0
M  V30 6298 N 576.277 2.60177 6.4209 0
M  V30 6299 N 578.07 1.94845 5.27249 0
M  V30 6300 H 570.221 1.58867 1.40979 0
M  V30 6301 H 572.484 0.666024 0.674623 0
M  V30 6302 H 572.19 2.01473 2.88273 0
M  V30 6303 H 572.064 0.488921 3.74018 0
M  V30 6304 H 574.451 -0.109209 2.94898 0
M  V30 6305 H 574.532 1.44643 2.10979 0
M  V30 6306 H 574.176 2.64166 4.33796 0
M  V30 6307 H 574.106 1.06159 5.15789 0
M  V30 6308 H 576.597 1.15276 3.59889 0
M  V30 6309 H 576.91 2.94513 7.1448 0
M  V30 6310 H 575.255 2.64221 6.42816 0
M  V30 6311 H 578.446 1.50792 4.43147 0
M  V30 6312 H 578.619 2.32504 6.04852 0
M  V30 6313 N 572.025 -1.5352 0.356285 0
M  V30 6314 C 572.935 -2.29151 -0.502712 0
M  V30 6315 C 573.951 -1.34753 -1.1008 0
M  V30 6316 O 575.127 -1.67803 -1.11374 0
M  V30 6317 C 572.192 -3.05911 -1.63154 0
M  V30 6318 C 571.253 -4.15958 -1.06194 0
M  V30 6319 C 570.486 -4.8905 -2.13696 0
M  V30 6320 O 570.709 -4.61919 -3.34645 0
M  V30 6321 O 569.643 -5.75202 -1.77275 0
M  V30 6322 H 573.469 -3.03492 0.112466 0
M  V30 6323 H 571.054 -1.4891 0.120942 0
M  V30 6324 H 572.936 -3.53874 -2.28804 0
M  V30 6325 H 571.611 -2.34415 -2.23229 0
M  V30 6326 H 570.518 -3.7227 -0.369603 0
M  V30 6327 H 571.851 -4.89593 -0.505872 0
M  V30 6328 N 573.503 -0.0852151 -1.57369 0
M  V30 6329 C 574.752 0.580443 -1.93168 0
M  V30 6330 C 575.065 1.6995 -0.968319 0
M  V30 6331 O 576.271 2.42564 -1.21963 0
M  V30 6332 C 574.727 1.08386 -3.43192 0
M  V30 6333 C 574.335 -0.00491388 -4.48 0
M  V30 6334 C 576.079 1.72281 -3.87968 0
M  V30 6335 C 573.986 0.513299 -5.89168 0
M  V30 6336 H 572.916 0.22059 -0.72101 0
M  V30 6337 H 575.567 -0.159621 -1.82804 0
M  V30 6338 H 573.949 1.8773 -3.48674 0
M  V30 6339 H 575.123 -0.780032 -4.5415 0
M  V30 6340 H 573.438 -0.548453 -4.12772 0
M  V30 6341 H 576.035 2.12108 -4.9083 0
M  V30 6342 H 576.378 2.58811 -3.26071 0
M  V30 6343 H 576.911 0.995359 -3.85146 0
M  V30 6344 H 573.65 -0.315153 -6.54742 0
M  V30 6345 H 573.17 1.25564 -5.8651 0
M  V30 6346 H 574.849 0.985433 -6.39451 0
M  V30 6347 N 574.981 1.5647 0.188427 0
M  V30 6348 C 575.929 1.95971 1.25293 0
M  V30 6349 C 576.923 0.846047 1.4676 0
M  V30 6350 O 578.129 1.03109 1.47542 0
M  V30 6351 H 574.504 0.623253 0.420784 0
M  V30 6352 H 576.475 2.84731 0.892792 0
M  V30 6353 C 575.224 2.32116 2.58877 0
M  V30 6354 H 574.547 3.17341 2.43176 0
M  V30 6355 H 575.987 2.63613 3.3209 0
M  V30 6356 C 574.446 1.15823 3.16365 0
M  V30 6357 O 574.976 0.436785 3.99318 0
M  V30 6358 N 573.182 0.933278 2.75206 0
M  V30 6359 H 572.729 1.52169 2.07852 0
M  V30 6360 H 572.687 0.156976 3.14008 0
M  V30 6361 N 576.459 -0.456382 1.50847 0
M  V30 6362 C 577.87 -1.03685 1.55262 0
M  V30 6363 C 578.221 -1.92779 0.364771 0
M  V30 6364 O 577.346 -2.10043 -0.52068 0
M  V30 6365 C 577.941 -1.88718 2.81374 0
M  V30 6366 C 576.5 -2.41847 2.88422 0
M  V30 6367 C 575.647 -1.20564 2.49719 0
M  V30 6368 H 578.598 -0.238399 1.56899 0
M  V30 6369 H 578.619 -2.73957 2.6406 0
M  V30 6370 H 578.131 -1.23847 3.67809 0
M  V30 6371 H 576.232 -3.10228 2.06372 0
M  V30 6372 H 576.345 -2.75947 3.9165 0
M  V30 6373 H 574.709 -1.54504 2.02486 0
M  V30 6374 H 575.492 -0.573326 3.38479 0
M  V30 6375 N 577.937 -1.40673 -0.710563 0
M  V30 6376 C 578.9 -1.4108 -1.80635 0
M  V30 6377 C 579.9 -0.303783 -1.57904 0
M  V30 6378 O 581.09 -0.562937 -1.64853 0
M  V30 6379 C 578.222 -1.20748 -3.18799 0
M  V30 6380 H 579.415 -2.38612 -1.81671 0
M  V30 6381 H 576.968 -1.26595 -0.916704 0
M  V30 6382 H 577.703 -0.239964 -3.23411 0
M  V30 6383 H 577.488 -2.00941 -3.36698 0
M  V30 6384 H 578.978 -1.23833 -3.98817 0
M  V30 6385 N 579.415 0.9433 -1.26252 0
M  V30 6386 C 580.826 1.50404 -1.10614 0
M  V30 6387 C 581.177 1.93666 0.31429 0
M  V30 6388 O 580.302 1.79709 1.20555 0
M  V30 6389 C 580.897 2.73336 -2.00182 0
M  V30 6390 C 579.456 3.25686 -1.88695 0
M  V30 6391 C 578.603 1.98474 -1.93658 0
M  V30 6392 H 581.554 0.759006 -1.39373 0
M  V30 6393 H 581.575 3.47567 -1.54847 0
M  V30 6394 H 581.087 2.41818 -3.03555 0
M  V30 6395 H 579.188 3.61998 -0.882489 0
M  V30 6396 H 579.301 3.92935 -2.74115 0
M  V30 6397 H 577.665 2.14278 -1.37684 0
M  V30 6398 H 578.448 1.6929 -2.98657 0
M  V30 6399 N 580.893 1.08022 1.14757 0
M  V30 6400 C 582.123 0.827646 1.89298 0
M  V30 6401 C 582.531 -0.623506 1.78631 0
M  V30 6402 O 581.874 -1.43991 1.14071 0
M  V30 6403 C 581.936 1.16553 3.40082 0
M  V30 6404 C 581.6 2.61866 3.74533 0
M  V30 6405 C 582.597 3.60116 3.74984 0
M  V30 6406 C 580.282 2.97619 4.04633 0
M  V30 6407 C 582.276 4.92151 4.05051 0
M  V30 6408 C 579.963 4.2985 4.34364 0
M  V30 6409 C 580.961 5.26926 4.34555 0
M  V30 6410 O 580.649 6.5678 4.63568 0
M  V30 6411 H 580.381 0.298396 0.606577 0
M  V30 6412 H 582.935 1.44187 1.46285 0
M  V30 6413 H 581.165 0.494296 3.83528 0
M  V30 6414 H 582.854 0.894407 3.95923 0
M  V30 6415 H 583.62 3.33837 3.51821 0
M  V30 6416 H 579.499 2.22702 4.03639 0
M  V30 6417 H 583.043 5.67915 4.05115 0
M  V30 6418 H 578.94 4.55879 4.56995 0
M  V30 6419 H 579.708 6.62035 4.81303 0
M  V30 6420 N 582.371 -1.3172 0.865308 0
M  V30 6421 C 583.599 -2.01057 0.488251 0
M  V30 6422 C 584.014 -1.64979 -0.918 0
M  V30 6423 O 583.371 -0.876597 -1.60069 0
M  V30 6424 C 583.422 -3.55964 0.630224 0
M  V30 6425 O 583.143 -3.90749 1.98109 0
M  V30 6426 C 584.644 -4.42574 0.253567 0
M  V30 6427 H 581.864 -0.64332 0.190736 0
M  V30 6428 H 584.408 -1.68058 1.16519 0
M  V30 6429 H 582.563 -3.874 0.000895422 0
M  V30 6430 H 582.977 -4.85467 1.9855 0
M  V30 6431 H 584.451 -5.50521 0.403875 0
M  V30 6432 H 584.928 -4.31724 -0.806895 0
M  V30 6433 H 585.534 -4.16547 0.858404 0
M  V30 6434 N 583.85 -0.624285 -1.44708 0
M  V30 6435 C 585.099 -0.123539 -2.01321 0
M  V30 6436 C 585.412 1.25966 -1.49639 0
M  V30 6437 O 586.618 1.85405 -1.98336 0
M  V30 6438 C 585.074 -0.170124 -3.59498 0
M  V30 6439 C 584.682 -1.55421 -4.20176 0
M  V30 6440 C 586.426 0.274513 -4.23611 0
M  V30 6441 C 584.332 -1.55628 -5.70556 0
M  V30 6442 H 583.263 -0.0424183 -0.752806 0
M  V30 6443 H 585.913 -0.782076 -1.65999 0
M  V30 6444 H 584.296 0.555385 -3.92086 0
M  V30 6445 H 585.47 -2.30276 -3.99136 0
M  V30 6446 H 583.784 -1.94235 -3.68323 0
M  V30 6447 H 586.382 0.292402 -5.339 0
M  V30 6448 H 586.725 1.3005 -3.95465 0
M  V30 6449 H 587.258 -0.398275 -3.95801 0
M  V30 6450 H 583.997 -2.56041 -6.03426 0
M  V30 6451 H 583.517 -0.850563 -5.93739 0
M  V30 6452 H 585.196 -1.28721 -6.34066 0
M  V30 6453 N 585.328 1.53329 -0.364422 0
M  V30 6454 C 586.577 2.00421 0.226747 0
M  V30 6455 C 586.89 1.25581 1.49963 0
M  V30 6456 O 588.096 1.63256 2.16933 0
M  V30 6457 C 586.552 3.57017 0.454618 0
M  V30 6458 C 586.16 4.40734 -0.803568 0
M  V30 6459 C 587.904 4.12468 1.00351 0
M  V30 6460 C 585.811 5.8888 -0.545345 0
M  V30 6461 H 584.741 0.748787 0.0885082 0
M  V30 6462 H 587.392 1.7703 -0.482983 0
M  V30 6463 H 585.774 3.76558 1.22558 0
M  V30 6464 H 586.948 4.32967 -1.57723 0
M  V30 6465 H 585.263 3.96381 -1.27559 0
M  V30 6466 H 587.86 5.20783 1.212 0
M  V30 6467 H 588.203 3.6699 1.9653 0
M  V30 6468 H 588.736 3.96721 0.29274 0
M  V30 6469 H 585.475 6.38633 -1.47743 0
M  V30 6470 H 584.995 5.99499 0.189842 0
M  V30 6471 H 586.674 6.46776 -0.170425 0
M  V30 6472 N 586.806 0.0935595 1.57322 0
M  V30 6473 C 588.034 -0.578934 1.98635 0
M  V30 6474 C 588.449 -1.61819 0.972626 0
M  V30 6475 O 587.806 -1.82461 -0.0379638 0
M  V30 6476 C 587.857 -1.22802 3.40003 0
M  V30 6477 O 587.578 -0.230334 4.37494 0
M  V30 6478 C 589.079 -1.98627 3.96311 0
M  V30 6479 H 586.299 -0.155324 0.652775 0
M  V30 6480 H 588.843 0.172393 2.03772 0
M  V30 6481 H 586.998 -1.93029 3.35885 0
M  V30 6482 H 587.412 -0.698649 5.19826 0
M  V30 6483 H 588.886 -2.39405 4.97382 0
M  V30 6484 H 589.363 -2.85151 3.34044 0
M  V30 6485 H 589.969 -1.3322 4.03897 0
M  V30 6486 N 588.284 -1.56567 -0.180126 0
M  V30 6487 C 589.531 -1.81492 -0.898167 0
M  V30 6488 C 589.859 -0.669225 -1.82624 0
M  V30 6489 O 589.114 0.344096 -1.92651 0
M  V30 6490 C 589.413 -3.1252 -1.73395 0
M  V30 6491 C 589.079 -4.40658 -0.955567 0
M  V30 6492 C 587.741 -4.75465 -0.740707 0
M  V30 6493 C 590.093 -5.19593 -0.408948 0
M  V30 6494 C 587.421 -5.86691 0.0320128 0
M  V30 6495 C 589.773 -6.31627 0.350638 0
M  V30 6496 C 588.437 -6.65007 0.576378 0
M  V30 6497 H 587.707 -0.664125 -0.328662 0
M  V30 6498 H 590.354 -1.908 -0.163616 0
M  V30 6499 H 588.659 -2.98515 -2.53763 0
M  V30 6500 H 590.356 -3.29013 -2.29241 0
M  V30 6501 H 586.946 -4.13352 -1.13306 0
M  V30 6502 H 591.13 -4.93104 -0.562307 0
M  V30 6503 H 586.386 -6.11016 0.216735 0
M  V30 6504 H 590.56 -6.92001 0.781497 0
M  V30 6505 H 588.187 -7.51033 1.17703 0
M  V30 6506 N 589.762 0.448376 -1.51087 0
M  V30 6507 C 591.173 1.0286 -1.5581 0
M  V30 6508 C 591.524 1.92583 -0.374989 0
M  V30 6509 O 590.649 2.10316 0.509533 0
M  V30 6510 C 591.244 1.87223 -2.8237 0
M  V30 6511 C 589.803 2.40314 -2.897 0
M  V30 6512 C 588.95 1.19238 -2.50355 0
M  V30 6513 H 591.901 0.230075 -1.57023 0
M  V30 6514 H 591.922 2.72553 -2.6551 0
M  V30 6515 H 591.434 1.21894 -3.68461 0
M  V30 6516 H 589.535 3.09129 -2.08014 0
M  V30 6517 H 589.648 2.73866 -3.93108 0
M  V30 6518 H 588.012 1.53428 -2.03303 0
M  V30 6519 H 588.795 0.555367 -3.38778 0
M  V30 6520 N 591.24 1.41047 0.703093 0
M  V30 6521 C 592.487 1.4 1.46309 0
M  V30 6522 C 592.815 0.00654574 1.94499 0
M  V30 6523 O 592.07 -0.980255 1.6938 0
M  V30 6524 C 592.369 2.34686 2.6955 0
M  V30 6525 C 592.035 3.81684 2.40058 0
M  V30 6526 C 590.697 4.21731 2.31725 0
M  V30 6527 C 593.049 4.74525 2.15581 0
M  V30 6528 C 590.377 5.52637 1.97001 0
M  V30 6529 C 592.729 6.05744 1.82366 0
M  V30 6530 C 591.393 6.44819 1.72524 0
M  V30 6531 H 590.663 0.512295 0.535382 0
M  V30 6532 H 593.31 1.73792 0.804275 0
M  V30 6533 H 591.615 1.94122 3.40329 0
M  V30 6534 H 593.312 2.31152 3.27673 0
M  V30 6535 H 589.902 3.49963 2.47435 0
M  V30 6536 H 594.086 4.44395 2.20968 0
M  V30 6537 H 589.342 5.81802 1.87928 0
M  V30 6538 H 593.516 6.77189 1.62444 0
M  V30 6539 H 591.143 7.46168 1.45385 0
M  V30 6540 N 592.718 -0.936591 1.26751 0
M  V30 6541 C 593.648 -2.05315 1.11212 0
M  V30 6542 C 594.629 -1.70092 0.0160262 0
M  V30 6543 O 595.814 -1.93279 0.188894 0
M  V30 6544 C 592.944 -3.39123 0.749171 0
M  V30 6545 C 591.898 -3.88425 1.79751 0
M  V30 6546 C 591.224 -5.18936 1.28876 0
M  V30 6547 C 592.524 -4.12798 3.19992 0
M  V30 6548 H 594.218 -2.18573 2.04613 0
M  V30 6549 H 591.764 -1.05027 0.985159 0
M  V30 6550 H 593.717 -4.16704 0.627323 0
M  V30 6551 H 592.441 -3.25855 -0.220543 0
M  V30 6552 H 591.1 -3.13028 1.90811 0
M  V30 6553 H 590.748 -5.02051 0.308757 0
M  V30 6554 H 590.448 -5.52892 1.98958 0
M  V30 6555 H 591.972 -5.99096 1.17967 0
M  V30 6556 H 593.386 -4.80977 3.11983 0
M  V30 6557 H 591.783 -4.58044 3.87705 0
M  V30 6558 H 592.853 -3.18412 3.65707 0
M  V30 6559 N 594.196 -1.08629 -1.14182 0
M  V30 6560 C 595.443 -0.817345 -1.85272 0
M  V30 6561 C 595.771 0.656917 -1.83071 0
M  V30 6562 O 595.026 1.49897 -1.25815 0
M  V30 6563 C 595.325 -1.28734 -3.3341 0
M  V30 6564 C 594.991 -2.76981 -3.55798 0
M  V30 6565 C 593.653 -3.17469 -3.61617 0
M  V30 6566 C 596.005 -3.72605 -3.64438 0
M  V30 6567 C 593.333 -4.52371 -3.736 0
M  V30 6568 C 595.685 -5.07286 -3.77947 0
M  V30 6569 C 594.349 -5.47376 -3.82016 0
M  V30 6570 H 593.619 -0.299088 -0.677958 0
M  V30 6571 H 596.266 -1.35962 -1.34857 0
M  V30 6572 H 594.571 -0.664702 -3.8612 0
M  V30 6573 H 596.268 -1.05598 -3.86846 0
M  V30 6574 H 592.858 -2.44644 -3.51919 0
M  V30 6575 H 597.042 -3.42443 -3.5923 0
M  V30 6576 H 592.298 -4.82882 -3.75013 0
M  V30 6577 H 596.472 -5.81243 -3.83575 0
M  V30 6578 H 594.099 -6.51906 -3.91054 0
M  V30 6579 N 595.674 1.31259 -0.872281 0
M  V30 6580 C 596.637 2.26744 -0.334656 0
M  V30 6581 C 597.637 1.52307 0.515681 0
M  V30 6582 O 598.827 1.71148 0.324656 0
M  V30 6583 C 595.959 3.36841 0.524482 0
M  V30 6584 H 597.152 2.75812 -1.17762 0
M  V30 6585 H 594.705 1.42232 -0.648064 0
M  V30 6586 H 595.44 2.93069 1.38855 0
M  V30 6587 H 595.225 3.92009 -0.0844299 0
M  V30 6588 H 596.715 4.07944 0.892838 0
M  V30 6589 N 597.152 0.631951 1.44375 0
M  V30 6590 C 598.398 0.13697 2.02337 0
M  V30 6591 C 598.731 -1.23826 1.49602 0
M  V30 6592 O 598.006 -1.8221 0.680415 0
M  V30 6593 C 598.289 0.124536 3.59885 0
M  V30 6594 C 598.142 1.53217 4.229 0
M  V30 6595 C 599.461 -0.550481 4.36644 0
M  V30 6596 H 596.58 0.051247 0.735216 0
M  V30 6597 H 599.222 0.808581 1.71936 0
M  V30 6598 H 597.372 -0.44737 3.85916 0
M  V30 6599 H 599.044 2.15303 4.07973 0
M  V30 6600 H 597.287 2.0858 3.80364 0
M  V30 6601 H 597.958 1.4755 5.31914 0
M  V30 6602 H 600.434 -0.0641154 4.16051 0
M  V30 6603 H 599.31 -0.528371 5.46351 0
M  V30 6604 H 599.571 -1.62097 4.11311 0
M  V30 6605 N 598.631 -1.53133 0.372548 0
M  V30 6606 C 599.564 -2.22328 -0.514361 0
M  V30 6607 C 600.542 -1.21776 -1.07747 0
M  V30 6608 O 601.726 -1.50704 -1.13228 0
M  V30 6609 C 598.853 -2.92343 -1.71035 0
M  V30 6610 C 597.899 -4.07026 -1.27405 0
M  V30 6611 S 598.732 -5.34821 -0.269526 0
M  V30 6612 C 599.888 -6.08352 -1.47168 0
M  V30 6613 H 600.121 -2.9721 0.0732683 0
M  V30 6614 H 597.654 -1.53603 0.156673 0
M  V30 6615 H 599.612 -3.33296 -2.39634 0
M  V30 6616 H 598.273 -2.17173 -2.26925 0
M  V30 6617 H 597.466 -4.55056 -2.16656 0
M  V30 6618 H 597.068 -3.68001 -0.66719 0
M  V30 6619 H 599.36 -6.33507 -2.40157 0
M  V30 6620 H 600.303 -7.0053 -1.03263 0
M  V30 6621 H 600.711 -5.38893 -1.6809 0
M  V30 6622 N 600.109 -0.101901 -1.5727 0
M  V30 6623 C 601.356 0.560197 -1.94597 0
M  V30 6624 C 601.684 1.67767 -0.984101 0
M  V30 6625 O 600.939 1.95699 -0.00489193 0
M  V30 6626 C 601.238 1.14898 -3.38427 0
M  V30 6627 C 600.904 0.154613 -4.50635 0
M  V30 6628 C 599.566 -0.118861 -4.81053 0
M  V30 6629 C 601.918 -0.523979 -5.18559 0
M  V30 6630 C 599.246 -1.0775 -5.76721 0
M  V30 6631 C 601.598 -1.47114 -6.15256 0
M  V30 6632 C 600.262 -1.75278 -6.44076 0
M  V30 6633 H 599.532 0.204991 -0.712081 0
M  V30 6634 H 602.179 -0.17918 -1.9066 0
M  V30 6635 H 600.484 1.96476 -3.38976 0
M  V30 6636 H 602.181 1.66909 -3.64613 0
M  V30 6637 H 598.771 0.377948 -4.2693 0
M  V30 6638 H 602.955 -0.325851 -4.95229 0
M  V30 6639 H 598.211 -1.30263 -5.97362 0
M  V30 6640 H 602.385 -2.00274 -6.66981 0
M  V30 6641 H 600.012 -2.49717 -7.18015 0
M  V30 6642 N 601.587 1.56661 0.17182 0
M  V30 6643 C 602.835 1.81606 0.886774 0
M  V30 6644 C 603.156 0.678818 1.82803 0
M  V30 6645 O 602.426 -0.301354 1.93568 0
M  V30 6646 H 601.006 0.669934 0.330451 0
M  V30 6647 H 603.668 1.94142 0.171757 0
M  V30 6648 H 602.764 2.75634 1.46398 0
M  V30 6649 N 603.065 -0.440357 1.51323 0
M  V30 6650 C 604.342 -1.20109 1.5438 0
M  V30 6651 C 604.722 -2.08866 0.306303 0
M  V30 6652 O 604.07 -2.1723 -0.708773 0
M  V30 6653 C 604.28 -2.00555 2.8562 0
M  V30 6654 C 605.628 -2.577 3.37455 0
M  V30 6655 O 606.652 -2.10769 2.8715 0
M  V30 6656 O 605.511 -3.43289 4.25224 0
M  V30 6657 H 602.605 -0.546668 0.620551 0
M  V30 6658 H 605.151 -0.449672 1.63634 0
M  V30 6659 H 603.923 -1.35346 3.67147 0
M  V30 6660 H 603.546 -2.82768 2.79514 0
M  V30 6661 N 604.543 -1.41418 -0.695603 0
M  V30 6662 C 605.79 -1.40774 -1.45564 0
M  V30 6663 C 606.118 -0.0168604 -1.94493 0
M  V30 6664 O 605.373 0.971259 -1.69897 0
M  V30 6665 C 605.672 -2.36112 -2.68302 0
M  V30 6666 C 605.338 -3.82952 -2.38031 0
M  V30 6667 C 604 -4.22954 -2.29486 0
M  V30 6668 C 606.352 -4.75662 -2.13061 0
M  V30 6669 C 603.68 -5.53674 -1.94067 0
M  V30 6670 C 606.032 -6.06702 -1.79151 0
M  V30 6671 C 604.696 -6.45725 -1.69102 0
M  V30 6672 H 603.966 -0.515128 -0.532658 0
M  V30 6673 H 606.613 -1.74216 -0.795047 0
M  V30 6674 H 604.918 -1.95924 -3.39295 0
M  V30 6675 H 606.615 -2.32887 -3.26442 0
M  V30 6676 H 603.205 -3.5127 -2.45576 0
M  V30 6677 H 607.389 -4.45561 -2.18608 0
M  V30 6678 H 602.645 -5.8279 -1.8484 0
M  V30 6679 H 606.819 -6.78041 -1.5885 0
M  V30 6680 H 604.446 -7.46929 -1.41426 0
M  V30 6681 N 606.021 0.929856 -1.27246 0
M  V30 6682 C 607.269 1.674 -1.13233 0
M  V30 6683 C 607.59 1.92311 0.322744 0
M  V30 6684 O 606.86 1.52784 1.22612 0
M  V30 6685 H 605.44 0.620411 -0.416052 0
M  V30 6686 H 608.102 1.11663 -1.59741 0
M  V30 6687 H 607.198 2.64308 -1.65975 0
M  V30 6688 N 607.499 1.09233 1.13605 0
M  V30 6689 C 608.449 0.6994 2.17008 0
M  V30 6690 C 609.433 -0.285238 1.58352 0
M  V30 6691 O 610.625 -0.09592 1.7674 0
M  V30 6692 C 607.754 0.11938 3.43092 0
M  V30 6693 C 606.84 1.13031 4.0876 0
M  V30 6694 N 607.231 2.31673 4.49623 0
M  V30 6695 C 605.529 0.967999 4.35369 0
M  V30 6696 C 606.23 2.95964 5.00779 0
M  V30 6697 N 605.206 2.23534 4.95513 0
M  V30 6698 H 609.008 1.60272 2.46354 0
M  V30 6699 H 606.522 0.968257 1.30378 0
M  V30 6700 H 608.519 -0.180122 4.16511 0
M  V30 6701 H 607.179 -0.778816 3.15221 0
M  V30 6702 H 608.19 2.69277 4.42391 0
M  V30 6703 H 604.867 0.124319 4.17315 0
M  V30 6704 H 606.257 3.96813 5.42208 0
M  V30 6705 N 608.977 -1.30795 0.87923 0
M  V30 6706 C 610.225 -1.95974 0.493809 0
M  V30 6707 C 610.546 -1.69787 -0.959021 0
M  V30 6708 O 609.816 -1.01832 -1.67353 0
M  V30 6709 H 608.396 -0.725083 0.179622 0
M  V30 6710 H 611.058 -1.59432 1.12105 0
M  V30 6711 H 610.154 -3.05058 0.659263 0
M  V30 6712 N 610.455 -0.639598 -1.44038 0
M  V30 6713 C 611.704 -0.144885 -2.01179 0
M  V30 6714 C 612.017 1.24372 -1.50967 0
M  V30 6715 O 613.223 1.83291 -2.00292 0
M  V30 6716 C 611.679 -0.208244 -3.59297 0
M  V30 6717 C 611.287 -1.59869 -4.18504 0
M  V30 6718 C 613.031 0.229568 -4.23879 0
M  V30 6719 C 610.938 -1.61671 -5.68873 0
M  V30 6720 H 609.868 -0.0504005 -0.752314 0
M  V30 6721 H 612.519 -0.799639 -1.65161 0
M  V30 6722 H 610.901 0.513767 -3.92653 0
M  V30 6723 H 612.075 -2.34496 -3.96671 0
M  V30 6724 H 610.39 -1.98131 -3.66242 0
M  V30 6725 H 612.987 0.235758 -5.3418 0
M  V30 6726 H 613.33 1.25848 -3.96822 0
M  V30 6727 H 613.863 -0.440233 -3.95357 0
M  V30 6728 H 610.602 -2.62427 -6.00677 0
M  V30 6729 H 610.122 -0.913489 -5.92803 0
M  V30 6730 H 611.801 -1.35439 -6.32665 0
M  V30 6731 N 611.933 1.52934 -0.380664 0
M  V30 6732 C 612.863 2.29118 0.450268 0
M  V30 6733 C 613.844 1.32153 1.07096 0
M  V30 6734 O 615.029 1.61038 1.08537 0
M  V30 6735 C 612.159 3.09161 1.58231 0
M  V30 6736 C 611.113 4.13938 1.0881 0
M  V30 6737 C 610.439 4.82153 2.31155 0
M  V30 6738 C 611.739 5.22048 0.162146 0
M  V30 6739 H 613.433 2.98826 -0.185361 0
M  V30 6740 H 610.979 1.43715 -0.0905886 0
M  V30 6741 H 612.932 3.61211 2.17036 0
M  V30 6742 H 611.656 2.3717 2.2454 0
M  V30 6743 H 610.315 3.62855 0.522633 0
M  V30 6744 H 609.963 4.06719 2.95953 0
M  V30 6745 H 609.663 5.52966 1.98752 0
M  V30 6746 H 611.187 5.37004 2.90618 0
M  V30 6747 H 612.601 5.6951 0.658126 0
M  V30 6748 H 610.998 6.00057 -0.0717122 0
M  V30 6749 H 612.068 4.78398 -0.791438 0
M  V30 6750 N 613.412 0.11024 1.57214 0
M  V30 6751 C 614.345 -0.880224 2.1054 0
M  V30 6752 C 615.323 -1.26658 1.01964 0
M  V30 6753 O 616.507 -1.36917 1.29561 0
M  V30 6754 C 613.634 -2.17676 2.59489 0
M  V30 6755 C 612.68 -1.93914 3.79868 0
M  V30 6756 S 613.513 -1.16336 5.2271 0
M  V30 6757 C 614.669 -2.47188 5.75021 0
M  V30 6758 H 614.902 -0.426614 2.94223 0
M  V30 6759 H 612.435 -0.10336 1.54054 0
M  V30 6760 H 614.393 -2.92175 2.88347 0
M  V30 6761 H 613.054 -2.60156 1.76005 0
M  V30 6762 H 612.247 -2.8996 4.12236 0
M  V30 6763 H 611.849 -1.27539 3.51582 0
M  V30 6764 H 614.141 -3.43079 5.84211 0
M  V30 6765 H 615.084 -2.19377 6.7326 0
M  V30 6766 H 615.492 -2.56154 5.03036 0
M  V30 6767 N 614.89 -1.56749 -0.16351 0
M  V30 6768 C 616.118 -1.86577 -0.894233 0
M  V30 6769 C 616.533 -0.696543 -1.75481 0
M  V30 6770 O 615.89 0.334161 -1.79415 0
M  V30 6771 C 615.941 -3.15508 -1.76456 0
M  V30 6772 O 615.662 -4.27926 -0.938685 0
M  V30 6773 C 617.163 -3.58737 -2.60428 0
M  V30 6774 H 614.383 -0.618829 -0.259405 0
M  V30 6775 H 616.927 -2.03863 -0.161259 0
M  V30 6776 H 615.082 -3.00025 -2.45079 0
M  V30 6777 H 615.496 -5.01546 -1.53465 0
M  V30 6778 H 616.97 -4.51832 -3.17099 0
M  V30 6779 H 617.447 -2.83229 -3.35675 0
M  V30 6780 H 618.053 -3.76858 -1.97125 0
M  V30 6781 N 616.368 0.432326 -1.51554 0
M  V30 6782 C 617.298 1.53242 -1.76179 0
M  V30 6783 C 618.279 1.58717 -0.611801 0
M  V30 6784 O 619.464 1.74364 -0.855033 0
M  V30 6785 C 616.594 2.91278 -1.89141 0
M  V30 6786 C 615.548 3.00663 -3.04608 0
M  V30 6787 C 614.874 4.40728 -3.02759 0
M  V30 6788 C 616.174 2.74281 -4.44485 0
M  V30 6789 H 617.868 1.32886 -2.68294 0
M  V30 6790 H 615.414 0.637841 -1.29103 0
M  V30 6791 H 617.367 3.68203 -2.04951 0
M  V30 6792 H 616.091 3.12877 -0.936785 0
M  V30 6793 H 614.75 2.26179 -2.88511 0
M  V30 6794 H 614.398 4.59301 -2.05065 0
M  V30 6795 H 614.098 4.47936 -3.80299 0
M  V30 6796 H 615.622 5.19619 -3.20669 0
M  V30 6797 H 617.036 3.40936 -4.60907 0
M  V30 6798 H 615.433 2.92893 -5.23769 0
M  V30 6799 H 616.503 1.69856 -4.54177 0
M  V30 6800 N 617.846 1.41785 0.688094 0
M  V30 6801 C 619.093 1.41544 1.44816 0
M  V30 6802 C 619.421 0.0271746 1.94481 0
M  V30 6803 O 618.676 -0.962235 1.7041 0
M  V30 6804 C 618.975 2.37532 2.67046 0
M  V30 6805 C 618.641 3.84209 2.35996 0
M  V30 6806 C 617.303 4.24165 2.27239 0
M  V30 6807 C 619.655 4.76785 2.10536 0
M  V30 6808 C 616.983 5.54695 1.91128 0
M  V30 6809 C 619.335 6.07644 1.75931 0
M  V30 6810 C 617.999 6.46613 1.65675 0
M  V30 6811 H 617.269 0.517945 0.529919 0
M  V30 6812 H 619.916 1.74635 0.785797 0
M  V30 6813 H 618.221 1.9772 3.38251 0
M  V30 6814 H 619.918 2.34615 3.25203 0
M  V30 6815 H 616.508 3.52567 2.4371 0
M  V30 6816 H 620.692 4.46714 2.16242 0
M  V30 6817 H 615.948 5.83762 1.81746 0
M  V30 6818 H 620.122 6.78874 1.55252 0
M  V30 6819 H 617.749 7.47668 1.37463 0
M  V30 6820 N 619.324 -0.923095 1.27737 0
M  V30 6821 C 620.287 -2.00587 1.10894 0
M  V30 6822 C 621.287 -1.60718 0.0514927 0
M  V30 6823 O 622.477 -1.71658 0.296481 0
M  V30 6824 C 619.609 -3.33829 0.690717 0
M  V30 6825 H 620.802 -2.16959 2.07048 0
M  V30 6826 H 618.355 -1.10451 1.1059 0
M  V30 6827 H 619.09 -3.23157 -0.272 0
M  V30 6828 H 618.875 -3.64125 1.45448 0
M  V30 6829 H 620.365 -4.13336 0.595252 0
M  V30 6830 N 620.802 -1.09834 -1.13024 0
M  V30 6831 C 622.048 -0.83819 -1.84668 0
M  V30 6832 C 622.381 0.634645 -1.83537 0
M  V30 6833 O 621.656 1.46753 -1.27647 0
M  V30 6834 C 621.939 -1.37933 -3.32636 0
M  V30 6835 C 621.792 -2.91857 -3.42257 0
M  V30 6836 C 623.111 -1.01654 -4.28199 0
M  V30 6837 H 620.23 -0.30595 -0.670495 0
M  V30 6838 H 622.872 -1.36044 -1.32635 0
M  V30 6839 H 621.022 -0.935111 -3.77078 0
M  V30 6840 H 622.694 -3.44759 -3.06495 0
M  V30 6841 H 620.937 -3.28776 -2.83 0
M  V30 6842 H 621.608 -3.24799 -4.46329 0
M  V30 6843 H 624.084 -1.39973 -3.9185 0
M  V30 6844 H 622.96 -1.42217 -5.30156 0
M  V30 6845 H 623.221 0.0747794 -4.42037 0
M  V30 6846 N 622.28 1.30327 -0.886154 0
M  V30 6847 C 623.526 1.96764 -0.515312 0
M  V30 6848 C 623.881 1.68675 0.925552 0
M  V30 6849 O 623.174 0.981693 1.6454 0
M  V30 6850 C 623.368 3.49906 -0.728042 0
M  V30 6851 C 623.197 3.92881 -2.18803 0
M  V30 6852 C 621.967 4.18424 -2.83284 0
M  V30 6853 C 624.165 4.05617 -3.16195 0
M  V30 6854 N 622.147 4.47867 -4.19867 0
M  V30 6855 C 623.518 4.38957 -4.37855 0
M  V30 6856 C 625.573 3.88047 -3.11968 0
M  V30 6857 C 624.276 4.56559 -5.55829 0
M  V30 6858 C 626.302 4.06851 -4.29215 0
M  V30 6859 C 625.664 4.40538 -5.49641 0
M  V30 6860 H 621.763 0.74493 -0.237916 0
M  V30 6861 H 624.347 1.57536 -1.14414 0
M  V30 6862 H 622.518 3.88187 -0.128696 0
M  V30 6863 H 624.25 4.03401 -0.323983 0
M  V30 6864 H 621.005 4.1167 -2.34146 0
M  V30 6865 H 621.429 4.66721 -4.90408 0
M  V30 6866 H 626.071 3.61078 -2.19961 0
M  V30 6867 H 623.789 4.8237 -6.4834 0
M  V30 6868 H 627.375 3.94724 -4.27416 0
M  V30 6869 H 626.255 4.54789 -6.38856 0
M  V30 6870 N 623.758 0.647228 1.43697 0
M  V30 6871 C 624.691 -0.097646 2.27991 0
M  V30 6872 C 625.669 -0.83571 1.3948 0
M  V30 6873 O 626.853 -0.836509 1.68922 0
M  V30 6874 C 623.98 -1.14484 3.18765 0
M  V30 6875 C 623.026 -0.505503 4.23494 0
M  V30 6876 S 623.859 0.716471 5.30685 0
M  V30 6877 C 625.015 -0.330339 6.25028 0
M  V30 6878 H 625.248 0.617417 2.90818 0
M  V30 6879 H 622.781 0.435881 1.4812 0
M  V30 6880 H 624.739 -1.74403 3.7161 0
M  V30 6881 H 623.4 -1.83219 2.55127 0
M  V30 6882 H 622.593 -1.29473 4.87086 0
M  V30 6883 H 622.195 0.0194377 3.73995 0
M  V30 6884 H 624.487 -1.19828 6.66819 0
M  V30 6885 H 625.43 0.270409 7.07583 0
M  V30 6886 H 625.838 -0.663459 5.60588 0
M  V30 6887 N 625.236 -1.5273 0.388769 0
M  V30 6888 C 626.482 -2.01871 -0.193877 0
M  V30 6889 C 626.815 -1.27475 -1.46505 0
M  V30 6890 O 626.09 -0.375063 -1.90849 0
M  V30 6891 C 626.373 -3.5712 -0.462336 0
M  V30 6892 C 626.226 -4.42186 0.824091 0
M  V30 6893 C 627.545 -4.21881 -1.25319 0
M  V30 6894 H 624.664 -0.733764 -0.0689899 0
M  V30 6895 H 627.306 -1.82796 0.518231 0
M  V30 6896 H 625.456 -3.73504 -1.06896 0
M  V30 6897 H 627.128 -4.37554 1.46096 0
M  V30 6898 H 625.371 -4.09219 1.43952 0
M  V30 6899 H 626.042 -5.48828 0.590905 0
M  V30 6900 H 628.518 -4.0947 -0.73981 0
M  V30 6901 H 627.394 -5.30487 -1.40977 0
M  V30 6902 H 627.655 -3.79478 -2.26824 0
M  V30 6903 N 626.714 -0.118576 -1.57153 0
M  V30 6904 C 627.644 0.828436 -2.1831 0
M  V30 6905 C 628.625 1.27758 -1.12303 0
M  V30 6906 O 629.81 1.34026 -1.40537 0
M  V30 6907 C 626.94 2.07876 -2.78217 0
M  V30 6908 C 625.894 1.76742 -3.89803 0
M  V30 6909 C 625.22 3.08801 -4.36516 0
M  V30 6910 C 626.52 1.03606 -5.11921 0
M  V30 6911 H 628.214 0.318824 -2.97698 0
M  V30 6912 H 625.76 0.151911 -1.43196 0
M  V30 6913 H 627.713 2.74584 -3.19659 0
M  V30 6914 H 626.437 2.61161 -1.96118 0
M  V30 6915 H 625.096 1.12424 -3.48936 0
M  V30 6916 H 624.744 3.6002 -3.51276 0
M  V30 6917 H 624.444 2.88743 -5.11763 0
M  V30 6918 H 625.968 3.76627 -4.80608 0
M  V30 6919 H 627.382 1.60467 -5.50385 0
M  V30 6920 H 625.779 0.936454 -5.92748 0
M  V30 6921 H 626.849 0.0227421 -4.84895 0
M  V30 6922 N 628.193 1.56834 0.155195 0
M  V30 6923 C 629.609 1.51315 0.50755 0
M  V30 6924 C 629.809 0.825614 1.83809 0
M  V30 6925 O 628.865 0.39271 2.49427 0
M  V30 6926 C 630.178 2.96074 0.52542 0
M  V30 6927 C 631.726 3.06968 0.611505 0
M  V30 6928 C 632.201 4.53218 0.660115 0
M  V30 6929 N 633.692 4.5753 0.722564 0
M  V30 6930 C 634.427 5.68056 0.781023 0
M  V30 6931 N 633.923 6.88173 0.799327 0
M  V30 6932 N 635.716 5.56068 0.821278 0
M  V30 6933 H 627.867 1.9993 -0.717063 0
M  V30 6934 H 630.13 0.911507 -0.260496 0
M  V30 6935 H 629.836 3.49599 -0.383875 0
M  V30 6936 H 629.71 3.51587 1.36624 0
M  V30 6937 H 632.097 2.53468 1.51122 0
M  V30 6938 H 632.178 2.54513 -0.256306 0
M  V30 6939 H 631.822 5.07354 -0.23541 0
M  V30 6940 H 631.752 5.03447 1.5443 0
M  V30 6941 H 634.243 3.71054 0.716049 0
M  V30 6942 H 634.556 7.6816 0.845553 0
M  V30 6943 H 632.901 6.90751 0.767337 0
M  V30 6944 H 636.092 4.61142 0.804091 0
M  V30 6945 H 636.265 6.42223 0.863372 0
M  V30 6946 N 629.671 -0.424282 1.51781 0
M  V30 6947 C 630.581 -1.54087 1.76902 0
M  V30 6948 C 631.597 -1.61249 0.653826 0
M  V30 6949 O 632.773 -1.78247 0.937552 0
M  V30 6950 C 629.838 -2.8996 1.90063 0
M  V30 6951 C 628.899 -2.92809 3.13945 0
M  V30 6952 C 628.132 -4.22201 3.26469 0
M  V30 6953 O 628.355 -5.15286 2.44616 0
M  V30 6954 O 627.289 -4.31599 4.1953 0
M  V30 6955 H 631.115 -1.358 2.71647 0
M  V30 6956 H 628.7 -0.608618 1.36441 0
M  V30 6957 H 630.582 -3.70575 2.0063 0
M  V30 6958 H 629.257 -3.08347 0.985067 0
M  V30 6959 H 628.164 -2.11102 3.08847 0
M  V30 6960 H 629.497 -2.79369 4.05233 0
M  V30 6961 N 631.149 -1.42148 -0.680565 0
M  V30 6962 C 632.374 -1.45901 -1.47403 0
M  V30 6963 C 632.799 -0.0700985 -1.87969 0
M  V30 6964 O 632.157 0.930145 -1.55621 0
M  V30 6965 C 632.205 -2.38661 -2.70321 0
M  V30 6966 O 631.309 -1.85399 -3.68376 0
M  V30 6967 H 630.65 -0.494565 -0.443059 0
M  V30 6968 H 633.18 -1.86774 -0.835251 0
M  V30 6969 H 633.19 -2.55046 -3.18458 0
M  V30 6970 H 631.865 -3.39571 -2.40134 0
M  V30 6971 H 630.442 -1.78541 -3.2738 0
M  V30 6972 N 632.627 0.916307 -1.28225 0
M  V30 6973 C 634.043 1.19425 -1.05876 0
M  V30 6974 C 634.243 2.005 0.2005 0
M  V30 6975 O 633.299 2.35806 0.902873 0
M  V30 6976 C 634.612 1.93133 -2.30478 0
M  V30 6977 C 636.16 2.06026 -2.35632 0
M  V30 6978 C 636.635 2.83141 -3.59994 0
M  V30 6979 N 638.126 2.90704 -3.60618 0
M  V30 6980 C 638.861 3.50865 -4.53521 0
M  V30 6981 N 638.357 4.12327 -5.56739 0
M  V30 6982 N 640.15 3.48379 -4.41122 0
M  V30 6983 H 632.301 0.37496 -2.09064 0
M  V30 6984 H 634.564 0.228531 -0.920042 0
M  V30 6985 H 634.27 1.40985 -3.22205 0
M  V30 6986 H 634.144 2.93696 -2.36691 0
M  V30 6987 H 636.531 2.57355 -1.44404 0
M  V30 6988 H 636.612 1.04647 -2.33415 0
M  V30 6989 H 636.256 2.32492 -4.51564 0
M  V30 6990 H 636.186 3.84829 -3.59464 0
M  V30 6991 H 638.677 2.47034 -2.85977 0
M  V30 6992 H 638.99 4.56205 -6.23776 0
M  V30 6993 H 637.335 4.10839 -5.60568 0
M  V30 6994 H 640.526 2.99572 -3.59686 0
M  V30 6995 H 640.699 3.94974 -5.13712 0
M  V30 6996 N 634.105 1.10431 1.1244 0
M  V30 6997 C 635.354 0.841539 1.83306 0
M  V30 6998 C 635.667 -0.634961 1.85007 0
M  V30 6999 O 636.873 -1.01363 2.51869 0
M  V30 7000 C 635.329 1.45565 3.29149 0
M  V30 7001 C 634.937 2.96544 3.35806 0
M  V30 7002 C 636.681 1.27227 4.04986 0
M  V30 7003 C 634.588 3.5099 4.75983 0
M  V30 7004 H 633.518 0.311156 0.686803 0
M  V30 7005 H 636.169 1.32829 1.26604 0
M  V30 7006 H 634.551 0.896574 3.85717 0
M  V30 7007 H 635.725 3.58766 2.89177 0
M  V30 7008 H 634.04 3.14036 2.73442 0
M  V30 7009 H 636.637 1.65348 5.08492 0
M  V30 7010 H 636.98 0.213834 4.1575 0
M  V30 7011 H 637.513 1.79941 3.54776 0
M  V30 7012 H 634.252 4.56499 4.70413 0
M  V30 7013 H 633.772 2.93535 5.23065 0
M  V30 7014 H 635.451 3.48808 5.44924 0
M  V30 7015 N 635.583 -1.29855 0.893053 0
M  V30 7016 C 636.513 -2.3035 0.382249 0
M  V30 7017 C 637.494 -1.61328 -0.539203 0
M  V30 7018 O 638.679 -1.88882 -0.451342 0
M  V30 7019 C 635.809 -3.45024 -0.396983 0
M  V30 7020 C 634.763 -4.258 0.433437 0
M  V30 7021 C 634.089 -5.32605 -0.472889 0
M  V30 7022 C 635.389 -4.94549 1.67984 0
M  V30 7023 H 637.083 -2.73325 1.22205 0
M  V30 7024 H 634.629 -1.314 0.589073 0
M  V30 7025 H 636.582 -4.14398 -0.765024 0
M  V30 7026 H 635.306 -3.00875 -1.2705 0
M  V30 7027 H 633.965 -3.58125 0.783723 0
M  V30 7028 H 633.613 -4.84702 -1.34435 0
M  V30 7029 H 633.313 -5.87547 0.0789958 0
M  V30 7030 H 634.837 -6.04832 -0.837269 0
M  V30 7031 H 636.251 -5.56395 1.38192 0
M  V30 7032 H 634.648 -5.59393 2.17254 0
M  V30 7033 H 635.718 -4.20215 2.41965 0
M  V30 7034 N 637.061 -0.65484 -1.43351 0
M  V30 7035 C 638.286 -0.175046 -2.0666 0
M  V30 7036 C 638.711 1.15104 -1.4877 0
M  V30 7037 O 638.069 1.71144 -0.598279 0
M  V30 7038 C 638.117 -0.0991544 -3.60464 0
M  V30 7039 O 637.221 0.938169 -4.01587 0
M  V30 7040 H 636.562 -0.0956148 -0.65708 0
M  V30 7041 H 639.092 -0.898222 -1.83829 0
M  V30 7042 H 639.102 0.083632 -4.07914 0
M  V30 7043 H 637.777 -1.06719 -4.01975 0
M  V30 7044 H 636.354 0.72804 -3.65724 0
M  V30 7045 N 638.539 1.52521 -0.396863 0
M  V30 7046 C 639.471 2.24333 0.469814 0
M  V30 7047 C 640.484 1.2685 1.02043 0
M  V30 7048 O 641.673 1.52876 0.92147 0
M  V30 7049 C 638.773 2.95202 1.66461 0
M  V30 7050 C 637.946 4.19454 1.24003 0
M  V30 7051 C 637.005 4.73255 2.30036 0
M  V30 7052 O 636.031 5.36151 1.91131 0
M  V30 7053 N 637.233 4.53765 3.62047 0
M  V30 7054 H 639.998 2.99347 -0.145468 0
M  V30 7055 H 637.559 1.60348 -0.223606 0
M  V30 7056 H 639.551 3.28092 2.36934 0
M  V30 7057 H 638.121 2.2345 2.18607 0
M  V30 7058 H 637.341 3.92517 0.363892 0
M  V30 7059 H 638.629 5.0017 0.933135 0
M  V30 7060 H 638.027 4.03576 3.96412 0
M  V30 7061 H 636.584 4.91124 4.28533 0
M  V30 7062 N 640.017 0.126909 1.57088 0
M  V30 7063 C 640.964 -0.82036 2.15728 0
M  V30 7064 C 641.934 -1.25811 1.08447 0
M  V30 7065 O 643.119 -1.33422 1.36393 0
M  V30 7066 C 640.259 -2.06199 2.76724 0
M  V30 7067 C 639.372 -1.67188 3.98337 0
M  V30 7068 C 638.507 -2.86378 4.47393 0
M  V30 7069 C 637.546 -2.43644 5.61519 0
M  V30 7070 N 636.683 -3.55775 6.05284 0
M  V30 7071 H 641.523 -0.313472 2.96347 0
M  V30 7072 H 639.06 -0.14303 1.46403 0
M  V30 7073 H 641.018 -2.78959 3.10222 0
M  V30 7074 H 639.648 -2.54333 1.98782 0
M  V30 7075 H 638.7 -0.842714 3.70948 0
M  V30 7076 H 640.012 -1.31789 4.81075 0
M  V30 7077 H 639.166 -3.67353 4.82842 0
M  V30 7078 H 637.905 -3.25009 3.63621 0
M  V30 7079 H 636.91 -1.61104 5.25667 0
M  V30 7080 H 638.135 -2.06122 6.47063 0
M  V30 7081 H 636.081 -3.94065 5.24451 0
M  V30 7082 H 635.998 -3.24325 6.82898 0
M  V30 7083 H 637.266 -4.37166 6.45373 0
M  V30 7084 N 641.495 -1.56914 -0.146875 0
M  V30 7085 C 642.443 -1.99224 -1.20053 0
M  V30 7086 C 643.437 -0.884661 -1.44465 0
M  V30 7087 O 644.643 -1.06984 -1.44756 0
M  V30 7088 H 641.018 -0.634191 -0.404112 0
M  V30 7089 H 642.989 -2.86998 -0.816987 0
M  V30 7090 C 641.738 -2.38899 -2.52632 0
M  V30 7091 H 641.061 -3.23677 -2.34677 0
M  V30 7092 H 642.501 -2.72326 -3.24984 0
M  V30 7093 C 640.96 -1.2417 -3.13183 0
M  V30 7094 O 641.49 -0.542503 -3.9802 0
M  V30 7095 N 639.696 -1.00592 -2.72635 0
M  V30 7096 H 639.243 -1.57627 -2.03744 0
M  V30 7097 H 639.201 -0.240174 -3.13481 0
M  V30 7098 N 642.974 0.416227 -1.52004 0
M  V30 7099 C 643.884 1.53147 -1.77717 0
M  V30 7100 C 644.9 1.609 -0.662368 0
M  V30 7101 O 646.076 1.77747 -0.946991 0
M  V30 7102 C 643.141 2.88948 -1.91598 0
M  V30 7103 C 642.202 2.9114 -3.15493 0
M  V30 7104 C 641.435 4.20464 -3.28703 0
M  V30 7105 O 641.658 5.13981 -2.47345 0
M  V30 7106 O 640.592 4.29368 -4.21813 0
M  V30 7107 H 644.418 1.34357 -2.72363 0
M  V30 7108 H 642.003 0.601373 -1.36762 0
M  V30 7109 H 643.885 3.69505 -2.02593 0
M  V30 7110 H 642.56 3.07821 -1.00141 0
M  V30 7111 H 641.467 2.09461 -3.09962 0
M  V30 7112 H 642.8 2.77216 -4.06709 0
M  V30 7113 N 644.452 1.42507 0.673017 0
M  V30 7114 C 645.4 1.46362 1.80779 0
M  V30 7115 C 646.394 0.339166 1.6597 0
M  V30 7116 O 647.6 0.512262 1.72557 0
M  V30 7117 H 643.975 0.458433 0.596107 0
M  V30 7118 H 645.946 2.41953 1.74646 0
M  V30 7119 C 644.695 1.38462 3.18941 0
M  V30 7120 H 644.018 2.24283 3.30964 0
M  V30 7121 H 645.458 1.45221 3.98355 0
M  V30 7122 C 643.917 0.0996354 3.36753 0
M  V30 7123 O 644.447 -0.846894 3.92671 0
M  V30 7124 N 642.653 0.016211 2.90595 0
M  V30 7125 H 642.2 0.78725 2.45276 0
M  V30 7126 H 642.158 -0.84291 3.0289 0
M  V30 7127 N 645.93 -0.909495 1.28709 0
M  V30 7128 C 646.84 -2.04558 1.14861 0
M  V30 7129 C 647.856 -1.73842 0.0741621 0
M  V30 7130 O 649.032 -1.99383 0.2843 0
M  V30 7131 C 646.097 -3.36957 0.816148 0
M  V30 7132 C 645.158 -3.81255 1.97341 0
M  V30 7133 C 644.391 -5.07335 1.65671 0
M  V30 7134 O 644.614 -5.67514 0.573053 0
M  V30 7135 O 643.548 -5.47449 2.50167 0
M  V30 7136 H 647.374 -2.19161 2.10243 0
M  V30 7137 H 644.959 -1.03159 1.08068 0
M  V30 7138 H 646.841 -4.16436 0.644873 0
M  V30 7139 H 645.516 -3.2352 -0.107983 0
M  V30 7140 H 644.423 -3.02584 2.19986 0
M  V30 7141 H 645.756 -3.99261 2.87839 0
M  V30 7142 N 647.408 -1.11026 -1.11852 0
M  V30 7143 C 648.341 -0.708501 -2.16923 0
M  V30 7144 C 649.319 0.293196 -1.59935 0
M  V30 7145 O 650.503 0.190641 -1.87533 0
M  V30 7146 C 647.63 -0.0463705 -3.38668 0
M  V30 7147 C 646.676 -1.01252 -4.14307 0
M  V30 7148 S 647.509 -2.53291 -4.71809 0
M  V30 7149 C 648.665 -1.88366 -5.96883 0
M  V30 7150 H 648.898 -1.59854 -2.50667 0
M  V30 7151 H 646.431 -0.927869 -1.2341 0
M  V30 7152 H 648.389 0.329314 -4.09177 0
M  V30 7153 H 647.05 0.820562 -3.03192 0
M  V30 7154 H 646.243 -0.496596 -5.01548 0
M  V30 7155 H 645.845 -1.33042 -3.49537 0
M  V30 7156 H 648.137 -1.21753 -6.6647 0
M  V30 7157 H 649.08 -2.73588 -6.53112 0
M  V30 7158 H 649.488 -1.34562 -5.48227 0
M  V30 7159 N 648.886 1.2938 -0.899927 0
M  V30 7160 C 650.133 1.9555 -0.525963 0
M  V30 7161 C 650.461 1.70945 0.927789 0
M  V30 7162 O 649.716 1.01545 1.67293 0
M  V30 7163 C 650.015 3.49114 -0.765113 0
M  V30 7164 C 649.681 3.93796 -2.19626 0
M  V30 7165 C 648.343 4.05707 -2.58758 0
M  V30 7166 C 650.695 4.16883 -3.12823 0
M  V30 7167 C 648.023 4.38074 -3.90267 0
M  V30 7168 C 650.375 4.50725 -4.4388 0
M  V30 7169 C 649.039 4.60845 -4.82885 0
M  V30 7170 H 648.309 0.715569 -0.192463 0
M  V30 7171 H 650.956 1.53972 -1.13863 0
M  V30 7172 H 649.261 3.91738 -0.069531 0
M  V30 7173 H 650.958 3.98409 -0.455144 0
M  V30 7174 H 647.548 3.85042 -1.88256 0
M  V30 7175 H 651.732 4.07147 -2.83804 0
M  V30 7176 H 646.988 4.44112 -4.20207 0
M  V30 7177 H 651.162 4.67538 -5.16121 0
M  V30 7178 H 648.789 4.85681 -5.84823 0
M  V30 7179 N 650.364 0.662433 1.43002 0
M  V30 7180 C 651.589 0.186003 2.06564 0
M  V30 7181 C 652.014 -1.14314 1.49379 0
M  V30 7182 O 651.372 -1.70824 0.607346 0
M  V30 7183 C 651.42 0.118269 3.60406 0
M  V30 7184 O 650.524 -0.916859 4.02079 0
M  V30 7185 H 649.865 0.0990981 0.656563 0
M  V30 7186 H 652.395 0.907958 1.8335 0
M  V30 7187 H 652.405 -0.0619981 4.07953 0
M  V30 7188 H 651.08 1.08849 4.01403 0
M  V30 7189 H 649.657 -0.708635 3.66105 0
M  V30 7190 N 651.842 -1.52309 0.404946 0
M  V30 7191 C 653.07 -2.06185 -0.171818 0
M  V30 7192 C 653.485 -1.27536 -1.39212 0
M  V30 7193 O 652.842 -0.326112 -1.79563 0
M  V30 7194 C 652.893 -3.57647 -0.526417 0
M  V30 7195 O 652.614 -4.3332 0.645417 0
M  V30 7196 C 654.115 -4.27925 -1.15736 0
M  V30 7197 H 651.335 -0.670632 -0.0222328 0
M  V30 7198 H 653.879 -1.96259 0.574692 0
M  V30 7199 H 652.034 -3.67595 -1.22282 0
M  V30 7200 H 652.448 -5.23328 0.35042 0
M  V30 7201 H 653.922 -5.35093 -1.35572 0
M  V30 7202 H 654.399 -3.84134 -2.12926 0
M  V30 7203 H 655.005 -4.22335 -0.501281 0
M  V30 7204 N 653.32 -0.135238 -1.57019 0
M  V30 7205 C 654.566 0.519563 -1.96032 0
M  V30 7206 C 654.899 1.65284 -1.01955 0
M  V30 7207 O 654.174 1.94408 -0.059727 0
M  V30 7208 C 654.457 1.0369 -3.44848 0
M  V30 7209 C 654.31 -0.0940754 -4.49702 0
M  V30 7210 C 655.629 1.92254 -3.95887 0
M  V30 7211 H 652.748 0.18739 -0.712779 0
M  V30 7212 H 655.39 -0.214086 -1.8879 0
M  V30 7213 H 653.54 1.66209 -3.5115 0
M  V30 7214 H 655.212 -0.73 -4.55487 0
M  V30 7215 H 653.455 -0.754924 -4.27181 0
M  V30 7216 H 654.126 0.309419 -5.51132 0
M  V30 7217 H 656.602 1.39581 -3.9199 0
M  V30 7218 H 655.478 2.25364 -5.00502 0
M  V30 7219 H 655.739 2.85513 -3.37543 0
M  V30 7220 N 654.798 1.5699 0.138552 0
M  V30 7221 C 656.045 1.83809 0.849732 0
M  V30 7222 C 656.373 0.717409 1.80786 0
M  V30 7223 O 655.628 -0.292897 1.93496 0
M  V30 7224 C 655.927 3.17007 1.65049 0
M  V30 7225 C 655.593 4.43037 0.838398 0
M  V30 7226 C 654.255 4.77262 0.614385 0
M  V30 7227 C 656.607 5.20495 0.271044 0
M  V30 7228 C 653.935 5.864 -0.187552 0
M  V30 7229 C 656.287 6.30476 -0.517979 0
M  V30 7230 C 654.951 6.63245 -0.75249 0
M  V30 7231 H 654.221 0.672605 0.310939 0
M  V30 7232 H 656.868 1.91166 0.112971 0
M  V30 7233 H 655.173 3.05138 2.4576 0
M  V30 7234 H 656.87 3.34975 2.20437 0
M  V30 7235 H 653.46 4.16211 1.02307 0
M  V30 7236 H 657.644 4.94422 0.431371 0
M  V30 7237 H 652.9 6.10226 -0.378659 0
M  V30 7238 H 657.074 6.89686 -0.964694 0
M  V30 7239 H 654.701 7.47648 -1.37573 0
M  V30 7240 N 656.276 -0.40816 1.52223 0
M  V30 7241 C 657.501 -1.18127 1.70472 0
M  V30 7242 C 657.926 -1.83491 0.41384 0
M  V30 7243 O 657.284 -1.70047 -0.628778 0
M  V30 7244 C 657.332 -2.21935 2.84213 0
M  V30 7245 O 656.436 -3.28099 2.4985 0
M  V30 7246 H 655.777 -0.344781 0.56747 0
M  V30 7247 H 658.307 -0.478328 1.9893 0
M  V30 7248 H 658.317 -2.66248 3.09153 0
M  V30 7249 H 656.992 -1.73744 3.7787 0
M  V30 7250 H 655.569 -2.89058 2.35584 0
M  V30 7251 N 657.755 -1.42862 -0.66545 0
M  V30 7252 C 659.003 -1.43546 -1.42264 0
M  V30 7253 C 659.324 -0.0563116 -1.94919 0
M  V30 7254 O 658.594 0.906568 -1.73661 0
M  V30 7255 H 657.174 -0.528464 -0.527953 0
M  V30 7256 H 659.836 -1.78363 -0.785665 0
M  V30 7257 H 658.932 -2.14079 -2.27105 0
M  V30 7258 N 659.233 0.902656 -1.29189 0
M  V30 7259 C 660.649 1.18296 -1.07137 0
M  V30 7260 C 660.849 2.00701 0.179223 0
M  V30 7261 O 659.905 2.3675 0.877812 0
M  V30 7262 C 661.218 1.90677 -2.32514 0
M  V30 7263 C 662.766 2.03515 -2.37804 0
M  V30 7264 C 663.241 2.79307 -3.62976 0
M  V30 7265 N 664.732 2.86862 -3.63681 0
M  V30 7266 C 665.467 3.46035 -4.57217 0
M  V30 7267 N 664.963 4.06399 -5.61081 0
M  V30 7268 N 666.756 3.43681 -4.44792 0
M  V30 7269 H 658.907 0.352765 -2.0945 0
M  V30 7270 H 661.17 0.21876 -0.922414 0
M  V30 7271 H 660.876 1.3756 -3.23682 0
M  V30 7272 H 660.75 2.91169 -2.39793 0
M  V30 7273 H 663.137 2.55809 -1.47125 0
M  V30 7274 H 663.218 1.02166 -2.34512 0
M  V30 7275 H 662.862 2.2769 -4.54004 0
M  V30 7276 H 662.792 3.80995 -3.63525 0
M  V30 7277 H 665.283 2.43987 -2.88581 0
M  V30 7278 H 665.596 4.49564 -6.2858 0
M  V30 7279 H 663.941 4.0487 -5.64894 0
M  V30 7280 H 667.132 2.9574 -3.62843 0
M  V30 7281 H 667.305 3.89503 -5.17872 0
M  V30 7282 N 660.711 1.11618 1.11262 0
M  V30 7283 C 661.941 0.88745 1.86569 0
M  V30 7284 C 662.349 -0.56636 1.80524 0
M  V30 7285 O 661.692 -1.40289 1.18594 0
M  V30 7286 C 661.754 1.27313 3.36202 0
M  V30 7287 C 661.418 2.73649 3.66013 0
M  V30 7288 C 662.415 3.71863 3.63337 0
M  V30 7289 C 660.1 3.10342 3.9496 0
M  V30 7290 C 662.094 5.04788 3.89188 0
M  V30 7291 C 659.781 4.43451 4.20469 0
M  V30 7292 C 660.779 5.40484 4.17572 0
M  V30 7293 O 660.467 6.71195 4.42439 0
M  V30 7294 H 660.199 0.317543 0.596777 0
M  V30 7295 H 662.753 1.48768 1.41624 0
M  V30 7296 H 660.983 0.616062 3.81761 0
M  V30 7297 H 662.672 1.01991 3.92877 0
M  V30 7298 H 663.438 3.44861 3.41022 0
M  V30 7299 H 659.317 2.35431 3.9635 0
M  V30 7300 H 662.861 5.80516 3.86842 0
M  V30 7301 H 658.758 4.70187 4.42261 0
M  V30 7302 H 659.526 6.77012 4.59997 0
M  V30 7303 N 662.189 -1.289 0.906776 0
M  V30 7304 C 663.438 -1.9455 0.532262 0
M  V30 7305 C 663.751 -1.72219 -0.927353 0
M  V30 7306 O 664.957 -2.32033 -1.40971 0
M  V30 7307 C 663.413 -3.48438 0.901041 0
M  V30 7308 C 663.021 -3.79558 2.37991 0
M  V30 7309 C 664.765 -4.20284 0.596777 0
M  V30 7310 C 662.672 -5.26723 2.68918 0
M  V30 7311 H 661.602 -0.728259 0.195333 0
M  V30 7312 H 664.253 -1.46519 1.10474 0
M  V30 7313 H 662.635 -3.95162 0.257419 0
M  V30 7314 H 663.809 -3.43668 3.06967 0
M  V30 7315 H 662.124 -3.20868 2.65391 0
M  V30 7316 H 664.721 -5.28612 0.8046 0
M  V30 7317 H 665.064 -4.13694 -0.465072 0
M  V30 7318 H 665.597 -3.79315 1.19855 0
M  V30 7319 H 662.336 -5.38384 3.73928 0
M  V30 7320 H 661.856 -5.63836 2.04571 0
M  V30 7321 H 663.535 -5.94391 2.55555 0
M  V30 7322 N 663.667 -0.670007 -1.42649 0
M  V30 7323 C 664.916 -0.187526 -2.00826 0
M  V30 7324 C 665.229 1.21142 -1.53571 0
M  V30 7325 O 666.435 1.79001 -2.04134 0
M  V30 7326 C 664.891 -0.284409 -3.58774 0
M  V30 7327 C 664.499 -1.6871 -4.15019 0
M  V30 7328 C 666.243 0.139605 -4.2427 0
M  V30 7329 C 664.15 -1.73701 -5.65316 0
M  V30 7330 H 663.08 -0.0663468 -0.751075 0
M  V30 7331 H 665.731 -0.834492 -1.63427 0
M  V30 7332 H 664.113 0.430364 -3.93655 0
M  V30 7333 H 665.287 -2.42857 -3.91608 0
M  V30 7334 H 663.602 -2.05855 -3.61957 0
M  V30 7335 H 666.199 0.122398 -5.3456 0
M  V30 7336 H 666.542 1.17403 -3.99402 0
M  V30 7337 H 667.075 -0.523995 -3.94334 0
M  V30 7338 H 663.814 -2.75109 -5.94975 0
M  V30 7339 H 663.334 -1.03903 -5.90732 0
M  V30 7340 H 665.013 -1.48829 -6.2965 0
M  V30 7341 N 665.145 1.52092 -0.413018 0
M  V30 7342 C 666.075 2.30021 0.401567 0
M  V30 7343 C 667.056 1.34395 1.04269 0
M  V30 7344 O 668.241 1.63304 1.05097 0
M  V30 7345 C 665.371 3.12447 1.51638 0
M  V30 7346 C 664.325 4.16153 1.00005 0
M  V30 7347 C 663.651 4.86948 2.20875 0
M  V30 7348 C 664.951 5.22275 0.0513757 0
M  V30 7349 H 666.645 2.98365 -0.248704 0
M  V30 7350 H 664.191 1.4349 -0.121052 0
M  V30 7351 H 666.144 3.65733 2.09326 0
M  V30 7352 H 664.868 2.41879 2.19458 0
M  V30 7353 H 663.527 3.63882 0.445549 0
M  V30 7354 H 663.175 4.12905 2.8726 0
M  V30 7355 H 662.875 5.57057 1.86978 0
M  V30 7356 H 664.399 5.43048 2.79162 0
M  V30 7357 H 665.813 5.70778 0.537176 0
M  V30 7358 H 664.21 5.9977 -0.198977 0
M  V30 7359 H 665.28 4.76611 -0.892736 0
M  V30 7360 N 666.623 0.143563 1.56945 0
M  V30 7361 C 667.553 -0.7936 2.196 0
M  V30 7362 C 668.534 -1.25955 1.14321 0
M  V30 7363 O 669.719 -1.31773 1.42651 0
M  V30 7364 C 666.849 -2.03424 2.81489 0
M  V30 7365 C 665.803 -1.70519 3.92565 0
M  V30 7366 C 665.129 -3.01817 4.41373 0
M  V30 7367 C 666.429 -0.95449 5.13504 0
M  V30 7368 H 668.123 -0.271423 2.98167 0
M  V30 7369 H 665.669 -0.12911 1.4342 0
M  V30 7370 H 667.622 -2.69463 3.23987 0
M  V30 7371 H 666.346 -2.58008 2.00248 0
M  V30 7372 H 665.005 -1.06859 3.5068 0
M  V30 7373 H 664.653 -3.54386 3.56959 0
M  V30 7374 H 664.353 -2.80565 5.16292 0
M  V30 7375 H 665.877 -3.68934 4.86539 0
M  V30 7376 H 667.291 -1.5169 5.52868 0
M  V30 7377 H 665.688 -0.842035 5.94163 0
M  V30 7378 H 666.758 0.0544033 4.84869 0
M  V30 7379 N 668.101 -1.57061 -0.130224 0
M  V30 7380 C 669.034 -1.94698 -1.19029 0
M  V30 7381 C 670.012 -0.815074 -1.40696 0
M  V30 7382 O 671.196 -1.07223 -1.55034 0
M  V30 7383 C 668.323 -2.23352 -2.5462 0
M  V30 7384 C 667.369 -3.45945 -2.49448 0
M  V30 7385 S 668.202 -4.98927 -1.94505 0
M  V30 7386 C 669.358 -5.30721 -3.31792 0
M  V30 7387 H 669.591 -2.84308 -0.869272 0
M  V30 7388 H 667.124 -1.50688 -0.336531 0
M  V30 7389 H 669.082 -2.40539 -3.32643 0
M  V30 7390 H 667.743 -1.34376 -2.83905 0
M  V30 7391 H 666.936 -3.63324 -3.49302 0
M  V30 7392 H 666.538 -3.28086 -1.79543 0
M  V30 7393 H 668.83 -5.25215 -4.27966 0
M  V30 7394 H 669.773 -6.32048 -3.19251 0
M  V30 7395 H 670.181 -4.5821 -3.29703 0
M  V30 7396 N 669.579 0.400081 -1.52437 0
M  V30 7397 C 670.827 1.14392 -1.6661 0
M  V30 7398 C 671.148 1.90792 -0.402927 0
M  V30 7399 O 670.418 1.87042 0.582425 0
M  V30 7400 H 668.998 0.425275 -0.614125 0
M  V30 7401 H 671.66 0.455076 -1.89513 0
M  V30 7402 H 670.756 1.85298 -2.51139 0
M  V30 7403 N 671.057 1.43213 0.657864 0
M  V30 7404 C 672.303 1.44798 1.41991 0
M  V30 7405 C 672.636 0.070256 1.94073 0
M  V30 7406 O 671.911 -0.908177 1.71995 0
M  V30 7407 C 672.194 2.4865 2.60471 0
M  V30 7408 C 672.047 3.95679 2.13911 0
M  V30 7409 C 673.366 2.49292 3.62686 0
M  V30 7410 H 670.485 0.527244 0.514959 0
M  V30 7411 H 673.127 1.74733 0.74621 0
M  V30 7412 H 671.277 2.23254 3.17946 0
M  V30 7413 H 672.949 4.32116 1.61472 0
M  V30 7414 H 671.192 4.08733 1.45325 0
M  V30 7415 H 671.863 4.6395 2.99089 0
M  V30 7416 H 674.339 2.71917 3.14961 0
M  V30 7417 H 673.215 3.23907 4.43143 0
M  V30 7418 H 673.476 1.52502 4.14964 0
M  V30 7419 N 672.536 -0.895792 1.29666 0
M  V30 7420 C 673.783 -1.64664 1.17864 0
M  V30 7421 C 674.111 -1.92631 -0.26902 0
M  V30 7422 O 673.366 -1.53787 -1.21029 0
M  V30 7423 C 673.665 -3.00075 1.94139 0
M  V30 7424 C 673.331 -2.91702 3.43833 0
M  V30 7425 C 671.993 -2.89126 3.84656 0
M  V30 7426 C 674.345 -2.80622 4.39205 0
M  V30 7427 C 671.673 -2.73293 5.1916 0
M  V30 7428 C 674.025 -2.66329 5.73805 0
M  V30 7429 C 672.689 -2.62121 6.1388 0
M  V30 7430 H 671.959 -0.602549 0.431295 0
M  V30 7431 H 674.606 -1.04234 1.60648 0
M  V30 7432 H 672.911 -3.64394 1.43958 0
M  V30 7433 H 674.608 -3.57111 1.82408 0
M  V30 7434 H 671.198 -2.94511 3.11386 0
M  V30 7435 H 675.382 -2.81686 4.08615 0
M  V30 7436 H 670.638 -2.68443 5.49316 0
M  V30 7437 H 674.812 -2.56727 6.47352 0
M  V30 7438 H 672.439 -2.49611 7.18052 0
M  V30 7439 N 674.014 -1.12206 -1.10668 0
M  V30 7440 C 675.239 -0.898938 -1.86906 0
M  V30 7441 C 675.664 0.546346 -1.79991 0
M  V30 7442 O 675.022 1.38655 -1.1681 0
M  V30 7443 C 675.07 -1.37529 -3.33344 0
M  V30 7444 O 674.174 -0.55218 -4.08687 0
M  V30 7445 H 673.515 -0.323163 -0.580053 0
M  V30 7446 H 676.045 -1.49355 -1.39837 0
M  V30 7447 H 676.055 -1.3733 -3.84193 0
M  V30 7448 H 674.73 -2.42767 -3.37693 0
M  V30 7449 H 673.307 -0.620947 -3.67694 0
M  V30 7450 N 675.492 1.28418 -0.913599 0
M  V30 7451 C 676.425 2.25557 -0.346328 0
M  V30 7452 C 677.403 1.53038 0.549366 0
M  V30 7453 O 678.587 1.81937 0.493055 0
M  V30 7454 C 675.714 3.34915 0.504961 0
M  V30 7455 C 674.76 4.25257 -0.325334 0
M  V30 7456 S 675.593 5.06718 -1.73198 0
M  V30 7457 C 676.749 6.19569 -0.887988 0
M  V30 7458 H 676.982 2.73325 -1.16965 0
M  V30 7459 H 674.515 1.36855 -0.714841 0
M  V30 7460 H 676.473 3.98376 0.990301 0
M  V30 7461 H 675.134 2.85814 1.30267 0
M  V30 7462 H 674.327 5.02947 0.325589 0
M  V30 7463 H 673.929 3.66519 -0.744321 0
M  V30 7464 H 676.221 6.77398 -0.117568 0
M  V30 7465 H 677.164 6.88908 -1.63742 0
M  V30 7466 H 677.572 5.62812 -0.436228 0
M  V30 7467 N 676.97 0.677563 1.42291 0
M  V30 7468 C 678.2 0.209155 2.05539 0
M  V30 7469 C 678.608 -1.13987 1.51009 0
M  V30 7470 O 677.951 -1.71976 0.645764 0
M  V30 7471 C 678.013 0.0697758 3.59432 0
M  V30 7472 C 677.677 1.34795 4.36668 0
M  V30 7473 C 678.674 2.28201 4.67141 0
M  V30 7474 C 676.359 1.59632 4.76259 0
M  V30 7475 C 678.353 3.44718 5.36142 0
M  V30 7476 C 676.04 2.76437 5.45 0
M  V30 7477 C 677.038 3.68805 5.74867 0
M  V30 7478 O 676.726 4.83567 6.42198 0
M  V30 7479 H 676.458 0.0986202 0.668768 0
M  V30 7480 H 679.012 0.925483 1.83368 0
M  V30 7481 H 677.242 -0.702157 3.80272 0
M  V30 7482 H 678.931 -0.359115 4.04308 0
M  V30 7483 H 679.697 2.10264 4.37052 0
M  V30 7484 H 675.576 0.886073 4.52404 0
M  V30 7485 H 679.12 4.16833 5.59371 0
M  V30 7486 H 675.017 2.94299 5.74507 0
M  V30 7487 H 675.785 4.83147 6.6069 0
M  V30 7488 N 678.448 -1.51871 0.421078 0
M  V30 7489 C 679.676 -2.06356 -0.14994 0
M  V30 7490 C 680.091 -1.29006 -1.37851 0
M  V30 7491 O 679.448 -0.345139 -1.79207 0
M  V30 7492 C 679.499 -3.58185 -0.488454 0
M  V30 7493 O 679.22 -4.32611 0.691341 0
M  V30 7494 C 680.721 -4.29129 -1.11191 0
M  V30 7495 H 677.941 -0.67083 -0.0151186 0
M  V30 7496 H 680.485 -1.95638 0.595476 0
M  V30 7497 H 678.64 -3.68871 -1.18376 0
M  V30 7498 H 679.054 -5.22927 0.405906 0
M  V30 7499 H 680.528 -5.36501 -1.29889 0
M  V30 7500 H 681.005 -3.86371 -2.0884 0
M  V30 7501 H 681.611 -4.22843 -0.456458 0
M  V30 7502 N 679.926 -0.151884 -1.56866 0
M  V30 7503 C 681.174 0.497021 -1.95893 0
M  V30 7504 C 681.495 1.65078 -1.03799 0
M  V30 7505 O 680.765 1.95642 -0.10049 0
M  V30 7506 H 679.345 0.186603 -0.723318 0
M  V30 7507 H 682.007 -0.228525 -1.93556 0
M  V30 7508 H 681.103 0.869933 -2.99731 0
M  V30 7509 N 681.404 1.57128 0.121893 0
M  V30 7510 C 682.334 2.03165 1.15092 0
M  V30 7511 C 683.315 0.915587 1.43356 0
M  V30 7512 O 684.5 1.1851 1.53847 0
M  V30 7513 C 681.63 2.43352 2.47784 0
M  V30 7514 C 680.584 3.58376 2.33989 0
M  V30 7515 C 679.91 3.84454 3.71617 0
M  V30 7516 C 681.21 4.90199 1.80283 0
M  V30 7517 H 682.904 2.89382 0.768023 0
M  V30 7518 H 680.45 1.39218 0.367998 0
M  V30 7519 H 682.403 2.74163 3.20019 0
M  V30 7520 H 681.127 1.54103 2.87958 0
M  V30 7521 H 679.786 3.2777 1.64202 0
M  V30 7522 H 679.434 2.92414 4.09271 0
M  V30 7523 H 679.134 4.61877 3.6324 0
M  V30 7524 H 680.658 4.17714 4.45362 0
M  V30 7525 H 682.072 5.19565 2.42333 0
M  V30 7526 H 680.469 5.71601 1.82735 0
M  V30 7527 H 681.539 4.78904 0.760184 0
M  V30 7528 N 682.882 -0.391992 1.52647 0
M  V30 7529 C 684.131 -1.13449 1.6677 0
M  V30 7530 C 684.444 -1.91203 0.412399 0
M  V30 7531 O 685.65 -2.68013 0.433707 0
M  V30 7532 C 684.106 -2.06577 2.9471 0
M  V30 7533 C 683.714 -1.3426 4.27409 0
M  V30 7534 C 685.458 -2.80981 3.18198 0
M  V30 7535 C 683.365 -2.26136 5.46458 0
M  V30 7536 H 682.295 -0.427211 0.621295 0
M  V30 7537 H 684.946 -0.397522 1.79142 0
M  V30 7538 H 683.328 -2.83898 2.76076 0
M  V30 7539 H 684.502 -0.621856 4.56585 0
M  V30 7540 H 682.817 -0.718279 4.10158 0
M  V30 7541 H 685.414 -3.49898 4.04321 0
M  V30 7542 H 685.757 -3.44891 2.33144 0
M  V30 7543 H 686.29 -2.10754 3.37383 0
M  V30 7544 H 683.029 -1.66846 6.33911 0
M  V30 7545 H 682.549 -2.96134 5.21598 0
M  V30 7546 H 684.228 -2.86286 5.80215 0
M  V30 7547 N 684.36 -1.4356 -0.65026 0
M  V30 7548 C 685.59 -1.48563 -1.4357 0
M  V30 7549 C 685.998 -0.103041 -1.88919 0
M  V30 7550 O 685.341 0.897602 -1.60277 0
M  V30 7551 C 685.403 -2.37181 -2.70158 0
M  V30 7552 C 685.067 -3.84673 -2.4673 0
M  V30 7553 C 686.064 -4.75704 -2.09765 0
M  V30 7554 C 683.749 -4.29189 -2.60963 0
M  V30 7555 C 685.743 -6.09249 -1.87334 0
M  V30 7556 C 683.43 -5.62787 -2.38147 0
M  V30 7557 C 684.428 -6.52634 -2.01389 0
M  V30 7558 O 684.116 -7.83761 -1.78813 0
M  V30 7559 H 683.848 -0.506743 -0.447423 0
M  V30 7560 H 686.402 -1.89001 -0.80423 0
M  V30 7561 H 684.632 -1.91636 -3.35876 0
M  V30 7562 H 686.321 -2.33354 -3.32116 0
M  V30 7563 H 687.087 -4.42589 -1.98343 0
M  V30 7564 H 682.966 -3.59529 -2.88548 0
M  V30 7565 H 686.51 -6.7934 -1.58567 0
M  V30 7566 H 682.407 -5.95469 -2.49173 0
M  V30 7567 H 683.175 -7.95368 -1.93214 0
M  V30 7568 N 685.838 0.888903 -1.30139 0
M  V30 7569 C 686.786 2.0156 -1.16088 0
M  V30 7570 C 687.78 1.69239 -0.0737413 0
M  V30 7571 O 688.986 1.78468 -0.234313 0
M  V30 7572 H 685.361 0.660825 -0.358907 0
M  V30 7573 H 687.332 2.10547 -2.11453 0
M  V30 7574 C 686.081 3.36758 -0.865426 0
M  V30 7575 H 685.404 3.62137 -1.69402 0
M  V30 7576 H 686.844 4.16246 -0.807192 0
M  V30 7577 C 685.303 3.34124 0.431577 0
M  V30 7578 O 685.833 3.7445 1.45431 0
M  V30 7579 N 684.039 2.87229 0.441321 0
M  V30 7580 H 683.586 2.54609 -0.391433 0
M  V30 7581 H 683.544 2.8585 1.30909 0
M  V30 7582 N 687.317 1.12792 1.10072 0
M  V30 7583 C 688.594 0.796867 1.78632 0
M  V30 7584 C 688.974 -0.712739 1.98704 0
M  V30 7585 O 688.322 -1.64773 1.5831 0
M  V30 7586 C 688.532 1.57622 3.11378 0
M  V30 7587 C 689.88 1.76463 3.86194 0
M  V30 7588 O 690.904 1.54165 3.2111 0
M  V30 7589 O 689.763 2.13623 5.03018 0
M  V30 7590 H 686.857 0.290248 0.774394 0
M  V30 7591 H 689.403 1.23215 1.16688 0
M  V30 7592 H 688.175 2.60246 2.92212 0
M  V30 7593 H 687.798 1.13543 3.81043 0
M  V30 7594 N 688.795 -1.27931 0.920396 0
M  V30 7595 C 690.035 -1.96459 0.564198 0
M  V30 7596 C 690.399 -1.70802 -0.876967 0
M  V30 7597 O 691.6 -2.32956 -1.34107 0
M  V30 7598 C 689.871 -3.46583 0.872641 0
M  V30 7599 S 691.43 -4.34343 0.623859 0
M  V30 7600 H 688.248 -0.679735 0.208523 0
M  V30 7601 H 690.85 -1.55319 1.18727 0
M  V30 7602 H 689.554 -3.62753 1.91933 0
M  V30 7603 H 689.085 -3.92677 0.238479 0
M  V30 7604 H 691.1 -4.93449 -0.521744 0
M  V30 7605 N 690.273 -0.685099 -1.4193 0
M  V30 7606 C 691.52 -0.211658 -2.01391 0
M  V30 7607 C 691.848 1.18526 -1.54214 0
M  V30 7608 O 691.103 1.81189 -0.739519 0
M  V30 7609 C 691.402 -0.206154 -3.56805 0
M  V30 7610 C 691.068 -1.54915 -4.23453 0
M  V30 7611 C 689.73 -1.91684 -4.41373 0
M  V30 7612 C 692.082 -2.43317 -4.60919 0
M  V30 7613 C 689.41 -3.16461 -4.94034 0
M  V30 7614 C 691.762 -3.67415 -5.14965 0
M  V30 7615 C 690.426 -4.04341 -5.31098 0
M  V30 7616 H 689.696 -0.0774511 -0.736941 0
M  V30 7617 H 692.343 -0.882121 -1.69973 0
M  V30 7618 H 690.648 0.547841 -3.87951 0
M  V30 7619 H 692.345 0.17753 -4.00607 0
M  V30 7620 H 688.935 -1.25314 -4.09871 0
M  V30 7621 H 693.119 -2.16192 -4.46738 0
M  V30 7622 H 688.375 -3.45078 -5.04709 0
M  V30 7623 H 692.549 -4.3611 -5.42938 0
M  V30 7624 H 690.176 -5.01101 -5.71666 0
M  V30 7625 N 691.751 1.51645 -0.429126 0
M  V30 7626 C 692.976 2.06917 0.141399 0
M  V30 7627 C 693.401 1.29527 1.36398 0
M  V30 7628 O 692.759 0.33094 1.78254 0
M  V30 7629 C 692.807 3.57776 0.4504 0
M  V30 7630 O 691.911 3.82639 1.53821 0
M  V30 7631 H 691.252 0.663978 0.0054647 0
M  V30 7632 H 693.782 1.95355 -0.608093 0
M  V30 7633 H 693.792 4.01894 0.703249 0
M  V30 7634 H 692.467 4.13532 -0.443213 0
M  V30 7635 H 691.044 3.5039 1.27597 0
M  V30 7636 N 693.229 0.160201 1.56784 0
M  V30 7637 C 694.176 -0.774416 2.1742 0
M  V30 7638 C 695.146 -1.23483 1.11091 0
M  V30 7639 O 696.331 -1.30499 1.39193 0
M  V30 7640 C 693.471 -2.00283 2.81035 0
M  V30 7641 C 692.584 -1.58701 4.01793 0
M  V30 7642 C 691.719 -2.76824 4.53367 0
M  V30 7643 C 690.758 -2.31679 5.66561 0
M  V30 7644 N 689.895 -3.42856 6.12694 0
M  V30 7645 H 694.735 -0.250542 2.96945 0
M  V30 7646 H 692.272 -0.111943 1.46673 0
M  V30 7647 H 694.23 -2.72316 3.16069 0
M  V30 7648 H 692.86 -2.5006 2.04132 0
M  V30 7649 H 691.912 -0.76384 3.72652 0
M  V30 7650 H 693.224 -1.21555 4.83762 0
M  V30 7651 H 692.378 -3.57029 4.90525 0
M  V30 7652 H 691.117 -3.17223 3.70433 0
M  V30 7653 H 690.122 -1.49917 5.28966 0
M  V30 7654 H 691.347 -1.9235 6.5129 0
M  V30 7655 H 689.293 -3.82852 5.32692 0
M  V30 7656 H 689.21 -3.09767 6.89624 0
M  V30 7657 H 690.478 -4.23379 6.545 0
M  V30 7658 N 694.707 -1.5719 -0.113559 0
M  V30 7659 C 695.932 -1.89702 -0.838336 0
M  V30 7660 C 696.357 -0.752679 -1.72384 0
M  V30 7661 O 695.715 0.296575 -1.78858 0
M  V30 7662 C 695.763 -3.20989 -1.64312 0
M  V30 7663 O 694.867 -3.07278 -2.75053 0
M  V30 7664 H 694.208 -0.622339 -0.231496 0
M  V30 7665 H 696.738 -2.04382 -0.0943228 0
M  V30 7666 H 696.748 -3.53843 -2.03123 0
M  V30 7667 H 695.423 -4.03869 -0.993119 0
M  V30 7668 H 694 -2.85901 -2.39406 0
M  V30 7669 N 696.185 0.383891 -1.52853 0
M  V30 7670 C 697.115 1.47559 -1.80965 0
M  V30 7671 C 698.096 1.5669 -0.661986 0
M  V30 7672 O 699.281 1.71556 -0.910072 0
M  V30 7673 C 696.411 2.85114 -1.98312 0
M  V30 7674 C 695.365 2.9082 -3.14019 0
M  V30 7675 C 694.691 4.30873 -3.16627 0
M  V30 7676 C 695.991 2.60001 -4.52986 0
M  V30 7677 H 697.685 1.24283 -2.72386 0
M  V30 7678 H 695.231 0.596445 -1.31067 0
M  V30 7679 H 697.184 3.61496 -2.16561 0
M  V30 7680 H 695.908 3.09738 -1.03585 0
M  V30 7681 H 694.567 2.16886 -2.9556 0
M  V30 7682 H 694.215 4.52545 -2.19573 0
M  V30 7683 H 693.915 4.3561 -3.94357 0
M  V30 7684 H 695.439 5.09154 -3.37038 0
M  V30 7685 H 696.853 3.261 -4.71521 0
M  V30 7686 H 695.25 2.76081 -5.32822 0
M  V30 7687 H 696.32 1.5532 -4.59351 0
M  V30 7688 N 697.663 1.43903 0.642637 0
M  V30 7689 C 698.611 1.50164 1.77634 0
M  V30 7690 C 699.605 0.374294 1.65213 0
M  V30 7691 O 700.811 0.548748 1.71431 0
M  V30 7692 H 697.186 0.470974 0.586249 0
M  V30 7693 H 699.157 2.45603 1.69474 0
M  V30 7694 C 697.906 1.45196 3.15933 0
M  V30 7695 H 697.229 2.31253 3.26132 0
M  V30 7696 H 698.669 1.53638 3.95185 0
M  V30 7697 C 697.128 0.171043 3.36466 0
M  V30 7698 O 697.658 -0.763413 3.94379 0
M  V30 7699 N 695.864 0.077847 2.90496 0
M  V30 7700 H 695.411 0.8391 2.43551 0
M  V30 7701 H 695.369 -0.778473 3.0461 0
M  V30 7702 N 699.141 -0.881989 1.30609 0
M  V30 7703 C 700.39 -1.62878 1.18969 0
M  V30 7704 C 700.703 -1.93946 -0.253859 0
M  V30 7705 O 701.909 -2.67008 -0.491813 0
M  V30 7706 C 700.365 -2.93573 2.0819 0
M  V30 7707 C 699.973 -2.70034 3.57471 0
M  V30 7708 C 701.717 -3.71543 2.0532 0
M  V30 7709 C 699.624 -3.96563 4.38739 0
M  V30 7710 H 698.554 -0.611092 0.441682 0
M  V30 7711 H 701.205 -0.976201 1.55379 0
M  V30 7712 H 699.587 -3.6014 1.64666 0
M  V30 7713 H 700.761 -2.11949 4.09163 0
M  V30 7714 H 699.076 -2.05435 3.62195 0
M  V30 7715 H 701.673 -4.65386 2.63288 0
M  V30 7716 H 702.016 -4.03167 1.03739 0
M  V30 7717 H 702.549 -3.11842 2.46981 0
M  V30 7718 H 699.288 -3.70095 5.41027 0
M  V30 7719 H 698.808 -4.54142 3.9181 0
M  V30 7720 H 700.487 -4.64557 4.50329 0
M  V30 7721 N 700.619 -1.13374 -1.09472 0
M  V30 7722 C 701.866 -0.89519 -1.81639 0
M  V30 7723 C 702.194 0.57868 -1.85692 0
M  V30 7724 O 701.449 1.44426 -1.32059 0
M  V30 7725 C 701.748 -1.42759 -3.2765 0
M  V30 7726 C 701.414 -2.91822 -3.43731 0
M  V30 7727 C 700.076 -3.32521 -3.47827 0
M  V30 7728 C 702.428 -3.87727 -3.48307 0
M  V30 7729 C 699.756 -4.6781 -3.54078 0
M  V30 7730 C 702.108 -5.22859 -3.56091 0
M  V30 7731 C 700.772 -5.63086 -3.58456 0
M  V30 7732 H 700.042 -0.327573 -0.664663 0
M  V30 7733 H 702.689 -1.4156 -1.28969 0
M  V30 7734 H 700.994 -0.827871 -3.82954 0
M  V30 7735 H 702.691 -1.2191 -3.8202 0
M  V30 7736 H 699.281 -2.5935 -3.41226 0
M  V30 7737 H 703.465 -3.57371 -3.44383 0
M  V30 7738 H 698.721 -4.98353 -3.54195 0
M  V30 7739 H 702.895 -5.96989 -3.58577 0
M  V30 7740 H 700.522 -6.67905 -3.63052 0
M  V30 7741 N 702.098 1.27442 -0.927168 0
M  V30 7742 C 703.346 1.94007 -0.566203 0
M  V30 7743 C 703.667 1.7323 0.895345 0
M  V30 7744 O 702.937 1.07973 1.63459 0
M  V30 7745 H 701.517 0.717917 -0.206409 0
M  V30 7746 H 704.179 1.55161 -1.17945 0
M  V30 7747 H 703.275 3.02401 -0.772028 0
M  V30 7748 N 703.576 0.692616 1.41565 0
M  V30 7749 C 704.801 0.229776 2.06123 0
M  V30 7750 C 705.226 -1.11119 1.5177 0
M  V30 7751 O 704.584 -1.69498 0.643444 0
M  V30 7752 C 704.632 0.19469 3.60074 0
M  V30 7753 O 703.736 -0.831366 4.03933 0
M  V30 7754 H 703.077 0.113002 0.654314 0
M  V30 7755 H 705.607 0.946645 1.81383 0
M  V30 7756 H 705.617 0.0245487 4.07993 0
M  V30 7757 H 704.292 1.17339 3.99004 0
M  V30 7758 H 702.869 -0.630819 3.67526 0
M  V30 7759 N 705.054 -1.51416 0.437162 0
M  V30 7760 C 706.279 -2.0699 -0.130424 0
M  V30 7761 C 706.704 -1.30249 -1.35709 0
M  V30 7762 O 706.062 -0.340388 -1.78076 0
M  V30 7763 C 706.11 -3.5801 -0.43142 0
M  V30 7764 O 705.214 -3.8345 -1.5179 0
M  V30 7765 H 704.555 -0.663997 -0.00194339 0
M  V30 7766 H 707.085 -1.95029 0.618445 0
M  V30 7767 H 707.095 -4.02261 -0.681926 0
M  V30 7768 H 705.77 -4.13291 0.465137 0
M  V30 7769 H 704.347 -3.51062 -1.25737 0
M  V30 7770 N 706.532 -0.168513 -1.56696 0
M  V30 7771 C 707.778 0.471368 -1.97863 0
M  V30 7772 C 708.133 1.61049 -1.05267 0
M  V30 7773 O 707.426 1.9138 -0.0917908 0
M  V30 7774 C 707.62 1.00441 -3.42996 0
M  V30 7775 C 707.449 -0.081524 -4.49626 0
M  V30 7776 C 706.219 -0.530242 -5.0251 0
M  V30 7777 C 708.417 -0.880897 -5.067 0
M  V30 7778 N 706.399 -1.59678 -5.9277 0
M  V30 7779 C 707.77 -1.79742 -5.93374 0
M  V30 7780 C 709.825 -0.92629 -4.89208 0
M  V30 7781 C 708.528 -2.7555 -6.64428 0
M  V30 7782 C 710.554 -1.8723 -5.6098 0
M  V30 7783 C 709.916 -2.77631 -6.4738 0
M  V30 7784 H 706.015 0.140671 -0.769244 0
M  V30 7785 H 708.599 -0.268084 -1.92846 0
M  V30 7786 H 706.77 1.71339 -3.48565 0
M  V30 7787 H 708.502 1.61269 -3.7118 0
M  V30 7788 H 705.257 -0.12847 -4.73426 0
M  V30 7789 H 705.681 -2.13045 -6.42605 0
M  V30 7790 H 710.323 -0.241412 -4.2211 0
M  V30 7791 H 708.041 -3.45027 -7.30741 0
M  V30 7792 H 711.627 -1.91349 -5.49433 0
M  V30 7793 H 710.507 -3.4964 -7.01941 0
M  V30 7794 N 708.01 1.57248 0.105221 0
M  V30 7795 C 709.235 1.90143 0.828264 0
M  V30 7796 C 709.66 0.761811 1.71983 0
M  V30 7797 O 709.018 -0.287086 1.79013 0
M  V30 7798 C 709.066 3.21856 1.62608 0
M  V30 7799 O 708.17 3.08732 2.7342 0
M  V30 7800 H 707.511 0.623558 0.228192 0
M  V30 7801 H 710.041 2.0443 0.0834826 0
M  V30 7802 H 710.051 3.54916 2.01243 0
M  V30 7803 H 708.726 4.0439 0.971687 0
M  V30 7804 H 707.303 2.87167 2.37886 0
M  V30 7805 N 709.488 -0.375779 1.53054 0
M  V30 7806 C 710.734 -1.12114 1.68992 0
M  V30 7807 C 711.067 -1.8926 0.435238 0
M  V30 7808 O 710.342 -1.86044 -0.567278 0
M  V30 7809 C 710.625 -2.08867 2.93337 0
M  V30 7810 C 710.478 -1.35397 4.28938 0
M  V30 7811 C 711.797 -3.09124 3.13257 0
M  V30 7812 H 708.916 -0.406207 0.614951 0
M  V30 7813 H 711.558 -0.403054 1.85676 0
M  V30 7814 H 709.708 -2.70102 2.79244 0
M  V30 7815 H 711.38 -0.770242 4.54824 0
M  V30 7816 H 709.623 -0.655801 4.28814 0
M  V30 7817 H 710.294 -2.06161 5.12056 0
M  V30 7818 H 712.77 -2.57987 3.26469 0
M  V30 7819 H 711.646 -3.74054 4.01715 0
M  V30 7820 H 711.907 -3.78729 2.28072 0
M  V30 7821 N 710.966 -1.44241 -0.634997 0
M  V30 7822 C 712.382 -1.28043 -0.952742 0
M  V30 7823 C 712.582 -0.21338 -2.00367 0
M  V30 7824 O 711.638 0.402042 -2.49279 0
M  V30 7825 C 712.951 -2.65076 -1.41968 0
M  V30 7826 C 714.499 -2.72755 -1.53537 0
M  V30 7827 C 714.974 -4.10249 -2.03616 0
M  V30 7828 N 716.465 -4.12406 -2.10892 0
M  V30 7829 C 717.2 -5.15641 -2.50803 0
M  V30 7830 N 716.696 -6.29239 -2.89879 0
M  V30 7831 N 718.489 -5.02995 -2.50903 0
M  V30 7832 H 710.64 -2.12315 0.060098 0
M  V30 7833 H 712.903 -0.947326 -0.0357325 0
M  V30 7834 H 712.609 -3.44213 -0.721804 0
M  V30 7835 H 712.483 -2.91704 -2.39141 0
M  V30 7836 H 714.87 -1.93939 -2.22422 0
M  V30 7837 H 714.951 -2.49872 -0.547496 0
M  V30 7838 H 714.595 -4.8954 -1.35327 0
M  V30 7839 H 714.525 -4.30507 -3.03268 0
M  V30 7840 H 717.016 -3.30417 -1.83393 0
M  V30 7841 H 717.329 -7.03827 -3.19135 0
M  V30 7842 H 715.674 -6.32683 -2.8764 0
M  V30 7843 H 718.865 -4.13306 -2.19763 0
M  V30 7844 H 719.038 -5.83574 -2.81683 0
M  V30 7845 N 712.444 0.87505 -1.31075 0
M  V30 7846 C 713.855 1.4433 -1.18431 0
M  V30 7847 C 714.206 1.9506 0.211189 0
M  V30 7848 O 713.331 1.85847 1.10859 0
M  V30 7849 C 713.926 2.62341 -2.14389 0
M  V30 7850 C 712.485 3.15225 -2.05694 0
M  V30 7851 C 711.632 1.87929 -2.03907 0
M  V30 7852 H 714.583 0.684061 -1.432 0
M  V30 7853 H 714.604 3.3887 -1.73053 0
M  V30 7854 H 714.116 2.25388 -3.15946 0
M  V30 7855 H 712.217 3.56812 -1.07314 0
M  V30 7856 H 712.33 3.77853 -2.94558 0
M  V30 7857 H 710.694 2.06679 -1.48849 0
M  V30 7858 H 711.477 1.53221 -3.07211 0
M  V30 7859 N 713.922 1.13953 1.08869 0
M  V30 7860 C 714.855 0.765765 2.14968 0
M  V30 7861 C 715.833 -0.250689 1.60656 0
M  V30 7862 O 717.017 -0.140852 1.87973 0
M  V30 7863 C 714.144 0.136146 3.38426 0
M  V30 7864 C 713.19 1.12201 4.11477 0
M  V30 7865 S 714.023 2.65711 4.64928 0
M  V30 7866 C 715.179 2.04125 5.91679 0
M  V30 7867 H 715.412 1.66444 2.46341 0
M  V30 7868 H 712.945 0.960263 1.20906 0
M  V30 7869 H 714.903 -0.220712 4.09906 0
M  V30 7870 H 713.564 -0.739887 3.05261 0
M  V30 7871 H 712.757 0.629398 5.00055 0
M  V30 7872 H 712.359 1.42262 3.45886 0
M  V30 7873 H 714.651 1.39381 6.63008 0
M  V30 7874 H 715.594 2.90808 6.45629 0
M  V30 7875 H 716.002 1.4905 5.44467 0
M  V30 7876 N 715.4 -1.26948 0.933913 0
M  V30 7877 C 716.647 -1.94087 0.577625 0
M  V30 7878 C 716.975 -1.73345 -0.88214 0
M  V30 7879 O 716.23 -1.05945 -1.64542 0
M  V30 7880 C 716.529 -3.46963 0.857406 0
M  V30 7881 C 716.195 -3.87834 2.2999 0
M  V30 7882 C 714.857 -3.98704 2.69423 0
M  V30 7883 C 717.209 -4.08442 3.23766 0
M  V30 7884 C 714.537 -4.27573 4.01744 0
M  V30 7885 C 716.889 -4.38798 4.55675 0
M  V30 7886 C 715.553 -4.47881 4.94934 0
M  V30 7887 H 714.823 -0.710215 0.211368 0
M  V30 7888 H 717.47 -1.50899 1.17905 0
M  V30 7889 H 715.775 -3.91416 0.173369 0
M  V30 7890 H 717.472 -3.97062 0.560615 0
M  V30 7891 H 714.062 -3.79916 1.98399 0
M  V30 7892 H 718.246 -3.99479 2.94499 0
M  V30 7893 H 713.502 -4.32815 4.31834 0
M  V30 7894 H 717.676 -4.5369 5.28335 0
M  V30 7895 H 715.303 -4.70005 5.97495 0
M  V30 7896 N 716.879 -0.700114 -1.41195 0
M  V30 7897 C 718.107 -0.242179 -2.05478 0
M  V30 7898 C 718.522 1.11029 -1.52702 0
M  V30 7899 O 717.879 1.69473 -0.677127 0
M  V30 7900 C 717.93 -0.196271 -3.60967 0
M  V30 7901 O 717.651 -1.49532 -4.11791 0
M  V30 7902 C 719.152 0.282102 -4.42401 0
M  V30 7903 H 716.372 -0.111749 -0.661629 0
M  V30 7904 H 718.916 -0.953975 -1.80885 0
M  V30 7905 H 717.071 0.46638 -3.84582 0
M  V30 7906 H 717.485 -1.38545 -5.05871 0
M  V30 7907 H 718.959 0.263093 -5.51373 0
M  V30 7908 H 719.436 1.32174 -4.1884 0
M  V30 7909 H 720.042 -0.349712 -4.2386 0
M  V30 7910 N 718.357 1.51182 -0.445186 0
M  V30 7911 C 719.587 2.06269 0.116922 0
M  V30 7912 C 719.995 1.31188 1.36332 0
M  V30 7913 O 719.338 0.367067 1.79995 0
M  V30 7914 C 719.4 3.56051 0.496757 0
M  V30 7915 C 719.064 4.52441 -0.64394 0
M  V30 7916 C 720.061 4.97233 -1.5184 0
M  V30 7917 C 717.746 4.95447 -0.826905 0
M  V30 7918 C 719.74 5.83712 -2.56046 0
M  V30 7919 C 717.427 5.81714 -1.87222 0
M  V30 7920 C 718.425 6.25745 -2.73738 0
M  V30 7921 O 718.113 7.10298 -3.76474 0
M  V30 7922 H 717.845 0.675954 0.00785733 0
M  V30 7923 H 720.399 1.95648 -0.625371 0
M  V30 7924 H 718.629 3.64483 1.29187 0
M  V30 7925 H 720.318 3.93618 0.990928 0
M  V30 7926 H 721.084 4.64696 -1.38862 0
M  V30 7927 H 716.963 4.60712 -0.163052 0
M  V30 7928 H 720.507 6.18 -3.23607 0
M  V30 7929 H 716.404 6.13664 -2.00218 0
M  V30 7930 H 717.172 7.28493 -3.73149 0
M  V30 7931 N 719.835 0.176821 1.56605 0
M  V30 7932 C 720.783 -0.768159 2.1955 0
M  V30 7933 C 721.777 -1.23343 1.16116 0
M  V30 7934 O 722.983 -1.19844 1.34303 0
M  V30 7935 H 719.358 -0.266013 0.703378 0
M  V30 7936 H 721.329 -0.213374 2.97636 0
M  V30 7937 C 720.078 -1.98492 2.85475 0
M  V30 7938 H 719.401 -1.63595 3.64797 0
M  V30 7939 H 720.841 -2.62489 3.3298 0
M  V30 7940 C 719.3 -2.81207 1.85538 0
M  V30 7941 O 719.83 -3.7854 1.34427 0
M  V30 7942 N 718.036 -2.46331 1.54173 0
M  V30 7943 H 717.583 -1.67241 1.95929 0
M  V30 7944 H 717.541 -3.01961 0.875595 0
M  V30 7945 N 721.313 -1.57302 -0.09688 0
M  V30 7946 C 722.559 -1.87144 -0.796778 0
M  V30 7947 C 722.914 -0.767428 -1.76432 0
M  V30 7948 O 722.207 0.230728 -1.90206 0
M  V30 7949 C 722.401 -3.21272 -1.56586 0
M  V30 7950 C 722.23 -4.44616 -0.674295 0
M  V30 7951 C 721 -5.04281 -0.320705 0
M  V30 7952 C 723.198 -5.14297 0.0179445 0
M  V30 7953 N 721.18 -6.11162 0.579206 0
M  V30 7954 C 722.551 -6.15125 0.775992 0
M  V30 7955 C 724.606 -4.97815 0.0920521 0
M  V30 7956 C 723.309 -7.01251 1.60122 0
M  V30 7957 C 725.335 -5.84447 0.904175 0
M  V30 7958 C 724.697 -6.84794 1.65035 0
M  V30 7959 H 720.796 -0.734721 -0.267787 0
M  V30 7960 H 723.38 -1.94609 -0.0593955 0
M  V30 7961 H 721.551 -3.14862 -2.27413 0
M  V30 7962 H 723.283 -3.38846 -2.21281 0
M  V30 7963 H 720.038 -4.68866 -0.667961 0
M  V30 7964 H 720.462 -6.69247 1.02166 0
M  V30 7965 H 725.104 -4.20174 -0.470492 0
M  V30 7966 H 722.822 -7.78284 2.17484 0
M  V30 7967 H 726.408 -5.73755 0.964165 0
M  V30 7968 H 725.288 -7.50668 2.26864 0
M  V30 7969 N 722.791 0.367657 -1.53252 0
M  V30 7970 C 724.019 1.13119 -1.73239 0
M  V30 7971 C 724.434 1.831 -0.460404 0
M  V30 7972 O 723.791 1.73483 0.566557 0
M  V30 7973 C 723.842 2.16308 -2.89643 0
M  V30 7974 O 723.563 1.49175 -4.1192 0
M  V30 7975 C 725.064 3.05224 -3.21486 0
M  V30 7976 H 722.284 0.338318 -0.579467 0
M  V30 7977 H 724.828 0.42721 -1.99988 0
M  V30 7978 H 722.983 2.82307 -2.65295 0
M  V30 7979 H 723.397 2.17912 -4.7709 0
M  V30 7980 H 724.871 3.73613 -4.06346 0
M  V30 7981 H 725.348 3.69919 -2.36763 0
M  V30 7982 H 725.954 2.44843 -3.47753 0
M  V30 7983 N 724.269 1.44576 0.627338 0
M  V30 7984 C 725.179 1.54232 1.76776 0
M  V30 7985 C 726.195 0.427782 1.6866 0
M  V30 7986 O 727.371 0.685671 1.89369 0
M  V30 7987 C 724.436 1.48738 3.13174 0
M  V30 7988 C 723.497 2.71074 3.32893 0
M  V30 7989 C 722.73 2.65832 4.62784 0
M  V30 7990 O 722.953 1.72048 5.43834 0
M  V30 7991 O 721.887 3.56742 4.84787 0
M  V30 7992 H 725.713 2.50586 1.71582 0
M  V30 7993 H 723.298 1.26865 0.789028 0
M  V30 7994 H 725.18 1.48211 3.94476 0
M  V30 7995 H 723.855 0.555292 3.18902 0
M  V30 7996 H 722.762 2.77168 2.51254 0
M  V30 7997 H 724.095 3.63342 3.32029 0
M  V30 7998 N 725.747 -0.868086 1.31537 0
M  V30 7999 C 726.657 -2.00801 1.21311 0
M  V30 8000 C 727.673 -1.73518 0.129431 0
M  V30 8001 O 728.849 -1.98378 0.347588 0
M  V30 8002 C 725.914 -3.3419 0.922935 0
M  V30 8003 C 724.975 -3.74783 2.0937 0
M  V30 8004 C 724.208 -5.01807 1.81728 0
M  V30 8005 O 724.431 -5.65404 0.753313 0
M  V30 8006 O 723.365 -5.39213 2.67457 0
M  V30 8007 H 727.191 -2.12361 2.17109 0
M  V30 8008 H 724.776 -0.996684 1.11295 0
M  V30 8009 H 726.658 -4.14174 0.777033 0
M  V30 8010 H 725.333 -3.237 -0.00500301 0
M  V30 8011 H 724.24 -2.95432 2.29501 0
M  V30 8012 H 725.573 -3.89902 3.00396 0
M  V30 8013 N 727.225 -1.14528 -1.08264 0
M  V30 8014 C 728.453 -0.937964 -1.84418 0
M  V30 8015 C 728.868 0.51357 -1.81681 0
M  V30 8016 O 728.225 1.35591 -1.22153 0
M  V30 8017 C 728.276 -1.43272 -3.31897 0
M  V30 8018 O 727.997 -2.82738 -3.34651 0
M  V30 8019 C 729.498 -1.26555 -4.24851 0
M  V30 8020 H 726.718 -0.333704 -0.582136 0
M  V30 8021 H 729.262 -1.52076 -1.36723 0
M  V30 8022 H 727.417 -0.892653 -3.76975 0
M  V30 8023 H 727.831 -3.04971 -4.26724 0
M  V30 8024 H 729.305 -1.66031 -5.26439 0
M  V30 8025 H 729.782 -0.208589 -4.38704 0
M  V30 8026 H 730.388 -1.79423 -3.856 0
M  V30 8027 N 728.703 1.26451 -0.940633 0
M  V30 8028 C 729.633 2.28773 -0.467479 0
M  V30 8029 C 730.614 1.63218 0.478955 0
M  V30 8030 O 731.799 1.90427 0.380929 0
M  V30 8031 C 728.929 3.46259 0.268656 0
M  V30 8032 C 727.883 4.23898 -0.591171 0
M  V30 8033 C 727.209 5.33993 0.274891 0
M  V30 8034 C 728.509 4.87974 -1.86223 0
M  V30 8035 H 730.203 2.68601 -1.32265 0
M  V30 8036 H 727.749 1.29123 -0.637436 0
M  V30 8037 H 729.702 4.16951 0.610696 0
M  V30 8038 H 728.426 3.05383 1.15796 0
M  V30 8039 H 727.085 3.54969 -0.916098 0
M  V30 8040 H 726.733 4.89358 1.16353 0
M  V30 8041 H 726.433 5.86849 -0.297006 0
M  V30 8042 H 727.957 6.07523 0.612213 0
M  V30 8043 H 729.371 5.50883 -1.58747 0
M  V30 8044 H 727.768 5.50945 -2.37866 0
M  V30 8045 H 728.838 4.10945 -2.57394 0
M  V30 8046 N 730.181 0.707592 1.40822 0
M  V30 8047 C 731.597 0.38034 1.55002 0
M  V30 8048 C 731.797 -1.11163 1.68062 0
M  V30 8049 O 730.853 -1.89761 1.66574 0
M  V30 8050 C 732.166 1.1394 2.78277 0
M  V30 8051 C 733.714 1.12492 2.92087 0
M  V30 8052 C 734.189 1.86597 4.18265 0
M  V30 8053 N 735.68 1.83626 4.25248 0
M  V30 8054 C 736.415 2.37794 5.21768 0
M  V30 8055 N 735.911 3.00485 6.24244 0
M  V30 8056 N 737.704 2.27982 5.13791 0
M  V30 8057 H 729.855 1.67511 1.3059 0
M  V30 8058 H 732.118 0.707579 0.630901 0
M  V30 8059 H 731.824 2.19398 2.74877 0
M  V30 8060 H 731.698 0.725793 3.70151 0
M  V30 8061 H 734.085 0.0785564 2.94995 0
M  V30 8062 H 734.166 1.57768 2.01353 0
M  V30 8063 H 733.81 2.91219 4.16118 0
M  V30 8064 H 733.74 1.38746 5.07993 0
M  V30 8065 H 736.231 1.3793 3.51829 0
M  V30 8066 H 736.544 3.39355 6.94304 0
M  V30 8067 H 734.889 3.04567 6.24711 0
M  V30 8068 H 738.08 1.78669 4.3266 0
M  V30 8069 H 738.253 2.70499 5.88841 0
M  V30 8070 N 731.66 -1.50943 0.453197 0
M  V30 8071 C 732.908 -2.01813 -0.107709 0
M  V30 8072 C 733.229 -1.33841 -1.41816 0
M  V30 8073 O 732.499 -0.477973 -1.8998 0
M  V30 8074 H 731.079 -0.745773 -0.0427948 0
M  V30 8075 H 733.741 -1.8545 0.599531 0
M  V30 8076 H 732.837 -3.10911 -0.27218 0
M  V30 8077 N 733.138 -0.185124 -1.56509 0
M  V30 8078 C 734.086 0.756505 -2.19954 0
M  V30 8079 C 735.08 1.22725 -1.16769 0
M  V30 8080 O 736.286 1.1913 -1.34937 0
M  V30 8081 H 732.661 0.262279 -0.704779 0
M  V30 8082 H 734.632 0.197587 -2.97745 0
M  V30 8083 C 733.381 1.96975 -2.86524 0
M  V30 8084 H 732.704 1.61658 -3.65659 0
M  V30 8085 H 734.144 2.60719 -3.34367 0
M  V30 8086 C 732.603 2.80219 -1.87027 0
M  V30 8087 O 733.133 3.77821 -1.36433 0
M  V30 8088 N 731.339 2.4551 -1.55477 0
M  V30 8089 H 730.886 1.66199 -1.96813 0
M  V30 8090 H 730.844 3.01493 -0.891597 0
M  V30 8091 N 734.616 1.57351 0.0885366 0
M  V30 8092 C 736.027 1.75303 0.642308 0
M  V30 8093 C 736.378 0.808238 1.78779 0
M  V30 8094 O 735.503 -0.01171 2.16397 0
M  V30 8095 C 736.098 3.17885 1.17194 0
M  V30 8096 C 734.657 3.37239 1.67172 0
M  V30 8097 C 733.804 2.7108 0.584045 0
M  V30 8098 H 736.755 1.58103 -0.137567 0
M  V30 8099 H 736.776 3.2112 2.04114 0
M  V30 8100 H 736.288 3.86625 0.338024 0
M  V30 8101 H 734.389 2.73588 2.52943 0
M  V30 8102 H 734.502 4.45594 1.76019 0
M  V30 8103 H 732.866 2.33161 1.02508 0
M  V30 8104 H 733.649 3.42464 -0.239403 0
M  V30 8105 N 736.094 -0.359525 1.53444 0
M  V30 8106 C 737.34 -1.10315 1.70172 0
M  V30 8107 C 737.673 -1.88788 0.455287 0
M  V30 8108 O 736.948 -1.86635 -0.547514 0
M  V30 8109 C 737.231 -2.05744 2.95536 0
M  V30 8110 C 737.084 -1.3084 4.3035 0
M  V30 8111 C 738.403 -3.05784 3.16518 0
M  V30 8112 H 735.522 -0.399662 0.619225 0
M  V30 8113 H 738.164 -0.383338 1.86093 0
M  V30 8114 H 736.314 -2.67125 2.82093 0
M  V30 8115 H 737.986 -0.721959 4.55615 0
M  V30 8116 H 736.229 -0.610283 4.29486 0
M  V30 8117 H 736.9 -2.00718 5.14214 0
M  V30 8118 H 739.376 -2.5451 3.29187 0
M  V30 8119 H 738.252 -3.69772 4.05659 0
M  V30 8120 H 738.513 -3.76289 2.32076 0
M  V30 8121 N 737.572 -1.44907 -0.619662 0
M  V30 8122 C 738.502 -1.55488 -1.742 0
M  V30 8123 C 739.483 -0.407143 -1.65156 0
M  V30 8124 O 740.668 -0.628743 -1.8374 0
M  V30 8125 C 737.798 -1.5097 -3.1277 0
M  V30 8126 C 736.752 -2.64337 -3.36615 0
M  V30 8127 C 736.078 -2.44872 -4.75333 0
M  V30 8128 C 737.378 -4.06423 -3.28051 0
M  V30 8129 H 739.072 -2.49432 -1.65602 0
M  V30 8130 H 736.618 -1.20047 -0.795281 0
M  V30 8131 H 738.571 -1.56971 -3.91073 0
M  V30 8132 H 737.295 -0.535486 -3.2218 0
M  V30 8133 H 735.954 -2.57744 -2.60698 0
M  V30 8134 H 735.602 -1.45617 -4.81461 0
M  V30 8135 H 735.302 -3.20888 -4.92244 0
M  V30 8136 H 736.826 -2.52709 -5.55851 0
M  V30 8137 H 738.24 -4.14324 -3.96243 0
M  V30 8138 H 736.637 -4.82733 -3.56495 0
M  V30 8139 H 737.707 -4.29183 -2.25676 0
M  V30 8140 N 739.05 0.861098 -1.31996 0
M  V30 8141 C 739.982 1.97551 -1.16216 0
M  V30 8142 C 740.995 1.625 -0.0988527 0
M  V30 8143 O 742.184 1.75091 -0.3472 0
M  V30 8144 C 739.284 3.30376 -0.755307 0
M  V30 8145 C 738.457 3.93711 -1.90552 0
M  V30 8146 C 737.516 5.04862 -1.48328 0
M  V30 8147 O 736.542 5.25204 -2.19431 0
M  V30 8148 N 737.744 5.79283 -0.375656 0
M  V30 8149 H 740.509 2.11632 -2.12208 0
M  V30 8150 H 738.07 1.03559 -1.24448 0
M  V30 8151 H 740.062 4.0213 -0.455364 0
M  V30 8152 H 738.632 3.12395 0.113269 0
M  V30 8153 H 737.852 3.14825 -2.37231 0
M  V30 8154 H 739.14 4.32762 -2.67571 0
M  V30 8155 H 738.538 5.65286 0.216284 0
M  V30 8156 H 737.095 6.5166 -0.135289 0
M  V30 8157 N 740.528 1.15101 1.07655 0
M  V30 8158 C 741.458 0.867864 2.16773 0
M  V30 8159 C 742.439 -0.180283 1.69142 0
M  V30 8160 O 743.624 -0.0353152 1.94168 0
M  V30 8161 C 740.754 0.35299 3.45501 0
M  V30 8162 C 739.708 1.33746 4.06566 0
M  V30 8163 C 739.034 0.681562 5.30338 0
M  V30 8164 C 740.334 2.7024 4.46954 0
M  V30 8165 H 742.028 1.78034 2.40716 0
M  V30 8166 H 739.574 0.857435 1.15689 0
M  V30 8167 H 741.527 0.142465 4.21159 0
M  V30 8168 H 740.251 -0.594945 3.21135 0
M  V30 8169 H 738.91 1.53429 3.32949 0
M  V30 8170 H 738.558 -0.272422 5.02262 0
M  V30 8171 H 738.258 1.33853 5.72151 0
M  V30 8172 H 739.782 0.48074 6.08705 0
M  V30 8173 H 741.196 2.5442 5.13754 0
M  V30 8174 H 739.593 3.32282 4.99709 0
M  V30 8175 H 740.663 3.26537 3.58471 0
M  V30 8176 N 742.006 -1.2595 0.947325 0
M  V30 8177 C 742.954 -2.28152 0.452687 0
M  V30 8178 C 743.948 -1.62655 -0.473239 0
M  V30 8179 O 745.154 -1.76549 -0.350774 0
M  V30 8180 H 741.529 -0.741049 0.12787 0
M  V30 8181 H 743.5 -2.67267 1.32707 0
M  V30 8182 C 742.249 -3.46719 -0.26098 0
M  V30 8183 H 741.572 -3.97345 0.442352 0
M  V30 8184 H 743.012 -4.20135 -0.571208 0
M  V30 8185 C 741.471 -3.02605 -1.48094 0
M  V30 8186 O 742.001 -3.07979 -2.57899 0
M  V30 8187 N 740.207 -2.57877 -1.33969 0
M  V30 8188 H 739.754 -2.53704 -0.446295 0
M  V30 8189 H 739.712 -2.28725 -2.15713 0
M  V30 8190 N 743.484 -0.715051 -1.40445 0
M  V30 8191 C 744.895 -0.326763 -1.83818 0
M  V30 8192 C 745.246 1.13851 -1.59789 0
M  V30 8193 O 744.371 1.87611 -1.07848 0
M  V30 8194 C 744.966 -0.586297 -3.33688 0
M  V30 8195 C 743.525 -0.251724 -3.75557 0
M  V30 8196 C 742.672 -0.858928 -2.63662 0
M  V30 8197 H 745.623 -0.914241 -1.2972 0
M  V30 8198 H 745.644 0.148636 -3.8021 0
M  V30 8199 H 745.156 -1.65281 -3.51146 0
M  V30 8200 H 743.257 0.809754 -3.63695 0
M  V30 8201 H 743.37 -0.720348 -4.73654 0
M  V30 8202 H 741.734 -0.287013 -2.53078 0
M  V30 8203 H 742.517 -1.9297 -2.83932 0
M  V30 8204 N 744.962 1.50701 -0.461195 0
M  V30 8205 C 745.925 2.2686 0.326679 0
M  V30 8206 C 746.925 1.31243 0.929085 0
M  V30 8207 O 748.115 1.54754 0.799807 0
M  V30 8208 C 745.247 3.07844 1.46441 0
M  V30 8209 H 746.44 2.97954 -0.341095 0
M  V30 8210 H 743.993 1.54814 -0.214984 0
M  V30 8211 H 744.728 2.41223 2.16753 0
M  V30 8212 H 744.513 3.78101 1.03836 0
M  V30 8213 H 746.003 3.65469 2.02044 0
M  V30 8214 N 746.441 0.193421 1.56409 0
M  V30 8215 C 747.371 -0.723334 2.22014 0
M  V30 8216 C 748.352 -1.22254 1.1827 0
M  V30 8217 O 749.537 -1.27168 1.46771 0
M  V30 8218 C 746.667 -1.94366 2.87818 0
M  V30 8219 C 745.621 -1.57943 3.97791 0
M  V30 8220 C 744.947 -2.87623 4.50752 0
M  V30 8221 C 746.247 -0.790639 5.16281 0
M  V30 8222 H 747.941 -0.176426 2.9888 0
M  V30 8223 H 745.487 -0.0834166 1.43758 0
M  V30 8224 H 747.44 -2.5902 3.32396 0
M  V30 8225 H 746.164 -2.51507 2.08355 0
M  V30 8226 H 744.823 -0.956482 3.53903 0
M  V30 8227 H 744.471 -3.4285 3.68053 0
M  V30 8228 H 744.171 -2.63998 5.24956 0
M  V30 8229 H 745.695 -3.53268 4.9803 0
M  V30 8230 H 747.109 -1.34024 5.57414 0
M  V30 8231 H 745.506 -0.65258 5.96541 0
M  V30 8232 H 746.576 0.208633 4.84451 0
M  V30 8233 N 747.919 -1.57396 -0.0801906 0
M  V30 8234 C 749.33 -1.75642 -0.633002 0
M  V30 8235 C 749.681 -0.817708 -1.78348 0
M  V30 8236 O 748.806 0.000233743 -2.164 0
M  V30 8237 C 749.401 -3.18502 -1.15507 0
M  V30 8238 C 747.96 -3.38121 -1.65381 0
M  V30 8239 C 747.107 -2.71386 -0.569661 0
M  V30 8240 H 750.058 -1.58027 0.145949 0
M  V30 8241 H 750.079 -3.22198 -2.02408 0
M  V30 8242 H 749.591 -3.86799 -0.317515 0
M  V30 8243 H 747.692 -2.74926 -2.51488 0
M  V30 8244 H 747.805 -4.46521 -1.73654 0
M  V30 8245 H 746.169 -2.33702 -1.0127 0
M  V30 8246 H 746.952 -3.42332 0.257561 0
M  V30 8247 N 749.397 0.351382 -1.53633 0
M  V30 8248 C 750.645 1.09034 -1.70165 0
M  V30 8249 C 750.966 1.89413 -0.463422 0
M  V30 8250 O 750.236 1.888 0.522624 0
M  V30 8251 H 748.816 0.405522 -0.627344 0
M  V30 8252 H 751.478 0.394554 -1.90865 0
M  V30 8253 H 750.574 1.77215 -2.56907 0
M  V30 8254 N 750.875 1.45233 0.611969 0
M  V30 8255 C 752.121 1.49242 1.37312 0
M  V30 8256 C 752.454 0.131963 1.93751 0
M  V30 8257 O 751.729 -0.852999 1.74798 0
M  V30 8258 C 752.012 2.56811 2.52428 0
M  V30 8259 C 751.865 4.02284 2.01215 0
M  V30 8260 C 753.184 2.60705 3.54572 0
M  V30 8261 H 750.303 0.54336 0.497925 0
M  V30 8262 H 752.945 1.77019 0.690242 0
M  V30 8263 H 751.095 2.33256 3.10683 0
M  V30 8264 H 752.767 4.37035 1.47643 0
M  V30 8265 H 751.01 4.1315 1.32248 0
M  V30 8266 H 751.681 4.7323 2.84178 0
M  V30 8267 H 754.157 2.81799 3.06151 0
M  V30 8268 H 753.033 3.37841 4.32614 0
M  V30 8269 H 753.294 1.65627 4.09903 0
M  V30 8270 N 752.353 -0.854086 1.3245 0
M  V30 8271 C 753.6 -1.60831 1.23043 0
M  V30 8272 C 753.928 -1.93389 -0.2076 0
M  V30 8273 O 753.183 -1.5756 -1.16075 0
M  V30 8274 C 753.482 -2.93746 2.03587 0
M  V30 8275 C 753.148 -2.80615 3.52939 0
M  V30 8276 C 751.81 -2.76742 3.93659 0
M  V30 8277 C 754.162 -2.66507 4.4791 0
M  V30 8278 C 751.49 -2.56638 5.27592 0
M  V30 8279 C 753.842 -2.47939 5.81987 0
M  V30 8280 C 752.506 -2.42458 6.21909 0
M  V30 8281 H 751.776 -0.588523 0.450247 0
M  V30 8282 H 754.423 -0.990699 1.63882 0
M  V30 8283 H 752.728 -3.5963 1.55478 0
M  V30 8284 H 754.425 -3.51127 1.93677 0
M  V30 8285 H 751.015 -2.84456 3.20598 0
M  V30 8286 H 755.199 -2.68544 4.1737 0
M  V30 8287 H 750.455 -2.50831 5.57579 0
M  V30 8288 H 754.629 -2.36002 6.55192 0
M  V30 8289 H 752.256 -2.2664 7.2563 0
M  V30 8290 N 753.831 -1.1567 -1.07043 0
M  V30 8291 C 755.079 -0.931673 -1.79344 0
M  V30 8292 C 755.4 0.542421 -1.87304 0
M  V30 8293 O 754.67 1.39418 -1.37621 0
M  V30 8294 H 753.25 -0.34171 -0.664262 0
M  V30 8295 H 755.912 -1.45795 -1.29344 0
M  V30 8296 H 755.008 -1.34379 -2.81689 0
M  V30 8297 N 755.309 1.25446 -0.953992 0
M  V30 8298 C 756.557 1.92762 -0.607227 0
M  V30 8299 C 756.878 1.7509 0.858399 0
M  V30 8300 O 756.148 1.11416 1.61132 0
M  V30 8301 H 754.728 0.713377 -0.221591 0
M  V30 8302 H 757.39 1.52625 -1.21209 0
M  V30 8303 H 756.486 3.00695 -0.835998 0
M  V30 8304 N 756.787 0.722489 1.40064 0
M  V30 8305 C 758.198 0.336507 1.83642 0
M  V30 8306 C 758.549 -1.13002 1.6039 0
M  V30 8307 O 757.674 -1.87036 1.08842 0
M  V30 8308 C 758.269 0.603985 3.33373 0
M  V30 8309 C 756.828 0.271637 3.75419 0
M  V30 8310 C 755.975 0.872898 2.63203 0
M  V30 8311 H 758.926 0.921108 1.29233 0
M  V30 8312 H 758.947 -0.128471 3.80283 0
M  V30 8313 H 758.459 1.67141 3.50265 0
M  V30 8314 H 756.56 -0.790455 3.64119 0
M  V30 8315 H 756.673 0.745457 4.73265 0
M  V30 8316 H 755.037 0.300431 2.52922 0
M  V30 8317 H 755.82 1.94473 2.82905 0
M  V30 8318 N 758.265 -1.50454 0.469181 0
M  V30 8319 C 759.495 -2.06429 -0.0840913 0
M  V30 8320 C 759.903 -1.3334 -1.34227 0
M  V30 8321 O 759.246 -0.395656 -1.79389 0
M  V30 8322 C 759.308 -3.56797 -0.440049 0
M  V30 8323 C 758.972 -4.51359 0.715838 0
M  V30 8324 C 759.969 -4.94754 1.59732 0
M  V30 8325 C 757.654 -4.94069 0.905621 0
M  V30 8326 C 759.648 -5.79564 2.653 0
M  V30 8327 C 757.335 -5.78662 1.96453 0
M  V30 8328 C 758.333 -6.21311 2.83658 0
M  V30 8329 O 758.021 -7.04218 3.87727 0
M  V30 8330 H 757.753 -0.675994 0.00289751 0
M  V30 8331 H 760.307 -1.94629 0.656417 0
M  V30 8332 H 758.537 -3.66492 -1.23372 0
M  V30 8333 H 760.226 -3.95145 -0.928181 0
M  V30 8334 H 760.992 -4.62428 1.46237 0
M  V30 8335 H 756.871 -4.60394 0.236326 0
M  V30 8336 H 760.415 -6.12774 3.33398 0
M  V30 8337 H 756.312 -6.10401 2.09955 0
M  V30 8338 H 757.08 -7.22464 3.84692 0
M  V30 8339 N 759.743 -0.201713 -1.56304 0
M  V30 8340 C 761.154 0.309711 -1.84113 0
M  V30 8341 C 761.505 1.60912 -1.12258 0
M  V30 8342 O 760.63 2.12937 -0.385587 0
M  V30 8343 C 761.225 0.568706 -3.33993 0
M  V30 8344 C 759.784 1.02448 -3.6219 0
M  V30 8345 C 758.931 0.0766842 -2.77194 0
M  V30 8346 H 761.882 -0.425356 -1.52893 0
M  V30 8347 H 761.903 1.41721 -3.53122 0
M  V30 8348 H 761.415 -0.37719 -3.86263 0
M  V30 8349 H 759.516 1.98443 -3.15359 0
M  V30 8350 H 759.629 0.912619 -4.70328 0
M  V30 8351 H 757.993 0.579809 -2.48013 0
M  V30 8352 H 758.776 -0.863774 -3.32256 0
M  V30 8353 N 761.222 1.57436 0.0718424 0
M  V30 8354 C 762.469 1.87248 0.771007 0
M  V30 8355 C 762.797 0.793441 1.7758 0
M  V30 8356 O 762.052 -0.210565 1.94564 0
M  V30 8357 C 762.351 3.23723 1.51455 0
M  V30 8358 C 762.017 4.46194 0.649736 0
M  V30 8359 C 760.679 4.79438 0.411409 0
M  V30 8360 C 763.031 5.21176 0.05004 0
M  V30 8361 C 760.359 5.85077 -0.436096 0
M  V30 8362 C 762.711 6.27712 -0.784919 0
M  V30 8363 C 761.375 6.59457 -1.03312 0
M  V30 8364 H 760.645 0.685188 0.282132 0
M  V30 8365 H 763.292 1.91474 0.0317896 0
M  V30 8366 H 761.597 3.15287 2.32597 0
M  V30 8367 H 763.294 3.44023 2.06031 0
M  V30 8368 H 759.884 4.20175 0.84562 0
M  V30 8369 H 764.068 4.95806 0.221282 0
M  V30 8370 H 759.324 6.08071 -0.637136 0
M  V30 8371 H 763.498 6.84974 -1.25635 0
M  V30 8372 H 761.125 7.4114 -1.6916 0
M  V30 8373 N 762.7 -0.34323 1.53817 0
M  V30 8374 C 763.948 -1.0813 1.70741 0
M  V30 8375 C 764.269 -1.89165 0.473461 0
M  V30 8376 O 763.539 -1.89075 -0.512605 0
M  V30 8377 H 762.119 -0.40219 0.629486 0
M  V30 8378 H 764.781 -0.384426 1.91071 0
M  V30 8379 H 763.877 -1.7585 2.57843 0
M  V30 8380 N 764.178 -1.45556 -0.604258 0
M  V30 8381 C 765.427 -1.49019 -1.35928 0
M  V30 8382 C 765.74 -0.137409 -1.95117 0
M  V30 8383 O 766.946 -0.0497032 -2.71455 0
M  V30 8384 C 765.402 -2.62477 -2.46239 0
M  V30 8385 C 765.01 -4.04082 -1.93447 0
M  V30 8386 C 766.754 -2.7519 -3.23219 0
M  V30 8387 C 764.661 -5.08917 -3.0126 0
M  V30 8388 H 763.591 -0.554518 -0.510907 0
M  V30 8389 H 766.242 -1.71705 -0.647262 0
M  V30 8390 H 764.624 -2.3308 -3.2014 0
M  V30 8391 H 765.798 -4.43173 -1.26232 0
M  V30 8392 H 764.113 -3.95849 -1.29201 0
M  V30 8393 H 766.71 -3.50683 -4.0364 0
M  V30 8394 H 767.053 -1.81941 -3.74437 0
M  V30 8395 H 767.586 -3.04129 -2.56418 0
M  V30 8396 H 764.325 -6.03886 -2.54955 0
M  V30 8397 H 763.845 -4.74393 -3.67031 0
M  V30 8398 H 765.524 -5.33814 -3.65584 0
M  V30 8399 N 765.656 0.84705 -1.32902 0
M  V30 8400 C 766.933 1.58583 -1.14503 0
M  V30 8401 C 767.313 2.09075 0.291724 0
M  V30 8402 O 766.661 1.88636 1.28952 0
M  V30 8403 C 766.871 2.72605 -2.17916 0
M  V30 8404 C 768.219 3.41993 -2.51646 0
M  V30 8405 O 769.243 2.82838 -2.1652 0
M  V30 8406 O 768.102 4.48761 -3.1189 0
M  V30 8407 H 765.196 0.698756 -0.442345 0
M  V30 8408 H 767.742 0.890516 -1.44457 0
M  V30 8409 H 766.514 2.32876 -3.14459 0
M  V30 8410 H 766.137 3.49807 -1.89 0
M  V30 8411 N 767.134 1.16236 1.06428 0
M  V30 8412 C 768.545 0.950942 1.60667 0
M  V30 8413 C 768.896 -0.505491 1.89576 0
M  V30 8414 O 768.021 -1.37843 1.66818 0
M  V30 8415 C 768.616 1.71982 2.91904 0
M  V30 8416 C 767.175 1.55342 3.4285 0
M  V30 8417 C 766.322 1.72942 2.16763 0
M  V30 8418 H 769.273 1.31126 0.893959 0
M  V30 8419 H 769.294 1.19483 3.61253 0
M  V30 8420 H 768.806 2.77978 2.70831 0
M  V30 8421 H 766.907 0.5178 3.68985 0
M  V30 8422 H 767.02 2.33643 4.18267 0
M  V30 8423 H 765.384 1.15673 2.26918 0
M  V30 8424 H 766.167 2.80324 1.98175 0
M  V30 8425 N 768.612 -1.24939 0.960631 0
M  V30 8426 C 769.861 -1.92118 0.614298 0
M  V30 8427 C 770.174 -1.75998 -0.853474 0
M  V30 8428 O 771.38 -2.37804 -1.31003 0
M  V30 8429 C 769.836 -3.44303 1.04801 0
M  V30 8430 C 769.444 -3.69123 2.53875 0
M  V30 8431 C 771.188 -4.17375 0.774497 0
M  V30 8432 C 769.095 -5.14843 2.91016 0
M  V30 8433 H 768.025 -0.719319 0.226045 0
M  V30 8434 H 770.676 -1.41701 1.16589 0
M  V30 8435 H 769.058 -3.93715 0.42479 0
M  V30 8436 H 770.232 -3.30339 3.21267 0
M  V30 8437 H 768.547 -3.09323 2.78762 0
M  V30 8438 H 771.144 -5.24723 1.02808 0
M  V30 8439 H 771.487 -4.15294 -0.289192 0
M  V30 8440 H 772.02 -3.7389 1.35835 0
M  V30 8441 H 768.759 -5.2204 3.96427 0
M  V30 8442 H 768.279 -5.54652 2.28302 0
M  V30 8443 H 769.958 -5.83017 2.80535 0
M  V30 8444 N 770.09 -0.729906 -1.39679 0
M  V30 8445 C 771.336 -0.284905 -2.01395 0
M  V30 8446 C 771.691 1.11394 -1.56873 0
M  V30 8447 O 770.984 1.74765 -0.785342 0
M  V30 8448 C 771.178 -0.319564 -3.55968 0
M  V30 8449 C 771.007 -1.72024 -4.15497 0
M  V30 8450 C 769.777 -2.33128 -4.48307 0
M  V30 8451 C 771.975 -2.67296 -4.39383 0
M  V30 8452 N 769.957 -3.65403 -4.93309 0
M  V30 8453 C 771.328 -3.84298 -4.86534 0
M  V30 8454 C 773.383 -2.65124 -4.21442 0
M  V30 8455 C 772.086 -4.99455 -5.17627 0
M  V30 8456 C 774.112 -3.7942 -4.53646 0
M  V30 8457 C 773.474 -4.95156 -5.00999 0
M  V30 8458 H 769.573 -0.1504 -0.767401 0
M  V30 8459 H 772.157 -0.954783 -1.69682 0
M  V30 8460 H 770.328 0.319938 -3.8708 0
M  V30 8461 H 772.06 0.143504 -4.04445 0
M  V30 8462 H 768.815 -1.85097 -4.35931 0
M  V30 8463 H 769.239 -4.33298 -5.20175 0
M  V30 8464 H 773.881 -1.76842 -3.8404 0
M  V30 8465 H 771.599 -5.88371 -5.53937 0
M  V30 8466 H 775.185 -3.79031 -4.41392 0
M  V30 8467 H 774.065 -5.82131 -5.25446 0
M  V30 8468 N 771.568 1.50203 -0.477153 0
M  V30 8469 C 772.516 2.30278 0.327826 0
M  V30 8470 C 773.51 1.37831 0.984839 0
M  V30 8471 O 774.716 1.54994 0.915251 0
M  V30 8472 H 771.091 0.741612 0.124564 0
M  V30 8473 H 773.062 2.96124 -0.367853 0
M  V30 8474 C 771.811 3.18548 1.39365 0
M  V30 8475 H 771.134 3.89596 0.897475 0
M  V30 8476 H 772.574 3.77561 1.92934 0
M  V30 8477 C 771.033 2.36548 2.39889 0
M  V30 8478 O 771.563 2.05282 3.45286 0
M  V30 8479 N 769.769 1.99015 2.11758 0
M  V30 8480 H 769.316 2.24641 1.26071 0
M  V30 8481 H 769.274 1.44454 2.7925 0
M  V30 8482 N 773.046 0.209999 1.56195 0
M  V30 8483 C 774.295 -0.425106 1.97169 0
M  V30 8484 C 774.608 -1.61718 1.10031 0
M  V30 8485 O 775.814 -2.32105 1.40853 0
M  V30 8486 C 774.27 -0.80771 3.50719 0
M  V30 8487 C 773.878 0.360902 4.46544 0
M  V30 8488 C 775.622 -1.40906 4.00432 0
M  V30 8489 C 773.529 -0.0434919 5.91384 0
M  V30 8490 H 772.459 -0.162598 0.736259 0
M  V30 8491 H 775.11 0.304382 1.80958 0
M  V30 8492 H 773.492 -1.59429 3.62489 0
M  V30 8493 H 774.666 1.13846 4.46515 0
M  V30 8494 H 772.981 0.874729 4.07109 0
M  V30 8495 H 775.578 -1.72433 5.06133 0
M  V30 8496 H 775.921 -2.32081 3.45607 0
M  V30 8497 H 776.454 -0.686154 3.91838 0
M  V30 8498 H 773.193 0.834448 6.50167 0
M  V30 8499 H 772.713 -0.785598 5.94633 0
M  V30 8500 H 774.392 -0.474176 6.4526 0
M  V30 8501 N 774.524 -1.57472 -0.0634922 0
M  V30 8502 C 775.487 -2.03268 -1.059 0
M  V30 8503 C 776.487 -0.931028 -1.31105 0
M  V30 8504 O 777.677 -1.19567 -1.26686 0
M  V30 8505 C 774.809 -2.42039 -2.40062 0
M  V30 8506 H 776.002 -2.92454 -0.664119 0
M  V30 8507 H 773.555 -1.53206 -0.309444 0
M  V30 8508 H 774.29 -1.55904 -2.84367 0
M  V30 8509 H 774.075 -3.22437 -2.23108 0
M  V30 8510 H 775.565 -2.78017 -3.11603 0
M  V30 8511 N 776.003 0.335068 -1.53997 0
M  V30 8512 C 777.231 1.09418 -1.756 0
M  V30 8513 C 777.646 1.82083 -0.499138 0
M  V30 8514 O 777.003 1.74646 0.529631 0
M  V30 8515 C 777.054 2.10115 -2.94166 0
M  V30 8516 O 776.775 1.40404 -4.14992 0
M  V30 8517 C 778.276 2.98336 -3.27888 0
M  V30 8518 H 775.496 0.32595 -0.586513 0
M  V30 8519 H 778.04 0.384693 -2.00849 0
M  V30 8520 H 776.195 2.76616 -2.71224 0
M  V30 8521 H 776.609 2.07743 -4.81605 0
M  V30 8522 H 778.083 3.6491 -4.1418 0
M  V30 8523 H 778.56 3.64814 -2.44556 0
M  V30 8524 H 779.166 2.37412 -3.52868 0
M  V30 8525 N 777.481 1.45874 0.596531 0
M  V30 8526 C 778.429 1.55739 1.72766 0
M  V30 8527 C 779.423 0.426666 1.63939 0
M  V30 8528 O 780.629 0.60301 1.69599 0
M  V30 8529 H 777.004 0.489386 0.570968 0
M  V30 8530 H 778.975 2.50871 1.61575 0
M  V30 8531 C 777.724 1.55174 3.11153 0
M  V30 8532 H 777.047 2.41511 3.1861 0
M  V30 8533 H 778.487 1.66133 3.90097 0
M  V30 8534 C 776.946 0.278001 3.35751 0
M  V30 8535 O 777.476 -0.637557 3.96608 0
M  V30 8536 N 775.682 0.170227 2.90101 0
M  V30 8537 H 775.229 0.916159 2.40758 0
M  V30 8538 H 775.187 -0.68117 3.06932 0
M  V30 8539 N 778.959 -0.83999 1.33349 0
M  V30 8540 C 779.906 -1.94972 1.23509 0
M  V30 8541 C 780.876 -1.65709 0.113967 0
M  V30 8542 O 782.061 -1.88552 0.292045 0
M  V30 8543 C 779.201 -3.30919 0.979105 0
M  V30 8544 C 778.314 -3.72587 2.18639 0
M  V30 8545 C 777.449 -4.97397 1.86465 0
M  V30 8546 C 776.488 -5.31597 3.03432 0
M  V30 8547 N 775.625 -6.47584 2.71254 0
M  V30 8548 H 780.465 -2.0272 2.18423 0
M  V30 8549 H 778.002 -0.992017 1.08616 0
M  V30 8550 H 779.96 -4.09239 0.811126 0
M  V30 8551 H 778.59 -3.22731 0.0667099 0
M  V30 8552 H 777.642 -2.89799 2.46416 0
M  V30 8553 H 778.954 -3.93844 3.06086 0
M  V30 8554 H 778.108 -5.83462 1.66305 0
M  V30 8555 H 776.847 -4.78107 0.96254 0
M  V30 8556 H 775.852 -4.44037 3.24208 0
M  V30 8557 H 777.077 -5.52836 3.94397 0
M  V30 8558 H 775.023 -6.29783 1.836 0
M  V30 8559 H 774.94 -6.68931 3.52231 0
M  V30 8560 H 776.208 -7.36764 2.54558 0
M  V30 8561 N 780.437 -1.16799 -1.0581 0
M  V30 8562 C 781.367 -0.902241 -2.15364 0
M  V30 8563 C 782.348 0.153351 -1.69407 0
M  V30 8564 O 783.533 0.00442032 -1.94199 0
M  V30 8565 C 780.663 -0.407911 -3.44896 0
M  V30 8566 C 779.617 -1.40197 -4.04387 0
M  V30 8567 C 778.943 -0.765848 -5.29187 0
M  V30 8568 C 780.243 -2.77316 -4.42598 0
M  V30 8569 H 781.937 -1.81841 -2.37853 0
M  V30 8570 H 779.483 -0.875731 -1.14311 0
M  V30 8571 H 781.436 -0.20945 -4.20879 0
M  V30 8572 H 780.16 0.54378 -3.22041 0
M  V30 8573 H 778.819 -1.58707 -3.30466 0
M  V30 8574 H 778.467 0.192482 -5.02632 0
M  V30 8575 H 778.167 -1.42939 -5.69949 0
M  V30 8576 H 779.691 -0.577519 -6.07863 0
M  V30 8577 H 781.105 -2.62561 -5.09642 0
M  V30 8578 H 779.502 -3.4019 -4.94359 0
M  V30 8579 H 780.572 -3.32199 -3.53231 0
M  V30 8580 N 781.915 1.24427 -0.967243 0
M  V30 8581 C 783.143 1.96541 -0.646477 0
M  V30 8582 C 783.558 1.71753 0.783996 0
M  V30 8583 O 782.915 1.00102 1.52597 0
M  V30 8584 C 782.966 3.4983 -0.911098 0
M  V30 8585 O 782.687 3.7377 -2.28534 0
M  V30 8586 C 784.188 4.3916 -0.604458 0
M  V30 8587 H 781.408 0.626129 -0.241255 0
M  V30 8588 H 783.952 1.58268 -1.29505 0
M  V30 8589 H 782.107 3.86168 -0.308741 0
M  V30 8590 H 782.521 4.68154 -2.365 0
M  V30 8591 H 783.995 5.4557 -0.840069 0
M  V30 8592 H 784.472 4.36771 0.461273 0
M  V30 8593 H 785.078 4.08409 -1.1867 0
M  V30 8594 N 783.393 0.737304 1.3929 0
M  V30 8595 C 784.64 0.286257 2.00467 0
M  V30 8596 C 784.968 -1.1272 1.58507 0
M  V30 8597 O 784.223 -1.7832 0.806257 0
M  V30 8598 C 784.522 0.338438 3.55794 0
M  V30 8599 C 784.188 1.70524 4.17411 0
M  V30 8600 C 782.85 2.07934 4.33955 0
M  V30 8601 C 785.202 2.60256 4.51571 0
M  V30 8602 C 782.53 3.34578 4.81948 0
M  V30 8603 C 784.882 3.86275 5.00974 0
M  V30 8604 C 783.546 4.23774 5.15725 0
M  V30 8605 H 782.816 0.104749 0.733559 0
M  V30 8606 H 785.463 0.944598 1.66582 0
M  V30 8607 H 783.768 -0.403478 3.89717 0
M  V30 8608 H 785.465 -0.0287255 4.0099 0
M  V30 8609 H 782.055 1.40439 4.04938 0
M  V30 8610 H 786.239 2.32624 4.38406 0
M  V30 8611 H 781.495 3.63572 4.91554 0
M  V30 8612 H 785.669 4.5596 5.26378 0
M  V30 8613 H 783.296 5.21972 5.52674 0
M  V30 8614 N 784.871 -1.49948 0.485112 0
M  V30 8615 C 785.801 -2.31675 -0.291364 0
M  V30 8616 C 786.782 -1.39216 -0.977383 0
M  V30 8617 O 787.967 -1.68133 -0.971855 0
M  V30 8618 C 785.097 -3.19326 -1.36558 0
M  V30 8619 C 784.051 -4.2045 -0.800359 0
M  V30 8620 C 783.377 -4.96931 -1.97391 0
M  V30 8621 C 784.677 -5.21925 0.197867 0
M  V30 8622 H 786.371 -2.96839 0.390775 0
M  V30 8623 H 783.917 -1.42749 0.189375 0
M  V30 8624 H 785.87 -3.75304 -1.91638 0
M  V30 8625 H 784.594 -2.52074 -2.07668 0
M  V30 8626 H 783.253 -3.65594 -0.271428 0
M  V30 8627 H 782.901 -4.26141 -2.67232 0
M  V30 8628 H 782.601 -5.65344 -1.60187 0
M  V30 8629 H 784.125 -5.55749 -2.52935 0
M  V30 8630 H 785.539 -5.72691 -0.264239 0
M  V30 8631 H 783.936 -5.98138 0.484908 0
M  V30 8632 H 785.006 -4.71809 1.11912 0
M  V30 8633 N 786.349 -0.21828 -1.56081 0
M  V30 8634 C 787.297 0.709679 -2.21509 0
M  V30 8635 C 788.291 1.20221 -1.19346 0
M  V30 8636 O 789.497 1.16241 -1.37433 0
M  V30 8637 H 785.872 0.247271 -0.710184 0
M  V30 8638 H 787.843 0.134386 -2.98097 0
M  V30 8639 C 786.592 1.90853 -2.90638 0
M  V30 8640 H 785.915 1.53865 -3.69006 0
M  V30 8641 H 787.355 2.53568 -3.39822 0
M  V30 8642 C 785.814 2.76189 -1.92929 0
M  V30 8643 O 786.344 3.74842 -1.44416 0
M  V30 8644 N 784.55 2.42157 -1.6065 0
M  V30 8645 H 784.097 1.61987 -2.00294 0
M  V30 8646 H 784.055 2.99534 -0.955347 0
M  V30 8647 N 787.827 1.57504 0.0551401 0
M  V30 8648 C 789.052 1.92682 0.767352 0
M  V30 8649 C 789.477 0.81614 1.69472 0
M  V30 8650 O 788.835 -0.229989 1.79835 0
M  V30 8651 C 788.883 3.26866 1.52286 0
M  V30 8652 O 787.987 3.17274 2.63459 0
M  V30 8653 H 787.328 0.630502 0.208238 0
M  V30 8654 H 789.858 2.04592 0.0184026 0
M  V30 8655 H 789.868 3.61138 1.8985 0
M  V30 8656 H 788.543 4.07276 0.842541 0
M  V30 8657 H 787.12 2.94589 2.2863 0
M  V30 8658 N 789.305 -0.326896 1.54172 0
M  V30 8659 C 790.552 -1.06523 1.72218 0
M  V30 8660 C 790.88 -1.88119 0.494114 0
M  V30 8661 O 790.135 -1.8855 -0.524147 0
M  V30 8662 C 790.434 -2.0208 2.94785 0
M  V30 8663 C 790.1 -1.36665 4.2969 0
M  V30 8664 C 788.762 -1.18556 4.66367 0
M  V30 8665 C 791.114 -0.896868 5.13425 0
M  V30 8666 C 788.442 -0.521113 5.84381 0
M  V30 8667 C 790.794 -0.246261 6.3212 0
M  V30 8668 C 789.458 -0.052987 6.67479 0
M  V30 8669 H 788.728 -0.389796 0.63019 0
M  V30 8670 H 791.375 -0.342725 1.88408 0
M  V30 8671 H 789.68 -2.8077 2.73268 0
M  V30 8672 H 791.377 -2.59231 3.05941 0
M  V30 8673 H 787.967 -1.51762 4.00832 0
M  V30 8674 H 792.151 -1.02458 4.85609 0
M  V30 8675 H 787.407 -0.36014 6.10338 0
M  V30 8676 H 791.581 0.125775 6.96286 0
M  V30 8677 H 789.208 0.463903 7.58783 0
M  V30 8678 N 790.784 -1.46188 -0.588786 0
M  V30 8679 C 791.731 -1.56292 -1.69828 0
M  V30 8680 C 792.701 -0.407581 -1.61022 0
M  V30 8681 O 793.886 -0.623532 -1.80324 0
M  V30 8682 C 791.026 -1.55341 -3.08161 0
M  V30 8683 C 790.139 -2.81564 -3.27636 0
M  V30 8684 C 789.274 -2.72158 -4.56183 0
M  V30 8685 C 788.313 -3.93348 -4.68981 0
M  V30 8686 N 787.45 -3.82365 -5.88848 0
M  V30 8687 H 792.29 -2.51066 -1.6053 0
M  V30 8688 H 789.827 -1.24562 -0.782474 0
M  V30 8689 H 791.785 -1.52776 -3.88221 0
M  V30 8690 H 790.415 -0.641034 -3.16371 0
M  V30 8691 H 789.467 -2.94136 -2.41223 0
M  V30 8692 H 790.779 -3.714 -3.32962 0
M  V30 8693 H 789.933 -2.67665 -5.44464 0
M  V30 8694 H 788.672 -1.79953 -4.53286 0
M  V30 8695 H 787.677 -3.98181 -3.7912 0
M  V30 8696 H 788.902 -4.86643 -4.73662 0
M  V30 8697 H 786.848 -2.92942 -5.86959 0
M  V30 8698 H 786.765 -4.65851 -5.95415 0
M  V30 8699 H 788.033 -3.81836 -6.79575 0
M  V30 8700 N 792.262 0.832906 -1.33792 0
M  V30 8701 C 793.195 1.94788 -1.18882 0
M  V30 8702 C 794.173 1.62389 -0.0828426 0
M  V30 8703 O 795.357 1.86886 -0.246175 0
M  V30 8704 C 792.484 3.28506 -0.824728 0
M  V30 8705 C 791.53 3.79872 -1.93905 0
M  V30 8706 S 792.363 4.00832 -3.55097 0
M  V30 8707 C 793.519 5.37492 -3.20708 0
M  V30 8708 H 793.752 2.07137 -2.13264 0
M  V30 8709 H 791.285 0.987362 -1.18704 0
M  V30 8710 H 793.243 4.05769 -0.621442 0
M  V30 8711 H 791.904 3.13939 0.100587 0
M  V30 8712 H 791.097 4.76647 -1.6378 0
M  V30 8713 H 790.699 3.09524 -2.09931 0
M  V30 8714 H 792.991 6.20544 -2.71903 0
M  V30 8715 H 793.934 5.72593 -4.16584 0
M  V30 8716 H 794.342 5.02529 -2.57148 0
M  V30 8717 N 793.74 1.17359 1.05189 0
M  V30 8718 C 794.687 0.890325 2.12936 0
M  V30 8719 C 795.657 -0.165779 1.65271 0
M  V30 8720 O 796.842 -0.0285672 1.90779 0
M  V30 8721 C 793.982 0.409793 3.42658 0
M  V30 8722 C 793.095 1.53002 4.03998 0
M  V30 8723 C 792.23 1.00336 5.21638 0
M  V30 8724 C 791.269 2.09903 5.74984 0
M  V30 8725 N 790.406 1.58714 6.83926 0
M  V30 8726 H 795.246 1.81299 2.36505 0
M  V30 8727 H 792.783 0.904249 1.16025 0
M  V30 8728 H 794.741 0.112743 4.17048 0
M  V30 8729 H 793.371 -0.475915 3.19272 0
M  V30 8730 H 792.423 1.9428 3.27047 0
M  V30 8731 H 793.735 2.3564 4.39631 0
M  V30 8732 H 792.889 0.660158 6.03098 0
M  V30 8733 H 791.628 0.14642 4.8748 0
M  V30 8734 H 790.633 2.45081 4.92154 0
M  V30 8735 H 791.858 2.96013 6.1119 0
M  V30 8736 H 789.804 0.752915 6.51665 0
M  V30 8737 H 789.721 2.34959 7.18561 0
M  V30 8738 H 790.989 1.27287 7.69037 0
M  V30 8739 N 795.218 -1.23913 0.973828 0
M  V30 8740 C 796.151 -2.23647 0.45355 0
M  V30 8741 C 797.129 -1.55485 -0.475724 0
M  V30 8742 O 798.313 -1.84083 -0.405689 0
M  V30 8743 C 795.44 -3.36942 -0.344594 0
M  V30 8744 C 794.486 -4.23221 0.527859 0
M  V30 8745 S 795.319 -4.97877 1.97177 0
M  V30 8746 C 796.475 -6.14627 1.18258 0
M  V30 8747 H 796.708 -2.67433 1.29873 0
M  V30 8748 H 794.241 -1.33289 0.779322 0
M  V30 8749 H 796.199 -4.02647 -0.799103 0
M  V30 8750 H 794.86 -2.91703 -1.16482 0
M  V30 8751 H 794.053 -5.03928 -0.0852555 0
M  V30 8752 H 793.655 -3.6255 0.918344 0
M  V30 8753 H 795.947 -6.76066 0.440629 0
M  V30 8754 H 796.89 -6.80311 1.96425 0
M  V30 8755 H 797.298 -5.6009 0.704256 0
M  V30 8756 N 796.696 -0.74468 -1.38897 0
M  V30 8757 C 797.921 -0.306119 -2.05128 0
M  V30 8758 C 798.346 1.0541 -1.55789 0
M  V30 8759 O 797.704 1.66993 -0.705909 0
M  V30 8760 C 797.752 -0.328195 -3.59103 0
M  V30 8761 O 796.856 0.680876 -4.06741 0
M  V30 8762 H 796.197 -0.137209 -0.649669 0
M  V30 8763 H 798.727 -1.01331 -1.77745 0
M  V30 8764 H 798.737 -0.175956 -4.0762 0
M  V30 8765 H 797.412 -1.32067 -3.94374 0
M  V30 8766 H 795.989 0.49398 -3.69614 0
M  V30 8767 N 798.174 1.49689 -0.493057 0
M  V30 8768 C 799.42 2.02727 0.0543518 0
M  V30 8769 C 799.753 1.37264 1.37376 0
M  V30 8770 O 799.028 0.505644 1.87812 0
M  V30 8771 C 799.311 3.59456 0.215226 0
M  V30 8772 C 799.164 4.35459 -1.12675 0
M  V30 8773 C 800.483 4.29511 0.959586 0
M  V30 8774 H 797.602 0.736773 0.0182786 0
M  V30 8775 H 800.244 1.78792 -0.642924 0
M  V30 8776 H 798.394 3.79981 0.809122 0
M  V30 8777 H 800.066 4.2645 -1.75891 0
M  V30 8778 H 798.309 3.9833 -1.71801 0
M  V30 8779 H 798.98 5.43454 -0.967578 0
M  V30 8780 H 801.456 4.13594 0.455977 0
M  V30 8781 H 800.332 5.38939 1.04098 0
M  V30 8782 H 800.593 3.94202 2.00144 0
M  V30 8783 N 799.652 0.226554 1.55963 0
M  V30 8784 C 800.901 -0.40417 1.97609 0
M  V30 8785 C 801.214 -1.60541 1.1174 0
M  V30 8786 O 802.42 -2.30598 1.43307 0
M  V30 8787 C 800.876 -0.770466 3.51556 0
M  V30 8788 C 800.484 0.408244 4.46136 0
M  V30 8789 C 802.228 -1.36651 4.01904 0
M  V30 8790 C 800.135 0.0192347 5.91397 0
M  V30 8791 H 799.065 -0.15478 0.737943 0
M  V30 8792 H 801.716 0.323558 1.80625 0
M  V30 8793 H 800.098 -1.55575 3.6416 0
M  V30 8794 H 801.272 1.18575 4.45283 0
M  V30 8795 H 799.587 0.917859 4.06158 0
M  V30 8796 H 802.184 -1.67055 5.07934 0
M  V30 8797 H 802.527 -2.28403 3.48049 0
M  V30 8798 H 803.06 -0.644556 3.92543 0
M  V30 8799 H 799.799 0.90336 6.49245 0
M  V30 8800 H 799.319 -0.722485 5.95433 0
M  V30 8801 H 800.998 -0.405711 6.45727 0
M  V30 8802 N 801.13 -1.57531 -0.0467866 0
M  V30 8803 C 802.06 -2.08425 -1.05268 0
M  V30 8804 C 803.041 -0.982941 -1.38825 0
M  V30 8805 O 804.226 -1.25716 -1.48018 0
M  V30 8806 C 801.356 -2.54897 -2.35891 0
M  V30 8807 C 800.31 -3.69132 -2.16623 0
M  V30 8808 C 799.636 -4.01747 -3.52851 0
M  V30 8809 C 800.936 -4.98243 -1.56689 0
M  V30 8810 H 802.63 -2.92716 -0.62908 0
M  V30 8811 H 800.176 -1.40816 -0.301156 0
M  V30 8812 H 802.129 -2.8912 -3.06574 0
M  V30 8813 H 800.853 -1.67666 -2.80278 0
M  V30 8814 H 799.512 -3.35231 -1.48377 0
M  V30 8815 H 799.16 -3.11608 -3.94853 0
M  V30 8816 H 798.86 -4.78681 -3.4079 0
M  V30 8817 H 800.384 -4.38487 -4.24925 0
M  V30 8818 H 801.798 -5.30535 -2.17268 0
M  V30 8819 H 800.195 -5.79669 -1.55255 0
M  V30 8820 H 801.265 -4.81986 -0.530827 0
M  V30 8821 N 802.608 0.318715 -1.54344 0
M  V30 8822 C 803.856 1.054 -1.72439 0
M  V30 8823 C 804.177 1.88388 -0.503495 0
M  V30 8824 O 803.447 1.89866 0.48246 0
M  V30 8825 H 802.027 0.392124 -0.635805 0
M  V30 8826 H 804.689 0.35398 -1.91659 0
M  V30 8827 H 803.785 1.71726 -2.60608 0
M  V30 8828 N 804.086 1.46499 0.581025 0
M  V30 8829 C 805.335 1.51162 1.3354 0
M  V30 8830 C 805.648 0.168433 1.94873 0
M  V30 8831 O 806.854 0.092883 2.71341 0
M  V30 8832 C 805.31 2.66362 2.42032 0
M  V30 8833 C 804.918 4.07109 1.86994 0
M  V30 8834 C 806.662 2.80297 3.188 0
M  V30 8835 C 804.569 5.13645 2.93125 0
M  V30 8836 H 803.499 0.562576 0.502021 0
M  V30 8837 H 806.15 1.72713 0.619863 0
M  V30 8838 H 804.532 2.38143 3.16392 0
M  V30 8839 H 805.706 4.45125 1.19166 0
M  V30 8840 H 804.021 3.97854 1.22887 0
M  V30 8841 H 806.618 3.5706 3.9801 0
M  V30 8842 H 806.961 1.87875 3.71495 0
M  V30 8843 H 807.494 3.0817 2.51547 0
M  V30 8844 H 804.233 6.07866 2.45315 0
M  V30 8845 H 803.753 4.80172 3.59437 0
M  V30 8846 H 805.432 5.39562 3.57046 0
M  V30 8847 N 805.565 -0.825799 1.34232 0
M  V30 8848 C 806.814 -1.57686 1.2577 0
M  V30 8849 C 807.127 -1.94848 -0.171372 0
M  V30 8850 O 808.333 -2.68854 -0.378123 0
M  V30 8851 C 806.789 -2.84478 2.20454 0
M  V30 8852 C 806.397 -2.54629 3.68603 0
M  V30 8853 C 808.141 -3.625 2.20893 0
M  V30 8854 C 806.048 -3.77597 4.55164 0
M  V30 8855 H 804.978 -0.591809 0.467203 0
M  V30 8856 H 807.629 -0.909421 1.59379 0
M  V30 8857 H 806.011 -3.52832 1.79793 0
M  V30 8858 H 807.185 -1.94404 4.17784 0
M  V30 8859 H 805.5 -1.89888 3.70582 0
M  V30 8860 H 808.097 -4.538 2.82789 0
M  V30 8861 H 808.44 -3.98404 1.20746 0
M  V30 8862 H 808.973 -3.01086 2.59985 0
M  V30 8863 H 805.712 -3.46815 5.56237 0
M  V30 8864 H 805.232 -4.37116 4.10719 0
M  V30 8865 H 806.911 -4.45039 4.69627 0
M  V30 8866 N 807.043 -1.17915 -1.04565 0
M  V30 8867 C 807.993 -0.869634 -2.10764 0
M  V30 8868 C 808.977 0.158502 -1.60117 0
M  V30 8869 O 810.169 -0.04483 -1.76943 0
M  V30 8870 C 807.298 -0.391642 -3.41059 0
M  V30 8871 C 806.384 -1.45156 -3.98485 0
M  V30 8872 N 806.775 -2.6667 -4.29792 0
M  V30 8873 C 805.073 -1.3109 -4.263 0
M  V30 8874 C 805.774 -3.34823 -4.75677 0
M  V30 8875 N 804.75 -2.62203 -4.76183 0
M  V30 8876 H 808.552 -1.79342 -2.32838 0
M  V30 8877 H 806.066 -1.0688 -1.22272 0
M  V30 8878 H 808.063 -0.151428 -4.16625 0
M  V30 8879 H 806.723 0.525862 -3.20413 0
M  V30 8880 H 807.734 -3.0358 -4.19594 0
M  V30 8881 H 804.411 -0.455545 -4.15007 0
M  V30 8882 H 805.801 -4.38645 -5.0896 0
M  V30 8883 N 808.521 1.23394 -0.980386 0
M  V30 8884 C 809.454 2.23404 -0.465404 0
M  V30 8885 C 810.432 1.55735 0.467471 0
M  V30 8886 O 811.616 1.84295 0.395921 0
M  V30 8887 C 808.743 3.3712 0.32672 0
M  V30 8888 C 807.789 4.22935 -0.550296 0
M  V30 8889 S 808.622 4.96824 -1.99814 0
M  V30 8890 C 809.778 6.13991 -1.21516 0
M  V30 8891 H 810.011 2.6674 -1.31289 0
M  V30 8892 H 807.544 1.32874 -0.78638 0
M  V30 8893 H 809.502 4.03065 0.777738 0
M  V30 8894 H 808.163 2.92317 1.14933 0
M  V30 8895 H 807.356 5.03966 0.0585298 0
M  V30 8896 H 806.958 3.62058 -0.937558 0
M  V30 8897 H 809.25 6.75822 -0.476476 0
M  V30 8898 H 810.193 6.7926 -2.0003 0
M  V30 8899 H 810.601 5.59708 -0.733949 0
M  V30 8900 N 809.999 0.752036 1.385 0
M  V30 8901 C 810.929 0.138718 2.33088 0
M  V30 8902 C 811.91 -0.705318 1.54788 0
M  V30 8903 O 813.095 -0.646821 1.83112 0
M  V30 8904 C 810.225 -0.75641 3.38963 0
M  V30 8905 C 809.179 -0.0152239 4.27997 0
M  V30 8906 C 808.505 -1.0285 5.24715 0
M  V30 8907 C 809.805 1.15226 5.09431 0
M  V30 8908 H 811.499 0.928852 2.84627 0
M  V30 8909 H 809.045 0.448111 1.3685 0
M  V30 8910 H 810.998 -1.19513 4.04097 0
M  V30 8911 H 809.722 -1.57885 2.85902 0
M  V30 8912 H 808.381 0.404061 3.64366 0
M  V30 8913 H 808.029 -1.84496 4.67943 0
M  V30 8914 H 807.729 -0.537238 5.85139 0
M  V30 8915 H 809.253 -1.46657 5.92726 0
M  V30 8916 H 810.667 0.791161 5.67815 0
M  V30 8917 H 809.064 1.57428 5.79082 0
M  V30 8918 H 810.134 1.9659 4.43261 0
M  V30 8919 N 811.477 -1.49425 0.500989 0
M  V30 8920 C 812.724 -2.02453 -0.0435355 0
M  V30 8921 C 813.052 -1.38067 -1.36995 0
M  V30 8922 O 812.307 -0.505557 -1.89057 0
M  V30 8923 C 812.606 -3.56562 -0.24463 0
M  V30 8924 C 812.272 -4.39585 1.00379 0
M  V30 8925 C 810.934 -4.61992 1.346 0
M  V30 8926 C 813.286 -4.87881 1.83361 0
M  V30 8927 C 810.614 -5.2994 2.51755 0
M  V30 8928 C 812.966 -5.57119 2.99669 0
M  V30 8929 C 811.63 -5.77771 3.3427 0
M  V30 8930 H 810.9 -0.740829 -0.0159308 0
M  V30 8931 H 813.547 -1.79725 0.661143 0
M  V30 8932 H 811.852 -3.77969 -1.03183 0
M  V30 8933 H 813.549 -3.95185 -0.6804 0
M  V30 8934 H 810.139 -4.22385 0.727225 0
M  V30 8935 H 814.323 -4.70398 1.58237 0
M  V30 8936 H 809.579 -5.44133 2.788 0
M  V30 8937 H 813.753 -5.93516 3.64296 0
M  V30 8938 H 811.38 -6.30197 4.25154 0
M  V30 8939 N 812.955 -0.234822 -1.55841 0
M  V30 8940 C 814.203 0.392483 -1.98252 0
M  V30 8941 C 814.524 1.59344 -1.12404 0
M  V30 8942 O 813.794 1.94834 -0.204055 0
M  V30 8943 H 812.374 0.147999 -0.732192 0
M  V30 8944 H 815.036 -0.330804 -1.92072 0
M  V30 8945 H 814.132 0.709829 -3.03921 0
M  V30 8946 N 814.433 1.57553 0.0384317 0
M  V30 8947 C 815.679 1.89121 0.732199 0
M  V30 8948 C 816.012 0.831404 1.75503 0
M  V30 8949 O 815.287 -0.154642 1.93884 0
M  V30 8950 C 815.57 3.31338 1.41021 0
M  V30 8951 C 815.423 4.48004 0.401532 0
M  V30 8952 C 816.742 3.72318 2.34665 0
M  V30 8953 H 813.861 0.687819 0.264715 0
M  V30 8954 H 816.503 1.89999 -0.00496279 0
M  V30 8955 H 814.653 3.3072 2.03854 0
M  V30 8956 H 816.325 4.60755 -0.224159 0
M  V30 8957 H 814.568 4.32895 -0.280092 0
M  V30 8958 H 815.239 5.44377 0.91423 0
M  V30 8959 H 817.715 3.74243 1.81883 0
M  V30 8960 H 816.591 4.72652 2.7909 0
M  V30 8961 H 816.852 3.04062 3.20934 0
M  V30 8962 N 815.911 -0.310526 1.54511 0
M  V30 8963 C 817.136 -1.07046 1.7764 0
M  V30 8964 C 817.561 -1.80488 0.529696 0
M  V30 8965 O 816.919 -1.73702 -0.519361 0
M  V30 8966 C 816.967 -2.03411 2.97752 0
M  V30 8967 O 816.071 -3.11545 2.7021 0
M  V30 8968 H 815.412 -0.307994 0.588248 0
M  V30 8969 H 817.942 -0.350848 2.01569 0
M  V30 8970 H 817.952 -2.46048 3.2546 0
M  V30 8971 H 816.627 -1.49361 3.88155 0
M  V30 8972 H 815.204 -2.7349 2.53491 0
M  V30 8973 N 817.389 -1.46805 -0.573248 0
M  V30 8974 C 818.319 -1.60951 -1.69165 0
M  V30 8975 C 819.3 -0.45948 -1.63777 0
M  V30 8976 O 820.485 -0.68688 -1.81647 0
M  V30 8977 C 817.615 -1.60844 -3.07809 0
M  V30 8978 C 816.569 -2.74913 -3.28035 0
M  V30 8979 C 815.895 -2.59871 -4.67302 0
M  V30 8980 C 817.195 -4.16654 -3.14955 0
M  V30 8981 H 818.889 -2.54574 -1.57582 0
M  V30 8982 H 816.435 -1.22516 -0.756686 0
M  V30 8983 H 818.388 -1.69334 -3.85881 0
M  V30 8984 H 817.112 -0.637714 -3.20314 0
M  V30 8985 H 815.771 -2.65908 -2.52366 0
M  V30 8986 H 815.419 -1.60861 -4.76585 0
M  V30 8987 H 815.119 -3.36386 -4.81786 0
M  V30 8988 H 816.643 -2.70265 -5.4753 0
M  V30 8989 H 818.057 -4.26721 -3.82861 0
M  V30 8990 H 816.454 -4.93831 -3.40956 0
M  V30 8991 H 817.524 -4.36146 -2.11908 0
M  V30 8992 N 818.867 0.818669 -1.34668 0
M  V30 8993 C 820.092 1.61193 -1.30505 0
M  V30 8994 C 820.517 1.87734 0.117341 0
M  V30 8995 O 819.875 1.45591 1.08042 0
M  V30 8996 C 819.923 2.92733 -2.1057 0
M  V30 8997 O 819.027 3.85 -1.47813 0
M  V30 8998 H 818.368 0.490085 -0.44801 0
M  V30 8999 H 820.898 1.01701 -1.77534 0
M  V30 9000 H 820.908 3.42262 -2.22082 0
M  V30 9001 H 819.583 2.7274 -3.13984 0
M  V30 9002 H 818.16 3.43525 -1.45069 0
M  V30 9003 N 820.346 1.18468 1.03938 0
M  V30 9004 C 821.276 0.936389 2.13902 0
M  V30 9005 C 822.257 -0.126381 1.6963 0
M  V30 9006 O 823.442 0.0264757 1.94182 0
M  V30 9007 C 820.572 0.462729 3.44204 0
M  V30 9008 C 819.526 1.46613 4.02105 0
M  V30 9009 C 818.852 0.84994 5.27902 0
M  V30 9010 C 820.152 2.84323 4.3813 0
M  V30 9011 H 821.846 1.85602 2.3493 0
M  V30 9012 H 819.392 0.893806 1.12903 0
M  V30 9013 H 821.345 0.276382 4.20493 0
M  V30 9014 H 820.069 -0.492477 3.22866 0
M  V30 9015 H 818.728 1.63944 3.27899 0
M  V30 9016 H 818.376 -0.112493 5.02874 0
M  V30 9017 H 818.076 1.51988 5.67603 0
M  V30 9018 H 819.6 0.674152 6.06867 0
M  V30 9019 H 821.014 2.70636 5.054 0
M  V30 9020 H 819.411 3.48012 4.88884 0
M  V30 9021 H 820.481 3.37776 3.47901 0
M  V30 9022 N 821.824 -1.22873 0.986916 0
M  V30 9023 C 823.071 -1.91462 0.659424 0
M  V30 9024 C 823.399 -1.76931 -0.807825 0
M  V30 9025 O 822.654 -1.12829 -1.59901 0
M  V30 9026 C 822.953 -3.43014 1.00379 0
M  V30 9027 C 822.619 -3.77731 2.46232 0
M  V30 9028 C 821.281 -3.86918 2.86091 0
M  V30 9029 C 823.633 -3.94343 3.40798 0
M  V30 9030 C 820.961 -4.10149 4.19518 0
M  V30 9031 C 823.313 -4.19076 4.73875 0
M  V30 9032 C 821.977 -4.26486 5.13484 0
M  V30 9033 H 821.247 -0.700611 0.2413 0
M  V30 9034 H 823.894 -1.45763 1.24199 0
M  V30 9035 H 822.199 -3.90329 0.339226 0
M  V30 9036 H 823.896 -3.94327 0.728518 0
M  V30 9037 H 820.486 -3.71159 2.14334 0
M  V30 9038 H 824.67 -3.86629 3.11178 0
M  V30 9039 H 819.926 -4.1411 4.49803 0
M  V30 9040 H 824.1 -4.30873 5.47102 0
M  V30 9041 H 821.727 -4.4424 6.16891 0
M  V30 9042 N 823.302 -0.75937 -1.38099 0
M  V30 9043 C 824.25 -0.124954 -2.32264 0
M  V30 9044 C 825.244 0.698863 -1.54312 0
M  V30 9045 O 826.45 0.597312 -1.698 0
M  V30 9046 H 822.825 -0.0216142 -0.751689 0
M  V30 9047 H 824.796 -0.935115 -2.83369 0
M  V30 9048 C 823.545 0.749463 -3.39527 0
M  V30 9049 H 822.868 0.124932 -3.99605 0
M  V30 9050 H 824.308 1.16055 -4.07808 0
M  V30 9051 C 822.767 1.89464 -2.78577 0
M  V30 9052 O 823.297 2.98923 -2.68343 0
M  V30 9053 N 821.503 1.69145 -2.36301 0
M  V30 9054 H 821.05 0.801157 -2.44825 0
M  V30 9055 H 821.008 2.45936 -1.95864 0
M  V30 9056 N 824.78 1.49157 -0.508906 0
M  V30 9057 C 825.73 2.26215 0.284705 0
M  V30 9058 C 826.714 1.31401 0.928586 0
M  V30 9059 O 827.906 1.56073 0.834877 0
M  V30 9060 C 825.035 3.15906 1.34382 0
M  V30 9061 C 824.121 4.18186 0.705785 0
M  V30 9062 N 824.512 5.05419 -0.196214 0
M  V30 9063 C 822.81 4.35425 0.965457 0
M  V30 9064 C 823.511 5.78977 -0.562222 0
M  V30 9065 N 822.487 5.43553 0.0717389 0
M  V30 9066 H 826.289 2.91033 -0.409543 0
M  V30 9067 H 823.803 1.59104 -0.325508 0
M  V30 9068 H 825.8 3.6975 1.92589 0
M  V30 9069 H 824.46 2.52642 2.03966 0
M  V30 9070 H 825.471 5.14781 -0.567526 0
M  V30 9071 H 822.148 3.83363 1.65346 0
M  V30 9072 H 823.538 6.59192 -1.30062 0
M  V30 9073 N 826.258 0.243083 1.55714 0
M  V30 9074 C 827.507 -0.383188 1.98027 0
M  V30 9075 C 827.82 -1.59347 1.13436 0
M  V30 9076 O 829.026 -2.29065 1.45745 0
M  V30 9077 C 827.482 -0.733135 3.52354 0
M  V30 9078 C 827.09 0.455539 4.45678 0
M  V30 9079 C 828.834 -1.32381 4.03331 0
M  V30 9080 C 826.741 0.0819591 5.91343 0
M  V30 9081 H 825.671 -0.146944 0.739543 0
M  V30 9082 H 828.322 0.342697 1.80272 0
M  V30 9083 H 826.704 -1.51704 3.65789 0
M  V30 9084 H 827.878 1.23291 4.44 0
M  V30 9085 H 826.193 0.960886 4.05162 0
M  V30 9086 H 828.79 -1.61658 5.09677 0
M  V30 9087 H 829.133 -2.24698 3.50452 0
M  V30 9088 H 829.666 -0.602885 3.93205 0
M  V30 9089 H 826.405 0.972171 6.48251 0
M  V30 9090 H 825.925 -0.659291 5.96166 0
M  V30 9091 H 827.604 -0.3372 6.46121 0
M  V30 9092 N 827.736 -1.57571 -0.0300757 0
M  V30 9093 C 828.966 -1.93204 -0.731828 0
M  V30 9094 C 829.374 -0.841156 -1.69473 0
M  V30 9095 O 828.717 0.191231 -1.82702 0
M  V30 9096 C 828.779 -3.2463 -1.54453 0
M  V30 9097 C 828.443 -4.50862 -0.746507 0
M  V30 9098 C 829.44 -5.19879 -0.0472309 0
M  V30 9099 C 827.125 -4.9738 -0.701347 0
M  V30 9100 C 829.119 -6.33692 0.686518 0
M  V30 9101 C 826.806 -6.11089 0.036148 0
M  V30 9102 C 827.804 -6.791 0.728841 0
M  V30 9103 O 827.492 -7.90635 1.45436 0
M  V30 9104 H 827.224 -0.6423 -0.210775 0
M  V30 9105 H 829.778 -2.05398 0.00804194 0
M  V30 9106 H 828.008 -3.0876 -2.32818 0
M  V30 9107 H 829.697 -3.45597 -2.1288 0
M  V30 9108 H 830.463 -4.84945 -0.0731582 0
M  V30 9109 H 826.342 -4.44288 -1.23001 0
M  V30 9110 H 829.886 -6.86711 1.22773 0
M  V30 9111 H 825.783 -6.45468 0.064002 0
M  V30 9112 H 826.551 -8.06988 1.36794 0
M  V30 9113 N 829.214 0.302327 -1.54673 0
M  V30 9114 C 830.461 1.0377 -1.73891 0
M  V30 9115 C 830.789 1.87309 -0.523979 0
M  V30 9116 O 830.044 1.8936 0.494084 0
M  V30 9117 C 830.343 1.97365 -2.97963 0
M  V30 9118 C 830.009 1.29812 -4.3181 0
M  V30 9119 C 828.671 1.11121 -4.68194 0
M  V30 9120 C 831.023 0.815073 -5.14787 0
M  V30 9121 C 828.351 0.428077 -5.85136 0
M  V30 9122 C 830.703 0.145665 -6.32432 0
M  V30 9123 C 829.367 -0.0532098 -6.67479 0
M  V30 9124 H 828.637 0.379721 -0.636312 0
M  V30 9125 H 831.284 0.312708 -1.8893 0
M  V30 9126 H 829.589 2.76387 -2.777 0
M  V30 9127 H 831.286 2.54331 -3.10027 0
M  V30 9128 H 827.876 1.45366 -4.03196 0
M  V30 9129 H 832.06 0.947191 -4.87178 0
M  V30 9130 H 827.316 0.262995 -6.10834 0
M  V30 9131 H 831.49 -0.236533 -6.95998 0
M  V30 9132 H 829.117 -0.58456 -7.57949 0
M  V30 9133 N 830.692 1.47107 0.565454 0
M  V30 9134 C 831.639 1.58974 1.6732 0
M  V30 9135 C 832.609 0.433146 1.60353 0
M  V30 9136 O 833.794 0.652141 1.79309 0
M  V30 9137 C 830.934 1.60224 3.05651 0
M  V30 9138 C 830.047 2.86741 3.23116 0
M  V30 9139 C 829.182 2.79381 4.51796 0
M  V30 9140 C 828.221 4.0076 4.62664 0
M  V30 9141 N 827.358 3.91685 5.8269 0
M  V30 9142 H 832.198 2.53588 1.56515 0
M  V30 9143 H 829.735 1.25791 0.762558 0
M  V30 9144 H 831.693 1.58933 3.85741 0
M  V30 9145 H 830.323 0.691285 3.15311 0
M  V30 9146 H 829.375 2.97936 2.36513 0
M  V30 9147 H 830.687 3.7665 3.27011 0
M  V30 9148 H 829.841 2.76293 5.40136 0
M  V30 9149 H 828.58 1.87142 4.50366 0
M  V30 9150 H 827.585 4.04162 3.72738 0
M  V30 9151 H 828.81 4.94117 4.6586 0
M  V30 9152 H 826.756 3.02243 5.82224 0
M  V30 9153 H 826.673 4.75264 5.87929 0
M  V30 9154 H 827.941 3.92599 6.73414 0
M  V30 9155 N 832.17 -0.811516 1.35101 0
M  V30 9156 C 833.117 -1.92308 1.27617 0
M  V30 9157 C 834.087 -1.6543 0.149091 0
M  V30 9158 O 835.272 -1.8789 0.331974 0
M  V30 9159 C 832.412 -3.28768 1.04908 0
M  V30 9160 C 831.525 -3.67865 2.26493 0
M  V30 9161 C 830.66 -4.9333 1.96974 0
M  V30 9162 C 829.699 -5.25041 3.1464 0
M  V30 9163 N 828.836 -6.41685 2.84929 0
M  V30 9164 H 833.676 -1.98041 2.22674 0
M  V30 9165 H 831.213 -0.968755 1.10696 0
M  V30 9166 H 833.171 -4.07426 0.897749 0
M  V30 9167 H 831.801 -3.22517 0.135151 0
M  V30 9168 H 830.853 -2.84507 2.52507 0
M  V30 9169 H 832.165 -3.87263 3.14371 0
M  V30 9170 H 831.319 -5.79803 1.78643 0
M  V30 9171 H 830.058 -4.75958 1.06374 0
M  V30 9172 H 829.063 -4.3706 3.33554 0
M  V30 9173 H 830.288 -5.44346 4.06035 0
M  V30 9174 H 828.234 -6.25747 1.96918 0
M  V30 9175 H 828.151 -6.6131 3.66341 0
M  V30 9176 H 829.419 -7.31198 2.70128 0
M  V30 9177 N 833.648 -1.19017 -1.03309 0
M  V30 9178 C 835.059 -0.993206 -1.5809 0
M  V30 9179 C 835.41 0.45505 -1.9085 0
M  V30 9180 O 834.535 1.33372 -1.70414 0
M  V30 9181 C 835.13 -1.79661 -2.87241 0
M  V30 9182 C 833.689 -1.64377 -3.38611 0
M  V30 9183 C 832.836 -1.78628 -2.12102 0
M  V30 9184 H 835.787 -1.3345 -0.858879 0
M  V30 9185 H 835.808 -1.29019 -3.57958 0
M  V30 9186 H 835.32 -2.85061 -2.63366 0
M  V30 9187 H 833.421 -0.615447 -3.67482 0
M  V30 9188 H 833.534 -2.44651 -4.11926 0
M  V30 9189 H 831.898 -1.21648 -2.23772 0
M  V30 9190 H 832.681 -2.8548 -1.90673 0
M  V30 9191 N 835.127 1.22348 -0.993418 0
M  V30 9192 C 836.057 2.26584 -0.564088 0
M  V30 9193 C 837.038 1.65102 0.409298 0
M  V30 9194 O 838.223 1.91872 0.299819 0
M  V30 9195 C 835.353 3.47087 0.121554 0
M  V30 9196 C 834.307 4.21009 -0.770429 0
M  V30 9197 C 833.633 5.34678 0.0481586 0
M  V30 9198 C 834.933 4.79636 -2.06752 0
M  V30 9199 H 836.627 2.62749 -1.43538 0
M  V30 9200 H 834.173 1.26303 -0.691628 0
M  V30 9201 H 836.126 4.19166 0.433303 0
M  V30 9202 H 834.85 3.1002 1.0274 0
M  V30 9203 H 833.509 3.50764 -1.06583 0
M  V30 9204 H 833.157 4.93852 0.954933 0
M  V30 9205 H 832.857 5.85061 -0.545641 0
M  V30 9206 H 834.381 6.09573 0.353991 0
M  V30 9207 H 835.795 5.43654 -1.81969 0
M  V30 9208 H 834.192 5.4036 -2.61019 0
M  V30 9209 H 835.262 3.99659 -2.74592 0
M  V30 9210 N 836.605 0.766683 1.37694 0
M  V30 9211 C 837.553 0.137269 2.32195 0
M  V30 9212 C 838.547 -0.69067 1.54681 0
M  V30 9213 O 839.753 -0.588299 1.70115 0
M  V30 9214 H 836.128 0.0256003 0.751564 0
M  V30 9215 H 838.099 0.950129 2.82869 0
M  V30 9216 C 836.848 -0.731446 3.39919 0
M  V30 9217 H 836.171 -0.103738 3.99665 0
M  V30 9218 H 837.611 -1.13891 4.08417 0
M  V30 9219 C 836.07 -1.87984 2.79578 0
M  V30 9220 O 836.6 -2.97496 2.69924 0
M  V30 9221 N 834.806 -1.6789 2.37195 0
M  V30 9222 H 834.353 -0.788162 2.45246 0
M  V30 9223 H 834.311 -2.44894 1.97165 0
M  V30 9224 N 838.083 -1.48885 0.516809 0
M  V30 9225 C 839.332 -2.01686 -0.0239899 0
M  V30 9226 C 839.645 -1.40029 -1.3657 0
M  V30 9227 O 840.851 -1.84249 -1.9941 0
M  V30 9228 C 839.307 -3.59779 -0.0931825 0
M  V30 9229 C 838.915 -4.30416 1.24283 0
M  V30 9230 C 840.659 -4.20471 -0.583507 0
M  V30 9231 C 838.566 -5.80408 1.13494 0
M  V30 9232 H 837.496 -0.753892 -0.0127376 0
M  V30 9233 H 840.147 -1.71273 0.65861 0
M  V30 9234 H 838.529 -3.86976 -0.840577 0
M  V30 9235 H 839.703 -4.14905 2.00476 0
M  V30 9236 H 838.018 -3.81539 1.66785 0
M  V30 9237 H 840.615 -5.30333 -0.681987 0
M  V30 9238 H 840.958 -3.84898 -1.58617 0
M  V30 9239 H 841.491 -3.97654 0.107814 0
M  V30 9240 H 838.23 -6.20532 2.11235 0
M  V30 9241 H 837.75 -5.98368 0.414167 0
M  V30 9242 H 839.429 -6.41781 0.820162 0
M  V30 9243 N 839.561 -0.251338 -1.55583 0
M  V30 9244 C 840.791 0.375642 -2.03156 0
M  V30 9245 C 841.199 1.51761 -1.12983 0
M  V30 9246 O 840.542 1.83184 -0.13757 0
M  V30 9247 C 840.604 0.941001 -3.46966 0
M  V30 9248 C 840.268 -0.0692886 -4.56947 0
M  V30 9249 C 841.265 -0.88041 -5.12391 0
M  V30 9250 C 838.95 -0.196661 -5.01915 0
M  V30 9251 C 840.944 -1.80532 -6.11299 0
M  V30 9252 C 838.631 -1.12507 -6.00654 0
M  V30 9253 C 839.629 -1.92792 -6.55225 0
M  V30 9254 O 839.317 -2.84067 -7.52038 0
M  V30 9255 H 839.049 0.0928836 -0.669588 0
M  V30 9256 H 841.603 -0.374115 -2.01964 0
M  V30 9257 H 839.833 1.7404 -3.45322 0
M  V30 9258 H 841.522 1.47853 -3.78014 0
M  V30 9259 H 842.288 -0.792615 -4.78479 0
M  V30 9260 H 838.167 0.418187 -4.59099 0
M  V30 9261 H 841.711 -2.43239 -6.5382 0
M  V30 9262 H 837.608 -1.21377 -6.33986 0
M  V30 9263 H 838.376 -2.78479 -7.6967 0
M  V30 9264 N 841.039 1.57585 0.0217189 0
M  V30 9265 C 842.286 1.89606 0.711045 0
M  V30 9266 C 842.614 0.849535 1.74966 0
M  V30 9267 O 841.869 -0.14856 1.95135 0
M  V30 9268 C 842.168 3.28377 1.41079 0
M  V30 9269 C 841.834 4.48035 0.507454 0
M  V30 9270 C 840.496 4.80504 0.258672 0
M  V30 9271 C 842.848 5.21071 -0.115793 0
M  V30 9272 C 840.176 5.83393 -0.622013 0
M  V30 9273 C 842.528 6.24897 -0.984224 0
M  V30 9274 C 841.192 6.55836 -1.2424 0
M  V30 9275 H 840.462 0.693817 0.26019 0
M  V30 9276 H 843.109 1.91478 -0.0291424 0
M  V30 9277 H 841.414 3.22528 2.22448 0
M  V30 9278 H 843.111 3.50404 1.94982 0
M  V30 9279 H 839.701 4.22653 0.711516 0
M  V30 9280 H 843.885 4.96259 0.0634327 0
M  V30 9281 H 839.141 6.05736 -0.830267 0
M  V30 9282 H 843.315 6.8063 -1.47363 0
M  V30 9283 H 840.942 7.35383 -1.92653 0
M  V30 9284 N 842.517 -0.29412 1.54831 0
M  V30 9285 C 843.765 -1.02643 1.74094 0
M  V30 9286 C 844.086 -1.87563 0.533402 0
M  V30 9287 O 843.356 -1.9061 -0.452192 0
M  V30 9288 H 841.936 -0.381959 0.641963 0
M  V30 9289 H 844.598 -0.323444 1.92197 0
M  V30 9290 H 843.694 -1.67558 2.63307 0
M  V30 9291 N 843.995 -1.47404 -0.557645 0
M  V30 9292 C 845.242 -1.54007 -1.31484 0
M  V30 9293 C 845.57 -0.202162 -1.93447 0
M  V30 9294 O 844.825 0.804901 -1.78381 0
M  V30 9295 C 845.124 -2.6061 -2.44575 0
M  V30 9296 C 844.79 -4.03896 -2.00446 0
M  V30 9297 C 843.452 -4.42901 -1.88127 0
M  V30 9298 C 845.804 -4.93804 -1.66754 0
M  V30 9299 C 843.132 -5.6965 -1.40411 0
M  V30 9300 C 845.484 -6.21016 -1.20509 0
M  V30 9301 C 844.148 -6.58903 -1.06786 0
M  V30 9302 H 843.418 -0.563552 -0.481134 0
M  V30 9303 H 846.065 -1.81001 -0.625375 0
M  V30 9304 H 844.37 -2.27371 -3.19076 0
M  V30 9305 H 846.067 -2.62941 -3.02759 0
M  V30 9306 H 842.657 -3.73077 -2.10977 0
M  V30 9307 H 846.841 -4.64369 -1.75144 0
M  V30 9308 H 842.097 -5.97755 -1.2845 0
M  V30 9309 H 846.271 -6.90095 -0.935001 0
M  V30 9310 H 843.898 -7.57008 -0.695891 0
M  V30 9311 N 845.473 0.80434 -1.35529 0
M  V30 9312 C 846.722 1.55665 -1.28263 0
M  V30 9313 C 847.035 1.95096 0.140352 0
M  V30 9314 O 848.241 2.69422 0.335303 0
M  V30 9315 C 846.697 2.80935 -2.24952 0
M  V30 9316 C 846.305 2.48733 -3.72607 0
M  V30 9317 C 848.049 3.5894 -2.26632 0
M  V30 9318 C 845.956 3.70308 -4.61114 0
M  V30 9319 H 844.886 0.584301 -0.476559 0
M  V30 9320 H 847.537 0.88395 -1.60806 0
M  V30 9321 H 845.919 3.49927 -1.85383 0
M  V30 9322 H 847.093 1.87733 -4.20824 0
M  V30 9323 H 845.408 1.83969 -3.73557 0
M  V30 9324 H 848.005 4.49244 -2.89973 0
M  V30 9325 H 848.348 3.96433 -1.27069 0
M  V30 9326 H 848.881 2.96912 -2.64742 0
M  V30 9327 H 845.62 3.37922 -5.61684 0
M  V30 9328 H 845.14 4.30526 -4.17621 0
M  V30 9329 H 846.819 4.37511 -4.76648 0
M  V30 9330 N 846.951 1.19563 1.02676 0
M  V30 9331 C 848.362 1.00158 1.57561 0
M  V30 9332 C 848.713 -0.444922 1.91089 0
M  V30 9333 O 847.838 -1.32466 1.71119 0
M  V30 9334 C 848.433 1.81181 2.86284 0
M  V30 9335 C 846.992 1.66171 3.37734 0
M  V30 9336 C 846.139 1.7975 2.11152 0
M  V30 9337 H 849.09 1.33904 0.85179 0
M  V30 9338 H 849.111 1.30916 3.57269 0
M  V30 9339 H 848.623 2.86454 2.6185 0
M  V30 9340 H 846.724 0.634927 3.6715 0
M  V30 9341 H 846.837 2.46832 4.10622 0
M  V30 9342 H 845.201 1.22833 2.23123 0
M  V30 9343 H 845.984 2.86487 1.89157 0
M  V30 9344 N 848.429 -1.21819 0.999893 0
M  V30 9345 C 849.339 -2.27691 0.565159 0
M  V30 9346 C 850.355 -1.69587 -0.389398 0
M  V30 9347 O 851.531 -1.99786 -0.254499 0
M  V30 9348 C 848.596 -3.46537 -0.106432 0
M  V30 9349 C 847.657 -4.19932 0.891964 0
M  V30 9350 C 846.89 -5.33103 0.252327 0
M  V30 9351 O 847.113 -5.62398 -0.952103 0
M  V30 9352 O 846.047 -5.94184 0.960698 0
M  V30 9353 H 849.873 -2.67059 1.44613 0
M  V30 9354 H 847.458 -1.28119 0.768499 0
M  V30 9355 H 849.34 -4.18631 -0.482301 0
M  V30 9356 H 848.015 -3.09079 -0.961865 0
M  V30 9357 H 846.922 -3.5008 1.3189 0
M  V30 9358 H 848.255 -4.61287 1.71682 0
M  V30 9359 N 849.908 -0.773975 -1.37286 0
M  V30 9360 C 851.157 -0.335977 -1.98882 0
M  V30 9361 C 851.47 1.09416 -1.62134 0
M  V30 9362 O 852.676 1.63366 -2.1685 0
M  V30 9363 C 851.132 -0.549756 -3.55676 0
M  V30 9364 C 850.74 -1.9903 -4.01361 0
M  V30 9365 C 852.484 -0.175493 -4.24137 0
M  V30 9366 C 850.391 -2.15156 -5.50874 0
M  V30 9367 H 849.321 -0.121877 -0.744085 0
M  V30 9368 H 851.972 -0.953419 -1.56787 0
M  V30 9369 H 850.354 0.137175 -3.95762 0
M  V30 9370 H 851.528 -2.71237 -3.72515 0
M  V30 9371 H 849.843 -2.32137 -3.4569 0
M  V30 9372 H 852.44 -0.274463 -5.33995 0
M  V30 9373 H 852.783 0.874524 -4.07011 0
M  V30 9374 H 853.316 -0.815058 -3.89361 0
M  V30 9375 H 850.055 -3.18485 -5.72929 0
M  V30 9376 H 849.575 -1.47435 -5.81397 0
M  V30 9377 H 851.254 -1.95124 -6.16876 0
M  V30 9378 N 851.386 1.48609 -0.524698 0
M  V30 9379 C 852.635 2.01696 0.0132937 0
M  V30 9380 C 852.948 1.40751 1.35825 0
M  V30 9381 O 854.154 1.85304 1.9843 0
M  V30 9382 C 852.61 3.59824 0.0741012 0
M  V30 9383 C 852.218 4.2975 -1.26564 0
M  V30 9384 C 853.962 4.20774 0.5612 0
M  V30 9385 C 851.869 5.79798 -1.16571 0
M  V30 9386 H 850.799 0.753949 0.00873931 0
M  V30 9387 H 853.45 1.70922 -0.667684 0
M  V30 9388 H 851.832 3.87416 0.820043 0
M  V30 9389 H 853.006 4.13836 -2.02674 0
M  V30 9390 H 851.321 3.80649 -1.68806 0
M  V30 9391 H 853.918 5.30687 0.653853 0
M  V30 9392 H 854.261 3.85734 1.56573 0
M  V30 9393 H 854.794 3.97591 -0.128901 0
M  V30 9394 H 851.533 6.19403 -2.14523 0
M  V30 9395 H 851.053 5.9814 -0.445894 0
M  V30 9396 H 852.732 6.41337 -0.854186 0
M  V30 9397 N 852.864 0.259585 1.55447 0
M  V30 9398 C 854.111 -0.361607 1.99245 0
M  V30 9399 C 854.439 -1.57017 1.14787 0
M  V30 9400 O 853.694 -1.94658 0.201724 0
M  V30 9401 C 853.993 -0.802727 3.48269 0
M  V30 9402 C 853.659 0.299472 4.49904 0
M  V30 9403 C 852.321 0.602157 4.77418 0
M  V30 9404 C 854.673 1.04295 5.10658 0
M  V30 9405 C 852.001 1.65217 5.62957 0
M  V30 9406 C 854.353 2.08257 5.97337 0
M  V30 9407 C 853.017 2.39177 6.23178 0
M  V30 9408 H 852.287 -0.132322 0.72909 0
M  V30 9409 H 854.934 0.370059 1.8789 0
M  V30 9410 H 853.239 -1.61381 3.5702 0
M  V30 9411 H 854.936 -1.29385 3.79553 0
M  V30 9412 H 851.526 0.0534256 4.28567 0
M  V30 9413 H 855.71 0.822358 4.89439 0
M  V30 9414 H 850.966 1.89692 5.81229 0
M  V30 9415 H 855.14 2.6635 6.43452 0
M  V30 9416 H 852.767 3.20677 6.89253 0
M  V30 9417 N 854.342 -1.57594 -0.0133615 0
M  V30 9418 C 855.275 -2.02991 -1.04259 0
M  V30 9419 C 856.253 -0.917193 -1.34262 0
M  V30 9420 O 857.437 -1.18428 -1.46653 0
M  V30 9421 C 854.564 -2.41624 -2.37351 0
M  V30 9422 C 853.61 -3.63495 -2.231 0
M  V30 9423 S 854.443 -5.1198 -1.5696 0
M  V30 9424 C 855.599 -5.5387 -2.91511 0
M  V30 9425 H 855.832 -2.89973 -0.655985 0
M  V30 9426 H 853.365 -1.52769 -0.223827 0
M  V30 9427 H 855.323 -2.64551 -3.13884 0
M  V30 9428 H 853.984 -1.55065 -2.73155 0
M  V30 9429 H 853.177 -3.88233 -3.21389 0
M  V30 9430 H 852.779 -3.405 -1.54711 0
M  V30 9431 H 855.071 -5.55514 -3.87828 0
M  V30 9432 H 856.014 -6.53988 -2.71488 0
M  V30 9433 H 856.422 -4.81404 -2.94806 0
M  V30 9434 N 855.82 0.285905 -1.54985 0
M  V30 9435 C 857.048 1.03776 -1.78992 0
M  V30 9436 C 857.463 1.80402 -0.556814 0
M  V30 9437 O 856.82 1.76242 0.473801 0
M  V30 9438 C 856.871 2.0065 -3.00702 0
M  V30 9439 O 856.592 1.27131 -4.19249 0
M  V30 9440 C 858.093 2.87753 -3.37214 0
M  V30 9441 H 855.313 0.307126 -0.596586 0
M  V30 9442 H 857.857 0.3206 -2.01971 0
M  V30 9443 H 856.012 2.67847 -2.79887 0
M  V30 9444 H 856.426 1.92316 -4.8797 0
M  V30 9445 H 857.9 3.51548 -4.2558 0
M  V30 9446 H 858.377 3.56848 -2.56039 0
M  V30 9447 H 858.983 2.26065 -3.60242 0
M  V30 9448 N 857.298 1.47698 0.54982 0
M  V30 9449 C 858.523 1.58579 1.33669 0
M  V30 9450 C 858.948 0.239049 1.86575 0
M  V30 9451 O 858.306 -0.786256 1.63364 0
M  V30 9452 C 858.354 2.62029 2.47736 0
M  V30 9453 O 857.458 2.17813 3.50188 0
M  V30 9454 H 856.799 0.532447 0.396732 0
M  V30 9455 H 859.329 1.93536 0.6637 0
M  V30 9456 H 859.339 2.82682 2.94202 0
M  V30 9457 H 858.014 3.59812 2.08586 0
M  V30 9458 H 856.591 2.07291 3.09976 0
M  V30 9459 N 858.776 -0.797141 1.35954 0
M  V30 9460 C 859.706 -1.92387 1.32323 0
M  V30 9461 C 860.687 -1.68967 0.196007 0
M  V30 9462 O 861.872 -1.90193 0.39245 0
M  V30 9463 C 859.002 -3.29286 1.10398 0
M  V30 9464 C 857.956 -3.67212 2.19862 0
M  V30 9465 C 857.282 -5.02377 1.8309 0
M  V30 9466 C 858.582 -3.76602 3.61896 0
M  V30 9467 H 860.276 -1.95683 2.26602 0
M  V30 9468 H 857.822 -0.94007 1.09081 0
M  V30 9469 H 859.775 -4.07721 1.06495 0
M  V30 9470 H 858.499 -3.26358 0.125668 0
M  V30 9471 H 857.158 -2.91069 2.22878 0
M  V30 9472 H 856.806 -4.95961 0.838527 0
M  V30 9473 H 856.506 -5.28722 2.56372 0
M  V30 9474 H 858.03 -5.8324 1.80729 0
M  V30 9475 H 859.444 -4.45246 3.6115 0
M  V30 9476 H 857.841 -4.14425 4.34018 0
M  V30 9477 H 858.911 -2.77906 3.97361 0
M  V30 9478 N 860.254 -1.20106 -1.0204 0
M  V30 9479 C 861.501 -1.00889 -1.75578 0
M  V30 9480 C 861.829 0.459415 -1.88996 0
M  V30 9481 O 861.084 1.35735 -1.40977 0
M  V30 9482 C 861.383 -1.63308 -3.17908 0
M  V30 9483 C 861.049 -3.13091 -3.24476 0
M  V30 9484 C 859.711 -3.53968 -3.25976 0
M  V30 9485 C 862.063 -4.09093 -3.22944 0
M  V30 9486 C 859.391 -4.89381 -3.2361 0
M  V30 9487 C 861.743 -5.44447 -3.22119 0
M  V30 9488 C 860.407 -5.84742 -3.2192 0
M  V30 9489 H 859.677 -0.36918 -0.642485 0
M  V30 9490 H 862.324 -1.49475 -1.19706 0
M  V30 9491 H 860.629 -1.06974 -3.76914 0
M  V30 9492 H 862.326 -1.45958 -3.73493 0
M  V30 9493 H 858.916 -2.80526 -3.24042 0
M  V30 9494 H 863.1 -3.78549 -3.20958 0
M  V30 9495 H 858.356 -5.1987 -3.21785 0
M  V30 9496 H 862.53 -6.18584 -3.19885 0
M  V30 9497 H 860.157 -6.89642 -3.19841 0
M  V30 9498 N 861.732 1.21287 -1.00634 0
M  V30 9499 C 862.98 1.90013 -0.688438 0
M  V30 9500 C 863.301 1.78573 0.783365 0
M  V30 9501 O 862.571 1.1815 1.56261 0
M  V30 9502 H 861.151 0.703336 -0.251648 0
M  V30 9503 H 863.813 1.47346 -1.27574 0
M  V30 9504 H 862.909 2.96879 -0.962781 0
M  V30 9505 N 863.21 0.781244 1.36873 0
M  V30 9506 C 864.44 0.361042 2.03421 0
M  V30 9507 C 864.848 -1.02471 1.59048 0
M  V30 9508 O 864.191 -1.66712 0.771552 0
M  V30 9509 C 864.253 0.336202 3.57924 0
M  V30 9510 C 863.917 1.66815 4.25467 0
M  V30 9511 C 864.914 2.62224 4.48926 0
M  V30 9512 C 862.599 1.9452 4.63106 0
M  V30 9513 C 864.593 3.83538 5.09095 0
M  V30 9514 C 862.28 3.16103 5.22994 0
M  V30 9515 C 863.278 4.10431 5.45926 0
M  V30 9516 O 862.966 5.29871 6.04559 0
M  V30 9517 H 862.698 0.147956 0.65961 0
M  V30 9518 H 865.252 1.05895 1.75998 0
M  V30 9519 H 863.482 -0.418147 3.84433 0
M  V30 9520 H 865.171 -0.0582199 4.05858 0
M  V30 9521 H 865.937 2.42104 4.20251 0
M  V30 9522 H 861.816 1.21921 4.44585 0
M  V30 9523 H 865.36 4.57178 5.2691 0
M  V30 9524 H 861.257 3.36104 5.51094 0
M  V30 9525 H 862.025 5.30825 6.23031 0
M  V30 9526 N 864.689 -1.48329 0.532571 0
M  V30 9527 C 865.619 -2.32485 -0.217511 0
M  V30 9528 C 866.6 -1.42255 -0.932598 0
M  V30 9529 O 867.785 -1.7114 -0.917873 0
M  V30 9530 C 864.915 -3.23509 -1.26329 0
M  V30 9531 C 863.869 -4.22784 -0.666191 0
M  V30 9532 C 863.195 -5.0296 -1.81482 0
M  V30 9533 C 864.495 -5.21031 0.363813 0
M  V30 9534 H 866.189 -2.95445 0.485014 0
M  V30 9535 H 863.735 -1.42075 0.234694 0
M  V30 9536 H 865.688 -3.81211 -1.79601 0
M  V30 9537 H 864.412 -2.58554 -1.99543 0
M  V30 9538 H 863.071 -3.66272 -0.15498 0
M  V30 9539 H 862.719 -4.34427 -2.5354 0
M  V30 9540 H 862.419 -5.70154 -1.4212 0
M  V30 9541 H 863.943 -5.63514 -2.35126 0
M  V30 9542 H 865.357 -5.73241 -0.0819079 0
M  V30 9543 H 863.754 -5.96292 0.674956 0
M  V30 9544 H 864.824 -4.6801 1.26865 0
M  V30 9545 N 866.167 -0.267825 -1.55308 0
M  V30 9546 C 867.413 0.351556 -1.9973 0
M  V30 9547 C 867.746 1.56049 -1.15596 0
M  V30 9548 O 867.021 1.93203 -0.224274 0
M  V30 9549 C 867.304 0.74091 -3.52395 0
M  V30 9550 C 867.157 -0.474861 -4.47286 0
M  V30 9551 C 868.476 1.5801 -4.10756 0
M  V30 9552 H 865.595 0.126308 -0.726096 0
M  V30 9553 H 868.237 -0.373316 -1.86296 0
M  V30 9554 H 866.387 1.35851 -3.63973 0
M  V30 9555 H 868.059 -1.1134 -4.47662 0
M  V30 9556 H 866.302 -1.11425 -4.19246 0
M  V30 9557 H 866.973 -0.158782 -5.51772 0
M  V30 9558 H 869.449 1.05857 -4.0241 0
M  V30 9559 H 868.325 1.82135 -5.17801 0
M  V30 9560 H 868.586 2.55878 -3.60526 0
M  V30 9561 N 867.645 1.57599 0.00500368 0
M  V30 9562 C 868.894 1.89528 0.690061 0
M  V30 9563 C 869.207 0.869451 1.75214 0
M  V30 9564 O 870.413 1.07879 2.49147 0
M  V30 9565 C 868.869 3.36425 1.27852 0
M  V30 9566 C 868.477 4.47293 0.251531 0
M  V30 9567 C 870.221 3.77471 1.94206 0
M  V30 9568 C 868.128 5.85264 0.8497 0
M  V30 9569 H 867.058 0.707201 0.2615 0
M  V30 9570 H 869.709 1.83418 -0.0547209 0
M  V30 9571 H 868.091 3.37356 2.07381 0
M  V30 9572 H 869.265 4.5787 -0.518796 0
M  V30 9573 H 867.58 4.15235 -0.311281 0
M  V30 9574 H 870.177 4.77884 2.39855 0
M  V30 9575 H 870.52 3.10722 2.77051 0
M  V30 9576 H 871.053 3.78817 1.21419 0
M  V30 9577 H 867.792 6.55472 0.0601408 0
M  V30 9578 H 867.312 5.78361 1.5893 0
M  V30 9579 H 868.991 6.32762 1.34984 0
M  V30 9580 N 869.123 -0.277682 1.55134 0
M  V30 9581 C 870.053 -1.34742 1.90701 0
M  V30 9582 C 871.034 -1.51757 0.768354 0
M  V30 9583 O 872.219 -1.64879 1.02609 0
M  V30 9584 C 869.349 -2.70775 2.17481 0
M  V30 9585 C 868.303 -2.68497 3.33307 0
M  V30 9586 C 867.629 -4.08037 3.45557 0
M  V30 9587 C 868.929 -2.28178 4.69821 0
M  V30 9588 H 870.623 -1.05224 2.803 0
M  V30 9589 H 868.169 -0.504738 1.34864 0
M  V30 9590 H 870.122 -3.45719 2.40949 0
M  V30 9591 H 868.846 -3.01867 1.24676 0
M  V30 9592 H 867.505 -1.9601 3.09799 0
M  V30 9593 H 867.153 -4.36344 2.50226 0
M  V30 9594 H 866.853 -4.07409 4.23429 0
M  V30 9595 H 868.377 -4.84726 3.71312 0
M  V30 9596 H 869.791 -2.92843 4.92865 0
M  V30 9597 H 868.188 -2.3872 5.50575 0
M  V30 9598 H 869.258 -1.23308 4.6896 0
M  V30 9599 N 870.601 -1.47988 -0.541979 0
M  V30 9600 C 871.85 -1.5465 -1.29485 0
M  V30 9601 C 872.163 -0.220041 -1.94358 0
M  V30 9602 O 873.369 -0.164792 -2.70999 0
M  V30 9603 C 871.825 -2.72685 -2.34885 0
M  V30 9604 C 871.433 -4.11923 -1.76134 0
M  V30 9605 C 873.177 -2.88651 -3.11257 0
M  V30 9606 C 871.084 -5.21237 -2.79404 0
M  V30 9607 H 870.014 -0.575688 -0.486928 0
M  V30 9608 H 872.665 -1.74296 -0.573853 0
M  V30 9609 H 871.047 -2.46448 -3.09966 0
M  V30 9610 H 872.221 -4.48128 -1.07322 0
M  V30 9611 H 870.536 -4.00972 -1.12295 0
M  V30 9612 H 873.133 -3.67487 -3.88404 0
M  V30 9613 H 873.476 -1.97658 -3.66384 0
M  V30 9614 H 874.009 -3.14731 -2.43288 0
M  V30 9615 H 870.748 -6.14156 -2.29113 0
M  V30 9616 H 870.268 -4.89533 -3.4658 0
M  V30 9617 H 871.947 -5.48839 -3.42615 0
M  V30 9618 N 872.079 0.78992 -1.36375 0
M  V30 9619 C 873.326 1.54777 -1.30576 0
M  V30 9620 C 873.654 1.94159 0.115095 0
M  V30 9621 O 872.909 1.62918 1.08426 0
M  V30 9622 C 873.208 2.83698 -2.17371 0
M  V30 9623 C 872.874 2.63457 -3.65925 0
M  V30 9624 C 871.536 2.57645 -4.06415 0
M  V30 9625 C 873.888 2.44833 -4.60115 0
M  V30 9626 C 871.216 2.31174 -5.39236 0
M  V30 9627 C 873.568 2.19889 -5.93154 0
M  V30 9628 C 872.232 2.1251 -6.32768 0
M  V30 9629 H 871.502 0.566371 -0.477813 0
M  V30 9630 H 874.149 0.91138 -1.68422 0
M  V30 9631 H 872.454 3.51802 -1.72459 0
M  V30 9632 H 874.151 3.41487 -2.10209 0
M  V30 9633 H 870.741 2.68836 -3.33804 0
M  V30 9634 H 874.925 2.48325 -4.29707 0
M  V30 9635 H 870.181 2.23942 -5.68911 0
M  V30 9636 H 874.355 2.04473 -6.65705 0
M  V30 9637 H 871.982 1.91761 -7.35616 0
M  V30 9638 N 873.557 1.20646 1.01402 0
M  V30 9639 C 874.787 1.04238 1.78376 0
M  V30 9640 C 875.195 -0.411327 1.84675 0
M  V30 9641 O 874.538 -1.29734 1.30057 0
M  V30 9642 C 874.6 1.55349 3.24202 0
M  V30 9643 C 874.264 3.03684 3.41504 0
M  V30 9644 C 875.261 4.01318 3.30514 0
M  V30 9645 C 872.946 3.42698 3.67237 0
M  V30 9646 C 874.94 5.35956 3.45007 0
M  V30 9647 C 872.627 4.77491 3.81373 0
M  V30 9648 C 873.625 5.73929 3.70263 0
M  V30 9649 O 873.313 7.06277 3.83963 0
M  V30 9650 H 873.045 0.366978 0.567718 0
M  V30 9651 H 875.599 1.60235 1.28506 0
M  V30 9652 H 873.829 0.93739 3.75166 0
M  V30 9653 H 875.518 1.34921 3.8282 0
M  V30 9654 H 876.284 3.72522 3.10568 0
M  V30 9655 H 872.163 2.68175 3.74971 0
M  V30 9656 H 875.707 6.11212 3.36252 0
M  V30 9657 H 871.604 5.05977 4.00821 0
M  V30 9658 H 872.372 7.13561 4.00965 0
M  V30 9659 N 875.035 -1.20752 1.01276 0
M  V30 9660 C 875.982 -2.234 0.579732 0
M  V30 9661 C 876.952 -1.61256 -0.398206 0
M  V30 9662 O 878.137 -1.8845 -0.29851 0
M  V30 9663 C 875.277 -3.45008 -0.0797006 0
M  V30 9664 C 874.39 -4.21597 0.942343 0
M  V30 9665 C 873.525 -5.30591 0.254364 0
M  V30 9666 C 872.564 -5.98919 1.26343 0
M  V30 9667 N 871.701 -6.99511 0.602384 0
M  V30 9668 H 876.541 -2.59801 1.45971 0
M  V30 9669 H 874.078 -1.27663 0.730787 0
M  V30 9670 H 876.036 -4.1444 -0.479125 0
M  V30 9671 H 874.666 -3.09312 -0.923354 0
M  V30 9672 H 873.718 -3.51268 1.45996 0
M  V30 9673 H 875.03 -4.68576 1.70992 0
M  V30 9674 H 874.184 -6.06368 -0.200763 0
M  V30 9675 H 872.923 -4.84639 -0.545553 0
M  V30 9676 H 871.928 -5.21906 1.72898 0
M  V30 9677 H 873.153 -6.46957 2.06456 0
M  V30 9678 H 871.099 -6.55759 -0.177734 0
M  V30 9679 H 871.016 -7.44597 1.30809 0
M  V30 9680 H 872.284 -7.79313 0.17072 0
M  V30 9681 N 876.513 -0.788492 -1.36457 0
M  V30 9682 C 877.759 -0.370067 -2.00005 0
M  V30 9683 C 878.114 1.0464 -1.61456 0
M  V30 9684 O 877.407 1.71277 -0.85876 0
M  V30 9685 C 877.601 -0.470255 -3.54293 0
M  V30 9686 C 877.43 -1.89492 -4.07827 0
M  V30 9687 C 876.2 -2.51932 -4.38016 0
M  V30 9688 C 878.398 -2.85692 -4.2765 0
M  V30 9689 N 876.38 -3.85997 -4.77368 0
M  V30 9690 C 877.751 -4.04588 -4.69796 0
M  V30 9691 C 879.806 -2.8276 -4.09818 0
M  V30 9692 C 878.509 -5.2096 -4.95977 0
M  V30 9693 C 880.535 -3.98319 -4.37145 0
M  V30 9694 C 879.897 -5.1596 -4.79547 0
M  V30 9695 H 875.996 -0.182813 -0.760331 0
M  V30 9696 H 878.58 -1.02589 -1.6548 0
M  V30 9697 H 876.751 0.155476 -3.88089 0
M  V30 9698 H 878.483 -0.0281643 -4.0469 0
M  V30 9699 H 875.238 -2.0342 -4.27688 0
M  V30 9700 H 875.662 -4.54971 -5.01329 0
M  V30 9701 H 880.304 -1.92971 -3.76194 0
M  V30 9702 H 878.022 -6.11335 -5.28483 0
M  V30 9703 H 881.608 -3.97411 -4.24919 0
M  V30 9704 H 880.488 -6.03893 -5.00283 0
M  V30 9705 N 877.991 1.48044 -0.54043 0
M  V30 9706 C 879.219 2.06895 -0.0145153 0
M  V30 9707 C 879.634 1.39552 1.27164 0
M  V30 9708 O 878.991 0.486454 1.75897 0
M  V30 9709 C 879.042 3.60934 0.202278 0
M  V30 9710 O 878.763 4.25749 -1.03293 0
M  V30 9711 C 880.264 4.36607 0.767387 0
M  V30 9712 H 877.484 0.66991 -0.0382368 0
M  V30 9713 H 880.028 1.90288 -0.749057 0
M  V30 9714 H 878.183 3.77111 0.886897 0
M  V30 9715 H 878.597 5.18048 -0.820167 0
M  V30 9716 H 880.071 5.45126 0.86845 0
M  V30 9717 H 880.548 4.01745 1.77477 0
M  V30 9718 H 881.154 4.25133 0.119002 0
M  V30 9719 N 879.47 0.276058 1.55163 0
M  V30 9720 C 880.433 -0.597924 2.21263 0
M  V30 9721 C 881.433 -1.0806 1.19078 0
M  V30 9722 O 882.623 -0.980626 1.43977 0
M  V30 9723 C 879.755 -1.82503 2.87933 0
M  V30 9724 H 880.948 -0.0207769 2.99893 0
M  V30 9725 H 878.501 0.0266823 1.56277 0
M  V30 9726 H 879.236 -2.44266 2.13318 0
M  V30 9727 H 879.021 -1.48683 3.62816 0
M  V30 9728 H 880.511 -2.44651 3.38431 0
M  V30 9729 N 880.948 -1.576 0.00335426 0
M  V30 9730 C 882.178 -1.94713 -0.690682 0
M  V30 9731 C 882.586 -0.876915 -1.67651 0
M  V30 9732 O 881.929 0.152434 -1.83066 0
M  V30 9733 C 881.991 -3.27833 -1.47532 0
M  V30 9734 C 881.655 -4.52344 -0.650704 0
M  V30 9735 C 882.652 -5.19862 0.0630537 0
M  V30 9736 C 880.337 -4.98755 -0.595687 0
M  V30 9737 C 882.331 -6.32093 0.820779 0
M  V30 9738 C 880.018 -6.10875 0.165761 0
M  V30 9739 C 881.016 -6.77401 0.872724 0
M  V30 9740 O 880.704 -7.87372 1.62174 0
M  V30 9741 H 880.436 -0.646627 -0.197104 0
M  V30 9742 H 882.99 -2.05335 0.0516082 0
M  V30 9743 H 881.22 -3.13628 -2.26217 0
M  V30 9744 H 882.909 -3.50034 -2.05501 0
M  V30 9745 H 883.675 -4.84991 0.0297223 0
M  V30 9746 H 879.554 -4.46797 -1.13549 0
M  V30 9747 H 883.098 -6.83953 1.37312 0
M  V30 9748 H 878.995 -6.45187 0.200901 0
M  V30 9749 H 879.763 -8.03905 1.5388 0
M  V30 9750 N 882.426 0.269451 -1.5528 0
M  V30 9751 C 883.703 1.02207 -1.66773 0
M  V30 9752 C 884.083 2.04168 -0.536536 0
M  V30 9753 O 883.431 2.23761 0.462956 0
M  V30 9754 C 883.641 1.67569 -3.0614 0
M  V30 9755 C 884.989 2.18599 -3.64005 0
M  V30 9756 O 886.013 1.7755 -3.08795 0
M  V30 9757 O 884.872 2.93903 -4.60742 0
M  V30 9758 H 881.966 0.474314 -0.677462 0
M  V30 9759 H 884.512 0.265026 -1.67618 0
M  V30 9760 H 883.284 0.937029 -3.79915 0
M  V30 9761 H 882.907 2.49951 -3.09209 0
M  V30 9762 N 883.904 1.48273 0.534124 0
M  V30 9763 C 884.867 1.6201 1.62127 0
M  V30 9764 C 885.867 0.493653 1.53035 0
M  V30 9765 O 887.057 0.759337 1.56779 0
M  V30 9766 C 884.189 1.5864 3.01739 0
M  V30 9767 H 885.382 2.58944 1.51288 0
M  V30 9768 H 882.935 1.36808 0.755861 0
M  V30 9769 H 883.67 0.631685 3.18088 0
M  V30 9770 H 883.455 2.40415 3.09747 0
M  V30 9771 H 884.945 1.71438 3.80787 0
M  V30 9772 N 885.382 -0.782676 1.36792 0
M  V30 9773 C 886.332 -1.8855 1.28191 0
M  V30 9774 C 887.316 -1.59978 0.171984 0
M  V30 9775 O 888.508 -1.72295 0.405405 0
M  V30 9776 C 885.637 -3.25862 1.08021 0
M  V30 9777 C 884.723 -3.60422 2.2351 0
M  V30 9778 N 885.114 -3.66241 3.48857 0
M  V30 9779 C 883.412 -3.90523 2.15424 0
M  V30 9780 C 884.113 -3.97233 4.24948 0
M  V30 9781 N 883.089 -4.12567 3.53963 0
M  V30 9782 H 886.891 -1.91285 2.23131 0
M  V30 9783 H 884.405 -0.978554 1.29607 0
M  V30 9784 H 886.402 -4.04742 0.999458 0
M  V30 9785 H 885.062 -3.24399 0.139882 0
M  V30 9786 H 886.073 -3.48717 3.82906 0
M  V30 9787 H 882.75 -3.96945 1.29386 0
M  V30 9788 H 884.14 -4.08602 5.33379 0
M  V30 9789 N 886.86 -1.21182 -1.00761 0
M  V30 9790 C 888.088 -1.05335 -1.78079 0
M  V30 9791 C 888.503 0.396988 -1.84579 0
M  V30 9792 O 887.86 1.27548 -1.30529 0
M  V30 9793 C 887.911 -1.64089 -3.22113 0
M  V30 9794 O 887.632 -3.03448 -3.15992 0
M  V30 9795 C 889.133 -1.53318 -4.15943 0
M  V30 9796 H 886.353 -0.37005 -0.559736 0
M  V30 9797 H 888.897 -1.60463 -1.26775 0
M  V30 9798 H 887.052 -1.13059 -3.70535 0
M  V30 9799 H 887.466 -3.31492 -4.06465 0
M  V30 9800 H 888.94 -1.99174 -5.14814 0
M  V30 9801 H 889.417 -0.487166 -4.3649 0
M  V30 9802 H 890.023 -2.03582 -3.73409 0
M  V30 9803 N 888.338 1.20213 -1.01915 0
M  V30 9804 C 889.563 1.94163 -0.729076 0
M  V30 9805 C 889.988 1.74416 0.704323 0
M  V30 9806 O 889.346 1.0401 1.48498 0
M  V30 9807 C 889.394 3.44258 -1.07324 0
M  V30 9808 O 888.498 4.11979 -0.186367 0
M  V30 9809 H 887.839 0.606506 -0.270272 0
M  V30 9810 H 890.369 1.52571 -1.3632 0
M  V30 9811 H 890.379 3.94888 -1.02603 0
M  V30 9812 H 889.054 3.57954 -2.11759 0
M  V30 9813 H 887.631 3.7176 -0.291334 0
M  V30 9814 N 889.816 0.795718 1.36037 0
M  V30 9815 C 890.726 0.199784 2.33748 0
M  V30 9816 C 891.742 -0.651436 1.61345 0
M  V30 9817 O 892.918 -0.565743 1.93291 0
M  V30 9818 C 889.983 -0.650475 3.40543 0
M  V30 9819 C 889.044 0.219974 4.28736 0
M  V30 9820 C 888.277 -0.589798 5.30431 0
M  V30 9821 O 888.5 -1.82532 5.40406 0
M  V30 9822 O 887.434 0.0136187 6.01898 0
M  V30 9823 H 891.26 1.00782 2.8649 0
M  V30 9824 H 888.845 0.557293 1.38617 0
M  V30 9825 H 890.727 -1.13512 4.05824 0
M  V30 9826 H 889.402 -1.4363 2.9009 0
M  V30 9827 H 888.309 0.751516 3.66474 0
M  V30 9828 H 889.642 0.969468 4.82558 0
M  V30 9829 N 891.294 -1.47756 0.548274 0
M  V30 9830 C 892.242 -2.3158 -0.217584 0
M  V30 9831 C 893.236 -1.42372 -0.917957 0
M  V30 9832 O 894.442 -1.59184 -0.840259 0
M  V30 9833 H 890.817 -0.74671 -0.0890388 0
M  V30 9834 H 892.788 -2.94032 0.508719 0
M  V30 9835 C 891.537 -3.24834 -1.24008 0
M  V30 9836 H 890.86 -3.93435 -0.710572 0
M  V30 9837 H 892.3 -3.86336 -1.74701 0
M  V30 9838 C 890.759 -2.47724 -2.2833 0
M  V30 9839 O 891.289 -2.21522 -3.35098 0
M  V30 9840 N 889.495 -2.08891 -2.02022 0
M  V30 9841 H 889.042 -2.30401 -1.1521 0
M  V30 9842 H 889 -1.57613 -2.7204 0
M  V30 9843 N 892.772 -0.284283 -1.55015 0
M  V30 9844 C 893.735 0.586182 -2.21577 0
M  V30 9845 C 894.735 1.07427 -1.1965 0
M  V30 9846 O 895.925 0.972977 -1.44495 0
M  V30 9847 C 893.057 1.80973 -2.88897 0
M  V30 9848 H 894.25 0.00487253 -2.999 0
M  V30 9849 H 891.803 -0.0349696 -1.56261 0
M  V30 9850 H 892.538 2.43131 -2.14611 0
M  V30 9851 H 892.323 1.46757 -3.636 0
M  V30 9852 H 893.813 2.42853 -3.39724 0
M  V30 9853 N 894.251 1.57596 -0.0117121 0
M  V30 9854 C 895.662 1.79033 0.529521 0
M  V30 9855 C 896.013 0.920299 1.73277 0
M  V30 9856 O 895.138 0.125934 2.16033 0
M  V30 9857 C 895.733 3.24695 0.967405 0
M  V30 9858 C 894.292 3.47188 1.45387 0
M  V30 9859 C 893.439 2.74245 0.410466 0
M  V30 9860 H 896.39 1.56908 -0.237836 0
M  V30 9861 H 896.411 3.33451 1.83278 0
M  V30 9862 H 895.923 3.87992 0.0914605 0
M  V30 9863 H 894.024 2.89121 2.35032 0
M  V30 9864 H 894.137 4.55886 1.47325 0
M  V30 9865 H 892.501 2.39209 0.874721 0
M  V30 9866 H 893.284 3.40248 -0.456713 0
M  V30 9867 N 895.729 -0.261212 1.5542 0
M  V30 9868 C 896.954 -1.01341 1.80955 0
M  V30 9869 C 897.379 -1.78711 0.586849 0
M  V30 9870 O 896.737 -1.75266 -0.463837 0
M  V30 9871 C 896.785 -1.93835 3.04073 0
M  V30 9872 O 895.889 -3.02791 2.79985 0
M  V30 9873 H 895.23 -0.289123 0.597749 0
M  V30 9874 H 897.76 -0.286543 2.02584 0
M  V30 9875 H 897.77 -2.3557 3.33123 0
M  V30 9876 H 896.445 -1.36936 3.9271 0
M  V30 9877 H 895.022 -2.65287 2.62063 0
M  V30 9878 N 897.207 -1.48554 -0.526253 0
M  V30 9879 C 898.137 -1.66252 -1.63959 0
M  V30 9880 C 899.118 -0.511351 -1.62232 0
M  V30 9881 O 900.303 -0.744322 -1.7937 0
M  V30 9882 C 897.433 -1.70556 -3.02536 0
M  V30 9883 C 896.387 -2.8521 -3.19123 0
M  V30 9884 C 895.713 -2.74606 -4.58798 0
M  V30 9885 C 897.013 -4.26463 -3.0154 0
M  V30 9886 H 898.707 -2.59459 -1.49404 0
M  V30 9887 H 896.253 -1.24862 -0.717326 0
M  V30 9888 H 898.206 -1.81524 -3.80298 0
M  V30 9889 H 896.93 -0.739297 -3.18123 0
M  V30 9890 H 895.589 -2.73802 -2.43779 0
M  V30 9891 H 895.237 -1.75941 -4.71226 0
M  V30 9892 H 894.937 -3.51544 -4.70841 0
M  V30 9893 H 896.461 -2.87548 -5.38655 0
M  V30 9894 H 897.875 -4.38685 -3.69091 0
M  V30 9895 H 896.272 -5.04428 -3.25073 0
M  V30 9896 H 897.342 -4.42667 -1.97925 0
M  V30 9897 N 898.685 0.775411 -1.37205 0
M  V30 9898 C 899.615 1.90258 -1.35367 0
M  V30 9899 C 900.596 1.68634 -0.222864 0
M  V30 9900 O 901.781 1.89545 -0.422659 0
M  V30 9901 C 898.911 3.27488 -1.15623 0
M  V30 9902 C 897.865 3.63668 -2.25676 0
M  V30 9903 C 897.191 4.994 -1.91059 0
M  V30 9904 C 898.491 3.70797 -3.67841 0
M  V30 9905 H 900.185 1.92053 -2.29687 0
M  V30 9906 H 897.731 0.922597 -1.10563 0
M  V30 9907 H 899.684 4.05976 -1.12968 0
M  V30 9908 H 898.408 3.26117 -0.177573 0
M  V30 9909 H 897.067 2.87486 -2.2748 0
M  V30 9910 H 896.715 4.94565 -0.917324 0
M  V30 9911 H 896.415 5.24576 -2.64751 0
M  V30 9912 H 897.939 5.80291 -1.89985 0
M  V30 9913 H 899.353 4.39444 -3.68187 0
M  V30 9914 H 897.75 4.07468 -4.40556 0
M  V30 9915 H 898.82 2.71549 -4.01732 0
M  V30 9916 N 900.163 1.21714 1.00117 0
M  V30 9917 C 901.412 1.03087 1.73367 0
M  V30 9918 C 901.725 -0.435532 1.90689 0
M  V30 9919 O 902.931 -0.741291 2.61184 0
M  V30 9920 C 901.387 1.79593 3.11888 0
M  V30 9921 C 900.995 3.30428 3.02525 0
M  V30 9922 C 902.739 1.69386 3.89241 0
M  V30 9923 C 900.646 3.99408 4.3615 0
M  V30 9924 H 899.576 0.382117 0.650002 0
M  V30 9925 H 902.227 1.45486 1.11831 0
M  V30 9926 H 900.609 1.29988 3.74058 0
M  V30 9927 H 901.783 3.87364 2.49571 0
M  V30 9928 H 900.098 3.4122 2.38659 0
M  V30 9929 H 902.695 2.18251 4.8813 0
M  V30 9930 H 903.038 0.652773 4.1115 0
M  V30 9931 H 903.571 2.16489 3.33733 0
M  V30 9932 H 900.31 5.03735 4.19442 0
M  V30 9933 H 899.83 3.47261 4.8905 0
M  V30 9934 H 901.509 4.04537 5.04934 0
M  V30 9935 N 901.641 -1.19671 1.02551 0
M  V30 9936 C 902.591 -2.20655 0.574037 0
M  V30 9937 C 903.575 -1.56459 -0.375412 0
M  V30 9938 O 904.767 -1.75901 -0.196929 0
M  V30 9939 C 901.896 -3.43213 -0.0772031 0
M  V30 9940 C 900.982 -4.1456 0.894485 0
M  V30 9941 N 901.373 -4.62147 2.05557 0
M  V30 9942 C 899.671 -4.40196 0.717205 0
M  V30 9943 C 900.372 -5.16899 2.66814 0
M  V30 9944 N 899.348 -5.07496 1.94804 0
M  V30 9945 H 903.15 -2.55124 1.45908 0
M  V30 9946 H 900.664 -1.35707 0.89204 0
M  V30 9947 H 902.661 -4.14797 -0.41824 0
M  V30 9948 H 901.321 -3.10247 -0.957973 0
M  V30 9949 H 902.332 -4.5708 2.43513 0
M  V30 9950 H 899.009 -4.17342 -0.114758 0
M  V30 9951 H 900.399 -5.64032 3.65126 0
M  V30 9952 N 903.119 -0.802921 -1.35613 0
M  V30 9953 C 904.366 -0.381576 -1.98872 0
M  V30 9954 C 904.694 1.0503 -1.63704 0
M  V30 9955 O 903.949 1.7427 -0.890418 0
M  V30 9956 C 904.248 -0.507806 -3.53774 0
M  V30 9957 C 903.914 -1.90245 -4.088 0
M  V30 9958 C 902.576 -2.28401 -4.2354 0
M  V30 9959 C 904.928 -2.81504 -4.3864 0
M  V30 9960 C 902.256 -3.57192 -4.65436 0
M  V30 9961 C 904.608 -4.09737 -4.81973 0
M  V30 9962 C 903.272 -4.47897 -4.94919 0
M  V30 9963 H 902.542 -0.139629 -0.727726 0
M  V30 9964 H 905.189 -1.023 -1.61886 0
M  V30 9965 H 903.494 0.21708 -3.91198 0
M  V30 9966 H 905.191 -0.162625 -4.0067 0
M  V30 9967 H 901.781 -1.596 -3.97776 0
M  V30 9968 H 905.965 -2.53276 -4.26808 0
M  V30 9969 H 901.221 -3.86611 -4.73648 0
M  V30 9970 H 905.395 -4.80555 -5.04024 0
M  V30 9971 H 903.022 -5.47747 -5.27141 0
M  V30 9972 N 904.597 1.47463 -0.556102 0
M  V30 9973 C 905.846 2.01678 -0.029492 0
M  V30 9974 C 906.159 1.436 1.32809 0
M  V30 9975 O 907.365 1.89472 1.94455 0
M  V30 9976 C 905.821 3.599 -0.00223937 0
M  V30 9977 C 905.429 4.26969 -1.35651 0
M  V30 9978 C 907.173 4.2187 0.471822 0
M  V30 9979 C 905.08 5.77194 -1.28843 0
M  V30 9980 H 904.01 0.753965 -0.00725504 0
M  V30 9981 H 906.661 1.69467 -0.703789 0
M  V30 9982 H 905.043 3.89068 0.737682 0
M  V30 9983 H 906.217 4.09444 -2.11406 0
M  V30 9984 H 904.532 3.76983 -1.76842 0
M  V30 9985 H 907.129 5.31955 0.541139 0
M  V30 9986 H 907.472 3.88968 1.48356 0
M  V30 9987 H 908.005 3.97228 -0.213207 0
M  V30 9988 H 904.744 6.14713 -2.27613 0
M  V30 9989 H 904.264 5.9706 -0.572668 0
M  V30 9990 H 905.943 6.3938 -0.990031 0
M  V30 9991 N 906.075 0.2925 1.54862 0
M  V30 9992 C 907.023 -0.603186 2.24643 0
M  V30 9993 C 908.017 -1.1439 1.24946 0
M  V30 9994 O 909.223 -1.09552 1.42823 0
M  V30 9995 H 905.598 -0.213105 0.721173 0
M  V30 9996 H 907.569 0.00799278 2.98399 0
M  V30 9997 C 906.318 -1.76769 2.99413 0
M  V30 9998 H 905.641 -1.36084 3.75927 0
M  V30 9999 H 907.081 -2.37066 3.51533 0
M  V30 10000 C 905.54 -2.66669 2.05886 0
M  V30 10001 O 906.07 -3.67525 1.62136 0
M  V30 10002 N 904.276 -2.34216 1.7202 0
M  V30 10003 H 903.823 -1.52246 2.07795 0
M  V30 10004 H 903.781 -2.94635 1.09717 0
M  V30 10005 N 907.553 -1.57587 0.0200696 0
M  V30 10006 C 908.486 -2.05157 -0.999295 0
M  V30 10007 C 909.464 -0.945466 -1.32286 0
M  V30 10008 O 910.648 -1.21512 -1.44108 0
M  V30 10009 C 907.775 -2.46604 -2.32173 0
M  V30 10010 C 906.821 -3.68146 -2.15339 0
M  V30 10011 S 907.654 -5.15194 -1.46065 0
M  V30 10012 C 908.81 -5.59929 -2.79697 0
M  V30 10013 H 909.043 -2.91299 -0.59433 0
M  V30 10014 H 906.576 -1.53209 -0.191372 0
M  V30 10015 H 908.534 -2.7115 -3.08201 0
M  V30 10016 H 907.195 -1.60825 -2.69804 0
M  V30 10017 H 906.388 -3.94963 -3.13082 0
M  V30 10018 H 905.99 -3.43705 -1.47454 0
M  V30 10019 H 908.282 -5.63615 -3.75957 0
M  V30 10020 H 909.225 -6.59599 -2.57555 0
M  V30 10021 H 909.633 -4.87549 -2.84528 0
M  V30 10022 N 909.032 0.252966 -1.55557 0
M  V30 10023 C 910.279 0.981852 -1.77104 0
M  V30 10024 C 910.607 1.85547 -0.583305 0
M  V30 10025 O 909.862 1.90836 0.43359 0
M  V30 10026 C 910.161 1.87785 -3.04091 0
M  V30 10027 C 909.827 1.16009 -4.35721 0
M  V30 10028 C 908.489 0.961697 -4.71492 0
M  V30 10029 C 910.841 0.650884 -5.1712 0
M  V30 10030 C 908.169 0.241704 -5.86202 0
M  V30 10031 C 910.521 -0.0556124 -6.32576 0
M  V30 10032 C 909.185 -0.265536 -6.66972 0
M  V30 10033 H 908.455 0.359285 -0.64807 0
M  V30 10034 H 911.102 0.252443 -1.89829 0
M  V30 10035 H 909.407 2.67412 -2.86353 0
M  V30 10036 H 911.104 2.44339 -3.17961 0
M  V30 10037 H 907.694 1.32465 -4.07616 0
M  V30 10038 H 911.878 0.791719 -4.89944 0
M  V30 10039 H 907.134 0.0685292 -6.11362 0
M  V30 10040 H 911.308 -0.457839 -6.94893 0
M  V30 10041 H 908.935 -0.8254 -7.55706 0
M  V30 10042 N 910.51 1.48831 0.518367 0
M  V30 10043 C 911.44 1.67119 1.63075 0
M  V30 10044 C 912.421 0.519948 1.61958 0
M  V30 10045 O 913.606 0.753824 1.78972 0
M  V30 10046 C 910.736 1.72158 3.01627 0
M  V30 10047 C 909.69 2.86898 3.17606 0
M  V30 10048 C 909.016 2.77035 4.57335 0
M  V30 10049 C 910.316 4.28057 2.99274 0
M  V30 10050 H 912.01 2.60248 1.48025 0
M  V30 10051 H 909.556 1.2524 0.710694 0
M  V30 10052 H 911.509 1.83539 3.7933 0
M  V30 10053 H 910.233 0.756157 3.17726 0
M  V30 10054 H 908.892 2.75091 2.42323 0
M  V30 10055 H 908.54 1.78438 4.70286 0
M  V30 10056 H 908.24 3.54036 4.6897 0
M  V30 10057 H 909.764 2.904 5.37122 0
M  V30 10058 H 911.178 4.40636 3.6676 0
M  V30 10059 H 909.575 5.06145 3.22393 0
M  V30 10060 H 910.645 4.4371 1.95574 0
M  V30 10061 N 911.988 -0.768124 1.37614 0
M  V30 10062 C 913.235 -1.5268 1.33022 0
M  V30 10063 C 913.563 -1.94318 -0.0841918 0
M  V30 10064 O 912.818 -1.64623 -1.0582 0
M  V30 10065 C 913.117 -2.80204 2.21856 0
M  V30 10066 C 912.783 -2.57602 3.7007 0
M  V30 10067 C 911.445 -2.51146 4.10462 0
M  V30 10068 C 913.797 -2.37482 4.63952 0
M  V30 10069 C 911.125 -2.22566 5.42846 0
M  V30 10070 C 913.477 -2.10425 5.96577 0
M  V30 10071 C 912.141 -2.02416 6.36069 0
M  V30 10072 H 911.411 -0.558697 0.486763 0
M  V30 10073 H 914.058 -0.88447 1.69851 0
M  V30 10074 H 912.363 -3.49014 1.78034 0
M  V30 10075 H 914.06 -3.38099 2.15615 0
M  V30 10076 H 910.65 -2.63491 3.38039 0
M  V30 10077 H 914.834 -2.41457 4.33604 0
M  V30 10078 H 910.09 -2.14863 5.72402 0
M  V30 10079 H 914.264 -1.93857 6.68874 0
M  V30 10080 H 911.891 -1.80034 7.38574 0
M  V30 10081 N 913.466 -1.22244 -0.994698 0
M  V30 10082 C 914.691 -1.07299 -1.77487 0
M  V30 10083 C 915.116 0.372302 -1.84379 0
M  V30 10084 O 914.474 1.2689 -1.29494 0
M  V30 10085 C 914.522 -1.68675 -3.18718 0
M  V30 10086 O 913.626 -0.939202 -4.01563 0
M  V30 10087 H 912.967 -0.376979 -0.546611 0
M  V30 10088 H 915.497 -1.62003 -1.24965 0
M  V30 10089 H 915.507 -1.73324 -3.69354 0
M  V30 10090 H 914.182 -2.73849 -3.13017 0
M  V30 10091 H 912.759 -0.968583 -3.60101 0
M  V30 10092 N 914.944 1.19125 -1.03184 0
M  V30 10093 C 916.174 1.92558 -0.748663 0
M  V30 10094 C 916.582 1.759 0.696837 0
M  V30 10095 O 915.925 1.08019 1.48585 0
M  V30 10096 C 915.987 3.4461 -1.02391 0
M  V30 10097 C 915.651 3.85041 -2.46155 0
M  V30 10098 C 916.648 3.89554 -3.44302 0
M  V30 10099 C 914.333 4.16594 -2.80633 0
M  V30 10100 C 916.327 4.25055 -4.74981 0
M  V30 10101 C 914.014 4.51767 -4.11521 0
M  V30 10102 C 915.012 4.55972 -5.08506 0
M  V30 10103 O 914.7 4.9033 -6.37049 0
M  V30 10104 H 914.432 0.618397 -0.273059 0
M  V30 10105 H 916.986 1.52122 -1.38015 0
M  V30 10106 H 915.216 3.85244 -0.335284 0
M  V30 10107 H 916.905 3.99283 -0.729927 0
M  V30 10108 H 917.671 3.65324 -3.19003 0
M  V30 10109 H 913.55 4.12503 -2.05821 0
M  V30 10110 H 917.094 4.28252 -5.50678 0
M  V30 10111 H 912.991 4.75455 -4.36592 0
M  V30 10112 H 913.759 5.08266 -6.41566 0
M  V30 10113 N 916.422 0.810101 1.35185 0
M  V30 10114 C 917.833 0.452616 1.81131 0
M  V30 10115 C 918.184 -1.02573 1.67252 0
M  V30 10116 O 917.309 -1.79735 1.20516 0
M  V30 10117 C 917.904 0.814775 3.28857 0
M  V30 10118 C 916.463 0.509839 3.72931 0
M  V30 10119 C 915.61 1.03852 2.57119 0
M  V30 10120 H 918.561 1.00143 1.23114 0
M  V30 10121 H 918.582 0.113635 3.8033 0
M  V30 10122 H 918.094 1.89078 3.38926 0
M  V30 10123 H 916.195 -0.557289 3.68409 0
M  V30 10124 H 916.308 1.04493 4.67566 0
M  V30 10125 H 914.672 0.460671 2.50499 0
M  V30 10126 H 915.455 2.12071 2.69964 0
M  V30 10127 N 917.9 -1.47166 0.563914 0
M  V30 10128 C 918.81 -2.33885 -0.182977 0
M  V30 10129 C 919.826 -1.48605 -0.905132 0
M  V30 10130 O 921.002 -1.81518 -0.872527 0
M  V30 10131 C 918.067 -3.25433 -1.19558 0
M  V30 10132 C 917.128 -4.26607 -0.480129 0
M  V30 10133 C 916.361 -5.1378 -1.44449 0
M  V30 10134 O 916.584 -5.03531 -2.67979 0
M  V30 10135 O 915.518 -5.94109 -0.965321 0
M  V30 10136 H 919.344 -2.99065 0.528544 0
M  V30 10137 H 916.929 -1.45834 0.324468 0
M  V30 10138 H 918.811 -3.81964 -1.77993 0
M  V30 10139 H 917.486 -2.62873 -1.8889 0
M  V30 10140 H 916.393 -3.73817 0.145583 0
M  V30 10141 H 917.726 -4.919 0.171868 0
M  V30 10142 N 919.378 -0.300708 -1.54705 0
M  V30 10143 C 920.603 0.314073 -2.05008 0
M  V30 10144 C 921.028 1.46759 -1.17657 0
M  V30 10145 O 920.386 1.80398 -0.180598 0
M  V30 10146 C 920.434 0.748243 -3.52752 0
M  V30 10147 O 919.538 1.85305 -3.68424 0
M  V30 10148 H 918.879 0.0610139 -0.661191 0
M  V30 10149 H 921.409 -0.442467 -1.99758 0
M  V30 10150 H 921.419 1.03713 -3.94598 0
M  V30 10151 H 920.094 -0.095573 -4.1579 0
M  V30 10152 H 918.671 1.56473 -3.38483 0
M  V30 10153 N 920.856 1.57574 -0.0284266 0
M  V30 10154 C 922.104 1.91393 0.649079 0
M  V30 10155 C 922.425 0.905368 1.72708 0
M  V30 10156 O 921.695 -0.0532107 1.95828 0
M  V30 10157 H 920.275 0.70646 0.24274 0
M  V30 10158 H 922.937 1.94752 -0.076066 0
M  V30 10159 H 922.033 2.91988 1.10226 0
M  V30 10160 N 922.334 -0.244713 1.55689 0
M  V30 10161 C 923.564 -0.988508 1.81417 0
M  V30 10162 C 923.972 -1.79362 0.602143 0
M  V30 10163 O 923.315 -1.78386 -0.438639 0
M  V30 10164 C 923.377 -1.97287 3.0053 0
M  V30 10165 C 923.041 -1.35448 4.36466 0
M  V30 10166 C 924.038 -0.755874 5.14376 0
M  V30 10167 C 921.723 -1.37319 4.83165 0
M  V30 10168 C 923.717 -0.184218 6.37134 0
M  V30 10169 C 921.404 -0.797681 6.05871 0
M  V30 10170 C 922.402 -0.204224 6.82695 0
M  V30 10171 O 922.09 0.362392 8.03083 0
M  V30 10172 H 921.822 -0.296412 0.607549 0
M  V30 10173 H 924.376 -0.272185 2.03589 0
M  V30 10174 H 922.606 -2.72756 2.74119 0
M  V30 10175 H 924.295 -2.58028 3.13331 0
M  V30 10176 H 925.061 -0.733912 4.79415 0
M  V30 10177 H 920.94 -1.8245 4.23359 0
M  V30 10178 H 924.484 0.279624 6.97039 0
M  V30 10179 H 920.381 -0.816978 6.40309 0
M  V30 10180 H 921.149 0.254467 8.18104 0
M  V30 10181 N 923.813 -1.49104 -0.510467 0
M  V30 10182 C 925.038 -1.62068 -1.29417 0
M  V30 10183 C 925.463 -0.288432 -1.85875 0
M  V30 10184 O 924.821 0.742667 -1.65391 0
M  V30 10185 C 924.869 -2.68506 -2.40701 0
M  V30 10186 O 923.973 -2.27021 -3.4429 0
M  V30 10187 H 923.314 -0.542778 -0.382476 0
M  V30 10188 H 925.844 -1.95228 -0.612154 0
M  V30 10189 H 925.854 -2.90383 -2.86604 0
M  V30 10190 H 924.529 -3.65216 -1.98973 0
M  V30 10191 H 923.106 -2.15436 -3.04371 0
M  V30 10192 N 925.291 0.760815 -1.38019 0
M  V30 10193 C 926.224 1.88212 -1.2904 0
M  V30 10194 C 927.202 1.61721 -0.168805 0
M  V30 10195 O 928.386 1.85318 -0.344893 0
M  V30 10196 C 925.513 3.23672 -0.997702 0
M  V30 10197 C 924.559 3.6906 -2.13769 0
M  V30 10198 S 925.392 3.81445 -3.75845 0
M  V30 10199 C 926.548 5.19736 -3.48748 0
M  V30 10200 H 926.781 1.95541 -2.23944 0
M  V30 10201 H 924.314 0.923051 -1.2377 0
M  V30 10202 H 926.272 4.01904 -0.835657 0
M  V30 10203 H 924.933 3.14031 -0.065967 0
M  V30 10204 H 924.126 4.67295 -1.88816 0
M  V30 10205 H 923.728 2.97961 -2.26043 0
M  V30 10206 H 926.02 6.05259 -3.04414 0
M  V30 10207 H 926.963 5.49706 -4.46351 0
M  V30 10208 H 927.371 4.88191 -2.83425 0
M  V30 10209 N 926.769 1.22769 0.988202 0
M  V30 10210 C 927.699 1.02627 2.09738 0
M  V30 10211 C 928.68 -0.0543211 1.70013 0
M  V30 10212 O 929.865 0.108811 1.93895 0
M  V30 10213 C 926.995 0.608302 3.41931 0
M  V30 10214 C 925.949 1.63536 3.95525 0
M  V30 10215 C 925.275 1.07308 5.23822 0
M  V30 10216 C 926.575 3.02649 4.25677 0
M  V30 10217 H 928.269 1.954 2.26847 0
M  V30 10218 H 925.815 0.940888 1.09011 0
M  V30 10219 H 927.768 0.454478 4.18942 0
M  V30 10220 H 926.492 -0.355095 3.24664 0
M  V30 10221 H 925.151 1.77704 3.20651 0
M  V30 10222 H 924.799 0.100894 5.02899 0
M  V30 10223 H 924.499 1.75925 5.60646 0
M  V30 10224 H 926.023 0.930938 6.03462 0
M  V30 10225 H 927.437 2.91828 4.93467 0
M  V30 10226 H 925.834 3.68434 4.73684 0
M  V30 10227 H 926.904 3.52228 3.33262 0
M  V30 10228 N 928.247 -1.18576 1.03814 0
M  V30 10229 C 929.477 -1.92158 0.758864 0
M  V30 10230 C 929.885 -1.76267 -0.687498 0
M  V30 10231 O 929.228 -1.08806 -1.4801 0
M  V30 10232 C 929.29 -3.44063 1.04217 0
M  V30 10233 C 928.954 -3.8373 2.48193 0
M  V30 10234 C 929.951 -3.87722 3.46363 0
M  V30 10235 C 927.636 -4.151 2.82838 0
M  V30 10236 C 929.63 -4.2253 4.77229 0
M  V30 10237 C 927.317 -4.49578 4.13911 0
M  V30 10238 C 928.315 -4.53269 5.10917 0
M  V30 10239 O 928.003 -4.86945 6.39641 0
M  V30 10240 H 927.735 -0.61694 0.276335 0
M  V30 10241 H 930.289 -1.51388 1.38819 0
M  V30 10242 H 928.519 -3.85061 0.355709 0
M  V30 10243 H 930.208 -3.9889 0.751091 0
M  V30 10244 H 930.974 -3.63627 3.20936 0
M  V30 10245 H 926.853 -4.11406 2.08006 0
M  V30 10246 H 930.397 -4.25326 5.52941 0
M  V30 10247 H 926.294 -4.73133 4.39107 0
M  V30 10248 H 927.062 -5.04857 6.44253 0
M  V30 10249 N 929.725 -0.817259 -1.34754 0
M  V30 10250 C 930.95 -0.414423 -2.03217 0
M  V30 10251 C 931.375 0.970037 -1.61158 0
M  V30 10252 O 930.733 1.63016 -0.793436 0
M  V30 10253 C 930.781 -0.518087 -3.56859 0
M  V30 10254 O 929.885 0.464314 -4.09778 0
M  V30 10255 H 929.226 -0.171454 -0.641482 0
M  V30 10256 H 931.756 -1.10611 -1.72123 0
M  V30 10257 H 931.766 -0.391779 -4.06115 0
M  V30 10258 H 930.441 -1.52786 -3.86819 0
M  V30 10259 H 929.018 0.297361 -3.71712 0
M  V30 10260 N 931.203 1.46865 -0.571711 0
M  V30 10261 C 932.451 2.0203 -0.0530022 0
M  V30 10262 C 932.772 1.44687 1.30731 0
M  V30 10263 O 932.042 0.627429 1.85581 0
M  V30 10264 H 930.622 0.746815 -0.0166035 0
M  V30 10265 H 933.284 1.80099 -0.745003 0
M  V30 10266 H 932.38 3.12091 0.0242538 0
M  V30 10267 N 932.681 0.308908 1.54543 0
M  V30 10268 C 933.613 -0.597453 2.21276 0
M  V30 10269 C 934.626 -1.09137 1.20801 0
M  V30 10270 O 935.815 -1.00747 1.47351 0
M  V30 10271 C 932.915 -1.83085 2.85189 0
M  V30 10272 C 932.088 -1.4781 4.11669 0
M  V30 10273 C 931.147 -2.56748 4.59311 0
M  V30 10274 O 930.173 -2.21507 5.24331 0
M  V30 10275 N 931.375 -3.87427 4.32297 0
M  V30 10276 H 934.14 -0.0261183 2.99689 0
M  V30 10277 H 931.701 0.131456 1.61365 0
M  V30 10278 H 933.693 -2.55326 3.13992 0
M  V30 10279 H 932.263 -2.31039 2.1057 0
M  V30 10280 H 931.483 -0.587974 3.8979 0
M  V30 10281 H 932.771 -1.2179 4.94009 0
M  V30 10282 H 932.169 -4.18863 3.80224 0
M  V30 10283 H 930.726 -4.55942 4.6579 0
M  V30 10284 N 934.159 -1.57557 0.0367827 0
M  V30 10285 C 935.106 -2.10679 -0.942499 0
M  V30 10286 C 936.076 -1.01068 -1.31812 0
M  V30 10287 O 937.261 -1.28533 -1.41011 0
M  V30 10288 C 934.401 -2.64467 -2.21701 0
M  V30 10289 C 933.514 -3.88114 -1.89715 0
M  V30 10290 C 932.649 -4.30268 -3.11518 0
M  V30 10291 C 931.688 -5.46652 -2.75387 0
M  V30 10292 N 930.825 -5.83927 -3.89838 0
M  V30 10293 H 935.665 -2.94066 -0.482588 0
M  V30 10294 H 933.202 -1.45344 -0.226597 0
M  V30 10295 H 935.16 -2.93745 -2.96259 0
M  V30 10296 H 933.79 -1.83898 -2.65295 0
M  V30 10297 H 932.842 -3.65516 -1.05366 0
M  V30 10298 H 934.154 -4.72743 -1.5911 0
M  V30 10299 H 933.308 -4.61023 -3.94389 0
M  V30 10300 H 932.047 -3.44421 -3.4529 0
M  V30 10301 H 931.052 -5.15583 -1.90929 0
M  V30 10302 H 932.277 -6.34204 -2.42822 0
M  V30 10303 H 930.223 -5.01035 -4.23438 0
M  V30 10304 H 930.14 -6.63214 -3.62883 0
M  V30 10305 H 931.408 -6.19291 -4.73391 0
M  V30 10306 N 935.637 0.236453 -1.55816 0
M  V30 10307 C 936.885 0.96111 -1.77784 0
M  V30 10308 C 937.206 1.85454 -0.602648 0
M  V30 10309 O 936.476 1.92157 0.381137 0
M  V30 10310 H 935.056 0.35787 -0.655697 0
M  V30 10311 H 937.718 0.251888 -1.93265 0
M  V30 10312 H 936.814 1.5767 -2.69345 0
M  V30 10313 N 937.115 1.49373 0.502552 0
M  V30 10314 C 938.364 1.58028 1.25339 0
M  V30 10315 C 938.677 0.271494 1.93707 0
M  V30 10316 O 939.883 0.236584 2.70467 0
M  V30 10317 C 938.339 2.78817 2.27572 0
M  V30 10318 C 937.947 4.16448 1.65151 0
M  V30 10319 C 939.691 2.96802 3.03494 0
M  V30 10320 C 937.598 5.28461 2.65486 0
M  V30 10321 H 936.528 0.588396 0.471494 0
M  V30 10322 H 939.179 1.75756 0.52744 0
M  V30 10323 H 937.561 2.5458 3.03323 0
M  V30 10324 H 938.735 4.50816 0.954029 0
M  V30 10325 H 937.05 4.03809 1.01625 0
M  V30 10326 H 939.647 3.77656 3.78524 0
M  V30 10327 H 939.99 2.07303 3.61014 0
M  V30 10328 H 940.523 3.21071 2.34858 0
M  V30 10329 H 937.262 6.20015 2.12749 0
M  V30 10330 H 936.782 4.9855 3.33479 0
M  V30 10331 H 938.461 5.5773 3.27943 0
M  V30 10332 N 938.594 -0.753485 1.38421 0
M  V30 10333 C 939.526 -1.87692 1.31547 0
M  V30 10334 C 940.539 -1.612 0.227671 0
M  V30 10335 O 941.728 -1.71778 0.485238 0
M  V30 10336 C 938.828 -3.23329 1.01545 0
M  V30 10337 C 938.001 -3.77324 2.21236 0
M  V30 10338 C 937.06 -4.91478 1.87977 0
M  V30 10339 O 936.086 -5.06106 2.60472 0
M  V30 10340 N 937.288 -5.74466 0.834796 0
M  V30 10341 H 940.053 -1.94099 2.28354 0
M  V30 10342 H 937.614 -0.933421 1.32283 0
M  V30 10343 H 939.606 -3.9724 0.773477 0
M  V30 10344 H 938.176 -3.12307 0.135334 0
M  V30 10345 H 937.396 -2.94978 2.61498 0
M  V30 10346 H 938.684 -4.10131 3.01115 0
M  V30 10347 H 938.082 -5.65217 0.233606 0
M  V30 10348 H 936.639 -6.48524 0.652703 0
M  V30 10349 N 940.072 -1.23292 -0.981677 0
M  V30 10350 C 941.312 -1.07597 -1.73788 0
M  V30 10351 C 941.676 0.380762 -1.88187 0
M  V30 10352 O 942.877 0.658866 -2.606 0
M  V30 10353 C 941.148 -1.78008 -3.09916 0
M  V30 10354 S 942.707 -1.77868 -4.01134 0
M  V30 10355 H 939.525 -0.385092 -0.597683 0
M  V30 10356 H 942.127 -1.56408 -1.17289 0
M  V30 10357 H 940.831 -2.83139 -2.97087 0
M  V30 10358 H 940.362 -1.29473 -3.71484 0
M  V30 10359 H 942.377 -0.836368 -4.89101 0
M  V30 10360 N 941.55 1.18024 -1.04442 0
M  V30 10361 C 942.797 1.88098 -0.750022 0
M  V30 10362 C 943.125 1.80583 0.722489 0
M  V30 10363 O 942.38 1.20329 1.54335 0
M  V30 10364 C 942.679 3.37834 -1.16631 0
M  V30 10365 C 942.345 3.65553 -2.63974 0
M  V30 10366 C 941.007 3.72827 -3.04226 0
M  V30 10367 C 943.359 3.77634 -3.59224 0
M  V30 10368 C 940.687 3.89666 -4.38608 0
M  V30 10369 C 943.039 3.9599 -4.9333 0
M  V30 10370 C 941.703 4.01501 -5.33248 0
M  V30 10371 H 940.973 0.6883 -0.274452 0
M  V30 10372 H 943.62 1.39671 -1.31012 0
M  V30 10373 H 941.925 3.88266 -0.525071 0
M  V30 10374 H 943.622 3.90402 -0.915827 0
M  V30 10375 H 940.212 3.6051 -2.31798 0
M  V30 10376 H 944.396 3.71342 -3.2927 0
M  V30 10377 H 939.652 3.92178 -4.69048 0
M  V30 10378 H 943.826 4.0428 -5.67037 0
M  V30 10379 H 941.453 4.14301 -6.37384 0
M  V30 10380 N 943.028 0.824394 1.34319 0
M  V30 10381 C 943.958 0.262077 2.32025 0
M  V30 10382 C 944.939 -0.622277 1.58309 0
M  V30 10383 O 946.124 -0.548848 1.86283 0
M  V30 10384 C 943.254 -0.57567 3.42496 0
M  V30 10385 C 942.208 0.21167 4.27476 0
M  V30 10386 C 941.534 -0.748913 5.29429 0
M  V30 10387 C 942.834 1.42068 5.02607 0
M  V30 10388 H 944.528 1.07842 2.79304 0
M  V30 10389 H 942.074 0.520022 1.34282 0
M  V30 10390 H 944.027 -0.979251 4.09864 0
M  V30 10391 H 942.751 -1.42508 2.93869 0
M  V30 10392 H 941.41 0.596636 3.61712 0
M  V30 10393 H 941.058 -1.59432 4.77064 0
M  V30 10394 H 940.758 -0.226313 5.87164 0
M  V30 10395 H 942.282 -1.15032 5.99667 0
M  V30 10396 H 943.696 1.09103 5.62823 0
M  V30 10397 H 942.093 1.87903 5.69923 0
M  V30 10398 H 943.163 2.1981 4.32217 0
M  V30 10399 N 944.506 -1.46559 0.579492 0
M  V30 10400 C 945.752 -2.02699 0.0639363 0
M  V30 10401 C 946.085 -1.4504 -1.29139 0
M  V30 10402 O 945.36 -0.614284 -1.84545 0
M  V30 10403 C 945.643 -3.601 -0.00528618 0
M  V30 10404 C 945.496 -4.28149 1.37871 0
M  V30 10405 C 946.815 -4.34375 -0.707537 0
M  V30 10406 H 943.934 -0.736586 0.0247085 0
M  V30 10407 H 946.576 -1.74739 0.746071 0
M  V30 10408 H 944.726 -3.84052 -0.586206 0
M  V30 10409 H 946.398 -4.1547 2.00455 0
M  V30 10410 H 944.641 -3.87636 1.94732 0
M  V30 10411 H 945.312 -5.36888 1.28278 0
M  V30 10412 H 947.788 -4.15549 -0.214064 0
M  V30 10413 H 946.664 -5.44091 -0.724992 0
M  V30 10414 H 946.925 -4.052 -1.7682 0
M  V30 10415 N 945.984 -0.3171 -1.54377 0
M  V30 10416 C 947.23 0.287836 -2.00747 0
M  V30 10417 C 947.563 1.52292 -1.20502 0
M  V30 10418 O 946.838 1.92391 -0.285626 0
M  V30 10419 C 947.121 0.628423 -3.54574 0
M  V30 10420 C 946.974 -0.616922 -4.45549 0
M  V30 10421 C 948.293 1.44862 -4.15575 0
M  V30 10422 H 945.412 0.103144 -0.729747 0
M  V30 10423 H 948.054 -0.432396 -1.85014 0
M  V30 10424 H 946.204 1.24203 -3.68111 0
M  V30 10425 H 947.876 -1.25526 -4.43893 0
M  V30 10426 H 946.119 -1.24706 -4.15489 0
M  V30 10427 H 946.79 -0.334243 -5.50987 0
M  V30 10428 H 949.266 0.930015 -4.05574 0
M  V30 10429 H 948.142 1.6557 -5.23333 0
M  V30 10430 H 948.403 2.44279 -3.68484 0
M  V30 10431 N 947.462 1.57535 -0.0451378 0
M  V30 10432 C 948.708 1.92736 0.630921 0
M  V30 10433 C 949.041 0.923265 1.70849 0
M  V30 10434 O 948.316 -0.0516512 1.94431 0
M  V30 10435 C 948.599 3.38348 1.23259 0
M  V30 10436 C 948.452 4.49503 0.16349 0
M  V30 10437 C 949.771 3.84233 2.14599 0
M  V30 10438 H 946.89 0.700884 0.227883 0
M  V30 10439 H 949.532 1.89706 -0.10567 0
M  V30 10440 H 947.682 3.41061 1.86037 0
M  V30 10441 H 949.354 4.58919 -0.46808 0
M  V30 10442 H 947.597 4.30802 -0.509166 0
M  V30 10443 H 948.268 5.48457 0.624382 0
M  V30 10444 H 950.744 3.83358 1.6179 0
M  V30 10445 H 949.62 4.86781 2.53644 0
M  V30 10446 H 949.881 3.20646 3.04366 0
M  V30 10447 N 948.94 -0.228186 1.55939 0
M  V30 10448 C 949.903 -1.26621 1.91049 0
M  V30 10449 C 950.903 -1.40141 0.788491 0
M  V30 10450 O 952.093 -1.3852 1.05631 0
M  V30 10451 C 949.225 -2.64108 2.15545 0
M  V30 10452 H 950.418 -0.966978 2.83883 0
M  V30 10453 H 947.971 -0.468313 1.49119 0
M  V30 10454 H 948.706 -2.99141 1.25241 0
M  V30 10455 H 948.491 -2.55673 2.97277 0
M  V30 10456 H 949.981 -3.39025 2.43827 0
M  V30 10457 N 950.418 -1.49637 -0.494624 0
M  V30 10458 C 951.348 -1.69692 -1.60396 0
M  V30 10459 C 952.329 -0.545648 -1.61111 0
M  V30 10460 O 953.514 -0.782202 -1.77751 0
M  V30 10461 C 950.644 -1.76934 -2.9885 0
M  V30 10462 C 949.598 -2.91915 -3.13001 0
M  V30 10463 C 948.924 -2.84276 -4.5287 0
M  V30 10464 C 950.224 -4.32764 -2.92426 0
M  V30 10465 H 951.918 -2.6257 -1.43866 0
M  V30 10466 H 949.464 -1.26355 -0.690679 0
M  V30 10467 H 951.417 -1.8955 -3.76362 0
M  V30 10468 H 950.141 -0.806609 -3.16483 0
M  V30 10469 H 948.8 -2.78911 -2.37916 0
M  V30 10470 H 948.448 -1.85897 -4.67388 0
M  V30 10471 H 948.148 -3.61452 -4.63278 0
M  V30 10472 H 949.672 -2.98909 -5.32434 0
M  V30 10473 H 951.086 -4.46415 -3.59703 0
M  V30 10474 H 949.483 -5.1121 -3.143 0
M  V30 10475 H 950.553 -4.46765 -1.88491 0
M  V30 10476 N 951.896 0.746133 -1.38819 0
M  V30 10477 C 952.826 1.87344 -1.39372 0
M  V30 10478 C 953.807 1.68123 -0.258583 0
M  V30 10479 O 954.992 1.88606 -0.462769 0
M  V30 10480 C 952.122 3.24962 -1.22543 0
M  V30 10481 C 951.076 3.58799 -2.33339 0
M  V30 10482 C 950.402 4.95235 -2.01609 0
M  V30 10483 C 951.702 3.62911 -3.75624 0
M  V30 10484 H 953.396 1.87138 -2.33709 0
M  V30 10485 H 950.942 0.898937 -1.12495 0
M  V30 10486 H 952.895 4.03488 -1.21554 0
M  V30 10487 H 951.619 3.25667 -0.246707 0
M  V30 10488 H 950.278 2.82596 -2.33527 0
M  V30 10489 H 949.926 4.92508 -1.02202 0
M  V30 10490 H 949.626 5.18843 -2.75819 0
M  V30 10491 H 951.15 5.76131 -2.02251 0
M  V30 10492 H 952.564 4.31535 -3.77426 0
M  V30 10493 H 950.961 3.98031 -4.491 0
M  V30 10494 H 952.031 2.62967 -4.07402 0
M  V30 10495 N 953.375 1.23811 0.975125 0
M  V30 10496 C 954.615 1.08517 1.73215 0
M  V30 10497 C 954.979 -0.370777 1.88386 0
M  V30 10498 O 956.18 -0.645036 2.60946 0
M  V30 10499 C 954.451 1.79649 3.08968 0
M  V30 10500 S 956.01 1.79993 4.00185 0
M  V30 10501 H 952.828 0.388256 0.595633 0
M  V30 10502 H 955.43 1.57028 1.16458 0
M  V30 10503 H 954.134 2.8471 2.95581 0
M  V30 10504 H 953.665 1.31441 3.70792 0
M  V30 10505 H 955.68 0.862294 4.8865 0
M  V30 10506 N 954.853 -1.17469 1.05066 0
M  V30 10507 C 956.099 -1.87976 0.761113 0
M  V30 10508 C 956.432 -1.80756 -0.709995 0
M  V30 10509 O 955.707 -1.21469 -1.51906 0
M  V30 10510 C 955.99 -3.38055 1.2406 0
M  V30 10511 C 955.843 -3.54032 2.77455 0
M  V30 10512 C 957.162 -4.32036 0.838612 0
M  V30 10513 H 954.281 -0.682573 0.277963 0
M  V30 10514 H 956.923 -1.38147 1.30443 0
M  V30 10515 H 955.073 -3.80622 0.778388 0
M  V30 10516 H 956.745 -3.20489 3.3179 0
M  V30 10517 H 954.988 -2.96352 3.16793 0
M  V30 10518 H 955.659 -4.59377 3.06066 0
M  V30 10519 H 958.135 -3.97303 1.23651 0
M  V30 10520 H 957.011 -5.35583 1.20173 0
M  V30 10521 H 957.272 -4.41349 -0.257498 0
M  V30 10522 N 956.331 -0.831506 -1.3388 0
M  V30 10523 C 957.742 -0.481375 -1.80388 0
M  V30 10524 C 958.093 0.998993 -1.68863 0
M  V30 10525 O 957.218 1.77795 -1.2336 0
M  V30 10526 C 957.813 -0.86699 -3.27519 0
M  V30 10527 C 956.372 -0.569105 -3.72073 0
M  V30 10528 C 955.519 -1.07929 -2.55434 0
M  V30 10529 H 958.47 -1.02089 -1.21505 0
M  V30 10530 H 958.491 -0.174128 -3.80101 0
M  V30 10531 H 958.003 -1.94447 -3.35875 0
M  V30 10532 H 956.104 0.498607 -3.69249 0
M  V30 10533 H 956.217 -1.11918 -4.65845 0
M  V30 10534 H 954.581 -0.500465 -2.49735 0
M  V30 10535 H 955.364 -2.16339 -2.66556 0
M  V30 10536 N 957.809 1.4625 -0.587256 0
M  V30 10537 C 959.055 2.0323 -0.0830359 0
M  V30 10538 C 959.41 1.45007 1.26455 0
M  V30 10539 O 958.703 0.607494 1.81714 0
M  V30 10540 C 958.897 3.57382 0.036328 0
M  V30 10541 C 958.726 4.30556 -1.29814 0
M  V30 10542 C 957.496 4.69285 -1.87349 0
M  V30 10543 C 959.694 4.63806 -2.22236 0
M  V30 10544 N 957.676 5.27229 -3.14488 0
M  V30 10545 C 959.047 5.22368 -3.33964 0
M  V30 10546 C 961.102 4.45738 -2.2186 0
M  V30 10547 C 959.805 5.64769 -4.45454 0
M  V30 10548 C 961.831 4.89158 -3.32383 0
M  V30 10549 C 961.193 5.47795 -4.42832 0
M  V30 10550 H 957.292 0.77856 -0.0732716 0
M  V30 10551 H 959.876 1.78343 -0.781152 0
M  V30 10552 H 958.047 3.81973 0.703621 0
M  V30 10553 H 959.779 4.01009 0.545347 0
M  V30 10554 H 956.534 4.5219 -1.40789 0
M  V30 10555 H 956.958 5.60719 -3.79372 0
M  V30 10556 H 961.6 3.99735 -1.37739 0
M  V30 10557 H 959.318 6.09748 -5.30314 0
M  V30 10558 H 962.904 4.76926 -3.33216 0
M  V30 10559 H 961.784 5.80778 -5.26941 0
M  V30 10560 N 959.287 0.325282 1.54207 0
M  V30 10561 C 960.22 -0.582485 2.20641 0
M  V30 10562 C 961.198 -1.11441 1.18405 0
M  V30 10563 O 962.382 -1.17809 1.4715 0
M  V30 10564 C 959.509 -1.79944 2.86946 0
M  V30 10565 C 958.555 -1.39861 4.02916 0
M  V30 10566 S 959.388 -0.433859 5.3374 0
M  V30 10567 C 960.544 -1.65806 6.03539 0
M  V30 10568 H 960.777 -0.0181601 2.97294 0
M  V30 10569 H 958.31 0.109365 1.54012 0
M  V30 10570 H 960.268 -2.4977 3.25769 0
M  V30 10571 H 958.929 -2.33495 2.10092 0
M  V30 10572 H 958.122 -2.30547 4.48179 0
M  V30 10573 H 957.724 -0.780036 3.65775 0
M  V30 10574 H 960.016 -2.59524 6.25822 0
M  V30 10575 H 960.959 -1.24756 6.97023 0
M  V30 10576 H 961.367 -1.84581 5.3347 0
M  V30 10577 N 960.765 -1.57509 0.0534917 0
M  V30 10578 C 961.695 -2.14698 -0.917999 0
M  V30 10579 C 962.676 -1.06924 -1.32292 0
M  V30 10580 O 963.861 -1.34875 -1.39723 0
M  V30 10581 C 960.991 -2.69383 -2.19203 0
M  V30 10582 C 959.945 -3.82161 -1.9271 0
M  V30 10583 C 959.271 -4.23373 -3.26587 0
M  V30 10584 C 960.571 -5.07199 -1.24686 0
M  V30 10585 H 962.265 -2.96125 -0.44165 0
M  V30 10586 H 959.811 -1.42446 -0.210993 0
M  V30 10587 H 961.764 -3.08031 -2.87567 0
M  V30 10588 H 960.488 -1.85151 -2.69048 0
M  V30 10589 H 959.147 -3.43989 -1.26757 0
M  V30 10590 H 958.795 -3.36089 -3.74237 0
M  V30 10591 H 958.495 -4.99385 -3.09658 0
M  V30 10592 H 960.019 -4.64623 -3.96178 0
M  V30 10593 H 961.433 -5.43279 -1.83088 0
M  V30 10594 H 959.83 -5.88369 -1.18076 0
M  V30 10595 H 960.9 -4.84386 -0.223227 0
M  V30 10596 N 962.243 0.219913 -1.56058 0
M  V30 10597 C 963.173 1.27572 -1.9557 0
M  V30 10598 C 964.154 1.48801 -0.824148 0
M  V30 10599 O 965.339 1.60957 -1.08658 0
M  V30 10600 C 962.469 2.62517 -2.27381 0
M  V30 10601 C 961.423 2.55941 -3.43042 0
M  V30 10602 C 960.749 3.94931 -3.60463 0
M  V30 10603 C 962.049 2.10584 -4.77966 0
M  V30 10604 H 963.743 0.947482 -2.84013 0
M  V30 10605 H 961.289 0.454337 -1.36645 0
M  V30 10606 H 963.242 3.36538 -2.53615 0
M  V30 10607 H 961.966 2.97031 -1.35794 0
M  V30 10608 H 960.625 1.84377 -3.1686 0
M  V30 10609 H 960.273 4.26756 -2.66249 0
M  V30 10610 H 959.973 3.91413 -4.38258 0
M  V30 10611 H 961.497 4.70611 -3.89046 0
M  V30 10612 H 962.911 2.74349 -5.03394 0
M  V30 10613 H 961.308 2.18122 -5.59055 0
M  V30 10614 H 962.378 1.05818 -4.73213 0
M  V30 10615 N 963.721 1.49897 0.486681 0
M  V30 10616 C 964.968 1.60105 1.23986 0
M  V30 10617 C 965.296 0.294228 1.92262 0
M  V30 10618 O 964.551 -0.718876 1.82018 0
M  V30 10619 C 964.85 2.71982 2.31863 0
M  V30 10620 C 964.516 4.13 1.80948 0
M  V30 10621 C 963.178 4.51373 1.66782 0
M  V30 10622 C 965.53 5.01198 1.43004 0
M  V30 10623 C 962.858 5.75701 1.13072 0
M  V30 10624 C 965.21 6.26058 0.90742 0
M  V30 10625 C 963.874 6.63247 0.752269 0
M  V30 10626 H 963.144 0.585866 0.453698 0
M  V30 10627 H 965.791 1.83778 0.538305 0
M  V30 10628 H 964.096 2.42336 3.07865 0
M  V30 10629 H 965.793 2.77087 2.89869 0
M  V30 10630 H 962.383 3.82718 1.92937 0
M  V30 10631 H 966.567 4.72196 1.52789 0
M  V30 10632 H 961.823 6.03202 0.997842 0
M  V30 10633 H 965.997 6.9377 0.604684 0
M  V30 10634 H 963.624 7.59466 0.33392 0
M  V30 10635 N 965.199 -0.738761 1.39212 0
M  V30 10636 C 966.146 -1.85273 1.37631 0
M  V30 10637 C 967.116 -1.64407 0.236572 0
M  V30 10638 O 968.301 -1.85866 0.431104 0
M  V30 10639 C 965.441 -3.22745 1.22188 0
M  V30 10640 C 964.554 -3.55342 2.45674 0
M  V30 10641 C 963.689 -4.82195 2.22847 0
M  V30 10642 C 962.728 -5.07625 3.42029 0
M  V30 10643 N 961.865 -6.25679 3.18543 0
M  V30 10644 H 966.705 -1.85959 2.32859 0
M  V30 10645 H 964.242 -0.908716 1.15675 0
M  V30 10646 H 966.2 -4.02095 1.11245 0
M  V30 10647 H 964.83 -3.21347 0.30592 0
M  V30 10648 H 963.882 -2.70722 2.67233 0
M  V30 10649 H 965.194 -3.70054 3.34457 0
M  V30 10650 H 964.348 -5.69518 2.09126 0
M  V30 10651 H 963.087 -4.6965 1.31454 0
M  V30 10652 H 962.092 -4.18765 3.56253 0
M  V30 10653 H 963.317 -5.22058 4.34319 0
M  V30 10654 H 961.263 -6.14429 2.2981 0
M  V30 10655 H 961.18 -6.40961 4.0088 0
M  V30 10656 H 962.448 -7.15851 3.08508 0
M  V30 10657 N 966.677 -1.24326 -0.968545 0
M  V30 10658 C 968.088 -1.07561 -1.52603 0
M  V30 10659 C 968.439 0.353245 -1.92994 0
M  V30 10660 O 967.564 1.24151 -1.77244 0
M  V30 10661 C 968.159 -1.94634 -2.77314 0
M  V30 10662 C 966.718 -1.82095 -3.29421 0
M  V30 10663 C 965.865 -1.8962 -2.02335 0
M  V30 10664 H 968.816 -1.37815 -0.786932 0
M  V30 10665 H 968.837 -1.47812 -3.50616 0
M  V30 10666 H 968.349 -2.98621 -2.47885 0
M  V30 10667 H 966.45 -0.809376 -3.63703 0
M  V30 10668 H 966.563 -2.66142 -3.98378 0
M  V30 10669 H 964.927 -1.33339 -2.17009 0
M  V30 10670 H 965.71 -2.95185 -1.75273 0
M  V30 10671 N 968.156 1.1691 -1.05688 0
M  V30 10672 C 969.086 2.23275 -0.683402 0
M  V30 10673 C 970.067 1.6704 0.321206 0
M  V30 10674 O 971.252 1.93191 0.197691 0
M  V30 10675 C 968.382 3.47244 -0.0626006 0
M  V30 10676 C 967.336 4.16333 -0.992513 0
M  V30 10677 C 966.662 5.34182 -0.23533 0
M  V30 10678 C 967.962 4.68002 -2.31886 0
M  V30 10679 H 969.656 2.54771 -1.57264 0
M  V30 10680 H 967.202 1.2246 -0.757606 0
M  V30 10681 H 969.155 4.20874 0.210503 0
M  V30 10682 H 967.879 3.1503 0.861616 0
M  V30 10683 H 966.538 3.44622 -1.25026 0
M  V30 10684 H 966.186 4.9822 0.69181 0
M  V30 10685 H 965.886 5.81346 -0.855002 0
M  V30 10686 H 967.41 6.10592 0.0303717 0
M  V30 10687 H 968.824 5.33244 -2.10531 0
M  V30 10688 H 967.221 5.25764 -2.89296 0
M  V30 10689 H 968.291 3.84541 -2.95391 0
M  V30 10690 N 969.634 0.838594 1.33437 0
M  V30 10691 C 970.88 0.434813 1.98084 0
M  V30 10692 C 971.213 -1.00331 1.66275 0
M  V30 10693 O 970.488 -1.70139 0.942501 0
M  V30 10694 C 970.771 0.655602 3.54082 0
M  V30 10695 C 970.624 2.14097 3.95578 0
M  V30 10696 C 971.943 0.101576 4.39983 0
M  V30 10697 H 969.062 0.159456 0.719544 0
M  V30 10698 H 971.704 1.05406 1.58081 0
M  V30 10699 H 969.854 0.128501 3.88287 0
M  V30 10700 H 971.526 2.73292 3.71631 0
M  V30 10701 H 969.769 2.62558 3.4532 0
M  V30 10702 H 970.44 2.24621 5.04231 0
M  V30 10703 H 972.916 0.552122 4.12421 0
M  V30 10704 H 971.792 0.28575 5.48156 0
M  V30 10705 H 972.053 -0.994616 4.30767 0
M  V30 10706 N 971.112 -1.45937 0.595003 0
M  V30 10707 C 972.042 -2.33198 -0.11871 0
M  V30 10708 C 973.023 -1.46083 -0.871423 0
M  V30 10709 O 974.208 -1.74879 -0.844461 0
M  V30 10710 C 971.338 -3.28576 -1.12495 0
M  V30 10711 C 970.292 -4.25229 -0.486275 0
M  V30 10712 C 969.618 -5.10204 -1.59986 0
M  V30 10713 C 970.918 -5.19019 0.584473 0
M  V30 10714 H 972.612 -2.93122 0.609886 0
M  V30 10715 H 970.158 -1.40951 0.294742 0
M  V30 10716 H 972.111 -3.88485 -1.6327 0
M  V30 10717 H 970.835 -2.66784 -1.88398 0
M  V30 10718 H 969.494 -3.666 0.000507962 0
M  V30 10719 H 969.142 -4.44789 -2.34886 0
M  V30 10720 H 968.842 -5.75669 -1.1781 0
M  V30 10721 H 970.366 -5.7298 -2.11014 0
M  V30 10722 H 971.78 -5.73073 0.161297 0
M  V30 10723 H 970.177 -5.92893 0.927256 0
M  V30 10724 H 971.247 -4.62208 1.46601 0
M  V30 10725 N 972.59 -0.333456 -1.54032 0
M  V30 10726 C 974.006 0.0188405 -1.59589 0
M  V30 10727 C 974.206 1.49615 -1.34972 0
M  V30 10728 O 973.262 2.2535 -1.13901 0
M  V30 10729 C 974.575 -0.408273 -2.97915 0
M  V30 10730 C 976.123 -0.359763 -3.10926 0
M  V30 10731 C 976.598 -0.76219 -4.51613 0
M  V30 10732 N 978.089 -0.715981 -4.57633 0
M  V30 10733 C 978.824 -0.999436 -5.64623 0
M  V30 10734 N 978.32 -1.35053 -6.79509 0
M  V30 10735 N 980.113 -0.924343 -5.54448 0
M  V30 10736 H 972.264 -1.29587 -1.68289 0
M  V30 10737 H 974.527 -0.527584 -0.787629 0
M  V30 10738 H 974.233 -1.43793 -3.20962 0
M  V30 10739 H 974.107 0.221685 -3.76548 0
M  V30 10740 H 976.494 0.660703 -2.87609 0
M  V30 10741 H 976.575 -1.02479 -2.34375 0
M  V30 10742 H 976.219 -1.78062 -4.75664 0
M  V30 10743 H 976.149 -0.0747478 -5.26547 0
M  V30 10744 H 978.64 -0.456875 -3.75128 0
M  V30 10745 H 978.953 -1.55194 -7.57057 0
M  V30 10746 H 977.298 -1.38889 -6.80981 0
M  V30 10747 H 980.489 -0.649469 -4.63573 0
M  V30 10748 H 980.662 -1.1486 -6.37739 0
M  V30 10749 N 974.068 1.57479 -0.061844 0
M  V30 10750 C 975.484 1.56855 0.294753 0
M  V30 10751 C 975.684 1.07042 1.70717 0
M  V30 10752 O 974.74 0.731817 2.41662 0
M  V30 10753 C 976.053 3.00486 0.113484 0
M  V30 10754 C 977.601 3.1246 0.183778 0
M  V30 10755 C 978.076 4.5799 0.0309092 0
M  V30 10756 N 979.567 4.63119 0.0868393 0
M  V30 10757 C 980.302 5.734 -0.00717446 0
M  V30 10758 N 979.798 6.92628 -0.154144 0
M  V30 10759 N 981.591 5.62078 0.0491763 0
M  V30 10760 H 973.742 1.88176 -0.985058 0
M  V30 10761 H 976.005 0.867051 -0.383309 0
M  V30 10762 H 975.711 3.41004 -0.86075 0
M  V30 10763 H 975.585 3.67029 0.870023 0
M  V30 10764 H 977.972 2.71834 1.14849 0
M  V30 10765 H 978.053 2.48574 -0.603697 0
M  V30 10766 H 977.697 4.99303 -0.930526 0
M  V30 10767 H 977.627 5.19895 0.837664 0
M  V30 10768 H 980.118 3.77374 0.199245 0
M  V30 10769 H 980.431 7.72492 -0.218296 0
M  V30 10770 H 978.776 6.94742 -0.189372 0
M  V30 10771 H 981.967 4.67817 0.162626 0
M  V30 10772 H 982.14 6.47994 -0.0275478 0
M  V30 10773 N 975.546 -0.211634 1.56173 0
M  V30 10774 C 976.478 -1.286 1.89723 0
M  V30 10775 C 977.491 -1.42549 0.786361 0
M  V30 10776 O 978.68 -1.4327 1.06471 0
M  V30 10777 C 975.78 -2.66036 2.09948 0
M  V30 10778 C 974.953 -2.73908 3.41018 0
M  V30 10779 C 974.012 -3.92425 3.50555 0
M  V30 10780 O 973.038 -3.803 4.2351 0
M  V30 10781 N 974.24 -5.07165 2.82426 0
M  V30 10782 H 977.005 -1.00142 2.82474 0
M  V30 10783 H 974.566 -0.401633 1.56839 0
M  V30 10784 H 976.558 -3.43719 2.13634 0
M  V30 10785 H 975.128 -2.87052 1.23774 0
M  V30 10786 H 974.348 -1.82625 3.49345 0
M  V30 10787 H 975.636 -2.76145 4.27342 0
M  V30 10788 H 975.034 -5.19913 2.2295 0
M  V30 10789 H 973.591 -5.82855 2.9176 0
M  V30 10790 N 977.024 -1.50153 -0.478725 0
M  V30 10791 C 978.254 -1.64266 -1.253 0
M  V30 10792 C 978.662 -0.322256 -1.86435 0
M  V30 10793 O 978.005 0.704925 -1.69636 0
M  V30 10794 C 978.067 -2.67017 -2.40712 0
M  V30 10795 C 977.731 -4.10779 -2.00274 0
M  V30 10796 C 978.728 -4.96889 -1.52963 0
M  V30 10797 C 976.413 -4.5665 -2.09228 0
M  V30 10798 C 978.407 -6.26914 -1.15139 0
M  V30 10799 C 976.094 -5.86683 -1.71015 0
M  V30 10800 C 977.092 -6.71641 -1.24048 0
M  V30 10801 O 976.78 -7.99248 -0.863617 0
M  V30 10802 H 976.512 -0.555382 -0.385392 0
M  V30 10803 H 979.066 -1.97078 -0.578751 0
M  V30 10804 H 977.296 -2.29432 -3.11284 0
M  V30 10805 H 978.985 -2.70428 -3.02694 0
M  V30 10806 H 979.751 -4.62669 -1.45474 0
M  V30 10807 H 975.63 -3.90674 -2.44735 0
M  V30 10808 H 979.174 -6.93179 -0.784089 0
M  V30 10809 H 975.071 -6.20426 -1.78162 0
M  V30 10810 H 975.839 -8.12452 -0.993139 0
M  V30 10811 N 978.502 0.731368 -1.39602 0
M  V30 10812 C 979.432 1.85855 -1.41351 0
M  V30 10813 C 980.413 1.67839 -0.2764 0
M  V30 10814 O 981.598 1.88104 -0.482747 0
M  V30 10815 C 978.728 3.23644 -1.25983 0
M  V30 10816 C 977.682 3.56304 -2.37132 0
M  V30 10817 C 977.008 4.93069 -2.0685 0
M  V30 10818 C 978.308 3.58906 -3.79452 0
M  V30 10819 H 980.002 1.84648 -2.3568 0
M  V30 10820 H 977.548 0.886955 -1.13442 0
M  V30 10821 H 979.501 4.02176 -1.25826 0
M  V30 10822 H 978.225 3.25387 -0.281234 0
M  V30 10823 H 976.884 2.80104 -2.36511 0
M  V30 10824 H 976.532 4.91396 -1.0742 0
M  V30 10825 H 976.232 5.15888 -2.81306 0
M  V30 10826 H 977.756 5.73953 -2.0835 0
M  V30 10827 H 979.17 4.27508 -3.81982 0
M  V30 10828 H 977.567 3.93246 -4.53297 0
M  V30 10829 H 978.637 2.58631 -4.10168 0
M  V30 10830 N 979.98 1.24838 0.961938 0
M  V30 10831 C 981.396 1.01502 1.23165 0
M  V30 10832 C 981.596 -0.272651 1.99647 0
M  V30 10833 O 980.652 -0.987297 2.32398 0
M  V30 10834 C 981.965 2.23366 2.01316 0
M  V30 10835 C 983.513 2.28051 2.14387 0
M  V30 10836 C 983.988 3.49552 2.95935 0
M  V30 10837 N 985.479 3.49904 3.03515 0
M  V30 10838 C 986.214 4.40577 3.66987 0
M  V30 10839 N 985.71 5.41512 4.3213 0
M  V30 10840 N 987.503 4.28275 3.64056 0
M  V30 10841 H 979.654 2.07576 0.450086 0
M  V30 10842 H 981.917 0.911205 0.261551 0
M  V30 10843 H 981.623 3.16913 1.5251 0
M  V30 10844 H 981.497 2.25949 3.02038 0
M  V30 10845 H 983.884 1.35032 2.62393 0
M  V30 10846 H 983.965 2.29491 1.12994 0
M  V30 10847 H 983.609 4.42889 2.4862 0
M  V30 10848 H 983.539 3.45357 3.97538 0
M  V30 10849 H 986.03 2.76885 2.57183 0
M  V30 10850 H 986.343 6.06924 4.78396 0
M  V30 10851 H 984.688 5.45393 4.3078 0
M  V30 10852 H 987.879 3.48653 3.12344 0
M  V30 10853 H 988.052 4.99138 4.13237 0
M  V30 10854 N 981.458 -1.16348 1.06306 0
M  V30 10855 C 982.874 -1.38873 0.786543 0
M  V30 10856 C 983.074 -1.91915 -0.614061 0
M  V30 10857 O 982.13 -2.11804 -1.3746 0
M  V30 10858 C 983.443 -2.36936 1.85154 0
M  V30 10859 C 984.991 -2.5062 1.87506 0
M  V30 10860 C 985.466 -3.51965 2.9306 0
M  V30 10861 N 986.957 -3.59492 2.92095 0
M  V30 10862 C 987.692 -4.37699 3.70415 0
M  V30 10863 N 987.188 -5.19327 4.58553 0
M  V30 10864 N 988.981 -4.32683 3.58806 0
M  V30 10865 H 981.132 -0.802542 1.96655 0
M  V30 10866 H 983.395 -0.415304 0.852189 0
M  V30 10867 H 983.101 -2.05056 2.85736 0
M  V30 10868 H 982.975 -3.36585 1.70267 0
M  V30 10869 H 985.362 -2.81804 0.875827 0
M  V30 10870 H 985.443 -1.51006 2.06472 0
M  V30 10871 H 985.087 -3.21518 3.93177 0
M  V30 10872 H 985.017 -4.51309 2.71344 0
M  V30 10873 H 987.508 -3.01222 2.28197 0
M  V30 10874 H 987.821 -5.76216 5.1497 0
M  V30 10875 H 986.166 -5.1867 4.62608 0
M  V30 10876 H 989.357 -3.67971 2.89335 0
M  V30 10877 H 989.53 -4.93386 4.20088 0
M  V30 10878 N 982.937 -0.845659 -1.3299 0
M  V30 10879 C 983.884 -0.281761 -2.29074 0
M  V30 10880 C 984.854 0.606237 -1.54641 0
M  V30 10881 O 986.039 0.543063 -1.82908 0
M  V30 10882 C 983.179 0.531451 -3.40983 0
M  V30 10883 C 982.292 -0.381328 -4.30314 0
M  V30 10884 C 981.427 0.443643 -5.29344 0
M  V30 10885 C 980.466 -0.467101 -6.10315 0
M  V30 10886 N 979.603 0.320148 -7.0137 0
M  V30 10887 H 984.443 -1.10641 -2.76699 0
M  V30 10888 H 981.98 -0.55706 -1.36144 0
M  V30 10889 H 983.938 1.01848 -4.04577 0
M  V30 10890 H 982.568 1.32101 -2.94532 0
M  V30 10891 H 981.62 -0.986701 -3.6738 0
M  V30 10892 H 982.932 -1.08067 -4.86953 0
M  V30 10893 H 982.086 0.994212 -5.98498 0
M  V30 10894 H 980.825 1.17639 -4.73299 0
M  V30 10895 H 979.83 -1.02963 -5.40073 0
M  V30 10896 H 981.055 -1.19832 -6.68444 0
M  V30 10897 H 979.001 1.03615 -6.47765 0
M  V30 10898 H 978.918 -0.320338 -7.55321 0
M  V30 10899 H 980.186 0.852735 -7.74822 0
M  V30 10900 N 984.415 1.45619 -0.602734 0
M  V30 10901 C 985.365 2.27568 0.140264 0
M  V30 10902 C 986.349 1.3704 0.84314 0
M  V30 10903 O 987.541 1.61067 0.733931 0
M  V30 10904 C 984.67 3.23812 1.14019 0
M  V30 10905 C 983.756 4.21828 0.438406 0
M  V30 10906 N 984.147 5.03148 -0.517245 0
M  V30 10907 C 982.445 4.40684 0.686588 0
M  V30 10908 C 983.146 5.74229 -0.929291 0
M  V30 10909 N 982.122 5.42909 -0.274086 0
M  V30 10910 H 985.924 2.87839 -0.5938 0
M  V30 10911 H 983.438 1.56712 -0.426033 0
M  V30 10912 H 985.435 3.8125 1.68684 0
M  V30 10913 H 984.095 2.65102 1.87486 0
M  V30 10914 H 985.106 5.1013 -0.893758 0
M  V30 10915 H 981.783 3.93102 1.4063 0
M  V30 10916 H 983.173 6.49586 -1.7172 0
M  V30 10917 N 985.893 0.34162 1.53853 0
M  V30 10918 C 986.823 -0.508431 2.27897 0
M  V30 10919 C 987.804 -1.10425 1.29384 0
M  V30 10920 O 988.989 -1.126 1.58224 0
M  V30 10921 C 986.119 -1.66048 3.05034 0
M  V30 10922 C 985.073 -1.19309 4.11035 0
M  V30 10923 C 984.399 -2.4335 4.76114 0
M  V30 10924 C 985.699 -0.294952 5.21467 0
M  V30 10925 H 987.393 0.109251 2.99201 0
M  V30 10926 H 984.939 0.0539847 1.43899 0
M  V30 10927 H 986.892 -2.26158 3.5557 0
M  V30 10928 H 985.616 -2.30503 2.31379 0
M  V30 10929 H 984.275 -0.614809 3.61408 0
M  V30 10930 H 983.923 -3.06208 3.99056 0
M  V30 10931 H 983.623 -2.1276 5.47729 0
M  V30 10932 H 985.147 -3.0419 5.29434 0
M  V30 10933 H 986.561 -0.80285 5.67651 0
M  V30 10934 H 984.958 -0.0810221 6.00045 0
M  V30 10935 H 986.028 0.669433 4.80257 0
M  V30 10936 N 987.371 -1.57444 0.0701946 0
M  V30 10937 C 988.619 -1.93047 -0.598106 0
M  V30 10938 C 988.94 -0.950841 -1.70247 0
M  V30 10939 O 988.21 0.00127177 -1.959 0
M  V30 10940 H 986.79 -0.712648 -0.223924 0
M  V30 10941 H 989.452 -1.94481 0.127674 0
M  V30 10942 H 988.548 -2.94807 -1.02445 0
M  V30 10943 N 988.849 0.203349 -1.56283 0
M  V30 10944 C 990.077 0.941426 -1.84241 0
M  V30 10945 C 990.492 1.77197 -0.651658 0
M  V30 10946 O 989.849 1.78506 0.379713 0
M  V30 10947 C 989.9 1.84429 -3.10915 0
M  V30 10948 O 989.621 1.04729 -4.25398 0
M  V30 10949 C 991.122 2.69474 -3.51993 0
M  V30 10950 H 988.342 0.27507 -0.612027 0
M  V30 10951 H 990.886 0.213088 -2.03387 0
M  V30 10952 H 989.041 2.52635 -2.93691 0
M  V30 10953 H 989.455 1.66179 -4.97478 0
M  V30 10954 H 990.929 3.28495 -4.43616 0
M  V30 10955 H 991.406 3.42775 -2.74594 0
M  V30 10956 H 992.012 2.06652 -3.71719 0
M  V30 10957 N 990.327 1.50405 0.470755 0
M  V30 10958 C 991.257 1.72222 1.57676 0
M  V30 10959 C 992.238 0.57121 1.60222 0
M  V30 10960 O 993.423 0.810381 1.76484 0
M  V30 10961 C 990.553 1.81666 2.95998 0
M  V30 10962 C 989.507 2.96857 3.08318 0
M  V30 10963 C 988.833 2.91445 4.4829 0
M  V30 10964 C 990.133 4.37361 2.85504 0
M  V30 10965 H 991.827 2.64825 1.39671 0
M  V30 10966 H 989.373 1.27438 0.67049 0
M  V30 10967 H 991.326 1.95514 3.73299 0
M  V30 10968 H 990.05 0.856856 3.1516 0
M  V30 10969 H 988.709 2.82661 2.33449 0
M  V30 10970 H 988.357 1.93309 4.64371 0
M  V30 10971 H 988.057 3.68776 4.57469 0
M  V30 10972 H 989.581 3.07341 5.27611 0
M  V30 10973 H 990.995 4.52081 3.52555 0
M  V30 10974 H 989.392 5.16145 3.06127 0
M  V30 10975 H 990.462 4.49708 1.81359 0
M  V30 10976 N 991.805 -0.723954 1.39988 0
M  V30 10977 C 992.753 -1.85938 1.39749 0
M  V30 10978 C 993.747 -1.67085 0.279112 0
M  V30 10979 O 994.953 -1.74291 0.44972 0
M  V30 10980 H 991.328 -0.612246 0.436644 0
M  V30 10981 H 993.299 -1.83255 2.355 0
M  V30 10982 C 992.048 -3.23726 1.26874 0
M  V30 10983 H 991.371 -3.38835 2.12206 0
M  V30 10984 H 992.811 -4.03332 1.30765 0
M  V30 10985 C 991.27 -3.36893 -0.0218317 0
M  V30 10986 O 991.8 -3.89363 -0.987905 0
M  V30 10987 N 990.006 -2.90465 -0.0885618 0
M  V30 10988 H 989.553 -2.47954 0.698314 0
M  V30 10989 H 989.511 -2.99654 -0.951557 0
M  V30 10990 N 993.283 -1.25346 -0.955304 0
M  V30 10991 C 994.53 -1.10055 -1.69983 0
M  V30 10992 C 994.858 0.358586 -1.91166 0
M  V30 10993 O 994.113 1.28071 -1.47974 0
M  V30 10994 C 994.412 -1.7993 -3.08804 0
M  V30 10995 C 994.078 -3.29851 -3.07424 0
M  V30 10996 C 992.74 -3.7075 -3.06754 0
M  V30 10997 C 995.092 -4.25636 -3.00805 0
M  V30 10998 C 992.42 -5.05847 -2.97214 0
M  V30 10999 C 994.772 -5.60756 -2.92806 0
M  V30 11000 C 993.436 -6.00984 -2.90472 0
M  V30 11001 H 992.706 -0.402718 -0.622012 0
M  V30 11002 H 995.353 -1.5561 -1.11614 0
M  V30 11003 H 993.658 -1.26803 -3.70713 0
M  V30 11004 H 995.355 -1.65551 -3.65231 0
M  V30 11005 H 991.945 -2.97308 -3.08716 0
M  V30 11006 H 996.129 -3.9503 -3.00441 0
M  V30 11007 H 991.385 -5.36196 -2.93775 0
M  V30 11008 H 995.559 -6.34671 -2.86645 0
M  V30 11009 H 993.186 -7.05626 -2.82835 0
M  V30 11010 N 994.761 1.15782 -1.06922 0
M  V30 11011 C 996.009 1.86097 -0.788192 0
M  V30 11012 C 996.33 1.82475 0.687606 0
M  V30 11013 O 995.6 1.26266 1.49778 0
M  V30 11014 H 994.18 0.689008 -0.288577 0
M  V30 11015 H 996.842 1.40377 -1.35205 0
M  V30 11016 H 995.938 2.91358 -1.1188 0
M  V30 11017 N 996.239 0.8527 1.3254 0
M  V30 11018 C 997.487 0.454224 1.96929 0
M  V30 11019 C 997.808 -0.993034 1.67821 0
M  V30 11020 O 997.078 -1.69371 0.984393 0
M  V30 11021 H 995.658 0.164977 0.728554 0
M  V30 11022 H 998.32 1.0887 1.61658 0
M  V30 11023 H 997.416 0.597667 3.06324 0
M  V30 11024 N 997.718 -1.45297 0.610449 0
M  V30 11025 C 998.967 -2.0143 0.104323 0
M  V30 11026 C 999.28 -1.48431 -1.27388 0
M  V30 11027 O 1000.49 -1.96558 -1.87289 0
M  V30 11028 C 998.942 -3.59644 0.135812 0
M  V30 11029 C 998.55 -4.2164 1.51405 0
M  V30 11030 C 1000.29 -4.2333 -0.314922 0
M  V30 11031 C 998.201 -5.72015 1.50176 0
M  V30 11032 H 997.131 -0.753176 0.035233 0
M  V30 11033 H 999.782 -1.66738 0.7662 0
M  V30 11034 H 998.164 -3.91538 -0.592773 0
M  V30 11035 H 999.338 -4.01315 2.26457 0
M  V30 11036 H 997.653 -3.70159 1.90712 0
M  V30 11037 H 1000.25 -5.33597 -0.343335 0
M  V30 11038 H 1000.59 -3.94206 -1.33817 0
M  V30 11039 H 1001.13 -3.96163 0.360489 0
M  V30 11040 H 997.865 -6.05842 2.50271 0
M  V30 11041 H 997.385 -5.94523 0.793869 0
M  V30 11042 H 999.064 -6.35266 1.22665 0
M  V30 11043 N 999.196 -0.349774 -1.5367 0
M  V30 11044 C 1000.61 0.00191293 -1.596 0
M  V30 11045 C 1000.81 1.48175 -1.36552 0
M  V30 11046 O 999.868 2.24129 -1.16285 0
M  V30 11047 C 1001.18 -0.439848 -2.97466 0
M  V30 11048 C 1002.73 -0.392721 -3.10526 0
M  V30 11049 C 1003.2 -0.810047 -4.5078 0
M  V30 11050 N 1004.69 -0.764478 -4.56848 0
M  V30 11051 C 1005.43 -1.05927 -5.63531 0
M  V30 11052 N 1004.93 -1.42253 -6.78038 0
M  V30 11053 N 1006.72 -0.983098 -5.53436 0
M  V30 11054 H 998.87 -1.31364 -1.66905 0
M  V30 11055 H 1001.13 -0.535908 -0.781989 0
M  V30 11056 H 1000.84 -1.47189 -3.19419 0
M  V30 11057 H 1000.71 0.181735 -3.76762 0
M  V30 11058 H 1003.1 0.630161 -2.88293 0
M  V30 11059 H 1003.18 -1.04959 -2.33275 0
M  V30 11060 H 1002.82 -1.83097 -4.73749 0
M  V30 11061 H 1002.75 -0.130591 -5.26438 0
M  V30 11062 H 1005.25 -0.496637 -3.74622 0
M  V30 11063 H 1005.56 -1.63215 -7.55368 0
M  V30 11064 H 1003.9 -1.46104 -6.79469 0
M  V30 11065 H 1007.09 -0.698601 -4.62858 0
M  V30 11066 H 1007.27 -1.21618 -6.36485 0
M  V30 11067 N 1000.67 1.57404 -0.0785433 0
M  V30 11068 C 1001.92 1.94031 0.589896 0
M  V30 11069 C 1002.25 0.959297 1.68852 0
M  V30 11070 O 1001.53 -0.0103978 1.94497 0
M  V30 11071 C 1001.81 3.40886 1.16055 0
M  V30 11072 C 1001.66 4.49748 0.0681072 0
M  V30 11073 C 1002.98 3.88699 2.06401 0
M  V30 11074 H 1000.1 0.70556 0.212965 0
M  V30 11075 H 1002.74 1.89439 -0.145886 0
M  V30 11076 H 1000.89 3.4493 1.78761 0
M  V30 11077 H 1002.57 4.57823 -0.565318 0
M  V30 11078 H 1000.81 4.29625 -0.600431 0
M  V30 11079 H 1001.48 5.49658 0.507906 0
M  V30 11080 H 1003.96 3.86703 1.53622 0
M  V30 11081 H 1002.83 4.92052 2.43261 0
M  V30 11082 H 1003.09 3.2703 2.97496 0
M  V30 11083 N 1002.15 -0.195058 1.56388 0
M  V30 11084 C 1003.4 -0.913636 1.8027 0
M  V30 11085 C 1003.72 -1.83791 0.651606 0
M  V30 11086 O 1002.99 -1.931 -0.330057 0
M  V30 11087 H 1001.57 -0.34036 0.664954 0
M  V30 11088 H 1004.23 -0.200559 1.93865 0
M  V30 11089 H 1003.33 -1.50473 2.7343 0
M  V30 11090 N 1003.63 -1.50653 -0.462772 0
M  V30 11091 C 1004.58 -1.70661 -1.58043 0
M  V30 11092 C 1005.57 -0.572533 -1.59432 0
M  V30 11093 O 1006.78 -0.753257 -1.63481 0
M  V30 11094 H 1003.15 -0.538805 -0.524588 0
M  V30 11095 H 1005.12 -2.64399 -1.38332 0
M  V30 11096 C 1003.87 -1.82558 -2.95919 0
M  V30 11097 H 1003.2 -2.69216 -2.95572 0
M  V30 11098 H 1004.64 -2.0058 -3.73556 0
M  V30 11099 C 1003.09 -0.57916 -3.31885 0
M  V30 11100 O 1003.62 0.277888 -4.00738 0
M  V30 11101 N 1001.83 -0.430723 -2.8739 0
M  V30 11102 H 1001.38 -1.1292 -2.31531 0
M  V30 11103 H 1001.34 0.402061 -3.11819 0
M  V30 11104 N 1005.11 0.71652 -1.4037 0
M  V30 11105 C 1006.36 1.47347 -1.38324 0
M  V30 11106 C 1006.68 1.94995 0.0139949 0
M  V30 11107 O 1005.95 1.7028 0.968585 0
M  V30 11108 H 1004.53 0.546662 -0.509087 0
M  V30 11109 H 1007.19 0.849455 -1.75415 0
M  V30 11110 H 1006.29 2.34675 -2.05752 0
M  V30 11111 N 1006.59 1.25851 0.948643 0
M  V30 11112 C 1008 1.09975 1.50872 0
M  V30 11113 C 1008.35 -0.322497 1.93531 0
M  V30 11114 O 1007.47 -1.21316 1.79197 0
M  V30 11115 C 1008.07 1.99021 2.74182 0
M  V30 11116 C 1006.63 1.87313 3.26483 0
M  V30 11117 C 1005.77 1.92815 1.99293 0
M  V30 11118 H 1008.73 1.3905 0.764908 0
M  V30 11119 H 1008.75 1.53372 3.4822 0
M  V30 11120 H 1008.26 3.02527 2.43103 0
M  V30 11121 H 1006.36 0.867136 3.62369 0
M  V30 11122 H 1006.47 2.72446 3.94094 0
M  V30 11123 H 1004.84 1.36774 2.1486 0
M  V30 11124 H 1005.62 2.97936 1.70554 0
M  V30 11125 N 1008.06 -1.15214 1.07534 0
M  V30 11126 C 1009.29 -1.89922 0.820804 0
M  V30 11127 C 1009.71 -1.78114 -0.626177 0
M  V30 11128 O 1009.06 -1.13435 -1.42964 0
M  V30 11129 C 1009.12 -3.40207 1.22236 0
M  V30 11130 O 1008.84 -3.51676 2.61257 0
M  V30 11131 C 1010.34 -4.31934 0.997393 0
M  V30 11132 H 1007.56 -0.601865 0.296647 0
M  V30 11133 H 1010.1 -1.45965 1.43229 0
M  V30 11134 H 1008.26 -3.8182 0.655167 0
M  V30 11135 H 1008.67 -4.44959 2.77689 0
M  V30 11136 H 1010.14 -5.35791 1.32785 0
M  V30 11137 H 1010.62 -4.3915 -0.0661599 0
M  V30 11138 H 1011.23 -3.96066 1.54958 0
M  V30 11139 N 1009.54 -0.859717 -1.32086 0
M  V30 11140 C 1010.45 -0.31108 -2.32528 0
M  V30 11141 C 1011.47 0.573714 -1.6427 0
M  V30 11142 O 1012.64 0.472878 -1.9577 0
M  V30 11143 C 1009.71 0.487256 -3.43259 0
M  V30 11144 C 1008.77 -0.424279 -4.27198 0
M  V30 11145 C 1008 0.336051 -5.32641 0
M  V30 11146 O 1008.23 1.56541 -5.48499 0
M  V30 11147 O 1007.16 -0.300777 -6.01148 0
M  V30 11148 H 1010.99 -1.14336 -2.81355 0
M  V30 11149 H 1008.57 -0.622794 -1.358 0
M  V30 11150 H 1010.45 0.940203 -4.10777 0
M  V30 11151 H 1009.13 1.29626 -2.96612 0
M  V30 11152 H 1008.04 -0.925509 -3.62471 0
M  V30 11153 H 1009.37 -1.1986 -4.77383 0
M  V30 11154 N 1011.02 1.44971 -0.618145 0
M  V30 11155 C 1011.93 2.34403 0.0960457 0
M  V30 11156 C 1012.95 1.51862 0.849355 0
M  V30 11157 O 1014.12 1.84632 0.804557 0
M  V30 11158 C 1011.19 3.29646 1.07397 0
M  V30 11159 C 1010.25 4.28095 0.321466 0
M  V30 11160 C 1009.48 5.18787 1.25281 0
M  V30 11161 O 1009.7 5.1313 2.49106 0
M  V30 11162 O 1008.64 5.97282 0.744156 0
M  V30 11163 H 1012.46 2.96898 -0.639176 0
M  V30 11164 H 1010.05 1.44529 -0.37837 0
M  V30 11165 H 1011.93 3.88307 1.63694 0
M  V30 11166 H 1010.61 2.69702 1.79004 0
M  V30 11167 H 1009.51 3.73019 -0.284223 0
M  V30 11168 H 1010.85 4.90923 -0.354315 0
M  V30 11169 N 1012.5 0.357919 1.53482 0
M  V30 11170 C 1013.78 -0.290164 1.93436 0
M  V30 11171 C 1014.16 -1.67039 1.29079 0
M  V30 11172 O 1013.5 -2.24085 0.447017 0
M  V30 11173 C 1013.71 -0.348055 3.4726 0
M  V30 11174 C 1015.06 -0.59206 4.20452 0
M  V30 11175 O 1016.09 -0.429581 3.536 0
M  V30 11176 O 1014.94 -0.907855 5.38907 0
M  V30 11177 H 1012.04 -0.172312 0.80885 0
M  V30 11178 H 1014.58 0.410144 1.64669 0
M  V30 11179 H 1013.36 0.619953 3.86358 0
M  V30 11180 H 1012.98 -1.09457 3.82237 0
M  V30 11181 N 1013.98 -1.5736 0.0868897 0
M  V30 11182 C 1014.94 -2.12436 -0.860439 0
M  V30 11183 C 1015.94 -1.05175 -1.21634 0
M  V30 11184 O 1017.13 -1.31098 -1.14713 0
M  V30 11185 C 1014.26 -2.63818 -2.159 0
M  V30 11186 H 1015.45 -2.97453 -0.382346 0
M  V30 11187 H 1013.01 -1.55458 -0.162009 0
M  V30 11188 H 1013.74 -1.82298 -2.68212 0
M  V30 11189 H 1013.53 -3.42234 -1.91359 0
M  V30 11190 H 1015.02 -3.06452 -2.83685 0
M  V30 11191 N 1015.45 0.186762 -1.56489 0
M  V30 11192 C 1016.36 1.25169 -1.98419 0
M  V30 11193 C 1017.38 1.49329 -0.893124 0
M  V30 11194 O 1018.56 1.61781 -1.19954 0
M  V30 11195 C 1015.62 2.57422 -2.32239 0
M  V30 11196 C 1014.68 2.4126 -3.55095 0
M  V30 11197 C 1013.92 3.67206 -3.87292 0
M  V30 11198 O 1014.14 4.71731 -3.20665 0
M  V30 11199 O 1013.07 3.62238 -4.80695 0
M  V30 11200 H 1016.9 0.925834 -2.89244 0
M  V30 11201 H 1014.48 0.392421 -1.44154 0
M  V30 11202 H 1016.37 3.35466 -2.5503 0
M  V30 11203 H 1015.04 2.89618 -1.44579 0
M  V30 11204 H 1013.95 1.61299 -3.37541 0
M  V30 11205 H 1015.28 2.13994 -4.43247 0
M  V30 11206 N 1016.93 1.50896 0.454776 0
M  V30 11207 C 1018.18 1.61936 1.20248 0
M  V30 11208 C 1018.49 0.332983 1.92745 0
M  V30 11209 O 1019.7 0.322512 2.69578 0
M  V30 11210 C 1018.16 2.85916 2.18587 0
M  V30 11211 C 1017.76 4.21492 1.51818 0
M  V30 11212 C 1019.51 3.06307 2.93898 0
M  V30 11213 C 1017.42 5.3664 2.48539 0
M  V30 11214 H 1016.35 0.603098 0.452536 0
M  V30 11215 H 1019 1.77345 0.471257 0
M  V30 11216 H 1017.38 2.64101 2.95071 0
M  V30 11217 H 1018.55 4.53623 0.810123 0
M  V30 11218 H 1016.87 4.06837 0.887265 0
M  V30 11219 H 1019.46 3.89507 3.66317 0
M  V30 11220 H 1019.81 2.18683 3.54236 0
M  V30 11221 H 1020.34 3.2838 2.24525 0
M  V30 11222 H 1017.08 6.26469 1.92916 0
M  V30 11223 H 1016.6 5.08907 3.17449 0
M  V30 11224 H 1018.28 5.67881 3.10033 0
M  V30 11225 N 1018.41 -0.709066 1.40748 0
M  V30 11226 C 1019.66 -1.4646 1.38681 0
M  V30 11227 C 1019.97 -1.95599 -0.0056209 0
M  V30 11228 O 1021.18 -2.71091 -0.148907 0
M  V30 11229 C 1019.63 -2.64771 2.43771 0
M  V30 11230 C 1019.24 -2.22474 3.88856 0
M  V30 11231 C 1020.99 -3.42475 2.50821 0
M  V30 11232 C 1018.89 -3.37663 4.85528 0
M  V30 11233 H 1017.82 -0.550084 0.515678 0
M  V30 11234 H 1020.47 -0.771074 1.66513 0
M  V30 11235 H 1018.86 -3.36325 2.09048 0
M  V30 11236 H 1020.03 -1.58297 4.32757 0
M  V30 11237 H 1018.35 -1.57798 3.85342 0
M  V30 11238 H 1020.94 -4.28201 3.20232 0
M  V30 11239 H 1021.29 -3.86738 1.54076 0
M  V30 11240 H 1021.82 -2.77969 2.84567 0
M  V30 11241 H 1018.56 -2.98426 5.83628 0
M  V30 11242 H 1018.08 -4.00734 4.46287 0
M  V30 11243 H 1019.76 -4.03636 5.05655 0
M  V30 11244 N 1019.89 -1.26353 -0.941956 0
M  V30 11245 C 1020.82 -1.03634 -2.04432 0
M  V30 11246 C 1021.83 0.00295864 -1.628 0
M  V30 11247 O 1023.02 -0.237029 -1.76919 0
M  V30 11248 C 1020.12 -0.547231 -3.34453 0
M  V30 11249 C 1019.3 -1.65559 -4.04857 0
M  V30 11250 C 1018.36 -1.16466 -5.13149 0
M  V30 11251 O 1017.38 -1.86158 -5.37898 0
M  V30 11252 N 1018.58 -0.0126703 -5.80499 0
M  V30 11253 H 1021.35 -1.98558 -2.24488 0
M  V30 11254 H 1018.91 -1.17728 -1.11138 0
M  V30 11255 H 1020.9 -0.203004 -4.04191 0
M  V30 11256 H 1019.47 0.308401 -3.11075 0
M  V30 11257 H 1018.69 -2.17079 -3.29044 0
M  V30 11258 H 1019.98 -2.39985 -4.48647 0
M  V30 11259 H 1019.38 0.569358 -5.62828 0
M  V30 11260 H 1017.93 0.272486 -6.5123 0
M  V30 11261 N 1021.37 1.14642 -1.08144 0
M  V30 11262 C 1022.32 2.17665 -0.678661 0
M  V30 11263 C 1023.3 1.58072 0.300336 0
M  V30 11264 O 1024.49 1.7664 0.112781 0
M  V30 11265 C 1021.62 3.43191 -0.0866362 0
M  V30 11266 C 1020.71 4.0982 -1.09126 0
M  V30 11267 N 1021.1 4.51814 -2.27372 0
M  V30 11268 C 1019.4 4.36272 -0.926411 0
M  V30 11269 C 1020.1 5.03581 -2.91172 0
M  V30 11270 N 1019.07 4.97624 -2.18795 0
M  V30 11271 H 1022.88 2.47872 -1.57914 0
M  V30 11272 H 1020.39 1.31296 -0.955772 0
M  V30 11273 H 1022.39 4.1632 0.219859 0
M  V30 11274 H 1021.05 3.14464 0.80886 0
M  V30 11275 H 1022.06 4.44941 -2.65044 0
M  V30 11276 H 1018.74 4.17414 -0.084492 0
M  V30 11277 H 1020.13 5.45969 -3.91621 0
M  V30 11278 N 1022.85 0.866709 1.31628 0
M  V30 11279 C 1024.12 0.396828 1.91532 0
M  V30 11280 C 1024.5 -1.12081 1.78889 0
M  V30 11281 O 1023.85 -1.94791 1.19452 0
M  V30 11282 C 1024.06 0.874578 3.37864 0
M  V30 11283 C 1025.41 0.8988 4.14978 0
M  V30 11284 O 1026.43 0.820014 3.46633 0
M  V30 11285 O 1025.29 1.01223 5.37044 0
M  V30 11286 H 1022.39 0.1181 0.818524 0
M  V30 11287 H 1024.93 0.954407 1.40318 0
M  V30 11288 H 1023.7 1.91807 3.41066 0
M  V30 11289 H 1023.33 0.295126 3.96503 0
M  V30 11290 N 1024.32 -1.44642 0.625825 0
M  V30 11291 C 1025.26 -2.28882 -0.120614 0
M  V30 11292 C 1026.27 -1.40985 -0.81407 0
M  V30 11293 O 1027.46 -1.65188 -0.676404 0
M  V30 11294 C 1024.56 -3.17217 -1.19274 0
M  V30 11295 C 1023.73 -4.33499 -0.582839 0
M  V30 11296 C 1022.79 -5.02908 -1.54823 0
M  V30 11297 O 1021.82 -5.59102 -1.06743 0
M  V30 11298 N 1023.02 -5.0387 -2.88262 0
M  V30 11299 H 1025.78 -2.93585 0.602318 0
M  V30 11300 H 1023.34 -1.5503 0.466604 0
M  V30 11301 H 1025.34 -3.60515 -1.83878 0
M  V30 11302 H 1023.91 -2.54301 -1.81797 0
M  V30 11303 H 1023.13 -3.93458 0.241696 0
M  V30 11304 H 1024.41 -5.08561 -0.155914 0
M  V30 11305 H 1023.81 -4.59539 -3.2991 0
M  V30 11306 H 1022.37 -5.50974 -3.4824 0
M  V30 11307 N 1025.8 -0.366053 -1.5329 0
M  V30 11308 C 1026.73 0.47211 -2.28677 0
M  V30 11309 C 1027.71 1.08353 -1.31125 0
M  V30 11310 O 1028.9 1.10069 -1.59995 0
M  V30 11311 C 1026.03 1.61174 -3.07637 0
M  V30 11312 C 1024.98 1.12755 -4.12881 0
M  V30 11313 C 1024.31 2.35745 -4.79925 0
M  V30 11314 C 1025.61 0.211954 -5.2187 0
M  V30 11315 H 1027.3 -0.156838 -2.98989 0
M  V30 11316 H 1024.85 -0.0768709 -1.43795 0
M  V30 11317 H 1026.8 2.20473 -3.59123 0
M  V30 11318 H 1025.52 2.26793 -2.35016 0
M  V30 11319 H 1024.18 0.557234 -3.6234 0
M  V30 11320 H 1023.83 2.99821 -4.03877 0
M  V30 11321 H 1023.53 2.04019 -5.51044 0
M  V30 11322 H 1025.06 2.95729 -5.34207 0
M  V30 11323 H 1026.47 0.71244 -5.68856 0
M  V30 11324 H 1024.87 -0.0144501 -6.00098 0
M  V30 11325 H 1025.94 -0.745753 -4.79131 0
M  V30 11326 N 1027.28 1.57312 -0.0952337 0
M  V30 11327 C 1028.5 1.99119 0.580206 0
M  V30 11328 C 1028.93 0.973955 1.60922 0
M  V30 11329 O 1028.29 -0.0575338 1.81209 0
M  V30 11330 C 1028.34 3.39893 1.20438 0
M  V30 11331 O 1027.44 3.40941 2.32019 0
M  V30 11332 H 1026.78 0.64748 0.147195 0
M  V30 11333 H 1029.31 2.03836 -0.176686 0
M  V30 11334 H 1029.32 3.7759 1.54564 0
M  V30 11335 H 1028 4.13453 0.450514 0
M  V30 11336 H 1026.57 3.1504 1.9951 0
M  V30 11337 N 1028.76 -0.17846 1.56586 0
M  V30 11338 C 1029.99 -0.911996 1.85715 0
M  V30 11339 C 1030.4 -1.76138 0.679766 0
M  V30 11340 O 1029.76 -1.79088 -0.351266 0
M  V30 11341 C 1029.81 -1.79459 3.1381 0
M  V30 11342 O 1029.53 -0.979476 4.2701 0
M  V30 11343 C 1031.03 -2.6384 3.56235 0
M  V30 11344 H 1028.25 -0.265299 0.616326 0
M  V30 11345 H 1030.79 -0.180704 2.037 0
M  V30 11346 H 1028.95 -2.4793 2.97673 0
M  V30 11347 H 1029.36 -1.58244 5.00059 0
M  V30 11348 H 1030.84 -3.21396 4.48786 0
M  V30 11349 H 1031.31 -3.38363 2.80013 0
M  V30 11350 H 1031.92 -2.00712 3.7496 0
M  V30 11351 N 1030.24 -1.51135 -0.446768 0
M  V30 11352 C 1031.19 -1.68152 -1.53977 0
M  V30 11353 C 1032.17 -0.53563 -1.51723 0
M  V30 11354 O 1033.36 -0.791134 -1.58335 0
M  V30 11355 C 1030.49 -1.80133 -2.92245 0
M  V30 11356 C 1029.58 -3.00476 -2.99291 0
M  V30 11357 N 1029.97 -4.23796 -2.76099 0
M  V30 11358 C 1028.27 -2.99536 -3.30445 0
M  V30 11359 C 1028.97 -5.04977 -2.88744 0
M  V30 11360 N 1027.94 -4.39428 -3.20006 0
M  V30 11361 H 1031.74 -2.61172 -1.34784 0
M  V30 11362 H 1029.26 -1.48653 -0.653923 0
M  V30 11363 H 1031.26 -1.90432 -3.70866 0
M  V30 11364 H 1029.92 -0.882879 -3.12467 0
M  V30 11365 H 1030.93 -4.52896 -2.51209 0
M  V30 11366 H 1027.6 -2.17286 -3.56501 0
M  V30 11367 H 1028.99 -6.13114 -2.74847 0
M  V30 11368 N 1031.71 0.701592 -1.41122 0
M  V30 11369 C 1032.94 1.49553 -1.43696 0
M  V30 11370 C 1033.36 1.88053 -0.0421865 0
M  V30 11371 O 1032.72 1.54223 0.953144 0
M  V30 11372 C 1032.77 2.73834 -2.34622 0
M  V30 11373 O 1031.87 3.71088 -1.7991 0
M  V30 11374 H 1031.21 0.450352 -0.487933 0
M  V30 11375 H 1033.74 0.862886 -1.85514 0
M  V30 11376 H 1033.75 3.22209 -2.5029 0
M  V30 11377 H 1032.43 2.45149 -3.35969 0
M  V30 11378 H 1031.01 3.29994 -1.73661 0
M  V30 11379 N 1033.19 1.2685 0.935242 0
M  V30 11380 C 1034.1 1.10716 2.06831 0
M  V30 11381 C 1035.12 0.0391222 1.73956 0
M  V30 11382 O 1036.29 0.244071 1.99916 0
M  V30 11383 C 1033.36 0.748093 3.38533 0
M  V30 11384 C 1032.42 1.89619 3.85153 0
M  V30 11385 C 1031.65 1.55416 5.1057 0
M  V30 11386 O 1031.88 0.458596 5.68553 0
M  V30 11387 O 1030.81 2.39087 5.52378 0
M  V30 11388 H 1034.64 2.05785 2.23352 0
M  V30 11389 H 1032.22 1.05967 1.05315 0
M  V30 11390 H 1034.1 0.560841 4.17651 0
M  V30 11391 H 1032.78 -0.173142 3.23237 0
M  V30 11392 H 1031.68 2.13845 3.06954 0
M  V30 11393 H 1033.02 2.79737 4.04979 0
M  V30 11394 N 1034.67 -1.14067 1.0875 0
M  V30 11395 C 1035.95 -1.81389 0.73195 0
M  V30 11396 C 1036.33 -1.96005 -0.78391 0
M  V30 11397 O 1035.68 -1.52267 -1.70373 0
M  V30 11398 C 1035.89 -3.16858 1.46294 0
M  V30 11399 C 1037.23 -3.92305 1.62426 0
M  V30 11400 O 1038.26 -3.26459 1.42488 0
M  V30 11401 O 1037.12 -5.10393 1.9535 0
M  V30 11402 H 1034.21 -0.784354 0.262141 0
M  V30 11403 H 1036.76 -1.21054 1.18929 0
M  V30 11404 H 1035.53 -3.01404 2.49542 0
M  V30 11405 H 1035.15 -3.84889 0.997318 0
M  V30 11406 N 1036.15 -0.873678 -1.31166 0
M  V30 11407 C 1037.11 -0.337069 -2.26708 0
M  V30 11408 C 1038.11 0.51406 -1.52362 0
M  V30 11409 O 1039.3 0.322834 -1.71182 0
M  V30 11410 C 1036.43 0.520897 -3.36897 0
M  V30 11411 H 1037.63 -1.18056 -2.75686 0
M  V30 11412 H 1035.18 -0.649577 -1.42163 0
M  V30 11413 H 1035.91 1.38543 -2.93217 0
M  V30 11414 H 1035.7 -0.0886015 -3.92 0
M  V30 11415 H 1037.19 0.888497 -4.08039 0
M  V30 11416 N 1037.63 1.44308 -0.633487 0
M  V30 11417 C 1038.9 1.95476 -0.0697262 0
M  V30 11418 C 1039.28 1.57539 1.40516 0
M  V30 11419 O 1038.63 0.850632 2.12077 0
M  V30 11420 C 1038.84 3.4775 -0.295093 0
M  V30 11421 C 1040.19 4.24177 -0.189542 0
M  V30 11422 O 1041.21 3.55479 -0.226586 0
M  V30 11423 O 1040.07 5.46415 -0.096479 0
M  V30 11424 H 1037.17 0.826734 0.0209582 0
M  V30 11425 H 1039.71 1.54347 -0.705354 0
M  V30 11426 H 1038.48 3.6842 -1.31841 0
M  V30 11427 H 1038.11 3.95832 0.37456 0
M  V30 11428 N 1039.1 0.374177 1.53094 0
M  V30 11429 C 1040.01 -0.475935 2.29722 0
M  V30 11430 C 1041.03 -1.085 1.36029 0
M  V30 11431 O 1042.21 -1.09408 1.69091 0
M  V30 11432 C 1039.27 -1.59572 3.07795 0
M  V30 11433 C 1038.33 -1.01332 4.17169 0
M  V30 11434 C 1037.57 -2.07975 4.9151 0
M  V30 11435 O 1037.79 -3.29232 4.65793 0
M  V30 11436 O 1036.72 -1.7055 5.77232 0
M  V30 11437 H 1040.55 0.147877 3.0334 0
M  V30 11438 H 1038.13 0.138312 1.48758 0
M  V30 11439 H 1040.02 -2.24658 3.5652 0
M  V30 11440 H 1038.69 -2.20478 2.37005 0
M  V30 11441 H 1037.6 -0.326133 3.72676 0
M  V30 11442 H 1038.93 -0.4487 4.90151 0
M  V30 11443 N 1040.58 -1.57259 0.103575 0
M  V30 11444 C 1041.99 -1.81816 -0.424239 0
M  V30 11445 C 1042.34 -1.01976 -1.67617 0
M  V30 11446 O 1041.47 -0.251673 -2.14932 0
M  V30 11447 C 1042.06 -3.29783 -0.776453 0
M  V30 11448 C 1040.62 -3.55074 -1.24897 0
M  V30 11449 C 1039.77 -2.76172 -0.249875 0
M  V30 11450 H 1042.72 -1.55254 0.328913 0
M  V30 11451 H 1042.74 -3.43569 -1.63526 0
M  V30 11452 H 1042.25 -3.87865 0.134906 0
M  V30 11453 H 1040.36 -3.02332 -2.17775 0
M  V30 11454 H 1040.47 -4.637 -1.20495 0
M  V30 11455 H 1038.83 -2.43902 -0.733767 0
M  V30 11456 H 1039.62 -3.37007 0.65431 0
M  V30 11457 N 1042.06 0.170153 -1.56679 0
M  V30 11458 C 1043.29 0.90618 -1.86556 0
M  V30 11459 C 1043.71 1.74986 -0.690044 0
M  V30 11460 O 1043.07 1.77672 0.360862 0
M  V30 11461 C 1043.12 1.75777 -3.14857 0
M  V30 11462 O 1042.22 2.85952 -2.97162 0
M  V30 11463 H 1041.56 0.253781 -0.613589 0
M  V30 11464 H 1044.09 0.167943 -2.0391 0
M  V30 11465 H 1044.1 2.15747 -3.46291 0
M  V30 11466 H 1042.78 1.13807 -4.00026 0
M  V30 11467 H 1041.35 2.49557 -2.77084 0
M  V30 11468 N 1043.54 1.5137 0.438746 0
M  V30 11469 C 1044.45 1.75424 1.55768 0
M  V30 11470 C 1045.46 0.638409 1.61865 0
M  V30 11471 O 1046.64 0.9205 1.79133 0
M  V30 11472 C 1043.71 1.87288 2.9176 0
M  V30 11473 C 1042.77 3.11137 2.95791 0
M  V30 11474 C 1042 3.22425 4.25297 0
M  V30 11475 O 1042.22 2.39688 5.17596 0
M  V30 11476 O 1041.16 4.15393 4.35583 0
M  V30 11477 H 1044.98 2.70339 1.38386 0
M  V30 11478 H 1042.57 1.35854 0.621609 0
M  V30 11479 H 1044.45 1.97085 3.72472 0
M  V30 11480 H 1043.12 0.955599 3.09273 0
M  V30 11481 H 1042.03 3.06819 2.1404 0
M  V30 11482 H 1043.36 4.02549 2.83223 0
M  V30 11483 N 1045.02 -0.694098 1.41492 0
M  V30 11484 C 1046.29 -1.44875 1.31418 0
M  V30 11485 C 1046.67 -2.11022 -0.0575538 0
M  V30 11486 O 1046.02 -2.01799 -1.07188 0
M  V30 11487 C 1046.23 -2.46698 2.46863 0
M  V30 11488 C 1047.58 -3.11907 2.88095 0
M  V30 11489 O 1048.6 -2.57022 2.46613 0
M  V30 11490 O 1047.46 -4.11318 3.59833 0
M  V30 11491 H 1044.56 -0.645266 0.517263 0
M  V30 11492 H 1047.1 -0.724452 1.53459 0
M  V30 11493 H 1045.87 -1.96485 3.38392 0
M  V30 11494 H 1045.5 -3.26634 2.26706 0
M  V30 11495 N 1046.49 -1.27344 -0.928501 0
M  V30 11496 C 1047.4 -1.11812 -2.06241 0
M  V30 11497 C 1048.42 -0.048347 -1.73933 0
M  V30 11498 O 1049.6 -0.25467 -1.99783 0
M  V30 11499 C 1046.66 -0.766036 -3.38131 0
M  V30 11500 C 1045.72 -1.91659 -3.84142 0
M  V30 11501 C 1044.96 -1.58121 -5.09738 0
M  V30 11502 O 1045.18 -0.488742 -5.68302 0
M  V30 11503 O 1044.11 -2.42013 -5.51102 0
M  V30 11504 H 1047.94 -2.06967 -2.22258 0
M  V30 11505 H 1045.52 -1.06524 -1.04752 0
M  V30 11506 H 1047.41 -0.582982 -4.17348 0
M  V30 11507 H 1046.08 0.155998 -3.23324 0
M  V30 11508 H 1044.99 -2.1547 -3.05816 0
M  V30 11509 H 1046.32 -2.8188 -4.0349 0
M  V30 11510 N 1047.97 1.13488 -1.09353 0
M  V30 11511 C 1049.22 1.85022 -0.830354 0
M  V30 11512 C 1049.55 1.83266 0.64242 0
M  V30 11513 O 1048.83 1.27024 1.47293 0
M  V30 11514 C 1049.11 3.33218 -1.36521 0
M  V30 11515 C 1048.96 3.43491 -2.90404 0
M  V30 11516 C 1050.28 4.28626 -0.998381 0
M  V30 11517 H 1047.4 0.671786 -0.303105 0
M  V30 11518 H 1050.04 1.33211 -1.3548 0
M  V30 11519 H 1048.19 3.77471 -0.919117 0
M  V30 11520 H 1049.86 3.07954 -3.43456 0
M  V30 11521 H 1048.11 2.84391 -3.27573 0
M  V30 11522 H 1048.78 4.47702 -3.22905 0
M  V30 11523 H 1051.25 3.9244 -1.38311 0
M  V30 11524 H 1050.13 5.30754 -1.39968 0
M  V30 11525 H 1050.39 4.42001 0.093517 0
M  V30 11526 N 1049.45 0.880621 1.30701 0
M  V30 11527 C 1050.7 0.496875 1.96309 0
M  V30 11528 C 1051.03 -0.953064 1.69549 0
M  V30 11529 O 1050.28 -1.68782 0.990507 0
M  V30 11530 C 1050.58 0.713203 3.50212 0
M  V30 11531 C 1050.25 2.13756 3.97013 0
M  V30 11532 C 1048.91 2.52706 4.09503 0
M  V30 11533 C 1051.26 3.066 4.21481 0
M  V30 11534 C 1048.59 3.8372 4.43819 0
M  V30 11535 C 1050.94 4.3714 4.57265 0
M  V30 11536 C 1049.6 4.7599 4.67963 0
M  V30 11537 H 1048.87 0.18182 0.718347 0
M  V30 11538 H 1051.52 1.11564 1.55646 0
M  V30 11539 H 1049.83 0.0113694 3.91798 0
M  V30 11540 H 1051.52 0.39595 3.9904 0
M  V30 11541 H 1048.11 1.8252 3.87794 0
M  V30 11542 H 1052.3 2.77729 4.11315 0
M  V30 11543 H 1047.55 4.13568 4.50301 0
M  V30 11544 H 1051.73 5.09123 4.75149 0
M  V30 11545 H 1049.35 5.77549 4.94309 0
M  V30 11546 N 1050.93 -1.4397 0.641131 0
M  V30 11547 C 1052.21 -1.95436 0.0800918 0
M  V30 11548 C 1052.59 -1.58282 -1.39678 0
M  V30 11549 O 1051.93 -0.861867 -2.11623 0
M  V30 11550 C 1052.14 -3.47589 0.313531 0
M  V30 11551 C 1053.49 -4.2407 0.212034 0
M  V30 11552 O 1054.52 -3.55353 0.245434 0
M  V30 11553 O 1053.38 -5.46356 0.125455 0
M  V30 11554 H 1050.47 -0.826834 -0.0165735 0
M  V30 11555 H 1053.02 -1.5397 0.71353 0
M  V30 11556 H 1051.79 -3.67716 1.33793 0
M  V30 11557 H 1051.41 -3.96025 -0.353563 0
M  V30 11558 N 1052.41 -0.382291 -1.52893 0
M  V30 11559 C 1053.65 0.202133 -2.01489 0
M  V30 11560 C 1053.98 1.47399 -1.26901 0
M  V30 11561 O 1053.24 1.92439 -0.355771 0
M  V30 11562 C 1053.54 0.523437 -3.53546 0
M  V30 11563 C 1053.2 -0.656042 -4.46102 0
M  V30 11564 C 1051.86 -0.979633 -4.71123 0
M  V30 11565 C 1054.22 -1.44545 -5.00756 0
M  V30 11566 C 1051.54 -2.0943 -5.48047 0
M  V30 11567 C 1053.9 -2.55066 -5.78899 0
M  V30 11568 C 1052.56 -2.87942 -6.02201 0
M  V30 11569 H 1051.83 0.0739659 -0.737299 0
M  V30 11570 H 1054.48 -0.518196 -1.84356 0
M  V30 11571 H 1052.78 1.325 -3.68715 0
M  V30 11572 H 1054.48 0.988148 -3.88634 0
M  V30 11573 H 1051.07 -0.393818 -4.26787 0
M  V30 11574 H 1055.25 -1.20869 -4.81357 0
M  V30 11575 H 1050.51 -2.3528 -5.64317 0
M  V30 11576 H 1054.68 -3.1664 -6.20252 0
M  V30 11577 H 1052.31 -3.74435 -6.61591 0
M  V30 11578 N 1053.89 1.57202 -0.111913 0
M  V30 11579 C 1055.13 1.94565 0.546713 0
M  V30 11580 C 1055.45 0.995644 1.67666 0
M  V30 11581 O 1054.72 0.0506681 1.95834 0
M  V30 11582 H 1053.3 0.718334 0.204951 0
M  V30 11583 H 1055.97 1.94074 -0.179193 0
M  V30 11584 H 1055.06 2.9742 0.945931 0
M  V30 11585 N 1055.36 -0.161842 1.56767 0
M  V30 11586 C 1056.64 -0.904754 1.73417 0
M  V30 11587 C 1057.02 -1.99987 0.675908 0
M  V30 11588 O 1056.37 -2.26419 -0.307712 0
M  V30 11589 C 1056.58 -1.46082 3.16956 0
M  V30 11590 C 1057.93 -1.93004 3.78199 0
M  V30 11591 O 1058.95 -1.55856 3.20293 0
M  V30 11592 O 1057.81 -2.61465 4.79894 0
M  V30 11593 H 1054.9 -0.426518 0.708528 0
M  V30 11594 H 1057.45 -0.148928 1.69045 0
M  V30 11595 H 1056.22 -0.673087 3.85468 0
M  V30 11596 H 1055.84 -2.28056 3.25693 0
M  V30 11597 N 1056.84 -1.516 -0.430713 0
M  V30 11598 C 1058.07 -1.68414 -1.20185 0
M  V30 11599 C 1058.48 -0.384297 -1.84847 0
M  V30 11600 O 1057.84 0.637808 -1.70992 0
M  V30 11601 C 1057.89 -2.80451 -2.28099 0
M  V30 11602 O 1057.61 -4.05399 -1.66081 0
M  V30 11603 C 1059.11 -3.0859 -3.18256 0
M  V30 11604 H 1056.33 -0.564982 -0.361989 0
M  V30 11605 H 1058.88 -1.9805 -0.50954 0
M  V30 11606 H 1057.03 -2.53395 -2.93036 0
M  V30 11607 H 1057.45 -4.67671 -2.37453 0
M  V30 11608 H 1058.92 -3.9055 -3.90096 0
M  V30 11609 H 1059.4 -2.21264 -3.79393 0
M  V30 11610 H 1060 -3.37331 -2.59014 0
M  V30 11611 N 1058.32 0.686584 -1.41858 0
M  V30 11612 C 1059.25 1.81107 -1.38836 0
M  V30 11613 C 1060.23 1.60599 -0.254293 0
M  V30 11614 O 1061.41 1.83229 -0.442641 0
M  V30 11615 C 1058.54 3.17928 -1.16787 0
M  V30 11616 C 1057.59 3.5721 -2.33031 0
M  V30 11617 S 1058.42 3.60986 -3.95536 0
M  V30 11618 C 1059.58 5.00519 -3.75808 0
M  V30 11619 H 1059.81 1.83396 -2.33994 0
M  V30 11620 H 1057.34 0.856146 -1.28489 0
M  V30 11621 H 1059.3 3.9691 -1.04752 0
M  V30 11622 H 1057.96 3.1324 -0.232335 0
M  V30 11623 H 1057.15 4.56629 -2.13321 0
M  V30 11624 H 1056.76 2.8556 -2.41519 0
M  V30 11625 H 1059.05 5.88272 -3.36069 0
M  V30 11626 H 1059.99 5.25273 -4.74862 0
M  V30 11627 H 1060.4 4.72481 -3.08904 0
M  V30 11628 N 1059.8 1.27835 0.921735 0
M  V30 11629 C 1061.04 1.14692 1.67253 0
M  V30 11630 C 1061.38 -0.305384 1.91784 0
M  V30 11631 O 1060.65 -1.22286 1.51249 0
M  V30 11632 C 1060.93 1.93743 3.03539 0
M  V30 11633 C 1060.79 3.46991 2.86212 0
M  V30 11634 C 1062.11 1.74658 4.03959 0
M  V30 11635 H 1059.23 0.418021 0.606983 0
M  V30 11636 H 1061.87 1.5706 1.06922 0
M  V30 11637 H 1060.02 1.57738 3.55037 0
M  V30 11638 H 1061.69 3.92858 2.41785 0
M  V30 11639 H 1059.93 3.73029 2.21432 0
M  V30 11640 H 1060.6 3.97551 3.82958 0
M  V30 11641 H 1063.08 2.06063 3.61493 0
M  V30 11642 H 1061.96 2.32353 4.97296 0
M  V30 11643 H 1062.22 0.696019 4.36587 0
M  V30 11644 N 1061.28 -1.12907 1.09954 0
M  V30 11645 C 1062.23 -2.16558 0.713204 0
M  V30 11646 C 1063.21 -1.5853 -0.27515 0
M  V30 11647 O 1064.4 -1.76797 -0.0846643 0
M  V30 11648 C 1061.53 -3.43009 0.141224 0
M  V30 11649 C 1060.62 -4.08032 1.15632 0
M  V30 11650 N 1061.01 -4.48139 2.34531 0
M  V30 11651 C 1059.31 -4.34743 0.995701 0
M  V30 11652 C 1060.01 -4.98885 2.99147 0
M  V30 11653 N 1058.98 -4.9408 2.26684 0
M  V30 11654 H 1062.78 -2.45328 1.61838 0
M  V30 11655 H 1060.3 -1.29759 0.976539 0
M  V30 11656 H 1062.3 -4.16617 -0.153598 0
M  V30 11657 H 1060.96 -3.15711 -0.758729 0
M  V30 11658 H 1061.97 -4.40668 2.72089 0
M  V30 11659 H 1058.64 -4.17227 0.150888 0
M  V30 11660 H 1060.03 -5.3967 4.00257 0
M  V30 11661 N 1062.75 -0.88754 -1.30232 0
M  V30 11662 C 1063.69 -0.313488 -2.27046 0
M  V30 11663 C 1064.7 0.533383 -1.53814 0
M  V30 11664 O 1065.89 0.352516 -1.74984 0
M  V30 11665 C 1062.99 0.572674 -3.34026 0
M  V30 11666 C 1062.16 -0.245712 -4.36709 0
M  V30 11667 C 1061.22 0.57135 -5.23089 0
M  V30 11668 O 1060.25 -0.00685948 -5.692 0
M  V30 11669 N 1061.45 1.87994 -5.49216 0
M  V30 11670 H 1064.21 -1.14553 -2.76943 0
M  V30 11671 H 1061.77 -0.750785 -1.43439 0
M  V30 11672 H 1063.77 1.12539 -3.88738 0
M  V30 11673 H 1062.34 1.3054 -2.84039 0
M  V30 11674 H 1061.56 -0.979869 -3.81827 0
M  V30 11675 H 1062.84 -0.806618 -5.02366 0
M  V30 11676 H 1062.24 2.3726 -5.13541 0
M  V30 11677 H 1060.8 2.38005 -6.06792 0
M  V30 11678 N 1064.23 1.43628 -0.648757 0
M  V30 11679 C 1065.2 2.29172 0.0360713 0
M  V30 11680 C 1066.2 1.41974 0.754976 0
M  V30 11681 O 1067.39 1.63654 0.5969 0
M  V30 11682 C 1064.52 3.23942 1.0618 0
M  V30 11683 H 1065.71 2.91214 -0.716544 0
M  V30 11684 H 1063.26 1.50833 -0.409759 0
M  V30 11685 H 1064 2.66786 1.8438 0
M  V30 11686 H 1063.78 3.88223 0.550016 0
M  V30 11687 H 1065.27 3.8816 1.54019 0
M  V30 11688 N 1065.71 0.390394 1.52688 0
M  V30 11689 C 1066.96 -0.192697 2.00777 0
M  V30 11690 C 1067.27 -1.4781 1.28108 0
M  V30 11691 O 1068.48 -2.1413 1.66914 0
M  V30 11692 C 1066.93 -0.393955 3.57737 0
M  V30 11693 C 1066.54 0.878259 4.39307 0
M  V30 11694 C 1068.29 -0.933352 4.14112 0
M  V30 11695 C 1066.19 0.645218 5.8787 0
M  V30 11696 H 1065.12 -0.0757862 0.750182 0
M  V30 11697 H 1067.77 0.512961 1.76184 0
M  V30 11698 H 1066.16 -1.16149 3.78583 0
M  V30 11699 H 1067.33 1.65049 4.30227 0
M  V30 11700 H 1065.65 1.34269 3.94158 0
M  V30 11701 H 1068.24 -1.12343 5.22765 0
M  V30 11702 H 1068.59 -1.90272 3.70273 0
M  V30 11703 H 1069.12 -0.225361 3.97161 0
M  V30 11704 H 1065.86 1.58562 6.36033 0
M  V30 11705 H 1065.38 -0.0880609 5.99735 0
M  V30 11706 H 1067.06 0.280178 6.46393 0
M  V30 11707 N 1067.19 -1.57141 0.120249 0
M  V30 11708 C 1068.14 -2.11936 -0.84067 0
M  V30 11709 C 1069.12 -1.04044 -1.22734 0
M  V30 11710 O 1070.31 -1.30275 -1.19822 0
M  V30 11711 C 1067.44 -2.72332 -2.09023 0
M  V30 11712 C 1066.53 -3.87306 -1.72786 0
M  V30 11713 N 1066.92 -4.94302 -1.07232 0
M  V30 11714 C 1065.22 -3.97513 -2.02236 0
M  V30 11715 C 1065.92 -5.7467 -0.901626 0
M  V30 11716 N 1064.9 -5.24535 -1.42702 0
M  V30 11717 H 1068.7 -2.92038 -0.330308 0
M  V30 11718 H 1066.21 -1.62192 -0.0821814 0
M  V30 11719 H 1068.21 -3.09932 -2.78833 0
M  V30 11720 H 1066.87 -1.93693 -2.60601 0
M  V30 11721 H 1067.88 -5.12641 -0.736158 0
M  V30 11722 H 1064.56 -3.29917 -2.55853 0
M  V30 11723 H 1065.95 -6.70785 -0.386974 0
M  V30 11724 N 1068.67 0.153526 -1.5685 0
M  V30 11725 C 1069.89 0.882335 -1.87143 0
M  V30 11726 C 1070.31 1.75034 -0.707702 0
M  V30 11727 O 1069.67 1.79624 0.32273 0
M  V30 11728 C 1069.72 1.74444 -3.16625 0
M  V30 11729 O 1069.44 0.911419 -4.28515 0
M  V30 11730 C 1070.94 2.58139 -3.60388 0
M  V30 11731 H 1068.16 0.25546 -0.620469 0
M  V30 11732 H 1070.7 0.148275 -2.03962 0
M  V30 11733 H 1068.86 2.43163 -3.0158 0
M  V30 11734 H 1069.27 1.50268 -5.02513 0
M  V30 11735 H 1070.75 3.14215 -4.53842 0
M  V30 11736 H 1071.22 3.33865 -2.85361 0
M  V30 11737 H 1071.83 1.94721 -3.78105 0
M  V30 11738 N 1070.14 1.51827 0.422667 0
M  V30 11739 C 1071.39 1.6445 1.16786 0
M  V30 11740 C 1071.71 0.373792 1.91995 0
M  V30 11741 O 1072.91 0.379621 2.68833 0
M  V30 11742 C 1071.37 2.90488 2.12473 0
M  V30 11743 C 1070.98 4.24617 1.42844 0
M  V30 11744 C 1072.72 3.12472 2.87335 0
M  V30 11745 C 1070.63 5.41791 2.371 0
M  V30 11746 H 1069.56 0.612561 0.439641 0
M  V30 11747 H 1072.21 1.78305 0.433534 0
M  V30 11748 H 1070.59 2.703 2.89402 0
M  V30 11749 H 1071.76 4.55239 0.71372 0
M  V30 11750 H 1070.08 4.08628 0.800769 0
M  V30 11751 H 1072.68 3.9719 3.57973 0
M  V30 11752 H 1073.02 2.26148 3.49518 0
M  V30 11753 H 1073.55 3.33069 2.17509 0
M  V30 11754 H 1070.29 6.3042 1.79584 0
M  V30 11755 H 1069.81 5.15526 3.06583 0
M  V30 11756 H 1071.49 5.74329 2.97918 0
M  V30 11757 N 1071.62 -0.679052 1.4222 0
M  V30 11758 C 1072.53 -1.82221 1.47759 0
M  V30 11759 C 1073.55 -1.70092 0.3667 0
M  V30 11760 O 1074.72 -1.91718 0.616957 0
M  V30 11761 C 1071.79 -3.18332 1.37351 0
M  V30 11762 C 1070.85 -3.42449 2.58896 0
M  V30 11763 C 1070.08 -4.72067 2.48976 0
M  V30 11764 O 1070.31 -5.49683 1.5233 0
M  V30 11765 O 1069.24 -4.97333 3.39033 0
M  V30 11766 H 1073.07 -1.80504 2.44238 0
M  V30 11767 H 1070.65 -0.834251 1.23938 0
M  V30 11768 H 1072.53 -3.99563 1.33893 0
M  V30 11769 H 1071.21 -3.20696 0.439965 0
M  V30 11770 H 1070.12 -2.61083 2.6793 0
M  V30 11771 H 1071.45 -3.44912 3.51136 0
M  V30 11772 N 1073.1 -1.28322 -0.914942 0
M  V30 11773 C 1074.33 -1.18083 -1.69529 0
M  V30 11774 C 1074.74 0.263274 -1.87359 0
M  V30 11775 O 1074.08 1.18988 -1.39955 0
M  V30 11776 C 1074.14 -1.8062 -3.10832 0
M  V30 11777 C 1073.81 -3.29861 -3.16292 0
M  V30 11778 C 1074.8 -4.26313 -2.97578 0
M  V30 11779 C 1072.49 -3.70797 -3.38843 0
M  V30 11780 C 1074.48 -5.61677 -3.01326 0
M  V30 11781 C 1072.17 -5.06287 -3.42223 0
M  V30 11782 C 1073.17 -6.01537 -3.23485 0
M  V30 11783 O 1072.86 -7.34556 -3.26624 0
M  V30 11784 H 1072.59 -0.410931 -0.53676 0
M  V30 11785 H 1075.14 -1.6994 -1.15367 0
M  V30 11786 H 1073.37 -1.23255 -3.66531 0
M  V30 11787 H 1075.06 -1.64915 -3.70888 0
M  V30 11788 H 1075.83 -3.96023 -2.79984 0
M  V30 11789 H 1071.71 -2.97124 -3.52475 0
M  V30 11790 H 1075.25 -6.36 -2.86618 0
M  V30 11791 H 1071.15 -5.36228 -3.59346 0
M  V30 11792 H 1071.92 -7.43167 -3.42994 0
M  V30 11793 N 1074.58 1.12322 -1.10551 0
M  V30 11794 C 1075.82 1.85497 -0.858492 0
M  V30 11795 C 1076.18 1.8222 0.604966 0
M  V30 11796 O 1077.38 2.5075 0.968382 0
M  V30 11797 C 1075.65 3.29124 -1.39327 0
M  V30 11798 S 1077.21 4.19659 -1.28186 0
M  V30 11799 H 1074.03 0.639768 -0.31019 0
M  V30 11800 H 1076.63 1.35298 -1.41119 0
M  V30 11801 H 1075.34 3.29069 -2.45238 0
M  V30 11802 H 1074.87 3.84388 -0.837203 0
M  V30 11803 H 1076.88 4.95618 -0.240325 0
M  V30 11804 N 1076.06 0.894434 1.2976 0
M  V30 11805 C 1076.99 0.3847 2.30309 0
M  V30 11806 C 1077.97 -0.537486 1.61385 0
M  V30 11807 O 1079.15 -0.449332 1.8893 0
M  V30 11808 C 1076.28 -0.393311 3.45066 0
M  V30 11809 C 1075.24 0.437968 4.25753 0
M  V30 11810 C 1074.56 -0.467221 5.32655 0
M  V30 11811 C 1075.86 1.6851 4.9437 0
M  V30 11812 H 1077.56 1.22496 2.73194 0
M  V30 11813 H 1075.1 0.590471 1.31337 0
M  V30 11814 H 1077.06 -0.760614 4.14479 0
M  V30 11815 H 1075.78 -1.2673 3.0101 0
M  V30 11816 H 1074.44 0.787533 3.58041 0
M  V30 11817 H 1074.09 -1.33919 4.84845 0
M  V30 11818 H 1073.79 0.0852482 5.87538 0
M  V30 11819 H 1075.31 -0.830833 6.04921 0
M  V30 11820 H 1076.72 1.38784 5.56248 0
M  V30 11821 H 1075.12 2.17849 5.59162 0
M  V30 11822 H 1076.19 2.42412 4.19958 0
M  V30 11823 N 1077.53 -1.43282 0.656365 0
M  V30 11824 C 1078.78 -2.01378 0.170702 0
M  V30 11825 C 1079.1 -1.52063 -1.22073 0
M  V30 11826 O 1078.37 -0.73456 -1.81607 0
M  V30 11827 H 1076.95 -0.744577 0.0601168 0
M  V30 11828 H 1079.62 -1.75449 0.848739 0
M  V30 11829 H 1078.71 -3.11701 0.157745 0
M  V30 11830 N 1079.01 -0.398486 -1.52479 0
M  V30 11831 C 1080.25 0.180412 -2.03602 0
M  V30 11832 C 1080.62 1.43276 -1.27812 0
M  V30 11833 O 1081.82 2.08941 -1.69107 0
M  V30 11834 C 1080.09 0.432744 -3.5477 0
M  V30 11835 S 1081.65 0.980612 -4.27703 0
M  V30 11836 H 1078.47 0.0499981 -0.70924 0
M  V30 11837 H 1081.07 -0.548952 -1.87635 0
M  V30 11838 H 1079.77 -0.48568 -4.07516 0
M  V30 11839 H 1079.3 1.19028 -3.74961 0
M  V30 11840 H 1081.32 2.26216 -4.41634 0
M  V30 11841 N 1080.49 1.57075 -0.12858 0
M  V30 11842 C 1081.74 1.94695 0.526952 0
M  V30 11843 C 1082.05 1.01482 1.67215 0
M  V30 11844 O 1083.26 1.28606 2.39108 0
M  V30 11845 C 1081.72 3.4605 0.988801 0
M  V30 11846 C 1081.32 4.47816 -0.128457 0
M  V30 11847 C 1083.07 3.92572 1.61517 0
M  V30 11848 C 1080.97 5.9036 0.350628 0
M  V30 11849 H 1079.9 0.726819 0.200623 0
M  V30 11850 H 1082.56 1.82295 -0.209972 0
M  V30 11851 H 1080.94 3.53718 1.78043 0
M  V30 11852 H 1082.11 4.51826 -0.904976 0
M  V30 11853 H 1080.43 4.11103 -0.662075 0
M  V30 11854 H 1083.02 4.96493 1.98491 0
M  V30 11855 H 1083.37 3.33085 2.49721 0
M  V30 11856 H 1083.9 3.87744 0.888768 0
M  V30 11857 H 1080.64 6.53624 -0.495592 0
M  V30 11858 H 1080.16 5.89749 1.09342 0
M  V30 11859 H 1081.84 6.41926 0.808717 0
M  V30 11860 N 1081.97 -0.145205 1.5693 0
M  V30 11861 C 1083.19 -0.876386 1.87974 0
M  V30 11862 C 1083.62 -1.73866 0.717795 0
M  V30 11863 O 1082.98 -1.78224 -0.332551 0
M  V30 11864 C 1083.03 -1.70746 3.17613 0
M  V30 11865 O 1082.13 -2.81188 3.01674 0
M  V30 11866 H 1081.47 -0.243987 0.617549 0
M  V30 11867 H 1084 -0.135482 2.04151 0
M  V30 11868 H 1084.01 -2.1021 3.49679 0
M  V30 11869 H 1082.69 -1.07429 4.01786 0
M  V30 11870 H 1081.26 -2.45117 2.81019 0
M  V30 11871 N 1083.45 -1.52049 -0.414609 0
M  V30 11872 C 1084.4 -1.75603 -1.52533 0
M  V30 11873 C 1085.39 -0.622965 -1.57529 0
M  V30 11874 O 1086.6 -0.804886 -1.61002 0
M  V30 11875 H 1082.97 -0.555222 -0.507181 0
M  V30 11876 H 1084.94 -2.68666 -1.2985 0
M  V30 11877 C 1083.69 -1.9188 -2.89961 0
M  V30 11878 H 1083.01 -2.78483 -2.86857 0
M  V30 11879 H 1084.45 -2.12363 -3.66985 0
M  V30 11880 C 1082.91 -0.684453 -3.29874 0
M  V30 11881 O 1083.44 0.150256 -4.01419 0
M  V30 11882 N 1081.65 -0.521936 -2.85874 0
M  V30 11883 H 1081.2 -1.20229 -2.27822 0
M  V30 11884 H 1081.15 0.302655 -3.1294 0
M  V30 11885 N 1084.93 0.6715 -1.42579 0
M  V30 11886 C 1086.15 1.45972 -1.46628 0
M  V30 11887 C 1086.57 1.88636 -0.0785986 0
M  V30 11888 O 1085.93 1.58345 0.907372 0
M  V30 11889 C 1085.98 2.70668 -2.39627 0
M  V30 11890 O 1085.7 2.29793 -3.72997 0
M  V30 11891 C 1087.2 3.64201 -2.52731 0
M  V30 11892 H 1084.42 0.449044 -0.498598 0
M  V30 11893 H 1086.96 0.824811 -1.87129 0
M  V30 11894 H 1085.12 3.3034 -2.02371 0
M  V30 11895 H 1085.53 3.10341 -4.22834 0
M  V30 11896 H 1087.01 4.48412 -3.21918 0
M  V30 11897 H 1087.48 4.10323 -1.56626 0
M  V30 11898 H 1088.09 3.1042 -2.90722 0
M  V30 11899 N 1086.4 1.28806 0.908124 0
M  V30 11900 C 1087.37 1.13228 1.99279 0
M  V30 11901 C 1088.37 0.0702456 1.60646 0
M  V30 11902 O 1089.56 0.316494 1.71301 0
M  V30 11903 C 1086.69 0.729629 3.33 0
M  V30 11904 H 1087.88 2.09566 2.14528 0
M  V30 11905 H 1085.43 1.11872 1.09153 0
M  V30 11906 H 1086.17 -0.234268 3.23453 0
M  V30 11907 H 1085.95 1.49688 3.62403 0
M  V30 11908 H 1087.44 0.643449 4.12613 0
M  V30 11909 N 1087.88 -1.11734 1.11145 0
M  V30 11910 C 1089.11 -1.87755 0.881062 0
M  V30 11911 C 1089.53 -1.79461 -0.563496 0
M  V30 11912 O 1088.89 -1.15481 -1.39763 0
M  V30 11913 C 1088.94 -3.34641 1.34342 0
M  V30 11914 O 1088.04 -4.09195 0.513157 0
M  V30 11915 H 1087.38 -0.583111 0.317613 0
M  V30 11916 H 1089.91 -1.41256 1.48013 0
M  V30 11917 H 1089.92 -3.85486 1.33658 0
M  V30 11918 H 1088.6 -3.39994 2.39534 0
M  V30 11919 H 1087.17 -3.68269 0.585833 0
M  V30 11920 N 1089.36 -0.901303 -1.29284 0
M  V30 11921 C 1090.59 -0.542723 -1.99344 0
M  V30 11922 C 1091 0.877357 -1.67628 0
M  V30 11923 O 1090.34 1.59088 -0.918515 0
M  V30 11924 C 1090.4 -0.657088 -3.53444 0
M  V30 11925 C 1090.07 -2.04444 -4.0872 0
M  V30 11926 C 1091.06 -3.01577 -4.23494 0
M  V30 11927 C 1088.75 -2.35425 -4.43712 0
M  V30 11928 C 1090.74 -4.27816 -4.72496 0
M  V30 11929 C 1088.43 -3.61906 -4.9241 0
M  V30 11930 C 1089.43 -4.57916 -5.06757 0
M  V30 11931 O 1089.12 -5.8215 -5.54397 0
M  V30 11932 H 1088.85 -0.206742 -0.64361 0
M  V30 11933 H 1091.4 -1.21311 -1.65749 0
M  V30 11934 H 1089.63 0.0703305 -3.86636 0
M  V30 11935 H 1091.32 -0.307425 -4.04734 0
M  V30 11936 H 1092.09 -2.78957 -3.96747 0
M  V30 11937 H 1087.97 -1.61454 -4.31803 0
M  V30 11938 H 1091.51 -5.0276 -4.83609 0
M  V30 11939 H 1087.41 -3.84356 -5.18595 0
M  V30 11940 H 1088.17 -5.84762 -5.72709 0
M  V30 11941 N 1090.84 1.42931 -0.663954 0
M  V30 11942 C 1091.77 2.33499 0.00731327 0
M  V30 11943 C 1092.75 1.50074 0.800733 0
M  V30 11944 O 1093.93 1.78708 0.760062 0
M  V30 11945 C 1091.06 3.33569 0.966897 0
M  V30 11946 C 1090.02 4.27064 0.282839 0
M  V30 11947 C 1089.34 5.17257 1.35461 0
M  V30 11948 C 1090.64 5.1564 -0.831438 0
M  V30 11949 H 1092.34 2.89879 -0.749044 0
M  V30 11950 H 1089.88 1.39385 -0.361656 0
M  V30 11951 H 1091.84 3.95833 1.44549 0
M  V30 11952 H 1090.56 2.75469 1.75455 0
M  V30 11953 H 1089.22 3.6618 -0.175417 0
M  V30 11954 H 1088.87 4.5549 2.13397 0
M  V30 11955 H 1088.57 5.80634 0.902098 0
M  V30 11956 H 1090.09 5.82395 1.83436 0
M  V30 11957 H 1091.51 5.71651 -0.434534 0
M  V30 11958 H 1089.9 5.87794 -1.20908 0
M  V30 11959 H 1090.97 4.54687 -1.68487 0
M  V30 11960 N 1092.32 0.406567 1.52266 0
M  V30 11961 C 1093.73 0.0573228 1.59497 0
M  V30 11962 C 1093.93 -1.43005 1.41957 0
M  V30 11963 O 1092.99 -2.19659 1.24523 0
M  V30 11964 C 1094.3 0.549947 2.95628 0
M  V30 11965 C 1095.85 0.5077 3.08855 0
M  V30 11966 C 1096.32 0.976792 4.47463 0
M  V30 11967 N 1097.81 0.933508 4.53696 0
M  V30 11968 C 1098.55 1.26769 5.59211 0
M  V30 11969 N 1098.05 1.6732 6.72292 0
M  V30 11970 N 1099.84 1.18782 5.49406 0
M  V30 11971 H 1091.99 1.37468 1.61914 0
M  V30 11972 H 1094.25 0.564562 0.76156 0
M  V30 11973 H 1093.96 1.58943 3.13736 0
M  V30 11974 H 1093.83 -0.0417767 3.77177 0
M  V30 11975 H 1096.22 -0.522728 2.90433 0
M  V30 11976 H 1096.3 1.13545 2.29219 0
M  V30 11977 H 1095.94 2.00554 4.66627 0
M  V30 11978 H 1095.87 0.325885 5.25591 0
M  V30 11979 H 1098.37 0.635333 3.72521 0
M  V30 11980 H 1098.68 1.91137 7.4879 0
M  V30 11981 H 1097.02 1.71221 6.73579 0
M  V30 11982 H 1100.21 0.869906 4.59946 0
M  V30 11983 H 1100.39 1.45157 6.31533 0
M  V30 11984 N 1093.79 -1.57004 0.136909 0
M  V30 11985 C 1094.72 -2.19262 -0.802902 0
M  V30 11986 C 1095.71 -1.13786 -1.26439 0
M  V30 11987 O 1096.89 -1.42091 -1.32377 0
M  V30 11988 C 1094.02 -2.80624 -2.04615 0
M  V30 11989 C 1092.97 -3.91839 -1.72181 0
M  V30 11990 C 1092.3 -4.4009 -3.03686 0
M  V30 11991 C 1093.6 -5.13095 -0.976249 0
M  V30 11992 H 1095.29 -2.98049 -0.28406 0
M  V30 11993 H 1092.84 -1.43364 -0.135189 0
M  V30 11994 H 1094.79 -3.22842 -2.70834 0
M  V30 11995 H 1093.52 -1.99153 -2.58855 0
M  V30 11996 H 1092.18 -3.50224 -1.08344 0
M  V30 11997 H 1091.82 -3.55454 -3.55896 0
M  V30 11998 H 1091.52 -5.15098 -2.82751 0
M  V30 11999 H 1093.05 -4.84971 -3.70993 0
M  V30 12000 H 1094.46 -5.5222 -1.54033 0
M  V30 12001 H 1092.86 -5.93801 -0.867214 0
M  V30 12002 H 1093.93 -4.84888 0.0338488 0
M  V30 12003 N 1095.27 0.136881 -1.57004 0
M  V30 12004 C 1096.52 0.844147 -1.85056 0
M  V30 12005 C 1096.87 1.78328 -0.722278 0
M  V30 12006 O 1096.17 1.89557 0.279059 0
M  V30 12007 C 1096.36 1.64711 -3.17183 0
M  V30 12008 C 1096.19 0.787229 -4.42756 0
M  V30 12009 C 1094.96 0.448938 -5.03302 0
M  V30 12010 C 1097.16 0.112947 -5.14176 0
M  V30 12011 N 1095.14 -0.423481 -6.12438 0
M  V30 12012 C 1096.51 -0.619195 -6.169 0
M  V30 12013 C 1098.57 0.0346687 -4.97888 0
M  V30 12014 C 1097.27 -1.42224 -7.05099 0
M  V30 12015 C 1099.29 -0.755143 -5.86559 0
M  V30 12016 C 1098.66 -1.47553 -6.88772 0
M  V30 12017 H 1094.76 0.286398 -0.727668 0
M  V30 12018 H 1097.34 0.108903 -1.94395 0
M  V30 12019 H 1095.51 2.35352 -3.08972 0
M  V30 12020 H 1097.24 2.29833 -3.33105 0
M  V30 12021 H 1094 0.787068 -4.67014 0
M  V30 12022 H 1094.42 -0.851013 -6.7163 0
M  V30 12023 H 1099.06 0.577271 -4.18841 0
M  V30 12024 H 1096.78 -1.97606 -7.83567 0
M  V30 12025 H 1100.37 -0.817835 -5.76023 0
M  V30 12026 H 1099.25 -2.07687 -7.56198 0
M  V30 12027 N 1096.75 1.52266 0.40654 0
M  V30 12028 C 1097.71 1.75168 1.47814 0
M  V30 12029 C 1098.71 0.621575 1.48301 0
M  V30 12030 O 1099.9 0.889476 1.4978 0
M  V30 12031 C 1097.04 1.83642 2.87208 0
M  V30 12032 H 1098.23 2.70834 1.28798 0
M  V30 12033 H 1095.78 1.42722 0.637196 0
M  V30 12034 H 1096.52 0.898994 3.1159 0
M  V30 12035 H 1096.3 2.65801 2.88257 0
M  V30 12036 H 1097.79 2.03093 3.64888 0
M  V30 12037 N 1098.23 -0.663929 1.42933 0
M  V30 12038 C 1099.16 -1.78899 1.50058 0
M  V30 12039 C 1100.14 -1.66329 0.356164 0
M  V30 12040 O 1101.32 -1.85587 0.571944 0
M  V30 12041 C 1098.45 -3.17265 1.41281 0
M  V30 12042 C 1097.41 -3.44584 2.53861 0
M  V30 12043 C 1096.73 -4.82638 2.3014 0
M  V30 12044 C 1098.03 -3.40394 3.96143 0
M  V30 12045 H 1099.73 -1.73194 2.44222 0
M  V30 12046 H 1097.27 -0.83182 1.17545 0
M  V30 12047 H 1099.23 -3.95715 1.44872 0
M  V30 12048 H 1097.95 -3.23675 0.43616 0
M  V30 12049 H 1096.61 -2.685 2.49606 0
M  V30 12050 H 1096.26 -4.85711 1.30743 0
M  V30 12051 H 1095.96 -5.01879 3.056 0
M  V30 12052 H 1097.48 -5.63359 2.35497 0
M  V30 12053 H 1098.9 -4.08796 4.01943 0
M  V30 12054 H 1097.29 -3.7117 4.71543 0
M  V30 12055 H 1098.36 -2.38767 4.22041 0
M  V30 12056 N 1099.71 -1.29285 -0.901281 0
M  V30 12057 C 1100.93 -1.20169 -1.69039 0
M  V30 12058 C 1101.36 0.234509 -1.86632 0
M  V30 12059 O 1100.71 1.16935 -1.38549 0
M  V30 12060 C 1100.76 -1.91852 -3.05328 0
M  V30 12061 O 1099.87 -1.23448 -3.9349 0
M  V30 12062 H 1099.21 -0.416486 -0.517141 0
M  V30 12063 H 1101.74 -1.70826 -1.12603 0
M  V30 12064 H 1101.75 -2.00244 -3.5548 0
M  V30 12065 H 1100.42 -2.96313 -2.91841 0
M  V30 12066 H 1099 -1.23303 -3.51924 0
M  V30 12067 N 1101.18 1.11143 -1.11736 0
M  V30 12068 C 1102.11 2.19339 -0.800795 0
M  V30 12069 C 1103.1 1.68508 0.23221 0
M  V30 12070 O 1104.28 1.93967 0.0950063 0
M  V30 12071 C 1101.41 3.46424 -0.246579 0
M  V30 12072 C 1100.36 4.10487 -1.21181 0
M  V30 12073 C 1099.69 5.32183 -0.518158 0
M  V30 12074 C 1100.99 4.55052 -2.56368 0
M  V30 12075 H 1102.68 2.46077 -1.70548 0
M  V30 12076 H 1100.23 1.18271 -0.821454 0
M  V30 12077 H 1102.18 4.21398 -0.0128889 0
M  V30 12078 H 1100.91 3.19154 0.693415 0
M  V30 12079 H 1099.57 3.3751 -1.43118 0
M  V30 12080 H 1099.21 5.01187 0.426742 0
M  V30 12081 H 1098.91 5.75997 -1.16196 0
M  V30 12082 H 1100.44 6.09895 -0.293333 0
M  V30 12083 H 1101.85 5.21335 -2.38501 0
M  V30 12084 H 1100.25 5.0969 -3.16758 0
M  V30 12085 H 1101.32 3.68343 -3.1536 0
M  V30 12086 N 1102.66 0.908147 1.28804 0
M  V30 12087 C 1103.63 0.397058 2.25735 0
M  V30 12088 C 1104.63 -0.473483 1.53671 0
M  V30 12089 O 1105.82 -0.277335 1.71978 0
M  V30 12090 C 1102.95 -0.431392 3.38159 0
M  V30 12091 H 1104.14 1.25323 2.72459 0
M  V30 12092 H 1101.69 0.687041 1.4039 0
M  V30 12093 H 1102.43 -1.3072 2.96787 0
M  V30 12094 H 1102.21 0.192502 3.91627 0
M  V30 12095 H 1103.7 -0.78 4.10251 0
M  V30 12096 N 1104.14 -1.42577 0.671525 0
M  V30 12097 C 1105.09 -2.27978 -0.0315286 0
M  V30 12098 C 1106.07 -1.40907 -0.776796 0
M  V30 12099 O 1107.27 -1.64385 -0.656248 0
M  V30 12100 C 1104.4 -3.28884 -0.9844 0
M  V30 12101 C 1103.48 -4.23439 -0.236647 0
M  V30 12102 N 1103.87 -5.00107 0.756714 0
M  V30 12103 C 1102.17 -4.43457 -0.475551 0
M  V30 12104 C 1102.87 -5.69141 1.20221 0
M  V30 12105 N 1101.85 -5.40983 0.532802 0
M  V30 12106 H 1105.65 -2.84678 0.730455 0
M  V30 12107 H 1103.16 -1.54501 0.500317 0
M  V30 12108 H 1105.16 -3.88864 -1.50302 0
M  V30 12109 H 1103.82 -2.73745 -1.74625 0
M  V30 12110 H 1104.83 -5.05285 1.13613 0
M  V30 12111 H 1101.51 -3.99364 -1.21715 0
M  V30 12112 H 1102.9 -6.40653 2.02517 0
M  V30 12113 N 1105.62 -0.414636 -1.52048 0
M  V30 12114 C 1106.58 0.396285 -2.25748 0
M  V30 12115 C 1107.58 0.969003 -1.28324 0
M  V30 12116 O 1108.77 0.847016 -1.52221 0
M  V30 12117 C 1105.9 1.55838 -3.03195 0
M  V30 12118 H 1107.1 -0.249311 -2.98862 0
M  V30 12119 H 1104.65 -0.167276 -1.55402 0
M  V30 12120 H 1105.38 2.24068 -2.34444 0
M  V30 12121 H 1105.17 1.15414 -3.74729 0
M  V30 12122 H 1106.66 2.13187 -3.59084 0
M  V30 12123 N 1107.1 1.56929 -0.145233 0
M  V30 12124 C 1108.03 2.13796 0.826078 0
M  V30 12125 C 1109.04 1.08697 1.21197 0
M  V30 12126 O 1110.23 1.3598 1.15635 0
M  V30 12127 C 1107.33 2.6443 2.11967 0
M  V30 12128 C 1106.5 3.9391 1.90142 0
M  V30 12129 C 1105.56 4.29872 3.03474 0
M  V30 12130 O 1104.59 4.98227 2.75242 0
M  V30 12131 N 1105.79 3.8931 4.30602 0
M  V30 12132 H 1108.56 2.97764 0.340073 0
M  V30 12133 H 1106.12 1.61854 0.0383928 0
M  V30 12134 H 1108.11 2.85502 2.86829 0
M  V30 12135 H 1106.68 1.85196 2.51836 0
M  V30 12136 H 1105.9 3.81481 0.993268 0
M  V30 12137 H 1107.19 4.78523 1.72896 0
M  V30 12138 H 1106.58 3.34229 4.56407 0
M  V30 12139 H 1105.14 4.15438 5.0225 0
M  V30 12140 N 1108.58 -0.128553 1.57075 0
M  V30 12141 C 1109.51 -1.15953 2.02675 0
M  V30 12142 C 1110.49 -1.43743 0.909501 0
M  V30 12143 O 1111.67 -1.54348 1.17857 0
M  V30 12144 C 1108.8 -2.48813 2.423 0
M  V30 12145 C 1107.76 -2.35506 3.57381 0
M  V30 12146 C 1107.08 -3.73243 3.82875 0
M  V30 12147 C 1108.38 -1.82359 4.89431 0
M  V30 12148 H 1110.08 -0.780283 2.89054 0
M  V30 12149 H 1107.62 -0.373896 1.39061 0
M  V30 12150 H 1109.57 -3.21179 2.72804 0
M  V30 12151 H 1108.3 -2.88609 1.52881 0
M  V30 12152 H 1106.96 -1.6559 3.27071 0
M  V30 12153 H 1106.61 -4.10507 2.90677 0
M  V30 12154 H 1106.31 -3.65195 4.60333 0
M  V30 12155 H 1107.83 -4.47128 4.15823 0
M  V30 12156 H 1109.24 -2.44533 5.18533 0
M  V30 12157 H 1107.64 -1.85156 5.70822 0
M  V30 12158 H 1108.71 -0.780478 4.78578 0
M  V30 12159 N 1110.05 -1.5248 -0.398459 0
M  V30 12160 C 1111.28 -1.71221 -1.17039 0
M  V30 12161 C 1111.7 -0.425515 -1.83224 0
M  V30 12162 O 1111.06 0.617938 -1.70444 0
M  V30 12163 C 1111.11 -2.8562 -2.20121 0
M  V30 12164 O 1110.21 -2.51934 -3.26501 0
M  V30 12165 H 1109.55 -0.569654 -0.34116 0
M  V30 12166 H 1112.08 -1.99231 -0.465652 0
M  V30 12167 H 1112.09 -3.10842 -2.64275 0
M  V30 12168 H 1110.77 -3.78969 -1.71334 0
M  V30 12169 H 1109.35 -2.3742 -2.87552 0
M  V30 12170 N 1111.53 0.65634 -1.43283 0
M  V30 12171 C 1112.44 1.79847 -1.50639 0
M  V30 12172 C 1113.46 1.69487 -0.393714 0
M  V30 12173 O 1114.63 1.90712 -0.647379 0
M  V30 12174 C 1111.7 3.16107 -1.42398 0
M  V30 12175 C 1110.76 3.38287 -2.64312 0
M  V30 12176 C 1109.99 4.68046 -2.56454 0
M  V30 12177 O 1110.22 5.4719 -1.61056 0
M  V30 12178 O 1109.15 4.91877 -3.46902 0
M  V30 12179 H 1112.98 1.76596 -2.47078 0
M  V30 12180 H 1110.56 0.814428 -1.25249 0
M  V30 12181 H 1112.44 3.97382 -1.40233 0
M  V30 12182 H 1111.12 3.19956 -0.490929 0
M  V30 12183 H 1110.02 2.56788 -2.72049 0
M  V30 12184 H 1111.36 3.39282 -3.56579 0
M  V30 12185 N 1113.01 1.29761 0.894412 0
M  V30 12186 C 1114.26 1.18214 1.64782 0
M  V30 12187 C 1114.59 -0.264635 1.92388 0
M  V30 12188 O 1113.86 -1.19051 1.53809 0
M  V30 12189 C 1114.15 2.00138 2.99361 0
M  V30 12190 C 1114 3.52984 2.78787 0
M  V30 12191 C 1115.32 1.83187 4.00163 0
M  V30 12192 H 1112.44 0.430802 0.597979 0
M  V30 12193 H 1115.08 1.59292 1.03566 0
M  V30 12194 H 1113.23 1.65233 3.51611 0
M  V30 12195 H 1114.9 3.97898 2.33398 0
M  V30 12196 H 1113.14 3.77642 2.13469 0
M  V30 12197 H 1113.82 4.05585 3.7444 0
M  V30 12198 H 1116.29 2.13684 3.57041 0
M  V30 12199 H 1115.17 2.42849 4.92255 0
M  V30 12200 H 1115.43 0.788469 4.35012 0
M  V30 12201 N 1114.49 -1.10549 1.12324 0
M  V30 12202 C 1115.42 -2.18911 0.812416 0
M  V30 12203 C 1116.4 -1.68628 -0.22327 0
M  V30 12204 O 1117.58 -1.94015 -0.0847184 0
M  V30 12205 C 1114.71 -3.46288 0.264947 0
M  V30 12206 C 1113.67 -4.09838 1.23356 0
M  V30 12207 C 1112.99 -5.31901 0.546374 0
M  V30 12208 C 1114.29 -4.53686 2.58778 0
M  V30 12209 H 1115.99 -2.45169 1.71851 0
M  V30 12210 H 1113.53 -1.17834 0.827715 0
M  V30 12211 H 1115.49 -4.21385 0.0352364 0
M  V30 12212 H 1114.21 -3.19517 -0.676479 0
M  V30 12213 H 1112.87 -3.36746 1.44906 0
M  V30 12214 H 1112.52 -5.01406 -0.400157 0
M  V30 12215 H 1112.22 -5.75372 1.19249 0
M  V30 12216 H 1113.74 -6.09731 0.325673 0
M  V30 12217 H 1115.16 -5.20063 2.41263 0
M  V30 12218 H 1113.55 -5.08003 3.19457 0
M  V30 12219 H 1114.62 -3.66665 3.17309 0
M  V30 12220 N 1115.97 -0.914965 -1.28321 0
M  V30 12221 C 1117.21 -0.559015 -1.95567 0
M  V30 12222 C 1117.57 0.887749 -1.70695 0
M  V30 12223 O 1116.86 1.62312 -1.0181 0
M  V30 12224 C 1117.05 -0.805805 -3.48198 0
M  V30 12225 C 1116.88 -2.27501 -3.87909 0
M  V30 12226 C 1115.65 -2.92534 -4.12009 0
M  V30 12227 C 1117.85 -3.25152 -3.98473 0
M  V30 12228 N 1115.83 -4.29739 -4.38403 0
M  V30 12229 C 1117.2 -4.47524 -4.29095 0
M  V30 12230 C 1119.26 -3.20534 -3.81001 0
M  V30 12231 C 1117.96 -5.65861 -4.44065 0
M  V30 12232 C 1119.99 -4.38172 -3.97189 0
M  V30 12233 C 1119.35 -5.59318 -4.28185 0
M  V30 12234 H 1115.45 -0.254451 -0.739445 0
M  V30 12235 H 1118.03 -1.17895 -1.54948 0
M  V30 12236 H 1116.2 -0.215134 -3.87804 0
M  V30 12237 H 1117.94 -0.413762 -4.02579 0
M  V30 12238 H 1114.69 -2.43258 -4.06352 0
M  V30 12239 H 1115.11 -5.00683 -4.55681 0
M  V30 12240 H 1119.76 -2.27949 -3.56088 0
M  V30 12241 H 1117.47 -6.58924 -4.67809 0
M  V30 12242 H 1121.06 -4.36102 -3.85105 0
M  V30 12243 H 1119.94 -6.48828 -4.40446 0
M  V30 12244 N 1117.44 1.42219 -0.679077 0
M  V30 12245 C 1118.67 2.05815 -0.211649 0
M  V30 12246 C 1119.09 1.51037 1.13284 0
M  V30 12247 O 1118.44 0.651894 1.7046 0
M  V30 12248 C 1118.49 3.61218 -0.142663 0
M  V30 12249 O 1118.22 4.13965 -1.43402 0
M  V30 12250 C 1119.72 4.41934 0.347746 0
M  V30 12251 H 1116.94 0.663215 -0.101914 0
M  V30 12252 H 1119.48 1.82282 -0.927017 0
M  V30 12253 H 1117.64 3.83848 0.52342 0
M  V30 12254 H 1118.05 5.07872 -1.31021 0
M  V30 12255 H 1119.52 5.50921 0.344916 0
M  V30 12256 H 1120 4.16832 1.38377 0
M  V30 12257 H 1120.61 4.24332 -0.286751 0
M  V30 12258 N 1118.92 0.422693 1.51826 0
M  V30 12259 C 1119.85 -0.440987 2.23899 0
M  V30 12260 C 1120.83 -1.03685 1.25252 0
M  V30 12261 O 1122.02 -1.08212 1.54345 0
M  V30 12262 C 1119.14 -1.61331 2.97809 0
M  V30 12263 C 1118.19 -1.13954 4.10995 0
M  V30 12264 S 1119.02 -0.0935426 5.35418 0
M  V30 12265 C 1120.18 -1.27087 6.12862 0
M  V30 12266 H 1120.41 0.170945 2.96808 0
M  V30 12267 H 1117.94 0.20709 1.53005 0
M  V30 12268 H 1119.9 -2.28546 3.40994 0
M  V30 12269 H 1118.56 -2.19662 2.24516 0
M  V30 12270 H 1117.76 -2.01578 4.61933 0
M  V30 12271 H 1117.36 -0.545838 3.69995 0
M  V30 12272 H 1119.65 -2.19199 6.4106 0
M  V30 12273 H 1120.59 -0.801752 7.03546 0
M  V30 12274 H 1121 -1.50281 5.44129 0
M  V30 12275 N 1120.4 -1.5685 0.153553 0
M  V30 12276 C 1121.65 -1.96625 -0.49665 0
M  V30 12277 C 1121.98 -1.03877 -1.64083 0
M  V30 12278 O 1121.25 -0.0824112 -1.94325 0
M  V30 12279 C 1121.54 -3.46035 -0.996585 0
M  V30 12280 C 1121.39 -4.49561 0.146551 0
M  V30 12281 C 1122.71 -3.98104 -1.8762 0
M  V30 12282 H 1119.83 -0.714917 -0.179059 0
M  V30 12283 H 1122.47 -1.88527 0.236104 0
M  V30 12284 H 1120.62 -3.53066 -1.621 0
M  V30 12285 H 1122.29 -4.54604 0.783108 0
M  V30 12286 H 1120.53 -4.26271 0.804727 0
M  V30 12287 H 1121.21 -5.51456 -0.245078 0
M  V30 12288 H 1123.68 -3.93593 -1.34997 0
M  V30 12289 H 1122.56 -5.03098 -2.19508 0
M  V30 12290 H 1122.82 -3.40852 -2.81554 0
M  V30 12291 N 1121.88 0.120221 -1.57141 0
M  V30 12292 C 1123.13 0.826791 -1.83976 0
M  V30 12293 C 1123.44 1.81102 -0.739014 0
M  V30 12294 O 1124.65 2.56368 -0.893736 0
M  V30 12295 C 1123.1 1.52108 -3.26176 0
M  V30 12296 C 1122.71 0.577902 -4.44257 0
M  V30 12297 C 1124.45 2.21286 -3.62261 0
M  V30 12298 C 1122.36 1.27535 -5.77485 0
M  V30 12299 H 1121.29 0.312508 -0.686189 0
M  V30 12300 H 1123.94 0.0795343 -1.83328 0
M  V30 12301 H 1122.32 2.31492 -3.2129 0
M  V30 12302 H 1123.5 -0.182629 -4.60438 0
M  V30 12303 H 1121.81 -0.00684348 -4.16399 0
M  V30 12304 H 1124.41 2.74154 -4.59068 0
M  V30 12305 H 1124.75 2.99029 -2.89634 0
M  V30 12306 H 1125.29 1.48791 -3.68925 0
M  V30 12307 H 1122.02 0.539237 -6.53278 0
M  V30 12308 H 1121.54 2.00792 -5.65192 0
M  V30 12309 H 1123.22 1.80888 -6.21199 0
M  V30 12310 N 1123.36 1.52689 0.390367 0
M  V30 12311 C 1124.31 1.73751 1.4763 0
M  V30 12312 C 1125.29 0.591572 1.4963 0
M  V30 12313 O 1126.48 0.849354 1.5529 0
M  V30 12314 C 1123.61 1.90855 2.85358 0
M  V30 12315 C 1122.7 3.11377 2.87933 0
M  V30 12316 N 1123.09 4.33751 2.6018 0
M  V30 12317 C 1121.39 3.11594 3.19101 0
M  V30 12318 C 1122.09 5.15346 2.69803 0
M  V30 12319 N 1121.06 4.51002 3.03476 0
M  V30 12320 H 1124.87 2.65994 1.24997 0
M  V30 12321 H 1122.38 1.50977 0.598301 0
M  V30 12322 H 1124.38 2.04065 3.63542 0
M  V30 12323 H 1123.04 0.998241 3.08974 0
M  V30 12324 H 1124.05 4.61907 2.34227 0
M  V30 12325 H 1120.72 2.30368 3.48191 0
M  V30 12326 H 1122.11 6.22892 2.51902 0
M  V30 12327 N 1124.83 -0.648732 1.43629 0
M  V30 12328 C 1126.08 -1.40446 1.44768 0
M  V30 12329 C 1126.4 -1.95447 0.0773445 0
M  V30 12330 O 1127.6 -2.71479 -0.0337942 0
M  V30 12331 C 1126.06 -2.54194 2.54781 0
M  V30 12332 C 1125.67 -2.05781 3.97942 0
M  V30 12333 C 1127.41 -3.31529 2.65121 0
M  V30 12334 C 1125.32 -3.16767 4.99412 0
M  V30 12335 H 1124.25 -0.527717 0.538545 0
M  V30 12336 H 1126.9 -0.699756 1.69634 0
M  V30 12337 H 1125.28 -3.27156 2.23125 0
M  V30 12338 H 1126.45 -1.398 4.39081 0
M  V30 12339 H 1124.77 -1.41312 3.91688 0
M  V30 12340 H 1127.37 -4.14233 3.38105 0
M  V30 12341 H 1127.71 -3.79855 1.70341 0
M  V30 12342 H 1128.24 -2.65649 2.961 0
M  V30 12343 H 1124.98 -2.73404 5.9576 0
M  V30 12344 H 1124.5 -3.81445 4.62882 0
M  V30 12345 H 1126.18 -3.81827 5.22319 0
M  V30 12346 N 1126.31 -1.30234 -0.887518 0
M  V30 12347 C 1127.56 -1.18675 -1.63587 0
M  V30 12348 C 1127.88 0.259342 -1.93268 0
M  V30 12349 O 1127.15 1.17523 -1.56733 0
M  V30 12350 H 1125.73 -0.436224 -0.606397 0
M  V30 12351 H 1128.39 -1.63326 -1.06351 0
M  V30 12352 H 1127.49 -1.74575 -2.58708 0
M  V30 12353 N 1127.79 1.09952 -1.12909 0
M  V30 12354 C 1128.72 2.18477 -0.824014 0
M  V30 12355 C 1129.7 1.68744 0.214324 0
M  V30 12356 O 1130.89 1.94057 0.0744281 0
M  V30 12357 C 1128.02 3.46143 -0.283308 0
M  V30 12358 C 1126.97 4.09178 -1.25528 0
M  V30 12359 C 1126.3 5.31604 -0.574574 0
M  V30 12360 C 1127.6 4.52308 -2.6118 0
M  V30 12361 H 1129.29 2.44254 -1.73148 0
M  V30 12362 H 1126.84 1.17394 -0.833952 0
M  V30 12363 H 1128.79 4.21361 -0.057583 0
M  V30 12364 H 1127.51 3.19872 0.659525 0
M  V30 12365 H 1126.17 3.35973 -1.4669 0
M  V30 12366 H 1125.82 5.01611 0.37356 0
M  V30 12367 H 1125.52 5.74732 -1.22299 0
M  V30 12368 H 1127.04 6.0955 -0.358004 0
M  V30 12369 H 1128.46 5.18776 -2.44017 0
M  V30 12370 H 1126.86 5.06302 -3.22147 0
M  V30 12371 H 1127.93 3.64977 -3.19249 0
M  V30 12372 N 1129.27 0.921757 1.27833 0
M  V30 12373 C 1130.49 0.574599 1.99281 0
M  V30 12374 C 1130.92 -0.838905 1.68357 0
M  V30 12375 O 1130.28 -1.56196 0.920468 0
M  V30 12376 C 1130.32 0.800027 3.51613 0
M  V30 12377 O 1129.43 -0.137215 4.12172 0
M  V30 12378 H 1128.77 0.221887 0.625829 0
M  V30 12379 H 1131.3 1.23939 1.62789 0
M  V30 12380 H 1131.31 0.71326 4.01717 0
M  V30 12381 H 1129.98 1.83042 3.73455 0
M  V30 12382 H 1128.56 -0.00103872 3.729 0
M  V30 12383 N 1130.75 -1.41857 0.686609 0
M  V30 12384 C 1131.99 -2.01666 0.214118 0
M  V30 12385 C 1132.33 -1.5422 -1.18025 0
M  V30 12386 O 1131.6 -0.749482 -1.7948 0
M  V30 12387 C 1131.88 -3.59147 0.261841 0
M  V30 12388 C 1131.74 -4.16742 1.69251 0
M  V30 12389 C 1133.06 -4.38427 -0.383378 0
M  V30 12390 H 1130.17 -0.732724 0.0792785 0
M  V30 12391 H 1132.82 -1.68724 0.873633 0
M  V30 12392 H 1130.97 -3.87342 -0.29971 0
M  V30 12393 H 1132.64 -3.99456 2.30722 0
M  V30 12394 H 1130.88 -3.72124 2.2295 0
M  V30 12395 H 1131.55 -5.25894 1.6775 0
M  V30 12396 H 1134.03 -4.15992 0.0947701 0
M  V30 12397 H 1132.9 -5.4797 -0.319401 0
M  V30 12398 H 1133.17 -4.172 -1.46276 0
M  V30 12399 N 1132.22 -0.430739 -1.51599 0
M  V30 12400 C 1133.17 0.384024 -2.27583 0
M  V30 12401 C 1134.14 1.02254 -1.30895 0
M  V30 12402 O 1135.33 1.0427 -1.59789 0
M  V30 12403 C 1132.47 1.48291 -3.11615 0
M  V30 12404 C 1131.58 0.863187 -4.23288 0
M  V30 12405 C 1130.71 1.93657 -4.94642 0
M  V30 12406 C 1129.75 1.29493 -5.98246 0
M  V30 12407 N 1128.89 2.30939 -6.63032 0
M  V30 12408 H 1133.73 -0.270314 -2.96771 0
M  V30 12409 H 1131.27 -0.145148 -1.46382 0
M  V30 12410 H 1133.23 2.13124 -3.58656 0
M  V30 12411 H 1131.86 2.10697 -2.44554 0
M  V30 12412 H 1130.91 0.103326 -3.8026 0
M  V30 12413 H 1132.22 0.354676 -4.97537 0
M  V30 12414 H 1131.37 2.66167 -5.45197 0
M  V30 12415 H 1130.11 2.4788 -4.20008 0
M  V30 12416 H 1129.12 0.555262 -5.46989 0
M  V30 12417 H 1130.34 0.760122 -6.74833 0
M  V30 12418 H 1128.29 2.84254 -5.91216 0
M  V30 12419 H 1128.21 1.84961 -7.33025 0
M  V30 12420 H 1129.47 3.02953 -7.1822 0
M  V30 12421 N 1133.7 1.56767 -0.161869 0
M  V30 12422 C 1134.93 2.01401 0.49523 0
M  V30 12423 C 1135.35 1.04133 1.56646 0
M  V30 12424 O 1134.71 0.0193747 1.8129 0
M  V30 12425 C 1134.76 3.44695 1.05913 0
M  V30 12426 O 1133.86 3.50475 2.1735 0
M  V30 12427 H 1133.2 0.65314 0.1196 0
M  V30 12428 H 1135.73 2.02903 -0.26298 0
M  V30 12429 H 1135.74 3.83805 1.3841 0
M  V30 12430 H 1134.42 4.14991 0.274749 0
M  V30 12431 H 1133 3.23218 1.85969 0
M  V30 12432 N 1135.18 -0.111886 1.57202 0
M  V30 12433 C 1136.11 -1.13796 2.03894 0
M  V30 12434 C 1137.09 -1.4277 0.924696 0
M  V30 12435 O 1138.28 -1.53089 1.19488 0
M  V30 12436 C 1135.41 -2.46229 2.44925 0
M  V30 12437 C 1134.36 -2.31702 3.59859 0
M  V30 12438 C 1133.69 -3.69161 3.86813 0
M  V30 12439 C 1134.99 -1.77158 4.91337 0
M  V30 12440 H 1136.68 -0.749581 2.89865 0
M  V30 12441 H 1134.23 -0.359126 1.3945 0
M  V30 12442 H 1136.18 -3.18267 2.76195 0
M  V30 12443 H 1134.9 -2.86971 1.55933 0
M  V30 12444 H 1133.56 -1.62112 3.28809 0
M  V30 12445 H 1133.21 -4.07401 2.95015 0
M  V30 12446 H 1132.91 -3.60292 4.6418 0
M  V30 12447 H 1134.43 -4.42693 4.20542 0
M  V30 12448 H 1135.85 -2.3902 5.21097 0
M  V30 12449 H 1134.25 -1.79091 5.72753 0
M  V30 12450 H 1135.32 -0.729675 4.79379 0
M  V30 12451 N 1136.66 -1.52894 -0.382264 0
M  V30 12452 C 1137.62 -1.77497 -1.45008 0
M  V30 12453 C 1138.62 -0.64509 -1.47293 0
M  V30 12454 O 1139.81 -0.913192 -1.48346 0
M  V30 12455 C 1136.94 -1.88188 -2.8425 0
M  V30 12456 H 1138.14 -2.72849 -1.24473 0
M  V30 12457 H 1135.69 -1.43717 -0.61441 0
M  V30 12458 H 1136.42 -0.948451 -3.10121 0
M  V30 12459 H 1136.21 -2.70353 -2.83992 0
M  V30 12460 H 1137.7 -2.08873 -3.6161 0
M  V30 12461 N 1138.14 0.641106 -1.43971 0
M  V30 12462 C 1139.39 1.39807 -1.4594 0
M  V30 12463 C 1139.71 1.94795 -0.0893874 0
M  V30 12464 O 1138.98 1.75175 0.876962 0
M  V30 12465 H 1137.56 0.518908 -0.537349 0
M  V30 12466 H 1140.22 0.755278 -1.79671 0
M  V30 12467 H 1139.31 2.23439 -2.17903 0
M  V30 12468 N 1139.62 1.30703 0.880598 0
M  V30 12469 C 1140.86 1.19541 1.62955 0
M  V30 12470 C 1141.18 -0.249089 1.93403 0
M  V30 12471 O 1140.45 -1.1669 1.57354 0
M  V30 12472 H 1139.03 0.439434 0.604075 0
M  V30 12473 H 1141.7 1.63888 1.05483 0
M  V30 12474 H 1140.79 1.75945 2.57779 0
M  V30 12475 N 1141.09 -1.09351 1.1349 0
M  V30 12476 C 1142.02 -2.18037 0.835588 0
M  V30 12477 C 1143 -1.68856 -0.205373 0
M  V30 12478 O 1144.19 -1.94094 -0.0641357 0
M  V30 12479 C 1141.32 -3.45987 0.301661 0
M  V30 12480 C 1140.27 -4.08507 1.27696 0
M  V30 12481 C 1139.6 -5.31292 0.602758 0
M  V30 12482 C 1140.9 -4.50916 2.63575 0
M  V30 12483 H 1142.59 -2.43332 1.74441 0
M  V30 12484 H 1140.14 -1.1695 0.840166 0
M  V30 12485 H 1142.09 -4.21324 0.079928 0
M  V30 12486 H 1140.82 -3.20217 -0.642552 0
M  V30 12487 H 1139.48 -3.3519 1.4847 0
M  V30 12488 H 1139.12 -5.01802 -0.346953 0
M  V30 12489 H 1138.82 -5.74075 1.25345 0
M  V30 12490 H 1140.35 -6.09351 0.390325 0
M  V30 12491 H 1141.76 -5.17474 2.46765 0
M  V30 12492 H 1140.16 -5.04586 3.24827 0
M  V30 12493 H 1141.23 -3.63279 3.2118 0
M  V30 12494 N 1142.57 -0.928524 -1.27343 0
M  V30 12495 C 1143.82 -0.570235 -1.94618 0
M  V30 12496 C 1144.15 0.886381 -1.72792 0
M  V30 12497 O 1143.43 1.63242 -1.05747 0
M  V30 12498 C 1143.71 -0.897964 -3.48724 0
M  V30 12499 C 1143.56 -2.40839 -3.7989 0
M  V30 12500 C 1144.88 -0.404429 -4.38238 0
M  V30 12501 H 1142 -0.208645 -0.70685 0
M  V30 12502 H 1144.64 -1.16045 -1.50444 0
M  V30 12503 H 1142.79 -0.395679 -3.8648 0
M  V30 12504 H 1144.46 -2.98243 -3.51921 0
M  V30 12505 H 1142.71 -2.85723 -3.26412 0
M  V30 12506 H 1143.38 -2.58823 -4.8756 0
M  V30 12507 H 1145.85 -0.834918 -4.07637 0
M  V30 12508 H 1144.73 -0.662684 -5.44885 0
M  V30 12509 H 1144.99 0.695507 -4.36595 0
M  V30 12510 N 1144.05 1.41491 -0.694123 0
M  V30 12511 C 1144.98 2.33462 -0.0422169 0
M  V30 12512 C 1145.96 1.51739 0.76872 0
M  V30 12513 O 1147.15 1.8028 0.721985 0
M  V30 12514 C 1144.28 3.35545 0.895925 0
M  V30 12515 C 1143.23 4.27568 0.192188 0
M  V30 12516 C 1142.56 5.20014 1.24459 0
M  V30 12517 C 1143.86 5.1376 -0.940626 0
M  V30 12518 H 1145.55 2.88225 -0.810363 0
M  V30 12519 H 1143.1 1.38586 -0.39114 0
M  V30 12520 H 1145.05 3.9881 1.36121 0
M  V30 12521 H 1143.77 2.79129 1.69572 0
M  V30 12522 H 1142.43 3.65726 -0.25305 0
M  V30 12523 H 1142.08 4.59913 2.03687 0
M  V30 12524 H 1141.78 5.82417 0.778734 0
M  V30 12525 H 1143.3 5.86155 1.71041 0
M  V30 12526 H 1144.72 5.70601 -0.555692 0
M  V30 12527 H 1143.11 5.85097 -1.33349 0
M  V30 12528 H 1144.18 4.51011 -1.78093 0
M  V30 12529 N 1145.53 0.438773 1.51369 0
M  V30 12530 C 1146.77 -0.127213 2.021 0
M  V30 12531 C 1147.1 -1.42587 1.32284 0
M  V30 12532 O 1146.36 -1.90986 0.426949 0
M  V30 12533 C 1146.66 -0.39186 3.55245 0
M  V30 12534 C 1146.32 0.821158 4.4336 0
M  V30 12535 C 1144.98 1.15381 4.67162 0
M  V30 12536 C 1147.34 1.6303 4.95046 0
M  V30 12537 C 1144.66 2.29626 5.39897 0
M  V30 12538 C 1147.02 2.76376 5.69033 0
M  V30 12539 C 1145.68 3.10094 5.91099 0
M  V30 12540 H 1144.95 -0.0465505 0.739536 0
M  V30 12541 H 1147.6 0.586261 1.82305 0
M  V30 12542 H 1145.9 -1.18724 3.73379 0
M  V30 12543 H 1147.6 -0.843228 3.92034 0
M  V30 12544 H 1144.19 0.551946 4.25031 0
M  V30 12545 H 1148.37 1.38651 4.76539 0
M  V30 12546 H 1143.63 2.56062 5.55196 0
M  V30 12547 H 1147.8 3.39442 6.08072 0
M  V30 12548 H 1145.43 3.98731 6.47238 0
M  V30 12549 N 1147.01 -1.56678 0.170181 0
M  V30 12550 C 1148.25 -1.96849 -0.475064 0
M  V30 12551 C 1148.58 -1.05611 -1.6333 0
M  V30 12552 O 1147.84 -0.0899708 -1.95493 0
M  V30 12553 C 1148.13 -3.43103 -1.00076 0
M  V30 12554 C 1147.8 -4.50881 0.0414538 0
M  V30 12555 C 1146.46 -4.80082 0.327894 0
M  V30 12556 C 1148.81 -5.15791 0.748936 0
M  V30 12557 C 1146.14 -5.71491 1.32722 0
M  V30 12558 C 1148.49 -6.08278 1.73724 0
M  V30 12559 C 1147.16 -6.35847 2.03114 0
M  V30 12560 H 1146.43 -0.72032 -0.173838 0
M  V30 12561 H 1149.08 -1.89701 0.261903 0
M  V30 12562 H 1147.38 -3.47197 -1.81553 0
M  V30 12563 H 1149.08 -3.71525 -1.50899 0
M  V30 12564 H 1145.67 -4.2817 -0.191976 0
M  V30 12565 H 1149.85 -4.93344 0.540852 0
M  V30 12566 H 1145.11 -5.91134 1.56112 0
M  V30 12567 H 1149.28 -6.57643 2.29082 0
M  V30 12568 H 1146.91 -7.06479 2.80698 0
M  V30 12569 N 1148.48 0.103547 -1.57259 0
M  V30 12570 C 1149.73 0.808576 -1.85656 0
M  V30 12571 C 1150.06 1.79143 -0.757502 0
M  V30 12572 O 1149.31 1.941 0.249723 0
M  V30 12573 C 1149.61 1.57946 -3.20605 0
M  V30 12574 C 1149.28 0.739502 -4.44795 0
M  V30 12575 C 1147.94 0.507921 -4.78512 0
M  V30 12576 C 1150.29 0.155034 -5.20969 0
M  V30 12577 C 1147.62 -0.318129 -5.85837 0
M  V30 12578 C 1149.97 -0.658292 -6.29166 0
M  V30 12579 C 1148.64 -0.900044 -6.61404 0
M  V30 12580 H 1147.91 0.295879 -0.679365 0
M  V30 12581 H 1150.55 0.0703604 -1.91371 0
M  V30 12582 H 1148.86 2.38902 -3.10537 0
M  V30 12583 H 1150.56 2.12921 -3.39803 0
M  V30 12584 H 1147.15 0.930103 -4.18386 0
M  V30 12585 H 1151.33 0.32113 -4.9526 0
M  V30 12586 H 1146.59 -0.514495 -6.09231 0
M  V30 12587 H 1150.76 -1.11809 -6.87366 0
M  V30 12588 H 1148.39 -1.54194 -7.44398 0
M  V30 12589 N 1149.96 1.53094 0.37415 0
M  V30 12590 C 1151.21 1.68861 1.11769 0
M  V30 12591 C 1151.54 0.436032 1.89549 0
M  V30 12592 O 1150.79 -0.581879 1.86849 0
M  V30 12593 C 1151.09 2.88432 2.11049 0
M  V30 12594 C 1150.76 4.25284 1.49814 0
M  V30 12595 C 1149.42 4.62501 1.32841 0
M  V30 12596 C 1151.77 5.10425 1.05433 0
M  V30 12597 C 1149.1 5.82502 0.700567 0
M  V30 12598 C 1151.45 6.31064 0.440525 0
M  V30 12599 C 1150.11 6.67 0.258216 0
M  V30 12600 H 1149.38 0.617906 0.40899 0
M  V30 12601 H 1152.03 1.87265 0.4005 0
M  V30 12602 H 1150.34 2.64505 2.8904 0
M  V30 12603 H 1152.03 2.97825 2.68517 0
M  V30 12604 H 1148.62 3.95976 1.64016 0
M  V30 12605 H 1152.81 4.82229 1.17342 0
M  V30 12606 H 1148.06 6.08942 0.547652 0
M  V30 12607 H 1152.24 6.96344 0.0883962 0
M  V30 12608 H 1149.86 7.59851 -0.230354 0
M  V30 12609 N 1151.44 -0.633461 1.44309 0
M  V30 12610 C 1152.67 -1.42033 1.50447 0
M  V30 12611 C 1153.08 -1.88362 0.128585 0
M  V30 12612 O 1152.44 -1.60695 -0.865071 0
M  V30 12613 C 1152.49 -2.6422 2.46719 0
M  V30 12614 O 1152.21 -2.19823 3.78958 0
M  V30 12615 C 1153.71 -3.57372 2.62298 0
M  V30 12616 H 1150.93 -0.435667 0.510329 0
M  V30 12617 H 1153.48 -0.774907 1.8925 0
M  V30 12618 H 1151.63 -3.24859 2.11058 0
M  V30 12619 H 1152.05 -2.99022 4.30913 0
M  V30 12620 H 1153.52 -4.39719 3.33693 0
M  V30 12621 H 1154 -4.06026 1.67449 0
M  V30 12622 H 1154.6 -3.02603 2.9885 0
M  V30 12623 N 1152.92 -1.31168 -0.873655 0
M  V30 12624 C 1153.88 -1.18471 -1.96207 0
M  V30 12625 C 1154.88 -0.112814 -1.60404 0
M  V30 12626 O 1156.07 -0.3618 -1.70401 0
M  V30 12627 C 1153.2 -0.817662 -3.30949 0
M  V30 12628 H 1154.4 -2.1518 -2.08896 0
M  V30 12629 H 1151.95 -1.14727 -1.06149 0
M  V30 12630 H 1152.68 0.148428 -3.2396 0
M  V30 12631 H 1152.47 -1.59244 -3.58307 0
M  V30 12632 H 1153.96 -0.75262 -4.10762 0
M  V30 12633 N 1154.4 1.08748 -1.14068 0
M  V30 12634 C 1155.64 1.81065 -0.906738 0
M  V30 12635 C 1155.97 1.86057 0.566844 0
M  V30 12636 O 1155.23 1.32976 1.43582 0
M  V30 12637 C 1155.53 3.26734 -1.44843 0
M  V30 12638 C 1155.19 3.41866 -2.94005 0
M  V30 12639 C 1153.85 3.45703 -3.34729 0
M  V30 12640 C 1156.21 3.45831 -3.89937 0
M  V30 12641 C 1153.53 3.51092 -4.70055 0
M  V30 12642 C 1155.89 3.52755 -5.25116 0
M  V30 12643 C 1154.55 3.54863 -5.65357 0
M  V30 12644 H 1153.82 0.662564 -0.331799 0
M  V30 12645 H 1156.47 1.28065 -1.42378 0
M  V30 12646 H 1154.77 3.82419 -0.852239 0
M  V30 12647 H 1156.47 3.81236 -1.2434 0
M  V30 12648 H 1153.06 3.39568 -2.61518 0
M  V30 12649 H 1157.24 3.421 -3.59557 0
M  V30 12650 H 1152.5 3.51015 -5.00598 0
M  V30 12651 H 1156.67 3.54768 -5.9926 0
M  V30 12652 H 1154.3 3.58792 -6.70203 0
M  V30 12653 N 1155.87 0.935264 1.26849 0
M  V30 12654 C 1156.84 0.44485 2.24842 0
M  V30 12655 C 1157.84 -0.440781 1.54641 0
M  V30 12656 O 1159.03 -0.240793 1.72528 0
M  V30 12657 C 1156.16 -0.359566 3.38998 0
M  V30 12658 H 1157.35 1.31074 2.6974 0
M  V30 12659 H 1154.91 0.716665 1.38901 0
M  V30 12660 H 1155.64 -1.24396 2.99493 0
M  V30 12661 H 1155.43 0.275529 3.91131 0
M  V30 12662 H 1156.92 -0.692804 4.11813 0
M  V30 12663 N 1157.35 -1.41121 0.701616 0
M  V30 12664 C 1158.58 -2.05452 0.244365 0
M  V30 12665 C 1159 -1.5282 -1.10866 0
M  V30 12666 O 1158.35 -0.67893 -1.69401 0
M  V30 12667 C 1158.4 -3.60946 0.200112 0
M  V30 12668 O 1158.12 -4.11632 1.4997 0
M  V30 12669 C 1159.63 -4.42431 -0.277394 0
M  V30 12670 H 1156.85 -0.66151 0.112453 0
M  V30 12671 H 1159.39 -1.80784 0.9559 0
M  V30 12672 H 1157.54 -3.84632 -0.462287 0
M  V30 12673 H 1157.96 -5.05723 1.39084 0
M  V30 12674 H 1159.43 -5.514 -0.257225 0
M  V30 12675 H 1159.91 -4.1898 -1.31728 0
M  V30 12676 H 1160.52 -4.23822 0.354223 0
M  V30 12677 N 1158.83 -0.446794 -1.51134 0
M  V30 12678 C 1159.76 0.350229 -2.30858 0
M  V30 12679 C 1160.74 1.0125 -1.36684 0
M  V30 12680 O 1161.93 1.01433 -1.65605 0
M  V30 12681 C 1159.06 1.4464 -3.15748 0
M  V30 12682 C 1158.01 0.907102 -4.18277 0
M  V30 12683 C 1157.34 2.09974 -4.91747 0
M  V30 12684 C 1158.64 -0.0649758 -5.2226 0
M  V30 12685 H 1160.33 -0.315105 -2.97737 0
M  V30 12686 H 1157.88 -0.152985 -1.43185 0
M  V30 12687 H 1159.83 2.01127 -3.70305 0
M  V30 12688 H 1158.55 2.14016 -2.46708 0
M  V30 12689 H 1157.21 0.364382 -3.64785 0
M  V30 12690 H 1156.86 2.77991 -4.19202 0
M  V30 12691 H 1156.56 1.74523 -5.61084 0
M  V30 12692 H 1158.08 2.66996 -5.49131 0
M  V30 12693 H 1159.5 0.4099 -5.71833 0
M  V30 12694 H 1157.9 -0.332529 -5.99178 0
M  V30 12695 H 1158.97 -0.998681 -4.74504 0
M  V30 12696 N 1160.31 1.56586 -0.178487 0
M  V30 12697 C 1161.54 2.01475 0.470684 0
M  V30 12698 C 1161.95 1.0587 1.56323 0
M  V30 12699 O 1161.31 0.060749 1.82399 0
M  V30 12700 C 1161.36 3.46145 1.04238 0
M  V30 12701 O 1161.08 4.381 -0.0065582 0
M  V30 12702 C 1162.58 4.06471 1.76908 0
M  V30 12703 H 1159.8 0.660219 0.119801 0
M  V30 12704 H 1162.35 2.02542 -0.282322 0
M  V30 12705 H 1160.5 3.45831 1.74585 0
M  V30 12706 H 1160.91 5.22843 0.416554 0
M  V30 12707 H 1162.39 5.096 2.12161 0
M  V30 12708 H 1162.87 3.48974 2.66672 0
M  V30 12709 H 1163.47 4.10509 1.11186 0
M  V30 12710 N 1161.79 -0.095206 1.57312 0
M  V30 12711 C 1163.03 -0.799903 1.86358 0
M  V30 12712 C 1163.37 -1.78386 0.767593 0
M  V30 12713 O 1162.64 -1.93201 -0.224439 0
M  V30 12714 C 1162.92 -1.52875 3.26039 0
M  V30 12715 C 1162.78 -0.562781 4.46265 0
M  V30 12716 C 1164.1 -2.47935 3.63616 0
M  V30 12717 H 1161.21 -0.289339 0.677829 0
M  V30 12718 H 1163.86 -0.0635369 1.89894 0
M  V30 12719 H 1162.01 -2.15645 3.23156 0
M  V30 12720 H 1163.68 0.0579068 4.61264 0
M  V30 12721 H 1161.92 0.123847 4.33623 0
M  V30 12722 H 1162.59 -1.10989 5.40727 0
M  V30 12723 H 1165.07 -1.95257 3.67442 0
M  V30 12724 H 1163.94 -2.95948 4.62283 0
M  V30 12725 H 1164.21 -3.31687 2.92294 0
M  V30 12726 N 1163.26 -1.53291 -0.366026 0
M  V30 12727 C 1164.23 -1.79025 -1.43117 0
M  V30 12728 C 1165.23 -0.660676 -1.46601 0
M  V30 12729 O 1166.42 -0.928875 -1.47369 0
M  V30 12730 C 1163.55 -1.91192 -2.82238 0
M  V30 12731 H 1164.74 -2.74154 -1.21572 0
M  V30 12732 H 1162.3 -1.44361 -0.599132 0
M  V30 12733 H 1163.03 -0.98129 -3.09097 0
M  V30 12734 H 1162.82 -2.7335 -2.81109 0
M  V30 12735 H 1164.31 -2.12696 -3.59375 0
M  V30 12736 N 1164.74 0.6258 -1.44643 0
M  V30 12737 C 1165.99 1.38125 -1.46984 0
M  V30 12738 C 1166.3 1.95299 -0.108429 0
M  V30 12739 O 1167.51 2.71498 -0.00940005 0
M  V30 12740 C 1165.97 2.50108 -2.58793 0
M  V30 12741 C 1165.57 1.99424 -4.01166 0
M  V30 12742 C 1167.32 3.27269 -2.70361 0
M  V30 12743 C 1165.23 3.08781 -5.04389 0
M  V30 12744 H 1164.16 0.519083 -0.546872 0
M  V30 12745 H 1166.81 0.67268 -1.70726 0
M  V30 12746 H 1165.19 3.23565 -2.28302 0
M  V30 12747 H 1166.36 1.32797 -4.4125 0
M  V30 12748 H 1164.68 1.35063 -3.93887 0
M  V30 12749 H 1167.27 4.08802 -3.44652 0
M  V30 12750 H 1167.62 3.77097 -1.76362 0
M  V30 12751 H 1168.15 2.60905 -3.00289 0
M  V30 12752 H 1164.89 2.63891 -6.00035 0
M  V30 12753 H 1164.41 3.74033 -4.68892 0
M  V30 12754 H 1166.09 3.73469 -5.28328 0
M  V30 12755 N 1166.22 1.31629 0.866686 0
M  V30 12756 C 1167.15 1.22151 1.99001 0
M  V30 12757 C 1168.13 0.107972 1.69757 0
M  V30 12758 O 1169.32 0.293125 1.91975 0
M  V30 12759 C 1166.45 0.93144 3.34577 0
M  V30 12760 C 1165.4 2.0049 3.78137 0
M  V30 12761 C 1164.73 1.56747 5.11209 0
M  V30 12762 C 1166.03 3.41844 3.94892 0
M  V30 12763 H 1167.72 2.16132 2.0719 0
M  V30 12764 H 1165.27 1.04051 0.995463 0
M  V30 12765 H 1167.22 0.851719 4.12703 0
M  V30 12766 H 1165.94 -0.0440289 3.2657 0
M  V30 12767 H 1164.6 2.07457 3.02253 0
M  V30 12768 H 1164.25 0.579767 4.99648 0
M  V30 12769 H 1163.95 2.28562 5.41326 0
M  V30 12770 H 1165.47 1.50188 5.91841 0
M  V30 12771 H 1166.89 3.37534 4.63405 0
M  V30 12772 H 1165.29 4.11905 4.36411 0
M  V30 12773 H 1166.36 3.82389 2.98172 0
M  V30 12774 N 1167.7 -1.08142 1.14644 0
M  V30 12775 C 1168.63 -2.17139 0.858667 0
M  V30 12776 C 1169.61 -1.69064 -0.187452 0
M  V30 12777 O 1170.8 -1.94151 -0.0435458 0
M  V30 12778 C 1167.93 -3.45648 0.33834 0
M  V30 12779 C 1166.88 -4.07129 1.32021 0
M  V30 12780 C 1166.21 -5.30623 0.659075 0
M  V30 12781 C 1167.51 -4.48095 2.68343 0
M  V30 12782 H 1169.2 -2.41468 1.77012 0
M  V30 12783 H 1166.75 -1.16052 0.852523 0
M  V30 12784 H 1168.7 -4.21216 0.124611 0
M  V30 12785 H 1167.42 -3.2088 -0.608553 0
M  V30 12786 H 1166.08 -3.33596 1.52016 0
M  V30 12787 H 1165.73 -5.02142 -0.293711 0
M  V30 12788 H 1165.43 -5.72714 1.31427 0
M  V30 12789 H 1166.95 -6.08903 0.454933 0
M  V30 12790 H 1168.37 -5.14828 2.5224 0
M  V30 12791 H 1166.76 -5.01113 3.30161 0
M  V30 12792 H 1167.83 -3.59852 3.25015 0
M  V30 12793 N 1169.18 -0.941978 -1.26351 0
M  V30 12794 C 1170.43 -0.585711 -1.93009 0
M  V30 12795 C 1170.74 0.879507 -1.74711 0
M  V30 12796 O 1171.95 1.34518 -2.35833 0
M  V30 12797 C 1170.4 -0.996787 -3.45821 0
M  V30 12798 C 1170.01 -2.48367 -3.72851 0
M  V30 12799 C 1171.75 -0.712452 -4.18479 0
M  V30 12800 C 1169.66 -2.83341 -5.19107 0
M  V30 12801 H 1168.59 -0.215342 -0.722595 0
M  V30 12802 H 1171.24 -1.14472 -1.43417 0
M  V30 12803 H 1169.62 -0.366295 -3.94302 0
M  V30 12804 H 1170.8 -3.16328 -3.35072 0
M  V30 12805 H 1169.11 -2.74139 -3.13427 0
M  V30 12806 H 1171.71 -0.95007 -5.26192 0
M  V30 12807 H 1172.05 0.350811 -4.14819 0
M  V30 12808 H 1172.59 -1.3027 -3.75865 0
M  V30 12809 H 1169.32 -3.88633 -5.27868 0
M  V30 12810 H 1168.84 -2.20043 -5.5798 0
M  V30 12811 H 1170.52 -2.71849 -5.87118 0
M  V30 12812 N 1170.66 1.40747 -0.709091 0
M  V30 12813 C 1171.59 2.282 -0.00156906 0
M  V30 12814 C 1172.57 1.42981 0.774279 0
M  V30 12815 O 1173.75 1.724 0.762276 0
M  V30 12816 C 1170.88 3.23441 1.00517 0
M  V30 12817 C 1169.92 4.25291 0.320904 0
M  V30 12818 S 1170.76 5.27069 -0.946518 0
M  V30 12819 C 1171.91 6.25873 0.0582856 0
M  V30 12820 H 1172.15 2.87859 -0.743271 0
M  V30 12821 H 1169.68 1.46085 -0.499866 0
M  V30 12822 H 1171.64 3.78841 1.58082 0
M  V30 12823 H 1170.3 2.62851 1.71954 0
M  V30 12824 H 1169.49 4.92255 1.08173 0
M  V30 12825 H 1169.09 3.73557 -0.18202 0
M  V30 12826 H 1171.38 6.71398 0.907233 0
M  V30 12827 H 1172.33 7.05739 -0.577787 0
M  V30 12828 H 1172.74 5.62942 0.419108 0
M  V30 12829 N 1172.13 0.454803 1.50895 0
M  V30 12830 C 1173.04 -0.353495 2.31921 0
M  V30 12831 C 1174.06 -1.01136 1.41589 0
M  V30 12832 O 1175.24 -1.00291 1.74653 0
M  V30 12833 C 1172.3 -1.43032 3.15821 0
M  V30 12834 C 1171.36 -0.790763 4.21954 0
M  V30 12835 C 1170.59 -1.81628 5.01843 0
M  V30 12836 O 1170.82 -3.04078 4.8259 0
M  V30 12837 O 1169.75 -1.39713 5.8546 0
M  V30 12838 H 1173.58 0.308463 3.02129 0
M  V30 12839 H 1171.16 0.216971 1.47816 0
M  V30 12840 H 1173.04 -2.05444 3.67927 0
M  V30 12841 H 1171.72 -2.07605 2.48358 0
M  V30 12842 H 1170.63 -0.128127 3.73881 0
M  V30 12843 H 1171.96 -0.188251 4.9184 0
M  V30 12844 N 1173.61 -1.56489 0.186789 0
M  V30 12845 C 1174.86 -1.96952 -0.453261 0
M  V30 12846 C 1175.18 -1.07451 -1.62725 0
M  V30 12847 O 1174.45 -0.144046 -1.9537 0
M  V30 12848 H 1173.03 -0.727295 -0.170445 0
M  V30 12849 H 1175.69 -1.92999 0.271584 0
M  V30 12850 H 1174.79 -3.01594 -0.802951 0
M  V30 12851 N 1175.09 0.086862 -1.5736 0
M  V30 12852 C 1176.02 1.10538 -2.05678 0
M  V30 12853 C 1177 1.41281 -0.947293 0
M  V30 12854 O 1178.19 1.51169 -1.21908 0
M  V30 12855 C 1175.32 2.42302 -2.48812 0
M  V30 12856 C 1174.27 2.25948 -3.63499 0
M  V30 12857 C 1173.6 3.62961 -3.92637 0
M  V30 12858 C 1174.9 1.69319 -4.94094 0
M  V30 12859 H 1176.59 0.703371 -2.91021 0
M  V30 12860 H 1174.14 0.336895 -1.40004 0
M  V30 12861 H 1176.09 3.13833 -2.81224 0
M  V30 12862 H 1174.81 2.84454 -1.60479 0
M  V30 12863 H 1173.47 1.5686 -3.31347 0
M  V30 12864 H 1173.12 4.02656 -3.01459 0
M  V30 12865 H 1172.82 3.52862 -4.69853 0
M  V30 12866 H 1174.34 4.35946 -4.27531 0
M  V30 12867 H 1175.76 2.30699 -5.24834 0
M  V30 12868 H 1174.15 1.69957 -5.7553 0
M  V30 12869 H 1175.22 0.653318 -4.80479 0
M  V30 12870 N 1176.57 1.53483 0.357892 0
M  V30 12871 C 1177.79 1.74264 1.12458 0
M  V30 12872 C 1178.22 0.473944 1.82031 0
M  V30 12873 O 1177.58 -0.57253 1.72023 0
M  V30 12874 C 1177.62 2.91356 2.12471 0
M  V30 12875 O 1176.73 2.60502 3.19707 0
M  V30 12876 H 1176.07 0.578499 0.325937 0
M  V30 12877 H 1178.6 2.00395 0.412666 0
M  V30 12878 H 1178.61 3.1774 2.5594 0
M  V30 12879 H 1177.28 3.83378 1.61226 0
M  V30 12880 H 1175.86 2.44961 2.81156 0
M  V30 12881 N 1178.05 -0.61812 1.44973 0
M  V30 12882 C 1179.01 -1.71135 1.52465 0
M  V30 12883 C 1180.01 -1.5561 0.405246 0
M  V30 12884 O 1181.2 -1.60869 0.668351 0
M  V30 12885 C 1178.33 -3.10324 1.41108 0
M  V30 12886 H 1179.52 -1.65862 2.49859 0
M  V30 12887 H 1177.08 -0.832932 1.32257 0
M  V30 12888 H 1177.81 -3.21183 0.448574 0
M  V30 12889 H 1177.6 -3.23001 2.2229 0
M  V30 12890 H 1179.09 -3.89976 1.49361 0
M  V30 12891 N 1179.52 -1.32087 -0.859693 0
M  V30 12892 C 1180.77 -1.2236 -1.61351 0
M  V30 12893 C 1181.1 0.215796 -1.93299 0
M  V30 12894 O 1180.35 1.16742 -1.57066 0
M  V30 12895 C 1180.65 -2.0234 -2.94607 0
M  V30 12896 C 1180.32 -3.51746 -2.82109 0
M  V30 12897 C 1178.98 -3.92482 -2.78408 0
M  V30 12898 C 1181.33 -4.46776 -2.68403 0
M  V30 12899 C 1178.66 -5.265 -2.58873 0
M  V30 12900 C 1181.01 -5.80931 -2.50404 0
M  V30 12901 C 1179.68 -6.20875 -2.45092 0
M  V30 12902 H 1178.95 -0.447748 -0.590426 0
M  V30 12903 H 1181.59 -1.63461 -0.997637 0
M  V30 12904 H 1179.9 -1.53952 -3.60286 0
M  V30 12905 H 1181.6 -1.92187 -3.51945 0
M  V30 12906 H 1178.19 -3.19389 -2.85812 0
M  V30 12907 H 1182.37 -4.16228 -2.70311 0
M  V30 12908 H 1177.63 -5.5651 -2.53192 0
M  V30 12909 H 1181.8 -6.54185 -2.38777 0
M  V30 12910 H 1179.43 -7.24662 -2.29714 0
M  V30 12911 N 1181 1.07532 -1.15215 0
M  V30 12912 C 1181.93 2.1668 -0.870171 0
M  V30 12913 C 1182.91 1.69161 0.178483 0
M  V30 12914 O 1184.1 1.94172 0.0332489 0
M  V30 12915 C 1181.23 3.45464 -0.356666 0
M  V30 12916 C 1180.18 4.06424 -1.34179 0
M  V30 12917 C 1179.51 5.30266 -0.687206 0
M  V30 12918 C 1180.81 4.46666 -2.70715 0
M  V30 12919 H 1182.5 2.40526 -1.7829 0
M  V30 12920 H 1180.05 1.15598 -0.858665 0
M  V30 12921 H 1182 4.21144 -0.146947 0
M  V30 12922 H 1180.72 3.21199 0.591527 0
M  V30 12923 H 1179.38 3.32786 -1.53783 0
M  V30 12924 H 1179.03 5.0229 0.267077 0
M  V30 12925 H 1178.73 5.72009 -1.34462 0
M  V30 12926 H 1180.26 6.08653 -0.487218 0
M  V30 12927 H 1181.67 5.13483 -2.54966 0
M  V30 12928 H 1180.07 4.99355 -3.32813 0
M  V30 12929 H 1181.14 3.58123 -3.26919 0
M  V30 12930 N 1182.48 0.948665 1.2585 0
M  V30 12931 C 1183.43 0.434929 2.23813 0
M  V30 12932 C 1184.41 -0.472518 1.53805 0
M  V30 12933 O 1185.61 -0.306542 1.74325 0
M  V30 12934 C 1182.74 -0.291678 3.42059 0
M  V30 12935 C 1181.82 0.633493 4.19342 0
M  V30 12936 N 1182.21 1.76254 4.74097 0
M  V30 12937 C 1180.51 0.440528 4.43819 0
M  V30 12938 C 1181.21 2.33968 5.32573 0
M  V30 12939 N 1180.19 1.62687 5.18685 0
M  V30 12940 H 1183.99 1.29668 2.63749 0
M  V30 12941 H 1181.5 0.805431 1.4102 0
M  V30 12942 H 1183.5 -0.676811 4.1137 0
M  V30 12943 H 1182.16 -1.15011 3.03649 0
M  V30 12944 H 1183.17 2.14453 4.71413 0
M  V30 12945 H 1179.85 -0.375515 4.15808 0
M  V30 12946 H 1181.24 3.2914 5.85761 0
M  V30 12947 N 1183.96 -1.40369 0.716545 0
M  V30 12948 C 1184.92 -2.29083 0.0733105 0
M  V30 12949 C 1185.92 -1.45415 -0.686378 0
M  V30 12950 O 1187.11 -1.66316 -0.518139 0
M  V30 12951 C 1184.24 -3.28639 -0.906032 0
M  V30 12952 H 1185.44 -2.87464 0.85467 0
M  V30 12953 H 1182.99 -1.48706 0.481256 0
M  V30 12954 H 1183.72 -2.75279 -1.71441 0
M  V30 12955 H 1183.51 -3.90405 -0.364163 0
M  V30 12956 H 1185 -3.95066 -1.35324 0
M  V30 12957 N 1185.44 -0.462799 -1.50652 0
M  V30 12958 C 1186.37 0.325724 -2.31217 0
M  V30 12959 C 1187.35 0.997942 -1.3775 0
M  V30 12960 O 1188.53 0.996707 -1.66671 0
M  V30 12961 C 1185.66 1.41283 -3.17264 0
M  V30 12962 C 1184.62 0.862687 -4.19216 0
M  V30 12963 C 1183.94 2.04746 -4.93946 0
M  V30 12964 C 1185.24 -0.120365 -5.22161 0
M  V30 12965 H 1186.94 -0.346666 -2.97386 0
M  V30 12966 H 1184.48 -0.168163 -1.43015 0
M  V30 12967 H 1186.44 1.97188 -3.72418 0
M  V30 12968 H 1185.16 2.11387 -2.48964 0
M  V30 12969 H 1183.82 0.325671 -3.65151 0
M  V30 12970 H 1183.47 2.73529 -4.22127 0
M  V30 12971 H 1183.17 1.68562 -5.62904 0
M  V30 12972 H 1184.69 2.61157 -5.51932 0
M  V30 12973 H 1186.1 0.349226 -5.72235 0
M  V30 12974 H 1184.5 -0.396061 -5.98792 0
M  V30 12975 H 1185.57 -1.04895 -4.73418 0
M  V30 12976 N 1186.91 1.56388 -0.195085 0
M  V30 12977 C 1188.33 1.58788 0.160758 0
M  V30 12978 C 1188.53 1.21125 1.61031 0
M  V30 12979 O 1187.59 0.933994 2.34591 0
M  V30 12980 C 1188.9 3.00366 -0.141588 0
M  V30 12981 C 1190.45 3.12893 -0.0816947 0
M  V30 12982 C 1190.92 4.56604 -0.35735 0
M  V30 12983 N 1192.41 4.62188 -0.305968 0
M  V30 12984 C 1193.15 5.71276 -0.493108 0
M  V30 12985 N 1192.64 6.8883 -0.740595 0
M  V30 12986 N 1194.44 5.60473 -0.427365 0
M  V30 12987 H 1186.59 1.79151 -1.14099 0
M  V30 12988 H 1188.85 0.831446 -0.455413 0
M  V30 12989 H 1188.56 3.32483 -1.14666 0
M  V30 12990 H 1188.43 3.73082 0.555834 0
M  V30 12991 H 1190.82 2.80589 0.913978 0
M  V30 12992 H 1190.9 2.42564 -0.812193 0
M  V30 12993 H 1190.54 4.8962 -1.35034 0
M  V30 12994 H 1190.47 5.25124 0.394036 0
M  V30 12995 H 1192.96 3.77705 -0.121298 0
M  V30 12996 H 1193.28 7.67862 -0.872201 0
M  V30 12997 H 1191.62 6.90637 -0.777488 0
M  V30 12998 H 1194.81 4.67513 -0.234436 0
M  V30 12999 H 1194.99 6.45429 -0.576627 0
M  V30 13000 N 1188.39 -0.0785156 1.57404 0
M  V30 13001 C 1189.32 -1.09446 2.06262 0
M  V30 13002 C 1190.3 -1.40777 0.954772 0
M  V30 13003 O 1191.49 -1.5052 1.22708 0
M  V30 13004 C 1188.62 -2.40979 2.50093 0
M  V30 13005 C 1187.57 -2.24017 3.64692 0
M  V30 13006 C 1186.9 -3.60873 3.94556 0
M  V30 13007 C 1188.2 -1.66696 4.94985 0
M  V30 13008 H 1189.89 -0.687928 2.9139 0
M  V30 13009 H 1187.44 -0.329466 1.4018 0
M  V30 13010 H 1189.39 -3.12337 2.82884 0
M  V30 13011 H 1188.12 -2.83599 1.61985 0
M  V30 13012 H 1186.77 -1.55101 3.32174 0
M  V30 13013 H 1186.42 -4.01051 3.0359 0
M  V30 13014 H 1186.12 -3.50365 4.71718 0
M  V30 13015 H 1187.65 -4.33673 4.29837 0
M  V30 13016 H 1189.06 -2.27913 5.2605 0
M  V30 13017 H 1187.46 -1.66902 5.76423 0
M  V30 13018 H 1188.53 -0.627827 4.80818 0
M  V30 13019 N 1189.87 -1.5367 -0.349747 0
M  V30 13020 C 1190.82 -1.77604 -1.42972 0
M  V30 13021 C 1191.8 -0.631036 -1.48009 0
M  V30 13022 O 1193 -0.890228 -1.52983 0
M  V30 13023 C 1190.13 -1.98354 -2.80198 0
M  V30 13024 C 1189.21 -3.18901 -2.79576 0
M  V30 13025 N 1189.6 -4.40497 -2.48589 0
M  V30 13026 C 1187.9 -3.19945 -3.10727 0
M  V30 13027 C 1188.6 -5.22318 -2.56045 0
M  V30 13028 N 1187.58 -4.5889 -2.91412 0
M  V30 13029 H 1191.38 -2.69215 -1.17901 0
M  V30 13030 H 1188.89 -1.5251 -0.558062 0
M  V30 13031 H 1190.89 -2.13632 -3.58004 0
M  V30 13032 H 1189.55 -1.07981 -3.06219 0
M  V30 13033 H 1190.56 -4.67955 -2.21898 0
M  V30 13034 H 1187.24 -2.39519 -3.41961 0
M  V30 13035 H 1188.63 -6.29352 -2.35299 0
M  V30 13036 N 1191.35 0.610423 -1.45298 0
M  V30 13037 C 1192.59 1.36959 -1.50379 0
M  V30 13038 C 1192.95 1.91872 -0.142378 0
M  V30 13039 O 1192.24 1.71944 0.845332 0
M  V30 13040 C 1192.44 2.53812 -2.51623 0
M  V30 13041 C 1192.27 2.10341 -3.97476 0
M  V30 13042 C 1191.04 1.96646 -4.65466 0
M  V30 13043 C 1193.23 1.67982 -4.86093 0
M  V30 13044 N 1191.22 1.46956 -5.96051 0
M  V30 13045 C 1192.59 1.29686 -6.06285 0
M  V30 13046 C 1194.64 1.55548 -4.72979 0
M  V30 13047 C 1193.34 0.801985 -7.14815 0
M  V30 13048 C 1195.37 1.07465 -5.81554 0
M  V30 13049 C 1194.73 0.701317 -7.009 0
M  V30 13050 H 1190.83 0.495191 -0.605236 0
M  V30 13051 H 1193.42 0.698121 -1.81754 0
M  V30 13052 H 1191.59 3.18558 -2.22205 0
M  V30 13053 H 1193.32 3.20683 -2.4687 0
M  V30 13054 H 1190.07 2.17743 -4.20577 0
M  V30 13055 H 1190.5 1.2435 -6.65482 0
M  V30 13056 H 1195.14 1.83038 -3.81126 0
M  V30 13057 H 1192.86 0.514634 -8.0646 0
M  V30 13058 H 1196.44 0.98274 -5.7344 0
M  V30 13059 H 1195.32 0.334967 -7.83484 0
M  V30 13060 N 1192.83 1.32541 0.852676 0
M  V30 13061 C 1194.07 1.23397 1.60938 0
M  V30 13062 C 1194.41 -0.203294 1.93133 0
M  V30 13063 O 1193.68 -1.14097 1.57519 0
M  V30 13064 C 1193.96 2.0956 2.92842 0
M  V30 13065 C 1193.82 3.61675 2.67416 0
M  V30 13066 C 1195.14 1.95825 3.94133 0
M  V30 13067 H 1192.25 0.449608 0.583971 0
M  V30 13068 H 1194.9 1.62507 0.98446 0
M  V30 13069 H 1193.05 1.76336 3.46176 0
M  V30 13070 H 1194.72 4.05122 2.20621 0
M  V30 13071 H 1192.96 3.84242 2.01347 0
M  V30 13072 H 1193.63 4.17292 3.61347 0
M  V30 13073 H 1196.11 2.24935 3.50062 0
M  V30 13074 H 1194.98 2.58387 4.8428 0
M  V30 13075 H 1195.25 0.926466 4.32284 0
M  V30 13076 N 1194.3 -1.0692 1.15784 0
M  V30 13077 C 1195.21 -2.17762 0.872753 0
M  V30 13078 C 1196.23 -1.73329 -0.152608 0
M  V30 13079 O 1197.41 -2.01387 0.022519 0
M  V30 13080 C 1194.47 -3.4471 0.370887 0
M  V30 13081 C 1193.53 -4.03686 1.46069 0
M  V30 13082 C 1192.77 -5.24575 0.982675 0
M  V30 13083 O 1192.99 -5.70146 -0.17006 0
M  V30 13084 O 1191.92 -5.7534 1.76828 0
M  V30 13085 H 1195.75 -2.44648 1.79948 0
M  V30 13086 H 1193.33 -1.1634 0.937303 0
M  V30 13087 H 1195.22 -4.21287 0.0976779 0
M  V30 13088 H 1193.89 -3.19366 -0.527912 0
M  V30 13089 H 1192.8 -3.28629 1.78756 0
M  V30 13090 H 1194.13 -4.33312 2.33456 0
M  V30 13091 N 1195.78 -0.955326 -1.25345 0
M  V30 13092 C 1197.03 -0.610484 -1.93079 0
M  V30 13093 C 1197.36 0.852591 -1.74817 0
M  V30 13094 O 1196.61 1.6272 -1.08723 0
M  V30 13095 C 1196.91 -0.916173 -3.45458 0
M  V30 13096 C 1196.58 -2.36539 -3.83875 0
M  V30 13097 C 1195.24 -2.76152 -3.94073 0
M  V30 13098 C 1197.59 -3.30652 -4.02888 0
M  V30 13099 C 1194.92 -4.08944 -4.20692 0
M  V30 13100 C 1197.27 -4.63057 -4.31 0
M  V30 13101 C 1195.94 -5.02464 -4.39415 0
M  V30 13102 H 1195.21 -0.223392 -0.706525 0
M  V30 13103 H 1197.85 -1.20449 -1.48877 0
M  V30 13104 H 1196.16 -0.23978 -3.91066 0
M  V30 13105 H 1197.85 -0.627929 -3.96053 0
M  V30 13106 H 1194.44 -2.04819 -3.76493 0
M  V30 13107 H 1198.63 -3.01237 -3.94423 0
M  V30 13108 H 1193.88 -4.39118 -4.25423 0
M  V30 13109 H 1198.06 -5.3596 -4.44657 0
M  V30 13110 H 1195.69 -6.05386 -4.59795 0
M  V30 13111 N 1197.26 1.39987 -0.723979 0
M  V30 13112 C 1198.19 2.2917 -0.0373445 0
M  V30 13113 C 1199.21 1.46258 0.715015 0
M  V30 13114 O 1200.4 1.69455 0.561003 0
M  V30 13115 C 1197.5 3.2468 0.971384 0
M  V30 13116 C 1196.67 4.36485 0.282826 0
M  V30 13117 C 1195.73 5.12379 1.19811 0
M  V30 13118 O 1194.75 5.65127 0.67974 0
M  V30 13119 N 1195.96 5.22531 2.52866 0
M  V30 13120 H 1198.72 2.88738 -0.803131 0
M  V30 13121 H 1196.28 1.51448 -0.572292 0
M  V30 13122 H 1198.27 3.72326 1.58606 0
M  V30 13123 H 1196.84 2.6622 1.63846 0
M  V30 13124 H 1196.06 3.90859 -0.512167 0
M  V30 13125 H 1197.35 5.08427 -0.194793 0
M  V30 13126 H 1196.75 4.81174 2.97469 0
M  V30 13127 H 1195.31 5.73655 3.09457 0
M  V30 13128 N 1198.74 0.470782 1.50404 0
M  V30 13129 C 1199.69 -0.337584 2.30137 0
M  V30 13130 C 1200.68 -0.990673 1.37412 0
M  V30 13131 O 1201.89 -0.921813 1.54605 0
M  V30 13132 H 1198.26 -0.127707 0.741077 0
M  V30 13133 H 1200.23 0.355297 2.96277 0
M  V30 13134 C 1198.98 -1.40714 3.17954 0
M  V30 13135 H 1198.31 -0.913982 3.89213 0
M  V30 13136 H 1199.75 -1.94533 3.7674 0
M  V30 13137 C 1198.2 -2.40889 2.35529 0
M  V30 13138 O 1198.73 -3.46153 2.03816 0
M  V30 13139 N 1196.94 -2.126 1.98115 0
M  V30 13140 H 1196.49 -1.27023 2.24105 0
M  V30 13141 H 1196.45 -2.7986 1.43269 0
M  V30 13142 N 1200.22 -1.56282 0.203376 0
M  V30 13143 C 1201.16 -2.19473 -0.714164 0
M  V30 13144 C 1202.13 -1.14454 -1.20372 0
M  V30 13145 O 1203.32 -1.42739 -1.26611 0
M  V30 13146 C 1200.46 -2.86451 -1.92457 0
M  V30 13147 C 1199.57 -4.06017 -1.47561 0
M  V30 13148 C 1198.71 -4.60829 -2.64216 0
M  V30 13149 C 1197.75 -5.72734 -2.15967 0
M  V30 13150 N 1196.88 -6.21916 -3.25829 0
M  V30 13151 H 1201.72 -2.97523 -0.168558 0
M  V30 13152 H 1199.26 -1.46926 -0.0714525 0
M  V30 13153 H 1201.22 -3.23459 -2.63496 0
M  V30 13154 H 1199.85 -2.10951 -2.44335 0
M  V30 13155 H 1198.9 -3.74617 -0.660784 0
M  V30 13156 H 1200.21 -4.8693 -1.08168 0
M  V30 13157 H 1199.37 -5.00185 -3.43366 0
M  V30 13158 H 1198.11 -3.7904 -3.06887 0
M  V30 13159 H 1197.11 -5.32899 -1.35273 0
M  V30 13160 H 1198.34 -6.56346 -1.74316 0
M  V30 13161 H 1196.28 -5.43047 -3.68016 0
M  V30 13162 H 1196.2 -6.97904 -2.90631 0
M  V30 13163 H 1197.47 -6.65927 -4.05168 0
M  V30 13164 N 1201.7 0.070167 -1.57444 0
M  V30 13165 C 1202.94 0.769014 -1.8733 0
M  V30 13166 C 1203.27 1.77496 -0.79533 0
M  V30 13167 O 1202.53 1.94586 0.208495 0
M  V30 13168 C 1202.82 1.5111 -3.23883 0
M  V30 13169 C 1202.49 0.644988 -4.46263 0
M  V30 13170 C 1201.15 0.406307 -4.79482 0
M  V30 13171 C 1203.5 0.0444938 -5.21181 0
M  V30 13172 C 1200.83 -0.442322 -5.8503 0
M  V30 13173 C 1203.18 -0.791599 -6.27628 0
M  V30 13174 C 1201.85 -1.04014 -6.59346 0
M  V30 13175 H 1201.12 0.281402 -0.685488 0
M  V30 13176 H 1203.77 0.029752 -1.91477 0
M  V30 13177 H 1202.07 2.32261 -3.15535 0
M  V30 13178 H 1203.77 2.05665 -3.44242 0
M  V30 13179 H 1200.36 0.841148 -4.20265 0
M  V30 13180 H 1204.54 0.216005 -4.9583 0
M  V30 13181 H 1199.8 -0.643607 -6.08003 0
M  V30 13182 H 1203.97 -1.26363 -6.8484 0
M  V30 13183 H 1201.6 -1.69949 -7.4096 0
M  V30 13184 N 1203.17 1.53854 0.341593 0
M  V30 13185 C 1204.4 1.7488 1.10002 0
M  V30 13186 C 1204.81 0.488802 1.82777 0
M  V30 13187 O 1204.15 -0.549333 1.75294 0
M  V30 13188 C 1204.22 2.87604 2.15694 0
M  V30 13189 C 1203.88 4.27142 1.62477 0
M  V30 13190 C 1204.88 5.08642 1.07606 0
M  V30 13191 C 1202.56 4.73633 1.67265 0
M  V30 13192 C 1204.56 6.34735 0.582284 0
M  V30 13193 C 1202.24 5.99697 1.175 0
M  V30 13194 C 1203.24 6.80081 0.630742 0
M  V30 13195 O 1202.93 8.03777 0.140519 0
M  V30 13196 H 1202.66 0.587824 0.333824 0
M  V30 13197 H 1205.22 2.01488 0.398965 0
M  V30 13198 H 1203.45 2.56526 2.89364 0
M  V30 13199 H 1205.13 2.96583 2.77117 0
M  V30 13200 H 1205.9 4.73887 1.03227 0
M  V30 13201 H 1201.78 4.11121 2.08567 0
M  V30 13202 H 1205.32 6.97424 0.156811 0
M  V30 13203 H 1201.22 6.33947 1.21579 0
M  V30 13204 H 1201.99 8.18094 0.257626 0
M  V30 13205 N 1204.65 -0.602709 1.4562 0
M  V30 13206 C 1205.88 -1.39299 1.53657 0
M  V30 13207 C 1206.3 -1.87315 0.171632 0
M  V30 13208 O 1205.66 -1.60423 -0.844639 0
M  V30 13209 C 1205.71 -2.57021 2.52928 0
M  V30 13210 O 1204.81 -3.57812 2.05047 0
M  V30 13211 H 1204.15 -0.41567 0.517798 0
M  V30 13212 H 1206.68 -0.73304 1.91018 0
M  V30 13213 H 1206.69 -3.04202 2.71892 0
M  V30 13214 H 1205.37 -2.21422 3.52058 0
M  V30 13215 H 1203.94 -3.17247 1.95981 0
M  V30 13216 N 1206.13 -1.32992 -0.845635 0
M  V30 13217 C 1207.38 -1.2382 -1.59728 0
M  V30 13218 C 1207.7 0.197724 -1.93995 0
M  V30 13219 O 1206.97 1.12477 -1.60392 0
M  V30 13220 H 1205.55 -0.455296 -0.592212 0
M  V30 13221 H 1208.21 -1.66627 -1.01101 0
M  V30 13222 H 1207.31 -1.82717 -2.53023 0
M  V30 13223 N 1207.61 1.06304 -1.1635 0
M  V30 13224 C 1208.84 1.82799 -0.96913 0
M  V30 13225 C 1209.25 1.82526 0.482659 0
M  V30 13226 O 1208.61 1.24437 1.33498 0
M  V30 13227 C 1208.66 3.29417 -1.48884 0
M  V30 13228 O 1208.38 3.29803 -2.88377 0
M  V30 13229 C 1209.88 4.22642 -1.33748 0
M  V30 13230 H 1207.1 0.576388 -0.343537 0
M  V30 13231 H 1209.64 1.34122 -1.54375 0
M  V30 13232 H 1207.8 3.75406 -0.956509 0
M  V30 13233 H 1208.21 4.21486 -3.1217 0
M  V30 13234 H 1209.69 5.23545 -1.74942 0
M  V30 13235 H 1210.16 4.38287 -0.283021 0
M  V30 13236 H 1210.77 3.82499 -1.85942 0
M  V30 13237 N 1209.09 0.96196 1.24836 0
M  V30 13238 C 1210.33 0.619489 1.92371 0
M  V30 13239 C 1210.65 -0.847233 1.75633 0
M  V30 13240 O 1209.92 -1.60419 1.12439 0
M  V30 13241 H 1208.5 0.226129 0.711951 0
M  V30 13242 H 1211.17 1.22179 1.5185 0
M  V30 13243 H 1210.26 0.855128 3.00157 0
M  V30 13244 N 1210.56 -1.39601 0.731392 0
M  V30 13245 C 1211.81 -2.00586 0.277756 0
M  V30 13246 C 1212.14 -1.58027 -1.13391 0
M  V30 13247 O 1211.39 -0.798691 -1.7866 0
M  V30 13248 C 1211.69 -3.55934 0.323352 0
M  V30 13249 C 1211.36 -4.18131 1.68753 0
M  V30 13250 C 1210.02 -4.34833 2.06092 0
M  V30 13251 C 1212.37 -4.5267 2.58339 0
M  V30 13252 C 1209.7 -4.83362 3.32532 0
M  V30 13253 C 1212.05 -5.02607 3.84148 0
M  V30 13254 C 1210.72 -5.17517 4.21584 0
M  V30 13255 H 1209.99 -0.733996 0.101638 0
M  V30 13256 H 1212.63 -1.66981 0.937528 0
M  V30 13257 H 1210.94 -3.89542 -0.419995 0
M  V30 13258 H 1212.64 -4.00974 -0.0457235 0
M  V30 13259 H 1209.23 -4.0553 1.38722 0
M  V30 13260 H 1213.41 -4.39388 2.30763 0
M  V30 13261 H 1208.67 -4.93091 3.61485 0
M  V30 13262 H 1212.84 -5.28306 4.53724 0
M  V30 13263 H 1210.47 -5.54882 5.19625 0
M  V30 13264 N 1212.04 -0.478751 -1.50152 0
M  V30 13265 C 1212.99 0.311426 -2.28689 0
M  V30 13266 C 1213.96 0.980375 -1.34082 0
M  V30 13267 O 1215.14 0.991337 -1.63025 0
M  V30 13268 C 1212.28 1.38302 -3.16175 0
M  V30 13269 C 1211.4 0.728084 -4.2582 0
M  V30 13270 C 1210.53 1.77822 -5.00552 0
M  V30 13271 C 1209.57 1.10395 -6.02063 0
M  V30 13272 N 1208.71 2.09728 -6.70044 0
M  V30 13273 H 1213.55 -0.364592 -2.95761 0
M  V30 13274 H 1211.09 -0.191645 -1.45846 0
M  V30 13275 H 1213.04 2.01606 -3.65255 0
M  V30 13276 H 1211.67 2.0281 -2.51133 0
M  V30 13277 H 1210.73 -0.0177026 -3.80396 0
M  V30 13278 H 1212.04 0.196209 -4.98414 0
M  V30 13279 H 1211.19 2.48687 -5.53389 0
M  V30 13280 H 1209.93 2.34392 -4.27682 0
M  V30 13281 H 1208.94 0.38096 -5.48479 0
M  V30 13282 H 1210.16 0.545045 -6.76909 0
M  V30 13283 H 1208.11 2.65301 -5.9996 0
M  V30 13284 H 1208.02 1.61546 -7.38538 0
M  V30 13285 H 1209.29 2.7995 -7.27495 0
M  V30 13286 N 1213.52 1.56172 -0.211661 0
M  V30 13287 C 1214.77 1.98039 0.422706 0
M  V30 13288 C 1215.1 1.09904 1.60472 0
M  V30 13289 O 1214.35 0.141771 1.95186 0
M  V30 13290 C 1214.65 3.45636 0.909442 0
M  V30 13291 C 1214.32 4.50613 -0.160982 0
M  V30 13292 C 1212.98 4.79043 -0.455064 0
M  V30 13293 C 1215.33 5.13624 -0.885426 0
M  V30 13294 C 1212.66 5.67771 -1.47828 0
M  V30 13295 C 1215.01 6.03459 -1.8979 0
M  V30 13296 C 1213.67 6.30238 -2.19901 0
M  V30 13297 H 1212.94 0.724676 0.154679 0
M  V30 13298 H 1215.59 1.8894 -0.312106 0
M  V30 13299 H 1213.9 3.51889 1.72283 0
M  V30 13300 H 1215.59 3.75395 1.40995 0
M  V30 13301 H 1212.18 4.28528 0.0783864 0
M  V30 13302 H 1216.37 4.91737 -0.671463 0
M  V30 13303 H 1211.62 5.86787 -1.7173 0
M  V30 13304 H 1215.8 6.51338 -2.46438 0
M  V30 13305 H 1213.42 6.98788 -2.9933 0
M  V30 13306 N 1215 -0.0618163 1.57479 0
M  V30 13307 C 1215.93 -1.07252 2.07411 0
M  V30 13308 C 1216.91 -1.39756 0.969649 0
M  V30 13309 O 1218.09 -1.4921 1.24298 0
M  V30 13310 C 1215.22 -2.38313 2.52635 0
M  V30 13311 C 1214.18 -2.20136 3.67048 0
M  V30 13312 C 1213.5 -3.56668 3.98361 0
M  V30 13313 C 1214.8 -1.61437 4.96725 0
M  V30 13314 H 1216.5 -0.656983 2.92103 0
M  V30 13315 H 1214.04 -0.314579 1.40522 0
M  V30 13316 H 1216 -3.09319 2.86181 0
M  V30 13317 H 1214.72 -2.81865 1.64984 0
M  V30 13318 H 1213.38 -1.51569 3.338 0
M  V30 13319 H 1213.03 -3.97809 3.07826 0
M  V30 13320 H 1212.73 -3.45342 4.75408 0
M  V30 13321 H 1214.25 -4.2909 4.34413 0
M  V30 13322 H 1215.67 -2.2232 5.28438 0
M  V30 13323 H 1214.06 -1.60779 5.78161 0
M  V30 13324 H 1215.13 -0.576795 4.81457 0
M  V30 13325 N 1216.48 -1.54033 -0.333429 0
M  V30 13326 C 1217.89 -1.63107 -0.908455 0
M  V30 13327 C 1218.24 -0.518823 -1.89216 0
M  V30 13328 O 1217.36 0.34985 -2.13553 0
M  V30 13329 C 1217.96 -2.95657 -1.65447 0
M  V30 13330 C 1216.52 -3.0696 -2.17836 0
M  V30 13331 C 1215.66 -2.58617 -1.00063 0
M  V30 13332 H 1218.62 -1.58309 -0.11128 0
M  V30 13333 H 1218.64 -2.85263 -2.51804 0
M  V30 13334 H 1218.15 -3.76588 -0.938263 0
M  V30 13335 H 1216.25 -2.30683 -2.92602 0
M  V30 13336 H 1216.36 -4.12599 -2.43513 0
M  V30 13337 H 1214.73 -2.1427 -1.37697 0
M  V30 13338 H 1215.51 -3.41996 -0.298901 0
M  V30 13339 N 1217.95 0.594978 -1.45938 0
M  V30 13340 C 1219.2 1.35361 -1.50611 0
M  V30 13341 C 1219.53 1.93898 -0.152866 0
M  V30 13342 O 1218.78 1.76275 0.850037 0
M  V30 13343 C 1219.08 2.51129 -2.54301 0
M  V30 13344 C 1218.75 2.1066 -3.98664 0
M  V30 13345 C 1217.41 1.99338 -4.3797 0
M  V30 13346 C 1219.76 1.79267 -4.894 0
M  V30 13347 C 1217.09 1.54863 -5.65893 0
M  V30 13348 C 1219.44 1.36274 -6.17748 0
M  V30 13349 C 1218.11 1.2352 -6.55972 0
M  V30 13350 H 1217.38 0.49532 -0.551125 0
M  V30 13351 H 1220.02 0.671236 -1.79351 0
M  V30 13352 H 1218.33 3.24759 -2.19177 0
M  V30 13353 H 1220.03 3.09353 -2.55151 0
M  V30 13354 H 1216.62 2.20403 -3.67587 0
M  V30 13355 H 1220.8 1.86906 -4.59761 0
M  V30 13356 H 1216.06 1.43621 -5.94292 0
M  V30 13357 H 1220.23 1.11032 -6.87492 0
M  V30 13358 H 1217.86 0.88832 -7.54992 0
M  V30 13359 N 1219.43 1.33438 0.838571 0
M  V30 13360 C 1220.66 1.28097 1.63113 0
M  V30 13361 C 1221.08 -0.145197 1.87539 0
M  V30 13362 O 1220.44 -1.10191 1.43971 0
M  V30 13363 C 1220.49 2.06201 2.95827 0
M  V30 13364 O 1219.59 1.42082 3.87152 0
M  V30 13365 H 1218.93 0.440685 0.496681 0
M  V30 13366 H 1221.46 1.76004 1.04325 0
M  V30 13367 H 1221.47 2.16977 3.45521 0
M  V30 13368 H 1220.15 3.099 2.77371 0
M  V30 13369 H 1218.73 1.39953 3.45641 0
M  V30 13370 N 1220.91 -1.05686 1.16912 0
M  V30 13371 C 1222.16 -1.78597 0.954425 0
M  V30 13372 C 1222.49 -1.87494 -0.517315 0
M  V30 13373 O 1221.74 -1.36736 -1.40006 0
M  V30 13374 C 1222.04 -3.22779 1.53455 0
M  V30 13375 C 1221.71 -3.3395 3.02965 0
M  V30 13376 C 1220.37 -3.36706 3.43777 0
M  V30 13377 C 1222.72 -3.35371 3.98969 0
M  V30 13378 C 1220.05 -3.38506 4.79198 0
M  V30 13379 C 1222.4 -3.38708 5.34284 0
M  V30 13380 C 1221.06 -3.39749 5.74567 0
M  V30 13381 H 1220.33 -0.653534 0.349249 0
M  V30 13382 H 1222.98 -1.24245 1.45723 0
M  V30 13383 H 1221.29 -3.80025 0.953331 0
M  V30 13384 H 1222.98 -3.77805 1.34404 0
M  V30 13385 H 1219.57 -3.32515 2.70429 0
M  V30 13386 H 1223.76 -3.32447 3.685 0
M  V30 13387 H 1219.01 -3.37619 5.09729 0
M  V30 13388 H 1223.19 -3.38755 6.08455 0
M  V30 13389 H 1220.81 -3.40897 6.7948 0
M  V30 13390 N 1222.39 -0.968567 -1.24324 0
M  V30 13391 C 1223.3 -0.50703 -2.29055 0
M  V30 13392 C 1224.31 0.432431 -1.68541 0
M  V30 13393 O 1225.49 0.30526 -1.99073 0
M  V30 13394 C 1222.56 0.194589 -3.46153 0
M  V30 13395 C 1221.62 -0.784805 -4.22066 0
M  V30 13396 C 1220.85 -0.116574 -5.33573 0
M  V30 13397 O 1221.07 1.09492 -5.59792 0
M  V30 13398 O 1220.01 -0.809171 -5.96436 0
M  V30 13399 H 1223.83 -1.3777 -2.70653 0
M  V30 13400 H 1221.42 -0.735645 -1.30033 0
M  V30 13401 H 1223.3 0.588684 -4.17268 0
M  V30 13402 H 1221.97 1.04021 -3.06531 0
M  V30 13403 H 1220.88 -1.22938 -3.53323 0
M  V30 13404 H 1222.21 -1.59887 -4.65507 0
M  V30 13405 N 1223.87 1.39211 -0.738786 0
M  V30 13406 C 1224.82 2.27869 -0.0772787 0
M  V30 13407 C 1225.8 1.44452 0.708683 0
M  V30 13408 O 1226.99 1.67329 0.57707 0
M  V30 13409 C 1224.12 3.33206 0.826364 0
M  V30 13410 C 1223.21 4.24086 0.034349 0
M  V30 13411 N 1223.6 4.95928 -0.99446 0
M  V30 13412 C 1221.9 4.45221 0.26343 0
M  V30 13413 C 1222.6 5.62757 -1.47238 0
M  V30 13414 N 1221.57 5.37824 -0.790305 0
M  V30 13415 H 1225.38 2.80869 -0.865447 0
M  V30 13416 H 1222.89 1.51938 -0.573462 0
M  V30 13417 H 1224.89 3.95592 1.31578 0
M  V30 13418 H 1223.55 2.81765 1.61365 0
M  V30 13419 H 1224.56 4.99289 -1.37591 0
M  V30 13420 H 1221.23 4.04717 1.02522 0
M  V30 13421 H 1222.62 6.30261 -2.32853 0
M  V30 13422 N 1225.34 0.486708 1.49896 0
M  V30 13423 C 1226.59 -0.0646197 2.01596 0
M  V30 13424 C 1226.91 -1.39363 1.37249 0
M  V30 13425 O 1228.11 -2.03082 1.80194 0
M  V30 13426 C 1226.57 -0.16565 3.59519 0
M  V30 13427 C 1226.18 1.15586 4.32832 0
M  V30 13428 C 1227.92 -0.668103 4.1921 0
M  V30 13429 C 1225.83 1.01778 5.82576 0
M  V30 13430 H 1224.76 -0.0279241 0.753483 0
M  V30 13431 H 1227.41 0.623969 1.72566 0
M  V30 13432 H 1225.79 -0.918372 3.85204 0
M  V30 13433 H 1226.96 1.92076 4.1886 0
M  V30 13434 H 1225.28 1.59064 3.84822 0
M  V30 13435 H 1227.88 -0.788698 5.28851 0
M  V30 13436 H 1228.22 -1.66339 3.81624 0
M  V30 13437 H 1228.75 0.0276746 3.9779 0
M  V30 13438 H 1225.49 1.9869 6.24662 0
M  V30 13439 H 1225.01 0.293527 5.99081 0
M  V30 13440 H 1226.69 0.690693 6.43303 0
M  V30 13441 N 1226.82 -1.56058 0.219941 0
M  V30 13442 C 1228.24 -1.59024 -0.135476 0
M  V30 13443 C 1228.44 -1.23672 -1.59083 0
M  V30 13444 O 1227.5 -0.971197 -2.33075 0
M  V30 13445 C 1228.81 -3.00103 0.189356 0
M  V30 13446 C 1230.36 -3.12724 0.131463 0
M  V30 13447 C 1230.83 -4.55977 0.429947 0
M  V30 13448 N 1232.32 -4.61643 0.37946 0
M  V30 13449 C 1233.06 -5.70419 0.58393 0
M  V30 13450 N 1232.55 -6.87565 0.850088 0
M  V30 13451 N 1234.35 -5.59722 0.516477 0
M  V30 13452 H 1226.5 -1.77313 1.16935 0
M  V30 13453 H 1228.76 -0.824096 0.468583 0
M  V30 13454 H 1228.47 -3.30616 1.19941 0
M  V30 13455 H 1228.34 -3.73919 -0.49641 0
M  V30 13456 H 1230.73 -2.82008 -0.869223 0
M  V30 13457 H 1230.81 -2.41241 0.85068 0
M  V30 13458 H 1230.45 -4.8741 1.42806 0
M  V30 13459 H 1230.38 -5.25684 -0.310444 0
M  V30 13460 H 1232.87 -3.77465 0.181373 0
M  V30 13461 H 1233.19 -7.66378 0.994251 0
M  V30 13462 H 1231.53 -6.89313 0.887265 0
M  V30 13463 H 1234.72 -4.6708 0.308784 0
M  V30 13464 H 1234.9 -6.4443 0.679236 0
M  V30 13465 N 1228.3 0.053464 -1.57509 0
M  V30 13466 C 1229.21 1.07902 -2.08313 0
M  V30 13467 C 1230.23 1.41223 -1.01647 0
M  V30 13468 O 1231.4 1.51032 -1.33233 0
M  V30 13469 C 1228.47 2.36813 -2.5322 0
M  V30 13470 C 1227.53 2.10297 -3.74264 0
M  V30 13471 C 1226.76 3.33062 -4.1702 0
M  V30 13472 O 1226.99 4.42857 -3.59491 0
M  V30 13473 O 1225.92 3.20195 -5.09665 0
M  V30 13474 H 1229.75 0.677368 -2.9605 0
M  V30 13475 H 1227.33 0.268838 -1.46961 0
M  V30 13476 H 1229.21 3.12645 -2.82544 0
M  V30 13477 H 1227.89 2.76323 -1.68605 0
M  V30 13478 H 1226.79 1.32111 -3.49996 0
M  V30 13479 H 1228.13 1.75658 -4.59788 0
M  V30 13480 N 1229.78 1.54207 0.325255 0
M  V30 13481 C 1231.03 1.71991 1.0613 0
M  V30 13482 C 1231.35 0.495505 1.88599 0
M  V30 13483 O 1230.62 -0.490504 1.8966 0
M  V30 13484 H 1229.2 0.634137 0.394816 0
M  V30 13485 H 1231.86 1.91507 0.362101 0
M  V30 13486 H 1230.96 2.59878 1.72829 0
M  V30 13487 N 1231.26 -0.58723 1.46251 0
M  V30 13488 C 1232.2 -1.69662 1.56472 0
M  V30 13489 C 1233.17 -1.60978 0.409294 0
M  V30 13490 O 1234.36 -1.80257 0.625451 0
M  V30 13491 C 1231.5 -3.07996 1.55669 0
M  V30 13492 C 1230.61 -3.27337 2.81913 0
M  V30 13493 C 1229.75 -4.55894 2.72644 0
M  V30 13494 C 1228.79 -4.68562 3.93847 0
M  V30 13495 N 1227.92 -5.8844 3.82991 0
M  V30 13496 H 1232.76 -1.60262 2.51237 0
M  V30 13497 H 1230.3 -0.781148 1.24645 0
M  V30 13498 H 1232.26 -3.88058 1.53189 0
M  V30 13499 H 1230.89 -3.16303 0.6444 0
M  V30 13500 H 1229.94 -2.4091 2.94392 0
M  V30 13501 H 1231.25 -3.32567 3.71754 0
M  V30 13502 H 1230.41 -5.44178 2.68244 0
M  V30 13503 H 1229.15 -4.53094 1.80435 0
M  V30 13504 H 1228.15 -3.78696 3.98584 0
M  V30 13505 H 1229.38 -4.73144 4.87146 0
M  V30 13506 H 1227.32 -5.86647 2.93566 0
M  V30 13507 H 1227.24 -5.94919 4.66484 0
M  V30 13508 H 1228.51 -6.79168 3.82559 0
M  V30 13509 N 1232.74 -1.33881 -0.831482 0
M  V30 13510 C 1233.98 -1.25755 -1.58719 0
M  V30 13511 C 1234.31 0.174746 -1.93713 0
M  V30 13512 O 1233.57 1.13384 -1.59507 0
M  V30 13513 C 1233.86 -2.08544 -2.90249 0
M  V30 13514 C 1233.53 -3.57651 -2.74585 0
M  V30 13515 C 1232.19 -3.983 -2.7002 0
M  V30 13516 C 1234.54 -4.52369 -2.58866 0
M  V30 13517 C 1231.87 -5.31872 -2.47647 0
M  V30 13518 C 1234.22 -5.86112 -2.38025 0
M  V30 13519 C 1232.89 -6.25934 -2.31867 0
M  V30 13520 H 1232.16 -0.460171 -0.580796 0
M  V30 13521 H 1234.81 -1.6554 -0.96274 0
M  V30 13522 H 1233.11 -1.6156 -3.56939 0
M  V30 13523 H 1234.81 -1.99609 -3.47789 0
M  V30 13524 H 1231.4 -3.2538 -2.78973 0
M  V30 13525 H 1235.58 -4.21868 -2.61421 0
M  V30 13526 H 1230.84 -5.61756 -2.41331 0
M  V30 13527 H 1235.01 -6.59103 -2.24847 0
M  V30 13528 H 1232.64 -7.29372 -2.14291 0
M  V30 13529 N 1234.21 1.05064 -1.1747 0
M  V30 13530 C 1235.12 2.16346 -0.907286 0
M  V30 13531 C 1236.14 1.7355 0.125013 0
M  V30 13532 O 1237.32 2.01326 -0.0545551 0
M  V30 13533 C 1234.38 3.44077 -0.425681 0
M  V30 13534 C 1233.44 4.01311 -1.52473 0
M  V30 13535 C 1232.67 5.22946 -1.06601 0
M  V30 13536 O 1232.9 5.70345 0.0793329 0
M  V30 13537 O 1231.83 5.72454 -1.85958 0
M  V30 13538 H 1235.66 2.41754 -1.83817 0
M  V30 13539 H 1233.24 1.14834 -0.955693 0
M  V30 13540 H 1235.12 4.21078 -0.164689 0
M  V30 13541 H 1233.8 3.20166 0.477037 0
M  V30 13542 H 1232.71 3.25744 -1.83961 0
M  V30 13543 H 1234.04 4.29543 -2.4032 0
M  V30 13544 N 1235.69 0.975146 1.23809 0
M  V30 13545 C 1236.6 0.51917 2.28783 0
M  V30 13546 C 1237.62 -0.423487 1.68768 0
M  V30 13547 O 1238.79 -0.294699 1.99232 0
M  V30 13548 C 1235.86 -0.176229 3.46252 0
M  V30 13549 C 1234.92 0.807177 4.21643 0
M  V30 13550 C 1234.15 0.144869 5.33503 0
M  V30 13551 O 1234.38 -1.06522 5.60365 0
M  V30 13552 O 1233.31 0.84079 5.95999 0
M  V30 13553 H 1237.14 1.39204 2.69919 0
M  V30 13554 H 1234.72 0.74253 1.29641 0
M  V30 13555 H 1236.6 -0.566547 4.17574 0
M  V30 13556 H 1235.28 -1.02394 3.07078 0
M  V30 13557 H 1234.18 1.2481 3.52666 0
M  V30 13558 H 1235.52 1.62354 4.64653 0
M  V30 13559 O 1237.21 -1.35182 0.883632 0
M  V30 13560 H 1237.9 -1.87439 0.488494 0
M  V30 END ATOM
M  V30 BEGIN BOND
M  V30 END BOND
M  V30 END CTAB
M  END
$$$$
