447725
  -OEChem-10051719453D

 55 59  0     0  0  0  0  0  0999 V2000
   -2.3285   -1.7887   -2.7260 Cl  0  0  0  0  0  0  0  0  0  0  0  0
   -2.8524   -1.5358    2.7042 Cl  0  0  0  0  0  0  0  0  0  0  0  0
    3.3069    0.0659   -2.2379 F   0  0  0  0  0  0  0  0  0  0  0  0
    7.3724   -0.3889    0.1346 F   0  0  0  0  0  0  0  0  0  0  0  0
   -1.4737   -4.1596    0.0953 O   0  0  0  0  0  0  0  0  0  0  0  0
   -2.7954    5.0848    0.0178 N   0  0  0  0  0  0  0  0  0  0  0  0
   -1.2994   -1.8226    0.1220 N   0  0  0  0  0  0  0  0  0  0  0  0
   -0.5906    3.1595    0.0858 C   0  0  0  0  0  0  0  0  0  0  0  0
   -1.4476    3.4737    1.3233 C   0  0  0  0  0  0  0  0  0  0  0  0
   -1.3931    3.4472   -1.1940 C   0  0  0  0  0  0  0  0  0  0  0  0
   -0.0377    1.7475    0.1126 C   0  0  0  0  0  0  0  0  0  0  0  0
   -2.0258    4.8869    1.2463 C   0  0  0  0  0  0  0  0  0  0  0  0
   -1.9732    4.8615   -1.1716 C   0  0  0  0  0  0  0  0  0  0  0  0
    0.9558   -0.8565    0.1471 C   0  0  0  0  0  0  0  0  0  0  0  0
   -0.4409   -0.6655    0.1505 C   0  0  0  0  0  0  0  0  0  0  0  0
   -0.9154    0.6581    0.1006 C   0  0  0  0  0  0  0  0  0  0  0  0
    1.3347    1.5409    0.1446 C   0  0  0  0  0  0  0  0  0  0  0  0
    1.8310    0.2426    0.1463 C   0  0  0  0  0  0  0  0  0  0  0  0
    1.5295   -2.2382    0.0226 C   0  0  0  0  0  0  0  0  0  0  0  0
    0.6290   -3.2424    0.7016 C   0  0  0  0  0  0  0  0  0  0  0  0
   -0.8036   -3.1328    0.2300 C   0  0  0  0  0  0  0  0  0  0  0  0
    3.2744    0.0789    0.1400 C   0  0  0  0  0  0  0  0  0  0  0  0
   -2.7090   -1.6472   -0.0230 C   0  0  0  0  0  0  0  0  0  0  0  0
    3.9607   -0.0042   -1.0691 C   0  0  0  0  0  0  0  0  0  0  0  0
    3.9650    0.0051    1.3471 C   0  0  0  0  0  0  0  0  0  0  0  0
   -3.2823   -1.6183   -1.2947 C   0  0  0  0  0  0  0  0  0  0  0  0
   -3.5142   -1.5065    1.1076 C   0  0  0  0  0  0  0  0  0  0  0  0
    5.3466   -0.1625   -1.0708 C   0  0  0  0  0  0  0  0  0  0  0  0
    5.3507   -0.1531    1.3452 C   0  0  0  0  0  0  0  0  0  0  0  0
   -4.6596   -1.4486   -1.4356 C   0  0  0  0  0  0  0  0  0  0  0  0
   -4.8915   -1.3366    0.9665 C   0  0  0  0  0  0  0  0  0  0  0  0
    6.0416   -0.2369    0.1364 C   0  0  0  0  0  0  0  0  0  0  0  0
   -5.4643   -1.3079   -0.3051 C   0  0  0  0  0  0  0  0  0  0  0  0
    0.2578    3.8593    0.0968 H   0  0  0  0  0  0  0  0  0  0  0  0
   -0.8421    3.3766    2.2330 H   0  0  0  0  0  0  0  0  0  0  0  0
   -2.2733    2.7574    1.4217 H   0  0  0  0  0  0  0  0  0  0  0  0
   -2.2144    2.7292   -1.3133 H   0  0  0  0  0  0  0  0  0  0  0  0
   -0.7488    3.3312   -2.0745 H   0  0  0  0  0  0  0  0  0  0  0  0
   -2.6809    5.0601    2.1072 H   0  0  0  0  0  0  0  0  0  0  0  0
   -1.2235    5.6319    1.3081 H   0  0  0  0  0  0  0  0  0  0  0  0
   -1.1684    5.6054   -1.2140 H   0  0  0  0  0  0  0  0  0  0  0  0
   -2.5900    5.0166   -2.0636 H   0  0  0  0  0  0  0  0  0  0  0  0
   -3.5759    4.4276    0.0077 H   0  0  0  0  0  0  0  0  0  0  0  0
   -1.9843    0.8511    0.0711 H   0  0  0  0  0  0  0  0  0  0  0  0
    2.0134    2.3912    0.1495 H   0  0  0  0  0  0  0  0  0  0  0  0
    1.6267   -2.4775   -1.0438 H   0  0  0  0  0  0  0  0  0  0  0  0
    2.5189   -2.3323    0.4795 H   0  0  0  0  0  0  0  0  0  0  0  0
    0.6300   -3.0950    1.7888 H   0  0  0  0  0  0  0  0  0  0  0  0
    0.9911   -4.2570    0.5011 H   0  0  0  0  0  0  0  0  0  0  0  0
    3.4412    0.0676    2.2979 H   0  0  0  0  0  0  0  0  0  0  0  0
    5.8845   -0.2278   -2.0118 H   0  0  0  0  0  0  0  0  0  0  0  0
    5.8923   -0.2115    2.2847 H   0  0  0  0  0  0  0  0  0  0  0  0
   -5.1220   -1.4237   -2.4192 H   0  0  0  0  0  0  0  0  0  0  0  0
   -5.5329   -1.2252    1.8371 H   0  0  0  0  0  0  0  0  0  0  0  0
   -6.5367   -1.1756   -0.4148 H   0  0  0  0  0  0  0  0  0  0  0  0
  1 26  1  0  0  0  0
  2 27  1  0  0  0  0
  3 24  1  0  0  0  0
  4 32  1  0  0  0  0
  5 21  2  0  0  0  0
  6 12  1  0  0  0  0
  6 13  1  0  0  0  0
  6 43  1  0  0  0  0
  7 15  1  0  0  0  0
  7 21  1  0  0  0  0
  7 23  1  0  0  0  0
  8  9  1  0  0  0  0
  8 10  1  0  0  0  0
  8 11  1  0  0  0  0
  8 34  1  0  0  0  0
  9 12  1  0  0  0  0
  9 35  1  0  0  0  0
  9 36  1  0  0  0  0
 10 13  1  0  0  0  0
 10 37  1  0  0  0  0
 10 38  1  0  0  0  0
 11 16  1  0  0  0  0
 11 17  2  0  0  0  0
 12 39  1  0  0  0  0
 12 40  1  0  0  0  0
 13 41  1  0  0  0  0
 13 42  1  0  0  0  0
 14 15  1  0  0  0  0
 14 18  2  0  0  0  0
 14 19  1  0  0  0  0
 15 16  2  0  0  0  0
 16 44  1  0  0  0  0
 17 18  1  0  0  0  0
 17 45  1  0  0  0  0
 18 22  1  0  0  0  0
 19 20  1  0  0  0  0
 19 46  1  0  0  0  0
 19 47  1  0  0  0  0
 20 21  1  0  0  0  0
 20 48  1  0  0  0  0
 20 49  1  0  0  0  0
 22 24  2  0  0  0  0
 22 25  1  0  0  0  0
 23 26  2  0  0  0  0
 23 27  1  0  0  0  0
 24 28  1  0  0  0  0
 25 29  2  0  0  0  0
 25 50  1  0  0  0  0
 26 30  1  0  0  0  0
 27 31  2  0  0  0  0
 28 32  2  0  0  0  0
 28 51  1  0  0  0  0
 29 32  1  0  0  0  0
 29 52  1  0  0  0  0
 30 33  2  0  0  0  0
 30 53  1  0  0  0  0
 31 33  1  0  0  0  0
 31 54  1  0  0  0  0
 33 55  1  0  0  0  0
M  END
> <DATABASE_ID>
DB01948

> <DATABASE_NAME>
drugbank

> <ORIGINAL_SOURCE>
PUBCHEM

> <ORIGINAL_SOURCE_URL>
https://pubchem.ncbi.nlm.nih.gov/rest/pug/compound/inchikey/VXIYTVJEIXMAQF-UHFFFAOYSA-N/SDF?record_type=3d

> <SMILES>
FC1=CC=C(C(F)=C1)C1=CC(=CC2=C1CCC(=O)N2C1=C(Cl)C=CC=C1Cl)C1CCNCC1

> <INCHI_IDENTIFIER>
InChI=1S/C26H22Cl2F2N2O/c27-21-2-1-3-22(28)26(21)32-24-13-16(15-8-10-31-11-9-15)12-20(19(24)6-7-25(32)33)18-5-4-17(29)14-23(18)30/h1-5,12-15,31H,6-11H2

> <INCHI_KEY>
VXIYTVJEIXMAQF-UHFFFAOYSA-N

> <FORMULA>
C26H22Cl2F2N2O

> <MOLECULAR_WEIGHT>
487.368

> <EXACT_MASS>
486.10772516

> <JCHEM_ACCEPTOR_COUNT>
2

> <JCHEM_AVERAGE_POLARIZABILITY>
48.29699889644928

> <JCHEM_BIOAVAILABILITY>
1

> <JCHEM_DONOR_COUNT>
1

> <JCHEM_FORMAL_CHARGE>
0

> <JCHEM_GHOSE_FILTER>
0

> <JCHEM_IUPAC>
1-(2,6-dichlorophenyl)-5-(2,4-difluorophenyl)-7-(piperidin-4-yl)-1,2,3,4-tetrahydroquinolin-2-one

> <ALOGPS_LOGP>
5.52

> <JCHEM_LOGP>
6.284426869666666

> <ALOGPS_LOGS>
-6.60

> <JCHEM_MDDR_LIKE_RULE>
0

> <JCHEM_NUMBER_OF_RINGS>
5

> <JCHEM_PHYSIOLOGICAL_CHARGE>
1

> <JCHEM_PKA_STRONGEST_ACIDIC>
19.584743995341746

> <JCHEM_PKA_STRONGEST_BASIC>
10.043655775690386

> <JCHEM_POLAR_SURFACE_AREA>
32.34

> <JCHEM_REFRACTIVITY>
127.67899999999997

> <JCHEM_ROTATABLE_BOND_COUNT>
3

> <JCHEM_RULE_OF_FIVE>
0

> <ALOGPS_SOLUBILITY>
1.22e-04 g/l

> <JCHEM_TRADITIONAL_IUPAC>
1-(2,6-dichlorophenyl)-5-(2,4-difluorophenyl)-7-(piperidin-4-yl)-3,4-dihydroquinolin-2-one

> <JCHEM_VEBER_RULE>
1

> <DRUGBANK_ID>
DB01948

> <SECONDARY_ACCESSION_NUMBERS>
EXPT00157

> <DRUG_GROUPS>
experimental

> <GENERIC_NAME>
1-(2,6-Dichlorophenyl)-5-(2,4-Difluorophenyl)-7-Piperidin-4-Yl-3,4-Dihydroquinolin-2(1h)-One

$$$$