drugbank_target|P07307 Asialoglycoprotein receptor 2 (DB00025; DB13998; DB13999)
 OpenBabel12092120063D

  0  0  0     0  0            999 V3000
M  V30 BEGIN CTAB
M  V30 COUNTS 4810 4878 0 0 0
M  V30 BEGIN ATOM
M  V30 1 H -0.908 1.98254 -0.117106 0
M  V30 2 N 0 1.576 0 0
M  V30 3 C 0.933 2.03868 1.02534 0
M  V30 4 C 1.911 0.928543 1.3348 0
M  V30 5 O 3.095 1.19667 1.45644 0
M  V30 6 C 0.222 2.43627 2.35294 0
M  V30 7 C -0.732 3.65373 2.2001 0
M  V30 8 S 0.101 5.13292 1.52614 0
M  V30 9 C 1.257 5.56322 2.86805 0
M  V30 10 H 1.49 2.90518 0.631377 0
M  V30 11 H -0.977 1.52953 0.210867 0
M  V30 12 H 0.981 2.67203 3.11629 0
M  V30 13 H -0.358 1.57376 2.7183 0
M  V30 14 H -1.165 3.90944 3.18086 0
M  V30 15 H -1.563 3.418 1.51819 0
M  V30 16 H 0.729 5.58782 3.83104 0
M  V30 17 H 1.672 6.56266 2.65933 0
M  V30 18 H 2.08 4.83886 2.90714 0
M  V30 19 N 1.4781 -0.272755 1.55222 0
M  V30 20 C 2.4411 -1.32041 1.87344 0
M  V30 21 C 3.4411 -1.42342 0.74803 0
M  V30 22 O 4.6311 -1.41488 1.0162 0
M  V30 23 C 1.7631 -2.70173 2.07893 0
M  V30 24 H 2.9561 -1.04789 2.80997 0
M  V30 25 H 0.5091 -0.51083 1.47717 0
M  V30 26 H 1.2441 -3.02605 1.16622 0
M  V30 27 H 1.0291 -2.64082 2.89833 0
M  V30 28 H 2.5191 -3.45869 2.34017 0
M  V30 29 N 2.9562 -1.48159 -0.537278 0
M  V30 30 C 3.9032 -1.62138 -1.64256 0
M  V30 31 C 4.8732 -0.463668 -1.59497 0
M  V30 32 O 6.0582 -0.686241 -1.78032 0
M  V30 33 C 3.1982 -1.66028 -3.02537 0
M  V30 34 C 2.3112 -2.92855 -3.17585 0
M  V30 35 C 1.4462 -2.87952 -4.46382 0
M  V30 36 C 0.4852 -4.09516 -4.54932 0
M  V30 37 N -0.3778 -4.02733 -5.75109 0
M  V30 38 H 4.4622 -2.56529 -1.51647 0
M  V30 39 H 1.9992 -1.27224 -0.738414 0
M  V30 40 H 3.9572 -1.66265 -3.82638 0
M  V30 41 H 2.5872 -0.751331 -3.13934 0
M  V30 42 H 1.6392 -3.02395 -2.30784 0
M  V30 43 H 2.9512 -3.82822 -3.19764 0
M  V30 44 H 2.1052 -2.8655 -5.34765 0
M  V30 45 H 0.8442 -1.95702 -4.46712 0
M  V30 46 H -0.1508 -4.11201 -3.64957 0
M  V30 47 H 1.0742 -5.02917 -4.56346 0
M  V30 48 H -0.9798 -3.13299 -5.76351 0
M  V30 49 H -1.0628 -4.86397 -5.78752 0
M  V30 50 H 0.2052 -4.05379 -6.65799 0
M  V30 51 N 4.4343 0.785586 -1.36625 0
M  V30 52 C 5.7113 1.53198 -1.21613 0
M  V30 53 C 6.0913 2.10187 0.196113 0
M  V30 54 O 5.4393 1.94318 1.20219 0
M  V30 55 C 5.6493 2.62388 -2.30116 0
M  V30 56 C 6.9973 3.30167 -2.66974 0
M  V30 57 O 8.0213 2.72674 -2.29188 0
M  V30 58 O 6.8803 4.34077 -3.32023 0
M  V30 59 H 3.9743 0.677865 -0.473738 0
M  V30 60 H 6.5203 0.823739 -1.48367 0
M  V30 61 H 5.2923 2.18299 -3.24748 0
M  V30 62 H 4.9153 3.40827 -2.0475 0
M  V30 63 N 5.9124 1.20967 1.01018 0
M  V30 64 C 7.1594 1.02374 1.74716 0
M  V30 65 C 7.4874 -0.443375 1.89379 0
M  V30 66 O 6.7424 -1.34535 1.42123 0
M  V30 67 C 7.0414 1.65997 3.16512 0
M  V30 68 C 6.7074 3.15831 3.2181 0
M  V30 69 C 5.3694 3.56719 3.22963 0
M  V30 70 C 7.7214 4.11816 3.19464 0
M  V30 71 C 5.0494 4.92107 3.19449 0
M  V30 72 C 7.4014 5.47158 3.17491 0
M  V30 73 C 6.0654 5.87451 3.16951 0
M  V30 74 H 5.3354 0.374614 0.639332 0
M  V30 75 H 7.9824 1.50485 1.18434 0
M  V30 76 H 6.2874 1.10166 3.75993 0
M  V30 77 H 7.9844 1.49119 3.72242 0
M  V30 78 H 4.5744 2.83263 3.21652 0
M  V30 79 H 8.7584 3.81257 3.17737 0
M  V30 80 H 4.0144 5.22579 3.17366 0
M  V30 81 H 8.1884 6.21274 3.14629 0
M  V30 82 H 5.8154 6.92329 3.13983 0
M  V30 83 N 7.3905 -1.2043 1.01659 0
M  V30 84 C 8.3225 -2.22626 0.544988 0
M  V30 85 C 9.3355 -1.58479 -0.372609 0
M  V30 86 O 10.5245 -1.77679 -0.170958 0
M  V30 87 C 7.6245 -3.38141 -0.22663 0
M  V30 88 C 6.7975 -4.31877 0.692876 0
M  V30 89 C 5.8565 -5.26191 -0.0311616 0
M  V30 90 O 4.8825 -5.6612 0.591343 0
M  V30 91 N 6.0845 -5.65618 -1.30601 0
M  V30 92 H 8.8495 -2.63716 1.42388 0
M  V30 93 H 6.4105 -1.34971 0.894116 0
M  V30 94 H 8.4025 -3.98239 -0.72024 0
M  V30 95 H 6.9725 -2.95943 -1.00681 0
M  V30 96 H 6.1925 -3.69746 1.36679 0
M  V30 97 H 7.4805 -4.91426 1.31824 0
M  V30 98 H 6.8785 -5.3519 -1.83269 0
M  V30 99 H 5.4355 -6.28025 -1.74435 0
M  V30 100 N 8.8686 -0.792821 -1.36206 0
M  V30 101 C 10.1456 -0.290627 -1.93429 0
M  V30 102 C 10.5256 1.21773 -1.72437 0
M  V30 103 O 9.8736 2.0108 -1.08531 0
M  V30 104 C 10.0836 -0.686973 -3.42172 0
M  V30 105 C 11.4316 -0.668643 -4.19302 0
M  V30 106 O 12.4556 -0.627658 -3.50626 0
M  V30 107 O 11.3146 -0.714597 -5.41808 0
M  V30 108 H 8.4086 -0.0727927 -0.82379 0
M  V30 109 H 10.9546 -0.875593 -1.45367 0
M  V30 110 H 9.7266 -1.72711 -3.51122 0
M  V30 111 H 9.3496 -0.0760733 -3.97527 0
M  V30 112 N 10.3467 1.47872 -0.545128 0
M  V30 113 C 11.5957 2.01695 -0.0145033 0
M  V30 114 C 11.9087 1.42609 1.33873 0
M  V30 115 O 13.1147 1.88021 1.95858 0
M  V30 116 C 11.5707 3.59892 0.0245068 0
M  V30 117 C 11.1787 4.27966 -1.32475 0
M  V30 118 C 12.9227 4.21507 0.50316 0
M  V30 119 C 10.8297 5.78136 -1.2455 0
M  V30 120 H 9.7597 0.753998 -0.00165172 0
M  V30 121 H 12.4107 1.69985 -0.691175 0
M  V30 122 H 10.7927 3.88509 0.766575 0
M  V30 123 H 11.9667 4.11003 -2.08357 0
M  V30 124 H 10.2817 3.78286 -1.74036 0
M  V30 125 H 12.8787 5.31538 0.580656 0
M  V30 126 H 13.2217 3.87855 1.51243 0
M  V30 127 H 13.7547 3.97376 -0.183681 0
M  V30 128 H 10.4937 6.16388 -2.23039 0
M  V30 129 H 10.0137 5.97469 -0.528282 0
M  V30 130 H 11.6927 6.40099 -0.942488 0
M  V30 131 N 11.8248 0.280983 1.55075 0
M  V30 132 C 12.7568 -0.637268 2.20163 0
M  V30 133 C 13.7698 -1.11298 1.18813 0
M  V30 134 O 14.9588 -1.03388 1.4551 0
M  V30 135 C 12.0588 -1.88199 2.81841 0
M  V30 136 C 11.2318 -1.55211 4.08936 0
M  V30 137 C 10.2908 -2.64991 4.54606 0
M  V30 138 O 9.3168 -2.30929 5.2025 0
M  V30 139 N 10.5188 -3.95161 4.25238 0
M  V30 140 H 13.2838 -0.0801694 2.99593 0
M  V30 141 H 10.8448 0.102329 1.61576 0
M  V30 142 H 12.8368 -2.60948 3.09335 0
M  V30 143 H 11.4068 -2.34799 2.06369 0
M  V30 144 H 10.6268 -0.658185 3.88666 0
M  V30 145 H 11.9148 -1.30681 4.91732 0
M  V30 146 H 11.3128 -4.25653 3.72607 0
M  V30 147 H 9.8698 -4.6427 4.5749 0
M  V30 148 N 13.3029 -1.57598 0.00835791 0
M  V30 149 C 14.2349 -2.05811 -1.00868 0
M  V30 150 C 15.2479 -0.977579 -1.30182 0
M  V30 151 O 16.4369 -1.25421 -1.27011 0
M  V30 152 C 13.5369 -2.45016 -2.34137 0
M  V30 153 C 12.7099 -3.75903 -2.23643 0
M  V30 154 C 11.7689 -4.01884 -3.3967 0
M  V30 155 O 10.7949 -4.72433 -3.17483 0
M  V30 156 N 11.9969 -3.50432 -4.62793 0
M  V30 157 H 14.7619 -2.93684 -0.597458 0
M  V30 158 H 12.3229 -1.60909 -0.178852 0
M  V30 159 H 14.3149 -2.59506 -3.10546 0
M  V30 160 H 12.8849 -1.62618 -2.66972 0
M  V30 161 H 12.1049 -3.7141 -1.32091 0
M  V30 162 H 13.3929 -4.61695 -2.13812 0
M  V30 163 H 12.7909 -2.93317 -4.83716 0
M  V30 164 H 11.3479 -3.70236 -5.3644 0
M  V30 165 N 14.781 0.264519 -1.55364 0
M  V30 166 C 15.711 1.33121 -1.91836 0
M  V30 167 C 16.692 1.51101 -0.781192 0
M  V30 168 O 17.877 1.64003 -1.04003 0
M  V30 169 C 15.007 2.68921 -2.19769 0
M  V30 170 C 13.961 2.65661 -3.35571 0
M  V30 171 C 13.287 4.05093 -3.49004 0
M  V30 172 C 14.587 2.24187 -4.71739 0
M  V30 173 H 16.281 1.02844 -2.81182 0
M  V30 174 H 13.827 0.493286 -1.35287 0
M  V30 175 H 15.78 3.43663 -2.43872 0
M  V30 176 H 14.504 3.00799 -1.27231 0
M  V30 177 H 13.163 1.93377 -3.1145 0
M  V30 178 H 12.811 4.34206 -2.53917 0
M  V30 179 H 12.511 4.03804 -4.26868 0
M  V30 180 H 14.035 4.81561 -3.75408 0
M  V30 181 H 15.449 2.88654 -4.9533 0
M  V30 182 H 13.846 2.34044 -5.52579 0
M  V30 183 H 14.916 1.19327 -4.69988 0
M  V30 184 N 16.2591 1.48442 0.529413 0
M  V30 185 C 17.4841 1.60406 1.31471 0
M  V30 186 C 17.9091 0.264738 1.86228 0
M  V30 187 O 17.2671 -0.763668 1.64432 0
M  V30 188 C 17.3151 2.65419 2.44101 0
M  V30 189 O 16.4191 2.22618 3.47153 0
M  V30 190 H 15.7601 0.537863 0.389357 0
M  V30 191 H 18.2901 1.94432 0.636965 0
M  V30 192 H 18.3001 2.86709 2.90279 0
M  V30 193 H 16.9751 3.62652 2.03608 0
M  V30 194 H 15.5521 2.11543 3.0709 0
M  V30 195 N 17.7372 -0.778329 1.37039 0
M  V30 196 C 18.9622 -1.57248 1.35233 0
M  V30 197 C 19.3872 -1.87999 -0.0615568 0
M  V30 198 O 18.7452 -1.48734 -1.03672 0
M  V30 199 C 18.7932 -2.86353 2.19167 0
M  V30 200 O 17.8972 -3.80442 1.59178 0
M  V30 201 H 17.2382 -0.476569 0.462362 0
M  V30 202 H 19.7682 -0.963853 1.80474 0
M  V30 203 H 19.7782 -3.35519 2.32145 0
M  V30 204 H 18.4532 -2.63299 3.21942 0
M  V30 205 H 17.0302 -3.39067 1.55203 0
M  V30 206 N 19.2153 -1.21501 -1.00376 0
M  V30 207 C 20.1253 -0.991447 -2.12621 0
M  V30 208 C 21.1413 0.0568446 -1.73907 0
M  V30 209 O 22.3173 -0.13348 -2.00957 0
M  V30 210 C 19.3823 -0.560312 -3.42142 0
M  V30 211 C 18.4433 -1.68096 -3.95022 0
M  V30 212 C 17.6763 -1.2703 -5.18362 0
M  V30 213 O 17.8993 -0.144438 -5.70217 0
M  V30 214 O 16.8333 -2.08269 -5.64719 0
M  V30 215 H 20.6593 -1.93158 -2.34358 0
M  V30 216 H 18.2443 -0.999999 -1.10997 0
M  V30 217 H 20.1263 -0.329724 -4.20108 0
M  V30 218 H 18.8013 0.351089 -3.2179 0
M  V30 219 H 17.7083 -1.96597 -3.18278 0
M  V30 220 H 19.0413 -2.56983 -4.19786 0
M  V30 221 N 20.6934 1.19889 -1.02296 0
M  V30 222 C 21.6034 2.26571 -0.608508 0
M  V30 223 C 22.6194 1.70299 0.356964 0
M  V30 224 O 23.7954 2.00235 0.216326 0
M  V30 225 C 20.8604 3.46677 0.0402814 0
M  V30 226 C 19.9214 4.18153 -0.97194 0
M  V30 227 C 19.1544 5.32525 -0.354016 0
M  V30 228 O 19.3774 5.64112 0.844604 0
M  V30 229 O 18.3114 5.92242 -1.07391 0
M  V30 230 H 22.1374 2.64251 -1.49684 0
M  V30 231 H 19.7224 1.26629 -0.792809 0
M  V30 232 H 21.6044 4.19475 0.402324 0
M  V30 233 H 20.2794 3.10858 0.902707 0
M  V30 234 H 19.1864 3.47499 -1.38546 0
M  V30 235 H 20.5194 4.57927 -1.80454 0
M  V30 236 N 22.1715 0.800033 1.35784 0
M  V30 237 C 23.1195 0.193851 2.31791 0
M  V30 238 C 24.1135 -0.652744 1.56319 0
M  V30 239 O 25.3195 -0.546641 1.71499 0
M  V30 240 H 21.6945 0.04392 0.750716 0
M  V30 241 H 23.6655 1.01883 2.80468 0
M  V30 242 C 22.4145 -0.648338 3.41602 0
M  V30 243 H 21.7375 -0.00624665 3.998 0
M  V30 244 H 23.1775 -1.03898 4.11073 0
M  V30 245 C 21.6365 -1.8111 2.84079 0
M  V30 246 O 22.1665 -2.90825 2.77099 0
M  V30 247 N 20.3725 -1.62056 2.41218 0
M  V30 248 H 19.9195 -0.728123 2.47095 0
M  V30 249 H 19.8775 -2.40013 2.03079 0
M  V30 250 N 23.6496 -1.47581 0.552962 0
M  V30 251 C 24.9266 -1.95563 -0.0381515 0
M  V30 252 C 25.3066 -1.49552 -1.48988 0
M  V30 253 O 24.6546 -0.732414 -2.16444 0
M  V30 254 C 24.8646 -3.48848 0.102919 0
M  V30 255 C 26.2126 -4.24577 -0.0446082 0
M  V30 256 O 27.2366 -3.56187 0.0302548 0
M  V30 257 O 26.0956 -5.46116 -0.204923 0
M  V30 258 H 23.1896 -0.824321 -0.0665067 0
M  V30 259 H 25.7356 -1.58001 0.619186 0
M  V30 260 H 24.5076 -3.75129 1.11328 0
M  V30 261 H 24.1306 -3.93165 -0.592224 0
M  V30 262 N 25.1277 -0.289203 -1.54924 0
M  V30 263 C 26.0777 0.606939 -2.19773 0
M  V30 264 C 27.0617 1.10783 -1.16687 0
M  V30 265 O 28.2537 1.05057 -1.4245 0
M  V30 266 C 25.3827 1.78398 -2.93307 0
M  V30 267 C 24.4687 1.29961 -4.03697 0
M  V30 268 N 24.8597 0.532377 -5.0299 0
M  V30 269 C 23.1577 1.58136 -4.17024 0
M  V30 270 C 23.8587 0.275912 -5.81045 0
M  V30 271 N 22.8347 0.852365 -5.36876 0
M  V30 272 H 26.6367 0.0130779 -2.93897 0
M  V30 273 H 24.1507 -0.09341 -1.62131 0
M  V30 274 H 26.1477 2.43741 -3.38225 0
M  V30 275 H 24.8077 2.38166 -2.20697 0
M  V30 276 H 25.8187 0.17838 -5.17593 0
M  V30 277 H 22.4957 2.18738 -3.55612 0
M  V30 278 H 23.8857 -0.339502 -6.71042 0
M  V30 279 N 26.6058 1.57591 -0.0167156 0
M  V30 280 C 28.0168 1.79201 0.523834 0
M  V30 281 C 28.3678 0.925796 1.72984 0
M  V30 282 O 27.4928 0.132792 2.15992 0
M  V30 283 C 28.0878 3.25 0.957091 0
M  V30 284 C 26.6468 3.47648 1.44283 0
M  V30 285 C 25.7938 2.74374 0.401757 0
M  V30 286 H 28.7448 1.56831 -0.242816 0
M  V30 287 H 28.7658 3.34031 1.82219 0
M  V30 288 H 28.2778 3.88019 0.0791415 0
M  V30 289 H 26.3788 2.89866 2.34113 0
M  V30 290 H 26.4918 4.56352 1.45877 0
M  V30 291 H 24.8558 2.39485 0.867121 0
M  V30 292 H 25.6388 3.40102 -0.467513 0
M  V30 293 N 28.0839 -0.256276 1.55502 0
M  V30 294 C 29.3309 -0.985619 1.76895 0
M  V30 295 C 29.6589 -1.85671 0.579355 0
M  V30 296 O 28.9139 -1.90744 -0.437651 0
M  V30 297 C 29.2129 -1.88432 3.03691 0
M  V30 298 C 28.8789 -1.16936 4.35473 0
M  V30 299 C 27.5409 -0.97173 4.71286 0
M  V30 300 C 29.8929 -0.661889 5.1698 0
M  V30 301 C 27.2209 -0.254179 5.86149 0
M  V30 302 C 29.5729 0.042149 6.32586 0
M  V30 303 C 28.2369 0.25134 6.67027 0
M  V30 304 H 27.5069 -0.360663 0.647304 0
M  V30 305 H 30.1539 -0.256483 1.89775 0
M  V30 306 H 28.4589 -2.68021 2.85783 0
M  V30 307 H 30.1559 -2.45015 3.1744 0
M  V30 308 H 26.7459 -1.33332 4.07333 0
M  V30 309 H 30.9299 -0.802145 4.89775 0
M  V30 310 H 26.1859 -0.0815408 6.11346 0
M  V30 311 H 30.3599 0.443049 6.94989 0
M  V30 312 H 27.9869 0.809314 7.5588 0
M  V30 313 N 29.562 -1.4872 -0.521534 0
M  V30 314 C 30.512 -1.60269 -1.62166 0
M  V30 315 C 31.496 -0.45935 -1.54204 0
M  V30 316 O 32.688 -0.711241 -1.62081 0
M  V30 317 C 29.817 -1.65344 -3.00859 0
M  V30 318 C 28.903 -2.85187 -3.13894 0
M  V30 319 N 29.294 -4.09509 -2.96877 0
M  V30 320 C 27.592 -2.82695 -3.44963 0
M  V30 321 C 28.293 -4.89959 -3.13552 0
M  V30 322 N 27.269 -4.22934 -3.41508 0
M  V30 323 H 31.071 -2.5413 -1.47632 0
M  V30 324 H 28.585 -1.45209 -0.727194 0
M  V30 325 H 30.582 -1.71713 -3.79895 0
M  V30 326 H 29.242 -0.726058 -3.16478 0
M  V30 327 H 30.253 -4.39814 -2.73467 0
M  V30 328 H 26.93 -1.99249 -3.66887 0
M  V30 329 H 28.32 -5.98654 -3.05061 0
M  V30 330 N 31.0401 0.771051 -1.3745 0
M  V30 331 C 31.9721 1.89352 -1.29146 0
M  V30 332 C 32.9851 1.61477 -0.207124 0
M  V30 333 O 34.1741 1.72382 -0.463324 0
M  V30 334 C 31.2741 3.24596 -0.974195 0
M  V30 335 C 30.4471 3.80111 -2.16413 0
M  V30 336 C 29.5061 4.93832 -1.81703 0
M  V30 337 O 28.5321 5.09382 -2.54006 0
M  V30 338 N 29.7341 5.75483 -0.761573 0
M  V30 339 H 32.4991 1.96991 -2.25864 0
M  V30 340 H 30.0601 0.950191 -1.31084 0
M  V30 341 H 32.0521 3.98193 -0.722828 0
M  V30 342 H 30.6221 3.12454 -0.0955527 0
M  V30 343 H 29.8421 2.98284 -2.57721 0
M  V30 344 H 31.1301 4.13932 -2.95867 0
M  V30 345 H 30.5281 5.65469 -0.161609 0
M  V30 346 H 29.0851 6.49302 -0.570064 0
M  V30 347 N 32.5182 1.22032 0.997298 0
M  V30 348 C 33.7662 1.04016 1.73278 0
M  V30 349 C 34.0872 -0.426255 1.90284 0
M  V30 350 O 33.3572 -1.30694 1.45931 0
M  V30 351 H 31.9372 0.381897 0.642 0
M  V30 352 H 34.5992 1.5347 1.20137 0
M  V30 353 H 33.6952 1.51441 2.72896 0
M  V30 354 N 33.9963 -1.19345 1.0293 0
M  V30 355 C 34.9063 -2.26245 0.620515 0
M  V30 356 C 35.9223 -1.70486 -0.347928 0
M  V30 357 O 37.0983 -2.00347 -0.205704 0
M  V30 358 C 34.1633 -3.46693 -0.0218957 0
M  V30 359 C 33.2243 -4.17632 0.994102 0
M  V30 360 C 32.4573 -5.32329 0.382253 0
M  V30 361 O 32.6803 -5.64552 -0.814676 0
M  V30 362 O 31.6143 -5.91664 1.10531 0
M  V30 363 H 35.4403 -2.63453 1.51083 0
M  V30 364 H 33.0253 -1.26207 0.799513 0
M  V30 365 H 34.9073 -4.19683 -0.380072 0
M  V30 366 H 33.5823 -3.11333 -0.886209 0
M  V30 367 H 32.4893 -3.4676 1.40387 0
M  V30 368 H 33.8223 -4.56964 1.8288 0
M  V30 369 N 35.4744 -0.807222 -1.35358 0
M  V30 370 C 36.7224 -0.387122 -1.98358 0
M  V30 371 C 37.0434 1.04942 -1.64354 0
M  V30 372 O 36.3134 1.72615 -0.926339 0
M  V30 373 H 34.8934 -0.140154 -0.733734 0
M  V30 374 H 37.5554 -1.0332 -1.6526 0
M  V30 375 H 36.6514 -0.493352 -3.08176 0
M  V30 376 N 36.9525 1.47285 -0.560781 0
M  V30 377 C 38.3635 1.86258 -0.128343 0
M  V30 378 C 38.7145 1.46699 1.30284 0
M  V30 379 O 37.8395 0.871698 1.98067 0
M  V30 380 C 38.4345 3.38044 -0.22614 0
M  V30 381 C 36.9935 3.76096 0.151283 0
M  V30 382 C 36.1405 2.71335 -0.572084 0
M  V30 383 H 39.0915 1.38752 -0.770297 0
M  V30 384 H 39.1125 3.76441 0.554322 0
M  V30 385 H 38.6245 3.66806 -1.26788 0
M  V30 386 H 36.7255 3.52951 1.19399 0
M  V30 387 H 36.8385 4.78641 -0.209765 0
M  V30 388 H 35.2025 2.54696 -0.0147653 0
M  V30 389 H 35.9855 3.02938 -1.61504 0
M  V30 390 N 38.4306 0.297415 1.54768 0
M  V30 391 C 39.6786 -0.312295 1.99673 0
M  V30 392 C 39.9996 -1.54686 1.18732 0
M  V30 393 O 39.2696 -1.93854 0.282382 0
M  V30 394 H 37.8496 -0.118381 0.73756 0
M  V30 395 H 40.5116 0.407915 1.90583 0
M  V30 396 H 39.6076 -0.586813 3.06534 0
M  V30 397 N 39.9087 -1.5758 0.0250728 0
M  V30 398 C 41.1367 -1.9593 -0.664747 0
M  V30 399 C 41.5517 -0.901352 -1.65895 0
M  V30 400 O 40.9087 0.117255 -1.82123 0
M  V30 401 C 40.9597 -3.34342 -1.37468 0
M  V30 402 O 40.6807 -4.36079 -0.420324 0
M  V30 403 C 42.1817 -3.873 -2.1567 0
M  V30 404 H 39.4017 -0.645405 -0.183557 0
M  V30 405 H 41.9457 -2.04329 0.0836372 0
M  V30 406 H 40.1007 -3.27175 -2.0745 0
M  V30 407 H 40.5147 -5.16297 -0.923991 0
M  V30 408 H 41.9887 -4.86504 -2.60803 0
M  V30 409 H 42.4657 -3.21331 -2.99405 0
M  V30 410 H 43.0717 -3.97723 -1.50654 0
M  V30 411 N 41.3868 0.248026 -1.55636 0
M  V30 412 C 42.8028 0.596483 -1.48035 0
M  V30 413 C 43.0028 1.88386 -0.715039 0
M  V30 414 O 42.0588 2.51319 -0.243944 0
M  V30 415 C 43.3718 0.700258 -2.92433 0
M  V30 416 C 44.9198 0.792659 -3.02797 0
M  V30 417 C 45.3948 0.928005 -4.485 0
M  V30 418 N 46.8858 0.992903 -4.52433 0
M  V30 419 C 47.6208 1.11687 -5.62418 0
M  V30 420 N 47.1168 1.20645 -6.82214 0
M  V30 421 N 48.9098 1.14994 -5.50212 0
M  V30 422 H 41.0608 -0.597109 -2.03834 0
M  V30 423 H 43.3238 -0.205925 -0.925364 0
M  V30 424 H 43.0298 -0.175658 -3.51261 0
M  V30 425 H 42.9038 1.57255 -3.42857 0
M  V30 426 H 45.2908 1.65903 -2.4405 0
M  V30 427 H 45.3718 -0.104762 -2.55585 0
M  V30 428 H 45.0158 0.0661971 -5.07857 0
M  V30 429 H 44.9458 1.84045 -4.93391 0
M  V30 430 H 47.4368 0.935064 -3.66149 0
M  V30 431 H 47.7498 1.30008 -7.61786 0
M  V30 432 H 46.0948 1.17605 -6.84977 0
M  V30 433 H 49.2858 1.07643 -4.55555 0
M  V30 434 H 49.4588 1.24311 -6.35965 0
M  V30 435 N 42.8649 1.48995 0.513639 0
M  V30 436 C 44.2809 1.35478 0.843682 0
M  V30 437 C 44.4809 0.378213 1.97919 0
M  V30 438 O 43.5369 -0.194689 2.51748 0
M  V30 439 C 44.8499 2.75901 1.1958 0
M  V30 440 C 46.3979 2.84509 1.30474 0
M  V30 441 C 46.8729 4.25671 1.69021 0
M  V30 442 N 48.3639 4.28422 1.76094 0
M  V30 443 C 49.0989 5.34601 2.07338 0
M  V30 444 N 48.5949 6.5104 2.36894 0
M  V30 445 N 50.3879 5.22007 2.08483 0
M  V30 446 H 42.5389 2.11092 -0.235328 0
M  V30 447 H 44.8019 0.947039 -0.0426669 0
M  V30 448 H 44.5079 3.49001 0.434913 0
M  V30 449 H 44.3819 3.10467 2.1422 0
M  V30 450 H 46.7689 2.11655 2.05637 0
M  V30 451 H 46.8499 2.53542 0.339155 0
M  V30 452 H 46.4939 4.99048 0.944135 0
M  V30 453 H 46.4239 4.54094 2.66658 0
M  V30 454 H 48.9149 3.44441 1.55464 0
M  V30 455 H 49.2279 7.2779 2.59887 0
M  V30 456 H 47.5729 6.54287 2.34378 0
M  V30 457 H 50.7639 4.30051 1.84861 0
M  V30 458 H 50.9369 6.04854 2.325 0
M  V30 459 N 44.343 -0.763751 1.37857 0
M  V30 460 C 45.273 -1.89103 1.36975 0
M  V30 461 C 46.254 -1.68439 0.237152 0
M  V30 462 O 47.439 -1.8918 0.438713 0
M  V30 463 C 44.569 -3.26496 1.18395 0
M  V30 464 C 43.523 -3.61741 2.28751 0
M  V30 465 C 42.849 -4.97762 1.95286 0
M  V30 466 C 44.149 -3.67665 3.70972 0
M  V30 467 H 45.843 -1.90099 2.31307 0
M  V30 468 H 43.389 -0.91319 1.11341 0
M  V30 469 H 45.342 -4.05003 1.16406 0
M  V30 470 H 44.066 -3.25955 0.205215 0
M  V30 471 H 42.725 -2.85547 2.29909 0
M  V30 472 H 42.373 -4.93769 0.959221 0
M  V30 473 H 42.073 -5.22313 2.69189 0
M  V30 474 H 43.597 -5.7866 1.94898 0
M  V30 475 H 45.011 -4.36307 3.719 0
M  V30 476 H 43.408 -4.03718 4.43995 0
M  V30 477 H 44.478 -2.68134 4.0402 0
M  V30 478 N 45.8211 -1.22559 -0.990812 0
M  V30 479 C 46.7691 -0.994798 -2.10253 0
M  V30 480 C 47.7631 0.0627798 -1.69284 0
M  V30 481 O 48.9691 -0.0898392 -1.79776 0
M  V30 482 H 45.3441 -0.304527 -0.687581 0
M  V30 483 H 47.3151 -1.93812 -2.26891 0
M  V30 484 C 46.0641 -0.591439 -3.42633 0
M  V30 485 H 45.3871 -1.3969 -3.74602 0
M  V30 486 H 46.8271 -0.469385 -4.21394 0
M  V30 487 C 45.2861 0.699232 -3.29564 0
M  V30 488 O 45.8161 1.75112 -3.61523 0
M  V30 489 N 44.0221 0.671182 -2.82743 0
M  V30 490 H 43.5691 -0.185136 -2.56934 0
M  V30 491 H 43.5271 1.53502 -2.7438 0
M  V30 492 N 47.2992 1.18797 -1.03562 0
M  V30 493 C 48.7102 1.70322 -0.764676 0
M  V30 494 C 49.0612 1.82708 0.714996 0
M  V30 495 O 48.1862 1.50299 1.55689 0
M  V30 496 C 48.7812 3.09356 -1.38145 0
M  V30 497 C 47.3402 3.58114 -1.15895 0
M  V30 498 C 46.4872 2.34798 -1.4753 0
M  V30 499 H 49.4382 1.03543 -1.20268 0
M  V30 500 H 49.4592 3.72378 -0.781977 0
M  V30 501 H 48.9712 3.00309 -2.45837 0
M  V30 502 H 47.0722 3.72464 -0.100544 0
M  V30 503 H 47.1852 4.4184 -1.8524 0
M  V30 504 H 45.5492 2.38464 -0.894829 0
M  V30 505 H 46.3322 2.28375 -2.56319 0
M  V30 506 N 48.7773 0.814389 1.34928 0
M  V30 507 C 50.1933 0.499084 1.51596 0
M  V30 508 C 50.3933 -0.978319 1.76157 0
M  V30 509 O 49.4493 -1.76309 1.80752 0
M  V30 510 C 50.7623 1.35121 2.68631 0
M  V30 511 C 52.3103 1.34746 2.82511 0
M  V30 512 C 52.7853 2.18388 4.0258 0
M  V30 513 N 54.2763 2.15966 4.09772 0
M  V30 514 C 55.0113 2.77437 5.01813 0
M  V30 515 N 54.5073 3.47866 5.99134 0
M  V30 516 N 56.3003 2.67037 4.94619 0
M  V30 517 H 48.4513 1.7711 1.17243 0
M  V30 518 H 50.7143 0.754256 0.574284 0
M  V30 519 H 50.4203 2.40001 2.57085 0
M  V30 520 H 50.2943 1.00991 3.63429 0
M  V30 521 H 52.6813 0.30648 2.93504 0
M  V30 522 H 52.7623 1.72869 1.88547 0
M  V30 523 H 52.4063 3.2253 3.92347 0
M  V30 524 H 52.3363 1.77621 4.9574 0
M  V30 525 H 54.8273 1.64729 3.40107 0
M  V30 526 H 55.1403 3.92038 6.65977 0
M  V30 527 H 53.4853 3.51972 5.99284 0
M  V30 528 H 56.6763 2.11597 4.17546 0
M  V30 529 H 56.8493 3.15232 5.66156 0
M  V30 530 N 50.2554 -1.46986 0.568584 0
M  V30 531 C 51.6714 -1.57946 0.229189 0
M  V30 532 C 51.8714 -1.56567 -1.26843 0
M  V30 533 O 50.9274 -1.47511 -2.04931 0
M  V30 534 C 52.2404 -2.87963 0.865909 0
M  V30 535 C 53.7884 -3.01568 0.838188 0
M  V30 536 C 54.2634 -4.34301 1.45419 0
M  V30 537 N 55.7544 -4.40965 1.41788 0
M  V30 538 C 56.4894 -5.42256 1.86403 0
M  V30 539 N 55.9854 -6.50297 2.38926 0
M  V30 540 N 57.7784 -5.3337 1.77405 0
M  V30 541 H 49.9294 -1.46126 1.54146 0
M  V30 542 H 52.1924 -0.696156 0.643484 0
M  V30 543 H 51.8984 -2.94742 1.91886 0
M  V30 544 H 51.7724 -3.75423 0.365687 0
M  V30 545 H 54.1594 -2.94379 -0.206106 0
M  V30 546 H 54.2404 -2.1562 1.37629 0
M  V30 547 H 53.8844 -4.42247 2.49761 0
M  V30 548 H 53.8144 -5.19 0.891435 0
M  V30 549 H 56.3054 -3.63484 1.03381 0
M  V30 550 H 56.6184 -7.23777 2.70863 0
M  V30 551 H 54.9634 -6.51155 2.42944 0
M  V30 552 H 58.1544 -4.47865 1.3614 0
M  V30 553 H 58.3274 -6.12169 2.12492 0
M  V30 554 N 51.7335 -0.305618 -1.54608 0
M  V30 555 C 52.9815 0.301701 -1.99835 0
M  V30 556 C 53.3025 1.54054 -1.19551 0
M  V30 557 O 52.5725 1.93702 -0.292658 0
M  V30 558 H 51.1525 0.114468 -0.738178 0
M  V30 559 H 53.8145 -0.418016 -1.90364 0
M  V30 560 H 52.9105 0.570548 -3.06841 0
M  V30 561 N 53.2116 1.57565 -0.0334293 0
M  V30 562 C 54.1596 2.1164 0.96496 0
M  V30 563 C 55.1536 1.04398 1.33407 0
M  V30 564 O 56.3596 1.22828 1.3158 0
M  V30 565 H 52.7346 0.676222 0.32898 0
M  V30 566 H 54.7056 2.94455 0.483614 0
M  V30 567 C 53.4546 2.66207 2.23672 0
M  V30 568 H 52.7776 3.48378 1.96145 0
M  V30 569 H 54.2176 3.07685 2.9173 0
M  V30 570 C 52.6766 1.59151 2.96939 0
M  V30 571 O 53.2066 0.993858 3.89211 0
M  V30 572 N 51.4126 1.31093 2.59351 0
M  V30 573 H 50.9596 1.7988 1.84393 0
M  V30 574 H 50.9176 0.596889 3.08682 0
M  V30 575 N 54.6897 -0.239769 1.55765 0
M  V30 576 C 56.1007 -0.808263 1.68297 0
M  V30 577 C 56.4517 -1.85736 0.632181 0
M  V30 578 O 55.5767 -2.15277 -0.220204 0
M  V30 579 C 56.1717 -1.47284 3.05111 0
M  V30 580 C 54.7307 -1.98895 3.19559 0
M  V30 581 C 53.8777 -0.842575 2.64189 0
M  V30 582 H 56.8287 -0.0154422 1.58692 0
M  V30 583 H 56.8497 -2.34111 2.99954 0
M  V30 584 H 56.3617 -0.709053 3.81568 0
M  V30 585 H 54.4627 -2.78132 2.47938 0
M  V30 586 H 54.5757 -2.18143 4.26556 0
M  V30 587 H 52.9397 -1.24501 2.22197 0
M  V30 588 H 53.7227 -0.0917552 3.43177 0
M  V30 589 N 56.1678 -1.49265 -0.50573 0
M  V30 590 C 57.4148 -1.58513 -1.26015 0
M  V30 591 C 57.7428 -0.26972 -1.92621 0
M  V30 592 O 56.9978 0.741997 -1.81088 0
M  V30 593 C 57.2968 -2.69008 -2.35308 0
M  V30 594 C 56.9628 -4.10662 -1.86192 0
M  V30 595 C 55.6248 -4.49212 -1.72516 0
M  V30 596 C 57.9768 -4.99336 -1.49375 0
M  V30 597 C 55.3048 -5.74214 -1.20394 0
M  V30 598 C 57.6568 -6.24852 -0.987072 0
M  V30 599 C 56.3208 -6.62236 -0.836669 0
M  V30 600 H 55.5908 -0.580041 -0.461122 0
M  V30 601 H 58.2378 -1.83078 -0.561665 0
M  V30 602 H 56.5428 -2.38396 -3.10926 0
M  V30 603 H 58.2398 -2.73373 -2.93374 0
M  V30 604 H 54.8298 -3.8023 -1.97795 0
M  V30 605 H 59.0138 -4.70212 -1.5879 0
M  V30 606 H 54.2698 -6.01883 -1.07458 0
M  V30 607 H 58.4438 -6.92944 -0.692983 0
M  V30 608 H 56.0708 -7.58979 -0.430607 0
M  V30 609 N 57.6459 0.756429 -1.3826 0
M  V30 610 C 58.5759 1.88374 -1.37976 0
M  V30 611 C 59.5569 1.68311 -0.246082 0
M  V30 612 O 60.7419 1.88944 -0.44874 0
M  V30 613 C 57.8719 3.25864 -1.20125 0
M  V30 614 C 56.8259 3.60523 -2.30666 0
M  V30 615 C 56.1519 4.9672 -1.97923 0
M  V30 616 C 57.4519 3.65692 -3.72916 0
M  V30 617 H 59.1459 1.88869 -2.32312 0
M  V30 618 H 56.6919 0.907272 -1.11824 0
M  V30 619 H 58.6449 4.0438 -1.18552 0
M  V30 620 H 57.3689 3.25841 -0.222498 0
M  V30 621 H 56.0279 2.84324 -2.3142 0
M  V30 622 H 55.6759 4.93253 -0.985393 0
M  V30 623 H 55.3759 5.20878 -2.71955 0
M  V30 624 H 56.8999 5.77618 -1.97964 0
M  V30 625 H 58.3139 4.34328 -3.74208 0
M  V30 626 H 56.7109 4.01358 -4.4613 0
M  V30 627 H 57.7809 2.65987 -4.05436 0
M  V30 628 N 59.124 1.23083 0.984299 0
M  V30 629 C 60.071 1.00854 2.07598 0
M  V30 630 C 61.041 -0.0726709 1.65941 0
M  V30 631 O 62.226 0.0786535 1.90638 0
M  V30 632 C 59.366 0.601645 3.39815 0
M  V30 633 C 58.479 1.75456 3.94765 0
M  V30 634 C 57.614 1.29482 5.15177 0
M  V30 635 C 56.653 2.41873 5.62284 0
M  V30 636 N 55.79 1.96885 6.73929 0
M  V30 637 H 60.63 1.943 2.25946 0
M  V30 638 H 58.167 0.968001 1.10762 0
M  V30 639 H 60.125 0.346854 4.15756 0
M  V30 640 H 58.755 -0.295803 3.21442 0
M  V30 641 H 57.807 2.12346 3.15616 0
M  V30 642 H 59.119 2.59965 4.25699 0
M  V30 643 H 58.273 0.997923 5.98437 0
M  V30 644 H 57.012 0.420046 4.85888 0
M  V30 645 H 56.017 2.72342 4.77608 0
M  V30 646 H 57.242 3.29881 5.93595 0
M  V30 647 H 55.188 1.11782 6.46406 0
M  V30 648 H 55.105 2.74956 7.04227 0
M  V30 649 H 56.373 1.70289 7.60672 0
M  V30 650 N 60.6021 -1.18246 1.0419 0
M  V30 651 C 61.8501 -1.87886 0.744543 0
M  V30 652 C 62.1711 -1.8082 -0.730006 0
M  V30 653 O 61.4411 -1.22736 -1.52685 0
M  V30 654 H 60.0211 -0.695556 0.272417 0
M  V30 655 H 62.6831 -1.43494 1.31892 0
M  V30 656 H 61.7791 -2.9389 1.05049 0
M  V30 657 N 62.0802 -0.821533 -1.34494 0
M  V30 658 C 63.4912 -0.467956 -1.8074 0
M  V30 659 C 63.8422 1.01151 -1.68116 0
M  V30 660 O 62.9672 1.78707 -1.22036 0
M  V30 661 C 63.5622 -0.842627 -3.28154 0
M  V30 662 C 62.1212 -0.541439 -3.72485 0
M  V30 663 C 61.2682 -1.06028 -2.56229 0
M  V30 664 H 64.2192 -1.01183 -1.22261 0
M  V30 665 H 64.2402 -0.145876 -3.8022 0
M  V30 666 H 63.7522 -1.91945 -3.37311 0
M  V30 667 H 61.8532 0.526034 -3.68868 0
M  V30 668 H 61.9662 -1.08453 -4.66663 0
M  V30 669 H 60.3302 -0.481892 -2.501 0
M  V30 670 H 61.1132 -2.14352 -2.68157 0
M  V30 671 N 63.5583 1.46682 -0.576371 0
M  V30 672 C 64.9693 1.86112 -0.148091 0
M  V30 673 C 65.3203 1.48073 1.2872 0
M  V30 674 O 64.4453 0.892656 1.97131 0
M  V30 675 C 65.0403 3.37786 -0.261982 0
M  V30 676 C 63.5993 3.76235 0.111384 0
M  V30 677 C 62.7463 2.70713 -0.60083 0
M  V30 678 H 65.6973 1.37927 -0.78497 0
M  V30 679 H 65.7183 3.77007 0.514364 0
M  V30 680 H 65.2303 3.6544 -1.30671 0
M  V30 681 H 63.3313 3.54198 1.15649 0
M  V30 682 H 63.4443 4.78391 -0.26052 0
M  V30 683 H 61.8083 2.54666 -0.0417783 0
M  V30 684 H 62.5913 3.01208 -1.64708 0
M  V30 685 N 65.0364 0.313813 1.54444 0
M  V30 686 C 66.4474 -0.176243 1.85866 0
M  V30 687 C 66.7984 -1.52405 1.23561 0
M  V30 688 O 65.9234 -2.09605 0.538016 0
M  V30 689 C 66.5184 -0.32657 3.37222 0
M  V30 690 C 65.0774 -0.760846 3.6863 0
M  V30 691 C 64.2244 0.123247 2.77026 0
M  V30 692 H 67.1754 0.534418 1.49431 0
M  V30 693 H 67.1964 -1.15908 3.62416 0
M  V30 694 H 66.7084 0.654531 3.82541 0
M  V30 695 H 64.8094 -1.75204 3.28838 0
M  V30 696 H 64.9224 -0.571353 4.75681 0
M  V30 697 H 63.2864 -0.399597 2.51546 0
M  V30 698 H 64.0694 1.10094 3.25168 0
M  V30 699 N 66.5145 -1.57545 0.0417849 0
M  V30 700 C 67.4775 -2.09885 -0.92093 0
M  V30 701 C 68.4775 -1.01648 -1.24596 0
M  V30 702 O 69.6675 -1.27759 -1.1842 0
M  V30 703 C 66.7995 -2.57527 -2.23367 0
M  V30 704 H 67.9925 -2.96236 -0.467382 0
M  V30 705 H 65.5455 -1.5493 -0.206467 0
M  V30 706 H 66.2805 -1.74542 -2.73323 0
M  V30 707 H 66.0655 -3.36613 -2.01083 0
M  V30 708 H 67.5555 -2.98201 -2.92346 0
M  V30 709 N 67.9926 0.231505 -1.5589 0
M  V30 710 C 68.9246 1.31006 -1.8807 0
M  V30 711 C 69.9376 1.43539 -0.768145 0
M  V30 712 O 71.1266 1.44614 -1.04638 0
M  V30 713 C 68.2266 2.68688 -2.06543 0
M  V30 714 C 67.3996 2.78228 -3.37502 0
M  V30 715 C 66.4586 3.96857 -3.4553 0
M  V30 716 O 65.4846 3.85662 -4.18633 0
M  V30 717 N 66.6866 5.1072 -2.75944 0
M  V30 718 H 69.4516 1.03731 -2.81176 0
M  V30 719 H 67.0126 0.421573 -1.56315 0
M  V30 720 H 69.0046 3.46412 -2.09239 0
M  V30 721 H 67.5746 2.88605 -1.20109 0
M  V30 722 H 66.7946 1.87059 -3.46991 0
M  V30 723 H 68.0826 2.81564 -4.23791 0
M  V30 724 H 67.4806 5.2271 -2.16311 0
M  V30 725 H 66.0376 5.86523 -2.84314 0
M  V30 726 N 69.4707 1.49531 0.497807 0
M  V30 727 C 70.8817 1.52344 1.07927 0
M  V30 728 C 71.2327 0.311469 1.93712 0
M  V30 729 O 70.3577 -0.578405 2.08527 0
M  V30 730 C 70.9527 2.76062 1.96405 0
M  V30 731 C 69.5117 2.81643 2.49709 0
M  V30 732 C 68.6587 2.46299 1.27404 0
M  V30 733 H 71.6097 1.56182 0.281576 0
M  V30 734 H 71.6307 2.56405 2.81135 0
M  V30 735 H 71.1427 3.64254 1.33943 0
M  V30 736 H 69.2437 1.97739 3.15801 0
M  V30 737 H 69.3567 3.83891 2.86643 0
M  V30 738 H 67.7207 1.98148 1.60029 0
M  V30 739 H 68.5037 3.36769 0.66645 0
M  V30 740 N 70.9488 -0.749086 1.3866 0
M  V30 741 C 71.8788 -1.8764 1.38973 0
M  V30 742 C 72.8598 -1.68178 0.255004 0
M  V30 743 O 74.0448 -1.88704 0.458754 0
M  V30 744 C 71.1748 -3.25222 1.21851 0
M  V30 745 C 70.1288 -3.59295 2.32575 0
M  V30 746 C 69.4548 -4.95663 2.00555 0
M  V30 747 C 70.7548 -3.63709 3.7485 0
M  V30 748 H 72.4488 -1.87635 2.3331 0
M  V30 749 H 69.9948 -0.901329 1.12303 0
M  V30 750 H 71.9478 -4.03746 1.20695 0
M  V30 751 H 70.6718 -3.25719 0.239775 0
M  V30 752 H 69.3308 -2.83093 2.32925 0
M  V30 753 H 68.9788 -4.92724 1.01154 0
M  V30 754 H 68.6788 -5.19429 2.74714 0
M  V30 755 H 70.2028 -5.7656 2.01024 0
M  V30 756 H 71.6168 -4.32338 3.76506 0
M  V30 757 H 70.0138 -3.98986 4.48252 0
M  V30 758 H 71.0838 -2.63834 4.06841 0
M  V30 759 N 72.4269 -1.23603 -0.977757 0
M  V30 760 C 73.3899 -1.02069 -2.05218 0
M  V30 761 C 74.3899 0.0184305 -1.60789 0
M  V30 762 O 75.5799 -0.221569 -1.72785 0
M  V30 763 C 72.7119 -0.544926 -3.36517 0
M  V30 764 H 73.9049 -1.9742 -2.25755 0
M  V30 765 H 71.4579 -1.05684 -1.15155 0
M  V30 766 H 72.1929 0.412241 -3.21669 0
M  V30 767 H 71.9779 -1.2948 -3.70105 0
M  V30 768 H 73.4679 -0.414985 -4.15533 0
M  V30 769 N 73.905 1.17692 -1.04816 0
M  V30 770 C 74.837 2.21103 -0.603822 0
M  V30 771 C 75.85 1.59411 0.33046 0
M  V30 772 O 77.039 1.7807 0.12379 0
M  V30 773 C 74.139 3.38623 0.136898 0
M  V30 774 C 73.312 4.29888 -0.807137 0
M  V30 775 C 72.371 5.26088 -0.10836 0
M  V30 776 O 71.397 5.64353 -0.741232 0
M  V30 777 N 72.599 5.68882 1.15558 0
M  V30 778 H 75.364 2.59848 -1.49329 0
M  V30 779 H 72.925 1.32553 -0.929587 0
M  V30 780 H 74.917 4.00009 0.614401 0
M  V30 781 H 73.487 2.98508 0.927993 0
M  V30 782 H 72.707 3.65993 -1.46434 0
M  V30 783 H 73.995 4.87759 -1.44807 0
M  V30 784 H 73.393 5.39861 1.69015 0
M  V30 785 H 71.95 6.32429 1.57722 0
M  V30 786 N 75.3831 0.828654 1.34056 0
M  V30 787 C 76.7991 0.515135 1.51058 0
M  V30 788 C 76.9991 -0.959581 1.77184 0
M  V30 789 O 76.0551 -1.74382 1.82612 0
M  V30 790 C 77.3681 1.37963 2.67183 0
M  V30 791 C 78.9161 1.37735 2.81066 0
M  V30 792 C 79.3911 2.22645 4.00241 0
M  V30 793 N 80.8821 2.203 4.07458 0
M  V30 794 C 81.6171 2.82744 4.98842 0
M  V30 795 N 81.1131 3.54201 5.9541 0
M  V30 796 N 82.9061 2.72268 4.91759 0
M  V30 797 H 75.0571 1.78343 1.15358 0
M  V30 798 H 77.3201 0.760304 0.566252 0
M  V30 799 H 77.0261 2.42714 2.54525 0
M  V30 800 H 76.9001 1.0484 3.62338 0
M  V30 801 H 79.2871 0.337593 2.93163 0
M  V30 802 H 79.3681 1.74859 1.86703 0
M  V30 803 H 79.0121 3.26674 3.88905 0
M  V30 804 H 78.9421 1.82869 4.93829 0
M  V30 805 H 81.4331 1.68327 3.38341 0
M  V30 806 H 81.7461 3.9908 6.61782 0
M  V30 807 H 80.0911 3.58308 5.95517 0
M  V30 808 H 83.2821 2.16014 4.15278 0
M  V30 809 H 83.4551 3.21219 5.62781 0
M  V30 810 N 76.8612 -1.46375 0.584142 0
M  V30 811 C 77.7912 -2.33103 -0.136037 0
M  V30 812 C 78.7722 -1.45431 -0.882255 0
M  V30 813 O 79.9572 -1.74246 -0.857434 0
M  V30 814 C 77.0872 -3.27731 -1.14933 0
M  V30 815 C 76.0412 -4.24855 -0.517862 0
M  V30 816 C 75.3672 -5.09001 -1.63773 0
M  V30 817 C 76.6672 -5.19439 0.545886 0
M  V30 818 H 78.3612 -2.93568 0.588086 0
M  V30 819 H 75.9072 -1.41166 0.284259 0
M  V30 820 H 77.8602 -3.87261 -1.66153 0
M  V30 821 H 76.5842 -2.65377 -1.90375 0
M  V30 822 H 75.2432 -3.6659 -0.0267361 0
M  V30 823 H 74.8912 -4.43031 -2.38185 0
M  V30 824 H 74.5912 -5.74777 -1.22085 0
M  V30 825 H 76.1152 -5.71396 -2.15266 0
M  V30 826 H 77.5292 -5.73177 0.118704 0
M  V30 827 H 75.9262 -5.93566 0.88317 0
M  V30 828 H 76.9962 -4.63285 1.43162 0
M  V30 829 N 78.3393 -0.321999 -1.54275 0
M  V30 830 C 79.5793 0.281657 -2.0245 0
M  V30 831 C 79.9433 1.49468 -1.20513 0
M  V30 832 O 81.1443 2.17109 -1.58484 0
M  V30 833 C 79.4153 0.609014 -3.52173 0
M  V30 834 S 80.9743 1.19255 -4.22284 0
M  V30 835 H 77.7923 0.0852825 -0.705867 0
M  V30 836 H 80.3943 -0.454758 -1.90137 0
M  V30 837 H 79.0983 -0.281982 -4.0943 0
M  V30 838 H 78.6293 1.37567 -3.68563 0
M  V30 839 H 80.6443 2.47944 -4.29812 0
M  V30 840 N 79.8174 1.5752 -0.0501392 0
M  V30 841 C 81.0424 1.97376 0.636997 0
M  V30 842 C 81.4674 0.927466 1.63645 0
M  V30 843 O 80.8254 -0.10941 1.8097 0
M  V30 844 C 80.8734 3.36304 1.30123 0
M  V30 845 O 79.9774 3.34156 2.41689 0
M  V30 846 H 79.3184 0.642998 0.165679 0
M  V30 847 H 81.8484 2.04258 -0.118233 0
M  V30 848 H 81.8584 3.73008 1.65315 0
M  V30 849 H 80.5334 4.11993 0.568746 0
M  V30 850 H 79.1104 3.09196 2.08451 0
M  V30 851 N 81.2955 -0.223234 1.56011 0
M  V30 852 C 82.2285 -1.30377 1.87289 0
M  V30 853 C 83.2065 -1.45286 0.730112 0
M  V30 854 O 84.3905 -1.61126 0.978302 0
M  V30 855 C 81.5175 -2.67431 2.07843 0
M  V30 856 C 80.5635 -2.69546 3.30526 0
M  V30 857 S 81.3965 -2.23781 4.865 0
M  V30 858 C 82.5525 -3.62714 5.10088 0
M  V30 859 H 82.7855 -1.03652 2.78646 0
M  V30 860 H 80.3185 -0.425393 1.48424 0
M  V30 861 H 82.2765 -3.46336 2.20368 0
M  V30 862 H 80.9375 -2.91381 1.17285 0
M  V30 863 H 80.1305 -3.70255 3.41947 0
M  V30 864 H 79.7325 -1.98703 3.16849 0
M  V30 865 H 82.0245 -4.58391 4.98883 0
M  V30 866 H 82.9675 -3.5621 6.11981 0
M  V30 867 H 83.3755 -3.56323 4.37829 0
M  V30 868 N 82.7736 -1.49793 -0.48987 0
M  V30 869 C 84.0196 -1.60078 -1.24511 0
M  V30 870 C 84.3526 -0.291608 -1.91998 0
M  V30 871 O 83.6276 0.705647 -1.81248 0
M  V30 872 C 83.9106 -2.76791 -2.30345 0
M  V30 873 C 83.7636 -4.17535 -1.67286 0
M  V30 874 C 85.0826 -2.89111 -3.31817 0
M  V30 875 H 82.2016 -0.582645 -0.451324 0
M  V30 876 H 84.8436 -1.82117 -0.541612 0
M  V30 877 H 82.9936 -2.5813 -2.90346 0
M  V30 878 H 84.6656 -4.4774 -1.11026 0
M  V30 879 H 82.9086 -4.22665 -0.976577 0
M  V30 880 H 83.5796 -4.95094 -2.44103 0
M  V30 881 H 86.0556 -3.06133 -2.81819 0
M  V30 882 H 84.9316 -3.72433 -4.03219 0
M  V30 883 H 85.1926 -1.9893 -3.94815 0
M  V30 884 N 84.2517 0.741722 -1.39055 0
M  V30 885 C 85.4917 1.51385 -1.37338 0
M  V30 886 C 85.8557 1.91972 0.0330513 0
M  V30 887 O 87.0567 2.68229 0.175174 0
M  V30 888 C 85.3277 2.72481 -2.31276 0
M  V30 889 S 86.8867 3.62211 -2.47687 0
M  V30 890 H 83.7047 0.517906 -0.487129 0
M  V30 891 H 86.3067 0.86969 -1.7509 0
M  V30 892 H 85.0107 2.40793 -3.32336 0
M  V30 893 H 84.5417 3.41832 -1.94716 0
M  V30 894 H 86.5567 4.65812 -1.70978 0
M  V30 895 N 85.7298 1.2412 0.971189 0
M  V30 896 C 86.9768 1.07881 1.71371 0
M  V30 897 C 87.3048 -0.382901 1.90694 0
M  V30 898 O 86.5598 -1.29945 1.46331 0
M  V30 899 C 86.8588 1.75983 3.11071 0
M  V30 900 C 86.5248 3.25909 3.11599 0
M  V30 901 C 85.1868 3.66813 3.11451 0
M  V30 902 C 87.5388 4.21771 3.062 0
M  V30 903 C 84.8668 5.02021 3.03631 0
M  V30 904 C 87.2188 5.56982 2.99923 0
M  V30 905 C 85.8828 5.97237 2.98102 0
M  V30 906 H 85.1528 0.394764 0.62709 0
M  V30 907 H 87.7998 1.54176 1.13587 0
M  V30 908 H 86.1048 1.22072 3.72298 0
M  V30 909 H 87.8018 1.60887 3.6731 0
M  V30 910 H 84.3918 2.93353 3.12477 0
M  V30 911 H 88.5758 3.91172 3.05447 0
M  V30 912 H 83.8318 5.32411 3.0058 0
M  V30 913 H 88.0058 6.30969 2.94704 0
M  V30 914 H 85.6328 7.01967 2.91798 0
M  V30 915 N 87.2079 -1.17134 1.05439 0
M  V30 916 C 88.4329 -1.91913 0.786396 0
M  V30 917 C 88.8579 -1.7643 -0.652234 0
M  V30 918 O 88.2159 -1.08372 -1.45345 0
M  V30 919 C 88.2639 -3.40921 1.17497 0
M  V30 920 O 87.3679 -4.11244 0.308589 0
M  V30 921 H 86.7089 -0.598215 0.288158 0
M  V30 922 H 89.2389 -1.48457 1.4079 0
M  V30 923 H 89.2489 -3.91668 1.14281 0
M  V30 924 H 87.9239 -3.5151 2.22292 0
M  V30 925 H 86.5009 -3.70731 0.40157 0
M  V30 926 N 88.686 -0.835752 -1.33615 0
M  V30 927 C 89.616 -0.281739 -2.31794 0
M  V30 928 C 90.597 0.608833 -1.58831 0
M  V30 929 O 91.782 0.533035 -1.86741 0
M  V30 930 C 88.912 0.546612 -3.42971 0
M  V30 931 C 87.866 -0.247904 -4.27281 0
M  V30 932 C 87.192 0.704001 -5.30045 0
M  V30 933 C 88.492 -1.46324 -5.01385 0
M  V30 934 H 90.186 -1.10206 -2.78379 0
M  V30 935 H 87.732 -0.531388 -1.33837 0
M  V30 936 H 89.685 0.944467 -4.1068 0
M  V30 937 H 88.409 1.40011 -2.95067 0
M  V30 938 H 87.068 -0.627281 -3.61194 0
M  V30 939 H 86.716 1.55381 -4.78399 0
M  V30 940 H 86.416 0.176524 -5.87335 0
M  V30 941 H 87.94 1.09944 -6.0062 0
M  V30 942 H 89.354 -1.13871 -5.61877 0
M  V30 943 H 87.751 -1.92728 -5.6831 0
M  V30 944 H 88.821 -2.23467 -4.30338 0
M  V30 945 N 90.1641 1.46063 -0.591896 0
M  V30 946 C 91.0941 2.33172 0.123673 0
M  V30 947 C 92.0751 1.45897 0.87453 0
M  V30 948 O 93.2601 1.74698 0.848181 0
M  V30 949 C 90.3901 3.28336 1.13194 0
M  V30 950 C 89.3441 4.25124 0.495324 0
M  V30 951 C 88.6701 5.09863 1.61071 0
M  V30 952 C 89.9701 5.19143 -0.573425 0
M  V30 953 H 91.6641 2.93252 -0.603646 0
M  V30 954 H 89.2101 1.41014 -0.291741 0
M  V30 955 H 91.1631 3.88137 1.64097 0
M  V30 956 H 89.8871 2.66383 1.88965 0
M  V30 957 H 88.5461 3.66599 0.00729452 0
M  V30 958 H 88.1941 4.44288 2.35832 0
M  V30 959 H 87.8941 5.75417 1.19035 0
M  V30 960 H 89.4181 5.72529 2.12233 0
M  V30 961 H 90.8321 5.73106 -0.1491 0
M  V30 962 H 89.2291 5.93089 -0.914636 0
M  V30 963 H 90.2991 4.62519 -1.45617 0
M  V30 964 N 91.6422 0.330177 1.54103 0
M  V30 965 C 92.6052 -0.520144 2.2322 0
M  V30 966 C 93.6052 -1.03828 1.22786 0
M  V30 967 O 94.7952 -0.929652 1.4732 0
M  V30 968 C 91.9272 -1.72317 2.94142 0
M  V30 969 H 93.1202 0.0841605 2.99782 0
M  V30 970 H 90.6732 0.0813433 1.56088 0
M  V30 971 H 91.4082 -2.36653 2.21734 0
M  V30 972 H 91.1932 -1.35898 3.67796 0
M  V30 973 H 92.6832 -2.3266 3.46784 0
M  V30 974 N 93.1203 -1.57491 0.0584922 0
M  V30 975 C 94.0503 -2.14988 -0.911178 0
M  V30 976 C 95.0313 -1.07343 -1.31952 0
M  V30 977 O 96.2163 -1.35318 -1.39294 0
M  V30 978 C 93.3463 -2.70078 -2.18347 0
M  V30 979 C 92.3003 -3.82771 -1.91495 0
M  V30 980 C 91.6263 -4.24408 -3.25241 0
M  V30 981 C 92.9263 -5.07592 -1.23075 0
M  V30 982 H 94.6203 -2.96263 -0.432246 0
M  V30 983 H 92.1663 -1.42512 -0.206469 0
M  V30 984 H 94.1193 -3.08943 -2.86587 0
M  V30 985 H 92.8433 -1.86005 -2.68458 0
M  V30 986 H 91.5023 -3.44389 -1.25664 0
M  V30 987 H 91.1503 -3.37275 -3.73168 0
M  V30 988 H 90.8503 -5.00366 -3.08071 0
M  V30 989 H 92.3743 -4.65879 -3.94701 0
M  V30 990 H 93.7883 -5.43857 -1.81362 0
M  V30 991 H 92.1853 -5.88741 -1.16207 0
M  V30 992 H 93.2553 -4.84454 -0.207847 0
M  V30 993 N 94.5984 0.214957 -1.56127 0
M  V30 994 C 95.8234 0.95924 -1.83884 0
M  V30 995 C 96.2484 1.7689 -0.639644 0
M  V30 996 O 95.6064 1.76566 0.411601 0
M  V30 997 C 95.6544 1.84723 -3.09693 0
M  V30 998 O 94.7584 2.94346 -2.8885 0
M  V30 999 H 94.0994 0.27125 -0.606069 0
M  V30 1000 H 96.6294 0.226276 -2.03345 0
M  V30 1001 H 96.6394 2.25576 -3.39969 0
M  V30 1002 H 95.3144 1.25218 -3.96602 0
M  V30 1003 H 93.8914 2.57391 -2.69823 0
M  V30 1004 N 96.0765 1.50051 0.48192 0
M  V30 1005 C 97.3235 1.60498 1.23477 0
M  V30 1006 C 97.6515 0.300331 1.92167 0
M  V30 1007 O 96.9065 -0.713094 1.82246 0
M  V30 1008 C 97.2055 2.72717 2.30998 0
M  V30 1009 C 96.8715 4.13572 1.79636 0
M  V30 1010 C 95.5335 4.519 1.65348 0
M  V30 1011 C 97.8855 5.01649 1.41412 0
M  V30 1012 C 95.2135 5.76057 1.11244 0
M  V30 1013 C 97.5655 6.26343 0.887538 0
M  V30 1014 C 96.2295 6.63483 0.731207 0
M  V30 1015 H 95.4995 0.587303 0.451836 0
M  V30 1016 H 98.1465 1.83948 0.532468 0
M  V30 1017 H 96.4515 2.43312 3.07094 0
M  V30 1018 H 98.1485 2.78006 2.88988 0
M  V30 1019 H 94.7385 3.83329 1.91721 0
M  V30 1020 H 98.9225 4.72679 1.51289 0
M  V30 1021 H 94.1785 6.03516 0.978686 0
M  V30 1022 H 98.3525 6.93958 0.582654 0
M  V30 1023 H 95.9795 7.59568 0.309806 0
M  V30 1024 N 97.5546 -0.734337 1.39446 0
M  V30 1025 C 98.5026 -1.86971 1.38364 0
M  V30 1026 C 99.4966 -1.67288 0.266687 0
M  V30 1027 O 100.703 -1.74621 0.436755 0
M  V30 1028 H 97.0776 -0.615474 0.432082 0
M  V30 1029 H 99.0486 -1.85 2.34132 0
M  V30 1030 C 97.7976 -3.2466 1.24465 0
M  V30 1031 H 97.1206 -3.40402 2.09682 0
M  V30 1032 H 98.5606 -4.04292 1.27764 0
M  V30 1033 C 97.0196 -3.36867 -0.0468674 0
M  V30 1034 O 97.5496 -3.88618 -1.01681 0
M  V30 1035 N 95.7556 -2.90391 -0.110145 0
M  V30 1036 H 95.3026 -2.48466 0.679868 0
M  V30 1037 H 95.2606 -2.98939 -0.973799 0
M  V30 1038 N 99.0327 -1.24633 -0.964593 0
M  V30 1039 C 100.282 -1.08188 -1.7023 0
M  V30 1040 C 100.595 0.37873 -1.91898 0
M  V30 1041 O 101.801 0.663427 -2.6327 0
M  V30 1042 C 100.257 -1.88773 -3.06419 0
M  V30 1043 C 99.8647 -3.39263 -2.92582 0
M  V30 1044 C 101.609 -1.80867 -3.84041 0
M  V30 1045 C 99.5157 -4.1218 -4.24101 0
M  V30 1046 H 98.4457 -0.401245 -0.638372 0
M  V30 1047 H 101.097 -1.48742 -1.07462 0
M  V30 1048 H 99.4787 -1.41035 -3.70034 0
M  V30 1049 H 100.653 -3.94603 -2.37961 0
M  V30 1050 H 98.9677 -3.48154 -2.28424 0
M  V30 1051 H 101.565 -2.32646 -4.81435 0
M  V30 1052 H 101.908 -0.774543 -4.09031 0
M  V30 1053 H 102.441 -2.26301 -3.27159 0
M  V30 1054 H 99.1797 -5.15965 -4.04303 0
M  V30 1055 H 98.6997 -3.61626 -4.78526 0
M  V30 1056 H 100.379 -4.19349 -4.92702 0
M  V30 1057 N 100.511 1.16574 -1.06058 0
M  V30 1058 C 101.441 2.23057 -0.690488 0
M  V30 1059 C 102.422 1.67141 0.315901 0
M  V30 1060 O 103.607 1.93253 0.191556 0
M  V30 1061 C 100.737 3.47222 -0.073625 0
M  V30 1062 C 99.6908 4.16016 -1.00573 0
M  V30 1063 C 99.0168 5.34104 -0.252289 0
M  V30 1064 C 100.317 4.67264 -2.33371 0
M  V30 1065 H 102.011 2.54271 -1.58072 0
M  V30 1066 H 99.5568 1.22218 -0.76149 0
M  V30 1067 H 101.51 4.20939 0.19714 0
M  V30 1068 H 100.234 3.15302 0.85161 0
M  V30 1069 H 98.8928 3.44223 -1.2612 0
M  V30 1070 H 98.5408 4.98437 0.675988 0
M  V30 1071 H 98.2408 5.81072 -0.873455 0
M  V30 1072 H 99.7648 6.10599 0.0109857 0
M  V30 1073 H 101.179 5.32573 -2.12223 0
M  V30 1074 H 99.5758 5.24843 -2.90963 0
M  V30 1075 H 100.646 3.83602 -2.96611 0
M  V30 1076 N 101.989 0.842826 1.3317 0
M  V30 1077 C 102.919 0.294028 2.31641 0
M  V30 1078 C 103.9 -0.600401 1.59151 0
M  V30 1079 O 105.085 -0.523124 1.87022 0
M  V30 1080 C 102.215 -0.528416 3.43257 0
M  V30 1081 C 101.169 0.27056 4.27144 0
M  V30 1082 C 100.495 -0.675881 5.30411 0
M  V30 1083 C 101.795 1.48981 5.00602 0
M  V30 1084 H 103.489 1.11681 2.77791 0
M  V30 1085 H 101.035 0.538478 1.33553 0
M  V30 1086 H 102.988 -0.922674 4.11175 0
M  V30 1087 H 101.712 -1.38445 2.95805 0
M  V30 1088 H 100.371 0.646427 3.60856 0
M  V30 1089 H 100.019 -1.52842 4.79216 0
M  V30 1090 H 99.7189 -0.145374 5.8742 0
M  V30 1091 H 101.243 -1.06757 6.01195 0
M  V30 1092 H 102.657 1.16849 5.61266 0
M  V30 1093 H 101.054 1.95739 5.6728 0
M  V30 1094 H 102.124 2.25746 4.29147 0
M  V30 1095 N 103.467 -1.45747 0.599634 0
M  V30 1096 C 104.397 -2.33235 -0.111306 0
M  V30 1097 C 105.378 -1.46359 -0.866781 0
M  V30 1098 O 106.563 -1.75146 -0.838904 0
M  V30 1099 C 103.693 -3.28932 -1.11451 0
M  V30 1100 C 102.647 -4.25381 -0.472772 0
M  V30 1101 C 101.973 -5.1071 -1.58365 0
M  V30 1102 C 103.273 -5.18831 0.600948 0
M  V30 1103 H 104.967 -2.92927 0.61919 0
M  V30 1104 H 102.513 -1.40857 0.299215 0
M  V30 1105 H 104.466 -3.89002 -1.62036 0
M  V30 1106 H 103.19 -2.67381 -1.8755 0
M  V30 1107 H 101.849 -3.66598 0.0121472 0
M  V30 1108 H 101.497 -4.45533 -2.33473 0
M  V30 1109 H 101.197 -5.7604 -1.15982 0
M  V30 1110 H 102.721 -5.73647 -2.09194 0
M  V30 1111 H 104.135 -5.73019 0.179491 0
M  V30 1112 H 102.532 -5.92595 0.946076 0
M  V30 1113 H 103.602 -4.6174 1.48068 0
M  V30 1114 N 104.945 -0.338344 -1.53925 0
M  V30 1115 C 106.191 0.260143 -2.01125 0
M  V30 1116 C 106.524 1.50617 -1.22589 0
M  V30 1117 O 105.799 1.91979 -0.312113 0
M  V30 1118 C 106.082 0.579499 -3.55407 0
M  V30 1119 C 105.935 -0.678264 -4.44657 0
M  V30 1120 C 107.254 1.39122 -4.17532 0
M  V30 1121 H 104.373 0.0930772 -0.731099 0
M  V30 1122 H 107.015 -0.457852 -1.84401 0
M  V30 1123 H 105.165 1.19118 -3.69788 0
M  V30 1124 H 106.837 -1.31631 -4.42121 0
M  V30 1125 H 105.08 -1.3042 -4.13731 0
M  V30 1126 H 105.751 -0.410143 -5.50474 0
M  V30 1127 H 108.227 0.874035 -4.06817 0
M  V30 1128 H 107.103 1.58342 -5.25565 0
M  V30 1129 H 107.364 2.39178 -3.71815 0
M  V30 1130 N 106.423 1.57458 -0.0668435 0
M  V30 1131 C 107.669 1.93587 0.6043 0
M  V30 1132 C 108.002 0.946722 1.69561 0
M  V30 1133 O 107.277 -0.0248516 1.94484 0
M  V30 1134 C 107.56 3.40014 1.18585 0
M  V30 1135 C 107.413 4.49685 0.101529 0
M  V30 1136 C 108.732 3.87154 2.09284 0
M  V30 1137 H 105.851 0.703958 0.218202 0
M  V30 1138 H 108.493 1.89542 -0.131804 0
M  V30 1139 H 106.643 3.43592 1.81319 0
M  V30 1140 H 108.315 4.5823 -0.531279 0
M  V30 1141 H 106.558 4.30059 -0.568487 0
M  V30 1142 H 107.229 5.49266 0.54874 0
M  V30 1143 H 109.705 3.85551 1.56491 0
M  V30 1144 H 108.581 4.90231 2.46911 0
M  V30 1145 H 108.842 3.2481 2.99918 0
M  V30 1146 N 107.901 -0.206675 1.56239 0
M  V30 1147 C 109.15 -0.926964 1.79138 0
M  V30 1148 C 109.463 -1.84901 0.638043 0
M  V30 1149 O 110.669 -2.60906 0.751033 0
M  V30 1150 C 109.125 -1.6986 3.17294 0
M  V30 1151 C 108.733 -0.821956 4.40395 0
M  V30 1152 C 110.477 -2.40922 3.4951 0
M  V30 1153 C 108.384 -1.59179 5.69575 0
M  V30 1154 H 107.314 -0.349864 0.667915 0
M  V30 1155 H 109.965 -0.180487 1.8261 0
M  V30 1156 H 108.347 -2.48853 3.08039 0
M  V30 1157 H 109.521 -0.0715019 4.60745 0
M  V30 1158 H 107.836 -0.222741 4.15804 0
M  V30 1159 H 110.433 -2.99047 4.43255 0
M  V30 1160 H 110.776 -3.14542 2.72707 0
M  V30 1161 H 111.309 -1.68905 3.60161 0
M  V30 1162 H 108.048 -0.898589 6.49312 0
M  V30 1163 H 107.568 -2.31648 5.53262 0
M  V30 1164 H 109.247 -2.14862 6.10281 0
M  V30 1165 N 109.379 -1.50304 -0.473955 0
M  V30 1166 C 110.619 -1.62786 -1.23612 0
M  V30 1167 C 110.983 -0.319786 -1.89318 0
M  V30 1168 O 112.184 -0.320012 -2.66888 0
M  V30 1169 C 110.455 -2.77351 -2.25414 0
M  V30 1170 S 112.014 -3.09948 -3.10608 0
M  V30 1171 H 108.832 -0.573895 -0.419721 0
M  V30 1172 H 111.434 -1.88076 -0.533623 0
M  V30 1173 H 110.138 -3.70879 -1.75719 0
M  V30 1174 H 109.669 -2.54137 -3.00296 0
M  V30 1175 H 111.684 -2.53553 -4.26527 0
M  V30 1176 N 110.857 0.726932 -1.39834 0
M  V30 1177 C 112.103 1.48884 -1.377 0
M  V30 1178 C 112.436 1.94185 0.0244852 0
M  V30 1179 O 111.711 1.67361 0.990986 0
M  V30 1180 C 111.994 2.72288 -2.3565 0
M  V30 1181 C 111.847 2.32956 -3.84775 0
M  V30 1182 C 113.166 3.74414 -2.31306 0
M  V30 1183 H 110.285 0.540062 -0.5015 0
M  V30 1184 H 112.927 0.830547 -1.70886 0
M  V30 1185 H 111.077 3.28457 -2.07481 0
M  V30 1186 H 112.749 1.82356 -4.23726 0
M  V30 1187 H 110.992 1.65088 -4.01159 0
M  V30 1188 H 111.663 3.21362 -4.4881 0
M  V30 1189 H 114.139 3.27849 -2.56231 0
M  V30 1190 H 113.015 4.58414 -3.01907 0
M  V30 1191 H 113.276 4.21909 -1.32081 0
M  V30 1192 N 112.336 1.25143 0.95797 0
M  V30 1193 C 113.564 1.12424 1.73691 0
M  V30 1194 C 113.979 -0.322304 1.86029 0
M  V30 1195 O 113.336 -1.22186 1.35561 0
M  V30 1196 C 113.387 1.76933 3.15241 0
M  V30 1197 O 113.108 3.15932 3.03511 0
M  V30 1198 C 114.609 1.6995 4.09429 0
M  V30 1199 H 111.829 0.3923 0.544373 0
M  V30 1200 H 114.373 1.6544 1.20207 0
M  V30 1201 H 112.528 1.27895 3.6568 0
M  V30 1202 H 112.942 3.47598 3.9278 0
M  V30 1203 H 114.416 2.19753 5.06372 0
M  V30 1204 H 114.893 0.662619 4.34173 0
M  V30 1205 H 115.499 2.18461 3.64904 0
M  V30 1206 N 113.814 -1.1601 1.06675 0
M  V30 1207 C 115.062 -1.86264 0.784229 0
M  V30 1208 C 115.383 -1.82328 -0.691488 0
M  V30 1209 O 114.653 -1.25947 -1.50047 0
M  V30 1210 H 113.233 -0.689621 0.28711 0
M  V30 1211 H 115.895 -1.40664 1.34906 0
M  V30 1212 H 114.991 -2.91595 1.11259 0
M  V30 1213 N 115.292 -0.849877 -1.32721 0
M  V30 1214 C 116.517 -0.463856 -2.02146 0
M  V30 1215 C 116.942 0.930449 -1.63476 0
M  V30 1216 O 116.3 1.61033 -0.832952 0
M  V30 1217 C 116.348 -0.604955 -3.55489 0
M  V30 1218 O 115.452 0.36425 -4.10788 0
M  V30 1219 H 114.793 -0.187046 -0.637111 0
M  V30 1220 H 117.323 -1.14775 -1.69375 0
M  V30 1221 H 117.333 -0.490696 -4.05038 0
M  V30 1222 H 116.008 -1.62174 -3.82978 0
M  V30 1223 H 114.585 0.206628 -3.72327 0
M  V30 1224 N 116.77 1.45427 -0.607355 0
M  V30 1225 C 117.702 2.2871 0.149752 0
M  V30 1226 C 118.715 1.39937 0.831958 0
M  V30 1227 O 119.904 1.64313 0.697385 0
M  V30 1228 C 117.004 3.15673 1.23304 0
M  V30 1229 C 116.177 4.32722 0.637996 0
M  V30 1230 C 115.236 5.00895 1.61215 0
M  V30 1231 O 114.262 5.57697 1.13854 0
M  V30 1232 N 115.464 5.00159 2.94655 0
M  V30 1233 H 118.229 2.94328 -0.564882 0
M  V30 1234 H 115.79 1.55612 -0.446823 0
M  V30 1235 H 117.782 3.58144 1.88454 0
M  V30 1236 H 116.352 2.51965 1.8502 0
M  V30 1237 H 115.572 3.93734 -0.191572 0
M  V30 1238 H 116.86 5.08321 0.220665 0
M  V30 1239 H 116.258 4.553 3.35735 0
M  V30 1240 H 114.815 5.46495 3.55228 0
M  V30 1241 N 118.248 0.346503 1.53744 0
M  V30 1242 C 119.473 -0.253074 2.0585 0
M  V30 1243 C 119.898 -1.43202 1.21962 0
M  V30 1244 O 119.256 -1.79783 0.234073 0
M  V30 1245 C 119.304 -0.643193 3.54817 0
M  V30 1246 O 118.408 -1.74286 3.73762 0
M  V30 1247 H 117.749 -0.0413583 0.662711 0
M  V30 1248 H 120.279 0.501574 1.98357 0
M  V30 1249 H 120.289 -0.919526 3.97503 0
M  V30 1250 H 118.964 0.218966 4.15323 0
M  V30 1251 H 117.541 -1.46356 3.42979 0
M  V30 1252 N 119.726 -1.57421 0.075193 0
M  V30 1253 C 120.636 -2.1642 -0.905511 0
M  V30 1254 C 121.652 -1.12828 -1.32461 0
M  V30 1255 O 122.828 -1.45109 -1.39661 0
M  V30 1256 C 119.893 -2.71693 -2.15369 0
M  V30 1257 C 118.954 -3.90171 -1.79068 0
M  V30 1258 C 118.187 -4.42798 -2.97936 0
M  V30 1259 O 118.41 -3.94416 -4.12058 0
M  V30 1260 O 117.344 -5.34085 -2.77555 0
M  V30 1261 H 121.17 -3.00588 -0.433626 0
M  V30 1262 H 118.755 -1.48664 -0.148067 0
M  V30 1263 H 120.637 -3.07104 -2.88557 0
M  V30 1264 H 119.312 -1.90582 -2.61649 0
M  V30 1265 H 118.219 -3.59606 -1.03122 0
M  V30 1266 H 119.552 -4.72584 -1.37569 0
M  V30 1267 N 121.204 0.198386 -1.56346 0
M  V30 1268 C 122.452 0.91747 -1.80075 0
M  V30 1269 C 122.773 1.83929 -0.647692 0
M  V30 1270 O 122.043 1.93029 0.334166 0
M  V30 1271 H 120.623 0.341774 -0.664228 0
M  V30 1272 H 123.285 0.204684 -1.93822 0
M  V30 1273 H 122.381 1.51055 -2.7311 0
M  V30 1274 N 122.682 1.50554 0.465978 0
M  V30 1275 C 123.632 1.66177 1.56106 0
M  V30 1276 C 124.616 0.516265 1.52393 0
M  V30 1277 O 125.808 0.770906 1.5933 0
M  V30 1278 C 122.937 1.76396 2.94515 0
M  V30 1279 C 122.023 2.9664 3.03093 0
M  V30 1280 N 122.414 4.20245 2.81474 0
M  V30 1281 C 120.712 2.95304 3.34233 0
M  V30 1282 C 121.413 5.01259 2.95151 0
M  V30 1283 N 120.389 4.35318 3.25576 0
M  V30 1284 H 124.191 2.59434 1.38099 0
M  V30 1285 H 121.705 1.47808 0.6728 0
M  V30 1286 H 123.702 1.85694 3.73261 0
M  V30 1287 H 122.362 0.843017 3.13565 0
M  V30 1288 H 123.373 4.4966 2.56956 0
M  V30 1289 H 120.05 2.12729 3.59239 0
M  V30 1290 H 121.44 6.09564 2.82632 0
M  V30 1291 N 124.16 -0.719506 1.40217 0
M  V30 1292 C 125.408 -1.47641 1.3801 0
M  V30 1293 C 125.729 -1.94992 -0.018145 0
M  V30 1294 O 124.999 -1.70073 -0.972207 0
M  V30 1295 H 123.579 -0.547744 0.507923 0
M  V30 1296 H 126.241 -0.853187 1.75233 0
M  V30 1297 H 125.337 -2.35112 2.05253 0
M  V30 1298 N 125.638 -1.25649 -0.95132 0
M  V30 1299 C 126.886 -1.10375 -1.69298 0
M  V30 1300 C 127.207 0.355339 -1.91735 0
M  V30 1301 O 126.477 1.25188 -1.50681 0
M  V30 1302 H 125.057 -0.405461 -0.627384 0
M  V30 1303 H 127.719 -1.57823 -1.14358 0
M  V30 1304 H 126.815 -1.61465 -2.67087 0
M  V30 1305 N 127.117 1.15442 -1.07289 0
M  V30 1306 C 128.08 2.18358 -0.696591 0
M  V30 1307 C 129.08 1.58637 0.262837 0
M  V30 1308 O 130.27 1.74145 0.0438809 0
M  V30 1309 C 127.402 3.4089 -0.0266151 0
M  V30 1310 H 128.595 2.53162 -1.60776 0
M  V30 1311 H 126.148 1.29893 -0.869342 0
M  V30 1312 H 126.883 3.11653 0.896822 0
M  V30 1313 H 126.668 3.85495 -0.716657 0
M  V30 1314 H 128.158 4.17009 0.222028 0
M  V30 1315 N 128.595 0.856903 1.32268 0
M  V30 1316 C 129.527 0.260412 2.27716 0
M  V30 1317 C 130.54 -0.569137 1.52528 0
M  V30 1318 O 131.729 -0.39326 1.74114 0
M  V30 1319 C 128.829 -0.650477 3.32599 0
M  V30 1320 C 128.002 0.14372 4.37164 0
M  V30 1321 C 127.061 -0.69328 5.21613 0
M  V30 1322 O 126.087 -0.12599 5.69061 0
M  V30 1323 N 127.289 -2.00761 5.44679 0
M  V30 1324 H 130.054 1.08059 2.79541 0
M  V30 1325 H 127.615 0.717103 1.45152 0
M  V30 1326 H 129.607 -1.21581 3.86005 0
M  V30 1327 H 128.177 -1.37133 2.80915 0
M  V30 1328 H 127.397 0.890486 3.8401 0
M  V30 1329 H 128.685 0.68915 5.04111 0
M  V30 1330 H 128.083 -2.49181 5.07863 0
M  V30 1331 H 126.64 -2.52103 6.01072 0
M  V30 1332 N 130.073 -1.45103 0.615059 0
M  V30 1333 C 131.003 -2.33339 -0.0865619 0
M  V30 1334 C 131.984 -1.4727 -0.851209 0
M  V30 1335 O 133.169 -1.76026 -0.820281 0
M  V30 1336 C 130.299 -3.30095 -1.07956 0
M  V30 1337 C 129.253 -4.25858 -0.427628 0
M  V30 1338 C 128.579 -5.12361 -1.5294 0
M  V30 1339 C 129.879 -5.18165 0.655944 0
M  V30 1340 H 131.573 -2.92254 0.650224 0
M  V30 1341 H 129.119 -1.40532 0.314138 0
M  V30 1342 H 131.072 -3.90698 -1.57901 0
M  V30 1343 H 129.796 -2.69355 -1.84703 0
M  V30 1344 H 128.455 -3.66564 0.0510292 0
M  V30 1345 H 128.103 -4.47984 -2.28734 0
M  V30 1346 H 127.803 -5.77238 -1.09865 0
M  V30 1347 H 129.327 -5.75833 -2.03098 0
M  V30 1348 H 130.741 -5.72796 0.240257 0
M  V30 1349 H 129.138 -5.91559 1.00888 0
M  V30 1350 H 130.208 -4.60144 1.52957 0
M  V30 1351 N 131.551 -0.354651 -1.53558 0
M  V30 1352 C 132.483 0.5315 -2.22952 0
M  V30 1353 C 133.496 1.05503 -1.23988 0
M  V30 1354 O 134.685 0.963279 -1.50277 0
M  V30 1355 C 131.785 1.74538 -2.90499 0
M  V30 1356 C 130.958 1.35524 -4.15875 0
M  V30 1357 C 130.017 2.42999 -4.66731 0
M  V30 1358 O 129.043 2.05844 -5.30676 0
M  V30 1359 N 130.245 3.74423 -4.43608 0
M  V30 1360 H 133.01 -0.0628615 -2.99634 0
M  V30 1361 H 130.571 -0.179302 -1.60904 0
M  V30 1362 H 132.563 2.45892 -3.21433 0
M  V30 1363 H 131.133 2.24686 -2.17336 0
M  V30 1364 H 130.353 0.471998 -3.91364 0
M  V30 1365 H 131.641 1.07071 -4.97406 0
M  V30 1366 H 131.039 4.07391 -3.92491 0
M  V30 1367 H 129.596 4.41913 -4.7912 0
M  V30 1368 N 133.029 1.57378 -0.0835403 0
M  V30 1369 C 133.992 2.12252 0.864959 0
M  V30 1370 C 134.992 1.04916 1.21858 0
M  V30 1371 O 136.182 1.30853 1.14991 0
M  V30 1372 C 133.314 2.63358 2.16461 0
M  V30 1373 H 134.507 2.97371 0.388676 0
M  V30 1374 H 132.06 1.55423 0.165317 0
M  V30 1375 H 132.795 1.81727 2.686 0
M  V30 1376 H 132.58 3.41826 1.92087 0
M  V30 1377 H 134.07 3.05847 2.84337 0
M  V30 1378 N 134.507 -0.190092 1.56449 0
M  V30 1379 C 135.417 -1.25591 1.98152 0
M  V30 1380 C 136.433 -1.49519 0.889944 0
M  V30 1381 O 137.609 -1.62036 1.19609 0
M  V30 1382 C 134.674 -2.57916 2.3169 0
M  V30 1383 C 133.735 -2.42015 3.5458 0
M  V30 1384 C 132.968 -3.6803 3.8651 0
M  V30 1385 O 133.191 -4.72413 3.1966 0
M  V30 1386 O 132.125 -3.6326 4.79923 0
M  V30 1387 H 135.951 -0.931988 2.89046 0
M  V30 1388 H 133.536 -0.395488 1.4407 0
M  V30 1389 H 135.418 -3.36008 2.54316 0
M  V30 1390 H 134.093 -2.89925 1.43963 0
M  V30 1391 H 133 -1.62017 3.37196 0
M  V30 1392 H 134.333 -2.14937 4.4279 0
M  V30 1393 N 135.985 -1.50799 -0.457987 0
M  V30 1394 C 136.915 -1.73553 -1.5621 0
M  V30 1395 C 137.896 -0.584774 -1.59732 0
M  V30 1396 O 139.081 -0.825314 -1.7579 0
M  V30 1397 C 136.211 -1.84169 -2.94447 0
M  V30 1398 C 135.165 -2.99461 -3.0579 0
M  V30 1399 C 134.491 -2.95235 -4.45803 0
M  V30 1400 C 135.791 -4.39766 -2.81786 0
M  V30 1401 H 137.485 -2.66 -1.37421 0
M  V30 1402 H 135.031 -1.28002 -0.659662 0
M  V30 1403 H 136.984 -1.98672 -3.71628 0
M  V30 1404 H 135.708 -0.883545 -3.14422 0
M  V30 1405 H 134.367 -2.8463 -2.31044 0
M  V30 1406 H 134.015 -1.97239 -4.62715 0
M  V30 1407 H 133.715 -3.72642 -4.54326 0
M  V30 1408 H 135.239 -3.11803 -5.24987 0
M  V30 1409 H 136.653 -4.55054 -3.4871 0
M  V30 1410 H 135.05 -5.18722 -3.0174 0
M  V30 1411 H 136.12 -4.51229 -1.7754 0
M  V30 1412 N 137.463 0.71206 -1.40597 0
M  V30 1413 C 138.879 1.02058 -1.22704 0
M  V30 1414 C 139.079 2.01228 -0.104729 0
M  V30 1415 O 138.135 2.4674 0.53624 0
M  V30 1416 C 139.448 1.56094 -2.57012 0
M  V30 1417 C 140.996 1.6806 -2.64054 0
M  V30 1418 C 141.471 2.25501 -3.9864 0
M  V30 1419 N 142.962 2.32882 -4.004 0
M  V30 1420 C 143.697 2.78317 -5.01325 0
M  V30 1421 N 143.193 3.23478 -6.12645 0
M  V30 1422 N 144.986 2.77733 -4.88693 0
M  V30 1423 H 137.137 0.0547896 -2.12329 0
M  V30 1424 H 139.4 0.0869027 -0.944008 0
M  V30 1425 H 139.106 0.906865 -3.39807 0
M  V30 1426 H 138.98 2.54564 -2.78347 0
M  V30 1427 H 141.367 2.32583 -1.81629 0
M  V30 1428 H 141.448 0.681802 -2.46546 0
M  V30 1429 H 141.092 1.61598 -4.81506 0
M  V30 1430 H 141.022 3.26102 -4.13479 0
M  V30 1431 H 143.513 2.00991 -3.20017 0
M  V30 1432 H 143.826 3.56725 -6.85542 0
M  V30 1433 H 142.171 3.21429 -6.16205 0
M  V30 1434 H 145.362 2.4179 -4.00818 0
M  V30 1435 H 145.535 3.12826 -5.67489 0
M  V30 1436 N 138.941 1.26152 0.944643 0
M  V30 1437 C 140.166 1.14363 1.7302 0
M  V30 1438 C 140.591 -0.29772 1.85729 0
M  V30 1439 O 139.949 -1.2157 1.34501 0
M  V30 1440 C 139.997 1.81378 3.11664 0
M  V30 1441 O 139.101 1.10022 3.97453 0
M  V30 1442 H 138.442 0.398694 0.53098 0
M  V30 1443 H 140.972 1.66906 1.18337 0
M  V30 1444 H 140.982 1.88064 3.62072 0
M  V30 1445 H 139.657 2.86237 3.0173 0
M  V30 1446 H 138.234 1.11287 3.55907 0
M  V30 1447 N 140.419 -1.14872 1.07899 0
M  V30 1448 C 141.349 -2.2193 0.725887 0
M  V30 1449 C 142.33 -1.67622 -0.28927 0
M  V30 1450 O 143.515 -1.93533 -0.160787 0
M  V30 1451 C 140.645 -3.47061 0.128856 0
M  V30 1452 C 139.599 -4.14363 1.07178 0
M  V30 1453 C 138.925 -5.33636 0.337229 0
M  V30 1454 C 140.225 -4.63492 2.40775 0
M  V30 1455 H 141.919 -2.51724 1.62097 0
M  V30 1456 H 139.465 -1.20991 0.780838 0
M  V30 1457 H 141.418 -4.21199 -0.130147 0
M  V30 1458 H 140.142 -3.16617 -0.80134 0
M  V30 1459 H 138.801 -3.42173 1.3158 0
M  V30 1460 H 138.449 -4.99449 -0.596606 0
M  V30 1461 H 138.149 -5.79609 0.965788 0
M  V30 1462 H 139.673 -6.10539 0.0861567 0
M  V30 1463 H 141.087 -5.2913 2.20669 0
M  V30 1464 H 139.484 -5.20148 2.99276 0
M  V30 1465 H 140.554 -3.78834 3.02676 0
M  V30 1466 N 141.898 -0.863906 -1.31812 0
M  V30 1467 C 142.845 -0.313303 -2.28664 0
M  V30 1468 C 143.815 0.584868 -1.55462 0
M  V30 1469 O 145 0.517805 -1.83639 0
M  V30 1470 C 142.14 0.48441 -3.41683 0
M  V30 1471 C 141.253 -0.440594 -4.29747 0
M  V30 1472 C 140.388 0.370652 -5.29905 0
M  V30 1473 C 139.427 -0.551164 -6.09613 0
M  V30 1474 N 138.564 0.223462 -7.01744 0
M  V30 1475 H 143.404 -1.14444 -2.75148 0
M  V30 1476 H 140.941 -0.575769 -1.35364 0
M  V30 1477 H 142.899 0.962627 -4.05943 0
M  V30 1478 H 141.529 1.28029 -2.96325 0
M  V30 1479 H 140.581 -1.03724 -3.65986 0
M  V30 1480 H 141.893 -1.14767 -4.85417 0
M  V30 1481 H 141.047 0.911638 -5.99812 0
M  V30 1482 H 139.786 1.11105 -4.74876 0
M  V30 1483 H 138.791 -1.10396 -5.38603 0
M  V30 1484 H 140.016 -1.29032 -6.66729 0
M  V30 1485 H 137.962 0.946787 -6.49132 0
M  V30 1486 H 137.879 -0.424399 -7.54808 0
M  V30 1487 H 139.147 0.745876 -7.75923 0
M  V30 1488 N 143.376 1.44774 -0.622745 0
M  V30 1489 C 144.286 2.34433 0.0886031 0
M  V30 1490 C 145.302 1.52131 0.844529 0
M  V30 1491 O 146.478 1.84886 0.798691 0
M  V30 1492 C 143.543 3.29986 1.0635 0
M  V30 1493 C 142.604 4.28195 0.307873 0
M  V30 1494 C 141.837 5.19183 1.23633 0
M  V30 1495 O 142.06 5.13918 2.47476 0
M  V30 1496 O 140.994 5.97515 0.725189 0
M  V30 1497 H 144.82 2.96693 -0.648599 0
M  V30 1498 H 142.405 1.44408 -0.382957 0
M  V30 1499 H 144.287 3.88825 1.6246 0
M  V30 1500 H 142.962 2.70269 1.78146 0
M  V30 1501 H 141.869 3.72927 -0.296064 0
M  V30 1502 H 143.202 4.90808 -0.3699 0
M  V30 1503 N 144.854 0.36279 1.53368 0
M  V30 1504 C 145.817 -0.472679 2.24273 0
M  V30 1505 C 146.817 -1.012 1.24961 0
M  V30 1506 O 148.007 -0.898194 1.49259 0
M  V30 1507 C 145.139 -1.66039 2.97731 0
M  V30 1508 H 146.332 0.14773 2.99536 0
M  V30 1509 H 143.885 0.114434 1.55881 0
M  V30 1510 H 144.62 -2.31896 2.26704 0
M  V30 1511 H 144.405 -1.28066 3.70596 0
M  V30 1512 H 145.895 -2.25252 3.51641 0
M  V30 1513 N 146.332 -1.57332 0.0918853 0
M  V30 1514 C 147.579 -1.94236 -0.572577 0
M  V30 1515 C 147.907 -0.973398 -1.6839 0
M  V30 1516 O 147.162 0.00756912 -1.95699 0
M  V30 1517 C 147.461 -3.37689 -1.17051 0
M  V30 1518 C 147.127 -4.50527 -0.183304 0
M  V30 1519 C 145.789 -4.81119 0.0882276 0
M  V30 1520 C 148.141 -5.18883 0.49095 0
M  V30 1521 C 145.469 -5.77395 1.04076 0
M  V30 1522 C 147.821 -6.1618 1.43193 0
M  V30 1523 C 146.485 -6.45179 1.71173 0
M  V30 1524 H 145.755 -0.710762 -0.209521 0
M  V30 1525 H 148.402 -1.9077 0.167036 0
M  V30 1526 H 146.707 -3.37718 -1.9863 0
M  V30 1527 H 148.404 -3.63543 -1.69227 0
M  V30 1528 H 144.994 -4.26681 -0.405124 0
M  V30 1529 H 149.178 -4.95427 0.294312 0
M  V30 1530 H 144.434 -5.98179 1.26457 0
M  V30 1531 H 148.608 -6.68243 1.96023 0
M  V30 1532 H 146.235 -7.1959 2.4514 0
M  V30 1533 N 147.81 0.181792 -1.56548 0
M  V30 1534 C 149.035 0.920019 -1.85877 0
M  V30 1535 C 149.46 1.75494 -0.677021 0
M  V30 1536 O 148.818 1.77399 0.374056 0
M  V30 1537 C 148.866 1.78112 -3.13542 0
M  V30 1538 O 147.97 2.88152 -2.95029 0
M  V30 1539 H 147.311 0.258334 -0.611686 0
M  V30 1540 H 149.841 0.183092 -2.03779 0
M  V30 1541 H 149.851 2.18314 -3.44678 0
M  V30 1542 H 148.526 1.16777 -3.99169 0
M  V30 1543 H 147.103 2.51609 -2.75222 0
M  V30 1544 N 149.288 1.51039 0.449983 0
M  V30 1545 C 150.236 1.71995 1.5659 0
M  V30 1546 C 151.23 0.586029 1.5894 0
M  V30 1547 O 152.436 0.76709 1.62837 0
M  V30 1548 H 148.811 0.543233 0.520001 0
M  V30 1549 H 150.782 2.65562 1.36085 0
M  V30 1550 C 149.531 1.8506 2.9436 0
M  V30 1551 H 148.854 2.71712 2.93279 0
M  V30 1552 H 150.294 2.0374 3.71842 0
M  V30 1553 C 148.753 0.607277 3.31382 0
M  V30 1554 O 149.283 -0.243903 4.00959 0
M  V30 1555 N 147.489 0.455073 2.87015 0
M  V30 1556 H 147.036 1.14879 2.30566 0
M  V30 1557 H 146.994 -0.375611 3.12148 0
M  V30 1558 N 150.766 -0.704594 1.40972 0
M  V30 1559 C 152.013 -1.46458 1.39844 0
M  V30 1560 C 152.341 -1.94499 0.00447594 0
M  V30 1561 O 151.596 -1.69275 -0.982057 0
M  V30 1562 C 151.895 -2.698 2.34399 0
M  V30 1563 C 151.561 -2.40464 3.81429 0
M  V30 1564 C 150.223 -2.32174 4.21484 0
M  V30 1565 C 152.575 -2.16086 4.74296 0
M  V30 1566 C 149.903 -1.97589 5.52427 0
M  V30 1567 C 152.255 -1.83011 6.05549 0
M  V30 1568 C 150.919 -1.7321 6.44635 0
M  V30 1569 H 150.189 -0.535927 0.511725 0
M  V30 1570 H 152.836 -0.806124 1.73706 0
M  V30 1571 H 151.141 -3.40536 1.93759 0
M  V30 1572 H 152.838 -3.27919 2.30804 0
M  V30 1573 H 149.428 -2.47808 3.49699 0
M  V30 1574 H 153.612 -2.2144 4.4416 0
M  V30 1575 H 148.868 -1.88547 5.81601 0
M  V30 1576 H 153.042 -1.63164 6.77016 0
M  V30 1577 H 150.669 -1.46179 7.46013 0
M  V30 1578 N 152.244 -1.26651 -0.937939 0
M  V30 1579 C 153.469 -1.15279 -1.72411 0
M  V30 1580 C 153.894 0.287866 -1.85884 0
M  V30 1581 O 153.252 1.20855 -1.35143 0
M  V30 1582 C 153.3 -1.83028 -3.10698 0
M  V30 1583 O 152.404 -1.12128 -3.96864 0
M  V30 1584 H 151.745 -0.401504 -0.528858 0
M  V30 1585 H 154.275 -1.67531 -1.1745 0
M  V30 1586 H 154.285 -1.89981 -3.6107 0
M  V30 1587 H 152.96 -2.87833 -3.00208 0
M  V30 1588 H 151.537 -1.13173 -3.55312 0
M  V30 1589 N 153.722 1.14298 -1.08507 0
M  V30 1590 C 154.947 1.8976 -0.837001 0
M  V30 1591 C 155.372 1.78097 0.605228 0
M  V30 1592 O 154.73 1.12188 1.4242 0
M  V30 1593 C 154.778 3.37685 -1.26495 0
M  V30 1594 O 153.882 4.10281 -0.417514 0
M  V30 1595 H 153.223 0.590365 -0.303917 0
M  V30 1596 H 155.753 1.44672 -1.44676 0
M  V30 1597 H 155.763 3.88501 -1.24625 0
M  V30 1598 H 154.438 3.45492 -2.31534 0
M  V30 1599 H 153.015 3.69536 -0.499722 0
M  V30 1600 N 155.201 0.870884 1.31352 0
M  V30 1601 C 156.426 0.495957 2.01383 0
M  V30 1602 C 156.851 -0.904324 1.64935 0
M  V30 1603 O 156.209 -1.59687 0.858466 0
M  V30 1604 C 156.257 0.661433 3.54482 0
M  V30 1605 O 155.361 -0.298851 4.11316 0
M  V30 1606 H 154.702 0.197158 0.634054 0
M  V30 1607 H 157.232 1.17455 1.67527 0
M  V30 1608 H 157.242 0.555072 4.04207 0
M  V30 1609 H 155.917 1.68246 3.8035 0
M  V30 1610 H 154.494 -0.147368 3.72609 0
M  V30 1611 N 156.679 -1.44442 0.630414 0
M  V30 1612 C 157.907 -2.06414 0.141671 0
M  V30 1613 C 158.322 -1.47105 -1.18345 0
M  V30 1614 O 157.679 -0.593662 -1.72574 0
M  V30 1615 C 157.73 -3.61494 0.0199784 0
M  V30 1616 O 157.451 -4.18594 1.29269 0
M  V30 1617 C 158.952 -4.40499 -0.497544 0
M  V30 1618 H 156.172 -0.666292 0.0793452 0
M  V30 1619 H 158.716 -1.85323 0.864614 0
M  V30 1620 H 156.871 -3.8185 -0.653402 0
M  V30 1621 H 157.285 -5.12026 1.13707 0
M  V30 1622 H 158.759 -5.49433 -0.531708 0
M  V30 1623 H 159.236 -4.11895 -1.52445 0
M  V30 1624 H 159.842 -4.25061 0.142562 0
M  V30 1625 N 158.157 -0.370918 -1.53173 0
M  V30 1626 C 159.087 0.464847 -2.28826 0
M  V30 1627 C 160.068 1.07936 -1.31468 0
M  V30 1628 O 161.253 1.0956 -1.60344 0
M  V30 1629 C 158.383 1.60196 -3.08147 0
M  V30 1630 C 157.337 1.11443 -4.13237 0
M  V30 1631 C 156.663 2.3422 -4.80672 0
M  V30 1632 C 157.963 0.195384 -5.21934 0
M  V30 1633 H 159.657 -0.166329 -2.98938 0
M  V30 1634 H 157.203 -0.0814359 -1.4377 0
M  V30 1635 H 159.156 2.19332 -3.59822 0
M  V30 1636 H 157.88 2.26045 -2.35735 0
M  V30 1637 H 156.539 0.545727 -3.62515 0
M  V30 1638 H 156.187 2.98537 -4.04827 0
M  V30 1639 H 155.887 2.02269 -5.51689 0
M  V30 1640 H 157.411 2.94032 -5.35143 0
M  V30 1641 H 158.825 0.694375 -5.69079 0
M  V30 1642 H 157.222 -0.0335027 -6.00091 0
M  V30 1643 H 158.292 -0.760961 -4.78892 0
M  V30 1644 N 159.635 1.57281 -0.100228 0
M  V30 1645 C 160.863 1.98879 0.570509 0
M  V30 1646 C 161.278 0.979476 1.61405 0
M  V30 1647 O 160.635 -0.0302288 1.82475 0
M  V30 1648 C 160.686 3.4052 1.2136 0
M  V30 1649 O 160.407 4.37588 0.211786 0
M  V30 1650 C 161.908 3.97149 1.96945 0
M  V30 1651 H 159.128 0.653428 0.152555 0
M  V30 1652 H 161.672 2.03697 -0.18103 0
M  V30 1653 H 159.827 3.367 1.91603 0
M  V30 1654 H 160.241 5.20118 0.676607 0
M  V30 1655 H 161.715 4.98393 2.37294 0
M  V30 1656 H 162.192 3.3525 2.83733 0
M  V30 1657 H 162.798 4.04458 1.31506 0
M  V30 1658 N 161.113 -0.173488 1.56642 0
M  V30 1659 C 162.023 -1.23482 1.99473 0
M  V30 1660 C 163.039 -1.48567 0.905752 0
M  V30 1661 O 164.215 -1.60758 1.21321 0
M  V30 1662 C 161.28 -2.55444 2.34413 0
M  V30 1663 C 160.341 -2.38241 3.57127 0
M  V30 1664 C 159.574 -3.63909 3.90392 0
M  V30 1665 O 159.797 -4.68996 3.24653 0
M  V30 1666 O 158.731 -3.58149 4.83749 0
M  V30 1667 H 162.557 -0.901279 2.90018 0
M  V30 1668 H 160.142 -0.380185 1.44482 0
M  V30 1669 H 162.024 -3.33292 2.57865 0
M  V30 1670 H 160.699 -2.88382 1.4703 0
M  V30 1671 H 159.606 -1.58431 3.38896 0
M  V30 1672 H 160.939 -2.10228 4.45045 0
M  V30 1673 N 162.591 -1.51276 -0.441967 0
M  V30 1674 C 163.837 -1.63958 -1.19355 0
M  V30 1675 C 164.17 -0.352543 -1.90973 0
M  V30 1676 O 163.445 0.647627 -1.83401 0
M  V30 1677 C 163.728 -2.83979 -2.21422 0
M  V30 1678 C 163.581 -4.22646 -1.53918 0
M  V30 1679 C 164.9 -2.99521 -3.22451 0
M  V30 1680 H 162.019 -0.596709 -0.432559 0
M  V30 1681 H 164.661 -1.83748 -0.483398 0
M  V30 1682 H 162.811 -2.67237 -2.81987 0
M  V30 1683 H 164.483 -4.51045 -0.967256 0
M  V30 1684 H 162.726 -4.25558 -0.841615 0
M  V30 1685 H 163.397 -5.02609 -2.28229 0
M  V30 1686 H 165.873 -3.14944 -2.71937 0
M  V30 1687 H 164.749 -3.85072 -3.91166 0
M  V30 1688 H 165.01 -2.11391 -3.88287 0
M  V30 1689 N 164.069 0.697108 -1.41344 0
M  V30 1690 C 165.001 1.8224 -1.39001 0
M  V30 1691 C 166.014 1.60152 -0.292428 0
M  V30 1692 O 167.203 1.69684 -0.554048 0
M  V30 1693 C 164.303 3.18976 -1.14489 0
M  V30 1694 C 163.476 3.68105 -2.36258 0
M  V30 1695 C 162.535 4.83506 -2.07625 0
M  V30 1696 O 161.561 4.95201 -2.8065 0
M  V30 1697 N 162.763 5.70637 -1.06555 0
M  V30 1698 H 165.528 1.84742 -2.35988 0
M  V30 1699 H 163.089 0.87937 -1.35936 0
M  V30 1700 H 165.081 3.93801 -0.932885 0
M  V30 1701 H 163.651 3.11508 -0.261043 0
M  V30 1702 H 162.871 2.84204 -2.7317 0
M  V30 1703 H 164.159 3.97667 -3.17393 0
M  V30 1704 H 163.557 5.63817 -0.461125 0
M  V30 1705 H 162.114 6.45368 -0.913444 0
M  V30 1706 N 165.547 1.27147 0.931209 0
M  V30 1707 C 166.51 1.09615 2.01289 0
M  V30 1708 C 167.51 0.0412581 1.60747 0
M  V30 1709 O 168.7 0.285545 1.71844 0
M  V30 1710 C 165.832 0.669447 3.34262 0
M  V30 1711 H 167.025 2.05662 2.18273 0
M  V30 1712 H 164.578 1.09885 1.11153 0
M  V30 1713 H 165.313 -0.292572 3.22978 0
M  V30 1714 H 165.098 1.43127 3.65044 0
M  V30 1715 H 166.588 0.568921 4.13706 0
M  V30 1716 N 167.025 -1.13721 1.09112 0
M  V30 1717 C 168.274 -1.84275 0.82009 0
M  V30 1718 C 168.587 -1.84253 -0.656509 0
M  V30 1719 O 169.793 -2.50668 -1.04296 0
M  V30 1720 C 168.249 -3.30825 1.41714 0
M  V30 1721 C 167.857 -3.39244 2.92605 0
M  V30 1722 C 169.601 -4.06443 1.22492 0
M  V30 1723 C 167.508 -4.80047 3.45411 0
M  V30 1724 H 166.438 -0.690387 0.30312 0
M  V30 1725 H 169.089 -1.28146 1.31343 0
M  V30 1726 H 167.471 -3.86737 0.851498 0
M  V30 1727 H 168.645 -2.93344 3.55367 0
M  V30 1728 H 166.96 -2.77088 3.10823 0
M  V30 1729 H 169.557 -5.10387 1.59402 0
M  V30 1730 H 169.9 -4.15972 0.165299 0
M  V30 1731 H 170.433 -3.56852 1.75788 0
M  V30 1732 H 167.172 -4.75709 4.50978 0
M  V30 1733 H 166.692 -5.26455 2.87411 0
M  V30 1734 H 168.371 -5.48957 3.42425 0
M  V30 1735 N 168.503 -0.877838 -1.30888 0
M  V30 1736 C 169.728 -0.506629 -2.01117 0
M  V30 1737 C 170.153 0.895564 -1.65412 0
M  V30 1738 O 169.511 1.5923 -0.866922 0
M  V30 1739 C 169.559 -0.680223 -3.54126 0
M  V30 1740 O 168.663 0.277033 -4.11468 0
M  V30 1741 H 168.004 -0.200518 -0.633 0
M  V30 1742 H 170.534 -1.18342 -1.66902 0
M  V30 1743 H 170.544 -0.5765 -4.03907 0
M  V30 1744 H 169.219 -1.70261 -3.79452 0
M  V30 1745 H 167.796 0.127606 -3.72682 0
M  V30 1746 N 169.982 1.44106 -0.638065 0
M  V30 1747 C 171.21 2.06336 -0.152615 0
M  V30 1748 C 171.625 1.47731 1.17563 0
M  V30 1749 O 170.982 0.602806 1.72257 0
M  V30 1750 C 171.033 3.61479 -0.0391491 0
M  V30 1751 O 170.754 4.17903 -1.31487 0
M  V30 1752 C 172.255 4.40757 0.474176 0
M  V30 1753 H 169.475 0.665862 -0.0828776 0
M  V30 1754 H 172.019 1.84862 -0.87443 0
M  V30 1755 H 170.174 3.82191 0.633142 0
M  V30 1756 H 170.588 5.11416 -1.16421 0
M  V30 1757 H 172.062 5.49707 0.502562 0
M  V30 1758 H 172.539 4.12697 1.50258 0
M  V30 1759 H 173.145 4.24979 -0.165102 0
M  V30 1760 N 171.46 0.379036 1.52974 0
M  V30 1761 C 172.41 -0.477772 2.22938 0
M  V30 1762 C 173.394 -1.03792 1.22948 0
M  V30 1763 O 174.586 -0.965725 1.48333 0
M  V30 1764 C 171.715 -1.60994 3.03209 0
M  V30 1765 C 170.801 -1.06203 4.10587 0
M  V30 1766 N 171.192 -0.238214 5.05239 0
M  V30 1767 C 169.49 -1.33554 4.25534 0
M  V30 1768 C 170.191 0.0633235 5.81666 0
M  V30 1769 N 169.167 -0.537901 5.40932 0
M  V30 1770 H 172.969 0.158295 2.93473 0
M  V30 1771 H 170.483 0.187778 1.61311 0
M  V30 1772 H 172.48 -2.23607 3.5186 0
M  V30 1773 H 171.14 -2.24893 2.34207 0
M  V30 1774 H 172.151 0.123695 5.17752 0
M  V30 1775 H 168.828 -1.97632 3.6776 0
M  V30 1776 H 170.218 0.730161 6.67921 0
M  V30 1777 N 172.938 -1.57226 0.108567 0
M  V30 1778 C 174.186 -1.94448 -0.550853 0
M  V30 1779 C 174.507 -0.992074 -1.67878 0
M  V30 1780 O 173.777 -0.0465 -1.95845 0
M  V30 1781 H 172.357 -0.717897 -0.206479 0
M  V30 1782 H 175.019 -1.94112 0.175062 0
M  V30 1783 H 174.115 -2.97218 -0.952259 0
M  V30 1784 N 174.416 0.165178 -1.56732 0
M  V30 1785 C 175.664 0.879068 -1.8198 0
M  V30 1786 C 175.985 1.82514 -0.686561 0
M  V30 1787 O 175.255 1.93694 0.293146 0
M  V30 1788 H 173.835 0.327608 -0.671329 0
M  V30 1789 H 176.497 0.163526 -1.94213 0
M  V30 1790 H 175.593 1.45228 -2.76252 0
M  V30 1791 N 175.894 1.51508 0.433938 0
M  V30 1792 C 177.119 1.68443 1.21003 0
M  V30 1793 C 177.544 0.382636 1.84167 0
M  V30 1794 O 176.902 -0.65755 1.68956 0
M  V30 1795 C 176.95 2.80405 2.26727 0
M  V30 1796 O 176.054 2.44245 3.32292 0
M  V30 1797 H 175.395 0.561536 0.354363 0
M  V30 1798 H 177.925 1.9809 0.512024 0
M  V30 1799 H 177.935 3.0459 2.71457 0
M  V30 1800 H 176.61 3.74867 1.80132 0
M  V30 1801 H 175.187 2.30644 2.93015 0
M  V30 1802 N 177.372 -0.689602 1.41712 0
M  V30 1803 C 178.618 -1.45181 1.41599 0
M  V30 1804 C 178.951 -1.94181 0.0270081 0
M  V30 1805 O 178.226 -1.6993 -0.946265 0
M  V30 1806 C 178.509 -2.65945 2.42787 0
M  V30 1807 C 178.362 -2.22672 3.90816 0
M  V30 1808 C 179.681 -3.68149 2.41151 0
M  V30 1809 H 176.8 -0.526576 0.515642 0
M  V30 1810 H 179.442 -0.784947 1.73028 0
M  V30 1811 H 177.592 -3.2284 2.16116 0
M  V30 1812 H 179.264 -1.71058 4.28412 0
M  V30 1813 H 177.507 -1.54394 4.05395 0
M  V30 1814 H 178.178 -3.0935 4.57172 0
M  V30 1815 H 180.654 -3.2094 2.64834 0
M  V30 1816 H 179.53 -4.50248 3.13955 0
M  V30 1817 H 179.791 -4.18259 1.43221 0
M  V30 1818 N 178.85 -1.27639 -0.924453 0
M  V30 1819 C 180.098 -1.13941 -1.66918 0
M  V30 1820 C 180.419 0.314589 -1.92446 0
M  V30 1821 O 179.689 1.21964 -1.53303 0
M  V30 1822 H 178.269 -0.418678 -0.618642 0
M  V30 1823 H 180.931 -1.60213 -1.10985 0
M  V30 1824 H 180.027 -1.67094 -2.63602 0
M  V30 1825 N 180.328 1.1314 -1.09713 0
M  V30 1826 C 181.605 1.80762 -0.747302 0
M  V30 1827 C 181.985 1.96663 0.767265 0
M  V30 1828 O 181.333 1.53706 1.69076 0
M  V30 1829 C 181.543 3.15606 -1.48975 0
M  V30 1830 C 182.891 3.90914 -1.65746 0
M  V30 1831 O 183.915 3.25239 -1.45251 0
M  V30 1832 O 182.774 5.08718 -1.9967 0
M  V30 1833 H 179.868 0.782103 -0.268782 0
M  V30 1834 H 182.414 1.20041 -1.19951 0
M  V30 1835 H 181.186 2.99278 -2.52088 0
M  V30 1836 H 180.809 3.84029 -1.02991 0
M  V30 1837 N 181.806 0.884767 1.30421 0
M  V30 1838 C 182.753 0.349642 2.28136 0
M  V30 1839 C 183.723 -0.560061 1.56373 0
M  V30 1840 O 184.908 -0.488524 1.8444 0
M  V30 1841 C 182.048 -0.42999 3.42411 0
M  V30 1842 C 181.161 0.508907 4.28992 0
M  V30 1843 C 180.296 -0.286301 5.30428 0
M  V30 1844 C 179.335 0.648079 6.08659 0
M  V30 1845 N 178.472 -0.111792 7.02011 0
M  V30 1846 H 183.312 1.18807 2.73293 0
M  V30 1847 H 180.849 0.597231 1.3443 0
M  V30 1848 H 182.807 -0.897923 4.07423 0
M  V30 1849 H 181.437 -1.23299 2.98324 0
M  V30 1850 H 180.489 1.09533 3.64289 0
M  V30 1851 H 181.801 1.22475 4.8353 0
M  V30 1852 H 180.955 -0.816098 6.01186 0
M  V30 1853 H 179.694 -1.03536 4.76583 0
M  V30 1854 H 178.699 1.18951 5.36778 0
M  V30 1855 H 179.924 1.39623 6.64592 0
M  V30 1856 H 177.87 -0.843395 6.50556 0
M  V30 1857 H 177.787 0.544429 7.54037 0
M  V30 1858 H 179.055 -0.622339 7.77012 0
M  V30 1859 N 183.284 -1.43765 0.645699 0
M  V30 1860 C 184.533 -2.01116 0.153412 0
M  V30 1861 C 184.846 -1.51493 -1.23731 0
M  V30 1862 O 186.052 -2.01067 -1.8244 0
M  V30 1863 C 184.508 -3.59206 0.223473 0
M  V30 1864 C 184.116 -4.17823 1.61642 0
M  V30 1865 C 185.86 -4.23972 -0.211597 0
M  V30 1866 C 183.767 -5.68183 1.64081 0
M  V30 1867 H 182.697 -0.752093 0.0535891 0
M  V30 1868 H 185.348 -1.6482 0.806633 0
M  V30 1869 H 183.73 -3.92867 -0.497118 0
M  V30 1870 H 184.904 -3.95674 2.36176 0
M  V30 1871 H 183.219 -3.65399 1.99681 0
M  V30 1872 H 185.816 -5.34275 -0.213112 0
M  V30 1873 H 186.159 -3.97352 -1.24165 0
M  V30 1874 H 186.692 -3.95166 0.456988 0
M  V30 1875 H 183.431 -5.99559 2.64971 0
M  V30 1876 H 182.951 -5.9241 0.938611 0
M  V30 1877 H 184.63 -6.32085 1.3812 0
M  V30 1878 N 184.763 -0.387143 -1.52771 0
M  V30 1879 C 185.991 0.195869 -2.05971 0
M  V30 1880 C 186.406 1.40691 -1.25903 0
M  V30 1881 O 185.763 1.79931 -0.305134 0
M  V30 1882 C 185.814 0.56812 -3.57008 0
M  V30 1883 O 185.535 -0.594803 -4.34043 0
M  V30 1884 C 187.036 1.20723 -4.26545 0
M  V30 1885 H 184.256 0.0300578 -0.670326 0
M  V30 1886 H 186.8 -0.551749 -1.96916 0
M  V30 1887 H 184.955 1.26564 -3.66143 0
M  V30 1888 H 185.369 -0.289322 -5.23701 0
M  V30 1889 H 186.843 1.41807 -5.33474 0
M  V30 1890 H 187.32 2.17395 -3.81623 0
M  V30 1891 H 187.926 0.550535 -4.21722 0
M  V30 1892 N 186.241 1.57166 -0.116904 0
M  V30 1893 C 187.466 1.999 0.55271 0
M  V30 1894 C 187.891 0.996039 1.59564 0
M  V30 1895 O 187.249 -0.032556 1.81271 0
M  V30 1896 C 187.297 3.4152 1.15742 0
M  V30 1897 O 186.401 3.44106 2.27299 0
M  V30 1898 H 185.742 0.649447 0.138258 0
M  V30 1899 H 188.272 2.03573 -0.204759 0
M  V30 1900 H 188.282 3.79684 1.49346 0
M  V30 1901 H 186.957 4.14034 0.393493 0
M  V30 1902 H 185.534 3.17759 1.9515 0
M  V30 1903 N 187.719 -0.156864 1.56817 0
M  V30 1904 C 188.649 -1.19589 2.00551 0
M  V30 1905 C 189.63 -1.4536 0.883426 0
M  V30 1906 O 190.815 -1.56449 1.15054 0
M  V30 1907 C 187.945 -2.53143 2.37773 0
M  V30 1908 C 186.899 -2.41913 3.53075 0
M  V30 1909 C 186.225 -3.80088 3.76081 0
M  V30 1910 C 187.525 -1.91157 4.86062 0
M  V30 1911 H 189.219 -0.832293 2.87599 0
M  V30 1912 H 186.765 -0.398918 1.38364 0
M  V30 1913 H 188.718 -3.26047 2.66967 0
M  V30 1914 H 187.442 -2.91319 1.4765 0
M  V30 1915 H 186.101 -1.71462 3.24031 0
M  V30 1916 H 185.749 -4.15683 2.83225 0
M  V30 1917 H 185.449 -3.73439 4.53671 0
M  V30 1918 H 186.973 -4.54556 4.0769 0
M  V30 1919 H 188.387 -2.53846 5.14038 0
M  V30 1920 H 186.784 -1.95422 5.67389 0
M  V30 1921 H 187.854 -0.866673 4.77092 0
M  V30 1922 N 189.197 -1.51736 -0.425897 0
M  V30 1923 C 190.445 -1.64644 -1.17204 0
M  V30 1924 C 190.766 -0.370486 -1.91448 0
M  V30 1925 O 190.036 0.614088 -1.86026 0
M  V30 1926 H 188.616 -0.606819 -0.435638 0
M  V30 1927 H 191.278 -1.88713 -0.487177 0
M  V30 1928 H 190.374 -2.47958 -1.89534 0
M  V30 1929 N 190.675 0.682077 -1.42076 0
M  V30 1930 C 191.638 1.77756 -1.44691 0
M  V30 1931 C 192.638 1.5726 -0.335535 0
M  V30 1932 O 193.828 1.63686 -0.596037 0
M  V30 1933 C 190.96 3.16301 -1.27146 0
M  V30 1934 H 192.153 1.76826 -2.42224 0
M  V30 1935 H 189.706 0.891012 -1.28416 0
M  V30 1936 H 190.441 3.22862 -0.305075 0
M  V30 1937 H 190.226 3.32581 -2.07683 0
M  V30 1938 H 191.716 3.96241 -1.31843 0
M  V30 1939 N 192.153 1.28127 0.917671 0
M  V30 1940 C 193.1 1.11717 2.0196 0
M  V30 1941 C 194.07 0.0153929 1.66093 0
M  V30 1942 O 195.255 0.179596 1.89953 0
M  V30 1943 C 192.395 0.780927 3.36148 0
M  V30 1944 C 191.508 1.96135 3.84909 0
M  V30 1945 C 190.643 1.56609 5.0759 0
M  V30 1946 C 189.682 2.71339 5.48673 0
M  V30 1947 N 188.819 2.32332 6.62545 0
M  V30 1948 H 193.659 2.06003 2.15329 0
M  V30 1949 H 191.196 1.02535 1.05475 0
M  V30 1950 H 193.154 0.56675 4.13333 0
M  V30 1951 H 191.784 -0.124998 3.22558 0
M  V30 1952 H 190.836 2.28777 3.03916 0
M  V30 1953 H 192.148 2.82165 4.1132 0
M  V30 1954 H 191.302 1.31374 5.92305 0
M  V30 1955 H 190.041 0.677014 4.82978 0
M  V30 1956 H 189.046 2.97276 4.62501 0
M  V30 1957 H 190.271 3.60882 5.75274 0
M  V30 1958 H 188.217 1.45889 6.39572 0
M  V30 1959 H 188.134 3.11899 6.88662 0
M  V30 1960 H 189.402 2.10371 7.50576 0
M  V30 1961 N 193.631 -1.12557 1.10312 0
M  V30 1962 C 194.561 -2.20341 0.772798 0
M  V30 1963 C 195.542 -1.68198 -0.25365 0
M  V30 1964 O 196.727 -1.93831 -0.119699 0
M  V30 1965 C 193.857 -3.46709 0.202443 0
M  V30 1966 C 192.811 -4.11996 1.15943 0
M  V30 1967 C 192.137 -5.328 0.450345 0
M  V30 1968 C 193.437 -4.5828 2.50552 0
M  V30 1969 H 195.131 -2.48229 1.674 0
M  V30 1970 H 192.677 -1.19308 0.806326 0
M  V30 1971 H 194.63 -4.2138 -0.0407752 0
M  V30 1972 H 193.354 -3.18245 -0.734001 0
M  V30 1973 H 192.013 -3.39305 1.38808 0
M  V30 1974 H 191.661 -5.00602 -0.490531 0
M  V30 1975 H 191.361 -5.7743 1.08851 0
M  V30 1976 H 192.885 -6.10219 0.215642 0
M  V30 1977 H 194.299 -5.2433 2.31843 0
M  V30 1978 H 192.696 -5.13683 3.10242 0
M  V30 1979 H 193.766 -3.72329 3.10643 0
M  V30 1980 N 195.109 -0.891671 -1.2995 0
M  V30 1981 C 196.019 -0.367691 -2.31701 0
M  V30 1982 C 197.035 0.533486 -1.6562 0
M  V30 1983 O 198.211 0.424997 -1.96865 0
M  V30 1984 C 195.276 0.403406 -3.44345 0
M  V30 1985 C 194.337 -0.528328 -4.26037 0
M  V30 1986 C 193.57 0.206063 -5.33302 0
M  V30 1987 O 193.793 1.43119 -5.52153 0
M  V30 1988 O 192.727 -0.447281 -6.00236 0
M  V30 1989 H 196.553 -1.21163 -2.78484 0
M  V30 1990 H 194.138 -0.655725 -1.34241 0
M  V30 1991 H 196.02 0.839753 -4.12948 0
M  V30 1992 H 194.695 1.22354 -2.99685 0
M  V30 1993 H 193.602 -1.01362 -3.60106 0
M  V30 1994 H 194.935 -1.31465 -4.74318 0
M  V30 1995 N 196.587 1.43421 -0.653314 0
M  V30 1996 C 197.534 2.30768 0.0382271 0
M  V30 1997 C 198.504 1.44755 0.814576 0
M  V30 1998 O 199.689 1.73624 0.791162 0
M  V30 1999 C 196.829 3.30336 0.998599 0
M  V30 2000 C 195.942 4.31448 0.218342 0
M  V30 2001 C 195.077 5.18098 1.17252 0
M  V30 2002 C 194.116 6.10902 0.382702 0
M  V30 2003 N 193.253 6.90176 1.28848 0
M  V30 2004 H 198.093 2.89357 -0.712511 0
M  V30 2005 H 195.63 1.42548 -0.363128 0
M  V30 2006 H 197.588 3.86572 1.56901 0
M  V30 2007 H 196.218 2.73397 1.71621 0
M  V30 2008 H 195.27 3.77506 -0.46836 0
M  V30 2009 H 196.582 4.97227 -0.395812 0
M  V30 2010 H 195.736 5.7896 1.81356 0
M  V30 2011 H 194.475 4.52444 1.82058 0
M  V30 2012 H 193.48 5.49128 -0.27169 0
M  V30 2013 H 194.705 6.78598 -0.260957 0
M  V30 2014 H 192.651 6.27171 1.92334 0
M  V30 2015 H 192.568 7.52478 0.728887 0
M  V30 2016 H 193.836 7.55543 1.91766 0
M  V30 2017 N 198.065 0.39524 1.52563 0
M  V30 2018 C 198.997 -0.472201 2.24283 0
M  V30 2019 C 200.01 -1.02178 1.26742 0
M  V30 2020 O 201.199 -0.923097 1.52778 0
M  V30 2021 C 198.299 -1.66775 2.95024 0
M  V30 2022 C 197.472 -1.2445 4.19322 0
M  V30 2023 C 196.531 -2.30539 4.7301 0
M  V30 2024 O 195.557 -1.91702 5.35947 0
M  V30 2025 N 196.759 -3.6253 4.53379 0
M  V30 2026 H 199.524 0.142282 2.99362 0
M  V30 2027 H 197.085 0.2219 1.60372 0
M  V30 2028 H 199.077 -2.37283 3.27839 0
M  V30 2029 H 197.647 -2.18845 2.23217 0
M  V30 2030 H 196.867 -0.368069 3.92478 0
M  V30 2031 H 198.155 -0.938457 5.0007 0
M  V30 2032 H 197.553 -3.96841 4.03154 0
M  V30 2033 H 196.11 -4.29055 4.90668 0
M  V30 2034 N 199.544 -1.57102 0.125237 0
M  V30 2035 C 200.476 -2.12726 -0.853237 0
M  V30 2036 C 201.489 -1.07145 -1.22571 0
M  V30 2037 O 202.678 -1.34497 -1.17358 0
M  V30 2038 C 199.778 -2.61709 -2.15317 0
M  V30 2039 C 198.951 -3.91456 -1.95143 0
M  V30 2040 C 198.01 -4.25973 -3.08923 0
M  V30 2041 O 197.036 -4.94682 -2.81564 0
M  V30 2042 N 198.238 -3.83795 -4.35524 0
M  V30 2043 H 201.003 -2.97307 -0.377964 0
M  V30 2044 H 198.564 -1.61792 -0.0590011 0
M  V30 2045 H 200.556 -2.81826 -2.90441 0
M  V30 2046 H 199.126 -1.81974 -2.54174 0
M  V30 2047 H 198.346 -3.80185 -1.04177 0
M  V30 2048 H 199.634 -4.76283 -1.78976 0
M  V30 2049 H 199.032 -3.2839 -4.60626 0
M  V30 2050 H 197.589 -4.09008 -5.07499 0
M  V30 2051 N 201.022 0.148545 -1.56898 0
M  V30 2052 C 201.954 1.20852 -1.9475 0
M  V30 2053 C 202.967 1.39265 -0.843152 0
M  V30 2054 O 204.156 1.38864 -1.12156 0
M  V30 2055 C 201.256 2.57362 -2.20495 0
M  V30 2056 C 200.429 2.59947 -3.51776 0
M  V30 2057 C 199.488 3.77984 -3.6608 0
M  V30 2058 O 198.514 3.62929 -4.38487 0
M  V30 2059 N 199.716 4.95375 -3.02629 0
M  V30 2060 H 202.481 0.886804 -2.86279 0
M  V30 2061 H 200.042 0.338121 -1.5833 0
M  V30 2062 H 202.034 3.34833 -2.27307 0
M  V30 2063 H 200.604 2.81832 -1.35238 0
M  V30 2064 H 199.824 1.68403 -3.56419 0
M  V30 2065 H 201.112 2.58704 -4.38121 0
M  V30 2066 H 200.51 5.10509 -2.43715 0
M  V30 2067 H 199.067 5.70627 -3.15004 0
M  V30 2068 N 202.5 1.5196 0.417844 0
M  V30 2069 C 203.777 1.56146 1.17803 0
M  V30 2070 C 204.157 0.337275 2.08388 0
M  V30 2071 O 203.505 -0.676447 2.18258 0
M  V30 2072 C 203.715 2.88566 1.96293 0
M  V30 2073 C 205.063 3.41244 2.52662 0
M  V30 2074 O 206.087 2.90247 2.06483 0
M  V30 2075 O 204.946 4.30273 3.36938 0
M  V30 2076 H 202.04 0.628598 0.537395 0
M  V30 2077 H 204.586 1.64283 0.425331 0
M  V30 2078 H 203.358 3.69116 1.2988 0
M  V30 2079 H 202.981 2.83681 2.78587 0
M  V30 2080 N 203.978 -0.674533 1.42435 0
M  V30 2081 C 204.908 -1.80009 1.48724 0
M  V30 2082 C 205.889 -1.6659 0.343793 0
M  V30 2083 O 207.074 -1.86007 0.558137 0
M  V30 2084 C 204.204 -3.18306 1.38919 0
M  V30 2085 C 203.158 -3.46461 2.51294 0
M  V30 2086 C 202.484 -4.84335 2.26547 0
M  V30 2087 C 203.784 -3.43328 3.93603 0
M  V30 2088 H 205.478 -1.75004 2.42928 0
M  V30 2089 H 203.024 -0.840533 1.16923 0
M  V30 2090 H 204.977 -3.9678 1.41927 0
M  V30 2091 H 203.701 -3.2399 0.412094 0
M  V30 2092 H 202.36 -2.70348 2.47604 0
M  V30 2093 H 202.008 -4.86669 1.2713 0
M  V30 2094 H 201.708 -5.04136 3.01861 0
M  V30 2095 H 203.232 -5.65094 2.31304 0
M  V30 2096 H 204.646 -4.11772 3.98894 0
M  V30 2097 H 203.043 -3.74664 4.68771 0
M  V30 2098 H 204.113 -2.41897 4.20255 0
M  V30 2099 N 205.456 -1.28612 -0.910864 0
M  V30 2100 C 206.403 -1.12786 -2.01365 0
M  V30 2101 C 207.373 -0.024201 -1.66082 0
M  V30 2102 O 208.558 -0.189667 -1.89855 0
M  V30 2103 C 205.698 -0.798743 -3.35729 0
M  V30 2104 C 204.811 -1.98173 -3.83864 0
M  V30 2105 C 203.946 -1.59298 -5.06752 0
M  V30 2106 C 202.985 -2.74245 -5.47226 0
M  V30 2107 N 202.122 -2.35842 -6.61304 0
M  V30 2108 H 206.962 -2.07142 -2.14234 0
M  V30 2109 H 204.499 -1.03093 -1.0493 0
M  V30 2110 H 206.457 -0.588662 -4.13026 0
M  V30 2111 H 205.087 0.10789 -3.2262 0
M  V30 2112 H 204.139 -2.30386 -3.02699 0
M  V30 2113 H 205.451 -2.84343 -4.09818 0
M  V30 2114 H 204.605 -1.34513 -5.916 0
M  V30 2115 H 203.344 -0.702618 -4.82612 0
M  V30 2116 H 202.349 -2.99725 -4.60918 0
M  V30 2117 H 203.574 -3.63928 -5.73353 0
M  V30 2118 H 201.52 -1.49279 -6.38789 0
M  V30 2119 H 201.437 -3.15546 -6.86998 0
M  V30 2120 H 202.705 -2.14348 -7.4945 0
M  V30 2121 N 206.934 1.1197 -1.10907 0
M  V30 2122 C 207.897 2.16031 -0.765707 0
M  V30 2123 C 208.897 1.59393 0.212235 0
M  V30 2124 O 210.087 1.74196 -0.0115441 0
M  V30 2125 C 207.219 3.40632 -0.135053 0
M  V30 2126 H 208.412 2.47919 -1.68748 0
M  V30 2127 H 205.965 1.27061 -0.910226 0
M  V30 2128 H 206.7 3.14348 0.797218 0
M  V30 2129 H 206.485 3.8302 -0.838937 0
M  V30 2130 H 207.975 4.17505 0.0892469 0
M  V30 2131 N 208.412 0.89855 1.29475 0
M  V30 2132 C 209.689 0.443416 1.90508 0
M  V30 2133 C 210.069 -1.07685 1.81569 0
M  V30 2134 O 209.417 -1.9182 1.24166 0
M  V30 2135 C 209.627 0.956708 3.35631 0
M  V30 2136 C 210.975 0.999728 4.12663 0
M  V30 2137 O 211.999 0.904299 3.4453 0
M  V30 2138 O 210.858 1.14289 5.34416 0
M  V30 2139 H 207.952 0.138025 0.815401 0
M  V30 2140 H 210.498 0.98834 1.37949 0
M  V30 2141 H 209.27 2.00067 3.36287 0
M  V30 2142 H 208.893 0.391728 3.95666 0
M  V30 2143 N 209.89 -1.43072 0.660911 0
M  V30 2144 C 210.84 -2.27948 -0.04847 0
M  V30 2145 C 211.824 -1.40325 -0.787246 0
M  V30 2146 O 213.016 -1.63893 -0.668446 0
M  V30 2147 C 210.145 -3.28143 -1.00881 0
M  V30 2148 C 209.231 -4.23252 -0.268108 0
M  V30 2149 N 209.622 -5.00656 0.719528 0
M  V30 2150 C 207.92 -4.43092 -0.508493 0
M  V30 2151 C 208.621 -5.70019 1.15988 0
M  V30 2152 N 207.597 -5.41364 0.492584 0
M  V30 2153 H 211.399 -2.85213 0.709279 0
M  V30 2154 H 208.913 -1.54869 0.488822 0
M  V30 2155 H 210.91 -3.87736 -1.53188 0
M  V30 2156 H 209.57 -2.7244 -1.76654 0
M  V30 2157 H 210.581 -5.06115 1.09855 0
M  V30 2158 H 207.258 -3.98449 -1.24679 0
M  V30 2159 H 208.648 -6.4214 1.97751 0
M  V30 2160 N 211.368 -0.403325 -1.52352 0
M  V30 2161 C 212.645 0.232611 -1.94212 0
M  V30 2162 C 213.025 1.63133 -1.33981 0
M  V30 2163 O 212.373 2.22659 -0.513344 0
M  V30 2164 C 212.583 0.244811 -3.4814 0
M  V30 2165 C 213.931 0.46698 -4.22024 0
M  V30 2166 O 214.955 0.324419 -3.5472 0
M  V30 2167 O 213.814 0.74747 -5.41364 0
M  V30 2168 H 210.908 0.148223 -0.813609 0
M  V30 2169 H 213.454 -0.458848 -1.63379 0
M  V30 2170 H 212.226 -0.734378 -3.84347 0
M  V30 2171 H 211.849 0.980611 -3.85318 0
M  V30 2172 N 212.846 1.57033 -0.133567 0
M  V30 2173 C 213.809 2.14897 0.796995 0
M  V30 2174 C 214.809 1.0874 1.18458 0
M  V30 2175 O 215.999 1.34446 1.1077 0
M  V30 2176 C 213.131 2.70112 2.07973 0
M  V30 2177 H 214.324 2.98457 0.293873 0
M  V30 2178 H 211.877 1.55871 0.115787 0
M  V30 2179 H 212.612 1.9018 2.62682 0
M  V30 2180 H 212.397 3.47764 1.81115 0
M  V30 2181 H 213.887 3.14738 2.74462 0
M  V30 2182 N 214.325 -0.140222 1.56975 0
M  V30 2183 C 215.255 -1.17456 2.01808 0
M  V30 2184 C 216.236 -1.44415 0.898794 0
M  V30 2185 O 217.421 -1.5522 1.16707 0
M  V30 2186 C 214.551 -2.50607 2.40444 0
M  V30 2187 C 213.505 -2.38155 3.55621 0
M  V30 2188 C 212.831 -3.76078 3.80091 0
M  V30 2189 C 214.131 -1.85991 4.88062 0
M  V30 2190 H 215.825 -0.801743 2.88466 0
M  V30 2191 H 213.371 -0.38422 1.38779 0
M  V30 2192 H 215.324 -3.23197 2.7041 0
M  V30 2193 H 214.048 -2.89737 1.50732 0
M  V30 2194 H 212.707 -1.68016 3.25832 0
M  V30 2195 H 212.355 -4.12656 2.87618 0
M  V30 2196 H 212.055 -3.68606 4.57606 0
M  V30 2197 H 213.579 -4.50206 4.12488 0
M  V30 2198 H 214.993 -2.4838 5.16701 0
M  V30 2199 H 213.39 -1.89393 5.6943 0
M  V30 2200 H 214.46 -0.816023 4.77984 0
M  V30 2201 N 215.803 -1.52179 -0.40978 0
M  V30 2202 C 216.733 -1.78435 -1.5061 0
M  V30 2203 C 217.714 -0.635295 -1.57791 0
M  V30 2204 O 218.899 -0.880823 -1.73076 0
M  V30 2205 C 216.029 -1.93444 -2.88439 0
M  V30 2206 C 214.983 -3.09038 -2.96108 0
M  V30 2207 C 214.309 -3.09268 -4.36185 0
M  V30 2208 C 215.609 -4.48508 -2.67652 0
M  V30 2209 H 217.303 -2.70237 -1.28889 0
M  V30 2210 H 214.849 -1.30036 -0.618605 0
M  V30 2211 H 216.802 -2.10394 -3.65119 0
M  V30 2212 H 215.526 -0.983129 -3.11452 0
M  V30 2213 H 214.185 -2.91837 -2.21872 0
M  V30 2214 H 213.833 -2.11861 -4.56206 0
M  V30 2215 H 213.533 -3.86907 -4.42241 0
M  V30 2216 H 215.057 -3.28348 -5.14801 0
M  V30 2217 H 216.471 -4.65918 -3.34056 0
M  V30 2218 H 214.868 -5.28059 -2.85085 0
M  V30 2219 H 215.938 -4.56649 -1.63095 0
M  V30 2220 N 217.281 0.66697 -1.42791 0
M  V30 2221 C 218.528 1.42699 -1.43678 0
M  V30 2222 C 218.856 1.94419 -0.0560425 0
M  V30 2223 O 218.111 1.7182 0.936831 0
M  V30 2224 C 218.41 2.6349 -2.4147 0
M  V30 2225 C 218.076 2.30267 -3.8767 0
M  V30 2226 C 216.738 2.20918 -4.27491 0
M  V30 2227 C 219.09 2.03435 -4.79858 0
M  V30 2228 C 216.418 1.82873 -5.57471 0
M  V30 2229 C 218.77 1.66892 -6.10188 0
M  V30 2230 C 217.434 1.56058 -6.49001 0
M  V30 2231 H 216.704 0.522171 -0.525755 0
M  V30 2232 H 219.351 0.759785 -1.75783 0
M  V30 2233 H 217.656 3.35279 -2.0272 0
M  V30 2234 H 219.353 3.21684 -2.39417 0
M  V30 2235 H 215.943 2.38449 -3.56146 0
M  V30 2236 H 220.127 2.09586 -4.49875 0
M  V30 2237 H 215.383 1.7306 -5.86396 0
M  V30 2238 H 219.557 1.45157 -6.81104 0
M  V30 2239 H 217.184 1.26348 -7.49627 0
M  V30 2240 N 218.759 1.29093 0.90403 0
M  V30 2241 C 219.709 1.10482 1.99443 0
M  V30 2242 C 220.693 0.0255401 1.6088 0
M  V30 2243 O 221.885 0.24677 1.75271 0
M  V30 2244 C 219.014 0.778882 3.34348 0
M  V30 2245 C 218.1 1.89749 3.79284 0
M  V30 2246 N 218.491 3.14045 3.96497 0
M  V30 2247 C 216.789 1.78955 4.08523 0
M  V30 2248 C 217.49 3.86996 4.34292 0
M  V30 2249 N 216.466 3.14909 4.43095 0
M  V30 2250 H 220.268 2.04778 2.10815 0
M  V30 2251 H 217.782 1.20155 1.09255 0
M  V30 2252 H 219.779 0.62661 4.12164 0
M  V30 2253 H 218.439 -0.156205 3.24324 0
M  V30 2254 H 219.45 3.49548 3.82148 0
M  V30 2255 H 216.127 0.926886 4.07081 0
M  V30 2256 H 217.517 4.93941 4.55491 0
M  V30 2257 N 220.237 -1.11381 1.11499 0
M  V30 2258 C 221.167 -2.19509 0.796125 0
M  V30 2259 C 222.148 -1.68458 -0.235796 0
M  V30 2260 O 223.333 -1.93947 -0.0991344 0
M  V30 2261 C 220.463 -3.46475 0.239205 0
M  V30 2262 C 219.417 -4.10744 1.20307 0
M  V30 2263 C 218.743 -5.32293 0.50683 0
M  V30 2264 C 220.043 -4.55597 2.55399 0
M  V30 2265 H 221.737 -2.46439 1.70024 0
M  V30 2266 H 219.283 -1.18446 0.818935 0
M  V30 2267 H 221.236 -4.214 0.00392006 0
M  V30 2268 H 219.96 -3.19006 -0.700206 0
M  V30 2269 H 218.619 -3.37813 1.42399 0
M  V30 2270 H 218.267 -5.01095 -0.437408 0
M  V30 2271 H 217.967 -5.76243 1.1497 0
M  V30 2272 H 219.491 -6.09956 0.280351 0
M  V30 2273 H 220.905 -5.21841 2.37391 0
M  V30 2274 H 219.302 -5.10363 3.15673 0
M  V30 2275 H 220.372 -3.69013 3.14575 0
M  V30 2276 N 221.715 -0.905404 -1.28997 0
M  V30 2277 C 222.662 -0.385892 -2.27551 0
M  V30 2278 C 223.632 0.535113 -1.57244 0
M  V30 2279 O 224.817 0.459119 -1.85194 0
M  V30 2280 C 221.957 0.375461 -3.43051 0
M  V30 2281 C 221.07 -0.577092 -4.28128 0
M  V30 2282 C 220.205 0.201879 -5.30816 0
M  V30 2283 C 219.244 -0.744829 -6.07551 0
M  V30 2284 N 218.381 9.42587e-05 -7.021 0
M  V30 2285 H 223.221 -1.23139 -2.71368 0
M  V30 2286 H 220.758 -0.618542 -1.33463 0
M  V30 2287 H 222.716 0.832992 -4.088 0
M  V30 2288 H 221.346 1.18537 -3.00248 0
M  V30 2289 H 220.398 -1.15315 -3.62501 0
M  V30 2290 H 221.71 -1.30152 -4.8152 0
M  V30 2291 H 220.864 0.720351 -6.02408 0
M  V30 2292 H 219.603 0.959413 -4.7817 0
M  V30 2293 H 218.608 -1.27475 -5.34818 0
M  V30 2294 H 219.833 -1.50178 -6.62286 0
M  V30 2295 H 217.779 0.739791 -6.51815 0
M  V30 2296 H 217.696 -0.664321 -7.53076 0
M  V30 2297 H 218.964 0.498644 -7.77903 0
M  V30 2298 N 223.193 1.4272 -0.668489 0
M  V30 2299 C 224.143 2.27971 0.0363806 0
M  V30 2300 C 225.127 1.40741 0.779794 0
M  V30 2301 O 226.319 1.64245 0.659745 0
M  V30 2302 C 223.448 3.28673 0.991398 0
M  V30 2303 C 222.534 4.23388 0.245658 0
M  V30 2304 N 222.925 5.00267 -0.746069 0
M  V30 2305 C 221.223 4.43355 0.484988 0
M  V30 2306 C 221.924 5.69396 -1.19009 0
M  V30 2307 N 220.9 5.41095 -0.521287 0
M  V30 2308 H 224.702 2.84833 -0.724394 0
M  V30 2309 H 222.216 1.54607 -0.497028 0
M  V30 2310 H 224.213 3.88543 1.51129 0
M  V30 2311 H 222.873 2.73373 1.75207 0
M  V30 2312 H 223.884 5.05525 -1.12537 0
M  V30 2313 H 220.561 3.99104 1.22565 0
M  V30 2314 H 221.951 6.41083 -2.01153 0
M  V30 2315 N 224.671 0.411399 1.52136 0
M  V30 2316 C 225.918 -0.163645 2.01838 0
M  V30 2317 C 226.246 -1.4495 1.29691 0
M  V30 2318 O 225.501 -1.91725 0.392431 0
M  V30 2319 C 225.8 -0.455872 3.54481 0
M  V30 2320 C 225.466 0.741055 4.44769 0
M  V30 2321 C 224.128 1.06936 4.69167 0
M  V30 2322 C 226.48 1.54075 4.97906 0
M  V30 2323 C 223.808 2.19851 5.43951 0
M  V30 2324 C 226.16 2.66067 5.73926 0
M  V30 2325 C 224.824 2.99381 5.96596 0
M  V30 2326 H 224.094 -0.0598821 0.738576 0
M  V30 2327 H 226.741 0.553283 1.83333 0
M  V30 2328 H 225.046 -1.2544 3.71177 0
M  V30 2329 H 226.743 -0.913802 3.90449 0
M  V30 2330 H 223.333 0.475192 4.25958 0
M  V30 2331 H 227.517 1.30033 4.78963 0
M  V30 2332 H 222.773 2.46006 5.59724 0
M  V30 2333 H 226.947 3.28419 6.14096 0
M  V30 2334 H 224.574 3.86992 6.54325 0
M  V30 2335 N 226.149 -1.5696 0.141893 0
M  V30 2336 C 227.56 -1.82797 -0.379776 0
M  V30 2337 C 227.911 -1.06033 -1.6508 0
M  V30 2338 O 227.036 -0.304011 -2.14254 0
M  V30 2339 C 227.631 -3.31578 -0.695802 0
M  V30 2340 C 226.19 -3.58014 -1.16201 0
M  V30 2341 C 225.337 -2.76699 -0.182455 0
M  V30 2342 H 228.288 -1.54406 0.366675 0
M  V30 2343 H 228.309 -3.47454 -1.55099 0
M  V30 2344 H 227.821 -3.87421 0.229449 0
M  V30 2345 H 225.922 -3.07553 -2.10338 0
M  V30 2346 H 226.035 -4.66501 -1.09151 0
M  V30 2347 H 224.399 -2.45618 -0.674072 0
M  V30 2348 H 225.182 -3.35311 0.736297 0
M  V30 2349 N 227.627 0.131896 -1.57047 0
M  V30 2350 C 228.873 0.843179 -1.84441 0
M  V30 2351 C 229.206 1.80129 -0.725749 0
M  V30 2352 O 228.481 1.92624 0.269469 0
M  V30 2353 C 228.764 1.60442 -3.22382 0
M  V30 2354 C 228.617 0.666782 -4.4483 0
M  V30 2355 C 229.936 2.56354 -3.5773 0
M  V30 2356 H 227.055 0.305081 -0.670891 0
M  V30 2357 H 229.697 0.107839 -1.89694 0
M  V30 2358 H 227.847 2.23128 -3.18035 0
M  V30 2359 H 229.519 0.0497646 -4.61273 0
M  V30 2360 H 227.762 -0.022609 -4.33794 0
M  V30 2361 H 228.433 1.23579 -5.37989 0
M  V30 2362 H 230.909 2.0378 -3.62785 0
M  V30 2363 H 229.785 3.06657 -4.5525 0
M  V30 2364 H 230.046 3.38419 -2.84473 0
M  V30 2365 N 229.106 1.52395 0.401703 0
M  V30 2366 C 230.383 1.57387 1.16141 0
M  V30 2367 C 230.763 0.359359 2.08019 0
M  V30 2368 O 230.111 -0.65326 2.18963 0
M  V30 2369 C 230.321 2.90631 1.93221 0
M  V30 2370 C 231.669 3.43904 2.49028 0
M  V30 2371 O 232.693 2.92421 2.03393 0
M  V30 2372 O 231.552 4.33823 3.32356 0
M  V30 2373 H 228.646 0.634262 0.530698 0
M  V30 2374 H 231.192 1.64725 0.407883 0
M  V30 2375 H 229.964 3.70473 1.25958 0
M  V30 2376 H 229.587 2.8662 2.75563 0
M  V30 2377 N 230.584 -0.659388 1.43143 0
M  V30 2378 C 231.514 -1.78422 1.50625 0
M  V30 2379 C 232.495 -1.66216 0.361443 0
M  V30 2380 O 233.68 -1.85404 0.577834 0
M  V30 2381 C 230.81 -3.16815 1.42287 0
M  V30 2382 C 229.764 -3.43777 2.54954 0
M  V30 2383 C 229.09 -4.81905 2.31671 0
M  V30 2384 C 230.39 -3.39134 3.97222 0
M  V30 2385 H 232.084 -1.72417 2.44771 0
M  V30 2386 H 229.63 -0.828084 1.17808 0
M  V30 2387 H 231.583 -3.95253 1.46127 0
M  V30 2388 H 230.307 -3.23534 0.446435 0
M  V30 2389 H 228.966 -2.67707 2.50457 0
M  V30 2390 H 228.614 -4.85294 1.32284 0
M  V30 2391 H 228.314 -5.00906 3.07192 0
M  V30 2392 H 229.838 -5.62609 2.37284 0
M  V30 2393 H 231.252 -4.07518 4.03239 0
M  V30 2394 H 229.649 -3.69671 4.72719 0
M  V30 2395 H 230.719 -2.37426 4.22797 0
M  V30 2396 N 232.062 -1.29571 -0.897171 0
M  V30 2397 C 233.478 -1.07637 -1.17841 0
M  V30 2398 C 233.678 0.170713 -2.00776 0
M  V30 2399 O 232.734 0.867768 -2.3712 0
M  V30 2400 C 234.047 -2.3332 -1.8969 0
M  V30 2401 C 235.595 -2.38664 -2.02505 0
M  V30 2402 C 236.07 -3.64157 -2.77765 0
M  V30 2403 N 237.561 -3.64894 -2.85318 0
M  V30 2404 C 238.296 -4.58679 -3.44094 0
M  V30 2405 N 237.792 -5.62799 -4.04017 0
M  V30 2406 N 239.585 -4.46245 -3.41793 0
M  V30 2407 H 231.736 -2.09598 -0.343883 0
M  V30 2408 H 233.999 -0.923333 -0.214848 0
M  V30 2409 H 233.705 -3.24262 -1.36187 0
M  V30 2410 H 233.579 -2.41025 -2.9015 0
M  V30 2411 H 235.966 -1.48208 -2.55183 0
M  V30 2412 H 236.047 -2.34943 -1.01171 0
M  V30 2413 H 235.691 -4.54965 -2.25763 0
M  V30 2414 H 235.621 -3.65137 -3.7945 0
M  V30 2415 H 238.112 -2.89613 -2.42761 0
M  V30 2416 H 238.425 -6.3048 -4.46895 0
M  V30 2417 H 236.77 -5.66605 -4.02472 0
M  V30 2418 H 239.961 -3.64094 -2.94199 0
M  V30 2419 H 240.134 -5.19518 -3.87304 0
M  V30 2420 N 233.54 1.10788 -1.12088 0
M  V30 2421 C 234.787 1.82671 -0.873931 0
M  V30 2422 C 235.115 1.85004 0.600311 0
M  V30 2423 O 234.37 1.30365 1.45957 0
M  V30 2424 C 234.669 3.29294 -1.38926 0
M  V30 2425 C 234.335 3.47113 -2.87791 0
M  V30 2426 C 232.997 3.51684 -3.28439 0
M  V30 2427 C 235.349 3.52808 -3.83635 0
M  V30 2428 C 232.677 3.59513 -4.63646 0
M  V30 2429 C 235.029 3.62169 -5.18668 0
M  V30 2430 C 233.693 3.65003 -5.58864 0
M  V30 2431 H 232.963 0.668441 -0.319794 0
M  V30 2432 H 235.61 1.30613 -1.40045 0
M  V30 2433 H 233.915 3.83894 -0.783122 0
M  V30 2434 H 235.612 3.83416 -1.17443 0
M  V30 2435 H 232.202 3.4423 -2.5535 0
M  V30 2436 H 236.386 3.4853 -3.53328 0
M  V30 2437 H 231.642 3.59987 -4.94185 0
M  V30 2438 H 235.816 3.6552 -5.92763 0
M  V30 2439 H 233.443 3.70822 -6.63623 0
M  V30 2440 N 235.018 0.912232 1.28515 0
M  V30 2441 C 236.264 0.545405 1.95328 0
M  V30 2442 C 236.597 -0.908313 1.71649 0
M  V30 2443 O 235.872 -1.64575 1.03659 0
M  V30 2444 C 236.155 0.853483 3.4984 0
M  V30 2445 C 236.008 2.35982 3.82926 0
M  V30 2446 C 237.327 0.348589 4.38717 0
M  V30 2447 H 234.446 0.199626 0.709449 0
M  V30 2448 H 237.088 1.1412 1.5191 0
M  V30 2449 H 235.238 0.34643 3.86952 0
M  V30 2450 H 236.91 2.93738 3.55691 0
M  V30 2451 H 235.153 2.81543 3.30024 0
M  V30 2452 H 235.824 2.52593 4.90816 0
M  V30 2453 H 238.3 0.78294 4.08668 0
M  V30 2454 H 237.176 0.593242 5.45685 0
M  V30 2455 H 237.437 -0.751049 4.35674 0
M  V30 2456 N 236.496 -1.42363 0.676048 0
M  V30 2457 C 237.459 -2.29199 0.00766941 0
M  V30 2458 C 238.459 -1.43389 -0.727745 0
M  V30 2459 O 239.649 -1.64764 -0.56556 0
M  V30 2460 C 236.781 -3.2591 -0.999785 0
M  V30 2461 H 237.974 -2.89794 0.771988 0
M  V30 2462 H 235.527 -1.50024 0.438468 0
M  V30 2463 H 236.262 -2.70256 -1.79255 0
M  V30 2464 H 236.047 -3.89202 -0.475829 0
M  V30 2465 H 237.537 -3.91028 -1.46583 0
M  V30 2466 N 237.974 -0.419461 -1.51915 0
M  V30 2467 C 239.214 0.152336 -2.03832 0
M  V30 2468 C 239.578 1.41501 -1.29775 0
M  V30 2469 O 240.779 2.06591 -1.7197 0
M  V30 2470 C 239.05 0.383812 -3.55333 0
M  V30 2471 S 240.609 0.921577 -4.29013 0
M  V30 2472 H 237.427 0.0402193 -0.709862 0
M  V30 2473 H 240.029 -0.574758 -1.8686 0
M  V30 2474 H 238.733 -0.541794 -4.06808 0
M  V30 2475 H 238.264 1.13849 -3.76566 0
M  V30 2476 H 240.279 2.20108 -4.4471 0
M  V30 2477 N 239.452 1.56882 -0.150215 0
M  V30 2478 C 240.384 2.14057 0.819286 0
M  V30 2479 C 241.397 1.09082 1.20851 0
M  V30 2480 O 242.586 1.36347 1.15203 0
M  V30 2481 C 239.686 2.65102 2.11127 0
M  V30 2482 C 238.859 3.94511 1.88891 0
M  V30 2483 C 237.918 4.30834 3.02107 0
M  V30 2484 O 236.944 4.99099 2.73659 0
M  V30 2485 N 238.146 3.90676 4.29363 0
M  V30 2486 H 240.911 2.97871 0.330618 0
M  V30 2487 H 238.472 1.61866 0.0332538 0
M  V30 2488 H 240.464 2.86411 2.85921 0
M  V30 2489 H 239.034 1.85994 2.51247 0
M  V30 2490 H 238.254 3.81795 0.981152 0
M  V30 2491 H 239.542 4.7907 1.71376 0
M  V30 2492 H 238.94 3.35677 4.55343 0
M  V30 2493 H 237.497 4.1703 5.00928 0
M  V30 2494 N 240.93 -0.123565 1.57115 0
M  V30 2495 C 241.863 -1.18202 1.95201 0
M  V30 2496 C 242.841 -1.40349 0.821031 0
M  V30 2497 O 244.025 -1.54578 1.07879 0
M  V30 2498 C 241.152 -2.53671 2.24429 0
M  V30 2499 C 240.198 -2.4798 3.46999 0
M  V30 2500 S 241.031 -1.92389 4.99747 0
M  V30 2501 C 242.187 -3.2954 5.32123 0
M  V30 2502 H 242.42 -0.857212 2.84674 0
M  V30 2503 H 239.953 -0.33014 1.50829 0
M  V30 2504 H 241.911 -3.3162 2.41947 0
M  V30 2505 H 240.572 -2.83332 1.35579 0
M  V30 2506 H 239.765 -3.47758 3.64801 0
M  V30 2507 H 239.367 -1.7815 3.28844 0
M  V30 2508 H 241.659 -4.25736 5.27025 0
M  V30 2509 H 242.602 -3.16569 6.33395 0
M  V30 2510 H 243.01 -3.27758 4.59603 0
M  V30 2511 N 242.408 -1.52605 -0.393616 0
M  V30 2512 C 243.318 -1.79971 -1.50492 0
M  V30 2513 C 244.334 -0.686181 -1.59899 0
M  V30 2514 O 245.51 -0.973274 -1.76322 0
M  V30 2515 C 242.575 -1.95867 -2.86072 0
M  V30 2516 C 241.636 -3.19781 -2.86424 0
M  V30 2517 C 240.869 -3.34909 -4.15538 0
M  V30 2518 O 241.092 -2.54948 -5.10253 0
M  V30 2519 O 240.026 -4.28141 -4.23059 0
M  V30 2520 H 243.852 -2.74328 -1.30299 0
M  V30 2521 H 241.437 -1.3764 -0.581005 0
M  V30 2522 H 243.319 -2.08056 -3.66457 0
M  V30 2523 H 241.994 -1.04699 -3.063 0
M  V30 2524 H 240.901 -3.13038 -2.04837 0
M  V30 2525 H 242.234 -4.1078 -2.71147 0
M  V30 2526 N 243.887 0.651787 -1.4349 0
M  V30 2527 C 244.817 1.77621 -1.51569 0
M  V30 2528 C 245.798 1.66022 -0.370253 0
M  V30 2529 O 246.983 1.85095 -0.587658 0
M  V30 2530 C 244.113 3.16056 -1.43966 0
M  V30 2531 C 243.067 3.4242 -2.56774 0
M  V30 2532 C 242.393 4.8067 -2.34223 0
M  V30 2533 C 243.693 3.37023 -3.99015 0
M  V30 2534 H 245.387 1.71117 -2.45681 0
M  V30 2535 H 242.933 0.821825 -1.18246 0
M  V30 2536 H 244.886 3.94472 -1.48221 0
M  V30 2537 H 243.61 3.23293 -0.463586 0
M  V30 2538 H 242.269 2.66375 -2.51873 0
M  V30 2539 H 241.917 4.84585 -1.34856 0
M  V30 2540 H 241.617 4.9927 -3.09844 0
M  V30 2541 H 243.141 5.61342 -2.40265 0
M  V30 2542 H 244.555 4.05374 -4.05395 0
M  V30 2543 H 242.952 3.67159 -4.74673 0
M  V30 2544 H 244.022 2.3518 -4.2405 0
M  V30 2545 N 245.365 1.30045 0.890287 0
M  V30 2546 C 246.295 1.18541 2.01172 0
M  V30 2547 C 247.276 0.0773356 1.69924 0
M  V30 2548 O 248.461 0.25845 1.92473 0
M  V30 2549 C 245.591 0.870941 3.36202 0
M  V30 2550 C 244.545 1.93637 3.81692 0
M  V30 2551 C 243.871 1.475 5.13953 0
M  V30 2552 C 245.171 3.34666 4.00994 0
M  V30 2553 H 246.865 2.12359 2.11054 0
M  V30 2554 H 244.411 1.02238 1.01407 0
M  V30 2555 H 246.364 0.777141 4.14172 0
M  V30 2556 H 245.088 -0.102926 3.26438 0
M  V30 2557 H 243.747 2.01972 3.05946 0
M  V30 2558 H 243.395 0.489551 5.00612 0
M  V30 2559 H 243.095 2.1876 5.4536 0
M  V30 2560 H 244.619 1.39489 5.94454 0
M  V30 2561 H 246.033 3.2912 4.69417 0
M  V30 2562 H 244.43 4.03966 4.43769 0
M  V30 2563 H 245.5 3.76949 3.05021 0
M  V30 2564 N 246.843 -1.10192 1.12674 0
M  V30 2565 C 247.793 -2.14754 0.765801 0
M  V30 2566 C 248.777 -1.59154 -0.236409 0
M  V30 2567 O 249.969 -1.76951 -0.0415261 0
M  V30 2568 C 247.098 -3.42563 0.224827 0
M  V30 2569 C 246.184 -4.05091 1.25548 0
M  V30 2570 N 246.575 -4.42287 2.4539 0
M  V30 2571 C 244.873 -4.32186 1.10142 0
M  V30 2572 C 245.574 -4.91441 3.11224 0
M  V30 2573 N 244.55 -4.88405 2.38666 0
M  V30 2574 H 248.352 -2.41309 1.67772 0
M  V30 2575 H 245.866 -1.27339 1.00789 0
M  V30 2576 H 247.863 -4.16868 -0.0519578 0
M  V30 2577 H 246.523 -3.17467 -0.681515 0
M  V30 2578 H 247.534 -4.33902 2.82754 0
M  V30 2579 H 244.211 -4.16735 0.252587 0
M  V30 2580 H 245.601 -5.29749 4.13298 0
M  V30 2581 N 248.321 -0.919034 -1.28029 0
M  V30 2582 C 249.546 -0.570357 -1.99403 0
M  V30 2583 C 249.971 0.842486 -1.68178 0
M  V30 2584 O 249.329 1.56391 -0.917141 0
M  V30 2585 C 249.377 -0.792541 -3.51783 0
M  V30 2586 O 248.481 0.145988 -4.12142 0
M  V30 2587 H 247.822 -0.220555 -0.6263 0
M  V30 2588 H 250.352 -1.23592 -1.63053 0
M  V30 2589 H 250.362 -0.704708 -4.01868 0
M  V30 2590 H 249.037 -1.82247 -3.73844 0
M  V30 2591 H 247.614 0.00897528 -3.72899 0
M  V30 2592 N 249.799 1.42003 -0.683588 0
M  V30 2593 C 250.747 2.326 0.000815408 0
M  V30 2594 C 251.741 1.50308 0.781278 0
M  V30 2595 O 252.947 1.66322 0.688251 0
M  V30 2596 H 249.322 0.751758 0.0190616 0
M  V30 2597 H 251.293 2.88011 -0.780528 0
M  V30 2598 C 250.042 3.34978 0.93195 0
M  V30 2599 H 249.365 3.98345 0.340817 0
M  V30 2600 H 250.805 4.00936 1.37936 0
M  V30 2601 C 249.264 2.67925 2.04249 0
M  V30 2602 O 249.794 2.51788 3.12995 0
M  V30 2603 N 248 2.2681 1.81675 0
M  V30 2604 H 247.547 2.40135 0.932363 0
M  V30 2605 H 247.505 1.8228 2.56167 0
M  V30 2606 N 251.277 0.427512 1.51691 0
M  V30 2607 C 252.525 -0.141948 2.01601 0
M  V30 2608 C 252.846 -1.44067 1.31414 0
M  V30 2609 O 252.116 -1.90763 0.445658 0
M  V30 2610 H 250.696 -0.0554468 0.744939 0
M  V30 2611 H 253.358 0.567968 1.86441 0
M  V30 2612 H 252.454 -0.324913 3.10404 0
M  V30 2613 N 252.755 -1.56801 0.158532 0
M  V30 2614 C 253.98 -2.01295 -0.499516 0
M  V30 2615 C 254.405 -1.03799 -1.56867 0
M  V30 2616 O 253.763 -0.0155162 -1.81293 0
M  V30 2617 C 253.811 -3.44469 -1.06647 0
M  V30 2618 O 252.915 -3.50012 -2.18095 0
M  V30 2619 H 252.256 -0.652884 -0.12099 0
M  V30 2620 H 254.786 -2.02958 0.258661 0
M  V30 2621 H 254.796 -3.8351 -1.39227 0
M  V30 2622 H 253.471 -4.14932 -0.283581 0
M  V30 2623 H 252.048 -3.22822 -1.86656 0
M  V30 2624 N 254.233 0.115231 -1.57178 0
M  V30 2625 C 255.165 1.16694 -1.97269 0
M  V30 2626 C 256.178 1.37445 -0.872502 0
M  V30 2627 O 257.367 1.36454 -1.15077 0
M  V30 2628 C 254.467 2.52627 -2.25905 0
M  V30 2629 C 253.64 2.52427 -3.57211 0
M  V30 2630 C 252.699 3.70134 -3.74016 0
M  V30 2631 O 251.725 3.53546 -4.46087 0
M  V30 2632 N 252.927 4.88844 -3.13068 0
M  V30 2633 H 255.692 0.82588 -2.88096 0
M  V30 2634 H 253.253 0.304461 -1.59011 0
M  V30 2635 H 255.245 3.29937 -2.34359 0
M  V30 2636 H 253.815 2.789 -1.41186 0
M  V30 2637 H 253.035 1.60805 -3.5991 0
M  V30 2638 H 254.323 2.49353 -4.43509 0
M  V30 2639 H 253.721 5.05225 -2.54489 0
M  V30 2640 H 252.278 5.63817 -3.27037 0
M  V30 2641 N 255.711 1.52812 0.385517 0
M  V30 2642 C 257.127 1.4214 0.725829 0
M  V30 2643 C 257.327 0.544589 1.94001 0
M  V30 2644 O 256.383 0.0193693 2.52493 0
M  V30 2645 C 257.696 2.85042 0.957668 0
M  V30 2646 C 259.244 2.94543 1.05892 0
M  V30 2647 C 259.719 4.38464 1.32337 0
M  V30 2648 N 261.21 4.41804 1.39151 0
M  V30 2649 C 261.945 5.5025 1.61285 0
M  V30 2650 N 261.441 6.68775 1.80866 0
M  V30 2651 N 263.234 5.37798 1.63492 0
M  V30 2652 H 255.385 2.08338 -0.413383 0
M  V30 2653 H 257.648 0.940016 -0.122775 0
M  V30 2654 H 257.354 3.51431 0.137568 0
M  V30 2655 H 257.228 3.27505 1.87137 0
M  V30 2656 H 259.615 2.28321 1.86959 0
M  V30 2657 H 259.696 2.55504 0.123057 0
M  V30 2658 H 259.34 5.05254 0.517793 0
M  V30 2659 H 259.27 4.75059 2.27214 0
M  V30 2660 H 261.761 3.56377 1.25713 0
M  V30 2661 H 262.074 7.47197 1.97271 0
M  V30 2662 H 260.419 6.71797 1.78083 0
M  V30 2663 H 263.61 4.44171 1.47749 0
M  V30 2664 H 263.783 6.22382 1.80402 0
M  V30 2665 N 257.189 -0.644168 1.43834 0
M  V30 2666 C 258.417 -1.43147 1.49387 0
M  V30 2667 C 258.832 -1.88452 0.114583 0
M  V30 2668 O 258.189 -1.60047 -0.876989 0
M  V30 2669 C 258.24 -2.66046 2.44748 0
M  V30 2670 O 257.961 -2.22633 3.77314 0
M  V30 2671 C 259.462 -3.59311 2.59635 0
M  V30 2672 H 256.682 -0.439447 0.507077 0
M  V30 2673 H 259.226 -0.78895 1.88669 0
M  V30 2674 H 257.381 -3.26418 2.08638 0
M  V30 2675 H 257.795 -3.02216 4.28679 0
M  V30 2676 H 259.269 -4.42187 3.30416 0
M  V30 2677 H 259.746 -4.07259 1.64427 0
M  V30 2678 H 260.352 -3.04816 2.96593 0
M  V30 2679 N 258.668 -1.30515 -0.883378 0
M  V30 2680 C 259.908 -1.20716 -1.64946 0
M  V30 2681 C 260.272 0.234072 -1.90568 0
M  V30 2682 O 261.473 0.455335 -2.64915 0
M  V30 2683 C 259.744 -2.01444 -2.9522 0
M  V30 2684 S 261.303 -2.0836 -3.86175 0
M  V30 2685 H 258.121 -0.430165 -0.566109 0
M  V30 2686 H 260.723 -1.65011 -1.04841 0
M  V30 2687 H 259.427 -3.05268 -2.74298 0
M  V30 2688 H 258.958 -1.57817 -3.60357 0
M  V30 2689 H 260.973 -1.21215 -4.81167 0
M  V30 2690 N 260.146 1.09593 -1.13257 0
M  V30 2691 C 261.386 1.83349 -0.903472 0
M  V30 2692 C 261.75 1.83641 0.560351 0
M  V30 2693 O 262.951 2.53037 0.906947 0
M  V30 2694 C 261.222 3.25629 -1.47311 0
M  V30 2695 S 262.781 4.16408 -1.38382 0
M  V30 2696 H 259.599 0.632014 -0.325699 0
M  V30 2697 H 262.201 1.31817 -1.44376 0
M  V30 2698 H 260.905 3.22991 -2.53189 0
M  V30 2699 H 260.436 3.82233 -0.930689 0
M  V30 2700 H 262.451 4.94884 -0.361113 0
M  V30 2701 N 261.624 0.925811 1.2754 0
M  V30 2702 C 263.035 0.610102 1.7645 0
M  V30 2703 C 263.386 -0.874723 1.75622 0
M  V30 2704 O 262.511 -1.68444 1.35851 0
M  V30 2705 C 263.106 1.10073 3.20421 0
M  V30 2706 C 261.665 0.835723 3.67005 0
M  V30 2707 C 260.812 1.26054 2.46993 0
M  V30 2708 H 263.763 1.10579 1.13833 0
M  V30 2709 H 263.784 0.447557 3.77859 0
M  V30 2710 H 263.296 2.18143 3.20991 0
M  V30 2711 H 261.397 -0.231249 3.71882 0
M  V30 2712 H 261.51 1.45193 4.56569 0
M  V30 2713 H 259.874 0.679111 2.45479 0
M  V30 2714 H 260.657 2.34984 2.50275 0
M  V30 2715 N 263.102 -1.41638 0.69111 0
M  V30 2716 C 264.348 -2.01598 0.220519 0
M  V30 2717 C 264.681 -1.54594 -1.17535 0
M  V30 2718 O 263.956 -0.755177 -1.79241 0
M  V30 2719 C 264.239 -3.59062 0.273243 0
M  V30 2720 C 264.092 -4.16203 1.70573 0
M  V30 2721 C 265.411 -4.38546 -0.369457 0
M  V30 2722 H 262.53 -0.732468 0.0816045 0
M  V30 2723 H 265.172 -1.68445 0.878986 0
M  V30 2724 H 263.322 -3.87435 -0.287411 0
M  V30 2725 H 264.994 -3.98722 2.31989 0
M  V30 2726 H 263.237 -3.71414 2.2413 0
M  V30 2727 H 263.908 -5.25358 1.69419 0
M  V30 2728 H 266.384 -4.1596 0.107977 0
M  V30 2729 H 265.26 -5.48069 -0.302002 0
M  V30 2730 H 265.521 -4.17662 -1.44951 0
M  V30 2731 N 264.58 -0.43555 -1.51462 0
M  V30 2732 C 265.528 0.391205 -2.29287 0
M  V30 2733 C 266.522 1.02247 -1.35062 0
M  V30 2734 O 267.728 0.957646 -1.52411 0
M  V30 2735 H 264.103 0.144968 -0.737895 0
M  V30 2736 H 266.074 -0.286051 -2.97026 0
M  V30 2737 C 264.823 1.48096 -3.14583 0
M  V30 2738 H 264.146 1.00457 -3.86973 0
M  V30 2739 H 265.586 2.03273 -3.72097 0
M  V30 2740 C 264.045 2.46321 -2.29843 0
M  V30 2741 O 264.575 3.50815 -1.95682 0
M  V30 2742 N 262.781 2.17166 -1.931 0
M  V30 2743 H 262.328 1.32218 -2.21079 0
M  V30 2744 H 262.286 2.83127 -1.36698 0
M  V30 2745 N 266.058 1.56714 -0.166846 0
M  V30 2746 C 267.304 1.97813 0.473473 0
M  V30 2747 C 267.659 1.05095 1.61161 0
M  V30 2748 O 266.952 0.0897541 1.9139 0
M  V30 2749 C 267.146 3.42889 1.00806 0
M  V30 2750 C 266.975 4.49635 -0.0767392 0
M  V30 2751 C 265.745 5.02566 -0.524894 0
M  V30 2752 C 267.943 5.06793 -0.875504 0
M  V30 2753 N 265.925 5.9294 -1.59047 0
M  V30 2754 C 267.296 5.93565 -1.79111 0
M  V30 2755 C 269.351 4.89306 -0.921083 0
M  V30 2756 C 268.054 6.64721 -2.74843 0
M  V30 2757 C 270.08 5.61179 -1.86633 0
M  V30 2758 C 269.442 6.47675 -2.76942 0
M  V30 2759 H 265.541 0.769093 0.141489 0
M  V30 2760 H 268.125 1.92874 -0.266031 0
M  V30 2761 H 266.296 3.48382 1.7171 0
M  V30 2762 H 268.028 3.71008 1.61664 0
M  V30 2763 H 264.783 4.73439 -0.123432 0
M  V30 2764 H 265.207 6.42831 -2.12361 0
M  V30 2765 H 269.849 4.22136 -0.23692 0
M  V30 2766 H 267.567 7.31107 -3.44249 0
M  V30 2767 H 271.153 5.49636 -1.90764 0
M  V30 2768 H 270.033 7.02313 -3.48893 0
M  V30 2769 N 267.536 -0.106894 1.57237 0
M  V30 2770 C 268.782 -0.81373 1.85759 0
M  V30 2771 C 269.115 -1.78952 0.754315 0
M  V30 2772 O 268.39 -1.93029 -0.23879 0
M  V30 2773 C 268.673 -1.55293 3.24894 0
M  V30 2774 C 268.526 -0.595929 4.45835 0
M  V30 2775 C 269.845 -2.5063 3.61763 0
M  V30 2776 H 266.964 -0.294369 0.67566 0
M  V30 2777 H 269.606 -0.0776472 1.89841 0
M  V30 2778 H 267.756 -2.1804 3.21544 0
M  V30 2779 H 269.428 0.0236262 4.61294 0
M  V30 2780 H 267.671 0.0916191 4.33703 0
M  V30 2781 H 268.342 -1.15004 5.39887 0
M  V30 2782 H 270.818 -1.97982 3.65981 0
M  V30 2783 H 269.694 -2.99376 4.60071 0
M  V30 2784 H 269.955 -3.3385 2.89821 0
M  V30 2785 N 269.014 -1.53014 -0.377408 0
M  V30 2786 C 269.924 -1.81557 -1.48574 0
M  V30 2787 C 270.94 -0.703102 -1.59162 0
M  V30 2788 O 272.116 -0.99192 -1.75279 0
M  V30 2789 C 269.181 -1.9889 -2.83978 0
M  V30 2790 C 268.242 -3.22801 -2.83016 0
M  V30 2791 C 267.475 -3.39298 -4.11962 0
M  V30 2792 O 267.698 -2.60345 -5.0752 0
M  V30 2793 O 266.632 -4.32604 -4.18494 0
M  V30 2794 H 270.458 -2.75695 -1.27382 0
M  V30 2795 H 268.043 -1.38248 -0.566373 0
M  V30 2796 H 269.925 -2.11931 -3.6423 0
M  V30 2797 H 268.6 -1.07942 -3.05172 0
M  V30 2798 H 267.507 -3.15193 -2.01505 0
M  V30 2799 H 268.84 -4.13632 -2.66775 0
M  V30 2800 N 270.492 0.636531 -1.44174 0
M  V30 2801 C 271.442 1.74233 -1.47061 0
M  V30 2802 C 272.426 1.57331 -0.337034 0
M  V30 2803 O 273.618 1.67159 -0.581973 0
M  V30 2804 C 270.747 3.12897 -1.41246 0
M  V30 2805 C 269.833 3.35288 -2.59698 0
M  V30 2806 N 270.224 3.2807 -3.84972 0
M  V30 2807 C 268.522 3.66065 -2.54778 0
M  V30 2808 C 269.223 3.51001 -4.63867 0
M  V30 2809 N 268.199 3.73616 -3.94857 0
M  V30 2810 H 272.001 1.67103 -2.41773 0
M  V30 2811 H 269.515 0.838806 -1.3906 0
M  V30 2812 H 271.512 3.92189 -1.41398 0
M  V30 2813 H 270.172 3.21197 -0.47569 0
M  V30 2814 H 271.183 3.07109 -4.17019 0
M  V30 2815 H 267.86 3.81379 -1.6987 0
M  V30 2816 H 269.25 3.51059 -5.72894 0
M  V30 2817 N 271.97 1.30982 0.876444 0
M  V30 2818 C 272.902 1.13902 1.98894 0
M  V30 2819 C 273.915 0.0798815 1.62604 0
M  V30 2820 O 275.104 0.326743 1.75484 0
M  V30 2821 C 272.204 0.716699 3.31235 0
M  V30 2822 C 271.377 1.85945 3.95908 0
M  V30 2823 C 270.436 1.42426 5.06558 0
M  V30 2824 O 269.462 2.13287 5.27729 0
M  V30 2825 N 270.664 0.308025 5.79682 0
M  V30 2826 H 273.429 2.09724 2.14094 0
M  V30 2827 H 270.99 1.2323 1.05004 0
M  V30 2828 H 272.982 0.408403 4.02634 0
M  V30 2829 H 271.552 -0.149719 3.12241 0
M  V30 2830 H 270.772 2.33541 3.17573 0
M  V30 2831 H 272.06 2.62503 4.35855 0
M  V30 2832 H 271.458 -0.282241 5.64995 0
M  V30 2833 H 270.015 0.0592282 6.51773 0
M  V30 2834 N 273.449 -1.08991 1.13837 0
M  V30 2835 C 274.697 -1.80899 0.901098 0
M  V30 2836 C 275.018 -1.86356 -0.574134 0
M  V30 2837 O 274.288 -1.35235 -1.41733 0
M  V30 2838 H 272.868 -0.669966 0.330386 0
M  V30 2839 H 275.53 -1.318 1.43578 0
M  V30 2840 H 274.626 -2.83929 1.29578 0
M  V30 2841 N 274.927 -0.932562 -1.27047 0
M  V30 2842 C 276.152 -0.591474 -1.98787 0
M  V30 2843 C 276.577 0.824601 -1.69062 0
M  V30 2844 O 275.935 1.5541 -0.933677 0
M  V30 2845 C 275.983 -0.829808 -3.50922 0
M  V30 2846 O 275.087 0.102266 -4.12273 0
M  V30 2847 H 274.428 -0.227185 -0.623926 0
M  V30 2848 H 276.958 -1.25314 -1.61733 0
M  V30 2849 H 276.968 -0.747292 -4.01098 0
M  V30 2850 H 275.643 -1.86201 -3.7189 0
M  V30 2851 H 274.22 -0.0305761 -3.72887 0
M  V30 2852 N 276.405 1.4127 -0.698611 0
M  V30 2853 C 277.645 2.03044 -0.235062 0
M  V30 2854 C 278.009 1.54146 1.14468 0
M  V30 2855 O 279.21 2.07867 1.70425 0
M  V30 2856 C 277.481 3.56192 -0.293651 0
M  V30 2857 S 279.04 4.38696 0.0954053 0
M  V30 2858 H 275.858 0.704697 -0.0944648 0
M  V30 2859 H 278.46 1.72656 -0.917064 0
M  V30 2860 H 277.164 3.89274 -1.29977 0
M  V30 2861 H 276.695 3.91285 0.407397 0
M  V30 2862 H 278.71 4.78257 1.3223 0
M  V30 2863 N 277.883 0.443576 1.51229 0
M  V30 2864 C 279.113 -0.119117 2.06256 0
M  V30 2865 C 279.521 -1.36471 1.31043 0
M  V30 2866 O 278.864 -1.80034 0.365151 0
M  V30 2867 C 278.926 -0.500546 3.55998 0
M  V30 2868 C 278.59 0.639125 4.52509 0
M  V30 2869 C 279.587 1.51311 4.97394 0
M  V30 2870 C 277.272 0.821632 4.95535 0
M  V30 2871 C 279.266 2.55425 5.83984 0
M  V30 2872 C 276.953 1.86603 5.81913 0
M  V30 2873 C 277.951 2.73072 6.26036 0
M  V30 2874 O 277.639 3.75718 7.10698 0
M  V30 2875 H 277.371 -0.00857665 0.675946 0
M  V30 2876 H 279.925 0.623288 1.95715 0
M  V30 2877 H 278.155 -1.29575 3.64345 0
M  V30 2878 H 279.844 -0.995116 3.93513 0
M  V30 2879 H 280.61 1.38367 4.64844 0
M  V30 2880 H 276.489 0.158149 4.60729 0
M  V30 2881 H 280.033 3.22949 6.18344 0
M  V30 2882 H 275.93 1.99564 6.13876 0
M  V30 2883 H 276.698 3.72374 7.2889 0
M  V30 2884 N 279.361 -1.56624 0.175154 0
M  V30 2885 C 280.607 -1.98061 -0.462976 0
M  V30 2886 C 280.962 -1.05949 -1.60601 0
M  V30 2887 O 280.255 -0.0999027 -1.91339 0
M  V30 2888 C 280.449 -3.43419 -0.989864 0
M  V30 2889 C 280.278 -4.49587 0.100583 0
M  V30 2890 C 279.048 -5.02281 0.551539 0
M  V30 2891 C 281.246 -5.06322 0.902369 0
M  V30 2892 N 279.228 -5.92088 1.62189 0
M  V30 2893 C 280.599 -5.92607 1.82256 0
M  V30 2894 C 282.654 -4.88811 0.947019 0
M  V30 2895 C 281.357 -6.63254 2.78364 0
M  V30 2896 C 283.383 -5.60182 1.89606 0
M  V30 2897 C 282.745 -6.46197 2.80372 0
M  V30 2898 H 278.844 -0.769833 -0.137409 0
M  V30 2899 H 281.428 -1.9273 0.276256 0
M  V30 2900 H 279.599 -3.49288 -1.6986 0
M  V30 2901 H 281.331 -3.7186 -1.59694 0
M  V30 2902 H 278.086 -4.73367 0.148537 0
M  V30 2903 H 278.51 -6.41696 2.15767 0
M  V30 2904 H 283.152 -4.22004 0.259304 0
M  V30 2905 H 280.87 -7.29271 3.48122 0
M  V30 2906 H 284.456 -5.48617 1.93676 0
M  V30 2907 H 283.336 -7.00453 3.52612 0
M  V30 2908 N 280.839 0.0985539 -1.57292 0
M  V30 2909 C 282.086 0.802678 -1.85912 0
M  V30 2910 C 282.414 1.78901 -0.763186 0
M  V30 2911 O 281.669 1.94178 0.243559 0
M  V30 2912 C 281.968 1.56927 -3.21105 0
M  V30 2913 C 281.634 0.725376 -4.45027 0
M  V30 2914 C 280.296 0.492726 -4.78671 0
M  V30 2915 C 282.648 0.138493 -5.21016 0
M  V30 2916 C 279.976 -0.336727 -5.85733 0
M  V30 2917 C 282.328 -0.678264 -6.28953 0
M  V30 2918 C 280.992 -0.921039 -6.61115 0
M  V30 2919 H 280.262 0.293721 -0.680301 0
M  V30 2920 H 282.909 0.0642841 -1.91392 0
M  V30 2921 H 281.214 2.37914 -3.11294 0
M  V30 2922 H 282.911 2.11841 -3.40477 0
M  V30 2923 H 279.501 0.916815 -4.18679 0
M  V30 2924 H 283.685 0.305404 -4.95359 0
M  V30 2925 H 278.941 -0.533836 -6.09065 0
M  V30 2926 H 283.115 -1.1399 -6.87007 0
M  V30 2927 H 280.742 -1.56556 -7.43905 0
M  V30 2928 N 282.317 1.53212 0.369288 0
M  V30 2929 C 283.542 1.73423 1.1375 0
M  V30 2930 C 283.967 0.460404 1.82378 0
M  V30 2931 O 283.325 -0.585298 1.71592 0
M  V30 2932 C 283.373 2.89769 2.1463 0
M  V30 2933 O 282.477 2.58119 3.21634 0
M  V30 2934 H 281.818 0.576061 0.330227 0
M  V30 2935 H 284.348 2.00083 0.427547 0
M  V30 2936 H 284.358 3.15829 2.58294 0
M  V30 2937 H 283.033 3.8217 1.64071 0
M  V30 2938 H 281.61 2.42864 2.82969 0
M  V30 2939 N 283.795 -0.628877 1.44509 0
M  V30 2940 C 284.745 -1.7345 1.47983 0
M  V30 2941 C 285.729 -1.5715 0.345373 0
M  V30 2942 O 286.921 -1.66848 0.590829 0
M  V30 2943 C 284.05 -3.12143 1.42904 0
M  V30 2944 C 283.136 -3.33906 2.61472 0
M  V30 2945 N 283.527 -3.26024 3.86706 0
M  V30 2946 C 281.825 -3.64709 2.56716 0
M  V30 2947 C 282.526 -3.48536 4.65722 0
M  V30 2948 N 281.502 -3.71517 3.96832 0
M  V30 2949 H 285.304 -1.65818 2.42655 0
M  V30 2950 H 282.818 -0.831419 1.39503 0
M  V30 2951 H 284.815 -3.91433 1.43476 0
M  V30 2952 H 283.475 -3.2094 0.492717 0
M  V30 2953 H 284.486 -3.04893 4.18641 0
M  V30 2954 H 281.163 -3.80473 1.71891 0
M  V30 2955 H 282.553 -3.48016 5.74747 0
M  V30 2956 N 285.273 -1.31445 -0.869486 0
M  V30 2957 C 286.498 -1.24256 -1.66058 0
M  V30 2958 C 286.923 0.188928 -1.87149 0
M  V30 2959 O 286.281 1.13522 -1.4136 0
M  V30 2960 C 286.329 -1.9924 -3.00559 0
M  V30 2961 O 285.433 -1.33007 -3.90362 0
M  V30 2962 H 284.774 -0.428973 -0.506831 0
M  V30 2963 H 287.304 -1.73521 -1.08404 0
M  V30 2964 H 287.314 -2.08854 -3.50491 0
M  V30 2965 H 285.989 -3.03342 -2.84528 0
M  V30 2966 H 284.566 -1.31848 -3.48813 0
M  V30 2967 N 286.751 1.08385 -1.14413 0
M  V30 2968 C 287.999 1.80419 -0.910679 0
M  V30 2969 C 288.32 1.86658 0.564243 0
M  V30 2970 O 287.59 1.35985 1.41014 0
M  V30 2971 H 286.17 0.668204 -0.333934 0
M  V30 2972 H 288.832 1.31037 -1.44275 0
M  V30 2973 H 287.928 2.83238 -1.31082 0
M  V30 2974 N 288.23 0.939286 1.26551 0
M  V30 2975 C 289.177 0.446088 2.26448 0
M  V30 2976 C 290.147 -0.493234 1.58608 0
M  V30 2977 O 291.332 -0.409857 1.86346 0
M  V30 2978 C 288.472 -0.284375 3.43926 0
M  V30 2979 C 287.585 0.690399 4.26448 0
M  V30 2980 C 286.72 -0.0610712 5.31165 0
M  V30 2981 C 285.759 0.905649 6.05363 0
M  V30 2982 N 284.896 0.186055 7.01853 0
M  V30 2983 H 289.736 1.30291 2.68008 0
M  V30 2984 H 287.273 0.65371 1.31776 0
M  V30 2985 H 289.231 -0.724313 4.10864 0
M  V30 2986 H 287.861 -1.10535 3.03285 0
M  V30 2987 H 286.913 1.24885 3.59316 0
M  V30 2988 H 288.225 1.42873 4.779 0
M  V30 2989 H 287.379 -0.56038 6.04106 0
M  V30 2990 H 286.118 -0.832297 4.80546 0
M  V30 2991 H 285.123 1.4161 5.3125 0
M  V30 2992 H 286.348 1.67685 6.58072 0
M  V30 2993 H 284.294 -0.566714 6.53548 0
M  V30 2994 H 284.211 0.863752 7.51049 0
M  V30 2995 H 285.479 -0.292221 7.78952 0
M  V30 2996 N 289.708 -1.40897 0.706093 0
M  V30 2997 C 290.671 -2.29131 0.0562841 0
M  V30 2998 C 291.671 -1.44901 -0.697166 0
M  V30 2999 O 292.861 -1.65926 -0.530484 0
M  V30 3000 C 289.993 -3.27957 -0.93043 0
M  V30 3001 H 291.186 -2.88091 0.833284 0
M  V30 3002 H 288.739 -1.4906 0.470192 0
M  V30 3003 H 289.474 -2.73997 -1.73482 0
M  V30 3004 H 289.259 -3.90124 -0.393166 0
M  V30 3005 H 290.749 -3.94049 -1.38256 0
M  V30 3006 N 291.186 -0.45159 -1.50991 0
M  V30 3007 C 292.432 0.102439 -2.03142 0
M  V30 3008 C 292.787 1.39138 -1.32884 0
M  V30 3009 O 292.08 1.86493 -0.439438 0
M  V30 3010 C 292.274 0.361728 -3.55565 0
M  V30 3011 C 292.103 -0.900535 -4.40591 0
M  V30 3012 C 290.873 -1.43821 -4.844 0
M  V30 3013 C 293.071 -1.79063 -4.82121 0
M  V30 3014 N 291.053 -2.65153 -5.53685 0
M  V30 3015 C 292.424 -2.84991 -5.50618 0
M  V30 3016 C 294.479 -1.80334 -4.64095 0
M  V30 3017 C 293.182 -3.92155 -6.02998 0
M  V30 3018 C 295.208 -2.86442 -5.17402 0
M  V30 3019 C 294.57 -3.9109 -5.85857 0
M  V30 3020 H 290.669 -0.00204537 -0.781997 0
M  V30 3021 H 293.253 -0.615446 -1.84717 0
M  V30 3022 H 291.424 1.04865 -3.73976 0
M  V30 3023 H 293.156 0.908372 -3.94374 0
M  V30 3024 H 289.911 -0.990117 -4.63135 0
M  V30 3025 H 290.335 -3.26717 -5.92946 0
M  V30 3026 H 294.977 -1.00753 -4.1062 0
M  V30 3027 H 292.695 -4.72565 -6.55521 0
M  V30 3028 H 296.281 -2.88386 -5.05297 0
M  V30 3029 H 295.161 -4.71845 -6.26364 0
M  V30 3030 N 292.664 1.56529 -0.183458 0
M  V30 3031 C 293.627 2.17324 0.728223 0
M  V30 3032 C 294.627 1.12453 1.14939 0
M  V30 3033 O 295.817 1.37902 1.06437 0
M  V30 3034 C 292.949 2.76591 1.99274 0
M  V30 3035 H 294.142 2.99241 0.198772 0
M  V30 3036 H 291.695 1.5616 0.0661391 0
M  V30 3037 H 292.43 1.98441 2.56499 0
M  V30 3038 H 292.215 3.5335 1.69959 0
M  V30 3039 H 293.705 3.23311 2.6431 0
M  V30 3040 N 294.142 -0.090211 1.57342 0
M  V30 3041 C 295.052 -1.12735 2.05738 0
M  V30 3042 C 296.068 -1.43557 0.983231 0
M  V30 3043 O 297.244 -1.54101 1.29672 0
M  V30 3044 C 294.309 -2.42659 2.47624 0
M  V30 3045 C 293.37 -2.18975 3.69254 0
M  V30 3046 C 292.603 -3.42704 4.09133 0
M  V30 3047 O 292.826 -4.51127 3.49057 0
M  V30 3048 O 291.76 -3.32003 5.02053 0
M  V30 3049 H 295.586 -0.746279 2.94388 0
M  V30 3050 H 293.171 -0.303064 1.46294 0
M  V30 3051 H 295.053 -3.19155 2.7517 0
M  V30 3052 H 293.728 -2.80182 1.62109 0
M  V30 3053 H 292.635 -1.40244 3.46818 0
M  V30 3054 H 293.968 -1.86342 4.55563 0
M  V30 3055 N 295.62 -1.53406 -0.361157 0
M  V30 3056 C 296.583 -1.79479 -1.42548 0
M  V30 3057 C 297.583 -0.665327 -1.4639 0
M  V30 3058 O 298.773 -0.933549 -1.47073 0
M  V30 3059 C 295.905 -1.92087 -2.8163 0
M  V30 3060 H 297.098 -2.74538 -1.20701 0
M  V30 3061 H 294.651 -1.4455 -0.594546 0
M  V30 3062 H 295.386 -0.991099 -3.08784 0
M  V30 3063 H 295.171 -2.74241 -2.80239 0
M  V30 3064 H 296.661 -2.13836 -3.58697 0
M  V30 3065 N 297.098 0.621204 -1.44841 0
M  V30 3066 C 298.008 1.7612 -1.5498 0
M  V30 3067 C 299.024 1.68477 -0.434927 0
M  V30 3068 O 300.2 1.89076 -0.693693 0
M  V30 3069 C 297.265 3.1254 -1.50065 0
M  V30 3070 C 296.326 3.31741 -2.72482 0
M  V30 3071 C 295.559 4.61653 -2.67792 0
M  V30 3072 O 295.782 5.431 -1.74352 0
M  V30 3073 O 294.716 4.83271 -3.58794 0
M  V30 3074 H 298.542 1.70518 -2.51311 0
M  V30 3075 H 296.127 0.783643 -1.27198 0
M  V30 3076 H 298.009 3.93844 -1.49882 0
M  V30 3077 H 296.684 3.18663 -0.568806 0
M  V30 3078 H 295.591 2.50077 -2.7823 0
M  V30 3079 H 296.924 3.30486 -3.64746 0
M  V30 3080 N 298.576 1.31904 0.862503 0
M  V30 3081 C 299.523 1.20182 1.9704 0
M  V30 3082 C 300.493 0.0858247 1.65878 0
M  V30 3083 O 301.678 0.26 1.8902 0
M  V30 3084 C 298.818 0.922797 3.32533 0
M  V30 3085 C 297.931 2.12284 3.76244 0
M  V30 3086 C 297.066 1.77996 5.00491 0
M  V30 3087 C 296.105 2.94366 5.36671 0
M  V30 3088 N 295.242 2.60223 6.52095 0
M  V30 3089 H 300.082 2.14951 2.06398 0
M  V30 3090 H 297.619 1.06917 1.01031 0
M  V30 3091 H 299.577 0.741548 4.10557 0
M  V30 3092 H 298.207 0.0119227 3.22798 0
M  V30 3093 H 297.259 2.41461 2.9394 0
M  V30 3094 H 298.571 2.99357 3.98982 0
M  V30 3095 H 297.725 1.56377 5.862 0
M  V30 3096 H 296.464 0.881252 4.79672 0
M  V30 3097 H 295.469 3.16625 4.49476 0
M  V30 3098 H 296.694 3.84957 5.59451 0
M  V30 3099 H 294.64 1.72884 6.32809 0
M  V30 3100 H 294.557 3.40827 6.74814 0
M  V30 3101 H 295.825 2.42016 7.40978 0
M  V30 3102 N 300.054 -1.07777 1.14986 0
M  V30 3103 C 301.284 -1.83752 0.944402 0
M  V30 3104 C 301.692 -1.8218 -0.51058 0
M  V30 3105 O 301.035 -1.22852 -1.36576 0
M  V30 3106 C 301.097 -3.32128 1.37592 0
M  V30 3107 C 300.761 -3.57425 2.84775 0
M  V30 3108 C 301.758 -3.5173 3.8286 0
M  V30 3109 C 299.443 -3.8523 3.2234 0
M  V30 3110 C 301.437 -3.73482 5.16517 0
M  V30 3111 C 299.124 -4.06634 4.56171 0
M  V30 3112 C 300.122 -4.00754 5.53069 0
M  V30 3113 O 299.81 -4.2159 6.84483 0
M  V30 3114 H 299.542 -0.58673 0.335744 0
M  V30 3115 H 302.096 -1.36982 1.53052 0
M  V30 3116 H 300.326 -3.79686 0.733165 0
M  V30 3117 H 302.015 -3.89555 1.14024 0
M  V30 3118 H 302.781 -3.30256 3.55184 0
M  V30 3119 H 298.66 -3.88923 2.47508 0
M  V30 3120 H 302.204 -3.68808 5.92137 0
M  V30 3121 H 298.101 -4.27593 4.83564 0
M  V30 3122 H 298.869 -4.38961 6.90837 0
M  V30 3123 N 301.532 -0.945985 -1.26051 0
M  V30 3124 C 302.772 -0.603665 -1.95282 0
M  V30 3125 C 303.136 0.842377 -1.72534 0
M  V30 3126 O 304.337 1.29387 -2.35611 0
M  V30 3127 C 302.608 -0.942292 -3.44754 0
M  V30 3128 S 304.167 -0.711242 -4.32997 0
M  V30 3129 H 300.985 -0.222176 -0.675395 0
M  V30 3130 H 303.587 -1.21832 -1.52896 0
M  V30 3131 H 302.291 -1.99203 -3.58812 0
M  V30 3132 H 301.822 -0.317546 -3.92116 0
M  V30 3133 H 303.837 0.422221 -4.944 0
M  V30 3134 N 303.011 1.40521 -0.713556 0
M  V30 3135 C 303.943 2.29191 -0.0203126 0
M  V30 3136 C 304.956 1.45723 0.725864 0
M  V30 3137 O 306.145 1.69033 0.573581 0
M  V30 3138 C 303.245 3.2395 0.995486 0
M  V30 3139 C 302.418 4.36262 0.315256 0
M  V30 3140 C 301.477 5.11474 1.23616 0
M  V30 3141 O 300.503 5.64606 0.721719 0
M  V30 3142 N 301.705 5.20638 2.56743 0
M  V30 3143 H 304.47 2.89327 -0.781652 0
M  V30 3144 H 302.031 1.51869 -0.561022 0
M  V30 3145 H 304.023 3.71137 1.61368 0
M  V30 3146 H 302.593 2.64995 1.6582 0
M  V30 3147 H 301.813 3.91228 -0.483106 0
M  V30 3148 H 303.101 5.08558 -0.157004 0
M  V30 3149 H 302.499 4.7895 3.01037 0
M  V30 3150 H 301.056 5.71339 3.13712 0
M  V30 3151 N 304.489 0.459591 1.5075 0
M  V30 3152 C 305.419 -0.330644 2.31147 0
M  V30 3153 C 306.4 -1.00087 1.37538 0
M  V30 3154 O 307.585 -1.00025 1.66459 0
M  V30 3155 C 304.715 -1.41958 3.16962 0
M  V30 3156 C 303.669 -0.871608 4.19031 0
M  V30 3157 C 302.995 -2.05797 4.9351 0
M  V30 3158 C 304.295 0.109251 5.22186 0
M  V30 3159 H 305.989 0.340336 2.97459 0
M  V30 3160 H 303.535 0.165119 1.4305 0
M  V30 3161 H 305.488 -1.9798 3.71997 0
M  V30 3162 H 304.212 -2.11917 2.48513 0
M  V30 3163 H 302.871 -0.333442 3.6508 0
M  V30 3164 H 302.519 -2.74427 4.21544 0
M  V30 3165 H 302.219 -1.6976 5.62544 0
M  V30 3166 H 303.743 -2.62331 5.51375 0
M  V30 3167 H 305.157 -0.361405 5.7216 0
M  V30 3168 H 303.554 0.383316 5.98875 0
M  V30 3169 H 304.624 1.03887 4.73641 0
M  V30 3170 N 305.967 -1.56429 0.191757 0
M  V30 3171 C 306.877 -2.22541 -0.742481 0
M  V30 3172 C 307.893 -1.22342 -1.23727 0
M  V30 3173 O 309.069 -1.55069 -1.28513 0
M  V30 3174 C 306.134 -2.8692 -1.94623 0
M  V30 3175 C 305.195 -4.02378 -1.49633 0
M  V30 3176 C 304.428 -4.63678 -2.6427 0
M  V30 3177 O 304.651 -4.23895 -3.81666 0
M  V30 3178 O 303.585 -5.53202 -2.37174 0
M  V30 3179 H 307.411 -3.02977 -0.209462 0
M  V30 3180 H 304.996 -1.49353 -0.0373832 0
M  V30 3181 H 306.878 -3.27663 -2.64982 0
M  V30 3182 H 305.553 -2.09466 -2.46791 0
M  V30 3183 H 304.46 -3.66265 -0.761636 0
M  V30 3184 H 305.793 -4.81487 -1.02134 0
M  V30 3185 N 307.445 0.0818655 -1.57387 0
M  V30 3186 C 308.393 1.11712 -2.04018 0
M  V30 3187 C 309.387 1.40683 -0.94364 0
M  V30 3188 O 310.593 1.40209 -1.12878 0
M  V30 3189 H 306.968 0.377542 -0.650358 0
M  V30 3190 H 308.939 0.697614 -2.90131 0
M  V30 3191 C 307.688 2.42537 -2.49141 0
M  V30 3192 H 307.011 2.21092 -3.33104 0
M  V30 3193 H 308.451 3.13446 -2.85531 0
M  V30 3194 C 306.91 3.0778 -1.37014 0
M  V30 3195 O 307.44 3.95436 -0.706621 0
M  V30 3196 N 305.646 2.68242 -1.11779 0
M  V30 3197 H 305.193 1.97052 -1.65917 0
M  V30 3198 H 305.151 3.1222 -0.369594 0
M  V30 3199 N 308.923 1.53595 0.353017 0
M  V30 3200 C 309.886 1.80232 1.41594 0
M  V30 3201 C 310.886 0.673081 1.46035 0
M  V30 3202 O 312.076 0.941335 1.46576 0
M  V30 3203 C 309.208 1.93578 2.80607 0
M  V30 3204 H 310.401 2.75174 1.19244 0
M  V30 3205 H 307.954 1.44864 0.586872 0
M  V30 3206 H 308.689 1.00746 3.08254 0
M  V30 3207 H 308.474 2.75724 2.78781 0
M  V30 3208 H 309.964 2.15735 3.57558 0
M  V30 3209 N 310.401 -0.613514 1.45168 0
M  V30 3210 C 311.351 -1.71871 1.49815 0
M  V30 3211 C 312.335 -1.56774 0.362021 0
M  V30 3212 O 313.527 -1.66212 0.608493 0
M  V30 3213 C 310.656 -3.1061 1.46207 0
M  V30 3214 C 309.742 -3.31114 2.64999 0
M  V30 3215 N 310.133 -3.21904 3.90143 0
M  V30 3216 C 308.431 -3.61966 2.6057 0
M  V30 3217 C 309.132 -3.43577 4.69393 0
M  V30 3218 N 308.108 -3.67287 4.00751 0
M  V30 3219 H 311.91 -1.63235 2.444 0
M  V30 3220 H 309.424 -0.816577 1.40377 0
M  V30 3221 H 311.421 -3.8989 1.4762 0
M  V30 3222 H 310.081 -3.20399 0.52673 0
M  V30 3223 H 311.092 -3.00436 4.21852 0
M  V30 3224 H 307.769 -3.78629 1.75916 0
M  V30 3225 H 309.159 -3.41901 5.78406 0
M  V30 3226 N 311.879 -1.3236 -0.855495 0
M  V30 3227 C 312.809 -1.23833 -1.97958 0
M  V30 3228 C 313.79 -0.122361 -1.69659 0
M  V30 3229 O 314.975 -0.30939 -1.9172 0
M  V30 3230 C 312.105 -0.959772 -3.33775 0
M  V30 3231 C 311.059 -2.03689 -3.76424 0
M  V30 3232 C 310.385 -1.61075 -5.09862 0
M  V30 3233 C 311.685 -3.4518 -3.9198 0
M  V30 3234 H 313.379 -2.1788 -2.0535 0
M  V30 3235 H 310.925 -1.04891 -0.986605 0
M  V30 3236 H 312.878 -0.886678 -4.11966 0
M  V30 3237 H 311.602 0.0163404 -3.26596 0
M  V30 3238 H 310.261 -2.10012 -3.00484 0
M  V30 3239 H 309.909 -0.622107 -4.99138 0
M  V30 3240 H 309.609 -2.33143 -5.39368 0
M  V30 3241 H 311.133 -1.55201 -5.90546 0
M  V30 3242 H 312.547 -3.4145 -4.60526 0
M  V30 3243 H 310.944 -4.1559 -4.32903 0
M  V30 3244 H 312.014 -3.84903 -2.94919 0
M  V30 3245 N 313.357 1.07166 -1.15556 0
M  V30 3246 C 314.603 1.80065 -0.932984 0
M  V30 3247 C 314.936 1.86586 0.53845 0
M  V30 3248 O 314.211 1.35098 1.39924 0
M  V30 3249 C 314.494 3.25022 -1.55025 0
M  V30 3250 C 314.347 3.26634 -3.09242 0
M  V30 3251 C 315.666 4.22341 -1.2376 0
M  V30 3252 H 312.785 0.653697 -0.340366 0
M  V30 3253 H 315.427 1.25389 -1.4275 0
M  V30 3254 H 313.577 3.71712 -1.12972 0
M  V30 3255 H 315.249 2.88173 -3.60214 0
M  V30 3256 H 313.492 2.65539 -3.43033 0
M  V30 3257 H 314.163 4.28854 -3.47546 0
M  V30 3258 H 316.639 3.8405 -1.60139 0
M  V30 3259 H 315.515 5.22053 -1.69564 0
M  V30 3260 H 315.776 4.41828 -0.154938 0
M  V30 3261 N 314.835 0.952656 1.25548 0
M  V30 3262 C 316.081 0.607272 1.93494 0
M  V30 3263 C 316.414 -0.853245 1.74452 0
M  V30 3264 O 315.689 -1.61194 1.08843 0
M  V30 3265 C 315.972 0.96435 3.46947 0
M  V30 3266 C 315.825 2.48045 3.75225 0
M  V30 3267 C 317.144 0.487987 4.37386 0
M  V30 3268 H 314.263 0.222096 0.702739 0
M  V30 3269 H 316.905 1.18895 1.48203 0
M  V30 3270 H 315.055 0.469361 3.85654 0
M  V30 3271 H 316.727 3.04905 3.46166 0
M  V30 3272 H 314.97 2.919 3.209 0
M  V30 3273 H 315.641 2.6808 4.82532 0
M  V30 3274 H 318.117 0.912558 4.0597 0
M  V30 3275 H 316.993 0.766547 5.43521 0
M  V30 3276 H 317.254 -0.612063 4.37843 0
M  V30 3277 N 316.313 -1.40141 0.720998 0
M  V30 3278 C 317.562 -2.0002 0.259804 0
M  V30 3279 C 317.875 -1.57839 -1.15526 0
M  V30 3280 O 319.081 -2.10455 -1.71525 0
M  V30 3281 C 317.537 -3.57516 0.413566 0
M  V30 3282 C 317.145 -4.08667 1.83562 0
M  V30 3283 C 318.889 -4.24498 0.0134387 0
M  V30 3284 C 316.796 -5.58686 1.93968 0
M  V30 3285 H 315.726 -0.748195 0.0933806 0
M  V30 3286 H 318.377 -1.60313 0.892866 0
M  V30 3287 H 316.759 -3.9495 -0.288169 0
M  V30 3288 H 317.933 -3.82598 2.56817 0
M  V30 3289 H 316.248 -3.543 2.1877 0
M  V30 3290 H 318.845 -5.34654 0.0703954 0
M  V30 3291 H 319.188 -4.03375 -1.02927 0
M  V30 3292 H 319.721 -3.92188 0.665815 0
M  V30 3293 H 316.46 -5.8467 2.96379 0
M  V30 3294 H 315.98 -5.86602 1.25131 0
M  V30 3295 H 317.659 -6.23875 1.71431 0
M  V30 3296 N 317.792 -0.46758 -1.50504 0
M  V30 3297 C 318.74 0.342482 -2.30065 0
M  V30 3298 C 319.734 0.993596 -1.37201 0
M  V30 3299 O 320.94 0.925102 -1.54408 0
M  V30 3300 H 317.315 0.129283 -0.740803 0
M  V30 3301 H 319.286 -0.34899 -2.96352 0
M  V30 3302 C 318.035 1.4139 -3.17654 0
M  V30 3303 H 317.358 0.922264 -3.89017 0
M  V30 3304 H 318.798 1.95335 -3.76325 0
M  V30 3305 C 317.257 2.4139 -2.35016 0
M  V30 3306 O 317.787 3.46586 -2.03079 0
M  V30 3307 N 315.993 2.13021 -1.97662 0
M  V30 3308 H 315.54 1.27499 -2.23834 0
M  V30 3309 H 315.498 2.80164 -1.42673 0
M  V30 3310 N 319.27 1.56325 -0.20005 0
M  V30 3311 C 320.495 2.02548 0.44597 0
M  V30 3312 C 320.92 1.07922 1.5406 0
M  V30 3313 O 320.278 0.0635775 1.81188 0
M  V30 3314 C 320.326 3.47175 0.974761 0
M  V30 3315 O 319.43 3.55671 2.08739 0
M  V30 3316 H 318.771 0.655862 0.103638 0
M  V30 3317 H 321.301 2.02201 -0.312381 0
M  V30 3318 H 321.311 3.87067 1.2901 0
M  V30 3319 H 319.986 4.15538 0.17347 0
M  V30 3320 H 318.563 3.27657 1.78032 0
M  V30 3321 N 320.748 -0.0735177 1.57428 0
M  V30 3322 C 321.994 -0.768909 1.88307 0
M  V30 3323 C 322.349 -1.75273 0.793535 0
M  V30 3324 O 321.642 -1.90527 -0.202466 0
M  V30 3325 C 321.836 -1.51799 3.23561 0
M  V30 3326 C 321.665 -0.608217 4.45568 0
M  V30 3327 C 320.435 -0.245808 5.04702 0
M  V30 3328 C 322.633 0.0942904 5.14214 0
M  V30 3329 N 320.615 0.66987 6.10234 0
M  V30 3330 C 321.986 0.867222 6.13905 0
M  V30 3331 C 324.041 0.165943 4.97623 0
M  V30 3332 C 322.744 1.70515 6.98797 0
M  V30 3333 C 324.77 0.990837 5.83041 0
M  V30 3334 C 324.132 1.75182 6.82269 0
M  V30 3335 H 320.231 -0.25685 0.738615 0
M  V30 3336 H 322.815 -0.030499 1.94676 0
M  V30 3337 H 320.986 -2.22713 3.18203 0
M  V30 3338 H 322.718 -2.16226 3.42094 0
M  V30 3339 H 319.473 -0.598284 4.69806 0
M  V30 3340 H 319.897 1.1209 6.67656 0
M  V30 3341 H 324.539 -0.408064 4.20826 0
M  V30 3342 H 322.257 2.29013 7.7497 0
M  V30 3343 H 325.843 1.04923 5.72261 0
M  V30 3344 H 324.723 2.37983 7.47217 0
M  V30 3345 N 322.226 -1.5378 -0.344866 0
M  V30 3346 C 323.136 -1.84667 -1.4469 0
M  V30 3347 C 324.152 -0.736704 -1.57635 0
M  V30 3348 O 325.328 -1.02888 -1.73136 0
M  V30 3349 C 322.393 -2.04869 -2.79696 0
M  V30 3350 C 321.454 -3.28731 -2.76106 0
M  V30 3351 C 320.687 -3.4796 -4.04673 0
M  V30 3352 O 320.91 -2.71052 -5.01883 0
M  V30 3353 O 319.844 -4.41383 -4.09224 0
M  V30 3354 H 323.67 -2.78334 -1.21506 0
M  V30 3355 H 321.255 -1.39418 -0.536921 0
M  V30 3356 H 323.137 -2.19609 -3.59652 0
M  V30 3357 H 321.812 -1.14391 -3.02814 0
M  V30 3358 H 320.719 -3.19396 -1.94774 0
M  V30 3359 H 322.052 -4.19198 -2.57941 0
M  V30 3360 N 323.704 0.605807 -1.45491 0
M  V30 3361 C 324.614 1.74466 -1.56839 0
M  V30 3362 C 325.63 1.68006 -0.452772 0
M  V30 3363 O 326.806 1.8833 -0.713708 0
M  V30 3364 C 323.871 3.10931 -1.53371 0
M  V30 3365 C 322.932 3.28832 -2.75986 0
M  V30 3366 C 322.165 4.58787 -2.72673 0
M  V30 3367 O 322.388 5.4122 -1.80102 0
M  V30 3368 O 321.322 4.79438 -3.63899 0
M  V30 3369 H 325.148 1.67843 -2.53106 0
M  V30 3370 H 322.733 0.770108 -1.28022 0
M  V30 3371 H 324.615 3.92233 -1.54051 0
M  V30 3372 H 323.29 3.18042 -0.602572 0
M  V30 3373 H 322.197 2.47112 -2.80867 0
M  V30 3374 H 323.53 3.26599 -3.68231 0
M  V30 3375 N 325.182 1.32811 0.848464 0
M  V30 3376 C 326.114 1.18095 1.96433 0
M  V30 3377 C 327.127 0.114354 1.62398 0
M  V30 3378 O 328.316 0.363892 1.74751 0
M  V30 3379 C 325.416 0.786798 3.2964 0
M  V30 3380 C 324.589 1.943 3.91875 0
M  V30 3381 C 323.648 1.53138 5.03423 0
M  V30 3382 O 322.674 2.24432 5.23086 0
M  V30 3383 N 323.876 0.430915 5.78898 0
M  V30 3384 H 326.641 2.14218 2.09597 0
M  V30 3385 H 324.202 1.2543 1.02367 0
M  V30 3386 H 326.194 0.493715 4.01677 0
M  V30 3387 H 324.764 -0.0834541 3.12489 0
M  V30 3388 H 323.984 2.40224 3.12547 0
M  V30 3389 H 325.272 2.71689 4.30189 0
M  V30 3390 H 324.67 -0.162333 5.65467 0
M  V30 3391 H 323.227 0.197466 6.51501 0
M  V30 3392 N 326.66 -1.06551 1.16123 0
M  V30 3393 C 327.607 -2.13961 0.865414 0
M  V30 3394 C 328.577 -1.65066 -0.185055 0
M  V30 3395 O 329.762 -1.90732 -0.05083 0
M  V30 3396 C 326.902 -3.43113 0.369776 0
M  V30 3397 C 326.015 -4.05756 1.48276 0
M  V30 3398 C 325.15 -5.22773 0.942414 0
M  V30 3399 C 324.189 -5.77395 2.03179 0
M  V30 3400 N 323.326 -6.85731 1.50721 0
M  V30 3401 H 328.166 -2.38605 1.78527 0
M  V30 3402 H 325.703 -1.17072 0.890646 0
M  V30 3403 H 327.661 -4.17151 0.0640643 0
M  V30 3404 H 326.291 -3.18695 -0.513143 0
M  V30 3405 H 325.343 -3.29292 1.9045 0
M  V30 3406 H 326.655 -4.42351 2.30493 0
M  V30 3407 H 325.809 -6.03827 0.589729 0
M  V30 3408 H 324.548 -4.87618 0.0895191 0
M  V30 3409 H 323.553 -4.94981 2.3932 0
M  V30 3410 H 324.778 -6.14603 2.8886 0
M  V30 3411 H 322.724 -6.52499 0.676811 0
M  V30 3412 H 322.641 -7.21254 2.26557 0
M  V30 3413 H 323.909 -7.7047 1.18303 0
M  V30 3414 N 328.138 -0.959301 -1.25041 0
M  V30 3415 C 329.385 -0.616611 -1.92884 0
M  V30 3416 C 329.713 0.847036 -1.75087 0
M  V30 3417 O 328.968 1.62374 -1.09239 0
M  V30 3418 C 329.267 -0.927136 -3.45165 0
M  V30 3419 C 328.933 -2.37757 -3.83122 0
M  V30 3420 C 327.595 -2.77402 -3.93194 0
M  V30 3421 C 329.947 -3.31929 -4.01836 0
M  V30 3422 C 327.275 -4.10277 -4.19392 0
M  V30 3423 C 329.627 -4.64423 -4.29528 0
M  V30 3424 C 328.291 -5.03857 -4.37818 0
M  V30 3425 H 327.561 -0.225634 -0.705812 0
M  V30 3426 H 330.208 -1.20921 -1.48493 0
M  V30 3427 H 328.513 -0.252195 -3.90987 0
M  V30 3428 H 330.21 -0.6405 -3.95852 0
M  V30 3429 H 326.8 -2.06013 -3.75841 0
M  V30 3430 H 330.984 -3.02488 -3.93465 0
M  V30 3431 H 326.24 -4.40467 -4.24027 0
M  V30 3432 H 330.414 -5.37369 -4.42953 0
M  V30 3433 H 328.041 -6.06843 -4.57871 0
M  V30 3434 N 329.616 1.39756 -0.72842 0
M  V30 3435 C 330.865 1.99879 -0.270407 0
M  V30 3436 C 331.178 1.58449 1.14688 0
M  V30 3437 O 332.384 2.11362 1.70407 0
M  V30 3438 C 330.84 3.57292 -0.43252 0
M  V30 3439 C 330.448 4.07688 -1.85727 0
M  V30 3440 C 332.192 4.24485 -0.0359507 0
M  V30 3441 C 330.099 5.5765 -1.96928 0
M  V30 3442 H 329.029 0.747689 -0.0973472 0
M  V30 3443 H 331.68 1.59837 -0.901355 0
M  V30 3444 H 330.062 3.95097 0.267219 0
M  V30 3445 H 331.236 3.81231 -2.58843 0
M  V30 3446 H 329.551 3.53135 -2.20646 0
M  V30 3447 H 332.148 5.34609 -0.0987484 0
M  V30 3448 H 332.491 4.03915 1.00787 0
M  V30 3449 H 333.024 3.9183 -0.686604 0
M  V30 3450 H 329.763 5.8309 -2.99476 0
M  V30 3451 H 329.283 5.8593 -1.28241 0
M  V30 3452 H 330.962 6.22957 -1.74737 0
M  V30 3453 N 331.094 0.475555 1.50254 0
M  V30 3454 C 332.34 -0.0780073 2.0265 0
M  V30 3455 C 332.673 -1.38968 1.35652 0
M  V30 3456 O 331.948 -1.8839 0.483691 0
M  V30 3457 C 332.231 -0.257161 3.59181 0
M  V30 3458 C 332.084 1.07585 4.36744 0
M  V30 3459 C 333.403 -1.00965 4.28362 0
M  V30 3460 H 330.522 -0.0268758 0.73651 0
M  V30 3461 H 333.164 0.622015 1.7953 0
M  V30 3462 H 331.314 -0.853412 3.79011 0
M  V30 3463 H 332.986 1.70902 4.28474 0
M  V30 3464 H 331.229 1.6714 4.00308 0
M  V30 3465 H 331.9 0.904088 5.44546 0
M  V30 3466 H 334.376 -0.504214 4.13034 0
M  V30 3467 H 333.252 -1.10381 5.37687 0
M  V30 3468 H 333.513 -2.04731 3.91839 0
M  V30 3469 N 332.573 -1.56217 0.208337 0
M  V30 3470 C 333.505 -2.1695 -0.739276 0
M  V30 3471 C 334.518 -1.13492 -1.1672 0
M  V30 3472 O 335.707 -1.40529 -1.10063 0
M  V30 3473 C 332.807 -2.72755 -2.01142 0
M  V30 3474 C 331.98 -4.0125 -1.74118 0
M  V30 3475 C 331.039 -4.41749 -2.85909 0
M  V30 3476 O 330.065 -5.08912 -2.54946 0
M  V30 3477 N 331.267 -4.06342 -4.14568 0
M  V30 3478 H 334.032 -2.98893 -0.219837 0
M  V30 3479 H 331.593 -1.61878 0.0268445 0
M  V30 3480 H 333.585 -2.96826 -2.75094 0
M  V30 3481 H 332.155 -1.95191 -2.4417 0
M  V30 3482 H 331.375 -3.85173 -0.838775 0
M  V30 3483 H 332.663 -4.851 -1.53477 0
M  V30 3484 H 332.061 -3.52345 -4.42571 0
M  V30 3485 H 330.618 -4.35335 -4.85105 0
M  V30 3486 N 334.051 0.0651679 -1.57465 0
M  V30 3487 C 335.001 1.0838 -2.00594 0
M  V30 3488 C 335.985 1.34106 -0.889071 0
M  V30 3489 O 337.177 1.34295 -1.15299 0
M  V30 3490 C 334.306 2.39565 -2.45894 0
M  V30 3491 C 333.392 2.17085 -3.64328 0
M  V30 3492 N 333.783 1.64553 -4.78285 0
M  V30 3493 C 332.081 2.4753 -3.71006 0
M  V30 3494 C 332.782 1.57042 -5.60101 0
M  V30 3495 N 331.758 2.03328 -5.04141 0
M  V30 3496 H 335.56 0.671062 -2.86136 0
M  V30 3497 H 333.074 0.27213 -1.60104 0
M  V30 3498 H 335.071 3.13308 -2.75034 0
M  V30 3499 H 333.731 2.81549 -1.61741 0
M  V30 3500 H 334.742 1.33323 -5.00445 0
M  V30 3501 H 331.419 2.92835 -2.9758 0
M  V30 3502 H 332.809 1.17223 -6.61595 0
M  V30 3503 N 335.529 1.53961 0.336706 0
M  V30 3504 C 336.757 1.75483 1.09605 0
M  V30 3505 C 337.172 0.4972 1.82136 0
M  V30 3506 O 336.529 -0.53149 1.74589 0
M  V30 3507 C 336.58 2.93943 2.10428 0
M  V30 3508 O 336.301 4.14842 1.40846 0
M  V30 3509 C 337.802 3.27571 2.98684 0
M  V30 3510 H 335.022 0.586166 0.326574 0
M  V30 3511 H 337.566 2.00808 0.38683 0
M  V30 3512 H 335.721 2.70929 2.76905 0
M  V30 3513 H 336.135 4.81383 2.08255 0
M  V30 3514 H 337.609 4.13791 3.6535 0
M  V30 3515 H 338.086 2.44168 3.65074 0
M  V30 3516 H 338.692 3.52615 2.37787 0
M  V30 3517 N 337.007 -0.598083 1.45811 0
M  V30 3518 C 337.955 -1.72932 1.55555 0
M  V30 3519 C 338.949 -1.63984 0.424921 0
M  V30 3520 O 340.155 -1.69663 0.601205 0
M  V30 3521 H 336.53 -0.571489 0.488779 0
M  V30 3522 H 338.501 -1.61842 2.50699 0
M  V30 3523 C 337.25 -3.11318 1.54843 0
M  V30 3524 H 336.573 -3.18867 2.41172 0
M  V30 3525 H 338.013 -3.90274 1.65717 0
M  V30 3526 C 336.472 -3.3578 0.274427 0
M  V30 3527 O 337.002 -3.9654 -0.641778 0
M  V30 3528 N 335.208 -2.90119 0.167139 0
M  V30 3529 H 334.755 -2.40855 0.913596 0
M  V30 3530 H 334.713 -3.0686 -0.684435 0
M  V30 3531 N 338.485 -1.33259 -0.841409 0
M  V30 3532 C 339.896 -1.22066 -1.41269 0
M  V30 3533 C 340.247 0.161479 -1.95534 0
M  V30 3534 O 339.372 1.06094 -1.88608 0
M  V30 3535 C 339.967 -2.20996 -2.568 0
M  V30 3536 C 338.526 -2.13649 -3.09888 0
M  V30 3537 C 337.673 -2.08623 -1.82679 0
M  V30 3538 H 340.624 -1.44895 -0.647395 0
M  V30 3539 H 340.645 -1.81621 -3.34356 0
M  V30 3540 H 340.157 -3.2158 -2.17274 0
M  V30 3541 H 338.258 -1.16359 -3.53965 0
M  V30 3542 H 338.371 -3.04079 -3.70234 0
M  V30 3543 H 336.735 -1.54061 -2.02824 0
M  V30 3544 H 337.518 -3.1101 -1.45353 0
M  V30 3545 N 339.963 1.05934 -1.16686 0
M  V30 3546 C 341.21 1.788 -0.950622 0
M  V30 3547 C 341.538 1.87384 0.521305 0
M  V30 3548 O 340.793 1.36438 1.40297 0
M  V30 3549 C 341.092 3.23105 -1.52767 0
M  V30 3550 C 340.758 3.34594 -3.02254 0
M  V30 3551 C 339.42 3.37437 -3.43059 0
M  V30 3552 C 341.772 3.36219 -3.98254 0
M  V30 3553 C 339.1 3.39525 -4.78477 0
M  V30 3554 C 341.452 3.39845 -5.33562 0
M  V30 3555 C 340.116 3.40971 -5.73842 0
M  V30 3556 H 339.386 0.654275 -0.347857 0
M  V30 3557 H 342.033 1.24555 -1.45459 0
M  V30 3558 H 340.338 3.80227 -0.94524 0
M  V30 3559 H 342.035 3.7809 -1.336 0
M  V30 3560 H 338.625 3.3309 -2.6972 0
M  V30 3561 H 342.809 3.33231 -3.67792 0
M  V30 3562 H 338.065 3.38703 -5.09009 0
M  V30 3563 H 342.239 3.4005 -6.07733 0
M  V30 3564 H 339.866 3.42342 -6.78753 0
M  V30 3565 N 341.441 0.965919 1.2453 0
M  V30 3566 C 342.389 0.486506 2.27455 0
M  V30 3567 C 343.383 -0.449041 1.6334 0
M  V30 3568 O 344.589 -0.324527 1.7705 0
M  V30 3569 H 340.964 0.138857 0.739069 0
M  V30 3570 H 342.935 1.3666 2.65267 0
M  V30 3571 C 341.684 -0.209481 3.47068 0
M  V30 3572 H 341.007 0.50129 3.96645 0
M  V30 3573 H 342.447 -0.508775 4.20936 0
M  V30 3574 C 340.906 -1.43586 3.0477 0
M  V30 3575 O 341.436 -2.53299 3.11773 0
M  V30 3576 N 339.642 -1.30126 2.59838 0
M  V30 3577 H 339.189 -0.408583 2.54339 0
M  V30 3578 H 339.147 -2.12294 2.31902 0
M  V30 3579 N 342.919 -1.39368 0.735821 0
M  V30 3580 C 344.147 -2.04795 0.294393 0
M  V30 3581 C 344.562 -1.55478 -1.07107 0
M  V30 3582 O 343.919 -0.720038 -1.67695 0
M  V30 3583 C 343.97 -3.6035 0.288071 0
M  V30 3584 O 343.691 -4.07852 1.59963 0
M  V30 3585 C 345.192 -4.42976 -0.169422 0
M  V30 3586 H 342.412 -0.658571 0.128551 0
M  V30 3587 H 344.956 -1.78399 0.999701 0
M  V30 3588 H 343.111 -3.85645 -0.368355 0
M  V30 3589 H 343.525 -5.02181 1.51375 0
M  V30 3590 H 344.999 -5.51864 -0.122687 0
M  V30 3591 H 345.476 -4.22068 -1.21472 0
M  V30 3592 H 346.082 -4.22832 0.457469 0
M  V30 3593 N 344.397 -0.483516 -1.5 0
M  V30 3594 C 345.643 0.0593261 -2.03313 0
M  V30 3595 C 345.998 1.36288 -1.35806 0
M  V30 3596 O 345.291 1.85519 -0.478897 0
M  V30 3597 C 345.485 0.286226 -3.56252 0
M  V30 3598 C 345.314 -0.993788 -4.38582 0
M  V30 3599 C 344.084 -1.54064 -4.81241 0
M  V30 3600 C 346.282 -1.89249 -4.78215 0
M  V30 3601 N 344.264 -2.76838 -5.47936 0
M  V30 3602 C 345.635 -2.96606 -5.44449 0
M  V30 3603 C 347.69 -1.90138 -4.60165 0
M  V30 3604 C 346.393 -4.04857 -5.94544 0
M  V30 3605 C 348.419 -2.97353 -5.1121 0
M  V30 3606 C 347.781 -4.03429 -5.77429 0
M  V30 3607 H 343.88 -0.0186322 -0.781778 0
M  V30 3608 H 346.464 -0.654489 -1.8337 0
M  V30 3609 H 344.635 0.969086 -3.76116 0
M  V30 3610 H 346.367 0.824515 -3.96212 0
M  V30 3611 H 343.122 -1.08813 -4.6093 0
M  V30 3612 H 343.546 -3.39221 -5.85882 0
M  V30 3613 H 348.188 -1.09441 -4.0839 0
M  V30 3614 H 345.906 -4.86363 -6.4535 0
M  V30 3615 H 349.492 -2.99039 -4.99066 0
M  V30 3616 H 348.372 -4.85025 -6.16214 0
M  V30 3617 N 345.875 1.56104 -0.216619 0
M  V30 3618 C 347.124 1.97348 0.416744 0
M  V30 3619 C 347.437 1.10715 1.6125 0
M  V30 3620 O 348.643 1.41836 2.31506 0
M  V30 3621 C 347.099 3.51059 0.792835 0
M  V30 3622 C 346.707 4.46387 -0.379828 0
M  V30 3623 C 348.451 4.01026 1.39208 0
M  V30 3624 C 346.358 5.91397 0.0184223 0
M  V30 3625 H 345.288 0.736942 0.159475 0
M  V30 3626 H 347.939 1.80827 -0.31205 0
M  V30 3627 H 346.321 3.63162 1.57891 0
M  V30 3628 H 347.495 4.46029 -1.15737 0
M  V30 3629 H 345.81 4.06734 -0.891979 0
M  V30 3630 H 348.407 5.0686 1.70286 0
M  V30 3631 H 348.75 3.46587 2.30614 0
M  V30 3632 H 349.283 3.92125 0.669537 0
M  V30 3633 H 346.022 6.49807 -0.862002 0
M  V30 3634 H 345.542 5.94961 0.760384 0
M  V30 3635 H 347.221 6.45455 0.446818 0
M  V30 3636 N 347.353 -0.0568162 1.57498 0
M  V30 3637 C 348.601 -0.751617 1.87604 0
M  V30 3638 C 348.922 -1.77351 0.81066 0
M  V30 3639 O 348.192 -1.95254 -0.159018 0
M  V30 3640 H 346.772 -0.280583 0.692302 0
M  V30 3641 H 349.434 -0.0293483 1.94878 0
M  V30 3642 H 348.53 -1.25852 2.856 0
M  V30 3643 N 348.832 -1.54138 -0.328536 0
M  V30 3644 C 349.762 -1.86167 -1.40939 0
M  V30 3645 C 350.743 -0.718044 -1.54202 0
M  V30 3646 O 351.928 -0.971328 -1.68163 0
M  V30 3647 C 349.058 -2.08461 -2.77779 0
M  V30 3648 C 348.012 -3.24299 -2.7931 0
M  V30 3649 C 347.338 -3.31955 -4.19178 0
M  V30 3650 C 348.638 -4.62065 -2.43502 0
M  V30 3651 H 350.332 -2.76689 -1.14383 0
M  V30 3652 H 347.878 -1.33132 -0.548806 0
M  V30 3653 H 349.831 -2.29453 -3.53454 0
M  V30 3654 H 348.555 -1.14684 -3.05802 0
M  V30 3655 H 347.214 -3.03187 -2.0609 0
M  V30 3656 H 346.862 -2.35745 -4.44335 0
M  V30 3657 H 346.562 -4.09805 -4.2111 0
M  V30 3658 H 348.086 -3.55175 -4.96672 0
M  V30 3659 H 349.5 -4.8297 -3.08889 0
M  V30 3660 H 347.897 -5.42429 -2.56693 0
M  V30 3661 H 348.967 -4.64652 -1.38659 0
M  V30 3662 N 350.31 0.590341 -1.46126 0
M  V30 3663 C 351.538 1.37504 -1.54597 0
M  V30 3664 C 351.953 1.87897 -0.184447 0
M  V30 3665 O 351.31 1.63192 0.816984 0
M  V30 3666 C 351.361 2.56779 -2.54454 0
M  V30 3667 O 351.082 2.08476 -3.85317 0
M  V30 3668 C 352.583 3.49427 -2.72792 0
M  V30 3669 H 349.803 0.420325 -0.523037 0
M  V30 3670 H 352.347 0.718383 -1.91467 0
M  V30 3671 H 350.502 3.1845 -2.20609 0
M  V30 3672 H 350.916 2.86097 -4.396 0
M  V30 3673 H 352.39 4.29619 -3.466 0
M  V30 3674 H 352.867 4.00876 -1.79429 0
M  V30 3675 H 353.473 2.93598 -3.07702 0
M  V30 3676 N 351.788 1.33704 0.83433 0
M  V30 3677 C 353.065 1.16011 1.57483 0
M  V30 3678 C 353.445 -0.27176 2.09343 0
M  V30 3679 O 352.793 -1.27146 1.89858 0
M  V30 3680 C 353.003 2.20507 2.70514 0
M  V30 3681 C 354.351 2.54898 3.39577 0
M  V30 3682 O 355.375 2.19209 2.80759 0
M  V30 3683 O 354.234 3.16158 4.45765 0
M  V30 3684 H 351.328 0.448992 0.694503 0
M  V30 3685 H 353.874 1.453 0.876691 0
M  V30 3686 H 352.646 3.16667 2.29865 0
M  V30 3687 H 352.269 1.92329 3.47987 0
M  V30 3688 N 353.266 -1.05314 1.17247 0
M  V30 3689 C 354.491 -1.82509 0.985148 0
M  V30 3690 C 354.916 -1.82343 -0.461788 0
M  V30 3691 O 354.274 -1.23151 -1.33055 0
M  V30 3692 C 354.322 -3.26566 1.52929 0
M  V30 3693 O 353.426 -4.05666 0.742225 0
M  V30 3694 H 352.767 -0.564347 0.349869 0
M  V30 3695 H 355.297 -1.32718 1.55715 0
M  V30 3696 H 355.307 -3.77369 1.55103 0
M  V30 3697 H 353.982 -3.26001 2.58256 0
M  V30 3698 H 352.559 -3.64397 0.791794 0
M  V30 3699 N 354.744 -0.972509 -1.24016 0
M  V30 3700 C 356.021 -0.553733 -1.87598 0
M  V30 3701 C 356.401 0.969158 -1.87538 0
M  V30 3702 O 355.749 1.84255 -1.35139 0
M  V30 3703 C 355.959 -1.15076 -3.29482 0
M  V30 3704 C 357.307 -1.23862 -4.06132 0
M  V30 3705 O 358.331 -1.10363 -3.38672 0
M  V30 3706 O 357.19 -1.45252 -5.26844 0
M  V30 3707 H 354.284 -0.185331 -0.805966 0
M  V30 3708 H 356.83 -1.06709 -1.31952 0
M  V30 3709 H 355.602 -2.19333 -3.2405 0
M  V30 3710 H 355.225 -0.621746 -3.92709 0
M  V30 3711 N 356.222 1.38976 -0.743202 0
M  V30 3712 C 357.47 1.99948 -0.29417 0
M  V30 3713 C 357.791 1.59279 1.12495 0
M  V30 3714 O 357.061 0.844808 1.76748 0
M  V30 3715 H 355.641 0.739473 -0.105774 0
M  V30 3716 H 358.303 1.699 -0.954986 0
M  V30 3717 H 357.399 3.10142 -0.349056 0
M  V30 3718 N 357.7 0.491464 1.49741 0
M  V30 3719 C 358.925 -0.0557177 2.07325 0
M  V30 3720 C 359.35 -1.30925 1.35056 0
M  V30 3721 O 358.708 -1.76733 0.404365 0
M  V30 3722 C 358.756 -0.302074 3.59333 0
M  V30 3723 O 357.86 -1.37868 3.88672 0
M  V30 3724 H 357.201 0.0219956 0.663636 0
M  V30 3725 H 359.731 0.688352 1.92673 0
M  V30 3726 H 359.741 -0.536464 4.04458 0
M  V30 3727 H 358.416 0.61383 4.11345 0
M  V30 3728 H 356.993 -1.12999 3.55367 0
M  V30 3729 N 359.178 -1.55987 0.224894 0
M  V30 3730 C 360.424 -1.99433 -0.39973 0
M  V30 3731 C 360.779 -1.11004 -1.57149 0
M  V30 3732 O 360.072 -0.160725 -1.90925 0
M  V30 3733 C 360.266 -3.46394 -0.880106 0
M  V30 3734 C 360.095 -4.4904 0.243565 0
M  V30 3735 C 358.865 -5.00272 0.711056 0
M  V30 3736 C 361.063 -5.03195 1.06299 0
M  V30 3737 N 359.045 -5.86628 1.80944 0
M  V30 3738 C 360.416 -5.86508 2.01017 0
M  V30 3739 C 362.471 -4.8555 1.10205 0
M  V30 3740 C 361.174 -6.54062 2.99324 0
M  V30 3741 C 363.2 -5.53866 2.07332 0
M  V30 3742 C 362.562 -6.3695 3.00789 0
M  V30 3743 H 358.661 -0.773815 -0.112847 0
M  V30 3744 H 361.245 -1.91754 0.337432 0
M  V30 3745 H 359.416 -3.54515 -1.58662 0
M  V30 3746 H 361.148 -3.76752 -1.47783 0
M  V30 3747 H 357.903 -4.72655 0.29906 0
M  V30 3748 H 358.327 -6.34507 2.36073 0
M  V30 3749 H 362.969 -4.20966 0.39343 0
M  V30 3750 H 360.687 -7.17827 3.71147 0
M  V30 3751 H 364.273 -5.42178 2.11032 0
M  V30 3752 H 363.153 -6.8888 3.74718 0
M  V30 3753 N 360.656 0.0484629 -1.57525 0
M  V30 3754 C 361.603 1.05504 -2.05275 0
M  V30 3755 C 362.573 1.37084 -0.937927 0
M  V30 3756 O 363.758 1.47754 -1.2072 0
M  V30 3757 C 360.898 2.35676 -2.52093 0
M  V30 3758 C 360.011 2.10423 -3.77288 0
M  V30 3759 C 359.146 3.34327 -4.12794 0
M  V30 3760 C 358.185 3.04542 -5.30962 0
M  V30 3761 N 357.322 4.20841 -5.61994 0
M  V30 3762 H 362.162 0.640885 -2.91027 0
M  V30 3763 H 359.699 0.304854 -1.43906 0
M  V30 3764 H 361.657 3.11709 -2.77297 0
M  V30 3765 H 360.287 2.7485 -1.69285 0
M  V30 3766 H 359.339 1.24976 -3.59284 0
M  V30 3767 H 360.651 1.84438 -4.63448 0
M  V30 3768 H 359.805 4.1874 -4.39024 0
M  V30 3769 H 358.544 3.63408 -3.25247 0
M  V30 3770 H 357.549 2.18528 -5.04505 0
M  V30 3771 H 358.774 2.76758 -6.20146 0
M  V30 3772 H 356.72 4.4991 -4.77406 0
M  V30 3773 H 356.637 3.98212 -6.42622 0
M  V30 3774 H 357.905 5.06184 -5.92789 0
M  V30 3775 N 362.134 1.5431 0.320358 0
M  V30 3776 C 363.38 1.73859 1.05568 0
M  V30 3777 C 363.735 0.507807 1.85578 0
M  V30 3778 O 363.028 -0.499789 1.84967 0
M  V30 3779 C 363.222 2.95639 2.00828 0
M  V30 3780 C 363.051 4.30444 1.30186 0
M  V30 3781 C 361.821 4.94544 1.03703 0
M  V30 3782 C 364.019 5.0929 0.716138 0
M  V30 3783 N 362.001 6.13172 0.298846 0
M  V30 3784 C 363.372 6.19903 0.109729 0
M  V30 3785 C 365.427 4.94034 0.619269 0
M  V30 3786 C 364.13 7.16924 -0.584153 0
M  V30 3787 C 366.156 5.91369 -0.0609184 0
M  V30 3788 C 365.518 7.01336 -0.656258 0
M  V30 3789 H 361.617 0.688988 0.36989 0
M  V30 3790 H 364.201 1.9177 0.336494 0
M  V30 3791 H 362.372 2.79188 2.70016 0
M  V30 3792 H 364.104 3.03802 2.6737 0
M  V30 3793 H 360.859 4.54536 1.33019 0
M  V30 3794 H 361.283 6.76977 -0.0561964 0
M  V30 3795 H 365.925 4.0916 1.06526 0
M  V30 3796 H 363.643 8.01354 -1.04197 0
M  V30 3797 H 367.229 5.81642 -0.135552 0
M  V30 3798 H 366.109 7.75359 -1.17423 0
M  V30 3799 N 363.613 -0.582584 1.46437 0
M  V30 3800 C 364.859 -1.34278 1.51978 0
M  V30 3801 C 365.192 -1.93446 0.170973 0
M  V30 3802 O 364.467 -1.76481 -0.817608 0
M  V30 3803 C 364.75 -2.47203 2.61845 0
M  V30 3804 C 364.603 -1.93069 4.06257 0
M  V30 3805 C 365.922 -3.49247 2.67795 0
M  V30 3806 H 363.041 -0.486876 0.553282 0
M  V30 3807 H 365.683 -0.654437 1.78374 0
M  V30 3808 H 363.833 -3.0592 2.39469 0
M  V30 3809 H 365.505 -1.38808 4.3992 0
M  V30 3810 H 363.748 -1.23898 4.1573 0
M  V30 3811 H 364.419 -2.74586 4.7886 0
M  V30 3812 H 366.895 -3.00411 2.8791 0
M  V30 3813 H 365.771 -4.25719 3.46489 0
M  V30 3814 H 366.032 -4.06482 1.73852 0
M  V30 3815 N 365.091 -1.34144 -0.827227 0
M  V30 3816 C 366.368 -1.16844 -1.56865 0
M  V30 3817 C 366.748 0.260654 -2.09485 0
M  V30 3818 O 366.096 1.26138 -1.9053 0
M  V30 3819 C 366.306 -2.21939 -2.6934 0
M  V30 3820 C 367.654 -2.56695 -3.3822 0
M  V30 3821 O 368.678 -2.20695 -2.79593 0
M  V30 3822 O 367.537 -3.18518 -4.44082 0
M  V30 3823 H 364.631 -0.452669 -0.692112 0
M  V30 3824 H 367.177 -1.45763 -0.868973 0
M  V30 3825 H 365.949 -3.17882 -2.28182 0
M  V30 3826 H 365.572 -1.94172 -3.46962 0
M  V30 3827 N 366.569 1.04691 -1.17803 0
M  V30 3828 C 367.817 1.7743 -0.967617 0
M  V30 3829 C 368.138 1.88359 0.504574 0
M  V30 3830 O 367.408 1.40402 1.36617 0
M  V30 3831 H 365.988 0.657242 -0.355024 0
M  V30 3832 H 368.65 1.2638 -1.48371 0
M  V30 3833 H 367.746 2.78924 -1.40027 0
M  V30 3834 N 368.047 0.979072 1.23499 0
M  V30 3835 C 369.275 0.665202 1.95915 0
M  V30 3836 C 369.69 -0.767571 1.72493 0
M  V30 3837 O 369.047 -1.51635 1.01554 0
M  V30 3838 C 369.098 0.944438 3.48945 0
M  V30 3839 O 368.819 2.3209 3.71572 0
M  V30 3840 C 370.32 0.646336 4.38563 0
M  V30 3841 H 367.54 0.247218 0.623798 0
M  V30 3842 H 370.084 1.31009 1.57025 0
M  V30 3843 H 368.239 0.345575 3.85856 0
M  V30 3844 H 368.653 2.40957 4.65876 0
M  V30 3845 H 370.127 0.892091 5.44744 0
M  V30 3846 H 370.604 -0.419575 4.37191 0
M  V30 3847 H 371.21 1.22562 4.07258 0
M  V30 3848 N 369.525 -1.3858 0.750561 0
M  V30 3849 C 370.802 -1.94231 0.231009 0
M  V30 3850 C 371.182 -1.68611 -1.27018 0
M  V30 3851 O 370.53 -1.02296 -2.04323 0
M  V30 3852 C 370.74 -3.44123 0.581428 0
M  V30 3853 C 372.088 -4.2116 0.539389 0
M  V30 3854 O 373.112 -3.52391 0.519541 0
M  V30 3855 O 371.971 -5.43749 0.54765 0
M  V30 3856 H 369.065 -0.825639 0.0474263 0
M  V30 3857 H 371.611 -1.4799 0.830478 0
M  V30 3858 H 370.383 -3.56267 1.61833 0
M  V30 3859 H 370.006 -3.97573 -0.0462047 0
M  V30 3860 N 371.003 -0.499398 -1.49478 0
M  V30 3861 C 372.233 0.0424839 -2.06556 0
M  V30 3862 C 372.641 1.31514 -1.36018 0
M  V30 3863 O 371.984 1.78555 -0.431718 0
M  V30 3864 C 372.046 0.368074 -3.57611 0
M  V30 3865 C 371.71 -0.806631 -4.49825 0
M  V30 3866 C 372.707 -1.69667 -4.91436 0
M  V30 3867 C 370.392 -1.00498 -4.92144 0
M  V30 3868 C 372.386 -2.76923 -5.74101 0
M  V30 3869 C 370.073 -2.08072 -5.74586 0
M  V30 3870 C 371.071 -2.96119 -6.15469 0
M  V30 3871 O 370.759 -4.01836 -6.96264 0
M  V30 3872 H 370.491 -0.0165165 -0.675798 0
M  V30 3873 H 373.045 -0.695497 -1.93267 0
M  V30 3874 H 371.275 1.15963 -3.68903 0
M  V30 3875 H 372.964 0.848381 -3.96935 0
M  V30 3876 H 373.73 -1.55524 -4.59388 0
M  V30 3877 H 369.609 -0.329036 -4.59824 0
M  V30 3878 H 373.153 -3.45676 -6.05932 0
M  V30 3879 H 369.05 -2.22211 -6.06047 0
M  V30 3880 H 369.818 -3.9917 -7.14567 0
M  V30 3881 N 372.481 1.55866 -0.233164 0
M  V30 3882 C 373.897 1.59133 0.121988 0
M  V30 3883 C 374.097 1.25016 1.58029 0
M  V30 3884 O 373.153 0.990922 2.32243 0
M  V30 3885 C 374.466 2.99932 -0.214792 0
M  V30 3886 C 376.014 3.12601 -0.157971 0
M  V30 3887 C 376.489 4.55597 -0.46859 0
M  V30 3888 N 377.98 4.61305 -0.418585 0
M  V30 3889 C 378.715 5.69903 -0.63227 0
M  V30 3890 N 378.211 6.86819 -0.90835 0
M  V30 3891 N 380.004 5.59264 -0.563913 0
M  V30 3892 H 372.155 1.76315 -1.18434 0
M  V30 3893 H 374.418 0.820093 -0.475553 0
M  V30 3894 H 374.124 3.29588 -1.22739 0
M  V30 3895 H 373.998 3.74327 0.464691 0
M  V30 3896 H 376.385 2.82735 0.845283 0
M  V30 3897 H 376.466 2.40511 -0.871102 0
M  V30 3898 H 376.11 4.86182 -1.46934 0
M  V30 3899 H 376.04 5.25928 0.265865 0
M  V30 3900 H 378.531 3.77297 -0.213368 0
M  V30 3901 H 378.844 7.65507 -1.05919 0
M  V30 3902 H 377.189 6.88536 -0.945673 0
M  V30 3903 H 380.38 4.66802 -0.348372 0
M  V30 3904 H 380.553 6.43831 -0.733847 0
M  V30 3905 N 373.959 -0.0401083 1.57549 0
M  V30 3906 C 374.909 -1.05175 2.02292 0
M  V30 3907 C 375.893 -1.32674 0.910294 0
M  V30 3908 O 377.085 -1.32444 1.17421 0
M  V30 3909 C 374.214 -2.35622 2.49674 0
M  V30 3910 C 373.3 -2.11261 3.67736 0
M  V30 3911 N 373.691 -1.56923 4.80842 0
M  V30 3912 C 371.989 -2.41596 3.74897 0
M  V30 3913 C 372.69 -1.48111 5.62528 0
M  V30 3914 N 371.666 -1.95282 5.07312 0
M  V30 3915 H 375.468 -0.625455 2.87168 0
M  V30 3916 H 372.982 -0.246624 1.60516 0
M  V30 3917 H 374.979 -3.08893 2.79983 0
M  V30 3918 H 373.639 -2.7894 1.662 0
M  V30 3919 H 374.65 -1.25345 5.02503 0
M  V30 3920 H 371.327 -2.88064 3.02201 0
M  V30 3921 H 372.717 -1.06683 6.63377 0
M  V30 3922 N 375.437 -1.54477 -0.31217 0
M  V30 3923 C 376.385 -1.85395 -1.40469 0
M  V30 3924 C 377.379 -0.726749 -1.53019 0
M  V30 3925 O 378.585 -0.910582 -1.55269 0
M  V30 3926 H 374.96 -0.587845 -0.46898 0
M  V30 3927 H 376.931 -2.76736 -1.11623 0
M  V30 3928 C 375.68 -2.10811 -2.76503 0
M  V30 3929 H 375.003 -2.97014 -2.67625 0
M  V30 3930 H 376.443 -2.3639 -3.51988 0
M  V30 3931 C 374.902 -0.903165 -3.24568 0
M  V30 3932 O 375.432 -0.118085 -4.01526 0
M  V30 3933 N 373.638 -0.711634 -2.81752 0
M  V30 3934 H 373.185 -1.35171 -2.19286 0
M  V30 3935 H 373.143 0.0930473 -3.14262 0
M  V30 3936 N 376.915 0.57481 -1.46744 0
M  V30 3937 C 378.145 1.35659 -1.55821 0
M  V30 3938 C 378.553 1.88129 -0.201036 0
M  V30 3939 O 377.896 1.64723 0.813134 0
M  V30 3940 C 377.958 2.57473 -2.50894 0
M  V30 3941 C 377.622 2.26415 -3.9697 0
M  V30 3942 C 378.619 1.84771 -4.85958 0
M  V30 3943 C 376.304 2.38316 -4.42166 0
M  V30 3944 C 378.298 1.55434 -6.18158 0
M  V30 3945 C 375.985 2.08591 -5.74398 0
M  V30 3946 C 376.983 1.67216 -6.62214 0
M  V30 3947 O 376.671 1.37859 -7.91991 0
M  V30 3948 H 376.403 0.420496 -0.529301 0
M  V30 3949 H 378.957 0.704967 -1.92923 0
M  V30 3950 H 377.187 3.25468 -2.08824 0
M  V30 3951 H 378.876 3.19546 -2.50291 0
M  V30 3952 H 379.642 1.75085 -4.52295 0
M  V30 3953 H 375.521 2.69483 -3.74032 0
M  V30 3954 H 379.065 1.23065 -6.86659 0
M  V30 3955 H 374.962 2.17905 -6.07608 0
M  V30 3956 H 375.73 1.51638 -8.04331 0
M  V30 3957 N 378.394 1.34581 0.820102 0
M  V30 3958 C 379.341 1.2639 1.93117 0
M  V30 3959 C 380.311 0.138554 1.65521 0
M  V30 3960 O 381.496 0.320004 1.88097 0
M  V30 3961 C 378.636 1.02812 3.29429 0
M  V30 3962 C 377.749 2.24146 3.693 0
M  V30 3963 C 376.884 1.93829 4.94574 0
M  V30 3964 C 375.923 3.1129 5.27034 0
M  V30 3965 N 375.06 2.80838 6.43486 0
M  V30 3966 H 379.9 2.21408 1.99455 0
M  V30 3967 H 377.437 1.10077 0.975784 0
M  V30 3968 H 379.395 0.871788 4.0799 0
M  V30 3969 H 378.025 0.114612 3.22596 0
M  V30 3970 H 377.077 2.50691 2.86109 0
M  V30 3971 H 378.389 3.11899 3.89257 0
M  V30 3972 H 377.543 1.74948 5.80929 0
M  V30 3973 H 376.282 1.03341 4.76626 0
M  V30 3974 H 375.287 3.30764 4.39175 0
M  V30 3975 H 376.512 4.02561 5.4692 0
M  V30 3976 H 374.458 1.92929 6.26988 0
M  V30 3977 H 374.375 3.62123 6.63629 0
M  V30 3978 H 375.643 2.65467 7.32903 0
M  V30 3979 N 379.872 -1.04064 1.18357 0
M  V30 3980 C 380.82 -2.14187 0.907007 0
M  V30 3981 C 381.814 -1.68879 -0.132725 0
M  V30 3982 O 383.02 -1.79993 0.0154248 0
M  V30 3983 H 379.395 -0.699585 0.275835 0
M  V30 3984 H 381.366 -2.34711 1.84264 0
M  V30 3985 C 380.115 -3.44785 0.449254 0
M  V30 3986 H 379.438 -3.80058 1.24081 0
M  V30 3987 H 380.878 -4.22974 0.294737 0
M  V30 3988 C 379.337 -3.26391 -0.834909 0
M  V30 3989 O 379.867 -3.53973 -1.89911 0
M  V30 3990 N 378.073 -2.79726 -0.787523 0
M  V30 3991 H 377.62 -2.5748 0.0787347 0
M  V30 3992 H 377.578 -2.67798 -1.64716 0
M  V30 3993 N 381.35 -0.985608 -1.22978 0
M  V30 3994 C 382.596 -0.667998 -1.92118 0
M  V30 3995 C 382.951 0.790454 -1.75413 0
M  V30 3996 O 382.244 1.56336 -1.10768 0
M  V30 3997 C 382.438 -1.00014 -3.43121 0
M  V30 3998 C 382.267 -2.48933 -3.74516 0
M  V30 3999 C 381.037 -3.15218 -3.94925 0
M  V30 4000 C 383.235 -3.47024 -3.79577 0
M  V30 4001 N 381.217 -4.53689 -4.13569 0
M  V30 4002 C 382.588 -4.70923 -4.03276 0
M  V30 4003 C 384.643 -3.41432 -3.62393 0
M  V30 4004 C 383.346 -5.89914 -4.11574 0
M  V30 4005 C 385.372 -4.59793 -3.71947 0
M  V30 4006 C 384.734 -5.82489 -3.96088 0
M  V30 4007 H 380.833 -0.295589 -0.723983 0
M  V30 4008 H 383.417 -1.26413 -1.4808 0
M  V30 4009 H 381.588 -0.432655 -3.85983 0
M  V30 4010 H 383.32 -0.63927 -3.99619 0
M  V30 4011 H 380.075 -2.65702 -3.92045 0
M  V30 4012 H 380.499 -5.25492 -4.26834 0
M  V30 4013 H 385.141 -2.47594 -3.4272 0
M  V30 4014 H 382.859 -6.84164 -4.30053 0
M  V30 4015 H 386.445 -4.57048 -3.59998 0
M  V30 4016 H 385.325 -6.72546 -4.033 0
M  V30 4017 N 382.828 1.3818 -0.7579 0
M  V30 4018 C 383.791 2.28764 -0.141286 0
M  V30 4019 C 384.791 1.47388 0.642907 0
M  V30 4020 O 385.981 1.67781 0.468536 0
M  V30 4021 C 383.113 3.31184 0.808069 0
M  V30 4022 H 384.306 2.848 -0.939633 0
M  V30 4023 H 381.859 1.47212 -0.525191 0
M  V30 4024 H 382.594 2.80247 1.63193 0
M  V30 4025 H 382.379 3.91314 0.248104 0
M  V30 4026 H 383.869 3.98909 1.23536 0
M  V30 4027 N 384.306 0.507319 1.49211 0
M  V30 4028 C 385.552 -0.0350047 2.0277 0
M  V30 4029 C 385.885 -1.3606 1.38569 0
M  V30 4030 O 385.16 -1.87321 0.523542 0
M  V30 4031 C 385.443 -0.180916 3.59645 0
M  V30 4032 C 385.296 1.16825 4.34364 0
M  V30 4033 C 386.615 -0.918558 4.30407 0
M  V30 4034 H 383.734 -0.0112473 0.736914 0
M  V30 4035 H 386.376 0.659956 1.7817 0
M  V30 4036 H 384.526 -0.772826 3.80736 0
M  V30 4037 H 386.198 1.79952 4.24753 0
M  V30 4038 H 384.441 1.75594 3.96673 0
M  V30 4039 H 385.112 1.01939 5.42506 0
M  V30 4040 H 387.588 -0.41649 4.1401 0
M  V30 4041 H 386.464 -0.989505 5.39907 0
M  V30 4042 H 386.725 -1.96373 3.96093 0
M  V30 4043 N 385.784 -1.5574 0.241426 0
M  V30 4044 C 387.012 -2.03208 -0.389134 0
M  V30 4045 C 387.427 -1.12082 -1.51931 0
M  V30 4046 O 386.784 -0.134183 -1.82006 0
M  V30 4047 C 386.835 -3.50064 -0.902087 0
M  V30 4048 O 386.556 -4.37717 0.18305 0
M  V30 4049 C 388.057 -4.13268 -1.60389 0
M  V30 4050 H 385.277 -0.664509 -0.0931053 0
M  V30 4051 H 387.821 -2.0124 0.36369 0
M  V30 4052 H 385.976 -3.52583 -1.60511 0
M  V30 4053 H 386.39 -5.24097 -0.205579 0
M  V30 4054 H 387.864 -5.17733 -1.91458 0
M  V30 4055 H 388.341 -3.59434 -2.52397 0
M  V30 4056 H 388.947 -4.14655 -0.945576 0
M  V30 4057 N 387.262 0.0317525 -1.57568 0
M  V30 4058 C 388.194 1.06073 -2.03178 0
M  V30 4059 C 389.207 1.32627 -0.944132 0
M  V30 4060 O 390.396 1.30162 -1.22148 0
M  V30 4061 C 387.496 2.40297 -2.38978 0
M  V30 4062 C 386.669 2.33137 -3.70089 0
M  V30 4063 C 385.728 3.49787 -3.9311 0
M  V30 4064 O 384.754 3.29403 -4.64201 0
M  V30 4065 N 385.956 4.71562 -3.38541 0
M  V30 4066 H 388.721 0.672006 -2.92069 0
M  V30 4067 H 386.282 0.219745 -1.60402 0
M  V30 4068 H 388.274 3.1705 -2.51518 0
M  V30 4069 H 386.844 2.71024 -1.55771 0
M  V30 4070 H 386.064 1.415 -3.67928 0
M  V30 4071 H 387.352 2.25493 -4.56104 0
M  V30 4072 H 386.75 4.91024 -2.80912 0
M  V30 4073 H 385.307 5.45689 -3.56464 0
M  V30 4074 N 388.74 1.54641 0.303973 0
M  V30 4075 C 390.151 1.64811 0.877163 0
M  V30 4076 C 390.502 0.554838 1.88191 0
M  V30 4077 O 389.627 -0.309033 2.14182 0
M  V30 4078 C 390.222 2.9876 1.59775 0
M  V30 4079 C 388.781 3.11061 2.11938 0
M  V30 4080 C 387.928 2.60479 0.951097 0
M  V30 4081 H 390.879 1.58493 0.0810486 0
M  V30 4082 H 390.9 2.90017 2.46314 0
M  V30 4083 H 390.412 3.7831 0.866226 0
M  V30 4084 H 388.513 2.36225 2.88146 0
M  V30 4085 H 388.626 4.17171 2.35595 0
M  V30 4086 H 386.99 2.16859 1.33583 0
M  V30 4087 H 387.773 3.42504 0.233581 0
M  V30 4088 N 390.218 -0.567019 1.47046 0
M  V30 4089 C 391.495 -1.3276 1.43646 0
M  V30 4090 C 391.875 -2.1071 0.128186 0
M  V30 4091 O 391.223 -2.10441 -0.890326 0
M  V30 4092 C 391.433 -2.2404 2.67595 0
M  V30 4093 C 392.781 -2.85372 3.14401 0
M  V30 4094 O 393.805 -2.34346 2.68254 0
M  V30 4095 O 392.664 -3.78091 3.946 0
M  V30 4096 H 389.758 -0.597293 0.571988 0
M  V30 4097 H 392.304 -0.586735 1.59234 0
M  V30 4098 H 391.076 -1.65975 3.54356 0
M  V30 4099 H 390.699 -3.05439 2.54544 0
M  V30 4100 N 391.696 -1.35014 -0.812953 0
M  V30 4101 C 392.644 -1.27435 -1.94585 0
M  V30 4102 C 393.638 -0.170494 -1.6854 0
M  V30 4103 O 394.844 -0.336085 -1.76835 0
M  V30 4104 H 391.219 -0.396144 -0.639198 0
M  V30 4105 H 393.19 -2.23158 -1.98098 0
M  V30 4106 C 391.939 -1.05677 -3.31252 0
M  V30 4107 H 391.262 -1.89853 -3.51846 0
M  V30 4108 H 392.702 -1.04413 -4.10943 0
M  V30 4109 C 391.161 0.239615 -3.36047 0
M  V30 4110 O 391.691 1.23759 -3.8216 0
M  V30 4111 N 389.897 0.276186 -2.89285 0
M  V30 4112 H 389.444 -0.53653 -2.51951 0
M  V30 4113 H 389.402 1.14332 -2.92875 0
M  V30 4114 N 393.175 1.03435 -1.18907 0
M  V30 4115 C 394.421 1.7713 -0.99982 0
M  V30 4116 C 394.776 1.86695 0.465049 0
M  V30 4117 O 394.069 1.36866 1.34083 0
M  V30 4118 C 394.263 3.19792 -1.59586 0
M  V30 4119 C 394.092 3.24134 -3.11717 0
M  V30 4120 C 392.862 3.32398 -3.80578 0
M  V30 4121 C 395.06 3.11625 -4.09138 0
M  V30 4122 N 393.042 3.26055 -5.20155 0
M  V30 4123 C 394.413 3.12855 -5.35277 0
M  V30 4124 C 396.468 2.95713 -4.00572 0
M  V30 4125 C 395.171 2.99805 -6.53842 0
M  V30 4126 C 397.197 2.84011 -5.1874 0
M  V30 4127 C 396.559 2.8589 -6.43775 0
M  V30 4128 H 392.658 0.659683 -0.419931 0
M  V30 4129 H 395.242 1.2317 -1.50789 0
M  V30 4130 H 393.413 3.72085 -1.11389 0
M  V30 4131 H 395.145 3.81819 -1.3415 0
M  V30 4132 H 391.9 3.38392 -3.31342 0
M  V30 4133 H 392.324 3.26307 -5.93172 0
M  V30 4134 H 396.966 2.93086 -3.0473 0
M  V30 4135 H 394.684 3.01184 -7.49876 0
M  V30 4136 H 398.27 2.72744 -5.13909 0
M  V30 4137 H 397.15 2.76931 -7.33675 0
M  V30 4138 N 394.653 0.992116 1.22453 0
M  V30 4139 C 395.603 0.512969 2.22155 0
M  V30 4140 C 396.587 -0.418416 1.55364 0
M  V30 4141 O 397.779 -0.245363 1.75291 0
M  V30 4142 C 394.908 -0.171822 3.4287 0
M  V30 4143 C 393.994 0.779822 4.16869 0
M  V30 4144 N 394.385 1.92734 4.6764 0
M  V30 4145 C 392.683 0.59554 4.42006 0
M  V30 4146 C 393.384 2.52458 5.24061 0
M  V30 4147 N 392.36 1.80735 5.12675 0
M  V30 4148 H 396.162 1.38817 2.5905 0
M  V30 4149 H 393.676 0.854277 1.38115 0
M  V30 4150 H 395.673 -0.532469 4.13486 0
M  V30 4151 H 394.333 -1.04317 3.07487 0
M  V30 4152 H 395.344 2.30816 4.63621 0
M  V30 4153 H 392.021 -0.229805 4.16867 0
M  V30 4154 H 393.411 3.49433 5.73887 0
M  V30 4155 N 396.131 -1.37776 0.765217 0
M  V30 4156 C 397.379 -1.99454 0.325943 0
M  V30 4157 C 397.7 -1.61049 -1.09947 0
M  V30 4158 O 396.97 -0.872821 -1.75381 0
M  V30 4159 H 395.55 -0.737697 0.117525 0
M  V30 4160 H 398.212 -1.68359 0.981895 0
M  V30 4161 H 397.308 -3.09547 0.398353 0
M  V30 4162 N 397.609 -0.515225 -1.4894 0
M  V30 4163 C 398.559 0.275113 -2.26334 0
M  V30 4164 C 399.543 0.923007 -1.31793 0
M  V30 4165 O 400.735 0.828254 -1.56426 0
M  V30 4166 C 397.864 1.33041 -3.16473 0
M  V30 4167 C 396.95 0.688051 -4.18481 0
M  V30 4168 N 397.341 -0.217638 -5.05332 0
M  V30 4169 C 395.639 0.94699 -4.3583 0
M  V30 4170 C 396.34 -0.58676 -5.78733 0
M  V30 4171 N 395.316 0.0486966 -5.43578 0
M  V30 4172 H 399.118 -0.421876 -2.90856 0
M  V30 4173 H 396.632 -0.332249 -1.58965 0
M  V30 4174 H 398.629 1.9102 -3.70563 0
M  V30 4175 H 397.289 2.02894 -2.53504 0
M  V30 4176 H 398.3 -0.589343 -5.14536 0
M  V30 4177 H 394.977 1.63719 -3.8406 0
M  V30 4178 H 396.367 -1.32855 -6.58634 0
M  V30 4179 N 399.087 1.5561 -0.249682 0
M  V30 4180 C 399.997 2.25143 0.659375 0
M  V30 4181 C 401.013 1.2685 1.19101 0
M  V30 4182 O 402.189 1.59732 1.22669 0
M  V30 4183 C 399.254 2.93945 1.8384 0
M  V30 4184 C 398.315 4.07655 1.34596 0
M  V30 4185 C 397.548 4.73167 2.46878 0
M  V30 4186 O 397.771 4.37768 3.65671 0
M  V30 4187 O 396.705 5.61623 2.16478 0
M  V30 4188 H 400.531 3.03545 0.0968698 0
M  V30 4189 H 398.116 1.49389 -0.018074 0
M  V30 4190 H 399.998 3.37271 2.52638 0
M  V30 4191 H 398.673 2.18481 2.38847 0
M  V30 4192 H 397.58 3.68839 0.625174 0
M  V30 4193 H 398.913 4.84946 0.841941 0
M  V30 4194 N 400.565 -0.0233959 1.57583 0
M  V30 4195 C 401.495 -1.02162 2.09965 0
M  V30 4196 C 402.476 -1.3735 1.00344 0
M  V30 4197 O 403.661 -1.46135 1.27899 0
M  V30 4198 C 400.791 -2.32081 2.58371 0
M  V30 4199 C 399.745 -2.1112 3.72307 0
M  V30 4200 C 399.071 -3.46848 4.06941 0
M  V30 4201 C 400.371 -1.49276 5.00514 0
M  V30 4202 H 402.065 -0.585557 2.93618 0
M  V30 4203 H 399.611 -0.280218 1.41247 0
M  V30 4204 H 401.564 -3.02249 2.93639 0
M  V30 4205 H 400.288 -2.77758 1.71808 0
M  V30 4206 H 398.947 -1.43384 3.37397 0
M  V30 4207 H 398.595 -3.90184 3.17436 0
M  V30 4208 H 398.295 -3.33646 4.83688 0
M  V30 4209 H 399.819 -4.18369 4.44747 0
M  V30 4210 H 401.233 -2.09368 5.33702 0
M  V30 4211 H 399.63 -1.46632 5.8191 0
M  V30 4212 H 400.7 -0.459217 4.82721 0
M  V30 4213 N 402.043 -1.548 -0.295768 0
M  V30 4214 C 403.291 -1.73985 -1.02828 0
M  V30 4215 C 403.612 -0.531406 -1.87619 0
M  V30 4216 O 402.882 0.454221 -1.90561 0
M  V30 4217 H 401.462 -0.641556 -0.382642 0
M  V30 4218 H 404.124 -1.92163 -0.325489 0
M  V30 4219 H 403.22 -2.63129 -1.67838 0
M  V30 4220 N 403.521 0.559213 -1.47345 0
M  V30 4221 C 404.769 1.31388 -1.53563 0
M  V30 4222 C 405.09 1.93985 -0.198678 0
M  V30 4223 O 404.36 1.79825 0.777167 0
M  V30 4224 H 402.94 0.487901 -0.565652 0
M  V30 4225 H 405.602 0.65315 -1.8363 0
M  V30 4226 H 404.698 2.10844 -2.30111 0
M  V30 4227 N 404.999 1.35443 0.805782 0
M  V30 4228 C 406.224 1.32037 1.59941 0
M  V30 4229 C 406.649 -0.0994215 1.87837 0
M  V30 4230 O 406.007 -1.06648 1.46615 0
M  V30 4231 C 406.055 2.13354 2.90711 0
M  V30 4232 O 405.159 1.5148 3.83572 0
M  V30 4233 H 404.5 0.452666 0.485787 0
M  V30 4234 H 407.03 1.78496 1.00002 0
M  V30 4235 H 407.04 2.25338 3.40128 0
M  V30 4236 H 405.715 3.16572 2.69732 0
M  V30 4237 H 404.292 1.4834 3.42125 0
M  V30 4238 N 406.477 -1.02803 1.19454 0
M  V30 4239 C 407.387 -2.14575 0.948408 0
M  V30 4240 C 408.403 -1.73757 -0.091871 0
M  V30 4241 O 409.579 -2.01185 0.0929654 0
M  V30 4242 C 406.644 -3.43202 0.491265 0
M  V30 4243 C 405.705 -3.98328 1.60103 0
M  V30 4244 C 404.938 -5.20816 1.16561 0
M  V30 4245 O 405.161 -5.70392 0.0295238 0
M  V30 4246 O 404.095 -5.68801 1.96849 0
M  V30 4247 H 407.921 -2.38202 1.88397 0
M  V30 4248 H 405.506 -1.12989 0.977433 0
M  V30 4249 H 407.388 -4.20687 0.245015 0
M  V30 4250 H 406.063 -3.21018 -0.415851 0
M  V30 4251 H 404.97 -3.22174 1.90144 0
M  V30 4252 H 406.303 -4.24879 2.48473 0
M  V30 4253 N 407.956 -0.998596 -1.21925 0
M  V30 4254 C 409.233 -0.593401 -1.86382 0
M  V30 4255 C 409.613 0.92916 -1.89552 0
M  V30 4256 O 408.961 1.81347 -1.39017 0
M  V30 4257 C 409.171 -1.22039 -3.26967 0
M  V30 4258 C 410.519 -1.32449 -4.03413 0
M  V30 4259 O 411.543 -1.17522 -3.36254 0
M  V30 4260 O 410.402 -1.56395 -5.23644 0
M  V30 4261 H 407.496 -0.202385 -0.801854 0
M  V30 4262 H 410.042 -1.09484 -1.29659 0
M  V30 4263 H 408.814 -2.26158 -3.19325 0
M  V30 4264 H 408.437 -0.704906 -3.91301 0
M  V30 4265 N 409.434 1.37368 -0.772513 0
M  V30 4266 C 410.674 2.01512 -0.342361 0
M  V30 4267 C 411.038 1.59997 1.06136 0
M  V30 4268 O 412.239 2.16609 1.59167 0
M  V30 4269 C 410.51 3.54134 -0.482048 0
M  V30 4270 S 412.069 4.38585 -0.137272 0
M  V30 4271 H 408.887 0.698699 -0.131686 0
M  V30 4272 H 411.489 1.67552 -1.0073 0
M  V30 4273 H 410.193 3.81837 -1.50428 0
M  V30 4274 H 409.724 3.92894 0.199413 0
M  V30 4275 H 411.739 4.84594 1.06692 0
M  V30 4276 N 410.912 0.523116 1.48665 0
M  V30 4277 C 412.158 -0.0134963 2.02796 0
M  V30 4278 C 412.491 -1.34582 1.40004 0
M  V30 4279 O 411.766 -1.86756 0.543381 0
M  V30 4280 C 412.049 -0.14276 3.59817 0
M  V30 4281 C 411.902 1.21425 4.331 0
M  V30 4282 C 413.221 -0.872856 4.31357 0
M  V30 4283 H 410.34 -0.00343074 0.736992 0
M  V30 4284 H 412.982 0.678816 1.7746 0
M  V30 4285 H 411.132 -0.732401 3.81534 0
M  V30 4286 H 412.804 1.84447 4.2282 0
M  V30 4287 H 411.047 1.79791 3.94788 0
M  V30 4288 H 411.718 1.07687 5.41394 0
M  V30 4289 H 414.194 -0.372555 4.14429 0
M  V30 4290 H 413.07 -0.932185 5.40927 0
M  V30 4291 H 413.331 -1.92161 3.98154 0
M  V30 4292 N 412.39 -1.55475 0.257931 0
M  V30 4293 C 413.3 -2.2549 -0.647425 0
M  V30 4294 C 414.316 -1.2748 -1.18427 0
M  V30 4295 O 415.492 -1.6038 -1.2182 0
M  V30 4296 C 412.557 -2.94916 -1.82278 0
M  V30 4297 C 411.618 -4.08363 -1.32432 0
M  V30 4298 C 410.851 -4.74469 -2.44366 0
M  V30 4299 O 411.074 -4.39701 -3.63344 0
M  V30 4300 O 410.008 -5.62763 -2.13497 0
M  V30 4301 H 413.834 -3.03593 -0.0807707 0
M  V30 4302 H 411.419 -1.49377 0.0259962 0
M  V30 4303 H 413.301 -3.38606 -2.50846 0
M  V30 4304 H 411.976 -2.19744 -2.37685 0
M  V30 4305 H 410.883 -3.69166 -0.605605 0
M  V30 4306 H 412.216 -4.85385 -0.816211 0
M  V30 4307 N 413.868 0.0150385 -1.57593 0
M  V30 4308 C 415.114 0.704043 -1.90187 0
M  V30 4309 C 415.447 1.74249 -0.857366 0
M  V30 4310 O 414.722 1.94092 0.125843 0
M  V30 4311 C 415.005 1.36087 -3.33395 0
M  V30 4312 C 414.858 0.334981 -4.48551 0
M  V30 4313 C 416.177 2.29112 -3.7576 0
M  V30 4314 H 413.296 0.254475 -0.691673 0
M  V30 4315 H 415.938 -0.0331678 -1.89971 0
M  V30 4316 H 414.088 1.98922 -3.3371 0
M  V30 4317 H 415.76 -0.292534 -4.60372 0
M  V30 4318 H 414.003 -0.344325 -4.32431 0
M  V30 4319 H 414.674 0.833316 -5.45674 0
M  V30 4320 H 417.15 1.76308 -3.76902 0
M  V30 4321 H 416.026 2.72043 -4.76743 0
M  V30 4322 H 416.287 3.16385 -3.08793 0
M  V30 4323 N 415.346 1.54954 0.287554 0
M  V30 4324 C 416.278 1.83224 1.37701 0
M  V30 4325 C 417.291 0.715898 1.46215 0
M  V30 4326 O 418.48 0.993565 1.48292 0
M  V30 4327 C 415.58 1.96723 2.75959 0
M  V30 4328 C 414.753 3.27253 2.90215 0
M  V30 4329 C 413.812 3.30998 4.09056 0
M  V30 4330 O 412.838 4.04457 4.00503 0
M  V30 4331 N 414.04 2.57353 5.20336 0
M  V30 4332 H 416.805 2.77254 1.138 0
M  V30 4333 H 414.366 1.54694 0.477652 0
M  V30 4334 H 416.358 1.96615 3.5373 0
M  V30 4335 H 414.928 1.09626 2.92747 0
M  V30 4336 H 414.148 3.40022 1.99447 0
M  V30 4337 H 415.436 4.13365 2.96659 0
M  V30 4338 H 414.834 1.97327 5.30169 0
M  V30 4339 H 413.391 2.62984 5.96391 0
M  V30 4340 N 416.824 -0.551391 1.4764 0
M  V30 4341 C 418.235 -1.13349 1.48354 0
M  V30 4342 C 418.586 -1.94709 0.241432 0
M  V30 4343 O 417.711 -2.06306 -0.653205 0
M  V30 4344 C 418.306 -2.0623 2.68802 0
M  V30 4345 C 416.865 -2.597 2.72457 0
M  V30 4346 C 416.012 -1.36201 2.41546 0
M  V30 4347 H 418.963 -0.337698 1.55065 0
M  V30 4348 H 418.984 -2.90196 2.46103 0
M  V30 4349 H 418.496 -1.46987 3.59188 0
M  V30 4350 H 416.597 -3.22724 1.86225 0
M  V30 4351 H 416.71 -3.00296 3.73308 0
M  V30 4352 H 415.074 -1.67068 1.9225 0
M  V30 4353 H 415.857 -0.787425 3.34147 0
M  V30 4354 N 418.302 -1.35869 -0.798587 0
M  V30 4355 C 419.579 -1.20145 -1.54352 0
M  V30 4356 C 419.959 0.216161 -2.0999 0
M  V30 4357 O 419.307 1.22068 -1.93162 0
M  V30 4358 C 419.517 -2.27602 -2.64572 0
M  V30 4359 C 420.865 -2.63811 -3.32699 0
M  V30 4360 O 421.889 -2.26576 -2.74849 0
M  V30 4361 O 420.748 -3.27866 -4.37226 0
M  V30 4362 H 417.842 -0.467248 -0.682355 0
M  V30 4363 H 420.388 -1.47574 -0.837859 0
M  V30 4364 H 419.16 -3.2265 -2.21388 0
M  V30 4365 H 418.783 -2.01488 -3.42766 0
M  V30 4366 N 419.78 1.02168 -1.19998 0
M  V30 4367 C 421.028 1.75338 -1.00504 0
M  V30 4368 C 421.349 1.89387 0.464506 0
M  V30 4369 O 420.619 1.43268 1.33608 0
M  V30 4370 H 419.199 0.649564 -0.368885 0
M  V30 4371 H 421.861 1.23205 -1.51018 0
M  V30 4372 H 420.957 2.75892 -1.45912 0
M  V30 4373 N 421.258 1.00505 1.21394 0
M  V30 4374 C 422.674 0.717873 1.42544 0
M  V30 4375 C 422.874 -0.706936 1.88692 0
M  V30 4376 O 421.93 -1.47627 2.04847 0
M  V30 4377 C 423.243 1.73377 2.45684 0
M  V30 4378 C 424.791 1.75059 2.59467 0
M  V30 4379 C 425.266 2.75545 3.6584 0
M  V30 4380 N 426.757 2.74213 3.73311 0
M  V30 4381 C 427.492 3.48626 4.55245 0
M  V30 4382 N 426.988 4.32678 5.41075 0
M  V30 4383 N 428.781 3.37276 4.49668 0
M  V30 4384 H 420.932 1.92506 0.897503 0
M  V30 4385 H 423.195 0.830919 0.456375 0
M  V30 4386 H 422.901 2.75395 2.18748 0
M  V30 4387 H 422.775 1.53647 3.44489 0
M  V30 4388 H 425.162 0.737337 2.8574 0
M  V30 4389 H 425.243 1.98861 1.60897 0
M  V30 4390 H 424.887 3.77028 3.40313 0
M  V30 4391 H 424.817 2.49009 4.64007 0
M  V30 4392 H 427.308 2.13234 3.11993 0
M  V30 4393 H 427.621 4.86253 6.00648 0
M  V30 4394 H 425.966 4.3676 5.40616 0
M  V30 4395 H 429.157 2.71043 3.81646 0
M  V30 4396 H 429.33 3.95524 5.13288 0
M  V30 4397 N 422.737 -1.36956 0.779787 0
M  V30 4398 C 423.983 -2.00237 0.357324 0
M  V30 4399 C 424.338 -1.60787 -1.05666 0
M  V30 4400 O 423.631 -0.847836 -1.71821 0
M  V30 4401 C 423.825 -3.54585 0.447686 0
M  V30 4402 C 423.654 -4.09025 1.86891 0
M  V30 4403 C 422.424 -4.39612 2.49138 0
M  V30 4404 C 424.622 -4.29461 2.82963 0
M  V30 4405 N 422.604 -4.79816 3.82949 0
M  V30 4406 C 423.975 -4.72363 4.01588 0
M  V30 4407 C 426.03 -4.1161 2.80145 0
M  V30 4408 C 424.733 -4.99284 5.17791 0
M  V30 4409 C 426.759 -4.39672 3.95528 0
M  V30 4410 C 426.121 -4.82822 5.12896 0
M  V30 4411 H 422.22 -0.76148 0.177968 0
M  V30 4412 H 424.804 -1.6613 1.01533 0
M  V30 4413 H 422.975 -3.87982 -0.180184 0
M  V30 4414 H 424.707 -4.047 0.0023955 0
M  V30 4415 H 421.462 -4.28975 2.00693 0
M  V30 4416 H 421.886 -5.04216 4.51769 0
M  V30 4417 H 426.528 -3.77415 1.90572 0
M  V30 4418 H 424.246 -5.32365 6.07958 0
M  V30 4419 H 427.832 -4.27441 3.94697 0
M  V30 4420 H 426.712 -5.04118 6.00695 0
M  V30 4421 N 424.215 -0.530993 -1.48385 0
M  V30 4422 C 425.163 0.244595 -2.3131 0
M  V30 4423 C 426.157 0.93451 -1.41291 0
M  V30 4424 O 427.363 0.85878 -1.58193 0
M  V30 4425 H 423.738 0.0977472 -0.74562 0
M  V30 4426 H 425.709 -0.474369 -2.94605 0
M  V30 4427 C 424.458 1.2779 -3.23365 0
M  V30 4428 H 423.781 0.756439 -3.92579 0
M  V30 4429 H 425.221 1.79198 -3.84271 0
M  V30 4430 C 423.68 2.31205 -2.45042 0
M  V30 4431 O 424.21 3.37661 -2.17596 0
M  V30 4432 N 422.416 2.04446 -2.0652 0
M  V30 4433 H 421.963 1.17891 -2.2904 0
M  V30 4434 H 421.921 2.73861 -1.54427 0
M  V30 4435 N 425.693 1.55336 -0.266172 0
M  V30 4436 C 426.97 1.91372 0.404486 0
M  V30 4437 C 427.35 1.18935 1.74407 0
M  V30 4438 O 426.698 0.3132 2.26343 0
M  V30 4439 C 426.908 3.44581 0.553593 0
M  V30 4440 C 428.256 4.16196 0.840618 0
M  V30 4441 O 429.28 3.50426 0.638739 0
M  V30 4442 O 428.139 5.32567 1.22618 0
M  V30 4443 H 425.233 0.797194 0.220025 0
M  V30 4444 H 427.779 1.66813 -0.311664 0
M  V30 4445 H 426.551 3.89357 -0.389498 0
M  V30 4446 H 426.174 3.75065 1.31955 0
M  V30 4447 N 427.171 -0.0066808 1.57599 0
M  V30 4448 C 428.448 -0.729586 1.81484 0
M  V30 4449 C 428.828 -1.92359 0.869558 0
M  V30 4450 O 428.176 -2.28348 -0.0832533 0
M  V30 4451 C 428.386 -1.1416 3.29801 0
M  V30 4452 C 429.734 -1.54823 3.95367 0
M  V30 4453 O 430.758 -1.23558 3.34084 0
M  V30 4454 O 429.617 -2.12937 5.03309 0
M  V30 4455 H 426.711 -0.354674 0.747085 0
M  V30 4456 H 429.257 0.0182609 1.6969 0
M  V30 4457 H 428.029 -0.290231 3.90222 0
M  V30 4458 H 427.652 -1.94876 3.46568 0
M  V30 4459 N 428.649 -1.55105 -0.279332 0
M  V30 4460 C 429.896 -1.75412 -1.01177 0
M  V30 4461 C 430.224 -0.551728 -1.86511 0
M  V30 4462 O 429.479 0.465919 -1.90073 0
M  V30 4463 C 429.778 -3.0086 -1.92919 0
M  V30 4464 C 429.444 -4.33689 -1.23387 0
M  V30 4465 C 428.106 -4.69792 -1.04159 0
M  V30 4466 C 430.458 -5.15941 -0.738562 0
M  V30 4467 C 427.786 -5.85707 -0.341166 0
M  V30 4468 C 430.138 -6.32579 -0.0517636 0
M  V30 4469 C 428.802 -6.67326 0.152292 0
M  V30 4470 H 428.072 -0.641879 -0.370233 0
M  V30 4471 H 430.719 -1.89373 -0.284627 0
M  V30 4472 H 429.024 -2.81773 -2.72234 0
M  V30 4473 H 430.721 -3.13768 -2.49701 0
M  V30 4474 H 427.311 -4.05309 -1.39364 0
M  V30 4475 H 431.495 -4.8853 -0.874764 0
M  V30 4476 H 426.751 -6.11157 -0.172287 0
M  V30 4477 H 430.925 -6.9557 0.339828 0
M  V30 4478 H 428.552 -7.56998 0.697014 0
M  V30 4479 N 430.127 0.543554 -1.4793 0
M  V30 4480 C 431.367 1.31072 -1.56843 0
M  V30 4481 C 431.731 1.90604 -0.231124 0
M  V30 4482 O 432.932 2.68091 -0.195165 0
M  V30 4483 C 431.203 2.38106 -2.66533 0
M  V30 4484 S 432.762 3.24729 -2.95122 0
M  V30 4485 H 429.58 0.446035 -0.553691 0
M  V30 4486 H 432.182 0.620777 -1.85382 0
M  V30 4487 H 430.886 1.92828 -3.62278 0
M  V30 4488 H 430.417 3.11824 -2.39852 0
M  V30 4489 H 432.432 4.37891 -2.3338 0
M  V30 4490 N 431.605 1.3629 0.791371 0
M  V30 4491 C 432.535 1.33137 1.91825 0
M  V30 4492 C 433.516 0.203168 1.68882 0
M  V30 4493 O 434.701 0.400509 1.90025 0
M  V30 4494 C 431.831 1.11793 3.28816 0
M  V30 4495 C 430.785 2.21417 3.66277 0
M  V30 4496 C 430.111 1.85218 5.01596 0
M  V30 4497 C 431.411 3.63489 3.75064 0
M  V30 4498 H 433.105 2.2743 1.9472 0
M  V30 4499 H 430.651 1.09479 0.935437 0
M  V30 4500 H 432.604 1.08222 4.07266 0
M  V30 4501 H 431.328 0.139501 3.26302 0
M  V30 4502 H 429.987 2.2411 2.90121 0
M  V30 4503 H 429.635 0.859544 4.95602 0
M  V30 4504 H 429.335 2.58611 5.27631 0
M  V30 4505 H 430.859 1.832 5.82469 0
M  V30 4506 H 432.273 3.63034 4.43711 0
M  V30 4507 H 430.67 4.35771 4.12582 0
M  V30 4508 H 431.74 3.98536 2.76219 0
M  V30 4509 N 433.083 -1.0153 1.20538 0
M  V30 4510 C 434.015 -2.10224 0.913155 0
M  V30 4511 C 435.028 -1.62495 -0.0995998 0
M  V30 4512 O 436.217 -1.78014 0.131582 0
M  V30 4513 C 433.317 -3.37111 0.347717 0
M  V30 4514 C 432.49 -4.13971 1.41233 0
M  V30 4515 C 431.549 -5.19158 0.857976 0
M  V30 4516 O 430.575 -5.48 1.53897 0
M  V30 4517 N 431.777 -5.7955 -0.331966 0
M  V30 4518 H 434.542 -2.35879 1.84881 0
M  V30 4519 H 432.103 -1.17931 1.10923 0
M  V30 4520 H 434.095 -4.04683 -0.0373026 0
M  V30 4521 H 432.665 -3.08696 -0.492527 0
M  V30 4522 H 431.885 -3.41351 1.97163 0
M  V30 4523 H 433.173 -4.62103 2.12928 0
M  V30 4524 H 432.571 -5.58455 -0.902478 0
M  V30 4525 H 431.128 -6.48464 -0.65861 0
M  V30 4526 N 434.561 -1.01147 -1.20859 0
M  V30 4527 C 435.807 -0.698899 -1.90377 0
M  V30 4528 C 436.14 0.76904 -1.78324 0
M  V30 4529 O 435.415 1.55817 -1.16409 0
M  V30 4530 C 435.698 -1.12878 -3.41951 0
M  V30 4531 C 435.551 -2.65665 -3.62963 0
M  V30 4532 C 436.87 -0.696114 -4.3456 0
M  V30 4533 H 433.989 -0.255372 -0.691342 0
M  V30 4534 H 436.631 -1.25831 -1.42361 0
M  V30 4535 H 434.781 -0.652827 -3.82976 0
M  V30 4536 H 436.453 -3.21074 -3.31224 0
M  V30 4537 H 434.696 -3.06878 -3.06608 0
M  V30 4538 H 435.367 -2.90797 -4.69192 0
M  V30 4539 H 437.843 -1.10521 -4.01154 0
M  V30 4540 H 436.719 -1.025 -5.39245 0
M  V30 4541 H 436.98 0.402465 -4.40264 0
M  V30 4542 N 436.039 1.36541 -0.78704 0
M  V30 4543 C 437.269 2.03266 -0.369662 0
M  V30 4544 C 437.677 1.59481 1.01796 0
M  V30 4545 O 437.02 0.778612 1.66383 0
M  V30 4546 C 437.082 3.57779 -0.351371 0
M  V30 4547 C 436.746 4.24756 -1.68617 0
M  V30 4548 C 437.743 4.47811 -2.64124 0
M  V30 4549 C 435.428 4.62277 -1.96481 0
M  V30 4550 C 437.422 5.07464 -3.85693 0
M  V30 4551 C 435.109 5.21649 -3.18317 0
M  V30 4552 C 436.107 5.44182 -4.12741 0
M  V30 4553 O 435.795 6.02307 -5.32429 0
M  V30 4554 H 435.527 0.658977 -0.150751 0
M  V30 4555 H 438.081 1.75548 -1.0664 0
M  V30 4556 H 436.311 3.84606 0.401847 0
M  V30 4557 H 438 4.05879 0.0410147 0
M  V30 4558 H 438.766 4.19221 -2.43883 0
M  V30 4559 H 434.645 4.44065 -1.23805 0
M  V30 4560 H 438.189 5.24968 -4.59407 0
M  V30 4561 H 434.086 5.49664 -3.38437 0
M  V30 4562 H 434.854 6.20775 -5.33461 0
M  V30 4563 N 437.518 0.538854 1.48102 0
M  V30 4564 C 438.934 0.19732 1.58376 0
M  V30 4565 C 439.134 -1.29971 1.5398 0
M  V30 4566 O 438.19 -2.07861 1.43352 0
M  V30 4567 C 439.503 0.807716 2.89649 0
M  V30 4568 C 441.051 0.77726 3.03196 0
M  V30 4569 C 441.526 1.36639 4.37143 0
M  V30 4570 N 443.017 1.32875 4.43732 0
M  V30 4571 C 443.752 1.7544 5.45901 0
M  V30 4572 N 443.248 2.25776 6.54979 0
M  V30 4573 N 445.041 1.66623 5.36836 0
M  V30 4574 H 437.192 1.5117 1.49202 0
M  V30 4575 H 439.455 0.629327 0.708979 0
M  V30 4576 H 439.161 1.85909 2.98548 0
M  V30 4577 H 439.035 0.289975 3.76084 0
M  V30 4578 H 441.422 -0.265374 2.93904 0
M  V30 4579 H 441.503 1.33256 2.18349 0
M  V30 4580 H 441.147 2.408 4.47189 0
M  V30 4581 H 441.077 0.786689 5.20691 0
M  V30 4582 H 443.568 0.96037 3.65493 0
M  V30 4583 H 443.881 2.56226 7.29087 0
M  V30 4584 H 442.226 2.29775 6.55918 0
M  V30 4585 H 445.417 1.27089 4.50517 0
M  V30 4586 H 445.59 2.00115 6.16326 0
M  V30 4587 N 438.996 -1.55193 0.274407 0
M  V30 4588 C 440.242 -2.00604 -0.33608 0
M  V30 4589 C 440.597 -1.15948 -1.53538 0
M  V30 4590 O 439.89 -0.221385 -1.90317 0
M  V30 4591 C 440.084 -3.49019 -0.769458 0
M  V30 4592 C 439.913 -4.48038 0.386301 0
M  V30 4593 C 438.683 -4.97757 0.869854 0
M  V30 4594 C 440.881 -4.99558 1.22254 0
M  V30 4595 N 438.863 -5.80575 1.99515 0
M  V30 4596 C 440.234 -5.79816 2.19575 0
M  V30 4597 C 442.289 -4.81799 1.25597 0
M  V30 4598 C 440.992 -6.44208 3.19981 0
M  V30 4599 C 443.018 -5.46989 2.24848 0
M  V30 4600 C 442.38 -6.27058 3.20901 0
M  V30 4601 H 438.479 -0.777013 -0.088172 0
M  V30 4602 H 441.063 -1.90583 0.398266 0
M  V30 4603 H 439.234 -3.59383 -1.47303 0
M  V30 4604 H 440.966 -3.81263 -1.35722 0
M  V30 4605 H 437.721 -4.71464 0.449281 0
M  V30 4606 H 438.145 -6.26675 2.5614 0
M  V30 4607 H 442.787 -4.19501 0.527158 0
M  V30 4608 H 440.505 -7.05656 3.93796 0
M  V30 4609 H 444.091 -5.35189 2.28174 0
M  V30 4610 H 442.971 -6.7661 3.96445 0
M  V30 4611 N 440.474 -0.00167713 -1.576 0
M  V30 4612 C 441.72 0.683832 -1.90923 0
M  V30 4613 C 442.053 1.7333 -0.875799 0
M  V30 4614 O 441.328 1.94215 0.10525 0
M  V30 4615 C 441.611 1.32543 -3.3482 0
M  V30 4616 C 441.464 0.287387 -4.48881 0
M  V30 4617 C 442.783 2.25114 -3.78169 0
M  V30 4618 H 439.902 0.247125 -0.694333 0
M  V30 4619 H 442.544 -0.0533149 -1.89925 0
M  V30 4620 H 440.694 1.95372 -3.35801 0
M  V30 4621 H 442.366 -0.341346 -4.60035 0
M  V30 4622 H 440.609 -0.39017 -4.32042 0
M  V30 4623 H 441.28 0.775393 -5.46527 0
M  V30 4624 H 443.756 1.723 -3.7875 0
M  V30 4625 H 442.632 2.66971 -4.79602 0
M  V30 4626 H 442.893 3.13092 -3.12131 0
M  V30 4627 N 441.952 1.55251 0.271103 0
M  V30 4628 C 443.192 1.77698 1.01008 0
M  V30 4629 C 443.556 0.567246 1.83429 0
M  V30 4630 O 444.757 0.670013 2.60316 0
M  V30 4631 C 443.028 3.04715 1.86772 0
M  V30 4632 S 444.587 3.48289 2.66909 0
M  V30 4633 H 441.405 0.624343 0.340172 0
M  V30 4634 H 444.007 1.9348 0.280315 0
M  V30 4635 H 442.711 3.90853 1.25149 0
M  V30 4636 H 442.242 2.91604 2.64066 0
M  V30 4637 H 444.257 3.07712 3.89266 0
M  V30 4638 N 443.43 -0.535701 1.48216 0
M  V30 4639 C 444.34 -1.66785 1.64985 0
M  V30 4640 C 445.356 -1.65654 0.532414 0
M  V30 4641 O 446.532 -1.8471 0.80275 0
M  V30 4642 C 443.597 -3.0326 1.68031 0
M  V30 4643 C 442.658 -3.1529 2.9136 0
M  V30 4644 C 441.891 -4.45255 2.94252 0
M  V30 4645 O 442.114 -5.32011 2.05719 0
M  V30 4646 O 441.048 -4.6153 3.86359 0
M  V30 4647 H 444.874 -1.55576 2.60825 0
M  V30 4648 H 442.459 -0.70815 1.31551 0
M  V30 4649 H 444.341 -3.84436 1.72589 0
M  V30 4650 H 443.016 -3.14805 0.753628 0
M  V30 4651 H 441.923 -2.3343 2.92337 0
M  V30 4652 H 443.256 -3.08658 3.83394 0
M  V30 4653 N 444.908 -1.36708 -0.784132 0
M  V30 4654 C 445.855 -1.31466 -1.89698 0
M  V30 4655 C 446.825 -0.18239 -1.65096 0
M  V30 4656 O 448.01 -0.369762 -1.87183 0
M  V30 4657 C 445.15 -1.1151 -3.26588 0
M  V30 4658 C 444.263 -2.33859 -3.63227 0
M  V30 4659 C 443.398 -2.06873 -4.89262 0
M  V30 4660 C 442.437 -3.25154 -5.18595 0
M  V30 4661 N 441.574 -2.978 -6.35814 0
M  V30 4662 H 446.414 -2.26619 -1.93515 0
M  V30 4663 H 443.951 -1.12625 -0.946256 0
M  V30 4664 H 445.909 -0.979653 -4.05535 0
M  V30 4665 H 444.539 -0.200103 -3.22179 0
M  V30 4666 H 443.591 -2.58188 -2.79362 0
M  V30 4667 H 444.903 -3.22109 -3.8085 0
M  V30 4668 H 444.057 -1.90289 -5.76086 0
M  V30 4669 H 442.796 -1.15942 -4.73718 0
M  V30 4670 H 441.801 -3.42292 -4.30251 0
M  V30 4671 H 443.026 -4.1692 -5.36055 0
M  V30 4672 H 440.972 -2.09485 -6.21653 0
M  V30 4673 H 440.889 -3.7959 -6.53794 0
M  V30 4674 H 442.157 -2.84805 -7.25607 0
M  V30 4675 N 446.386 1.0089 -1.21074 0
M  V30 4676 C 447.802 1.2695 -0.967257 0
M  V30 4677 C 448.002 1.9846 0.348673 0
M  V30 4678 O 447.058 2.28459 1.0753 0
M  V30 4679 C 448.371 2.09697 -2.15517 0
M  V30 4680 C 449.919 2.22937 -2.197 0
M  V30 4681 C 450.394 3.09064 -3.37999 0
M  V30 4682 N 451.885 3.16653 -3.38061 0
M  V30 4683 C 452.62 3.8354 -4.26245 0
M  V30 4684 N 452.116 4.52488 -5.2462 0
M  V30 4685 N 453.909 3.80141 -4.14064 0
M  V30 4686 H 446.06 0.529005 -2.05707 0
M  V30 4687 H 448.323 0.296148 -0.900556 0
M  V30 4688 H 448.029 1.64497 -3.10859 0
M  V30 4689 H 447.903 3.10444 -2.14253 0
M  V30 4690 H 450.29 2.67357 -1.24916 0
M  V30 4691 H 450.371 1.21673 -2.2501 0
M  V30 4692 H 450.015 2.65347 -4.33074 0
M  V30 4693 H 449.945 4.10433 -3.29928 0
M  V30 4694 H 452.436 2.67566 -2.66865 0
M  V30 4695 H 452.749 5.01219 -5.88217 0
M  V30 4696 H 451.094 4.51288 -5.28549 0
M  V30 4697 H 454.285 3.25427 -3.36474 0
M  V30 4698 H 454.458 4.31992 -4.82998 0
M  V30 4699 N 447.864 1.01787 1.20321 0
M  V30 4700 C 449.28 0.732951 1.41774 0
M  V30 4701 C 449.48 -0.686883 1.89431 0
M  V30 4702 O 448.536 -1.45446 2.06402 0
M  V30 4703 C 449.849 1.75973 2.43832 0
M  V30 4704 C 451.397 1.77802 2.57596 0
M  V30 4705 C 451.872 2.7941 3.62897 0
M  V30 4706 N 453.363 2.78157 3.70382 0
M  V30 4707 C 454.098 3.53434 4.51521 0
M  V30 4708 N 453.594 4.38392 5.36455 0
M  V30 4709 N 455.387 3.42026 4.46066 0
M  V30 4710 H 447.538 1.93447 0.877035 0
M  V30 4711 H 449.801 0.835712 0.447536 0
M  V30 4712 H 449.507 2.77699 2.15815 0
M  V30 4713 H 449.381 1.57292 3.4284 0
M  V30 4714 H 451.768 0.767602 2.84942 0
M  V30 4715 H 451.849 2.00557 1.58779 0
M  V30 4716 H 451.493 3.80616 3.36295 0
M  V30 4717 H 451.423 2.53916 4.61339 0
M  V30 4718 H 453.914 2.16531 3.09714 0
M  V30 4719 H 454.227 4.92596 5.95457 0
M  V30 4720 H 452.572 4.4247 5.35953 0
M  V30 4721 H 455.763 2.75075 3.78749 0
M  V30 4722 H 455.936 4.00946 5.09064 0
M  V30 4723 N 449.342 -1.36122 0.79427 0
M  V30 4724 C 450.29 -2.31871 0.184023 0
M  V30 4725 C 451.284 -1.56041 -0.659365 0
M  V30 4726 O 452.49 -1.71266 -0.553906 0
M  V30 4727 H 448.865 -0.750896 0.0407373 0
M  V30 4728 H 450.836 -2.80898 1.00693 0
M  V30 4729 C 449.585 -3.41324 -0.662813 0
M  V30 4730 H 448.908 -3.99793 -0.0231944 0
M  V30 4731 H 450.348 -4.10629 -1.05639 0
M  V30 4732 C 448.807 -2.83308 -1.82313 0
M  V30 4733 O 449.337 -2.75863 -2.91997 0
M  V30 4734 N 447.543 -2.40529 -1.63077 0
M  V30 4735 H 447.09 -2.46785 -0.738591 0
M  V30 4736 H 447.048 -2.02059 -2.40872 0
M  V30 4737 N 450.82 -0.546701 -1.47814 0
M  V30 4738 C 451.783 0.196287 -2.28358 0
M  V30 4739 C 452.783 0.852437 -1.36346 0
M  V30 4740 O 453.973 0.709913 -1.59078 0
M  V30 4741 C 451.105 1.28579 -3.15722 0
M  V30 4742 H 452.298 -0.511086 -2.95513 0
M  V30 4743 H 449.851 -0.303248 -1.5333 0
M  V30 4744 H 450.586 2.0259 -2.53235 0
M  V30 4745 H 450.371 0.820229 -3.83425 0
M  V30 4746 H 451.861 1.80793 -3.76435 0
M  V30 4747 N 452.299 1.55045 -0.282633 0
M  V30 4748 C 453.527 2.04168 0.33512 0
M  V30 4749 C 453.942 1.16071 1.48906 0
M  V30 4750 O 453.299 0.182391 1.81586 0
M  V30 4751 C 453.35 3.52332 0.808957 0
M  V30 4752 O 453.071 4.37078 -0.299038 0
M  V30 4753 C 454.572 4.17375 1.49375 0
M  V30 4754 H 451.792 0.666744 0.0754543 0
M  V30 4755 H 454.336 2.00205 -0.416918 0
M  V30 4756 H 452.491 3.56715 1.51106 0
M  V30 4757 H 452.905 5.24458 0.0665514 0
M  V30 4758 H 454.379 5.22627 1.77664 0
M  V30 4759 H 454.856 3.65999 2.42778 0
M  V30 4760 H 455.462 4.17016 0.835305 0
M  V30 4761 N 453.777 0.010035 1.57597 0
M  V30 4762 C 455.025 -0.671371 1.90623 0
M  V30 4763 C 455.346 -1.73753 0.885151 0
M  V30 4764 O 454.616 -1.95752 -0.0760611 0
M  V30 4765 H 453.196 -0.250968 0.703579 0
M  V30 4766 H 455.858 0.0533325 1.94827 0
M  V30 4767 H 454.954 -1.13626 2.90681 0
M  V30 4768 N 455.255 -1.55392 -0.262866 0
M  V30 4769 C 456.165 -1.92077 -1.34698 0
M  V30 4770 C 457.181 -0.819227 -1.53508 0
M  V30 4771 O 458.357 -1.11921 -1.67439 0
M  V30 4772 C 455.422 -2.19407 -2.68443 0
M  V30 4773 C 454.483 -3.42905 -2.58292 0
M  V30 4774 C 453.716 -3.68921 -3.85659 0
M  V30 4775 O 453.939 -2.97275 -4.8681 0
M  V30 4776 O 452.873 -4.62455 -3.85252 0
M  V30 4777 H 456.699 -2.84384 -1.06581 0
M  V30 4778 H 454.284 -1.42069 -0.462264 0
M  V30 4779 H 456.166 -2.38365 -3.47506 0
M  V30 4780 H 454.841 -1.30282 -2.96325 0
M  V30 4781 H 453.748 -3.29272 -1.7757 0
M  V30 4782 H 455.081 -4.32282 -2.35358 0
M  V30 4783 N 456.733 0.527833 -1.48498 0
M  V30 4784 C 457.979 1.28545 -1.56857 0
M  V30 4785 C 458.312 1.92678 -0.242651 0
M  V30 4786 O 457.587 1.79394 0.751545 0
M  V30 4787 C 457.87 2.37314 -2.70839 0
M  V30 4788 C 457.723 1.77858 -4.13142 0
M  V30 4789 C 459.042 3.39068 -2.80573 0
M  V30 4790 H 456.161 0.466006 -0.570971 0
M  V30 4791 H 458.803 0.587784 -1.8068 0
M  V30 4792 H 456.953 2.96821 -2.50658 0
M  V30 4793 H 458.625 1.22385 -4.44769 0
M  V30 4794 H 456.868 1.08383 -4.20042 0
M  V30 4795 H 457.539 2.56624 -4.88721 0
M  V30 4796 H 460.015 2.89518 -2.98862 0
M  V30 4797 H 458.891 4.12566 -3.6205 0
M  V30 4798 H 459.152 3.9975 -1.88818 0
M  V30 4799 N 458.211 1.37122 0.776871 0
M  V30 4800 C 459.174 1.32301 1.8716 0
M  V30 4801 C 460.174 0.228099 1.59174 0
M  V30 4802 O 461.364 0.483642 1.67352 0
M  V30 4803 C 458.496 1.054 3.24197 0
M  V30 4804 H 459.689 2.29673 1.92848 0
M  V30 4805 H 457.242 1.22077 0.97606 0
M  V30 4806 H 457.977 0.0853872 3.24188 0
M  V30 4807 H 457.762 1.84648 3.45901 0
M  V30 4808 H 459.252 1.04664 4.04271 0
M  V30 4809 O 459.728 -0.91678 1.32956 0
M  V30 4810 H 460.419 -1.55003 1.16162 0
M  V30 END ATOM
M  V30 BEGIN BOND
M  V30 END BOND
M  V30 END CTAB
M  END
$$$$
