drugbank_target|O68601 Copper-containing nitrite reductase (DB03088; DB03814)
 OpenBabel12092120253D

  0  0  0     0  0            999 V3000
M  V30 BEGIN CTAB
M  V30 COUNTS 5461 5536 0 0 0
M  V30 BEGIN ATOM
M  V30 1 H -0.908 1.98254 -0.117106 0
M  V30 2 N 0 1.576 0 0
M  V30 3 C 0.933 2.03868 1.02534 0
M  V30 4 C 1.911 0.928543 1.3348 0
M  V30 5 O 3.095 1.19667 1.45644 0
M  V30 6 C 0.222 2.43627 2.35294 0
M  V30 7 C -0.732 3.65373 2.2001 0
M  V30 8 S 0.101 5.13292 1.52614 0
M  V30 9 C 1.257 5.56322 2.86805 0
M  V30 10 H 1.49 2.90518 0.631377 0
M  V30 11 H -0.977 1.52953 0.210867 0
M  V30 12 H 0.981 2.67203 3.11629 0
M  V30 13 H -0.358 1.57376 2.7183 0
M  V30 14 H -1.165 3.90944 3.18086 0
M  V30 15 H -1.563 3.418 1.51819 0
M  V30 16 H 0.729 5.58782 3.83104 0
M  V30 17 H 1.672 6.56266 2.65933 0
M  V30 18 H 2.08 4.83886 2.90714 0
M  V30 19 N 1.4781 -0.272755 1.55222 0
M  V30 20 C 2.4261 -1.35705 1.88909 0
M  V30 21 C 3.4201 -1.5112 0.765456 0
M  V30 22 O 4.6261 -1.52901 0.949802 0
M  V30 23 H 1.0011 -0.453868 0.59959 0
M  V30 24 H 2.9721 -1.04544 2.79487 0
M  V30 25 C 1.7211 -2.71049 2.17779 0
M  V30 26 H 1.0441 -2.59979 3.03728 0
M  V30 27 H 2.4841 -3.45858 2.45272 0
M  V30 28 C 0.9431 -3.22165 0.985473 0
M  V30 29 O 1.4731 -4.01096 0.220233 0
M  V30 30 N -0.3209 -2.7985 0.783108 0
M  V30 31 H -0.7739 -2.15775 1.40708 0
M  V30 32 H -0.8159 -3.14397 -0.0130392 0
M  V30 33 N 2.9562 -1.48159 -0.537278 0
M  V30 34 C 3.9192 -1.61665 -1.62472 0
M  V30 35 C 4.9192 -0.490395 -1.5314 0
M  V30 36 O 6.1092 -0.755998 -1.5694 0
M  V30 37 C 3.2412 -1.57997 -3.02076 0
M  V30 38 H 4.4342 -2.58621 -1.51839 0
M  V30 39 H 1.9872 -1.36647 -0.758771 0
M  V30 40 H 2.7222 -0.624913 -3.18222 0
M  V30 41 H 2.5072 -2.39755 -3.10258 0
M  V30 42 H 3.9972 -1.70627 -3.81151 0
M  V30 43 N 4.4343 0.785586 -1.36625 0
M  V30 44 C 5.3643 1.91259 -1.33949 0
M  V30 45 C 6.3453 1.68795 -0.210325 0
M  V30 46 O 7.5303 1.89854 -0.408561 0
M  V30 47 C 4.6603 3.28339 -1.13186 0
M  V30 48 C 3.6143 3.65335 -2.22967 0
M  V30 49 C 2.9403 5.00806 -1.87342 0
M  V30 50 C 4.2403 3.7352 -3.65075 0
M  V30 51 H 5.9343 1.93755 -2.28253 0
M  V30 52 H 3.4803 0.930788 -1.09874 0
M  V30 53 H 5.4333 4.06804 -1.09948 0
M  V30 54 H 4.1573 3.2624 -0.153332 0
M  V30 55 H 2.8163 2.89169 -2.25337 0
M  V30 56 H 2.4643 4.95233 -0.880545 0
M  V30 57 H 2.1643 5.26529 -2.60846 0
M  V30 58 H 3.6883 5.81687 -1.85667 0
M  V30 59 H 5.1023 4.42168 -3.64911 0
M  V30 60 H 3.4993 4.10731 -4.37516 0
M  V30 61 H 4.5693 2.74527 -3.99703 0
M  V30 62 N 5.9124 1.20967 1.01018 0
M  V30 63 C 7.3284 0.965905 1.27053 0
M  V30 64 C 7.5284 -0.350785 1.98423 0
M  V30 65 O 6.5844 -1.07773 2.28344 0
M  V30 66 C 7.8974 2.15294 2.09926 0
M  V30 67 C 9.4454 2.19463 2.23171 0
M  V30 68 C 9.9204 3.3767 3.09424 0
M  V30 69 N 11.4114 3.37724 3.17012 0
M  V30 70 C 12.1464 4.25837 3.83993 0
M  V30 71 N 11.6424 5.24138 4.53047 0
M  V30 72 N 13.4354 4.1366 3.80581 0
M  V30 73 H 5.5864 2.0565 0.531194 0
M  V30 74 H 7.8494 0.90024 0.297106 0
M  V30 75 H 7.5554 3.10684 1.64828 0
M  V30 76 H 7.4294 2.13923 3.10672 0
M  V30 77 H 9.8164 1.24632 2.6749 0
M  V30 78 H 9.8974 2.2488 1.21912 0
M  V30 79 H 9.5414 4.32791 2.65808 0
M  V30 80 H 9.4714 3.29491 4.10784 0
M  V30 81 H 11.9624 2.6658 2.6785 0
M  V30 82 H 12.2754 5.87684 5.01844 0
M  V30 83 H 10.6204 5.28068 4.5185 0
M  V30 84 H 13.8114 3.36127 3.25785 0
M  V30 85 H 13.9844 4.82538 4.32505 0
M  V30 86 N 7.3905 -1.2043 1.01659 0
M  V30 87 C 8.8015 -1.71517 0.737482 0
M  V30 88 C 9.1525 -1.81547 -0.743973 0
M  V30 89 O 8.2775 -1.47803 -1.58061 0
M  V30 90 C 8.8725 -3.11515 1.33206 0
M  V30 91 C 7.4315 -3.59912 1.10183 0
M  V30 92 C 6.5785 -2.37116 1.43776 0
M  V30 93 H 9.5295 -1.05444 1.18606 0
M  V30 94 H 9.5505 -3.73575 0.722636 0
M  V30 95 H 9.0625 -3.04182 2.41028 0
M  V30 96 H 7.1635 -3.72577 0.0412756 0
M  V30 97 H 7.2765 -4.44731 1.78188 0
M  V30 98 H 5.6405 -2.39857 0.856778 0
M  V30 99 H 6.4235 -2.32424 2.52654 0
M  V30 100 N 8.8686 -0.792821 -1.36206 0
M  V30 101 C 10.0966 -0.378825 -2.03402 0
M  V30 102 C 10.5116 1.00586 -1.59774 0
M  V30 103 O 9.8686 1.64574 -0.788764 0
M  V30 104 C 9.9196 -0.43683 -3.58851 0
M  V30 105 O 9.6406 -1.76691 -4.00889 0
M  V30 106 C 11.1416 -0.0138943 -4.43298 0
M  V30 107 H 8.3616 -0.155673 -0.652692 0
M  V30 108 H 10.9056 -1.07261 -1.74113 0
M  V30 109 H 9.0606 0.208575 -3.86838 0
M  V30 110 H 9.4746 -1.72011 -4.95492 0
M  V30 111 H 10.9486 -0.105615 -5.51899 0
M  V30 112 H 11.4256 1.03915 -4.2673 0
M  V30 113 H 12.0316 -0.63192 -4.20579 0
M  V30 114 N 10.3467 1.47872 -0.545128 0
M  V30 115 C 11.2767 2.32661 0.197793 0
M  V30 116 C 12.2577 1.43041 0.920504 0
M  V30 117 O 13.4427 1.71912 0.90333 0
M  V30 118 C 10.5727 3.24569 1.23582 0
M  V30 119 C 9.5267 4.23333 0.630323 0
M  V30 120 C 8.8527 5.0448 1.77211 0
M  V30 121 C 10.1527 5.20704 -0.407974 0
M  V30 122 H 11.8467 2.95024 -0.510045 0
M  V30 123 H 9.3927 1.4187 -0.246731 0
M  V30 124 H 11.3457 3.8272 1.76362 0
M  V30 125 H 10.0697 2.60236 1.97344 0
M  V30 126 H 8.7287 3.6639 0.123922 0
M  V30 127 H 8.3767 4.36561 2.49847 0
M  V30 128 H 8.0767 5.71339 1.37281 0
M  V30 129 H 9.6007 5.65487 2.3034 0
M  V30 130 H 11.0147 5.7329 0.033305 0
M  V30 131 H 9.4117 5.95699 -0.725486 0
M  V30 132 H 10.4817 4.66917 -1.30828 0
M  V30 133 N 11.8248 0.280983 1.55075 0
M  V30 134 C 12.7548 -0.597469 2.25727 0
M  V30 135 C 13.7358 -1.15417 1.24952 0
M  V30 136 O 14.9208 -1.18722 1.53684 0
M  V30 137 C 12.0508 -1.7789 2.98283 0
M  V30 138 C 11.0048 -1.35347 4.06036 0
M  V30 139 C 10.3308 -2.61846 4.66198 0
M  V30 140 C 11.6308 -0.499354 5.19907 0
M  V30 141 H 13.3248 -0.00824265 2.99399 0
M  V30 142 H 10.8708 -0.0025244 1.44 0
M  V30 143 H 12.8238 -2.39937 3.46422 0
M  V30 144 H 11.5478 -2.39405 2.22155 0
M  V30 145 H 10.2068 -0.756156 3.58717 0
M  V30 146 H 9.8548 -3.21632 3.86732 0
M  V30 147 H 9.5548 -2.3409 5.38958 0
M  V30 148 H 11.0788 -3.24732 5.1709 0
M  V30 149 H 12.4928 -1.02498 5.64063 0
M  V30 150 H 10.8898 -0.316424 5.99265 0
M  V30 151 H 11.9598 0.480459 4.82514 0
M  V30 152 N 13.3029 -1.57598 0.00835791 0
M  V30 153 C 14.2659 -2.07884 -0.965242 0
M  V30 154 C 15.2659 -0.989825 -1.26725 0
M  V30 155 O 16.4559 -1.25218 -1.21104 0
M  V30 156 C 13.5879 -2.52731 -2.28779 0
M  V30 157 H 14.7809 -2.95178 -0.530112 0
M  V30 158 H 12.3339 -1.54458 -0.239283 0
M  V30 159 H 13.0689 -1.68705 -2.76964 0
M  V30 160 H 12.8539 -3.32272 -2.08177 0
M  V30 161 H 14.3439 -2.91933 -2.98605 0
M  V30 162 N 14.781 0.264519 -1.55364 0
M  V30 163 C 15.744 1.31046 -1.88042 0
M  V30 164 C 16.744 1.41943 -0.755569 0
M  V30 165 O 17.934 1.40947 -1.02369 0
M  V30 166 C 15.066 2.69067 -2.09323 0
M  V30 167 H 16.259 1.03297 -2.81549 0
M  V30 168 H 13.812 0.502989 -1.47986 0
M  V30 169 H 14.547 3.01982 -1.18226 0
M  V30 170 H 14.332 2.62542 -2.91229 0
M  V30 171 H 15.822 3.44623 -2.35848 0
M  V30 172 N 16.2591 1.48442 0.529413 0
M  V30 173 C 17.2221 1.62524 1.61612 0
M  V30 174 C 18.2221 0.498509 1.52877 0
M  V30 175 O 19.4121 0.76431 1.56537 0
M  V30 176 C 16.5441 1.59597 3.01233 0
M  V30 177 H 17.7371 2.59423 1.50465 0
M  V30 178 H 15.2901 1.37047 0.751514 0
M  V30 179 H 16.0251 0.641781 3.17886 0
M  V30 180 H 15.8101 2.41397 3.08982 0
M  V30 181 H 17.3001 1.72646 3.80241 0
M  V30 182 N 17.7372 -0.778329 1.37039 0
M  V30 183 C 18.6672 -1.90546 1.34962 0
M  V30 184 C 19.6482 -1.68681 0.219274 0
M  V30 185 O 20.8332 -1.89634 0.418624 0
M  V30 186 C 17.9632 -3.27734 1.14925 0
M  V30 187 C 16.9172 -3.64147 2.24902 0
M  V30 188 C 16.2432 -4.99806 1.89996 0
M  V30 189 C 17.5432 -3.71579 3.67051 0
M  V30 190 H 19.2372 -1.92541 2.29277 0
M  V30 191 H 16.7832 -0.924948 1.10366 0
M  V30 192 H 18.7362 -4.06215 1.12104 0
M  V30 193 H 17.4602 -3.26154 0.170631 0
M  V30 194 H 16.1192 -2.8797 2.26868 0
M  V30 195 H 15.7672 -4.94759 0.906796 0
M  V30 196 H 15.4672 -5.25139 2.63634 0
M  V30 197 H 16.9912 -5.80694 1.88749 0
M  V30 198 H 18.4052 -4.40227 3.67251 0
M  V30 199 H 16.8022 -4.08405 4.39688 0
M  V30 200 H 17.8722 -2.72404 4.01154 0
M  V30 201 N 19.2153 -1.21501 -1.00376 0
M  V30 202 C 20.1783 -0.976927 -2.07337 0
M  V30 203 C 21.1783 0.0525322 -1.60714 0
M  V30 204 O 22.3683 -0.184869 -1.73216 0
M  V30 205 C 19.5003 -0.473423 -3.37597 0
M  V30 206 H 20.6933 -1.92587 -2.29892 0
M  V30 207 H 18.2463 -1.03217 -1.17371 0
M  V30 208 H 18.9813 0.480379 -3.20722 0
M  V30 209 H 18.7663 -1.216 -3.72768 0
M  V30 210 H 20.2563 -0.32675 -4.1632 0
M  V30 211 N 20.6934 1.19889 -1.02296 0
M  V30 212 C 21.9404 1.8942 -0.715972 0
M  V30 213 C 22.2684 1.79251 0.754944 0
M  V30 214 O 21.5234 1.17526 1.56481 0
M  V30 215 C 21.8224 3.39883 -1.10518 0
M  V30 216 C 21.4884 3.70254 -2.57337 0
M  V30 217 C 20.1504 3.78254 -2.97452 0
M  V30 218 C 22.5024 3.84052 -3.52354 0
M  V30 219 C 19.8304 3.97514 -4.31509 0
M  V30 220 C 22.1824 4.04824 -4.86108 0
M  V30 221 C 20.8464 4.11054 -5.25919 0
M  V30 222 H 20.1164 0.693138 -0.261993 0
M  V30 223 H 22.7634 1.42012 -1.28472 0
M  V30 224 H 21.0684 3.8915 -0.454953 0
M  V30 225 H 22.7654 3.9199 -0.845261 0
M  V30 226 H 19.3554 3.64632 -2.25258 0
M  V30 227 H 23.5394 3.77221 -3.22518 0
M  V30 228 H 18.7954 4.00574 -4.61898 0
M  V30 229 H 22.9694 4.14442 -5.59653 0
M  V30 230 H 20.5964 4.2573 -6.29808 0
M  V30 231 N 22.1715 0.800033 1.35784 0
M  V30 232 C 23.3995 0.389606 2.03199 0
M  V30 233 C 23.8145 -0.997375 1.60306 0
M  V30 234 O 23.1715 -1.64154 0.797481 0
M  V30 235 C 23.2225 0.455855 3.58614 0
M  V30 236 O 22.9435 1.78815 3.99946 0
M  V30 237 C 24.4445 0.0374032 4.43284 0
M  V30 238 H 21.6645 0.159132 0.651857 0
M  V30 239 H 24.2085 1.08183 1.73541 0
M  V30 240 H 22.3635 -0.188057 3.86943 0
M  V30 241 H 22.7775 1.74636 4.94573 0
M  V30 242 H 24.2515 0.134882 5.51835 0
M  V30 243 H 24.7285 -1.01651 4.27275 0
M  V30 244 H 25.3345 0.654215 4.20238 0
M  V30 245 N 23.6496 -1.47581 0.552962 0
M  V30 246 C 24.5826 -2.26883 -0.244857 0
M  V30 247 C 25.5606 -1.33784 -0.924147 0
M  V30 248 O 26.7446 -1.6316 -0.943981 0
M  V30 249 C 23.8716 -3.10695 -1.34856 0
M  V30 250 C 22.9176 -4.19339 -0.778268 0
M  V30 251 S 23.7506 -5.34207 0.37184 0
M  V30 252 C 24.9066 -6.21584 -0.733779 0
M  V30 253 H 25.1396 -2.94202 0.428087 0
M  V30 254 H 22.6726 -1.50628 0.339197 0
M  V30 255 H 24.6306 -3.59555 -1.98066 0
M  V30 256 H 23.2916 -2.42746 -1.99332 0
M  V30 257 H 22.4846 -4.77695 -1.60696 0
M  V30 258 H 22.0866 -3.73338 -0.222422 0
M  V30 259 H 24.3786 -6.57676 -1.62692 0
M  V30 260 H 25.3216 -7.07851 -0.187668 0
M  V30 261 H 25.7296 -5.55125 -1.02454 0
M  V30 262 N 25.1277 -0.289203 -1.54924 0
M  V30 263 C 26.0907 0.579144 -2.21762 0
M  V30 264 C 27.0907 1.07047 -1.1999 0
M  V30 265 O 28.2807 0.968384 -1.44803 0
M  V30 266 C 25.4127 1.80055 -2.8947 0
M  V30 267 H 26.6057 -0.00464908 -2.999 0
M  V30 268 H 24.1587 -0.0399306 -1.56249 0
M  V30 269 H 24.8937 2.42449 -2.15381 0
M  V30 270 H 24.6787 1.45602 -3.64064 0
M  V30 271 H 26.1687 2.41773 -3.40493 0
M  V30 272 N 26.6058 1.57591 -0.0167156 0
M  V30 273 C 27.5688 2.08393 0.954204 0
M  V30 274 C 28.5688 0.996531 1.26198 0
M  V30 275 O 29.7588 1.25858 1.20438 0
M  V30 276 C 26.8908 2.5394 2.27436 0
M  V30 277 H 28.0838 2.95455 0.514451 0
M  V30 278 H 25.6368 1.54582 0.231089 0
M  V30 279 H 26.3718 1.70171 2.76066 0
M  V30 280 H 26.1568 3.33371 2.06412 0
M  V30 281 H 27.6468 2.93512 2.97053 0
M  V30 282 N 28.0839 -0.256276 1.55502 0
M  V30 283 C 29.3319 -0.983672 1.76545 0
M  V30 284 C 29.6529 -1.86206 0.578982 0
M  V30 285 O 28.9229 -1.91656 -0.405577 0
M  V30 286 H 27.5029 -0.366191 0.651086 0
M  V30 287 H 30.1649 -0.276479 1.92929 0
M  V30 288 H 29.2609 -1.61087 2.67315 0
M  V30 289 N 29.562 -1.4872 -0.521534 0
M  V30 290 C 30.79 -1.60843 -1.30142 0
M  V30 291 C 31.205 -0.271897 -1.86832 0
M  V30 292 O 30.562 0.739969 -1.66825 0
M  V30 293 C 30.613 -2.66155 -2.4463 0
M  V30 294 O 30.334 -3.94623 -1.90275 0
M  V30 295 C 31.835 -2.88795 -3.36322 0
M  V30 296 H 29.055 -0.542075 -0.395468 0
M  V30 297 H 31.599 -1.94609 -0.628285 0
M  V30 298 H 29.754 -2.35224 -3.07812 0
M  V30 299 H 30.168 -4.52468 -2.65279 0
M  V30 300 H 31.642 -3.66264 -4.12983 0
M  V30 301 H 32.119 -1.97934 -3.9207 0
M  V30 302 H 32.725 -3.21063 -2.78924 0
M  V30 303 N 31.0401 0.771051 -1.3745 0
M  V30 304 C 32.0031 1.86598 -1.33093 0
M  V30 305 C 33.0031 1.59076 -0.234845 0
M  V30 306 O 34.1931 1.67145 -0.490732 0
M  V30 307 C 31.3251 3.23747 -1.06773 0
M  V30 308 H 32.5181 1.91873 -2.30488 0
M  V30 309 H 30.0711 0.970876 -1.2249 0
M  V30 310 H 30.8061 3.24148 -0.099129 0
M  V30 311 H 30.5911 3.45115 -1.86112 0
M  V30 312 H 32.0811 4.03824 -1.06377 0
M  V30 313 N 32.5182 1.22032 0.997298 0
M  V30 314 C 33.7642 1.05382 1.73972 0
M  V30 315 C 34.1192 -0.407419 1.88037 0
M  V30 316 O 33.4122 -1.29811 1.40924 0
M  V30 317 C 33.6062 1.69345 3.14733 0
M  V30 318 C 33.4352 3.21537 3.14395 0
M  V30 319 C 32.2052 3.9062 3.20537 0
M  V30 320 C 34.4032 4.18527 2.98897 0
M  V30 321 N 32.3852 5.29935 3.09906 0
M  V30 322 C 33.7562 5.44645 2.96247 0
M  V30 323 C 35.8112 4.09476 2.83255 0
M  V30 324 C 34.5142 6.62752 2.79557 0
M  V30 325 C 36.5402 5.27228 2.67926 0
M  V30 326 C 35.9022 6.52262 2.65959 0
M  V30 327 H 32.0012 0.440018 0.646458 0
M  V30 328 H 34.5852 1.54505 1.18475 0
M  V30 329 H 32.7562 1.22778 3.68484 0
M  V30 330 H 34.4882 1.45828 3.77513 0
M  V30 331 H 31.2432 3.41592 3.28043 0
M  V30 332 H 31.6672 6.02926 3.07912 0
M  V30 333 H 36.3092 3.13598 2.83577 0
M  V30 334 H 34.0272 7.58783 2.77982 0
M  V30 335 H 37.6132 5.22053 2.56812 0
M  V30 336 H 36.4932 7.41844 2.54239 0
M  V30 337 N 33.9963 -1.19345 1.0293 0
M  V30 338 C 34.9593 -2.20793 0.615069 0
M  V30 339 C 35.9593 -1.57553 -0.321533 0
M  V30 340 O 37.1493 -1.73862 -0.108483 0
M  V30 341 C 34.2813 -3.40754 -0.0999222 0
M  V30 342 H 35.4743 -2.58955 1.51269 0
M  V30 343 H 33.0273 -1.3303 0.820534 0
M  V30 344 H 33.7623 -3.0811 -1.01187 0
M  V30 345 H 33.5473 -3.87889 0.57309 0
M  V30 346 H 35.0373 -4.15898 -0.376645 0
M  V30 347 N 35.4744 -0.807222 -1.35358 0
M  V30 348 C 36.4064 -0.175717 -2.28525 0
M  V30 349 C 37.4194 0.625354 -1.5031 0
M  V30 350 O 38.6084 0.457611 -1.72535 0
M  V30 351 C 35.7084 0.773471 -3.29956 0
M  V30 352 C 34.8814 0.0186296 -4.37396 0
M  V30 353 C 33.9404 0.886395 -5.18681 0
M  V30 354 O 32.9664 0.337106 -5.68201 0
M  V30 355 N 34.1684 2.20839 -5.36852 0
M  V30 356 H 36.9334 -0.976091 -2.83359 0
M  V30 357 H 34.4944 -0.662737 -1.47714 0
M  V30 358 H 36.4864 1.35824 -3.81227 0
M  V30 359 H 35.0564 1.47465 -2.75632 0
M  V30 360 H 34.2764 -0.747349 -3.87051 0
M  V30 361 H 35.5644 -0.501577 -5.06322 0
M  V30 362 H 34.9624 2.67858 -4.98265 0
M  V30 363 H 33.5194 2.74237 -5.91301 0
M  V30 364 N 36.9525 1.47285 -0.560781 0
M  V30 365 C 38.2295 1.9558 0.0277798 0
M  V30 366 C 38.6095 1.5034 1.48192 0
M  V30 367 O 37.9575 0.743882 2.16052 0
M  V30 368 C 38.1675 3.48789 -0.121418 0
M  V30 369 C 39.5155 4.24594 0.0220912 0
M  V30 370 O 40.5395 3.56166 -0.0491439 0
M  V30 371 O 39.3985 5.46217 0.175958 0
M  V30 372 H 36.4925 0.824663 0.0621342 0
M  V30 373 H 39.0385 1.5767 -0.627556 0
M  V30 374 H 37.8105 3.74533 -1.13316 0
M  V30 375 H 37.4335 3.93473 0.571366 0
M  V30 376 N 38.4306 0.297415 1.54768 0
M  V30 377 C 39.3936 -0.567375 2.22066 0
M  V30 378 C 40.3936 -1.06409 1.20556 0
M  V30 379 O 41.5836 -0.960691 1.45315 0
M  V30 380 C 38.7156 -1.78517 2.90421 0
M  V30 381 H 39.9086 0.0205534 2.99893 0
M  V30 382 H 37.4616 0.0482163 1.56226 0
M  V30 383 H 38.1966 -2.41303 2.16664 0
M  V30 384 H 37.9816 -1.43669 3.64831 0
M  V30 385 H 39.4716 -2.39964 3.41771 0
M  V30 386 N 39.9087 -1.5758 0.0250728 0
M  V30 387 C 41.1857 -1.82917 -0.692873 0
M  V30 388 C 41.5657 -0.908137 -1.90568 0
M  V30 389 O 40.9137 0.0372298 -2.2847 0
M  V30 390 C 41.1237 -3.32034 -1.07492 0
M  V30 391 C 42.4717 -3.98406 -1.46826 0
M  V30 392 O 43.4957 -3.36505 -1.16801 0
M  V30 393 O 42.3547 -5.07497 -2.02754 0
M  V30 394 H 39.4487 -0.754079 -0.33955 0
M  V30 395 H 41.9947 -1.69619 0.0524456 0
M  V30 396 H 40.7667 -3.90728 -0.211552 0
M  V30 397 H 40.3897 -3.50424 -1.87854 0
M  V30 398 N 41.3868 0.248026 -1.55636 0
M  V30 399 C 42.3338 1.30707 -1.90222 0
M  V30 400 C 43.3038 1.47881 -0.756332 0
M  V30 401 O 44.4888 1.61883 -1.00988 0
M  V30 402 C 41.6288 2.65769 -2.20138 0
M  V30 403 C 40.7418 2.56612 -3.47526 0
M  V30 404 C 39.8768 3.8402 -3.67017 0
M  V30 405 C 38.9158 3.69476 -4.8801 0
M  V30 406 N 38.0528 4.88774 -5.04029 0
M  V30 407 H 42.8928 1.00512 -2.80538 0
M  V30 408 H 40.4298 0.485055 -1.38873 0
M  V30 409 H 42.3878 3.44386 -2.35487 0
M  V30 410 H 41.0178 2.94115 -1.33027 0
M  V30 411 H 40.0698 1.69571 -3.40514 0
M  V30 412 H 41.3818 2.41774 -4.36287 0
M  V30 413 H 40.5358 4.7108 -3.8232 0
M  V30 414 H 39.2748 4.01754 -2.76487 0
M  V30 415 H 38.2798 2.80799 -4.72686 0
M  V30 416 H 39.5048 3.53238 -5.8 0
M  V30 417 H 37.4508 5.0687 -4.16435 0
M  V30 418 H 37.3678 4.76562 -5.86877 0
M  V30 419 H 38.6358 5.77335 -5.23741 0
M  V30 420 N 42.8649 1.48995 0.513639 0
M  V30 421 C 43.7949 1.67636 1.62544 0
M  V30 422 C 44.7759 0.525087 1.61793 0
M  V30 423 O 45.9609 0.759502 1.78732 0
M  V30 424 C 43.0909 1.73114 3.01079 0
M  V30 425 C 42.0449 2.87905 3.16693 0
M  V30 426 C 41.3709 2.78486 4.56453 0
M  V30 427 C 42.6709 4.29005 2.97913 0
M  V30 428 H 44.3649 2.60716 1.47198 0
M  V30 429 H 41.9109 1.25465 0.706714 0
M  V30 430 H 43.8639 1.84742 3.78746 0
M  V30 431 H 42.5879 0.766241 3.17484 0
M  V30 432 H 41.2469 2.75859 2.41448 0
M  V30 433 H 40.8949 1.7993 4.69717 0
M  V30 434 H 40.5949 3.55523 4.67843 0
M  V30 435 H 42.1189 2.92104 5.36197 0
M  V30 436 H 43.5329 4.41798 3.65359 0
M  V30 437 H 41.9299 5.07166 3.20785 0
M  V30 438 H 42.9999 4.44329 1.94165 0
M  V30 439 N 44.343 -0.763751 1.37857 0
M  V30 440 C 45.754 -1.3405 1.29952 0
M  V30 441 C 46.105 -1.96138 -0.0492898 0
M  V30 442 O 45.23 -1.94372 -0.951239 0
M  V30 443 C 45.825 -2.43729 2.35333 0
M  V30 444 C 44.384 -2.97151 2.31037 0
M  V30 445 C 43.531 -1.70438 2.18738 0
M  V30 446 H 46.482 -0.563396 1.48363 0
M  V30 447 H 46.503 -3.23412 2.00462 0
M  V30 448 H 46.015 -1.9851 3.33489 0
M  V30 449 H 44.116 -3.46724 1.3643 0
M  V30 450 H 44.229 -3.52221 3.24772 0
M  V30 451 H 42.593 -1.93673 1.65418 0
M  V30 452 H 43.376 -1.27312 3.18821 0
M  V30 453 N 45.8211 -1.22559 -0.990812 0
M  V30 454 C 46.7711 -0.964807 -2.0658 0
M  V30 455 C 47.7551 0.0853472 -1.60673 0
M  V30 456 O 48.9471 -0.125443 -1.76555 0
M  V30 457 C 46.0761 -0.546707 -3.38919 0
M  V30 458 C 45.1621 -1.6317 -3.91454 0
M  V30 459 N 45.5531 -2.85985 -4.17189 0
M  V30 460 C 43.8511 -1.50387 -4.19881 0
M  V30 461 C 44.5521 -3.56159 -4.59919 0
M  V30 462 N 43.5281 -2.83637 -4.63736 0
M  V30 463 H 47.3301 -1.89769 -2.24421 0
M  V30 464 H 44.8441 -1.12343 -1.17273 0
M  V30 465 H 46.8411 -0.34119 -4.15502 0
M  V30 466 H 45.5011 0.379254 -3.22478 0
M  V30 467 H 46.5121 -3.22392 -4.05319 0
M  V30 468 H 43.1891 -0.644254 -4.12499 0
M  V30 469 H 44.5791 -4.6139 -4.88435 0
M  V30 470 N 47.2992 1.18797 -1.03562 0
M  V30 471 C 48.5272 1.92599 -0.755869 0
M  V30 472 C 48.9422 1.75886 0.686271 0
M  V30 473 O 48.2992 1.08517 1.46732 0
M  V30 474 C 48.3502 3.44159 -1.10619 0
M  V30 475 O 48.0712 3.60341 -2.4917 0
M  V30 476 C 49.5722 4.3507 -0.850214 0
M  V30 477 H 46.7922 0.611587 -0.276048 0
M  V30 478 H 49.3362 1.50742 -1.38192 0
M  V30 479 H 47.4912 3.83823 -0.525194 0
M  V30 480 H 47.9052 4.54128 -2.62427 0
M  V30 481 H 49.3792 5.39989 -1.14523 0
M  V30 482 H 49.8562 4.38673 0.215176 0
M  V30 483 H 50.4622 4.01097 -1.41426 0
M  V30 484 N 48.7773 0.814389 1.34928 0
M  V30 485 C 49.7243 0.22822 2.29669 0
M  V30 486 C 50.6943 -0.642164 1.53184 0
M  V30 487 O 51.8793 -0.585605 1.81591 0
M  V30 488 C 49.0193 -0.61089 3.3965 0
M  V30 489 C 48.1323 0.280792 4.31086 0
M  V30 490 C 47.2673 -0.567067 5.28165 0
M  V30 491 C 46.3063 0.324531 6.11239 0
M  V30 492 N 45.4433 -0.483756 7.00431 0
M  V30 493 H 50.2833 1.04153 2.79206 0
M  V30 494 H 47.8203 0.525133 1.37407 0
M  V30 495 H 49.7783 -1.11263 4.0209 0
M  V30 496 H 48.4083 -1.38939 2.91369 0
M  V30 497 H 47.4603 0.900688 3.69583 0
M  V30 498 H 48.7723 0.966723 4.89342 0
M  V30 499 H 47.9263 -1.13363 5.96015 0
M  V30 500 H 46.6653 -1.28654 4.70425 0
M  V30 501 H 45.6703 0.903298 5.42329 0
M  V30 502 H 46.8953 1.04198 6.71059 0
M  V30 503 H 44.8413 -1.18706 6.45171 0
M  V30 504 H 44.7583 0.143965 7.55863 0
M  V30 505 H 46.0263 -1.03334 7.7262 0
M  V30 506 N 50.2554 -1.46986 0.568584 0
M  V30 507 C 51.5014 -2.02741 0.0488709 0
M  V30 508 C 51.8344 -1.44077 -1.30214 0
M  V30 509 O 51.1094 -0.600552 -1.84996 0
M  V30 510 C 51.3924 -3.60086 -0.032047 0
M  V30 511 C 51.2454 -4.29162 1.34686 0
M  V30 512 C 52.5644 -4.33838 -0.739798 0
M  V30 513 H 49.6834 -0.736749 0.0192338 0
M  V30 514 H 52.3254 -1.75289 0.733065 0
M  V30 515 H 50.4754 -3.83606 -0.61473 0
M  V30 516 H 52.1474 -4.16948 1.97362 0
M  V30 517 H 50.3904 -3.89073 1.91846 0
M  V30 518 H 51.0614 -5.37826 1.24285 0
M  V30 519 H 53.5374 -4.15378 -0.244939 0
M  V30 520 H 52.4134 -5.43537 -0.765406 0
M  V30 521 H 52.6744 -4.03875 -1.79827 0
M  V30 522 N 51.7335 -0.305618 -1.54608 0
M  V30 523 C 52.9615 0.304775 -2.04643 0
M  V30 524 C 53.3765 1.47167 -1.18268 0
M  V30 525 O 52.7335 1.81296 -0.209328 0
M  V30 526 C 52.7845 0.756564 -3.53495 0
M  V30 527 O 52.5055 -0.36389 -4.36586 0
M  V30 528 C 54.0065 1.43163 -4.19546 0
M  V30 529 H 51.2265 0.0655481 -0.667791 0
M  V30 530 H 53.7705 -0.446592 -1.99564 0
M  V30 531 H 51.9255 1.45794 -3.58919 0
M  V30 532 H 52.3395 -0.0113121 -5.24499 0
M  V30 533 H 53.8135 1.69886 -5.25207 0
M  V30 534 H 54.2905 2.37318 -3.69563 0
M  V30 535 H 54.8965 0.773307 -4.18211 0
M  V30 536 N 53.2116 1.57565 -0.0334293 0
M  V30 537 C 54.1416 2.13511 0.945265 0
M  V30 538 C 55.1226 1.05231 1.33643 0
M  V30 539 O 56.3076 1.33084 1.41429 0
M  V30 540 C 53.4376 2.6657 2.22616 0
M  V30 541 C 52.3916 3.79676 1.97561 0
M  V30 542 C 51.7176 4.1918 3.31952 0
M  V30 543 C 53.0176 5.0557 1.31135 0
M  V30 544 H 54.7116 2.95538 0.479325 0
M  V30 545 H 52.2576 1.42166 0.229115 0
M  V30 546 H 54.2106 3.04344 2.91466 0
M  V30 547 H 52.9346 1.8171 2.71384 0
M  V30 548 H 51.5936 3.42347 1.31127 0
M  V30 549 H 51.2416 3.31296 3.78487 0
M  V30 550 H 50.9416 4.95402 3.15992 0
M  V30 551 H 52.4656 4.59541 4.02063 0
M  V30 552 H 53.8796 5.40903 1.89992 0
M  V30 553 H 52.2766 5.86818 1.25559 0
M  V30 554 H 53.3466 4.84062 0.284894 0
M  V30 555 N 54.6897 -0.239769 1.55765 0
M  V30 556 C 55.9357 -0.968234 1.78194 0
M  V30 557 C 56.2687 -1.84701 0.599938 0
M  V30 558 O 55.5437 -1.9031 -0.401524 0
M  V30 559 C 55.8267 -1.8227 3.10564 0
M  V30 560 C 55.6797 -0.971633 4.3918 0
M  V30 561 C 56.9987 -2.80388 3.39221 0
M  V30 562 H 54.1177 -0.350572 0.648281 0
M  V30 563 H 56.7597 -0.238259 1.885 0
M  V30 564 H 54.9097 -2.44507 3.01908 0
M  V30 565 H 56.5817 -0.367408 4.59835 0
M  V30 566 H 54.8247 -0.276276 4.32919 0
M  V30 567 H 55.4957 -1.60346 5.28198 0
M  V30 568 H 57.9717 -2.28287 3.47885 0
M  V30 569 H 56.8477 -3.3729 4.33044 0
M  V30 570 H 57.1087 -3.57212 2.60484 0
M  V30 571 N 56.1678 -1.49265 -0.50573 0
M  V30 572 C 57.1308 -1.65075 -1.59006 0
M  V30 573 C 58.1308 -0.522768 -1.52065 0
M  V30 574 O 59.3208 -0.789117 -1.55302 0
M  V30 575 C 56.4528 -1.64369 -2.98656 0
M  V30 576 H 57.6458 -2.61784 -1.46319 0
M  V30 577 H 55.1988 -1.38226 -0.729616 0
M  V30 578 H 55.9338 -0.692272 -3.16825 0
M  V30 579 H 55.7188 -2.46282 -3.05103 0
M  V30 580 H 57.2088 -1.78674 -3.77446 0
M  V30 581 N 57.6459 0.756429 -1.3826 0
M  V30 582 C 59.0569 1.33359 -1.30661 0
M  V30 583 C 59.4079 1.96161 0.0388875 0
M  V30 584 O 58.5329 1.94874 0.940918 0
M  V30 585 C 59.1279 2.42477 -2.36622 0
M  V30 586 C 57.6869 2.95922 -2.3261 0
M  V30 587 C 56.8339 1.69275 -2.19639 0
M  V30 588 H 59.7849 0.55552 -1.4866 0
M  V30 589 H 59.8059 3.22345 -2.02174 0
M  V30 590 H 59.3179 1.96739 -3.34538 0
M  V30 591 H 57.4189 3.45996 -1.38267 0
M  V30 592 H 57.5319 3.50494 -3.26636 0
M  V30 593 H 55.8959 1.92793 -1.66442 0
M  V30 594 H 56.6789 1.25619 -3.19491 0
M  V30 595 N 59.124 1.23083 0.984299 0
M  V30 596 C 60.535 1.05609 1.5396 0
M  V30 597 C 60.886 -0.377793 1.92528 0
M  V30 598 O 60.011 -1.26398 1.75649 0
M  V30 599 C 60.606 1.91087 2.7977 0
M  V30 600 C 59.165 1.77885 3.31713 0
M  V30 601 C 58.312 1.87028 2.04733 0
M  V30 602 H 61.263 1.36802 0.804419 0
M  V30 603 H 61.284 1.43336 3.5247 0
M  V30 604 H 60.796 2.9544 2.51668 0
M  V30 605 H 58.897 0.762995 3.64704 0
M  V30 606 H 59.01 2.61047 4.01735 0
M  V30 607 H 57.374 1.30565 2.18689 0
M  V30 608 H 58.157 2.92929 1.79017 0
M  V30 609 N 60.6021 -1.18246 1.0419 0
M  V30 610 C 61.5341 -2.2142 0.592088 0
M  V30 611 C 62.5471 -1.59233 -0.338909 0
M  V30 612 O 63.7361 -1.78002 -0.133231 0
M  V30 613 C 60.8361 -3.38546 -0.154854 0
M  V30 614 C 60.0091 -4.3031 0.784328 0
M  V30 615 C 59.0681 -5.26138 0.0804583 0
M  V30 616 O 58.0941 -5.64738 0.711292 0
M  V30 617 N 59.2961 -5.68261 -1.18574 0
M  V30 618 H 62.0611 -2.60636 1.47949 0
M  V30 619 H 59.6221 -1.33044 0.922544 0
M  V30 620 H 61.6141 -3.99678 -0.635606 0
M  V30 621 H 60.1841 -2.98012 -0.943811 0
M  V30 622 H 59.4041 -3.66764 1.44491 0
M  V30 623 H 60.6921 -4.8852 1.42218 0
M  V30 624 H 60.0901 -5.38957 -1.71876 0
M  V30 625 H 58.6471 -6.31584 -1.61074 0
M  V30 626 N 62.0802 -0.821533 -1.34494 0
M  V30 627 C 63.3262 -0.409552 -1.98622 0
M  V30 628 C 63.6592 1.0244 -1.64984 0
M  V30 629 O 62.9342 1.71325 -0.920758 0
M  V30 630 C 63.2172 -0.610458 -3.54888 0
M  V30 631 C 63.0702 -2.09043 -3.98273 0
M  V30 632 C 64.3892 -0.0455379 -4.40076 0
M  V30 633 H 61.5082 -0.15028 -0.721516 0
M  V30 634 H 64.1502 -1.03384 -1.59411 0
M  V30 635 H 62.3002 -0.079044 -3.8842 0
M  V30 636 H 63.9722 -2.68537 -3.75081 0
M  V30 637 H 62.2152 -2.58139 -3.48635 0
M  V30 638 H 62.8862 -2.18182 -5.07051 0
M  V30 639 H 65.3622 -0.499557 -4.1309 0
M  V30 640 H 64.2382 -0.215922 -5.48475 0
M  V30 641 H 64.4992 1.04939 -4.29465 0
M  V30 642 N 63.5583 1.46682 -0.576371 0
M  V30 643 C 64.5083 2.27278 0.181288 0
M  V30 644 C 65.4923 1.35497 0.867721 0
M  V30 645 O 66.6843 1.59717 0.762863 0
M  V30 646 C 63.8133 3.21703 1.19841 0
M  V30 647 C 62.8993 4.20969 0.51442 0
M  V30 648 N 63.2903 5.03999 -0.426407 0
M  V30 649 C 61.5883 4.39373 0.765963 0
M  V30 650 C 62.2893 5.75812 -0.825565 0
M  V30 651 N 61.2653 5.43315 -0.176116 0
M  V30 652 H 65.0673 2.88863 -0.541785 0
M  V30 653 H 62.5813 1.57455 -0.397697 0
M  V30 654 H 64.5783 3.78145 1.75533 0
M  V30 655 H 63.2383 2.61677 1.92238 0
M  V30 656 H 64.2493 5.11659 -0.8016 0
M  V30 657 H 60.9263 3.90502 1.47698 0
M  V30 658 H 62.3163 6.52577 -1.59976 0
M  V30 659 N 65.0364 0.313813 1.54444 0
M  V30 660 C 66.4474 -0.176243 1.85866 0
M  V30 661 C 66.7984 -1.52405 1.23561 0
M  V30 662 O 65.9234 -2.09605 0.538016 0
M  V30 663 C 66.5184 -0.32657 3.37222 0
M  V30 664 C 65.0774 -0.760846 3.6863 0
M  V30 665 C 64.2244 0.123247 2.77026 0
M  V30 666 H 67.1754 0.534418 1.49431 0
M  V30 667 H 67.1964 -1.15908 3.62416 0
M  V30 668 H 66.7084 0.654531 3.82541 0
M  V30 669 H 64.8094 -1.75204 3.28838 0
M  V30 670 H 64.9224 -0.571353 4.75681 0
M  V30 671 H 63.2864 -0.399597 2.51546 0
M  V30 672 H 64.0694 1.10094 3.25168 0
M  V30 673 N 66.5145 -1.57545 0.0417849 0
M  V30 674 C 67.4645 -2.07483 -0.945247 0
M  V30 675 C 68.4485 -0.977983 -1.27767 0
M  V30 676 O 69.6405 -1.24142 -1.26166 0
M  V30 677 C 66.7695 -2.61576 -2.22335 0
M  V30 678 C 65.8555 -3.78213 -1.91874 0
M  V30 679 N 66.2465 -4.88344 -1.31733 0
M  V30 680 C 64.5445 -3.8694 -2.21796 0
M  V30 681 C 65.2455 -5.69462 -1.1869 0
M  V30 682 N 64.2215 -5.16771 -1.68666 0
M  V30 683 H 68.0235 -2.90029 -0.475441 0
M  V30 684 H 65.5375 -1.61581 -0.162911 0
M  V30 685 H 67.5345 -2.95651 -2.93932 0
M  V30 686 H 66.1945 -1.80465 -2.69931 0
M  V30 687 H 67.2055 -5.08335 -0.990729 0
M  V30 688 H 63.8825 -3.16757 -2.71977 0
M  V30 689 H 65.2725 -6.68023 -0.720793 0
M  V30 690 N 67.9926 0.231505 -1.5589 0
M  V30 691 C 68.9026 1.308 -1.94752 0
M  V30 692 C 69.9186 1.51826 -0.849989 0
M  V30 693 O 71.0946 1.6515 -1.15271 0
M  V30 694 C 68.1596 2.63968 -2.24771 0
M  V30 695 C 67.2206 2.51331 -3.48039 0
M  V30 696 C 66.4536 3.78148 -3.76616 0
M  V30 697 O 66.6766 4.80722 -3.07022 0
M  V30 698 O 65.6106 3.75857 -4.70123 0
M  V30 699 H 69.4366 1.0083 -2.86474 0
M  V30 700 H 67.0216 0.433547 -1.42971 0
M  V30 701 H 68.9036 3.42633 -2.45318 0
M  V30 702 H 67.5786 2.9364 -1.36225 0
M  V30 703 H 66.4856 1.709 -3.32782 0
M  V30 704 H 67.8186 2.26601 -4.36936 0
M  V30 705 N 69.4707 1.49531 0.497807 0
M  V30 706 C 70.4027 1.62559 1.61578 0
M  V30 707 C 71.4157 0.508134 1.54667 0
M  V30 708 O 72.6047 0.780309 1.60541 0
M  V30 709 C 69.7047 1.56925 3.00379 0
M  V30 710 C 68.8777 2.84257 3.3244 0
M  V30 711 C 67.9367 2.71632 4.50669 0
M  V30 712 O 66.9627 3.4557 4.52294 0
M  V30 713 N 68.1647 1.83391 5.5077 0
M  V30 714 H 70.9297 2.58981 1.50828 0
M  V30 715 H 68.4907 1.4666 0.685743 0
M  V30 716 H 70.4827 1.46129 3.77397 0
M  V30 717 H 69.0527 0.683483 3.05037 0
M  V30 718 H 68.2727 3.09381 2.44289 0
M  V30 719 H 69.5607 3.68666 3.5066 0
M  V30 720 H 68.9587 1.22583 5.52259 0
M  V30 721 H 67.5157 1.78515 6.26878 0
M  V30 722 N 70.9488 -0.749086 1.3866 0
M  V30 723 C 71.9118 -1.84457 1.36045 0
M  V30 724 C 72.9118 -1.58682 0.260122 0
M  V30 725 O 74.1018 -1.66343 0.517261 0
M  V30 726 C 71.2338 -3.22008 1.11911 0
M  V30 727 H 72.4268 -1.88182 2.33512 0
M  V30 728 H 69.9798 -0.951266 1.24019 0
M  V30 729 H 70.7148 -3.2395 0.150686 0
M  V30 730 H 70.4998 -3.42111 1.91579 0
M  V30 731 H 71.9898 -4.0208 1.12788 0
M  V30 732 N 72.4269 -1.23603 -0.977757 0
M  V30 733 C 73.6549 -1.09646 -1.75458 0
M  V30 734 C 74.0699 0.351859 -1.85492 0
M  V30 735 O 73.4269 1.24327 -1.336 0
M  V30 736 C 73.4779 -1.71895 -3.18016 0
M  V30 737 O 73.1989 -3.11063 -3.08498 0
M  V30 738 C 74.6999 -1.63415 -4.12081 0
M  V30 739 H 71.9199 -0.38359 -0.550545 0
M  V30 740 H 74.4639 -1.63507 -1.22824 0
M  V30 741 H 72.6189 -1.22061 -3.67668 0
M  V30 742 H 73.0329 -3.41305 -3.9826 0
M  V30 743 H 74.5069 -2.11669 -5.09804 0
M  V30 744 H 74.9839 -0.593462 -4.35172 0
M  V30 745 H 75.5899 -2.12628 -3.68334 0
M  V30 746 N 73.905 1.17692 -1.04816 0
M  V30 747 C 74.852 2.21581 -0.645797 0
M  V30 748 C 75.822 1.62367 0.350159 0
M  V30 749 O 77.007 1.89254 0.242433 0
M  V30 750 C 74.147 3.45092 -0.0227568 0
M  V30 751 C 73.26 4.18613 -1.06709 0
M  V30 752 C 72.395 5.29602 -0.411767 0
M  V30 753 C 71.434 5.94904 -1.44067 0
M  V30 754 N 70.571 6.97414 -0.809781 0
M  V30 755 H 75.411 2.55353 -1.5362 0
M  V30 756 H 72.948 1.25438 -0.768364 0
M  V30 757 H 74.906 4.15679 0.35588 0
M  V30 758 H 73.536 3.11917 0.831122 0
M  V30 759 H 72.588 3.46779 -1.5636 0
M  V30 760 H 73.9 4.63293 -1.84827 0
M  V30 761 H 73.054 6.06696 0.0206623 0
M  V30 762 H 71.793 4.86045 0.401438 0
M  V30 763 H 70.798 5.16544 -1.88316 0
M  V30 764 H 72.023 6.40542 -2.25571 0
M  V30 765 H 69.969 6.55998 -0.0170186 0
M  V30 766 H 69.886 7.40386 -1.52856 0
M  V30 767 H 71.154 7.78463 -0.401999 0
M  V30 768 N 75.3831 0.828654 1.34056 0
M  V30 769 C 76.6081 0.431637 2.02859 0
M  V30 770 C 77.0331 -0.956339 1.61975 0
M  V30 771 O 76.3911 -1.62338 0.807228 0
M  V30 772 C 76.4391 0.548323 3.56407 0
M  V30 773 O 75.5431 -0.429556 4.10157 0
M  V30 774 H 74.8841 0.176886 0.640006 0
M  V30 775 H 77.4141 1.12066 1.71179 0
M  V30 776 H 77.4241 0.426196 4.05768 0
M  V30 777 H 76.0991 1.5606 3.8551 0
M  V30 778 H 74.6761 -0.265836 3.71951 0
M  V30 779 N 76.8612 -1.46375 0.584142 0
M  V30 780 C 78.1092 -2.01978 0.0701287 0
M  V30 781 C 78.4302 -1.4579 -1.295 0
M  V30 782 O 77.7002 -0.64314 -1.85042 0
M  V30 783 H 76.2802 -0.746648 0.0229345 0
M  V30 784 H 78.9422 -1.79461 0.760245 0
M  V30 785 H 78.0382 -3.121 0.0022064 0
M  V30 786 N 78.3393 -0.321999 -1.54275 0
M  V30 787 C 79.7503 0.166384 -1.85957 0
M  V30 788 C 80.1013 1.51747 -1.24367 0
M  V30 789 O 79.2263 2.09317 -0.549124 0
M  V30 790 C 79.8213 0.308681 -3.37391 0
M  V30 791 C 78.3803 0.741286 -3.69028 0
M  V30 792 C 77.5273 -0.137937 -2.76957 0
M  V30 793 H 80.4783 -0.542335 -1.49146 0
M  V30 794 H 80.4993 1.13984 -3.63026 0
M  V30 795 H 80.0113 -0.674809 -3.82188 0
M  V30 796 H 78.1123 1.73458 -3.29762 0
M  V30 797 H 78.2253 0.546118 -4.75977 0
M  V30 798 H 76.5893 0.386251 -2.51754 0
M  V30 799 H 77.3723 -1.11816 -3.2458 0
M  V30 800 N 79.8174 1.5752 -0.0501392 0
M  V30 801 C 80.7644 2.1147 0.924603 0
M  V30 802 C 81.7344 1.02182 1.30951 0
M  V30 803 O 82.9194 1.29723 1.39916 0
M  V30 804 C 80.0594 2.66337 2.19451 0
M  V30 805 C 79.1724 3.89708 1.86418 0
M  V30 806 C 78.3074 4.32893 3.07859 0
M  V30 807 C 77.3464 5.48967 2.70742 0
M  V30 808 N 76.4834 5.87211 3.84874 0
M  V30 809 H 81.3234 2.94465 0.457639 0
M  V30 810 H 78.8604 1.45531 0.214266 0
M  V30 811 H 80.8184 2.96247 2.93758 0
M  V30 812 H 79.4484 1.86141 2.63726 0
M  V30 813 H 78.5004 3.66396 1.02264 0
M  V30 814 H 79.8124 4.74074 1.55096 0
M  V30 815 H 78.9664 4.6435 3.90466 0
M  V30 816 H 77.7054 3.47336 3.42358 0
M  V30 817 H 76.7104 5.17183 1.86551 0
M  V30 818 H 77.9354 6.3624 2.37436 0
M  V30 819 H 75.8814 5.04607 4.19175 0
M  V30 820 H 75.7984 6.66266 3.57247 0
M  V30 821 H 77.0664 6.23282 4.68123 0
M  V30 822 N 81.2955 -0.223234 1.56011 0
M  V30 823 C 82.5415 -0.949279 1.79211 0
M  V30 824 C 82.8745 -1.84054 0.619494 0
M  V30 825 O 82.1495 -1.90726 -0.381317 0
M  V30 826 C 82.4325 -1.78965 3.12479 0
M  V30 827 C 82.2855 -0.924997 4.40186 0
M  V30 828 C 83.6045 -2.76774 3.42175 0
M  V30 829 H 80.7235 -0.343676 0.651963 0
M  V30 830 H 83.3655 -0.218253 1.88742 0
M  V30 831 H 81.5155 -2.41291 3.04485 0
M  V30 832 H 83.1875 -0.318615 4.60198 0
M  V30 833 H 81.4305 -0.230344 4.33188 0
M  V30 834 H 82.1015 -1.54735 5.29869 0
M  V30 835 H 84.5775 -2.24584 3.50287 0
M  V30 836 H 83.4535 -3.32678 4.36597 0
M  V30 837 H 83.7145 -3.54429 2.64258 0
M  V30 838 N 82.7736 -1.49793 -0.48987 0
M  V30 839 C 84.0196 -1.60078 -1.24511 0
M  V30 840 C 84.3526 -0.291608 -1.91998 0
M  V30 841 O 83.6276 0.705647 -1.81248 0
M  V30 842 C 83.9106 -2.76791 -2.30345 0
M  V30 843 C 83.7636 -4.17535 -1.67286 0
M  V30 844 C 85.0826 -2.89111 -3.31817 0
M  V30 845 H 82.2016 -0.582645 -0.451324 0
M  V30 846 H 84.8436 -1.82117 -0.541612 0
M  V30 847 H 82.9936 -2.5813 -2.90346 0
M  V30 848 H 84.6656 -4.4774 -1.11026 0
M  V30 849 H 82.9086 -4.22665 -0.976577 0
M  V30 850 H 83.5796 -4.95094 -2.44103 0
M  V30 851 H 86.0556 -3.06133 -2.81819 0
M  V30 852 H 84.9316 -3.72433 -4.03219 0
M  V30 853 H 85.1926 -1.9893 -3.94815 0
M  V30 854 N 84.2517 0.741722 -1.39055 0
M  V30 855 C 85.1617 1.88621 -1.39496 0
M  V30 856 C 86.1777 1.71557 -0.290578 0
M  V30 857 O 87.3537 1.94275 -0.530954 0
M  V30 858 C 84.4187 3.24134 -1.23037 0
M  V30 859 C 83.4797 3.5364 -2.43387 0
M  V30 860 C 82.7127 4.82687 -2.27703 0
M  V30 861 O 82.9357 5.55922 -1.27696 0
M  V30 862 O 81.8697 5.1194 -3.16545 0
M  V30 863 H 85.6957 1.91203 -2.35956 0
M  V30 864 H 83.2807 0.888625 -1.20099 0
M  V30 865 H 85.1627 4.0513 -1.15964 0
M  V30 866 H 83.8377 3.22337 -0.296691 0
M  V30 867 H 82.7447 2.72758 -2.56035 0
M  V30 868 H 84.0777 3.60209 -3.35425 0
M  V30 869 N 85.7298 1.2412 0.971189 0
M  V30 870 C 86.9768 1.07881 1.71371 0
M  V30 871 C 87.3048 -0.382901 1.90694 0
M  V30 872 O 86.5598 -1.29945 1.46331 0
M  V30 873 C 86.8588 1.75983 3.11071 0
M  V30 874 C 86.5248 3.25909 3.11599 0
M  V30 875 C 85.1868 3.66813 3.11451 0
M  V30 876 C 87.5388 4.21771 3.062 0
M  V30 877 C 84.8668 5.02021 3.03631 0
M  V30 878 C 87.2188 5.56982 2.99923 0
M  V30 879 C 85.8828 5.97237 2.98102 0
M  V30 880 H 85.1528 0.394764 0.62709 0
M  V30 881 H 87.7998 1.54176 1.13587 0
M  V30 882 H 86.1048 1.22072 3.72298 0
M  V30 883 H 87.8018 1.60887 3.6731 0
M  V30 884 H 84.3918 2.93353 3.12477 0
M  V30 885 H 88.5758 3.91172 3.05447 0
M  V30 886 H 83.8318 5.32411 3.0058 0
M  V30 887 H 88.0058 6.30969 2.94704 0
M  V30 888 H 85.6328 7.01967 2.91798 0
M  V30 889 N 87.2079 -1.17134 1.05439 0
M  V30 890 C 88.4359 -1.91372 0.786414 0
M  V30 891 C 88.8509 -1.76955 -0.658202 0
M  V30 892 O 88.2079 -1.10838 -1.44987 0
M  V30 893 C 88.2589 -3.42356 1.1608 0
M  V30 894 O 87.9799 -3.56332 2.54871 0
M  V30 895 C 89.4809 -4.33663 0.919322 0
M  V30 896 H 86.7009 -0.607118 0.285743 0
M  V30 897 H 89.2449 -1.48525 1.40572 0
M  V30 898 H 87.3999 -3.82939 0.586191 0
M  V30 899 H 87.8139 -4.49896 2.69618 0
M  V30 900 H 89.2879 -5.38099 1.231 0
M  V30 901 H 89.7649 -4.38959 -0.145359 0
M  V30 902 H 90.3709 -3.98796 1.47789 0
M  V30 903 N 88.686 -0.835752 -1.33615 0
M  V30 904 C 89.619 -0.211815 -2.27215 0
M  V30 905 C 90.597 0.639249 -1.49507 0
M  V30 906 O 91.781 0.600193 -1.78689 0
M  V30 907 C 88.908 0.702893 -3.31326 0
M  V30 908 C 87.954 -0.0723049 -4.26439 0
M  V30 909 S 88.787 -1.42811 -5.16106 0
M  V30 910 C 89.943 -0.518613 -6.23748 0
M  V30 911 H 90.176 -1.00533 -2.79786 0
M  V30 912 H 87.709 -0.632336 -1.40858 0
M  V30 913 H 89.667 1.22505 -3.91794 0
M  V30 914 H 88.328 1.47004 -2.77576 0
M  V30 915 H 87.521 0.62359 -5.00127 0
M  V30 916 H 87.123 -0.525424 -3.70291 0
M  V30 917 H 89.415 0.284778 -6.76901 0
M  V30 918 H 90.358 -1.22556 -6.97413 0
M  V30 919 H 90.766 -0.101344 -5.64409 0
M  V30 920 N 90.1641 1.46063 -0.591896 0
M  V30 921 C 91.3921 2.06717 -0.0868936 0
M  V30 922 C 91.8071 1.43916 1.22203 0
M  V30 923 O 91.1641 0.547698 1.74088 0
M  V30 924 C 91.2151 3.6142 0.0758725 0
M  V30 925 O 90.9361 4.21874 -1.18126 0
M  V30 926 C 92.4371 4.39025 0.61416 0
M  V30 927 H 89.6571 0.668162 -0.0616518 0
M  V30 928 H 92.2011 1.8755 -0.815175 0
M  V30 929 H 90.3561 3.79983 0.754413 0
M  V30 930 H 90.7701 5.14861 -1.00092 0
M  V30 931 H 92.2441 5.4783 0.677193 0
M  V30 932 H 92.7211 4.07708 1.63312 0
M  V30 933 H 93.3271 4.2529 -0.0298142 0
M  V30 934 N 91.6422 0.330177 1.54103 0
M  V30 935 C 92.8912 -0.271336 1.99867 0
M  V30 936 C 93.2042 -1.52723 1.22209 0
M  V30 937 O 94.4102 -2.20515 1.58383 0
M  V30 938 C 92.8662 -0.534032 3.55916 0
M  V30 939 C 92.4742 0.705193 4.42415 0
M  V30 940 C 94.2182 -1.09514 4.1013 0
M  V30 941 C 92.1252 0.414035 5.89949 0
M  V30 942 H 91.0552 -0.105166 0.74663 0
M  V30 943 H 93.7062 0.443429 1.78062 0
M  V30 944 H 92.0882 -1.30915 3.73734 0
M  V30 945 H 93.2622 1.4804 4.36372 0
M  V30 946 H 91.5772 1.18698 3.99124 0
M  V30 947 H 94.1742 -1.3277 5.17954 0
M  V30 948 H 94.5172 -2.04656 3.62521 0
M  V30 949 H 95.0502 -0.381038 3.95971 0
M  V30 950 H 91.7892 1.33481 6.41766 0
M  V30 951 H 91.3092 -0.323336 5.98928 0
M  V30 952 H 92.9882 0.0263105 6.46995 0
M  V30 953 N 93.1203 -1.57491 0.0584922 0
M  V30 954 C 94.0303 -2.15448 -0.928414 0
M  V30 955 C 95.0463 -1.11416 -1.3365 0
M  V30 956 O 96.2223 -1.4362 -1.41193 0
M  V30 957 C 93.2873 -2.69393 -2.18239 0
M  V30 958 C 92.3483 -3.88249 -1.83196 0
M  V30 959 C 91.5813 -4.39613 -3.02616 0
M  V30 960 O 91.8043 -3.90023 -4.16219 0
M  V30 961 O 90.7383 -5.31111 -2.83204 0
M  V30 962 H 94.5643 -3.00112 -0.465483 0
M  V30 963 H 92.1493 -1.48499 -0.163826 0
M  V30 964 H 94.0313 -3.04026 -2.91798 0
M  V30 965 H 92.7063 -1.87796 -2.63656 0
M  V30 966 H 91.6133 -3.58492 -1.06931 0
M  V30 967 H 92.9463 -4.71098 -1.42573 0
M  V30 968 N 94.5984 0.214957 -1.56127 0
M  V30 969 C 95.5084 1.28727 -1.96129 0
M  V30 970 C 96.5244 1.50916 -0.866044 0
M  V30 971 O 97.7004 1.63918 -1.17016 0
M  V30 972 C 94.7654 2.61569 -2.27558 0
M  V30 973 C 93.8264 2.47625 -3.50685 0
M  V30 974 C 93.0594 3.74132 -3.80606 0
M  V30 975 O 93.2824 4.77438 -3.12104 0
M  V30 976 O 92.2164 3.70849 -4.74083 0
M  V30 977 H 96.0424 0.977855 -2.87527 0
M  V30 978 H 93.6274 0.418358 -1.43423 0
M  V30 979 H 95.5094 3.40012 -2.48938 0
M  V30 980 H 94.1844 2.92178 -1.39332 0
M  V30 981 H 93.0914 1.67361 -3.34576 0
M  V30 982 H 94.4244 2.21954 -4.39315 0
M  V30 983 N 96.0765 1.50051 0.48192 0
M  V30 984 C 97.0235 1.68122 1.58125 0
M  V30 985 C 97.9935 0.522545 1.57666 0
M  V30 986 O 99.1785 0.751844 1.75362 0
M  V30 987 C 96.3185 1.77142 2.96167 0
M  V30 988 C 95.4315 3.0444 3.06497 0
M  V30 989 C 94.5665 3.04321 4.35387 0
M  V30 990 C 93.6055 4.26118 4.3942 0
M  V30 991 N 92.7425 4.238 5.59766 0
M  V30 992 H 97.5825 2.6198 1.42022 0
M  V30 993 H 95.1195 1.29877 0.690687 0
M  V30 994 H 97.0775 1.80352 3.76203 0
M  V30 995 H 95.7075 0.867329 3.1093 0
M  V30 996 H 94.7595 3.10752 2.19402 0
M  V30 997 H 96.0715 3.94426 3.05336 0
M  V30 998 H 95.2255 3.062 5.23762 0
M  V30 999 H 93.9645 2.12147 4.39141 0
M  V30 1000 H 92.9695 4.24463 3.49444 0
M  V30 1001 H 94.1945 5.19507 4.37366 0
M  V30 1002 H 92.1405 3.34474 5.64326 0
M  V30 1003 H 92.0575 5.07542 5.60301 0
M  V30 1004 H 93.3255 4.2981 6.50295 0
M  V30 1005 N 97.5546 -0.734337 1.39446 0
M  V30 1006 C 98.5016 -1.84835 1.38219 0
M  V30 1007 C 99.4716 -1.64331 0.24179 0
M  V30 1008 O 100.657 -1.85728 0.437002 0
M  V30 1009 C 97.7966 -3.22355 1.23212 0
M  V30 1010 C 96.9096 -3.5456 2.46801 0
M  V30 1011 C 96.0446 -4.81485 2.24377 0
M  V30 1012 C 95.0836 -5.06536 3.43639 0
M  V30 1013 N 94.2206 -6.24665 3.20528 0
M  V30 1014 H 99.0606 -1.85219 2.33448 0
M  V30 1015 H 96.5976 -0.905039 1.15963 0
M  V30 1016 H 98.5556 -4.0174 1.12522 0
M  V30 1017 H 97.1856 -3.21248 0.316121 0
M  V30 1018 H 96.2376 -2.69872 2.68092 0
M  V30 1019 H 97.5496 -3.6899 3.3563 0
M  V30 1020 H 96.7036 -5.68852 2.10933 0
M  V30 1021 H 95.4426 -4.6923 1.32944 0
M  V30 1022 H 94.4476 -4.17632 3.5758 0
M  V30 1023 H 95.6726 -5.20676 4.35974 0
M  V30 1024 H 93.6186 -6.13696 2.3176 0
M  V30 1025 H 93.5356 -6.39685 4.02913 0
M  V30 1026 H 94.8036 -7.14868 3.10779 0
M  V30 1027 N 99.0327 -1.24633 -0.964593 0
M  V30 1028 C 99.9657 -0.984662 -2.05863 0
M  V30 1029 C 100.944 0.0826554 -1.6239 0
M  V30 1030 O 102.128 -0.0549296 -1.8842 0
M  V30 1031 C 99.2547 -0.486529 -3.35187 0
M  V30 1032 C 98.3007 -1.54286 -3.97615 0
M  V30 1033 S 99.1337 -3.12513 -4.34851 0
M  V30 1034 C 100.29 -2.6441 -5.67308 0
M  V30 1035 H 100.523 -1.91104 -2.27743 0
M  V30 1036 H 98.0557 -1.08052 -1.10291 0
M  V30 1037 H 100.014 -0.205757 -4.09984 0
M  V30 1038 H 98.6747 0.419186 -3.1129 0
M  V30 1039 H 97.8677 -1.14481 -4.90826 0
M  V30 1040 H 97.4697 -1.7738 -3.2926 0
M  V30 1041 H 99.7617 -2.07416 -6.44969 0
M  V30 1042 H 100.705 -3.56222 -6.11973 0
M  V30 1043 H 101.113 -2.04734 -5.26065 0
M  V30 1044 N 100.511 1.16574 -1.06058 0
M  V30 1045 C 101.757 1.87324 -0.777022 0
M  V30 1046 C 102.09 1.81351 0.694645 0
M  V30 1047 O 101.365 1.22753 1.50871 0
M  V30 1048 C 101.648 3.36991 -1.26922 0
M  V30 1049 C 101.501 3.51667 -2.80447 0
M  V30 1050 C 102.82 4.3131 -0.87521 0
M  V30 1051 H 99.9388 0.680191 -0.28374 0
M  V30 1052 H 102.581 1.37036 -1.3161 0
M  V30 1053 H 100.731 3.79949 -0.81063 0
M  V30 1054 H 102.403 3.17664 -3.34495 0
M  V30 1055 H 100.646 2.93656 -3.19294 0
M  V30 1056 H 101.317 4.56766 -3.0995 0
M  V30 1057 H 103.793 3.9624 -1.27014 0
M  V30 1058 H 102.669 5.34545 -1.2471 0
M  V30 1059 H 102.93 4.41552 0.220071 0
M  V30 1060 N 101.989 0.842826 1.3317 0
M  V30 1061 C 103.238 0.436738 1.96915 0
M  V30 1062 C 103.551 -1.01025 1.67491 0
M  V30 1063 O 104.757 -1.5212 2.24881 0
M  V30 1064 C 103.213 0.730021 3.52418 0
M  V30 1065 C 102.821 2.19195 3.90714 0
M  V30 1066 C 104.565 0.391076 4.22695 0
M  V30 1067 C 102.472 2.42907 5.39212 0
M  V30 1068 H 101.402 0.15958 0.736919 0
M  V30 1069 H 104.053 1.03196 1.51733 0
M  V30 1070 H 102.435 0.0643755 3.95948 0
M  V30 1071 H 103.609 2.8984 3.58231 0
M  V30 1072 H 101.924 2.49425 3.33431 0
M  V30 1073 H 104.521 0.545817 5.31907 0
M  V30 1074 H 104.864 -0.666294 4.10933 0
M  V30 1075 H 105.397 1.01212 3.84709 0
M  V30 1076 H 102.136 3.47224 5.55982 0
M  V30 1077 H 101.656 1.76827 5.73142 0
M  V30 1078 H 103.335 2.2626 6.06148 0
M  V30 1079 N 103.467 -1.45747 0.599634 0
M  V30 1080 C 104.744 -1.95585 0.0240846 0
M  V30 1081 C 105.124 -1.54217 -1.44154 0
M  V30 1082 O 104.472 -0.800903 -2.14004 0
M  V30 1083 C 104.682 -3.48344 0.21385 0
M  V30 1084 C 106.03 -4.24504 0.0904902 0
M  V30 1085 O 107.054 -3.55911 0.143558 0
M  V30 1086 O 105.913 -5.46491 -0.0310766 0
M  V30 1087 H 103.007 -0.82602 -0.0402478 0
M  V30 1088 H 105.553 -1.55951 0.669139 0
M  V30 1089 H 104.325 -3.71397 1.23206 0
M  V30 1090 H 103.948 -3.9485 -0.466842 0
M  V30 1091 N 104.945 -0.338344 -1.53925 0
M  V30 1092 C 106.222 0.314774 -1.93051 0
M  V30 1093 C 106.602 1.68669 -1.26941 0
M  V30 1094 O 105.95 2.24636 -0.418445 0
M  V30 1095 C 106.16 0.392249 -3.46789 0
M  V30 1096 C 107.508 0.645554 -4.19664 0
M  V30 1097 O 108.532 0.474575 -3.53024 0
M  V30 1098 O 107.391 0.976408 -5.37707 0
M  V30 1099 H 104.485 0.182598 -0.80659 0
M  V30 1100 H 107.031 -0.389141 -1.65178 0
M  V30 1101 H 105.803 -0.570702 -3.87116 0
M  V30 1102 H 105.426 1.14316 -3.80812 0
M  V30 1103 N 106.423 1.57458 -0.0668435 0
M  V30 1104 C 107.37 2.12439 0.902122 0
M  V30 1105 C 108.34 1.03565 1.2986 0
M  V30 1106 O 109.525 1.312 1.38532 0
M  V30 1107 C 106.665 2.6865 2.16614 0
M  V30 1108 C 105.778 3.91663 1.82274 0
M  V30 1109 C 104.913 4.36134 3.0325 0
M  V30 1110 C 103.952 5.51808 2.64904 0
M  V30 1111 N 103.089 5.9126 3.78624 0
M  V30 1112 H 107.929 2.94934 0.426382 0
M  V30 1113 H 105.466 1.4575 0.198819 0
M  V30 1114 H 107.424 2.99346 2.90599 0
M  V30 1115 H 106.054 1.88928 2.61737 0
M  V30 1116 H 105.106 3.6746 0.983719 0
M  V30 1117 H 106.418 4.75693 1.50059 0
M  V30 1118 H 105.572 4.68465 3.85519 0
M  V30 1119 H 104.311 3.50948 3.38655 0
M  V30 1120 H 103.316 5.19133 1.81055 0
M  V30 1121 H 104.541 6.38722 2.30675 0
M  V30 1122 H 102.487 5.09024 4.138 0
M  V30 1123 H 102.404 6.70018 3.5016 0
M  V30 1124 H 103.672 6.28212 4.61486 0
M  V30 1125 N 107.901 -0.206675 1.56239 0
M  V30 1126 C 109.149 -0.927007 1.79586 0
M  V30 1127 C 109.47 -1.8427 0.637929 0
M  V30 1128 O 108.74 -1.92849 -0.344398 0
M  V30 1129 H 107.32 -0.345292 0.662407 0
M  V30 1130 H 109.982 -0.21496 1.93711 0
M  V30 1131 H 109.078 -1.52501 2.72305 0
M  V30 1132 N 109.379 -1.50304 -0.473955 0
M  V30 1133 C 110.607 -1.64902 -1.24959 0
M  V30 1134 C 111.022 -0.331198 -1.85872 0
M  V30 1135 O 110.379 0.68652 -1.69095 0
M  V30 1136 C 110.43 -2.73803 -2.36038 0
M  V30 1137 O 110.151 -4.00477 -1.77624 0
M  V30 1138 C 111.652 -2.99349 -3.26964 0
M  V30 1139 H 108.872 -0.554383 -0.378022 0
M  V30 1140 H 111.416 -1.9651 -0.566054 0
M  V30 1141 H 109.571 -2.44898 -3.00173 0
M  V30 1142 H 109.985 -4.60678 -2.5075 0
M  V30 1143 H 111.459 -3.79217 -4.01121 0
M  V30 1144 H 111.936 -2.10307 -3.85574 0
M  V30 1145 H 112.542 -3.29774 -2.68569 0
M  V30 1146 N 110.857 0.726932 -1.39834 0
M  V30 1147 C 112.085 1.51613 -1.40787 0
M  V30 1148 C 112.5 1.88799 -0.00451505 0
M  V30 1149 O 111.857 1.54662 0.968809 0
M  V30 1150 C 111.908 2.79863 -2.28821 0
M  V30 1151 O 111.629 2.44253 -3.63692 0
M  V30 1152 C 113.13 3.73837 -2.38245 0
M  V30 1153 H 110.35 0.468264 -0.480593 0
M  V30 1154 H 112.894 0.897607 -1.83748 0
M  V30 1155 H 111.049 3.38027 -1.89252 0
M  V30 1156 H 111.463 3.26695 -4.1033 0
M  V30 1157 H 112.937 4.60699 -3.04073 0
M  V30 1158 H 113.414 4.16153 -1.40403 0
M  V30 1159 H 114.02 3.21589 -2.78317 0
M  V30 1160 N 112.336 1.25143 0.95797 0
M  V30 1161 C 113.266 1.07711 2.07173 0
M  V30 1162 C 114.247 -0.0128462 1.70095 0
M  V30 1163 O 115.432 0.156061 1.93572 0
M  V30 1164 C 112.562 0.691503 3.40346 0
M  V30 1165 C 111.516 1.73132 3.9142 0
M  V30 1166 C 110.842 1.20049 5.21049 0
M  V30 1167 C 112.142 3.1294 4.1817 0
M  V30 1168 H 113.836 2.00873 2.22014 0
M  V30 1169 H 111.382 0.967191 1.06684 0
M  V30 1170 H 113.335 0.556505 4.17709 0
M  V30 1171 H 112.059 -0.275819 3.25433 0
M  V30 1172 H 110.718 1.8547 3.16222 0
M  V30 1173 H 110.366 0.223499 5.02503 0
M  V30 1174 H 110.066 1.89545 5.56189 0
M  V30 1175 H 111.59 1.07782 6.01012 0
M  V30 1176 H 113.004 3.03775 4.86203 0
M  V30 1177 H 111.401 3.79875 4.64559 0
M  V30 1178 H 112.471 3.6025 3.24573 0
M  V30 1179 N 113.814 -1.1601 1.06675 0
M  V30 1180 C 114.746 -2.20115 0.638921 0
M  V30 1181 C 115.759 -1.59916 -0.305057 0
M  V30 1182 O 116.948 -1.78245 -0.0954446 0
M  V30 1183 C 114.048 -3.38798 -0.0830083 0
M  V30 1184 C 113.221 -4.2855 0.875426 0
M  V30 1185 C 112.28 -5.25849 0.192042 0
M  V30 1186 O 111.306 -5.63102 0.830921 0
M  V30 1187 N 112.508 -5.70648 -1.06493 0
M  V30 1188 H 115.273 -2.57439 1.53444 0
M  V30 1189 H 112.834 -1.31057 0.950557 0
M  V30 1190 H 114.826 -4.00936 -0.550685 0
M  V30 1191 H 113.396 -2.99947 -0.880386 0
M  V30 1192 H 112.616 -3.63617 1.52238 0
M  V30 1193 H 113.904 -4.85393 1.52548 0
M  V30 1194 H 113.302 -5.42482 -1.60405 0
M  V30 1195 H 111.859 -6.34859 -1.47641 0
M  V30 1196 N 115.292 -0.849877 -1.32721 0
M  V30 1197 C 116.255 -0.296122 -2.27279 0
M  V30 1198 C 117.255 0.541458 -1.5141 0
M  V30 1199 O 118.445 0.353658 -1.70572 0
M  V30 1200 C 115.577 0.581579 -3.35902 0
M  V30 1201 H 116.77 -1.13064 -2.77771 0
M  V30 1202 H 114.323 -0.62383 -1.43311 0
M  V30 1203 H 115.058 1.43809 -2.9067 0
M  V30 1204 H 114.843 -0.0178814 -3.92096 0
M  V30 1205 H 116.333 0.961951 -4.0637 0
M  V30 1206 N 116.77 1.45427 -0.607355 0
M  V30 1207 C 117.703 2.27635 0.160482 0
M  V30 1208 C 118.681 1.37122 0.873857 0
M  V30 1209 O 119.865 1.66551 0.882775 0
M  V30 1210 C 116.992 3.15486 1.23231 0
M  V30 1211 C 116.038 4.21939 0.622097 0
M  V30 1212 S 116.871 5.32459 -0.569852 0
M  V30 1213 C 118.027 6.23879 0.502577 0
M  V30 1214 H 118.26 2.9241 -0.536983 0
M  V30 1215 H 115.793 1.49265 -0.394868 0
M  V30 1216 H 117.751 3.66659 1.84585 0
M  V30 1217 H 116.412 2.49977 1.90185 0
M  V30 1218 H 115.605 4.8333 1.42856 0
M  V30 1219 H 115.207 3.73906 0.0837063 0
M  V30 1220 H 117.499 6.63261 1.38171 0
M  V30 1221 H 118.442 7.0806 -0.0751759 0
M  V30 1222 H 118.85 5.58545 0.8178 0
M  V30 1223 N 118.248 0.346503 1.53744 0
M  V30 1224 C 119.476 -0.25041 2.05379 0
M  V30 1225 C 119.891 -1.43979 1.22129 0
M  V30 1226 O 119.248 -1.80677 0.257321 0
M  V30 1227 C 119.299 -0.662575 3.55376 0
M  V30 1228 O 119.02 0.479515 4.35468 0
M  V30 1229 C 120.521 -1.31989 4.23195 0
M  V30 1230 H 117.741 -0.0478198 0.669294 0
M  V30 1231 H 120.285 0.499346 1.9831 0
M  V30 1232 H 118.44 -1.36227 3.62658 0
M  V30 1233 H 118.854 0.15037 5.24284 0
M  V30 1234 H 120.328 -1.55902 5.29527 0
M  V30 1235 H 120.805 -2.27436 3.75725 0
M  V30 1236 H 121.411 -0.662154 4.20114 0
M  V30 1237 N 119.726 -1.57421 0.075193 0
M  V30 1238 C 120.973 -1.93618 -0.593146 0
M  V30 1239 C 121.301 -0.955484 -1.69413 0
M  V30 1240 O 120.556 0.0283251 -1.9568 0
M  V30 1241 C 120.855 -3.36428 -1.20626 0
M  V30 1242 C 120.521 -4.50307 -0.231078 0
M  V30 1243 C 119.183 -4.81186 0.0371936 0
M  V30 1244 C 121.535 -5.19374 0.435888 0
M  V30 1245 C 118.863 -5.78466 0.979461 0
M  V30 1246 C 121.215 -6.17665 1.3665 0
M  V30 1247 C 119.879 -6.46958 1.6432 0
M  V30 1248 H 119.149 -0.708499 -0.217047 0
M  V30 1249 H 121.796 -1.90937 0.146793 0
M  V30 1250 H 120.101 -3.35592 -2.02201 0
M  V30 1251 H 121.798 -3.61727 -1.73073 0
M  V30 1252 H 118.388 -4.26227 -0.450357 0
M  V30 1253 H 122.572 -4.95711 0.241748 0
M  V30 1254 H 117.828 -5.99487 1.20106 0
M  V30 1255 H 122.002 -6.70284 1.88924 0
M  V30 1256 H 119.629 -7.2215 2.37494 0
M  V30 1257 N 121.204 0.198386 -1.56346 0
M  V30 1258 C 122.152 1.26538 -1.95169 0
M  V30 1259 C 123.146 1.47295 -0.836685 0
M  V30 1260 O 124.352 1.48195 -1.02167 0
M  V30 1261 H 120.727 0.424744 -0.620561 0
M  V30 1262 H 122.698 0.910904 -2.84157 0
M  V30 1263 C 121.447 2.6035 -2.30463 0
M  V30 1264 H 120.77 2.45192 -3.15786 0
M  V30 1265 H 122.21 3.33762 -2.61494 0
M  V30 1266 C 120.669 3.17096 -1.13806 0
M  V30 1267 O 121.199 3.99588 -0.41135 0
M  V30 1268 N 119.405 2.75795 -0.915736 0
M  V30 1269 H 118.952 2.08816 -1.50843 0
M  V30 1270 H 118.91 3.14101 -0.136979 0
M  V30 1271 N 122.682 1.50554 0.465978 0
M  V30 1272 C 123.93 1.61479 1.21528 0
M  V30 1273 C 124.251 0.319596 1.92363 0
M  V30 1274 O 123.521 -0.663194 1.84333 0
M  V30 1275 H 122.101 0.595055 0.451573 0
M  V30 1276 H 124.763 1.87355 0.53704 0
M  V30 1277 H 123.859 2.42846 1.96042 0
M  V30 1278 N 124.16 -0.719506 1.40217 0
M  V30 1279 C 125.385 -1.51371 1.4178 0
M  V30 1280 C 125.81 -1.88091 0.0182355 0
M  V30 1281 O 125.168 -1.52997 -0.972707 0
M  V30 1282 C 125.216 -2.768 2.31115 0
M  V30 1283 O 124.32 -3.73349 1.7517 0
M  V30 1284 H 123.661 -0.456529 0.482159 0
M  V30 1285 H 126.191 -0.88644 1.844 0
M  V30 1286 H 126.201 -3.25371 2.46167 0
M  V30 1287 H 124.876 -2.49407 3.3282 0
M  V30 1288 H 123.453 -3.32179 1.69444 0
M  V30 1289 N 125.638 -1.25649 -0.95132 0
M  V30 1290 C 126.571 -1.00644 -2.04807 0
M  V30 1291 C 127.549 0.0654271 -1.62468 0
M  V30 1292 O 128.733 -0.074911 -1.88351 0
M  V30 1293 C 125.86 -0.522052 -3.34653 0
M  V30 1294 C 124.906 -1.58495 -3.95957 0
M  V30 1295 S 125.739 -3.17108 -4.31512 0
M  V30 1296 C 126.895 -2.70412 -5.64471 0
M  V30 1297 H 127.128 -1.93508 -2.25703 0
M  V30 1298 H 124.661 -1.09216 -1.09139 0
M  V30 1299 H 126.619 -0.24923 -4.09743 0
M  V30 1300 H 125.28 0.386146 -3.11717 0
M  V30 1301 H 124.473 -1.1968 -4.89584 0
M  V30 1302 H 124.075 -1.80862 -3.2736 0
M  V30 1303 H 126.367 -2.14245 -6.42733 0
M  V30 1304 H 127.31 -3.62693 -6.08161 0
M  V30 1305 H 127.718 -2.10302 -5.23864 0
M  V30 1306 N 127.117 1.15442 -1.07289 0
M  V30 1307 C 128.528 1.67803 -0.818475 0
M  V30 1308 C 128.879 1.8489 0.656507 0
M  V30 1309 O 128.004 1.55176 1.50829 0
M  V30 1310 C 128.599 3.04805 -1.47917 0
M  V30 1311 C 127.158 3.54245 -1.27229 0
M  V30 1312 C 126.305 2.29986 -1.54925 0
M  V30 1313 H 129.256 0.996646 -1.23502 0
M  V30 1314 H 129.277 3.69702 -0.90005 0
M  V30 1315 H 128.789 2.92336 -2.55267 0
M  V30 1316 H 126.89 3.71956 -0.21899 0
M  V30 1317 H 127.003 4.35723 -1.99203 0
M  V30 1318 H 125.367 2.35496 -0.970242 0
M  V30 1319 H 126.15 2.20105 -2.63455 0
M  V30 1320 N 128.595 0.856903 1.32268 0
M  V30 1321 C 129.843 0.460474 1.96784 0
M  V30 1322 C 130.164 -0.987701 1.68135 0
M  V30 1323 O 129.434 -1.69058 0.989765 0
M  V30 1324 H 128.014 0.167289 0.728027 0
M  V30 1325 H 130.676 1.09383 1.61312 0
M  V30 1326 H 129.772 0.60739 3.06133 0
M  V30 1327 N 130.073 -1.45103 0.615059 0
M  V30 1328 C 131.484 -1.85654 0.197383 0
M  V30 1329 C 131.835 -1.51433 -1.24749 0
M  V30 1330 O 130.96 -0.944608 -1.94695 0
M  V30 1331 C 131.555 -3.36972 0.351448 0
M  V30 1332 C 130.114 -3.76398 -0.011593 0
M  V30 1333 C 129.261 -2.69024 0.672394 0
M  V30 1334 H 132.212 -1.35797 0.821263 0
M  V30 1335 H 132.233 -3.78239 -0.414227 0
M  V30 1336 H 131.745 -3.61847 1.40314 0
M  V30 1337 H 129.846 -3.5714 -1.06217 0
M  V30 1338 H 129.959 -4.77532 0.387265 0
M  V30 1339 H 128.323 -2.54465 0.109284 0
M  V30 1340 H 129.106 -2.96735 1.72636 0
M  V30 1341 N 131.551 -0.354651 -1.53558 0
M  V30 1342 C 132.779 0.239515 -2.05509 0
M  V30 1343 C 133.194 1.4333 -1.2289 0
M  V30 1344 O 132.551 1.80538 -0.266899 0
M  V30 1345 C 132.602 0.643719 -3.55723 0
M  V30 1346 O 132.323 -0.502602 -4.35207 0
M  V30 1347 C 133.824 1.29743 -4.23889 0
M  V30 1348 H 131.044 0.0442697 -0.669538 0
M  V30 1349 H 133.588 -0.509856 -1.98042 0
M  V30 1350 H 131.743 1.34302 -3.63376 0
M  V30 1351 H 132.157 -0.178172 -5.24197 0
M  V30 1352 H 133.631 1.53091 -5.30346 0
M  V30 1353 H 134.108 2.25441 -3.76926 0
M  V30 1354 H 134.714 0.639865 -4.20459 0
M  V30 1355 N 133.029 1.57378 -0.0835403 0
M  V30 1356 C 133.959 2.1641 0.87686 0
M  V30 1357 C 134.94 1.09429 1.30228 0
M  V30 1358 O 136.125 1.37516 1.37124 0
M  V30 1359 C 133.255 2.73517 2.14022 0
M  V30 1360 C 132.209 3.85769 1.85381 0
M  V30 1361 C 131.535 4.29529 3.18448 0
M  V30 1362 C 132.835 5.09486 1.14984 0
M  V30 1363 H 134.529 2.96914 0.385059 0
M  V30 1364 H 132.075 1.42823 0.18377 0
M  V30 1365 H 134.028 3.13463 2.81636 0
M  V30 1366 H 132.752 1.90252 2.65465 0
M  V30 1367 H 131.411 3.46345 1.20169 0
M  V30 1368 H 131.059 3.43169 3.67755 0
M  V30 1369 H 130.759 5.05204 3.00071 0
M  V30 1370 H 132.283 4.72099 3.8724 0
M  V30 1371 H 133.697 5.46674 1.72687 0
M  V30 1372 H 132.094 5.90515 1.06826 0
M  V30 1373 H 133.164 4.84724 0.130749 0
M  V30 1374 N 134.507 -0.190092 1.56449 0
M  V30 1375 C 135.753 -0.911052 1.81184 0
M  V30 1376 C 136.086 -1.82699 0.658396 0
M  V30 1377 O 135.361 -1.91491 -0.340775 0
M  V30 1378 C 135.644 -1.72297 3.16205 0
M  V30 1379 C 135.497 -0.831419 4.42049 0
M  V30 1380 C 136.816 -2.69454 3.47969 0
M  V30 1381 H 133.935 -0.32977 0.659106 0
M  V30 1382 H 136.577 -0.178169 1.89163 0
M  V30 1383 H 134.727 -2.34778 3.09534 0
M  V30 1384 H 136.399 -0.220929 4.60771 0
M  V30 1385 H 134.642 -0.138406 4.33579 0
M  V30 1386 H 135.313 -1.43461 5.33032 0
M  V30 1387 H 137.789 -2.17104 3.54972 0
M  V30 1388 H 136.665 -3.23342 4.43555 0
M  V30 1389 H 136.926 -3.48744 2.71717 0
M  V30 1390 N 135.985 -1.50799 -0.457987 0
M  V30 1391 C 137.231 -1.62683 -1.21088 0
M  V30 1392 C 137.564 -0.332268 -1.91336 0
M  V30 1393 O 136.839 0.667043 -1.82704 0
M  V30 1394 C 137.122 -2.81615 -2.24422 0
M  V30 1395 C 136.975 -4.20989 -1.58392 0
M  V30 1396 C 138.294 -2.96085 -3.2561 0
M  V30 1397 H 135.413 -0.592087 -0.438864 0
M  V30 1398 H 138.055 -1.83225 -0.50286 0
M  V30 1399 H 136.205 -2.64231 -2.84806 0
M  V30 1400 H 137.877 -4.49994 -1.01504 0
M  V30 1401 H 136.12 -4.24641 -0.886704 0
M  V30 1402 H 136.791 -5.0016 -2.33547 0
M  V30 1403 H 139.267 -3.12042 -2.75262 0
M  V30 1404 H 138.143 -3.80902 -3.95228 0
M  V30 1405 H 138.404 -2.0726 -3.90507 0
M  V30 1406 N 137.463 0.71206 -1.40597 0
M  V30 1407 C 138.413 1.81783 -1.37619 0
M  V30 1408 C 139.397 1.58896 -0.253162 0
M  V30 1409 O 140.589 1.70009 -0.492547 0
M  V30 1410 C 137.718 3.19944 -1.24462 0
M  V30 1411 C 136.804 3.48582 -2.4156 0
M  V30 1412 N 137.195 3.48016 -3.67041 0
M  V30 1413 C 135.493 3.79056 -2.35016 0
M  V30 1414 C 136.194 3.75096 -4.44609 0
M  V30 1415 N 135.17 3.94022 -3.74497 0
M  V30 1416 H 138.972 1.79683 -2.32575 0
M  V30 1417 H 136.486 0.91134 -1.34419 0
M  V30 1418 H 138.483 3.99133 -1.20411 0
M  V30 1419 H 137.143 3.23267 -0.304762 0
M  V30 1420 H 138.154 3.28782 -4.00153 0
M  V30 1421 H 134.831 3.89848 -1.49415 0
M  V30 1422 H 136.221 3.80934 -5.53479 0
M  V30 1423 N 138.941 1.26152 0.944643 0
M  V30 1424 C 139.851 1.09176 2.07648 0
M  V30 1425 C 140.867 0.0261935 1.7398 0
M  V30 1426 O 142.043 0.229208 2.00091 0
M  V30 1427 C 139.108 0.722915 3.39079 0
M  V30 1428 C 138.169 1.86752 3.86552 0
M  V30 1429 C 137.402 1.51617 5.11711 0
M  V30 1430 O 137.625 0.416331 5.68879 0
M  V30 1431 O 136.559 2.34975 5.54139 0
M  V30 1432 H 140.385 2.0412 2.24875 0
M  V30 1433 H 137.97 1.05182 1.061 0
M  V30 1434 H 139.852 0.529787 4.18056 0
M  V30 1435 H 138.527 -0.197159 3.23099 0
M  V30 1436 H 137.434 2.11558 3.08535 0
M  V30 1437 H 138.767 2.76719 4.07047 0
M  V30 1438 N 140.419 -1.14872 1.07899 0
M  V30 1439 C 141.667 -1.85422 0.803941 0
M  V30 1440 C 141.988 -1.83051 -0.67211 0
M  V30 1441 O 141.258 -1.27532 -1.48703 0
M  V30 1442 H 139.838 -0.686537 0.294408 0
M  V30 1443 H 142.5 -1.39226 1.3639 0
M  V30 1444 H 141.596 -2.90399 1.14346 0
M  V30 1445 N 141.898 -0.863906 -1.31812 0
M  V30 1446 C 143.175 -0.39275 -1.91616 0
M  V30 1447 C 143.555 1.12461 -1.7865 0
M  V30 1448 O 142.903 1.95045 -1.19037 0
M  V30 1449 C 143.113 -0.867385 -3.38049 0
M  V30 1450 C 144.461 -0.889966 -4.15168 0
M  V30 1451 O 145.485 -0.812635 -3.46806 0
M  V30 1452 O 144.344 -1.00079 -5.37258 0
M  V30 1453 H 141.438 -0.116358 -0.818773 0
M  V30 1454 H 143.984 -0.951418 -1.40521 0
M  V30 1455 H 142.756 -1.91081 -3.41473 0
M  V30 1456 H 142.379 -0.286687 -3.96565 0
M  V30 1457 N 143.376 1.44774 -0.622745 0
M  V30 1458 C 144.606 2.06187 -0.130532 0
M  V30 1459 C 145.014 1.46547 1.19669 0
M  V30 1460 O 144.357 0.579636 1.74316 0
M  V30 1461 C 144.419 3.59437 0.0674983 0
M  V30 1462 C 144.083 4.41496 -1.18026 0
M  V30 1463 C 145.08 4.75512 -2.102 0
M  V30 1464 C 142.765 4.82007 -1.41333 0
M  V30 1465 C 144.759 5.48912 -3.23998 0
M  V30 1466 C 142.446 5.55157 -2.55429 0
M  V30 1467 C 143.444 5.88528 -3.46589 0
M  V30 1468 O 143.132 6.60191 -4.58697 0
M  V30 1469 H 142.864 0.672045 -0.0730162 0
M  V30 1470 H 145.418 1.86768 -0.854802 0
M  V30 1471 H 143.648 3.77314 0.846825 0
M  V30 1472 H 145.337 4.02642 0.513209 0
M  V30 1473 H 146.103 4.4476 -1.93425 0
M  V30 1474 H 141.982 4.55457 -0.712709 0
M  V30 1475 H 145.526 5.74877 -3.95174 0
M  V30 1476 H 141.423 5.85324 -2.72151 0
M  V30 1477 H 142.191 6.78654 -4.57571 0
M  V30 1478 N 144.854 0.36279 1.53368 0
M  V30 1479 C 146.1 -0.228113 2.01513 0
M  V30 1480 C 146.433 -1.48648 1.2497 0
M  V30 1481 O 145.708 -1.91459 0.342616 0
M  V30 1482 C 145.991 -0.522884 3.56284 0
M  V30 1483 C 145.844 0.74892 4.43521 0
M  V30 1484 C 147.163 -1.32461 4.19693 0
M  V30 1485 H 144.282 -0.0814343 0.732487 0
M  V30 1486 H 146.924 0.48713 1.83649 0
M  V30 1487 H 145.074 -1.1322 3.71636 0
M  V30 1488 H 146.746 1.38648 4.39971 0
M  V30 1489 H 144.989 1.36986 4.11603 0
M  V30 1490 H 145.66 0.497667 5.49752 0
M  V30 1491 H 148.136 -0.809203 4.08156 0
M  V30 1492 H 147.012 -1.49961 5.28018 0
M  V30 1493 H 147.273 -2.33232 3.75573 0
M  V30 1494 N 146.332 -1.57332 0.0918853 0
M  V30 1495 C 147.264 -2.10869 -0.898168 0
M  V30 1496 C 148.277 -1.04521 -1.24817 0
M  V30 1497 O 149.466 -1.31977 -1.20184 0
M  V30 1498 C 146.566 -2.57083 -2.2082 0
M  V30 1499 C 145.739 -3.87229 -2.03402 0
M  V30 1500 C 144.798 -4.19324 -3.17889 0
M  V30 1501 O 143.824 -4.88598 -2.91994 0
M  V30 1502 N 145.026 -3.74471 -4.43567 0
M  V30 1503 H 147.791 -2.96439 -0.440943 0
M  V30 1504 H 145.352 -1.61631 -0.0933064 0
M  V30 1505 H 147.344 -2.75602 -2.96354 0
M  V30 1506 H 145.914 -1.76541 -2.57977 0
M  V30 1507 H 145.134 -3.7789 -1.12218 0
M  V30 1508 H 146.422 -4.72379 -1.89038 0
M  V30 1509 H 145.82 -3.18546 -4.67488 0
M  V30 1510 H 144.377 -3.98151 -5.16061 0
M  V30 1511 N 147.81 0.181792 -1.56548 0
M  V30 1512 C 148.74 1.22765 -1.98623 0
M  V30 1513 C 149.721 1.46747 -0.860189 0
M  V30 1514 O 150.906 1.58259 -1.12551 0
M  V30 1515 C 148.036 2.56894 -2.33715 0
M  V30 1516 C 146.99 2.475 -3.49182 0
M  V30 1517 C 146.316 3.86023 -3.69986 0
M  V30 1518 C 147.616 1.98866 -4.82959 0
M  V30 1519 H 149.31 0.877942 -2.86239 0
M  V30 1520 H 146.856 0.42088 -1.37712 0
M  V30 1521 H 148.809 3.30253 -2.61746 0
M  V30 1522 H 147.533 2.93632 -1.42997 0
M  V30 1523 H 146.192 1.76596 -3.21262 0
M  V30 1524 H 145.84 4.20136 -2.76576 0
M  V30 1525 H 145.54 3.80609 -4.47672 0
M  V30 1526 H 147.064 4.60984 -4.00407 0
M  V30 1527 H 148.478 2.61992 -5.09934 0
M  V30 1528 H 146.875 2.04424 -5.64208 0
M  V30 1529 H 147.945 0.942465 -4.75653 0
M  V30 1530 N 149.288 1.51039 0.449983 0
M  V30 1531 C 150.516 1.66869 1.2232 0
M  V30 1532 C 150.931 0.360727 1.85322 0
M  V30 1533 O 150.288 -0.659531 1.70166 0
M  V30 1534 C 150.339 2.77524 2.31652 0
M  V30 1535 O 150.06 4.03252 1.7123 0
M  V30 1536 C 151.561 3.04512 3.2216 0
M  V30 1537 H 148.781 0.560326 0.369155 0
M  V30 1538 H 151.325 1.97385 0.534719 0
M  V30 1539 H 149.48 2.49642 2.96239 0
M  V30 1540 H 149.894 4.64609 2.43389 0
M  V30 1541 H 151.368 3.85551 3.95038 0
M  V30 1542 H 151.845 2.16415 3.8218 0
M  V30 1543 H 152.451 3.34005 2.63288 0
M  V30 1544 N 150.766 -0.704594 1.40972 0
M  V30 1545 C 151.696 -1.83124 1.44872 0
M  V30 1546 C 152.677 -1.67281 0.30838 0
M  V30 1547 O 153.862 -1.87149 0.518556 0
M  V30 1548 C 150.992 -3.21181 1.32136 0
M  V30 1549 C 149.946 -3.51714 2.43888 0
M  V30 1550 C 149.272 -4.89032 2.16222 0
M  V30 1551 C 150.572 -3.516 3.86232 0
M  V30 1552 H 152.266 -1.80117 2.39161 0
M  V30 1553 H 149.812 -0.865145 1.15114 0
M  V30 1554 H 151.765 -3.99702 1.33479 0
M  V30 1555 H 150.489 -3.24791 0.343279 0
M  V30 1556 H 149.148 -2.75539 2.41813 0
M  V30 1557 H 148.796 -4.89256 1.16778 0
M  V30 1558 H 148.496 -5.10426 2.911 0
M  V30 1559 H 150.02 -5.69873 2.19265 0
M  V30 1560 H 151.434 -4.2014 3.9007 0
M  V30 1561 H 149.831 -3.84523 4.60719 0
M  V30 1562 H 150.901 -2.50757 4.15029 0
M  V30 1563 N 152.244 -1.26651 -0.937939 0
M  V30 1564 C 153.49 -1.12553 -1.687 0
M  V30 1565 C 153.823 0.329782 -1.91379 0
M  V30 1566 O 153.098 1.24202 -1.4968 0
M  V30 1567 C 153.381 -1.89862 -3.05981 0
M  V30 1568 C 153.234 -3.43318 -2.90607 0
M  V30 1569 C 154.553 -1.69499 -4.0615 0
M  V30 1570 H 151.672 -0.410257 -0.612257 0
M  V30 1571 H 154.314 -1.55685 -1.08913 0
M  V30 1572 H 152.464 -1.53204 -3.57017 0
M  V30 1573 H 154.136 -3.89747 -2.46769 0
M  V30 1574 H 152.379 -3.70179 -2.26164 0
M  V30 1575 H 153.05 -3.92642 -3.8799 0
M  V30 1576 H 155.526 -2.01442 -3.64088 0
M  V30 1577 H 154.402 -2.26002 -5.00214 0
M  V30 1578 H 154.663 -0.640365 -4.37438 0
M  V30 1579 N 153.722 1.14298 -1.08507 0
M  V30 1580 C 154.67 2.21483 -0.710483 0
M  V30 1581 C 155.664 1.66998 0.284234 0
M  V30 1582 O 156.87 1.79401 0.146692 0
M  V30 1583 H 153.245 0.721578 -0.211729 0
M  V30 1584 H 155.216 2.50348 -1.62384 0
M  V30 1585 C 153.965 3.4743 -0.137007 0
M  V30 1586 H 153.288 3.89686 -0.893592 0
M  V30 1587 H 154.728 4.2391 0.0872789 0
M  V30 1588 C 153.187 3.17548 1.12538 0
M  V30 1589 O 153.717 3.35437 2.21009 0
M  V30 1590 N 151.923 2.71499 1.03617 0
M  V30 1591 H 151.47 2.57143 0.153403 0
M  V30 1592 H 151.428 2.51881 1.88158 0
M  V30 1593 N 155.201 0.870884 1.31352 0
M  V30 1594 C 156.612 0.534714 1.78879 0
M  V30 1595 C 156.963 -0.948423 1.71754 0
M  V30 1596 O 156.088 -1.74055 1.28584 0
M  V30 1597 C 156.683 0.963839 3.24801 0
M  V30 1598 C 155.242 0.679311 3.70219 0
M  V30 1599 C 154.389 1.15465 2.52117 0
M  V30 1600 H 157.34 1.05651 1.18421 0
M  V30 1601 H 157.361 0.286892 3.79417 0
M  V30 1602 H 156.873 2.04332 3.29955 0
M  V30 1603 H 154.974 -0.388769 3.70566 0
M  V30 1604 H 155.087 1.25698 4.62317 0
M  V30 1605 H 153.451 0.574383 2.48139 0
M  V30 1606 H 154.234 2.24157 2.60016 0
M  V30 1607 N 156.679 -1.44442 0.630414 0
M  V30 1608 C 157.642 -2.29107 -0.0652523 0
M  V30 1609 C 158.642 -1.41002 -0.772995 0
M  V30 1610 O 159.832 -1.62881 -0.617692 0
M  V30 1611 C 156.964 -3.22564 -1.10296 0
M  V30 1612 H 158.157 -2.92103 0.679401 0
M  V30 1613 H 155.71 -1.51343 0.390517 0
M  V30 1614 H 156.445 -2.64416 -1.87762 0
M  V30 1615 H 156.23 -3.87491 -0.59941 0
M  V30 1616 H 157.72 -3.86167 -1.5895 0
M  V30 1617 N 158.157 -0.370918 -1.53173 0
M  V30 1618 C 159.385 0.217704 -2.05751 0
M  V30 1619 C 159.8 1.42018 -1.24404 0
M  V30 1620 O 159.157 1.80245 -0.286033 0
M  V30 1621 C 159.208 0.605954 -3.56385 0
M  V30 1622 O 158.929 -0.548734 -4.3465 0
M  V30 1623 C 160.43 1.2524 -4.25241 0
M  V30 1624 H 157.65 0.0371659 -0.66997 0
M  V30 1625 H 160.194 -0.530832 -1.9749 0
M  V30 1626 H 158.349 1.3044 -3.6478 0
M  V30 1627 H 158.763 -0.23376 -5.23979 0
M  V30 1628 H 160.237 1.47458 -5.3194 0
M  V30 1629 H 160.714 2.2143 -3.79296 0
M  V30 1630 H 161.32 0.595233 -4.21114 0
M  V30 1631 N 159.635 1.57281 -0.100228 0
M  V30 1632 C 160.583 2.15542 0.874328 0
M  V30 1633 C 161.577 1.09962 1.28859 0
M  V30 1634 O 162.783 1.28298 1.26252 0
M  V30 1635 H 159.158 0.689567 0.300003 0
M  V30 1636 H 161.129 2.96241 0.35829 0
M  V30 1637 C 159.878 2.75454 2.1218 0
M  V30 1638 H 159.201 3.56384 1.81193 0
M  V30 1639 H 160.641 3.19781 2.78417 0
M  V30 1640 C 159.1 1.71602 2.89921 0
M  V30 1641 O 159.63 1.15804 3.84646 0
M  V30 1642 N 157.836 1.41975 2.53558 0
M  V30 1643 H 157.383 1.87539 1.76598 0
M  V30 1644 H 157.341 0.727274 3.05873 0
M  V30 1645 N 161.113 -0.173488 1.56642 0
M  V30 1646 C 162.076 -1.19859 1.95362 0
M  V30 1647 C 163.076 -1.37296 0.83704 0
M  V30 1648 O 164.266 -1.34739 1.10413 0
M  V30 1649 C 161.398 -2.56405 2.24654 0
M  V30 1650 H 162.591 -0.867062 2.87092 0
M  V30 1651 H 160.144 -0.415853 1.50666 0
M  V30 1652 H 160.879 -2.94576 1.35631 0
M  V30 1653 H 160.664 -2.45115 3.06041 0
M  V30 1654 H 162.154 -3.30287 2.5554 0
M  V30 1655 N 162.591 -1.51276 -0.441967 0
M  V30 1656 C 163.524 -1.66933 -1.55591 0
M  V30 1657 C 164.502 -0.516958 -1.54163 0
M  V30 1658 O 165.686 -0.740209 -1.73358 0
M  V30 1659 C 162.813 -1.67866 -2.94174 0
M  V30 1660 C 161.859 -2.89013 -3.13646 0
M  V30 1661 S 162.692 -4.49897 -2.90436 0
M  V30 1662 C 163.848 -4.53568 -4.31308 0
M  V30 1663 H 164.081 -2.61155 -1.42076 0
M  V30 1664 H 161.614 -1.40902 -0.631341 0
M  V30 1665 H 163.572 -1.69089 -3.74058 0
M  V30 1666 H 162.233 -0.748296 -3.05056 0
M  V30 1667 H 161.426 -2.86054 -4.14957 0
M  V30 1668 H 161.028 -2.85509 -2.4158 0
M  V30 1669 H 163.32 -4.28924 -5.24434 0
M  V30 1670 H 164.263 -5.55355 -4.39303 0
M  V30 1671 H 164.671 -3.82943 -4.14747 0
M  V30 1672 N 164.069 0.697108 -1.41344 0
M  V30 1673 C 165.48 1.27697 -1.36199 0
M  V30 1674 C 165.831 1.9615 -0.0443463 0
M  V30 1675 O 164.956 1.98689 0.857419 0
M  V30 1676 C 165.551 2.32223 -2.46694 0
M  V30 1677 C 164.11 2.8579 -2.44952 0
M  V30 1678 C 163.257 1.59807 -2.26621 0
M  V30 1679 H 166.208 0.491968 -1.50882 0
M  V30 1680 H 166.229 3.1348 -2.15664 0
M  V30 1681 H 165.741 1.82373 -3.42581 0
M  V30 1682 H 163.842 3.3982 -1.52817 0
M  V30 1683 H 163.955 3.36325 -3.41207 0
M  V30 1684 H 162.319 1.8556 -1.7447 0
M  V30 1685 H 163.102 1.11956 -3.24532 0
M  V30 1686 N 165.547 1.27147 0.931209 0
M  V30 1687 C 166.497 1.06227 2.01742 0
M  V30 1688 C 167.481 -0.00859065 1.60898 0
M  V30 1689 O 168.673 0.209537 1.75755 0
M  V30 1690 C 165.802 0.707787 3.35924 0
M  V30 1691 C 164.888 1.81661 3.83223 0
M  V30 1692 N 165.279 3.05564 4.03069 0
M  V30 1693 C 163.577 1.70249 4.12227 0
M  V30 1694 C 164.278 3.77697 4.42403 0
M  V30 1695 N 163.254 3.0544 4.49675 0
M  V30 1696 H 167.056 2.00261 2.15111 0
M  V30 1697 H 164.57 1.1781 1.11779 0
M  V30 1698 H 166.567 0.539043 4.134 0
M  V30 1699 H 165.227 -0.224964 3.2392 0
M  V30 1700 H 166.238 3.41363 3.89476 0
M  V30 1701 H 162.915 0.840329 4.08956 0
M  V30 1702 H 164.305 4.84168 4.65866 0
M  V30 1703 N 167.025 -1.13721 1.09112 0
M  V30 1704 C 167.973 -2.21103 0.722219 0
M  V30 1705 C 168.967 -1.67147 -0.275374 0
M  V30 1706 O 170.173 -1.79477 -0.137176 0
M  V30 1707 H 166.548 -0.720445 0.215553 0
M  V30 1708 H 168.519 -2.49483 1.63709 0
M  V30 1709 C 167.268 -3.47352 0.15543 0
M  V30 1710 H 166.591 -3.89206 0.914246 0
M  V30 1711 H 168.031 -4.2395 -0.0647967 0
M  V30 1712 C 166.49 -3.1814 -1.10852 0
M  V30 1713 O 167.02 -3.36604 -2.19227 0
M  V30 1714 N 165.226 -2.72045 -1.02176 0
M  V30 1715 H 164.773 -2.57221 -0.139764 0
M  V30 1716 H 164.731 -2.52875 -1.8682 0
M  V30 1717 N 168.503 -0.877838 -1.30888 0
M  V30 1718 C 169.749 -0.493426 -1.96706 0
M  V30 1719 C 170.082 0.953504 -1.6918 0
M  V30 1720 O 169.357 1.67266 -0.992594 0
M  V30 1721 C 169.64 -0.760429 -3.51979 0
M  V30 1722 C 169.493 -2.25747 -3.89048 0
M  V30 1723 C 170.812 -0.232148 -4.39487 0
M  V30 1724 H 167.931 -0.180746 -0.714493 0
M  V30 1725 H 170.573 -1.10052 -1.54882 0
M  V30 1726 H 168.723 -0.243715 -3.87735 0
M  V30 1727 H 170.395 -2.84204 -3.63354 0
M  V30 1728 H 168.638 -2.72694 -3.37373 0
M  V30 1729 H 169.309 -2.39491 -4.97341 0
M  V30 1730 H 171.785 -0.674314 -4.106 0
M  V30 1731 H 170.661 -0.448355 -5.47066 0
M  V30 1732 H 170.922 0.866297 -4.33529 0
M  V30 1733 N 169.982 1.44106 -0.638065 0
M  V30 1734 C 171.259 1.95453 -0.0759321 0
M  V30 1735 C 171.639 1.57984 1.40015 0
M  V30 1736 O 170.987 0.857361 2.11806 0
M  V30 1737 C 171.197 3.47655 -0.306132 0
M  V30 1738 C 172.545 4.24114 -0.203008 0
M  V30 1739 O 173.569 3.55405 -0.237871 0
M  V30 1740 O 172.428 5.46381 -0.113827 0
M  V30 1741 H 169.522 0.826797 0.0183332 0
M  V30 1742 H 172.068 1.54122 -0.710251 0
M  V30 1743 H 170.84 3.68 -1.3301 0
M  V30 1744 H 170.463 3.95949 0.361991 0
M  V30 1745 N 171.46 0.379036 1.52974 0
M  V30 1746 C 172.707 -0.206421 2.01445 0
M  V30 1747 C 173.035 -1.47668 1.26587 0
M  V30 1748 O 172.29 -1.92514 0.351675 0
M  V30 1749 C 172.589 -0.53096 3.53434 0
M  V30 1750 C 172.255 0.646546 4.46241 0
M  V30 1751 C 170.917 0.969604 4.7133 0
M  V30 1752 C 173.269 1.43479 5.01062 0
M  V30 1753 C 170.597 2.08263 5.48492 0
M  V30 1754 C 172.949 2.53834 5.7944 0
M  V30 1755 C 171.613 2.86659 6.02812 0
M  V30 1756 H 170.883 -0.0755349 0.73714 0
M  V30 1757 H 173.53 0.514271 1.84465 0
M  V30 1758 H 171.835 -1.33285 3.68432 0
M  V30 1759 H 173.532 -0.996417 3.88423 0
M  V30 1760 H 170.122 0.384734 4.2687 0
M  V30 1761 H 174.306 1.19844 4.81613 0
M  V30 1762 H 169.562 2.34078 5.64816 0
M  V30 1763 H 173.736 3.15319 6.20924 0
M  V30 1764 H 171.363 3.73026 6.62387 0
M  V30 1765 N 172.938 -1.57226 0.108567 0
M  V30 1766 C 173.888 -2.11305 -0.856396 0
M  V30 1767 C 174.872 -1.03129 -1.23504 0
M  V30 1768 O 176.064 -1.29381 -1.20787 0
M  V30 1769 C 173.193 -2.70771 -2.11041 0
M  V30 1770 C 172.279 -3.86011 -1.7566 0
M  V30 1771 N 172.67 -4.93492 -1.10902 0
M  V30 1772 C 170.968 -3.95999 -2.05185 0
M  V30 1773 C 171.669 -5.73984 -0.944308 0
M  V30 1774 N 170.645 -5.2346 -1.46596 0
M  V30 1775 H 174.447 -2.91784 -0.352002 0
M  V30 1776 H 171.961 -1.62126 -0.0942324 0
M  V30 1777 H 173.958 -3.07851 -2.81128 0
M  V30 1778 H 172.618 -1.91751 -2.62034 0
M  V30 1779 H 173.629 -5.1208 -0.774235 0
M  V30 1780 H 170.306 -3.28007 -2.58298 0
M  V30 1781 H 171.696 -6.70479 -0.436813 0
M  V30 1782 N 174.416 0.165178 -1.56732 0
M  V30 1783 C 175.664 0.879068 -1.8198 0
M  V30 1784 C 175.985 1.82514 -0.686561 0
M  V30 1785 O 175.255 1.93694 0.293146 0
M  V30 1786 H 173.835 0.327608 -0.671329 0
M  V30 1787 H 176.497 0.163526 -1.94213 0
M  V30 1788 H 175.593 1.45228 -2.76252 0
M  V30 1789 N 175.894 1.51508 0.433938 0
M  V30 1790 C 176.857 1.72473 1.50949 0
M  V30 1791 C 177.857 0.594725 1.49398 0
M  V30 1792 O 179.047 0.862315 1.5136 0
M  V30 1793 C 176.179 1.78431 2.90474 0
M  V30 1794 H 177.372 2.68467 1.33662 0
M  V30 1795 H 174.925 1.41549 0.662836 0
M  V30 1796 H 175.66 0.842645 3.13161 0
M  V30 1797 H 175.445 2.60558 2.93005 0
M  V30 1798 H 176.935 1.96479 3.68491 0
M  V30 1799 N 177.372 -0.689602 1.41712 0
M  V30 1800 C 178.6 -1.47827 1.44758 0
M  V30 1801 C 179.015 -1.88721 0.0545703 0
M  V30 1802 O 178.372 -1.57176 -0.927463 0
M  V30 1803 C 178.423 -2.73698 2.3616 0
M  V30 1804 O 178.144 -2.34524 3.7004 0
M  V30 1805 C 179.645 -3.67389 2.48072 0
M  V30 1806 H 176.865 -0.455357 0.49284 0
M  V30 1807 H 179.409 -0.848574 1.86063 0
M  V30 1808 H 177.564 -3.32891 1.98148 0
M  V30 1809 H 177.978 -3.15701 4.18847 0
M  V30 1810 H 179.452 -4.52475 3.16181 0
M  V30 1811 H 179.929 -4.12284 1.51388 0
M  V30 1812 H 180.535 -3.14097 2.86746 0
M  V30 1813 N 178.85 -1.27639 -0.924453 0
M  V30 1814 C 180.098 -1.13941 -1.66918 0
M  V30 1815 C 180.419 0.314589 -1.92446 0
M  V30 1816 O 179.689 1.21964 -1.53303 0
M  V30 1817 H 178.269 -0.418678 -0.618642 0
M  V30 1818 H 180.931 -1.60213 -1.10985 0
M  V30 1819 H 180.027 -1.67094 -2.63602 0
M  V30 1820 N 180.328 1.1314 -1.09713 0
M  V30 1821 C 181.291 2.16831 -0.742751 0
M  V30 1822 C 182.291 1.59159 0.229129 0
M  V30 1823 O 183.481 1.74199 0.00693237 0
M  V30 1824 C 180.613 3.40756 -0.0989168 0
M  V30 1825 H 181.806 2.49695 -1.66109 0
M  V30 1826 H 179.359 1.2802 -0.896699 0
M  V30 1827 H 180.094 3.13485 0.830514 0
M  V30 1828 H 179.879 3.83888 -0.798265 0
M  V30 1829 H 181.369 4.17386 0.133524 0
M  V30 1830 N 181.806 0.884767 1.30421 0
M  V30 1831 C 182.736 0.367574 2.30589 0
M  V30 1832 C 183.717 -0.549464 1.60981 0
M  V30 1833 O 184.902 -0.46336 1.88591 0
M  V30 1834 C 182.032 -0.418944 3.44764 0
M  V30 1835 C 180.986 0.406316 4.26067 0
M  V30 1836 C 180.312 -0.506793 5.32293 0
M  V30 1837 C 181.612 1.64832 4.95608 0
M  V30 1838 H 183.306 1.20462 2.74097 0
M  V30 1839 H 180.852 0.580695 1.31772 0
M  V30 1840 H 182.805 -0.791395 4.13902 0
M  V30 1841 H 181.529 -1.28964 3.0006 0
M  V30 1842 H 180.188 0.760903 3.58617 0
M  V30 1843 H 179.836 -1.37519 4.83836 0
M  V30 1844 H 179.536 0.0415828 5.87585 0
M  V30 1845 H 181.06 -0.875764 6.04287 0
M  V30 1846 H 182.474 1.34646 5.57264 0
M  V30 1847 H 180.871 2.13688 5.60765 0
M  V30 1848 H 181.941 2.39284 4.21748 0
M  V30 1849 N 183.284 -1.43765 0.645699 0
M  V30 1850 C 184.532 -2.01499 0.155731 0
M  V30 1851 C 184.853 -1.51151 -1.232 0
M  V30 1852 O 184.123 -0.721044 -1.82148 0
M  V30 1853 H 182.703 -0.745003 0.0545817 0
M  V30 1854 H 185.365 -1.76075 0.835677 0
M  V30 1855 H 184.461 -3.1181 0.134577 0
M  V30 1856 N 184.763 -0.387143 -1.52771 0
M  V30 1857 C 186.011 0.195349 -2.01154 0
M  V30 1858 C 186.332 1.475 -1.27549 0
M  V30 1859 O 185.602 1.91878 -0.394924 0
M  V30 1860 H 184.182 0.075178 -0.743207 0
M  V30 1861 H 186.844 -0.518337 -1.87881 0
M  V30 1862 H 185.94 0.407096 -3.09434 0
M  V30 1863 N 186.241 1.57166 -0.116904 0
M  V30 1864 C 187.204 2.14039 0.819742 0
M  V30 1865 C 188.204 1.07477 1.19605 0
M  V30 1866 O 189.394 1.33263 1.1219 0
M  V30 1867 C 186.526 2.67891 2.10826 0
M  V30 1868 H 187.719 2.98128 0.325511 0
M  V30 1869 H 185.272 1.55739 0.132312 0
M  V30 1870 H 186.007 1.87384 2.64685 0
M  V30 1871 H 185.792 3.45823 1.84793 0
M  V30 1872 H 187.282 3.11809 2.77785 0
M  V30 1873 N 187.719 -0.156864 1.56817 0
M  V30 1874 C 188.666 -1.19394 1.97519 0
M  V30 1875 C 189.636 -1.4322 0.841265 0
M  V30 1876 O 190.821 -1.55719 1.10255 0
M  V30 1877 C 187.961 -2.52483 2.35258 0
M  V30 1878 C 187.074 -2.35914 3.61896 0
M  V30 1879 C 186.209 -3.61969 3.88782 0
M  V30 1880 C 185.248 -3.40395 5.08722 0
M  V30 1881 N 184.385 -4.58556 5.31668 0
M  V30 1882 H 189.225 -0.839845 2.85921 0
M  V30 1883 H 186.762 -0.403264 1.41464 0
M  V30 1884 H 188.72 -3.30071 2.55165 0
M  V30 1885 H 187.35 -2.85859 1.49949 0
M  V30 1886 H 186.402 -1.49429 3.49821 0
M  V30 1887 H 187.714 -2.15926 4.49641 0
M  V30 1888 H 186.868 -4.47989 4.09135 0
M  V30 1889 H 185.607 -3.84951 2.9944 0
M  V30 1890 H 184.612 -2.52763 4.88253 0
M  V30 1891 H 185.837 -3.18822 5.99608 0
M  V30 1892 H 183.783 -4.81729 4.45279 0
M  V30 1893 H 183.7 -4.41535 6.13664 0
M  V30 1894 H 184.968 -5.45817 5.5651 0
M  V30 1895 N 189.197 -1.51736 -0.425897 0
M  V30 1896 C 190.127 -1.76827 -1.52494 0
M  V30 1897 C 191.108 -0.618524 -1.58456 0
M  V30 1898 O 192.293 -0.862416 -1.74 0
M  V30 1899 C 189.423 -1.90374 -2.90474 0
M  V30 1900 C 188.377 -3.0588 -2.99369 0
M  V30 1901 C 187.703 -3.04625 -4.3944 0
M  V30 1902 C 189.003 -4.45644 -2.72394 0
M  V30 1903 H 190.697 -2.68855 -1.31748 0
M  V30 1904 H 188.243 -1.29372 -0.632362 0
M  V30 1905 H 190.196 -2.0651 -3.6733 0
M  V30 1906 H 188.92 -0.95004 -3.12477 0
M  V30 1907 H 187.579 -2.89467 -2.24954 0
M  V30 1908 H 187.227 -2.0701 -4.58428 0
M  V30 1909 H 186.927 -3.82195 -4.46319 0
M  V30 1910 H 188.451 -3.22869 -5.18255 0
M  V30 1911 H 189.865 -4.62348 -3.38979 0
M  V30 1912 H 188.262 -5.25006 -2.9067 0
M  V30 1913 H 189.332 -4.54893 -1.67929 0
M  V30 1914 N 190.675 0.682077 -1.42076 0
M  V30 1915 C 191.903 1.47057 -1.4554 0
M  V30 1916 C 192.318 1.8869 -0.0645779 0
M  V30 1917 O 191.675 1.57666 0.919115 0
M  V30 1918 C 191.726 2.72442 -2.37609 0
M  V30 1919 O 191.447 2.32559 -3.71279 0
M  V30 1920 C 192.948 3.66069 -2.50017 0
M  V30 1921 H 190.168 0.452737 -0.495248 0
M  V30 1922 H 192.712 0.838695 -1.8651 0
M  V30 1923 H 190.867 3.31835 -1.9991 0
M  V30 1924 H 191.281 3.13475 -4.20516 0
M  V30 1925 H 192.755 4.50792 -3.18576 0
M  V30 1926 H 193.232 4.11476 -1.53572 0
M  V30 1927 H 193.838 3.12572 -2.88407 0
M  V30 1928 N 192.153 1.28127 0.917671 0
M  V30 1929 C 193.101 1.11569 2.04096 0
M  V30 1930 C 194.095 0.0360242 1.69362 0
M  V30 1931 O 195.301 0.194501 1.78946 0
M  V30 1932 H 191.676 0.344097 0.668656 0
M  V30 1933 H 193.647 2.06711 2.15205 0
M  V30 1934 C 192.396 0.790197 3.38602 0
M  V30 1935 H 191.719 1.61293 3.6582 0
M  V30 1936 H 193.159 0.714271 4.1794 0
M  V30 1937 C 191.618 -0.505897 3.3308 0
M  V30 1938 O 192.148 -1.53736 3.71117 0
M  V30 1939 N 190.354 -0.505193 2.86175 0
M  V30 1940 H 189.901 0.334621 2.55417 0
M  V30 1941 H 189.859 -1.37243 2.82863 0
M  V30 1942 N 193.631 -1.12557 1.10312 0
M  V30 1943 C 194.877 -1.84311 0.846011 0
M  V30 1944 C 195.21 -1.83805 -0.626859 0
M  V30 1945 O 194.485 -1.28268 -1.46211 0
M  V30 1946 C 194.768 -3.32048 1.39341 0
M  V30 1947 C 194.621 -3.41016 2.93305 0
M  V30 1948 C 195.94 -4.27764 1.03468 0
M  V30 1949 H 193.059 -0.669192 0.30879 0
M  V30 1950 H 195.701 -1.32057 1.36605 0
M  V30 1951 H 193.851 -3.76678 0.951087 0
M  V30 1952 H 195.523 -3.05031 3.46055 0
M  V30 1953 H 193.766 -2.81603 3.29973 0
M  V30 1954 H 194.437 -4.44948 3.26689 0
M  V30 1955 H 196.913 -3.91253 1.41633 0
M  V30 1956 H 195.789 -5.29549 1.44463 0
M  V30 1957 H 196.05 -4.42064 -0.0560404 0
M  V30 1958 N 195.109 -0.891671 -1.2995 0
M  V30 1959 C 196.057 -0.353066 -2.29905 0
M  V30 1960 C 197.051 0.543509 -1.60444 0
M  V30 1961 O 198.257 0.4272 -1.74857 0
M  V30 1962 H 194.632 -0.095531 -0.745907 0
M  V30 1963 H 196.603 -1.20961 -2.72784 0
M  V30 1964 C 195.352 0.411475 -3.45257 0
M  V30 1965 H 194.675 -0.269182 -3.98893 0
M  V30 1966 H 196.115 0.753328 -4.17254 0
M  V30 1967 C 194.574 1.6111 -2.9588 0
M  V30 1968 O 195.104 2.71045 -2.96475 0
M  V30 1969 N 193.31 1.45054 -2.51809 0
M  V30 1970 H 192.857 0.556175 -2.51524 0
M  V30 1971 H 192.815 2.25453 -2.1913 0
M  V30 1972 N 196.587 1.43421 -0.653314 0
M  V30 1973 C 197.998 1.85065 -0.246537 0
M  V30 1974 C 198.349 1.54688 1.2069 0
M  V30 1975 O 197.474 0.995896 1.92122 0
M  V30 1976 C 198.069 3.35922 -0.440666 0
M  V30 1977 C 196.628 3.76297 -0.0882064 0
M  V30 1978 C 195.775 2.67147 -0.743484 0
M  V30 1979 H 198.726 1.33572 -0.856979 0
M  V30 1980 H 198.747 3.79204 0.313798 0
M  V30 1981 H 198.259 3.58 -1.49858 0
M  V30 1982 H 196.36 3.5983 0.96711 0
M  V30 1983 H 196.473 4.76338 -0.513738 0
M  V30 1984 H 194.837 2.54086 -0.176712 0
M  V30 1985 H 195.62 2.92053 -1.80443 0
M  V30 1986 N 198.065 0.39524 1.52563 0
M  V30 1987 C 199.313 -0.184678 2.01254 0
M  V30 1988 C 199.634 -1.46822 1.28329 0
M  V30 1989 O 198.904 -1.91666 0.405094 0
M  V30 1990 H 197.484 -0.0712355 0.743596 0
M  V30 1991 H 200.146 0.528293 1.87603 0
M  V30 1992 H 199.242 -0.390681 3.09645 0
M  V30 1993 N 199.544 -1.57102 0.125237 0
M  V30 1994 C 200.454 -2.19191 -0.8362 0
M  V30 1995 C 201.47 -1.16985 -1.28805 0
M  V30 1996 O 202.646 -1.49479 -1.34974 0
M  V30 1997 C 199.711 -2.78407 -2.06617 0
M  V30 1998 C 198.772 -3.9567 -1.66565 0
M  V30 1999 C 198.005 -4.52052 -2.83698 0
M  V30 2000 O 198.228 -4.07326 -3.99302 0
M  V30 2001 O 197.162 -5.42645 -2.60423 0
M  V30 2002 H 200.988 -3.01816 -0.337776 0
M  V30 2003 H 198.573 -1.4906 -0.100695 0
M  V30 2004 H 200.455 -3.16129 -2.7864 0
M  V30 2005 H 199.13 -1.9881 -2.55453 0
M  V30 2006 H 198.037 -3.62705 -0.916296 0
M  V30 2007 H 199.37 -4.76722 -1.22464 0
M  V30 2008 N 201.022 0.148545 -1.56898 0
M  V30 2009 C 201.954 1.20852 -1.9475 0
M  V30 2010 C 202.967 1.39265 -0.843152 0
M  V30 2011 O 204.156 1.38864 -1.12156 0
M  V30 2012 C 201.256 2.57362 -2.20495 0
M  V30 2013 C 200.429 2.59947 -3.51776 0
M  V30 2014 C 199.488 3.77984 -3.6608 0
M  V30 2015 O 198.514 3.62929 -4.38487 0
M  V30 2016 N 199.716 4.95375 -3.02629 0
M  V30 2017 H 202.481 0.886804 -2.86279 0
M  V30 2018 H 200.042 0.338121 -1.5833 0
M  V30 2019 H 202.034 3.34833 -2.27307 0
M  V30 2020 H 200.604 2.81832 -1.35238 0
M  V30 2021 H 199.824 1.68403 -3.56419 0
M  V30 2022 H 201.112 2.58704 -4.38121 0
M  V30 2023 H 200.51 5.10509 -2.43715 0
M  V30 2024 H 199.067 5.70627 -3.15004 0
M  V30 2025 N 202.5 1.5196 0.417844 0
M  V30 2026 C 203.463 1.74065 1.49111 0
M  V30 2027 C 204.463 0.610537 1.48758 0
M  V30 2028 O 205.653 0.87832 1.50437 0
M  V30 2029 C 202.785 1.81502 2.88565 0
M  V30 2030 H 203.978 2.69869 1.30807 0
M  V30 2031 H 201.531 1.42244 0.647785 0
M  V30 2032 H 202.266 0.875813 3.1225 0
M  V30 2033 H 202.051 2.63651 2.90225 0
M  V30 2034 H 203.541 2.00376 3.66387 0
M  V30 2035 N 203.978 -0.674533 1.42435 0
M  V30 2036 C 205.206 -1.46283 1.46317 0
M  V30 2037 C 205.621 -1.88653 0.0745836 0
M  V30 2038 O 204.978 -1.58151 -0.91074 0
M  V30 2039 C 205.029 -2.71178 2.3905 0
M  V30 2040 O 204.75 -2.30586 3.72507 0
M  V30 2041 C 206.251 -3.64738 2.51955 0
M  V30 2042 H 203.471 -0.450104 0.497642 0
M  V30 2043 H 206.015 -0.828792 1.86953 0
M  V30 2044 H 204.17 -3.3077 2.01667 0
M  V30 2045 H 204.584 -3.11241 4.22172 0
M  V30 2046 H 206.058 -4.49096 3.20962 0
M  V30 2047 H 206.535 -4.10656 1.55752 0
M  V30 2048 H 207.141 -3.11038 2.90061 0
M  V30 2049 N 205.456 -1.28612 -0.910864 0
M  V30 2050 C 206.386 -1.15326 -2.03032 0
M  V30 2051 C 207.367 -0.0502924 -1.70026 0
M  V30 2052 O 208.552 -0.227797 -1.92859 0
M  V30 2053 C 205.682 -0.817343 -3.37545 0
M  V30 2054 C 204.636 -1.8754 -3.84724 0
M  V30 2055 C 203.962 -1.39305 -5.16235 0
M  V30 2056 C 205.262 -3.28244 -4.06267 0
M  V30 2057 H 206.956 -2.08975 -2.14406 0
M  V30 2058 H 204.502 -1.00612 -1.03021 0
M  V30 2059 H 206.455 -0.711151 -4.15356 0
M  V30 2060 H 205.179 0.154846 -3.26233 0
M  V30 2061 H 203.838 -1.97079 -3.09121 0
M  V30 2062 H 203.486 -0.409846 -5.01328 0
M  V30 2063 H 203.186 -2.10057 -5.48771 0
M  V30 2064 H 204.71 -1.30014 -5.96598 0
M  V30 2065 H 206.124 -3.21611 -4.74594 0
M  V30 2066 H 204.521 -3.96855 -4.5014 0
M  V30 2067 H 205.591 -3.72048 -3.10979 0
M  V30 2068 N 206.934 1.1197 -1.10907 0
M  V30 2069 C 208.35 1.35591 -0.841852 0
M  V30 2070 C 208.55 1.94233 0.536246 0
M  V30 2071 O 207.606 2.1717 1.28816 0
M  V30 2072 C 208.919 2.29284 -1.94549 0
M  V30 2073 C 210.467 2.42862 -1.97451 0
M  V30 2074 C 210.942 3.39873 -3.07002 0
M  V30 2075 N 212.433 3.47433 -3.06341 0
M  V30 2076 C 213.168 4.22421 -3.87748 0
M  V30 2077 N 212.664 5.00432 -4.79103 0
M  V30 2078 N 214.457 4.17876 -3.75946 0
M  V30 2079 H 206.608 0.722664 -1.99728 0
M  V30 2080 H 208.871 0.380635 -0.868229 0
M  V30 2081 H 208.577 1.93378 -2.93765 0
M  V30 2082 H 208.451 3.29452 -1.83688 0
M  V30 2083 H 210.838 2.78046 -0.988645 0
M  V30 2084 H 210.919 1.42566 -2.12388 0
M  V30 2085 H 210.563 3.05417 -4.05811 0
M  V30 2086 H 210.493 4.40011 -2.89306 0
M  V30 2087 H 212.984 2.91784 -2.40147 0
M  V30 2088 H 213.297 5.55002 -5.37766 0
M  V30 2089 H 211.642 4.99612 -4.83128 0
M  V30 2090 H 214.833 3.56016 -3.03924 0
M  V30 2091 H 215.006 4.76061 -4.39624 0
M  V30 2092 N 208.412 0.89855 1.29475 0
M  V30 2093 C 209.659 0.523882 1.95606 0
M  V30 2094 C 209.987 -0.929608 1.70847 0
M  V30 2095 O 209.242 -1.67401 1.01367 0
M  V30 2096 C 209.541 0.761398 3.49195 0
M  V30 2097 C 209.207 2.19207 3.94029 0
M  V30 2098 C 207.869 2.58326 4.05982 0
M  V30 2099 C 210.221 3.12379 4.17216 0
M  V30 2100 C 207.549 3.898 4.38489 0
M  V30 2101 C 209.901 4.43401 4.51197 0
M  V30 2102 C 208.565 4.82394 4.61359 0
M  V30 2103 H 207.835 0.191702 0.715773 0
M  V30 2104 H 210.482 1.13699 1.54094 0
M  V30 2105 H 208.787 0.0653622 3.91745 0
M  V30 2106 H 210.484 0.450904 3.98457 0
M  V30 2107 H 207.074 1.87846 3.85242 0
M  V30 2108 H 211.258 2.83371 4.07449 0
M  V30 2109 H 206.514 4.19734 4.44559 0
M  V30 2110 H 210.688 5.15623 4.68087 0
M  V30 2111 H 208.315 5.84306 4.86303 0
M  V30 2112 N 209.89 -1.43072 0.660911 0
M  V30 2113 C 210.837 -2.30785 -0.0259884 0
M  V30 2114 C 211.807 -1.45184 -0.806888 0
M  V30 2115 O 212.992 -1.74041 -0.781943 0
M  V30 2116 C 210.132 -3.30861 -0.981067 0
M  V30 2117 C 209.245 -4.31558 -0.195458 0
M  V30 2118 C 208.38 -5.18712 -1.14503 0
M  V30 2119 C 207.419 -6.11097 -0.350299 0
M  V30 2120 N 206.556 -6.90849 -1.25186 0
M  V30 2121 H 211.396 -2.88975 0.727846 0
M  V30 2122 H 208.933 -1.42353 0.370682 0
M  V30 2123 H 210.891 -3.87399 -1.54849 0
M  V30 2124 H 209.521 -2.74304 -1.70169 0
M  V30 2125 H 208.573 -3.77252 0.488374 0
M  V30 2126 H 209.885 -4.9701 0.422176 0
M  V30 2127 H 209.039 -5.79914 -1.78284 0
M  V30 2128 H 207.778 -4.53404 -1.79656 0
M  V30 2129 H 206.783 -5.48976 0.300808 0
M  V30 2130 H 208.008 -6.7845 0.296941 0
M  V30 2131 H 205.954 -6.28182 -1.89005 0
M  V30 2132 H 205.871 -7.52854 -0.688971 0
M  V30 2133 H 207.139 -7.5655 -1.87757 0
M  V30 2134 N 211.368 -0.403325 -1.52352 0
M  V30 2135 C 212.331 0.413051 -2.25447 0
M  V30 2136 C 213.331 0.978513 -1.276 0
M  V30 2137 O 214.521 0.858305 -1.51587 0
M  V30 2138 C 211.653 1.58087 -3.02029 0
M  V30 2139 H 212.846 -0.227094 -2.99039 0
M  V30 2140 H 210.399 -0.155722 -1.55522 0
M  V30 2141 H 211.134 2.25804 -2.32772 0
M  V30 2142 H 210.919 1.18195 -3.73861 0
M  V30 2143 H 212.409 2.1585 -3.57489 0
M  V30 2144 N 212.846 1.57033 -0.133567 0
M  V30 2145 C 214.123 1.87256 0.56522 0
M  V30 2146 C 214.503 1.03726 1.83859 0
M  V30 2147 O 213.851 0.120247 2.28183 0
M  V30 2148 C 214.061 3.3865 0.843636 0
M  V30 2149 C 215.409 4.07574 1.19032 0
M  V30 2150 O 216.433 3.43752 0.933429 0
M  V30 2151 O 215.292 5.20259 1.67312 0
M  V30 2152 H 212.386 0.775678 0.286796 0
M  V30 2153 H 214.932 1.68855 -0.169168 0
M  V30 2154 H 213.704 3.91257 -0.0581149 0
M  V30 2155 H 213.327 3.62532 1.63268 0
M  V30 2156 N 214.325 -0.140222 1.56975 0
M  V30 2157 C 215.741 -0.493088 1.51792 0
M  V30 2158 C 215.941 -1.83013 0.843116 0
M  V30 2159 O 214.997 -2.49041 0.416493 0
M  V30 2160 C 216.31 -0.497144 2.96562 0
M  V30 2161 C 217.858 -0.582186 3.07538 0
M  V30 2162 C 218.333 -0.616838 4.53827 0
M  V30 2163 N 219.824 -0.678873 4.58198 0
M  V30 2164 C 220.559 -0.726782 5.68775 0
M  V30 2165 N 220.055 -0.733623 6.88905 0
M  V30 2166 N 221.848 -0.768179 5.56826 0
M  V30 2167 H 213.999 0.736108 1.99237 0
M  V30 2168 H 216.262 0.269182 0.90898 0
M  V30 2169 H 215.968 0.417217 3.49217 0
M  V30 2170 H 215.842 -1.33263 3.52875 0
M  V30 2171 H 218.229 -1.48697 2.54899 0
M  V30 2172 H 218.31 0.280581 2.54257 0
M  V30 2173 H 217.954 0.283812 5.07106 0
M  V30 2174 H 217.884 -1.49619 5.04898 0
M  V30 2175 H 220.375 -0.68061 3.7172 0
M  V30 2176 H 220.688 -0.772215 7.68932 0
M  V30 2177 H 219.033 -0.701389 6.91452 0
M  V30 2178 H 222.224 -0.760051 4.61888 0
M  V30 2179 H 222.397 -0.80205 6.43017 0
M  V30 2180 N 215.803 -1.52179 -0.40978 0
M  V30 2181 C 217.028 -1.70347 -1.18308 0
M  V30 2182 C 217.453 -0.411887 -1.83535 0
M  V30 2183 O 216.811 0.630587 -1.6998 0
M  V30 2184 C 216.859 -2.83977 -2.22238 0
M  V30 2185 O 215.963 -2.495 -3.28365 0
M  V30 2186 H 215.304 -0.567103 -0.345384 0
M  V30 2187 H 217.834 -1.98879 -0.480445 0
M  V30 2188 H 217.844 -3.0887 -2.66577 0
M  V30 2189 H 216.519 -3.77685 -1.74146 0
M  V30 2190 H 215.096 -2.35277 -2.89308 0
M  V30 2191 N 217.281 0.66697 -1.42791 0
M  V30 2192 C 218.529 1.42417 -1.43394 0
M  V30 2193 C 218.85 1.94925 -0.0542373 0
M  V30 2194 O 218.12 1.73564 0.908415 0
M  V30 2195 H 216.7 0.528515 -0.527902 0
M  V30 2196 H 219.362 0.787562 -1.78279 0
M  V30 2197 H 218.458 2.27333 -2.13837 0
M  V30 2198 N 218.759 1.29093 0.90403 0
M  V30 2199 C 219.987 1.19689 1.68766 0
M  V30 2200 C 220.402 -0.243113 1.87228 0
M  V30 2201 O 219.759 -1.16326 1.40621 0
M  V30 2202 C 219.81 1.90144 3.07453 0
M  V30 2203 O 219.531 3.2852 2.89838 0
M  V30 2204 C 221.032 1.87162 4.01852 0
M  V30 2205 H 218.252 0.415035 0.527244 0
M  V30 2206 H 220.796 1.7039 1.13082 0
M  V30 2207 H 218.951 1.43289 3.59926 0
M  V30 2208 H 219.365 3.63944 3.77684 0
M  V30 2209 H 220.839 2.41032 4.96596 0
M  V30 2210 H 221.316 0.84617 4.30972 0
M  V30 2211 H 221.922 2.33741 3.5531 0
M  V30 2212 N 220.237 -1.11381 1.11499 0
M  V30 2213 C 221.484 -1.83132 0.864231 0
M  V30 2214 C 221.812 -1.84683 -0.610114 0
M  V30 2215 O 221.067 -1.29589 -1.46646 0
M  V30 2216 C 221.366 -3.30026 1.37177 0
M  V30 2217 C 221.032 -3.48634 2.85946 0
M  V30 2218 C 219.694 -3.53421 3.26569 0
M  V30 2219 C 222.046 -3.54837 3.81759 0
M  V30 2220 C 219.374 -3.61967 4.61733 0
M  V30 2221 C 221.726 -3.64915 5.1674 0
M  V30 2222 C 220.39 -3.67962 5.5692 0
M  V30 2223 H 219.66 -0.670127 0.316245 0
M  V30 2224 H 222.307 -1.31354 1.3935 0
M  V30 2225 H 220.612 -3.84304 0.762753 0
M  V30 2226 H 222.309 -3.84034 1.15408 0
M  V30 2227 H 218.899 -3.45579 2.53521 0
M  V30 2228 H 223.083 -3.50399 3.51474 0
M  V30 2229 H 218.339 -3.62603 4.92269 0
M  V30 2230 H 222.513 -3.68658 5.90816 0
M  V30 2231 H 220.14 -3.74336 6.61647 0
M  V30 2232 N 221.715 -0.905404 -1.28997 0
M  V30 2233 C 222.961 -0.535039 -1.95615 0
M  V30 2234 C 223.294 0.917404 -1.71165 0
M  V30 2235 O 222.569 1.65123 -1.02785 0
M  V30 2236 C 222.852 -0.834918 -3.50287 0
M  V30 2237 C 222.705 -2.33948 -3.84172 0
M  V30 2238 C 224.024 -0.325318 -4.38896 0
M  V30 2239 H 221.143 -0.195861 -0.710498 0
M  V30 2240 H 223.785 -1.13313 -1.52513 0
M  V30 2241 H 221.935 -0.325904 -3.87131 0
M  V30 2242 H 223.607 -2.91847 -3.57243 0
M  V30 2243 H 221.85 -2.79789 -3.31513 0
M  V30 2244 H 222.521 -2.49987 -4.92149 0
M  V30 2245 H 224.997 -0.761256 -4.09077 0
M  V30 2246 H 223.873 -0.564295 -5.45992 0
M  V30 2247 H 224.134 0.774144 -4.35269 0
M  V30 2248 N 223.193 1.4272 -0.668489 0
M  V30 2249 C 224.423 2.05668 -0.196063 0
M  V30 2250 C 224.831 1.5028 1.14946 0
M  V30 2251 O 224.174 0.6348 1.72383 0
M  V30 2252 C 224.236 3.59469 -0.0468879 0
M  V30 2253 C 223.9 4.37518 -1.32012 0
M  V30 2254 C 224.897 4.68584 -2.25222 0
M  V30 2255 C 222.582 4.77266 -1.56596 0
M  V30 2256 C 224.576 5.38326 -3.41297 0
M  V30 2257 C 222.263 5.4675 -2.72962 0
M  V30 2258 C 223.261 5.77204 -3.65137 0
M  V30 2259 O 222.949 6.45264 -4.79468 0
M  V30 2260 H 222.681 0.669382 -0.0943599 0
M  V30 2261 H 225.235 1.83954 -0.913788 0
M  V30 2262 H 223.465 3.79817 0.726357 0
M  V30 2263 H 225.154 4.04071 0.384852 0
M  V30 2264 H 225.92 4.38382 -2.07477 0
M  V30 2265 H 221.799 4.52959 -0.857249 0
M  V30 2266 H 225.343 5.62014 -4.13263 0
M  V30 2267 H 221.24 5.76369 -2.90635 0
M  V30 2268 H 222.008 6.63753 -4.78931 0
M  V30 2269 N 224.671 0.411399 1.52136 0
M  V30 2270 C 225.621 -0.430376 2.23901 0
M  V30 2271 C 226.605 -1.0116 1.25121 0
M  V30 2272 O 227.797 -0.934044 1.50348 0
M  V30 2273 C 224.926 -1.54527 3.06556 0
M  V30 2274 C 224.012 -0.9747 4.12747 0
M  V30 2275 N 224.403 -0.130991 5.0563 0
M  V30 2276 C 222.701 -1.24497 4.28271 0
M  V30 2277 C 223.402 0.186689 5.814 0
M  V30 2278 N 222.378 -0.42304 5.41951 0
M  V30 2279 H 226.18 0.220509 2.93072 0
M  V30 2280 H 223.694 0.221952 1.60876 0
M  V30 2281 H 225.691 -2.16093 3.56524 0
M  V30 2282 H 224.351 -2.19875 2.38925 0
M  V30 2283 H 225.362 0.23349 5.17373 0
M  V30 2284 H 222.039 -1.89787 3.7187 0
M  V30 2285 H 223.429 0.871673 6.66222 0
M  V30 2286 N 226.149 -1.5696 0.141893 0
M  V30 2287 C 227.389 -1.9785 -0.513304 0
M  V30 2288 C 227.753 -1.02467 -1.62371 0
M  V30 2289 O 228.954 -1.32382 -2.33941 0
M  V30 2290 C 227.225 -3.42797 -1.01118 0
M  V30 2291 S 228.784 -4.05709 -1.67169 0
M  V30 2292 H 225.602 -0.691318 -0.166135 0
M  V30 2293 H 228.204 -1.94114 0.232398 0
M  V30 2294 H 226.908 -4.0995 -0.192179 0
M  V30 2295 H 226.439 -3.50235 -1.79162 0
M  V30 2296 H 228.454 -3.98342 -2.95868 0
M  V30 2297 N 227.627 0.131896 -1.57047 0
M  V30 2298 C 228.59 1.14638 -1.98471 0
M  V30 2299 C 229.59 1.35029 -0.873148 0
M  V30 2300 O 230.78 1.31764 -1.13946 0
M  V30 2301 C 227.912 2.50358 -2.31373 0
M  V30 2302 H 229.105 0.79064 -2.8929 0
M  V30 2303 H 226.658 0.375761 -1.51716 0
M  V30 2304 H 227.393 2.90876 -1.43393 0
M  V30 2305 H 227.178 2.36915 -3.12432 0
M  V30 2306 H 228.668 3.23395 -2.64207 0
M  V30 2307 N 229.106 1.52395 0.401703 0
M  V30 2308 C 230.517 1.58899 0.980202 0
M  V30 2309 C 230.868 0.434032 1.91339 0
M  V30 2310 O 229.993 -0.444619 2.11783 0
M  V30 2311 C 230.588 2.87994 1.78451 0
M  V30 2312 C 229.147 2.96953 2.31292 0
M  V30 2313 C 228.294 2.53903 1.11483 0
M  V30 2314 H 231.245 1.57657 0.18168 0
M  V30 2315 H 231.266 2.73765 2.64259 0
M  V30 2316 H 230.778 3.72035 1.10506 0
M  V30 2317 H 228.879 2.17422 3.02586 0
M  V30 2318 H 228.992 4.01344 2.61649 0
M  V30 2319 H 227.356 2.07925 1.47104 0
M  V30 2320 H 228.139 3.40326 0.450928 0
M  V30 2321 N 230.584 -0.659388 1.43143 0
M  V30 2322 C 231.494 -1.80167 1.50256 0
M  V30 2323 C 232.51 -1.69571 0.390106 0
M  V30 2324 O 233.686 -1.90849 0.643319 0
M  V30 2325 C 230.751 -3.16409 1.41725 0
M  V30 2326 C 229.812 -3.38848 2.63591 0
M  V30 2327 C 229.045 -4.68591 2.55458 0
M  V30 2328 O 229.268 -5.47532 1.59891 0
M  V30 2329 O 228.202 -4.92614 3.45854 0
M  V30 2330 H 232.028 -1.77121 2.46702 0
M  V30 2331 H 229.613 -0.817092 1.25076 0
M  V30 2332 H 231.495 -3.9768 1.39387 0
M  V30 2333 H 230.17 -3.20059 0.484118 0
M  V30 2334 H 229.077 -2.57366 2.71502 0
M  V30 2335 H 230.41 -3.4004 3.55856 0
M  V30 2336 N 232.062 -1.29571 -0.897171 0
M  V30 2337 C 233.31 -1.17456 -1.64464 0
M  V30 2338 C 233.631 0.273698 -1.9307 0
M  V30 2339 O 232.901 1.18684 -1.55855 0
M  V30 2340 H 231.481 -0.431706 -0.609622 0
M  V30 2341 H 234.143 -1.62531 -1.07562 0
M  V30 2342 H 233.239 -1.72648 -2.59998 0
M  V30 2343 N 233.54 1.10788 -1.12088 0
M  V30 2344 C 234.473 2.16237 -0.729168 0
M  V30 2345 C 235.451 1.60207 0.277921 0
M  V30 2346 O 236.635 1.87707 0.172737 0
M  V30 2347 C 233.762 3.38609 -0.0786848 0
M  V30 2348 C 232.808 4.13322 -1.05201 0
M  V30 2349 S 233.641 4.69371 -2.57781 0
M  V30 2350 C 234.797 5.95058 -1.94053 0
M  V30 2351 H 235.03 2.4913 -1.62239 0
M  V30 2352 H 232.563 1.22519 -0.939603 0
M  V30 2353 H 234.521 4.09473 0.290254 0
M  V30 2354 H 233.182 3.03962 0.791593 0
M  V30 2355 H 232.375 5.01051 -0.544433 0
M  V30 2356 H 231.977 3.48251 -1.36371 0
M  V30 2357 H 234.269 6.65278 -1.28107 0
M  V30 2358 H 235.212 6.50472 -2.79807 0
M  V30 2359 H 235.62 5.46918 -1.39787 0
M  V30 2360 N 235.018 0.912232 1.28515 0
M  V30 2361 C 236.264 0.545405 1.95328 0
M  V30 2362 C 236.597 -0.908313 1.71649 0
M  V30 2363 O 235.872 -1.64575 1.03659 0
M  V30 2364 C 236.155 0.853483 3.4984 0
M  V30 2365 C 236.008 2.35982 3.82926 0
M  V30 2366 C 237.327 0.348589 4.38717 0
M  V30 2367 H 234.446 0.199626 0.709449 0
M  V30 2368 H 237.088 1.1412 1.5191 0
M  V30 2369 H 235.238 0.34643 3.86952 0
M  V30 2370 H 236.91 2.93738 3.55691 0
M  V30 2371 H 235.153 2.81543 3.30024 0
M  V30 2372 H 235.824 2.52593 4.90816 0
M  V30 2373 H 238.3 0.78294 4.08668 0
M  V30 2374 H 237.176 0.593242 5.45685 0
M  V30 2375 H 237.437 -0.751049 4.35674 0
M  V30 2376 N 236.496 -1.42363 0.676048 0
M  V30 2377 C 237.907 -1.84649 0.275948 0
M  V30 2378 C 238.258 -1.56588 -1.18214 0
M  V30 2379 O 237.383 -1.02634 -1.90513 0
M  V30 2380 C 237.978 -3.35178 0.494053 0
M  V30 2381 C 236.537 -3.76109 0.148061 0
M  V30 2382 C 235.684 -2.65931 0.785891 0
M  V30 2383 H 238.635 -1.32192 0.878121 0
M  V30 2384 H 238.656 -3.79655 -0.25343 0
M  V30 2385 H 238.168 -3.55571 1.55535 0
M  V30 2386 H 236.269 -3.61323 -0.909742 0
M  V30 2387 H 236.382 -4.7546 0.589454 0
M  V30 2388 H 234.746 -2.53773 0.217113 0
M  V30 2389 H 235.529 -2.89146 1.85067 0
M  V30 2390 N 237.974 -0.419461 -1.51915 0
M  V30 2391 C 239.22 0.145505 -2.02879 0
M  V30 2392 C 239.575 1.41926 -1.29903 0
M  V30 2393 O 238.868 1.87383 -0.399782 0
M  V30 2394 C 239.062 0.437067 -3.54717 0
M  V30 2395 C 238.891 -0.806877 -4.42402 0
M  V30 2396 C 237.661 -1.33514 -4.87342 0
M  V30 2397 C 239.859 -1.68796 -4.85811 0
M  V30 2398 N 237.841 -2.53349 -5.59185 0
M  V30 2399 C 239.212 -2.73247 -5.56539 0
M  V30 2400 C 241.267 -1.70449 -4.67816 0
M  V30 2401 C 239.97 -3.79276 -6.11181 0
M  V30 2402 C 241.996 -2.75403 -5.23361 0
M  V30 2403 C 241.358 -3.78575 -5.9402 0
M  V30 2404 H 237.457 0.0145424 -0.781865 0
M  V30 2405 H 240.041 -0.576126 -1.85981 0
M  V30 2406 H 238.212 1.12774 -3.71667 0
M  V30 2407 H 239.944 0.99182 -3.92358 0
M  V30 2408 H 236.699 -0.891657 -4.65131 0
M  V30 2409 H 237.123 -3.14066 -5.99743 0
M  V30 2410 H 241.765 -0.920209 -4.12664 0
M  V30 2411 H 239.483 -4.58554 -6.65397 0
M  V30 2412 H 243.069 -2.77603 -5.113 0
M  V30 2413 H 241.949 -4.58453 -6.36231 0
M  V30 2414 N 239.452 1.56882 -0.150215 0
M  V30 2415 C 240.402 2.13501 0.800071 0
M  V30 2416 C 241.386 1.06368 1.20726 0
M  V30 2417 O 242.578 1.32538 1.17314 0
M  V30 2418 C 239.707 2.76271 2.03787 0
M  V30 2419 C 238.793 3.90533 1.65364 0
M  V30 2420 N 239.184 4.96259 0.977794 0
M  V30 2421 C 237.482 4.013 1.94613 0
M  V30 2422 C 238.183 5.76286 0.791794 0
M  V30 2423 N 237.159 5.27163 1.32666 0
M  V30 2424 H 240.961 2.92615 0.274517 0
M  V30 2425 H 238.475 1.62319 0.0512144 0
M  V30 2426 H 240.472 3.15197 2.72867 0
M  V30 2427 H 239.132 1.98631 2.56857 0
M  V30 2428 H 240.143 5.13953 0.638193 0
M  V30 2429 H 236.82 3.3474 2.4951 0
M  V30 2430 H 238.21 6.71401 0.258894 0
M  V30 2431 N 240.93 -0.123565 1.57115 0
M  V30 2432 C 242.176 -0.833386 1.84885 0
M  V30 2433 C 242.509 -1.79742 0.735292 0
M  V30 2434 O 241.784 -1.92764 -0.25925 0
M  V30 2435 C 242.067 -1.5873 3.23228 0
M  V30 2436 C 241.92 -0.643183 4.45178 0
M  V30 2437 C 243.239 -2.54453 3.59085 0
M  V30 2438 H 240.358 -0.301518 0.6725 0
M  V30 2439 H 243 -0.097778 1.89748 0
M  V30 2440 H 241.15 -2.21438 3.19214 0
M  V30 2441 H 242.822 -0.0253015 4.61293 0
M  V30 2442 H 241.065 0.0456139 4.33776 0
M  V30 2443 H 241.736 -1.20724 5.38637 0
M  V30 2444 H 244.212 -2.01853 3.63861 0
M  V30 2445 H 243.088 -3.04238 4.5687 0
M  V30 2446 H 243.349 -3.36906 2.86264 0
M  V30 2447 N 242.408 -1.52605 -0.393616 0
M  V30 2448 C 243.654 -1.67672 -1.14079 0
M  V30 2449 C 243.987 -0.413121 -1.89755 0
M  V30 2450 O 243.262 0.588952 -1.85369 0
M  V30 2451 C 243.545 -2.9088 -2.12276 0
M  V30 2452 C 243.398 -4.27329 -1.40394 0
M  V30 2453 C 244.717 -3.09628 -3.12759 0
M  V30 2454 H 241.836 -0.610168 -0.413356 0
M  V30 2455 H 244.478 -1.85193 -0.424696 0
M  V30 2456 H 242.628 -2.76073 -2.73342 0
M  V30 2457 H 244.3 -4.53894 -0.82327 0
M  V30 2458 H 242.543 -4.2802 -0.705801 0
M  V30 2459 H 243.214 -5.09615 -2.12123 0
M  V30 2460 H 245.69 -3.23436 -2.61779 0
M  V30 2461 H 244.566 -3.97322 -3.78717 0
M  V30 2462 H 244.827 -2.23637 -3.81365 0
M  V30 2463 N 243.887 0.651787 -1.4349 0
M  V30 2464 C 245.112 1.44434 -1.48841 0
M  V30 2465 C 245.537 1.8779 -0.107955 0
M  V30 2466 O 244.895 1.57464 0.898602 0
M  V30 2467 C 244.943 2.65458 -2.44059 0
M  V30 2468 O 244.047 3.64566 -1.92784 0
M  V30 2469 H 243.388 0.433005 -0.503391 0
M  V30 2470 H 245.918 0.797451 -1.88419 0
M  V30 2471 H 245.928 3.13255 -2.6141 0
M  V30 2472 H 244.603 2.33244 -3.4434 0
M  V30 2473 H 243.18 3.23716 -1.851 0
M  V30 2474 N 245.365 1.30045 0.890287 0
M  V30 2475 C 246.613 1.18327 1.63839 0
M  V30 2476 C 246.934 -0.263455 1.93212 0
M  V30 2477 O 246.204 -1.17856 1.56482 0
M  V30 2478 H 244.784 0.434933 0.607324 0
M  V30 2479 H 247.446 1.631 1.06698 0
M  V30 2480 H 246.542 1.74024 2.59079 0
M  V30 2481 N 246.843 -1.10192 1.12674 0
M  V30 2482 C 247.776 -2.15847 0.740625 0
M  V30 2483 C 248.754 -1.60352 -0.269421 0
M  V30 2484 O 249.938 -1.87796 -0.16278 0
M  V30 2485 C 247.065 -3.38562 0.096641 0
M  V30 2486 C 246.111 -4.12758 1.07391 0
M  V30 2487 S 246.944 -4.67997 2.60267 0
M  V30 2488 C 248.1 -5.94021 1.97206 0
M  V30 2489 H 248.333 -2.48266 1.63558 0
M  V30 2490 H 245.866 -1.22019 0.946087 0
M  V30 2491 H 247.824 -4.09621 -0.268535 0
M  V30 2492 H 246.485 -3.04377 -0.775462 0
M  V30 2493 H 245.678 -5.00755 0.570997 0
M  V30 2494 H 245.28 -3.47523 1.38216 0
M  V30 2495 H 247.572 -6.64589 1.31634 0
M  V30 2496 H 248.515 -6.48979 2.83253 0
M  V30 2497 H 248.923 -5.46169 1.42686 0
M  V30 2498 N 248.321 -0.919034 -1.28029 0
M  V30 2499 C 249.546 -0.570357 -1.99403 0
M  V30 2500 C 249.971 0.842486 -1.68178 0
M  V30 2501 O 249.329 1.56391 -0.917141 0
M  V30 2502 C 249.377 -0.792541 -3.51783 0
M  V30 2503 O 248.481 0.145988 -4.12142 0
M  V30 2504 H 247.822 -0.220555 -0.6263 0
M  V30 2505 H 250.352 -1.23592 -1.63053 0
M  V30 2506 H 250.362 -0.704708 -4.01868 0
M  V30 2507 H 249.037 -1.82247 -3.73844 0
M  V30 2508 H 247.614 0.00897528 -3.72899 0
M  V30 2509 N 249.799 1.42003 -0.683588 0
M  V30 2510 C 251.047 2.01015 -0.209101 0
M  V30 2511 C 251.368 1.54365 1.19149 0
M  V30 2512 O 250.638 0.769083 1.80172 0
M  V30 2513 H 249.218 0.743294 -0.074315 0
M  V30 2514 H 251.88 1.73798 -0.882066 0
M  V30 2515 H 250.976 3.11343 -0.2172 0
M  V30 2516 N 251.277 0.427512 1.51691 0
M  V30 2517 C 252.505 -0.141191 2.06418 0
M  V30 2518 C 252.92 -1.37303 1.29589 0
M  V30 2519 O 252.277 -1.79059 0.352732 0
M  V30 2520 C 252.328 -0.473266 3.58389 0
M  V30 2521 O 252.049 0.709673 4.32314 0
M  V30 2522 C 253.55 -1.09371 4.29596 0
M  V30 2523 H 250.77 -0.0122747 0.670888 0
M  V30 2524 H 253.314 0.603764 1.95384 0
M  V30 2525 H 251.469 -1.16812 3.69369 0
M  V30 2526 H 251.883 0.42807 5.2275 0
M  V30 2527 H 253.357 -1.27613 5.37046 0
M  V30 2528 H 253.834 -2.072 3.87253 0
M  V30 2529 H 254.44 -0.43853 4.23033 0
M  V30 2530 N 252.755 -1.56801 0.158532 0
M  V30 2531 C 253.685 -2.20347 -0.772609 0
M  V30 2532 C 254.666 -1.15518 -1.24859 0
M  V30 2533 O 255.851 -1.43902 -1.30406 0
M  V30 2534 C 252.981 -2.83417 -2.00729 0
M  V30 2535 C 251.935 -3.94174 -1.66765 0
M  V30 2536 C 251.261 -4.44233 -2.97592 0
M  V30 2537 C 252.561 -5.14392 -0.905447 0
M  V30 2538 H 254.255 -2.98413 -0.242959 0
M  V30 2539 H 251.801 -1.43537 -0.115419 0
M  V30 2540 H 253.754 -3.26543 -2.6636 0
M  V30 2541 H 252.478 -2.02701 -2.56086 0
M  V30 2542 H 251.137 -3.51684 -1.03508 0
M  V30 2543 H 250.785 -3.60325 -3.50963 0
M  V30 2544 H 250.485 -5.18945 -2.75626 0
M  V30 2545 H 252.009 -4.90037 -3.64274 0
M  V30 2546 H 253.423 -5.5429 -1.46408 0
M  V30 2547 H 251.82 -5.9494 -0.7853 0
M  V30 2548 H 252.89 -4.84795 0.100668 0
M  V30 2549 N 254.233 0.115231 -1.57178 0
M  V30 2550 C 255.166 1.17166 -1.95825 0
M  V30 2551 C 256.144 1.39912 -0.828463 0
M  V30 2552 O 257.328 1.54004 -1.08697 0
M  V30 2553 C 254.455 2.52478 -2.25771 0
M  V30 2554 C 253.501 2.46136 -3.48309 0
M  V30 2555 S 254.334 1.89736 -5.0076 0
M  V30 2556 C 255.49 3.26713 -5.33863 0
M  V30 2557 H 255.723 0.842103 -2.85124 0
M  V30 2558 H 253.256 0.322136 -1.51002 0
M  V30 2559 H 255.214 3.30332 -2.43702 0
M  V30 2560 H 253.875 2.82609 -1.37079 0
M  V30 2561 H 253.068 3.45819 -3.66641 0
M  V30 2562 H 252.67 1.76404 -3.29784 0
M  V30 2563 H 254.962 4.22935 -5.29275 0
M  V30 2564 H 255.905 3.13205 -6.35065 0
M  V30 2565 H 256.313 3.25316 -4.61335 0
M  V30 2566 N 255.711 1.52812 0.385517 0
M  V30 2567 C 256.957 1.68275 1.13188 0
M  V30 2568 C 257.29 0.423179 1.89533 0
M  V30 2569 O 256.565 -0.579113 1.85679 0
M  V30 2570 C 256.848 2.92001 2.1073 0
M  V30 2571 C 256.701 4.28067 1.38125 0
M  V30 2572 C 258.02 3.11283 3.11113 0
M  V30 2573 H 255.139 0.612352 0.410115 0
M  V30 2574 H 257.781 1.85415 0.414869 0
M  V30 2575 H 255.931 2.77519 2.71874 0
M  V30 2576 H 257.603 4.54324 0.799187 0
M  V30 2577 H 255.846 4.28388 0.683092 0
M  V30 2578 H 256.517 5.10733 2.09417 0
M  V30 2579 H 258.993 3.2482 2.6006 0
M  V30 2580 H 257.869 3.99325 3.76605 0
M  V30 2581 H 258.13 2.25656 3.80173 0
M  V30 2582 N 257.189 -0.644168 1.43834 0
M  V30 2583 C 258.119 -1.76814 1.52509 0
M  V30 2584 C 259.1 -1.65823 0.379052 0
M  V30 2585 O 260.285 -1.84781 0.597466 0
M  V30 2586 C 257.415 -3.15288 1.4564 0
M  V30 2587 C 256.369 -3.41053 2.58586 0
M  V30 2588 C 255.695 -4.79421 2.36769 0
M  V30 2589 C 256.995 -3.34902 4.00797 0
M  V30 2590 H 258.689 -1.69812 2.46586 0
M  V30 2591 H 256.235 -0.815542 1.1868 0
M  V30 2592 H 258.188 -3.93681 1.50311 0
M  V30 2593 H 256.912 -3.23043 0.480725 0
M  V30 2594 H 255.571 -2.65035 2.53282 0
M  V30 2595 H 255.219 -4.83863 1.37424 0
M  V30 2596 H 254.919 -4.9762 3.12487 0
M  V30 2597 H 256.443 -5.6006 2.43238 0
M  V30 2598 H 257.857 -4.03218 4.07539 0
M  V30 2599 H 256.254 -3.64637 4.76613 0
M  V30 2600 H 257.324 -2.32928 4.25291 0
M  V30 2601 N 258.668 -1.30515 -0.883378 0
M  V30 2602 C 260.079 -1.17509 -1.45081 0
M  V30 2603 C 260.43 0.223605 -1.94922 0
M  V30 2604 O 259.555 1.12041 -1.85137 0
M  V30 2605 C 260.15 -2.12715 -2.63701 0
M  V30 2606 C 258.709 -2.03682 -3.16529 0
M  V30 2607 C 257.856 -2.02706 -1.89224 0
M  V30 2608 H 260.807 -1.42762 -0.693165 0
M  V30 2609 H 260.828 -1.70891 -3.39965 0
M  V30 2610 H 260.34 -3.14505 -2.27395 0
M  V30 2611 H 258.441 -1.05039 -3.57488 0
M  V30 2612 H 258.554 -2.92146 -3.7972 0
M  V30 2613 H 256.918 -1.4753 -2.07622 0
M  V30 2614 H 257.701 -3.06229 -1.55174 0
M  V30 2615 N 260.146 1.09593 -1.13257 0
M  V30 2616 C 261.562 1.33775 -0.870423 0
M  V30 2617 C 261.762 1.95327 0.494926 0
M  V30 2618 O 260.818 2.19853 1.2418 0
M  V30 2619 C 262.131 2.25106 -1.99369 0
M  V30 2620 C 263.679 2.3862 -2.02558 0
M  V30 2621 C 264.154 3.33285 -3.14142 0
M  V30 2622 N 265.645 3.40857 -3.13641 0
M  V30 2623 C 266.38 4.14101 -3.96621 0
M  V30 2624 N 265.876 4.90157 -4.8961 0
M  V30 2625 N 267.669 4.09808 -3.84726 0
M  V30 2626 H 259.82 0.680136 -2.01216 0
M  V30 2627 H 262.083 0.362133 -0.876107 0
M  V30 2628 H 261.789 1.87103 -2.97801 0
M  V30 2629 H 261.663 3.25481 -1.90635 0
M  V30 2630 H 264.05 2.75887 -1.0474 0
M  V30 2631 H 264.131 1.38028 -2.15364 0
M  V30 2632 H 263.775 2.96741 -4.12198 0
M  V30 2633 H 263.705 4.33776 -2.98574 0
M  V30 2634 H 266.196 2.86624 -2.46282 0
M  V30 2635 H 266.509 5.4347 -5.49418 0
M  V30 2636 H 264.854 4.89251 -4.93617 0
M  V30 2637 H 268.045 3.4949 -3.11408 0
M  V30 2638 H 268.218 4.66629 -4.49623 0
M  V30 2639 N 261.624 0.925811 1.2754 0
M  V30 2640 C 262.901 0.483726 1.89524 0
M  V30 2641 C 263.281 -1.03809 1.83812 0
M  V30 2642 O 262.629 -1.89143 1.28207 0
M  V30 2643 C 262.839 1.02769 3.33526 0
M  V30 2644 C 264.187 1.08703 4.10449 0
M  V30 2645 O 265.211 0.977175 3.42534 0
M  V30 2646 O 264.07 1.25599 5.31871 0
M  V30 2647 H 261.164 0.15529 0.812289 0
M  V30 2648 H 263.71 1.01738 1.35822 0
M  V30 2649 H 262.482 2.07155 3.31967 0
M  V30 2650 H 262.105 0.475567 3.94746 0
M  V30 2651 N 263.102 -1.41638 0.69111 0
M  V30 2652 C 264.35 -2.00902 0.219758 0
M  V30 2653 C 264.671 -1.54994 -1.18329 0
M  V30 2654 O 263.941 -0.778628 -1.79762 0
M  V30 2655 H 262.521 -0.74289 0.0782558 0
M  V30 2656 H 265.183 -1.73327 0.891271 0
M  V30 2657 H 264.279 -3.11224 0.233708 0
M  V30 2658 N 264.58 -0.43555 -1.51462 0
M  V30 2659 C 265.51 0.367376 -2.30592 0
M  V30 2660 C 266.491 1.02263 -1.35928 0
M  V30 2661 O 267.676 1.02661 -1.64847 0
M  V30 2662 C 264.806 1.46983 -3.14664 0
M  V30 2663 C 263.76 0.938161 -4.17591 0
M  V30 2664 C 263.086 2.13622 -4.90173 0
M  V30 2665 C 264.386 -0.0261621 -5.22293 0
M  V30 2666 H 266.08 -0.292969 -2.97963 0
M  V30 2667 H 263.626 -0.14234 -1.43295 0
M  V30 2668 H 265.579 2.03873 -3.688 0
M  V30 2669 H 264.303 2.15843 -2.4511 0
M  V30 2670 H 262.962 0.391481 -3.64504 0
M  V30 2671 H 262.61 2.81098 -4.17124 0
M  V30 2672 H 262.31 1.78688 -5.59772 0
M  V30 2673 H 263.834 2.7107 -5.47132 0
M  V30 2674 H 265.248 0.452384 -5.71512 0
M  V30 2675 H 263.645 -0.287992 -5.99409 0
M  V30 2676 H 264.715 -0.963391 -4.75233 0
M  V30 2677 N 266.058 1.56714 -0.166846 0
M  V30 2678 C 267.005 2.17746 0.765193 0
M  V30 2679 C 267.975 1.11614 1.23011 0
M  V30 2680 O 269.16 1.39745 1.29908 0
M  V30 2681 C 266.3 2.81882 1.9909 0
M  V30 2682 C 265.413 4.02462 1.56997 0
M  V30 2683 C 264.548 4.54537 2.749 0
M  V30 2684 C 263.587 5.67538 2.29275 0
M  V30 2685 N 262.724 6.14142 3.40255 0
M  V30 2686 H 267.564 2.97048 0.237952 0
M  V30 2687 H 265.101 1.4672 0.105725 0
M  V30 2688 H 267.059 3.17221 2.70974 0
M  V30 2689 H 265.689 2.05191 2.49192 0
M  V30 2690 H 264.741 3.72973 0.748037 0
M  V30 2691 H 266.053 4.84273 1.19503 0
M  V30 2692 H 265.207 4.92035 3.54946 0
M  V30 2693 H 263.946 3.71774 3.1565 0
M  V30 2694 H 262.951 5.29597 1.47674 0
M  V30 2695 H 264.176 6.52099 1.89588 0
M  V30 2696 H 262.122 5.3431 3.8059 0
M  V30 2697 H 262.039 6.9093 3.06841 0
M  V30 2698 H 263.307 6.56289 4.206 0
M  V30 2699 N 267.536 -0.106894 1.57237 0
M  V30 2700 C 268.813 -0.843526 1.76477 0
M  V30 2701 C 269.193 -1.97499 0.745464 0
M  V30 2702 O 268.541 -2.27357 -0.228306 0
M  V30 2703 C 268.751 -1.34903 3.21873 0
M  V30 2704 C 270.099 -1.79654 3.8472 0
M  V30 2705 O 271.123 -1.44554 3.2555 0
M  V30 2706 O 269.982 -2.44515 4.88748 0
M  V30 2707 H 267.076 -0.401468 0.723016 0
M  V30 2708 H 269.622 -0.0896927 1.69463 0
M  V30 2709 H 268.394 -0.53781 3.87586 0
M  V30 2710 H 268.017 -2.16522 3.33473 0
M  V30 2711 N 269.014 -1.53014 -0.377408 0
M  V30 2712 C 270.425 -1.60438 -0.954798 0
M  V30 2713 C 270.776 -0.464418 -1.90624 0
M  V30 2714 O 269.901 0.41087 -2.12464 0
M  V30 2715 C 270.496 -2.90797 -1.73847 0
M  V30 2716 C 269.055 -3.00595 -2.26538 0
M  V30 2717 C 268.202 -2.55645 -1.07429 0
M  V30 2718 H 271.153 -1.57926 -0.156575 0
M  V30 2719 H 271.174 -2.77935 -2.5987 0
M  V30 2720 H 270.686 -3.73746 -1.04574 0
M  V30 2721 H 268.787 -2.22208 -2.99089 0
M  V30 2722 H 268.9 -4.05456 -2.5523 0
M  V30 2723 H 267.264 -2.10239 -1.43777 0
M  V30 2724 H 268.047 -3.41 -0.396728 0
M  V30 2725 N 270.492 0.636531 -1.44174 0
M  V30 2726 C 271.424 1.7618 -1.46606 0
M  V30 2727 C 272.437 1.58768 -0.360091 0
M  V30 2728 O 273.626 1.67181 -0.625518 0
M  V30 2729 C 270.726 3.13833 -1.27915 0
M  V30 2730 C 269.899 3.57753 -2.51658 0
M  V30 2731 C 268.958 4.74265 -2.27945 0
M  V30 2732 O 267.984 4.82852 -3.01401 0
M  V30 2733 N 269.186 5.65604 -1.30662 0
M  V30 2734 H 271.951 1.74567 -2.43612 0
M  V30 2735 H 269.512 0.820924 -1.39544 0
M  V30 2736 H 271.504 3.8949 -1.09907 0
M  V30 2737 H 270.074 3.10121 -0.39293 0
M  V30 2738 H 269.294 2.72362 -2.84978 0
M  V30 2739 H 270.582 3.83847 -3.33974 0
M  V30 2740 H 269.98 5.61354 -0.699844 0
M  V30 2741 H 268.537 6.40913 -1.18634 0
M  V30 2742 N 271.97 1.30982 0.876444 0
M  V30 2743 C 273.218 1.20058 1.62575 0
M  V30 2744 C 273.539 -0.242947 1.93481 0
M  V30 2745 O 272.809 -1.1619 1.57724 0
M  V30 2746 H 271.389 0.44135 0.602677 0
M  V30 2747 H 274.051 1.64222 1.04962 0
M  V30 2748 H 273.147 1.76762 2.57219 0
M  V30 2749 N 273.449 -1.08991 1.13837 0
M  V30 2750 C 274.396 -2.15748 0.819835 0
M  V30 2751 C 275.366 -1.64636 -0.220026 0
M  V30 2752 O 276.551 -1.90582 -0.0912757 0
M  V30 2753 C 273.691 -3.4382 0.296913 0
M  V30 2754 C 272.804 -4.0881 1.39636 0
M  V30 2755 C 271.939 -5.24655 0.831314 0
M  V30 2756 C 270.978 -5.81575 1.90886 0
M  V30 2757 N 270.115 -6.88774 1.36142 0
M  V30 2758 H 274.955 -2.42338 1.73426 0
M  V30 2759 H 272.492 -1.18935 0.865613 0
M  V30 2760 H 274.45 -4.17193 -0.0244339 0
M  V30 2761 H 273.08 -3.17535 -0.580628 0
M  V30 2762 H 272.132 -3.33258 1.83422 0
M  V30 2763 H 273.444 -4.47141 2.21058 0
M  V30 2764 H 272.598 -6.04942 0.461515 0
M  V30 2765 H 271.337 -4.87698 -0.013932 0
M  V30 2766 H 270.342 -4.99946 2.28767 0
M  V30 2767 H 271.567 -6.20592 2.75758 0
M  V30 2768 H 269.513 -6.53788 0.538254 0
M  V30 2769 H 269.43 -7.25898 2.11208 0
M  V30 2770 H 270.698 -7.72806 1.01933 0
M  V30 2771 N 274.927 -0.932562 -1.27047 0
M  V30 2772 C 276.338 -0.619451 -1.76124 0
M  V30 2773 C 276.689 0.865397 -1.76083 0
M  V30 2774 O 275.814 1.67722 -1.36742 0
M  V30 2775 C 276.409 -1.11771 -3.19832 0
M  V30 2776 C 274.968 -0.855174 -3.66557 0
M  V30 2777 C 274.115 -1.27362 -2.46321 0
M  V30 2778 H 277.066 -1.11181 -1.13245 0
M  V30 2779 H 277.087 -0.46759 -3.77616 0
M  V30 2780 H 276.599 -2.19842 -3.1983 0
M  V30 2781 H 274.7 0.211524 -3.71999 0
M  V30 2782 H 274.813 -1.47613 -4.55793 0
M  V30 2783 H 273.177 -0.692119 -2.45116 0
M  V30 2784 H 273.96 -2.36307 -2.49025 0
M  V30 2785 N 276.405 1.4127 -0.698611 0
M  V30 2786 C 277.335 2.33447 -0.049629 0
M  V30 2787 C 278.316 1.51982 0.763898 0
M  V30 2788 O 279.501 1.80509 0.716257 0
M  V30 2789 C 276.631 3.35828 0.885267 0
M  V30 2790 C 275.585 4.27627 0.178613 0
M  V30 2791 C 274.911 5.20406 1.22807 0
M  V30 2792 C 276.211 5.13459 -0.956933 0
M  V30 2793 H 277.905 2.87966 -0.81951 0
M  V30 2794 H 275.451 1.38461 -0.395538 0
M  V30 2795 H 277.404 3.9924 1.34854 0
M  V30 2796 H 276.128 2.79666 1.68685 0
M  V30 2797 H 274.787 3.65643 -0.26466 0
M  V30 2798 H 274.435 4.60558 2.02226 0
M  V30 2799 H 274.135 5.82661 0.760239 0
M  V30 2800 H 275.659 5.86695 1.69179 0
M  V30 2801 H 277.073 5.70421 -0.573805 0
M  V30 2802 H 275.47 5.8467 -1.35205 0
M  V30 2803 H 276.54 4.50443 -1.79524 0
M  V30 2804 N 277.883 0.443576 1.51229 0
M  V30 2805 C 278.833 -0.382787 2.24764 0
M  V30 2806 C 279.817 -0.984836 1.27239 0
M  V30 2807 O 281.009 -0.901943 1.52296 0
M  V30 2808 C 278.138 -1.47989 3.09765 0
M  V30 2809 C 277.224 -0.886931 4.14722 0
M  V30 2810 N 277.615 -0.0237103 5.05794 0
M  V30 2811 C 275.913 -1.15385 4.30816 0
M  V30 2812 C 276.614 0.309971 5.80874 0
M  V30 2813 N 275.59 -0.307989 5.42727 0
M  V30 2814 H 279.392 0.282624 2.92538 0
M  V30 2815 H 276.906 0.256027 1.60369 0
M  V30 2816 H 278.903 -2.08482 3.61027 0
M  V30 2817 H 277.563 -2.14758 2.43535 0
M  V30 2818 H 278.574 0.34318 5.16762 0
M  V30 2819 H 275.251 -1.81857 3.75812 0
M  V30 2820 H 276.641 1.01279 6.64223 0
M  V30 2821 N 279.361 -1.56624 0.175154 0
M  V30 2822 C 280.591 -2.01082 -0.474283 0
M  V30 2823 C 280.999 -1.05447 -1.57091 0
M  V30 2824 O 280.342 -0.0480595 -1.83637 0
M  V30 2825 C 280.404 -3.41963 -1.10911 0
M  V30 2826 C 280.068 -4.56742 -0.153666 0
M  V30 2827 C 281.065 -5.16076 0.629448 0
M  V30 2828 C 278.75 -5.02277 -0.0483776 0
M  V30 2829 C 280.744 -6.19377 1.50501 0
M  V30 2830 C 278.431 -6.05427 0.830768 0
M  V30 2831 C 279.429 -6.63849 1.60605 0
M  V30 2832 O 279.117 -7.64998 2.47049 0
M  V30 2833 H 278.849 -0.664261 -0.125432 0
M  V30 2834 H 281.403 -2.03549 0.275163 0
M  V30 2835 H 279.633 -3.36422 -1.90676 0
M  V30 2836 H 281.322 -3.70352 -1.66114 0
M  V30 2837 H 282.088 -4.81776 0.558297 0
M  V30 2838 H 277.967 -4.56513 -0.641611 0
M  V30 2839 H 281.511 -6.64906 2.1106 0
M  V30 2840 H 277.408 -6.39151 0.903107 0
M  V30 2841 H 278.176 -7.82336 2.40607 0
M  V30 2842 N 280.839 0.0985539 -1.57292 0
M  V30 2843 C 282.116 0.834155 -1.76921 0
M  V30 2844 C 282.496 1.97101 -0.755928 0
M  V30 2845 O 281.844 2.27474 0.216245 0
M  V30 2846 C 282.054 1.33194 -3.22584 0
M  V30 2847 C 283.402 1.77611 -3.85668 0
M  V30 2848 O 284.426 1.42825 -3.26312 0
M  V30 2849 O 283.285 2.4192 -4.90038 0
M  V30 2850 H 280.379 0.397628 -0.725135 0
M  V30 2851 H 282.925 0.0807044 -1.69508 0
M  V30 2852 H 281.697 0.517248 -3.87866 0
M  V30 2853 H 281.32 2.1475 -3.34616 0
M  V30 2854 N 282.317 1.53212 0.369288 0
M  V30 2855 C 283.733 1.42902 0.710712 0
M  V30 2856 C 283.933 0.565135 1.93413 0
M  V30 2857 O 282.989 0.0461484 2.52458 0
M  V30 2858 C 284.302 2.86042 0.927382 0
M  V30 2859 C 285.85 2.9565 1.02762 0
M  V30 2860 C 286.325 4.39843 1.27679 0
M  V30 2861 N 287.816 4.43256 1.34457 0
M  V30 2862 C 288.551 5.51929 1.55439 0
M  V30 2863 N 288.047 6.70655 1.73762 0
M  V30 2864 N 289.84 5.39502 1.57779 0
M  V30 2865 H 281.991 2.07888 -0.435457 0
M  V30 2866 H 284.254 0.938661 -0.132739 0
M  V30 2867 H 283.96 3.51557 0.100287 0
M  V30 2868 H 283.834 3.29472 1.83653 0
M  V30 2869 H 286.221 2.30291 1.84527 0
M  V30 2870 H 286.302 2.5562 0.0959504 0
M  V30 2871 H 285.946 5.05774 0.464175 0
M  V30 2872 H 285.876 4.77443 2.22162 0
M  V30 2873 H 288.367 3.5769 1.21926 0
M  V30 2874 H 288.68 7.49248 1.89335 0
M  V30 2875 H 287.025 6.73648 1.70948 0
M  V30 2876 H 290.216 4.45713 1.43029 0
M  V30 2877 H 290.389 6.2426 1.7379 0
M  V30 2878 N 283.795 -0.628877 1.44509 0
M  V30 2879 C 284.758 -1.72263 1.51188 0
M  V30 2880 C 285.758 -1.55907 0.39367 0
M  V30 2881 O 286.948 -1.61361 0.656377 0
M  V30 2882 C 284.08 -3.11365 1.38798 0
M  V30 2883 H 285.273 -1.67714 2.4862 0
M  V30 2884 H 282.826 -0.842737 1.31634 0
M  V30 2885 H 283.561 -3.21507 0.424693 0
M  V30 2886 H 283.346 -3.24644 2.19884 0
M  V30 2887 H 284.836 -3.91075 1.46458 0
M  V30 2888 N 285.273 -1.31445 -0.869486 0
M  V30 2889 C 286.503 -1.23942 -1.65294 0
M  V30 2890 C 286.911 0.197561 -1.88166 0
M  V30 2891 O 286.254 1.14019 -1.44033 0
M  V30 2892 C 286.316 -1.91385 -3.04322 0
M  V30 2893 C 285.98 -3.40726 -3.04557 0
M  V30 2894 C 286.977 -4.36464 -2.82481 0
M  V30 2895 C 284.662 -3.82425 -3.25663 0
M  V30 2896 C 286.656 -5.71876 -2.8149 0
M  V30 2897 C 284.343 -5.1795 -3.243 0
M  V30 2898 C 285.341 -6.12486 -3.02241 0
M  V30 2899 O 285.029 -7.45534 -3.00724 0
M  V30 2900 H 284.761 -0.429459 -0.522054 0
M  V30 2901 H 287.315 -1.73873 -1.0935 0
M  V30 2902 H 285.545 -1.36004 -3.61994 0
M  V30 2903 H 287.234 -1.77791 -3.64891 0
M  V30 2904 H 288 -4.05576 -2.65956 0
M  V30 2905 H 283.879 -3.09274 -3.41863 0
M  V30 2906 H 287.423 -6.45638 -2.64191 0
M  V30 2907 H 283.32 -5.48473 -3.40365 0
M  V30 2908 H 284.088 -7.54713 -3.16782 0
M  V30 2909 N 286.751 1.08385 -1.14413 0
M  V30 2910 C 287.979 1.84517 -0.936001 0
M  V30 2911 C 288.394 1.81626 0.515503 0
M  V30 2912 O 287.751 1.22008 1.35721 0
M  V30 2913 C 287.802 3.32049 -1.42918 0
M  V30 2914 O 287.523 3.34951 -2.82381 0
M  V30 2915 C 289.024 4.24986 -1.26103 0
M  V30 2916 H 286.244 0.582491 -0.333084 0
M  V30 2917 H 288.788 1.36885 -1.5193 0
M  V30 2918 H 286.943 3.7707 -0.888641 0
M  V30 2919 H 287.357 4.27048 -3.04517 0
M  V30 2920 H 288.831 5.26615 -1.6547 0
M  V30 2921 H 289.308 4.38726 -0.20392 0
M  V30 2922 H 289.914 3.85791 -1.79012 0
M  V30 2923 N 288.23 0.939286 1.26551 0
M  V30 2924 C 289.479 0.581601 1.93133 0
M  V30 2925 C 289.792 -0.883224 1.74524 0
M  V30 2926 O 290.998 -1.3502 2.35546 0
M  V30 2927 C 289.454 0.989425 3.46032 0
M  V30 2928 C 289.062 2.47573 3.73379 0
M  V30 2929 C 290.806 0.703544 4.18629 0
M  V30 2930 C 288.713 2.82235 5.19709 0
M  V30 2931 H 287.643 0.213803 0.723052 0
M  V30 2932 H 290.294 1.14167 1.4366 0
M  V30 2933 H 288.676 0.357902 3.94379 0
M  V30 2934 H 289.85 3.15614 3.35744 0
M  V30 2935 H 288.165 2.73471 3.1401 0
M  V30 2936 H 290.762 0.938869 5.26393 0
M  V30 2937 H 291.105 -0.359639 4.14744 0
M  V30 2938 H 291.638 1.2947 3.76141 0
M  V30 2939 H 288.377 3.87509 5.28694 0
M  V30 2940 H 287.897 2.18854 5.58447 0
M  V30 2941 H 289.576 2.70599 5.87695 0
M  V30 2942 N 289.708 -1.40897 0.706093 0
M  V30 2943 C 290.956 -2.00657 0.241054 0
M  V30 2944 C 291.277 -1.56241 -1.16678 0
M  V30 2945 O 290.547 -0.79765 -1.78926 0
M  V30 2946 H 289.127 -0.742018 0.0861308 0
M  V30 2947 H 291.789 -1.72372 0.909604 0
M  V30 2948 H 290.885 -3.10958 0.266705 0
M  V30 2949 N 291.186 -0.45159 -1.50991 0
M  V30 2950 C 292.096 0.358431 -2.31846 0
M  V30 2951 C 293.112 1.01438 -1.41373 0
M  V30 2952 O 294.288 1.00663 -1.74439 0
M  V30 2953 C 291.353 1.43704 -3.15515 0
M  V30 2954 C 290.414 0.799742 -4.21785 0
M  V30 2955 C 289.647 1.82696 -5.01456 0
M  V30 2956 O 289.87 3.05105 -4.81941 0
M  V30 2957 O 288.804 1.40958 -5.85162 0
M  V30 2958 H 292.63 -0.302032 -3.02194 0
M  V30 2959 H 290.215 -0.213825 -1.47862 0
M  V30 2960 H 292.097 2.06227 -3.67489 0
M  V30 2961 H 290.772 2.08133 -2.47916 0
M  V30 2962 H 289.679 0.136084 -3.73852 0
M  V30 2963 H 291.012 0.198718 -4.91799 0
M  V30 2964 N 292.664 1.56529 -0.183458 0
M  V30 2965 C 293.911 1.97244 0.458357 0
M  V30 2966 C 294.239 1.06992 1.62428 0
M  V30 2967 O 293.494 0.106542 1.9541 0
M  V30 2968 C 293.793 3.43939 0.971637 0
M  V30 2969 C 293.459 4.5083 -0.0796784 0
M  V30 2970 C 292.121 4.79786 -0.368584 0
M  V30 2971 C 294.473 5.15138 -0.792638 0
M  V30 2972 C 291.801 5.70345 -1.37563 0
M  V30 2973 C 294.153 6.06784 -1.78875 0
M  V30 2974 C 292.817 6.34102 -2.08497 0
M  V30 2975 H 292.087 0.721768 0.167725 0
M  V30 2976 H 294.734 1.89472 -0.277976 0
M  V30 2977 H 293.039 3.48724 1.78602 0
M  V30 2978 H 294.736 3.72791 1.47744 0
M  V30 2979 H 291.326 4.28317 0.155668 0
M  V30 2980 H 295.51 4.92868 -0.582659 0
M  V30 2981 H 290.766 5.89789 -1.61118 0
M  V30 2982 H 294.94 6.55677 -2.3465 0
M  V30 2983 H 292.567 7.04074 -2.86678 0
M  V30 2984 N 294.142 -0.090211 1.57342 0
M  V30 2985 C 295.419 -0.824761 1.77361 0
M  V30 2986 C 295.799 -1.96698 0.76637 0
M  V30 2987 O 295.147 -2.27586 -0.204179 0
M  V30 2988 C 295.357 -1.31481 3.23286 0
M  V30 2989 C 296.705 -1.75563 3.86604 0
M  V30 2990 O 297.729 -1.41093 3.27065 0
M  V30 2991 O 296.588 -2.39317 4.91314 0
M  V30 2992 H 293.682 -0.393776 0.727234 0
M  V30 2993 H 296.228 -0.0717138 1.69548 0
M  V30 2994 H 295 -0.496671 3.88135 0
M  V30 2995 H 294.623 -2.12973 3.35751 0
M  V30 2996 N 295.62 -1.53406 -0.361157 0
M  V30 2997 C 296.55 -1.83136 -1.44857 0
M  V30 2998 C 297.531 -0.685174 -1.5569 0
M  V30 2999 O 298.716 -0.93544 -1.70186 0
M  V30 3000 C 295.846 -2.02522 -2.82138 0
M  V30 3001 C 294.8 -3.18302 -2.86126 0
M  V30 3002 C 294.126 -3.22989 -4.26125 0
M  V30 3003 C 295.426 -4.56796 -2.53248 0
M  V30 3004 H 297.12 -2.74201 -1.20226 0
M  V30 3005 H 294.666 -1.31938 -0.576922 0
M  V30 3006 H 296.619 -2.21904 -3.58241 0
M  V30 3007 H 295.343 -1.08172 -3.08166 0
M  V30 3008 H 294.002 -2.98747 -2.12475 0
M  V30 3009 H 293.65 -2.26267 -4.49235 0
M  V30 3010 H 293.35 -4.00781 -4.29708 0
M  V30 3011 H 294.874 -3.44559 -5.04094 0
M  V30 3012 H 296.288 -4.7631 -3.19064 0
M  V30 3013 H 294.685 -5.36862 -2.68141 0
M  V30 3014 H 295.755 -4.61606 -1.48484 0
M  V30 3015 N 297.098 0.621204 -1.44841 0
M  V30 3016 C 298.328 1.40548 -1.51426 0
M  V30 3017 C 298.736 1.88673 -0.141083 0
M  V30 3018 O 298.079 1.62053 0.865128 0
M  V30 3019 C 298.141 2.65325 -2.42576 0
M  V30 3020 C 297.805 2.3893 -3.89566 0
M  V30 3021 C 298.802 2.00138 -4.79834 0
M  V30 3022 C 296.487 2.52263 -4.3436 0
M  V30 3023 C 298.481 1.75021 -6.129 0
M  V30 3024 C 296.168 2.2676 -5.67471 0
M  V30 3025 C 297.166 1.88199 -6.56559 0
M  V30 3026 O 296.854 1.62986 -7.87204 0
M  V30 3027 H 296.586 0.437122 -0.515655 0
M  V30 3028 H 299.14 0.765987 -1.90583 0
M  V30 3029 H 297.37 3.31947 -1.98364 0
M  V30 3030 H 299.059 3.27347 -2.39998 0
M  V30 3031 H 299.825 1.89386 -4.46495 0
M  V30 3032 H 295.704 2.81246 -3.65269 0
M  V30 3033 H 299.248 1.44848 -6.82396 0
M  V30 3034 H 295.145 2.37125 -6.00368 0
M  V30 3035 H 295.913 1.7715 -7.991 0
M  V30 3036 N 298.576 1.31904 0.862503 0
M  V30 3037 C 299.825 1.21373 1.61094 0
M  V30 3038 C 300.138 -0.22504 1.94301 0
M  V30 3039 O 301.344 -0.452121 2.67709 0
M  V30 3040 C 299.8 2.12525 2.9045 0
M  V30 3041 C 299.408 3.61441 2.64697 0
M  V30 3042 C 301.152 2.10813 3.68454 0
M  V30 3043 C 299.059 4.44578 3.90006 0
M  V30 3044 H 297.989 0.450705 0.604468 0
M  V30 3045 H 300.64 1.56811 0.953027 0
M  V30 3046 H 299.022 1.69994 3.57656 0
M  V30 3047 H 300.196 4.12264 2.05851 0
M  V30 3048 H 298.511 3.65205 2.00036 0
M  V30 3049 H 301.108 2.70167 4.61426 0
M  V30 3050 H 301.451 1.09713 4.01583 0
M  V30 3051 H 301.984 2.51583 3.08141 0
M  V30 3052 H 298.723 5.46461 3.62023 0
M  V30 3053 H 298.243 3.98508 4.48276 0
M  V30 3054 H 299.922 4.57176 4.5782 0
M  V30 3055 N 300.054 -1.07777 1.14986 0
M  V30 3056 C 301.465 -1.61766 0.932127 0
M  V30 3057 C 301.816 -1.88974 -0.527581 0
M  V30 3058 O 300.941 -1.65198 -1.39781 0
M  V30 3059 C 301.536 -2.93891 1.68563 0
M  V30 3060 C 300.095 -3.44639 1.5133 0
M  V30 3061 C 299.242 -2.18767 1.704 0
M  V30 3062 H 302.193 -0.909201 1.30074 0
M  V30 3063 H 302.214 -3.62623 1.15259 0
M  V30 3064 H 301.726 -2.74057 2.74799 0
M  V30 3065 H 299.827 -3.69564 0.474702 0
M  V30 3066 H 299.94 -4.20966 2.28746 0
M  V30 3067 H 298.304 -2.28253 1.13016 0
M  V30 3068 H 299.087 -2.01433 2.77992 0
M  V30 3069 N 301.532 -0.945985 -1.26051 0
M  V30 3070 C 302.479 -0.45809 -2.26208 0
M  V30 3071 C 303.449 0.484816 -1.58867 0
M  V30 3072 O 304.634 0.399969 -1.86561 0
M  V30 3073 C 301.774 0.266131 -3.44072 0
M  V30 3074 C 300.887 -0.713005 -4.26075 0
M  V30 3075 C 300.022 0.0329013 -5.3119 0
M  V30 3076 C 299.061 -0.93774 -6.04874 0
M  V30 3077 N 298.198 -0.223274 -7.01745 0
M  V30 3078 H 303.038 -1.3171 -2.67313 0
M  V30 3079 H 300.575 -0.66069 -1.31428 0
M  V30 3080 H 302.533 0.702514 -4.11243 0
M  V30 3081 H 301.163 1.08925 -3.03867 0
M  V30 3082 H 300.215 -1.26789 -3.58648 0
M  V30 3083 H 301.527 -1.45406 -4.77136 0
M  V30 3084 H 300.681 0.528335 -6.04395 0
M  V30 3085 H 299.42 0.806801 -4.8098 0
M  V30 3086 H 298.425 -1.44425 -5.30492 0
M  V30 3087 H 299.65 -1.71172 -6.57173 0
M  V30 3088 H 297.596 0.532046 -6.53839 0
M  V30 3089 H 297.513 -0.90357 -7.50581 0
M  V30 3090 H 298.781 0.250907 -7.79096 0
M  V30 3091 N 303.011 1.40521 -0.713556 0
M  V30 3092 C 304.259 2.00527 -0.251692 0
M  V30 3093 C 304.58 1.56857 1.15848 0
M  V30 3094 O 303.85 0.807127 1.785 0
M  V30 3095 H 302.43 0.741551 -0.0900646 0
M  V30 3096 H 305.092 1.71887 -0.918733 0
M  V30 3097 H 304.188 3.10813 -0.283192 0
M  V30 3098 N 304.489 0.459591 1.5075 0
M  V30 3099 C 305.9 0.00171547 1.867 0
M  V30 3100 C 306.251 -1.39934 1.37525 0
M  V30 3101 O 305.376 -2.03523 0.735349 0
M  V30 3102 C 305.971 -0.00366298 3.388 0
M  V30 3103 C 304.53 -0.406026 3.74204 0
M  V30 3104 C 303.677 0.38673 2.7459 0
M  V30 3105 H 306.628 0.674413 1.43657 0
M  V30 3106 H 306.649 -0.808371 3.71814 0
M  V30 3107 H 306.161 1.01617 3.74561 0
M  V30 3108 H 304.262 -1.43063 3.4404 0
M  V30 3109 H 304.375 -0.115362 4.78961 0
M  V30 3110 H 302.739 -0.158019 2.54209 0
M  V30 3111 H 303.522 1.40585 3.13194 0
M  V30 3112 N 305.967 -1.56429 0.191757 0
M  V30 3113 C 307.244 -1.89224 -0.495332 0
M  V30 3114 C 307.624 -1.10478 -1.79883 0
M  V30 3115 O 306.972 -0.204852 -2.2758 0
M  V30 3116 C 307.182 -3.41548 -0.717367 0
M  V30 3117 C 308.53 -4.11711 -1.03823 0
M  V30 3118 O 309.554 -3.4698 -0.805204 0
M  V30 3119 O 308.413 -5.2611 -1.47887 0
M  V30 3120 H 305.507 -0.785788 -0.25781 0
M  V30 3121 H 308.053 -1.68111 0.231721 0
M  V30 3122 H 306.825 -3.90772 0.203287 0
M  V30 3123 H 306.448 -3.68342 -1.497 0
M  V30 3124 N 307.445 0.0818655 -1.57387 0
M  V30 3125 C 308.693 0.781368 -1.86384 0
M  V30 3126 C 309.014 1.78618 -0.782342 0
M  V30 3127 O 308.284 1.94976 0.190061 0
M  V30 3128 H 306.864 0.291562 -0.687751 0
M  V30 3129 H 309.526 0.060348 -1.94807 0
M  V30 3130 H 308.622 1.3038 -2.83562 0
M  V30 3131 N 308.923 1.53595 0.353017 0
M  V30 3132 C 309.87 1.80919 1.43308 0
M  V30 3133 C 310.84 0.654288 1.5267 0
M  V30 3134 O 312.025 0.897759 1.6836 0
M  V30 3135 C 309.165 2.01605 2.80089 0
M  V30 3136 C 308.278 3.29321 2.79593 0
M  V30 3137 C 307.413 3.40125 4.0803 0
M  V30 3138 C 306.452 4.61826 4.01725 0
M  V30 3139 N 305.589 4.69716 5.21834 0
M  V30 3140 H 310.429 2.73074 1.19308 0
M  V30 3141 H 307.966 1.35263 0.578131 0
M  V30 3142 H 309.924 2.11586 3.59565 0
M  V30 3143 H 308.554 1.12772 3.0246 0
M  V30 3144 H 307.606 3.28229 1.92276 0
M  V30 3145 H 308.918 4.18884 2.70809 0
M  V30 3146 H 308.072 3.49488 4.95927 0
M  V30 3147 H 306.811 2.48601 4.19582 0
M  V30 3148 H 305.816 4.52552 3.12213 0
M  V30 3149 H 307.041 5.54705 3.91764 0
M  V30 3150 H 304.987 3.81097 5.33948 0
M  V30 3151 H 304.904 5.53202 5.1527 0
M  V30 3152 H 306.172 4.83376 6.11529 0
M  V30 3153 N 310.401 -0.613514 1.45168 0
M  V30 3154 C 311.631 -1.39743 1.52169 0
M  V30 3155 C 312.039 -1.88596 0.151086 0
M  V30 3156 O 311.382 -1.6251 -0.856521 0
M  V30 3157 C 311.444 -2.64035 2.43979 0
M  V30 3158 C 311.108 -2.36861 3.90827 0
M  V30 3159 C 312.105 -1.97591 4.80889 0
M  V30 3160 C 309.79 -2.49956 4.35692 0
M  V30 3161 C 311.784 -1.71768 6.1382 0
M  V30 3162 C 309.471 -2.23747 5.68665 0
M  V30 3163 C 310.469 -1.84714 6.57548 0
M  V30 3164 O 310.157 -1.58809 7.88058 0
M  V30 3165 H 309.889 -0.434382 0.517966 0
M  V30 3166 H 312.443 -0.75587 1.90986 0
M  V30 3167 H 310.673 -3.3089 2.00122 0
M  V30 3168 H 312.362 -3.26069 2.41731 0
M  V30 3169 H 313.128 -1.87015 4.47493 0
M  V30 3170 H 309.007 -2.79305 3.66756 0
M  V30 3171 H 312.551 -1.41227 6.83155 0
M  V30 3172 H 308.448 -2.33938 6.01617 0
M  V30 3173 H 309.216 -1.7291 8.00028 0
M  V30 3174 N 311.879 -1.3236 -0.855495 0
M  V30 3175 C 312.826 -1.21225 -1.964 0
M  V30 3176 C 313.796 -0.0946204 -1.6583 0
M  V30 3177 O 314.981 -0.27002 -1.8888 0
M  V30 3178 C 312.121 -0.940419 -3.32039 0
M  V30 3179 C 311.234 -2.14276 -3.75113 0
M  V30 3180 C 310.369 -1.80648 -4.9954 0
M  V30 3181 C 309.408 -2.97208 -5.35102 0
M  V30 3182 N 308.545 -2.63678 -6.50706 0
M  V30 3183 H 313.385 -2.16042 -2.05255 0
M  V30 3184 H 310.922 -1.07451 -1.00463 0
M  V30 3185 H 312.88 -0.763311 -4.10158 0
M  V30 3186 H 311.51 -0.0290413 -3.22787 0
M  V30 3187 H 310.562 -2.43017 -2.92655 0
M  V30 3188 H 311.874 -3.01468 -3.97389 0
M  V30 3189 H 311.028 -1.59484 -5.85363 0
M  V30 3190 H 309.767 -0.906678 -4.79198 0
M  V30 3191 H 308.772 -3.19004 -4.47791 0
M  V30 3192 H 309.997 -3.87918 -5.57401 0
M  V30 3193 H 307.943 -1.76238 -6.31883 0
M  V30 3194 H 307.86 -3.444 -6.72997 0
M  V30 3195 H 309.128 -2.45942 -7.39684 0
M  V30 3196 N 313.357 1.07166 -1.15556 0
M  V30 3197 C 314.634 1.76546 -0.842069 0
M  V30 3198 C 315.014 2.00453 0.661939 0
M  V30 3199 O 314.362 1.62452 1.60691 0
M  V30 3200 C 314.572 3.07266 -1.65495 0
M  V30 3201 C 315.92 3.81578 -1.86234 0
M  V30 3202 O 316.944 3.17083 -1.62287 0
M  V30 3203 O 315.803 4.97419 -2.26355 0
M  V30 3204 H 312.897 0.766756 -0.309862 0
M  V30 3205 H 315.443 1.13514 -1.26145 0
M  V30 3206 H 314.215 2.85494 -2.67598 0
M  V30 3207 H 313.838 3.7803 -1.23203 0
M  V30 3208 N 314.835 0.952656 1.25548 0
M  V30 3209 C 316.065 0.622592 1.96996 0
M  V30 3210 C 316.473 -0.809112 1.71026 0
M  V30 3211 O 315.816 -1.55258 0.981861 0
M  V30 3212 C 315.878 0.798946 3.5051 0
M  V30 3213 C 315.542 2.20744 4.00151 0
M  V30 3214 C 316.539 3.18394 4.11001 0
M  V30 3215 C 314.224 2.5311 4.33867 0
M  V30 3216 C 316.218 4.46504 4.54877 0
M  V30 3217 C 313.905 3.8145 4.7743 0
M  V30 3218 C 314.903 4.77959 4.87897 0
M  V30 3219 O 314.591 6.04012 5.30494 0
M  V30 3220 H 314.323 0.232503 0.634758 0
M  V30 3221 H 316.877 1.2789 1.60728 0
M  V30 3222 H 315.107 0.0854903 3.86605 0
M  V30 3223 H 316.796 0.47023 4.03167 0
M  V30 3224 H 317.562 2.94715 3.85186 0
M  V30 3225 H 313.441 1.78719 4.24948 0
M  V30 3226 H 316.985 5.21835 4.62962 0
M  V30 3227 H 312.882 4.04936 5.0269 0
M  V30 3228 H 313.65 6.0736 5.48685 0
M  V30 3229 N 316.313 -1.40141 0.720998 0
M  V30 3230 C 317.276 -2.29058 0.0805834 0
M  V30 3231 C 318.276 -1.45632 -0.681758 0
M  V30 3232 O 319.466 -1.6648 -0.512856 0
M  V30 3233 C 316.598 -3.28925 -0.895593 0
M  V30 3234 H 317.791 -2.87191 0.863793 0
M  V30 3235 H 315.344 -1.48553 0.485975 0
M  V30 3236 H 316.079 -2.75822 -1.70566 0
M  V30 3237 H 315.864 -3.90519 -0.351766 0
M  V30 3238 H 317.354 -3.95494 -1.34069 0
M  V30 3239 N 317.792 -0.46758 -1.50504 0
M  V30 3240 C 319.02 0.0864133 -2.06719 0
M  V30 3241 C 319.435 1.33819 -1.33184 0
M  V30 3242 O 318.792 1.78061 -0.400083 0
M  V30 3243 C 318.843 0.378079 -3.59517 0
M  V30 3244 O 318.564 -0.824044 -4.3028 0
M  V30 3245 C 320.065 0.979426 -4.32345 0
M  V30 3246 H 317.285 -0.00551697 -0.670977 0
M  V30 3247 H 319.829 -0.655354 -1.93715 0
M  V30 3248 H 317.984 1.06977 -3.72337 0
M  V30 3249 H 318.398 -0.566518 -5.21432 0
M  V30 3250 H 319.872 1.1333 -5.40241 0
M  V30 3251 H 320.349 1.9686 -3.9261 0
M  V30 3252 H 320.955 0.326216 -4.24047 0
M  V30 3253 N 319.27 1.56325 -0.20005 0
M  V30 3254 C 320.2 2.22318 0.713916 0
M  V30 3255 C 321.181 1.18788 1.21752 0
M  V30 3256 O 322.366 1.47309 1.26545 0
M  V30 3257 C 319.496 2.88639 1.93144 0
M  V30 3258 C 318.45 3.98457 1.56255 0
M  V30 3259 C 317.776 4.51967 2.85709 0
M  V30 3260 C 319.076 5.16612 0.768747 0
M  V30 3261 H 320.77 2.98952 0.163755 0
M  V30 3262 H 318.316 1.43792 0.0773219 0
M  V30 3263 H 320.269 3.33491 2.57608 0
M  V30 3264 H 318.993 2.09419 2.50621 0
M  V30 3265 H 317.652 3.54305 0.941471 0
M  V30 3266 H 317.3 3.69503 3.41287 0
M  V30 3267 H 317 5.26071 2.6177 0
M  V30 3268 H 318.524 4.99523 3.51154 0
M  V30 3269 H 319.938 5.57977 1.3166 0
M  V30 3270 H 318.335 5.96812 0.627286 0
M  V30 3271 H 319.405 4.84358 -0.229168 0
M  V30 3272 N 320.748 -0.0735177 1.57428 0
M  V30 3273 C 321.711 -1.07192 2.02589 0
M  V30 3274 C 322.711 -1.31695 0.922661 0
M  V30 3275 O 323.901 -1.27445 1.18758 0
M  V30 3276 C 321.033 -2.41599 2.40506 0
M  V30 3277 H 322.226 -0.682727 2.92025 0
M  V30 3278 H 319.779 -0.319193 1.53006 0
M  V30 3279 H 320.514 -2.85354 1.5409 0
M  V30 3280 H 320.299 -2.25156 3.21009 0
M  V30 3281 H 321.789 -3.13367 2.76027 0
M  V30 3282 N 322.226 -1.5378 -0.344866 0
M  V30 3283 C 323.136 -1.84667 -1.4469 0
M  V30 3284 C 324.152 -0.736704 -1.57635 0
M  V30 3285 O 325.328 -1.02888 -1.73136 0
M  V30 3286 C 322.393 -2.04869 -2.79696 0
M  V30 3287 C 321.454 -3.28731 -2.76106 0
M  V30 3288 C 320.687 -3.4796 -4.04673 0
M  V30 3289 O 320.91 -2.71052 -5.01883 0
M  V30 3290 O 319.844 -4.41383 -4.09224 0
M  V30 3291 H 323.67 -2.78334 -1.21506 0
M  V30 3292 H 321.255 -1.39418 -0.536921 0
M  V30 3293 H 323.137 -2.19609 -3.59652 0
M  V30 3294 H 321.812 -1.14391 -3.02814 0
M  V30 3295 H 320.719 -3.19396 -1.94774 0
M  V30 3296 H 322.052 -4.19198 -2.57941 0
M  V30 3297 N 323.704 0.605807 -1.45491 0
M  V30 3298 C 324.929 1.39625 -1.53361 0
M  V30 3299 C 325.354 1.87351 -0.167645 0
M  V30 3300 O 324.712 1.60243 0.848051 0
M  V30 3301 C 324.76 2.57559 -2.5238 0
M  V30 3302 O 323.864 3.58248 -2.04285 0
M  V30 3303 H 323.205 0.416771 -0.516912 0
M  V30 3304 H 325.735 0.737103 -1.90861 0
M  V30 3305 H 325.745 3.0478 -2.71244 0
M  V30 3306 H 324.42 2.22171 -3.51586 0
M  V30 3307 H 322.997 3.17664 -1.95305 0
M  V30 3308 N 325.182 1.32811 0.848464 0
M  V30 3309 C 326.412 1.26556 1.63301 0
M  V30 3310 C 326.82 -0.1676 1.88456 0
M  V30 3311 O 326.163 -1.11713 1.45828 0
M  V30 3312 C 326.225 1.96202 3.01239 0
M  V30 3313 C 325.889 3.45528 2.99098 0
M  V30 3314 C 326.886 4.40903 2.75501 0
M  V30 3315 C 324.571 3.87558 3.19537 0
M  V30 3316 C 326.565 5.76282 2.72356 0
M  V30 3317 C 324.252 5.23044 3.16019 0
M  V30 3318 C 325.25 6.17217 2.92458 0
M  V30 3319 O 324.938 7.50223 2.88825 0
M  V30 3320 H 324.67 0.43771 0.515156 0
M  V30 3321 H 327.224 1.7559 1.0657 0
M  V30 3322 H 325.454 1.41746 3.59785 0
M  V30 3323 H 327.143 1.83573 3.62016 0
M  V30 3324 H 327.909 4.09756 2.5947 0
M  V30 3325 H 323.788 3.14674 3.369 0
M  V30 3326 H 327.332 6.4976 2.53886 0
M  V30 3327 H 323.229 5.53818 3.31596 0
M  V30 3328 H 323.997 7.59657 3.04735 0
M  V30 3329 N 326.66 -1.06551 1.16123 0
M  V30 3330 C 327.908 -1.78947 0.939267 0
M  V30 3331 C 328.229 -1.87532 -0.534476 0
M  V30 3332 O 327.499 -1.38211 -1.38833 0
M  V30 3333 H 326.079 -0.662807 0.344523 0
M  V30 3334 H 328.741 -1.28725 1.46342 0
M  V30 3335 H 327.837 -2.81117 1.35572 0
M  V30 3336 N 328.138 -0.959301 -1.25041 0
M  V30 3337 C 329.415 -0.533805 -1.88175 0
M  V30 3338 C 329.795 0.988994 -1.865 0
M  V30 3339 O 329.143 1.85677 -1.33177 0
M  V30 3340 C 329.353 -1.11575 -3.30684 0
M  V30 3341 C 330.701 -1.19548 -4.07423 0
M  V30 3342 O 331.725 -1.06765 -3.39823 0
M  V30 3343 O 330.584 -1.39656 -5.28354 0
M  V30 3344 H 327.678 -0.176772 -0.807887 0
M  V30 3345 H 330.224 -1.05303 -1.33076 0
M  V30 3346 H 328.996 -2.15884 -3.26358 0
M  V30 3347 H 328.619 -0.580059 -3.93346 0
M  V30 3348 N 329.616 1.39756 -0.72842 0
M  V30 3349 C 330.844 2.04948 -0.283528 0
M  V30 3350 C 331.259 1.54908 1.0793 0
M  V30 3351 O 330.616 0.711135 1.68075 0
M  V30 3352 C 330.667 3.60498 -0.268957 0
M  V30 3353 O 330.388 4.08695 -1.57798 0
M  V30 3354 C 331.889 4.4288 0.192912 0
M  V30 3355 H 329.109 0.659243 -0.125056 0
M  V30 3356 H 331.653 1.78927 -0.990226 0
M  V30 3357 H 329.808 3.85444 0.388801 0
M  V30 3358 H 330.222 5.02977 -1.48709 0
M  V30 3359 H 331.696 5.51791 0.151952 0
M  V30 3360 H 332.173 4.21418 1.23708 0
M  V30 3361 H 332.779 4.23069 -0.435039 0
M  V30 3362 N 331.094 0.475555 1.50254 0
M  V30 3363 C 332.34 -0.0780073 2.0265 0
M  V30 3364 C 332.673 -1.38968 1.35652 0
M  V30 3365 O 331.948 -1.8839 0.483691 0
M  V30 3366 C 332.231 -0.257161 3.59181 0
M  V30 3367 C 332.084 1.07585 4.36744 0
M  V30 3368 C 333.403 -1.00965 4.28362 0
M  V30 3369 H 330.522 -0.0268758 0.73651 0
M  V30 3370 H 333.164 0.622015 1.7953 0
M  V30 3371 H 331.314 -0.853412 3.79011 0
M  V30 3372 H 332.986 1.70902 4.28474 0
M  V30 3373 H 331.229 1.6714 4.00308 0
M  V30 3374 H 331.9 0.904088 5.44546 0
M  V30 3375 H 334.376 -0.504214 4.13034 0
M  V30 3376 H 333.252 -1.10381 5.37687 0
M  V30 3377 H 333.513 -2.04731 3.91839 0
M  V30 3378 N 332.573 -1.56217 0.208337 0
M  V30 3379 C 333.505 -2.1695 -0.739276 0
M  V30 3380 C 334.518 -1.13492 -1.1672 0
M  V30 3381 O 335.707 -1.40529 -1.10063 0
M  V30 3382 C 332.807 -2.72755 -2.01142 0
M  V30 3383 C 331.98 -4.0125 -1.74118 0
M  V30 3384 C 331.039 -4.41749 -2.85909 0
M  V30 3385 O 330.065 -5.08912 -2.54946 0
M  V30 3386 N 331.267 -4.06342 -4.14568 0
M  V30 3387 H 334.032 -2.98893 -0.219837 0
M  V30 3388 H 331.593 -1.61878 0.0268445 0
M  V30 3389 H 333.585 -2.96826 -2.75094 0
M  V30 3390 H 332.155 -1.95191 -2.4417 0
M  V30 3391 H 331.375 -3.85173 -0.838775 0
M  V30 3392 H 332.663 -4.851 -1.53477 0
M  V30 3393 H 332.061 -3.52345 -4.42571 0
M  V30 3394 H 330.618 -4.35335 -4.85105 0
M  V30 3395 N 334.051 0.0651679 -1.57465 0
M  V30 3396 C 335.297 0.764193 -1.87851 0
M  V30 3397 C 335.63 1.76889 -0.801495 0
M  V30 3398 O 334.905 1.93594 0.187528 0
M  V30 3399 C 335.188 1.46625 -3.28897 0
M  V30 3400 C 335.041 0.477515 -4.47258 0
M  V30 3401 C 336.36 2.4095 -3.68281 0
M  V30 3402 H 333.479 0.276351 -0.683227 0
M  V30 3403 H 336.121 0.0272868 -1.8998 0
M  V30 3404 H 334.271 2.09438 -3.27212 0
M  V30 3405 H 335.943 -0.145922 -4.61069 0
M  V30 3406 H 334.186 -0.206576 -4.33308 0
M  V30 3407 H 334.857 1.0065 -5.42746 0
M  V30 3408 H 337.333 1.88209 -3.71102 0
M  V30 3409 H 336.209 2.87072 -4.67847 0
M  V30 3410 H 336.47 3.26049 -2.98571 0
M  V30 3411 N 335.529 1.53961 0.336706 0
M  V30 3412 C 336.462 1.77255 1.43722 0
M  V30 3413 C 337.44 0.62193 1.50236 0
M  V30 3414 O 338.624 0.857874 1.67847 0
M  V30 3415 C 335.751 1.87733 2.81912 0
M  V30 3416 C 334.797 3.09933 2.92991 0
M  V30 3417 S 335.63 4.68836 2.58753 0
M  V30 3418 C 336.786 4.82202 3.99039 0
M  V30 3419 H 337.019 2.70322 1.23748 0
M  V30 3420 H 334.552 1.44917 0.532777 0
M  V30 3421 H 336.51 1.94455 3.61521 0
M  V30 3422 H 335.171 0.956666 2.99177 0
M  V30 3423 H 334.364 3.1396 3.94265 0
M  V30 3424 H 333.966 3.01472 2.21338 0
M  V30 3425 H 336.258 4.64032 4.9364 0
M  V30 3426 H 337.201 5.84298 4.00002 0
M  V30 3427 H 337.609 4.10604 3.87382 0
M  V30 3428 N 337.007 -0.598083 1.45811 0
M  V30 3429 C 338.423 -0.919847 1.30426 0
M  V30 3430 C 338.623 -1.99759 0.264303 0
M  V30 3431 O 337.679 -2.50221 -0.338472 0
M  V30 3432 C 338.992 -1.35176 2.68603 0
M  V30 3433 C 340.54 -1.46546 2.76574 0
M  V30 3434 C 341.015 -1.9311 4.15298 0
M  V30 3435 N 342.506 -2.00328 4.1764 0
M  V30 3436 C 343.241 -2.37599 5.21856 0
M  V30 3437 N 342.737 -2.73771 6.36413 0
M  V30 3438 N 344.53 -2.38021 5.09218 0
M  V30 3439 H 336.681 0.114111 2.12093 0
M  V30 3440 H 338.944 -0.0116121 0.947929 0
M  V30 3441 H 338.65 -0.633969 3.45939 0
M  V30 3442 H 338.524 -2.3164 2.97696 0
M  V30 3443 H 340.911 -2.17415 1.99537 0
M  V30 3444 H 340.992 -0.483727 2.51185 0
M  V30 3445 H 340.636 -1.22824 4.92825 0
M  V30 3446 H 340.566 -2.92213 4.38086 0
M  V30 3447 H 343.057 -1.74925 3.34977 0
M  V30 3448 H 343.37 -3.0112 7.11721 0
M  V30 3449 H 341.715 -2.71445 6.39799 0
M  V30 3450 H 344.906 -2.09174 4.18765 0
M  V30 3451 H 345.079 -2.66741 5.90554 0
M  V30 3452 N 338.485 -1.33259 -0.841409 0
M  V30 3453 C 339.713 -1.27605 -1.62864 0
M  V30 3454 C 340.128 0.153507 -1.88175 0
M  V30 3455 O 339.485 1.09485 -1.46011 0
M  V30 3456 C 339.536 -2.04596 -2.98031 0
M  V30 3457 O 339.257 -3.41975 -2.73834 0
M  V30 3458 C 340.758 -2.06122 -3.92465 0
M  V30 3459 H 337.978 -0.439718 -0.506842 0
M  V30 3460 H 340.522 -1.75591 -1.04824 0
M  V30 3461 H 338.677 -1.60299 -3.5268 0
M  V30 3462 H 339.091 -3.81549 -3.59889 0
M  V30 3463 H 340.565 -2.64451 -4.84531 0
M  V30 3464 H 341.042 -1.05083 -4.26444 0
M  V30 3465 H 341.648 -2.50427 -3.43753 0
M  V30 3466 N 339.963 1.05934 -1.16686 0
M  V30 3467 C 340.893 2.1546 -0.899949 0
M  V30 3468 C 341.874 1.69391 0.155154 0
M  V30 3469 O 343.059 1.94199 0.00648693 0
M  V30 3470 C 340.189 3.44939 -0.404241 0
M  V30 3471 C 339.143 4.04536 -1.39767 0
M  V30 3472 C 338.469 5.29268 -0.760216 0
M  V30 3473 C 339.769 4.42893 -2.76845 0
M  V30 3474 H 341.463 2.38046 -1.81588 0
M  V30 3475 H 339.009 1.14404 -0.874514 0
M  V30 3476 H 340.962 4.20901 -0.204971 0
M  V30 3477 H 339.686 3.21983 0.547206 0
M  V30 3478 H 338.345 3.30635 -1.58355 0
M  V30 3479 H 337.993 5.02611 0.197831 0
M  V30 3480 H 337.693 5.70101 -1.42332 0
M  V30 3481 H 339.217 6.07924 -0.57105 0
M  V30 3482 H 340.631 5.09921 -2.62019 0
M  V30 3483 H 339.028 4.94721 -3.39663 0
M  V30 3484 H 340.098 3.53584 -3.31823 0
M  V30 3485 N 341.441 0.965919 1.2453 0
M  V30 3486 C 342.669 0.644385 1.96609 0
M  V30 3487 C 343.084 -0.785823 1.71669 0
M  V30 3488 O 342.441 -1.52703 0.999399 0
M  V30 3489 C 342.492 0.907375 3.49927 0
M  V30 3490 O 342.213 2.28136 3.74013 0
M  V30 3491 C 343.714 0.599784 4.39224 0
M  V30 3492 H 340.934 0.240588 0.626385 0
M  V30 3493 H 343.478 1.29337 1.58405 0
M  V30 3494 H 341.633 0.304631 3.862 0
M  V30 3495 H 342.047 2.36002 4.68405 0
M  V30 3496 H 343.521 0.834263 5.45659 0
M  V30 3497 H 343.998 -0.465921 4.36722 0
M  V30 3498 H 344.604 1.18235 4.08535 0
M  V30 3499 N 342.919 -1.39368 0.735821 0
M  V30 3500 C 344.33 -1.83313 0.354015 0
M  V30 3501 C 344.681 -1.61461 -1.11466 0
M  V30 3502 O 343.806 -1.10621 -1.85989 0
M  V30 3503 C 344.401 -3.32781 0.635769 0
M  V30 3504 C 342.96 -3.75142 0.307448 0
M  V30 3505 C 342.107 -2.62358 0.897974 0
M  V30 3506 H 345.058 -1.28349 0.933398 0
M  V30 3507 H 345.079 -3.80388 -0.0921773 0
M  V30 3508 H 344.591 -3.48654 1.70476 0
M  V30 3509 H 342.692 -3.64857 -0.755674 0
M  V30 3510 H 342.805 -4.72532 0.790583 0
M  V30 3511 H 341.169 -2.52624 0.324551 0
M  V30 3512 H 341.952 -2.81036 1.97164 0
M  V30 3513 N 344.397 -0.483516 -1.5 0
M  V30 3514 C 345.622 0.0667119 -2.07293 0
M  V30 3515 C 346.047 1.3164 -1.3436 0
M  V30 3516 O 345.405 1.76945 -0.394987 0
M  V30 3517 C 345.453 0.321126 -3.59167 0
M  V30 3518 O 344.557 1.39927 -3.87936 0
M  V30 3519 H 343.898 -0.0184758 -0.663743 0
M  V30 3520 H 346.428 -0.678125 -1.93035 0
M  V30 3521 H 346.438 0.557906 -4.04168 0
M  V30 3522 H 345.113 -0.592007 -4.11665 0
M  V30 3523 H 343.69 1.14882 -3.54763 0
M  V30 3524 N 345.875 1.56104 -0.216619 0
M  V30 3525 C 346.825 2.16703 0.708798 0
M  V30 3526 C 347.809 1.11392 1.16106 0
M  V30 3527 O 349.001 1.37395 1.11587 0
M  V30 3528 C 346.13 2.84666 1.91886 0
M  V30 3529 C 345.216 3.97195 1.48651 0
M  V30 3530 N 345.607 4.99959 0.766434 0
M  V30 3531 C 343.905 4.09193 1.77418 0
M  V30 3532 C 344.606 5.79126 0.546659 0
M  V30 3533 N 343.582 5.32315 1.10188 0
M  V30 3534 H 347.384 2.93516 0.150162 0
M  V30 3535 H 344.898 1.6239 -0.0176768 0
M  V30 3536 H 346.895 3.26486 2.59253 0
M  V30 3537 H 345.555 2.09347 2.48202 0
M  V30 3538 H 346.566 5.16197 0.419634 0
M  V30 3539 H 343.243 3.45021 2.35088 0
M  V30 3540 H 344.633 6.71895 -0.026103 0
M  V30 3541 N 347.353 -0.0568162 1.57498 0
M  V30 3542 C 348.602 -0.752001 1.87157 0
M  V30 3543 C 348.915 -1.77978 0.811375 0
M  V30 3544 O 350.121 -2.52559 0.996293 0
M  V30 3545 C 348.577 -1.38844 3.3204 0
M  V30 3546 C 348.185 -0.398456 4.46225 0
M  V30 3547 C 349.929 -2.06512 3.70882 0
M  V30 3548 C 347.836 -1.04166 5.82154 0
M  V30 3549 H 346.766 -0.28461 0.698222 0
M  V30 3550 H 349.417 -0.00561272 1.83499 0
M  V30 3551 H 347.799 -2.1836 3.30356 0
M  V30 3552 H 348.973 0.367977 4.59328 0
M  V30 3553 H 347.288 0.174592 4.16034 0
M  V30 3554 H 349.885 -2.55437 4.6974 0
M  V30 3555 H 350.228 -2.87117 3.01445 0
M  V30 3556 H 350.761 -1.33808 3.7462 0
M  V30 3557 H 347.5 -0.275614 6.5492 0
M  V30 3558 H 347.02 -1.7786 5.72823 0
M  V30 3559 H 348.699 -1.55715 6.27982 0
M  V30 3560 N 348.832 -1.54138 -0.328536 0
M  V30 3561 C 350.078 -1.7236 -1.06865 0
M  V30 3562 C 350.411 -0.493231 -1.87832 0
M  V30 3563 O 349.686 0.5098 -1.877 0
M  V30 3564 C 349.969 -2.99621 -1.99747 0
M  V30 3565 C 349.822 -4.32899 -1.22143 0
M  V30 3566 C 351.141 -3.22615 -2.99345 0
M  V30 3567 H 348.26 -0.627151 -0.387105 0
M  V30 3568 H 350.902 -1.86827 -0.345767 0
M  V30 3569 H 349.052 -2.87418 -2.61387 0
M  V30 3570 H 350.724 -4.56978 -0.630017 0
M  V30 3571 H 348.967 -4.30628 -0.523628 0
M  V30 3572 H 349.638 -5.18154 -1.90318 0
M  V30 3573 H 352.114 -3.34248 -2.47826 0
M  V30 3574 H 350.99 -4.13027 -3.61524 0
M  V30 3575 H 351.251 -2.3961 -3.71536 0
M  V30 3576 N 350.31 0.590341 -1.46126 0
M  V30 3577 C 351.557 1.34882 -1.5104 0
M  V30 3578 C 351.885 1.93849 -0.159021 0
M  V30 3579 O 351.14 1.76544 0.844436 0
M  V30 3580 C 351.439 2.5032 -2.55097 0
M  V30 3581 C 351.105 2.09394 -3.99331 0
M  V30 3582 C 349.767 1.97947 -4.38601 0
M  V30 3583 C 352.119 1.77712 -4.89967 0
M  V30 3584 C 349.447 1.53065 -5.66381 0
M  V30 3585 C 351.799 1.34312 -6.18177 0
M  V30 3586 C 350.463 1.21436 -6.56361 0
M  V30 3587 H 349.733 0.493568 -0.552695 0
M  V30 3588 H 352.38 0.665539 -1.79563 0
M  V30 3589 H 350.685 3.24062 -2.20207 0
M  V30 3590 H 352.382 3.08541 -2.56132 0
M  V30 3591 H 348.972 2.19235 -3.68285 0
M  V30 3592 H 353.156 1.85445 -4.60352 0
M  V30 3593 H 348.412 1.41733 -5.94745 0
M  V30 3594 H 352.586 1.08849 -6.87841 0
M  V30 3595 H 350.213 0.864345 -7.5527 0
M  V30 3596 N 351.788 1.33704 0.83433 0
M  V30 3597 C 352.736 1.24323 1.96587 0
M  V30 3598 C 353.73 0.143659 1.6879 0
M  V30 3599 O 354.936 0.30791 1.77347 0
M  V30 3600 H 351.311 0.385925 0.645419 0
M  V30 3601 H 353.282 2.19978 2.01624 0
M  V30 3602 C 352.031 1.00394 3.32891 0
M  V30 3603 H 351.354 1.84231 3.54822 0
M  V30 3604 H 352.794 0.97862 4.12552 0
M  V30 3605 C 351.253 -0.293047 3.35623 0
M  V30 3606 O 351.783 -1.29823 3.80143 0
M  V30 3607 N 349.989 -0.322174 2.88809 0
M  V30 3608 H 349.536 0.496379 2.52772 0
M  V30 3609 H 349.494 -1.18977 2.91019 0
M  V30 3610 N 353.266 -1.05314 1.17247 0
M  V30 3611 C 354.514 -1.77941 0.958194 0
M  V30 3612 C 354.835 -1.88089 -0.514556 0
M  V30 3613 O 354.105 -1.39676 -1.37359 0
M  V30 3614 H 352.685 -0.659116 0.351533 0
M  V30 3615 H 355.347 -1.27166 1.47699 0
M  V30 3616 H 354.443 -2.79663 1.38546 0
M  V30 3617 N 354.744 -0.972509 -1.24016 0
M  V30 3618 C 355.691 -0.505969 -2.25186 0
M  V30 3619 C 356.661 0.451009 -1.5986 0
M  V30 3620 O 357.846 0.360307 -1.87367 0
M  V30 3621 C 354.986 0.193089 -3.44559 0
M  V30 3622 C 354.099 -0.803222 -4.24467 0
M  V30 3623 C 353.234 -0.0797793 -5.3114 0
M  V30 3624 C 352.273 -1.06583 -6.02749 0
M  V30 3625 N 351.41 -0.372074 -7.01113 0
M  V30 3626 H 356.25 -1.37351 -2.64459 0
M  V30 3627 H 353.787 -0.688419 -1.29997 0
M  V30 3628 H 355.745 0.615125 -4.1264 0
M  V30 3629 H 354.375 1.02455 -3.06109 0
M  V30 3630 H 353.427 -1.34368 -3.55878 0
M  V30 3631 H 354.739 -1.55494 -4.73944 0
M  V30 3632 H 353.893 0.400015 -6.0538 0
M  V30 3633 H 352.632 0.704597 -4.82583 0
M  V30 3634 H 351.637 -1.55645 -5.27309 0
M  V30 3635 H 352.862 -1.85074 -6.53395 0
M  V30 3636 H 350.808 0.393238 -6.5482 0
M  V30 3637 H 350.725 -1.06258 -7.48495 0
M  V30 3638 H 351.993 0.0855932 -7.79453 0
M  V30 3639 N 356.222 1.38976 -0.743202 0
M  V30 3640 C 357.468 2.0064 -0.295189 0
M  V30 3641 C 357.801 1.5885 1.11716 0
M  V30 3642 O 357.076 0.821181 1.76315 0
M  V30 3643 C 357.359 3.578 -0.406318 0
M  V30 3644 C 357.212 4.09586 -1.85903 0
M  V30 3645 C 358.531 4.39616 0.206439 0
M  V30 3646 H 355.65 0.728935 -0.108733 0
M  V30 3647 H 358.292 1.65067 -0.940897 0
M  V30 3648 H 356.442 3.88235 0.143419 0
M  V30 3649 H 358.114 3.89837 -2.46627 0
M  V30 3650 H 356.357 3.6284 -2.3776 0
M  V30 3651 H 357.028 5.18708 -1.888 0
M  V30 3652 H 359.504 4.15273 -0.262283 0
M  V30 3653 H 358.38 5.48812 0.0983819 0
M  V30 3654 H 358.641 4.22754 1.2935 0
M  V30 3655 N 357.7 0.491464 1.49741 0
M  V30 3656 C 358.948 -0.0563141 2.02022 0
M  V30 3657 C 359.269 -1.38363 1.37407 0
M  V30 3658 O 358.539 -1.88702 0.526166 0
M  V30 3659 H 357.119 -0.0238014 0.746621 0
M  V30 3660 H 359.781 0.646533 1.83864 0
M  V30 3661 H 358.877 -0.192967 3.11503 0
M  V30 3662 N 359.178 -1.55987 0.224894 0
M  V30 3663 C 360.141 -2.19178 -0.670348 0
M  V30 3664 C 361.141 -1.15461 -1.11917 0
M  V30 3665 O 362.331 -1.40675 -1.02743 0
M  V30 3666 C 359.463 -2.81777 -1.9187 0
M  V30 3667 H 360.656 -2.99662 -0.119364 0
M  V30 3668 H 358.209 -1.5628 -0.0247128 0
M  V30 3669 H 358.944 -2.05172 -2.51147 0
M  V30 3670 H 358.729 -3.57732 -1.60531 0
M  V30 3671 H 360.219 -3.30205 -2.55645 0
M  V30 3672 N 360.656 0.0484629 -1.57525 0
M  V30 3673 C 361.586 1.0549 -2.08313 0
M  V30 3674 C 362.567 1.38929 -0.981463 0
M  V30 3675 O 363.752 1.48151 -1.25558 0
M  V30 3676 C 360.882 2.36162 -2.54646 0
M  V30 3677 C 359.836 2.17016 -3.68901 0
M  V30 3678 C 359.162 3.53278 -4.01371 0
M  V30 3679 C 360.462 1.57219 -4.98076 0
M  V30 3680 H 362.156 0.632195 -2.92649 0
M  V30 3681 H 359.702 0.302654 -1.40784 0
M  V30 3682 H 361.655 3.06882 -2.88793 0
M  V30 3683 H 360.379 2.80456 -1.67368 0
M  V30 3684 H 359.038 1.48733 -3.35073 0
M  V30 3685 H 358.686 3.95185 -3.11188 0
M  V30 3686 H 358.386 3.41299 -4.78318 0
M  V30 3687 H 359.91 4.25391 -4.38035 0
M  V30 3688 H 361.324 2.17832 -5.30304 0
M  V30 3689 H 359.721 1.55871 -5.79503 0
M  V30 3690 H 360.791 0.535956 -4.81929 0
M  V30 3691 N 362.134 1.5431 0.320358 0
M  V30 3692 C 363.362 1.76636 1.07738 0
M  V30 3693 C 363.777 0.51649 1.81598 0
M  V30 3694 O 363.134 -0.512942 1.75143 0
M  V30 3695 C 363.185 2.96158 2.07299 0
M  V30 3696 O 362.906 4.16313 1.36438 0
M  V30 3697 C 364.407 3.3072 2.95193 0
M  V30 3698 H 361.627 0.589597 0.320339 0
M  V30 3699 H 364.171 2.01207 0.36551 0
M  V30 3700 H 362.326 2.73851 2.74016 0
M  V30 3701 H 362.74 4.83565 2.03138 0
M  V30 3702 H 364.214 4.17643 3.60941 0
M  V30 3703 H 364.691 2.48026 3.62463 0
M  V30 3704 H 365.297 3.55117 2.34034 0
M  V30 3705 N 363.613 -0.582584 1.46437 0
M  V30 3706 C 364.861 -1.33814 1.51453 0
M  V30 3707 C 365.182 -1.94277 0.167792 0
M  V30 3708 O 364.452 -1.78566 -0.805677 0
M  V30 3709 H 363.032 -0.496838 0.557818 0
M  V30 3710 H 365.694 -0.682281 1.82568 0
M  V30 3711 H 364.79 -2.14479 2.26728 0
M  V30 3712 N 365.091 -1.34144 -0.827227 0
M  V30 3713 C 366.054 -1.25264 -1.91942 0
M  V30 3714 C 367.054 -0.168866 -1.59911 0
M  V30 3715 O 368.244 -0.421198 -1.69031 0
M  V30 3716 C 365.376 -0.932952 -3.27885 0
M  V30 3717 H 366.569 -2.22357 -2.0124 0
M  V30 3718 H 364.122 -1.1837 -1.0207 0
M  V30 3719 H 364.857 0.0349917 -3.24281 0
M  V30 3720 H 364.642 -1.71682 -3.52516 0
M  V30 3721 H 366.132 -0.895874 -4.07877 0
M  V30 3722 N 366.569 1.04691 -1.17803 0
M  V30 3723 C 367.517 2.14665 -0.895635 0
M  V30 3724 C 368.511 1.68806 0.141679 0
M  V30 3725 O 369.717 1.79999 -0.00587914 0
M  V30 3726 H 366.092 0.701038 -0.272121 0
M  V30 3727 H 368.063 2.35685 -1.83017 0
M  V30 3728 C 366.812 3.45019 -0.430962 0
M  V30 3729 H 366.135 3.8071 -1.22064 0
M  V30 3730 H 367.575 4.23125 -0.272301 0
M  V30 3731 C 366.034 3.25943 0.852207 0
M  V30 3732 O 366.564 3.5296 1.91786 0
M  V30 3733 N 364.77 2.79304 0.802346 0
M  V30 3734 H 364.317 2.57518 -0.0650788 0
M  V30 3735 H 364.275 2.66921 1.66134 0
M  V30 3736 N 368.047 0.979072 1.23499 0
M  V30 3737 C 369.01 0.523244 2.23147 0
M  V30 3738 C 370.01 -0.386406 1.56088 0
M  V30 3739 O 371.2 -0.180283 1.73265 0
M  V30 3740 C 368.332 -0.240739 3.40049 0
M  V30 3741 H 369.525 1.40432 2.64989 0
M  V30 3742 H 367.078 0.764824 1.36309 0
M  V30 3743 H 367.813 -1.13841 3.03662 0
M  V30 3744 H 367.598 0.412207 3.89927 0
M  V30 3745 H 369.088 -0.548297 4.13985 0
M  V30 3746 N 369.525 -1.3858 0.750561 0
M  V30 3747 C 370.455 -2.33102 0.136237 0
M  V30 3748 C 371.436 -1.54713 -0.706965 0
M  V30 3749 O 372.621 -1.83043 -0.648769 0
M  V30 3750 C 369.751 -3.38882 -0.760017 0
M  V30 3751 C 368.705 -4.27995 -0.0197785 0
M  V30 3752 C 368.031 -5.24605 -1.03408 0
M  V30 3753 C 369.331 -5.09554 1.14684 0
M  V30 3754 H 371.025 -2.84726 0.925822 0
M  V30 3755 H 368.571 -1.36898 0.446654 0
M  V30 3756 H 370.524 -4.0397 -1.19943 0
M  V30 3757 H 369.248 -2.85734 -1.58189 0
M  V30 3758 H 367.907 -3.64409 0.400184 0
M  V30 3759 H 367.555 -4.67746 -1.84994 0
M  V30 3760 H 367.255 -5.85081 -0.543464 0
M  V30 3761 H 368.779 -5.9257 -1.47288 0
M  V30 3762 H 370.193 -5.67899 0.785118 0
M  V30 3763 H 368.59 -5.7925 1.56812 0
M  V30 3764 H 369.66 -4.4347 1.96118 0
M  V30 3765 N 371.003 -0.499398 -1.49478 0
M  V30 3766 C 372.231 0.0425456 -2.06856 0
M  V30 3767 C 372.646 1.30964 -1.35992 0
M  V30 3768 O 372.003 1.77172 -0.437762 0
M  V30 3769 C 372.054 0.301735 -3.60239 0
M  V30 3770 O 371.775 -0.915127 -4.28436 0
M  V30 3771 C 373.276 0.887499 -4.34325 0
M  V30 3772 H 370.496 -0.0197482 -0.670709 0
M  V30 3773 H 373.04 -0.696297 -1.92281 0
M  V30 3774 H 371.195 0.990556 -3.74522 0
M  V30 3775 H 371.609 -0.676993 -5.20113 0
M  V30 3776 H 373.083 1.01845 -5.42523 0
M  V30 3777 H 373.56 1.88488 -3.96698 0
M  V30 3778 H 374.166 0.236196 -4.24644 0
M  V30 3779 N 372.481 1.55866 -0.233164 0
M  V30 3780 C 373.444 2.1953 0.658715 0
M  V30 3781 C 374.444 1.16053 1.11303 0
M  V30 3782 O 375.634 1.41218 1.01996 0
M  V30 3783 C 372.766 2.82791 1.90373 0
M  V30 3784 H 373.959 2.99721 0.10347 0
M  V30 3785 H 371.512 1.56291 0.0164245 0
M  V30 3786 H 372.247 2.06501 2.50056 0
M  V30 3787 H 372.032 3.58578 1.58632 0
M  V30 3788 H 373.522 3.31556 2.53891 0
M  V30 3789 N 373.959 -0.0401083 1.57549 0
M  V30 3790 C 374.906 -1.04413 2.05831 0
M  V30 3791 C 375.876 -1.36585 0.945184 0
M  V30 3792 O 377.061 -1.47112 1.21502 0
M  V30 3793 C 374.201 -2.34336 2.53339 0
M  V30 3794 C 373.314 -2.08419 3.78398 0
M  V30 3795 C 372.449 -3.32133 4.14561 0
M  V30 3796 C 371.488 -3.01721 5.3257 0
M  V30 3797 N 370.625 -4.17855 5.64218 0
M  V30 3798 H 375.465 -0.625442 2.91363 0
M  V30 3799 H 373.002 -0.297218 1.44066 0
M  V30 3800 H 374.96 -3.10234 2.78946 0
M  V30 3801 H 373.59 -2.73948 1.7074 0
M  V30 3802 H 372.642 -1.23069 3.59942 0
M  V30 3803 H 373.954 -1.81978 4.64419 0
M  V30 3804 H 373.108 -4.16406 4.41238 0
M  V30 3805 H 371.847 -3.61678 3.2717 0
M  V30 3806 H 370.852 -2.15849 5.05657 0
M  V30 3807 H 372.077 -2.73466 6.21605 0
M  V30 3808 H 370.023 -4.47372 4.79786 0
M  V30 3809 H 369.94 -3.94798 6.44725 0
M  V30 3810 H 371.208 -5.03033 5.95465 0
M  V30 3811 N 375.437 -1.54477 -0.31217 0
M  V30 3812 C 376.683 -1.73483 -1.0503 0
M  V30 3813 C 377.016 -0.513125 -1.87298 0
M  V30 3814 O 376.291 0.489864 -1.8823 0
M  V30 3815 C 376.574 -3.01723 -1.96558 0
M  V30 3816 C 376.427 -4.3417 -1.17545 0
M  V30 3817 C 377.746 -3.25772 -2.95907 0
M  V30 3818 H 374.865 -0.631222 -0.380432 0
M  V30 3819 H 377.507 -1.87184 -0.325932 0
M  V30 3820 H 375.657 -2.90174 -2.58324 0
M  V30 3821 H 377.329 -4.5762 -0.581513 0
M  V30 3822 H 375.572 -4.31159 -0.477925 0
M  V30 3823 H 376.243 -5.20143 -1.84811 0
M  V30 3824 H 378.719 -3.36857 -2.44267 0
M  V30 3825 H 377.595 -4.16838 -3.57123 0
M  V30 3826 H 377.856 -2.43537 -3.68974 0
M  V30 3827 N 376.915 0.57481 -1.46744 0
M  V30 3828 C 378.163 1.33009 -1.52161 0
M  V30 3829 C 378.484 1.94185 -0.178092 0
M  V30 3830 O 377.754 1.7899 0.796196 0
M  V30 3831 H 376.334 0.493873 -0.560445 0
M  V30 3832 H 378.996 0.672589 -1.82927 0
M  V30 3833 H 378.092 2.13273 -2.27862 0
M  V30 3834 N 378.394 1.34581 0.820102 0
M  V30 3835 C 379.304 1.28471 1.96297 0
M  V30 3836 C 380.32 0.191902 1.72939 0
M  V30 3837 O 381.496 0.418879 1.96996 0
M  V30 3838 C 378.561 1.04281 3.30645 0
M  V30 3839 C 377.622 2.22745 3.66992 0
M  V30 3840 C 376.855 1.997 4.9493 0
M  V30 3841 O 377.078 0.956656 5.6232 0
M  V30 3842 O 376.012 2.86723 5.2922 0
M  V30 3843 H 379.838 2.24624 2.04396 0
M  V30 3844 H 377.423 1.14816 0.955913 0
M  V30 3845 H 379.305 0.925841 4.11104 0
M  V30 3846 H 377.98 0.111697 3.23507 0
M  V30 3847 H 376.887 2.40003 2.86966 0
M  V30 3848 H 378.22 3.14257 3.78819 0
M  V30 3849 N 379.872 -1.04064 1.18357 0
M  V30 3850 C 381.1 -1.80916 1.00384 0
M  V30 3851 C 381.515 -1.83414 -0.447738 0
M  V30 3852 O 380.872 -1.26962 -1.31099 0
M  V30 3853 C 380.923 -3.26516 1.55144 0
M  V30 3854 O 380.644 -3.2424 2.94618 0
M  V30 3855 C 382.145 -4.20013 1.41789 0
M  V30 3856 H 379.365 -0.569728 0.354474 0
M  V30 3857 H 381.909 -1.31151 1.56906 0
M  V30 3858 H 380.064 -3.73512 1.02798 0
M  V30 3859 H 380.478 -4.15452 3.20156 0
M  V30 3860 H 381.952 -5.20111 1.84901 0
M  V30 3861 H 382.429 -4.37667 0.36661 0
M  V30 3862 H 383.035 -3.78881 1.93207 0
M  V30 3863 N 381.35 -0.985608 -1.22978 0
M  V30 3864 C 382.596 -0.65836 -1.91816 0
M  V30 3865 C 382.929 0.806692 -1.76653 0
M  V30 3866 O 382.204 1.58252 -1.13078 0
M  V30 3867 C 382.487 -1.056 -3.44268 0
M  V30 3868 C 382.34 -2.57906 -3.68516 0
M  V30 3869 C 383.659 -0.603781 -4.35939 0
M  V30 3870 H 380.778 -0.24065 -0.696604 0
M  V30 3871 H 383.42 -1.22783 -1.44998 0
M  V30 3872 H 381.57 -0.571445 -3.84274 0
M  V30 3873 H 383.242 -3.13976 -3.3796 0
M  V30 3874 H 381.485 -3.00305 -3.13048 0
M  V30 3875 H 382.156 -2.80779 -4.75255 0
M  V30 3876 H 384.632 -1.01987 -4.03408 0
M  V30 3877 H 383.508 -0.910383 -5.41298 0
M  V30 3878 H 383.769 0.495761 -4.39312 0
M  V30 3879 N 382.828 1.3818 -0.7579 0
M  V30 3880 C 383.758 2.33027 -0.148597 0
M  V30 3881 C 384.739 1.55085 0.69875 0
M  V30 3882 O 385.924 1.83384 0.639053 0
M  V30 3883 C 383.054 3.3928 0.742034 0
M  V30 3884 C 382.008 4.28 -0.00291946 0
M  V30 3885 C 381.334 5.25146 1.00625 0
M  V30 3886 C 382.634 5.08938 -1.17385 0
M  V30 3887 H 384.328 2.84231 -0.940909 0
M  V30 3888 H 381.874 1.36659 -0.453908 0
M  V30 3889 H 383.827 4.046 1.17799 0
M  V30 3890 H 382.551 2.86569 1.56671 0
M  V30 3891 H 381.21 3.64192 -0.419504 0
M  V30 3892 H 380.858 4.68721 1.8251 0
M  V30 3893 H 380.558 5.85361 0.512428 0
M  V30 3894 H 382.082 5.93342 1.44143 0
M  V30 3895 H 383.496 5.67474 -0.815224 0
M  V30 3896 H 381.893 5.7841 -1.59882 0
M  V30 3897 H 382.963 4.42424 -1.98468 0
M  V30 3898 N 384.306 0.507319 1.49211 0
M  V30 3899 C 385.236 -0.256939 2.32082 0
M  V30 3900 C 386.217 -0.956609 1.40652 0
M  V30 3901 O 387.402 -0.946788 1.69557 0
M  V30 3902 C 384.532 -1.31802 3.21318 0
M  V30 3903 C 383.486 -0.737855 4.21592 0
M  V30 3904 C 382.812 -1.89992 4.99807 0
M  V30 3905 C 384.112 0.275325 5.21574 0
M  V30 3906 H 385.806 0.434798 2.96226 0
M  V30 3907 H 383.352 0.210546 1.42452 0
M  V30 3908 H 385.305 -1.86045 3.78107 0
M  V30 3909 H 384.029 -2.03903 2.5513 0
M  V30 3910 H 382.688 -0.217126 3.65956 0
M  V30 3911 H 382.336 -2.60877 4.30061 0
M  V30 3912 H 382.036 -1.51777 5.6766 0
M  V30 3913 H 383.56 -2.44657 5.59442 0
M  V30 3914 H 384.974 -0.179193 5.7302 0
M  V30 3915 H 383.371 0.573649 5.97352 0
M  V30 3916 H 384.441 1.18903 4.70096 0
M  V30 3917 N 385.784 -1.5574 0.241426 0
M  V30 3918 C 387.033 -1.97986 -0.385295 0
M  V30 3919 C 387.346 -1.13267 -1.59468 0
M  V30 3920 O 388.552 -1.45501 -2.2922 0
M  V30 3921 C 387.008 -3.52275 -0.736884 0
M  V30 3922 C 386.616 -4.45726 0.450796 0
M  V30 3923 C 388.36 -4.03189 -1.3281 0
M  V30 3924 C 386.267 -5.91352 0.0756662 0
M  V30 3925 H 385.197 -0.739386 -0.147731 0
M  V30 3926 H 387.848 -1.80308 0.340779 0
M  V30 3927 H 386.23 -3.65628 -1.52094 0
M  V30 3928 H 387.404 -4.44131 1.22819 0
M  V30 3929 H 385.719 -4.05264 0.956573 0
M  V30 3930 H 388.316 -5.09505 -1.62201 0
M  V30 3931 H 388.659 -3.50212 -2.25071 0
M  V30 3932 H 389.192 -3.93141 -0.607069 0
M  V30 3933 H 385.931 -6.48354 0.965272 0
M  V30 3934 H 385.451 -5.96095 -0.665635 0
M  V30 3935 H 387.13 -6.46084 -0.344075 0
M  V30 3936 N 387.262 0.0317525 -1.57568 0
M  V30 3937 C 388.212 1.04101 -2.02847 0
M  V30 3938 C 389.196 1.3219 -0.917317 0
M  V30 3939 O 390.388 1.31819 -1.18121 0
M  V30 3940 C 387.517 2.34295 -2.5092 0
M  V30 3941 C 386.603 2.09308 -3.68851 0
M  V30 3942 N 386.994 1.5437 -4.81667 0
M  V30 3943 C 385.292 2.39604 -3.76172 0
M  V30 3944 C 385.993 1.45126 -5.63306 0
M  V30 3945 N 384.969 1.92589 -5.08341 0
M  V30 3946 H 388.771 0.610217 -2.87495 0
M  V30 3947 H 386.285 0.238108 -1.60645 0
M  V30 3948 H 388.282 3.07404 -2.81617 0
M  V30 3949 H 386.942 2.78055 -1.67677 0
M  V30 3950 H 387.953 1.22678 -5.03161 0
M  V30 3951 H 384.63 2.86457 -3.03724 0
M  V30 3952 H 386.02 1.03163 -6.63933 0
M  V30 3953 N 388.74 1.54641 0.303973 0
M  V30 3954 C 389.965 1.78092 1.06292 0
M  V30 3955 C 390.39 0.537342 1.80262 0
M  V30 3956 O 389.748 -0.511993 1.7392 0
M  V30 3957 C 389.796 2.98612 2.02147 0
M  V30 3958 O 388.9 2.71528 3.10397 0
M  V30 3959 H 388.241 0.589548 0.305497 0
M  V30 3960 H 390.771 2.01716 0.3423 0
M  V30 3961 H 390.781 3.265 2.44667 0
M  V30 3962 H 389.456 3.88785 1.47714 0
M  V30 3963 H 388.033 2.54648 2.72413 0
M  V30 3964 N 390.218 -0.567019 1.47046 0
M  V30 3965 C 391.15 -1.68985 1.54844 0
M  V30 3966 C 392.163 -1.56869 0.435431 0
M  V30 3967 O 393.352 -1.64006 0.70457 0
M  V30 3968 C 390.452 -3.07373 1.42742 0
M  V30 3969 C 389.625 -3.45339 2.6844 0
M  V30 3970 C 388.684 -4.62849 2.50314 0
M  V30 3971 O 387.71 -4.67922 3.24095 0
M  V30 3972 N 388.912 -5.58726 1.57499 0
M  V30 3973 H 391.677 -1.62745 2.51663 0
M  V30 3974 H 389.238 -0.753411 1.43302 0
M  V30 3975 H 391.23 -3.83803 1.28365 0
M  V30 3976 H 389.8 -3.07893 0.540445 0
M  V30 3977 H 389.02 -2.58455 2.97648 0
M  V30 3978 H 390.308 -3.67476 3.51907 0
M  V30 3979 H 389.706 -5.57376 0.966876 0
M  V30 3980 H 388.263 -6.34523 1.49078 0
M  V30 3981 N 391.696 -1.35014 -0.812953 0
M  V30 3982 C 392.659 -1.27292 -1.90602 0
M  V30 3983 C 393.659 -0.185817 -1.59723 0
M  V30 3984 O 394.849 -0.439102 -1.68575 0
M  V30 3985 C 391.981 -0.967676 -3.26877 0
M  V30 3986 H 393.174 -2.24479 -1.9887 0
M  V30 3987 H 390.727 -1.19446 -1.00808 0
M  V30 3988 H 391.462 0.0005954 -3.243 0
M  V30 3989 H 391.247 -1.75412 -3.50675 0
M  V30 3990 H 392.737 -0.939085 -4.06904 0
M  V30 3991 N 393.175 1.03435 -1.18907 0
M  V30 3992 C 394.123 2.13703 -0.918353 0
M  V30 3993 C 395.117 1.68947 0.123767 0
M  V30 3994 O 396.323 1.79983 -0.0249701 0
M  V30 3995 H 392.698 0.698112 -0.279542 0
M  V30 3996 H 394.669 2.33731 -1.85506 0
M  V30 3997 C 393.418 3.44542 -0.467532 0
M  V30 3998 H 392.741 3.79394 -1.26095 0
M  V30 3999 H 394.181 4.22812 -0.317164 0
M  V30 4000 C 392.64 3.26829 0.817588 0
M  V30 4001 O 393.17 3.54975 1.88031 0
M  V30 4002 N 391.376 2.80139 0.772677 0
M  V30 4003 H 390.923 2.57434 -0.0923883 0
M  V30 4004 H 390.881 2.68668 1.63294 0
M  V30 4005 N 394.653 0.992116 1.22453 0
M  V30 4006 C 396.069 0.702713 1.43297 0
M  V30 4007 C 396.269 -0.726909 1.87932 0
M  V30 4008 O 395.325 -1.49792 2.0327 0
M  V30 4009 C 396.638 1.70762 2.47509 0
M  V30 4010 C 398.186 1.72298 2.61309 0
M  V30 4011 C 398.661 2.71649 3.68742 0
M  V30 4012 N 400.152 2.70239 3.76199 0
M  V30 4013 C 400.887 3.43778 4.58917 0
M  V30 4014 N 400.383 4.26914 5.45633 0
M  V30 4015 N 402.176 3.32487 4.5322 0
M  V30 4016 H 394.327 1.91543 0.917871 0
M  V30 4017 H 396.59 0.826031 0.465162 0
M  V30 4018 H 396.296 2.73059 2.21657 0
M  V30 4019 H 396.17 1.49985 3.46099 0
M  V30 4020 H 398.557 0.706989 2.86506 0
M  V30 4021 H 398.638 1.97143 1.62997 0
M  V30 4022 H 398.282 3.73397 3.44292 0
M  V30 4023 H 398.212 2.44074 4.66622 0
M  V30 4024 H 400.703 2.09912 3.14237 0
M  V30 4025 H 401.016 4.79855 6.05771 0
M  V30 4026 H 399.361 4.31002 5.45218 0
M  V30 4027 H 402.552 2.6698 3.84499 0
M  V30 4028 H 402.725 3.90058 5.17454 0
M  V30 4029 N 396.131 -1.37776 0.765217 0
M  V30 4030 C 397.408 -1.93975 0.251596 0
M  V30 4031 C 397.788 -1.69949 -1.25222 0
M  V30 4032 O 397.136 -1.04457 -2.03226 0
M  V30 4033 C 397.346 -3.43487 0.617895 0
M  V30 4034 C 398.694 -4.20564 0.584029 0
M  V30 4035 O 399.718 -3.5182 0.556888 0
M  V30 4036 O 398.577 -5.43138 0.605291 0
M  V30 4037 H 395.671 -0.82509 0.0561806 0
M  V30 4038 H 398.217 -1.47101 0.846128 0
M  V30 4039 H 396.989 -3.5453 1.65602 0
M  V30 4040 H 396.612 -3.976 -0.00403411 0
M  V30 4041 N 397.609 -0.515225 -1.4894 0
M  V30 4042 C 398.837 0.0206034 -2.0689 0
M  V30 4043 C 399.252 1.29514 -1.37374 0
M  V30 4044 O 398.609 1.76698 -0.456529 0
M  V30 4045 C 398.66 0.26351 -3.60538 0
M  V30 4046 O 398.381 -0.960517 -4.27441 0
M  V30 4047 C 399.882 0.841383 -4.35242 0
M  V30 4048 H 397.102 -0.0268608 -0.670462 0
M  V30 4049 H 399.646 -0.716651 -1.91532 0
M  V30 4050 H 397.801 0.950777 -3.75552 0
M  V30 4051 H 398.215 -0.73212 -5.19365 0
M  V30 4052 H 399.689 0.96085 -5.43573 0
M  V30 4053 H 400.166 1.8427 -3.98674 0
M  V30 4054 H 400.772 0.191143 -4.2487 0
M  V30 4055 N 399.087 1.5561 -0.249682 0
M  V30 4056 C 400.503 1.59254 0.105103 0
M  V30 4057 C 400.703 1.26685 1.56694 0
M  V30 4058 O 399.759 1.0155 2.31179 0
M  V30 4059 C 401.072 2.99687 -0.246592 0
M  V30 4060 C 402.62 3.12416 -0.191118 0
M  V30 4061 C 403.095 4.55074 -0.516885 0
M  V30 4062 N 404.586 4.60835 -0.467489 0
M  V30 4063 C 405.321 5.69201 -0.69268 0
M  V30 4064 N 404.817 6.85817 -0.981146 0
M  V30 4065 N 406.61 5.58635 -0.623198 0
M  V30 4066 H 398.761 1.75049 -1.20298 0
M  V30 4067 H 401.024 0.815003 -0.484225 0
M  V30 4068 H 400.73 3.28267 -1.26228 0
M  V30 4069 H 400.604 3.74798 0.424962 0
M  V30 4070 H 402.991 2.83615 0.815247 0
M  V30 4071 H 403.072 2.39573 -0.896563 0
M  V30 4072 H 402.716 4.84596 -1.52082 0
M  V30 4073 H 402.646 5.26181 0.210068 0
M  V30 4074 H 405.137 3.7705 -0.253373 0
M  V30 4075 H 405.45 7.64341 -1.14032 0
M  V30 4076 H 403.795 6.87494 -1.01865 0
M  V30 4077 H 406.986 4.66406 -0.397863 0
M  V30 4078 H 407.159 6.43017 -0.802093 0
M  V30 4079 N 400.565 -0.0233959 1.57583 0
M  V30 4080 C 401.976 -0.56927 1.77809 0
M  V30 4081 C 402.327 -1.75284 0.881472 0
M  V30 4082 O 401.452 -2.1626 0.0777805 0
M  V30 4083 C 402.047 -1.03949 3.22459 0
M  V30 4084 C 400.606 -1.53084 3.43864 0
M  V30 4085 C 399.753 -0.471454 2.73263 0
M  V30 4086 H 402.704 0.202825 1.57399 0
M  V30 4087 H 402.725 -1.90661 3.29285 0
M  V30 4088 H 402.237 -0.177865 3.87692 0
M  V30 4089 H 400.338 -2.41414 2.83814 0
M  V30 4090 H 400.451 -1.57443 4.52491 0
M  V30 4091 H 398.815 -0.927788 2.37201 0
M  V30 4092 H 399.598 0.380808 3.41181 0
M  V30 4093 N 402.043 -1.548 -0.295768 0
M  V30 4094 C 402.993 -1.82497 -1.3667 0
M  V30 4095 C 403.977 -0.682434 -1.45711 0
M  V30 4096 O 405.169 -0.943207 -1.49775 0
M  V30 4097 C 402.298 -2.08036 -2.73086 0
M  V30 4098 C 401.384 -3.28488 -2.68247 0
M  V30 4099 N 401.775 -4.48924 -2.33025 0
M  V30 4100 C 400.073 -3.3062 -2.99343 0
M  V30 4101 C 400.774 -5.30956 -2.37613 0
M  V30 4102 N 399.75 -4.68805 -2.75178 0
M  V30 4103 H 403.552 -2.73175 -1.0841 0
M  V30 4104 H 401.066 -1.5437 -0.504361 0
M  V30 4105 H 403.063 -2.26027 -3.5031 0
M  V30 4106 H 401.723 -1.18629 -3.02254 0
M  V30 4107 H 402.734 -4.75432 -2.05389 0
M  V30 4108 H 399.411 -2.51336 -3.33371 0
M  V30 4109 H 400.801 -6.37199 -2.13135 0
M  V30 4110 N 403.521 0.559213 -1.47345 0
M  V30 4111 C 404.451 1.67622 -1.62558 0
M  V30 4112 C 405.432 1.63331 -0.475087 0
M  V30 4113 O 406.617 1.80983 -0.704182 0
M  V30 4114 C 403.747 3.0626 -1.63774 0
M  V30 4115 C 402.701 3.25397 -2.7803 0
M  V30 4116 C 402.027 4.64801 -2.64318 0
M  V30 4117 C 403.327 3.10965 -4.19641 0
M  V30 4118 H 405.021 1.55146 -2.56067 0
M  V30 4119 H 402.567 0.744961 -1.23233 0
M  V30 4120 H 404.52 3.84247 -1.73008 0
M  V30 4121 H 403.244 3.1969 -0.66825 0
M  V30 4122 H 401.903 2.49817 -2.68304 0
M  V30 4123 H 401.551 4.75028 -1.65401 0
M  V30 4124 H 401.251 4.78555 -3.40968 0
M  V30 4125 H 402.775 5.44926 -2.75478 0
M  V30 4126 H 404.189 3.78772 -4.30354 0
M  V30 4127 H 402.586 3.36229 -4.97062 0
M  V30 4128 H 403.656 2.07736 -4.38148 0
M  V30 4129 N 404.999 1.35443 0.805782 0
M  V30 4130 C 406.248 1.28097 1.55801 0
M  V30 4131 C 406.561 -0.142428 1.95081 0
M  V30 4132 O 407.767 -0.33817 2.69386 0
M  V30 4133 C 406.223 2.24653 2.81174 0
M  V30 4134 C 405.831 3.72342 2.49129 0
M  V30 4135 C 407.575 2.2625 3.59181 0
M  V30 4136 C 405.482 4.60719 3.70799 0
M  V30 4137 H 404.412 0.475937 0.584808 0
M  V30 4138 H 407.063 1.60712 0.885661 0
M  V30 4139 H 405.445 1.85011 3.50124 0
M  V30 4140 H 406.619 4.20624 1.88181 0
M  V30 4141 H 404.934 3.73361 1.84366 0
M  V30 4142 H 407.531 2.89495 4.49552 0
M  V30 4143 H 407.874 1.26647 3.96568 0
M  V30 4144 H 408.407 2.64426 2.97193 0
M  V30 4145 H 405.146 5.61324 3.3852 0
M  V30 4146 H 404.666 4.17163 4.3097 0
M  V30 4147 H 406.345 4.76182 4.38018 0
M  V30 4148 N 406.477 -1.02803 1.19454 0
M  V30 4149 C 407.725 -1.75869 0.995722 0
M  V30 4150 C 408.046 -1.89138 -0.474543 0
M  V30 4151 O 407.316 -1.42558 -1.34366 0
M  V30 4152 H 405.896 -0.651511 0.365435 0
M  V30 4153 H 408.558 -1.24004 1.50363 0
M  V30 4154 H 407.654 -2.76661 1.44447 0
M  V30 4155 N 407.956 -0.998596 -1.21925 0
M  V30 4156 C 409.204 -0.676325 -1.90448 0
M  V30 4157 C 409.525 0.794719 -1.78071 0
M  V30 4158 O 408.795 1.5701 -1.17152 0
M  V30 4159 H 407.375 -0.247165 -0.704925 0
M  V30 4160 H 410.037 -1.26633 -1.48156 0
M  V30 4161 H 409.133 -0.943858 -2.97486 0
M  V30 4162 N 409.434 1.37368 -0.772513 0
M  V30 4163 C 410.384 2.27613 -0.132823 0
M  V30 4164 C 411.368 1.46138 0.673247 0
M  V30 4165 O 412.56 1.68686 0.536095 0
M  V30 4166 C 409.689 3.35122 0.744864 0
M  V30 4167 C 408.775 4.24044 -0.0690771 0
M  V30 4168 N 409.166 4.93355 -1.1151 0
M  V30 4169 C 407.464 4.45731 0.154782 0
M  V30 4170 C 408.165 5.59 -1.60917 0
M  V30 4171 N 407.141 5.35737 -0.921222 0
M  V30 4172 H 410.943 2.78675 -0.933681 0
M  V30 4173 H 408.457 1.50494 -0.610342 0
M  V30 4174 H 410.454 3.98683 1.21892 0
M  V30 4175 H 409.114 2.85616 1.54446 0
M  V30 4176 H 410.125 4.95785 -1.49726 0
M  V30 4177 H 406.802 4.07096 0.926224 0
M  V30 4178 H 408.192 6.24395 -2.48153 0
M  V30 4179 N 410.912 0.523116 1.48665 0
M  V30 4180 C 412.16 -0.0134497 2.02096 0
M  V30 4181 C 412.481 -1.35418 1.40311 0
M  V30 4182 O 411.751 -1.87543 0.566074 0
M  V30 4183 H 410.331 -0.00795915 0.746958 0
M  V30 4184 H 412.993 0.685388 1.82451 0
M  V30 4185 H 412.089 -0.126849 3.11842 0
M  V30 4186 N 412.39 -1.55475 0.257931 0
M  V30 4187 C 413.667 -1.91155 -0.414629 0
M  V30 4188 C 414.047 -1.18008 -1.75035 0
M  V30 4189 O 413.395 -0.301193 -2.26506 0
M  V30 4190 C 413.605 -3.44283 -0.571859 0
M  V30 4191 C 414.953 -4.15744 -0.862678 0
M  V30 4192 O 415.977 -3.50083 -0.657314 0
M  V30 4193 O 414.836 -5.31909 -1.2544 0
M  V30 4194 H 411.93 -0.796016 -0.22425 0
M  V30 4195 H 414.476 -1.66976 0.302814 0
M  V30 4196 H 413.248 -3.89558 0.368844 0
M  V30 4197 H 412.871 -3.7436 -1.33943 0
M  V30 4198 N 413.868 0.0150385 -1.57593 0
M  V30 4199 C 415.114 0.69849 -1.91031 0
M  V30 4200 C 415.469 1.72208 -0.85804 0
M  V30 4201 O 414.762 1.91147 0.131614 0
M  V30 4202 C 414.956 1.39686 -3.28972 0
M  V30 4203 C 414.785 0.442428 -4.47518 0
M  V30 4204 C 413.555 0.0583223 -5.05266 0
M  V30 4205 C 415.753 -0.285072 -5.13509 0
M  V30 4206 N 413.735 -0.895893 -6.07328 0
M  V30 4207 C 415.106 -1.09447 -6.10263 0
M  V30 4208 C 417.161 -0.350518 -4.96665 0
M  V30 4209 C 415.864 -1.96333 -6.91987 0
M  V30 4210 C 417.89 -1.20655 -5.78962 0
M  V30 4211 C 417.252 -2.00383 -6.75297 0
M  V30 4212 H 413.351 0.22926 -0.747639 0
M  V30 4213 H 415.935 -0.0417748 -1.94655 0
M  V30 4214 H 414.106 2.1075 -3.2625 0
M  V30 4215 H 415.838 2.03381 -3.49883 0
M  V30 4216 H 412.593 0.423506 -4.71703 0
M  V30 4217 H 413.017 -1.36792 -6.63036 0
M  V30 4218 H 417.659 0.251596 -4.22051 0
M  V30 4219 H 415.377 -2.57618 -7.65936 0
M  V30 4220 H 418.963 -1.2609 -5.67972 0
M  V30 4221 H 417.843 -2.65552 -7.3787 0
M  V30 4222 N 415.346 1.54954 0.287554 0
M  V30 4223 C 416.592 1.75132 1.02257 0
M  V30 4224 C 416.925 0.542858 1.86458 0
M  V30 4225 O 416.2 -0.459856 1.88986 0
M  V30 4226 C 416.483 3.04812 1.91733 0
M  V30 4227 C 416.336 4.35985 1.10622 0
M  V30 4228 C 417.655 3.30438 2.90687 0
M  V30 4229 H 414.774 0.637194 0.370341 0
M  V30 4230 H 417.416 1.87678 0.296111 0
M  V30 4231 H 415.566 2.94247 2.53675 0
M  V30 4232 H 417.238 4.58487 0.508636 0
M  V30 4233 H 415.481 4.31865 0.409271 0
M  V30 4234 H 416.152 5.23017 1.76513 0
M  V30 4235 H 418.628 3.40701 2.38877 0
M  V30 4236 H 417.504 4.22467 3.50447 0
M  V30 4237 H 417.765 2.49377 3.65053 0
M  V30 4238 N 416.824 -0.551391 1.4764 0
M  V30 4239 C 418.07 -1.30789 1.55774 0
M  V30 4240 C 418.425 -1.91143 0.219562 0
M  V30 4241 O 417.718 -1.7521 -0.775375 0
M  V30 4242 C 417.912 -2.43469 2.61644 0
M  V30 4243 C 417.741 -1.94157 4.05627 0
M  V30 4244 C 416.511 -1.77734 4.7301 0
M  V30 4245 C 418.709 -1.48262 4.92466 0
M  V30 4246 N 416.691 -1.22823 6.01488 0
M  V30 4247 C 418.062 -1.05156 6.11017 0
M  V30 4248 C 420.117 -1.36367 4.78862 0
M  V30 4249 C 418.82 -0.513357 7.17466 0
M  V30 4250 C 420.846 -0.839484 5.85411 0
M  V30 4251 C 420.208 -0.418377 7.03156 0
M  V30 4252 H 416.307 -0.470406 0.624694 0
M  V30 4253 H 418.891 -0.624331 1.84419 0
M  V30 4254 H 417.062 -3.09348 2.34859 0
M  V30 4255 H 418.794 -3.10477 2.59589 0
M  V30 4256 H 415.549 -2.00623 4.29007 0
M  V30 4257 H 415.973 -0.974393 6.69951 0
M  V30 4258 H 420.615 -1.67535 3.88191 0
M  V30 4259 H 418.333 -0.189318 8.07878 0
M  V30 4260 H 421.919 -0.750921 5.76934 0
M  V30 4261 H 420.799 -0.0190538 7.84198 0
M  V30 4262 N 418.302 -1.35869 -0.798587 0
M  V30 4263 C 419.212 -1.31578 -1.94228 0
M  V30 4264 C 420.228 -0.21939 -1.72611 0
M  V30 4265 O 421.404 -0.450167 -1.96305 0
M  V30 4266 C 418.469 -1.09528 -3.28944 0
M  V30 4267 C 417.53 -2.28556 -3.63402 0
M  V30 4268 C 416.763 -2.07549 -4.9169 0
M  V30 4269 O 416.986 -1.046 -5.60727 0
M  V30 4270 O 415.92 -2.95106 -5.24591 0
M  V30 4271 H 419.746 -2.27847 -2.00796 0
M  V30 4272 H 417.331 -1.16322 -0.937526 0
M  V30 4273 H 419.213 -0.991127 -4.09579 0
M  V30 4274 H 417.888 -0.16315 -3.23289 0
M  V30 4275 H 416.795 -2.44538 -2.83112 0
M  V30 4276 H 418.128 -3.20244 -3.73771 0
M  V30 4277 N 419.78 1.02168 -1.19998 0
M  V30 4278 C 421.008 1.79296 -1.03249 0
M  V30 4279 C 421.423 1.84103 0.418502 0
M  V30 4280 O 420.78 1.29031 1.29063 0
M  V30 4281 C 420.831 3.24007 -1.60319 0
M  V30 4282 O 420.552 3.19512 -2.99739 0
M  V30 4283 C 422.053 4.17704 -1.48453 0
M  V30 4284 H 419.273 0.564016 -0.363493 0
M  V30 4285 H 421.817 1.28639 -1.58973 0
M  V30 4286 H 419.972 3.7183 -1.08727 0
M  V30 4287 H 420.386 4.10306 -3.26725 0
M  V30 4288 H 421.86 5.17104 -1.93153 0
M  V30 4289 H 422.337 4.37029 -0.436193 0
M  V30 4290 H 422.943 3.7576 -1.99211 0
M  V30 4291 N 421.258 1.00505 1.21394 0
M  V30 4292 C 422.506 0.686415 1.90086 0
M  V30 4293 C 422.827 -0.785264 1.7849 0
M  V30 4294 O 422.097 -1.56387 1.17983 0
M  V30 4295 H 420.677 0.2509 0.703604 0
M  V30 4296 H 423.339 1.27417 1.47482 0
M  V30 4297 H 422.435 0.959621 2.96981 0
M  V30 4298 N 422.737 -1.36956 0.779787 0
M  V30 4299 C 423.684 -2.30175 0.169697 0
M  V30 4300 C 424.654 -1.51501 -0.68094 0
M  V30 4301 O 425.839 -1.80042 -0.631629 0
M  V30 4302 C 422.979 -3.37985 -0.697131 0
M  V30 4303 C 422.092 -4.31661 0.170992 0
M  V30 4304 C 421.227 -5.2655 -0.701298 0
M  V30 4305 C 420.266 -6.11867 0.168869 0
M  V30 4306 N 419.403 -6.98973 -0.661855 0
M  V30 4307 H 424.243 -2.81767 0.970135 0
M  V30 4308 H 421.78 -1.38699 0.489994 0
M  V30 4309 H 423.738 -3.99128 -1.2146 0
M  V30 4310 H 422.368 -2.87739 -1.46309 0
M  V30 4311 H 421.42 -3.71756 0.80634 0
M  V30 4312 H 422.732 -4.91644 0.841875 0
M  V30 4313 H 421.886 -5.92937 -1.28494 0
M  V30 4314 H 420.625 -4.66998 -1.40584 0
M  V30 4315 H 419.63 -5.44452 0.764986 0
M  V30 4316 H 420.855 -6.73493 0.870863 0
M  V30 4317 H 418.801 -6.41941 -1.35086 0
M  V30 4318 H 418.718 -7.55984 -0.0484447 0
M  V30 4319 H 419.986 -7.6974 -1.22963 0
M  V30 4320 N 424.215 -0.530993 -1.48385 0
M  V30 4321 C 425.462 0.0027373 -2.025 0
M  V30 4322 C 425.79 1.34186 -1.40799 0
M  V30 4323 O 425.045 1.88 -0.543544 0
M  V30 4324 C 425.344 0.172742 -3.56982 0
M  V30 4325 C 425.01 -1.09215 -4.37473 0
M  V30 4326 C 423.672 -1.43881 -4.59186 0
M  V30 4327 C 426.024 -1.93153 -4.84088 0
M  V30 4328 C 423.352 -2.62381 -5.2476 0
M  V30 4329 C 425.704 -3.10833 -5.50968 0
M  V30 4330 C 424.368 -3.45843 -5.70919 0
M  V30 4331 H 423.638 0.00100165 -0.740999 0
M  V30 4332 H 426.285 -0.697219 -1.78357 0
M  V30 4333 H 424.59 0.955473 -3.79971 0
M  V30 4334 H 426.287 0.600642 -3.96476 0
M  V30 4335 H 422.877 -0.812177 -4.20834 0
M  V30 4336 H 427.061 -1.67683 -4.67115 0
M  V30 4337 H 422.317 -2.89707 -5.38405 0
M  V30 4338 H 426.491 -3.7618 -5.86056 0
M  V30 4339 H 424.118 -4.37764 -6.21503 0
M  V30 4340 N 425.693 1.55336 -0.266172 0
M  V30 4341 C 426.656 2.20878 0.612001 0
M  V30 4342 C 427.656 1.18388 1.08816 0
M  V30 4343 O 428.846 1.4335 0.989774 0
M  V30 4344 C 425.978 2.86765 1.84332 0
M  V30 4345 H 427.171 2.99873 0.0398718 0
M  V30 4346 H 424.724 1.56291 -0.0167309 0
M  V30 4347 H 425.459 2.11759 2.45619 0
M  V30 4348 H 425.244 3.61862 1.5099 0
M  V30 4349 H 426.734 3.36867 2.46801 0
M  V30 4350 N 427.171 -0.0066808 1.57599 0
M  V30 4351 C 428.119 -1.01851 2.09115 0
M  V30 4352 C 429.113 -1.36021 1.00969 0
M  V30 4353 O 430.319 -1.34663 1.19439 0
M  V30 4354 H 426.694 -0.346083 0.667631 0
M  V30 4355 H 428.665 -0.558394 2.93129 0
M  V30 4356 C 427.414 -2.30374 2.60429 0
M  V30 4357 H 426.737 -2.04947 3.43273 0
M  V30 4358 H 428.177 -2.99466 3.00161 0
M  V30 4359 C 426.636 -3.00893 1.51542 0
M  V30 4360 O 427.166 -3.91614 0.894484 0
M  V30 4361 N 425.372 -2.62603 1.2445 0
M  V30 4362 H 424.919 -1.88911 1.75129 0
M  V30 4363 H 424.877 -3.10101 0.518137 0
M  V30 4364 N 428.649 -1.55105 -0.279332 0
M  V30 4365 C 430.06 -1.66186 -0.850832 0
M  V30 4366 C 430.411 -0.584707 -1.87285 0
M  V30 4367 O 429.536 0.274919 -2.14647 0
M  V30 4368 C 430.131 -3.01264 -1.55001 0
M  V30 4369 C 428.69 -3.14394 -2.06963 0
M  V30 4370 C 427.837 -2.61959 -0.909536 0
M  V30 4371 H 430.788 -1.58602 -0.0558235 0
M  V30 4372 H 430.809 -2.93899 -2.41669 0
M  V30 4373 H 430.321 -3.7964 -0.805931 0
M  V30 4374 H 428.422 -2.4078 -2.84352 0
M  V30 4375 H 428.535 -4.20867 -2.28928 0
M  V30 4376 H 426.899 -2.18957 -1.30116 0
M  V30 4377 H 427.682 -3.42833 -0.179062 0
M  V30 4378 N 430.127 0.543554 -1.4793 0
M  V30 4379 C 431.538 1.12561 -1.48953 0
M  V30 4380 C 431.889 1.94578 -0.251754 0
M  V30 4381 O 431.014 2.0665 0.642255 0
M  V30 4382 C 431.609 2.04801 -2.69892 0
M  V30 4383 C 430.168 2.58251 -2.73831 0
M  V30 4384 C 429.315 1.34918 -2.42265 0
M  V30 4385 H 432.266 0.32947 -1.55242 0
M  V30 4386 H 432.287 2.88886 -2.47639 0
M  V30 4387 H 431.799 1.4508 -3.59963 0
M  V30 4388 H 429.9 3.21732 -1.87934 0
M  V30 4389 H 430.013 2.98312 -3.74895 0
M  V30 4390 H 428.377 1.66046 -1.93134 0
M  V30 4391 H 429.16 0.769693 -3.3456 0
M  V30 4392 N 431.605 1.3629 0.791371 0
M  V30 4393 C 432.537 1.26321 1.91248 0
M  V30 4394 C 433.55 0.18313 1.61767 0
M  V30 4395 O 434.739 0.437682 1.73051 0
M  V30 4396 C 431.839 0.925901 3.26007 0
M  V30 4397 C 431.012 2.10746 3.83281 0
M  V30 4398 C 430.071 1.74352 4.96475 0
M  V30 4399 O 429.097 2.46416 5.13096 0
M  V30 4400 N 430.299 0.676058 5.7655 0
M  V30 4401 H 433.064 2.22915 2.00323 0
M  V30 4402 H 430.625 1.29659 0.969546 0
M  V30 4403 H 432.617 0.663636 3.99222 0
M  V30 4404 H 431.187 0.0491581 3.12561 0
M  V30 4405 H 430.407 2.53264 3.02077 0
M  V30 4406 H 431.695 2.8969 4.18279 0
M  V30 4407 H 431.093 0.0776467 5.65647 0
M  V30 4408 H 429.65 0.473612 6.50077 0
M  V30 4409 N 433.083 -1.0153 1.20538 0
M  V30 4410 C 434.499 -1.27461 0.96051 0
M  V30 4411 C 434.699 -1.98273 -0.359193 0
M  V30 4412 O 433.755 -2.27886 -1.0874 0
M  V30 4413 C 435.068 -2.10837 2.14402 0
M  V30 4414 C 436.616 -2.24099 2.18515 0
M  V30 4415 C 437.091 -3.10852 3.36355 0
M  V30 4416 N 438.582 -3.18441 3.36377 0
M  V30 4417 C 439.317 -3.85795 4.24205 0
M  V30 4418 N 438.813 -4.55264 5.22213 0
M  V30 4419 N 440.606 -3.82331 4.12043 0
M  V30 4420 H 432.757 -0.539907 2.05423 0
M  V30 4421 H 435.02 -0.30092 0.898972 0
M  V30 4422 H 434.726 -1.66144 3.09983 0
M  V30 4423 H 434.6 -3.11576 2.12604 0
M  V30 4424 H 436.987 -2.68016 1.23497 0
M  V30 4425 H 437.068 -1.22865 2.24361 0
M  V30 4426 H 436.712 -2.6764 4.31661 0
M  V30 4427 H 436.642 -4.12177 3.27746 0
M  V30 4428 H 439.133 -2.68978 2.65442 0
M  V30 4429 H 439.446 -5.04331 5.85551 0
M  V30 4430 H 437.791 -4.54085 5.26148 0
M  V30 4431 H 440.982 -3.27207 3.34743 0
M  V30 4432 H 441.155 -4.34547 4.807 0
M  V30 4433 N 434.561 -1.01147 -1.20859 0
M  V30 4434 C 435.838 -0.613136 -1.85742 0
M  V30 4435 C 436.218 0.909004 -1.90526 0
M  V30 4436 O 435.566 1.79862 -1.40932 0
M  V30 4437 C 435.776 -1.255 -3.25654 0
M  V30 4438 C 437.124 -1.3672 -4.01986 0
M  V30 4439 O 438.148 -1.21082 -3.34989 0
M  V30 4440 O 437.007 -1.6194 -5.21956 0
M  V30 4441 H 434.101 -0.210878 -0.799662 0
M  V30 4442 H 436.647 -1.10853 -1.2849 0
M  V30 4443 H 435.419 -2.29532 -3.16908 0
M  V30 4444 H 435.042 -0.746369 -3.90532 0
M  V30 4445 N 436.039 1.36541 -0.78704 0
M  V30 4446 C 436.969 2.32659 -0.197992 0
M  V30 4447 C 437.95 1.56533 0.665697 0
M  V30 4448 O 439.135 1.84698 0.60001 0
M  V30 4449 C 436.265 3.40778 0.669901 0
M  V30 4450 C 435.219 4.27897 -0.0937039 0
M  V30 4451 C 434.545 5.27163 0.894629 0
M  V30 4452 C 435.845 5.06334 -1.28154 0
M  V30 4453 H 437.539 2.82171 -1.00099 0
M  V30 4454 H 435.085 1.35665 -0.482793 0
M  V30 4455 H 437.038 4.07008 1.09191 0
M  V30 4456 H 435.762 2.89827 1.50558 0
M  V30 4457 H 434.421 3.6322 -0.49666 0
M  V30 4458 H 434.069 4.72486 1.72527 0
M  V30 4459 H 433.769 5.86317 0.388149 0
M  V30 4460 H 435.293 5.96266 1.31525 0
M  V30 4461 H 436.707 5.65617 -0.93541 0
M  V30 4462 H 435.104 5.74888 -1.72115 0
M  V30 4463 H 436.174 4.38114 -2.07807 0
M  V30 4464 N 437.518 0.538854 1.48102 0
M  V30 4465 C 438.428 -0.222648 2.33541 0
M  V30 4466 C 439.444 -0.930225 1.47047 0
M  V30 4467 O 440.62 -0.903211 1.80011 0
M  V30 4468 C 437.685 -1.25064 3.23357 0
M  V30 4469 C 436.746 -0.552469 4.2573 0
M  V30 4470 C 435.979 -1.53149 5.11254 0
M  V30 4471 O 436.202 -2.76487 4.9891 0
M  V30 4472 O 435.136 -1.06602 5.92385 0
M  V30 4473 H 438.962 0.477707 2.99919 0
M  V30 4474 H 436.547 0.299669 1.46364 0
M  V30 4475 H 438.429 -1.8445 3.78888 0
M  V30 4476 H 437.104 -1.93325 2.59629 0
M  V30 4477 H 436.011 0.082114 3.7401 0
M  V30 4478 H 437.344 0.0883526 4.92121 0
M  V30 4479 N 438.996 -1.55193 0.274407 0
M  V30 4480 C 440.224 -2.03987 -0.345943 0
M  V30 4481 C 440.639 -1.15279 -1.4952 0
M  V30 4482 O 439.996 -0.172759 -1.8168 0
M  V30 4483 C 440.047 -3.51898 -0.827631 0
M  V30 4484 O 439.768 -4.37231 0.275855 0
M  V30 4485 C 441.269 -4.16577 -1.51587 0
M  V30 4486 H 438.489 -0.666335 -0.0789892 0
M  V30 4487 H 441.033 -2.00423 0.406294 0
M  V30 4488 H 439.188 -3.55909 -1.52996 0
M  V30 4489 H 439.602 -5.24415 -0.0943638 0
M  V30 4490 H 441.076 -5.21678 -1.80433 0
M  V30 4491 H 441.553 -3.64707 -2.44716 0
M  V30 4492 H 442.159 -4.16568 -0.857409 0
M  V30 4493 N 440.474 -0.00167713 -1.576 0
M  V30 4494 C 441.72 0.67819 -1.91761 0
M  V30 4495 C 442.075 1.71288 -0.876256 0
M  V30 4496 O 441.368 1.91276 0.111333 0
M  V30 4497 C 441.562 1.36189 -3.30435 0
M  V30 4498 C 441.391 0.394938 -4.47962 0
M  V30 4499 C 440.161 0.00472875 -5.053 0
M  V30 4500 C 442.359 -0.339521 -5.13178 0
M  V30 4501 N 440.341 -0.960257 -6.06343 0
M  V30 4502 C 441.712 -1.15914 -6.09068 0
M  V30 4503 C 443.767 -0.403177 -4.96265 0
M  V30 4504 C 442.47 -2.03661 -6.89866 0
M  V30 4505 C 444.496 -1.26788 -5.77649 0
M  V30 4506 C 443.858 -2.07535 -6.73134 0
M  V30 4507 H 439.957 0.221317 -0.750028 0
M  V30 4508 H 442.541 -0.0624182 -1.946 0
M  V30 4509 H 440.712 2.07278 -3.28467 0
M  V30 4510 H 442.444 1.99658 -3.52021 0
M  V30 4511 H 439.199 0.373452 -4.72125 0
M  V30 4512 H 439.623 -1.43817 -6.61548 0
M  V30 4513 H 444.265 0.206818 -4.22294 0
M  V30 4514 H 441.983 -2.65727 -7.63161 0
M  V30 4515 H 445.569 -1.32107 -5.66603 0
M  V30 4516 H 444.449 -2.73363 -7.35012 0
M  V30 4517 N 441.952 1.55251 0.271103 0
M  V30 4518 C 443.199 1.75946 1.00245 0
M  V30 4519 C 443.527 0.561611 1.86215 0
M  V30 4520 O 442.782 -0.455832 1.90317 0
M  V30 4521 C 443.081 3.01879 1.91321 0
M  V30 4522 C 442.747 4.34337 1.21086 0
M  V30 4523 C 441.409 4.70338 1.01666 0
M  V30 4524 C 443.761 5.16325 0.71119 0
M  V30 4525 C 441.089 5.8588 0.310099 0
M  V30 4526 C 443.441 6.32597 0.0182157 0
M  V30 4527 C 442.105 6.67236 -0.18768 0
M  V30 4528 H 441.375 0.643833 0.366824 0
M  V30 4529 H 444.022 1.89521 0.27458 0
M  V30 4530 H 442.327 2.83212 2.70736 0
M  V30 4531 H 444.024 3.15088 2.48033 0
M  V30 4532 H 440.614 4.06043 1.37213 0
M  V30 4533 H 444.798 4.88987 0.848844 0
M  V30 4534 H 440.054 6.1124 0.139873 0
M  V30 4535 H 444.228 6.9538 -0.376711 0
M  V30 4536 H 441.855 7.56618 -0.73715 0
M  V30 4537 N 443.43 -0.535701 1.48216 0
M  V30 4538 C 444.679 -1.28828 1.55197 0
M  V30 4539 C 444.992 -1.94263 0.228278 0
M  V30 4540 O 446.198 -2.70927 0.176278 0
M  V30 4541 C 444.654 -2.33727 2.73678 0
M  V30 4542 C 444.262 -1.74386 4.12666 0
M  V30 4543 C 446.006 -3.1003 2.89968 0
M  V30 4544 C 443.913 -2.77192 5.22416 0
M  V30 4545 H 442.843 -0.484484 0.577747 0
M  V30 4546 H 445.494 -0.56646 1.74538 0
M  V30 4547 H 443.876 -3.08919 2.4776 0
M  V30 4548 H 445.05 -1.05421 4.48579 0
M  V30 4549 H 443.365 -1.10595 4.01445 0
M  V30 4550 H 445.962 -3.86842 3.6913 0
M  V30 4551 H 446.305 -3.65542 1.9921 0
M  V30 4552 H 446.838 -2.41952 3.15759 0
M  V30 4553 H 443.577 -2.26507 6.15122 0
M  V30 4554 H 443.097 -3.44502 4.90998 0
M  V30 4555 H 444.776 -3.40285 5.50286 0
M  V30 4556 N 444.908 -1.36708 -0.784132 0
M  V30 4557 C 446.324 -1.17237 -1.08294 0
M  V30 4558 C 446.524 -5.93947e-05 -2.015 0
M  V30 4559 O 445.58 0.663686 -2.43622 0
M  V30 4560 C 446.893 -2.48557 -1.69233 0
M  V30 4561 C 448.441 -2.54968 -1.8155 0
M  V30 4562 C 448.916 -3.86388 -2.45904 0
M  V30 4563 N 450.407 -3.87762 -2.53367 0
M  V30 4564 C 451.142 -4.86191 -3.03983 0
M  V30 4565 N 450.638 -5.95015 -3.54866 0
M  V30 4566 N 452.431 -4.73606 -3.02743 0
M  V30 4567 H 444.582 -2.11758 -0.16501 0
M  V30 4568 H 446.845 -0.93822 -0.135822 0
M  V30 4569 H 446.551 -3.34638 -1.08215 0
M  V30 4570 H 446.425 -2.64748 -2.68679 0
M  V30 4571 H 448.812 -1.69302 -2.41704 0
M  V30 4572 H 448.893 -2.42672 -0.80895 0
M  V30 4573 H 448.537 -4.72462 -1.86392 0
M  V30 4574 H 448.467 -3.95982 -3.4714 0
M  V30 4575 H 450.958 -3.09145 -2.17343 0
M  V30 4576 H 451.271 -6.66086 -3.91854 0
M  V30 4577 H 449.616 -5.98676 -3.53003 0
M  V30 4578 H 452.807 -3.87717 -2.62284 0
M  V30 4579 H 452.98 -5.50473 -3.41881 0
M  V30 4580 N 446.386 1.0089 -1.21074 0
M  V30 4581 C 447.634 1.74262 -1.02358 0
M  V30 4582 C 447.955 1.89869 0.444393 0
M  V30 4583 O 447.225 1.44677 1.32081 0
M  V30 4584 H 445.805 0.645615 -0.375754 0
M  V30 4585 H 448.467 1.21596 -1.52317 0
M  V30 4586 H 447.563 2.74328 -1.4883 0
M  V30 4587 N 447.864 1.01787 1.20321 0
M  V30 4588 C 449.112 0.706538 1.89347 0
M  V30 4589 C 449.433 -0.766289 1.79313 0
M  V30 4590 O 448.703 -1.55126 1.19635 0
M  V30 4591 H 447.283 0.258348 0.700903 0
M  V30 4592 H 449.945 1.28974 1.46122 0
M  V30 4593 H 449.041 0.991066 2.95946 0
M  V30 4594 N 449.342 -1.36122 0.79427 0
M  V30 4595 C 450.567 -2.03891 0.379871 0
M  V30 4596 C 450.992 -1.59488 -0.997251 0
M  V30 4597 O 450.35 -0.765652 -1.64339 0
M  V30 4598 C 450.398 -3.57687 0.457442 0
M  V30 4599 O 449.502 -4.08931 -0.5338 0
M  V30 4600 H 448.843 -0.6443 0.160541 0
M  V30 4601 H 451.373 -1.73976 1.07673 0
M  V30 4602 H 451.383 -4.06721 0.322792 0
M  V30 4603 H 450.058 -3.89357 1.46199 0
M  V30 4604 H 448.635 -3.71154 -0.360409 0
M  V30 4605 N 450.82 -0.546701 -1.47814 0
M  V30 4606 C 451.783 0.196287 -2.28358 0
M  V30 4607 C 452.783 0.852437 -1.36346 0
M  V30 4608 O 453.973 0.709913 -1.59078 0
M  V30 4609 C 451.105 1.28579 -3.15722 0
M  V30 4610 H 452.298 -0.511086 -2.95513 0
M  V30 4611 H 449.851 -0.303248 -1.5333 0
M  V30 4612 H 450.586 2.0259 -2.53235 0
M  V30 4613 H 450.371 0.820229 -3.83425 0
M  V30 4614 H 451.861 1.80793 -3.76435 0
M  V30 4615 N 452.299 1.55045 -0.282633 0
M  V30 4616 C 453.547 1.99365 0.331334 0
M  V30 4617 C 453.868 1.1725 1.55812 0
M  V30 4618 O 453.138 0.263871 1.94115 0
M  V30 4619 H 451.718 0.736397 0.125414 0
M  V30 4620 H 454.38 1.90964 -0.389711 0
M  V30 4621 H 453.476 3.0596 0.616036 0
M  V30 4622 N 453.777 0.010035 1.57597 0
M  V30 4623 C 454.74 -0.963029 2.07986 0
M  V30 4624 C 455.74 -1.26619 0.991173 0
M  V30 4625 O 456.93 -1.2097 1.25347 0
M  V30 4626 C 454.062 -2.2851 2.52974 0
M  V30 4627 H 455.255 -0.526971 2.95234 0
M  V30 4628 H 452.808 -0.237639 1.54483 0
M  V30 4629 H 453.543 -2.76784 1.69 0
M  V30 4630 H 453.328 -2.07824 3.32493 0
M  V30 4631 H 454.818 -2.98294 2.9225 0
M  V30 4632 N 455.255 -1.55392 -0.262866 0
M  V30 4633 C 456.218 -1.88181 -1.30846 0
M  V30 4634 C 457.218 -0.757079 -1.41862 0
M  V30 4635 O 458.408 -1.02519 -1.40838 0
M  V30 4636 C 455.54 -2.09609 -2.68844 0
M  V30 4637 H 456.733 -2.81659 -1.02997 0
M  V30 4638 H 454.286 -1.48039 -0.501414 0
M  V30 4639 H 455.021 -1.18547 -3.01856 0
M  V30 4640 H 454.806 -2.91508 -2.62231 0
M  V30 4641 H 456.296 -2.36215 -3.44372 0
M  V30 4642 N 456.733 0.527833 -1.48498 0
M  V30 4643 C 457.663 1.64136 -1.66077 0
M  V30 4644 C 458.644 1.62286 -0.509625 0
M  V30 4645 O 459.829 1.79449 -0.742413 0
M  V30 4646 C 456.959 3.02717 -1.70234 0
M  V30 4647 C 455.913 3.19426 -2.8487 0
M  V30 4648 C 455.239 4.5909 -2.74118 0
M  V30 4649 C 456.539 3.01993 -4.26142 0
M  V30 4650 H 458.233 1.4968 -2.593 0
M  V30 4651 H 455.779 0.718654 -1.24785 0
M  V30 4652 H 457.732 3.80491 -1.8112 0
M  V30 4653 H 456.456 3.18201 -0.735911 0
M  V30 4654 H 455.115 2.4407 -2.73542 0
M  V30 4655 H 454.763 4.71413 -1.7544 0
M  V30 4656 H 454.463 4.71214 -3.51042 0
M  V30 4657 H 455.987 5.3896 -2.86974 0
M  V30 4658 H 457.401 3.69558 -4.38292 0
M  V30 4659 H 455.798 3.2561 -5.04082 0
M  V30 4660 H 456.868 1.98396 -4.42456 0
M  V30 4661 N 458.211 1.37122 0.776871 0
M  V30 4662 C 459.441 1.35034 1.56363 0
M  V30 4663 C 459.849 -0.0674681 1.8908 0
M  V30 4664 O 459.192 -1.03826 1.51545 0
M  V30 4665 C 459.254 2.11894 2.90415 0
M  V30 4666 C 458.918 3.60897 2.80362 0
M  V30 4667 C 459.915 4.54887 2.51742 0
M  V30 4668 C 457.6 4.03951 2.98545 0
M  V30 4669 C 459.594 5.89909 2.41426 0
M  V30 4670 C 457.281 5.3906 2.87849 0
M  V30 4671 C 458.279 6.31852 2.5933 0
M  V30 4672 O 457.967 7.64479 2.48651 0
M  V30 4673 H 457.699 0.464402 0.49123 0
M  V30 4674 H 460.253 1.80992 0.971127 0
M  V30 4675 H 458.483 1.60618 3.51765 0
M  V30 4676 H 460.172 2.02505 3.51776 0
M  V30 4677 H 460.938 4.22934 2.37385 0
M  V30 4678 H 456.817 3.3209 3.19746 0
M  V30 4679 H 460.361 6.62304 2.19086 0
M  V30 4680 H 456.258 5.70617 3.01773 0
M  V30 4681 H 457.026 7.74742 2.64039 0
M  V30 4682 N 459.689 -1.00246 1.21608 0
M  V30 4683 C 460.917 -1.77631 1.06089 0
M  V30 4684 C 461.332 -1.84746 -0.38916 0
M  V30 4685 O 460.689 -1.31068 -1.26994 0
M  V30 4686 C 460.74 -3.21415 1.65453 0
M  V30 4687 O 460.461 -3.14703 3.04785 0
M  V30 4688 C 461.962 -4.15289 1.55079 0
M  V30 4689 H 459.182 -0.558162 0.37242 0
M  V30 4690 H 461.726 -1.26093 1.60999 0
M  V30 4691 H 459.881 -3.70053 1.14629 0
M  V30 4692 H 460.295 -4.05056 3.33212 0
M  V30 4693 H 461.769 -5.13965 2.01355 0
M  V30 4694 H 462.246 -4.36279 0.505665 0
M  V30 4695 H 462.852 -3.72543 2.05163 0
M  V30 4696 N 461.167 -1.02423 -1.1978 0
M  V30 4697 C 462.414 -0.717988 -1.89344 0
M  V30 4698 C 462.742 0.753036 -1.79331 0
M  V30 4699 O 461.997 1.56355 -1.17692 0
M  V30 4700 C 462.296 -1.1088 -3.39765 0
M  V30 4701 C 461.962 -2.57731 -3.6998 0
M  V30 4702 C 460.624 -2.97854 -3.77937 0
M  V30 4703 C 462.976 -3.52763 -3.83677 0
M  V30 4704 C 460.304 -4.31931 -3.97054 0
M  V30 4705 C 462.656 -4.86538 -4.04306 0
M  V30 4706 C 461.32 -5.26356 -4.10494 0
M  V30 4707 H 460.59 -0.26273 -0.692859 0
M  V30 4708 H 463.237 -1.28623 -1.41875 0
M  V30 4709 H 461.542 -0.459094 -3.89101 0
M  V30 4710 H 463.239 -0.849432 -3.919 0
M  V30 4711 H 459.829 -2.25646 -3.64393 0
M  V30 4712 H 464.013 -3.2292 -3.76877 0
M  V30 4713 H 459.269 -4.62324 -4.00083 0
M  V30 4714 H 463.443 -5.60093 -4.13846 0
M  V30 4715 H 461.07 -6.3026 -4.2506 0
M  V30 4716 N 462.645 1.35699 -0.801477 0
M  V30 4717 C 463.592 2.29876 -0.206294 0
M  V30 4718 C 464.562 1.52565 0.656752 0
M  V30 4719 O 465.747 1.81024 0.602906 0
M  V30 4720 C 462.887 3.39052 0.643272 0
M  V30 4721 C 462 4.31335 -0.239644 0
M  V30 4722 C 461.135 5.27599 0.61744 0
M  V30 4723 C 460.174 6.11521 -0.26619 0
M  V30 4724 N 459.311 6.99938 0.550571 0
M  V30 4725 H 464.151 2.80187 -1.01484 0
M  V30 4726 H 461.688 1.37902 -0.511997 0
M  V30 4727 H 463.646 4.0101 1.15094 0
M  V30 4728 H 462.276 2.9003 1.41713 0
M  V30 4729 H 461.328 3.70426 -0.865381 0
M  V30 4730 H 462.64 4.90243 -0.919985 0
M  V30 4731 H 461.794 5.94906 1.19045 0
M  V30 4732 H 460.533 4.69176 1.33137 0
M  V30 4733 H 459.538 5.43166 -0.851507 0
M  V30 4734 H 460.763 6.72022 -0.9779 0
M  V30 4735 H 458.709 6.44008 1.24856 0
M  V30 4736 H 458.626 7.55966 -0.071832 0
M  V30 4737 H 459.894 7.71599 1.10702 0
M  V30 4738 N 464.123 0.554532 1.47522 0
M  V30 4739 C 465.055 -0.232106 2.28022 0
M  V30 4740 C 466.068 -0.881865 1.36847 0
M  V30 4741 O 467.257 -0.756168 1.61692 0
M  V30 4742 C 464.357 -1.34604 3.11022 0
M  V30 4743 C 463.53 -0.793582 4.30141 0
M  V30 4744 C 462.589 -1.79168 4.94758 0
M  V30 4745 O 461.615 -1.33886 5.5323 0
M  V30 4746 N 462.817 -3.12495 4.89211 0
M  V30 4747 H 465.582 0.458407 2.96173 0
M  V30 4748 H 463.143 0.390433 1.57122 0
M  V30 4749 H 465.135 -2.01243 3.51118 0
M  V30 4750 H 463.705 -1.93983 2.45131 0
M  V30 4751 H 462.925 0.0495025 3.94169 0
M  V30 4752 H 464.213 -0.403776 5.07195 0
M  V30 4753 H 463.611 -3.51931 4.42901 0
M  V30 4754 H 462.168 -3.74698 5.33333 0
M  V30 4755 N 465.601 -1.54893 0.290851 0
M  V30 4756 C 467.012 -1.85584 -0.203816 0
M  V30 4757 C 467.363 -1.21285 -1.54222 0
M  V30 4758 O 466.488 -0.506841 -2.10381 0
M  V30 4759 C 467.083 -3.367 -0.376595 0
M  V30 4760 C 465.642 -3.6746 -0.815485 0
M  V30 4761 C 464.789 -2.77178 0.0821087 0
M  V30 4762 H 467.74 -1.50208 0.512175 0
M  V30 4763 H 467.761 -3.60656 -1.21275 0
M  V30 4764 H 467.273 -3.8347 0.59767 0
M  V30 4765 H 465.374 -3.26201 -1.80066 0
M  V30 4766 H 465.487 -4.7478 -0.641905 0
M  V30 4767 H 463.851 -2.50925 -0.436895 0
M  V30 4768 H 464.634 -3.26767 1.05254 0
M  V30 4769 N 467.08 -0.0183926 -1.57589 0
M  V30 4770 C 468.328 0.661253 -1.90976 0
M  V30 4771 C 468.649 1.73281 -0.894353 0
M  V30 4772 O 467.919 1.9579 0.0656788 0
M  V30 4773 H 466.499 0.247233 -0.704901 0
M  V30 4774 H 469.161 -0.0636639 -1.94796 0
M  V30 4775 H 468.257 1.12083 -2.9128 0
M  V30 4776 N 468.558 1.5553 0.254621 0
M  V30 4777 C 469.804 1.77262 0.985193 0
M  V30 4778 C 470.137 0.582286 1.85265 0
M  V30 4779 O 469.412 -0.419666 1.89919 0
M  V30 4780 C 469.695 3.0881 1.85225 0
M  V30 4781 C 469.548 4.38233 1.0135 0
M  V30 4782 C 470.867 3.3653 2.83612 0
M  V30 4783 H 467.986 0.644906 0.356742 0
M  V30 4784 H 470.628 1.88264 0.256236 0
M  V30 4785 H 468.778 2.99562 2.47376 0
M  V30 4786 H 470.45 4.59463 0.411269 0
M  V30 4787 H 468.693 4.32636 0.317574 0
M  V30 4788 H 469.364 5.26644 1.65379 0
M  V30 4789 H 471.84 3.45691 2.31596 0
M  V30 4790 H 470.716 4.29805 3.41407 0
M  V30 4791 H 470.977 2.57064 3.59681 0
M  V30 4792 N 470.036 -0.519951 1.48776 0
M  V30 4793 C 471.266 -1.29783 1.60748 0
M  V30 4794 C 471.674 -1.87253 0.27072 0
M  V30 4795 O 471.017 -1.67628 -0.751438 0
M  V30 4796 C 471.079 -2.47984 2.60277 0
M  V30 4797 C 470.743 -2.11526 4.051 0
M  V30 4798 C 471.74 -1.66608 4.92481 0
M  V30 4799 C 469.425 -2.21742 4.50706 0
M  V30 4800 C 471.419 -1.32384 6.23501 0
M  V30 4801 C 469.106 -1.87129 5.81744 0
M  V30 4802 C 470.104 -1.42523 6.67964 0
M  V30 4803 O 469.792 -1.0837 7.96562 0
M  V30 4804 H 469.524 -0.400562 0.544542 0
M  V30 4805 H 472.078 -0.632879 1.95407 0
M  V30 4806 H 470.308 -3.17493 2.2076 0
M  V30 4807 H 471.997 -3.10036 2.61978 0
M  V30 4808 H 472.763 -1.58178 4.58481 0
M  V30 4809 H 468.642 -2.55415 3.83776 0
M  V30 4810 H 472.186 -0.974949 6.90754 0
M  V30 4811 H 468.083 -1.95204 6.15277 0
M  V30 4812 H 468.851 -1.21681 8.09405 0
M  V30 4813 N 471.514 -1.37532 -0.769588 0
M  V30 4814 C 472.477 -1.33292 -1.86456 0
M  V30 4815 C 473.477 -0.236537 -1.59051 0
M  V30 4816 O 474.667 -0.492511 -1.67093 0
M  V30 4817 C 471.799 -1.07118 -3.23633 0
M  V30 4818 H 472.992 -2.30692 -1.91628 0
M  V30 4819 H 470.545 -1.22593 -0.969572 0
M  V30 4820 H 471.28 -0.102578 -3.24138 0
M  V30 4821 H 471.065 -1.86479 -3.44917 0
M  V30 4822 H 472.555 -1.06806 -4.03711 0
M  V30 4823 N 472.992 0.995999 -1.22138 0
M  V30 4824 C 474.222 1.76809 -1.06874 0
M  V30 4825 C 474.63 1.85265 0.383866 0
M  V30 4826 O 473.973 1.31969 1.27789 0
M  V30 4827 C 474.035 3.2186 -1.60144 0
M  V30 4828 C 473.699 3.36958 -3.0872 0
M  V30 4829 C 474.696 3.2452 -4.0618 0
M  V30 4830 C 472.381 3.62109 -3.48112 0
M  V30 4831 C 474.375 3.37013 -5.41019 0
M  V30 4832 C 472.062 3.74243 -4.831 0
M  V30 4833 C 473.06 3.61702 -5.79362 0
M  V30 4834 O 472.748 3.73436 -7.119 0
M  V30 4835 H 472.48 0.562207 -0.375365 0
M  V30 4836 H 475.034 1.26113 -1.62125 0
M  V30 4837 H 473.264 3.73734 -0.992981 0
M  V30 4838 H 474.953 3.80775 -1.40589 0
M  V30 4839 H 475.719 3.05004 -3.77091 0
M  V30 4840 H 471.598 3.70949 -2.73712 0
M  V30 4841 H 475.142 3.27141 -6.16137 0
M  V30 4842 H 471.039 3.93266 -5.11872 0
M  V30 4843 H 471.807 3.90328 -7.19435 0
M  V30 4844 N 474.47 1.03057 1.19235 0
M  V30 4845 C 475.4 0.633497 2.24742 0
M  V30 4846 C 476.381 -0.358335 1.66283 0
M  V30 4847 O 477.566 -0.240676 1.92703 0
M  V30 4848 C 474.696 -0.0147648 3.47297 0
M  V30 4849 C 473.65 0.899527 4.18441 0
M  V30 4850 C 472.976 0.116281 5.34574 0
M  V30 4851 C 474.276 2.21404 4.73051 0
M  V30 4852 H 475.97 1.5155 2.58211 0
M  V30 4853 H 473.516 0.73014 1.24117 0
M  V30 4854 H 475.469 -0.304202 4.20301 0
M  V30 4855 H 474.193 -0.931577 3.13032 0
M  V30 4856 H 472.852 1.17319 3.47321 0
M  V30 4857 H 472.5 -0.802619 4.96555 0
M  V30 4858 H 472.2 0.725293 5.83107 0
M  V30 4859 H 473.724 -0.166376 6.10373 0
M  V30 4860 H 475.138 1.98601 5.37802 0
M  V30 4861 H 473.535 2.77512 5.32078 0
M  V30 4862 H 474.605 2.86752 3.91026 0
M  V30 4863 N 475.948 -1.35272 0.808662 0
M  V30 4864 C 476.896 -2.31663 0.208606 0
M  V30 4865 C 477.89 -1.56731 -0.642778 0
M  V30 4866 O 479.096 -1.71843 -0.53571 0
M  V30 4867 H 475.471 -0.750421 0.0486993 0
M  V30 4868 H 477.442 -2.79814 1.03666 0
M  V30 4869 C 476.191 -3.42008 -0.626573 0
M  V30 4870 H 475.514 -3.99795 0.0192103 0
M  V30 4871 H 476.954 -4.11727 -1.01278 0
M  V30 4872 C 475.413 -2.85226 -1.79298 0
M  V30 4873 O 475.943 -2.78945 -2.89055 0
M  V30 4874 N 474.149 -2.42245 -1.60516 0
M  V30 4875 H 473.696 -2.47554 -0.712375 0
M  V30 4876 H 473.654 -2.04603 -2.38715 0
M  V30 4877 N 477.426 -0.562348 -1.47226 0
M  V30 4878 C 478.376 0.202967 -2.27095 0
M  V30 4879 C 479.36 0.880611 -1.34663 0
M  V30 4880 O 480.552 0.778069 -1.58981 0
M  V30 4881 C 477.681 1.22906 -3.20545 0
M  V30 4882 C 476.767 0.554566 -4.20459 0
M  V30 4883 N 477.158 -0.378295 -5.04383 0
M  V30 4884 C 475.456 0.807854 -4.38623 0
M  V30 4885 C 476.157 -0.770583 -5.76573 0
M  V30 4886 N 475.133 -0.124263 -5.43458 0
M  V30 4887 H 478.935 -0.514196 -2.89367 0
M  V30 4888 H 476.449 -0.382655 -1.57827 0
M  V30 4889 H 478.446 1.79134 -3.76453 0
M  V30 4890 H 477.106 1.94726 -2.59831 0
M  V30 4891 H 478.117 -0.75274 -5.124 0
M  V30 4892 H 474.794 1.51418 -3.89075 0
M  V30 4893 H 476.184 -1.53742 -6.54074 0
M  V30 4894 N 478.904 1.54736 -0.299062 0
M  V30 4895 C 479.852 2.24897 0.593658 0
M  V30 4896 C 480.846 1.25429 1.13859 0
M  V30 4897 O 482.052 1.43286 1.08945 0
M  V30 4898 H 478.427 0.72207 0.210046 0
M  V30 4899 H 480.398 2.98393 -0.0206421 0
M  V30 4900 C 479.147 3.00159 1.75499 0
M  V30 4901 H 478.47 3.76501 1.34489 0
M  V30 4902 H 479.91 3.52535 2.35574 0
M  V30 4903 C 478.369 2.07015 2.65794 0
M  V30 4904 O 478.899 1.63692 3.66835 0
M  V30 4905 N 477.105 1.73012 2.33485 0
M  V30 4906 H 476.652 2.08439 1.51364 0
M  V30 4907 H 476.61 1.10965 2.94167 0
M  V30 4908 N 480.382 0.0267497 1.57577 0
M  V30 4909 C 481.312 -0.954308 2.13108 0
M  V30 4910 C 482.293 -1.34088 1.04663 0
M  V30 4911 O 483.478 -1.41992 1.32484 0
M  V30 4912 C 480.608 -2.23744 2.65624 0
M  V30 4913 C 479.562 -1.99168 3.78835 0
M  V30 4914 C 478.888 -3.33726 4.17769 0
M  V30 4915 C 480.188 -1.33277 5.0501 0
M  V30 4916 H 481.882 -0.491848 2.95332 0
M  V30 4917 H 479.428 -0.23514 1.42067 0
M  V30 4918 H 481.381 -2.92754 3.03106 0
M  V30 4919 H 480.105 -2.72151 1.80558 0
M  V30 4920 H 478.764 -1.32577 3.41788 0
M  V30 4921 H 478.412 -3.79888 3.29688 0
M  V30 4922 H 478.112 -3.18089 4.94058 0
M  V30 4923 H 479.636 -4.04008 4.57832 0
M  V30 4924 H 481.05 -1.92283 5.40093 0
M  V30 4925 H 479.447 -1.28045 5.8628 0
M  V30 4926 H 480.517 -0.305411 4.83937 0
M  V30 4927 N 481.861 -1.55662 -0.24637 0
M  V30 4928 C 483.11 -1.7672 -0.972254 0
M  V30 4929 C 483.423 -0.59078 -1.86465 0
M  V30 4930 O 484.629 -0.684391 -2.62732 0
M  V30 4931 C 483.085 -3.12869 -1.7788 0
M  V30 4932 C 482.693 -4.38161 -0.933768 0
M  V30 4933 C 484.437 -3.43265 -2.49738 0
M  V30 4934 C 482.344 -5.6534 -1.73623 0
M  V30 4935 H 481.274 -0.658795 -0.366749 0
M  V30 4936 H 483.925 -1.82092 -0.226902 0
M  V30 4937 H 482.307 -3.01606 -2.56612 0
M  V30 4938 H 483.481 -4.60413 -0.188736 0
M  V30 4939 H 481.796 -4.15102 -0.328488 0
M  V30 4940 H 484.393 -4.35501 -3.10231 0
M  V30 4941 H 484.736 -2.64614 -3.2138 0
M  V30 4942 H 485.269 -3.55746 -1.78016 0
M  V30 4943 H 482.008 -6.46814 -1.06354 0
M  V30 4944 H 481.528 -5.47188 -2.45653 0
M  V30 4945 H 483.207 -6.04616 -2.30323 0
M  V30 4946 N 483.339 0.512053 -1.4905 0
M  V30 4947 C 484.249 1.64139 -1.67617 0
M  V30 4948 C 485.265 1.64786 -0.558701 0
M  V30 4949 O 486.441 1.8341 -0.832034 0
M  V30 4950 C 483.506 3.00548 -1.72835 0
M  V30 4951 C 482.567 3.10615 -2.96339 0
M  V30 4952 C 481.8 4.40517 -3.01298 0
M  V30 4953 O 482.023 5.28671 -2.14157 0
M  V30 4954 O 480.957 4.55325 -3.93653 0
M  V30 4955 H 484.783 1.51407 -2.63267 0
M  V30 4956 H 482.368 0.687131 -1.32661 0
M  V30 4957 H 484.25 3.81641 -1.78683 0
M  V30 4958 H 482.925 3.13566 -0.803616 0
M  V30 4959 H 481.832 2.2875 -2.96014 0
M  V30 4960 H 483.165 3.0252 -3.88256 0
M  V30 4961 N 484.817 1.37938 0.762283 0
M  V30 4962 C 485.78 1.34279 1.85747 0
M  V30 4963 C 486.78 0.244969 1.58923 0
M  V30 4964 O 487.97 0.501365 1.66829 0
M  V30 4965 C 485.102 1.08833 3.23061 0
M  V30 4966 H 486.295 2.31705 1.90401 0
M  V30 4967 H 483.848 1.23105 0.963057 0
M  V30 4968 H 484.583 0.119767 3.24079 0
M  V30 4969 H 484.368 1.88306 3.43923 0
M  V30 4970 H 485.858 1.08946 4.03138 0
M  V30 4971 N 486.295 -0.989507 1.22664 0
M  V30 4972 C 487.542 -1.72953 1.05325 0
M  V30 4973 C 487.87 -1.90104 -0.411168 0
M  V30 4974 O 487.125 -1.44386 -1.32103 0
M  V30 4975 C 487.424 -3.13649 1.71345 0
M  V30 4976 C 487.09 -3.16403 3.21248 0
M  V30 4977 C 485.752 -3.16862 3.62149 0
M  V30 4978 C 488.104 -3.12428 4.17179 0
M  V30 4979 C 485.432 -3.11051 4.97458 0
M  V30 4980 C 487.784 -3.08159 5.52468 0
M  V30 4981 C 486.448 -3.06935 5.92746 0
M  V30 4982 H 485.718 -0.632881 0.385412 0
M  V30 4983 H 488.365 -1.15863 1.52473 0
M  V30 4984 H 486.67 -3.74069 1.16532 0
M  V30 4985 H 488.367 -3.69658 1.55416 0
M  V30 4986 H 484.957 -3.16798 2.88682 0
M  V30 4987 H 489.141 -3.11221 3.86595 0
M  V30 4988 H 484.397 -3.0845 5.27891 0
M  V30 4989 H 488.571 -3.04039 6.26525 0
M  V30 4990 H 486.198 -3.02186 6.97558 0
M  V30 4991 N 487.773 -1.03688 -1.18687 0
M  V30 4992 C 488.683 -0.634908 -2.25845 0
M  V30 4993 C 489.699 0.337065 -1.70704 0
M  V30 4994 O 490.875 0.192943 -2.00474 0
M  V30 4995 C 487.94 -0.000180054 -3.467 0
M  V30 4996 C 487.001 -1.02067 -4.1699 0
M  V30 4997 C 486.234 -0.41614 -5.32075 0
M  V30 4998 O 486.457 0.778712 -5.65059 0
M  V30 4999 O 485.391 -1.14296 -5.90948 0
M  V30 5000 H 489.217 -1.52757 -2.62486 0
M  V30 5001 H 486.802 -0.807533 -1.25695 0
M  V30 5002 H 488.684 0.353342 -4.19916 0
M  V30 5003 H 487.359 0.866367 -3.11891 0
M  V30 5004 H 486.266 -1.42592 -3.45859 0
M  V30 5005 H 487.599 -1.85786 -4.5579 0
M  V30 5006 N 489.251 1.34841 -0.815825 0
M  V30 5007 C 490.181 2.32187 -0.247298 0
M  V30 5008 C 491.162 1.5791 0.632344 0
M  V30 5009 O 492.347 1.8593 0.560698 0
M  V30 5010 C 489.477 3.42122 0.597466 0
M  V30 5011 C 488.431 4.27602 -0.184446 0
M  V30 5012 C 487.757 5.28942 0.782609 0
M  V30 5013 C 489.057 5.03502 -1.38865 0
M  V30 5014 H 490.751 2.79985 -1.06061 0
M  V30 5015 H 488.297 1.34611 -0.511461 0
M  V30 5016 H 490.25 4.09232 1.00533 0
M  V30 5017 H 488.974 2.92956 1.44376 0
M  V30 5018 H 487.633 3.62085 -0.573592 0
M  V30 5019 H 487.281 4.7604 1.62466 0
M  V30 5020 H 486.981 5.87008 0.263695 0
M  V30 5021 H 488.505 5.98922 1.18848 0
M  V30 5022 H 489.919 5.63506 -1.05518 0
M  V30 5023 H 488.316 5.71108 -1.8427 0
M  V30 5024 H 489.386 4.33608 -2.17054 0
M  V30 5025 N 490.729 0.570148 1.46925 0
M  V30 5026 C 491.977 0.0508523 2.02036 0
M  V30 5027 C 492.298 -1.30885 1.44548 0
M  V30 5028 O 491.568 -1.85647 0.625453 0
M  V30 5029 H 490.148 0.0158088 0.746833 0
M  V30 5030 H 492.81 0.743086 1.80178 0
M  V30 5031 H 491.906 -0.027575 3.12088 0
M  V30 5032 N 492.207 -1.54576 0.307264 0
M  V30 5033 C 493.17 -2.22423 -0.553224 0
M  V30 5034 C 494.17 -1.21231 -1.05639 0
M  V30 5035 O 495.36 -1.45923 -0.951419 0
M  V30 5036 C 492.492 -2.91552 -1.76664 0
M  V30 5037 H 493.685 -2.99874 0.0396484 0
M  V30 5038 H 491.238 -1.56192 0.0581629 0
M  V30 5039 H 491.973 -2.18196 -2.39918 0
M  V30 5040 H 491.758 -3.65738 -1.41343 0
M  V30 5041 H 493.248 -3.43292 -2.37783 0
M  V30 5042 N 493.685 -0.035106 -1.57561 0
M  V30 5043 C 494.648 0.929819 -2.09492 0
M  V30 5044 C 495.648 1.25026 -1.01119 0
M  V30 5045 O 496.838 1.18961 -1.27255 0
M  V30 5046 C 493.97 2.24457 -2.56577 0
M  V30 5047 H 495.163 0.479935 -2.96035 0
M  V30 5048 H 492.716 0.213033 -1.54841 0
M  V30 5049 H 493.451 2.74061 -1.73382 0
M  V30 5050 H 493.236 2.02508 -3.35757 0
M  V30 5051 H 494.726 2.93607 -2.96959 0
M  V30 5052 N 495.163 1.55791 0.238111 0
M  V30 5053 C 496.411 1.77681 0.963001 0
M  V30 5054 C 496.732 0.600674 1.85518 0
M  V30 5055 O 496.002 -0.383182 1.92116 0
M  V30 5056 H 494.582 0.655315 0.358568 0
M  V30 5057 H 497.244 1.93239 0.253945 0
M  V30 5058 H 496.34 2.69177 1.57956 0
M  V30 5059 N 496.642 -0.504142 1.49319 0
M  V30 5060 C 497.592 -1.60284 1.62151 0
M  V30 5061 C 498.576 -1.53657 0.477315 0
M  V30 5062 O 499.768 -1.6124 0.730108 0
M  V30 5063 C 496.897 -2.98909 1.68844 0
M  V30 5064 C 495.983 -3.10544 2.8883 0
M  V30 5065 N 496.374 -2.92078 4.12946 0
M  V30 5066 C 494.672 -3.4164 2.86702 0
M  V30 5067 C 495.373 -3.07812 4.93585 0
M  V30 5068 N 494.349 -3.36549 4.26891 0
M  V30 5069 H 498.151 -1.44656 2.55835 0
M  V30 5070 H 495.665 -0.710198 1.46048 0
M  V30 5071 H 497.662 -3.77865 1.76134 0
M  V30 5072 H 496.322 -3.15609 0.762943 0
M  V30 5073 H 497.333 -2.68316 4.42975 0
M  V30 5074 H 494.01 -3.64537 2.03517 0
M  V30 5075 H 495.4 -2.98054 6.02174 0
M  V30 5076 N 498.12 -1.38341 -0.754957 0
M  V30 5077 C 499.369 -1.33791 -1.5094 0
M  V30 5078 C 499.682 0.0699267 -1.95475 0
M  V30 5079 O 500.888 0.237956 -2.70455 0
M  V30 5080 C 499.344 -2.34934 -2.72643 0
M  V30 5081 C 498.952 -3.81332 -2.35138 0
M  V30 5082 C 500.696 -2.39425 -3.50536 0
M  V30 5083 C 498.603 -4.74164 -3.53444 0
M  V30 5084 H 497.533 -0.497314 -0.566741 0
M  V30 5085 H 500.184 -1.63888 -0.825403 0
M  V30 5086 H 498.566 -1.97878 -3.43017 0
M  V30 5087 H 499.74 -4.27319 -1.7244 0
M  V30 5088 H 498.055 -3.79946 -1.70382 0
M  V30 5089 H 500.652 -3.0598 -4.38498 0
M  V30 5090 H 500.995 -1.41278 -3.91594 0
M  V30 5091 H 501.528 -2.75274 -2.87174 0
M  V30 5092 H 498.267 -5.73501 -3.17453 0
M  V30 5093 H 497.787 -4.3287 -4.15191 0
M  V30 5094 H 499.466 -4.92111 -4.20043 0
M  V30 5095 N 499.598 0.982988 -1.23187 0
M  V30 5096 C 500.545 2.07491 -1.01075 0
M  V30 5097 C 501.515 1.65949 0.070905 0
M  V30 5098 O 502.7 1.90629 -0.0806822 0
M  V30 5099 C 499.84 3.39751 -0.605261 0
M  V30 5100 C 498.953 3.94578 -1.75876 0
M  V30 5101 C 498.088 5.15039 -1.3003 0
M  V30 5102 C 497.127 5.62027 -2.42472 0
M  V30 5103 N 496.264 6.73719 -1.97602 0
M  V30 5104 H 501.104 2.25739 -1.9454 0
M  V30 5105 H 498.641 1.10659 -0.969179 0
M  V30 5106 H 500.599 4.15719 -0.351279 0
M  V30 5107 H 499.229 3.21473 0.292382 0
M  V30 5108 H 498.281 3.1539 -2.12681 0
M  V30 5109 H 499.593 4.25422 -2.60418 0
M  V30 5110 H 498.747 5.9833 -1.00429 0
M  V30 5111 H 497.486 4.85843 -0.425216 0
M  V30 5112 H 496.491 4.77318 -2.7285 0
M  V30 5113 H 497.716 5.93244 -3.30512 0
M  V30 5114 H 495.662 6.46287 -1.1247 0
M  V30 5115 H 495.579 7.03934 -2.75705 0
M  V30 5116 H 496.847 7.6049 -1.71098 0
M  V30 5117 N 501.076 1.04316 1.18135 0
M  V30 5118 C 502.322 0.749128 1.88457 0
M  V30 5119 C 502.655 -0.72149 1.803 0
M  V30 5120 O 501.93 -1.52676 1.205 0
M  V30 5121 C 502.213 1.21905 3.38838 0
M  V30 5122 C 502.066 2.75195 3.55792 0
M  V30 5123 C 503.385 0.811085 4.32561 0
M  V30 5124 H 500.504 0.273611 0.684329 0
M  V30 5125 H 503.146 1.29561 1.38975 0
M  V30 5126 H 501.296 0.754137 3.8111 0
M  V30 5127 H 502.968 3.29743 3.22595 0
M  V30 5128 H 501.211 3.14899 2.98364 0
M  V30 5129 H 501.882 3.03135 4.61317 0
M  V30 5130 H 504.358 1.21118 3.98082 0
M  V30 5131 H 503.234 1.16761 5.36338 0
M  V30 5132 H 503.495 -0.285596 4.41177 0
M  V30 5133 N 502.554 -1.34406 0.822964 0
M  V30 5134 C 503.464 -2.33298 0.246838 0
M  V30 5135 C 504.48 -1.62625 -0.618797 0
M  V30 5136 O 505.656 -1.94391 -0.526685 0
M  V30 5137 C 502.721 -3.41785 -0.581731 0
M  V30 5138 C 501.782 -4.28206 0.306309 0
M  V30 5139 C 501.015 -5.31512 -0.48281 0
M  V30 5140 O 501.238 -5.43973 -1.71607 0
M  V30 5141 O 500.172 -6.01749 0.134884 0
M  V30 5142 H 503.998 -2.84401 1.06534 0
M  V30 5143 H 501.583 -1.37466 0.585108 0
M  V30 5144 H 503.465 -4.08028 -1.05313 0
M  V30 5145 H 502.14 -2.92925 -1.37756 0
M  V30 5146 H 501.047 -3.64885 0.825199 0
M  V30 5147 H 502.38 -4.80507 1.06649 0
M  V30 5148 N 504.032 -0.577932 -1.46621 0
M  V30 5149 C 505.28 -0.061566 -2.02006 0
M  V30 5150 C 505.601 1.30117 -1.4524 0
M  V30 5151 O 504.871 1.85313 -0.63529 0
M  V30 5152 H 503.451 -0.0197692 -0.746738 0
M  V30 5153 H 506.113 -0.752631 -1.79782 0
M  V30 5154 H 505.209 0.0110238 -3.12098 0
M  V30 5155 N 505.51 1.54411 -0.315457 0
M  V30 5156 C 506.457 2.24048 0.554166 0
M  V30 5157 C 507.427 1.2283 1.11812 0
M  V30 5158 O 508.612 1.51491 1.15997 0
M  V30 5159 C 505.752 2.99574 1.71316 0
M  V30 5160 C 504.865 4.15594 1.17922 0
M  V30 5161 C 504 4.78669 2.30324 0
M  V30 5162 C 503.039 5.86807 1.74137 0
M  V30 5163 N 502.176 6.43777 2.8017 0
M  V30 5164 H 507.016 2.97964 -0.0462602 0
M  V30 5165 H 504.553 1.47059 -0.0346009 0
M  V30 5166 H 506.511 3.41604 2.39505 0
M  V30 5167 H 505.141 2.28008 2.285 0
M  V30 5168 H 504.193 3.78404 0.389136 0
M  V30 5169 H 505.505 4.93459 0.728012 0
M  V30 5170 H 504.659 5.23626 3.06433 0
M  V30 5171 H 503.398 4.00168 2.78778 0
M  V30 5172 H 502.403 5.41261 0.965236 0
M  V30 5173 H 503.628 6.67201 1.2657 0
M  V30 5174 H 501.574 5.68153 3.2793 0
M  V30 5175 H 501.491 7.17031 2.39588 0
M  V30 5176 H 502.759 6.9339 3.56132 0
M  V30 5177 N 506.988 0.0434614 1.5754 0
M  V30 5178 C 508.234 -0.627109 1.93491 0
M  V30 5179 C 508.589 -1.68904 0.921362 0
M  V30 5180 O 507.882 -1.91504 -0.0605799 0
M  V30 5181 C 508.076 -1.2738 3.3393 0
M  V30 5182 C 507.905 -0.27603 4.48852 0
M  V30 5183 C 506.675 0.129244 5.05135 0
M  V30 5184 C 508.873 0.475462 5.12098 0
M  V30 5185 N 506.855 1.12068 6.03584 0
M  V30 5186 C 508.226 1.32021 6.05781 0
M  V30 5187 C 510.281 0.534611 4.95022 0
M  V30 5188 C 508.984 2.2188 6.84223 0
M  V30 5189 C 511.01 1.42059 5.74085 0
M  V30 5190 C 510.372 2.25309 6.67394 0
M  V30 5191 H 506.471 -0.201354 0.755633 0
M  V30 5192 H 509.055 0.113991 1.94366 0
M  V30 5193 H 507.226 -1.98496 3.33847 0
M  V30 5194 H 508.958 -1.90255 3.57191 0
M  V30 5195 H 505.713 -0.248145 4.72949 0
M  V30 5196 H 506.137 1.61306 6.57502 0
M  V30 5197 H 510.779 -0.0947817 4.22694 0
M  V30 5198 H 508.497 2.85868 7.55847 0
M  V30 5199 H 512.083 1.47083 5.62901 0
M  V30 5200 H 510.963 2.92754 7.27506 0
M  V30 5201 N 508.466 -1.55915 -0.229846 0
M  V30 5202 C 509.414 -1.9258 -1.30444 0
M  V30 5203 C 510.408 -0.806839 -1.48951 0
M  V30 5204 O 511.614 -0.991606 -1.50224 0
M  V30 5205 H 507.989 -0.611878 -0.437161 0
M  V30 5206 H 509.96 -2.82264 -0.96797 0
M  V30 5207 C 508.709 -2.25171 -2.6494 0
M  V30 5208 H 508.032 -3.10782 -2.51504 0
M  V30 5209 H 509.472 -2.54716 -3.38963 0
M  V30 5210 C 507.931 -1.07394 -3.19324 0
M  V30 5211 O 508.461 -0.330759 -4.00336 0
M  V30 5212 N 506.667 -0.859984 -2.77584 0
M  V30 5213 H 506.214 -1.46605 -2.11813 0
M  V30 5214 H 506.172 -0.0736671 -3.14314 0
M  V30 5215 N 509.944 0.496216 -1.49584 0
M  V30 5216 C 511.221 1.25755 -1.49816 0
M  V30 5217 C 511.601 2.09859 -0.228572 0
M  V30 5218 O 510.949 2.14449 0.788908 0
M  V30 5219 C 511.159 2.11017 -2.7798 0
M  V30 5220 C 512.507 2.70047 -3.27658 0
M  V30 5221 O 513.531 2.21281 -2.79129 0
M  V30 5222 O 512.39 3.58834 -4.1219 0
M  V30 5223 H 509.484 0.569322 -0.599834 0
M  V30 5224 H 512.03 0.510094 -1.61852 0
M  V30 5225 H 510.802 1.48879 -3.61871 0
M  V30 5226 H 510.425 2.92947 -2.68827 0
M  V30 5227 N 511.423 1.38739 0.74761 0
M  V30 5228 C 512.7 1.25791 1.49786 0
M  V30 5229 C 513.08 -0.138075 2.10648 0
M  V30 5230 O 512.428 -1.14815 1.9756 0
M  V30 5231 C 512.638 2.37265 2.55942 0
M  V30 5232 C 513.986 2.75978 3.22679 0
M  V30 5233 O 515.01 2.36621 2.6625 0
M  V30 5234 O 513.869 3.43867 4.24756 0
M  V30 5235 H 510.963 0.492251 0.664543 0
M  V30 5236 H 513.509 1.50582 0.782511 0
M  V30 5237 H 512.281 3.30644 2.0926 0
M  V30 5238 H 511.904 2.14071 3.35051 0
M  V30 5239 N 512.901 -0.976442 1.23707 0
M  V30 5240 C 513.831 -2.08749 1.04624 0
M  V30 5241 C 514.812 -1.70057 -0.0380956 0
M  V30 5242 O 515.997 -1.93782 0.127308 0
M  V30 5243 C 513.127 -3.41335 0.640902 0
M  V30 5244 C 512.081 -3.93947 1.67302 0
M  V30 5245 C 511.407 -5.22774 1.12301 0
M  V30 5246 C 512.707 -4.22769 3.06697 0
M  V30 5247 H 514.401 -2.24972 1.97555 0
M  V30 5248 H 511.947 -1.08108 0.951247 0
M  V30 5249 H 513.9 -4.18489 0.494434 0
M  V30 5250 H 512.624 -3.24988 -0.324099 0
M  V30 5251 H 511.283 -3.18941 1.80755 0
M  V30 5252 H 510.931 -5.0278 0.148877 0
M  V30 5253 H 510.631 -5.58942 1.81267 0
M  V30 5254 H 512.155 -6.02546 0.988479 0
M  V30 5255 H 513.569 -4.90659 2.96524 0
M  V30 5256 H 511.966 -4.70147 3.72937 0
M  V30 5257 H 513.036 -3.29885 3.55392 0
M  V30 5258 N 514.379 -1.04941 -1.1758 0
M  V30 5259 C 515.312 -0.592518 -2.20373 0
M  V30 5260 C 516.29 0.377561 -1.58156 0
M  V30 5261 O 517.474 0.28978 -1.86259 0
M  V30 5262 C 514.601 0.133215 -3.38438 0
M  V30 5263 C 513.647 -0.791484 -4.19092 0
M  V30 5264 S 514.48 -2.27925 -4.84572 0
M  V30 5265 C 515.636 -1.56462 -6.06028 0
M  V30 5266 H 515.869 -1.46342 -2.58788 0
M  V30 5267 H 513.402 -0.861148 -1.28155 0
M  V30 5268 H 515.36 0.545746 -4.06856 0
M  V30 5269 H 514.021 0.980124 -2.98416 0
M  V30 5270 H 513.214 -0.230039 -5.03475 0
M  V30 5271 H 512.816 -1.14326 -3.56098 0
M  V30 5272 H 515.108 -0.862539 -6.71987 0
M  V30 5273 H 516.051 -2.38583 -6.66696 0
M  V30 5274 H 516.459 -1.05313 -5.5459 0
M  V30 5275 N 515.857 1.33968 -0.830081 0
M  V30 5276 C 516.804 2.29387 -0.255008 0
M  V30 5277 C 517.774 1.53923 0.624243 0
M  V30 5278 O 518.959 1.82262 0.564372 0
M  V30 5279 C 516.099 3.4034 0.571209 0
M  V30 5280 C 515.212 4.30729 -0.331083 0
M  V30 5281 C 514.347 5.2879 0.505389 0
M  V30 5282 C 513.386 6.10819 -0.395843 0
M  V30 5283 N 512.523 7.00948 0.401979 0
M  V30 5284 H 517.363 2.77972 -1.07404 0
M  V30 5285 H 514.9 1.36785 -0.541133 0
M  V30 5286 H 516.858 4.03361 1.06562 0
M  V30 5287 H 515.488 2.9297 1.35529 0
M  V30 5288 H 514.54 3.68507 -0.943759 0
M  V30 5289 H 515.852 4.88181 -1.02377 0
M  V30 5290 H 515.006 5.97297 1.06399 0
M  V30 5291 H 513.745 4.71894 1.23155 0
M  V30 5292 H 512.75 5.41238 -0.966529 0
M  V30 5293 H 513.975 6.69797 -1.12023 0
M  V30 5294 H 511.921 6.46512 1.11168 0
M  V30 5295 H 511.838 7.55643 -0.232167 0
M  V30 5296 H 513.106 7.73774 0.943102 0
M  V30 5297 N 517.335 0.585699 1.46312 0
M  V30 5298 C 518.267 -0.183687 2.28463 0
M  V30 5299 C 519.28 -0.85264 1.38686 0
M  V30 5300 O 520.469 -0.721701 1.6326 0
M  V30 5301 C 517.569 -1.27977 3.13808 0
M  V30 5302 C 516.742 -0.702164 4.31727 0
M  V30 5303 C 515.801 -1.68633 4.98447 0
M  V30 5304 O 514.827 -1.22121 5.55945 0
M  V30 5305 N 516.029 -3.02047 4.95729 0
M  V30 5306 H 518.794 0.521127 2.95134 0
M  V30 5307 H 516.355 0.423673 1.56258 0
M  V30 5308 H 518.347 -1.9375 3.55307 0
M  V30 5309 H 516.917 -1.8874 2.4919 0
M  V30 5310 H 516.137 0.1331 3.93975 0
M  V30 5311 H 517.425 -0.296101 5.07938 0
M  V30 5312 H 516.823 -3.42457 4.50266 0
M  V30 5313 H 515.38 -3.63301 5.41161 0
M  V30 5314 N 518.813 -1.54241 0.323641 0
M  V30 5315 C 520.062 -1.9975 -0.279806 0
M  V30 5316 C 520.375 -1.2156 -1.5324 0
M  V30 5317 O 521.581 -1.57447 -2.21185 0
M  V30 5318 C 520.037 -3.55686 -0.549115 0
M  V30 5319 C 519.645 -4.4271 0.686432 0
M  V30 5320 C 521.389 -4.09663 -1.11251 0
M  V30 5321 C 519.296 -5.90119 0.389022 0
M  V30 5322 H 518.226 -0.746177 -0.10833 0
M  V30 5323 H 520.877 -1.78248 0.435877 0
M  V30 5324 H 519.259 -3.73176 -1.32499 0
M  V30 5325 H 520.433 -4.36996 1.46188 0
M  V30 5326 H 518.748 -3.99623 1.17005 0
M  V30 5327 H 521.345 -5.17386 -1.34965 0
M  V30 5328 H 521.688 -3.61651 -2.06191 0
M  V30 5329 H 522.221 -3.95806 -0.39782 0
M  V30 5330 H 518.96 -6.42326 1.30759 0
M  V30 5331 H 518.48 -5.98785 -0.348722 0
M  V30 5332 H 520.159 -6.47 -0.0011164 0
M  V30 5333 N 520.291 -0.0518155 -1.57515 0
M  V30 5334 C 521.238 0.922352 -2.11569 0
M  V30 5335 C 522.208 1.30842 -1.02321 0
M  V30 5336 O 523.393 1.39778 -1.29872 0
M  V30 5337 C 520.533 2.19167 -2.6657 0
M  V30 5338 C 519.646 1.86003 -3.89906 0
M  V30 5339 C 518.781 3.07398 -4.33221 0
M  V30 5340 C 517.82 2.70158 -5.49255 0
M  V30 5341 N 516.957 3.84248 -5.8762 0
M  V30 5342 H 521.797 0.454506 -2.94514 0
M  V30 5343 H 519.334 0.212718 -1.45554 0
M  V30 5344 H 521.292 2.93443 -2.96559 0
M  V30 5345 H 519.922 2.63528 -1.86421 0
M  V30 5346 H 518.974 1.01874 -3.66505 0
M  V30 5347 H 520.286 1.54592 -4.74239 0
M  V30 5348 H 519.44 3.89972 -4.64765 0
M  V30 5349 H 518.179 3.41988 -3.477 0
M  V30 5350 H 517.184 1.86001 -5.17382 0
M  V30 5351 H 518.409 2.36759 -6.36492 0
M  V30 5352 H 516.355 4.18638 -5.05053 0
M  V30 5353 H 516.272 3.56538 -6.66646 0
M  V30 5354 H 517.54 4.6746 -6.2378 0
M  V30 5355 N 521.769 1.56035 0.221574 0
M  V30 5356 C 522.732 1.91584 1.2581 0
M  V30 5357 C 523.732 0.794425 1.39805 0
M  V30 5358 O 524.922 1.06217 1.38071 0
M  V30 5359 C 522.054 2.16663 2.63192 0
M  V30 5360 H 523.247 2.8429 0.954935 0
M  V30 5361 H 520.8 1.49316 0.461988 0
M  V30 5362 H 521.535 1.26508 2.98607 0
M  V30 5363 H 521.32 2.98358 2.5441 0
M  V30 5364 H 522.81 2.45262 3.37988 0
M  V30 5365 N 523.247 -0.488276 1.49845 0
M  V30 5366 C 524.658 -1.06955 1.53028 0
M  V30 5367 C 525.009 -1.9351 0.323797 0
M  V30 5368 O 524.134 -2.08891 -0.565116 0
M  V30 5369 C 524.729 -1.94643 2.77307 0
M  V30 5370 C 523.288 -2.4791 2.83227 0
M  V30 5371 C 522.435 -1.25833 2.47106 0
M  V30 5372 H 525.386 -0.271626 1.56358 0
M  V30 5373 H 525.407 -2.79496 2.5819 0
M  V30 5374 H 524.919 -1.31621 3.65099 0
M  V30 5375 H 523.02 -3.14535 1.99745 0
M  V30 5376 H 523.133 -2.84193 3.85709 0
M  V30 5377 H 521.497 -1.58764 1.99163 0
M  V30 5378 H 522.28 -0.644993 3.37186 0
M  V30 5379 N 524.725 -1.39134 -0.740242 0
M  V30 5380 C 525.688 -1.37217 -1.83587 0
M  V30 5381 C 526.688 -0.270221 -1.58513 0
M  V30 5382 O 527.878 -0.527843 -1.6601 0
M  V30 5383 C 525.01 -1.13959 -3.21288 0
M  V30 5384 H 526.203 -2.34705 -1.86691 0
M  V30 5385 H 523.756 -1.24622 -0.94335 0
M  V30 5386 H 524.491 -0.17131 -3.23847 0
M  V30 5387 H 524.276 -1.93754 -3.40884 0
M  V30 5388 H 525.766 -1.15346 -4.01354 0
M  V30 5389 N 526.204 0.969867 -1.24223 0
M  V30 5390 C 527.615 1.52717 -1.07399 0
M  V30 5391 C 527.966 1.92956 0.355298 0
M  V30 5392 O 527.091 1.77112 1.2434 0
M  V30 5393 C 527.686 2.77521 -1.94339 0
M  V30 5394 C 526.245 3.29615 -1.81744 0
M  V30 5395 C 525.392 2.02537 -1.89405 0
M  V30 5396 H 528.343 0.788399 -1.37732 0
M  V30 5397 H 528.364 3.50773 -1.47439 0
M  V30 5398 H 527.876 2.48203 -2.98357 0
M  V30 5399 H 525.977 3.63789 -0.805505 0
M  V30 5400 H 526.09 3.98661 -2.65718 0
M  V30 5401 H 524.454 2.17151 -1.33108 0
M  V30 5402 H 525.237 1.75587 -2.94999 0
M  V30 5403 N 527.682 1.05563 1.17022 0
M  V30 5404 C 528.931 0.763036 1.8671 0
M  V30 5405 C 529.244 -0.712857 1.82147 0
M  V30 5406 O 530.45 -1.11955 2.47343 0
M  V30 5407 C 528.906 1.31474 3.35026 0
M  V30 5408 C 528.514 2.82034 3.48081 0
M  V30 5409 C 530.258 1.09935 4.10018 0
M  V30 5410 C 528.165 3.30486 4.90442 0
M  V30 5411 H 527.095 0.281747 0.699382 0
M  V30 5412 H 529.746 1.2734 1.32124 0
M  V30 5413 H 528.128 0.732171 3.89173 0
M  V30 5414 H 529.302 3.46178 3.04133 0
M  V30 5415 H 527.617 3.02156 2.86515 0
M  V30 5416 H 530.214 1.43632 5.15048 0
M  V30 5417 H 530.557 0.0373072 4.16283 0
M  V30 5418 H 531.09 1.64732 3.62089 0
M  V30 5419 H 527.829 4.36137 4.89352 0
M  V30 5420 H 527.349 2.71086 5.35044 0
M  V30 5421 H 529.028 3.25382 5.59227 0
M  V30 5422 N 529.16 -1.33526 0.837174 0
M  V30 5423 C 530.571 -1.80182 0.489017 0
M  V30 5424 C 530.922 -1.69285 -0.991826 0
M  V30 5425 O 530.047 -1.24113 -1.77271 0
M  V30 5426 C 530.642 -3.27149 0.880866 0
M  V30 5427 C 529.201 -3.71828 0.584872 0
M  V30 5428 C 528.348 -2.54974 1.09011 0
M  V30 5429 H 531.299 -1.21071 1.02603 0
M  V30 5430 H 531.32 -3.80024 0.190239 0
M  V30 5431 H 530.832 -3.35048 1.95869 0
M  V30 5432 H 528.933 -3.69457 -0.48295 0
M  V30 5433 H 529.046 -4.65366 1.13892 0
M  V30 5434 H 527.41 -2.4952 0.511047 0
M  V30 5435 H 528.193 -2.65637 2.17467 0
M  V30 5436 N 530.638 -0.59345 -1.46 0
M  V30 5437 C 532.054 -0.255965 -1.57534 0
M  V30 5438 C 532.254 1.24167 -1.58697 0
M  V30 5439 O 531.31 2.02398 -1.50968 0
M  V30 5440 C 532.623 -0.91466 -2.86451 0
M  V30 5441 C 534.171 -0.889253 -3.00102 0
M  V30 5442 C 534.646 -1.52769 -4.3177 0
M  V30 5443 N 536.137 -1.49253 -4.38495 0
M  V30 5444 C 536.872 -1.9558 -5.39014 0
M  V30 5445 N 536.368 -2.49929 -6.46148 0
M  V30 5446 N 538.161 -1.86432 -5.30282 0
M  V30 5447 H 530.312 -1.56604 -1.43489 0
M  V30 5448 H 532.575 -0.655207 -0.685133 0
M  V30 5449 H 532.281 -1.96861 -2.91442 0
M  V30 5450 H 532.155 -0.429356 -3.74748 0
M  V30 5451 H 534.542 0.156111 -2.94687 0
M  V30 5452 H 534.623 -1.41268 -2.13253 0
M  V30 5453 H 534.267 -2.57231 -4.37944 0
M  V30 5454 H 534.197 -0.979398 -5.17412 0
M  V30 5455 H 536.688 -1.09536 -3.61677 0
M  V30 5456 H 537.001 -2.83109 -7.19075 0
M  V30 5457 H 535.346 -2.53961 -6.46938 0
M  V30 5458 H 538.537 -1.43722 -4.4549 0
M  V30 5459 H 538.71 -2.22852 -6.08474 0
M  V30 5460 O 532.155 1.54388 -0.473979 0
M  V30 5461 H 532.846 1.93634 0.0506067 0
M  V30 END ATOM
M  V30 BEGIN BOND
M  V30 END BOND
M  V30 END CTAB
M  END
$$$$
