drugbank_target|O67636 Prephenate dehydrogenase (DB03897; DB07718)
 OpenBabel12092120463D

  0  0  0     0  0            999 V3000
M  V30 BEGIN CTAB
M  V30 COUNTS 4977 5025 0 0 0
M  V30 BEGIN ATOM
M  V30 1 H -0.908 1.98254 -0.117106 0
M  V30 2 N 0 1.576 0 0
M  V30 3 C 0.933 2.03868 1.02534 0
M  V30 4 C 1.911 0.928543 1.3348 0
M  V30 5 O 3.095 1.19667 1.45644 0
M  V30 6 C 0.222 2.43627 2.35294 0
M  V30 7 C -0.732 3.65373 2.2001 0
M  V30 8 S 0.101 5.13292 1.52614 0
M  V30 9 C 1.257 5.56322 2.86805 0
M  V30 10 H 1.49 2.90518 0.631377 0
M  V30 11 H -0.977 1.52953 0.210867 0
M  V30 12 H 0.981 2.67203 3.11629 0
M  V30 13 H -0.358 1.57376 2.7183 0
M  V30 14 H -1.165 3.90944 3.18086 0
M  V30 15 H -1.563 3.418 1.51819 0
M  V30 16 H 0.729 5.58782 3.83104 0
M  V30 17 H 1.672 6.56266 2.65933 0
M  V30 18 H 2.08 4.83886 2.90714 0
M  V30 19 N 1.4781 -0.272755 1.55222 0
M  V30 20 C 2.4411 -1.32041 1.87344 0
M  V30 21 C 3.4411 -1.42342 0.74803 0
M  V30 22 O 4.6311 -1.41488 1.0162 0
M  V30 23 C 1.7631 -2.70173 2.07893 0
M  V30 24 H 2.9561 -1.04789 2.80997 0
M  V30 25 H 0.5091 -0.51083 1.47717 0
M  V30 26 H 1.2441 -3.02605 1.16622 0
M  V30 27 H 1.0291 -2.64082 2.89833 0
M  V30 28 H 2.5191 -3.45869 2.34017 0
M  V30 29 N 2.9562 -1.48159 -0.537278 0
M  V30 30 C 4.2052 -1.5506 -1.28993 0
M  V30 31 C 4.5182 -0.226211 -1.94288 0
M  V30 32 O 5.7242 -0.173395 -2.70946 0
M  V30 33 C 4.1802 -2.73429 -2.34018 0
M  V30 34 C 3.7882 -4.1248 -1.74825 0
M  V30 35 C 5.5322 -2.89638 -3.10339 0
M  V30 36 C 3.4392 -5.22121 -2.77747 0
M  V30 37 H 2.3692 -0.577231 -0.485098 0
M  V30 38 H 5.0202 -1.74478 -0.568317 0
M  V30 39 H 3.4022 -2.47431 -3.09182 0
M  V30 40 H 4.5762 -4.48466 -1.05899 0
M  V30 41 H 2.8912 -4.01327 -1.11022 0
M  V30 42 H 5.4882 -3.68718 -3.87235 0
M  V30 43 H 5.8312 -1.9882 -3.65754 0
M  V30 44 H 6.3642 -3.15502 -2.42288 0
M  V30 45 H 3.1032 -6.1488 -2.27161 0
M  V30 46 H 2.6232 -4.90631 -3.45024 0
M  V30 47 H 4.3022 -5.49924 -3.4087 0
M  V30 48 N 4.4343 0.785586 -1.36625 0
M  V30 49 C 5.3643 1.91259 -1.33949 0
M  V30 50 C 6.3453 1.68795 -0.210325 0
M  V30 51 O 7.5303 1.89854 -0.408561 0
M  V30 52 C 4.6603 3.28339 -1.13186 0
M  V30 53 C 3.6143 3.65335 -2.22967 0
M  V30 54 C 2.9403 5.00806 -1.87342 0
M  V30 55 C 4.2403 3.7352 -3.65075 0
M  V30 56 H 5.9343 1.93755 -2.28253 0
M  V30 57 H 3.4803 0.930788 -1.09874 0
M  V30 58 H 5.4333 4.06804 -1.09948 0
M  V30 59 H 4.1573 3.2624 -0.153332 0
M  V30 60 H 2.8163 2.89169 -2.25337 0
M  V30 61 H 2.4643 4.95233 -0.880545 0
M  V30 62 H 2.1643 5.26529 -2.60846 0
M  V30 63 H 3.6883 5.81687 -1.85667 0
M  V30 64 H 5.1023 4.42168 -3.64911 0
M  V30 65 H 3.4993 4.10731 -4.37516 0
M  V30 66 H 4.5693 2.74527 -3.99703 0
M  V30 67 N 5.9124 1.20967 1.01018 0
M  V30 68 C 7.1374 1.0503 1.78839 0
M  V30 69 C 7.5624 -0.395752 1.8389 0
M  V30 70 O 6.9204 -1.28529 1.27867 0
M  V30 71 C 6.9684 1.64602 3.2084 0
M  V30 72 O 6.0724 0.887988 4.02726 0
M  V30 73 H 5.4134 0.369987 0.551367 0
M  V30 74 H 7.9434 1.60399 1.27018 0
M  V30 75 H 7.9534 1.68607 3.71532 0
M  V30 76 H 6.6284 2.69841 3.16479 0
M  V30 77 H 5.2054 0.922648 3.61305 0
M  V30 78 N 7.3905 -1.2043 1.01659 0
M  V30 79 C 8.6155 -1.94318 0.724942 0
M  V30 80 C 9.0405 -1.74266 -0.708034 0
M  V30 81 O 8.3985 -1.03694 -1.48719 0
M  V30 82 C 8.4465 -3.44486 1.06591 0
M  V30 83 O 7.5505 -4.12017 0.177599 0
M  V30 84 H 6.8915 -0.60708 0.26898 0
M  V30 85 H 9.4215 -1.52861 1.35995 0
M  V30 86 H 9.4315 -3.95106 1.01762 0
M  V30 87 H 8.1065 -3.58404 2.10997 0
M  V30 88 H 6.6835 -3.71821 0.283421 0
M  V30 89 N 8.8686 -0.792821 -1.36206 0
M  V30 90 C 9.8016 -0.139422 -2.27774 0
M  V30 91 C 10.7796 0.68649 -1.47398 0
M  V30 92 O 11.9636 0.656738 -1.7669 0
M  V30 93 C 9.0906 0.807947 -3.28922 0
M  V30 94 C 8.1366 0.0633999 -4.26453 0
M  V30 95 S 8.9696 -1.26319 -5.20388 0
M  V30 96 C 10.1256 -0.31991 -6.25082 0
M  V30 97 H 10.3586 -0.915809 -2.82843 0
M  V30 98 H 7.8916 -0.587203 -1.42798 0
M  V30 99 H 9.8496 1.34908 -3.87699 0
M  V30 100 H 8.5106 1.55761 -2.72759 0
M  V30 101 H 7.7036 0.782386 -4.9789 0
M  V30 102 H 7.3056 -0.407352 -3.71775 0
M  V30 103 H 9.5976 0.499985 -6.75653 0
M  V30 104 H 10.5406 -1.00307 -7.00959 0
M  V30 105 H 10.9486 0.0782694 -5.64446 0
M  V30 106 N 10.3467 1.47872 -0.545128 0
M  V30 107 C 11.5937 2.02493 -0.0165858 0
M  V30 108 C 11.9217 1.42073 1.32836 0
M  V30 109 O 11.1767 0.561459 1.87473 0
M  V30 110 C 11.4757 3.57131 0.13867 0
M  V30 111 C 11.1417 4.36411 -1.13384 0
M  V30 112 C 9.8037 4.57792 -1.48256 0
M  V30 113 C 12.1557 4.82223 -1.97764 0
M  V30 114 C 9.4837 5.22233 -2.67376 0
M  V30 115 C 11.8357 5.47977 -3.16076 0
M  V30 116 C 10.4997 5.67593 -3.51275 0
M  V30 117 H 9.7697 0.740975 -0.00606918 0
M  V30 118 H 12.4167 1.77683 -0.714207 0
M  V30 119 H 10.7217 3.80865 0.919172 0
M  V30 120 H 12.4187 3.97031 0.562782 0
M  V30 121 H 9.0087 4.2004 -0.852297 0
M  V30 122 H 13.1927 4.65493 -1.72132 0
M  V30 123 H 8.4487 5.35616 -2.94831 0
M  V30 124 H 12.6227 5.8244 -3.81755 0
M  V30 125 H 10.2497 6.17298 -4.43675 0
M  V30 126 N 11.8248 0.280983 1.55075 0
M  V30 127 C 12.7728 -0.619864 2.24188 0
M  V30 128 C 13.7668 -1.15315 1.24092 0
M  V30 129 O 14.9728 -1.1061 1.42005 0
M  V30 130 H 11.3478 -0.218459 0.719569 0
M  V30 131 H 13.3188 -0.0141831 2.98397 0
M  V30 132 C 12.0678 -1.7899 2.98091 0
M  V30 133 H 11.3908 -1.38874 3.74905 0
M  V30 134 H 12.8308 -2.39672 3.49762 0
M  V30 135 C 11.2898 -2.68192 2.03899 0
M  V30 136 O 11.8198 -3.6872 1.594 0
M  V30 137 N 10.0258 -2.35488 1.70275 0
M  V30 138 H 9.5728 -1.53787 2.06658 0
M  V30 139 H 9.5308 -2.95442 1.07524 0
M  V30 140 N 13.3029 -1.57598 0.00835791 0
M  V30 141 C 14.7139 -1.7892 -0.53333 0
M  V30 142 C 15.0649 -0.916609 -1.73473 0
M  V30 143 O 14.1899 -0.121336 -2.1606 0
M  V30 144 C 14.7849 -3.24488 -0.974313 0
M  V30 145 C 13.3439 -3.46878 -1.46125 0
M  V30 146 C 12.4909 -2.74157 -0.416302 0
M  V30 147 H 15.4419 -1.56958 0.234495 0
M  V30 148 H 15.4629 -3.3306 -1.83988 0
M  V30 149 H 14.9749 -3.87972 -0.099718 0
M  V30 150 H 13.0759 -2.8862 -2.35646 0
M  V30 151 H 13.1889 -4.55572 -1.48295 0
M  V30 152 H 11.5529 -2.39022 -0.87981 0
M  V30 153 H 12.3359 -3.40345 0.44947 0
M  V30 154 N 14.781 0.264519 -1.55364 0
M  V30 155 C 16.006 1.01726 -1.80739 0
M  V30 156 C 16.431 1.78836 -0.583044 0
M  V30 157 O 15.789 1.75167 0.467566 0
M  V30 158 C 15.837 1.94482 -3.03659 0
M  V30 159 O 14.941 3.03386 -2.7934 0
M  V30 160 H 14.282 0.290395 -0.597132 0
M  V30 161 H 16.812 0.290854 -2.02522 0
M  V30 162 H 16.822 2.36278 -3.32621 0
M  V30 163 H 15.497 1.37772 -3.92418 0
M  V30 164 H 14.074 2.65844 -2.61498 0
M  V30 165 N 16.2591 1.48442 0.529413 0
M  V30 166 C 17.6701 1.5002 1.11134 0
M  V30 167 C 18.0211 0.27031 1.94329 0
M  V30 168 O 17.1461 -0.622507 2.07253 0
M  V30 169 C 17.7411 2.71834 2.02217 0
M  V30 170 C 16.3001 2.76283 2.55627 0
M  V30 171 C 15.4471 2.43542 1.326 0
M  V30 172 H 18.3981 1.5555 0.314641 0
M  V30 173 H 18.4191 2.50384 2.8651 0
M  V30 174 H 17.9311 3.61331 1.41639 0
M  V30 175 H 16.0321 1.90995 3.19924 0
M  V30 176 H 16.1451 3.77725 2.94721 0
M  V30 177 H 14.5091 1.94709 1.64196 0
M  V30 178 H 15.2921 3.3528 0.737734 0
M  V30 179 N 17.7372 -0.778329 1.37039 0
M  V30 180 C 19.1482 -1.35421 1.28523 0
M  V30 181 C 19.4992 -1.96075 -0.0700901 0
M  V30 182 O 18.6242 -1.93352 -0.971801 0
M  V30 183 C 19.2192 -2.46211 2.32735 0
M  V30 184 C 17.7782 -2.99585 2.27873 0
M  V30 185 C 16.9252 -1.72748 2.16918 0
M  V30 186 H 19.8762 -0.5791 1.47757 0
M  V30 187 H 19.8972 -3.2552 1.9702 0
M  V30 188 H 19.4092 -2.02036 3.31365 0
M  V30 189 H 17.5102 -3.48152 1.32745 0
M  V30 190 H 17.6232 -3.55646 3.21018 0
M  V30 191 H 15.9872 -1.95416 1.63354 0
M  V30 192 H 16.7702 -1.30686 3.17452 0
M  V30 193 N 19.2153 -1.21501 -1.00376 0
M  V30 194 C 20.1473 -0.933174 -2.09343 0
M  V30 195 C 21.1603 0.0840896 -1.62583 0
M  V30 196 O 22.3493 -0.148563 -1.77881 0
M  V30 197 C 19.4493 -0.379869 -3.36764 0
M  V30 198 C 18.6223 -1.45176 -4.12605 0
M  V30 199 C 17.6813 -0.907476 -5.18316 0
M  V30 200 O 16.7073 -1.5912 -5.46507 0
M  V30 201 N 17.9093 0.276649 -5.7984 0
M  V30 202 H 20.6743 -1.87124 -2.34104 0
M  V30 203 H 18.2353 -1.12043 -1.16867 0
M  V30 204 H 20.2273 -0.00131488 -4.047 0
M  V30 205 H 18.7973 0.463048 -3.09151 0
M  V30 206 H 18.0173 -2.00411 -3.39454 0
M  V30 207 H 19.3053 -2.17328 -4.6005 0
M  V30 208 H 18.7033 0.849147 -5.59291 0
M  V30 209 H 17.2603 0.596702 -6.49063 0
M  V30 210 N 20.6934 1.19889 -1.02296 0
M  V30 211 C 21.9414 1.89046 -0.714558 0
M  V30 212 C 22.2624 1.79636 0.758681 0
M  V30 213 O 21.5324 1.20292 1.54618 0
M  V30 214 H 20.1124 0.699802 -0.261317 0
M  V30 215 H 22.7744 1.45574 -1.29592 0
M  V30 216 H 21.8704 2.95524 -1.0036 0
M  V30 217 N 22.1715 0.800033 1.35784 0
M  V30 218 C 23.4185 0.377342 1.98953 0
M  V30 219 C 23.7465 -1.05378 1.6348 0
M  V30 220 O 23.0015 -1.74459 0.886707 0
M  V30 221 C 23.3005 0.500276 3.53881 0
M  V30 222 C 22.9665 1.89375 4.09204 0
M  V30 223 C 21.6285 2.27499 4.24025 0
M  V30 224 C 23.9805 2.8057 4.39238 0
M  V30 225 C 21.3085 3.562 4.66195 0
M  V30 226 C 23.6605 4.0871 4.82844 0
M  V30 227 C 22.3245 4.46843 4.95871 0
M  V30 228 H 21.5945 0.138079 0.728021 0
M  V30 229 H 24.2415 1.01955 1.62103 0
M  V30 230 H 22.5465 -0.225405 3.91151 0
M  V30 231 H 24.2435 0.154097 4.00704 0
M  V30 232 H 20.8335 1.58753 3.98115 0
M  V30 233 H 25.0175 2.52367 4.27346 0
M  V30 234 H 20.2735 3.85602 4.74469 0
M  V30 235 H 24.4475 4.79481 5.05046 0
M  V30 236 H 22.0745 5.46623 5.28306 0
M  V30 237 N 23.6496 -1.47581 0.552962 0
M  V30 238 C 24.8896 -2.04379 0.0296245 0
M  V30 239 C 25.2536 -1.4185 -1.29393 0
M  V30 240 O 26.4546 -1.89669 -1.90471 0
M  V30 241 C 24.7256 -3.57339 -0.0661371 0
M  V30 242 S 26.2846 -4.35511 -0.536213 0
M  V30 243 H 23.1026 -0.710625 0.0230991 0
M  V30 244 H 25.7046 -1.81005 0.738734 0
M  V30 245 H 24.4086 -4.00374 0.901596 0
M  V30 246 H 23.9396 -3.85202 -0.798931 0
M  V30 247 H 25.9546 -4.6253 -1.79668 0
M  V30 248 N 25.1277 -0.289203 -1.54924 0
M  V30 249 C 26.0747 0.592115 -2.23075 0
M  V30 250 C 27.0447 1.13881 -1.20915 0
M  V30 251 O 28.2297 1.18551 -1.495 0
M  V30 252 C 25.3697 1.76376 -2.96623 0
M  V30 253 C 24.4827 1.24959 -4.13533 0
M  V30 254 C 23.6177 2.38416 -4.74691 0
M  V30 255 C 22.6567 1.84072 -5.83767 0
M  V30 256 N 21.7937 2.91057 -6.38929 0
M  V30 257 H 26.6337 0.00432038 -2.98 0
M  V30 258 H 24.1707 -0.00963529 -1.47097 0
M  V30 259 H 26.1287 2.45268 -3.3749 0
M  V30 260 H 24.7587 2.32337 -2.24097 0
M  V30 261 H 23.8107 0.453307 -3.77689 0
M  V30 262 H 25.1227 0.811662 -4.92152 0
M  V30 263 H 24.2767 3.15276 -5.18349 0
M  V30 264 H 23.0157 2.8553 -3.95378 0
M  V30 265 H 22.0207 1.05697 -5.39545 0
M  V30 266 H 23.2457 1.37877 -6.64956 0
M  V30 267 H 21.1917 3.37526 -5.62505 0
M  V30 268 H 21.1087 2.51724 -7.12861 0
M  V30 269 H 22.3767 3.6785 -6.87246 0
M  V30 270 N 26.6058 1.57591 -0.0167156 0
M  V30 271 C 27.5528 2.09462 0.969251 0
M  V30 272 C 28.5228 0.99381 1.33089 0
M  V30 273 O 29.7078 1.26726 1.42636 0
M  V30 274 C 26.8478 2.61622 2.25051 0
M  V30 275 C 25.9608 3.85666 1.94642 0
M  V30 276 C 25.0958 4.26266 3.16972 0
M  V30 277 C 24.1348 5.43101 2.82326 0
M  V30 278 N 23.2718 5.78915 3.97243 0
M  V30 279 H 28.1118 2.93428 0.519997 0
M  V30 280 H 25.6488 1.45044 0.245087 0
M  V30 281 H 27.6068 2.89949 2.99976 0
M  V30 282 H 26.2368 1.80505 2.67615 0
M  V30 283 H 25.2888 3.64145 1.10013 0
M  V30 284 H 26.6008 4.70678 1.65117 0
M  V30 285 H 25.7548 4.55963 4.00228 0
M  V30 286 H 24.4938 3.39996 3.49648 0
M  V30 287 H 23.4988 5.1311 1.97479 0
M  V30 288 H 24.7238 6.3106 2.50879 0
M  V30 289 H 22.6698 4.95602 4.29785 0
M  V30 290 H 22.5868 6.58539 3.71299 0
M  V30 291 H 23.8548 6.13212 4.81239 0
M  V30 292 N 28.0839 -0.256276 1.55502 0
M  V30 293 C 29.0319 -1.33694 1.90338 0
M  V30 294 C 30.0259 -1.50299 0.781441 0
M  V30 295 O 31.2319 -1.51885 0.965966 0
M  V30 296 H 27.6069 -0.447483 0.60437 0
M  V30 297 H 29.5779 -1.01574 2.8058 0
M  V30 298 C 28.3269 -2.68724 2.20642 0
M  V30 299 H 27.6499 -2.56743 3.06469 0
M  V30 300 H 29.0899 -3.43237 2.48926 0
M  V30 301 C 27.5489 -3.21101 1.01959 0
M  V30 302 O 28.0789 -4.0084 0.262762 0
M  V30 303 N 26.2849 -2.79003 0.812746 0
M  V30 304 H 25.8319 -2.14271 1.42989 0
M  V30 305 H 25.7899 -3.14393 0.0203076 0
M  V30 306 N 29.562 -1.4872 -0.521534 0
M  V30 307 C 30.811 -1.56419 -1.27341 0
M  V30 308 C 31.124 -0.246805 -1.94037 0
M  V30 309 O 32.33 -0.202122 -2.70747 0
M  V30 310 C 30.786 -2.75896 -2.31105 0
M  V30 311 C 30.394 -4.14311 -1.70441 0
M  V30 312 C 32.138 -2.92913 -3.07249 0
M  V30 313 C 30.045 -5.25038 -2.72194 0
M  V30 314 H 28.975 -0.582344 -0.478949 0
M  V30 315 H 31.626 -1.75071 -0.549779 0
M  V30 316 H 30.008 -2.50697 -3.06541 0
M  V30 317 H 31.182 -4.49564 -1.01136 0
M  V30 318 H 29.497 -4.02482 -1.06759 0
M  V30 319 H 32.094 -3.72805 -3.83302 0
M  V30 320 H 32.437 -2.02689 -3.63625 0
M  V30 321 H 32.97 -3.18054 -2.38928 0
M  V30 322 H 29.709 -6.17255 -2.20627 0
M  V30 323 H 29.229 -4.94263 -3.39801 0
M  V30 324 H 30.908 -5.53508 -3.35019 0
M  V30 325 N 31.0401 0.771051 -1.3745 0
M  V30 326 C 32.2891 1.52491 -1.3202 0
M  V30 327 C 32.6021 1.9538 0.0927347 0
M  V30 328 O 33.8081 2.70159 0.269503 0
M  V30 329 C 32.2641 2.75366 -2.31736 0
M  V30 330 C 31.8721 2.39573 -3.78562 0
M  V30 331 C 33.6161 3.53307 -2.35318 0
M  V30 332 C 31.5231 3.58954 -4.70007 0
M  V30 333 H 30.4531 0.572506 -0.490666 0
M  V30 334 H 33.1041 0.844474 -1.62914 0
M  V30 335 H 31.4861 3.45303 -1.93861 0
M  V30 336 H 32.6601 1.77415 -4.25277 0
M  V30 337 H 30.9751 1.74805 -3.77932 0
M  V30 338 H 33.5721 4.42039 -3.00842 0
M  V30 339 H 33.9151 3.93217 -1.36698 0
M  V30 340 H 34.4481 2.90367 -2.71904 0
M  V30 341 H 31.1871 3.24125 -5.69757 0
M  V30 342 H 30.7071 4.20214 -4.27996 0
M  V30 343 H 32.3861 4.25758 -4.87175 0
M  V30 344 N 32.5182 1.22032 0.997298 0
M  V30 345 C 33.4652 0.986467 2.08656 0
M  V30 346 C 34.4352 -0.0902671 1.65855 0
M  V30 347 O 35.6202 0.0584294 1.90711 0
M  V30 348 C 32.7602 0.565569 3.40434 0
M  V30 349 C 31.8732 1.71259 3.96604 0
M  V30 350 C 31.0082 1.24011 5.16522 0
M  V30 351 C 30.0472 2.35896 5.64818 0
M  V30 352 N 29.1842 1.89726 6.7598 0
M  V30 353 H 34.0242 1.91892 2.27994 0
M  V30 354 H 31.5612 0.956199 1.11782 0
M  V30 355 H 33.5192 0.302738 4.161 0
M  V30 356 H 32.1492 -0.329879 3.2111 0
M  V30 357 H 31.2012 2.08986 3.17851 0
M  V30 358 H 32.5132 2.55436 4.28432 0
M  V30 359 H 31.6672 0.934395 5.99461 0
M  V30 360 H 30.4062 0.368487 4.86306 0
M  V30 361 H 29.4112 2.67261 4.8047 0
M  V30 362 H 30.6362 3.23567 5.97061 0
M  V30 363 H 28.5822 1.0492 6.47555 0
M  V30 364 H 28.4992 2.67471 7.07103 0
M  V30 365 H 29.7672 1.62211 7.62435 0
M  V30 366 N 33.9963 -1.19345 1.0293 0
M  V30 367 C 35.2453 -1.88363 0.721256 0
M  V30 368 C 35.5583 -1.80514 -0.753254 0
M  V30 369 O 36.7643 -2.44788 -1.17436 0
M  V30 370 C 35.2203 -3.37872 1.23978 0
M  V30 371 C 34.8283 -3.54278 2.74211 0
M  V30 372 C 36.5723 -4.12365 1.00775 0
M  V30 373 C 34.4793 -4.97682 3.19479 0
M  V30 374 H 33.4093 -0.705484 0.266098 0
M  V30 375 H 36.0603 -1.34928 1.24365 0
M  V30 376 H 34.4423 -3.90707 0.6453 0
M  V30 377 H 35.6163 -3.11769 3.39318 0
M  V30 378 H 33.9313 -2.93174 2.95699 0
M  V30 379 H 36.5283 -5.18119 1.32123 0
M  V30 380 H 36.8713 -4.16263 -0.0554308 0
M  V30 381 H 37.4043 -3.65668 1.56625 0
M  V30 382 H 34.1433 -4.98945 4.25128 0
M  V30 383 H 33.6633 -5.4095 2.591 0
M  V30 384 H 35.3423 -5.66337 3.12845 0
M  V30 385 N 35.4744 -0.807222 -1.35358 0
M  V30 386 C 36.4044 -0.232509 -2.3234 0
M  V30 387 C 37.3854 0.642386 -1.57504 0
M  V30 388 O 38.5704 0.572526 -1.85569 0
M  V30 389 C 35.7004 0.619238 -3.41735 0
M  V30 390 C 34.6544 -0.157215 -4.27711 0
M  V30 391 C 33.9804 0.816273 -5.28433 0
M  V30 392 C 35.2804 -1.35656 -5.04376 0
M  V30 393 H 36.9744 -1.04276 -2.80654 0
M  V30 394 H 34.5204 -0.50288 -1.34934 0
M  V30 395 H 36.4734 1.03137 -4.08584 0
M  V30 396 H 35.1974 1.46239 -2.92031 0
M  V30 397 H 33.8564 -0.550525 -3.62443 0
M  V30 398 H 33.5044 1.65494 -4.74996 0
M  V30 399 H 33.2044 0.301067 -5.86828 0
M  V30 400 H 34.7284 1.22659 -5.98153 0
M  V30 401 H 36.1424 -1.01927 -5.64166 0
M  V30 402 H 34.5394 -1.8063 -5.7227 0
M  V30 403 H 35.6094 -2.14288 -4.34981 0
M  V30 404 N 36.9525 1.47285 -0.560781 0
M  V30 405 C 37.8995 2.30058 0.18491 0
M  V30 406 C 38.8695 1.39281 0.904986 0
M  V30 407 O 40.0545 1.68241 0.899979 0
M  V30 408 C 37.1945 3.23317 1.20666 0
M  V30 409 C 36.3075 4.29186 0.492285 0
M  V30 410 C 35.4425 5.09592 1.49964 0
M  V30 411 C 34.4815 6.07232 0.770439 0
M  V30 412 N 33.6185 6.80584 1.72479 0
M  V30 413 H 38.4585 2.93302 -0.527048 0
M  V30 414 H 35.9955 1.44568 -0.271738 0
M  V30 415 H 37.9535 3.75811 1.81168 0
M  V30 416 H 36.5835 2.61929 1.88661 0
M  V30 417 H 35.6355 3.7972 -0.227333 0
M  V30 418 H 36.9475 4.98738 -0.0787929 0
M  V30 419 H 36.1015 5.66254 2.17809 0
M  V30 420 H 34.8405 4.3995 2.10464 0
M  V30 421 H 33.8455 5.49745 0.0780846 0
M  V30 422 H 35.0705 6.78884 0.171134 0
M  V30 423 H 33.0165 6.1367 2.3183 0
M  V30 424 H 32.9335 7.46319 1.20596 0
M  V30 425 H 34.2015 7.41818 2.39428 0
M  V30 426 N 38.4306 0.297415 1.54768 0
M  V30 427 C 39.6556 -0.318435 2.04941 0
M  V30 428 C 40.0806 -1.4701 1.17345 0
M  V30 429 O 39.4386 -1.80436 0.176758 0
M  V30 430 C 39.4866 -0.755749 3.52592 0
M  V30 431 O 38.5906 -1.86088 3.68028 0
M  V30 432 H 37.9316 -0.062421 0.661059 0
M  V30 433 H 40.4616 0.438215 1.99852 0
M  V30 434 H 40.4716 -1.04552 3.94376 0
M  V30 435 H 39.1466 0.0867233 4.1581 0
M  V30 436 H 37.7236 -1.57193 3.38149 0
M  V30 437 N 39.9087 -1.5758 0.0250728 0
M  V30 438 C 40.8387 -2.13007 -0.956575 0
M  V30 439 C 41.8197 -1.0452 -1.342 0
M  V30 440 O 43.0047 -1.32332 -1.42133 0
M  V30 441 C 40.1347 -2.65386 -2.24026 0
M  V30 442 C 39.0887 -3.78623 -1.99571 0
M  V30 443 C 38.4147 -4.17414 -3.3417 0
M  V30 444 C 39.7147 -5.04867 -1.33814 0
M  V30 445 H 41.4087 -2.9528 -0.494991 0
M  V30 446 H 38.9547 -1.42042 -0.236651 0
M  V30 447 H 40.9077 -3.02794 -2.93076 0
M  V30 448 H 39.6317 -1.80268 -2.72343 0
M  V30 449 H 38.2907 -3.41646 -1.32941 0
M  V30 450 H 37.9387 -3.29284 -3.80238 0
M  V30 451 H 37.6387 -4.93719 -3.18615 0
M  V30 452 H 39.1627 -4.57402 -4.04495 0
M  V30 453 H 40.5767 -5.39888 -1.92857 0
M  V30 454 H 38.9737 -5.86144 -1.28669 0
M  V30 455 H 40.0437 -4.83904 -0.310561 0
M  V30 456 N 41.3868 0.248026 -1.55636 0
M  V30 457 C 42.6118 0.998028 -1.81808 0
M  V30 458 C 43.0368 1.78207 -0.601979 0
M  V30 459 O 42.3948 1.75653 0.448961 0
M  V30 460 C 42.4428 1.9125 -3.05705 0
M  V30 461 O 41.5468 3.00406 -2.82542 0
M  V30 462 H 40.8878 0.284045 -0.600179 0
M  V30 463 H 43.4178 0.269357 -2.02819 0
M  V30 464 H 43.4278 2.32737 -3.35108 0
M  V30 465 H 42.1028 1.33602 -3.93857 0
M  V30 466 H 40.6798 2.63056 -2.64303 0
M  V30 467 N 42.8649 1.48995 0.513639 0
M  V30 468 C 43.7979 1.59319 1.63379 0
M  V30 469 C 44.7759 0.442816 1.56454 0
M  V30 470 O 45.9599 0.656655 1.76693 0
M  V30 471 C 43.0869 1.5364 3.01848 0
M  V30 472 C 42.1329 2.7372 3.27078 0
M  V30 473 S 42.9659 4.35528 3.1157 0
M  V30 474 C 44.1219 4.32473 4.52458 0
M  V30 475 H 44.3549 2.54079 1.54374 0
M  V30 476 H 41.8879 1.3773 0.697849 0
M  V30 477 H 43.8459 1.51049 3.81699 0
M  V30 478 H 42.5069 0.601898 3.08279 0
M  V30 479 H 41.6999 2.6593 4.28132 0
M  V30 480 H 41.3019 2.73657 2.54927 0
M  V30 481 H 43.5939 4.03414 5.44301 0
M  V30 482 H 44.5369 5.33762 4.65299 0
M  V30 483 H 44.9449 3.62718 4.32546 0
M  V30 484 N 44.343 -0.763751 1.37857 0
M  V30 485 C 45.275 -1.88664 1.30148 0
M  V30 486 C 46.288 -1.61365 0.215685 0
M  V30 487 O 47.477 -1.72134 0.472459 0
M  V30 488 C 44.577 -3.24075 0.991396 0
M  V30 489 C 43.75 -3.78958 2.18426 0
M  V30 490 C 42.809 -4.92862 1.8432 0
M  V30 491 O 41.835 -5.08027 2.56704 0
M  V30 492 N 43.037 -5.75071 0.792081 0
M  V30 493 H 45.802 -1.95791 2.26905 0
M  V30 494 H 43.363 -0.943226 1.31586 0
M  V30 495 H 45.355 -3.97804 0.743935 0
M  V30 496 H 43.925 -3.12399 0.112122 0
M  V30 497 H 43.145 -2.96913 2.59299 0
M  V30 498 H 44.433 -4.12357 2.98058 0
M  V30 499 H 43.831 -5.65375 0.191595 0
M  V30 500 H 42.388 -6.48991 0.60449 0
M  V30 501 N 45.8211 -1.22559 -0.990812 0
M  V30 502 C 46.7691 -0.994798 -2.10253 0
M  V30 503 C 47.7631 0.0627798 -1.69284 0
M  V30 504 O 48.9691 -0.0898392 -1.79776 0
M  V30 505 H 45.3441 -0.304527 -0.687581 0
M  V30 506 H 47.3151 -1.93812 -2.26891 0
M  V30 507 C 46.0641 -0.591439 -3.42633 0
M  V30 508 H 45.3871 -1.3969 -3.74602 0
M  V30 509 H 46.8271 -0.469385 -4.21394 0
M  V30 510 C 45.2861 0.699232 -3.29564 0
M  V30 511 O 45.8161 1.75112 -3.61523 0
M  V30 512 N 44.0221 0.671182 -2.82743 0
M  V30 513 H 43.5691 -0.185136 -2.56934 0
M  V30 514 H 43.5271 1.53502 -2.7438 0
M  V30 515 N 47.2992 1.18797 -1.03562 0
M  V30 516 C 48.5452 1.8893 -0.737113 0
M  V30 517 C 48.8782 1.79837 0.732956 0
M  V30 518 O 48.1532 1.19525 1.5344 0
M  V30 519 C 48.4362 3.39607 -1.19745 0
M  V30 520 C 48.2892 3.57537 -2.72924 0
M  V30 521 C 49.6082 4.33069 -0.783526 0
M  V30 522 H 46.7272 0.686057 -0.269249 0
M  V30 523 H 49.3692 1.39797 -1.28673 0
M  V30 524 H 47.5192 3.81583 -0.729855 0
M  V30 525 H 49.1912 3.24688 -3.27682 0
M  V30 526 H 47.4342 3.00363 -3.12993 0
M  V30 527 H 48.1052 4.63238 -3.00191 0
M  V30 528 H 50.5812 3.98846 -1.18581 0
M  V30 529 H 49.4572 5.3707 -1.13343 0
M  V30 530 H 49.7182 4.40986 0.313681 0
M  V30 531 N 48.7773 0.814389 1.34928 0
M  V30 532 C 49.7073 0.244827 2.32213 0
M  V30 533 C 50.6883 -0.634024 1.57842 0
M  V30 534 O 51.8733 -0.562676 1.8587 0
M  V30 535 C 49.0033 -0.601106 3.42058 0
M  V30 536 C 47.9573 0.179896 4.27622 0
M  V30 537 C 47.2833 -0.788237 5.28858 0
M  V30 538 C 48.5833 1.38329 5.03649 0
M  V30 539 H 50.2773 1.05763 2.80097 0
M  V30 540 H 47.8233 0.510029 1.34665 0
M  V30 541 H 49.7763 -1.00968 4.09125 0
M  V30 542 H 48.5003 -1.44688 2.92802 0
M  V30 543 H 47.1593 0.569739 3.62146 0
M  V30 544 H 46.8073 -1.62973 4.75866 0
M  V30 545 H 46.5073 -0.269942 5.8698 0
M  V30 546 H 48.0313 -1.19485 5.98795 0
M  V30 547 H 49.4453 1.04918 5.63618 0
M  V30 548 H 47.8423 1.83662 5.71304 0
M  V30 549 H 48.9123 2.16592 4.33839 0
M  V30 550 N 50.2554 -1.46986 0.568584 0
M  V30 551 C 51.5044 -2.01646 0.0465894 0
M  V30 552 C 51.8174 -1.44721 -1.31587 0
M  V30 553 O 53.0234 -1.91113 -1.92842 0
M  V30 554 C 51.4794 -3.59885 0.032752 0
M  V30 555 C 51.0874 -4.25804 1.39266 0
M  V30 556 C 52.8314 -4.22255 -0.436038 0
M  V30 557 C 50.7384 -5.76081 1.33732 0
M  V30 558 H 49.6684 -0.753876 0.013647 0
M  V30 559 H 52.3194 -1.68864 0.718131 0
M  V30 560 H 50.7014 -3.8968 -0.704669 0
M  V30 561 H 51.8754 -4.07637 2.1487 0
M  V30 562 H 50.1904 -3.7547 1.80032 0
M  V30 563 H 52.7874 -5.32394 -0.49602 0
M  V30 564 H 53.1304 -3.90212 -1.45053 0
M  V30 565 H 53.6634 -3.97033 0.246877 0
M  V30 566 H 50.4024 -6.12761 2.32817 0
M  V30 567 H 49.9224 -5.96553 0.623267 0
M  V30 568 H 51.6014 -6.38518 1.0442 0
M  V30 569 N 51.7335 -0.305618 -1.54608 0
M  V30 570 C 52.9795 0.302746 -2.00528 0
M  V30 571 C 53.3125 1.53184 -1.19367 0
M  V30 572 O 52.5875 1.92598 -0.271321 0
M  V30 573 C 52.8705 0.654756 -3.54097 0
M  V30 574 C 52.7235 -0.583793 -4.45995 0
M  V30 575 C 54.0425 1.47947 -4.14487 0
M  V30 576 H 51.1615 0.108564 -0.72896 0
M  V30 577 H 53.8035 -0.418634 -1.85331 0
M  V30 578 H 51.9535 1.26935 -3.67178 0
M  V30 579 H 53.6255 -1.22224 -4.44814 0
M  V30 580 H 51.8685 -1.21615 -4.16404 0
M  V30 581 H 52.5395 -0.293287 -5.5122 0
M  V30 582 H 55.0155 0.96013 -4.04871 0
M  V30 583 H 53.8915 1.69454 -5.22088 0
M  V30 584 H 54.1525 2.47011 -3.66658 0
M  V30 585 N 53.2116 1.57565 -0.0334293 0
M  V30 586 C 54.4596 1.91598 0.642999 0
M  V30 587 C 54.7806 0.910847 1.7242 0
M  V30 588 O 54.0506 -0.0469931 1.95844 0
M  V30 589 H 52.6306 0.707228 0.240496 0
M  V30 590 H 55.2926 1.94726 -0.0822488 0
M  V30 591 H 54.3886 2.92336 1.09298 0
M  V30 592 N 54.6897 -0.239769 1.55765 0
M  V30 593 C 55.9357 -0.968234 1.78194 0
M  V30 594 C 56.2687 -1.84701 0.599938 0
M  V30 595 O 55.5437 -1.9031 -0.401524 0
M  V30 596 C 55.8267 -1.8227 3.10564 0
M  V30 597 C 55.6797 -0.971633 4.3918 0
M  V30 598 C 56.9987 -2.80388 3.39221 0
M  V30 599 H 54.1177 -0.350572 0.648281 0
M  V30 600 H 56.7597 -0.238259 1.885 0
M  V30 601 H 54.9097 -2.44507 3.01908 0
M  V30 602 H 56.5817 -0.367408 4.59835 0
M  V30 603 H 54.8247 -0.276276 4.32919 0
M  V30 604 H 55.4957 -1.60346 5.28198 0
M  V30 605 H 57.9717 -2.28287 3.47885 0
M  V30 606 H 56.8477 -3.3729 4.33044 0
M  V30 607 H 57.1087 -3.57212 2.60484 0
M  V30 608 N 56.1678 -1.49265 -0.50573 0
M  V30 609 C 57.4158 -1.582 -1.25766 0
M  V30 610 C 57.7368 -0.268482 -1.93143 0
M  V30 611 O 57.0068 0.711833 -1.8251 0
M  V30 612 H 55.5868 -0.582873 -0.467191 0
M  V30 613 H 58.2488 -1.85865 -0.586525 0
M  V30 614 H 57.3448 -2.37563 -2.02412 0
M  V30 615 N 57.6459 0.756429 -1.3826 0
M  V30 616 C 58.8929 1.51547 -1.34312 0
M  V30 617 C 59.2209 1.94382 0.0677144 0
M  V30 618 O 58.4759 1.65514 1.04421 0
M  V30 619 C 58.7749 2.78313 -2.24224 0
M  V30 620 C 58.4409 2.54455 -3.72241 0
M  V30 621 C 57.1029 2.47657 -4.12576 0
M  V30 622 C 59.4549 2.3354 -4.65949 0
M  V30 623 C 56.7829 2.17956 -5.44713 0
M  V30 624 C 59.1349 2.05359 -5.9834 0
M  V30 625 C 57.7989 1.97016 -6.37762 0
M  V30 626 H 57.0689 0.55455 -0.491482 0
M  V30 627 H 59.7159 0.870039 -1.70595 0
M  V30 628 H 58.0209 3.47492 -1.80987 0
M  V30 629 H 59.7179 3.36259 -2.18474 0
M  V30 630 H 56.3079 2.60616 -3.40261 0
M  V30 631 H 60.4919 2.37772 -4.35635 0
M  V30 632 H 55.7479 2.10003 -5.74203 0
M  V30 633 H 59.9219 1.88179 -6.70494 0
M  V30 634 H 57.5489 1.73766 -7.40074 0
M  V30 635 N 59.124 1.23083 0.984299 0
M  V30 636 C 60.057 0.951786 2.07404 0
M  V30 637 C 61.035 -0.10848 1.62238 0
M  V30 638 O 62.219 0.0249467 1.88483 0
M  V30 639 C 59.346 0.433142 3.35919 0
M  V30 640 C 58.392 1.47941 4.0002 0
M  V30 641 S 59.225 3.05556 4.39768 0
M  V30 642 C 60.381 2.55351 5.71442 0
M  V30 643 H 60.614 1.87456 2.30754 0
M  V30 644 H 58.147 1.06284 1.11996 0
M  V30 645 H 60.105 0.140506 4.10259 0
M  V30 646 H 58.766 -0.468656 3.10584 0
M  V30 647 H 57.959 1.06658 4.92585 0
M  V30 648 H 57.561 1.7212 3.3204 0
M  V30 649 H 59.853 1.97128 6.48187 0
M  V30 650 H 60.796 3.46441 6.17563 0
M  V30 651 H 61.204 1.96339 5.29255 0
M  V30 652 N 60.6021 -1.18246 1.0419 0
M  V30 653 C 61.8501 -1.87886 0.744543 0
M  V30 654 C 62.1711 -1.8082 -0.730006 0
M  V30 655 O 61.4411 -1.22736 -1.52685 0
M  V30 656 H 60.0211 -0.695556 0.272417 0
M  V30 657 H 62.6831 -1.43494 1.31892 0
M  V30 658 H 61.7791 -2.9389 1.05049 0
M  V30 659 N 62.0802 -0.821533 -1.34494 0
M  V30 660 C 63.3282 -0.408139 -1.97936 0
M  V30 661 C 63.6492 1.03193 -1.65457 0
M  V30 662 O 62.9192 1.71622 -0.944595 0
M  V30 663 H 61.4992 -0.147928 -0.732206 0
M  V30 664 H 64.1612 -1.05067 -1.64155 0
M  V30 665 H 63.2572 -0.52601 -3.07635 0
M  V30 666 N 63.5583 1.46682 -0.576371 0
M  V30 667 C 64.7833 2.07304 -0.0630475 0
M  V30 668 C 65.2083 1.42329 1.2298 0
M  V30 669 O 64.5663 0.504865 1.74129 0
M  V30 670 C 64.6143 3.60472 0.095895 0
M  V30 671 O 63.7183 3.95927 1.15394 0
M  V30 672 H 63.0593 0.661288 -0.0599463 0
M  V30 673 H 65.5893 1.88417 -0.797511 0
M  V30 674 H 65.5993 4.06865 0.304071 0
M  V30 675 H 64.2743 4.07157 -0.84828 0
M  V30 676 H 62.8513 3.61252 0.924724 0
M  V30 677 N 65.0364 0.313813 1.54444 0
M  V30 678 C 66.2834 -0.291675 2.00388 0
M  V30 679 C 66.6114 -1.52904 1.2021 0
M  V30 680 O 65.8664 -1.93833 0.269707 0
M  V30 681 C 66.1654 -0.680386 3.50864 0
M  V30 682 C 65.8314 0.456699 4.48581 0
M  V30 683 C 64.4934 0.768824 4.75018 0
M  V30 684 C 66.8454 1.22098 5.06697 0
M  V30 685 C 64.1734 1.84812 5.56831 0
M  V30 686 C 66.5254 2.29029 5.89685 0
M  V30 687 C 65.1894 2.60834 6.14428 0
M  V30 688 H 64.4594 -0.106732 0.733273 0
M  V30 689 H 67.1064 0.43557 1.86481 0
M  V30 690 H 65.4114 -1.48791 3.62448 0
M  V30 691 H 67.1084 -1.16026 3.83847 0
M  V30 692 H 63.6984 0.203337 4.28117 0
M  V30 693 H 67.8824 0.993096 4.86263 0
M  V30 694 H 63.1384 2.09912 5.74236 0
M  V30 695 H 67.3124 2.887 6.33739 0
M  V30 696 H 64.9394 3.44596 6.77612 0
M  V30 697 N 66.5145 -1.57545 0.0417849 0
M  V30 698 C 67.4775 -2.09885 -0.92093 0
M  V30 699 C 68.4775 -1.01648 -1.24596 0
M  V30 700 O 69.6675 -1.27759 -1.1842 0
M  V30 701 C 66.7995 -2.57527 -2.23367 0
M  V30 702 H 67.9925 -2.96236 -0.467382 0
M  V30 703 H 65.5455 -1.5493 -0.206467 0
M  V30 704 H 66.2805 -1.74542 -2.73323 0
M  V30 705 H 66.0655 -3.36613 -2.01083 0
M  V30 706 H 67.5555 -2.98201 -2.92346 0
M  V30 707 N 67.9926 0.231505 -1.5589 0
M  V30 708 C 68.9396 1.28682 -1.91598 0
M  V30 709 C 69.9096 1.47071 -0.771974 0
M  V30 710 O 71.0946 1.60802 -1.027 0
M  V30 711 C 68.2346 2.6342 -2.22944 0
M  V30 712 C 67.3476 2.52912 -3.50228 0
M  V30 713 C 66.4826 3.80106 -3.7107 0
M  V30 714 C 65.5216 3.64279 -4.91902 0
M  V30 715 N 64.6586 4.834 -5.09184 0
M  V30 716 H 69.4986 0.975305 -2.81588 0
M  V30 717 H 67.0356 0.470299 -1.39379 0
M  V30 718 H 68.9936 3.41869 -2.39126 0
M  V30 719 H 67.6236 2.92687 -1.36139 0
M  V30 720 H 66.6756 1.6595 -3.42294 0
M  V30 721 H 67.9876 2.37133 -4.38827 0
M  V30 722 H 67.1416 4.66999 -3.87295 0
M  V30 723 H 65.8806 3.98799 -2.80733 0
M  V30 724 H 64.8856 2.7577 -4.75637 0
M  V30 725 H 66.1106 3.47067 -5.83714 0
M  V30 726 H 64.0566 5.02425 -4.21788 0
M  V30 727 H 63.9736 4.70311 -5.91898 0
M  V30 728 H 65.2416 5.71747 -5.29835 0
M  V30 729 N 69.4707 1.49531 0.497807 0
M  V30 730 C 70.6957 1.63159 1.28039 0
M  V30 731 C 71.1207 0.30418 1.85624 0
M  V30 732 O 70.4787 -0.728618 1.66015 0
M  V30 733 C 70.5267 2.70537 2.38416 0
M  V30 734 O 69.6307 2.29931 3.42353 0
M  V30 735 H 68.9717 0.546001 0.377861 0
M  V30 736 H 71.5017 1.9574 0.59558 0
M  V30 737 H 71.5117 2.92802 2.84132 0
M  V30 738 H 70.1867 3.6689 1.95869 0
M  V30 739 H 68.7637 2.18009 3.02533 0
M  V30 740 N 70.9488 -0.749086 1.3866 0
M  V30 741 C 71.8788 -1.8764 1.38973 0
M  V30 742 C 72.8598 -1.68178 0.255004 0
M  V30 743 O 74.0448 -1.88704 0.458754 0
M  V30 744 C 71.1748 -3.25222 1.21851 0
M  V30 745 C 70.1288 -3.59295 2.32575 0
M  V30 746 C 69.4548 -4.95663 2.00555 0
M  V30 747 C 70.7548 -3.63709 3.7485 0
M  V30 748 H 72.4488 -1.87635 2.3331 0
M  V30 749 H 69.9948 -0.901329 1.12303 0
M  V30 750 H 71.9478 -4.03746 1.20695 0
M  V30 751 H 70.6718 -3.25719 0.239775 0
M  V30 752 H 69.3308 -2.83093 2.32925 0
M  V30 753 H 68.9788 -4.92724 1.01154 0
M  V30 754 H 68.6788 -5.19429 2.74714 0
M  V30 755 H 70.2028 -5.7656 2.01024 0
M  V30 756 H 71.6168 -4.32338 3.76506 0
M  V30 757 H 70.0138 -3.98986 4.48252 0
M  V30 758 H 71.0838 -2.63834 4.06841 0
M  V30 759 N 72.4269 -1.23603 -0.977757 0
M  V30 760 C 73.8429 -0.999251 -1.24447 0
M  V30 761 C 74.0429 0.298053 -1.99283 0
M  V30 762 O 73.0989 1.01681 -2.31122 0
M  V30 763 C 74.4119 -2.20784 -2.04144 0
M  V30 764 C 75.9599 -2.25303 -2.17273 0
M  V30 765 C 76.4349 -3.45755 -3.00362 0
M  V30 766 N 77.9259 -3.4601 -3.07947 0
M  V30 767 C 78.6609 -4.35868 -3.72568 0
M  V30 768 N 78.1569 -5.35966 -4.38991 0
M  V30 769 N 79.9499 -4.23605 -3.6948 0
M  V30 770 H 72.1009 -2.06986 -0.476483 0
M  V30 771 H 74.3639 -0.907801 -0.273134 0
M  V30 772 H 74.0699 -3.14945 -1.56533 0
M  V30 773 H 73.9439 -2.22085 -3.04891 0
M  V30 774 H 76.3309 -1.3168 -2.64092 0
M  V30 775 H 76.4119 -2.28033 -1.15907 0
M  V30 776 H 76.0559 -4.39687 -2.5424 0
M  V30 777 H 75.9859 -3.40266 -4.01904 0
M  V30 778 H 78.4769 -2.73588 -2.60688 0
M  V30 779 H 78.7899 -6.00783 -4.86086 0
M  V30 780 H 77.1349 -5.39863 -4.37691 0
M  V30 781 H 80.3259 -3.44647 -3.16759 0
M  V30 782 H 80.4989 -4.93836 -4.1956 0
M  V30 783 N 73.905 1.17692 -1.04816 0
M  V30 784 C 75.321 1.39863 -0.768794 0
M  V30 785 C 75.521 1.91118 0.638451 0
M  V30 786 O 74.577 2.10036 1.40146 0
M  V30 787 C 75.89 2.39274 -1.82122 0
M  V30 788 C 77.438 2.52987 -1.843 0
M  V30 789 C 77.913 3.55669 -2.88555 0
M  V30 790 N 79.404 3.63183 -2.87493 0
M  V30 791 C 80.139 4.42381 -3.64811 0
M  V30 792 N 79.635 5.25125 -4.51903 0
M  V30 793 N 81.428 4.37217 -3.53267 0
M  V30 794 H 73.579 0.82752 -1.95617 0
M  V30 795 H 75.842 0.426123 -0.846831 0
M  V30 796 H 75.548 2.08678 -2.83102 0
M  V30 797 H 75.422 3.38725 -1.65967 0
M  V30 798 H 77.809 2.82896 -0.839869 0
M  V30 799 H 77.89 1.53623 -2.04532 0
M  V30 800 H 77.534 3.26499 -3.89051 0
M  V30 801 H 77.464 4.54728 -2.65575 0
M  V30 802 H 79.955 3.04103 -2.24343 0
M  V30 803 H 80.268 5.82728 -5.07591 0
M  V30 804 H 78.613 5.24519 -4.55966 0
M  V30 805 H 81.804 3.71626 -2.84625 0
M  V30 806 H 81.977 4.98696 -4.13771 0
M  V30 807 N 75.3831 0.828654 1.34056 0
M  V30 808 C 76.6081 0.431637 2.02859 0
M  V30 809 C 77.0331 -0.956339 1.61975 0
M  V30 810 O 76.3911 -1.62338 0.807228 0
M  V30 811 C 76.4391 0.548323 3.56407 0
M  V30 812 O 75.5431 -0.429556 4.10157 0
M  V30 813 H 74.8841 0.176886 0.640006 0
M  V30 814 H 77.4141 1.12066 1.71179 0
M  V30 815 H 77.4241 0.426196 4.05768 0
M  V30 816 H 76.0991 1.5606 3.8551 0
M  V30 817 H 74.6761 -0.265836 3.71951 0
M  V30 818 N 76.8612 -1.46375 0.584142 0
M  V30 819 C 78.1092 -2.01978 0.0701287 0
M  V30 820 C 78.4302 -1.4579 -1.295 0
M  V30 821 O 77.7002 -0.64314 -1.85042 0
M  V30 822 H 76.2802 -0.746648 0.0229345 0
M  V30 823 H 78.9422 -1.79461 0.760245 0
M  V30 824 H 78.0382 -3.121 0.0022064 0
M  V30 825 N 78.3393 -0.321999 -1.54275 0
M  V30 826 C 79.5863 0.281044 -2.0054 0
M  V30 827 C 79.9143 1.52265 -1.21019 0
M  V30 828 O 79.1693 1.93687 -0.279982 0
M  V30 829 C 79.4683 0.661769 -3.5122 0
M  V30 830 C 79.1343 -0.480482 -4.48333 0
M  V30 831 C 77.7963 -0.794005 -4.74604 0
M  V30 832 C 80.1483 -1.24783 -5.06042 0
M  V30 833 C 77.4763 -1.87763 -5.55844 0
M  V30 834 C 79.8283 -2.32153 -5.88462 0
M  V30 835 C 78.4923 -2.64089 -6.13036 0
M  V30 836 H 77.7623 0.102841 -0.733829 0
M  V30 837 H 80.4093 -0.445453 -1.86247 0
M  V30 838 H 78.7143 1.46867 -3.63232 0
M  V30 839 H 80.4113 1.13989 -3.84457 0
M  V30 840 H 77.0013 -0.226039 -4.28004 0
M  V30 841 H 81.1853 -1.01887 -4.85729 0
M  V30 842 H 76.4413 -2.12954 -5.73115 0
M  V30 843 H 80.6153 -2.92057 -6.32199 0
M  V30 844 H 78.2423 -3.48185 -6.75775 0
M  V30 845 N 79.8174 1.5752 -0.0501392 0
M  V30 846 C 80.7644 2.1147 0.924603 0
M  V30 847 C 81.7344 1.02182 1.30951 0
M  V30 848 O 82.9194 1.29723 1.39916 0
M  V30 849 C 80.0594 2.66337 2.19451 0
M  V30 850 C 79.1724 3.89708 1.86418 0
M  V30 851 C 78.3074 4.32893 3.07859 0
M  V30 852 C 77.3464 5.48967 2.70742 0
M  V30 853 N 76.4834 5.87211 3.84874 0
M  V30 854 H 81.3234 2.94465 0.457639 0
M  V30 855 H 78.8604 1.45531 0.214266 0
M  V30 856 H 80.8184 2.96247 2.93758 0
M  V30 857 H 79.4484 1.86141 2.63726 0
M  V30 858 H 78.5004 3.66396 1.02264 0
M  V30 859 H 79.8124 4.74074 1.55096 0
M  V30 860 H 78.9664 4.6435 3.90466 0
M  V30 861 H 77.7054 3.47336 3.42358 0
M  V30 862 H 76.7104 5.17183 1.86551 0
M  V30 863 H 77.9354 6.3624 2.37436 0
M  V30 864 H 75.8814 5.04607 4.19175 0
M  V30 865 H 75.7984 6.66266 3.57247 0
M  V30 866 H 77.0664 6.23282 4.68123 0
M  V30 867 N 81.2955 -0.223234 1.56011 0
M  V30 868 C 82.5435 -0.946003 1.78592 0
M  V30 869 C 82.8645 -1.84936 0.618349 0
M  V30 870 O 82.1345 -1.92473 -0.364833 0
M  V30 871 H 80.7145 -0.352298 0.658707 0
M  V30 872 H 83.3765 -0.235494 1.93472 0
M  V30 873 H 82.4725 -1.55381 2.70672 0
M  V30 874 N 82.7736 -1.49793 -0.48987 0
M  V30 875 C 83.7206 -1.67281 -1.59014 0
M  V30 876 C 84.6906 -0.514177 -1.57941 0
M  V30 877 O 85.8756 -0.742533 -1.75759 0
M  V30 878 C 83.0156 -1.75569 -2.97102 0
M  V30 879 C 82.1286 -3.0281 -3.08107 0
M  V30 880 C 81.2636 -3.02008 -4.36995 0
M  V30 881 C 80.3026 -4.23782 -4.41673 0
M  V30 882 N 79.4396 -4.20826 -5.62005 0
M  V30 883 H 84.2796 -2.61224 -1.43409 0
M  V30 884 H 81.8166 -1.29508 -0.697565 0
M  V30 885 H 83.7746 -1.78354 -3.77155 0
M  V30 886 H 82.4046 -0.850827 -3.11385 0
M  V30 887 H 81.4566 -3.09584 -2.21047 0
M  V30 888 H 82.7686 -3.92801 -3.07423 0
M  V30 889 H 81.9226 -3.03418 -5.25378 0
M  V30 890 H 80.6616 -2.09815 -4.4026 0
M  V30 891 H 79.6666 -4.22604 -3.5169 0
M  V30 892 H 80.8916 -5.17181 -4.40115 0
M  V30 893 H 78.8376 -3.31476 -5.66091 0
M  V30 894 H 78.7546 -5.04564 -5.62984 0
M  V30 895 H 80.0226 -4.26355 -6.52565 0
M  V30 896 N 84.2517 0.741722 -1.39055 0
M  V30 897 C 85.5007 1.49656 -1.35225 0
M  V30 898 C 85.8137 1.95533 0.0512708 0
M  V30 899 O 87.0197 2.7067 0.212138 0
M  V30 900 C 85.4757 2.70389 -2.37525 0
M  V30 901 C 85.0837 2.31489 -3.83558 0
M  V30 902 C 86.8277 3.48236 -2.42759 0
M  V30 903 C 84.7347 3.48903 -4.77515 0
M  V30 904 H 83.6647 0.56197 -0.502699 0
M  V30 905 H 86.3157 0.809727 -1.64668 0
M  V30 906 H 84.6977 3.41113 -2.01142 0
M  V30 907 H 85.8717 1.68354 -4.28945 0
M  V30 908 H 84.1867 1.66749 -3.81554 0
M  V30 909 H 86.7837 4.35558 -3.1015 0
M  V30 910 H 87.1267 3.90229 -1.45008 0
M  V30 911 H 87.6597 2.84535 -2.78002 0
M  V30 912 H 84.3987 3.11966 -5.76504 0
M  V30 913 H 83.9187 4.11041 -4.36813 0
M  V30 914 H 85.5977 4.15328 -4.96096 0
M  V30 915 N 85.7298 1.2412 0.971189 0
M  V30 916 C 86.9598 1.10415 1.7462 0
M  V30 917 C 87.3678 -0.346462 1.86001 0
M  V30 918 O 86.7108 -1.25104 1.34517 0
M  V30 919 C 86.7728 1.66596 3.18568 0
M  V30 920 C 86.4368 3.15446 3.3067 0
M  V30 921 C 87.4338 4.12636 3.16271 0
M  V30 922 C 85.1188 3.55337 3.55022 0
M  V30 923 C 87.1128 5.47699 3.26044 0
M  V30 924 C 84.7998 4.90542 3.64434 0
M  V30 925 C 85.7978 5.86532 3.49956 0
M  V30 926 O 85.4858 7.19279 3.59017 0
M  V30 927 H 85.2178 0.386616 0.55453 0
M  V30 928 H 87.7718 1.64633 1.22821 0
M  V30 929 H 86.0018 1.06808 3.71657 0
M  V30 930 H 87.6908 1.48232 3.77865 0
M  V30 931 H 88.4568 3.8316 2.97344 0
M  V30 932 H 84.3358 2.8113 3.65359 0
M  V30 933 H 87.8798 6.22603 3.14661 0
M  V30 934 H 83.7768 5.19691 3.82873 0
M  V30 935 H 84.5448 7.27153 3.75754 0
M  V30 936 N 87.2079 -1.17134 1.05439 0
M  V30 937 C 88.4559 -1.87085 0.764429 0
M  V30 938 C 88.7769 -1.81584 -0.710787 0
M  V30 939 O 88.0469 -1.24349 -1.51374 0
M  V30 940 H 86.6269 -0.692627 0.279779 0
M  V30 941 H 89.2889 -1.42087 1.33406 0
M  V30 942 H 88.3849 -2.92759 1.0816 0
M  V30 943 N 88.686 -0.835752 -1.33615 0
M  V30 944 C 89.916 -0.442701 -2.01801 0
M  V30 945 C 90.324 0.959807 -1.63047 0
M  V30 946 O 89.667 1.63468 -0.838088 0
M  V30 947 C 89.729 -0.480125 -3.56279 0
M  V30 948 C 89.393 -1.8382 -4.18401 0
M  V30 949 C 90.39 -2.80097 -4.37998 0
M  V30 950 C 88.075 -2.13019 -4.54894 0
M  V30 951 C 90.069 -4.03736 -4.9323 0
M  V30 952 C 87.756 -3.36916 -5.09834 0
M  V30 953 C 88.754 -4.32091 -5.28948 0
M  V30 954 O 88.442 -5.53797 -5.82721 0
M  V30 955 H 88.174 -0.17441 -0.653114 0
M  V30 956 H 90.728 -1.129 -1.71589 0
M  V30 957 H 88.958 0.262931 -3.85805 0
M  V30 958 H 90.647 -0.105335 -4.05763 0
M  V30 959 H 91.413 -2.58838 -4.10156 0
M  V30 960 H 87.292 -1.39733 -4.39313 0
M  V30 961 H 90.836 -4.78034 -5.08064 0
M  V30 962 H 86.733 -3.58033 -5.37106 0
M  V30 963 H 87.501 -5.55494 -6.0114 0
M  V30 964 N 90.1641 1.46063 -0.591896 0
M  V30 965 C 91.4411 1.95595 -0.0137119 0
M  V30 966 C 91.8211 1.5345 1.4497 0
M  V30 967 O 91.1691 0.789543 2.14426 0
M  V30 968 C 91.3791 3.48453 -0.195373 0
M  V30 969 C 92.7271 4.24546 -0.0679765 0
M  V30 970 O 93.7511 3.55982 -0.124681 0
M  V30 971 O 92.6101 5.46467 0.0600579 0
M  V30 972 H 89.7041 0.825795 0.0446279 0
M  V30 973 H 92.2501 1.56303 -0.660859 0
M  V30 974 H 91.0221 3.72045 -1.21235 0
M  V30 975 H 90.6451 3.94597 0.487775 0
M  V30 976 N 91.6422 0.330177 1.54103 0
M  V30 977 C 92.8912 -0.271336 1.99867 0
M  V30 978 C 93.2042 -1.52723 1.22209 0
M  V30 979 O 94.4102 -2.20515 1.58383 0
M  V30 980 C 92.8662 -0.534032 3.55916 0
M  V30 981 C 92.4742 0.705193 4.42415 0
M  V30 982 C 94.2182 -1.09514 4.1013 0
M  V30 983 C 92.1252 0.414035 5.89949 0
M  V30 984 H 91.0552 -0.105166 0.74663 0
M  V30 985 H 93.7062 0.443429 1.78062 0
M  V30 986 H 92.0882 -1.30915 3.73734 0
M  V30 987 H 93.2622 1.4804 4.36372 0
M  V30 988 H 91.5772 1.18698 3.99124 0
M  V30 989 H 94.1742 -1.3277 5.17954 0
M  V30 990 H 94.5172 -2.04656 3.62521 0
M  V30 991 H 95.0502 -0.381038 3.95971 0
M  V30 992 H 91.7892 1.33481 6.41766 0
M  V30 993 H 91.3092 -0.323336 5.98928 0
M  V30 994 H 92.9882 0.0263105 6.46995 0
M  V30 995 N 93.1203 -1.57491 0.0584922 0
M  V30 996 C 94.0683 -2.13148 -0.931168 0
M  V30 997 C 95.0623 -1.06507 -1.31729 0
M  V30 998 O 96.2683 -1.24906 -1.29609 0
M  V30 999 H 92.6433 -0.68137 -0.31818 0
M  V30 1000 H 94.6143 -2.95187 -0.436707 0
M  V30 1001 C 93.3633 -2.69732 -2.19408 0
M  V30 1002 H 92.6863 -3.51454 -1.90578 0
M  V30 1003 H 94.1263 -3.12287 -2.86798 0
M  V30 1004 C 92.5853 -1.63855 -2.94369 0
M  V30 1005 O 93.1153 -1.05565 -3.87581 0
M  V30 1006 N 91.3213 -1.35202 -2.57233 0
M  V30 1007 H 90.8683 -1.82791 -1.81508 0
M  V30 1008 H 90.8263 -0.645922 -3.07693 0
M  V30 1009 N 94.5984 0.214957 -1.56127 0
M  V30 1010 C 96.0094 0.781386 -1.69562 0
M  V30 1011 C 96.3604 1.84707 -0.66165 0
M  V30 1012 O 95.4854 2.156 0.185927 0
M  V30 1013 C 96.0804 1.42411 -3.07416 0
M  V30 1014 C 94.6394 1.93786 -3.22683 0
M  V30 1015 C 93.7864 0.800438 -2.65496 0
M  V30 1016 H 96.7374 -0.00980633 -1.58697 0
M  V30 1017 H 96.7584 2.29309 -3.0364 0
M  V30 1018 H 96.2704 0.64826 -3.82648 0
M  V30 1019 H 94.3714 2.74152 -2.52332 0
M  V30 1020 H 94.4844 2.1133 -4.29973 0
M  V30 1021 H 92.8484 1.2095 -2.2415 0
M  V30 1022 H 93.6314 0.0371471 -3.4328 0
M  V30 1023 N 96.0765 1.50051 0.48192 0
M  V30 1024 C 96.9865 1.7089 1.60728 0
M  V30 1025 C 98.0025 0.591788 1.63627 0
M  V30 1026 O 99.1785 0.868817 1.81696 0
M  V30 1027 C 96.2435 1.78855 2.97005 0
M  V30 1028 C 95.3045 3.02537 3.04581 0
M  V30 1029 C 94.5375 3.10112 4.34357 0
M  V30 1030 O 94.7605 2.24765 5.24249 0
M  V30 1031 O 93.6945 4.02747 4.47301 0
M  V30 1032 H 97.5205 2.66264 1.46072 0
M  V30 1033 H 95.1055 1.34018 0.660264 0
M  V30 1034 H 96.9875 1.86336 3.77964 0
M  V30 1035 H 95.6625 0.866628 3.11883 0
M  V30 1036 H 94.5695 3.00563 2.22739 0
M  V30 1037 H 95.9025 3.94272 2.94636 0
M  V30 1038 N 97.5546 -0.734337 1.39446 0
M  V30 1039 C 98.7796 -1.52866 1.40167 0
M  V30 1040 C 99.2046 -1.881 -0.00171513 0
M  V30 1041 O 98.5626 -1.51957 -0.988879 0
M  V30 1042 C 98.6106 -2.79235 2.28167 0
M  V30 1043 O 97.7146 -3.75185 1.71201 0
M  V30 1044 H 97.0556 -0.461618 0.477289 0
M  V30 1045 H 99.5856 -0.905949 1.8345 0
M  V30 1046 H 99.5956 -3.27963 2.42702 0
M  V30 1047 H 98.2706 -2.52923 3.30156 0
M  V30 1048 H 96.8476 -3.33958 1.65912 0
M  V30 1049 N 99.0327 -1.24633 -0.964593 0
M  V30 1050 C 100.282 -1.08188 -1.7023 0
M  V30 1051 C 100.595 0.37873 -1.91898 0
M  V30 1052 O 101.801 0.663427 -2.6327 0
M  V30 1053 C 100.257 -1.88773 -3.06419 0
M  V30 1054 C 99.8647 -3.39263 -2.92582 0
M  V30 1055 C 101.609 -1.80867 -3.84041 0
M  V30 1056 C 99.5157 -4.1218 -4.24101 0
M  V30 1057 H 98.4457 -0.401245 -0.638372 0
M  V30 1058 H 101.097 -1.48742 -1.07462 0
M  V30 1059 H 99.4787 -1.41035 -3.70034 0
M  V30 1060 H 100.653 -3.94603 -2.37961 0
M  V30 1061 H 98.9677 -3.48154 -2.28424 0
M  V30 1062 H 101.565 -2.32646 -4.81435 0
M  V30 1063 H 101.908 -0.774543 -4.09031 0
M  V30 1064 H 102.441 -2.26301 -3.27159 0
M  V30 1065 H 99.1797 -5.15965 -4.04303 0
M  V30 1066 H 98.6997 -3.61626 -4.78526 0
M  V30 1067 H 100.379 -4.19349 -4.92702 0
M  V30 1068 N 100.511 1.16574 -1.06058 0
M  V30 1069 C 101.736 1.91493 -0.796562 0
M  V30 1070 C 102.161 1.76773 0.642868 0
M  V30 1071 O 101.519 1.09142 1.44768 0
M  V30 1072 C 101.567 3.40293 -1.19303 0
M  V30 1073 O 100.671 4.11074 -0.330394 0
M  V30 1074 H 100.012 0.596678 -0.291326 0
M  V30 1075 H 102.542 1.47708 -1.41575 0
M  V30 1076 H 102.552 3.91057 -1.16356 0
M  V30 1077 H 101.227 3.50326 -2.24153 0
M  V30 1078 H 99.8038 3.70513 -0.421225 0
M  V30 1079 N 101.989 0.842826 1.3317 0
M  V30 1080 C 102.936 0.276885 2.29133 0
M  V30 1081 C 103.906 -0.609527 1.54512 0
M  V30 1082 O 105.091 -0.546955 1.82792 0
M  V30 1083 C 102.231 -0.538707 3.40869 0
M  V30 1084 C 101.344 0.372169 4.30394 0
M  V30 1085 C 100.479 -0.454908 5.29249 0
M  V30 1086 C 99.5179 0.45411 6.10413 0
M  V30 1087 N 98.6549 -0.335075 7.013 0
M  V30 1088 H 103.495 1.10052 2.76934 0
M  V30 1089 H 101.032 0.554161 1.36262 0
M  V30 1090 H 102.99 -1.02709 4.0436 0
M  V30 1091 H 101.62 -1.32727 2.9425 0
M  V30 1092 H 100.672 0.97888 3.6759 0
M  V30 1093 H 101.984 1.0703 4.87182 0
M  V30 1094 H 101.138 -1.00695 5.98285 0
M  V30 1095 H 99.8769 -1.18646 4.73048 0
M  V30 1096 H 98.8819 1.01813 5.40291 0
M  V30 1097 H 100.107 1.18409 6.68697 0
M  V30 1098 H 98.0529 -1.04994 6.47543 0
M  V30 1099 H 97.9699 0.304262 7.55387 0
M  V30 1100 H 99.2379 -0.869224 7.74638 0
M  V30 1101 N 103.467 -1.45747 0.599634 0
M  V30 1102 C 104.43 -2.28917 -0.113835 0
M  V30 1103 C 105.43 -1.3933 -0.802729 0
M  V30 1104 O 106.62 -1.61534 -0.652103 0
M  V30 1105 C 103.752 -3.20152 -1.17114 0
M  V30 1106 H 104.945 -2.93478 0.617289 0
M  V30 1107 H 102.498 -1.52137 0.358327 0
M  V30 1108 H 103.233 -2.60374 -1.93329 0
M  V30 1109 H 103.018 -3.86133 -0.681468 0
M  V30 1110 H 104.508 -3.82708 -1.67105 0
M  V30 1111 N 104.945 -0.338344 -1.53925 0
M  V30 1112 C 106.191 0.260143 -2.01125 0
M  V30 1113 C 106.524 1.50617 -1.22589 0
M  V30 1114 O 105.799 1.91979 -0.312113 0
M  V30 1115 C 106.082 0.579499 -3.55407 0
M  V30 1116 C 105.935 -0.678264 -4.44657 0
M  V30 1117 C 107.254 1.39122 -4.17532 0
M  V30 1118 H 104.373 0.0930772 -0.731099 0
M  V30 1119 H 107.015 -0.457852 -1.84401 0
M  V30 1120 H 105.165 1.19118 -3.69788 0
M  V30 1121 H 106.837 -1.31631 -4.42121 0
M  V30 1122 H 105.08 -1.3042 -4.13731 0
M  V30 1123 H 105.751 -0.410143 -5.50474 0
M  V30 1124 H 108.227 0.874035 -4.06817 0
M  V30 1125 H 107.103 1.58342 -5.25565 0
M  V30 1126 H 107.364 2.39178 -3.71815 0
M  V30 1127 N 106.423 1.57458 -0.0668435 0
M  V30 1128 C 107.7 1.8469 0.644132 0
M  V30 1129 C 108.08 0.958343 1.88093 0
M  V30 1130 O 107.428 0.0233579 2.28488 0
M  V30 1131 C 107.638 3.34767 0.986509 0
M  V30 1132 C 108.986 4.02159 1.36212 0
M  V30 1133 O 110.01 3.39484 1.07839 0
M  V30 1134 O 108.869 5.12694 1.89227 0
M  V30 1135 H 105.963 0.762816 0.319437 0
M  V30 1136 H 108.509 1.6942 -0.0973986 0
M  V30 1137 H 107.281 3.91151 0.107883 0
M  V30 1138 H 106.904 3.55281 1.78497 0
M  V30 1139 N 107.901 -0.206675 1.56239 0
M  V30 1140 C 108.831 -1.25909 1.96645 0
M  V30 1141 C 109.812 -1.48097 0.836734 0
M  V30 1142 O 110.997 -1.6003 1.10019 0
M  V30 1143 C 108.127 -2.6058 2.29599 0
M  V30 1144 C 107.081 -2.53024 3.452 0
M  V30 1145 C 106.407 -3.91861 3.63798 0
M  V30 1146 C 107.707 -2.06524 4.79734 0
M  V30 1147 H 109.401 -0.923369 2.84806 0
M  V30 1148 H 106.947 -0.442735 1.37025 0
M  V30 1149 H 108.9 -3.34375 2.56459 0
M  V30 1150 H 107.624 -2.95869 1.38307 0
M  V30 1151 H 106.283 -1.81684 3.18412 0
M  V30 1152 H 105.931 -4.24483 2.69857 0
M  V30 1153 H 105.631 -3.87683 4.4156 0
M  V30 1154 H 107.155 -4.67296 3.93022 0
M  V30 1155 H 108.569 -2.70072 5.05702 0
M  V30 1156 H 106.966 -2.13374 5.60885 0
M  V30 1157 H 108.036 -1.01802 4.74093 0
M  V30 1158 N 109.379 -1.50304 -0.473955 0
M  V30 1159 C 110.627 -1.60832 -1.22382 0
M  V30 1160 C 110.948 -0.30939 -1.9253 0
M  V30 1161 O 110.218 0.67296 -1.83978 0
M  V30 1162 H 108.798 -0.592652 -0.454723 0
M  V30 1163 H 111.46 -1.87068 -0.546968 0
M  V30 1164 H 110.556 -2.41803 -1.97327 0
M  V30 1165 N 110.857 0.726932 -1.39834 0
M  V30 1166 C 112.106 1.48214 -1.36805 0
M  V30 1167 C 112.419 1.95576 0.0305291 0
M  V30 1168 O 113.625 2.7088 0.183417 0
M  V30 1169 C 112.081 2.67854 -2.40379 0
M  V30 1170 C 111.689 2.27408 -3.85992 0
M  V30 1171 C 113.433 3.45641 -2.46439 0
M  V30 1172 C 111.34 3.43819 -4.81189 0
M  V30 1173 H 110.27 0.556606 -0.508631 0
M  V30 1174 H 112.921 0.792216 -1.65518 0
M  V30 1175 H 111.303 3.3896 -2.04749 0
M  V30 1176 H 112.477 1.63795 -4.30706 0
M  V30 1177 H 110.792 1.62692 -3.83302 0
M  V30 1178 H 113.389 4.32244 -3.14753 0
M  V30 1179 H 113.732 3.88669 -1.49139 0
M  V30 1180 H 114.265 2.8157 -2.81004 0
M  V30 1181 H 111.004 3.05834 -5.79781 0
M  V30 1182 H 110.524 4.06385 -4.41148 0
M  V30 1183 H 112.203 4.10043 -5.00474 0
M  V30 1184 N 112.336 1.25143 0.95797 0
M  V30 1185 C 113.585 1.0909 1.69654 0
M  V30 1186 C 113.898 -0.368548 1.92097 0
M  V30 1187 O 115.104 -0.649455 2.63618 0
M  V30 1188 C 113.56 1.90395 3.05414 0
M  V30 1189 C 113.168 3.4081 2.90779 0
M  V30 1190 C 114.912 1.82901 3.83076 0
M  V30 1191 C 112.819 4.14423 4.21909 0
M  V30 1192 H 111.749 0.404625 0.636235 0
M  V30 1193 H 114.4 1.4931 1.06672 0
M  V30 1194 H 112.782 1.42996 3.69281 0
M  V30 1195 H 113.956 3.95859 2.35865 0
M  V30 1196 H 112.271 3.49361 2.26575 0
M  V30 1197 H 114.868 2.35196 4.80195 0
M  V30 1198 H 115.211 0.796224 4.08615 0
M  V30 1199 H 115.744 2.28033 3.25954 0
M  V30 1200 H 112.483 5.18102 4.01561 0
M  V30 1201 H 112.003 3.64159 4.76601 0
M  V30 1202 H 113.682 4.21956 4.90471 0
M  V30 1203 N 113.814 -1.1601 1.06675 0
M  V30 1204 C 115.091 -1.82679 0.699114 0
M  V30 1205 C 115.471 -1.94559 -0.819137 0
M  V30 1206 O 114.819 -1.49169 -1.73092 0
M  V30 1207 C 115.029 -3.19445 1.40555 0
M  V30 1208 C 116.377 -3.95171 1.55323 0
M  V30 1209 O 117.401 -3.28976 1.36577 0
M  V30 1210 O 116.26 -5.13833 1.86112 0
M  V30 1211 H 113.354 -0.788954 0.247951 0
M  V30 1212 H 115.9 -1.23179 1.16726 0
M  V30 1213 H 114.672 -3.05856 2.44065 0
M  V30 1214 H 114.295 -3.86625 0.927733 0
M  V30 1215 N 115.292 -0.849877 -1.32721 0
M  V30 1216 C 116.202 -0.293791 -2.32753 0
M  V30 1217 C 117.218 0.585906 -1.63839 0
M  V30 1218 O 118.394 0.487413 -1.95413 0
M  V30 1219 C 115.459 0.512752 -3.42887 0
M  V30 1220 C 114.52 -0.39252 -4.27502 0
M  V30 1221 C 113.753 0.375625 -5.32377 0
M  V30 1222 O 113.976 1.60613 -5.4732 0
M  V30 1223 O 112.91 -0.256094 -6.01355 0
M  V30 1224 H 116.736 -1.12242 -2.82197 0
M  V30 1225 H 114.321 -0.612685 -1.36259 0
M  V30 1226 H 116.203 0.970704 -4.10067 0
M  V30 1227 H 114.878 1.31826 -2.95641 0
M  V30 1228 H 113.785 -0.898547 -3.63149 0
M  V30 1229 H 115.118 -1.16309 -4.7826 0
M  V30 1230 N 116.77 1.45427 -0.607355 0
M  V30 1231 C 118.018 2.01841 -0.102253 0
M  V30 1232 C 118.339 1.47832 1.27164 0
M  V30 1233 O 117.609 0.672497 1.83995 0
M  V30 1234 H 116.189 0.746188 -0.0348101 0
M  V30 1235 H 118.851 1.78229 -0.7887 0
M  V30 1236 H 117.947 3.12057 -0.0518585 0
M  V30 1237 N 118.248 0.346503 1.53744 0
M  V30 1238 C 119.476 -0.25041 2.05379 0
M  V30 1239 C 119.891 -1.43979 1.22129 0
M  V30 1240 O 119.248 -1.80677 0.257321 0
M  V30 1241 C 119.299 -0.662575 3.55376 0
M  V30 1242 O 119.02 0.479515 4.35468 0
M  V30 1243 C 120.521 -1.31989 4.23195 0
M  V30 1244 H 117.741 -0.0478198 0.669294 0
M  V30 1245 H 120.285 0.499346 1.9831 0
M  V30 1246 H 118.44 -1.36227 3.62658 0
M  V30 1247 H 118.854 0.15037 5.24284 0
M  V30 1248 H 120.328 -1.55902 5.29527 0
M  V30 1249 H 120.805 -2.27436 3.75725 0
M  V30 1250 H 121.411 -0.662154 4.20114 0
M  V30 1251 N 119.726 -1.57421 0.075193 0
M  V30 1252 C 120.954 -1.97946 -0.602076 0
M  V30 1253 C 121.369 -0.953674 -1.62943 0
M  V30 1254 O 120.726 0.0592551 -1.82404 0
M  V30 1255 C 120.777 -3.38546 -1.26762 0
M  V30 1256 O 120.498 -4.37195 -0.281376 0
M  V30 1257 C 121.999 -3.93966 -2.03239 0
M  V30 1258 H 119.219 -0.650918 -0.162931 0
M  V30 1259 H 121.763 -2.03959 0.148601 0
M  V30 1260 H 119.918 -3.33609 -1.96936 0
M  V30 1261 H 120.332 -5.18975 -0.759267 0
M  V30 1262 H 121.806 -4.94555 -2.45193 0
M  V30 1263 H 122.283 -3.30693 -2.8903 0
M  V30 1264 H 122.889 -4.02315 -1.37924 0
M  V30 1265 N 121.204 0.198386 -1.56346 0
M  V30 1266 C 122.429 0.939682 -1.84891 0
M  V30 1267 C 122.854 1.76202 -0.658369 0
M  V30 1268 O 122.212 1.76993 0.392851 0
M  V30 1269 C 122.26 1.81428 -3.11635 0
M  V30 1270 O 121.364 2.91265 -2.91956 0
M  V30 1271 H 120.705 0.264807 -0.608912 0
M  V30 1272 H 123.235 0.204695 -2.03573 0
M  V30 1273 H 123.245 2.21958 -3.42343 0
M  V30 1274 H 121.92 1.21004 -3.97908 0
M  V30 1275 H 120.497 2.54514 -2.72538 0
M  V30 1276 N 122.682 1.50554 0.465978 0
M  V30 1277 C 123.931 1.61038 1.21448 0
M  V30 1278 C 124.244 0.31865 1.92987 0
M  V30 1279 O 125.45 0.302469 2.6981 0
M  V30 1280 C 123.906 2.84283 2.20706 0
M  V30 1281 C 123.514 4.20352 1.54946 0
M  V30 1282 C 125.258 3.04115 2.96166 0
M  V30 1283 C 123.165 5.34778 2.5252 0
M  V30 1284 H 122.095 0.599718 0.457005 0
M  V30 1285 H 124.746 1.7699 0.484424 0
M  V30 1286 H 123.128 2.61901 2.97025 0
M  V30 1287 H 124.302 4.53008 0.843811 0
M  V30 1288 H 122.617 4.06167 0.917475 0
M  V30 1289 H 125.214 3.86774 3.69202 0
M  V30 1290 H 125.557 2.16045 3.55852 0
M  V30 1291 H 126.09 3.26702 2.26959 0
M  V30 1292 H 122.829 6.25018 1.97566 0
M  V30 1293 H 122.349 5.06534 3.21222 0
M  V30 1294 H 124.028 5.65561 3.14245 0
M  V30 1295 N 124.16 -0.719506 1.40217 0
M  V30 1296 C 125.123 -1.8153 1.39927 0
M  V30 1297 C 126.123 -1.58095 0.293723 0
M  V30 1298 O 127.313 -1.65209 0.552429 0
M  V30 1299 C 124.445 -3.19561 1.18716 0
M  V30 1300 H 125.638 -1.83186 2.37451 0
M  V30 1301 H 123.191 -0.924746 1.26008 0
M  V30 1302 H 123.926 -3.23557 0.219366 0
M  V30 1303 H 123.711 -3.3797 1.98793 0
M  V30 1304 H 125.201 -3.99598 1.21291 0
M  V30 1305 N 125.638 -1.25649 -0.95132 0
M  V30 1306 C 126.585 -1.06323 -2.04851 0
M  V30 1307 C 127.555 0.0286491 -1.66075 0
M  V30 1308 O 128.74 -0.12917 -1.90362 0
M  V30 1309 C 125.88 -0.691529 -3.381 0
M  V30 1310 C 124.993 -1.85861 -3.89974 0
M  V30 1311 C 124.128 -1.43096 -5.11563 0
M  V30 1312 C 123.167 -2.56696 -5.55674 0
M  V30 1313 N 122.304 -2.14684 -6.68472 0
M  V30 1314 H 127.144 -2.00222 -2.20715 0
M  V30 1315 H 124.681 -0.997027 -1.08156 0
M  V30 1316 H 126.639 -0.456963 -4.1469 0
M  V30 1317 H 125.269 0.210474 -3.22113 0
M  V30 1318 H 124.321 -2.20639 -3.09875 0
M  V30 1319 H 125.633 -2.71161 -4.18657 0
M  V30 1320 H 124.787 -1.15624 -5.9558 0
M  V30 1321 H 123.526 -0.548722 -4.84603 0
M  V30 1322 H 122.531 -2.84909 -4.7022 0
M  V30 1323 H 123.756 -3.45503 -5.8464 0
M  V30 1324 H 121.702 -1.28881 -6.43215 0
M  V30 1325 H 121.619 -2.9353 -6.96689 0
M  V30 1326 H 122.887 -1.90397 -7.5589 0
M  V30 1327 N 127.117 1.15442 -1.07289 0
M  V30 1328 C 128.363 1.86489 -0.796846 0
M  V30 1329 C 128.696 1.82078 0.675371 0
M  V30 1330 O 127.971 1.24346 1.4956 0
M  V30 1331 C 128.254 3.35626 -1.30489 0
M  V30 1332 C 128.107 3.48673 -2.84161 0
M  V30 1333 C 129.426 4.30357 -0.920907 0
M  V30 1334 H 126.545 0.677144 -0.290939 0
M  V30 1335 H 129.187 1.35633 -1.33056 0
M  V30 1336 H 127.337 3.79068 -0.850883 0
M  V30 1337 H 129.009 3.14099 -3.37846 0
M  V30 1338 H 127.252 2.90253 -3.22391 0
M  V30 1339 H 127.923 4.53453 -3.14777 0
M  V30 1340 H 130.399 3.94871 -1.3121 0
M  V30 1341 H 129.275 5.33193 -1.30372 0
M  V30 1342 H 129.536 4.4176 0.173226 0
M  V30 1343 N 128.595 0.856903 1.32268 0
M  V30 1344 C 129.505 0.306131 2.32594 0
M  V30 1345 C 130.521 -0.577209 1.64147 0
M  V30 1346 O 131.697 -0.477043 1.95669 0
M  V30 1347 C 128.762 -0.494561 3.43154 0
M  V30 1348 C 127.823 0.415186 4.27288 0
M  V30 1349 C 127.056 -0.347387 5.32568 0
M  V30 1350 O 127.279 -1.57708 5.48165 0
M  V30 1351 O 126.213 0.287982 6.01211 0
M  V30 1352 H 130.039 1.13737 2.81598 0
M  V30 1353 H 127.624 0.619902 1.35932 0
M  V30 1354 H 129.506 -0.948944 4.10576 0
M  V30 1355 H 128.181 -1.30257 2.96336 0
M  V30 1356 H 127.088 0.917793 3.62667 0
M  V30 1357 H 128.421 1.18844 4.77637 0
M  V30 1358 N 130.073 -1.45103 0.615059 0
M  V30 1359 C 131.35 -1.95549 0.0448276 0
M  V30 1360 C 131.73 -1.55737 -1.4251 0
M  V30 1361 O 131.078 -0.823556 -2.13143 0
M  V30 1362 C 131.288 -3.48098 0.250785 0
M  V30 1363 C 132.636 -4.24384 0.135509 0
M  V30 1364 O 133.66 -3.55738 0.181299 0
M  V30 1365 O 132.519 -5.46493 0.0268878 0
M  V30 1366 H 129.613 -0.8264 -0.0314845 0
M  V30 1367 H 132.159 -1.55232 0.685642 0
M  V30 1368 H 130.931 -3.7007 1.27139 0
M  V30 1369 H 130.554 -3.95323 -0.424937 0
M  V30 1370 N 131.551 -0.354651 -1.53558 0
M  V30 1371 C 132.798 0.238443 -2.01091 0
M  V30 1372 C 133.126 1.49663 -1.24222 0
M  V30 1373 O 132.381 1.93049 -0.321003 0
M  V30 1374 C 132.68 0.587121 -3.52545 0
M  V30 1375 C 132.346 -0.575472 -4.47213 0
M  V30 1376 C 131.008 -0.894497 -4.72813 0
M  V30 1377 C 133.36 -1.35489 -5.03281 0
M  V30 1378 C 130.688 -1.99511 -5.51736 0
M  V30 1379 C 133.04 -2.44583 -5.83405 0
M  V30 1380 C 131.704 -2.77033 -6.07296 0
M  V30 1381 H 130.974 0.0872526 -0.735845 0
M  V30 1382 H 133.621 -0.484859 -1.8526 0
M  V30 1383 H 131.926 1.39129 -3.66265 0
M  V30 1384 H 133.623 1.05809 -3.86789 0
M  V30 1385 H 130.213 -0.316774 -4.27428 0
M  V30 1386 H 134.397 -1.12167 -4.83459 0
M  V30 1387 H 129.653 -2.25063 -5.68469 0
M  V30 1388 H 133.827 -3.05401 -6.25862 0
M  V30 1389 H 131.454 -3.6244 -6.68237 0
M  V30 1390 N 133.029 1.57378 -0.0835403 0
M  V30 1391 C 134.254 1.98682 0.594987 0
M  V30 1392 C 134.679 0.961969 1.61641 0
M  V30 1393 O 134.037 -0.0709989 1.81161 0
M  V30 1394 C 134.085 3.38988 1.2296 0
M  V30 1395 O 133.189 3.39208 2.34546 0
M  V30 1396 H 132.53 0.646368 0.152002 0
M  V30 1397 H 135.06 2.03961 -0.161533 0
M  V30 1398 H 135.07 3.76431 1.57366 0
M  V30 1399 H 133.745 4.13107 0.481228 0
M  V30 1400 H 132.322 3.13548 2.01846 0
M  V30 1401 N 134.507 -0.190092 1.56449 0
M  V30 1402 C 135.918 -0.754312 1.70784 0
M  V30 1403 C 136.269 -1.83631 0.690951 0
M  V30 1404 O 135.394 -2.15868 -0.151604 0
M  V30 1405 C 135.989 -1.37503 3.09642 0
M  V30 1406 C 134.548 -1.88628 3.25725 0
M  V30 1407 C 133.695 -0.758098 2.66736 0
M  V30 1408 H 136.646 0.0350524 1.58661 0
M  V30 1409 H 136.667 -2.2445 3.0725 0
M  V30 1410 H 136.179 -0.587302 3.83631 0
M  V30 1411 H 134.28 -2.70103 2.56661 0
M  V30 1412 H 134.393 -2.04462 4.3328 0
M  V30 1413 H 132.757 -1.17369 2.26046 0
M  V30 1414 H 133.54 0.0174705 3.43296 0
M  V30 1415 N 135.985 -1.50799 -0.457987 0
M  V30 1416 C 137.262 -1.52968 -1.21902 0
M  V30 1417 C 137.642 -0.281906 -2.09209 0
M  V30 1418 O 136.99 0.734076 -2.16388 0
M  V30 1419 C 137.2 -2.8326 -2.03875 0
M  V30 1420 C 138.548 -3.34425 -2.6162 0
M  V30 1421 O 139.572 -2.8467 -2.14106 0
M  V30 1422 O 138.431 -4.21188 -3.48228 0
M  V30 1423 H 135.525 -0.614129 -0.553873 0
M  V30 1424 H 138.071 -1.63098 -0.468739 0
M  V30 1425 H 136.843 -3.65543 -1.39621 0
M  V30 1426 H 136.466 -2.76195 -2.8601 0
M  V30 1427 N 137.463 0.71206 -1.40597 0
M  V30 1428 C 138.71 1.47197 -1.39065 0
M  V30 1429 C 139.038 1.94499 0.00583891 0
M  V30 1430 O 138.293 1.68752 0.99102 0
M  V30 1431 C 138.592 2.71039 -2.32965 0
M  V30 1432 C 138.258 2.42484 -3.80148 0
M  V30 1433 C 136.92 2.34406 -4.20247 0
M  V30 1434 C 139.272 2.18598 -4.73143 0
M  V30 1435 C 136.6 2.00516 -5.51371 0
M  V30 1436 C 138.952 1.8622 -6.0457 0
M  V30 1437 C 137.616 1.76626 -6.43708 0
M  V30 1438 H 136.886 0.538634 -0.508876 0
M  V30 1439 H 139.533 0.815325 -1.73276 0
M  V30 1440 H 137.838 3.41558 -1.91951 0
M  V30 1441 H 139.535 3.29138 -2.29061 0
M  V30 1442 H 136.125 2.49659 -3.4838 0
M  V30 1443 H 140.309 2.23793 -4.42979 0
M  V30 1444 H 135.565 1.91628 -5.80593 0
M  V30 1445 H 139.739 1.66752 -6.76141 0
M  V30 1446 H 137.366 1.50133 -7.45228 0
M  V30 1447 N 138.941 1.26152 0.944643 0
M  V30 1448 C 140.187 1.11657 1.69294 0
M  V30 1449 C 140.52 -0.339926 1.91202 0
M  V30 1450 O 139.795 -1.24994 1.49019 0
M  V30 1451 C 140.078 1.88236 3.06984 0
M  V30 1452 C 139.931 3.41772 2.92424 0
M  V30 1453 C 141.25 1.67343 4.07043 0
M  V30 1454 H 138.369 0.407004 0.614424 0
M  V30 1455 H 141.011 1.55106 1.09737 0
M  V30 1456 H 139.161 1.51308 3.57824 0
M  V30 1457 H 140.833 3.88433 2.48832 0
M  V30 1458 H 139.076 3.68974 2.28124 0
M  V30 1459 H 139.747 3.90579 3.90067 0
M  V30 1460 H 142.223 1.99509 3.65151 0
M  V30 1461 H 141.099 2.23346 5.01406 0
M  V30 1462 H 141.36 0.617158 4.37771 0
M  V30 1463 N 140.419 -1.14872 1.07899 0
M  V30 1464 C 141.352 -2.18794 0.64841 0
M  V30 1465 C 142.33 -1.59065 -0.337189 0
M  V30 1466 O 143.514 -1.86936 -0.242284 0
M  V30 1467 C 140.641 -3.38667 -0.0470417 0
M  V30 1468 C 139.687 -4.16942 0.897884 0
M  V30 1469 S 140.52 -4.78615 2.40183 0
M  V30 1470 C 141.676 -6.0185 1.71834 0
M  V30 1471 H 141.909 -2.5498 1.52881 0
M  V30 1472 H 139.442 -1.25922 0.893484 0
M  V30 1473 H 141.4 -4.08113 -0.442027 0
M  V30 1474 H 140.061 -3.00814 -0.903861 0
M  V30 1475 H 139.254 -5.02726 0.358096 0
M  V30 1476 H 138.856 -3.53073 1.23352 0
M  V30 1477 H 141.148 -6.69574 1.03328 0
M  V30 1478 H 142.091 -6.60408 2.55473 0
M  V30 1479 H 142.499 -5.5173 1.19392 0
M  V30 1480 N 141.898 -0.863906 -1.31812 0
M  V30 1481 C 142.828 -0.330843 -2.31144 0
M  V30 1482 C 143.809 0.575005 -1.60087 0
M  V30 1483 O 144.994 0.493304 -1.8783 0
M  V30 1484 C 142.124 0.47374 -3.44054 0
M  V30 1485 C 141.078 -0.338481 -4.26659 0
M  V30 1486 C 140.404 0.591412 -5.31419 0
M  V30 1487 C 141.704 -1.56926 -4.98168 0
M  V30 1488 H 143.398 -1.16086 -2.75979 0
M  V30 1489 H 140.944 -0.559657 -1.32679 0
M  V30 1490 H 142.897 0.857143 -4.12591 0
M  V30 1491 H 141.621 1.33721 -2.9797 0
M  V30 1492 H 140.28 -0.703754 -3.59782 0
M  V30 1493 H 139.928 1.45199 -4.81587 0
M  V30 1494 H 139.628 0.0519022 -5.87577 0
M  V30 1495 H 141.152 0.97179 -6.02817 0
M  V30 1496 H 142.566 -1.25764 -5.59336 0
M  V30 1497 H 140.963 -2.04739 -5.64094 0
M  V30 1498 H 142.033 -2.32544 -4.25501 0
M  V30 1499 N 143.376 1.44774 -0.622745 0
M  V30 1500 C 144.601 2.06999 -0.128968 0
M  V30 1501 C 145.026 1.4617 1.1839 0
M  V30 1502 O 144.384 0.560007 1.72434 0
M  V30 1503 C 144.432 3.60595 -0.0188351 0
M  V30 1504 O 143.536 3.99398 1.02739 0
M  V30 1505 H 142.877 0.659047 -0.0809544 0
M  V30 1506 H 145.407 1.85784 -0.85705 0
M  V30 1507 H 145.417 4.07627 0.174476 0
M  V30 1508 H 144.092 4.04252 -0.977384 0
M  V30 1509 H 142.669 3.64011 0.809326 0
M  V30 1510 N 144.854 0.36279 1.53368 0
M  V30 1511 C 146.079 -0.231226 2.06107 0
M  V30 1512 C 146.504 -1.419 1.23474 0
M  V30 1513 O 145.862 -1.79524 0.253128 0
M  V30 1514 C 145.91 -0.605523 3.5548 0
M  V30 1515 O 145.014 -1.70312 3.7559 0
M  V30 1516 H 144.355 -0.034327 0.663112 0
M  V30 1517 H 146.885 0.522584 1.97814 0
M  V30 1518 H 146.895 -0.877314 3.98456 0
M  V30 1519 H 145.57 0.263004 4.15068 0
M  V30 1520 H 144.147 -1.4271 3.44512 0
M  V30 1521 N 146.332 -1.57332 0.0918853 0
M  V30 1522 C 147.743 -1.81496 -0.437739 0
M  V30 1523 C 148.094 -1.00727 -1.6837 0
M  V30 1524 O 147.219 -0.235694 -2.15113 0
M  V30 1525 C 147.814 -3.29197 -0.800939 0
M  V30 1526 C 146.373 -3.54136 -1.27532 0
M  V30 1527 C 145.52 -2.75979 -0.270392 0
M  V30 1528 H 148.471 -1.55494 0.317366 0
M  V30 1529 H 148.492 -3.42344 -1.66074 0
M  V30 1530 H 148.004 -3.87955 0.106078 0
M  V30 1531 H 146.105 -3.00705 -2.20016 0
M  V30 1532 H 146.218 -4.62792 -1.23938 0
M  V30 1533 H 144.582 -2.43349 -0.751872 0
M  V30 1534 H 145.365 -3.37484 0.629248 0
M  V30 1535 N 147.81 0.181792 -1.56548 0
M  V30 1536 C 149.056 0.901431 -1.81665 0
M  V30 1537 C 149.389 1.82347 -0.668075 0
M  V30 1538 O 148.664 1.91669 0.330615 0
M  V30 1539 C 148.947 1.70618 -3.17115 0
M  V30 1540 C 148.8 0.807964 -4.42484 0
M  V30 1541 C 150.119 2.67605 -3.49393 0
M  V30 1542 H 147.238 0.32627 -0.660846 0
M  V30 1543 H 149.88 0.168134 -1.89255 0
M  V30 1544 H 148.03 2.33133 -3.10775 0
M  V30 1545 H 149.702 0.19649 -4.60881 0
M  V30 1546 H 147.945 0.115411 -4.33646 0
M  V30 1547 H 148.616 1.40632 -5.33785 0
M  V30 1548 H 151.092 2.15218 -3.56118 0
M  V30 1549 H 149.968 3.20985 -4.45264 0
M  V30 1550 H 150.229 3.47298 -2.73563 0
M  V30 1551 N 149.288 1.51039 0.449983 0
M  V30 1552 C 150.704 1.38934 0.785462 0
M  V30 1553 C 150.904 0.461817 1.96136 0
M  V30 1554 O 149.96 -0.0877389 2.52348 0
M  V30 1555 C 151.273 2.80724 1.0777 0
M  V30 1556 C 152.821 2.89787 1.1829 0
M  V30 1557 C 153.296 4.32457 1.50815 0
M  V30 1558 N 154.787 4.35505 1.57764 0
M  V30 1559 C 155.522 5.42914 1.84477 0
M  V30 1560 N 155.018 6.60502 2.09068 0
M  V30 1561 N 156.811 5.3038 1.86155 0
M  V30 1562 H 148.962 2.09904 -0.324647 0
M  V30 1563 H 151.225 0.944378 -0.0827957 0
M  V30 1564 H 150.931 3.50531 0.286498 0
M  V30 1565 H 150.805 3.19273 2.00859 0
M  V30 1566 H 153.192 2.20186 1.96474 0
M  V30 1567 H 153.273 2.54752 0.231314 0
M  V30 1568 H 152.917 5.02603 0.731622 0
M  V30 1569 H 152.847 4.64995 2.47158 0
M  V30 1570 H 155.338 3.50724 1.40715 0
M  V30 1571 H 155.651 7.38158 2.28785 0
M  V30 1572 H 153.996 6.63639 2.06416 0
M  V30 1573 H 157.187 4.37505 1.66454 0
M  V30 1574 H 157.36 6.1417 2.06637 0
M  V30 1575 N 150.766 -0.704594 1.40972 0
M  V30 1576 C 151.994 -1.49354 1.43182 0
M  V30 1577 C 152.409 -1.88768 0.0345508 0
M  V30 1578 O 151.766 -1.56184 -0.944081 0
M  V30 1579 C 151.817 -2.76187 2.33244 0
M  V30 1580 O 151.538 -2.38436 3.67532 0
M  V30 1581 C 153.039 -3.7 2.44162 0
M  V30 1582 H 150.259 -0.460559 0.487982 0
M  V30 1583 H 152.803 -0.868261 1.85153 0
M  V30 1584 H 150.958 -3.34974 1.94606 0
M  V30 1585 H 151.372 -3.20126 4.15475 0
M  V30 1586 H 152.846 -4.55803 3.11364 0
M  V30 1587 H 153.323 -4.13867 1.47006 0
M  V30 1588 H 153.929 -3.17121 2.83398 0
M  V30 1589 N 152.244 -1.26651 -0.937939 0
M  V30 1590 C 153.491 -1.12387 -1.6845 0
M  V30 1591 C 153.819 0.332208 -1.91642 0
M  V30 1592 O 153.074 1.2602 -1.49725 0
M  V30 1593 C 153.373 -1.84168 -3.06295 0
M  V30 1594 C 153.039 -3.34056 -3.02849 0
M  V30 1595 C 151.701 -3.74942 -3.01616 0
M  V30 1596 C 154.053 -4.29741 -2.9491 0
M  V30 1597 C 151.381 -5.09894 -2.90215 0
M  V30 1598 C 153.733 -5.64738 -2.8505 0
M  V30 1599 C 152.397 -6.0493 -2.82162 0
M  V30 1600 H 151.667 -0.411252 -0.616403 0
M  V30 1601 H 154.314 -1.57134 -1.09459 0
M  V30 1602 H 152.619 -1.319 -3.6893 0
M  V30 1603 H 154.316 -1.70569 -3.62915 0
M  V30 1604 H 150.906 -3.01534 -3.0459 0
M  V30 1605 H 155.09 -3.99133 -2.94969 0
M  V30 1606 H 150.346 -5.40194 -2.86358 0
M  V30 1607 H 154.52 -6.38561 -2.77872 0
M  V30 1608 H 152.147 -7.09457 -2.73084 0
M  V30 1609 N 153.722 1.14298 -1.08507 0
M  V30 1610 C 155.138 1.37347 -0.812901 0
M  V30 1611 C 155.338 1.93052 0.577325 0
M  V30 1612 O 154.394 2.14389 1.33393 0
M  V30 1613 C 155.707 2.33359 -1.89642 0
M  V30 1614 C 157.255 2.46996 -1.92255 0
M  V30 1615 C 157.73 3.46309 -2.99724 0
M  V30 1616 N 159.221 3.53853 -2.98902 0
M  V30 1617 C 159.956 4.3055 -3.787 0
M  V30 1618 N 159.452 5.10482 -4.6838 0
M  V30 1619 N 161.245 4.25757 -3.66998 0
M  V30 1620 H 153.396 0.764867 -1.9815 0
M  V30 1621 H 155.659 0.398966 -0.859959 0
M  V30 1622 H 155.365 1.99565 -2.89597 0
M  V30 1623 H 155.239 3.33274 -1.76659 0
M  V30 1624 H 157.626 2.80081 -0.929445 0
M  V30 1625 H 157.707 1.47039 -2.09316 0
M  V30 1626 H 157.351 3.13957 -3.99241 0
M  V30 1627 H 157.281 4.46049 -2.79907 0
M  V30 1628 H 159.772 2.96812 -2.33904 0
M  V30 1629 H 160.085 5.66284 -5.25873 0
M  V30 1630 H 158.43 5.09747 -4.72422 0
M  V30 1631 H 161.621 3.62383 -2.96304 0
M  V30 1632 H 161.794 4.85279 -4.29427 0
M  V30 1633 N 155.201 0.870884 1.31352 0
M  V30 1634 C 156.111 0.330783 2.32256 0
M  V30 1635 C 157.127 -0.559767 1.6475 0
M  V30 1636 O 158.303 -0.456263 1.96164 0
M  V30 1637 C 155.368 -0.458137 3.4366 0
M  V30 1638 C 154.429 0.460482 4.26823 0
M  V30 1639 C 153.662 -0.290881 5.32907 0
M  V30 1640 O 153.885 -1.51885 5.49806 0
M  V30 1641 O 152.819 0.351732 6.00871 0
M  V30 1642 H 156.645 1.16718 2.80376 0
M  V30 1643 H 154.23 0.634285 1.35267 0
M  V30 1644 H 156.112 -0.905343 4.1156 0
M  V30 1645 H 154.787 -1.27106 2.97701 0
M  V30 1646 H 153.694 0.956207 3.61673 0
M  V30 1647 H 155.027 1.23903 4.7635 0
M  V30 1648 N 156.679 -1.44442 0.630414 0
M  V30 1649 C 157.928 -2.01267 0.132073 0
M  V30 1650 C 158.241 -1.50172 -1.25331 0
M  V30 1651 O 159.447 -1.9912 -1.84562 0
M  V30 1652 C 157.903 -3.59422 0.185362 0
M  V30 1653 C 157.511 -4.19514 1.57201 0
M  V30 1654 C 159.255 -4.23724 -0.256553 0
M  V30 1655 C 157.162 -5.69891 1.58045 0
M  V30 1656 H 156.092 -0.752619 0.0456092 0
M  V30 1657 H 158.743 -1.65666 0.789106 0
M  V30 1658 H 157.125 -3.92318 -0.538759 0
M  V30 1659 H 158.299 -3.98156 2.31966 0
M  V30 1660 H 156.614 -3.67496 1.95795 0
M  V30 1661 H 159.211 -5.34019 -0.269767 0
M  V30 1662 H 159.554 -3.96013 -1.28372 0
M  V30 1663 H 160.087 -3.95629 0.41505 0
M  V30 1664 H 156.826 -6.02336 2.58597 0
M  V30 1665 H 156.346 -5.93373 0.875725 0
M  V30 1666 H 158.025 -6.33515 1.31408 0
M  V30 1667 N 158.157 -0.370918 -1.53173 0
M  V30 1668 C 159.12 0.460778 -2.24521 0
M  V30 1669 C 160.12 1.00536 -1.25496 0
M  V30 1670 O 161.31 0.890266 -1.49733 0
M  V30 1671 C 158.442 1.64457 -2.98608 0
M  V30 1672 H 159.635 -0.163613 -2.99453 0
M  V30 1673 H 157.188 -0.122699 -1.55818 0
M  V30 1674 H 157.923 2.30691 -2.2793 0
M  V30 1675 H 157.708 1.26099 -3.7127 0
M  V30 1676 H 159.198 2.23384 -3.5283 0
M  V30 1677 N 159.635 1.57281 -0.100228 0
M  V30 1678 C 160.582 2.14305 0.856858 0
M  V30 1679 C 161.552 1.06296 1.27634 0
M  V30 1680 O 162.737 1.34109 1.35718 0
M  V30 1681 C 159.877 2.73184 2.10866 0
M  V30 1682 C 158.99 3.95442 1.73925 0
M  V30 1683 C 158.125 4.42468 2.93931 0
M  V30 1684 C 157.164 5.57303 2.5314 0
M  V30 1685 N 156.301 5.99158 3.65997 0
M  V30 1686 H 161.141 2.95772 0.363726 0
M  V30 1687 H 158.678 1.46139 0.167858 0
M  V30 1688 H 160.636 3.05442 2.84185 0
M  V30 1689 H 159.266 1.94437 2.57671 0
M  V30 1690 H 158.318 3.69464 0.905554 0
M  V30 1691 H 159.63 4.78769 1.39935 0
M  V30 1692 H 158.784 4.76537 3.75496 0
M  V30 1693 H 157.523 3.58052 3.31134 0
M  V30 1694 H 156.528 5.22857 1.70003 0
M  V30 1695 H 157.753 6.43471 2.17075 0
M  V30 1696 H 155.699 5.17687 4.02909 0
M  V30 1697 H 155.616 6.77295 3.35869 0
M  V30 1698 H 156.884 6.3786 4.48057 0
M  V30 1699 N 161.113 -0.173488 1.56642 0
M  V30 1700 C 162.06 -1.21482 1.96242 0
M  V30 1701 C 163.03 -1.44104 0.826027 0
M  V30 1702 O 164.215 -1.5688 1.08597 0
M  V30 1703 C 161.355 -2.54964 2.32567 0
M  V30 1704 C 160.468 -2.39739 3.59373 0
M  V30 1705 C 159.603 -3.66072 3.84921 0
M  V30 1706 C 158.642 -3.45771 5.05083 0
M  V30 1707 N 157.779 -4.64169 5.26775 0
M  V30 1708 H 162.619 -0.870123 2.85014 0
M  V30 1709 H 160.156 -0.418245 1.41029 0
M  V30 1710 H 162.114 -3.32758 2.5165 0
M  V30 1711 H 160.744 -2.87433 1.46908 0
M  V30 1712 H 159.796 -1.53131 3.48217 0
M  V30 1713 H 161.108 -2.20683 4.47326 0
M  V30 1714 H 160.262 -4.52303 4.0436 0
M  V30 1715 H 159.001 -3.88105 2.9534 0
M  V30 1716 H 158.006 -2.57927 4.85545 0
M  V30 1717 H 159.231 -3.25163 5.96193 0
M  V30 1718 H 157.177 -4.86425 4.40144 0
M  V30 1719 H 157.094 -4.48019 6.08946 0
M  V30 1720 H 158.362 -5.51689 5.5069 0
M  V30 1721 N 162.591 -1.51276 -0.441967 0
M  V30 1722 C 163.521 -1.752 -1.54361 0
M  V30 1723 C 164.502 -0.601682 -1.59103 0
M  V30 1724 O 165.687 -0.843913 -1.74905 0
M  V30 1725 C 162.817 -1.87282 -2.92477 0
M  V30 1726 C 161.771 -3.02687 -3.02596 0
M  V30 1727 C 161.097 -2.99947 -4.42647 0
M  V30 1728 C 162.397 -4.4273 -2.77106 0
M  V30 1729 H 164.091 -2.67442 -1.34592 0
M  V30 1730 H 161.637 -1.28694 -0.646048 0
M  V30 1731 H 163.59 -2.02602 -3.695 0
M  V30 1732 H 162.314 -0.916844 -3.13467 0
M  V30 1733 H 160.973 -2.87065 -2.28012 0
M  V30 1734 H 160.621 -2.02136 -4.60597 0
M  V30 1735 H 160.321 -3.77439 -4.50348 0
M  V30 1736 H 161.845 -3.17354 -5.2165 0
M  V30 1737 H 163.259 -4.58727 -3.43864 0
M  V30 1738 H 161.656 -5.21893 -2.96222 0
M  V30 1739 H 162.726 -4.53087 -1.72744 0
M  V30 1740 N 164.069 0.697108 -1.41344 0
M  V30 1741 C 165.294 1.49096 -1.44171 0
M  V30 1742 C 165.719 1.88038 -0.0481568 0
M  V30 1743 O 165.077 1.54525 0.948243 0
M  V30 1744 C 165.125 2.73088 -2.3549 0
M  V30 1745 O 164.229 3.70514 -1.81088 0
M  V30 1746 H 163.57 0.448801 -0.489361 0
M  V30 1747 H 166.1 0.856992 -1.85787 0
M  V30 1748 H 166.11 3.21413 -2.51312 0
M  V30 1749 H 164.785 2.44081 -3.36745 0
M  V30 1750 H 163.362 3.29441 -1.74708 0
M  V30 1751 N 165.547 1.27147 0.931209 0
M  V30 1752 C 166.777 1.15914 1.71019 0
M  V30 1753 C 167.185 -0.287112 1.87009 0
M  V30 1754 O 166.528 -1.20761 1.38429 0
M  V30 1755 C 166.59 1.76647 3.13107 0
M  V30 1756 C 166.254 3.25807 3.20467 0
M  V30 1757 C 167.251 4.22489 3.02983 0
M  V30 1758 C 164.936 3.66452 3.43538 0
M  V30 1759 C 166.93 5.57794 3.08454 0
M  V30 1760 C 164.617 5.01888 3.48643 0
M  V30 1761 C 165.615 5.97369 3.31119 0
M  V30 1762 O 165.303 7.30337 3.35952 0
M  V30 1763 H 165.035 0.404062 0.54195 0
M  V30 1764 H 167.589 1.68457 1.17521 0
M  V30 1765 H 165.819 1.18578 3.68071 0
M  V30 1766 H 167.508 1.60179 3.72958 0
M  V30 1767 H 168.274 3.92425 2.85004 0
M  V30 1768 H 164.153 2.92611 3.5623 0
M  V30 1769 H 167.697 6.32298 2.94694 0
M  V30 1770 H 163.594 5.31609 3.66145 0
M  V30 1771 H 164.362 7.38739 3.5243 0
M  V30 1772 N 167.025 -1.13721 1.09112 0
M  V30 1773 C 168.274 -1.84275 0.82009 0
M  V30 1774 C 168.587 -1.84253 -0.656509 0
M  V30 1775 O 169.793 -2.50668 -1.04296 0
M  V30 1776 C 168.249 -3.30825 1.41714 0
M  V30 1777 C 167.857 -3.39244 2.92605 0
M  V30 1778 C 169.601 -4.06443 1.22492 0
M  V30 1779 C 167.508 -4.80047 3.45411 0
M  V30 1780 H 166.438 -0.690387 0.30312 0
M  V30 1781 H 169.089 -1.28146 1.31343 0
M  V30 1782 H 167.471 -3.86737 0.851498 0
M  V30 1783 H 168.645 -2.93344 3.55367 0
M  V30 1784 H 166.96 -2.77088 3.10823 0
M  V30 1785 H 169.557 -5.10387 1.59402 0
M  V30 1786 H 169.9 -4.15972 0.165299 0
M  V30 1787 H 170.433 -3.56852 1.75788 0
M  V30 1788 H 167.172 -4.75709 4.50978 0
M  V30 1789 H 166.692 -5.26455 2.87411 0
M  V30 1790 H 168.371 -5.48957 3.42425 0
M  V30 1791 N 168.503 -0.877838 -1.30888 0
M  V30 1792 C 169.433 -0.35534 -2.3078 0
M  V30 1793 C 170.414 0.557994 -1.60687 0
M  V30 1794 O 171.599 0.473355 -1.88343 0
M  V30 1795 C 168.729 0.437221 -3.44537 0
M  V30 1796 C 167.683 -0.383715 -4.26276 0
M  V30 1797 C 167.009 0.535014 -5.32017 0
M  V30 1798 C 168.309 -1.62201 -4.96476 0
M  V30 1799 H 170.003 -1.19007 -2.74732 0
M  V30 1800 H 167.549 -0.573698 -1.32078 0
M  V30 1801 H 169.502 0.813334 -4.13477 0
M  V30 1802 H 168.226 1.30553 -2.99372 0
M  V30 1803 H 166.885 -0.741874 -3.59015 0
M  V30 1804 H 166.533 1.40083 -4.831 0
M  V30 1805 H 166.233 -0.0104211 -5.87599 0
M  V30 1806 H 167.757 0.907799 -6.03814 0
M  V30 1807 H 169.171 -1.31689 -5.5797 0
M  V30 1808 H 167.568 -2.10711 -5.61891 0
M  V30 1809 H 168.638 -2.37044 -4.23011 0
M  V30 1810 N 169.982 1.44106 -0.638065 0
M  V30 1811 C 171.207 2.0685 -0.150916 0
M  V30 1812 C 171.632 1.47417 1.16833 0
M  V30 1813 O 170.99 0.578264 1.71831 0
M  V30 1814 C 171.038 3.60555 -0.05708 0
M  V30 1815 O 170.142 4.00465 0.984972 0
M  V30 1816 H 169.483 0.658151 -0.0879399 0
M  V30 1817 H 172.013 1.84865 -0.876707 0
M  V30 1818 H 172.023 4.07789 0.131232 0
M  V30 1819 H 170.698 4.03193 -1.02021 0
M  V30 1820 H 169.275 3.64849 0.770672 0
M  V30 1821 N 171.46 0.379036 1.52974 0
M  V30 1822 C 172.37 -0.468639 2.29872 0
M  V30 1823 C 173.386 -1.08067 1.36373 0
M  V30 1824 O 174.562 -1.08871 1.69438 0
M  V30 1825 C 171.627 -1.58594 3.083 0
M  V30 1826 C 170.688 -1.00007 4.17489 0
M  V30 1827 C 169.921 -2.06413 4.92168 0
M  V30 1828 O 170.144 -3.27751 4.66835 0
M  V30 1829 O 169.078 -1.68717 5.7777 0
M  V30 1830 H 172.904 0.157508 3.03291 0
M  V30 1831 H 170.489 0.143035 1.48714 0
M  V30 1832 H 172.371 -2.23525 3.57232 0
M  V30 1833 H 171.046 -2.19724 2.37703 0
M  V30 1834 H 169.953 -0.314299 3.72777 0
M  V30 1835 H 171.286 -0.433135 4.90291 0
M  V30 1836 N 172.938 -1.57226 0.108567 0
M  V30 1837 C 174.215 -1.86333 -0.594939 0
M  V30 1838 C 174.595 -1.00788 -1.85486 0
M  V30 1839 O 173.943 -0.0839293 -2.28346 0
M  V30 1840 C 174.153 -3.37265 -0.897405 0
M  V30 1841 C 175.501 -4.05629 -1.25501 0
M  V30 1842 O 176.525 -3.42224 -0.987998 0
M  V30 1843 O 175.384 -5.17531 -1.75567 0
M  V30 1844 H 172.478 -0.771018 -0.2991 0
M  V30 1845 H 175.024 -1.69102 0.142283 0
M  V30 1846 H 173.796 -3.913 -0.00413806 0
M  V30 1847 H 173.419 -3.59889 -1.69014 0
M  V30 1848 N 174.416 0.165178 -1.56732 0
M  V30 1849 C 175.379 1.18822 -1.95995 0
M  V30 1850 C 176.379 1.3685 -0.84431 0
M  V30 1851 O 177.569 1.34152 -1.11126 0
M  V30 1852 C 174.701 2.5521 -2.26011 0
M  V30 1853 H 175.894 0.851825 -2.87548 0
M  V30 1854 H 173.447 0.407857 -1.50885 0
M  V30 1855 H 174.182 2.93852 -1.37191 0
M  V30 1856 H 173.967 2.43489 -3.07336 0
M  V30 1857 H 175.457 3.28927 -2.57288 0
M  V30 1858 N 175.894 1.51508 0.433938 0
M  V30 1859 C 177.122 1.68157 1.20543 0
M  V30 1860 C 177.537 0.380362 1.84929 0
M  V30 1861 O 176.894 -0.641446 1.70856 0
M  V30 1862 C 176.945 2.79965 2.28696 0
M  V30 1863 O 176.666 4.05045 1.66943 0
M  V30 1864 C 178.167 3.07912 3.18912 0
M  V30 1865 H 175.387 0.56421 0.363191 0
M  V30 1866 H 177.931 1.97941 0.513754 0
M  V30 1867 H 176.086 2.5277 2.93574 0
M  V30 1868 H 176.5 4.67165 2.38448 0
M  V30 1869 H 177.974 3.89719 3.90926 0
M  V30 1870 H 178.451 2.20456 3.79863 0
M  V30 1871 H 179.057 3.36779 2.59731 0
M  V30 1872 N 177.372 -0.689602 1.41712 0
M  V30 1873 C 178.618 -1.45181 1.41599 0
M  V30 1874 C 178.951 -1.94181 0.0270081 0
M  V30 1875 O 178.226 -1.6993 -0.946265 0
M  V30 1876 C 178.509 -2.65945 2.42787 0
M  V30 1877 C 178.362 -2.22672 3.90816 0
M  V30 1878 C 179.681 -3.68149 2.41151 0
M  V30 1879 H 176.8 -0.526576 0.515642 0
M  V30 1880 H 179.442 -0.784947 1.73028 0
M  V30 1881 H 177.592 -3.2284 2.16116 0
M  V30 1882 H 179.264 -1.71058 4.28412 0
M  V30 1883 H 177.507 -1.54394 4.05395 0
M  V30 1884 H 178.178 -3.0935 4.57172 0
M  V30 1885 H 180.654 -3.2094 2.64834 0
M  V30 1886 H 179.53 -4.50248 3.13955 0
M  V30 1887 H 179.791 -4.18259 1.43221 0
M  V30 1888 N 178.85 -1.27639 -0.924453 0
M  V30 1889 C 180.078 -1.16989 -1.70649 0
M  V30 1890 C 180.493 0.272869 -1.86818 0
M  V30 1891 O 179.85 1.18549 -1.38753 0
M  V30 1892 C 179.901 -1.85229 -3.10439 0
M  V30 1893 O 179.622 -3.23868 -2.95028 0
M  V30 1894 C 181.123 -1.80746 -4.04779 0
M  V30 1895 H 178.343 -0.406595 -0.53378 0
M  V30 1896 H 180.887 -1.68569 -1.15778 0
M  V30 1897 H 179.042 -1.37545 -3.6216 0
M  V30 1898 H 179.456 -3.57889 -3.83426 0
M  V30 1899 H 180.93 -2.33101 -5.00368 0
M  V30 1900 H 181.407 -0.777499 -4.32263 0
M  V30 1901 H 182.013 -2.28059 -3.58984 0
M  V30 1902 N 180.328 1.1314 -1.09713 0
M  V30 1903 C 181.605 1.80762 -0.747302 0
M  V30 1904 C 181.985 1.96663 0.767265 0
M  V30 1905 O 181.333 1.53706 1.69076 0
M  V30 1906 C 181.543 3.15606 -1.48975 0
M  V30 1907 C 182.891 3.90914 -1.65746 0
M  V30 1908 O 183.915 3.25239 -1.45251 0
M  V30 1909 O 182.774 5.08718 -1.9967 0
M  V30 1910 H 179.868 0.782103 -0.268782 0
M  V30 1911 H 182.414 1.20041 -1.19951 0
M  V30 1912 H 181.186 2.99278 -2.52088 0
M  V30 1913 H 180.809 3.84029 -1.02991 0
M  V30 1914 N 181.806 0.884767 1.30421 0
M  V30 1915 C 182.738 0.308655 2.27112 0
M  V30 1916 C 183.751 -0.536655 1.53701 0
M  V30 1917 O 184.94 -0.35624 1.74909 0
M  V30 1918 C 182.04 -0.579782 3.33904 0
M  V30 1919 C 181.213 0.236417 4.36761 0
M  V30 1920 C 180.272 -0.582482 5.22966 0
M  V30 1921 O 179.298 -0.00525502 5.692 0
M  V30 1922 N 180.5 -1.89163 5.48815 0
M  V30 1923 H 183.265 1.13964 2.77186 0
M  V30 1924 H 180.826 0.747731 1.43599 0
M  V30 1925 H 182.818 -1.13366 3.88497 0
M  V30 1926 H 181.388 -1.31144 2.83761 0
M  V30 1927 H 180.608 0.97174 3.82035 0
M  V30 1928 H 181.896 0.795924 5.02536 0
M  V30 1929 H 181.294 -2.38352 5.13035 0
M  V30 1930 H 179.851 -2.39296 6.06284 0
M  V30 1931 N 183.284 -1.43765 0.645699 0
M  V30 1932 C 184.532 -2.01499 0.155731 0
M  V30 1933 C 184.853 -1.51151 -1.232 0
M  V30 1934 O 184.123 -0.721044 -1.82148 0
M  V30 1935 H 182.703 -0.745003 0.0545817 0
M  V30 1936 H 185.365 -1.76075 0.835677 0
M  V30 1937 H 184.461 -3.1181 0.134577 0
M  V30 1938 N 184.763 -0.387143 -1.52771 0
M  V30 1939 C 185.988 0.198407 -2.06449 0
M  V30 1940 C 186.413 1.39918 -1.25716 0
M  V30 1941 O 185.771 1.79099 -0.281657 0
M  V30 1942 C 185.819 0.548893 -3.56398 0
M  V30 1943 O 184.923 1.64315 -3.78252 0
M  V30 1944 H 184.264 0.0237731 -0.663574 0
M  V30 1945 H 186.794 -0.553989 -1.96957 0
M  V30 1946 H 186.804 0.813812 -3.99801 0
M  V30 1947 H 185.479 -0.329005 -4.14597 0
M  V30 1948 H 184.056 1.37211 -3.46738 0
M  V30 1949 N 186.241 1.57166 -0.116904 0
M  V30 1950 C 187.487 1.95412 0.542405 0
M  V30 1951 C 187.82 1.00019 1.66463 0
M  V30 1952 O 187.095 0.0370346 1.94465 0
M  V30 1953 C 187.378 3.43615 1.07708 0
M  V30 1954 C 187.231 4.49781 -0.0415868 0
M  V30 1955 C 188.55 3.93616 1.96861 0
M  V30 1956 H 185.669 0.710543 0.195696 0
M  V30 1957 H 188.311 1.89027 -0.192038 0
M  V30 1958 H 186.461 3.49187 1.70296 0
M  V30 1959 H 188.133 4.56308 -0.676793 0
M  V30 1960 H 186.376 4.28033 -0.705019 0
M  V30 1961 H 187.047 5.50733 0.373717 0
M  V30 1962 H 189.523 3.90335 1.44146 0
M  V30 1963 H 188.399 4.97838 2.3119 0
M  V30 1964 H 188.66 3.34188 2.89432 0
M  V30 1965 N 187.719 -0.156864 1.56817 0
M  V30 1966 C 188.666 -1.19394 1.97519 0
M  V30 1967 C 189.636 -1.4322 0.841265 0
M  V30 1968 O 190.821 -1.55719 1.10255 0
M  V30 1969 C 187.961 -2.52483 2.35258 0
M  V30 1970 C 187.074 -2.35914 3.61896 0
M  V30 1971 C 186.209 -3.61969 3.88782 0
M  V30 1972 C 185.248 -3.40395 5.08722 0
M  V30 1973 N 184.385 -4.58556 5.31668 0
M  V30 1974 H 189.225 -0.839845 2.85921 0
M  V30 1975 H 186.762 -0.403264 1.41464 0
M  V30 1976 H 188.72 -3.30071 2.55165 0
M  V30 1977 H 187.35 -2.85859 1.49949 0
M  V30 1978 H 186.402 -1.49429 3.49821 0
M  V30 1979 H 187.714 -2.15926 4.49641 0
M  V30 1980 H 186.868 -4.47989 4.09135 0
M  V30 1981 H 185.607 -3.84951 2.9944 0
M  V30 1982 H 184.612 -2.52763 4.88253 0
M  V30 1983 H 185.837 -3.18822 5.99608 0
M  V30 1984 H 183.783 -4.81729 4.45279 0
M  V30 1985 H 183.7 -4.41535 6.13664 0
M  V30 1986 H 184.968 -5.45817 5.5651 0
M  V30 1987 N 189.197 -1.51736 -0.425897 0
M  V30 1988 C 190.445 -1.64644 -1.17204 0
M  V30 1989 C 190.766 -0.370486 -1.91448 0
M  V30 1990 O 190.036 0.614088 -1.86026 0
M  V30 1991 H 188.616 -0.606819 -0.435638 0
M  V30 1992 H 191.278 -1.88713 -0.487177 0
M  V30 1993 H 190.374 -2.47958 -1.89534 0
M  V30 1994 N 190.675 0.682077 -1.42076 0
M  V30 1995 C 191.622 1.79578 -1.44984 0
M  V30 1996 C 192.592 1.6332 -0.302614 0
M  V30 1997 O 193.777 1.83978 -0.505633 0
M  V30 1998 C 190.917 3.1756 -1.35091 0
M  V30 1999 C 190.03 3.45156 -2.59791 0
M  V30 2000 C 189.165 4.72826 -2.42093 0
M  V30 2001 C 188.204 4.93433 -3.62202 0
M  V30 2002 N 187.341 6.12338 -3.43491 0
M  V30 2003 H 192.181 1.76427 -2.40161 0
M  V30 2004 H 189.718 0.861376 -1.19242 0
M  V30 2005 H 191.676 3.97287 -1.27354 0
M  V30 2006 H 190.306 3.19854 -0.435133 0
M  V30 2007 H 189.358 2.59736 -2.77923 0
M  V30 2008 H 190.67 3.5628 -3.49094 0
M  V30 2009 H 189.824 5.60631 -2.319 0
M  V30 2010 H 188.563 4.63973 -1.50268 0
M  V30 2011 H 187.568 4.04073 -3.72834 0
M  V30 2012 H 188.793 5.04136 -4.54998 0
M  V30 2013 H 186.739 6.04672 -2.54377 0
M  V30 2014 H 186.656 6.2429 -4.26377 0
M  V30 2015 H 187.924 7.02841 -3.37097 0
M  V30 2016 N 192.153 1.28127 0.917671 0
M  V30 2017 C 193.083 1.14248 2.03641 0
M  V30 2018 C 194.064 0.0412748 1.7005 0
M  V30 2019 O 195.249 0.217566 1.92977 0
M  V30 2020 C 192.379 0.799431 3.37974 0
M  V30 2021 C 191.333 1.85497 3.85713 0
M  V30 2022 C 190.659 1.36565 5.16966 0
M  V30 2023 C 191.959 3.26085 4.08002 0
M  V30 2024 H 193.653 2.07835 2.15511 0
M  V30 2025 H 191.199 1.00064 1.03553 0
M  V30 2026 H 193.152 0.689114 4.15727 0
M  V30 2027 H 191.876 -0.172145 3.26146 0
M  V30 2028 H 190.535 1.95437 3.10161 0
M  V30 2029 H 190.183 0.383253 5.01538 0
M  V30 2030 H 189.883 2.07143 5.49878 0
M  V30 2031 H 191.407 1.26848 5.97279 0
M  V30 2032 H 192.821 3.19089 4.76293 0
M  V30 2033 H 191.218 3.94462 4.52238 0
M  V30 2034 H 192.288 3.70394 3.12948 0
M  V30 2035 N 193.631 -1.12557 1.10312 0
M  V30 2036 C 194.877 -1.84311 0.846011 0
M  V30 2037 C 195.21 -1.83805 -0.626859 0
M  V30 2038 O 194.485 -1.28268 -1.46211 0
M  V30 2039 C 194.768 -3.32048 1.39341 0
M  V30 2040 C 194.621 -3.41016 2.93305 0
M  V30 2041 C 195.94 -4.27764 1.03468 0
M  V30 2042 H 193.059 -0.669192 0.30879 0
M  V30 2043 H 195.701 -1.32057 1.36605 0
M  V30 2044 H 193.851 -3.76678 0.951087 0
M  V30 2045 H 195.523 -3.05031 3.46055 0
M  V30 2046 H 193.766 -2.81603 3.29973 0
M  V30 2047 H 194.437 -4.44948 3.26689 0
M  V30 2048 H 196.913 -3.91253 1.41633 0
M  V30 2049 H 195.789 -5.29549 1.44463 0
M  V30 2050 H 196.05 -4.42064 -0.0560404 0
M  V30 2051 N 195.109 -0.891671 -1.2995 0
M  V30 2052 C 196.339 -0.527893 -1.99742 0
M  V30 2053 C 196.747 0.88979 -1.66971 0
M  V30 2054 O 196.09 1.59766 -0.906667 0
M  V30 2055 C 196.152 -0.630804 -3.53922 0
M  V30 2056 C 195.816 -2.01401 -4.10228 0
M  V30 2057 C 196.813 -2.98422 -4.25724 0
M  V30 2058 C 194.498 -2.32121 -4.45449 0
M  V30 2059 C 196.492 -4.24293 -4.75662 0
M  V30 2060 C 194.179 -3.58237 -4.95086 0
M  V30 2061 C 195.177 -4.54137 -5.10146 0
M  V30 2062 O 194.865 -5.78014 -5.58708 0
M  V30 2063 H 194.597 -0.201953 -0.645129 0
M  V30 2064 H 197.151 -1.20076 -1.66646 0
M  V30 2065 H 195.381 0.0990616 -3.86573 0
M  V30 2066 H 197.07 -0.277338 -4.04951 0
M  V30 2067 H 197.836 -2.76001 -3.98809 0
M  V30 2068 H 193.715 -1.5824 -4.32991 0
M  V30 2069 H 197.259 -4.99153 -4.87332 0
M  V30 2070 H 193.156 -3.80491 -5.21437 0
M  V30 2071 H 193.924 -5.8049 -5.77039 0
M  V30 2072 N 196.587 1.43421 -0.653314 0
M  V30 2073 C 197.864 1.95361 -0.0966581 0
M  V30 2074 C 198.244 1.59461 1.38331 0
M  V30 2075 O 197.592 0.879777 2.10884 0
M  V30 2076 C 197.802 3.47311 -0.342988 0
M  V30 2077 C 199.15 4.23875 -0.24798 0
M  V30 2078 O 200.174 3.55133 -0.275553 0
M  V30 2079 O 199.033 5.4623 -0.171771 0
M  V30 2080 H 196.127 0.826945 0.00956291 0
M  V30 2081 H 198.673 1.5336 -0.726558 0
M  V30 2082 H 197.445 3.66569 -1.36906 0
M  V30 2083 H 197.068 3.9631 0.319975 0
M  V30 2084 N 198.065 0.39524 1.52563 0
M  V30 2085 C 198.995 -0.428384 2.29537 0
M  V30 2086 C 199.976 -1.05831 1.33169 0
M  V30 2087 O 201.161 -1.06995 1.62067 0
M  V30 2088 C 198.291 -1.55274 3.10656 0
M  V30 2089 C 197.245 -1.04855 4.14957 0
M  V30 2090 C 196.571 -2.26543 4.84337 0
M  V30 2091 C 197.871 -0.112324 5.22179 0
M  V30 2092 H 199.565 0.213867 2.98635 0
M  V30 2093 H 197.111 0.104298 1.43622 0
M  V30 2094 H 199.064 -2.1358 3.63265 0
M  V30 2095 H 197.788 -2.22266 2.39302 0
M  V30 2096 H 196.447 -0.487985 3.63338 0
M  V30 2097 H 196.095 -2.92059 4.09525 0
M  V30 2098 H 195.795 -1.93466 5.54837 0
M  V30 2099 H 197.319 -2.85481 5.39753 0
M  V30 2100 H 198.733 -0.603752 5.70112 0
M  V30 2101 H 197.13 0.128968 5.99961 0
M  V30 2102 H 198.2 0.837052 4.77621 0
M  V30 2103 N 199.544 -1.57102 0.125237 0
M  V30 2104 C 200.454 -2.19191 -0.8362 0
M  V30 2105 C 201.47 -1.16985 -1.28805 0
M  V30 2106 O 202.646 -1.49479 -1.34974 0
M  V30 2107 C 199.711 -2.78407 -2.06617 0
M  V30 2108 C 198.772 -3.9567 -1.66565 0
M  V30 2109 C 198.005 -4.52052 -2.83698 0
M  V30 2110 O 198.228 -4.07326 -3.99302 0
M  V30 2111 O 197.162 -5.42645 -2.60423 0
M  V30 2112 H 200.988 -3.01816 -0.337776 0
M  V30 2113 H 198.573 -1.4906 -0.100695 0
M  V30 2114 H 200.455 -3.16129 -2.7864 0
M  V30 2115 H 199.13 -1.9881 -2.55453 0
M  V30 2116 H 198.037 -3.62705 -0.916296 0
M  V30 2117 H 199.37 -4.76722 -1.22464 0
M  V30 2118 N 201.022 0.148545 -1.56898 0
M  V30 2119 C 201.97 1.20265 -1.99096 0
M  V30 2120 C 202.964 1.44559 -0.883123 0
M  V30 2121 O 204.17 1.4487 -1.0683 0
M  V30 2122 H 200.545 0.404786 -0.63376 0
M  V30 2123 H 202.516 0.82004 -2.86911 0
M  V30 2124 C 201.265 2.52886 -2.3863 0
M  V30 2125 H 200.588 2.35021 -3.23427 0
M  V30 2126 H 202.028 3.25274 -2.7198 0
M  V30 2127 C 200.487 3.13315 -1.23837 0
M  V30 2128 O 201.017 3.98077 -0.538268 0
M  V30 2129 N 199.223 2.72742 -1.00301 0
M  V30 2130 H 198.77 2.03912 -1.5741 0
M  V30 2131 H 198.728 3.13507 -0.236838 0
M  V30 2132 N 202.5 1.5196 0.417844 0
M  V30 2133 C 203.749 1.6482 1.16264 0
M  V30 2134 C 204.062 0.379886 1.91876 0
M  V30 2135 O 205.268 0.388154 2.68711 0
M  V30 2136 C 203.724 2.91161 2.1155 0
M  V30 2137 C 203.332 4.25068 1.41495 0
M  V30 2138 C 205.076 3.13383 2.86341 0
M  V30 2139 C 202.983 5.42541 2.35379 0
M  V30 2140 H 201.913 0.613954 0.437694 0
M  V30 2141 H 204.564 1.78442 0.427871 0
M  V30 2142 H 202.946 2.71218 2.88543 0
M  V30 2143 H 204.12 4.55463 0.699263 0
M  V30 2144 H 202.435 4.0888 0.787792 0
M  V30 2145 H 205.032 3.98324 3.5671 0
M  V30 2146 H 205.375 2.27256 3.48798 0
M  V30 2147 H 205.908 3.33757 2.1645 0
M  V30 2148 H 202.647 6.30987 1.77582 0
M  V30 2149 H 202.167 5.16497 3.04945 0
M  V30 2150 H 203.846 5.75272 2.96093 0
M  V30 2151 N 203.978 -0.674533 1.42435 0
M  V30 2152 C 204.908 -1.80009 1.48724 0
M  V30 2153 C 205.889 -1.6659 0.343793 0
M  V30 2154 O 207.074 -1.86007 0.558137 0
M  V30 2155 C 204.204 -3.18306 1.38919 0
M  V30 2156 C 203.158 -3.46461 2.51294 0
M  V30 2157 C 202.484 -4.84335 2.26547 0
M  V30 2158 C 203.784 -3.43328 3.93603 0
M  V30 2159 H 205.478 -1.75004 2.42928 0
M  V30 2160 H 203.024 -0.840533 1.16923 0
M  V30 2161 H 204.977 -3.9678 1.41927 0
M  V30 2162 H 203.701 -3.2399 0.412094 0
M  V30 2163 H 202.36 -2.70348 2.47604 0
M  V30 2164 H 202.008 -4.86669 1.2713 0
M  V30 2165 H 201.708 -5.04136 3.01861 0
M  V30 2166 H 203.232 -5.65094 2.31304 0
M  V30 2167 H 204.646 -4.11772 3.98894 0
M  V30 2168 H 203.043 -3.74664 4.68771 0
M  V30 2169 H 204.113 -2.41897 4.20255 0
M  V30 2170 N 205.456 -1.28612 -0.910864 0
M  V30 2171 C 206.704 -1.15705 -1.65701 0
M  V30 2172 C 207.025 0.29416 -1.92769 0
M  V30 2173 O 206.295 1.20331 -1.54588 0
M  V30 2174 H 204.875 -0.425216 -0.614167 0
M  V30 2175 H 207.537 -1.61381 -1.0928 0
M  V30 2176 H 206.633 -1.6988 -2.61815 0
M  V30 2177 N 206.934 1.1197 -1.10907 0
M  V30 2178 C 207.881 2.17846 -0.762345 0
M  V30 2179 C 208.851 1.63995 0.263599 0
M  V30 2180 O 210.036 1.90273 0.141773 0
M  V30 2181 C 207.176 3.44487 -0.205651 0
M  V30 2182 C 206.289 4.12369 -1.28748 0
M  V30 2183 C 205.424 5.26674 -0.691919 0
M  V30 2184 C 204.463 5.86431 -1.75399 0
M  V30 2185 N 203.6 6.92142 -1.17833 0
M  V30 2186 H 208.44 2.46851 -1.6694 0
M  V30 2187 H 205.977 1.21188 -0.833776 0
M  V30 2188 H 207.935 4.16981 0.135037 0
M  V30 2189 H 206.565 3.15884 0.664613 0
M  V30 2190 H 205.617 3.38003 -1.74522 0
M  V30 2191 H 206.929 4.52844 -2.09125 0
M  V30 2192 H 206.083 6.05953 -0.300963 0
M  V30 2193 H 204.822 4.8749 0.143232 0
M  V30 2194 H 203.827 5.05835 -2.15432 0
M  V30 2195 H 205.052 6.27685 -2.59208 0
M  V30 2196 H 202.998 6.54985 -0.364725 0
M  V30 2197 H 202.915 7.31242 -1.91887 0
M  V30 2198 H 204.183 7.75237 -0.81408 0
M  V30 2199 N 208.412 0.89855 1.29475 0
M  V30 2200 C 209.828 0.594483 1.48115 0
M  V30 2201 C 210.028 -0.86431 1.82022 0
M  V30 2202 O 209.084 -1.64457 1.91599 0
M  V30 2203 C 210.397 1.51932 2.59494 0
M  V30 2204 C 211.945 1.5244 2.7337 0
M  V30 2205 C 212.42 2.43548 3.87877 0
M  V30 2206 N 213.911 2.41589 3.95208 0
M  V30 2207 C 214.646 3.08789 4.83153 0
M  V30 2208 N 214.142 3.85265 5.75798 0
M  V30 2209 N 215.935 2.97952 4.76635 0
M  V30 2210 H 208.086 1.84207 1.05742 0
M  V30 2211 H 210.349 0.789251 0.525154 0
M  V30 2212 H 210.055 2.55865 2.41301 0
M  V30 2213 H 209.929 1.23899 3.56271 0
M  V30 2214 H 212.316 0.492518 2.90961 0
M  V30 2215 H 212.397 1.8451 1.77172 0
M  V30 2216 H 212.041 3.46829 3.71041 0
M  V30 2217 H 211.971 2.08788 4.83441 0
M  V30 2218 H 214.462 1.86025 3.28943 0
M  V30 2219 H 214.775 4.33598 6.39697 0
M  V30 2220 H 213.12 3.89371 5.75687 0
M  V30 2221 H 216.311 2.37723 4.03244 0
M  V30 2222 H 216.484 3.50599 5.44962 0
M  V30 2223 N 209.89 -1.43072 0.660911 0
M  V30 2224 C 211.137 -2.01721 0.177445 0
M  V30 2225 C 211.465 -1.5218 -1.21126 0
M  V30 2226 O 210.72 -0.708659 -1.82419 0
M  V30 2227 C 211.019 -3.57103 0.145563 0
M  V30 2228 C 210.685 -4.26021 1.47705 0
M  V30 2229 C 209.347 -4.44563 1.84165 0
M  V30 2230 C 211.699 -4.64983 2.35458 0
M  V30 2231 C 209.027 -4.99334 3.0803 0
M  V30 2232 C 211.379 -5.21127 3.58622 0
M  V30 2233 C 210.043 -5.37884 3.95268 0
M  V30 2234 H 209.313 -0.73815 0.0649317 0
M  V30 2235 H 211.96 -1.71446 0.853144 0
M  V30 2236 H 210.265 -3.86965 -0.61361 0
M  V30 2237 H 211.962 -4.00248 -0.2455 0
M  V30 2238 H 208.552 -4.11939 1.18339 0
M  V30 2239 H 212.736 -4.50343 2.08579 0
M  V30 2240 H 207.992 -5.10493 3.36462 0
M  V30 2241 H 212.166 -5.50262 4.26831 0
M  V30 2242 H 209.793 -5.80089 4.91325 0
M  V30 2243 N 211.368 -0.403325 -1.52352 0
M  V30 2244 C 212.614 0.174605 -2.02047 0
M  V30 2245 C 212.947 1.45282 -1.28867 0
M  V30 2246 O 212.222 1.90483 -0.393257 0
M  V30 2247 C 212.505 0.428238 -3.57545 0
M  V30 2248 C 212.358 -0.866248 -4.4138 0
M  V30 2249 C 213.677 1.21287 -4.23057 0
M  V30 2250 H 210.796 0.0619851 -0.734389 0
M  V30 2251 H 213.438 -0.53565 -1.82293 0
M  V30 2252 H 211.588 1.03327 -3.74507 0
M  V30 2253 H 213.26 -1.50265 -4.3614 0
M  V30 2254 H 211.503 -1.47851 -4.07827 0
M  V30 2255 H 212.174 -0.643249 -5.48239 0
M  V30 2256 H 214.65 0.700703 -4.10158 0
M  V30 2257 H 213.526 1.35909 -5.31808 0
M  V30 2258 H 213.787 2.23193 -3.81625 0
M  V30 2259 N 212.846 1.57033 -0.133567 0
M  V30 2260 C 214.094 1.953 0.519848 0
M  V30 2261 C 214.415 1.01866 1.66278 0
M  V30 2262 O 213.685 0.0776513 1.95746 0
M  V30 2263 H 212.265 0.721091 0.195032 0
M  V30 2264 H 214.927 1.93809 -0.205921 0
M  V30 2265 H 214.023 2.98695 0.904854 0
M  V30 2266 N 214.325 -0.140222 1.56975 0
M  V30 2267 C 215.573 -0.850005 1.83356 0
M  V30 2268 C 215.894 -1.81399 0.71551 0
M  V30 2269 O 215.164 -1.94136 -0.262294 0
M  V30 2270 H 213.744 -0.316886 0.676456 0
M  V30 2271 H 216.406 -0.132608 1.94448 0
M  V30 2272 H 215.502 -1.40814 2.78528 0
M  V30 2273 N 215.803 -1.52179 -0.40978 0
M  V30 2274 C 216.753 -1.71857 -1.49831 0
M  V30 2275 C 217.737 -0.572469 -1.50372 0
M  V30 2276 O 218.929 -0.829509 -1.56359 0
M  V30 2277 C 216.058 -1.87206 -2.87765 0
M  V30 2278 C 215.144 -3.07685 -2.91875 0
M  V30 2279 N 215.535 -4.30403 -2.65683 0
M  V30 2280 C 213.833 -3.07505 -3.23043 0
M  V30 2281 C 214.534 -5.11868 -2.76344 0
M  V30 2282 N 213.51 -4.47101 -3.09195 0
M  V30 2283 H 217.312 -2.64381 -1.28375 0
M  V30 2284 H 214.826 -1.50203 -0.617479 0
M  V30 2285 H 216.823 -1.99419 -3.66111 0
M  V30 2286 H 215.483 -0.958814 -3.10221 0
M  V30 2287 H 216.494 -4.58887 -2.4009 0
M  V30 2288 H 213.171 -2.25915 -3.51096 0
M  V30 2289 H 214.561 -6.19634 -2.59814 0
M  V30 2290 N 217.281 0.66697 -1.42791 0
M  V30 2291 C 218.692 1.2478 -1.38877 0
M  V30 2292 C 219.043 1.96012 -0.0859426 0
M  V30 2293 O 218.168 2.00463 0.815081 0
M  V30 2294 C 218.763 2.26938 -2.51564 0
M  V30 2295 C 217.322 2.80529 -2.50959 0
M  V30 2296 C 216.469 1.54965 -2.29959 0
M  V30 2297 H 219.42 0.459853 -1.51892 0
M  V30 2298 H 219.441 3.08834 -2.22265 0
M  V30 2299 H 218.953 1.75065 -3.46372 0
M  V30 2300 H 217.054 3.36502 -1.59991 0
M  V30 2301 H 217.167 3.29012 -3.48265 0
M  V30 2302 H 215.531 1.81817 -1.78366 0
M  V30 2303 H 216.314 1.05047 -3.26833 0
M  V30 2304 N 218.759 1.29093 0.90403 0
M  V30 2305 C 220.008 1.16187 1.64874 0
M  V30 2306 C 220.321 -0.286742 1.93487 0
M  V30 2307 O 221.527 -0.537062 2.66135 0
M  V30 2308 C 219.983 2.03177 2.97064 0
M  V30 2309 C 219.591 3.52836 2.76062 0
M  V30 2310 C 221.335 1.98984 3.74974 0
M  V30 2311 C 219.242 4.31945 4.03952 0
M  V30 2312 H 218.172 0.431246 0.618501 0
M  V30 2313 H 220.823 1.53699 1.00243 0
M  V30 2314 H 219.205 1.5853 3.62883 0
M  V30 2315 H 220.379 4.05507 2.18863 0
M  V30 2316 H 218.694 3.58656 2.11553 0
M  V30 2317 H 221.291 2.55351 4.69787 0
M  V30 2318 H 221.634 0.968815 4.0487 0
M  V30 2319 H 222.167 2.41652 3.15989 0
M  V30 2320 H 218.906 5.34667 3.79225 0
M  V30 2321 H 218.426 3.84045 4.60727 0
M  V30 2322 H 220.105 4.42379 4.72133 0
M  V30 2323 N 220.237 -1.11381 1.11499 0
M  V30 2324 C 221.2 -2.15622 0.777153 0
M  V30 2325 C 222.2 -1.59504 -0.203779 0
M  V30 2326 O 223.39 -1.74188 0.020782 0
M  V30 2327 C 220.522 -3.40556 0.153116 0
M  V30 2328 H 221.715 -2.47021 1.70061 0
M  V30 2329 H 219.268 -1.26577 0.916952 0
M  V30 2330 H 220.003 -3.14767 -0.780536 0
M  V30 2331 H 219.788 -3.8257 0.859238 0
M  V30 2332 H 221.278 -4.17546 -0.0671044 0
M  V30 2333 N 221.715 -0.905404 -1.28997 0
M  V30 2334 C 222.963 -0.533192 -1.9494 0
M  V30 2335 C 223.284 0.924618 -1.71685 0
M  V30 2336 O 222.554 1.65268 -1.05183 0
M  V30 2337 H 221.134 -0.194194 -0.721317 0
M  V30 2338 H 223.796 -1.15294 -1.57141 0
M  V30 2339 H 222.892 -0.72059 -3.03667 0
M  V30 2340 N 223.193 1.4272 -0.668489 0
M  V30 2341 C 224.421 2.05966 -0.196348 0
M  V30 2342 C 224.836 1.50191 1.14403 0
M  V30 2343 O 224.193 0.639208 1.7094 0
M  V30 2344 C 224.244 3.61314 -0.115815 0
M  V30 2345 O 223.965 4.1502 -1.40322 0
M  V30 2346 C 225.466 4.41663 0.380579 0
M  V30 2347 H 222.686 0.663954 -0.0969829 0
M  V30 2348 H 225.23 1.82966 -0.913446 0
M  V30 2349 H 223.385 3.83448 0.551931 0
M  V30 2350 H 223.799 5.08832 -1.27243 0
M  V30 2351 H 225.273 5.5065 0.385848 0
M  V30 2352 H 225.75 4.15792 1.41471 0
M  V30 2353 H 226.356 4.24534 -0.255209 0
M  V30 2354 N 224.671 0.411399 1.52136 0
M  V30 2355 C 225.581 -0.419774 2.30814 0
M  V30 2356 C 226.597 -1.0515 1.38634 0
M  V30 2357 O 227.773 -1.05252 1.71709 0
M  V30 2358 C 224.838 -1.52019 3.11594 0
M  V30 2359 C 223.899 -0.91129 4.19516 0
M  V30 2360 C 223.132 -1.95927 4.96436 0
M  V30 2361 O 223.355 -3.17775 4.73683 0
M  V30 2362 O 222.289 -1.56423 5.81219 0
M  V30 2363 H 226.115 0.221805 3.02889 0
M  V30 2364 H 223.7 0.174547 1.48377 0
M  V30 2365 H 225.582 -2.15898 3.61892 0
M  V30 2366 H 224.257 -2.14633 2.42311 0
M  V30 2367 H 223.164 -0.235157 3.7336 0
M  V30 2368 H 224.497 -0.32904 4.91099 0
M  V30 2369 N 226.149 -1.5696 0.141893 0
M  V30 2370 C 227.096 -2.16501 -0.799737 0
M  V30 2371 C 228.066 -1.09643 -1.24771 0
M  V30 2372 O 229.251 -1.3766 -1.32115 0
M  V30 2373 C 226.391 -2.78679 -2.03549 0
M  V30 2374 C 225.504 -3.99914 -1.6338 0
M  V30 2375 C 224.639 -4.50106 -2.82096 0
M  V30 2376 C 223.678 -5.63819 -2.38275 0
M  V30 2377 N 222.815 -6.08651 -3.49983 0
M  V30 2378 H 227.655 -2.96632 -0.285179 0
M  V30 2379 H 225.192 -1.46533 -0.129053 0
M  V30 2380 H 227.15 -3.1287 -2.75986 0
M  V30 2381 H 225.78 -2.012 -2.52425 0
M  V30 2382 H 224.832 -3.71735 -0.807279 0
M  V30 2383 H 226.144 -4.82311 -1.27192 0
M  V30 2384 H 225.298 -4.86325 -3.62729 0
M  V30 2385 H 224.037 -3.66706 -3.21525 0
M  V30 2386 H 223.042 -5.2718 -1.56081 0
M  V30 2387 H 224.267 -6.49 -1.99938 0
M  V30 2388 H 222.213 -5.28188 -3.89042 0
M  V30 2389 H 222.13 -6.85961 -3.17794 0
M  V30 2390 H 223.398 -6.49515 -4.30988 0
M  V30 2391 N 227.627 0.131896 -1.57047 0
M  V30 2392 C 228.852 0.860418 -1.8871 0
M  V30 2393 C 229.277 1.73251 -0.73251 0
M  V30 2394 O 228.635 1.785 0.317429 0
M  V30 2395 C 228.683 1.68047 -3.19049 0
M  V30 2396 O 227.787 2.7862 -3.04047 0
M  V30 2397 H 227.128 0.238743 -0.619595 0
M  V30 2398 H 229.658 0.118169 -2.04258 0
M  V30 2399 H 229.668 2.07238 -3.51449 0
M  V30 2400 H 228.343 1.04018 -4.02682 0
M  V30 2401 H 226.92 2.42726 -2.83088 0
M  V30 2402 N 229.106 1.52395 0.401703 0
M  V30 2403 C 230.354 1.66488 1.14569 0
M  V30 2404 C 230.675 0.400897 1.90835 0
M  V30 2405 O 229.945 -0.584415 1.8698 0
M  V30 2406 H 228.525 0.613672 0.425929 0
M  V30 2407 H 231.187 1.89464 0.457093 0
M  V30 2408 H 230.283 2.50942 1.85566 0
M  V30 2409 N 230.584 -0.659388 1.43143 0
M  V30 2410 C 231.83 -1.42145 1.44647 0
M  V30 2411 C 232.163 -1.9408 0.0681907 0
M  V30 2412 O 231.438 -1.71899 -0.910007 0
M  V30 2413 C 231.721 -2.60735 2.48373 0
M  V30 2414 C 231.574 -2.14332 3.95451 0
M  V30 2415 C 232.893 -3.62951 2.48906 0
M  V30 2416 H 230.012 -0.51552 0.526696 0
M  V30 2417 H 232.654 -0.748069 1.74654 0
M  V30 2418 H 230.804 -3.18184 2.22916 0
M  V30 2419 H 232.476 -1.61932 4.31944 0
M  V30 2420 H 230.719 -1.4576 4.08578 0
M  V30 2421 H 231.39 -2.99583 4.63631 0
M  V30 2422 H 233.866 -3.1525 2.71582 0
M  V30 2423 H 232.742 -4.43487 3.23435 0
M  V30 2424 H 233.003 -4.15126 1.52061 0
M  V30 2425 N 232.062 -1.29571 -0.897171 0
M  V30 2426 C 232.972 -1.16808 -2.03453 0
M  V30 2427 C 233.988 -0.0907471 -1.73763 0
M  V30 2428 O 235.164 -0.303312 -1.99103 0
M  V30 2429 C 232.229 -0.848264 -3.36163 0
M  V30 2430 C 231.29 -2.0097 -3.79354 0
M  V30 2431 C 230.523 -1.70505 -5.05731 0
M  V30 2432 O 230.746 -0.62718 -5.66941 0
M  V30 2433 O 229.68 -2.5538 -5.45036 0
M  V30 2434 H 233.506 -2.12325 -2.17144 0
M  V30 2435 H 231.091 -1.09047 -1.02123 0
M  V30 2436 H 232.973 -0.684581 -4.15802 0
M  V30 2437 H 231.648 0.0771071 -3.23608 0
M  V30 2438 H 230.555 -2.22863 -3.00471 0
M  V30 2439 H 231.888 -2.91636 -3.96496 0
M  V30 2440 N 233.54 1.10788 -1.12088 0
M  V30 2441 C 234.77 1.86191 -0.895351 0
M  V30 2442 C 235.178 1.80763 0.558702 0
M  V30 2443 O 234.521 1.19188 1.39785 0
M  V30 2444 C 234.583 3.35659 -1.28737 0
M  V30 2445 C 234.247 3.64849 -2.75198 0
M  V30 2446 C 235.244 3.61757 -3.734 0
M  V30 2447 C 232.929 3.93641 -3.12013 0
M  V30 2448 C 234.923 3.87045 -5.06434 0
M  V30 2449 C 232.61 4.18585 -4.4523 0
M  V30 2450 C 233.608 4.15277 -5.42249 0
M  V30 2451 O 233.296 4.3959 -6.73065 0
M  V30 2452 H 233.028 0.595425 -0.32007 0
M  V30 2453 H 235.582 1.40992 -1.49367 0
M  V30 2454 H 233.812 3.81497 -0.63224 0
M  V30 2455 H 235.501 3.92441 -1.03656 0
M  V30 2456 H 236.267 3.39557 -3.46303 0
M  V30 2457 H 232.146 3.95348 -2.37109 0
M  V30 2458 H 235.69 3.84378 -5.82151 0
M  V30 2459 H 231.587 4.40264 -4.72057 0
M  V30 2460 H 232.355 4.57123 -6.78956 0
M  V30 2461 N 235.018 0.912232 1.28515 0
M  V30 2462 C 236.243 0.559774 1.99703 0
M  V30 2463 C 236.668 -0.851393 1.67729 0
M  V30 2464 O 236.026 -1.56875 0.908834 0
M  V30 2465 C 236.074 0.773874 3.52198 0
M  V30 2466 O 235.178 -0.167842 4.12058 0
M  V30 2467 H 234.519 0.21723 0.627461 0
M  V30 2468 H 237.049 1.22725 1.63706 0
M  V30 2469 H 237.059 0.683386 4.02236 0
M  V30 2470 H 235.734 1.80261 3.74805 0
M  V30 2471 H 234.311 -0.0287509 3.72889 0
M  V30 2472 N 236.496 -1.42363 0.676048 0
M  V30 2473 C 237.426 -2.33497 0.0124832 0
M  V30 2474 C 238.407 -1.50748 -0.787981 0
M  V30 2475 O 239.592 -1.79346 -0.744884 0
M  V30 2476 C 236.722 -3.34377 -0.938582 0
M  V30 2477 C 235.676 -4.27289 -0.246622 0
M  V30 2478 C 235.002 -5.18386 -1.31071 0
M  V30 2479 C 236.302 -5.14916 0.875125 0
M  V30 2480 H 237.996 -2.89233 0.773593 0
M  V30 2481 H 235.542 -1.39073 0.37346 0
M  V30 2482 H 237.495 -3.97044 -1.41188 0
M  V30 2483 H 236.219 -2.76947 -1.73113 0
M  V30 2484 H 234.878 -3.66018 0.206456 0
M  V30 2485 H 234.526 -4.57282 -2.09528 0
M  V30 2486 H 234.226 -5.81378 -0.852839 0
M  V30 2487 H 235.75 -5.83929 -1.78492 0
M  V30 2488 H 237.164 -5.71262 0.482983 0
M  V30 2489 H 235.561 -5.86747 1.25887 0
M  V30 2490 H 236.631 -4.53242 1.72335 0
M  V30 2491 N 237.974 -0.419461 -1.51915 0
M  V30 2492 C 239.251 0.211999 -1.94448 0
M  V30 2493 C 239.631 1.61703 -1.35703 0
M  V30 2494 O 238.979 2.22102 -0.536931 0
M  V30 2495 C 239.189 0.207872 -3.4838 0
M  V30 2496 C 240.537 0.422192 -4.22496 0
M  V30 2497 O 241.561 0.286778 -3.55044 0
M  V30 2498 O 240.42 0.690009 -5.42126 0
M  V30 2499 H 237.514 0.139586 -0.815135 0
M  V30 2500 H 240.06 -0.476151 -1.62883 0
M  V30 2501 H 238.832 -0.775102 -3.83546 0
M  V30 2502 H 238.455 0.939688 -3.86336 0
M  V30 2503 N 239.452 1.56882 -0.150215 0
M  V30 2504 C 240.4 2.18214 0.805313 0
M  V30 2505 C 241.394 1.14006 1.25296 0
M  V30 2506 O 242.6 1.3225 1.22107 0
M  V30 2507 H 238.975 0.698762 0.277913 0
M  V30 2508 H 240.946 2.97231 0.263862 0
M  V30 2509 C 239.695 2.82065 2.03309 0
M  V30 2510 H 239.018 3.61968 1.69763 0
M  V30 2511 H 240.458 3.28477 2.68103 0
M  V30 2512 C 238.917 1.80739 2.84315 0
M  V30 2513 O 239.447 1.27983 3.80767 0
M  V30 2514 N 237.653 1.4997 2.48913 0
M  V30 2515 H 237.2 1.93062 1.70542 0
M  V30 2516 H 237.158 0.824217 3.03404 0
M  V30 2517 N 240.93 -0.123565 1.57115 0
M  V30 2518 C 241.86 -1.15309 2.03042 0
M  V30 2519 C 242.841 -1.43454 0.914061 0
M  V30 2520 O 244.026 -1.53973 1.18347 0
M  V30 2521 C 241.156 -2.48043 2.43089 0
M  V30 2522 C 240.11 -2.3437 3.58127 0
M  V30 2523 C 239.436 -3.72026 3.84059 0
M  V30 2524 C 240.736 -1.80804 4.90007 0
M  V30 2525 H 242.43 -0.771102 2.893 0
M  V30 2526 H 239.976 -0.369479 1.39179 0
M  V30 2527 H 241.929 -3.20311 2.73823 0
M  V30 2528 H 240.653 -2.88122 1.53796 0
M  V30 2529 H 239.312 -1.64551 3.27595 0
M  V30 2530 H 238.96 -4.09582 2.91979 0
M  V30 2531 H 238.66 -3.63732 4.6149 0
M  V30 2532 H 240.184 -4.45806 4.1724 0
M  V30 2533 H 241.598 -2.42886 5.19307 0
M  V30 2534 H 239.995 -1.83343 5.71407 0
M  V30 2535 H 241.065 -0.76528 4.78823 0
M  V30 2536 N 242.408 -1.52605 -0.393616 0
M  V30 2537 C 243.638 -1.71046 -1.15874 0
M  V30 2538 C 244.046 -0.426483 -1.84331 0
M  V30 2539 O 243.389 0.608513 -1.73329 0
M  V30 2540 C 243.451 -2.80118 -2.25332 0
M  V30 2541 C 243.115 -4.21381 -1.76881 0
M  V30 2542 C 244.112 -5.04697 -1.24808 0
M  V30 2543 C 241.797 -4.67683 -1.83244 0
M  V30 2544 C 243.791 -6.32393 -0.797387 0
M  V30 2545 C 241.478 -5.95364 -1.37787 0
M  V30 2546 C 242.476 -6.77549 -0.861208 0
M  V30 2547 O 242.164 -8.02837 -0.413252 0
M  V30 2548 H 241.896 -0.576155 -0.353583 0
M  V30 2549 H 244.45 -2.00018 -0.467123 0
M  V30 2550 H 242.68 -2.46557 -2.97904 0
M  V30 2551 H 244.369 -2.87006 -2.87023 0
M  V30 2552 H 245.135 -4.70111 -1.19252 0
M  V30 2553 H 241.014 -4.03805 -2.22401 0
M  V30 2554 H 244.558 -6.9649 -0.393437 0
M  V30 2555 H 240.455 -6.29455 -1.43026 0
M  V30 2556 H 241.223 -8.16749 -0.53515 0
M  V30 2557 N 243.887 0.651787 -1.4349 0
M  V30 2558 C 244.797 1.79368 -1.5121 0
M  V30 2559 C 245.813 1.69361 -0.399093 0
M  V30 2560 O 246.989 1.90505 -0.653431 0
M  V30 2561 C 244.054 3.15653 -1.43401 0
M  V30 2562 C 243.115 3.37446 -2.65384 0
M  V30 2563 C 242.348 4.67229 -2.57939 0
M  V30 2564 O 242.571 5.46676 -1.62792 0
M  V30 2565 O 241.505 4.90773 -3.48462 0
M  V30 2566 H 245.331 1.7581 -2.47638 0
M  V30 2567 H 242.916 0.810447 -1.25507 0
M  V30 2568 H 244.798 3.96935 -1.41494 0
M  V30 2569 H 243.473 3.19798 -0.501085 0
M  V30 2570 H 242.38 2.55923 -2.72863 0
M  V30 2571 H 243.713 3.38148 -3.57654 0
M  V30 2572 N 245.365 1.30045 0.890287 0
M  V30 2573 C 246.613 1.18327 1.63839 0
M  V30 2574 C 246.934 -0.263455 1.93212 0
M  V30 2575 O 246.204 -1.17856 1.56482 0
M  V30 2576 H 244.784 0.434933 0.607324 0
M  V30 2577 H 247.446 1.631 1.06698 0
M  V30 2578 H 246.542 1.74024 2.59079 0
M  V30 2579 N 246.843 -1.10192 1.12674 0
M  V30 2580 C 247.79 -2.16606 0.796906 0
M  V30 2581 C 248.76 -1.64394 -0.237476 0
M  V30 2582 O 249.945 -1.90474 -0.111484 0
M  V30 2583 C 247.085 -3.44116 0.26043 0
M  V30 2584 C 246.198 -4.10268 1.35293 0
M  V30 2585 C 245.333 -5.25507 0.775621 0
M  V30 2586 C 244.372 -5.83567 1.84706 0
M  V30 2587 N 243.509 -6.90179 1.28829 0
M  V30 2588 H 248.349 -2.44163 1.70846 0
M  V30 2589 H 245.886 -1.19846 0.85295 0
M  V30 2590 H 247.844 -4.17143 -0.0686814 0
M  V30 2591 H 246.474 -3.16901 -0.614274 0
M  V30 2592 H 245.526 -3.35184 1.79877 0
M  V30 2593 H 246.838 -4.4946 2.16303 0
M  V30 2594 H 245.992 -6.05398 0.397327 0
M  V30 2595 H 244.731 -4.87656 -0.0656581 0
M  V30 2596 H 243.736 -5.02344 2.23452 0
M  V30 2597 H 244.961 -6.23482 2.69161 0
M  V30 2598 H 242.907 -6.54322 0.468881 0
M  V30 2599 H 242.824 -7.28097 2.03497 0
M  V30 2600 H 244.092 -7.73844 0.937311 0
M  V30 2601 N 248.321 -0.919034 -1.28029 0
M  V30 2602 C 249.268 -0.410005 -2.27129 0
M  V30 2603 C 250.238 0.518405 -1.57803 0
M  V30 2604 O 251.423 0.439451 -1.8567 0
M  V30 2605 C 248.563 0.339054 -3.4343 0
M  V30 2606 C 247.676 -0.622468 -4.27492 0
M  V30 2607 C 246.811 0.145567 -5.31001 0
M  V30 2608 C 245.85 -0.809226 -6.06727 0
M  V30 2609 N 244.987 -0.0743728 -7.02061 0
M  V30 2610 H 249.827 -1.26011 -2.70047 0
M  V30 2611 H 247.364 -0.632663 -1.328 0
M  V30 2612 H 249.322 0.789586 -4.0966 0
M  V30 2613 H 247.952 1.15346 -3.01488 0
M  V30 2614 H 247.004 -1.19153 -3.61257 0
M  V30 2615 H 248.316 -1.35252 -4.80113 0
M  V30 2616 H 247.47 0.656417 -6.03139 0
M  V30 2617 H 246.209 0.908643 -4.79161 0
M  V30 2618 H 245.214 -1.3314 -5.33436 0
M  V30 2619 H 246.439 -1.57194 -6.60656 0
M  V30 2620 H 244.385 0.670616 -6.52563 0
M  V30 2621 H 244.302 -0.744157 -7.52329 0
M  V30 2622 H 245.57 0.416109 -7.78389 0
M  V30 2623 N 249.799 1.42003 -0.683588 0
M  V30 2624 C 251.045 2.01712 -0.209825 0
M  V30 2625 C 251.378 1.53968 1.18353 0
M  V30 2626 O 250.653 0.745661 1.79639 0
M  V30 2627 C 250.936 3.59202 -0.254197 0
M  V30 2628 C 250.789 4.17102 -1.68363 0
M  V30 2629 C 252.108 4.38344 0.392709 0
M  V30 2630 H 249.227 0.732891 -0.0777189 0
M  V30 2631 H 251.869 1.68909 -0.87004 0
M  V30 2632 H 250.019 3.87278 0.307954 0
M  V30 2633 H 251.691 3.99946 -2.29871 0
M  V30 2634 H 249.934 3.72597 -2.22157 0
M  V30 2635 H 250.605 5.26249 -1.6663 0
M  V30 2636 H 253.081 4.16011 -0.0859162 0
M  V30 2637 H 251.957 5.47901 0.331063 0
M  V30 2638 H 252.218 4.16887 1.47164 0
M  V30 2639 N 251.277 0.427512 1.51691 0
M  V30 2640 C 252.526 -0.143679 2.01188 0
M  V30 2641 C 252.839 -1.44642 1.31674 0
M  V30 2642 O 254.045 -2.09997 1.72086 0
M  V30 2643 C 252.501 -0.306602 3.58592 0
M  V30 2644 C 252.109 0.985125 4.37035 0
M  V30 2645 C 253.853 -0.832091 4.16265 0
M  V30 2646 C 251.76 0.788382 5.86122 0
M  V30 2647 H 250.69 -0.0574701 0.751807 0
M  V30 2648 H 253.341 0.555772 1.74881 0
M  V30 2649 H 251.723 -1.06882 3.81303 0
M  V30 2650 H 252.897 1.75492 4.26074 0
M  V30 2651 H 251.212 1.4384 3.90767 0
M  V30 2652 H 253.809 -0.995617 5.25349 0
M  V30 2653 H 254.152 -1.81186 3.74803 0
M  V30 2654 H 254.685 -0.128444 3.97593 0
M  V30 2655 H 251.424 1.74025 6.31978 0
M  V30 2656 H 250.944 0.0582143 5.99772 0
M  V30 2657 H 252.623 0.437722 6.45518 0
M  V30 2658 N 252.755 -1.56801 0.158532 0
M  V30 2659 C 253.685 -2.20347 -0.772609 0
M  V30 2660 C 254.666 -1.15518 -1.24859 0
M  V30 2661 O 255.851 -1.43902 -1.30406 0
M  V30 2662 C 252.981 -2.83417 -2.00729 0
M  V30 2663 C 251.935 -3.94174 -1.66765 0
M  V30 2664 C 251.261 -4.44233 -2.97592 0
M  V30 2665 C 252.561 -5.14392 -0.905447 0
M  V30 2666 H 254.255 -2.98413 -0.242959 0
M  V30 2667 H 251.801 -1.43537 -0.115419 0
M  V30 2668 H 253.754 -3.26543 -2.6636 0
M  V30 2669 H 252.478 -2.02701 -2.56086 0
M  V30 2670 H 251.137 -3.51684 -1.03508 0
M  V30 2671 H 250.785 -3.60325 -3.50963 0
M  V30 2672 H 250.485 -5.18945 -2.75626 0
M  V30 2673 H 252.009 -4.90037 -3.64274 0
M  V30 2674 H 253.423 -5.5429 -1.46408 0
M  V30 2675 H 251.82 -5.9494 -0.7853 0
M  V30 2676 H 252.89 -4.84795 0.100668 0
M  V30 2677 N 254.233 0.115231 -1.57178 0
M  V30 2678 C 255.461 0.836437 -1.89239 0
M  V30 2679 C 255.876 1.73256 -0.750175 0
M  V30 2680 O 255.233 1.80357 0.278832 0
M  V30 2681 C 255.284 1.66671 -3.20785 0
M  V30 2682 O 255.005 0.806652 -4.3061 0
M  V30 2683 C 256.506 2.49274 -3.66575 0
M  V30 2684 H 253.726 0.240253 -0.626514 0
M  V30 2685 H 256.27 0.0984932 -2.04263 0
M  V30 2686 H 254.425 2.35737 -3.0742 0
M  V30 2687 H 254.839 1.37969 -5.06028 0
M  V30 2688 H 256.313 3.03055 -4.6137 0
M  V30 2689 H 256.79 3.26807 -2.93417 0
M  V30 2690 H 257.396 1.85443 -3.82741 0
M  V30 2691 N 255.711 1.52812 0.385517 0
M  V30 2692 C 257.122 1.5993 0.963293 0
M  V30 2693 C 257.473 0.454302 1.90868 0
M  V30 2694 O 256.598 -0.422132 2.12243 0
M  V30 2695 C 257.193 2.89871 1.75387 0
M  V30 2696 C 255.752 2.99389 2.28129 0
M  V30 2697 C 254.899 2.55071 1.08783 0
M  V30 2698 H 257.85 1.5784 0.164948 0
M  V30 2699 H 257.871 2.76553 2.61341 0
M  V30 2700 H 257.383 3.73186 1.06554 0
M  V30 2701 H 255.484 2.20619 3.00263 0
M  V30 2702 H 255.597 4.04096 2.57377 0
M  V30 2703 H 253.961 2.09473 1.4489 0
M  V30 2704 H 254.744 3.40785 0.414807 0
M  V30 2705 N 257.189 -0.644168 1.43834 0
M  V30 2706 C 258.417 -1.43147 1.49387 0
M  V30 2707 C 258.832 -1.88452 0.114583 0
M  V30 2708 O 258.189 -1.60047 -0.876989 0
M  V30 2709 C 258.24 -2.66046 2.44748 0
M  V30 2710 O 257.961 -2.22633 3.77314 0
M  V30 2711 C 259.462 -3.59311 2.59635 0
M  V30 2712 H 256.682 -0.439447 0.507077 0
M  V30 2713 H 259.226 -0.78895 1.88669 0
M  V30 2714 H 257.381 -3.26418 2.08638 0
M  V30 2715 H 257.795 -3.02216 4.28679 0
M  V30 2716 H 259.269 -4.42187 3.30416 0
M  V30 2717 H 259.746 -4.07259 1.64427 0
M  V30 2718 H 260.352 -3.04816 2.96593 0
M  V30 2719 N 258.668 -1.30515 -0.883378 0
M  V30 2720 C 259.615 -1.17032 -1.98927 0
M  V30 2721 C 260.585 -0.0594241 -1.65994 0
M  V30 2722 O 261.77 -0.229895 -1.8941 0
M  V30 2723 C 258.91 -0.869777 -3.33959 0
M  V30 2724 C 258.023 -2.06271 -3.79574 0
M  V30 2725 C 257.158 -1.70011 -5.03259 0
M  V30 2726 C 256.197 -2.8579 -5.41286 0
M  V30 2727 N 255.334 -2.49816 -6.56153 0
M  V30 2728 H 260.174 -2.1164 -2.09792 0
M  V30 2729 H 257.711 -1.05296 -1.02719 0
M  V30 2730 H 259.669 -0.676138 -4.11685 0
M  V30 2731 H 258.299 0.0394332 -3.22776 0
M  V30 2732 H 257.351 -2.36755 -2.97744 0
M  V30 2733 H 258.663 -2.92971 -4.03694 0
M  V30 2734 H 257.817 -1.47032 -5.88614 0
M  V30 2735 H 256.556 -0.804829 -4.81013 0
M  V30 2736 H 255.561 -3.09434 -4.54456 0
M  V30 2737 H 256.786 -3.76008 -5.65504 0
M  V30 2738 H 254.732 -1.62795 -6.35479 0
M  V30 2739 H 254.649 -3.30048 -6.8015 0
M  V30 2740 H 255.917 -2.30197 -7.44735 0
M  V30 2741 N 260.146 1.09593 -1.13257 0
M  V30 2742 C 261.093 2.1618 -0.808381 0
M  V30 2743 C 262.063 1.64517 0.228754 0
M  V30 2744 O 263.248 1.9053 0.101381 0
M  V30 2745 C 260.388 3.43973 -0.278675 0
M  V30 2746 C 259.501 4.09545 -1.37466 0
M  V30 2747 C 258.636 5.25088 -0.803479 0
M  V30 2748 C 257.675 5.82579 -1.87799 0
M  V30 2749 N 256.812 6.89486 -1.32488 0
M  V30 2750 H 261.652 2.43254 -1.72138 0
M  V30 2751 H 259.189 1.19392 -0.859294 0
M  V30 2752 H 261.147 4.17174 0.0465583 0
M  V30 2753 H 259.777 3.17223 0.597459 0
M  V30 2754 H 258.829 3.34226 -1.81652 0
M  V30 2755 H 260.141 4.48307 -2.18684 0
M  V30 2756 H 259.295 6.05178 -0.429427 0
M  V30 2757 H 258.034 4.87684 0.0397956 0
M  V30 2758 H 257.039 5.01152 -2.26113 0
M  V30 2759 H 258.264 6.22045 -2.72463 0
M  V30 2760 H 256.21 6.54064 -0.503575 0
M  V30 2761 H 256.127 7.27007 -2.07355 0
M  V30 2762 H 257.395 7.73336 -0.978336 0
M  V30 2763 N 261.624 0.925811 1.2754 0
M  V30 2764 C 262.852 0.581509 1.9856 0
M  V30 2765 C 263.267 -0.840041 1.69082 0
M  V30 2766 O 262.624 -1.55805 0.950312 0
M  V30 2767 C 262.675 0.795589 3.52637 0
M  V30 2768 O 262.396 2.16121 3.81082 0
M  V30 2769 C 263.897 0.459744 4.4091 0
M  V30 2770 H 261.117 0.220538 0.633722 0
M  V30 2771 H 263.661 1.24232 1.6244 0
M  V30 2772 H 261.816 0.18161 3.86974 0
M  V30 2773 H 262.23 2.2098 4.75676 0
M  V30 2774 H 263.704 0.660244 5.48037 0
M  V30 2775 H 264.181 -0.604625 4.35018 0
M  V30 2776 H 264.787 1.05178 4.12089 0
M  V30 2777 N 263.102 -1.41638 0.69111 0
M  V30 2778 C 264.379 -1.95036 0.148421 0
M  V30 2779 C 264.759 -1.63072 -1.34055 0
M  V30 2780 O 264.107 -0.93538 -2.08478 0
M  V30 2781 C 264.317 -3.46279 0.434951 0
M  V30 2782 C 265.665 -4.23069 0.360275 0
M  V30 2783 O 266.689 -3.54277 0.369613 0
M  V30 2784 O 265.548 -5.45583 0.316534 0
M  V30 2785 H 262.642 -0.826908 0.0123654 0
M  V30 2786 H 265.188 -1.5138 0.766963 0
M  V30 2787 H 263.96 -3.6281 1.46576 0
M  V30 2788 H 263.583 -3.97019 -0.214787 0
M  V30 2789 N 264.58 -0.43555 -1.51462 0
M  V30 2790 C 265.527 0.376797 -2.27703 0
M  V30 2791 C 266.497 1.01838 -1.31219 0
M  V30 2792 O 267.682 1.03762 -1.60119 0
M  V30 2793 C 264.822 1.47301 -3.12084 0
M  V30 2794 C 263.935 0.849744 -4.2356 0
M  V30 2795 C 263.07 1.92086 -4.95254 0
M  V30 2796 C 262.109 1.27593 -5.98654 0
M  V30 2797 N 261.246 2.28833 -6.63762 0
M  V30 2798 H 266.086 -0.279734 -2.96684 0
M  V30 2799 H 263.623 -0.149795 -1.46335 0
M  V30 2800 H 265.581 2.11984 -3.59331 0
M  V30 2801 H 264.211 2.0992 -2.45221 0
M  V30 2802 H 263.263 0.0912529 -3.80291 0
M  V30 2803 H 264.575 0.338878 -4.97648 0
M  V30 2804 H 263.729 2.64435 -5.46039 0
M  V30 2805 H 262.468 2.46545 -4.20793 0
M  V30 2806 H 261.473 0.537893 -5.47162 0
M  V30 2807 H 262.698 0.738693 -6.7507 0
M  V30 2808 H 260.644 2.82375 -5.92115 0
M  V30 2809 H 260.561 1.82632 -7.33608 0
M  V30 2810 H 261.829 3.00671 -7.19178 0
M  V30 2811 N 266.058 1.56714 -0.166846 0
M  V30 2812 C 267.005 2.17746 0.765193 0
M  V30 2813 C 267.975 1.11614 1.23011 0
M  V30 2814 O 269.16 1.39745 1.29908 0
M  V30 2815 C 266.3 2.81882 1.9909 0
M  V30 2816 C 265.413 4.02462 1.56997 0
M  V30 2817 C 264.548 4.54537 2.749 0
M  V30 2818 C 263.587 5.67538 2.29275 0
M  V30 2819 N 262.724 6.14142 3.40255 0
M  V30 2820 H 267.564 2.97048 0.237952 0
M  V30 2821 H 265.101 1.4672 0.105725 0
M  V30 2822 H 267.059 3.17221 2.70974 0
M  V30 2823 H 265.689 2.05191 2.49192 0
M  V30 2824 H 264.741 3.72973 0.748037 0
M  V30 2825 H 266.053 4.84273 1.19503 0
M  V30 2826 H 265.207 4.92035 3.54946 0
M  V30 2827 H 263.946 3.71774 3.1565 0
M  V30 2828 H 262.951 5.29597 1.47674 0
M  V30 2829 H 264.176 6.52099 1.89588 0
M  V30 2830 H 262.122 5.3431 3.8059 0
M  V30 2831 H 262.039 6.9093 3.06841 0
M  V30 2832 H 263.307 6.56289 4.206 0
M  V30 2833 N 267.536 -0.106894 1.57237 0
M  V30 2834 C 268.952 -0.46078 1.52804 0
M  V30 2835 C 269.152 -1.81184 0.881746 0
M  V30 2836 O 268.208 -2.48102 0.469224 0
M  V30 2837 C 269.521 -0.434127 2.9755 0
M  V30 2838 C 271.069 -0.516821 3.08704 0
M  V30 2839 C 271.544 -0.520436 4.55033 0
M  V30 2840 N 273.035 -0.58153 4.59535 0
M  V30 2841 C 273.77 -0.605973 5.70189 0
M  V30 2842 N 273.266 -0.587331 6.90306 0
M  V30 2843 N 275.059 -0.649895 5.5833 0
M  V30 2844 H 267.21 0.778203 1.9763 0
M  V30 2845 H 269.473 0.288403 0.903066 0
M  V30 2846 H 269.179 0.491197 3.48253 0
M  V30 2847 H 269.053 -1.25748 3.55622 0
M  V30 2848 H 271.44 -1.43256 2.57995 0
M  V30 2849 H 271.521 0.334449 2.53604 0
M  V30 2850 H 271.165 0.391313 5.0639 0
M  V30 2851 H 271.095 -1.38876 5.07958 0
M  V30 2852 H 273.586 -0.60161 3.73081 0
M  V30 2853 H 273.899 -0.60894 7.70397 0
M  V30 2854 H 272.244 -0.554564 6.92784 0
M  V30 2855 H 275.435 -0.661907 4.63397 0
M  V30 2856 H 275.608 -0.665476 6.44574 0
M  V30 2857 N 269.014 -1.53014 -0.377408 0
M  V30 2858 C 269.944 -1.81589 -1.46791 0
M  V30 2859 C 270.925 -0.668622 -1.56408 0
M  V30 2860 O 272.11 -0.917337 -1.71168 0
M  V30 2861 C 269.24 -1.99519 -2.8427 0
M  V30 2862 C 268.194 -3.15249 -2.89486 0
M  V30 2863 C 267.52 -3.18451 -4.29527 0
M  V30 2864 C 268.82 -4.54084 -2.58079 0
M  V30 2865 H 270.514 -2.7291 -1.23127 0
M  V30 2866 H 268.06 -1.31319 -0.590883 0
M  V30 2867 H 270.013 -2.18092 -3.60575 0
M  V30 2868 H 268.737 -1.04897 -3.09296 0
M  V30 2869 H 267.396 -2.96477 -2.15631 0
M  V30 2870 H 267.044 -2.2149 -4.5161 0
M  V30 2871 H 266.744 -3.962 -4.33934 0
M  V30 2872 H 268.268 -3.39193 -5.07721 0
M  V30 2873 H 269.682 -4.72899 -3.24098 0
M  V30 2874 H 268.079 -5.33987 -2.7382 0
M  V30 2875 H 269.149 -4.60006 -1.53372 0
M  V30 2876 N 270.492 0.636531 -1.44174 0
M  V30 2877 C 271.439 1.74875 -1.50624 0
M  V30 2878 C 272.409 1.62275 -0.35442 0
M  V30 2879 O 273.594 1.82276 -0.563908 0
M  V30 2880 C 270.734 3.13102 -1.45125 0
M  V30 2881 C 269.847 3.36717 -2.7064 0
M  V30 2882 C 268.982 4.64885 -2.57013 0
M  V30 2883 C 268.021 4.8166 -3.77717 0
M  V30 2884 N 267.158 6.01101 -3.62798 0
M  V30 2885 H 271.998 1.68697 -2.45653 0
M  V30 2886 H 269.535 0.823004 -1.21922 0
M  V30 2887 H 271.493 3.93034 -1.39929 0
M  V30 2888 H 270.123 3.18308 -0.536671 0
M  V30 2889 H 269.175 2.50763 -2.86046 0
M  V30 2890 H 270.487 3.44993 -3.60252 0
M  V30 2891 H 269.641 5.52969 -2.49619 0
M  V30 2892 H 268.38 4.58957 -1.64953 0
M  V30 2893 H 267.385 3.92007 -3.85501 0
M  V30 2894 H 268.61 4.89406 -4.70807 0
M  V30 2895 H 266.556 5.96273 -2.73486 0
M  V30 2896 H 266.473 6.10409 -4.46023 0
M  V30 2897 H 267.741 6.91761 -3.59286 0
M  V30 2898 N 271.97 1.30982 0.876444 0
M  V30 2899 C 272.9 1.20668 1.99903 0
M  V30 2900 C 273.881 0.095354 1.69833 0
M  V30 2901 O 275.066 0.27885 1.92188 0
M  V30 2902 C 272.196 0.90655 3.3526 0
M  V30 2903 C 271.15 1.97675 3.79617 0
M  V30 2904 C 270.476 1.52943 5.1236 0
M  V30 2905 C 271.776 3.389 3.97422 0
M  V30 2906 H 273.47 2.14586 2.0879 0
M  V30 2907 H 271.016 1.03308 1.00317 0
M  V30 2908 H 272.969 0.821025 4.13324 0
M  V30 2909 H 271.693 -0.0682969 3.26529 0
M  V30 2910 H 270.352 2.05205 3.03787 0
M  V30 2911 H 270 0.54262 5.00065 0
M  V30 2912 H 269.7 2.24532 5.43009 0
M  V30 2913 H 271.224 1.45786 5.92941 0
M  V30 2914 H 272.638 3.34081 4.659 0
M  V30 2915 H 271.035 4.0865 4.3946 0
M  V30 2916 H 272.105 3.80163 3.01006 0
M  V30 2917 N 273.449 -1.08991 1.13837 0
M  V30 2918 C 274.695 -1.81526 0.90422 0
M  V30 2919 C 275.028 -1.85706 -0.568066 0
M  V30 2920 O 274.303 -1.32855 -1.42056 0
M  V30 2921 C 274.586 -3.27447 1.49835 0
M  V30 2922 C 274.439 -3.31512 3.04006 0
M  V30 2923 C 275.758 -4.24256 1.17025 0
M  V30 2924 H 272.877 -0.659029 0.329923 0
M  V30 2925 H 275.519 -1.27644 1.40737 0
M  V30 2926 H 273.669 -3.73462 1.07044 0
M  V30 2927 H 275.341 -2.93867 3.55584 0
M  V30 2928 H 273.584 -2.70963 3.38765 0
M  V30 2929 H 274.255 -4.34329 3.40679 0
M  V30 2930 H 276.731 -3.86549 1.54009 0
M  V30 2931 H 275.607 -5.24684 1.61237 0
M  V30 2932 H 275.868 -4.42019 0.0846274 0
M  V30 2933 N 274.927 -0.932562 -1.27047 0
M  V30 2934 C 275.874 -0.434072 -2.26681 0
M  V30 2935 C 276.844 0.501639 -1.58344 0
M  V30 2936 O 278.029 0.419734 -1.86126 0
M  V30 2937 C 275.169 0.30261 -3.43771 0
M  V30 2938 C 274.282 -0.667774 -4.26808 0
M  V30 2939 C 273.417 0.0892393 -5.31125 0
M  V30 2940 C 272.456 -0.873532 -6.05835 0
M  V30 2941 N 271.593 -0.148832 -7.01942 0
M  V30 2942 H 276.433 -1.28868 -2.68695 0
M  V30 2943 H 273.97 -0.646713 -1.32121 0
M  V30 2944 H 275.928 0.746092 -4.10474 0
M  V30 2945 H 274.558 1.12142 -3.02695 0
M  V30 2946 H 273.61 -1.22978 -3.59973 0
M  V30 2947 H 274.922 -1.40337 -4.78651 0
M  V30 2948 H 274.076 0.592409 -6.03801 0
M  V30 2949 H 272.815 0.85777 -4.80097 0
M  V30 2950 H 271.82 -1.38791 -5.31994 0
M  V30 2951 H 273.045 -1.64193 -6.58952 0
M  V30 2952 H 270.991 0.601365 -6.53238 0
M  V30 2953 H 270.908 -0.82391 -7.51497 0
M  V30 2954 H 272.176 0.333527 -7.78786 0
M  V30 2955 N 276.405 1.4127 -0.698611 0
M  V30 2956 C 277.821 1.55241 -0.370462 0
M  V30 2957 C 278.021 1.67351 1.12231 0
M  V30 2958 O 277.077 1.65363 1.90818 0
M  V30 2959 C 278.39 2.78997 -1.12165 0
M  V30 2960 C 279.938 2.92797 -1.1063 0
M  V30 2961 C 280.413 4.19445 -1.8393 0
M  V30 2962 N 281.904 4.26409 -1.80914 0
M  V30 2963 C 282.639 5.23271 -2.34467 0
M  V30 2964 N 282.135 6.26145 -2.96504 0
M  V30 2965 N 283.928 5.15232 -2.24706 0
M  V30 2966 H 276.079 1.31654 -1.66676 0
M  V30 2967 H 278.342 0.635393 -0.703548 0
M  V30 2968 H 278.048 2.76268 -2.17644 0
M  V30 2969 H 277.922 3.70606 -0.702209 0
M  V30 2970 H 280.309 2.95039 -0.0597713 0
M  V30 2971 H 280.39 2.02353 -1.56483 0
M  V30 2972 H 280.034 4.17964 -2.88563 0
M  V30 2973 H 279.964 5.08866 -1.35509 0
M  V30 2974 H 282.455 3.527 -1.35687 0
M  V30 2975 H 282.768 6.96451 -3.34927 0
M  V30 2976 H 281.113 6.26638 -3.00583 0
M  V30 2977 H 284.304 4.33789 -1.7591 0
M  V30 2978 H 284.477 5.90552 -2.66745 0
M  V30 2979 N 277.883 0.443576 1.51229 0
M  V30 2980 C 279.129 -0.120975 2.02439 0
M  V30 2981 C 279.462 -1.41815 1.32674 0
M  V30 2982 O 278.737 -1.89373 0.443622 0
M  V30 2983 C 279.02 -0.333291 3.58554 0
M  V30 2984 C 278.873 0.982968 4.38928 0
M  V30 2985 C 280.192 -1.10028 4.26124 0
M  V30 2986 H 277.311 -0.0424923 0.735774 0
M  V30 2987 H 279.953 0.583794 1.80809 0
M  V30 2988 H 278.103 -0.933614 3.77115 0
M  V30 2989 H 279.775 1.61775 4.32003 0
M  V30 2990 H 278.018 1.58611 4.03763 0
M  V30 2991 H 278.689 0.788379 5.46341 0
M  V30 2992 H 281.165 -0.591711 4.11871 0
M  V30 2993 H 280.041 -1.21761 5.35225 0
M  V30 2994 H 280.302 -2.12996 3.87408 0
M  V30 2995 N 279.361 -1.56624 0.175154 0
M  V30 2996 C 280.607 -1.98061 -0.462976 0
M  V30 2997 C 280.962 -1.05949 -1.60601 0
M  V30 2998 O 280.255 -0.0999027 -1.91339 0
M  V30 2999 C 280.449 -3.43419 -0.989864 0
M  V30 3000 C 280.278 -4.49587 0.100583 0
M  V30 3001 C 279.048 -5.02281 0.551539 0
M  V30 3002 C 281.246 -5.06322 0.902369 0
M  V30 3003 N 279.228 -5.92088 1.62189 0
M  V30 3004 C 280.599 -5.92607 1.82256 0
M  V30 3005 C 282.654 -4.88811 0.947019 0
M  V30 3006 C 281.357 -6.63254 2.78364 0
M  V30 3007 C 283.383 -5.60182 1.89606 0
M  V30 3008 C 282.745 -6.46197 2.80372 0
M  V30 3009 H 278.844 -0.769833 -0.137409 0
M  V30 3010 H 281.428 -1.9273 0.276256 0
M  V30 3011 H 279.599 -3.49288 -1.6986 0
M  V30 3012 H 281.331 -3.7186 -1.59694 0
M  V30 3013 H 278.086 -4.73367 0.148537 0
M  V30 3014 H 278.51 -6.41696 2.15767 0
M  V30 3015 H 283.152 -4.22004 0.259304 0
M  V30 3016 H 280.87 -7.29271 3.48122 0
M  V30 3017 H 284.456 -5.48617 1.93676 0
M  V30 3018 H 283.336 -7.00453 3.52612 0
M  V30 3019 N 280.839 0.0985539 -1.57292 0
M  V30 3020 C 281.749 1.13824 -2.05137 0
M  V30 3021 C 282.765 1.44076 -0.975604 0
M  V30 3022 O 283.941 1.54786 -1.28853 0
M  V30 3023 C 281.006 2.43969 -2.46333 0
M  V30 3024 C 280.067 2.2093 -3.68087 0
M  V30 3025 C 279.3 3.44869 -4.0731 0
M  V30 3026 O 279.523 4.52972 -3.46659 0
M  V30 3027 O 278.457 3.34661 -5.00285 0
M  V30 3028 H 282.283 0.761881 -2.93988 0
M  V30 3029 H 279.868 0.310818 -1.46131 0
M  V30 3030 H 281.75 3.20609 -2.73473 0
M  V30 3031 H 280.425 2.81038 -1.60621 0
M  V30 3032 H 279.332 1.42081 -3.46069 0
M  V30 3033 H 280.665 1.88755 -4.54568 0
M  V30 3034 N 282.317 1.53212 0.369288 0
M  V30 3035 C 283.594 1.59815 1.12776 0
M  V30 3036 C 283.974 0.403402 2.0721 0
M  V30 3037 O 283.322 -0.606667 2.20299 0
M  V30 3038 C 283.532 2.94664 1.87013 0
M  V30 3039 C 284.88 3.49109 2.41677 0
M  V30 3040 O 285.904 2.96669 1.97144 0
M  V30 3041 O 284.763 4.40775 3.23079 0
M  V30 3042 H 281.857 0.645376 0.517125 0
M  V30 3043 H 284.403 1.65553 0.37285 0
M  V30 3044 H 283.175 3.73061 1.18071 0
M  V30 3045 H 282.798 2.92401 2.69421 0
M  V30 3046 N 283.795 -0.628877 1.44509 0
M  V30 3047 C 285.041 -1.39045 1.47629 0
M  V30 3048 C 285.374 -1.93892 0.109343 0
M  V30 3049 O 284.649 -1.7379 -0.87334 0
M  V30 3050 C 284.932 -2.55408 2.53848 0
M  V30 3051 C 284.785 -2.05896 3.99909 0
M  V30 3052 C 286.104 -3.5759 2.56549 0
M  V30 3053 H 283.223 -0.504232 0.537512 0
M  V30 3054 H 285.865 -0.710854 1.76201 0
M  V30 3055 H 284.015 -3.13384 2.29615 0
M  V30 3056 H 285.687 -1.52734 4.35282 0
M  V30 3057 H 283.93 -1.37061 4.11578 0
M  V30 3058 H 284.601 -2.89681 4.69882 0
M  V30 3059 H 287.077 -3.09419 2.78207 0
M  V30 3060 H 285.953 -4.36527 3.32769 0
M  V30 3061 H 286.214 -4.11808 1.60832 0
M  V30 3062 N 285.273 -1.31445 -0.869486 0
M  V30 3063 C 286.521 -1.20918 -1.61936 0
M  V30 3064 C 286.842 0.232683 -1.93607 0
M  V30 3065 O 286.112 1.15352 -1.58338 0
M  V30 3066 H 284.692 -0.44454 -0.600328 0
M  V30 3067 H 287.354 -1.64776 -1.0409 0
M  V30 3068 H 286.45 -1.78124 -2.56278 0
M  V30 3069 N 286.751 1.08385 -1.14413 0
M  V30 3070 C 287.999 1.80419 -0.910679 0
M  V30 3071 C 288.32 1.86658 0.564243 0
M  V30 3072 O 287.59 1.35985 1.41014 0
M  V30 3073 H 286.17 0.668204 -0.333934 0
M  V30 3074 H 288.832 1.31037 -1.44275 0
M  V30 3075 H 287.928 2.83238 -1.31082 0
M  V30 3076 N 288.23 0.939286 1.26551 0
M  V30 3077 C 289.476 0.586715 1.94128 0
M  V30 3078 C 289.809 -0.8717 1.73537 0
M  V30 3079 O 289.084 -1.62339 1.07127 0
M  V30 3080 C 289.367 0.927497 3.4795 0
M  V30 3081 C 289.22 2.44052 3.77834 0
M  V30 3082 C 290.539 0.441569 4.37879 0
M  V30 3083 H 287.658 0.21463 0.705055 0
M  V30 3084 H 290.3 1.17316 1.49455 0
M  V30 3085 H 288.45 0.428431 3.8613 0
M  V30 3086 H 290.122 3.01216 3.4938 0
M  V30 3087 H 288.365 2.8848 3.23978 0
M  V30 3088 H 289.036 2.62947 4.85348 0
M  V30 3089 H 291.512 0.869448 4.06915 0
M  V30 3090 H 290.388 0.708856 5.44304 0
M  V30 3091 H 290.649 -0.658467 4.37169 0
M  V30 3092 N 289.708 -1.40897 0.706093 0
M  V30 3093 C 290.954 -2.01352 0.241889 0
M  V30 3094 C 291.287 -1.55832 -1.15888 0
M  V30 3095 O 290.562 -0.774145 -1.7843 0
M  V30 3096 C 290.845 -3.58752 0.311311 0
M  V30 3097 C 290.698 -4.1437 1.74978 0
M  V30 3098 C 292.017 -4.38914 -0.322922 0
M  V30 3099 H 289.136 -0.731562 0.0893687 0
M  V30 3100 H 291.778 -1.67504 0.896802 0
M  V30 3101 H 289.928 -3.87718 -0.246302 0
M  V30 3102 H 291.6 -3.96239 2.36205 0
M  V30 3103 H 289.843 -3.69016 2.28057 0
M  V30 3104 H 290.514 -5.23532 1.74981 0
M  V30 3105 H 292.99 -4.15822 0.152089 0
M  V30 3106 H 291.866 -5.48358 -0.243855 0
M  V30 3107 H 292.127 -4.19176 -1.40513 0
M  V30 3108 N 291.186 -0.45159 -1.50991 0
M  V30 3109 C 292.096 0.358431 -2.31846 0
M  V30 3110 C 293.112 1.01438 -1.41373 0
M  V30 3111 O 294.288 1.00663 -1.74439 0
M  V30 3112 C 291.353 1.43704 -3.15515 0
M  V30 3113 C 290.414 0.799742 -4.21785 0
M  V30 3114 C 289.647 1.82696 -5.01456 0
M  V30 3115 O 289.87 3.05105 -4.81941 0
M  V30 3116 O 288.804 1.40958 -5.85162 0
M  V30 3117 H 292.63 -0.302032 -3.02194 0
M  V30 3118 H 290.215 -0.213825 -1.47862 0
M  V30 3119 H 292.097 2.06227 -3.67489 0
M  V30 3120 H 290.772 2.08133 -2.47916 0
M  V30 3121 H 289.679 0.136084 -3.73852 0
M  V30 3122 H 291.012 0.198718 -4.91799 0
M  V30 3123 N 292.664 1.56529 -0.183458 0
M  V30 3124 C 293.894 2.01331 0.463612 0
M  V30 3125 C 294.302 1.06278 1.5653 0
M  V30 3126 O 293.645 0.0577976 1.83609 0
M  V30 3127 C 293.707 3.42547 1.09096 0
M  V30 3128 C 293.371 4.56817 0.129442 0
M  V30 3129 C 294.368 5.15734 -0.656807 0
M  V30 3130 C 292.053 5.02295 0.02174 0
M  V30 3131 C 294.047 6.1857 -1.53784 0
M  V30 3132 C 291.734 6.04978 -0.862864 0
M  V30 3133 C 292.732 6.62988 -1.64123 0
M  V30 3134 O 292.42 7.63677 -2.51103 0
M  V30 3135 H 292.152 0.664917 0.121907 0
M  V30 3136 H 294.706 2.034 -0.285954 0
M  V30 3137 H 292.936 3.37428 1.88889 0
M  V30 3138 H 294.625 3.71228 1.64148 0
M  V30 3139 H 295.391 4.81473 -0.583839 0
M  V30 3140 H 291.27 4.56847 0.617392 0
M  V30 3141 H 294.814 6.63777 -2.14583 0
M  V30 3142 H 290.711 6.38663 -0.93699 0
M  V30 3143 H 291.479 7.81049 -2.44753 0
M  V30 3144 N 294.142 -0.090211 1.57342 0
M  V30 3145 C 295.075 -1.14035 1.97664 0
M  V30 3146 C 296.053 -1.38576 0.850616 0
M  V30 3147 O 297.237 -1.52255 1.11134 0
M  V30 3148 C 294.364 -2.48854 2.2976 0
M  V30 3149 C 293.41 -2.40564 3.52181 0
M  V30 3150 S 294.243 -1.81745 5.03715 0
M  V30 3151 C 295.399 -3.18178 5.38993 0
M  V30 3152 H 295.632 -0.796636 2.86428 0
M  V30 3153 H 293.165 -0.298072 1.51496 0
M  V30 3154 H 295.123 -3.26413 2.48927 0
M  V30 3155 H 293.784 -2.80393 1.41558 0
M  V30 3156 H 292.977 -3.39942 3.72096 0
M  V30 3157 H 292.579 -1.71135 3.32549 0
M  V30 3158 H 294.871 -4.14461 5.35937 0
M  V30 3159 H 295.814 -3.03062 6.39968 0
M  V30 3160 H 296.222 -3.17935 4.66452 0
M  V30 3161 N 295.62 -1.53406 -0.361157 0
M  V30 3162 C 296.845 -1.74024 -1.12829 0
M  V30 3163 C 297.27 -0.470069 -1.82132 0
M  V30 3164 O 296.628 0.57619 -1.719 0
M  V30 3165 C 296.676 -2.90903 -2.13091 0
M  V30 3166 O 295.78 -2.59821 -3.20261 0
M  V30 3167 H 295.121 -0.577804 -0.327168 0
M  V30 3168 H 297.651 -2.00307 -0.41693 0
M  V30 3169 H 297.661 -3.17194 -2.56616 0
M  V30 3170 H 296.336 -3.83034 -1.62042 0
M  V30 3171 H 294.913 -2.44362 -2.81677 0
M  V30 3172 N 297.098 0.621204 -1.44841 0
M  V30 3173 C 298.509 1.20298 -1.42777 0
M  V30 3174 C 298.86 1.95639 -0.148259 0
M  V30 3175 O 297.985 2.02955 0.750892 0
M  V30 3176 C 298.58 2.1882 -2.58657 0
M  V30 3177 C 297.139 2.72403 -2.59756 0
M  V30 3178 C 296.286 1.4757 -2.34773 0
M  V30 3179 H 299.237 0.411297 -1.53278 0
M  V30 3180 H 299.258 3.01607 -2.31977 0
M  V30 3181 H 298.77 1.63957 -3.51766 0
M  V30 3182 H 296.871 3.31242 -1.70615 0
M  V30 3183 H 296.984 3.17765 -3.58556 0
M  V30 3184 H 295.348 1.76051 -1.8406 0
M  V30 3185 H 296.131 0.945954 -3.3001 0
M  V30 3186 N 298.576 1.31904 0.862503 0
M  V30 3187 C 299.486 1.22161 2.00285 0
M  V30 3188 C 300.502 0.136785 1.73462 0
M  V30 3189 O 301.678 0.355994 1.98229 0
M  V30 3190 C 298.743 0.937093 3.33796 0
M  V30 3191 C 297.804 2.10957 3.73893 0
M  V30 3192 C 297.037 1.83853 5.01033 0
M  V30 3193 O 297.26 0.777274 5.65079 0
M  V30 3194 O 296.194 2.69741 5.38074 0
M  V30 3195 H 300.02 2.18008 2.11439 0
M  V30 3196 H 297.605 1.11716 0.991957 0
M  V30 3197 H 299.487 0.794583 4.13841 0
M  V30 3198 H 298.162 0.00871894 3.23699 0
M  V30 3199 H 297.069 2.30752 2.94456 0
M  V30 3200 H 298.402 3.02046 3.88625 0
M  V30 3201 N 300.054 -1.07777 1.14986 0
M  V30 3202 C 300.984 -2.16865 0.865557 0
M  V30 3203 C 301.965 -1.69123 -0.182083 0
M  V30 3204 O 303.15 -1.94164 -0.0373815 0
M  V30 3205 C 300.28 -3.45539 0.349313 0
M  V30 3206 C 299.234 -4.06708 1.33313 0
M  V30 3207 C 298.56 -5.30411 0.675918 0
M  V30 3208 C 299.86 -4.47241 2.69764 0
M  V30 3209 H 301.554 -2.40905 1.77778 0
M  V30 3210 H 299.1 -1.15781 0.856203 0
M  V30 3211 H 301.053 -4.21174 0.137983 0
M  V30 3212 H 299.777 -3.21072 -0.598362 0
M  V30 3213 H 298.436 -3.33112 1.53075 0
M  V30 3214 H 298.084 -5.02232 -0.277767 0
M  V30 3215 H 297.784 -5.72293 1.33244 0
M  V30 3216 H 299.308 -6.08755 0.474262 0
M  V30 3217 H 300.722 -5.14025 2.53873 0
M  V30 3218 H 299.119 -5.00062 3.3175 0
M  V30 3219 H 300.189 -3.58818 3.26156 0
M  V30 3220 N 301.532 -0.945985 -1.26051 0
M  V30 3221 C 302.482 -0.430164 -2.23905 0
M  V30 3222 C 303.466 0.47579 -1.53704 0
M  V30 3223 O 304.658 0.310252 -1.7426 0
M  V30 3224 C 301.787 0.298957 -3.41996 0
M  V30 3225 C 300.873 -0.624566 -4.19476 0
M  V30 3226 N 301.264 -1.75245 -4.74471 0
M  V30 3227 C 299.562 -0.431082 -4.43912 0
M  V30 3228 C 300.263 -2.32834 -5.3307 0
M  V30 3229 N 299.239 -1.61583 -5.1903 0
M  V30 3230 H 303.041 -1.29107 -2.64024 0
M  V30 3231 H 300.555 -0.802428 -1.41191 0
M  V30 3232 H 302.552 0.685565 -4.11225 0
M  V30 3233 H 301.212 1.15657 -3.03403 0
M  V30 3234 H 302.223 -2.13449 -4.71868 0
M  V30 3235 H 298.9 0.384364 -4.15727 0
M  V30 3236 H 300.29 -3.27893 -5.86461 0
M  V30 3237 N 303.011 1.40521 -0.713556 0
M  V30 3238 C 304.288 1.94775 -0.17943 0
M  V30 3239 C 304.668 1.65184 1.31444 0
M  V30 3240 O 304.016 0.968429 2.06963 0
M  V30 3241 C 304.226 3.45543 -0.489986 0
M  V30 3242 C 305.574 4.22442 -0.427536 0
M  V30 3243 O 306.598 3.53644 -0.425929 0
M  V30 3244 O 305.457 5.4501 -0.403292 0
M  V30 3245 H 302.551 0.826606 -0.0255192 0
M  V30 3246 H 305.097 1.5014 -0.790949 0
M  V30 3247 H 303.869 3.60432 -1.5233 0
M  V30 3248 H 303.492 3.97311 0.151598 0
M  V30 3249 N 304.489 0.459591 1.5075 0
M  V30 3250 C 305.719 -0.0972338 2.06371 0
M  V30 3251 C 306.127 -1.35074 1.32483 0
M  V30 3252 O 305.47 -1.79637 0.384226 0
M  V30 3253 C 305.532 -0.462759 3.56509 0
M  V30 3254 C 305.196 0.687084 4.51805 0
M  V30 3255 C 306.193 1.56578 4.95761 0
M  V30 3256 C 303.878 0.874144 4.94635 0
M  V30 3257 C 305.872 2.61604 5.81242 0
M  V30 3258 C 303.559 1.92765 5.79901 0
M  V30 3259 C 304.557 2.79697 6.23104 0
M  V30 3260 O 304.245 3.83235 7.06673 0
M  V30 3261 H 303.977 -0.00140687 0.675999 0
M  V30 3262 H 306.531 0.644011 1.95043 0
M  V30 3263 H 304.761 -1.25703 3.65699 0
M  V30 3264 H 306.45 -0.953323 3.94546 0
M  V30 3265 H 307.216 1.4329 4.6335 0
M  V30 3266 H 303.095 0.207006 4.60535 0
M  V30 3267 H 306.639 3.29489 6.14884 0
M  V30 3268 H 302.536 2.06064 6.11725 0
M  V30 3269 H 303.304 3.80084 7.24899 0
M  V30 3270 N 305.967 -1.56429 0.191757 0
M  V30 3271 C 307.213 -1.97777 -0.448554 0
M  V30 3272 C 307.546 -1.07847 -1.61501 0
M  V30 3273 O 306.821 -0.129774 -1.94067 0
M  V30 3274 C 307.104 -3.48362 -0.911906 0
M  V30 3275 C 306.957 -4.4907 0.256136 0
M  V30 3276 C 308.276 -4.02561 -1.77857 0
M  V30 3277 H 305.395 -0.719071 -0.161572 0
M  V30 3278 H 308.037 -1.87896 0.282007 0
M  V30 3279 H 306.187 -3.56914 -1.53442 0
M  V30 3280 H 307.859 -4.5256 0.893733 0
M  V30 3281 H 306.102 -4.24181 0.908436 0
M  V30 3282 H 306.773 -5.51889 -0.11053 0
M  V30 3283 H 309.249 -3.96767 -1.25359 0
M  V30 3284 H 308.125 -5.08301 -2.07174 0
M  V30 3285 H 308.386 -3.47616 -2.73158 0
M  V30 3286 N 307.445 0.0818655 -1.57387 0
M  V30 3287 C 308.692 0.782914 -1.86753 0
M  V30 3288 C 309.02 1.78082 -0.782118 0
M  V30 3289 O 308.275 1.94426 0.22295 0
M  V30 3290 C 308.574 1.53513 -3.22752 0
M  V30 3291 C 308.24 0.678134 -4.45771 0
M  V30 3292 C 306.902 0.441929 -4.79166 0
M  V30 3293 C 309.254 0.0832243 -5.21134 0
M  V30 3294 C 306.582 -0.398833 -5.85343 0
M  V30 3295 C 308.934 -0.744935 -6.28199 0
M  V30 3296 C 307.598 -0.991107 -6.60101 0
M  V30 3297 H 306.868 0.286489 -0.683378 0
M  V30 3298 H 309.515 0.0439808 -1.91449 0
M  V30 3299 H 307.82 2.34599 -3.138 0
M  V30 3300 H 309.517 2.08218 -3.42705 0
M  V30 3301 H 306.107 0.872357 -4.19628 0
M  V30 3302 H 310.291 0.252847 -4.95655 0
M  V30 3303 H 305.547 -0.598405 -6.08465 0
M  V30 3304 H 309.721 -1.21271 -6.8576 0
M  V30 3305 H 307.348 -1.64437 -7.42202 0
M  V30 3306 N 308.923 1.53595 0.353017 0
M  V30 3307 C 310.171 1.70049 1.09215 0
M  V30 3308 C 310.492 0.461406 1.89463 0
M  V30 3309 O 309.762 -0.524633 1.88744 0
M  V30 3310 H 308.342 0.626912 0.40619 0
M  V30 3311 H 311.004 1.90822 0.396585 0
M  V30 3312 H 310.1 2.56718 1.77488 0
M  V30 3313 N 310.401 -0.613514 1.45168 0
M  V30 3314 C 311.647 -1.37471 1.49096 0
M  V30 3315 C 311.98 -1.93765 0.129901 0
M  V30 3316 O 311.255 -1.74707 -0.854858 0
M  V30 3317 C 311.538 -2.52701 2.56542 0
M  V30 3318 C 311.391 -2.01643 4.0207 0
M  V30 3319 C 312.71 -3.54849 2.60327 0
M  V30 3320 H 309.829 -0.498502 0.54283 0
M  V30 3321 H 312.471 -0.692125 1.76945 0
M  V30 3322 H 310.621 -3.10931 2.32926 0
M  V30 3323 H 312.293 -1.48108 4.36877 0
M  V30 3324 H 310.536 -1.32688 4.13009 0
M  V30 3325 H 311.207 -2.84681 4.72928 0
M  V30 3326 H 313.683 -3.0645 2.81474 0
M  V30 3327 H 312.559 -4.32973 3.37381 0
M  V30 3328 H 312.82 -4.10079 1.6519 0
M  V30 3329 N 311.879 -1.3236 -0.855495 0
M  V30 3330 C 313.125 -1.23054 -1.612 0
M  V30 3331 C 313.458 0.207404 -1.93089 0
M  V30 3332 O 312.733 1.14432 -1.57275 0
M  V30 3333 C 313.016 -2.08937 -2.93287 0
M  V30 3334 C 312.869 -3.61105 -2.68185 0
M  V30 3335 C 314.188 -1.94986 -3.94549 0
M  V30 3336 H 311.307 -0.448364 -0.584926 0
M  V30 3337 H 313.949 -1.62297 -0.987917 0
M  V30 3338 H 312.099 -1.75599 -3.46551 0
M  V30 3339 H 313.771 -4.04652 -2.21483 0
M  V30 3340 H 312.014 -3.83813 -2.02164 0
M  V30 3341 H 312.685 -4.16522 -3.62234 0
M  V30 3342 H 315.161 -2.24189 -3.5054 0
M  V30 3343 H 314.037 -2.57356 -4.84829 0
M  V30 3344 H 314.298 -0.917263 -4.3248 0
M  V30 3345 N 313.357 1.07166 -1.15556 0
M  V30 3346 C 314.582 1.84053 -0.955988 0
M  V30 3347 C 315.007 1.81586 0.490739 0
M  V30 3348 O 314.365 1.21018 1.34997 0
M  V30 3349 C 314.413 3.28957 -1.47714 0
M  V30 3350 O 313.517 4.06795 -0.677593 0
M  V30 3351 H 312.858 0.569842 -0.340847 0
M  V30 3352 H 315.388 1.35178 -1.53584 0
M  V30 3353 H 315.398 3.79788 -1.4908 0
M  V30 3354 H 314.073 3.30068 -2.53037 0
M  V30 3355 H 312.65 3.6561 -0.733721 0
M  V30 3356 N 314.835 0.952656 1.25548 0
M  V30 3357 C 315.785 0.442033 2.23674 0
M  V30 3358 C 316.769 -0.467632 1.53955 0
M  V30 3359 O 317.961 -0.301006 1.74422 0
M  V30 3360 C 315.09 -0.280816 3.4215 0
M  V30 3361 C 314.176 0.646803 4.19139 0
M  V30 3362 N 314.567 1.77759 4.73535 0
M  V30 3363 C 312.865 0.454617 4.43677 0
M  V30 3364 C 313.566 2.35658 5.31827 0
M  V30 3365 N 312.542 1.64333 5.18166 0
M  V30 3366 H 316.344 1.30505 2.63336 0
M  V30 3367 H 313.858 0.809904 1.40763 0
M  V30 3368 H 315.855 -0.663747 4.11582 0
M  V30 3369 H 314.515 -1.14046 3.04012 0
M  V30 3370 H 315.526 2.15949 4.7073 0
M  V30 3371 H 312.203 -0.362312 4.15925 0
M  V30 3372 H 313.593 3.30998 5.84713 0
M  V30 3373 N 316.313 -1.40141 0.720998 0
M  V30 3374 C 317.243 -2.33339 0.0867621 0
M  V30 3375 C 318.224 -1.53178 -0.739622 0
M  V30 3376 O 319.409 -1.81625 -0.687449 0
M  V30 3377 C 316.539 -3.37194 -0.831728 0
M  V30 3378 C 315.493 -4.27857 -0.110558 0
M  V30 3379 C 314.819 -5.22294 -1.14513 0
M  V30 3380 C 316.119 -5.11872 1.0385 0
M  V30 3381 H 317.813 -2.86626 0.865219 0
M  V30 3382 H 315.359 -1.37814 0.417516 0
M  V30 3383 H 317.312 -4.01335 -1.28485 0
M  V30 3384 H 316.036 -2.82314 -1.64214 0
M  V30 3385 H 314.695 -3.65176 0.322797 0
M  V30 3386 H 314.343 -4.63717 -1.94874 0
M  V30 3387 H 314.043 -5.83797 -0.667446 0
M  V30 3388 H 315.567 -5.89312 -1.59824 0
M  V30 3389 H 316.981 -5.69436 0.664482 0
M  V30 3390 H 315.378 -5.82445 1.4449 0
M  V30 3391 H 316.448 -4.4753 1.86668 0
M  V30 3392 N 317.792 -0.46758 -1.50504 0
M  V30 3393 C 319.203 -0.0116166 -1.86696 0
M  V30 3394 C 319.554 1.39202 -1.38265 0
M  V30 3395 O 318.679 2.0313 -0.746132 0
M  V30 3396 C 319.274 -0.0143044 -3.38797 0
M  V30 3397 C 317.833 0.386175 -3.74414 0
M  V30 3398 C 316.98 -0.401287 -2.74381 0
M  V30 3399 H 319.931 -0.682022 -1.43297 0
M  V30 3400 H 319.952 0.788641 -3.72237 0
M  V30 3401 H 319.464 -1.03602 -3.74016 0
M  V30 3402 H 317.565 1.41237 -3.44794 0
M  V30 3403 H 317.678 0.0899596 -4.79016 0
M  V30 3404 H 316.042 0.144536 -2.5429 0
M  V30 3405 H 316.825 -1.42244 -3.12444 0
M  V30 3406 N 319.27 1.56325 -0.20005 0
M  V30 3407 C 320.22 2.15939 0.731743 0
M  V30 3408 C 321.204 1.10154 1.17281 0
M  V30 3409 O 322.396 1.36203 1.13038 0
M  V30 3410 C 319.525 2.82614 1.94895 0
M  V30 3411 C 318.611 3.95596 1.52855 0
M  V30 3412 N 319.002 4.99118 0.819418 0
M  V30 3413 C 317.3 4.07288 1.81748 0
M  V30 3414 C 318.001 5.78513 0.608053 0
M  V30 3415 N 316.977 5.31117 1.15828 0
M  V30 3416 H 320.779 2.9334 0.181285 0
M  V30 3417 H 318.293 1.624 -0.000452172 0
M  V30 3418 H 320.29 3.23718 2.62702 0
M  V30 3419 H 318.95 2.06702 2.50408 0
M  V30 3420 H 319.961 5.15723 0.47436 0
M  V30 3421 H 316.638 3.42509 2.38734 0
M  V30 3422 H 318.028 6.71885 0.0451619 0
M  V30 3423 N 320.748 -0.0735177 1.57428 0
M  V30 3424 C 321.711 -1.07192 2.02589 0
M  V30 3425 C 322.711 -1.31695 0.922661 0
M  V30 3426 O 323.901 -1.27445 1.18758 0
M  V30 3427 C 321.033 -2.41599 2.40506 0
M  V30 3428 H 322.226 -0.682727 2.92025 0
M  V30 3429 H 319.779 -0.319193 1.53006 0
M  V30 3430 H 320.514 -2.85354 1.5409 0
M  V30 3431 H 320.299 -2.25156 3.21009 0
M  V30 3432 H 321.789 -3.13367 2.76027 0
M  V30 3433 N 322.226 -1.5378 -0.344866 0
M  V30 3434 C 323.472 -1.71216 -1.08687 0
M  V30 3435 C 323.805 -0.473281 -1.88345 0
M  V30 3436 O 323.08 0.52968 -1.87149 0
M  V30 3437 C 323.363 -2.97486 -2.02914 0
M  V30 3438 C 323.216 -4.31579 -1.26727 0
M  V30 3439 C 324.535 -3.19422 -3.0275 0
M  V30 3440 H 321.654 -0.62301 -0.393735 0
M  V30 3441 H 324.296 -1.8645 -0.365563 0
M  V30 3442 H 322.446 -2.84629 -2.64421 0
M  V30 3443 H 324.118 -4.56284 -0.67845 0
M  V30 3444 H 322.361 -4.30049 -0.569273 0
M  V30 3445 H 323.032 -5.16106 -1.95803 0
M  V30 3446 H 325.508 -3.316 -2.51357 0
M  V30 3447 H 324.384 -4.09169 -3.65885 0
M  V30 3448 H 324.645 -2.35656 -3.74057 0
M  V30 3449 N 323.704 0.605807 -1.45491 0
M  V30 3450 C 324.667 1.69836 -1.5391 0
M  V30 3451 C 325.667 1.55261 -0.418424 0
M  V30 3452 O 326.857 1.60296 -0.681965 0
M  V30 3453 C 323.989 3.09117 -1.43734 0
M  V30 3454 H 325.182 1.63738 -2.51257 0
M  V30 3455 H 322.735 0.821689 -1.32959 0
M  V30 3456 H 323.47 3.20791 -0.475788 0
M  V30 3457 H 323.255 3.21104 -2.25021 0
M  V30 3458 H 324.745 3.88696 -1.52661 0
M  V30 3459 N 325.182 1.32811 0.848464 0
M  V30 3460 C 326.429 1.23724 1.60308 0
M  V30 3461 C 326.757 -0.1994 1.93475 0
M  V30 3462 O 326.012 -1.15406 1.5805 0
M  V30 3463 C 326.311 2.04831 2.92881 0
M  V30 3464 C 325.977 3.54125 2.79117 0
M  V30 3465 C 324.639 3.94829 2.7507 0
M  V30 3466 C 326.991 4.49036 2.64606 0
M  V30 3467 C 324.319 5.28675 2.544 0
M  V30 3468 C 326.671 5.83033 2.4547 0
M  V30 3469 C 325.335 6.22931 2.39819 0
M  V30 3470 H 324.605 0.452737 0.586609 0
M  V30 3471 H 327.252 1.64301 0.983743 0
M  V30 3472 H 325.557 1.57001 3.58968 0
M  V30 3473 H 327.254 1.95164 3.50303 0
M  V30 3474 H 323.844 3.21801 2.83094 0
M  V30 3475 H 328.028 4.18505 2.66772 0
M  V30 3476 H 323.284 5.58637 2.48465 0
M  V30 3477 H 327.458 6.56186 2.33222 0
M  V30 3478 H 325.085 7.26584 2.23562 0
M  V30 3479 N 326.66 -1.06551 1.16123 0
M  V30 3480 C 327.623 -2.12132 0.867906 0
M  V30 3481 C 328.623 -1.60224 -0.135944 0
M  V30 3482 O 329.813 -1.73943 0.0946422 0
M  V30 3483 C 326.945 -3.396 0.297419 0
M  V30 3484 H 328.138 -2.39586 1.80385 0
M  V30 3485 H 325.691 -1.22574 0.969812 0
M  V30 3486 H 326.426 -3.17794 -0.64633 0
M  V30 3487 H 326.211 -3.78581 1.02073 0
M  V30 3488 H 327.701 -4.17455 0.110052 0
M  V30 3489 N 328.138 -0.959301 -1.25041 0
M  V30 3490 C 329.068 -0.501388 -2.28053 0
M  V30 3491 C 330.049 0.454673 -1.63911 0
M  V30 3492 O 331.234 0.352618 -1.90972 0
M  V30 3493 C 328.364 0.217224 -3.4662 0
M  V30 3494 C 327.318 -0.654034 -4.22973 0
M  V30 3495 C 326.644 0.195589 -5.34342 0
M  V30 3496 C 327.944 -1.93447 -4.85155 0
M  V30 3497 H 329.638 -1.36238 -2.66608 0
M  V30 3498 H 327.184 -0.656534 -1.28163 0
M  V30 3499 H 329.137 0.548732 -4.17812 0
M  V30 3500 H 327.861 1.1125 -3.07068 0
M  V30 3501 H 326.52 -0.968693 -3.5357 0
M  V30 3502 H 326.168 1.09076 -4.91031 0
M  V30 3503 H 325.868 -0.384091 -5.86343 0
M  V30 3504 H 327.392 0.521958 -6.08365 0
M  V30 3505 H 328.806 -1.66908 -5.48466 0
M  V30 3506 H 327.203 -2.46018 -5.47353 0
M  V30 3507 H 328.273 -2.63466 -4.07079 0
M  V30 3508 N 329.616 1.39756 -0.72842 0
M  V30 3509 C 330.862 2.00942 -0.273892 0
M  V30 3510 C 331.195 1.57656 1.13394 0
M  V30 3511 O 330.47 0.802434 1.77176 0
M  V30 3512 C 330.753 3.58211 -0.368346 0
M  V30 3513 C 330.606 4.11534 -1.81548 0
M  V30 3514 C 331.925 4.39372 0.253054 0
M  V30 3515 H 329.044 0.730047 -0.100996 0
M  V30 3516 H 331.686 1.66056 -0.923337 0
M  V30 3517 H 329.836 3.88061 0.184588 0
M  V30 3518 H 331.508 3.92431 -2.42478 0
M  V30 3519 H 329.751 3.65341 -2.33898 0
M  V30 3520 H 330.422 5.20682 -1.83288 0
M  V30 3521 H 332.898 4.15527 -0.218224 0
M  V30 3522 H 331.774 5.48677 0.156585 0
M  V30 3523 H 332.035 4.21358 1.33826 0
M  V30 3524 N 331.094 0.475555 1.50254 0
M  V30 3525 C 332.371 -0.139685 1.95101 0
M  V30 3526 C 332.751 -1.56555 1.41611 0
M  V30 3527 O 332.099 -2.19956 0.618993 0
M  V30 3528 C 332.309 -0.0784298 3.48912 0
M  V30 3529 C 333.657 -0.265095 4.23772 0
M  V30 3530 O 334.681 -0.154808 3.55863 0
M  V30 3531 O 333.54 -0.488327 5.44314 0
M  V30 3532 H 330.634 -0.109236 0.819754 0
M  V30 3533 H 333.18 0.536276 1.61004 0
M  V30 3534 H 331.952 0.916918 3.80405 0
M  V30 3535 H 331.575 -0.795655 3.89558 0
M  V30 3536 N 332.573 -1.56217 0.208337 0
M  V30 3537 C 333.801 -2.02337 -0.43215 0
M  V30 3538 C 334.216 -1.08834 -1.54275 0
M  V30 3539 O 333.573 -0.0955462 -1.8225 0
M  V30 3540 C 333.624 -3.48072 -0.976138 0
M  V30 3541 O 333.345 -4.38007 0.0901621 0
M  V30 3542 C 334.846 -4.09773 -1.69119 0
M  V30 3543 H 332.066 -0.662385 -0.10718 0
M  V30 3544 H 334.61 -2.01966 0.320923 0
M  V30 3545 H 332.765 -3.49099 -1.67954 0
M  V30 3546 H 333.179 -5.23543 -0.316701 0
M  V30 3547 H 334.653 -5.13556 -2.02397 0
M  V30 3548 H 335.13 -3.53999 -2.59964 0
M  V30 3549 H 335.736 -4.12556 -1.03332 0
M  V30 3550 N 334.051 0.0651679 -1.57465 0
M  V30 3551 C 334.981 1.07693 -2.07182 0
M  V30 3552 C 335.962 1.39962 -0.966673 0
M  V30 3553 O 337.147 1.49475 -1.2398 0
M  V30 3554 C 334.277 2.3885 -2.52127 0
M  V30 3555 C 333.231 2.20917 -3.66579 0
M  V30 3556 C 332.557 3.57515 -3.97601 0
M  V30 3557 C 333.857 1.62493 -4.9638 0
M  V30 3558 H 335.551 0.663199 -2.91962 0
M  V30 3559 H 333.097 0.317569 -1.40455 0
M  V30 3560 H 335.05 3.09928 -2.85522 0
M  V30 3561 H 333.774 2.82215 -1.64384 0
M  V30 3562 H 332.433 1.52279 -3.33477 0
M  V30 3563 H 332.081 3.98463 -3.06979 0
M  V30 3564 H 331.781 3.46353 -4.74672 0
M  V30 3565 H 333.305 4.30013 -4.33499 0
M  V30 3566 H 334.719 2.23445 -5.27963 0
M  V30 3567 H 333.116 1.62009 -5.77818 0
M  V30 3568 H 334.186 0.587041 -4.81333 0
M  V30 3569 N 335.529 1.53961 0.336706 0
M  V30 3570 C 336.778 1.70751 1.07363 0
M  V30 3571 C 337.091 0.481061 1.89592 0
M  V30 3572 O 338.297 0.530046 2.66276 0
M  V30 3573 C 336.753 3.01965 1.95818 0
M  V30 3574 C 336.361 4.31971 1.18764 0
M  V30 3575 C 338.105 3.28121 2.69327 0
M  V30 3576 C 336.012 5.54255 2.06289 0
M  V30 3577 H 334.942 0.636292 0.404535 0
M  V30 3578 H 337.593 1.80459 0.332681 0
M  V30 3579 H 335.975 2.86132 2.7376 0
M  V30 3580 H 337.149 4.5853 0.456849 0
M  V30 3581 H 335.464 4.12481 0.569946 0
M  V30 3582 H 338.061 4.16673 3.35094 0
M  V30 3583 H 338.404 2.45426 3.36261 0
M  V30 3584 H 338.937 3.44762 1.98454 0
M  V30 3585 H 335.676 6.39513 1.43885 0
M  V30 3586 H 335.196 5.31935 2.77138 0
M  V30 3587 H 336.875 5.90159 2.65182 0
M  V30 3588 N 337.007 -0.598083 1.45811 0
M  V30 3589 C 337.957 -1.70272 1.51629 0
M  V30 3590 C 338.941 -1.56382 0.378629 0
M  V30 3591 O 340.133 -1.65557 0.626087 0
M  V30 3592 C 337.262 -3.09042 1.49493 0
M  V30 3593 C 336.348 -3.28284 2.68496 0
M  V30 3594 N 336.739 -3.17748 3.93535 0
M  V30 3595 C 335.037 -3.59182 2.64394 0
M  V30 3596 C 335.738 -3.38579 4.7301 0
M  V30 3597 N 334.714 -3.63016 4.04624 0
M  V30 3598 H 338.516 -1.60634 2.46118 0
M  V30 3599 H 336.03 -0.801642 1.41235 0
M  V30 3600 H 338.027 -3.88302 1.51747 0
M  V30 3601 H 336.687 -3.19823 0.560683 0
M  V30 3602 H 337.698 -2.95944 4.25014 0
M  V30 3603 H 334.375 -3.76742 1.79922 0
M  V30 3604 H 335.765 -3.35747 5.82 0
M  V30 3605 N 338.485 -1.33259 -0.841409 0
M  V30 3606 C 339.418 -1.1764 -1.95541 0
M  V30 3607 C 340.396 -0.072501 -1.62438 0
M  V30 3608 O 341.58 -0.23427 -1.87039 0
M  V30 3609 C 338.707 -0.803794 -3.29024 0
M  V30 3610 C 337.753 -1.91482 -3.81099 0
M  V30 3611 S 338.586 -3.52538 -4.03085 0
M  V30 3612 C 339.742 -3.17279 -5.39523 0
M  V30 3613 H 339.975 -2.11941 -2.08491 0
M  V30 3614 H 337.508 -1.18072 -0.9949 0
M  V30 3615 H 339.466 -0.595592 -4.06156 0
M  V30 3616 H 338.127 0.120574 -3.13868 0
M  V30 3617 H 337.32 -1.60742 -4.7768 0
M  V30 3618 H 336.922 -2.07956 -3.10854 0
M  V30 3619 H 339.214 -2.67946 -6.22263 0
M  V30 3620 H 340.157 -4.1293 -5.75234 0
M  V30 3621 H 340.565 -2.53943 -5.04156 0
M  V30 3622 N 339.963 1.05934 -1.16686 0
M  V30 3623 C 341.188 1.83029 -0.975455 0
M  V30 3624 C 341.613 1.82096 0.471452 0
M  V30 3625 O 340.971 1.22443 1.33706 0
M  V30 3626 C 341.019 3.27372 -1.51195 0
M  V30 3627 O 340.123 4.06054 -0.720701 0
M  V30 3628 H 339.464 0.566194 -0.346872 0
M  V30 3629 H 341.994 1.33541 -1.55009 0
M  V30 3630 H 342.004 3.78186 -1.53099 0
M  V30 3631 H 340.679 3.27366 -2.56523 0
M  V30 3632 H 339.256 3.64812 -0.772458 0
M  V30 3633 N 341.441 0.965919 1.2453 0
M  V30 3634 C 342.669 0.644385 1.96609 0
M  V30 3635 C 343.084 -0.785823 1.71669 0
M  V30 3636 O 342.441 -1.52703 0.999399 0
M  V30 3637 C 342.492 0.907375 3.49927 0
M  V30 3638 O 342.213 2.28136 3.74013 0
M  V30 3639 C 343.714 0.599784 4.39224 0
M  V30 3640 H 340.934 0.240588 0.626385 0
M  V30 3641 H 343.478 1.29337 1.58405 0
M  V30 3642 H 341.633 0.304631 3.862 0
M  V30 3643 H 342.047 2.36002 4.68405 0
M  V30 3644 H 343.521 0.834263 5.45659 0
M  V30 3645 H 343.998 -0.465921 4.36722 0
M  V30 3646 H 344.604 1.18235 4.08535 0
M  V30 3647 N 342.919 -1.39368 0.735821 0
M  V30 3648 C 344.33 -1.83313 0.354015 0
M  V30 3649 C 344.681 -1.61461 -1.11466 0
M  V30 3650 O 343.806 -1.10621 -1.85989 0
M  V30 3651 C 344.401 -3.32781 0.635769 0
M  V30 3652 C 342.96 -3.75142 0.307448 0
M  V30 3653 C 342.107 -2.62358 0.897974 0
M  V30 3654 H 345.058 -1.28349 0.933398 0
M  V30 3655 H 345.079 -3.80388 -0.0921773 0
M  V30 3656 H 344.591 -3.48654 1.70476 0
M  V30 3657 H 342.692 -3.64857 -0.755674 0
M  V30 3658 H 342.805 -4.72532 0.790583 0
M  V30 3659 H 341.169 -2.52624 0.324551 0
M  V30 3660 H 341.952 -2.81036 1.97164 0
M  V30 3661 N 344.397 -0.483516 -1.5 0
M  V30 3662 C 345.307 0.309172 -2.32554 0
M  V30 3663 C 346.323 0.984159 -1.43493 0
M  V30 3664 O 347.499 0.969399 -1.76535 0
M  V30 3665 C 344.564 1.36979 -3.18493 0
M  V30 3666 C 343.625 0.710095 -4.23387 0
M  V30 3667 C 342.858 1.72018 -5.05218 0
M  V30 3668 O 343.081 2.94813 -4.88305 0
M  V30 3669 O 342.015 1.28515 -5.8802 0
M  V30 3670 H 345.841 -0.366064 -3.01486 0
M  V30 3671 H 343.426 -0.24514 -1.47375 0
M  V30 3672 H 345.308 1.98385 -3.71781 0
M  V30 3673 H 343.983 2.02828 -2.52275 0
M  V30 3674 H 342.89 0.0567539 -3.74057 0
M  V30 3675 H 344.223 0.0943557 -4.9211 0
M  V30 3676 N 345.875 1.56104 -0.216619 0
M  V30 3677 C 347.121 1.98466 0.417033 0
M  V30 3678 C 347.454 1.10403 1.59765 0
M  V30 3679 O 346.729 0.160632 1.93836 0
M  V30 3680 C 347.012 3.49769 0.85637 0
M  V30 3681 C 346.865 4.48606 -0.327546 0
M  V30 3682 C 348.184 4.05339 1.7143 0
M  V30 3683 H 345.303 0.721551 0.150112 0
M  V30 3684 H 347.945 1.87423 -0.311864 0
M  V30 3685 H 346.095 3.5931 1.47745 0
M  V30 3686 H 347.767 4.5108 -0.965618 0
M  V30 3687 H 346.01 4.22682 -0.975805 0
M  V30 3688 H 346.681 5.51995 0.0227149 0
M  V30 3689 H 349.157 3.98712 1.19031 0
M  V30 3690 H 348.033 5.11533 1.99061 0
M  V30 3691 H 348.294 3.51918 2.67593 0
M  V30 3692 N 347.353 -0.0568162 1.57498 0
M  V30 3693 C 348.63 -0.786954 1.79071 0
M  V30 3694 C 349.01 -1.95028 0.80792 0
M  V30 3695 O 348.358 -2.27968 -0.155858 0
M  V30 3696 C 348.568 -1.24594 3.26002 0
M  V30 3697 C 349.916 -1.67323 3.90241 0
M  V30 3698 O 350.94 -1.34124 3.29984 0
M  V30 3699 O 349.799 -2.28842 4.9628 0
M  V30 3700 H 346.893 -0.378262 0.735423 0
M  V30 3701 H 349.439 -0.035734 1.69662 0
M  V30 3702 H 348.211 -0.41423 3.89101 0
M  V30 3703 H 347.834 -2.05803 3.40192 0
M  V30 3704 N 348.832 -1.54138 -0.328536 0
M  V30 3705 C 349.762 -1.86167 -1.40939 0
M  V30 3706 C 350.743 -0.718044 -1.54202 0
M  V30 3707 O 351.928 -0.971328 -1.68163 0
M  V30 3708 C 349.058 -2.08461 -2.77779 0
M  V30 3709 C 348.012 -3.24299 -2.7931 0
M  V30 3710 C 347.338 -3.31955 -4.19178 0
M  V30 3711 C 348.638 -4.62065 -2.43502 0
M  V30 3712 H 350.332 -2.76689 -1.14383 0
M  V30 3713 H 347.878 -1.33132 -0.548806 0
M  V30 3714 H 349.831 -2.29453 -3.53454 0
M  V30 3715 H 348.555 -1.14684 -3.05802 0
M  V30 3716 H 347.214 -3.03187 -2.0609 0
M  V30 3717 H 346.862 -2.35745 -4.44335 0
M  V30 3718 H 346.562 -4.09805 -4.2111 0
M  V30 3719 H 348.086 -3.55175 -4.96672 0
M  V30 3720 H 349.5 -4.8297 -3.08889 0
M  V30 3721 H 347.897 -5.42429 -2.56693 0
M  V30 3722 H 348.967 -4.64652 -1.38659 0
M  V30 3723 N 350.31 0.590341 -1.46126 0
M  V30 3724 C 351.557 1.34882 -1.5104 0
M  V30 3725 C 351.885 1.93849 -0.159021 0
M  V30 3726 O 351.14 1.76544 0.844436 0
M  V30 3727 C 351.439 2.5032 -2.55097 0
M  V30 3728 C 351.105 2.09394 -3.99331 0
M  V30 3729 C 349.767 1.97947 -4.38601 0
M  V30 3730 C 352.119 1.77712 -4.89967 0
M  V30 3731 C 349.447 1.53065 -5.66381 0
M  V30 3732 C 351.799 1.34312 -6.18177 0
M  V30 3733 C 350.463 1.21436 -6.56361 0
M  V30 3734 H 349.733 0.493568 -0.552695 0
M  V30 3735 H 352.38 0.665539 -1.79563 0
M  V30 3736 H 350.685 3.24062 -2.20207 0
M  V30 3737 H 352.382 3.08541 -2.56132 0
M  V30 3738 H 348.972 2.19235 -3.68285 0
M  V30 3739 H 353.156 1.85445 -4.60352 0
M  V30 3740 H 348.412 1.41733 -5.94745 0
M  V30 3741 H 352.586 1.08849 -6.87841 0
M  V30 3742 H 350.213 0.864345 -7.5527 0
M  V30 3743 N 351.788 1.33704 0.83433 0
M  V30 3744 C 352.735 1.24335 1.94447 0
M  V30 3745 C 353.705 0.120991 1.65659 0
M  V30 3746 O 354.89 0.300035 1.88426 0
M  V30 3747 C 352.03 0.993124 3.30501 0
M  V30 3748 C 351.143 2.20217 3.71657 0
M  V30 3749 C 350.278 1.88572 4.96602 0
M  V30 3750 C 349.317 3.05683 5.30306 0
M  V30 3751 N 348.454 2.73997 6.46429 0
M  V30 3752 H 353.294 2.1928 2.01792 0
M  V30 3753 H 350.831 1.09035 0.987404 0
M  V30 3754 H 352.789 0.828467 4.08892 0
M  V30 3755 H 351.419 0.0803902 3.227 0
M  V30 3756 H 350.471 2.47642 2.88752 0
M  V30 3757 H 351.783 3.07752 3.92543 0
M  V30 3758 H 350.937 1.68776 5.82752 0
M  V30 3759 H 349.676 0.982799 4.77695 0
M  V30 3760 H 348.681 3.26088 4.42659 0
M  V30 3761 H 349.906 3.96737 5.51159 0
M  V30 3762 H 347.852 1.86268 6.28999 0
M  V30 3763 H 347.769 3.55064 6.67432 0
M  V30 3764 H 349.037 2.57679 7.35678 0
M  V30 3765 N 353.266 -1.05314 1.17247 0
M  V30 3766 C 354.496 -1.81707 0.983166 0
M  V30 3767 C 354.904 -1.83222 -0.471822 0
M  V30 3768 O 354.247 -1.25721 -1.3394 0
M  V30 3769 C 354.309 -3.29134 1.44606 0
M  V30 3770 C 353.973 -3.51304 2.92292 0
M  V30 3771 C 354.97 -3.4353 3.90235 0
M  V30 3772 C 352.655 -3.78306 3.30439 0
M  V30 3773 C 354.649 -3.62442 5.24323 0
M  V30 3774 C 352.336 -3.96866 4.64694 0
M  V30 3775 C 353.334 -3.88933 5.61445 0
M  V30 3776 O 353.022 -4.06976 6.93272 0
M  V30 3777 H 352.754 -0.579476 0.348114 0
M  V30 3778 H 355.308 -1.33705 1.55924 0
M  V30 3779 H 353.538 -3.78046 0.813537 0
M  V30 3780 H 355.227 -3.87049 1.22262 0
M  V30 3781 H 355.993 -3.22648 3.62109 0
M  V30 3782 H 351.872 -3.83585 2.55702 0
M  V30 3783 H 355.416 -3.56165 5.99827 0
M  V30 3784 H 351.313 -4.1724 4.92525 0
M  V30 3785 H 352.081 -4.24209 6.99992 0
M  V30 3786 N 354.744 -0.972509 -1.24016 0
M  V30 3787 C 356.155 -0.67517 -1.74064 0
M  V30 3788 C 356.506 0.808939 -1.78747 0
M  V30 3789 O 355.631 1.63286 -1.42009 0
M  V30 3790 C 356.226 -1.21889 -3.16115 0
M  V30 3791 C 354.785 -0.971358 -3.6365 0
M  V30 3792 C 353.932 -1.35134 -2.42145 0
M  V30 3793 H 356.883 -1.14727 -1.09651 0
M  V30 3794 H 356.904 -0.587489 -3.75937 0
M  V30 3795 H 356.416 -2.29906 -3.12674 0
M  V30 3796 H 354.517 0.0930686 -3.72484 0
M  V30 3797 H 354.63 -1.62039 -4.50866 0
M  V30 3798 H 352.994 -0.769751 -2.4279 0
M  V30 3799 H 353.777 -2.4411 -2.41381 0
M  V30 3800 N 356.222 1.38976 -0.743202 0
M  V30 3801 C 357.47 1.99948 -0.29417 0
M  V30 3802 C 357.791 1.59279 1.12495 0
M  V30 3803 O 357.061 0.844808 1.76748 0
M  V30 3804 H 355.641 0.739473 -0.105774 0
M  V30 3805 H 358.303 1.699 -0.954986 0
M  V30 3806 H 357.399 3.10142 -0.349056 0
M  V30 3807 N 357.7 0.491464 1.49741 0
M  V30 3808 C 358.948 -0.0563141 2.02022 0
M  V30 3809 C 359.269 -1.38363 1.37407 0
M  V30 3810 O 358.539 -1.88702 0.526166 0
M  V30 3811 H 357.119 -0.0238014 0.746621 0
M  V30 3812 H 359.781 0.646533 1.83864 0
M  V30 3813 H 358.877 -0.192967 3.11503 0
M  V30 3814 N 359.178 -1.55987 0.224894 0
M  V30 3815 C 360.426 -1.97998 -0.405099 0
M  V30 3816 C 360.747 -1.11387 -1.60056 0
M  V30 3817 O 360.017 -0.191645 -1.9496 0
M  V30 3818 H 358.597 -0.731235 -0.152658 0
M  V30 3819 H 361.259 -1.92279 0.318567 0
M  V30 3820 H 360.355 -3.03463 -0.729167 0
M  V30 3821 N 360.656 0.0484629 -1.57525 0
M  V30 3822 C 361.903 0.743125 -1.88372 0
M  V30 3823 C 362.231 1.76383 -0.819715 0
M  V30 3824 O 361.486 1.94855 0.181659 0
M  V30 3825 C 361.785 1.46632 -3.25935 0
M  V30 3826 C 361.451 0.583427 -4.4711 0
M  V30 3827 C 360.113 0.340191 -4.79996 0
M  V30 3828 C 362.465 -0.0273345 -5.21193 0
M  V30 3829 C 359.793 -0.522903 -5.84365 0
M  V30 3830 C 362.145 -0.878017 -6.26477 0
M  V30 3831 C 360.809 -1.1309 -6.5785 0
M  V30 3832 H 360.079 0.271929 -0.689301 0
M  V30 3833 H 362.726 0.00336166 -1.915 0
M  V30 3834 H 361.031 2.2789 -3.18706 0
M  V30 3835 H 362.728 2.00902 -3.47044 0
M  V30 3836 H 359.318 0.783151 -4.21384 0
M  V30 3837 H 363.502 0.147654 -4.9608 0
M  V30 3838 H 358.758 -0.727335 -6.07058 0
M  V30 3839 H 362.932 -1.35789 -6.83033 0
M  V30 3840 H 360.559 -1.80144 -7.38547 0
M  V30 3841 N 362.134 1.5431 0.320358 0
M  V30 3842 C 363.081 1.83918 1.39438 0
M  V30 3843 C 364.051 0.686525 1.51248 0
M  V30 3844 O 365.236 0.933269 1.66417 0
M  V30 3845 C 362.376 2.075 2.75749 0
M  V30 3846 C 361.489 3.35177 2.72544 0
M  V30 3847 C 360.624 3.48704 4.00723 0
M  V30 3848 C 359.663 4.70244 3.91838 0
M  V30 3849 N 358.8 4.80679 5.11754 0
M  V30 3850 H 363.64 2.75544 1.13489 0
M  V30 3851 H 361.177 1.36459 0.549309 0
M  V30 3852 H 363.135 2.19166 3.54996 0
M  V30 3853 H 361.765 1.19163 3 0
M  V30 3854 H 360.817 3.32233 1.85271 0
M  V30 3855 H 362.129 4.24534 2.61863 0
M  V30 3856 H 361.283 3.59928 4.88402 0
M  V30 3857 H 360.022 2.57445 4.14214 0
M  V30 3858 H 359.027 4.59072 3.02544 0
M  V30 3859 H 360.252 5.6289 3.7991 0
M  V30 3860 H 358.198 3.92337 5.25745 0
M  V30 3861 H 358.115 5.64007 5.0342 0
M  V30 3862 H 359.383 4.96239 6.01138 0
M  V30 3863 N 363.613 -0.582584 1.46437 0
M  V30 3864 C 364.89 -1.34276 1.4223 0
M  V30 3865 C 365.27 -2.10835 0.10583 0
M  V30 3866 O 364.618 -2.09485 -0.912596 0
M  V30 3867 C 364.828 -2.26865 2.65204 0
M  V30 3868 C 366.176 -2.88691 3.11356 0
M  V30 3869 O 367.2 -2.37178 2.65753 0
M  V30 3870 O 366.059 -3.82255 3.90568 0
M  V30 3871 H 363.153 -0.603326 0.565621 0
M  V30 3872 H 365.699 -0.603591 1.58603 0
M  V30 3873 H 364.471 -1.69724 3.52576 0
M  V30 3874 H 364.094 -3.08122 2.5129 0
M  V30 3875 N 365.091 -1.34144 -0.827227 0
M  V30 3876 C 366.338 -1.26258 -1.58319 0
M  V30 3877 C 366.666 0.168595 -1.93768 0
M  V30 3878 O 365.921 1.12877 -1.59866 0
M  V30 3879 C 366.22 -2.09464 -2.89585 0
M  V30 3880 C 365.886 -3.58521 -2.73448 0
M  V30 3881 C 364.548 -3.99155 -2.68754 0
M  V30 3882 C 366.9 -4.53189 -2.57428 0
M  V30 3883 C 364.228 -5.32656 -2.45957 0
M  V30 3884 C 366.58 -5.86864 -2.36163 0
M  V30 3885 C 365.244 -6.26667 -2.29879 0
M  V30 3886 H 364.514 -0.462013 -0.579332 0
M  V30 3887 H 367.161 -1.65845 -0.95748 0
M  V30 3888 H 365.466 -1.62692 -3.56425 0
M  V30 3889 H 367.163 -2.00712 -3.47154 0
M  V30 3890 H 363.753 -3.26264 -2.77939 0
M  V30 3891 H 367.937 -4.22696 -2.60081 0
M  V30 3892 H 363.193 -5.62519 -2.39546 0
M  V30 3893 H 367.367 -6.59813 -2.22754 0
M  V30 3894 H 364.994 -7.30049 -2.11975 0
M  V30 3895 N 366.569 1.04691 -1.17803 0
M  V30 3896 C 367.797 1.81446 -0.99423 0
M  V30 3897 C 368.212 1.83174 0.457459 0
M  V30 3898 O 367.569 1.26265 1.31771 0
M  V30 3899 C 367.62 3.27334 -1.5341 0
M  V30 3900 O 367.341 3.25798 -2.92895 0
M  V30 3901 C 368.842 4.20759 -1.39559 0
M  V30 3902 H 366.062 0.571599 -0.351447 0
M  V30 3903 H 368.606 1.31982 -1.56208 0
M  V30 3904 H 366.761 3.74052 -1.00815 0
M  V30 3905 H 367.175 4.17144 -3.17949 0
M  V30 3906 H 368.649 5.21084 -1.82141 0
M  V30 3907 H 369.126 4.37856 -0.343394 0
M  V30 3908 H 369.732 3.79901 -1.91195 0
M  V30 3909 N 368.047 0.979072 1.23499 0
M  V30 3910 C 369.463 0.687475 1.44034 0
M  V30 3911 C 369.663 -0.746801 1.8715 0
M  V30 3912 O 368.719 -1.51939 2.0167 0
M  V30 3913 C 370.032 1.68127 2.49307 0
M  V30 3914 C 371.58 1.69516 2.63122 0
M  V30 3915 C 372.055 2.67723 3.71603 0
M  V30 3916 N 373.546 2.66233 3.79044 0
M  V30 3917 C 374.281 3.38891 4.62537 0
M  V30 3918 N 373.777 4.21103 5.50131 0
M  V30 3919 N 375.57 3.27661 4.56721 0
M  V30 3920 H 367.721 1.90559 0.938135 0
M  V30 3921 H 369.984 0.821051 0.473897 0
M  V30 3922 H 369.69 2.70693 2.2454 0
M  V30 3923 H 369.564 1.46306 3.4767 0
M  V30 3924 H 371.951 0.676561 2.8724 0
M  V30 3925 H 372.032 1.95404 1.65079 0
M  V30 3926 H 371.676 3.69724 3.48233 0
M  V30 3927 H 371.606 2.39111 4.69184 0
M  V30 3928 H 374.097 2.06568 3.16446 0
M  V30 3929 H 374.41 4.73403 6.10827 0
M  V30 3930 H 372.755 4.25195 5.49759 0
M  V30 3931 H 375.946 2.62887 3.87309 0
M  V30 3932 H 376.119 3.84547 5.21562 0
M  V30 3933 N 369.525 -1.3858 0.750561 0
M  V30 3934 C 370.774 -1.99424 0.302172 0
M  V30 3935 C 371.087 -1.60254 -1.12152 0
M  V30 3936 O 372.293 -2.14046 -1.67023 0
M  V30 3937 C 370.749 -3.56558 0.489307 0
M  V30 3938 C 370.357 -4.04682 1.92189 0
M  V30 3939 C 372.101 -4.24374 0.103478 0
M  V30 3940 C 370.008 -5.54446 2.05775 0
M  V30 3941 H 368.938 -0.746046 0.10923 0
M  V30 3942 H 371.589 -1.58383 0.92667 0
M  V30 3943 H 369.971 -3.95472 -0.204329 0
M  V30 3944 H 371.145 -3.77065 2.64875 0
M  V30 3945 H 369.46 -3.4958 2.26236 0
M  V30 3946 H 372.057 -5.34384 0.183787 0
M  V30 3947 H 372.4 -4.05468 -0.943481 0
M  V30 3948 H 372.933 -3.90688 0.748854 0
M  V30 3949 H 369.672 -5.78252 3.08714 0
M  V30 3950 H 369.192 -5.83816 1.37546 0
M  V30 3951 H 370.871 -6.20099 1.84626 0
M  V30 3952 N 371.003 -0.499398 -1.49478 0
M  V30 3953 C 371.966 0.268838 -2.27618 0
M  V30 3954 C 372.966 0.895383 -1.33565 0
M  V30 3955 O 374.156 0.760164 -1.56739 0
M  V30 3956 C 371.288 1.38559 -3.11471 0
M  V30 3957 H 372.481 -0.416812 -2.96989 0
M  V30 3958 H 370.034 -0.254313 -1.54217 0
M  V30 3959 H 370.769 2.10544 -2.46661 0
M  V30 3960 H 370.554 0.941797 -3.80621 0
M  V30 3961 H 372.044 1.92678 -3.70493 0
M  V30 3962 N 372.481 1.55866 -0.233164 0
M  V30 3963 C 373.428 2.20796 0.67215 0
M  V30 3964 C 374.398 1.16731 1.18166 0
M  V30 3965 O 375.583 1.45129 1.23864 0
M  V30 3966 C 372.723 2.90072 1.86955 0
M  V30 3967 C 371.836 4.08759 1.39786 0
M  V30 3968 C 370.971 4.65787 2.55374 0
M  V30 3969 C 370.01 5.76752 2.04998 0
M  V30 3970 N 369.147 6.28021 3.13901 0
M  V30 3971 H 373.987 2.9779 0.111749 0
M  V30 3972 H 371.524 1.47036 0.0434007 0
M  V30 3973 H 373.482 3.28428 2.57276 0
M  V30 3974 H 372.112 2.15575 2.40265 0
M  V30 3975 H 371.164 3.7581 0.589173 0
M  V30 3976 H 372.476 4.88906 0.98856 0
M  V30 3977 H 371.63 5.06646 3.33758 0
M  V30 3978 H 370.369 3.84828 2.99598 0
M  V30 3979 H 369.374 5.35383 1.25079 0
M  V30 3980 H 370.599 6.59553 1.61759 0
M  V30 3981 H 368.545 5.49971 3.57586 0
M  V30 3982 H 368.462 7.03323 2.7726 0
M  V30 3983 H 369.73 6.73538 3.92386 0
M  V30 3984 N 373.959 -0.0401083 1.57549 0
M  V30 3985 C 375.184 -0.748931 1.93406 0
M  V30 3986 C 375.609 -1.68686 0.832274 0
M  V30 3987 O 374.967 -1.80047 -0.212818 0
M  V30 3988 C 375.015 -1.4916 3.28304 0
M  V30 3989 O 374.119 -2.6042 3.19774 0
M  V30 3990 H 373.46 -0.202212 0.63246 0
M  V30 3991 H 375.99 0.00112086 2.046 0
M  V30 3992 H 376 -1.86395 3.62934 0
M  V30 3993 H 374.675 -0.80364 4.08062 0
M  V30 3994 H 373.252 -2.25808 2.96758 0
M  V30 3995 N 375.437 -1.54477 -0.31217 0
M  V30 3996 C 376.714 -1.63891 -1.06767 0
M  V30 3997 C 377.094 -0.480028 -2.0557 0
M  V30 3998 O 376.442 0.524487 -2.22399 0
M  V30 3999 C 376.652 -3.01402 -1.75948 0
M  V30 4000 C 378 -3.57838 -2.28554 0
M  V30 4001 O 379.024 -3.03782 -1.85998 0
M  V30 4002 O 377.883 -4.52462 -3.06497 0
M  V30 4003 H 374.977 -0.664125 -0.492816 0
M  V30 4004 H 377.523 -1.66823 -0.311149 0
M  V30 4005 H 376.295 -3.77187 -1.04144 0
M  V30 4006 H 375.918 -3.02199 -2.58383 0
M  V30 4007 N 376.915 0.57481 -1.46744 0
M  V30 4008 C 378.326 1.15695 -1.46532 0
M  V30 4009 C 378.677 1.95068 -0.210425 0
M  V30 4010 O 377.802 2.05241 0.685944 0
M  V30 4011 C 378.397 2.1048 -2.65487 0
M  V30 4012 C 376.956 2.64002 -2.68291 0
M  V30 4013 C 376.103 1.40026 -2.39349 0
M  V30 4014 H 379.054 0.362325 -1.54509 0
M  V30 4015 H 379.075 2.94074 -2.41455 0
M  V30 4016 H 378.587 1.52683 -3.56805 0
M  V30 4017 H 376.688 3.25646 -1.81067 0
M  V30 4018 H 376.801 3.06197 -3.68483 0
M  V30 4019 H 375.165 1.70106 -1.89568 0
M  V30 4020 H 375.948 0.840485 -3.32852 0
M  V30 4021 N 378.394 1.34581 0.820102 0
M  V30 4022 C 379.643 1.26437 1.57151 0
M  V30 4023 C 379.956 -0.163111 1.94919 0
M  V30 4024 O 381.162 -0.366722 2.69012 0
M  V30 4025 C 379.618 2.21658 2.83541 0
M  V30 4026 C 379.226 3.69679 2.53065 0
M  V30 4027 C 380.97 2.22428 3.61561 0
M  V30 4028 C 378.877 4.56761 3.75664 0
M  V30 4029 H 377.807 0.469707 0.589823 0
M  V30 4030 H 380.458 1.59763 0.902656 0
M  V30 4031 H 378.84 1.81287 3.52067 0
M  V30 4032 H 380.014 4.18605 1.92631 0
M  V30 4033 H 378.329 3.71384 1.88316 0
M  V30 4034 H 380.926 2.8471 4.52597 0
M  V30 4035 H 381.269 1.22434 3.97889 0
M  V30 4036 H 381.802 2.61259 2.99981 0
M  V30 4037 H 378.541 5.57702 3.44454 0
M  V30 4038 H 378.061 4.12568 4.35371 0
M  V30 4039 H 379.74 4.71509 4.43044 0
M  V30 4040 N 379.872 -1.04064 1.18357 0
M  V30 4041 C 380.805 -2.11618 0.854 0
M  V30 4042 C 381.783 -1.61555 -0.184043 0
M  V30 4043 O 382.967 -1.88395 -0.0630048 0
M  V30 4044 C 380.094 -3.37574 0.27597 0
M  V30 4045 C 379.14 -4.06485 1.2912 0
M  V30 4046 S 379.973 -4.53543 2.84709 0
M  V30 4047 C 381.129 -5.82732 2.28417 0
M  V30 4048 H 381.362 -2.39247 1.76488 0
M  V30 4049 H 378.895 -1.16832 1.00944 0
M  V30 4050 H 380.853 -4.10468 -0.051026 0
M  V30 4051 H 379.514 -3.0806 -0.613028 0
M  V30 4052 H 378.707 -4.97024 0.835633 0
M  V30 4053 H 378.309 -3.39708 1.56443 0
M  V30 4054 H 380.601 -6.56677 1.66677 0
M  V30 4055 H 381.544 -6.33052 3.17256 0
M  V30 4056 H 381.952 -5.37838 1.71436 0
M  V30 4057 N 381.35 -0.985608 -1.22978 0
M  V30 4058 C 382.596 -0.667998 -1.92118 0
M  V30 4059 C 382.951 0.790454 -1.75413 0
M  V30 4060 O 382.244 1.56336 -1.10768 0
M  V30 4061 C 382.438 -1.00014 -3.43121 0
M  V30 4062 C 382.267 -2.48933 -3.74516 0
M  V30 4063 C 381.037 -3.15218 -3.94925 0
M  V30 4064 C 383.235 -3.47024 -3.79577 0
M  V30 4065 N 381.217 -4.53689 -4.13569 0
M  V30 4066 C 382.588 -4.70923 -4.03276 0
M  V30 4067 C 384.643 -3.41432 -3.62393 0
M  V30 4068 C 383.346 -5.89914 -4.11574 0
M  V30 4069 C 385.372 -4.59793 -3.71947 0
M  V30 4070 C 384.734 -5.82489 -3.96088 0
M  V30 4071 H 380.833 -0.295589 -0.723983 0
M  V30 4072 H 383.417 -1.26413 -1.4808 0
M  V30 4073 H 381.588 -0.432655 -3.85983 0
M  V30 4074 H 383.32 -0.63927 -3.99619 0
M  V30 4075 H 380.075 -2.65702 -3.92045 0
M  V30 4076 H 380.499 -5.25492 -4.26834 0
M  V30 4077 H 385.141 -2.47594 -3.4272 0
M  V30 4078 H 382.859 -6.84164 -4.30053 0
M  V30 4079 H 386.445 -4.57048 -3.59998 0
M  V30 4080 H 385.325 -6.72546 -4.033 0
M  V30 4081 N 382.828 1.3818 -0.7579 0
M  V30 4082 C 384.244 1.5353 -0.435972 0
M  V30 4083 C 384.444 1.71961 1.05032 0
M  V30 4084 O 383.5 1.73307 1.83633 0
M  V30 4085 C 384.813 2.73989 -1.23898 0
M  V30 4086 C 386.361 2.87841 -1.22949 0
M  V30 4087 C 386.836 4.11266 -2.01554 0
M  V30 4088 N 388.327 4.18352 -1.98837 0
M  V30 4089 C 389.062 5.12856 -2.5645 0
M  V30 4090 N 388.558 6.13005 -3.22794 0
M  V30 4091 N 390.351 5.05238 -2.46356 0
M  V30 4092 H 382.502 1.24467 -1.7211 0
M  V30 4093 H 384.765 0.604982 -0.729864 0
M  V30 4094 H 384.471 2.66789 -2.29165 0
M  V30 4095 H 384.345 3.67294 -0.858764 0
M  V30 4096 H 386.732 2.9452 -0.184854 0
M  V30 4097 H 386.813 1.95534 -1.64924 0
M  V30 4098 H 386.457 4.05349 -3.06031 0
M  V30 4099 H 386.387 5.02661 -1.5697 0
M  V30 4100 H 388.878 3.46628 -1.50524 0
M  V30 4101 H 389.191 6.81619 -3.64165 0
M  V30 4102 H 387.536 6.13325 -3.2689 0
M  V30 4103 H 390.727 4.25938 -1.9415 0
M  V30 4104 H 390.9 5.78707 -2.91552 0
M  V30 4105 N 384.306 0.507319 1.49211 0
M  V30 4106 C 385.583 -0.0982702 1.95353 0
M  V30 4107 C 385.963 -1.53516 1.449 0
M  V30 4108 O 385.311 -2.18594 0.66551 0
M  V30 4109 C 385.521 -0.00440283 3.49 0
M  V30 4110 C 386.869 -0.175147 4.24239 0
M  V30 4111 O 387.893 -0.0792891 3.56112 0
M  V30 4112 O 386.752 -0.37276 5.45227 0
M  V30 4113 H 383.846 -0.0918236 0.821887 0
M  V30 4114 H 386.392 0.570307 1.5983 0
M  V30 4115 H 385.164 0.997402 3.78375 0
M  V30 4116 H 384.787 -0.712845 3.91158 0
M  V30 4117 N 385.784 -1.5574 0.241426 0
M  V30 4118 C 387.033 -1.97986 -0.385295 0
M  V30 4119 C 387.346 -1.13267 -1.59468 0
M  V30 4120 O 388.552 -1.45501 -2.2922 0
M  V30 4121 C 387.008 -3.52275 -0.736884 0
M  V30 4122 C 386.616 -4.45726 0.450796 0
M  V30 4123 C 388.36 -4.03189 -1.3281 0
M  V30 4124 C 386.267 -5.91352 0.0756662 0
M  V30 4125 H 385.197 -0.739386 -0.147731 0
M  V30 4126 H 387.848 -1.80308 0.340779 0
M  V30 4127 H 386.23 -3.65628 -1.52094 0
M  V30 4128 H 387.404 -4.44131 1.22819 0
M  V30 4129 H 385.719 -4.05264 0.956573 0
M  V30 4130 H 388.316 -5.09505 -1.62201 0
M  V30 4131 H 388.659 -3.50212 -2.25071 0
M  V30 4132 H 389.192 -3.93141 -0.607069 0
M  V30 4133 H 385.931 -6.48354 0.965272 0
M  V30 4134 H 385.451 -5.96095 -0.665635 0
M  V30 4135 H 387.13 -6.46084 -0.344075 0
M  V30 4136 N 387.262 0.0317525 -1.57568 0
M  V30 4137 C 388.509 0.723104 -1.89149 0
M  V30 4138 C 388.837 1.75504 -0.838377 0
M  V30 4139 O 388.092 1.95037 0.160982 0
M  V30 4140 C 388.391 1.43167 -3.27472 0
M  V30 4141 C 388.057 0.535972 -4.47703 0
M  V30 4142 C 386.719 0.289262 -4.8033 0
M  V30 4143 C 389.071 -0.0826125 -5.21135 0
M  V30 4144 C 386.399 -0.584853 -5.83778 0
M  V30 4145 C 388.751 -0.944414 -6.25511 0
M  V30 4146 C 387.415 -1.20061 -6.56614 0
M  V30 4147 H 386.685 0.264602 -0.692146 0
M  V30 4148 H 389.332 -0.0169496 -1.91492 0
M  V30 4149 H 387.637 2.24497 -3.21105 0
M  V30 4150 H 389.334 1.97209 -3.49155 0
M  V30 4151 H 385.924 0.738414 -4.22191 0
M  V30 4152 H 390.108 0.0950302 -4.96209 0
M  V30 4153 H 385.364 -0.79168 -6.06253 0
M  V30 4154 H 389.538 -1.43026 -6.81554 0
M  V30 4155 H 387.165 -1.87967 -7.36595 0
M  V30 4156 N 388.74 1.54641 0.303973 0
M  V30 4157 C 389.67 1.88386 1.3796 0
M  V30 4158 C 390.651 0.742485 1.5304 0
M  V30 4159 O 391.836 0.997959 1.66597 0
M  V30 4160 C 388.966 2.12854 2.74427 0
M  V30 4161 C 387.92 3.28702 2.74115 0
M  V30 4162 C 387.246 3.38582 4.13844 0
M  V30 4163 C 388.546 4.65881 2.3612 0
M  V30 4164 H 390.24 2.78474 1.09966 0
M  V30 4165 H 387.786 1.33988 0.527556 0
M  V30 4166 H 389.739 2.35047 3.49758 0
M  V30 4167 H 388.463 1.19535 3.03939 0
M  V30 4168 H 387.122 3.06428 2.0124 0
M  V30 4169 H 386.77 2.42784 4.40528 0
M  V30 4170 H 386.47 4.16453 4.14537 0
M  V30 4171 H 387.994 3.63031 4.90959 0
M  V30 4172 H 389.408 4.87823 3.01167 0
M  V30 4173 H 387.805 5.46444 2.48031 0
M  V30 4174 H 388.875 4.66799 1.3125 0
M  V30 4175 N 390.218 -0.567019 1.47046 0
M  V30 4176 C 391.128 -1.70247 1.6141 0
M  V30 4177 C 392.144 -1.66746 0.497157 0
M  V30 4178 O 393.32 -1.86371 0.763389 0
M  V30 4179 C 390.385 -3.06756 1.61561 0
M  V30 4180 C 389.446 -3.21399 2.84607 0
M  V30 4181 C 388.679 -4.51396 2.84741 0
M  V30 4182 O 388.902 -5.36255 1.94388 0
M  V30 4183 O 387.836 -4.69621 3.76483 0
M  V30 4184 H 391.662 -1.61073 2.57467 0
M  V30 4185 H 389.247 -0.735894 1.30019 0
M  V30 4186 H 391.129 -3.8801 1.64396 0
M  V30 4187 H 389.804 -3.16333 0.686684 0
M  V30 4188 H 388.711 -2.39579 2.8732 0
M  V30 4189 H 390.044 -3.16721 3.76761 0
M  V30 4190 N 391.696 -1.35014 -0.812953 0
M  V30 4191 C 392.644 -1.27435 -1.94585 0
M  V30 4192 C 393.638 -0.170494 -1.6854 0
M  V30 4193 O 394.844 -0.336085 -1.76835 0
M  V30 4194 H 391.219 -0.396144 -0.639198 0
M  V30 4195 H 393.19 -2.23158 -1.98098 0
M  V30 4196 C 391.939 -1.05677 -3.31252 0
M  V30 4197 H 391.262 -1.89853 -3.51846 0
M  V30 4198 H 392.702 -1.04413 -4.10943 0
M  V30 4199 C 391.161 0.239615 -3.36047 0
M  V30 4200 O 391.691 1.23759 -3.8216 0
M  V30 4201 N 389.897 0.276186 -2.89285 0
M  V30 4202 H 389.444 -0.53653 -2.51951 0
M  V30 4203 H 389.402 1.14332 -2.92875 0
M  V30 4204 N 393.175 1.03435 -1.18907 0
M  V30 4205 C 394.122 2.11591 -0.921837 0
M  V30 4206 C 395.092 1.65499 0.141226 0
M  V30 4207 O 396.277 1.908 0.000242829 0
M  V30 4208 C 393.417 3.42012 -0.460616 0
M  V30 4209 C 392.53 4.01682 -1.58982 0
M  V30 4210 C 391.665 5.20091 -1.08069 0
M  V30 4211 C 390.704 5.71805 -2.18416 0
M  V30 4212 N 389.841 6.81494 -1.68849 0
M  V30 4213 H 394.681 2.33787 -1.8479 0
M  V30 4214 H 392.218 1.1467 -0.921373 0
M  V30 4215 H 394.176 4.16834 -0.174642 0
M  V30 4216 H 392.806 3.19944 0.428467 0
M  V30 4217 H 391.858 3.24127 -1.99113 0
M  V30 4218 H 393.17 4.36084 -2.4214 0
M  V30 4219 H 392.324 6.02051 -0.749615 0
M  V30 4220 H 391.063 4.87209 -0.218771 0
M  V30 4221 H 390.068 4.88461 -2.5236 0
M  V30 4222 H 391.293 6.06728 -3.05054 0
M  V30 4223 H 389.239 6.50475 -0.849572 0
M  V30 4224 H 389.156 7.14994 -2.45601 0
M  V30 4225 H 390.424 7.67063 -1.38689 0
M  V30 4226 N 394.653 0.992116 1.22453 0
M  V30 4227 C 395.563 0.55065 2.28046 0
M  V30 4228 C 396.579 -0.400189 1.69335 0
M  V30 4229 O 397.755 -0.267215 1.99619 0
M  V30 4230 C 394.82 -0.128496 3.46462 0
M  V30 4231 C 393.881 0.865208 4.20491 0
M  V30 4232 C 393.114 0.218377 5.33253 0
M  V30 4233 O 393.337 -0.987894 5.6178 0
M  V30 4234 O 392.271 0.922845 5.94783 0
M  V30 4235 H 396.097 1.4291 2.67975 0
M  V30 4236 H 393.682 0.760326 1.28606 0
M  V30 4237 H 395.564 -0.508947 4.18315 0
M  V30 4238 H 394.239 -0.981526 3.0846 0
M  V30 4239 H 393.146 1.29658 3.50913 0
M  V30 4240 H 394.479 1.68741 4.62371 0
M  V30 4241 N 396.131 -1.37776 0.765217 0
M  V30 4242 C 397.079 -2.32209 0.134798 0
M  V30 4243 C 398.073 -1.54607 -0.692315 0
M  V30 4244 O 399.279 -1.70052 -0.590109 0
M  V30 4245 H 395.654 -0.751591 0.0248005 0
M  V30 4246 H 397.625 -2.8297 0.947119 0
M  V30 4247 C 396.374 -3.39841 -0.735063 0
M  V30 4248 H 395.697 -3.99654 -0.107991 0
M  V30 4249 H 397.137 -4.08296 -1.14326 0
M  V30 4250 C 395.596 -2.79378 -1.88281 0
M  V30 4251 O 396.126 -2.69608 -2.97783 0
M  V30 4252 N 394.332 -2.37016 -1.68142 0
M  V30 4253 H 393.879 -2.45162 -0.790772 0
M  V30 4254 H 393.837 -1.96905 -2.45104 0
M  V30 4255 N 397.609 -0.515225 -1.4894 0
M  V30 4256 C 398.855 0.0242508 -2.02785 0
M  V30 4257 C 399.188 1.35323 -1.39289 0
M  V30 4258 O 398.463 1.87041 -0.533469 0
M  V30 4259 C 398.746 0.16184 -3.59736 0
M  V30 4260 C 398.599 -1.19127 -4.33738 0
M  V30 4261 C 399.918 0.895719 -4.30888 0
M  V30 4262 H 397.037 0.00733914 -0.736963 0
M  V30 4263 H 399.679 -0.669395 -1.77818 0
M  V30 4264 H 397.829 0.752624 -3.8114 0
M  V30 4265 H 399.501 -1.82202 -4.23792 0
M  V30 4266 H 397.744 -1.77695 -3.95736 0
M  V30 4267 H 398.415 -1.04815 -5.41957 0
M  V30 4268 H 400.891 0.394528 -4.14225 0
M  V30 4269 H 399.767 0.960859 -5.40425 0
M  V30 4270 H 400.028 1.9427 -3.97129 0
M  V30 4271 N 399.087 1.5561 -0.249682 0
M  V30 4272 C 400.02 2.17537 0.689408 0
M  V30 4273 C 400.998 1.12829 1.17083 0
M  V30 4274 O 402.182 1.41229 1.24846 0
M  V30 4275 C 399.309 2.77828 1.93725 0
M  V30 4276 C 398.355 3.95615 1.59346 0
M  V30 4277 S 399.188 5.30988 0.69367 0
M  V30 4278 C 400.344 5.94734 1.95046 0
M  V30 4279 H 400.577 2.96852 0.163142 0
M  V30 4280 H 398.11 1.54362 -0.0341166 0
M  V30 4281 H 400.068 3.13199 2.65361 0
M  V30 4282 H 398.729 1.98454 2.43465 0
M  V30 4283 H 397.922 4.364 2.52132 0
M  V30 4284 H 397.524 3.61535 0.957512 0
M  V30 4285 H 399.816 6.12419 2.89739 0
M  V30 4286 H 400.759 6.90109 1.58604 0
M  V30 4287 H 401.167 5.23832 2.10381 0
M  V30 4288 N 400.565 -0.0233959 1.57583 0
M  V30 4289 C 401.512 -1.02224 2.06927 0
M  V30 4290 C 402.482 -1.35575 0.959617 0
M  V30 4291 O 403.667 -1.45815 1.23055 0
M  V30 4292 C 400.807 -2.31636 2.5581 0
M  V30 4293 C 399.92 -2.04394 3.80588 0
M  V30 4294 C 399.055 -3.27717 4.18061 0
M  V30 4295 C 398.094 -2.96056 5.3574 0
M  V30 4296 N 397.231 -4.11847 5.68618 0
M  V30 4297 H 402.071 -0.594504 2.9201 0
M  V30 4298 H 399.608 -0.281921 1.44373 0
M  V30 4299 H 401.566 -3.07258 2.82221 0
M  V30 4300 H 400.196 -2.72122 1.73636 0
M  V30 4301 H 399.248 -1.19244 3.61227 0
M  V30 4302 H 400.56 -1.77042 4.66323 0
M  V30 4303 H 399.714 -4.11702 4.4563 0
M  V30 4304 H 398.453 -3.58188 3.30988 0
M  V30 4305 H 397.458 -2.10474 5.07918 0
M  V30 4306 H 398.683 -2.66857 6.24471 0
M  V30 4307 H 396.629 -4.42258 4.84504 0
M  V30 4308 H 396.546 -3.87938 6.48876 0
M  V30 4309 H 397.814 -4.96689 6.00766 0
M  V30 4310 N 402.043 -1.548 -0.295768 0
M  V30 4311 C 403.006 -1.85363 -1.34808 0
M  V30 4312 C 404.006 -0.726817 -1.43436 0
M  V30 4313 O 405.196 -0.995088 -1.42981 0
M  V30 4314 C 402.328 -2.03859 -2.73229 0
M  V30 4315 H 403.521 -2.7941 -1.08949 0
M  V30 4316 H 401.074 -1.46942 -0.532702 0
M  V30 4317 H 401.809 -1.12117 -3.04303 0
M  V30 4318 H 401.594 -2.8588 -2.68356 0
M  V30 4319 H 403.084 -2.28857 -3.49305 0
M  V30 4320 N 403.521 0.559213 -1.47345 0
M  V30 4321 C 404.77 1.31281 -1.53128 0
M  V30 4322 C 405.083 1.94602 -0.197344 0
M  V30 4323 O 406.289 2.71173 -0.133154 0
M  V30 4324 C 404.745 2.38051 -2.69925 0
M  V30 4325 C 404.353 1.8093 -4.0984 0
M  V30 4326 C 406.097 3.14604 -2.84999 0
M  V30 4327 C 404.004 2.85468 -5.1794 0
M  V30 4328 H 402.934 0.493614 -0.569966 0
M  V30 4329 H 405.585 0.594155 -1.73615 0
M  V30 4330 H 403.967 3.12822 -2.42814 0
M  V30 4331 H 405.141 1.12544 -4.46845 0
M  V30 4332 H 403.456 1.16967 -3.99634 0
M  V30 4333 H 406.053 3.92666 -3.62929 0
M  V30 4334 H 406.396 3.68665 -1.93369 0
M  V30 4335 H 406.929 2.46945 -3.1187 0
M  V30 4336 H 403.668 2.36264 -6.1144 0
M  V30 4337 H 403.188 3.52269 -4.85455 0
M  V30 4338 H 404.867 3.48996 -5.44803 0
M  V30 4339 N 404.999 1.35443 0.805782 0
M  V30 4340 C 405.909 1.30546 1.94923 0
M  V30 4341 C 406.925 0.210233 1.72725 0
M  V30 4342 O 408.101 0.43975 1.9654 0
M  V30 4343 C 405.166 1.07782 3.29521 0
M  V30 4344 C 404.227 2.26625 3.64609 0
M  V30 4345 C 403.46 2.04938 4.92784 0
M  V30 4346 O 403.683 1.01624 5.61274 0
M  V30 4347 O 402.617 2.9232 5.26149 0
M  V30 4348 H 406.443 2.26779 2.02002 0
M  V30 4349 H 404.028 1.15823 0.943682 0
M  V30 4350 H 405.91 0.969392 4.10098 0
M  V30 4351 H 404.585 0.146003 3.23371 0
M  V30 4352 H 403.492 2.43033 2.84404 0
M  V30 4353 H 404.825 3.18257 3.75464 0
M  V30 4354 N 406.477 -1.02803 1.19454 0
M  V30 4355 C 407.725 -1.75869 0.995722 0
M  V30 4356 C 408.046 -1.89138 -0.474543 0
M  V30 4357 O 407.316 -1.42558 -1.34366 0
M  V30 4358 H 405.896 -0.651511 0.365435 0
M  V30 4359 H 408.558 -1.24004 1.50363 0
M  V30 4360 H 407.654 -2.76661 1.44447 0
M  V30 4361 N 407.956 -0.998596 -1.21925 0
M  V30 4362 C 409.203 -0.677663 -1.90824 0
M  V30 4363 C 409.531 0.790905 -1.77693 0
M  V30 4364 O 408.786 1.58817 -1.14349 0
M  V30 4365 C 409.085 -1.03648 -3.42041 0
M  V30 4366 C 408.751 -2.49825 -3.75364 0
M  V30 4367 C 407.413 -2.8977 -3.8417 0
M  V30 4368 C 409.765 -3.44545 -3.91073 0
M  V30 4369 C 407.093 -4.23412 -4.06127 0
M  V30 4370 C 409.445 -4.77853 -4.14535 0
M  V30 4371 C 408.109 -5.17531 -4.21566 0
M  V30 4372 H 407.379 -0.247975 -0.698276 0
M  V30 4373 H 410.026 -1.25584 -1.44571 0
M  V30 4374 H 408.331 -0.376457 -3.89987 0
M  V30 4375 H 410.028 -0.766113 -3.93614 0
M  V30 4376 H 406.618 -2.17866 -3.69097 0
M  V30 4377 H 410.802 -3.14853 -3.83642 0
M  V30 4378 H 406.058 -4.53734 -4.09799 0
M  V30 4379 H 410.232 -5.51189 -4.25633 0
M  V30 4380 H 407.859 -6.21102 -4.38333 0
M  V30 4381 N 409.434 1.37368 -0.772513 0
M  V30 4382 C 410.344 2.34053 -0.160081 0
M  V30 4383 C 411.36 1.60216 0.678728 0
M  V30 4384 O 412.536 1.92303 0.59847 0
M  V30 4385 C 409.601 3.3939 0.708182 0
M  V30 4386 C 408.662 4.29048 -0.147172 0
M  V30 4387 C 407.895 5.29354 0.679744 0
M  V30 4388 O 408.118 5.3723 1.91678 0
M  V30 4389 O 407.052 6.01835 0.0885444 0
M  V30 4390 H 410.878 2.88159 -0.959053 0
M  V30 4391 H 408.463 1.39543 -0.533685 0
M  V30 4392 H 410.345 4.03839 1.20384 0
M  V30 4393 H 409.02 2.8761 1.48533 0
M  V30 4394 H 407.927 3.67697 -0.689205 0
M  V30 4395 H 409.26 4.84134 -0.887423 0
M  V30 4396 N 410.912 0.523116 1.48665 0
M  V30 4397 C 411.859 -0.243398 2.29513 0
M  V30 4398 C 412.829 -0.940139 1.36933 0
M  V30 4399 O 414.014 -0.942503 1.65896 0
M  V30 4400 C 411.154 -1.28855 3.20141 0
M  V30 4401 C 410.267 -0.60135 4.27794 0
M  V30 4402 C 409.402 -1.62884 5.05611 0
M  V30 4403 C 408.441 -0.924726 6.05075 0
M  V30 4404 N 407.578 -1.89744 6.75975 0
M  V30 4405 H 412.418 0.452234 2.94549 0
M  V30 4406 H 409.955 0.234858 1.45213 0
M  V30 4407 H 411.913 -1.90674 3.71079 0
M  V30 4408 H 410.543 -1.95266 2.57043 0
M  V30 4409 H 409.595 0.130623 3.80176 0
M  V30 4410 H 410.907 -0.0481585 4.98777 0
M  V30 4411 H 410.061 -2.32149 5.60528 0
M  V30 4412 H 408.8 -2.21592 4.34452 0
M  V30 4413 H 407.805 -0.217966 5.49368 0
M  V30 4414 H 409.03 -0.343851 6.78229 0
M  V30 4415 H 406.976 -2.47373 6.07571 0
M  V30 4416 H 406.893 -1.3955 7.43009 0
M  V30 4417 H 408.161 -2.58229 7.35485 0
M  V30 4418 N 412.39 -1.55475 0.257931 0
M  V30 4419 C 413.615 -2.04064 -0.370488 0
M  V30 4420 C 414.04 -1.13565 -1.49948 0
M  V30 4421 O 413.398 -0.130781 -1.80828 0
M  V30 4422 C 413.446 -3.50554 -0.845237 0
M  V30 4423 O 412.55 -3.63173 -1.95394 0
M  V30 4424 H 411.891 -0.659257 -0.0792243 0
M  V30 4425 H 414.421 -2.00903 0.387212 0
M  V30 4426 H 414.431 -3.91588 -1.14555 0
M  V30 4427 H 413.106 -4.15896 -0.0191259 0
M  V30 4428 H 411.683 -3.34039 -1.65748 0
M  V30 4429 N 413.868 0.0150385 -1.57593 0
M  V30 4430 C 414.798 1.01047 -2.10503 0
M  V30 4431 C 415.779 1.36816 -1.01071 0
M  V30 4432 O 416.964 1.45455 -1.28672 0
M  V30 4433 C 414.094 2.30708 -2.59598 0
M  V30 4434 C 413.048 2.09142 -3.73421 0
M  V30 4435 C 412.374 3.44685 -4.08774 0
M  V30 4436 C 413.674 1.46619 -5.01298 0
M  V30 4437 H 415.368 0.569978 -2.93925 0
M  V30 4438 H 412.914 0.272724 -1.41394 0
M  V30 4439 H 414.867 3.00687 -2.95238 0
M  V30 4440 H 413.591 2.76843 -1.73279 0
M  V30 4441 H 412.25 1.41592 -3.38153 0
M  V30 4442 H 411.898 3.88495 -3.195 0
M  V30 4443 H 411.598 3.31077 -4.8545 0
M  V30 4444 H 413.122 4.16004 -4.4696 0
M  V30 4445 H 414.536 2.06535 -5.34805 0
M  V30 4446 H 412.933 1.43544 -5.82679 0
M  V30 4447 H 414.003 0.433611 -4.82957 0
M  V30 4448 N 415.346 1.54954 0.287554 0
M  V30 4449 C 416.294 1.87606 1.37502 0
M  V30 4450 C 417.288 0.751001 1.51843 0
M  V30 4451 O 418.494 0.935169 1.53801 0
M  V30 4452 H 414.869 0.595231 0.459569 0
M  V30 4453 H 416.84 2.78477 1.07206 0
M  V30 4454 C 415.589 2.15183 2.73115 0
M  V30 4455 H 414.912 3.01234 2.62866 0
M  V30 4456 H 416.352 2.4196 3.48183 0
M  V30 4457 C 414.811 0.954686 3.2309 0
M  V30 4458 O 415.341 0.181949 4.01288 0
M  V30 4459 N 413.547 0.756368 2.80584 0
M  V30 4460 H 413.094 1.38643 2.17108 0
M  V30 4461 H 413.052 -0.0430391 3.14371 0
M  V30 4462 N 416.824 -0.551391 1.4764 0
M  V30 4463 C 417.774 -1.65362 1.56969 0
M  V30 4464 C 418.758 -1.55098 0.428189 0
M  V30 4465 O 419.95 -1.63481 0.678441 0
M  V30 4466 C 417.079 -3.04129 1.59249 0
M  V30 4467 C 416.165 -3.19576 2.78804 0
M  V30 4468 N 416.556 -3.05067 4.03445 0
M  V30 4469 C 414.854 -3.50588 2.75688 0
M  V30 4470 C 415.555 -3.2336 4.83543 0
M  V30 4471 N 414.531 -3.4996 4.15968 0
M  V30 4472 H 418.333 -1.52722 2.51104 0
M  V30 4473 H 415.847 -0.756303 1.43714 0
M  V30 4474 H 417.844 -3.83278 1.64024 0
M  V30 4475 H 416.504 -3.17877 0.662148 0
M  V30 4476 H 417.515 -2.82273 4.34215 0
M  V30 4477 H 414.192 -3.70827 1.91817 0
M  V30 4478 H 415.582 -3.17061 5.92387 0
M  V30 4479 N 418.302 -1.35869 -0.798587 0
M  V30 4480 C 419.232 -1.32118 -1.92528 0
M  V30 4481 C 420.213 -0.194209 -1.68988 0
M  V30 4482 O 421.398 -0.390426 -1.90235 0
M  V30 4483 C 418.528 -1.10047 -3.29404 0
M  V30 4484 C 417.482 -2.19471 -3.67446 0
M  V30 4485 C 416.808 -1.82555 -5.02571 0
M  V30 4486 C 418.108 -3.61495 -3.76987 0
M  V30 4487 H 419.802 -2.26394 -1.95924 0
M  V30 4488 H 417.348 -1.08981 -0.94123 0
M  V30 4489 H 419.301 -1.06061 -4.07835 0
M  V30 4490 H 418.025 -0.122195 -3.26371 0
M  V30 4491 H 416.684 -2.22568 -2.91306 0
M  V30 4492 H 416.332 -0.833249 -4.9605 0
M  V30 4493 H 416.032 -2.5581 -5.28995 0
M  V30 4494 H 417.556 -1.80108 -5.83432 0
M  V30 4495 H 418.97 -3.60676 -4.4563 0
M  V30 4496 H 417.367 -4.33577 -4.14887 0
M  V30 4497 H 418.437 -3.97065 -2.78329 0
M  V30 4498 N 419.78 1.02168 -1.19998 0
M  V30 4499 C 420.727 2.10601 -0.944228 0
M  V30 4500 C 421.697 1.65639 0.123664 0
M  V30 4501 O 422.882 1.9079 -0.0199941 0
M  V30 4502 C 420.022 3.41504 -0.496865 0
M  V30 4503 C 419.135 3.99973 -1.63234 0
M  V30 4504 C 418.27 5.18915 -1.13579 0
M  V30 4505 C 417.309 5.69456 -2.24468 0
M  V30 4506 N 416.446 6.79665 -1.76068 0
M  V30 4507 H 421.286 2.31814 -1.8726 0
M  V30 4508 H 418.823 1.13686 -0.933483 0
M  V30 4509 H 420.781 4.16626 -0.218843 0
M  V30 4510 H 419.411 3.2038 0.394508 0
M  V30 4511 H 418.463 3.21997 -2.0254 0
M  V30 4512 H 419.775 4.33492 -2.46752 0
M  V30 4513 H 418.929 6.01222 -0.813429 0
M  V30 4514 H 417.668 4.8695 -0.270434 0
M  V30 4515 H 416.673 4.85757 -2.57526 0
M  V30 4516 H 417.898 6.03459 -3.11472 0
M  V30 4517 H 415.844 6.49538 -0.918516 0
M  V30 4518 H 415.761 7.12349 -2.5317 0
M  V30 4519 H 417.029 7.65549 -1.46817 0
M  V30 4520 N 421.258 1.00505 1.21394 0
M  V30 4521 C 422.168 0.574806 2.27449 0
M  V30 4522 C 423.184 -0.382206 1.6975 0
M  V30 4523 O 424.36 -0.246027 1.99892 0
M  V30 4524 C 421.425 -0.0917414 3.46579 0
M  V30 4525 C 420.486 0.909758 4.1955 0
M  V30 4526 C 419.719 0.274924 5.32991 0
M  V30 4527 O 419.942 -0.928254 5.62796 0
M  V30 4528 O 418.876 0.985877 5.93771 0
M  V30 4529 H 422.702 1.45744 2.66444 0
M  V30 4530 H 420.287 0.773923 1.27792 0
M  V30 4531 H 422.169 -0.464551 4.18832 0
M  V30 4532 H 420.844 -0.948755 3.09484 0
M  V30 4533 H 419.751 1.33372 3.49518 0
M  V30 4534 H 421.084 1.73636 4.60555 0
M  V30 4535 N 422.737 -1.36956 0.779787 0
M  V30 4536 C 423.667 -2.32761 0.185651 0
M  V30 4537 C 424.648 -1.56177 -0.673989 0
M  V30 4538 O 425.833 -1.84378 -0.609797 0
M  V30 4539 C 422.963 -3.40418 -0.687964 0
M  V30 4540 C 421.917 -4.27941 0.0710102 0
M  V30 4541 C 421.243 -5.26681 -0.922573 0
M  V30 4542 C 422.543 -5.07006 1.25467 0
M  V30 4543 H 424.237 -2.82698 0.986008 0
M  V30 4544 H 421.783 -1.3592 0.475592 0
M  V30 4545 H 423.736 -4.06423 -1.11348 0
M  V30 4546 H 422.46 -2.89025 -1.52093 0
M  V30 4547 H 421.119 -3.63478 0.47739 0
M  V30 4548 H 420.767 -4.71565 -1.7503 0
M  V30 4549 H 420.467 -5.86103 -0.419237 0
M  V30 4550 H 421.991 -5.9556 -1.34686 0
M  V30 4551 H 423.405 -5.66105 0.905401 0
M  V30 4552 H 421.802 -5.75793 1.69063 0
M  V30 4553 H 422.872 -4.3921 2.05481 0
M  V30 4554 N 424.215 -0.530993 -1.48385 0
M  V30 4555 C 425.464 0.00474348 -2.01699 0
M  V30 4556 C 425.777 1.35227 -1.41325 0
M  V30 4557 O 426.983 1.97643 -1.86144 0
M  V30 4558 C 425.439 0.0588473 -3.59852 0
M  V30 4559 C 425.047 -1.28385 -4.2921 0
M  V30 4560 C 426.791 0.543358 -4.21008 0
M  V30 4561 C 424.698 -1.19028 -5.79298 0
M  V30 4562 H 423.628 0.00554317 -0.75398 0
M  V30 4563 H 426.279 -0.674924 -1.70637 0
M  V30 4564 H 424.661 0.803612 -3.8776 0
M  V30 4565 H 425.835 -2.04426 -4.12973 0
M  V30 4566 H 424.15 -1.70418 -3.7993 0
M  V30 4567 H 426.747 0.631351 -5.3096 0
M  V30 4568 H 427.09 1.54937 -3.86394 0
M  V30 4569 H 427.623 -0.145754 -3.97533 0
M  V30 4570 H 424.362 -2.17147 -6.18488 0
M  V30 4571 H 423.882 -0.471246 -5.97946 0
M  V30 4572 H 425.561 -0.881365 -6.40969 0
M  V30 4573 N 425.693 1.55336 -0.266172 0
M  V30 4574 C 426.939 1.99692 0.353681 0
M  V30 4575 C 427.272 1.1543 1.56172 0
M  V30 4576 O 426.547 0.222218 1.93226 0
M  V30 4577 C 426.83 3.52316 0.74466 0
M  V30 4578 C 426.683 4.47337 -0.470101 0
M  V30 4579 C 428.002 4.10588 1.58447 0
M  V30 4580 H 425.121 0.725961 0.12708 0
M  V30 4581 H 427.763 1.86336 -0.371333 0
M  V30 4582 H 425.913 3.63829 1.36239 0
M  V30 4583 H 427.585 4.4778 -1.10864 0
M  V30 4584 H 425.828 4.19364 -1.10978 0
M  V30 4585 H 426.499 5.51788 -0.15291 0
M  V30 4586 H 428.975 4.02297 1.06286 0
M  V30 4587 H 427.851 5.17607 1.82686 0
M  V30 4588 H 428.112 3.60253 2.56262 0
M  V30 4589 N 427.171 -0.0066808 1.57599 0
M  V30 4590 C 428.587 -0.36267 1.55425 0
M  V30 4591 C 428.787 -1.75209 0.995187 0
M  V30 4592 O 427.843 -2.44616 0.626058 0
M  V30 4593 C 429.156 -0.244017 2.99708 0
M  V30 4594 C 430.704 -0.319451 3.11366 0
M  V30 4595 C 431.179 -0.229998 4.57422 0
M  V30 4596 N 432.67 -0.288105 4.62303 0
M  V30 4597 C 433.405 -0.242127 5.72889 0
M  V30 4598 N 432.901 -0.147133 6.92644 0
M  V30 4599 N 434.694 -0.293502 5.61333 0
M  V30 4600 H 426.845 0.902314 1.92281 0
M  V30 4601 H 429.108 0.34525 0.882896 0
M  V30 4602 H 428.814 0.711678 3.44424 0
M  V30 4603 H 428.688 -1.02877 3.629 0
M  V30 4604 H 431.075 -1.26559 2.66584 0
M  V30 4605 H 431.156 0.495055 2.50964 0
M  V30 4606 H 430.8 0.712566 5.02877 0
M  V30 4607 H 430.73 -1.0629 5.15761 0
M  V30 4608 H 433.221 -0.363126 3.76151 0
M  V30 4609 H 433.534 -0.117763 7.7271 0
M  V30 4610 H 431.879 -0.112857 6.94908 0
M  V30 4611 H 435.07 -0.365864 4.66668 0
M  V30 4612 H 435.243 -0.254204 6.47501 0
M  V30 4613 N 428.649 -1.55105 -0.279332 0
M  V30 4614 C 429.559 -1.90638 -1.36727 0
M  V30 4615 C 430.575 -0.802899 -1.54368 0
M  V30 4616 O 431.751 -1.10138 -1.68616 0
M  V30 4617 C 428.816 -2.16547 -2.70755 0
M  V30 4618 C 427.877 -3.40146 -2.61915 0
M  V30 4619 C 427.11 -3.6481 -3.8955 0
M  V30 4620 O 427.333 -2.92095 -4.89935 0
M  V30 4621 O 426.267 -4.58343 -3.90135 0
M  V30 4622 H 430.093 -2.83237 -1.09591 0
M  V30 4623 H 427.678 -1.4157 -0.477306 0
M  V30 4624 H 429.56 -2.34665 -3.50014 0
M  V30 4625 H 428.235 -1.27131 -2.9769 0
M  V30 4626 H 427.142 -3.2737 -1.81052 0
M  V30 4627 H 428.475 -4.29761 -2.3993 0
M  V30 4628 N 430.127 0.543554 -1.4793 0
M  V30 4629 C 431.09 1.63156 -1.60975 0
M  V30 4630 C 432.09 1.53346 -0.483899 0
M  V30 4631 O 433.28 1.5726 -0.749339 0
M  V30 4632 C 430.412 3.02743 -1.56716 0
M  V30 4633 H 431.605 1.52934 -2.57975 0
M  V30 4634 H 429.158 0.764557 -1.36324 0
M  V30 4635 H 429.893 3.18484 -0.611418 0
M  V30 4636 H 429.678 3.11272 -2.38438 0
M  V30 4637 H 431.168 3.81871 -1.6901 0
M  V30 4638 N 431.605 1.3629 0.791371 0
M  V30 4639 C 432.515 1.32606 1.93527 0
M  V30 4640 C 433.531 0.228541 1.72493 0
M  V30 4641 O 434.707 0.460571 1.96063 0
M  V30 4642 C 431.772 1.11271 3.28359 0
M  V30 4643 C 430.833 2.3048 3.62185 0
M  V30 4644 C 430.066 2.10154 4.90583 0
M  V30 4645 O 430.289 1.07572 5.60165 0
M  V30 4646 O 429.223 2.97884 5.23019 0
M  V30 4647 H 433.049 2.28909 1.99585 0
M  V30 4648 H 430.634 1.16818 0.931344 0
M  V30 4649 H 432.516 1.01283 4.09047 0
M  V30 4650 H 431.191 0.180292 3.23198 0
M  V30 4651 H 430.098 2.46036 2.81811 0
M  V30 4652 H 431.431 3.22221 3.72068 0
M  V30 4653 N 433.083 -1.0153 1.20538 0
M  V30 4654 C 433.993 -2.13557 0.971113 0
M  V30 4655 C 435.009 -1.73845 -0.0734366 0
M  V30 4656 O 436.185 -2.01075 0.114299 0
M  V30 4657 C 433.25 -3.42661 0.527639 0
M  V30 4658 C 432.311 -3.96608 1.64319 0
M  V30 4659 C 431.544 -5.1955 1.22078 0
M  V30 4660 O 431.767 -5.70329 0.0900198 0
M  V30 4661 O 430.701 -5.66681 2.02871 0
M  V30 4662 H 434.527 -2.3619 1.90913 0
M  V30 4663 H 432.112 -1.11946 0.989362 0
M  V30 4664 H 433.994 -4.20404 0.289621 0
M  V30 4665 H 432.669 -3.21441 -0.381779 0
M  V30 4666 H 431.576 -3.20139 1.93551 0
M  V30 4667 H 432.909 -4.22219 2.52966 0
M  V30 4668 N 434.561 -1.01147 -1.20859 0
M  V30 4669 C 435.471 -0.58686 -2.27141 0
M  V30 4670 C 436.487 0.373198 -1.69951 0
M  V30 4671 O 437.663 0.235423 -2.00019 0
M  V30 4672 C 434.728 0.0733602 -3.46622 0
M  V30 4673 C 433.789 -0.931995 -4.19061 0
M  V30 4674 C 433.022 -0.303186 -5.32838 0
M  V30 4675 O 433.245 0.898395 -5.63281 0
M  V30 4676 O 432.179 -1.01735 -5.9324 0
M  V30 4677 H 436.005 -1.47155 -2.65667 0
M  V30 4678 H 433.59 -0.780689 -1.2738 0
M  V30 4679 H 435.472 0.442333 -4.19072 0
M  V30 4680 H 434.147 0.932329 -3.09983 0
M  V30 4681 H 433.054 -1.35224 -3.48805 0
M  V30 4682 H 434.387 -1.76076 -4.59628 0
M  V30 4683 N 436.039 1.36541 -0.78704 0
M  V30 4684 C 436.969 2.32659 -0.197992 0
M  V30 4685 C 437.95 1.56533 0.665697 0
M  V30 4686 O 439.135 1.84698 0.60001 0
M  V30 4687 C 436.265 3.40778 0.669901 0
M  V30 4688 C 435.219 4.27897 -0.0937039 0
M  V30 4689 C 434.545 5.27163 0.894629 0
M  V30 4690 C 435.845 5.06334 -1.28154 0
M  V30 4691 H 437.539 2.82171 -1.00099 0
M  V30 4692 H 435.085 1.35665 -0.482793 0
M  V30 4693 H 437.038 4.07008 1.09191 0
M  V30 4694 H 435.762 2.89827 1.50558 0
M  V30 4695 H 434.421 3.6322 -0.49666 0
M  V30 4696 H 434.069 4.72486 1.72527 0
M  V30 4697 H 433.769 5.86317 0.388149 0
M  V30 4698 H 435.293 5.96266 1.31525 0
M  V30 4699 H 436.707 5.65617 -0.93541 0
M  V30 4700 H 435.104 5.74888 -1.72115 0
M  V30 4701 H 436.174 4.38114 -2.07807 0
M  V30 4702 N 437.518 0.538854 1.48102 0
M  V30 4703 C 438.764 0.00801365 2.02798 0
M  V30 4704 C 439.097 -1.3309 1.41424 0
M  V30 4705 O 438.372 -1.86169 0.563158 0
M  V30 4706 C 438.655 -0.104589 3.59948 0
M  V30 4707 C 438.508 1.26012 4.31788 0
M  V30 4708 C 439.827 -0.827055 4.32259 0
M  V30 4709 H 436.946 0.00438624 0.736987 0
M  V30 4710 H 439.588 0.6976 1.7673 0
M  V30 4711 H 437.738 -0.691893 3.82289 0
M  V30 4712 H 439.41 1.88922 4.2084 0
M  V30 4713 H 437.653 1.83968 3.92859 0
M  V30 4714 H 438.324 1.13424 5.40221 0
M  V30 4715 H 440.8 -0.328578 4.14801 0
M  V30 4716 H 439.676 -0.87476 5.41885 0
M  V30 4717 H 439.937 -1.87927 4.0017 0
M  V30 4718 N 438.996 -1.55193 0.274407 0
M  V30 4719 C 439.906 -2.26164 -0.623473 0
M  V30 4720 C 440.922 -1.28729 -1.17068 0
M  V30 4721 O 442.098 -1.61663 -1.20112 0
M  V30 4722 C 439.163 -2.96833 -1.7914 0
M  V30 4723 C 438.224 -4.09745 -1.28093 0
M  V30 4724 C 437.457 -4.77034 -2.3932 0
M  V30 4725 O 437.68 -4.4353 -3.5866 0
M  V30 4726 O 436.614 -5.64996 -2.07516 0
M  V30 4727 H 440.44 -3.03661 -0.0485661 0
M  V30 4728 H 438.025 -1.49341 0.0418382 0
M  V30 4729 H 439.907 -3.41248 -2.4724 0
M  V30 4730 H 438.582 -2.22253 -2.35341 0
M  V30 4731 H 437.489 -3.69787 -0.566416 0
M  V30 4732 H 438.822 -4.86224 -0.764683 0
M  V30 4733 N 440.474 -0.00167713 -1.576 0
M  V30 4734 C 441.704 0.692754 -1.94639 0
M  V30 4735 C 442.112 1.67744 -0.87513 0
M  V30 4736 O 441.455 1.8305 0.154382 0
M  V30 4737 C 441.517 1.47881 -3.27676 0
M  V30 4738 C 441.181 0.655518 -4.52274 0
M  V30 4739 C 442.178 -0.0575214 -5.19868 0
M  V30 4740 C 439.863 0.600994 -4.98692 0
M  V30 4741 C 441.857 -0.814052 -6.3218 0
M  V30 4742 C 439.544 -0.15926 -6.10892 0
M  V30 4743 C 440.542 -0.865515 -6.77494 0
M  V30 4744 O 440.23 -1.61336 -7.87544 0
M  V30 4745 H 439.962 0.197792 -0.646417 0
M  V30 4746 H 442.516 -0.049423 -2.05341 0
M  V30 4747 H 440.746 2.2655 -3.13388 0
M  V30 4748 H 442.435 2.05874 -3.49816 0
M  V30 4749 H 443.201 -0.0245611 -4.84994 0
M  V30 4750 H 439.08 1.14025 -4.46676 0
M  V30 4751 H 442.624 -1.36584 -6.84098 0
M  V30 4752 H 438.521 -0.194035 -6.45208 0
M  V30 4753 H 439.289 -1.53025 -8.04068 0
M  V30 4754 N 441.952 1.55251 0.271103 0
M  V30 4755 C 442.882 1.9127 1.33933 0
M  V30 4756 C 443.863 0.77478 1.5143 0
M  V30 4757 O 445.048 1.03307 1.64442 0
M  V30 4758 C 442.178 2.18627 2.69851 0
M  V30 4759 C 441.132 3.34442 2.67081 0
M  V30 4760 C 440.458 3.47284 4.06569 0
M  V30 4761 C 441.758 4.70784 2.26185 0
M  V30 4762 H 443.452 2.80744 1.04035 0
M  V30 4763 H 440.998 1.35077 0.499017 0
M  V30 4764 H 442.951 2.42413 3.44694 0
M  V30 4765 H 441.675 1.25955 3.01335 0
M  V30 4766 H 440.334 3.10627 1.94695 0
M  V30 4767 H 439.982 2.52074 4.35279 0
M  V30 4768 H 439.682 4.25152 4.0561 0
M  V30 4769 H 441.206 3.73363 4.83148 0
M  V30 4770 H 442.62 4.94102 2.90751 0
M  V30 4771 H 441.017 5.51582 2.36384 0
M  V30 4772 H 442.087 4.69478 1.21319 0
M  V30 4773 N 443.43 -0.535701 1.48216 0
M  V30 4774 C 444.377 -1.64083 1.62312 0
M  V30 4775 C 445.347 -1.59448 0.465365 0
M  V30 4776 O 446.532 -1.77959 0.688135 0
M  V30 4777 C 443.672 -3.0236 1.66349 0
M  V30 4778 C 442.785 -3.17273 2.93193 0
M  V30 4779 C 441.92 -4.46075 2.88427 0
M  V30 4780 C 440.959 -4.54496 4.1 0
M  V30 4781 N 440.096 -5.7468 4.03345 0
M  V30 4782 H 444.936 -1.51374 2.5669 0
M  V30 4783 H 442.473 -0.737059 1.27302 0
M  V30 4784 H 444.431 -3.82461 1.66672 0
M  V30 4785 H 443.061 -3.13854 0.754672 0
M  V30 4786 H 442.113 -2.30462 3.02641 0
M  V30 4787 H 443.425 -3.19357 3.83162 0
M  V30 4788 H 442.579 -5.3446 2.87119 0
M  V30 4789 H 441.318 -4.46504 1.96177 0
M  V30 4790 H 440.323 -3.64519 4.11589 0
M  V30 4791 H 441.548 -4.5581 5.03402 0
M  V30 4792 H 439.494 -5.76017 3.13912 0
M  V30 4793 H 439.411 -5.78234 4.87013 0
M  V30 4794 H 440.679 -6.65367 4.06087 0
M  V30 4795 N 444.908 -1.36708 -0.784132 0
M  V30 4796 C 445.818 -1.3363 -1.92822 0
M  V30 4797 C 446.834 -0.237686 -1.72369 0
M  V30 4798 O 448.01 -0.470962 -1.95816 0
M  V30 4799 C 445.075 -1.13011 -3.27764 0
M  V30 4800 C 444.136 -2.32397 -3.60957 0
M  V30 4801 C 443.369 -2.12752 -4.89461 0
M  V30 4802 O 443.592 -1.10541 -5.59586 0
M  V30 4803 O 442.526 -3.00653 -5.21432 0
M  V30 4804 H 446.352 -2.29964 -1.98369 0
M  V30 4805 H 443.937 -1.1731 -0.925136 0
M  V30 4806 H 445.819 -1.03451 -4.08504 0
M  V30 4807 H 444.494 -0.19743 -3.23097 0
M  V30 4808 H 443.401 -2.47527 -2.80502 0
M  V30 4809 H 444.734 -3.2419 -3.70354 0
M  V30 4810 N 446.386 1.0089 -1.21074 0
M  V30 4811 C 447.632 1.74866 -1.02712 0
M  V30 4812 C 447.965 1.89178 0.438787 0
M  V30 4813 O 447.24 1.42325 1.32567 0
M  V30 4814 C 447.523 3.16347 -1.72036 0
M  V30 4815 C 447.376 3.09782 -3.26121 0
M  V30 4816 C 448.695 4.15187 -1.45973 0
M  V30 4817 H 445.814 0.634736 -0.374539 0
M  V30 4818 H 448.456 1.17646 -1.49196 0
M  V30 4819 H 446.606 3.65201 -1.32517 0
M  V30 4820 H 448.278 2.68673 -3.74983 0
M  V30 4821 H 446.521 2.46982 -3.56626 0
M  V30 4822 H 447.192 4.09829 -3.6979 0
M  V30 4823 H 449.668 3.75022 -1.80272 0
M  V30 4824 H 448.544 5.12331 -1.96999 0
M  V30 4825 H 448.805 4.40386 -0.388924 0
M  V30 4826 N 447.864 1.01787 1.20321 0
M  V30 4827 C 448.811 0.589197 2.23153 0
M  V30 4828 C 449.781 -0.391367 1.61423 0
M  V30 4829 O 450.966 -0.290518 1.88575 0
M  V30 4830 C 448.106 -0.0650747 3.45039 0
M  V30 4831 C 447.219 0.960207 4.21194 0
M  V30 4832 C 446.354 0.276854 5.30478 0
M  V30 4833 C 445.393 1.2888 5.98378 0
M  V30 4834 N 444.53 0.632031 6.99249 0
M  V30 4835 H 449.37 1.47071 2.59179 0
M  V30 4836 H 446.907 0.736192 1.27352 0
M  V30 4837 H 448.865 -0.461552 4.14639 0
M  V30 4838 H 447.495 -0.910233 3.09701 0
M  V30 4839 H 446.547 1.47484 3.50646 0
M  V30 4840 H 447.859 1.72977 4.67847 0
M  V30 4841 H 447.013 -0.175056 6.06447 0
M  V30 4842 H 445.752 -0.525004 4.84866 0
M  V30 4843 H 444.757 1.75109 5.21169 0
M  V30 4844 H 445.982 2.09196 6.46076 0
M  V30 4845 H 443.928 -0.149935 6.55829 0
M  V30 4846 H 443.845 1.33964 7.44036 0
M  V30 4847 H 445.113 0.203755 7.79234 0
M  V30 4848 N 449.342 -1.36122 0.79427 0
M  V30 4849 C 450.591 -1.98361 0.365464 0
M  V30 4850 C 450.904 -1.6374 -1.06997 0
M  V30 4851 O 452.11 -2.19251 -1.60129 0
M  V30 4852 C 450.566 -3.54821 0.602496 0
M  V30 4853 C 450.174 -3.98362 2.04967 0
M  V30 4854 C 451.918 -4.2383 0.238437 0
M  V30 4855 C 449.825 -5.47619 2.2331 0
M  V30 4856 H 448.755 -0.742193 0.13291 0
M  V30 4857 H 451.406 -1.55354 0.976589 0
M  V30 4858 H 449.788 -3.95922 -0.078409 0
M  V30 4859 H 450.962 -3.68447 2.76737 0
M  V30 4860 H 449.277 -3.42206 2.37243 0
M  V30 4861 H 451.874 -5.33529 0.353705 0
M  V30 4862 H 452.217 -4.08264 -0.814006 0
M  V30 4863 H 452.75 -3.88108 0.872769 0
M  V30 4864 H 449.489 -5.68138 3.26955 0
M  V30 4865 H 449.009 -5.79145 1.5605 0
M  V30 4866 H 450.688 -6.13911 2.0426 0
M  V30 4867 N 450.82 -0.546701 -1.47814 0
M  V30 4868 C 451.767 0.206854 -2.29871 0
M  V30 4869 C 452.737 0.918235 -1.38411 0
M  V30 4870 O 453.922 0.915991 -1.67375 0
M  V30 4871 C 451.062 1.23746 -3.22151 0
M  V30 4872 C 450.175 0.533216 -4.28697 0
M  V30 4873 C 449.31 1.5482 -5.08138 0
M  V30 4874 C 448.349 0.828347 -6.06469 0
M  V30 4875 N 447.486 1.78966 -6.78908 0
M  V30 4876 H 452.326 -0.499037 -2.93792 0
M  V30 4877 H 449.863 -0.25793 -1.44821 0
M  V30 4878 H 451.821 1.84746 -3.74065 0
M  V30 4879 H 450.451 1.91151 -2.60117 0
M  V30 4880 H 449.503 -0.191089 -3.7992 0
M  V30 4881 H 450.815 -0.0311987 -4.9879 0
M  V30 4882 H 449.969 2.23202 -5.6415 0
M  V30 4883 H 448.708 2.14652 -4.37922 0
M  V30 4884 H 447.713 0.130539 -5.49645 0
M  V30 4885 H 448.938 0.235907 -6.7869 0
M  V30 4886 H 446.884 2.37675 -6.1143 0
M  V30 4887 H 446.801 1.27712 -7.45135 0
M  V30 4888 H 448.069 2.46496 -7.395 0
M  V30 4889 N 452.299 1.55045 -0.282633 0
M  V30 4890 C 453.715 1.59441 0.0712997 0
M  V30 4891 C 453.915 1.2998 1.53972 0
M  V30 4892 O 452.971 1.06431 2.28973 0
M  V30 4893 C 454.284 2.99097 -0.310104 0
M  V30 4894 C 455.832 3.1194 -0.257343 0
M  V30 4895 C 456.307 4.53875 -0.613297 0
M  V30 4896 N 457.798 4.5974 -0.565134 0
M  V30 4897 C 458.533 5.67603 -0.81326 0
M  V30 4898 N 458.029 6.83582 -1.1264 0
M  V30 4899 N 459.822 5.57187 -0.741553 0
M  V30 4900 H 451.973 1.72458 -1.23984 0
M  V30 4901 H 454.236 0.804549 -0.501403 0
M  V30 4902 H 453.942 3.25516 -1.33163 0
M  V30 4903 H 453.816 3.75616 0.345366 0
M  V30 4904 H 456.203 2.85281 0.754905 0
M  V30 4905 H 456.284 2.37618 -0.947178 0
M  V30 4906 H 455.928 4.81261 -1.62327 0
M  V30 4907 H 455.858 5.26508 0.09841 0
M  V30 4908 H 458.349 3.76427 -0.333294 0
M  V30 4909 H 458.662 7.6175 -1.30219 0
M  V30 4910 H 457.007 6.85179 -1.16425 0
M  V30 4911 H 460.198 4.65457 -0.496705 0
M  V30 4912 H 460.371 6.41171 -0.938306 0
M  V30 4913 N 453.777 0.010035 1.57597 0
M  V30 4914 C 454.71 -1.01234 2.04516 0
M  V30 4915 C 455.688 -1.32886 0.937024 0
M  V30 4916 O 456.872 -1.44879 1.20592 0
M  V30 4917 C 453.999 -2.33738 2.45121 0
M  V30 4918 C 453.045 -2.17679 3.66767 0
M  V30 4919 S 453.878 -1.49343 5.14254 0
M  V30 4920 C 455.034 -2.83256 5.58137 0
M  V30 4921 H 455.267 -0.612866 2.90914 0
M  V30 4922 H 452.8 -0.201124 1.53084 0
M  V30 4923 H 454.758 -3.09922 2.69182 0
M  V30 4924 H 453.419 -2.70823 1.59103 0
M  V30 4925 H 452.612 -3.1559 3.92962 0
M  V30 4926 H 452.214 -1.4964 3.42759 0
M  V30 4927 H 454.506 -3.79538 5.6121 0
M  V30 4928 H 455.449 -2.61749 6.57946 0
M  V30 4929 H 455.857 -2.87627 4.85727 0
M  V30 4930 N 455.255 -1.55392 -0.262866 0
M  V30 4931 C 456.165 -1.92077 -1.34698 0
M  V30 4932 C 457.181 -0.819227 -1.53508 0
M  V30 4933 O 458.357 -1.11921 -1.67439 0
M  V30 4934 C 455.422 -2.19407 -2.68443 0
M  V30 4935 C 454.483 -3.42905 -2.58292 0
M  V30 4936 C 453.716 -3.68921 -3.85659 0
M  V30 4937 O 453.939 -2.97275 -4.8681 0
M  V30 4938 O 452.873 -4.62455 -3.85252 0
M  V30 4939 H 456.699 -2.84384 -1.06581 0
M  V30 4940 H 454.284 -1.42069 -0.462264 0
M  V30 4941 H 456.166 -2.38365 -3.47506 0
M  V30 4942 H 454.841 -1.30282 -2.96325 0
M  V30 4943 H 453.748 -3.29272 -1.7757 0
M  V30 4944 H 455.081 -4.32282 -2.35358 0
M  V30 4945 N 456.733 0.527833 -1.48498 0
M  V30 4946 C 457.982 1.28003 -1.55878 0
M  V30 4947 C 458.295 1.9414 -0.238577 0
M  V30 4948 O 459.501 2.7083 -0.190643 0
M  V30 4949 C 457.957 2.32272 -2.74914 0
M  V30 4950 C 457.565 1.72196 -4.13585 0
M  V30 4951 C 459.309 3.08488 -2.91608 0
M  V30 4952 C 457.216 2.74417 -5.23879 0
M  V30 4953 H 456.146 0.481413 -0.580308 0
M  V30 4954 H 458.797 0.557195 -1.74836 0
M  V30 4955 H 457.179 3.07601 -2.49395 0
M  V30 4956 H 458.353 1.03041 -4.49132 0
M  V30 4957 H 456.668 1.08464 -4.02025 0
M  V30 4958 H 459.265 3.84879 -3.71177 0
M  V30 4959 H 459.608 3.64481 -2.01145 0
M  V30 4960 H 460.141 2.40274 -3.17038 0
M  V30 4961 H 456.88 2.23242 -6.16314 0
M  V30 4962 H 456.4 3.41893 -4.92818 0
M  V30 4963 H 458.079 3.37362 -5.52083 0
M  V30 4964 N 458.211 1.37122 0.776871 0
M  V30 4965 C 459.488 1.22586 1.52421 0
M  V30 4966 C 459.868 -0.182726 2.10308 0
M  V30 4967 O 459.216 -1.18979 1.9508 0
M  V30 4968 C 459.426 2.31782 2.60918 0
M  V30 4969 C 460.774 2.69071 3.2846 0
M  V30 4970 O 461.798 2.3092 2.71209 0
M  V30 4971 O 460.657 3.3478 4.31954 0
M  V30 4972 H 457.751 0.478045 0.674835 0
M  V30 4973 H 460.297 1.48888 0.814275 0
M  V30 4974 H 459.069 3.26131 2.16227 0
M  V30 4975 H 458.692 2.06916 3.39517 0
M  V30 4976 O 459.728 -0.91678 1.32956 0
M  V30 4977 H 460.419 -1.55003 1.16162 0
M  V30 END ATOM
M  V30 BEGIN BOND
M  V30 END BOND
M  V30 END CTAB
M  END
$$$$
