drugbank_target|P27708 CAD protein (DB03459)
 OpenBabel12092120073D

  0  0  0     0  0            999 V3000
M  V30 BEGIN CTAB
M  V30 COUNTS 34189 34572 0 0 0
M  V30 BEGIN ATOM
M  V30 1 H -0.908 1.98254 -0.117106 0
M  V30 2 N 0 1.576 0 0
M  V30 3 C 0.933 2.03868 1.02534 0
M  V30 4 C 1.911 0.928543 1.3348 0
M  V30 5 O 3.095 1.19667 1.45644 0
M  V30 6 C 0.222 2.43627 2.35294 0
M  V30 7 C -0.732 3.65373 2.2001 0
M  V30 8 S 0.101 5.13292 1.52614 0
M  V30 9 C 1.257 5.56322 2.86805 0
M  V30 10 H 1.49 2.90518 0.631377 0
M  V30 11 H -0.977 1.52953 0.210867 0
M  V30 12 H 0.981 2.67203 3.11629 0
M  V30 13 H -0.358 1.57376 2.7183 0
M  V30 14 H -1.165 3.90944 3.18086 0
M  V30 15 H -1.563 3.418 1.51819 0
M  V30 16 H 0.729 5.58782 3.83104 0
M  V30 17 H 1.672 6.56266 2.65933 0
M  V30 18 H 2.08 4.83886 2.90714 0
M  V30 19 N 1.4781 -0.272755 1.55222 0
M  V30 20 C 2.4411 -1.32041 1.87344 0
M  V30 21 C 3.4411 -1.42342 0.74803 0
M  V30 22 O 4.6311 -1.41488 1.0162 0
M  V30 23 C 1.7631 -2.70173 2.07893 0
M  V30 24 H 2.9561 -1.04789 2.80997 0
M  V30 25 H 0.5091 -0.51083 1.47717 0
M  V30 26 H 1.2441 -3.02605 1.16622 0
M  V30 27 H 1.0291 -2.64082 2.89833 0
M  V30 28 H 2.5191 -3.45869 2.34017 0
M  V30 29 N 2.9562 -1.48159 -0.537278 0
M  V30 30 C 3.9192 -1.61665 -1.62472 0
M  V30 31 C 4.9192 -0.490395 -1.5314 0
M  V30 32 O 6.1092 -0.755998 -1.5694 0
M  V30 33 C 3.2412 -1.57997 -3.02076 0
M  V30 34 H 4.4342 -2.58621 -1.51839 0
M  V30 35 H 1.9872 -1.36647 -0.758771 0
M  V30 36 H 2.7222 -0.624913 -3.18222 0
M  V30 37 H 2.5072 -2.39755 -3.10258 0
M  V30 38 H 3.9972 -1.70627 -3.81151 0
M  V30 39 N 4.4343 0.785586 -1.36625 0
M  V30 40 C 5.3643 1.91259 -1.33949 0
M  V30 41 C 6.3453 1.68795 -0.210325 0
M  V30 42 O 7.5303 1.89854 -0.408561 0
M  V30 43 C 4.6603 3.28339 -1.13186 0
M  V30 44 C 3.6143 3.65335 -2.22967 0
M  V30 45 C 2.9403 5.00806 -1.87342 0
M  V30 46 C 4.2403 3.7352 -3.65075 0
M  V30 47 H 5.9343 1.93755 -2.28253 0
M  V30 48 H 3.4803 0.930788 -1.09874 0
M  V30 49 H 5.4333 4.06804 -1.09948 0
M  V30 50 H 4.1573 3.2624 -0.153332 0
M  V30 51 H 2.8163 2.89169 -2.25337 0
M  V30 52 H 2.4643 4.95233 -0.880545 0
M  V30 53 H 2.1643 5.26529 -2.60846 0
M  V30 54 H 3.6883 5.81687 -1.85667 0
M  V30 55 H 5.1023 4.42168 -3.64911 0
M  V30 56 H 3.4993 4.10731 -4.37516 0
M  V30 57 H 4.5693 2.74527 -3.99703 0
M  V30 58 N 5.9124 1.20967 1.01018 0
M  V30 59 C 7.1584 1.02526 1.74975 0
M  V30 60 C 7.4914 -0.4408 1.89131 0
M  V30 61 O 6.7664 -1.32718 1.42184 0
M  V30 62 C 7.0494 1.71699 3.1653 0
M  V30 63 C 6.9024 3.25791 3.10129 0
M  V30 64 C 8.2214 1.45531 4.15342 0
M  V30 65 H 5.3404 0.373863 0.635134 0
M  V30 66 H 7.9824 1.49071 1.17805 0
M  V30 67 H 6.1324 1.32128 3.65341 0
M  V30 68 H 7.8044 3.74697 2.69072 0
M  V30 69 H 6.0474 3.56363 2.47362 0
M  V30 70 H 6.7184 3.69353 4.10222 0
M  V30 71 H 9.1944 1.79872 3.75213 0
M  V30 72 H 8.0704 1.96453 5.1254 0
M  V30 73 H 8.3314 0.384237 4.40427 0
M  V30 74 N 7.3905 -1.2043 1.01659 0
M  V30 75 C 8.3205 -2.25466 0.607226 0
M  V30 76 C 9.3015 -1.65853 -0.377716 0
M  V30 77 O 10.4865 -1.92409 -0.263149 0
M  V30 78 C 7.6165 -3.47256 -0.0552949 0
M  V30 79 C 6.5705 -4.19462 0.850632 0
M  V30 80 C 5.8965 -5.34673 0.0538859 0
M  V30 81 C 7.1965 -4.75603 2.15868 0
M  V30 82 H 8.8905 -2.59962 1.48526 0
M  V30 83 H 6.4365 -1.2496 0.715605 0
M  V30 84 H 8.3895 -4.19917 -0.353233 0
M  V30 85 H 7.1135 -3.11924 -0.968045 0
M  V30 86 H 5.7725 -3.48667 1.13257 0
M  V30 87 H 5.4205 -4.95585 -0.860514 0
M  V30 88 H 5.1205 -5.83913 0.657192 0
M  V30 89 H 6.6445 -6.10138 -0.237598 0
M  V30 90 H 8.0585 -5.40083 1.92311 0
M  V30 91 H 6.4555 -5.3528 2.71284 0
M  V30 92 H 7.5255 -3.94346 2.82169 0
M  V30 93 N 8.8686 -0.792821 -1.36206 0
M  V30 94 C 9.7786 -0.194808 -2.3379 0
M  V30 95 C 10.7946 0.654869 -1.61206 0
M  V30 96 O 11.9706 0.569856 -1.9317 0
M  V30 97 C 9.0356 0.657721 -3.40404 0
M  V30 98 C 8.0966 -0.210849 -4.28782 0
M  V30 99 C 7.3296 0.601086 -5.30304 0
M  V30 100 O 7.5526 1.83682 -5.40016 0
M  V30 101 O 6.4866 -0.000808277 -6.019 0
M  V30 102 H 10.3126 -1.00172 -2.86704 0
M  V30 103 H 7.8976 -0.554341 -1.38735 0
M  V30 104 H 9.7796 1.14375 -4.05581 0
M  V30 105 H 8.4546 1.44247 -2.89784 0
M  V30 106 H 7.3616 -0.743714 -3.66633 0
M  V30 107 H 8.6946 -0.959195 -4.82763 0
M  V30 108 N 10.3467 1.47872 -0.545128 0
M  V30 109 C 11.6237 1.9554 0.0485222 0
M  V30 110 C 12.0037 1.4876 1.49779 0
M  V30 111 O 11.3517 0.720925 2.16829 0
M  V30 112 C 11.5617 3.48898 -0.084417 0
M  V30 113 C 12.9097 4.24547 0.0671239 0
M  V30 114 O 13.9337 3.56198 -0.0113649 0
M  V30 115 O 12.7927 5.45999 0.233882 0
M  V30 116 H 9.8867 0.823957 0.0708773 0
M  V30 117 H 12.4327 1.58327 -0.610798 0
M  V30 118 H 11.2047 3.75714 -1.09337 0
M  V30 119 H 10.8277 3.92845 0.613066 0
M  V30 120 N 11.8248 0.280983 1.55075 0
M  V30 121 C 13.0728 -0.333455 1.9933 0
M  V30 122 C 13.3938 -1.55937 1.17085 0
M  V30 123 O 12.6638 -1.94143 0.261805 0
M  V30 124 H 11.2438 -0.126197 0.736263 0
M  V30 125 H 13.9058 0.387678 1.91005 0
M  V30 126 H 13.0018 -0.619292 3.05894 0
M  V30 127 N 13.3029 -1.57598 0.00835791 0
M  V30 128 C 14.5279 -1.95617 -0.689103 0
M  V30 129 C 14.9529 -0.883753 -1.66046 0
M  V30 130 O 14.3109 0.157352 -1.80616 0
M  V30 131 C 14.3589 -3.32736 -1.38994 0
M  V30 132 O 13.4629 -3.27631 -2.50463 0
M  V30 133 H 12.8039 -0.638379 -0.182668 0
M  V30 134 H 15.3339 -2.045 0.064036 0
M  V30 135 H 15.3439 -3.68494 -1.75147 0
M  V30 136 H 14.0189 -4.1034 -0.677778 0
M  V30 137 H 12.5959 -3.03561 -2.16576 0
M  V30 138 N 14.781 0.264519 -1.55364 0
M  V30 139 C 16.027 0.99646 -1.76631 0
M  V30 140 C 16.36 1.85632 -0.570478 0
M  V30 141 O 15.635 1.89647 0.43175 0
M  V30 142 C 15.918 1.87187 -3.07625 0
M  V30 143 C 15.771 1.04138 -4.37579 0
M  V30 144 C 17.09 2.85749 -3.34717 0
M  V30 145 H 14.209 0.360841 -0.642622 0
M  V30 146 H 16.851 0.268218 -1.88097 0
M  V30 147 H 15.001 2.49279 -2.9798 0
M  V30 148 H 16.673 0.440517 -4.59192 0
M  V30 149 H 14.916 0.345115 -4.32425 0
M  V30 150 H 15.587 1.68729 -5.2558 0
M  V30 151 H 18.063 2.33793 -3.4421 0
M  V30 152 H 16.939 3.44136 -4.27623 0
M  V30 153 H 17.2 3.61311 -2.54768 0
M  V30 154 N 16.2591 1.48442 0.529413 0
M  V30 155 C 17.1891 1.65902 1.64313 0
M  V30 156 C 18.1701 0.507897 1.6234 0
M  V30 157 O 19.3551 0.740503 1.79528 0
M  V30 158 C 16.4851 1.69911 3.02898 0
M  V30 159 C 15.4391 2.8453 3.19729 0
M  V30 160 C 14.7651 2.73629 4.59381 0
M  V30 161 C 16.0651 4.25821 3.02447 0
M  V30 162 H 17.7591 2.5914 1.49955 0
M  V30 163 H 15.3051 1.24709 0.719982 0
M  V30 164 H 17.2581 1.80715 3.80684 0
M  V30 165 H 15.9821 0.732524 3.18279 0
M  V30 166 H 14.6411 2.73283 2.44361 0
M  V30 167 H 14.2891 1.74938 4.71599 0
M  V30 168 H 13.9891 3.50541 4.71588 0
M  V30 169 H 15.5131 2.86401 5.39265 0
M  V30 170 H 16.9271 4.37898 3.70024 0
M  V30 171 H 15.3241 5.03735 3.26146 0
M  V30 172 H 16.3941 4.42244 1.98867 0
M  V30 173 N 17.7372 -0.778329 1.37039 0
M  V30 174 C 19.1532 -1.07796 1.17695 0
M  V30 175 C 19.3532 -2.01498 0.00860115 0
M  V30 176 O 18.4092 -2.43901 -0.653352 0
M  V30 177 C 19.7222 -1.68178 2.49272 0
M  V30 178 C 21.2702 -1.80467 2.55735 0
M  V30 179 C 21.7452 -2.44263 3.87427 0
M  V30 180 N 23.2362 -2.51721 3.88833 0
M  V30 181 C 23.9712 -3.01919 4.87476 0
M  V30 182 N 23.4672 -3.5234 5.96513 0
M  V30 183 N 25.2602 -3.00733 4.74885 0
M  V30 184 H 17.4112 -0.156032 2.11826 0
M  V30 185 H 19.6742 -0.131844 0.938787 0
M  V30 186 H 19.3802 -1.06796 3.35093 0
M  V30 187 H 19.2542 -2.67554 2.65885 0
M  V30 188 H 21.6412 -2.40984 1.70325 0
M  V30 189 H 21.7222 -0.798656 2.43013 0
M  V30 190 H 21.3662 -1.84388 4.73248 0
M  V30 191 H 21.2962 -3.45458 3.9745 0
M  V30 192 H 23.7872 -2.1603 3.10063 0
M  V30 193 H 24.1002 -3.89027 6.67741 0
M  V30 194 H 22.4452 -3.50462 6.00168 0
M  V30 195 H 25.6362 -2.60638 3.88826 0
M  V30 196 H 25.8092 -3.39545 5.51918 0
M  V30 197 N 19.2153 -1.21501 -1.00376 0
M  V30 198 C 20.4633 -1.03095 -1.73827 0
M  V30 199 C 20.7843 0.436341 -1.90055 0
M  V30 200 O 20.0543 1.31466 -1.45236 0
M  V30 201 H 18.6343 -0.378487 -0.644016 0
M  V30 202 H 21.2963 -1.52831 -1.20949 0
M  V30 203 H 20.3923 -1.49991 -2.73695 0
M  V30 204 N 20.6934 1.19889 -1.02296 0
M  V30 205 C 21.6254 2.22334 -0.556787 0
M  V30 206 C 22.6384 1.58674 0.364199 0
M  V30 207 O 23.8274 1.77768 0.161533 0
M  V30 208 C 20.9274 3.38257 0.208694 0
M  V30 209 C 20.1004 4.31504 -0.71577 0
M  V30 210 C 19.1594 5.262 0.00325597 0
M  V30 211 O 18.1854 5.65798 -0.621357 0
M  V30 212 N 19.3874 5.66303 1.27599 0
M  V30 213 H 22.1524 2.62957 -1.43784 0
M  V30 214 H 19.7134 1.34495 -0.901261 0
M  V30 215 H 21.7054 3.98616 0.699111 0
M  V30 216 H 20.2754 2.96472 0.991102 0
M  V30 217 H 19.4954 3.69016 -1.38638 0
M  V30 218 H 20.7834 4.9072 -1.34428 0
M  V30 219 H 20.1814 5.36155 1.80429 0
M  V30 220 H 18.7384 6.28942 1.71102 0
M  V30 221 N 22.1715 0.800033 1.35784 0
M  V30 222 C 23.5825 0.439142 1.81462 0
M  V30 223 C 23.9335 -1.03813 1.66485 0
M  V30 224 O 23.0585 -1.80626 1.19177 0
M  V30 225 C 23.6535 0.790314 3.29453 0
M  V30 226 C 22.2125 0.482111 3.733 0
M  V30 227 C 21.3595 1.01938 2.57883 0
M  V30 228 H 24.3105 0.992254 1.23855 0
M  V30 229 H 24.3315 0.0853677 3.80404 0
M  V30 230 H 23.8435 1.86554 3.40322 0
M  V30 231 H 21.9445 -0.584652 3.67984 0
M  V30 232 H 22.0575 1.01015 4.6833 0
M  V30 233 H 20.4215 0.442043 2.50835 0
M  V30 234 H 21.2045 2.10059 2.71533 0
M  V30 235 N 23.6496 -1.47581 0.552962 0
M  V30 236 C 24.8966 -2.02482 0.0273243 0
M  V30 237 C 25.2246 -1.42776 -1.32081 0
M  V30 238 O 24.4796 -0.571393 -1.87173 0
M  V30 239 C 24.7786 -3.57199 -0.119728 0
M  V30 240 C 24.4446 -4.35804 1.15697 0
M  V30 241 C 23.1066 -4.57 1.50681 0
M  V30 242 C 25.4586 -4.81167 2.00319 0
M  V30 243 C 22.7866 -5.20807 2.70142 0
M  V30 244 C 25.1386 -5.46293 3.18978 0
M  V30 245 C 23.8026 -5.65722 3.54281 0
M  V30 246 H 23.0726 -0.740933 0.00999866 0
M  V30 247 H 25.7196 -1.77302 0.72362 0
M  V30 248 H 24.0246 -3.81348 -0.89896 0
M  V30 249 H 25.7216 -3.97324 -0.541718 0
M  V30 250 H 22.3116 -4.19582 0.874561 0
M  V30 251 H 26.4956 -4.64574 1.74599 0
M  V30 252 H 21.7516 -5.34045 2.97668 0
M  V30 253 H 25.9256 -5.80407 3.84838 0
M  V30 254 H 23.5526 -6.14936 4.46942 0
M  V30 255 N 25.1277 -0.289203 -1.54924 0
M  V30 256 C 26.3757 0.322879 -1.99504 0
M  V30 257 C 26.6967 1.55313 -1.1791 0
M  V30 258 O 25.9667 1.94001 -0.272097 0
M  V30 259 H 24.5467 0.122291 -0.736922 0
M  V30 260 H 27.2087 -0.397802 -1.90797 0
M  V30 261 H 26.3047 0.603061 -3.06218 0
M  V30 262 N 26.6058 1.57591 -0.0167156 0
M  V30 263 C 27.5688 2.08393 0.954204 0
M  V30 264 C 28.5688 0.996531 1.26198 0
M  V30 265 O 29.7588 1.25858 1.20438 0
M  V30 266 C 26.8908 2.5394 2.27436 0
M  V30 267 H 28.0838 2.95455 0.514451 0
M  V30 268 H 25.6368 1.54582 0.231089 0
M  V30 269 H 26.3718 1.70171 2.76066 0
M  V30 270 H 26.1568 3.33371 2.06412 0
M  V30 271 H 27.6468 2.93512 2.97053 0
M  V30 272 N 28.0839 -0.256276 1.55502 0
M  V30 273 C 29.0469 -1.30047 1.88734 0
M  V30 274 C 30.0469 -1.4154 0.763086 0
M  V30 275 O 31.2369 -1.40403 1.03115 0
M  V30 276 C 28.3689 -2.67953 2.10747 0
M  V30 277 H 29.5619 -1.01802 2.82093 0
M  V30 278 H 27.1149 -0.495134 1.4825 0
M  V30 279 H 27.8499 -3.01351 1.19825 0
M  V30 280 H 27.6349 -2.60993 2.92617 0
M  V30 281 H 29.1249 -3.43368 2.37673 0
M  V30 282 N 29.562 -1.4872 -0.521534 0
M  V30 283 C 30.808 -1.574 -1.27879 0
M  V30 284 C 31.141 -0.250817 -1.92573 0
M  V30 285 O 30.416 0.743934 -1.79711 0
M  V30 286 C 30.699 -2.71843 -2.36164 0
M  V30 287 C 30.552 -4.13893 -1.76105 0
M  V30 288 C 31.871 -2.82008 -3.37875 0
M  V30 289 H 28.99 -0.572941 -0.463581 0
M  V30 290 H 31.632 -1.80927 -0.580119 0
M  V30 291 H 29.782 -2.51914 -2.95756 0
M  V30 292 H 31.454 -4.45284 -1.20499 0
M  V30 293 H 29.697 -4.20498 -1.06601 0
M  V30 294 H 30.368 -4.89804 -2.5455 0
M  V30 295 H 32.844 -3.00086 -2.88249 0
M  V30 296 H 31.72 -3.63796 -4.11028 0
M  V30 297 H 31.981 -1.90511 -3.98946 0
M  V30 298 N 31.0401 0.771051 -1.3745 0
M  V30 299 C 32.2651 1.56529 -1.36065 0
M  V30 300 C 32.6901 1.88029 0.0515859 0
M  V30 301 O 32.0481 1.49282 1.02882 0
M  V30 302 C 32.0961 2.85187 -2.20683 0
M  V30 303 O 31.2001 3.79593 -1.61193 0
M  V30 304 H 30.5411 0.47411 -0.464883 0
M  V30 305 H 33.0711 0.954269 -1.80983 0
M  V30 306 H 33.0811 3.34283 -2.33921 0
M  V30 307 H 31.7561 2.61588 -3.23334 0
M  V30 308 H 30.3331 3.38239 -1.56999 0
M  V30 309 N 32.5182 1.22032 0.997298 0
M  V30 310 C 33.7462 1.06841 1.7718 0
M  V30 311 C 34.1612 -0.381325 1.84909 0
M  V30 312 O 33.5182 -1.26437 1.31605 0
M  V30 313 C 33.5692 1.66814 3.20711 0
M  V30 314 O 33.2902 3.06116 3.13408 0
M  V30 315 C 34.7912 1.56838 4.14628 0
M  V30 316 H 32.0112 0.374782 0.556578 0
M  V30 317 H 34.5552 1.61532 1.2541 0
M  V30 318 H 32.7102 1.16196 3.69564 0
M  V30 319 H 33.1242 3.34926 4.0364 0
M  V30 320 H 34.5982 2.03532 5.13107 0
M  V30 321 H 35.0752 0.524155 4.36061 0
M  V30 322 H 35.6812 2.06741 3.7167 0
M  V30 323 N 33.9963 -1.19345 1.0293 0
M  V30 324 C 34.9593 -2.20793 0.615069 0
M  V30 325 C 35.9593 -1.57553 -0.321533 0
M  V30 326 O 37.1493 -1.73862 -0.108483 0
M  V30 327 C 34.2813 -3.40754 -0.0999222 0
M  V30 328 H 35.4743 -2.58955 1.51269 0
M  V30 329 H 33.0273 -1.3303 0.820534 0
M  V30 330 H 33.7623 -3.0811 -1.01187 0
M  V30 331 H 33.5473 -3.87889 0.57309 0
M  V30 332 H 35.0373 -4.15898 -0.376645 0
M  V30 333 N 35.4744 -0.807222 -1.35358 0
M  V30 334 C 36.7224 -0.387122 -1.98358 0
M  V30 335 C 37.0434 1.04942 -1.64354 0
M  V30 336 O 36.3134 1.72615 -0.926339 0
M  V30 337 H 34.8934 -0.140154 -0.733734 0
M  V30 338 H 37.5554 -1.0332 -1.6526 0
M  V30 339 H 36.6514 -0.493352 -3.08176 0
M  V30 340 N 36.9525 1.47285 -0.560781 0
M  V30 341 C 37.8625 2.33846 0.187954 0
M  V30 342 C 38.8785 1.48412 0.908293 0
M  V30 343 O 40.0545 1.81332 0.876388 0
M  V30 344 C 37.1195 3.25178 1.2025 0
M  V30 345 C 36.1805 4.26504 0.489208 0
M  V30 346 C 35.4135 5.13472 1.45542 0
M  V30 347 O 35.6365 5.02959 2.6905 0
M  V30 348 O 34.5705 5.93902 0.977963 0
M  V30 349 H 38.3965 2.99177 -0.522177 0
M  V30 350 H 35.9815 1.45903 -0.321364 0
M  V30 351 H 37.8635 3.81584 1.78805 0
M  V30 352 H 36.5385 2.6247 1.89449 0
M  V30 353 H 35.4455 3.73847 -0.137627 0
M  V30 354 H 36.7785 4.91935 -0.161399 0
M  V30 355 N 38.4306 0.297415 1.54768 0
M  V30 356 C 39.6766 -0.313376 2.00364 0
M  V30 357 C 40.0096 -1.53815 1.18553 0
M  V30 358 O 39.2846 -1.92739 0.261103 0
M  V30 359 C 39.5676 -0.673525 3.53745 0
M  V30 360 C 39.4206 0.560133 4.46299 0
M  V30 361 C 40.7396 -1.50143 4.13697 0
M  V30 362 H 37.8586 -0.112428 0.728374 0
M  V30 363 H 40.5006 0.4088 1.8555 0
M  V30 364 H 38.6506 -1.28881 3.665 0
M  V30 365 H 40.3226 1.19863 4.45455 0
M  V30 366 H 38.5656 1.19405 4.17043 0
M  V30 367 H 39.2366 0.26405 5.51368 0
M  V30 368 H 41.7126 -0.981588 4.04356 0
M  V30 369 H 40.5886 -1.72221 5.21182 0
M  V30 370 H 40.8496 -2.48952 3.65343 0
M  V30 371 N 39.9087 -1.5758 0.0250728 0
M  V30 372 C 41.1547 -1.91917 -0.655413 0
M  V30 373 C 41.4877 -0.901433 -1.72011 0
M  V30 374 O 40.7627 0.0764069 -1.9435 0
M  V30 375 C 41.0457 -3.36751 -1.27558 0
M  V30 376 C 40.8987 -4.49258 -0.220719 0
M  V30 377 C 42.2177 -3.81469 -2.19475 0
M  V30 378 H 39.3367 -0.697925 -0.23679 0
M  V30 379 H 41.9787 -1.89825 0.0815036 0
M  V30 380 H 40.1287 -3.38664 -1.90365 0
M  V30 381 H 41.8007 -4.59478 0.409601 0
M  V30 382 H 40.0437 -4.31415 0.454264 0
M  V30 383 H 40.7147 -5.47618 -0.694175 0
M  V30 384 H 43.1907 -3.81266 -1.66659 0
M  V30 385 H 42.0667 -4.83512 -2.59822 0
M  V30 386 H 42.3277 -3.16744 -3.08424 0
M  V30 387 N 41.3868 0.248026 -1.55636 0
M  V30 388 C 42.6338 0.976224 -1.77415 0
M  V30 389 C 42.9618 1.85361 -0.589193 0
M  V30 390 O 42.2168 1.90973 0.427529 0
M  V30 391 C 42.5158 1.86819 -3.04686 0
M  V30 392 C 42.1818 1.14625 -4.36087 0
M  V30 393 C 40.8438 0.946723 -4.71795 0
M  V30 394 C 43.1958 0.634463 -5.17324 0
M  V30 395 C 40.5238 0.223091 -5.86276 0
M  V30 396 C 42.8758 -0.0756959 -6.32555 0
M  V30 397 C 41.5398 -0.286711 -6.66884 0
M  V30 398 H 40.8098 0.357226 -0.649208 0
M  V30 399 H 43.4568 0.246415 -1.89908 0
M  V30 400 H 41.7618 2.66502 -2.872 0
M  V30 401 H 43.4588 2.43329 -3.18735 0
M  V30 402 H 40.0488 1.3117 -4.08035 0
M  V30 403 H 44.2328 0.77616 -4.90193 0
M  V30 404 H 39.4888 0.0491185 -6.1138 0
M  V30 405 H 43.6628 -0.479899 -6.94745 0
M  V30 406 H 41.2898 -0.849389 -7.5544 0
M  V30 407 N 42.8649 1.48995 0.513639 0
M  V30 408 C 43.7969 1.60836 1.63293 0
M  V30 409 C 44.8099 0.491701 1.55197 0
M  V30 410 O 45.9989 0.763238 1.6136 0
M  V30 411 C 43.0989 1.53731 3.02027 0
M  V30 412 C 42.2719 2.80715 3.35437 0
M  V30 413 C 41.3309 2.66837 4.53525 0
M  V30 414 O 40.3569 3.40753 4.55934 0
M  V30 415 N 41.5589 1.77539 5.52684 0
M  V30 416 H 44.3239 2.57366 1.53566 0
M  V30 417 H 41.8849 1.45925 0.701259 0
M  V30 418 H 43.8769 1.42118 3.78926 0
M  V30 419 H 42.4469 0.651092 3.05744 0
M  V30 420 H 41.6669 3.06772 2.47557 0
M  V30 421 H 42.9549 3.64927 3.54551 0
M  V30 422 H 42.3529 1.16719 5.53528 0
M  V30 423 H 40.9099 1.71856 6.28736 0
M  V30 424 N 44.343 -0.763751 1.37857 0
M  V30 425 C 45.571 -1.55293 1.36718 0
M  V30 426 C 45.986 -1.88745 -0.0455434 0
M  V30 427 O 45.343 -1.52039 -1.00947 0
M  V30 428 C 45.394 -2.85831 2.2132 0
M  V30 429 O 45.115 -2.5381 3.57089 0
M  V30 430 C 46.616 -3.80023 2.28249 0
M  V30 431 H 43.836 -0.480841 0.468009 0
M  V30 432 H 46.38 -0.946009 1.81303 0
M  V30 433 H 44.535 -3.42926 1.80223 0
M  V30 434 H 44.949 -3.37459 4.01524 0
M  V30 435 H 46.423 -4.68599 2.91752 0
M  V30 436 H 46.9 -4.1973 1.2932 0
M  V30 437 H 47.506 -3.28855 2.69693 0
M  V30 438 N 45.8211 -1.22559 -0.990812 0
M  V30 439 C 47.0691 -1.04933 -1.72724 0
M  V30 440 C 47.3901 0.416158 -1.90508 0
M  V30 441 O 46.6601 1.29918 -1.46622 0
M  V30 442 H 45.2401 -0.385296 -0.639965 0
M  V30 443 H 47.9021 -1.54105 -1.19322 0
M  V30 444 H 46.9981 -1.52886 -2.72089 0
M  V30 445 N 47.2992 1.18797 -1.03562 0
M  V30 446 C 48.2322 2.2105 -0.56676 0
M  V30 447 C 49.2102 1.57704 0.395993 0
M  V30 448 O 50.3942 1.85908 0.311498 0
M  V30 449 C 47.5212 3.38259 0.172704 0
M  V30 450 C 46.5672 4.19987 -0.74252 0
M  V30 451 S 47.4002 4.87199 -2.22254 0
M  V30 452 C 48.5562 6.07813 -1.49379 0
M  V30 453 H 48.7892 2.60478 -1.43312 0
M  V30 454 H 46.3222 1.29151 -0.846133 0
M  V30 455 H 48.2802 4.06191 0.593191 0
M  V30 456 H 46.9412 2.97252 1.01488 0
M  V30 457 H 46.1342 5.03709 -0.171265 0
M  V30 458 H 45.7362 3.57408 -1.10163 0
M  V30 459 H 48.0282 6.72948 -0.784056 0
M  V30 460 H 48.9712 6.69435 -2.30786 0
M  V30 461 H 49.3792 5.55781 -0.988331 0
M  V30 462 N 48.7773 0.814389 1.34928 0
M  V30 463 C 50.0233 0.399013 1.98836 0
M  V30 464 C 50.3563 -1.03314 1.64438 0
M  V30 465 O 49.6313 -1.71811 0.911659 0
M  V30 466 C 49.9143 0.591629 3.55207 0
M  V30 467 C 49.7673 2.06928 3.99376 0
M  V30 468 C 51.0863 0.022199 4.40094 0
M  V30 469 H 48.2053 0.146451 0.722303 0
M  V30 470 H 50.8473 1.02537 1.59957 0
M  V30 471 H 48.9973 0.0584441 3.88456 0
M  V30 472 H 50.6693 2.66544 3.76499 0
M  V30 473 H 48.9123 2.56287 3.49999 0
M  V30 474 H 49.5833 2.1549 5.08201 0
M  V30 475 H 52.0593 0.477643 4.13349 0
M  V30 476 H 50.9353 0.186832 5.48582 0
M  V30 477 H 51.1963 -1.07215 4.28902 0
M  V30 478 N 50.2554 -1.46986 0.568584 0
M  V30 479 C 51.5034 -2.02041 0.0487022 0
M  V30 480 C 51.8244 -1.44408 -1.31039 0
M  V30 481 O 51.0944 -0.623477 -1.85714 0
M  V30 482 H 49.6744 -0.746849 0.015014 0
M  V30 483 H 52.3364 -1.80257 0.741168 0
M  V30 484 H 51.4324 -3.12085 -0.0308961 0
M  V30 485 N 51.7335 -0.305618 -1.54608 0
M  V30 486 C 52.9635 0.304333 -2.04346 0
M  V30 487 C 53.3715 1.47715 -1.18224 0
M  V30 488 O 52.7145 1.82591 -0.201577 0
M  V30 489 C 52.7765 0.819031 -3.50046 0
M  V30 490 C 52.4405 -0.22912 -4.56425 0
M  V30 491 C 53.4375 -1.05914 -5.08997 0
M  V30 492 C 51.1225 -0.372148 -5.0092 0
M  V30 493 C 53.1165 -2.01809 -6.04609 0
M  V30 494 C 50.8035 -1.33454 -5.9635 0
M  V30 495 C 51.8015 -2.15599 -6.48079 0
M  V30 496 O 51.4895 -3.10205 -7.41639 0
M  V30 497 H 51.2215 0.0693996 -0.672428 0
M  V30 498 H 53.7755 -0.444548 -2.00532 0
M  V30 499 H 52.0055 1.61852 -3.51199 0
M  V30 500 H 53.6945 1.34537 -3.82955 0
M  V30 501 H 54.4605 -0.959538 -4.75413 0
M  V30 502 H 50.3395 0.257304 -4.60281 0
M  V30 503 H 53.8835 -2.65966 -6.44909 0
M  V30 504 H 49.7805 -1.43485 -6.29351 0
M  V30 505 H 50.5485 -3.05237 -7.59455 0
M  V30 506 N 53.2116 1.57565 -0.0334293 0
M  V30 507 C 54.6226 1.79746 0.504798 0
M  V30 508 C 54.9736 0.944091 1.71992 0
M  V30 509 O 54.0986 0.155694 2.15839 0
M  V30 510 C 54.6936 3.25997 0.922567 0
M  V30 511 C 53.2526 3.49159 1.40588 0
M  V30 512 C 52.3996 2.74785 0.372633 0
M  V30 513 H 55.3506 1.56565 -0.259436 0
M  V30 514 H 55.3716 3.35945 1.78666 0
M  V30 515 H 54.8836 3.88081 0.0379825 0
M  V30 516 H 52.9846 2.92332 2.31025 0
M  V30 517 H 53.0976 4.57873 1.41028 0
M  V30 518 H 51.4616 2.40391 0.841672 0
M  V30 519 H 52.2446 3.39587 -0.503559 0
M  V30 520 N 54.6897 -0.239769 1.55765 0
M  V30 521 C 55.5997 -1.31831 1.94056 0
M  V30 522 C 56.6157 -1.52275 0.841925 0
M  V30 523 O 57.7917 -1.65759 1.14394 0
M  V30 524 C 54.8567 -2.65156 2.23368 0
M  V30 525 C 53.9177 -2.53173 3.46701 0
M  V30 526 C 53.1507 -3.8014 3.74606 0
M  V30 527 O 53.3737 -4.82343 3.04469 0
M  V30 528 O 52.3077 -3.78344 4.68123 0
M  V30 529 H 56.1337 -1.02347 2.85935 0
M  V30 530 H 53.7187 -0.441123 1.42739 0
M  V30 531 H 55.6007 -3.43929 2.43497 0
M  V30 532 H 54.2757 -2.94358 1.34666 0
M  V30 533 H 53.1827 -1.72662 3.31871 0
M  V30 534 H 54.5157 -2.28915 4.35728 0
M  V30 535 N 56.1678 -1.49265 -0.50573 0
M  V30 536 C 57.1308 -1.65075 -1.59006 0
M  V30 537 C 58.1308 -0.522768 -1.52065 0
M  V30 538 O 59.3208 -0.789117 -1.55302 0
M  V30 539 C 56.4528 -1.64369 -2.98656 0
M  V30 540 H 57.6458 -2.61784 -1.46319 0
M  V30 541 H 55.1988 -1.38226 -0.729616 0
M  V30 542 H 55.9338 -0.692272 -3.16825 0
M  V30 543 H 55.7188 -2.46282 -3.05103 0
M  V30 544 H 57.2088 -1.78674 -3.77446 0
M  V30 545 N 57.6459 0.756429 -1.3826 0
M  V30 546 C 58.5759 1.88374 -1.37976 0
M  V30 547 C 59.5569 1.68311 -0.246082 0
M  V30 548 O 60.7419 1.88944 -0.44874 0
M  V30 549 C 57.8719 3.25864 -1.20125 0
M  V30 550 C 56.8259 3.60523 -2.30666 0
M  V30 551 C 56.1519 4.9672 -1.97923 0
M  V30 552 C 57.4519 3.65692 -3.72916 0
M  V30 553 H 59.1459 1.88869 -2.32312 0
M  V30 554 H 56.6919 0.907272 -1.11824 0
M  V30 555 H 58.6449 4.0438 -1.18552 0
M  V30 556 H 57.3689 3.25841 -0.222498 0
M  V30 557 H 56.0279 2.84324 -2.3142 0
M  V30 558 H 55.6759 4.93253 -0.985393 0
M  V30 559 H 55.3759 5.20878 -2.71955 0
M  V30 560 H 56.8999 5.77618 -1.97964 0
M  V30 561 H 58.3139 4.34328 -3.74208 0
M  V30 562 H 56.7109 4.01358 -4.4613 0
M  V30 563 H 57.7809 2.65987 -4.05436 0
M  V30 564 N 59.124 1.23083 0.984299 0
M  V30 565 C 60.352 1.08714 1.76037 0
M  V30 566 C 60.767 -0.361691 1.85303 0
M  V30 567 O 60.124 -1.25034 1.32939 0
M  V30 568 C 60.175 1.70206 3.18923 0
M  V30 569 O 59.896 3.09423 3.10144 0
M  V30 570 C 61.397 1.61227 4.12941 0
M  V30 571 H 58.617 0.380664 0.552572 0
M  V30 572 H 61.161 1.62853 1.23689 0
M  V30 573 H 59.316 1.20109 3.6831 0
M  V30 574 H 59.73 3.39188 4.00065 0
M  V30 575 H 61.204 2.08962 5.10919 0
M  V30 576 H 61.681 0.570375 4.35481 0
M  V30 577 H 62.287 2.10671 3.69456 0
M  V30 578 N 60.6021 -1.18246 1.0419 0
M  V30 579 C 61.8791 -1.84121 0.660208 0
M  V30 580 C 62.2591 -1.92778 -0.860221 0
M  V30 581 O 61.6071 -1.45464 -1.76217 0
M  V30 582 C 61.8171 -3.22355 1.33747 0
M  V30 583 C 63.1651 -3.98376 1.46906 0
M  V30 584 O 64.1891 -3.31799 1.29568 0
M  V30 585 O 63.0481 -5.17665 1.75171 0
M  V30 586 H 60.1421 -0.794036 0.231161 0
M  V30 587 H 62.6881 -1.25628 1.14087 0
M  V30 588 H 61.4601 -3.10964 2.37522 0
M  V30 589 H 61.0831 -3.88506 0.845515 0
M  V30 590 N 62.0802 -0.821533 -1.34494 0
M  V30 591 C 63.4912 -0.467956 -1.8074 0
M  V30 592 C 63.8422 1.01151 -1.68116 0
M  V30 593 O 62.9672 1.78707 -1.22036 0
M  V30 594 C 63.5622 -0.842627 -3.28154 0
M  V30 595 C 62.1212 -0.541439 -3.72485 0
M  V30 596 C 61.2682 -1.06028 -2.56229 0
M  V30 597 H 64.2192 -1.01183 -1.22261 0
M  V30 598 H 64.2402 -0.145876 -3.8022 0
M  V30 599 H 63.7522 -1.91945 -3.37311 0
M  V30 600 H 61.8532 0.526034 -3.68868 0
M  V30 601 H 61.9662 -1.08453 -4.66663 0
M  V30 602 H 60.3302 -0.481892 -2.501 0
M  V30 603 H 61.1132 -2.14352 -2.68157 0
M  V30 604 N 63.5583 1.46682 -0.576371 0
M  V30 605 C 64.7833 2.07304 -0.0630475 0
M  V30 606 C 65.2083 1.42329 1.2298 0
M  V30 607 O 64.5663 0.504865 1.74129 0
M  V30 608 C 64.6143 3.60472 0.095895 0
M  V30 609 O 63.7183 3.95927 1.15394 0
M  V30 610 H 63.0593 0.661288 -0.0599463 0
M  V30 611 H 65.5893 1.88417 -0.797511 0
M  V30 612 H 65.5993 4.06865 0.304071 0
M  V30 613 H 64.2743 4.07157 -0.84828 0
M  V30 614 H 62.8513 3.61252 0.924724 0
M  V30 615 N 65.0364 0.313813 1.54444 0
M  V30 616 C 66.2664 -0.293491 2.04505 0
M  V30 617 C 66.6744 -1.47086 1.19005 0
M  V30 618 O 66.0174 -1.82481 0.211257 0
M  V30 619 C 66.0794 -0.800455 3.50475 0
M  V30 620 C 65.7434 0.253322 4.56297 0
M  V30 621 C 66.7404 1.08612 5.08428 0
M  V30 622 C 64.4254 0.398708 5.00715 0
M  V30 623 C 66.4194 2.05013 6.0353 0
M  V30 624 C 64.1064 1.36614 5.95634 0
M  V30 625 C 65.1044 2.19033 6.46926 0
M  V30 626 O 64.7924 3.14134 7.39983 0
M  V30 627 H 64.5244 -0.0658325 0.672787 0
M  V30 628 H 67.0784 0.455177 2.00293 0
M  V30 629 H 65.3084 -1.59987 3.52053 0
M  V30 630 H 66.9974 -1.32504 3.83663 0
M  V30 631 H 67.7634 0.984736 4.74898 0
M  V30 632 H 63.6424 -0.23289 4.60411 0
M  V30 633 H 67.1864 2.69382 6.4349 0
M  V30 634 H 63.0834 1.4682 6.28581 0
M  V30 635 H 63.8514 3.0926 7.57826 0
M  V30 636 N 66.5145 -1.57545 0.0417849 0
M  V30 637 C 67.4615 -2.10977 -0.935805 0
M  V30 638 C 68.4315 -1.01486 -1.31491 0
M  V30 639 O 69.6165 -1.2898 -1.40602 0
M  V30 640 C 66.7565 -2.65169 -2.2086 0
M  V30 641 C 65.8695 -3.88714 -1.88482 0
M  V30 642 C 65.0045 -4.31254 -3.1015 0
M  V30 643 C 64.0435 -5.47524 -2.7365 0
M  V30 644 N 63.1805 -5.85162 -3.87982 0
M  V30 645 H 68.0205 -2.94218 -0.473249 0
M  V30 646 H 65.5575 -1.45415 -0.221981 0
M  V30 647 H 67.5155 -2.94685 -2.95325 0
M  V30 648 H 66.1455 -1.8474 -2.64709 0
M  V30 649 H 65.1975 -3.65849 -1.04205 0
M  V30 650 H 66.5095 -4.73245 -1.57608 0
M  V30 651 H 65.6635 -4.62273 -3.92923 0
M  V30 652 H 64.4025 -3.45516 -3.44195 0
M  V30 653 H 63.4075 -5.16187 -1.89291 0
M  V30 654 H 64.6325 -6.34971 -2.40807 0
M  V30 655 H 62.5785 -5.02377 -4.21846 0
M  V30 656 H 62.4955 -6.64362 -3.60775 0
M  V30 657 H 63.7635 -6.20791 -4.71422 0
M  V30 658 N 67.9926 0.231505 -1.5589 0
M  V30 659 C 68.9556 1.27028 -1.90779 0
M  V30 660 C 69.9556 1.40308 -0.785507 0
M  V30 661 O 71.1456 1.38744 -1.05336 0
M  V30 662 C 68.2776 2.64566 -2.14983 0
M  V30 663 H 69.4706 0.973017 -2.83677 0
M  V30 664 H 67.0236 0.471486 -1.49019 0
M  V30 665 H 67.7586 2.99406 -1.24604 0
M  V30 666 H 67.5436 2.56305 -2.96732 0
M  V30 667 H 69.0336 3.39543 -2.43105 0
M  V30 668 N 69.4707 1.49531 0.497807 0
M  V30 669 C 70.4027 1.62559 1.61578 0
M  V30 670 C 71.4157 0.508134 1.54667 0
M  V30 671 O 72.6047 0.780309 1.60541 0
M  V30 672 C 69.7047 1.56925 3.00379 0
M  V30 673 C 68.8777 2.84257 3.3244 0
M  V30 674 C 67.9367 2.71632 4.50669 0
M  V30 675 O 66.9627 3.4557 4.52294 0
M  V30 676 N 68.1647 1.83391 5.5077 0
M  V30 677 H 70.9297 2.58981 1.50828 0
M  V30 678 H 68.4907 1.4666 0.685743 0
M  V30 679 H 70.4827 1.46129 3.77397 0
M  V30 680 H 69.0527 0.683483 3.05037 0
M  V30 681 H 68.2727 3.09381 2.44289 0
M  V30 682 H 69.5607 3.68666 3.5066 0
M  V30 683 H 68.9587 1.22583 5.52259 0
M  V30 684 H 67.5157 1.78515 6.26878 0
M  V30 685 N 70.9488 -0.749086 1.3866 0
M  V30 686 C 72.1978 -1.50371 1.3443 0
M  V30 687 C 72.5108 -1.95503 -0.0616397 0
M  V30 688 O 73.7168 -2.70554 -0.226489 0
M  V30 689 C 72.1728 -2.71644 2.36088 0
M  V30 690 C 71.7808 -2.3352 3.82325 0
M  V30 691 C 73.5248 -3.49518 2.40909 0
M  V30 692 C 71.4318 -3.51431 4.75658 0
M  V30 693 H 70.3618 -0.564628 0.499712 0
M  V30 694 H 73.0128 -0.818449 1.64237 0
M  V30 695 H 71.3948 -3.42175 1.9933 0
M  V30 696 H 72.5688 -1.70627 4.28046 0
M  V30 697 H 70.8838 -1.6877 3.80665 0
M  V30 698 H 73.4808 -4.37197 3.07836 0
M  V30 699 H 73.8238 -3.90992 1.42937 0
M  V30 700 H 74.3568 -2.86005 2.76489 0
M  V30 701 H 71.0958 -3.15019 5.74842 0
M  V30 702 H 70.6158 -4.13352 4.34627 0
M  V30 703 H 72.2948 -4.17953 4.93887 0
M  V30 704 N 72.4269 -1.23603 -0.977757 0
M  V30 705 C 73.3569 -1.04401 -2.0886 0
M  V30 706 C 74.3379 0.0399052 -1.70053 0
M  V30 707 O 75.5229 -0.125246 -1.93796 0
M  V30 708 C 72.6529 -0.637269 -3.41403 0
M  V30 709 C 71.6069 -1.66883 -3.94124 0
M  V30 710 C 70.9329 -1.11745 -5.22893 0
M  V30 711 C 72.2329 -3.06247 -4.23096 0
M  V30 712 H 73.9269 -1.97316 -2.25182 0
M  V30 713 H 71.4729 -0.950096 -1.08209 0
M  V30 714 H 73.4259 -0.48998 -4.18542 0
M  V30 715 H 72.1499 0.327557 -3.24953 0
M  V30 716 H 70.8089 -1.80416 -3.19133 0
M  V30 717 H 70.4569 -0.143527 -5.02795 0
M  V30 718 H 70.1569 -1.80672 -5.59134 0
M  V30 719 H 71.6809 -0.982067 -6.02651 0
M  V30 720 H 73.0949 -2.96001 -4.90975 0
M  V30 721 H 71.4919 -3.72436 -4.70544 0
M  V30 722 H 72.5619 -3.55041 -3.30263 0
M  V30 723 N 73.905 1.17692 -1.04816 0
M  V30 724 C 75.151 1.88137 -0.75711 0
M  V30 725 C 75.484 1.80604 0.713841 0
M  V30 726 O 74.759 1.21146 1.52164 0
M  V30 727 C 75.042 3.38318 -1.2334 0
M  V30 728 C 74.895 3.54622 -2.76701 0
M  V30 729 C 76.214 4.32214 -0.829415 0
M  V30 730 H 73.333 0.683163 -0.27651 0
M  V30 731 H 75.975 1.38424 -1.30149 0
M  V30 732 H 74.125 3.80787 -0.770286 0
M  V30 733 H 75.797 3.21194 -3.31107 0
M  V30 734 H 74.04 2.97026 -3.16161 0
M  V30 735 H 74.711 4.60028 -3.05088 0
M  V30 736 H 77.187 3.97565 -1.22805 0
M  V30 737 H 76.063 5.35838 -1.19033 0
M  V30 738 H 76.324 4.41294 0.266891 0
M  V30 739 N 75.3831 0.828654 1.34056 0
M  V30 740 C 76.3131 0.269443 2.3194 0
M  V30 741 C 77.2941 -0.617247 1.58506 0
M  V30 742 O 78.4791 -0.542931 1.86456 0
M  V30 743 C 75.6091 -0.564793 3.42677 0
M  V30 744 C 74.5631 0.225241 4.27407 0
M  V30 745 C 73.8891 -0.7321 5.29664 0
M  V30 746 C 75.1891 1.43663 5.02154 0
M  V30 747 H 76.8831 1.08728 2.7896 0
M  V30 748 H 74.4291 0.524283 1.34117 0
M  V30 749 H 76.3821 -0.966233 4.10173 0
M  V30 750 H 75.1061 -1.41574 2.9432 0
M  V30 751 H 73.7651 0.608117 3.61521 0
M  V30 752 H 73.4131 -1.57916 4.77568 0
M  V30 753 H 73.1131 -0.20767 5.87233 0
M  V30 754 H 74.6371 -1.13128 6.00029 0
M  V30 755 H 76.0511 1.1089 5.62473 0
M  V30 756 H 74.4481 1.89711 5.69324 0
M  V30 757 H 75.5181 2.21181 4.31517 0
M  V30 758 N 76.8612 -1.46375 0.584142 0
M  V30 759 C 78.0892 -2.06761 0.0759296 0
M  V30 760 C 78.5042 -1.43266 -1.22965 0
M  V30 761 O 77.8612 -0.538458 -1.74376 0
M  V30 762 C 77.9122 -3.61375 -0.0950384 0
M  V30 763 O 77.6332 -4.22495 1.15887 0
M  V30 764 C 79.1342 -4.38693 -0.637434 0
M  V30 765 H 76.3542 -0.668479 0.0581075 0
M  V30 766 H 78.8982 -1.8798 0.805218 0
M  V30 767 H 77.0532 -3.79578 -0.774554 0
M  V30 768 H 77.4672 -5.15385 0.973598 0
M  V30 769 H 78.9412 -5.47464 -0.706237 0
M  V30 770 H 79.4182 -4.06836 -1.65472 0
M  V30 771 H 80.0242 -4.25299 0.00725967 0
M  V30 772 N 78.3393 -0.321999 -1.54275 0
M  V30 773 C 79.5693 0.282642 -2.04658 0
M  V30 774 C 79.9773 1.46453 -1.19784 0
M  V30 775 O 79.3203 1.82367 -0.220932 0
M  V30 776 C 79.3823 0.781857 -3.50895 0
M  V30 777 C 79.0463 -0.277517 -4.56157 0
M  V30 778 C 80.0433 -1.11307 -5.07845 0
M  V30 779 C 77.7283 -0.425256 -5.00497 0
M  V30 780 C 79.7223 -2.08211 -6.02434 0
M  V30 781 C 77.4093 -1.39771 -5.94901 0
M  V30 782 C 78.4073 -2.2246 -6.45756 0
M  V30 783 O 78.0953 -3.18054 -7.38307 0
M  V30 784 H 77.8273 0.0622636 -0.673126 0
M  V30 785 H 80.3813 -0.465792 -2.00049 0
M  V30 786 H 78.6113 1.58118 -3.52896 0
M  V30 787 H 80.3003 1.30467 -3.84361 0
M  V30 788 H 81.0663 -1.00991 -4.74369 0
M  V30 789 H 76.9453 0.20847 -4.60528 0
M  V30 790 H 80.4893 -2.72791 -6.42052 0
M  V30 791 H 76.3863 -1.50152 -6.27794 0
M  V30 792 H 77.1543 -3.13275 -7.56175 0
M  V30 793 N 79.8174 1.5752 -0.0501392 0
M  V30 794 C 81.2284 1.80271 0.485705 0
M  V30 795 C 81.5794 0.96228 1.70981 0
M  V30 796 O 80.7044 0.178578 2.15662 0
M  V30 797 C 81.2994 3.26957 0.887938 0
M  V30 798 C 79.8584 3.5063 1.36877 0
M  V30 799 C 79.0054 2.75165 0.343468 0
M  V30 800 H 81.9564 1.56281 -0.276028 0
M  V30 801 H 81.9774 3.37821 1.75093 0
M  V30 802 H 81.4894 3.881 -0.0031809 0
M  V30 803 H 79.5904 2.94766 2.27911 0
M  V30 804 H 79.7034 4.59343 1.36164 0
M  V30 805 H 78.0674 2.4127 0.816128 0
M  V30 806 H 78.8504 3.39034 -0.539548 0
M  V30 807 N 81.2955 -0.223234 1.56011 0
M  V30 808 C 82.2255 -1.27988 1.95298 0
M  V30 809 C 83.2065 -1.48976 0.820979 0
M  V30 810 O 84.3915 -1.61188 1.08315 0
M  V30 811 C 81.5215 -2.63 2.26822 0
M  V30 812 C 80.4755 -2.56671 3.42497 0
M  V30 813 C 79.8015 -3.95697 3.59622 0
M  V30 814 C 81.1015 -2.11601 4.77517 0
M  V30 815 H 82.7955 -0.953525 2.8381 0
M  V30 816 H 80.3415 -0.457244 1.36548 0
M  V30 817 H 82.2945 -3.37077 2.52898 0
M  V30 818 H 81.0185 -2.9732 1.35161 0
M  V30 819 H 79.6775 -1.85051 3.16467 0
M  V30 820 H 79.3255 -4.27322 2.6534 0
M  V30 821 H 79.0255 -3.92345 4.37424 0
M  V30 822 H 80.5495 -4.71438 3.88044 0
M  V30 823 H 81.9635 -2.7542 5.02809 0
M  V30 824 H 80.3605 -2.19311 5.5859 0
M  V30 825 H 81.4305 -1.06824 4.72987 0
M  V30 826 N 82.7736 -1.49793 -0.48987 0
M  V30 827 C 84.0226 -1.59085 -1.23995 0
M  V30 828 C 84.3356 -0.287907 -1.9347 0
M  V30 829 O 85.5416 -0.259506 -2.70257 0
M  V30 830 C 83.9976 -2.80736 -2.252 0
M  V30 831 C 83.6056 -4.17833 -1.61614 0
M  V30 832 C 85.3496 -2.99364 -3.00967 0
M  V30 833 C 83.2566 -5.30693 -2.60996 0
M  V30 834 H 82.1866 -0.592372 -0.466488 0
M  V30 835 H 84.8376 -1.76197 -0.51252 0
M  V30 836 H 83.2196 -2.57142 -3.01154 0
M  V30 837 H 84.3936 -4.51608 -0.915774 0
M  V30 838 H 82.7086 -4.04656 -0.981977 0
M  V30 839 H 85.3056 -3.80851 -3.75308 0
M  V30 840 H 85.6486 -2.10356 -3.59244 0
M  V30 841 H 86.1816 -3.2305 -2.32128 0
M  V30 842 H 82.9206 -6.21796 -2.07485 0
M  V30 843 H 82.4406 -5.01359 -3.2924 0
M  V30 844 H 84.1196 -5.6049 -3.23202 0
M  V30 845 N 84.2517 0.741722 -1.39055 0
M  V30 846 C 85.4997 1.49818 -1.35643 0
M  V30 847 C 85.8207 1.94938 0.0491642 0
M  V30 848 O 85.0907 1.68505 0.999141 0
M  V30 849 H 83.6707 0.555755 -0.499144 0
M  V30 850 H 86.3327 0.880957 -1.73854 0
M  V30 851 H 85.4287 2.38348 -2.01486 0
M  V30 852 N 85.7298 1.2412 0.971189 0
M  V30 853 C 86.6778 1.02812 2.08644 0
M  V30 854 C 87.6718 -0.0358403 1.69362 0
M  V30 855 O 88.8778 0.118429 1.7961 0
M  V30 856 H 85.2528 0.315428 0.682649 0
M  V30 857 H 87.2238 1.97397 2.23779 0
M  V30 858 C 85.9728 0.645874 3.41649 0
M  V30 859 H 85.2958 1.45632 3.72332 0
M  V30 860 H 86.7358 0.536366 4.20594 0
M  V30 861 C 85.1948 -0.646713 3.30635 0
M  V30 862 O 85.7248 -1.69338 3.64263 0
M  V30 863 N 83.9308 -0.626115 2.83775 0
M  V30 864 H 83.4778 0.225988 2.56607 0
M  V30 865 H 83.4358 -1.49117 2.76788 0
M  V30 866 N 87.2079 -1.17134 1.05439 0
M  V30 867 C 88.4379 -1.91094 0.785274 0
M  V30 868 C 88.8459 -1.77198 -0.663142 0
M  V30 869 O 88.1889 -1.10835 -1.46497 0
M  V30 870 C 88.2509 -3.42594 1.08949 0
M  V30 871 C 87.9149 -3.80274 2.53458 0
M  V30 872 C 88.9119 -3.82912 3.51673 0
M  V30 873 C 86.5969 -4.11162 2.88532 0
M  V30 874 C 88.5909 -4.15913 4.83006 0
M  V30 875 C 86.2779 -4.43831 4.20068 0
M  V30 876 C 87.2759 -4.46185 5.17115 0
M  V30 877 O 86.9639 -4.78083 6.46291 0
M  V30 878 H 86.6959 -0.613073 0.284811 0
M  V30 879 H 89.2499 -1.49461 1.40893 0
M  V30 880 H 87.4799 -3.84534 0.408741 0
M  V30 881 H 89.1689 -3.97817 0.805991 0
M  V30 882 H 89.9349 -3.5917 3.25917 0
M  V30 883 H 85.8139 -4.085 2.13656 0
M  V30 884 H 89.3579 -4.17665 5.5875 0
M  V30 885 H 85.2549 -4.67037 4.45586 0
M  V30 886 H 86.0229 -4.9593 6.51149 0
M  V30 887 N 88.686 -0.835752 -1.33615 0
M  V30 888 C 89.934 -0.429109 -1.97492 0
M  V30 889 C 90.255 1.01433 -1.66543 0
M  V30 890 O 89.525 1.70611 -0.962744 0
M  V30 891 H 88.105 -0.155686 -0.730596 0
M  V30 892 H 90.767 -1.06802 -1.63031 0
M  V30 893 H 89.863 -0.55861 -3.0706 0
M  V30 894 N 90.1641 1.46063 -0.591896 0
M  V30 895 C 91.4131 2.01547 -0.0786637 0
M  V30 896 C 91.7261 1.46796 1.29268 0
M  V30 897 O 92.9321 1.94157 1.89777 0
M  V30 898 C 91.3881 3.59787 -0.0900024 0
M  V30 899 C 90.9961 4.23534 -1.46023 0
M  V30 900 C 92.7401 4.22895 0.368806 0
M  V30 901 C 90.6471 5.73881 -1.4288 0
M  V30 902 H 89.5771 0.753564 -0.0256388 0
M  V30 903 H 92.2281 1.677 -0.744905 0
M  V30 904 H 90.6101 3.90752 0.642586 0
M  V30 905 H 91.7841 4.04167 -2.21328 0
M  V30 906 H 90.0991 3.72558 -1.85982 0
M  V30 907 H 92.6961 5.33116 0.411258 0
M  V30 908 H 93.0391 3.9247 1.38827 0
M  V30 909 H 93.5721 3.9659 -0.31001 0
M  V30 910 H 90.3111 6.0898 -2.42536 0
M  V30 911 H 89.8311 5.95486 -0.718095 0
M  V30 912 H 91.5101 6.36776 -1.14565 0
M  V30 913 N 91.6422 0.330177 1.54103 0
M  V30 914 C 93.0532 -0.15652 1.86043 0
M  V30 915 C 93.4042 -1.51086 1.2517 0
M  V30 916 O 92.5292 -2.09023 0.560217 0
M  V30 917 C 93.1242 -0.290784 3.3755 0
M  V30 918 C 91.6832 -0.721705 3.69416 0
M  V30 919 C 90.8302 0.152622 2.7688 0
M  V30 920 H 93.7812 0.550237 1.48856 0
M  V30 921 H 93.8022 -1.12058 3.63625 0
M  V30 922 H 93.3142 0.695068 3.81825 0
M  V30 923 H 91.4152 -1.71706 3.30678 0
M  V30 924 H 91.5282 -0.520869 4.7626 0
M  V30 925 H 89.8922 -0.372894 2.51956 0
M  V30 926 H 90.6752 1.13536 3.23982 0
M  V30 927 N 93.1203 -1.57491 0.0584922 0
M  V30 928 C 94.5313 -1.80526 -0.476138 0
M  V30 929 C 94.8823 -0.971334 -1.70469 0
M  V30 930 O 94.0073 -0.190012 -2.15564 0
M  V30 931 C 94.6023 -3.27424 -0.870587 0
M  V30 932 C 93.1613 -3.51351 -1.35015 0
M  V30 933 C 92.3083 -2.75343 -0.32887 0
M  V30 934 H 95.2593 -1.56133 0.284312 0
M  V30 935 H 95.2803 -3.38745 -1.73299 0
M  V30 936 H 94.7923 -3.88093 0.0237627 0
M  V30 937 H 92.8933 -2.95971 -2.26345 0
M  V30 938 H 93.0063 -4.60059 -1.33726 0
M  V30 939 H 91.3703 -2.417 -0.803321 0
M  V30 940 H 92.1533 -3.38743 0.557521 0
M  V30 941 N 94.5984 0.214957 -1.56127 0
M  V30 942 C 95.8754 0.963093 -1.70247 0
M  V30 943 C 96.2554 2.02166 -0.60764 0
M  V30 944 O 95.6034 2.25244 0.384385 0
M  V30 945 C 95.8134 1.56756 -3.11815 0
M  V30 946 C 97.1614 2.0573 -3.7143 0
M  V30 947 O 98.1854 1.66637 -3.14818 0
M  V30 948 O 97.0444 2.77603 -4.70743 0
M  V30 949 H 94.1384 0.450321 -0.693643 0
M  V30 950 H 96.6844 0.206219 -1.68442 0
M  V30 951 H 95.4564 0.803533 -3.82961 0
M  V30 952 H 95.0794 2.3898 -3.17765 0
M  V30 953 N 96.0765 1.50051 0.48192 0
M  V30 954 C 96.9865 1.7089 1.60728 0
M  V30 955 C 98.0025 0.591788 1.63627 0
M  V30 956 O 99.1785 0.868817 1.81696 0
M  V30 957 C 96.2435 1.78855 2.97005 0
M  V30 958 C 95.3045 3.02537 3.04581 0
M  V30 959 C 94.5375 3.10112 4.34357 0
M  V30 960 O 94.7605 2.24765 5.24249 0
M  V30 961 O 93.6945 4.02747 4.47301 0
M  V30 962 H 97.5205 2.66264 1.46072 0
M  V30 963 H 95.1055 1.34018 0.660264 0
M  V30 964 H 96.9875 1.86336 3.77964 0
M  V30 965 H 95.6625 0.866628 3.11883 0
M  V30 966 H 94.5695 3.00563 2.22739 0
M  V30 967 H 95.9025 3.94272 2.94636 0
M  V30 968 N 97.5546 -0.734337 1.39446 0
M  V30 969 C 98.4876 -1.85715 1.32609 0
M  V30 970 C 99.4656 -1.6137 0.199636 0
M  V30 971 O 100.65 -1.84626 0.380195 0
M  V30 972 C 97.7766 -3.21709 1.05929 0
M  V30 973 C 96.8226 -3.64913 2.20773 0
M  V30 974 S 97.6556 -3.74203 3.83056 0
M  V30 975 C 98.8116 -5.12986 3.58603 0
M  V30 976 H 99.0446 -1.91232 2.27635 0
M  V30 977 H 96.5776 -0.899263 1.25509 0
M  V30 978 H 98.5356 -4.00236 0.912203 0
M  V30 979 H 97.1966 -3.13848 0.125883 0
M  V30 980 H 96.3896 -4.63606 1.97699 0
M  V30 981 H 95.9916 -2.93593 2.31688 0
M  V30 982 H 98.2836 -5.99339 3.15909 0
M  V30 983 H 99.2266 -5.41088 4.5676 0
M  V30 984 H 99.6346 -4.82694 2.9269 0
M  V30 985 N 99.0327 -1.24633 -0.964593 0
M  V30 986 C 100.31 -0.995809 -1.68354 0
M  V30 987 C 100.69 0.480964 -2.05548 0
M  V30 988 O 100.038 1.45599 -1.76105 0
M  V30 989 C 100.248 -1.92177 -2.91323 0
M  V30 990 C 101.596 -2.19446 -3.63495 0
M  V30 991 O 102.62 -1.89855 -3.01386 0
M  V30 992 O 101.479 -2.69714 -4.75307 0
M  V30 993 H 98.5727 -0.376854 -0.736146 0
M  V30 994 H 101.119 -1.35745 -1.0184 0
M  V30 995 H 99.8907 -2.91938 -2.60553 0
M  V30 996 H 99.5137 -1.56349 -3.65569 0
M  V30 997 N 100.511 1.16574 -1.06058 0
M  V30 998 C 101.421 2.2452 -0.680282 0
M  V30 999 C 102.437 1.71348 0.302604 0
M  V30 1000 O 103.613 2.00822 0.152513 0
M  V30 1001 C 100.678 3.46629 -0.0700315 0
M  V30 1002 C 99.7388 4.14849 -1.10448 0
M  V30 1003 C 98.9718 5.31129 -0.523256 0
M  V30 1004 O 99.1948 5.66514 0.664709 0
M  V30 1005 O 98.1288 5.88526 -1.26179 0
M  V30 1006 H 101.955 2.59355 -1.58015 0
M  V30 1007 H 99.5398 1.24043 -0.832694 0
M  V30 1008 H 101.422 4.20543 0.268667 0
M  V30 1009 H 100.097 3.13573 0.803353 0
M  V30 1010 H 99.0038 3.42916 -1.49532 0
M  V30 1011 H 100.337 4.51954 -1.94931 0
M  V30 1012 N 101.989 0.842826 1.3317 0
M  V30 1013 C 103.236 0.440447 1.97652 0
M  V30 1014 C 103.564 -1.00123 1.6675 0
M  V30 1015 O 102.819 -1.7155 0.941761 0
M  V30 1016 C 103.118 0.612607 3.52111 0
M  V30 1017 C 102.784 2.02297 4.02972 0
M  V30 1018 C 101.446 2.40874 4.16573 0
M  V30 1019 C 103.798 2.94402 4.30089 0
M  V30 1020 C 101.126 3.70852 4.54627 0
M  V30 1021 C 103.478 4.23865 4.69597 0
M  V30 1022 C 102.142 4.62392 4.81404 0
M  V30 1023 H 101.412 0.161171 0.72326 0
M  V30 1024 H 104.059 1.07061 1.58777 0
M  V30 1025 H 102.364 -0.100849 3.9167 0
M  V30 1026 H 104.061 0.2815 4.00011 0
M  V30 1027 H 100.651 1.71338 3.92863 0
M  V30 1028 H 104.835 2.65835 4.19101 0
M  V30 1029 H 100.091 4.00501 4.61962 0
M  V30 1030 H 104.265 4.95306 4.89536 0
M  V30 1031 H 101.892 5.63154 5.10648 0
M  V30 1032 N 103.467 -1.45747 0.599634 0
M  V30 1033 C 104.715 -2.01893 0.0915472 0
M  V30 1034 C 105.036 -1.47155 -1.27946 0
M  V30 1035 O 104.306 -0.66273 -1.84349 0
M  V30 1036 H 102.886 -0.746363 0.0308524 0
M  V30 1037 H 105.548 -1.78645 0.779237 0
M  V30 1038 H 104.644 -3.1208 0.0353086 0
M  V30 1039 N 104.945 -0.338344 -1.53925 0
M  V30 1040 C 105.875 0.51328 -2.27789 0
M  V30 1041 C 106.856 1.107 -1.29149 0
M  V30 1042 O 108.041 1.12937 -1.57984 0
M  V30 1043 C 105.171 1.66697 -3.04679 0
M  V30 1044 C 104.125 1.20183 -4.1078 0
M  V30 1045 C 103.451 2.44363 -4.75595 0
M  V30 1046 C 104.751 0.30605 -5.21403 0
M  V30 1047 H 106.445 -0.102883 -2.99223 0
M  V30 1048 H 103.991 -0.0509219 -1.4391 0
M  V30 1049 H 105.944 2.26915 -3.55088 0
M  V30 1050 H 104.668 2.30995 -2.30887 0
M  V30 1051 H 103.327 0.622499 -3.61276 0
M  V30 1052 H 102.975 3.07057 -3.98403 0
M  V30 1053 H 102.675 2.13925 -5.47275 0
M  V30 1054 H 104.199 3.05317 -5.28786 0
M  V30 1055 H 105.613 0.814929 -5.67478 0
M  V30 1056 H 104.01 0.0937929 -6.00027 0
M  V30 1057 H 105.08 -0.65921 -4.80398 0
M  V30 1058 N 106.423 1.57458 -0.0668435 0
M  V30 1059 C 107.663 1.95175 0.607116 0
M  V30 1060 C 108.027 0.946039 1.67075 0
M  V30 1061 O 109.228 1.2107 2.39991 0
M  V30 1062 C 107.499 3.37582 1.17358 0
M  V30 1063 S 109.058 3.97271 1.86336 0
M  V30 1064 H 105.876 0.682604 0.19893 0
M  V30 1065 H 108.478 1.95002 -0.139519 0
M  V30 1066 H 107.182 4.08566 0.387553 0
M  V30 1067 H 106.713 3.41288 1.95669 0
M  V30 1068 H 108.728 3.83772 3.14537 0
M  V30 1069 N 107.901 -0.206675 1.56239 0
M  V30 1070 C 108.848 -1.25617 1.93621 0
M  V30 1071 C 109.818 -1.45824 0.795274 0
M  V30 1072 O 111.003 -1.59148 1.05245 0
M  V30 1073 C 108.143 -2.59839 2.27107 0
M  V30 1074 C 107.256 -2.47308 3.54207 0
M  V30 1075 C 106.391 -3.74155 3.7707 0
M  V30 1076 C 105.43 -3.56407 4.97635 0
M  V30 1077 N 104.567 -4.75238 5.1681 0
M  V30 1078 H 109.407 -0.930383 2.83104 0
M  V30 1079 H 106.944 -0.448065 1.4011 0
M  V30 1080 H 108.902 -3.38021 2.44535 0
M  V30 1081 H 107.532 -2.90485 1.40778 0
M  V30 1082 H 106.584 -1.60483 3.4489 0
M  V30 1083 H 107.896 -2.30122 4.42544 0
M  V30 1084 H 107.05 -4.60778 3.94675 0
M  V30 1085 H 105.789 -3.94282 2.87042 0
M  V30 1086 H 104.794 -2.68168 4.79964 0
M  V30 1087 H 106.019 -3.37736 5.89161 0
M  V30 1088 H 103.965 -4.95651 4.29728 0
M  V30 1089 H 103.882 -4.60835 5.99306 0
M  V30 1090 H 105.15 -5.63246 5.38864 0
M  V30 1091 N 109.379 -1.50304 -0.473955 0
M  V30 1092 C 110.625 -1.62358 -1.22521 0
M  V30 1093 C 110.98 -0.318555 -1.89745 0
M  V30 1094 O 110.273 0.683315 -1.79001 0
M  V30 1095 C 110.467 -2.73938 -2.29549 0
M  V30 1096 C 110.296 -4.15165 -1.72825 0
M  V30 1097 C 109.066 -4.81604 -1.52924 0
M  V30 1098 C 111.264 -4.99503 -1.22481 0
M  V30 1099 N 109.246 -6.07056 -0.91413 0
M  V30 1100 C 110.617 -6.15655 -0.732743 0
M  V30 1101 C 112.672 -4.85299 -1.11308 0
M  V30 1102 C 111.375 -7.19164 -0.139976 0
M  V30 1103 C 113.401 -5.88982 -0.534258 0
M  V30 1104 C 112.763 -7.0438 -0.0525562 0
M  V30 1105 H 108.862 -0.648286 -0.437321 0
M  V30 1106 H 111.446 -1.87413 -0.527692 0
M  V30 1107 H 109.617 -2.50611 -2.9673 0
M  V30 1108 H 111.349 -2.75366 -2.96573 0
M  V30 1109 H 108.104 -4.3885 -1.78067 0
M  V30 1110 H 108.528 -6.74108 -0.625071 0
M  V30 1111 H 113.17 -3.96369 -1.47144 0
M  V30 1112 H 110.888 -8.07771 0.230591 0
M  V30 1113 H 114.474 -5.80055 -0.450219 0
M  V30 1114 H 113.354 -7.83238 0.388324 0
M  V30 1115 N 110.857 0.726932 -1.39834 0
M  V30 1116 C 112.104 1.48664 -1.37496 0
M  V30 1117 C 112.432 1.94482 0.0264678 0
M  V30 1118 O 111.687 1.67692 1.00886 0
M  V30 1119 C 111.986 2.73495 -2.30077 0
M  V30 1120 C 111.652 2.46502 -3.77555 0
M  V30 1121 C 110.314 2.3885 -4.17737 0
M  V30 1122 C 112.666 2.23604 -4.70798 0
M  V30 1123 C 109.994 2.06352 -5.49214 0
M  V30 1124 C 112.346 1.92622 -6.02561 0
M  V30 1125 C 111.01 1.83444 -6.41798 0
M  V30 1126 H 110.28 0.544001 -0.503135 0
M  V30 1127 H 112.927 0.833657 -1.72402 0
M  V30 1128 H 111.232 3.43575 -1.88317 0
M  V30 1129 H 112.929 3.31549 -2.25558 0
M  V30 1130 H 109.519 2.5334 -3.45712 0
M  V30 1131 H 113.703 2.28479 -4.40581 0
M  V30 1132 H 108.959 1.97776 -5.78528 0
M  V30 1133 H 113.133 1.73914 -6.74334 0
M  V30 1134 H 110.76 1.58029 -7.43593 0
M  V30 1135 N 112.336 1.25143 0.95797 0
M  V30 1136 C 113.246 1.06968 2.08794 0
M  V30 1137 C 114.262 0.00773911 1.73998 0
M  V30 1138 O 115.438 0.207972 2.00323 0
M  V30 1139 C 112.503 0.68691 3.39827 0
M  V30 1140 C 111.564 1.82641 3.88511 0
M  V30 1141 C 110.797 1.46181 5.1329 0
M  V30 1142 O 111.02 0.355971 5.69288 0
M  V30 1143 O 109.954 2.29085 5.566 0
M  V30 1144 H 113.78 2.01723 2.27027 0
M  V30 1145 H 111.365 1.04051 1.07209 0
M  V30 1146 H 113.247 0.485417 4.18595 0
M  V30 1147 H 111.922 -0.231417 3.22872 0
M  V30 1148 H 110.829 2.08274 3.10762 0
M  V30 1149 H 112.162 2.72386 4.09959 0
M  V30 1150 N 113.814 -1.1601 1.06675 0
M  V30 1151 C 115.039 -1.91068 0.806706 0
M  V30 1152 C 115.464 -1.77112 -0.633485 0
M  V30 1153 O 114.822 -1.09908 -1.44187 0
M  V30 1154 C 114.87 -3.39655 1.21106 0
M  V30 1155 O 113.974 -4.10893 0.352189 0
M  V30 1156 H 113.315 -0.595125 0.294486 0
M  V30 1157 H 115.845 -1.46955 1.42356 0
M  V30 1158 H 115.855 -3.90434 1.18428 0
M  V30 1159 H 114.53 -3.49132 2.26008 0
M  V30 1160 H 113.107 -3.70285 0.440868 0
M  V30 1161 N 115.292 -0.849877 -1.32721 0
M  V30 1162 C 116.517 -0.463856 -2.02146 0
M  V30 1163 C 116.942 0.930449 -1.63476 0
M  V30 1164 O 116.3 1.61033 -0.832952 0
M  V30 1165 C 116.348 -0.604955 -3.55489 0
M  V30 1166 O 115.452 0.36425 -4.10788 0
M  V30 1167 H 114.793 -0.187046 -0.637111 0
M  V30 1168 H 117.323 -1.14775 -1.69375 0
M  V30 1169 H 117.333 -0.490696 -4.05038 0
M  V30 1170 H 116.008 -1.62174 -3.82978 0
M  V30 1171 H 114.585 0.206628 -3.72327 0
M  V30 1172 N 116.77 1.45427 -0.607355 0
M  V30 1173 C 118.018 2.01841 -0.102253 0
M  V30 1174 C 118.339 1.47832 1.27164 0
M  V30 1175 O 117.609 0.672497 1.83995 0
M  V30 1176 H 116.189 0.746188 -0.0348101 0
M  V30 1177 H 118.851 1.78229 -0.7887 0
M  V30 1178 H 117.947 3.12057 -0.0518585 0
M  V30 1179 N 118.248 0.346503 1.53744 0
M  V30 1180 C 119.497 -0.250122 2.00143 0
M  V30 1181 C 119.81 -1.51418 1.23822 0
M  V30 1182 O 121.016 -2.18823 1.60713 0
M  V30 1183 C 119.472 -0.496252 3.56462 0
M  V30 1184 C 119.08 0.752077 4.41642 0
M  V30 1185 C 120.824 -1.05157 4.11269 0
M  V30 1186 C 118.731 0.476583 5.89477 0
M  V30 1187 H 117.661 -0.0972409 0.747703 0
M  V30 1188 H 120.312 0.46229 1.77581 0
M  V30 1189 H 118.694 -1.26944 3.75102 0
M  V30 1190 H 119.868 1.5266 4.34778 0
M  V30 1191 H 118.183 1.22925 3.97842 0
M  V30 1192 H 120.78 -1.27269 5.19333 0
M  V30 1193 H 121.123 -2.00799 3.64672 0
M  V30 1194 H 121.656 -0.339019 3.96353 0
M  V30 1195 H 118.395 1.4028 6.40314 0
M  V30 1196 H 117.915 -0.259794 5.99237 0
M  V30 1197 H 119.594 0.0949315 6.4693 0
M  V30 1198 N 119.726 -1.57421 0.075193 0
M  V30 1199 C 120.676 -2.09441 -0.901025 0
M  V30 1200 C 121.66 -1.00486 -1.25663 0
M  V30 1201 O 122.852 -1.2679 -1.23504 0
M  V30 1202 C 119.981 -2.66233 -2.16737 0
M  V30 1203 C 119.067 -3.82198 -1.83808 0
M  V30 1204 N 119.458 -4.91028 -1.21345 0
M  V30 1205 C 117.756 -3.91558 -2.13538 0
M  V30 1206 C 118.457 -5.71852 -1.06585 0
M  V30 1207 N 117.433 -5.20233 -1.57667 0
M  V30 1208 H 121.235 -2.90972 -0.413815 0
M  V30 1209 H 118.749 -1.6189 -0.128601 0
M  V30 1210 H 120.746 -3.01819 -2.87595 0
M  V30 1211 H 119.406 -1.8615 -2.66042 0
M  V30 1212 H 120.417 -5.10323 -0.88268 0
M  V30 1213 H 117.094 -3.22454 -2.65197 0
M  V30 1214 H 118.484 -6.69401 -0.578933 0
M  V30 1215 N 121.204 0.198386 -1.56346 0
M  V30 1216 C 122.45 0.920648 -1.80698 0
M  V30 1217 C 122.783 1.83045 -0.648697 0
M  V30 1218 O 122.058 1.91308 0.350925 0
M  V30 1219 C 122.341 1.73971 -3.15287 0
M  V30 1220 C 122.194 0.85485 -4.41602 0
M  V30 1221 C 123.513 2.71296 -3.46535 0
M  V30 1222 H 120.632 0.333261 -0.657348 0
M  V30 1223 H 123.274 0.188198 -1.89066 0
M  V30 1224 H 121.424 2.36416 -3.08285 0
M  V30 1225 H 123.096 0.245362 -4.60647 0
M  V30 1226 H 121.339 0.161398 -4.335 0
M  V30 1227 H 122.01 1.46286 -5.32264 0
M  V30 1228 H 124.486 2.18983 -3.53816 0
M  V30 1229 H 123.362 3.2569 -4.41834 0
M  V30 1230 H 123.623 3.5018 -2.69864 0
M  V30 1231 N 122.682 1.50554 0.465978 0
M  V30 1232 C 123.645 1.69233 1.54574 0
M  V30 1233 C 124.645 0.562901 1.50626 0
M  V30 1234 O 125.835 0.830016 1.53155 0
M  V30 1235 C 122.967 1.7223 2.94193 0
M  V30 1236 H 124.16 2.65571 1.39327 0
M  V30 1237 H 121.713 1.40111 0.692711 0
M  V30 1238 H 122.448 0.77603 3.14878 0
M  V30 1239 H 122.233 2.54285 2.98466 0
M  V30 1240 H 123.723 1.88618 3.72576 0
M  V30 1241 N 124.16 -0.719506 1.40217 0
M  V30 1242 C 125.123 -1.8153 1.39927 0
M  V30 1243 C 126.123 -1.58095 0.293723 0
M  V30 1244 O 127.313 -1.65209 0.552429 0
M  V30 1245 C 124.445 -3.19561 1.18716 0
M  V30 1246 H 125.638 -1.83186 2.37451 0
M  V30 1247 H 123.191 -0.924746 1.26008 0
M  V30 1248 H 123.926 -3.23557 0.219366 0
M  V30 1249 H 123.711 -3.3797 1.98793 0
M  V30 1250 H 125.201 -3.99598 1.21291 0
M  V30 1251 N 125.638 -1.25649 -0.95132 0
M  V30 1252 C 126.568 -1.08808 -2.06599 0
M  V30 1253 C 127.549 0.00382547 -1.701 0
M  V30 1254 O 128.734 -0.166325 -1.93486 0
M  V30 1255 C 125.864 -0.709542 -3.39975 0
M  V30 1256 C 124.818 -1.75206 -3.90496 0
M  V30 1257 C 124.144 -1.22811 -5.20405 0
M  V30 1258 C 125.444 -3.15153 -4.16504 0
M  V30 1259 H 127.138 -2.02048 -2.20946 0
M  V30 1260 H 124.684 -0.972835 -1.06169 0
M  V30 1261 H 126.637 -0.578649 -4.17408 0
M  V30 1262 H 125.361 0.258556 -3.25575 0
M  V30 1263 H 124.02 -1.87145 -3.15234 0
M  V30 1264 H 123.668 -0.250145 -5.02378 0
M  V30 1265 H 123.368 -1.92492 -5.55176 0
M  V30 1266 H 124.892 -1.10968 -6.00432 0
M  V30 1267 H 126.306 -3.06349 -4.84586 0
M  V30 1268 H 124.703 -3.82333 -4.62538 0
M  V30 1269 H 125.773 -3.61966 -3.22658 0
M  V30 1270 N 127.117 1.15442 -1.07289 0
M  V30 1271 C 128.363 1.86489 -0.796846 0
M  V30 1272 C 128.696 1.82078 0.675371 0
M  V30 1273 O 127.971 1.24346 1.4956 0
M  V30 1274 C 128.254 3.35626 -1.30489 0
M  V30 1275 C 128.107 3.48673 -2.84161 0
M  V30 1276 C 129.426 4.30357 -0.920907 0
M  V30 1277 H 126.545 0.677144 -0.290939 0
M  V30 1278 H 129.187 1.35633 -1.33056 0
M  V30 1279 H 127.337 3.79068 -0.850883 0
M  V30 1280 H 129.009 3.14099 -3.37846 0
M  V30 1281 H 127.252 2.90253 -3.22391 0
M  V30 1282 H 127.923 4.53453 -3.14777 0
M  V30 1283 H 130.399 3.94871 -1.3121 0
M  V30 1284 H 129.275 5.33193 -1.30372 0
M  V30 1285 H 129.536 4.4176 0.173226 0
M  V30 1286 N 128.595 0.856903 1.32268 0
M  V30 1287 C 129.841 0.462069 1.97466 0
M  V30 1288 C 130.174 -0.980298 1.67642 0
M  V30 1289 O 129.449 -1.68824 0.965858 0
M  V30 1290 C 129.732 0.704336 3.53145 0
M  V30 1291 C 129.585 2.19529 3.9259 0
M  V30 1292 C 130.904 0.1622 4.39801 0
M  V30 1293 H 128.023 0.169357 0.717278 0
M  V30 1294 H 130.665 1.07574 1.56614 0
M  V30 1295 H 128.815 0.181999 3.88073 0
M  V30 1296 H 130.487 2.78387 3.67829 0
M  V30 1297 H 128.73 2.67292 3.41668 0
M  V30 1298 H 129.401 2.31549 5.01088 0
M  V30 1299 H 131.877 0.608905 4.11621 0
M  V30 1300 H 130.753 0.361265 5.4771 0
M  V30 1301 H 131.014 -0.935158 4.32096 0
M  V30 1302 N 130.073 -1.45103 0.615059 0
M  V30 1303 C 131.321 -2.01784 0.112955 0
M  V30 1304 C 131.642 -1.48504 -1.26378 0
M  V30 1305 O 130.912 -0.682245 -1.83636 0
M  V30 1306 H 129.492 -0.745993 0.0387668 0
M  V30 1307 H 132.154 -1.77808 0.798141 0
M  V30 1308 H 131.25 -3.12025 0.0684069 0
M  V30 1309 N 131.551 -0.354651 -1.53558 0
M  V30 1310 C 132.461 0.50515 -2.29097 0
M  V30 1311 C 133.477 1.10223 -1.34636 0
M  V30 1312 O 134.653 1.11553 -1.67684 0
M  V30 1313 C 131.718 1.63479 -3.05738 0
M  V30 1314 C 130.779 1.06636 -4.15845 0
M  V30 1315 C 130.012 2.14217 -4.88822 0
M  V30 1316 O 130.235 3.35137 -4.61562 0
M  V30 1317 O 129.169 1.77887 -5.75013 0
M  V30 1318 H 132.995 -0.109237 -3.03503 0
M  V30 1319 H 130.58 -0.119357 -1.48922 0
M  V30 1320 H 132.462 2.2918 -3.5363 0
M  V30 1321 H 131.137 2.23478 -2.34178 0
M  V30 1322 H 130.044 0.373565 -3.7223 0
M  V30 1323 H 131.377 0.511081 -4.89539 0
M  V30 1324 N 133.029 1.57378 -0.0835403 0
M  V30 1325 C 134.269 1.95808 0.586381 0
M  V30 1326 C 134.633 0.963706 1.66062 0
M  V30 1327 O 135.834 1.23608 2.38693 0
M  V30 1328 C 134.105 3.38808 1.13771 0
M  V30 1329 S 135.664 3.99225 1.82112 0
M  V30 1330 H 132.482 0.684675 0.191679 0
M  V30 1331 H 135.084 1.94843 -0.160194 0
M  V30 1332 H 133.788 4.08954 0.344197 0
M  V30 1333 H 133.319 3.43344 1.92038 0
M  V30 1334 H 135.334 3.87087 3.10449 0
M  V30 1335 N 134.507 -0.190092 1.56449 0
M  V30 1336 C 135.747 -0.916414 1.82705 0
M  V30 1337 C 136.111 -1.80235 0.661763 0
M  V30 1338 O 137.312 -2.56484 0.80433 0
M  V30 1339 C 135.583 -1.70691 3.14005 0
M  V30 1340 S 137.142 -2.48457 3.61683 0
M  V30 1341 H 133.96 -0.307281 0.64117 0
M  V30 1342 H 136.562 -0.179433 1.94675 0
M  V30 1343 H 135.266 -1.04677 3.96826 0
M  V30 1344 H 134.797 -2.48562 3.04927 0
M  V30 1345 H 136.812 -3.72756 3.27517 0
M  V30 1346 N 135.985 -1.50799 -0.457987 0
M  V30 1347 C 137.396 -1.55152 -1.0385 0
M  V30 1348 C 137.747 -0.362719 -1.92818 0
M  V30 1349 O 136.872 0.522915 -2.09987 0
M  V30 1350 C 137.467 -2.81173 -1.89017 0
M  V30 1351 C 136.026 -2.88164 -2.42154 0
M  V30 1352 C 135.173 -2.49591 -1.20829 0
M  V30 1353 H 138.124 -1.56874 -0.240068 0
M  V30 1354 H 138.145 -2.63769 -2.74238 0
M  V30 1355 H 137.657 -3.67677 -1.24238 0
M  V30 1356 H 135.758 -2.06042 -3.10447 0
M  V30 1357 H 135.871 -3.91356 -2.76364 0
M  V30 1358 H 134.235 -2.02322 -1.54719 0
M  V30 1359 H 135.018 -3.38418 -0.576927 0
M  V30 1360 N 137.463 0.71206 -1.40597 0
M  V30 1361 C 138.691 1.50111 -1.42388 0
M  V30 1362 C 139.106 1.88784 -0.0245395 0
M  V30 1363 O 138.463 1.55681 0.952351 0
M  V30 1364 C 138.514 2.7742 -2.31776 0
M  V30 1365 O 138.235 2.40382 -3.66262 0
M  V30 1366 C 139.736 3.7129 -2.42196 0
M  V30 1367 H 136.956 0.46314 -0.485533 0
M  V30 1368 H 139.5 0.878068 -1.8469 0
M  V30 1369 H 137.655 3.36001 -1.92827 0
M  V30 1370 H 138.069 3.22324 -4.13772 0
M  V30 1371 H 139.543 4.57448 -3.08943 0
M  V30 1372 H 140.02 4.14641 -1.44809 0
M  V30 1373 H 140.626 3.18619 -2.81712 0
M  V30 1374 N 138.941 1.26152 0.944643 0
M  V30 1375 C 140.352 1.10454 1.50522 0
M  V30 1376 C 140.703 -0.31635 1.93633 0
M  V30 1377 O 139.828 -1.20746 1.79581 0
M  V30 1378 C 140.423 1.99891 2.73549 0
M  V30 1379 C 138.982 1.88348 3.25886 0
M  V30 1380 C 138.129 1.93447 1.9868 0
M  V30 1381 H 141.08 1.39292 0.760489 0
M  V30 1382 H 141.101 1.54477 3.47732 0
M  V30 1383 H 140.613 3.03297 2.42141 0
M  V30 1384 H 138.714 0.878636 3.62092 0
M  V30 1385 H 138.827 2.73696 3.93227 0
M  V30 1386 H 137.191 1.37456 2.14425 0
M  V30 1387 H 137.974 2.98476 1.69607 0
M  V30 1388 N 140.419 -1.14872 1.07899 0
M  V30 1389 C 141.644 -1.90202 0.826926 0
M  V30 1390 C 142.069 -1.77774 -0.614664 0
M  V30 1391 O 141.427 -1.11431 -1.43013 0
M  V30 1392 C 141.475 -3.38352 1.24702 0
M  V30 1393 O 140.579 -4.10497 0.39575 0
M  V30 1394 H 139.92 -0.591968 0.300782 0
M  V30 1395 H 142.45 -1.45437 1.43907 0
M  V30 1396 H 142.46 -3.89156 1.22563 0
M  V30 1397 H 141.135 -3.46715 2.29698 0
M  V30 1398 H 139.712 -3.69796 0.480117 0
M  V30 1399 N 141.898 -0.863906 -1.31812 0
M  V30 1400 C 142.848 -0.286898 -2.26188 0
M  V30 1401 C 143.832 0.572577 -1.50367 0
M  V30 1402 O 145.024 0.420447 -1.71934 0
M  V30 1403 C 142.153 0.515849 -3.39402 0
M  V30 1404 C 141.239 -0.356531 -4.22599 0
M  V30 1405 N 141.63 -1.44716 -4.84656 0
M  V30 1406 C 139.928 -0.147898 -4.45755 0
M  V30 1407 C 140.629 -1.98462 -5.46798 0
M  V30 1408 N 139.605 -1.28247 -5.28255 0
M  V30 1409 H 143.407 -1.12055 -2.717 0
M  V30 1410 H 140.921 -0.711012 -1.46008 0
M  V30 1411 H 142.918 0.945701 -4.06032 0
M  V30 1412 H 141.578 1.34718 -2.95434 0
M  V30 1413 H 142.589 -1.83008 -4.84488 0
M  V30 1414 H 139.266 0.647973 -4.12441 0
M  V30 1415 H 140.656 -2.89932 -6.06126 0
M  V30 1416 N 143.376 1.44774 -0.622745 0
M  V30 1417 C 144.622 2.02968 -0.13257 0
M  V30 1418 C 144.977 1.48047 1.22881 0
M  V30 1419 O 144.27 0.651625 1.80179 0
M  V30 1420 C 144.464 3.57364 -0.0508323 0
M  V30 1421 C 144.293 4.27262 -1.40275 0
M  V30 1422 C 143.063 4.64577 -1.98737 0
M  V30 1423 C 145.261 4.58248 -2.3348 0
M  V30 1424 N 143.243 5.19404 -3.27251 0
M  V30 1425 C 144.614 5.14069 -3.46603 0
M  V30 1426 C 146.669 4.40195 -2.32664 0
M  V30 1427 C 145.372 5.53738 -4.59093 0
M  V30 1428 C 147.398 4.80907 -3.44213 0
M  V30 1429 C 146.76 5.36834 -4.56058 0
M  V30 1430 H 142.859 0.776541 -0.0922354 0
M  V30 1431 H 145.443 1.76385 -0.82441 0
M  V30 1432 H 143.614 3.83576 0.610265 0
M  V30 1433 H 145.346 4.02219 0.447397 0
M  V30 1434 H 142.101 4.48622 -1.51774 0
M  V30 1435 H 142.525 5.51301 -3.92933 0
M  V30 1436 H 147.167 3.96257 -1.47446 0
M  V30 1437 H 144.885 5.96635 -5.45025 0
M  V30 1438 H 148.471 4.68659 -3.44747 0
M  V30 1439 H 147.351 5.67755 -5.40947 0
M  V30 1440 N 144.854 0.36279 1.53368 0
M  V30 1441 C 146.079 -0.231226 2.06107 0
M  V30 1442 C 146.504 -1.419 1.23474 0
M  V30 1443 O 145.862 -1.79524 0.253128 0
M  V30 1444 C 145.91 -0.605523 3.5548 0
M  V30 1445 O 145.014 -1.70312 3.7559 0
M  V30 1446 H 144.355 -0.034327 0.663112 0
M  V30 1447 H 146.885 0.522584 1.97814 0
M  V30 1448 H 146.895 -0.877314 3.98456 0
M  V30 1449 H 145.57 0.263004 4.15068 0
M  V30 1450 H 144.147 -1.4271 3.44512 0
M  V30 1451 N 146.332 -1.57332 0.0918853 0
M  V30 1452 C 147.295 -2.12708 -0.85369 0
M  V30 1453 C 148.295 -1.05561 -1.213 0
M  V30 1454 O 149.485 -1.31461 -1.14296 0
M  V30 1455 C 146.617 -2.64503 -2.15061 0
M  V30 1456 H 147.81 -2.97573 -0.3729 0
M  V30 1457 H 145.363 -1.55509 -0.157072 0
M  V30 1458 H 146.098 -1.83149 -2.67632 0
M  V30 1459 H 145.883 -3.4284 -1.90272 0
M  V30 1460 H 147.373 -3.07351 -2.82711 0
M  V30 1461 N 147.81 0.181792 -1.56548 0
M  V30 1462 C 149.038 0.915947 -1.85521 0
M  V30 1463 C 149.453 1.76282 -0.676016 0
M  V30 1464 O 148.81 1.79012 0.355077 0
M  V30 1465 C 148.861 1.80126 -3.13427 0
M  V30 1466 O 148.582 0.988562 -4.26801 0
M  V30 1467 C 150.083 2.64597 -3.55673 0
M  V30 1468 H 147.303 0.26661 -0.61576 0
M  V30 1469 H 149.847 0.185039 -2.03661 0
M  V30 1470 H 148.002 2.48563 -2.97145 0
M  V30 1471 H 148.416 1.59308 -4.99721 0
M  V30 1472 H 149.89 3.2235 -4.48101 0
M  V30 1473 H 150.367 3.38958 -2.79292 0
M  V30 1474 H 150.973 2.0151 -3.74532 0
M  V30 1475 N 149.288 1.51039 0.449983 0
M  V30 1476 C 150.704 1.38934 0.785462 0
M  V30 1477 C 150.904 0.461817 1.96136 0
M  V30 1478 O 149.96 -0.0877389 2.52348 0
M  V30 1479 C 151.273 2.80724 1.0777 0
M  V30 1480 C 152.821 2.89787 1.1829 0
M  V30 1481 C 153.296 4.32457 1.50815 0
M  V30 1482 N 154.787 4.35505 1.57764 0
M  V30 1483 C 155.522 5.42914 1.84477 0
M  V30 1484 N 155.018 6.60502 2.09068 0
M  V30 1485 N 156.811 5.3038 1.86155 0
M  V30 1486 H 148.962 2.09904 -0.324647 0
M  V30 1487 H 151.225 0.944378 -0.0827957 0
M  V30 1488 H 150.931 3.50531 0.286498 0
M  V30 1489 H 150.805 3.19273 2.00859 0
M  V30 1490 H 153.192 2.20186 1.96474 0
M  V30 1491 H 153.273 2.54752 0.231314 0
M  V30 1492 H 152.917 5.02603 0.731622 0
M  V30 1493 H 152.847 4.64995 2.47158 0
M  V30 1494 H 155.338 3.50724 1.40715 0
M  V30 1495 H 155.651 7.38158 2.28785 0
M  V30 1496 H 153.996 6.63639 2.06416 0
M  V30 1497 H 157.187 4.37505 1.66454 0
M  V30 1498 H 157.36 6.1417 2.06637 0
M  V30 1499 N 150.766 -0.704594 1.40972 0
M  V30 1500 C 151.994 -1.49354 1.43182 0
M  V30 1501 C 152.409 -1.88768 0.0345508 0
M  V30 1502 O 151.766 -1.56184 -0.944081 0
M  V30 1503 C 151.817 -2.76187 2.33244 0
M  V30 1504 O 151.538 -2.38436 3.67532 0
M  V30 1505 C 153.039 -3.7 2.44162 0
M  V30 1506 H 150.259 -0.460559 0.487982 0
M  V30 1507 H 152.803 -0.868261 1.85153 0
M  V30 1508 H 150.958 -3.34974 1.94606 0
M  V30 1509 H 151.372 -3.20126 4.15475 0
M  V30 1510 H 152.846 -4.55803 3.11364 0
M  V30 1511 H 153.323 -4.13867 1.47006 0
M  V30 1512 H 153.929 -3.17121 2.83398 0
M  V30 1513 N 152.244 -1.26651 -0.937939 0
M  V30 1514 C 153.174 -1.10993 -2.05433 0
M  V30 1515 C 154.155 -0.0142161 -1.70094 0
M  V30 1516 O 155.34 -0.186837 -1.93299 0
M  V30 1517 C 152.47 -0.745561 -3.39203 0
M  V30 1518 C 151.424 -1.79337 -3.88616 0
M  V30 1519 C 150.75 -1.28324 -5.19073 0
M  V30 1520 C 152.05 -3.19553 -4.13138 0
M  V30 1521 H 153.744 -2.0438 -2.1879 0
M  V30 1522 H 151.29 -0.984041 -1.05131 0
M  V30 1523 H 153.243 -0.622888 -4.16771 0
M  V30 1524 H 151.967 0.22401 -3.25831 0
M  V30 1525 H 150.626 -1.90477 -3.13231 0
M  V30 1526 H 150.274 -0.303414 -5.02084 0
M  V30 1527 H 149.974 -1.98369 -5.53103 0
M  V30 1528 H 151.498 -1.1733 -5.99221 0
M  V30 1529 H 152.912 -3.11471 -4.81309 0
M  V30 1530 H 151.309 -3.87218 -4.58457 0
M  V30 1531 H 152.379 -3.65368 -3.18801 0
M  V30 1532 N 153.722 1.14298 -1.08507 0
M  V30 1533 C 154.672 2.17449 -0.685569 0
M  V30 1534 C 155.656 1.58167 0.295315 0
M  V30 1535 O 156.848 1.76675 0.107172 0
M  V30 1536 C 153.977 3.43161 -0.0975318 0
M  V30 1537 C 153.063 4.09471 -1.10426 0
M  V30 1538 N 153.454 4.51089 -2.28806 0
M  V30 1539 C 151.752 4.35976 -0.940258 0
M  V30 1540 C 152.453 5.02654 -2.9277 0
M  V30 1541 N 151.429 4.96927 -2.20374 0
M  V30 1542 H 155.231 2.47369 -1.587 0
M  V30 1543 H 152.745 1.30992 -0.959936 0
M  V30 1544 H 154.742 4.16388 0.20664 0
M  V30 1545 H 153.402 3.14719 0.798872 0
M  V30 1546 H 154.413 4.44097 -2.66455 0
M  V30 1547 H 151.09 4.17386 -0.0977441 0
M  V30 1548 H 152.48 5.44723 -3.93352 0
M  V30 1549 N 155.201 0.870884 1.31352 0
M  V30 1550 C 156.111 0.330783 2.32256 0
M  V30 1551 C 157.127 -0.559767 1.6475 0
M  V30 1552 O 158.303 -0.456263 1.96164 0
M  V30 1553 C 155.368 -0.458137 3.4366 0
M  V30 1554 C 154.429 0.460482 4.26823 0
M  V30 1555 C 153.662 -0.290881 5.32907 0
M  V30 1556 O 153.885 -1.51885 5.49806 0
M  V30 1557 O 152.819 0.351732 6.00871 0
M  V30 1558 H 156.645 1.16718 2.80376 0
M  V30 1559 H 154.23 0.634285 1.35267 0
M  V30 1560 H 156.112 -0.905343 4.1156 0
M  V30 1561 H 154.787 -1.27106 2.97701 0
M  V30 1562 H 153.694 0.956207 3.61673 0
M  V30 1563 H 155.027 1.23903 4.7635 0
M  V30 1564 N 156.679 -1.44442 0.630414 0
M  V30 1565 C 157.925 -2.02894 0.143332 0
M  V30 1566 C 158.28 -1.48697 -1.22094 0
M  V30 1567 O 157.573 -0.661171 -1.79831 0
M  V30 1568 C 157.767 -3.57332 0.0697835 0
M  V30 1569 C 157.596 -4.26512 1.42539 0
M  V30 1570 C 156.366 -4.63516 2.01198 0
M  V30 1571 C 158.564 -4.57004 2.35907 0
M  V30 1572 N 156.546 -5.17661 3.30001 0
M  V30 1573 C 157.917 -5.12223 3.49324 0
M  V30 1574 C 159.972 -4.38955 2.34995 0
M  V30 1575 C 158.675 -5.51295 4.62024 0
M  V30 1576 C 160.701 -4.79075 3.46758 0
M  V30 1577 C 160.063 -5.34407 4.58899 0
M  V30 1578 H 156.162 -0.776041 0.0963523 0
M  V30 1579 H 158.746 -1.75945 0.833752 0
M  V30 1580 H 156.917 -3.83894 -0.589915 0
M  V30 1581 H 158.649 -4.02451 -0.42606 0
M  V30 1582 H 155.404 -4.47811 1.54151 0
M  V30 1583 H 155.828 -5.4921 3.95851 0
M  V30 1584 H 160.47 -3.95469 1.49545 0
M  V30 1585 H 158.188 -5.93736 5.48182 0
M  V30 1586 H 161.774 -4.66824 3.47227 0
M  V30 1587 H 160.654 -5.64878 5.4395 0
M  V30 1588 N 158.157 -0.370918 -1.53173 0
M  V30 1589 C 159.087 0.464847 -2.28826 0
M  V30 1590 C 160.068 1.07936 -1.31468 0
M  V30 1591 O 161.253 1.0956 -1.60344 0
M  V30 1592 C 158.383 1.60196 -3.08147 0
M  V30 1593 C 157.337 1.11443 -4.13237 0
M  V30 1594 C 156.663 2.3422 -4.80672 0
M  V30 1595 C 157.963 0.195384 -5.21934 0
M  V30 1596 H 159.657 -0.166329 -2.98938 0
M  V30 1597 H 157.203 -0.0814359 -1.4377 0
M  V30 1598 H 159.156 2.19332 -3.59822 0
M  V30 1599 H 157.88 2.26045 -2.35735 0
M  V30 1600 H 156.539 0.545727 -3.62515 0
M  V30 1601 H 156.187 2.98537 -4.04827 0
M  V30 1602 H 155.887 2.02269 -5.51689 0
M  V30 1603 H 157.411 2.94032 -5.35143 0
M  V30 1604 H 158.825 0.694375 -5.69079 0
M  V30 1605 H 157.222 -0.0335027 -6.00091 0
M  V30 1606 H 158.292 -0.760961 -4.78892 0
M  V30 1607 N 159.635 1.57281 -0.100228 0
M  V30 1608 C 160.567 2.11342 0.886972 0
M  V30 1609 C 161.58 1.05182 1.24261 0
M  V30 1610 O 162.769 1.32613 1.19483 0
M  V30 1611 C 159.869 2.5825 2.19454 0
M  V30 1612 C 159.042 3.88302 2.01346 0
M  V30 1613 C 158.101 4.21004 3.15661 0
M  V30 1614 O 157.127 4.9014 2.89398 0
M  V30 1615 N 158.329 3.76818 4.41575 0
M  V30 1616 H 161.094 2.96668 0.425216 0
M  V30 1617 H 158.655 1.61678 0.0847334 0
M  V30 1618 H 160.647 2.7717 2.94888 0
M  V30 1619 H 159.217 1.77907 2.57037 0
M  V30 1620 H 158.437 3.7848 1.10212 0
M  V30 1621 H 159.725 4.73375 1.8653 0
M  V30 1622 H 159.123 3.2102 4.65792 0
M  V30 1623 H 157.68 4.00882 5.13942 0
M  V30 1624 N 161.113 -0.173488 1.56642 0
M  V30 1625 C 162.045 -1.23935 1.92802 0
M  V30 1626 C 163.058 -1.40589 0.820889 0
M  V30 1627 O 164.247 -1.40631 1.09933 0
M  V30 1628 C 161.347 -2.60837 2.16373 0
M  V30 1629 C 160.52 -2.6551 3.47596 0
M  V30 1630 C 159.579 -3.8376 3.60021 0
M  V30 1631 O 158.605 -3.69859 4.32658 0
M  V30 1632 N 159.807 -5.00127 2.94709 0
M  V30 1633 H 162.572 -0.932236 2.84832 0
M  V30 1634 H 160.133 -0.363268 1.57772 0
M  V30 1635 H 162.125 -3.38407 2.21952 0
M  V30 1636 H 160.695 -2.83948 1.30738 0
M  V30 1637 H 159.915 -1.74052 3.53694 0
M  V30 1638 H 161.203 -2.65641 4.33949 0
M  V30 1639 H 160.601 -5.14322 2.35563 0
M  V30 1640 H 159.158 -5.75567 3.05886 0
M  V30 1641 N 162.591 -1.51276 -0.441967 0
M  V30 1642 C 163.541 -1.6864 -1.53442 0
M  V30 1643 C 164.525 -0.540444 -1.51552 0
M  V30 1644 O 165.717 -0.796157 -1.58083 0
M  V30 1645 C 162.846 -1.8106 -2.91672 0
M  V30 1646 C 161.932 -3.01424 -2.98336 0
M  V30 1647 N 162.323 -4.2467 -2.74752 0
M  V30 1648 C 160.621 -3.00584 -3.29493 0
M  V30 1649 C 161.322 -5.05891 -2.87139 0
M  V30 1650 N 160.298 -4.40442 -3.18609 0
M  V30 1651 H 164.1 -2.61598 -1.33954 0
M  V30 1652 H 161.614 -1.4886 -0.6492 0
M  V30 1653 H 163.611 -1.91609 -3.70259 0
M  V30 1654 H 162.271 -0.892795 -3.12185 0
M  V30 1655 H 163.282 -4.53691 -2.49769 0
M  V30 1656 H 159.959 -2.18417 -3.55809 0
M  V30 1657 H 161.349 -6.13983 -2.72899 0
M  V30 1658 N 164.069 0.697108 -1.41344 0
M  V30 1659 C 165.317 1.45426 -1.40341 0
M  V30 1660 C 165.638 1.94996 -0.0128787 0
M  V30 1661 O 164.908 1.71599 0.945027 0
M  V30 1662 H 163.488 0.539594 -0.516573 0
M  V30 1663 H 166.15 0.825201 -1.76569 0
M  V30 1664 H 165.246 2.31817 -2.08967 0
M  V30 1665 N 165.547 1.27147 0.931209 0
M  V30 1666 C 166.796 1.12664 1.67302 0
M  V30 1667 C 167.109 -0.327718 1.92835 0
M  V30 1668 O 168.315 -0.593392 2.64936 0
M  V30 1669 C 166.771 1.9683 3.01307 0
M  V30 1670 C 166.379 3.46901 2.83485 0
M  V30 1671 C 168.123 1.90985 3.79111 0
M  V30 1672 C 166.03 4.23279 4.13024 0
M  V30 1673 H 164.96 0.41803 0.627509 0
M  V30 1674 H 167.611 1.51539 1.03481 0
M  V30 1675 H 165.993 1.50797 3.66164 0
M  V30 1676 H 167.167 4.00773 2.27415 0
M  V30 1677 H 165.482 3.54088 2.19113 0
M  V30 1678 H 168.079 2.45328 4.75098 0
M  V30 1679 H 168.422 0.882718 4.06834 0
M  V30 1680 H 168.955 2.34895 3.21044 0
M  V30 1681 H 165.694 5.26503 3.90481 0
M  V30 1682 H 165.214 3.74186 4.6877 0
M  V30 1683 H 166.893 4.32265 4.81411 0
M  V30 1684 N 167.025 -1.13721 1.09112 0
M  V30 1685 C 168.436 -1.6648 0.845068 0
M  V30 1686 C 168.787 -1.85911 -0.62701 0
M  V30 1687 O 167.912 -1.57556 -1.48341 0
M  V30 1688 C 168.507 -3.02413 1.52748 0
M  V30 1689 C 167.066 -3.52176 1.32849 0
M  V30 1690 C 166.213 -2.27492 1.58564 0
M  V30 1691 H 169.164 -0.976872 1.25072 0
M  V30 1692 H 169.185 -3.68223 0.958752 0
M  V30 1693 H 168.697 -2.88238 2.59885 0
M  V30 1694 H 166.798 -3.7156 0.278137 0
M  V30 1695 H 166.911 -4.32499 2.0611 0
M  V30 1696 H 165.275 -2.33923 1.00758 0
M  V30 1697 H 166.058 -2.15886 2.66924 0
M  V30 1698 N 168.503 -0.877838 -1.30888 0
M  V30 1699 C 169.751 -0.491723 -1.96027 0
M  V30 1700 C 170.072 0.960827 -1.69685 0
M  V30 1701 O 169.342 1.67462 -1.01654 0
M  V30 1702 H 167.922 -0.17885 -0.725273 0
M  V30 1703 H 170.584 -1.11935 -1.59551 0
M  V30 1704 H 169.68 -0.656016 -3.05128 0
M  V30 1705 N 169.982 1.44106 -0.638065 0
M  V30 1706 C 170.912 2.33448 0.0494287 0
M  V30 1707 C 171.893 1.48606 0.827672 0
M  V30 1708 O 173.078 1.77308 0.792173 0
M  V30 1709 C 170.208 3.31771 1.02691 0
M  V30 1710 C 169.162 4.26485 0.359823 0
M  V30 1711 C 168.488 5.14729 1.44769 0
M  V30 1712 C 169.788 5.17056 -0.738296 0
M  V30 1713 H 171.482 2.91183 -0.696636 0
M  V30 1714 H 169.028 1.40014 -0.336456 0
M  V30 1715 H 170.981 3.93161 1.51666 0
M  V30 1716 H 169.705 2.7226 1.80395 0
M  V30 1717 H 168.364 3.66437 -0.10934 0
M  V30 1718 H 168.012 4.51566 2.21578 0
M  V30 1719 H 167.712 5.78913 1.00668 0
M  V30 1720 H 169.236 5.78991 1.93911 0
M  V30 1721 H 170.65 5.72342 -0.331354 0
M  V30 1722 H 169.047 5.89879 -1.10286 0
M  V30 1723 H 170.117 4.57652 -1.60258 0
M  V30 1724 N 171.46 0.379036 1.52974 0
M  V30 1725 C 172.392 -0.495963 2.2377 0
M  V30 1726 C 173.405 -1.03517 1.25651 0
M  V30 1727 O 174.594 -0.939249 1.51791 0
M  V30 1728 C 171.694 -1.69894 2.93239 0
M  V30 1729 C 170.867 -1.2889 4.17979 0
M  V30 1730 C 169.926 -2.35543 4.70538 0
M  V30 1731 O 168.952 -1.97375 5.33883 0
M  V30 1732 N 170.154 -3.67318 4.49508 0
M  V30 1733 H 172.919 0.110523 2.99496 0
M  V30 1734 H 170.48 0.204878 1.60598 0
M  V30 1735 H 172.472 -2.40747 3.25304 0
M  V30 1736 H 171.042 -2.212 2.20883 0
M  V30 1737 H 170.262 -0.409676 3.92065 0
M  V30 1738 H 171.55 -0.991443 4.99047 0
M  V30 1739 H 170.948 -4.01095 3.98923 0
M  V30 1740 H 169.505 -4.34235 4.8609 0
M  V30 1741 N 172.938 -1.57226 0.108567 0
M  V30 1742 C 174.186 -1.94448 -0.550853 0
M  V30 1743 C 174.507 -0.992074 -1.67878 0
M  V30 1744 O 173.777 -0.0465 -1.95845 0
M  V30 1745 H 172.357 -0.717897 -0.206479 0
M  V30 1746 H 175.019 -1.94112 0.175062 0
M  V30 1747 H 174.115 -2.97218 -0.952259 0
M  V30 1748 N 174.416 0.165178 -1.56732 0
M  V30 1749 C 175.662 0.882112 -1.82611 0
M  V30 1750 C 175.995 1.81628 -0.687378 0
M  V30 1751 O 175.27 1.92009 0.310267 0
M  V30 1752 C 175.553 1.67245 -3.18906 0
M  V30 1753 C 175.406 0.760987 -4.43316 0
M  V30 1754 C 176.725 2.63884 -3.52212 0
M  V30 1755 H 173.844 0.319242 -0.664269 0
M  V30 1756 H 176.486 0.148052 -1.89422 0
M  V30 1757 H 174.636 2.29824 -3.1323 0
M  V30 1758 H 176.308 0.147596 -4.61064 0
M  V30 1759 H 174.551 0.0694102 -4.33744 0
M  V30 1760 H 175.222 1.34962 -5.35247 0
M  V30 1761 H 177.698 2.11429 -3.58381 0
M  V30 1762 H 176.574 3.16245 -4.48643 0
M  V30 1763 H 176.835 3.44377 -2.77231 0
M  V30 1764 N 175.894 1.51508 0.433938 0
M  V30 1765 C 177.171 1.54888 1.19453 0
M  V30 1766 C 177.551 0.315154 2.08734 0
M  V30 1767 O 176.899 -0.699558 2.17528 0
M  V30 1768 C 177.109 2.86467 1.99342 0
M  V30 1769 C 178.457 3.38545 2.56267 0
M  V30 1770 O 179.481 2.88041 2.0955 0
M  V30 1771 O 178.34 4.26675 3.41483 0
M  V30 1772 H 175.434 0.622863 0.544032 0
M  V30 1773 H 177.98 1.63823 0.442732 0
M  V30 1774 H 176.752 3.67718 1.33788 0
M  V30 1775 H 176.375 2.8071 2.8158 0
M  V30 1776 N 177.372 -0.689602 1.41712 0
M  V30 1777 C 178.6 -1.47827 1.44758 0
M  V30 1778 C 179.015 -1.88721 0.0545703 0
M  V30 1779 O 178.372 -1.57176 -0.927463 0
M  V30 1780 C 178.423 -2.73698 2.3616 0
M  V30 1781 O 178.144 -2.34524 3.7004 0
M  V30 1782 C 179.645 -3.67389 2.48072 0
M  V30 1783 H 176.865 -0.455357 0.49284 0
M  V30 1784 H 179.409 -0.848574 1.86063 0
M  V30 1785 H 177.564 -3.32891 1.98148 0
M  V30 1786 H 177.978 -3.15701 4.18847 0
M  V30 1787 H 179.452 -4.52475 3.16181 0
M  V30 1788 H 179.929 -4.12284 1.51388 0
M  V30 1789 H 180.535 -3.14097 2.86746 0
M  V30 1790 N 178.85 -1.27639 -0.924453 0
M  V30 1791 C 180.266 -1.05113 -1.20097 0
M  V30 1792 C 180.466 0.213262 -2.00368 0
M  V30 1793 O 179.522 0.91787 -2.35226 0
M  V30 1794 C 180.835 -2.29244 -1.94596 0
M  V30 1795 C 182.383 -2.34315 -2.07522 0
M  V30 1796 C 182.858 -3.58183 -2.85427 0
M  V30 1797 N 184.349 -3.5876 -2.92994 0
M  V30 1798 C 185.084 -4.51277 -3.53746 0
M  V30 1799 N 184.58 -5.54102 -4.15863 0
M  V30 1800 N 186.373 -4.38894 -3.51181 0
M  V30 1801 H 178.524 -2.08821 -0.388264 0
M  V30 1802 H 180.787 -0.918568 -0.234385 0
M  V30 1803 H 180.493 -3.21301 -1.43034 0
M  V30 1804 H 180.367 -2.34816 -2.95197 0
M  V30 1805 H 182.754 -1.42762 -2.58269 0
M  V30 1806 H 182.835 -2.32744 -1.06131 0
M  V30 1807 H 182.479 -4.50074 -2.35363 0
M  V30 1808 H 182.409 -3.57006 -3.8711 0
M  V30 1809 H 184.9 -2.84398 -2.4885 0
M  V30 1810 H 185.213 -6.20859 -4.60168 0
M  V30 1811 H 183.558 -5.57941 -4.144 0
M  V30 1812 H 186.749 -3.57772 -3.01856 0
M  V30 1813 H 186.922 -5.11186 -3.98237 0
M  V30 1814 N 180.328 1.1314 -1.09713 0
M  V30 1815 C 181.238 2.22242 -0.751367 0
M  V30 1816 C 182.254 1.72224 0.247938 0
M  V30 1817 O 183.43 2.01205 0.0885463 0
M  V30 1818 C 180.495 3.46231 -0.180274 0
M  V30 1819 C 179.556 4.11125 -1.2359 0
M  V30 1820 C 178.789 5.29195 -0.691966 0
M  V30 1821 O 179.012 5.68342 0.48414 0
M  V30 1822 O 177.946 5.84214 -1.44838 0
M  V30 1823 H 181.772 2.54197 -1.66186 0
M  V30 1824 H 179.357 1.21331 -0.871735 0
M  V30 1825 H 181.239 4.21185 0.134739 0
M  V30 1826 H 179.914 3.1597 0.703185 0
M  V30 1827 H 178.821 3.37985 -1.60366 0
M  V30 1828 H 180.154 4.45524 -2.09211 0
M  V30 1829 N 181.806 0.884767 1.30421 0
M  V30 1830 C 182.736 0.367574 2.30589 0
M  V30 1831 C 183.717 -0.549464 1.60981 0
M  V30 1832 O 184.902 -0.46336 1.88591 0
M  V30 1833 C 182.032 -0.418944 3.44764 0
M  V30 1834 C 180.986 0.406316 4.26067 0
M  V30 1835 C 180.312 -0.506793 5.32293 0
M  V30 1836 C 181.612 1.64832 4.95608 0
M  V30 1837 H 183.306 1.20462 2.74097 0
M  V30 1838 H 180.852 0.580695 1.31772 0
M  V30 1839 H 182.805 -0.791395 4.13902 0
M  V30 1840 H 181.529 -1.28964 3.0006 0
M  V30 1841 H 180.188 0.760903 3.58617 0
M  V30 1842 H 179.836 -1.37519 4.83836 0
M  V30 1843 H 179.536 0.0415828 5.87585 0
M  V30 1844 H 181.06 -0.875764 6.04287 0
M  V30 1845 H 182.474 1.34646 5.57264 0
M  V30 1846 H 180.871 2.13688 5.60765 0
M  V30 1847 H 181.941 2.39284 4.21748 0
M  V30 1848 N 183.284 -1.43765 0.645699 0
M  V30 1849 C 184.512 -2.06253 0.163556 0
M  V30 1850 C 184.927 -1.48352 -1.16778 0
M  V30 1851 O 184.284 -0.611932 -1.71935 0
M  V30 1852 C 184.335 -3.61453 0.0583186 0
M  V30 1853 O 184.056 -4.172 1.33702 0
M  V30 1854 C 185.557 -4.41002 -0.450795 0
M  V30 1855 H 182.777 -0.665413 0.0864077 0
M  V30 1856 H 185.321 -1.84396 0.884222 0
M  V30 1857 H 183.476 -3.82522 -0.612865 0
M  V30 1858 H 183.89 -5.10791 1.19131 0
M  V30 1859 H 185.364 -5.49966 -0.473403 0
M  V30 1860 H 185.841 -4.13488 -1.48068 0
M  V30 1861 H 186.447 -4.24886 0.187637 0
M  V30 1862 N 184.763 -0.387143 -1.52771 0
M  V30 1863 C 185.71 0.449048 -2.26389 0
M  V30 1864 C 186.68 1.05961 -1.27912 0
M  V30 1865 O 187.865 1.08804 -1.56737 0
M  V30 1866 C 185.005 1.57155 -3.0724 0
M  V30 1867 C 184.118 0.984066 -4.20643 0
M  V30 1868 C 183.253 2.07745 -4.88892 0
M  V30 1869 C 182.292 1.46574 -5.94292 0
M  V30 1870 N 181.429 2.49834 -6.56146 0
M  V30 1871 H 186.269 -0.185205 -2.97424 0
M  V30 1872 H 183.806 -0.103164 -1.46738 0
M  V30 1873 H 185.764 2.23309 -3.52405 0
M  V30 1874 H 184.394 2.17615 -2.38419 0
M  V30 1875 H 183.446 0.212193 -3.79808 0
M  V30 1876 H 184.758 0.497029 -4.96318 0
M  V30 1877 H 183.912 2.81673 -5.3735 0
M  V30 1878 H 182.651 2.59807 -4.12737 0
M  V30 1879 H 181.656 0.711696 -5.45174 0
M  V30 1880 H 182.881 0.953088 -6.72379 0
M  V30 1881 H 180.827 3.0107 -5.82832 0
M  V30 1882 H 180.744 2.05879 -7.27427 0
M  V30 1883 H 182.012 3.23399 -7.09249 0
M  V30 1884 N 186.241 1.57166 -0.116904 0
M  V30 1885 C 187.188 2.15202 0.83408 0
M  V30 1886 C 188.158 1.07644 1.26499 0
M  V30 1887 O 189.343 1.35541 1.34288 0
M  V30 1888 C 186.483 2.75405 2.07957 0
M  V30 1889 C 185.596 3.97264 1.69721 0
M  V30 1890 C 184.731 4.45561 2.89221 0
M  V30 1891 C 183.77 5.59956 2.47215 0
M  V30 1892 N 182.907 6.03006 3.59622 0
M  V30 1893 H 187.747 2.96141 0.332335 0
M  V30 1894 H 185.284 1.46309 0.152349 0
M  V30 1895 H 187.242 3.08439 2.80929 0
M  V30 1896 H 185.872 1.97159 2.55594 0
M  V30 1897 H 184.924 3.70404 0.866316 0
M  V30 1898 H 186.236 4.80226 1.34849 0
M  V30 1899 H 185.39 4.80493 3.7042 0
M  V30 1900 H 184.129 3.61544 3.27318 0
M  V30 1901 H 183.134 5.2463 1.64448 0
M  V30 1902 H 184.359 6.45738 2.10238 0
M  V30 1903 H 182.305 5.21931 3.97396 0
M  V30 1904 H 182.222 6.80819 3.28667 0
M  V30 1905 H 183.49 6.42576 4.41267 0
M  V30 1906 N 187.719 -0.156864 1.56817 0
M  V30 1907 C 188.649 -1.19589 2.00551 0
M  V30 1908 C 189.63 -1.4536 0.883426 0
M  V30 1909 O 190.815 -1.56449 1.15054 0
M  V30 1910 C 187.945 -2.53143 2.37773 0
M  V30 1911 C 186.899 -2.41913 3.53075 0
M  V30 1912 C 186.225 -3.80088 3.76081 0
M  V30 1913 C 187.525 -1.91157 4.86062 0
M  V30 1914 H 189.219 -0.832293 2.87599 0
M  V30 1915 H 186.765 -0.398918 1.38364 0
M  V30 1916 H 188.718 -3.26047 2.66967 0
M  V30 1917 H 187.442 -2.91319 1.4765 0
M  V30 1918 H 186.101 -1.71462 3.24031 0
M  V30 1919 H 185.749 -4.15683 2.83225 0
M  V30 1920 H 185.449 -3.73439 4.53671 0
M  V30 1921 H 186.973 -4.54556 4.0769 0
M  V30 1922 H 188.387 -2.53846 5.14038 0
M  V30 1923 H 186.784 -1.95422 5.67389 0
M  V30 1924 H 187.854 -0.866673 4.77092 0
M  V30 1925 N 189.197 -1.51736 -0.425897 0
M  V30 1926 C 190.613 -1.40166 -0.76326 0
M  V30 1927 C 190.813 -0.492962 -1.95377 0
M  V30 1928 O 189.869 0.0475815 -2.52455 0
M  V30 1929 C 191.182 -2.82403 -1.03291 0
M  V30 1930 C 192.73 -2.91632 -1.13665 0
M  V30 1931 C 193.205 -4.34801 -1.43916 0
M  V30 1932 N 194.696 -4.3796 -1.50816 0
M  V30 1933 C 195.431 -5.4578 -1.75817 0
M  V30 1934 N 194.927 -6.63744 -1.98534 0
M  V30 1935 N 196.72 -5.33274 -1.77694 0
M  V30 1936 H 188.871 -2.09361 0.358 0
M  V30 1937 H 191.134 -0.942941 0.0978094 0
M  V30 1938 H 190.84 -3.50943 -0.230696 0
M  V30 1939 H 190.714 -3.22428 -1.95754 0
M  V30 1940 H 193.101 -2.23284 -1.92947 0
M  V30 1941 H 193.182 -2.55088 -0.190756 0
M  V30 1942 H 192.826 -5.03703 -0.65157 0
M  V30 1943 H 192.756 -4.68868 -2.39729 0
M  V30 1944 H 195.247 -3.52919 -1.35118 0
M  V30 1945 H 195.56 -7.41704 -2.17013 0
M  V30 1946 H 193.905 -6.66839 -1.95832 0
M  V30 1947 H 197.096 -4.40098 -1.59473 0
M  V30 1948 H 197.269 -6.1738 -1.9684 0
M  V30 1949 N 190.675 0.682077 -1.42076 0
M  V30 1950 C 191.585 1.82535 -1.47371 0
M  V30 1951 C 192.601 1.7017 -0.363079 0
M  V30 1952 O 193.777 1.91848 -0.612875 0
M  V30 1953 C 190.842 3.18624 -1.36674 0
M  V30 1954 C 189.903 3.42999 -2.58167 0
M  V30 1955 C 189.136 4.72595 -2.4797 0
M  V30 1956 O 189.359 5.50006 -1.5116 0
M  V30 1957 O 188.293 4.98054 -3.37974 0
M  V30 1958 H 192.119 1.81023 -2.43853 0
M  V30 1959 H 189.704 0.836887 -1.2376 0
M  V30 1960 H 191.586 3.99847 -1.33043 0
M  V30 1961 H 190.261 3.20789 -0.433138 0
M  V30 1962 H 189.168 2.61653 -2.67373 0
M  V30 1963 H 190.501 3.45659 -3.50401 0
M  V30 1964 N 192.153 1.28127 0.917671 0
M  V30 1965 C 193.085 1.07517 2.02417 0
M  V30 1966 C 194.098 0.0281099 1.62776 0
M  V30 1967 O 195.287 0.270748 1.76435 0
M  V30 1968 C 192.387 0.610957 3.33347 0
M  V30 1969 C 191.56 1.73255 4.01624 0
M  V30 1970 C 190.619 1.26238 5.10833 0
M  V30 1971 O 189.645 1.96389 5.34247 0
M  V30 1972 N 190.847 0.123448 5.80369 0
M  V30 1973 H 193.612 2.02806 2.20658 0
M  V30 1974 H 191.173 1.19827 1.08871 0
M  V30 1975 H 193.165 0.280101 4.0373 0
M  V30 1976 H 191.735 -0.24898 3.11607 0
M  V30 1977 H 190.955 2.23319 3.24842 0
M  V30 1978 H 192.243 2.48503 4.43986 0
M  V30 1979 H 191.641 -0.461847 5.63812 0
M  V30 1980 H 190.198 -0.148158 6.51632 0
M  V30 1981 N 193.631 -1.12557 1.10312 0
M  V30 1982 C 194.879 -1.83675 0.843091 0
M  V30 1983 C 195.2 -1.84435 -0.633131 0
M  V30 1984 O 194.47 -1.30657 -1.45964 0
M  V30 1985 H 193.05 -0.680138 0.308904 0
M  V30 1986 H 195.712 -1.36301 1.39313 0
M  V30 1987 H 194.808 -2.87908 1.2048 0
M  V30 1988 N 195.109 -0.891671 -1.2995 0
M  V30 1989 C 196.334 -0.527932 -2.00568 0
M  V30 1990 C 196.759 0.877969 -1.66353 0
M  V30 1991 O 196.117 1.58301 -0.883762 0
M  V30 1992 C 196.165 -0.717745 -3.53385 0
M  V30 1993 O 195.269 0.233376 -4.11739 0
M  V30 1994 H 194.61 -0.20722 -0.630837 0
M  V30 1995 H 197.14 -1.20105 -1.65638 0
M  V30 1996 H 197.15 -0.619307 -4.03272 0
M  V30 1997 H 195.825 -1.74276 -3.77625 0
M  V30 1998 H 194.402 0.0880706 -3.72796 0
M  V30 1999 N 196.587 1.43421 -0.653314 0
M  V30 2000 C 197.517 2.33487 0.0246656 0
M  V30 2001 C 198.498 1.49475 0.811863 0
M  V30 2002 O 199.683 1.78139 0.773322 0
M  V30 2003 C 196.813 3.32841 0.99166 0
M  V30 2004 C 195.767 4.26842 0.314568 0
M  V30 2005 C 195.093 5.16236 1.39302 0
M  V30 2006 C 196.393 5.16243 -0.793095 0
M  V30 2007 H 198.087 2.90427 -0.727481 0
M  V30 2008 H 195.633 1.39649 -0.351287 0
M  V30 2009 H 197.586 3.94747 1.47487 0
M  V30 2010 H 196.31 2.74158 1.77497 0
M  V30 2011 H 194.969 3.663 -0.148199 0
M  V30 2012 H 194.617 4.53891 2.16776 0
M  V30 2013 H 194.317 5.79948 0.945223 0
M  V30 2014 H 195.841 5.81015 1.87759 0
M  V30 2015 H 197.255 5.71958 -0.392039 0
M  V30 2016 H 195.652 5.88676 -1.16536 0
M  V30 2017 H 196.722 4.55927 -1.65103 0
M  V30 2018 N 198.065 0.39524 1.52563 0
M  V30 2019 C 198.995 -0.428384 2.29537 0
M  V30 2020 C 199.976 -1.05831 1.33169 0
M  V30 2021 O 201.161 -1.06995 1.62067 0
M  V30 2022 C 198.291 -1.55274 3.10656 0
M  V30 2023 C 197.245 -1.04855 4.14957 0
M  V30 2024 C 196.571 -2.26543 4.84337 0
M  V30 2025 C 197.871 -0.112324 5.22179 0
M  V30 2026 H 199.565 0.213867 2.98635 0
M  V30 2027 H 197.111 0.104298 1.43622 0
M  V30 2028 H 199.064 -2.1358 3.63265 0
M  V30 2029 H 197.788 -2.22266 2.39302 0
M  V30 2030 H 196.447 -0.487985 3.63338 0
M  V30 2031 H 196.095 -2.92059 4.09525 0
M  V30 2032 H 195.795 -1.93466 5.54837 0
M  V30 2033 H 197.319 -2.85481 5.39753 0
M  V30 2034 H 198.733 -0.603752 5.70112 0
M  V30 2035 H 197.13 0.128968 5.99961 0
M  V30 2036 H 198.2 0.837052 4.77621 0
M  V30 2037 N 199.544 -1.57102 0.125237 0
M  V30 2038 C 200.792 -1.95021 -0.530198 0
M  V30 2039 C 201.113 -1.00982 -1.66816 0
M  V30 2040 O 200.383 -0.0672693 -1.95784 0
M  V30 2041 H 198.963 -0.720046 -0.198853 0
M  V30 2042 H 201.625 -1.93916 0.19564 0
M  V30 2043 H 200.721 -2.98211 -0.920681 0
M  V30 2044 N 201.022 0.148545 -1.56898 0
M  V30 2045 C 201.969 1.18345 -1.98149 0
M  V30 2046 C 202.939 1.42772 -0.848848 0
M  V30 2047 O 204.124 1.55132 -1.11079 0
M  V30 2048 C 201.264 2.51231 -2.36594 0
M  V30 2049 C 200.377 2.33991 -3.63142 0
M  V30 2050 C 199.512 3.59902 -3.90697 0
M  V30 2051 C 198.551 3.37692 -5.1052 0
M  V30 2052 N 197.688 4.5573 -5.34092 0
M  V30 2053 H 202.528 0.82467 -2.86362 0
M  V30 2054 H 200.065 0.395756 -1.41676 0
M  V30 2055 H 202.023 3.28713 -2.56912 0
M  V30 2056 H 200.653 2.85059 -1.51463 0
M  V30 2057 H 199.705 1.47572 -3.50609 0
M  V30 2058 H 201.017 2.13539 -4.5078 0
M  V30 2059 H 200.171 4.45813 -4.11505 0
M  V30 2060 H 198.91 3.83357 -3.01477 0
M  V30 2061 H 197.915 2.5017 -4.89587 0
M  V30 2062 H 199.14 3.15637 -6.0129 0
M  V30 2063 H 197.086 4.79361 -4.47827 0
M  V30 2064 H 197.003 4.38274 -6.15996 0
M  V30 2065 H 198.271 5.42858 -5.59397 0
M  V30 2066 N 202.5 1.5196 0.417844 0
M  V30 2067 C 203.43 1.77634 1.51554 0
M  V30 2068 C 204.411 0.626918 1.58126 0
M  V30 2069 O 205.596 0.871632 1.7354 0
M  V30 2070 C 202.726 1.91911 2.8946 0
M  V30 2071 C 201.68 3.07463 2.97743 0
M  V30 2072 C 201.006 3.06951 4.37819 0
M  V30 2073 C 202.306 4.47082 2.70027 0
M  V30 2074 H 204 2.6955 1.3032 0
M  V30 2075 H 201.546 1.29706 0.625492 0
M  V30 2076 H 203.499 2.08455 3.6623 0
M  V30 2077 H 202.223 0.966598 3.11969 0
M  V30 2078 H 200.882 2.90656 2.23416 0
M  V30 2079 H 200.53 2.09438 4.57323 0
M  V30 2080 H 200.23 3.84556 4.44286 0
M  V30 2081 H 201.754 3.25613 5.16535 0
M  V30 2082 H 203.168 4.6414 3.36522 0
M  V30 2083 H 201.565 5.2654 2.87881 0
M  V30 2084 H 202.635 4.55777 1.65514 0
M  V30 2085 N 203.978 -0.674533 1.42435 0
M  V30 2086 C 205.224 -1.43671 1.43131 0
M  V30 2087 C 205.557 -1.94142 0.0476021 0
M  V30 2088 O 204.832 -1.70924 -0.928188 0
M  V30 2089 C 205.115 -2.63355 2.45594 0
M  V30 2090 C 204.968 -2.18514 3.93156 0
M  V30 2091 C 206.287 -3.65571 2.45043 0
M  V30 2092 H 203.406 -0.521077 0.521198 0
M  V30 2093 H 206.048 -0.766551 1.7385 0
M  V30 2094 H 204.198 -3.2053 2.19528 0
M  V30 2095 H 205.87 -1.66504 4.30202 0
M  V30 2096 H 204.113 -1.50086 4.07009 0
M  V30 2097 H 204.784 -3.04484 4.60428 0
M  V30 2098 H 207.26 -3.18113 2.68223 0
M  V30 2099 H 206.136 -4.46893 3.18713 0
M  V30 2100 H 206.397 -4.16716 1.47649 0
M  V30 2101 N 205.456 -1.28612 -0.910864 0
M  V30 2102 C 206.388 -1.08589 -2.01844 0
M  V30 2103 C 207.401 -0.0367419 -1.62759 0
M  V30 2104 O 208.59 -0.280101 -1.76289 0
M  V30 2105 C 205.69 -0.628626 -3.33019 0
M  V30 2106 C 204.863 -1.75382 -4.00699 0
M  V30 2107 C 203.922 -1.28945 -5.10156 0
M  V30 2108 O 202.948 -1.9922 -5.33198 0
M  V30 2109 N 204.15 -0.154224 -5.80295 0
M  V30 2110 H 206.915 -2.03973 -2.19579 0
M  V30 2111 H 204.476 -1.20403 -1.08234 0
M  V30 2112 H 206.468 -0.301508 -4.03575 0
M  V30 2113 H 205.038 0.232451 -3.11735 0
M  V30 2114 H 204.258 -2.25039 -3.23653 0
M  V30 2115 H 205.546 -2.50854 -4.42662 0
M  V30 2116 H 204.944 0.43194 -5.64049 0
M  V30 2117 H 203.501 0.113599 -6.51701 0
M  V30 2118 N 206.934 1.1197 -1.10907 0
M  V30 2119 C 207.882 2.19927 -0.757303 0
M  V30 2120 C 208.876 1.67564 0.248747 0
M  V30 2121 O 210.082 1.79672 0.108605 0
M  V30 2122 H 206.457 0.716925 -0.226987 0
M  V30 2123 H 208.428 2.46847 -1.67658 0
M  V30 2124 C 207.177 3.47061 -0.210671 0
M  V30 2125 H 206.5 3.87703 -0.976049 0
M  V30 2126 H 207.94 4.24 -0.0026584 0
M  V30 2127 C 206.399 3.19864 1.05777 0
M  V30 2128 O 206.929 3.40049 2.13845 0
M  V30 2129 N 205.135 2.73636 0.978349 0
M  V30 2130 H 204.682 2.5741 0.0988246 0
M  V30 2131 H 204.64 2.55815 1.82773 0
M  V30 2132 N 208.412 0.89855 1.29475 0
M  V30 2133 C 209.66 0.522847 1.9522 0
M  V30 2134 C 209.981 -0.93371 1.71192 0
M  V30 2135 O 209.251 -1.65823 1.04305 0
M  V30 2136 H 207.831 0.190366 0.722336 0
M  V30 2137 H 210.493 1.14459 1.5775 0
M  V30 2138 H 209.589 0.704476 3.04045 0
M  V30 2139 N 209.89 -1.43072 0.660911 0
M  V30 2140 C 211.118 -2.06067 0.185422 0
M  V30 2141 C 211.533 -1.49582 -1.15198 0
M  V30 2142 O 210.89 -0.630134 -1.71276 0
M  V30 2143 C 210.941 -3.61371 0.0966523 0
M  V30 2144 O 210.662 -4.15758 1.38119 0
M  V30 2145 C 212.163 -4.41455 -0.403996 0
M  V30 2146 H 209.383 -0.664459 0.0934604 0
M  V30 2147 H 211.927 -1.83447 0.90373 0
M  V30 2148 H 210.082 -3.8315 -0.572259 0
M  V30 2149 H 210.496 -5.09499 1.24542 0
M  V30 2150 H 211.97 -5.50437 -0.415045 0
M  V30 2151 H 212.447 -4.15036 -1.43674 0
M  V30 2152 H 213.053 -4.24663 0.232691 0
M  V30 2153 N 211.368 -0.403325 -1.52352 0
M  V30 2154 C 212.278 0.432009 -2.30588 0
M  V30 2155 C 213.294 1.05884 -1.38075 0
M  V30 2156 O 214.47 1.06161 -1.71148 0
M  V30 2157 C 211.535 1.53669 -3.10784 0
M  V30 2158 C 210.596 0.933525 -4.19027 0
M  V30 2159 C 209.829 1.98557 -4.9539 0
M  V30 2160 O 210.052 3.20283 -4.71991 0
M  V30 2161 O 208.986 1.59504 -5.80381 0
M  V30 2162 H 212.812 -0.205739 -3.03002 0
M  V30 2163 H 210.397 -0.166675 -1.48467 0
M  V30 2164 H 212.279 2.17814 -3.60742 0
M  V30 2165 H 210.954 2.15915 -2.41169 0
M  V30 2166 H 209.861 0.254954 -3.7323 0
M  V30 2167 H 211.194 0.35508 -4.90918 0
M  V30 2168 N 212.846 1.57033 -0.133567 0
M  V30 2169 C 214.257 1.82593 0.389464 0
M  V30 2170 C 214.608 1.05156 1.6564 0
M  V30 2171 O 213.733 0.292644 2.14412 0
M  V30 2172 C 214.328 3.31204 0.713377 0
M  V30 2173 C 212.887 3.57393 1.18098 0
M  V30 2174 C 212.034 2.76598 0.197126 0
M  V30 2175 H 214.985 1.54598 -0.358481 0
M  V30 2176 H 215.006 3.46627 1.56939 0
M  V30 2177 H 214.518 3.87537 -0.2089 0
M  V30 2178 H 212.619 3.06433 2.11966 0
M  V30 2179 H 212.732 4.65915 1.11624 0
M  V30 2180 H 211.096 2.45257 0.687088 0
M  V30 2181 H 211.879 3.35697 -0.718504 0
M  V30 2182 N 214.325 -0.140222 1.56975 0
M  V30 2183 C 215.55 -0.870414 1.88251 0
M  V30 2184 C 215.975 -1.73637 0.723312 0
M  V30 2185 O 215.333 -1.78329 -0.32689 0
M  V30 2186 C 215.381 -1.69737 3.18154 0
M  V30 2187 O 214.485 -2.80229 3.02565 0
M  V30 2188 H 213.826 -0.242025 0.61832 0
M  V30 2189 H 216.356 -0.128999 2.04193 0
M  V30 2190 H 216.366 -2.09099 3.50345 0
M  V30 2191 H 215.041 -1.06152 4.02125 0
M  V30 2192 H 213.618 -2.44224 2.81796 0
M  V30 2193 N 215.803 -1.52179 -0.40978 0
M  V30 2194 C 217.028 -1.70347 -1.18308 0
M  V30 2195 C 217.453 -0.411887 -1.83535 0
M  V30 2196 O 216.811 0.630587 -1.6998 0
M  V30 2197 C 216.859 -2.83977 -2.22238 0
M  V30 2198 O 215.963 -2.495 -3.28365 0
M  V30 2199 H 215.304 -0.567103 -0.345384 0
M  V30 2200 H 217.834 -1.98879 -0.480445 0
M  V30 2201 H 217.844 -3.0887 -2.66577 0
M  V30 2202 H 216.519 -3.77685 -1.74146 0
M  V30 2203 H 215.096 -2.35277 -2.89308 0
M  V30 2204 N 217.281 0.66697 -1.42791 0
M  V30 2205 C 218.211 1.79218 -1.49677 0
M  V30 2206 C 219.192 1.66405 -0.352623 0
M  V30 2207 O 220.377 1.85708 -0.567993 0
M  V30 2208 C 217.507 3.17565 -1.40605 0
M  V30 2209 C 216.461 3.45124 -2.53127 0
M  V30 2210 C 215.787 4.83127 -2.29112 0
M  V30 2211 C 217.087 3.41236 -3.95418 0
M  V30 2212 H 218.781 1.73713 -2.43853 0
M  V30 2213 H 216.327 0.83432 -1.17367 0
M  V30 2214 H 218.28 3.96022 -1.44029 0
M  V30 2215 H 217.004 3.23767 -0.429271 0
M  V30 2216 H 215.663 2.69031 -2.49034 0
M  V30 2217 H 215.311 4.85988 -1.29709 0
M  V30 2218 H 215.011 5.02528 -3.04531 0
M  V30 2219 H 216.535 5.63859 -2.34297 0
M  V30 2220 H 217.949 4.09651 -4.01073 0
M  V30 2221 H 216.346 3.72173 -4.70752 0
M  V30 2222 H 217.416 2.39665 -4.21532 0
M  V30 2223 N 218.759 1.29093 0.90403 0
M  V30 2224 C 220.17 1.15186 1.46932 0
M  V30 2225 C 220.521 -0.254587 1.94541 0
M  V30 2226 O 219.646 -1.14972 1.83332 0
M  V30 2227 C 220.241 2.08492 2.67051 0
M  V30 2228 C 218.8 1.98621 3.19729 0
M  V30 2229 C 217.947 1.9967 1.92425 0
M  V30 2230 H 220.898 1.41641 0.715789 0
M  V30 2231 H 220.919 1.65461 3.42641 0
M  V30 2232 H 220.431 3.10847 2.3237 0
M  V30 2233 H 218.532 0.993389 3.59114 0
M  V30 2234 H 218.645 2.86068 3.8432 0
M  V30 2235 H 217.009 1.44208 2.09943 0
M  V30 2236 H 217.792 3.03721 1.60026 0
M  V30 2237 N 220.237 -1.11381 1.11499 0
M  V30 2238 C 221.484 -1.83132 0.864231 0
M  V30 2239 C 221.812 -1.84683 -0.610114 0
M  V30 2240 O 221.067 -1.29589 -1.46646 0
M  V30 2241 C 221.366 -3.30026 1.37177 0
M  V30 2242 C 221.032 -3.48634 2.85946 0
M  V30 2243 C 219.694 -3.53421 3.26569 0
M  V30 2244 C 222.046 -3.54837 3.81759 0
M  V30 2245 C 219.374 -3.61967 4.61733 0
M  V30 2246 C 221.726 -3.64915 5.1674 0
M  V30 2247 C 220.39 -3.67962 5.5692 0
M  V30 2248 H 219.66 -0.670127 0.316245 0
M  V30 2249 H 222.307 -1.31354 1.3935 0
M  V30 2250 H 220.612 -3.84304 0.762753 0
M  V30 2251 H 222.309 -3.84034 1.15408 0
M  V30 2252 H 218.899 -3.45579 2.53521 0
M  V30 2253 H 223.083 -3.50399 3.51474 0
M  V30 2254 H 218.339 -3.62603 4.92269 0
M  V30 2255 H 222.513 -3.68658 5.90816 0
M  V30 2256 H 220.14 -3.74336 6.61647 0
M  V30 2257 N 221.715 -0.905404 -1.28997 0
M  V30 2258 C 222.645 -0.404212 -2.29975 0
M  V30 2259 C 223.626 0.523784 -1.61835 0
M  V30 2260 O 224.811 0.433298 -1.89304 0
M  V30 2261 C 221.941 0.364042 -3.45387 0
M  V30 2262 C 220.895 -0.474048 -4.25367 0
M  V30 2263 C 220.221 0.422045 -5.33032 0
M  V30 2264 C 221.521 -1.72696 -4.92923 0
M  V30 2265 H 223.215 -1.24807 -2.72146 0
M  V30 2266 H 220.761 -0.601585 -1.30832 0
M  V30 2267 H 222.714 0.725447 -4.15109 0
M  V30 2268 H 221.438 1.24174 -3.02074 0
M  V30 2269 H 220.097 -0.81786 -3.57361 0
M  V30 2270 H 219.745 1.29804 -4.85963 0
M  V30 2271 H 219.445 -0.135057 -5.87445 0
M  V30 2272 H 220.969 0.779517 -6.05604 0
M  V30 2273 H 222.383 -1.43495 -5.55051 0
M  V30 2274 H 220.78 -2.22582 -5.57295 0
M  V30 2275 H 221.85 -2.45964 -4.17887 0
M  V30 2276 N 223.193 1.4272 -0.668489 0
M  V30 2277 C 224.47 1.95248 -0.117373 0
M  V30 2278 C 224.85 1.60919 1.36632 0
M  V30 2279 O 224.198 0.902095 2.09939 0
M  V30 2280 C 224.408 3.46927 -0.379806 0
M  V30 2281 C 225.756 4.23588 -0.292923 0
M  V30 2282 O 226.78 3.5482 -0.313204 0
M  V30 2283 O 225.639 5.46017 -0.229697 0
M  V30 2284 H 222.733 0.827 0.00079152 0
M  V30 2285 H 225.279 1.52581 -0.742783 0
M  V30 2286 H 224.051 3.65096 -1.40786 0
M  V30 2287 H 223.674 3.96627 0.277923 0
M  V30 2288 N 224.671 0.411399 1.52136 0
M  V30 2289 C 226.082 -0.0576826 1.86611 0
M  V30 2290 C 226.433 -1.44238 1.33003 0
M  V30 2291 O 225.558 -2.05759 0.670228 0
M  V30 2292 C 226.153 -0.111448 3.38617 0
M  V30 2293 C 224.712 -0.52487 3.72723 0
M  V30 2294 C 223.859 0.299176 2.75681 0
M  V30 2295 H 226.81 0.628368 1.4573 0
M  V30 2296 H 226.831 -0.926252 3.69054 0
M  V30 2297 H 226.343 0.896488 3.77604 0
M  V30 2298 H 224.444 -1.53936 3.39315 0
M  V30 2299 H 224.557 -0.267681 4.78352 0
M  V30 2300 H 222.921 -0.238814 2.53578 0
M  V30 2301 H 223.704 1.3055 3.17508 0
M  V30 2302 N 226.149 -1.5696 0.141893 0
M  V30 2303 C 227.097 -2.17784 -0.816874 0
M  V30 2304 C 228.091 -1.1334 -1.25899 0
M  V30 2305 O 229.297 -1.316 -1.22806 0
M  V30 2306 H 225.672 -0.697278 -0.281615 0
M  V30 2307 H 227.643 -2.97087 -0.279621 0
M  V30 2308 C 226.392 -2.80983 -2.04802 0
M  V30 2309 H 225.715 -3.61062 -1.7168 0
M  V30 2310 H 227.155 -3.2705 -2.69841 0
M  V30 2311 C 225.614 -1.79228 -2.8527 0
M  V30 2312 O 226.144 -1.25962 -3.8144 0
M  V30 2313 N 224.35 -1.48647 -2.49704 0
M  V30 2314 H 223.897 -1.92155 -1.71564 0
M  V30 2315 H 223.855 -0.808115 -3.03837 0
M  V30 2316 N 227.627 0.131896 -1.57047 0
M  V30 2317 C 228.59 1.14638 -1.98471 0
M  V30 2318 C 229.59 1.35029 -0.873148 0
M  V30 2319 O 230.78 1.31764 -1.13946 0
M  V30 2320 C 227.912 2.50358 -2.31373 0
M  V30 2321 H 229.105 0.79064 -2.8929 0
M  V30 2322 H 226.658 0.375761 -1.51716 0
M  V30 2323 H 227.393 2.90876 -1.43393 0
M  V30 2324 H 227.178 2.36915 -3.12432 0
M  V30 2325 H 228.668 3.23395 -2.64207 0
M  V30 2326 N 229.106 1.52395 0.401703 0
M  V30 2327 C 230.522 1.41363 0.740864 0
M  V30 2328 C 230.722 0.523982 1.94568 0
M  V30 2329 O 229.778 -0.00741204 2.52499 0
M  V30 2330 C 231.091 2.84011 0.987847 0
M  V30 2331 C 232.639 2.93404 1.09011 0
M  V30 2332 C 233.114 4.37036 1.3698 0
M  V30 2333 N 234.605 4.40304 1.43829 0
M  V30 2334 C 235.34 5.48508 1.67112 0
M  V30 2335 N 234.836 6.66819 1.87949 0
M  V30 2336 N 236.629 5.36034 1.69187 0
M  V30 2337 H 228.78 2.08765 -0.391262 0
M  V30 2338 H 231.043 0.941265 -0.112798 0
M  V30 2339 H 230.749 3.51265 0.174835 0
M  V30 2340 H 230.623 3.25502 1.906 0
M  V30 2341 H 233.01 2.26325 1.8937 0
M  V30 2342 H 233.091 2.55359 0.15015 0
M  V30 2343 H 232.735 5.04676 0.571353 0
M  V30 2344 H 232.665 4.72623 2.3224 0
M  V30 2345 H 235.156 3.55024 1.29486 0
M  V30 2346 H 235.469 7.45063 2.05185 0
M  V30 2347 H 233.814 6.6987 1.85199 0
M  V30 2348 H 237.005 4.42579 1.52451 0
M  V30 2349 H 237.178 6.20434 1.86993 0
M  V30 2350 N 230.584 -0.659388 1.43143 0
M  V30 2351 C 231.995 -1.24041 1.39537 0
M  V30 2352 C 232.346 -1.95963 0.0963364 0
M  V30 2353 O 231.471 -2.00892 -0.804438 0
M  V30 2354 C 232.066 -2.25601 2.52764 0
M  V30 2355 C 230.625 -2.79195 2.52443 0
M  V30 2356 C 229.772 -1.53743 2.30778 0
M  V30 2357 H 232.723 -0.451792 1.52133 0
M  V30 2358 H 232.744 -3.07651 2.23899 0
M  V30 2359 H 232.256 -1.73226 3.47296 0
M  V30 2360 H 230.357 -3.35649 1.61773 0
M  V30 2361 H 230.47 -3.2716 3.50004 0
M  V30 2362 H 228.834 -1.80869 1.79328 0
M  V30 2363 H 229.617 -1.03312 3.27386 0
M  V30 2364 N 232.062 -1.29571 -0.897171 0
M  V30 2365 C 232.992 -1.17473 -2.01798 0
M  V30 2366 C 233.973 -0.068323 -1.69963 0
M  V30 2367 O 235.158 -0.248239 -1.92607 0
M  V30 2368 C 232.288 -0.853099 -3.36659 0
M  V30 2369 C 231.242 -1.9161 -3.82713 0
M  V30 2370 C 230.568 -1.44773 -5.14728 0
M  V30 2371 C 231.868 -3.32535 -4.02763 0
M  V30 2372 H 233.562 -2.11237 -2.12177 0
M  V30 2373 H 231.108 -1.01699 -1.01948 0
M  V30 2374 H 233.061 -0.755165 -4.14578 0
M  V30 2375 H 231.785 0.120236 -3.26379 0
M  V30 2376 H 230.444 -2.00346 -3.07013 0
M  V30 2377 H 230.092 -0.462995 -5.00865 0
M  V30 2378 H 229.792 -2.15865 -5.46513 0
M  V30 2379 H 231.316 -1.36334 -5.95185 0
M  V30 2380 H 232.73 -3.26626 -4.71156 0
M  V30 2381 H 231.127 -4.01607 -4.45905 0
M  V30 2382 H 232.197 -3.75326 -3.07016 0
M  V30 2383 N 233.54 1.10788 -1.12088 0
M  V30 2384 C 234.786 1.82942 -0.875226 0
M  V30 2385 C 235.119 1.84779 0.597538 0
M  V30 2386 O 234.394 1.30578 1.44152 0
M  V30 2387 C 234.677 3.29789 -1.44606 0
M  V30 2388 C 234.53 3.36307 -2.98693 0
M  V30 2389 C 235.849 4.26064 -1.10261 0
M  V30 2390 H 232.968 0.664195 -0.319397 0
M  V30 2391 H 235.61 1.29867 -1.38689 0
M  V30 2392 H 233.76 3.75118 -1.01089 0
M  V30 2393 H 235.432 2.99487 -3.50864 0
M  V30 2394 H 233.675 2.76318 -3.34411 0
M  V30 2395 H 234.346 4.39694 -3.33726 0
M  V30 2396 H 236.822 3.88951 -1.4784 0
M  V30 2397 H 235.698 5.27183 -1.52869 0
M  V30 2398 H 235.959 4.42098 -0.0142953 0
M  V30 2399 N 235.018 0.912232 1.28515 0
M  V30 2400 C 236.429 0.591352 1.77087 0
M  V30 2401 C 236.78 -0.8933 1.74684 0
M  V30 2402 O 235.905 -1.69876 1.34056 0
M  V30 2403 C 236.5 1.06668 3.2157 0
M  V30 2404 C 235.059 0.79675 3.67871 0
M  V30 2405 C 234.206 1.23427 2.48316 0
M  V30 2406 H 237.157 1.09365 1.15 0
M  V30 2407 H 237.178 0.407455 3.78312 0
M  V30 2408 H 236.69 2.14726 3.23287 0
M  V30 2409 H 234.791 -0.270679 3.71616 0
M  V30 2410 H 234.904 1.40343 4.58084 0
M  V30 2411 H 233.268 0.653036 2.46186 0
M  V30 2412 H 234.051 2.32316 2.52753 0
M  V30 2413 N 236.496 -1.42363 0.676048 0
M  V30 2414 C 237.406 -2.346 -0.00153389 0
M  V30 2415 C 238.422 -1.5516 -0.787485 0
M  V30 2416 O 239.598 -1.87723 -0.729521 0
M  V30 2417 C 236.663 -3.33705 -0.940298 0
M  V30 2418 C 235.724 -4.29042 -0.148739 0
M  V30 2419 C 234.957 -5.23413 -1.04279 0
M  V30 2420 O 235.18 -5.22749 -2.28232 0
M  V30 2421 O 234.114 -5.99795 -0.502925 0
M  V30 2422 H 237.94 -2.94082 0.758268 0
M  V30 2423 H 235.525 -1.42888 0.436289 0
M  V30 2424 H 237.407 -3.94586 -1.47917 0
M  V30 2425 H 236.082 -2.76695 -1.67993 0
M  V30 2426 H 234.989 -3.71571 0.43427 0
M  V30 2427 H 236.322 -4.89097 0.551805 0
M  V30 2428 N 237.974 -0.419461 -1.51915 0
M  V30 2429 C 239.22 0.153166 -2.02221 0
M  V30 2430 C 239.553 1.43907 -1.30401 0
M  V30 2431 O 238.828 1.90055 -0.413438 0
M  V30 2432 C 239.111 0.390291 -3.57979 0
M  V30 2433 C 238.964 -0.913014 -4.40436 0
M  V30 2434 C 240.283 1.16794 -4.2432 0
M  V30 2435 H 237.402 0.0541924 -0.735005 0
M  V30 2436 H 240.044 -0.554955 -1.81715 0
M  V30 2437 H 238.194 0.993491 -3.75582 0
M  V30 2438 H 239.866 -1.54882 -4.34522 0
M  V30 2439 H 238.109 -1.52168 -4.06236 0
M  V30 2440 H 238.78 -0.701361 -5.47526 0
M  V30 2441 H 241.256 0.657161 -4.10878 0
M  V30 2442 H 240.132 1.3026 -5.3322 0
M  V30 2443 H 240.393 2.19132 -3.83971 0
M  V30 2444 N 239.452 1.56882 -0.150215 0
M  V30 2445 C 240.677 2.01027 0.510184 0
M  V30 2446 C 241.102 1.02966 1.57415 0
M  V30 2447 O 240.46 0.00590158 1.81299 0
M  V30 2448 C 240.508 3.43899 1.08472 0
M  V30 2449 O 239.612 3.4885 2.19948 0
M  V30 2450 H 238.953 0.652233 0.124451 0
M  V30 2451 H 241.483 2.03093 -0.247894 0
M  V30 2452 H 241.493 3.82766 1.41259 0
M  V30 2453 H 240.168 4.14776 0.305582 0
M  V30 2454 H 238.745 3.21827 1.88366 0
M  V30 2455 N 240.93 -0.123565 1.57115 0
M  V30 2456 C 242.179 -0.830704 1.83799 0
M  V30 2457 C 242.492 -1.81259 0.735158 0
M  V30 2458 O 243.698 -2.56558 0.888278 0
M  V30 2459 C 242.154 -1.52802 3.25852 0
M  V30 2460 C 241.762 -0.587356 4.44133 0
M  V30 2461 C 243.506 -2.22056 3.61789 0
M  V30 2462 C 241.413 -1.28764 5.77212 0
M  V30 2463 H 240.343 -0.313967 0.685522 0
M  V30 2464 H 242.994 -0.0834359 1.8331 0
M  V30 2465 H 241.376 -2.32175 3.20797 0
M  V30 2466 H 242.55 0.172829 4.60476 0
M  V30 2467 H 240.865 -0.00201892 4.164 0
M  V30 2468 H 243.462 -2.75131 4.58483 0
M  V30 2469 H 243.805 -2.99644 2.88997 0
M  V30 2470 H 244.338 -1.49576 3.68608 0
M  V30 2471 H 241.077 -0.55314 6.53162 0
M  V30 2472 H 240.597 -2.01995 5.64764 0
M  V30 2473 H 242.276 -1.8221 6.20813 0
M  V30 2474 N 242.408 -1.52605 -0.393616 0
M  V30 2475 C 243.355 -1.77055 -1.48054 0
M  V30 2476 C 244.325 -0.61358 -1.54352 0
M  V30 2477 O 245.51 -0.852806 -1.70681 0
M  V30 2478 C 242.65 -1.94108 -2.85335 0
M  V30 2479 C 241.763 -3.21792 -2.88226 0
M  V30 2480 C 240.898 -3.29188 -4.16904 0
M  V30 2481 C 239.937 -4.51013 -4.13828 0
M  V30 2482 N 239.074 -4.55716 -5.34105 0
M  V30 2483 H 243.914 -2.69815 -1.26506 0
M  V30 2484 H 241.451 -1.33683 -0.61379 0
M  V30 2485 H 243.409 -2.01979 -3.65049 0
M  V30 2486 H 242.039 -1.04713 -3.05344 0
M  V30 2487 H 241.091 -3.23015 -2.00911 0
M  V30 2488 H 242.403 -4.11557 -2.8182 0
M  V30 2489 H 241.557 -3.36216 -5.05018 0
M  V30 2490 H 240.296 -2.37389 -4.26026 0
M  V30 2491 H 239.301 -4.44115 -3.24102 0
M  V30 2492 H 240.526 -5.44123 -4.06333 0
M  V30 2493 H 238.472 -3.66807 -5.43865 0
M  V30 2494 H 238.389 -5.39346 -5.29756 0
M  V30 2495 H 239.657 -4.66993 -6.2413 0
M  V30 2496 N 243.887 0.651787 -1.4349 0
M  V30 2497 C 245.115 1.43937 -1.48626 0
M  V30 2498 C 245.53 1.8851 -0.104587 0
M  V30 2499 O 244.887 1.5958 0.885464 0
M  V30 2500 C 244.938 2.6734 -2.43334 0
M  V30 2501 O 244.659 2.24631 -3.76128 0
M  V30 2502 C 246.16 3.60683 -2.57726 0
M  V30 2503 H 243.38 0.44213 -0.504739 0
M  V30 2504 H 245.924 0.798944 -1.88248 0
M  V30 2505 H 244.079 3.2752 -2.06904 0
M  V30 2506 H 244.493 3.04485 -4.2707 0
M  V30 2507 H 245.967 4.43933 -3.28067 0
M  V30 2508 H 246.444 4.08126 -1.62265 0
M  V30 2509 H 247.05 3.06384 -2.94973 0
M  V30 2510 N 245.365 1.30045 0.890287 0
M  V30 2511 C 246.776 1.16738 1.45702 0
M  V30 2512 C 247.127 -0.233939 1.948 0
M  V30 2513 O 246.252 -1.13021 1.84541 0
M  V30 2514 C 246.847 2.11313 2.64825 0
M  V30 2515 C 245.406 2.02001 3.17604 0
M  V30 2516 C 244.553 2.01699 1.90296 0
M  V30 2517 H 247.504 1.42392 0.700726 0
M  V30 2518 H 247.525 1.69086 3.40867 0
M  V30 2519 H 247.037 3.13294 2.2906 0
M  V30 2520 H 245.138 1.03142 3.5804 0
M  V30 2521 H 245.251 2.90128 3.81264 0
M  V30 2522 H 243.615 1.46427 2.08402 0
M  V30 2523 H 244.398 3.05402 1.56795 0
M  V30 2524 N 246.843 -1.10192 1.12674 0
M  V30 2525 C 248.259 -1.34235 0.863317 0
M  V30 2526 C 248.459 -1.95062 -0.505277 0
M  V30 2527 O 247.515 -2.19192 -1.25345 0
M  V30 2528 C 248.828 -2.2616 1.98172 0
M  V30 2529 C 250.376 -2.3969 2.0129 0
M  V30 2530 C 250.851 -3.34946 3.1237 0
M  V30 2531 N 252.342 -3.42515 3.11829 0
M  V30 2532 C 253.077 -4.16199 3.94419 0
M  V30 2533 N 252.573 -4.92747 4.87004 0
M  V30 2534 N 254.366 -4.11843 3.82547 0
M  V30 2535 H 246.517 -0.690798 2.00853 0
M  V30 2536 H 248.78 -0.366774 0.874174 0
M  V30 2537 H 248.486 -1.8868 2.96804 0
M  V30 2538 H 248.36 -3.26488 1.88906 0
M  V30 2539 H 250.747 -2.76438 1.03276 0
M  V30 2540 H 250.828 -1.39169 2.14629 0
M  V30 2541 H 250.472 -2.98923 4.10619 0
M  V30 2542 H 250.402 -4.35353 2.96269 0
M  V30 2543 H 252.893 -2.87926 2.44759 0
M  V30 2544 H 253.206 -5.46376 5.46528 0
M  V30 2545 H 251.551 -4.91862 4.91016 0
M  V30 2546 H 254.742 -3.51136 3.0955 0
M  V30 2547 H 254.915 -4.69007 4.47142 0
M  V30 2548 N 248.321 -0.919034 -1.28029 0
M  V30 2549 C 249.567 -0.555757 -1.95036 0
M  V30 2550 C 249.9 0.899198 -1.72128 0
M  V30 2551 O 249.175 1.64023 -1.04531 0
M  V30 2552 C 249.458 -0.872024 -3.49382 0
M  V30 2553 C 249.311 -2.3801 -3.81669 0
M  V30 2554 C 250.63 -0.37185 -4.38526 0
M  V30 2555 H 247.749 -0.203386 -0.708381 0
M  V30 2556 H 250.391 -1.14924 -1.51303 0
M  V30 2557 H 248.541 -0.366946 -3.86763 0
M  V30 2558 H 250.213 -2.9562 -3.54128 0
M  V30 2559 H 248.456 -2.83289 -3.28526 0
M  V30 2560 H 249.127 -2.55192 -4.8947 0
M  V30 2561 H 251.603 -0.804602 -4.08247 0
M  V30 2562 H 250.479 -0.622173 -5.45362 0
M  V30 2563 H 250.74 0.727934 -4.36066 0
M  V30 2564 N 249.799 1.42003 -0.683588 0
M  V30 2565 C 251.046 2.01413 -0.209514 0
M  V30 2566 C 251.374 1.54088 1.1869 0
M  V30 2567 O 250.629 0.737591 1.81268 0
M  V30 2568 C 250.928 3.56827 -0.202357 0
M  V30 2569 C 250.594 4.23617 -1.54464 0
M  V30 2570 C 249.256 4.41577 -1.91215 0
M  V30 2571 C 251.608 4.61178 -2.42826 0
M  V30 2572 C 248.936 4.9437 -3.15935 0
M  V30 2573 C 251.288 5.15355 -3.66867 0
M  V30 2574 C 249.952 5.31528 -4.03776 0
M  V30 2575 H 249.222 0.737023 -0.0766668 0
M  V30 2576 H 251.869 1.70067 -0.880312 0
M  V30 2577 H 250.174 3.87892 0.551969 0
M  V30 2578 H 251.871 4.00588 0.181793 0
M  V30 2579 H 248.461 4.10004 -1.24877 0
M  V30 2580 H 252.645 4.46968 -2.15717 0
M  V30 2581 H 247.901 5.05076 -3.44541 0
M  V30 2582 H 252.075 5.43402 -4.35531 0
M  V30 2583 H 249.702 5.72199 -5.00492 0
M  V30 2584 N 251.277 0.427512 1.51691 0
M  V30 2585 C 252.225 -0.403359 2.29076 0
M  V30 2586 C 253.219 -1.02962 1.34518 0
M  V30 2587 O 254.425 -0.965715 1.51901 0
M  V30 2588 H 250.8 -0.148879 0.737115 0
M  V30 2589 H 252.771 0.270295 2.97173 0
M  V30 2590 C 251.52 -1.49763 3.13794 0
M  V30 2591 H 250.843 -1.02508 3.86435 0
M  V30 2592 H 252.283 -2.05244 3.71014 0
M  V30 2593 C 250.742 -2.47536 2.28533 0
M  V30 2594 O 251.272 -3.51848 1.93819 0
M  V30 2595 N 249.478 -2.18187 1.91945 0
M  V30 2596 H 249.025 -1.33389 2.20375 0
M  V30 2597 H 248.983 -2.83848 1.35195 0
M  V30 2598 N 252.755 -1.56801 0.158532 0
M  V30 2599 C 253.983 -2.00859 -0.496303 0
M  V30 2600 C 254.398 -1.03871 -1.57659 0
M  V30 2601 O 253.755 -0.0375165 -1.82461 0
M  V30 2602 C 253.806 -3.4479 -1.08638 0
M  V30 2603 O 253.527 -4.38072 -0.0492322 0
M  V30 2604 C 255.028 -4.04185 -1.8207 0
M  V30 2605 H 252.248 -0.65864 -0.128199 0
M  V30 2606 H 254.792 -2.02885 0.256506 0
M  V30 2607 H 252.947 -3.43579 -1.78975 0
M  V30 2608 H 253.361 -5.2227 -0.483102 0
M  V30 2609 H 254.835 -5.06857 -2.18633 0
M  V30 2610 H 255.312 -3.45549 -2.71095 0
M  V30 2611 H 255.918 -4.0906 -1.16405 0
M  V30 2612 N 254.233 0.115231 -1.57178 0
M  V30 2613 C 255.481 0.820727 -1.84685 0
M  V30 2614 C 255.802 1.80237 -0.744279 0
M  V30 2615 O 255.072 1.94529 0.231375 0
M  V30 2616 H 253.652 0.306084 -0.681411 0
M  V30 2617 H 256.314 0.101656 -1.94635 0
M  V30 2618 H 255.41 1.36366 -2.80733 0
M  V30 2619 N 255.711 1.52812 0.385517 0
M  V30 2620 C 256.959 1.67694 1.12797 0
M  V30 2621 C 257.28 0.421115 1.90399 0
M  V30 2622 O 256.55 -0.564551 1.87589 0
M  V30 2623 H 255.13 0.618155 0.419396 0
M  V30 2624 H 257.792 1.89938 0.436972 0
M  V30 2625 H 256.888 2.52896 1.82894 0
M  V30 2626 N 257.189 -0.644168 1.43834 0
M  V30 2627 C 258.152 -1.73857 1.49353 0
M  V30 2628 C 259.152 -1.56315 0.377112 0
M  V30 2629 O 260.342 -1.62048 0.639226 0
M  V30 2630 C 257.474 -3.12819 1.35488 0
M  V30 2631 H 258.667 -1.70342 2.46827 0
M  V30 2632 H 256.22 -0.856652 1.30733 0
M  V30 2633 H 256.955 -3.2194 0.390569 0
M  V30 2634 H 256.74 -3.26958 2.16428 0
M  V30 2635 H 258.23 -3.92606 1.42302 0
M  V30 2636 N 258.668 -1.30515 -0.883378 0
M  V30 2637 C 260.079 -1.17509 -1.45081 0
M  V30 2638 C 260.43 0.223605 -1.94922 0
M  V30 2639 O 259.555 1.12041 -1.85137 0
M  V30 2640 C 260.15 -2.12715 -2.63701 0
M  V30 2641 C 258.709 -2.03682 -3.16529 0
M  V30 2642 C 257.856 -2.02706 -1.89224 0
M  V30 2643 H 260.807 -1.42762 -0.693165 0
M  V30 2644 H 260.828 -1.70891 -3.39965 0
M  V30 2645 H 260.34 -3.14505 -2.27395 0
M  V30 2646 H 258.441 -1.05039 -3.57488 0
M  V30 2647 H 258.554 -2.92146 -3.7972 0
M  V30 2648 H 256.918 -1.4753 -2.07622 0
M  V30 2649 H 257.701 -3.06229 -1.55174 0
M  V30 2650 N 260.146 1.09593 -1.13257 0
M  V30 2651 C 261.562 1.33775 -0.870423 0
M  V30 2652 C 261.762 1.95327 0.494926 0
M  V30 2653 O 260.818 2.19853 1.2418 0
M  V30 2654 C 262.131 2.25106 -1.99369 0
M  V30 2655 C 263.679 2.3862 -2.02558 0
M  V30 2656 C 264.154 3.33285 -3.14142 0
M  V30 2657 N 265.645 3.40857 -3.13641 0
M  V30 2658 C 266.38 4.14101 -3.96621 0
M  V30 2659 N 265.876 4.90157 -4.8961 0
M  V30 2660 N 267.669 4.09808 -3.84726 0
M  V30 2661 H 259.82 0.680136 -2.01216 0
M  V30 2662 H 262.083 0.362133 -0.876107 0
M  V30 2663 H 261.789 1.87103 -2.97801 0
M  V30 2664 H 261.663 3.25481 -1.90635 0
M  V30 2665 H 264.05 2.75887 -1.0474 0
M  V30 2666 H 264.131 1.38028 -2.15364 0
M  V30 2667 H 263.775 2.96741 -4.12198 0
M  V30 2668 H 263.705 4.33776 -2.98574 0
M  V30 2669 H 266.196 2.86624 -2.46282 0
M  V30 2670 H 266.509 5.4347 -5.49418 0
M  V30 2671 H 264.854 4.89251 -4.93617 0
M  V30 2672 H 268.045 3.4949 -3.11408 0
M  V30 2673 H 268.218 4.66629 -4.49623 0
M  V30 2674 N 261.624 0.925811 1.2754 0
M  V30 2675 C 262.873 0.561084 1.93739 0
M  V30 2676 C 263.186 -0.901685 1.73577 0
M  V30 2677 O 264.392 -1.37511 2.34101 0
M  V30 2678 C 262.848 0.952668 3.47062 0
M  V30 2679 C 262.456 2.43599 3.75983 0
M  V30 2680 C 264.2 0.659103 4.19352 0
M  V30 2681 C 262.107 2.76707 5.22673 0
M  V30 2682 H 261.037 0.206122 0.725279 0
M  V30 2683 H 263.688 1.12637 1.44863 0
M  V30 2684 H 262.07 0.316053 3.94737 0
M  V30 2685 H 263.244 3.12035 3.39073 0
M  V30 2686 H 261.559 2.70125 3.16893 0
M  V30 2687 H 264.156 0.882985 5.27359 0
M  V30 2688 H 264.499 -0.403607 4.14339 0
M  V30 2689 H 265.032 1.25473 3.77494 0
M  V30 2690 H 261.771 3.8188 5.32774 0
M  V30 2691 H 261.291 2.12919 5.60737 0
M  V30 2692 H 262.97 2.6435 5.90532 0
M  V30 2693 N 263.102 -1.41638 0.69111 0
M  V30 2694 C 264.032 -2.3347 0.037248 0
M  V30 2695 C 265.013 -1.51575 -0.771947 0
M  V30 2696 O 266.198 -1.80126 -0.72582 0
M  V30 2697 C 263.328 -3.35354 -0.903064 0
M  V30 2698 C 262.282 -4.27526 -0.201288 0
M  V30 2699 C 261.608 -5.19747 -1.25565 0
M  V30 2700 C 262.908 -5.13959 0.929689 0
M  V30 2701 H 264.602 -2.88397 0.804227 0
M  V30 2702 H 262.148 -1.38669 0.388189 0
M  V30 2703 H 264.101 -3.98519 -1.36969 0
M  V30 2704 H 262.825 -2.78767 -1.70166 0
M  V30 2705 H 261.484 -3.65779 0.245265 0
M  V30 2706 H 261.132 -4.59479 -2.04666 0
M  V30 2707 H 260.832 -5.8225 -0.791128 0
M  V30 2708 H 262.356 -5.85789 -1.72288 0
M  V30 2709 H 263.77 -5.70718 0.543546 0
M  V30 2710 H 262.167 -5.85379 1.32103 0
M  V30 2711 H 263.237 -4.51389 1.77133 0
M  V30 2712 N 264.58 -0.43555 -1.51462 0
M  V30 2713 C 265.543 0.365137 -2.26273 0
M  V30 2714 C 266.543 0.951227 -1.29647 0
M  V30 2715 O 267.733 0.825958 -1.53374 0
M  V30 2716 C 264.865 1.51645 -3.05314 0
M  V30 2717 H 266.058 -0.290474 -2.9849 0
M  V30 2718 H 263.611 -0.188676 -1.55157 0
M  V30 2719 H 264.346 2.20816 -2.3751 0
M  V30 2720 H 264.131 1.10238 -3.76284 0
M  V30 2721 H 265.621 2.08218 -3.61987 0
M  V30 2722 N 266.058 1.56714 -0.166846 0
M  V30 2723 C 266.988 2.20754 0.760913 0
M  V30 2724 C 267.969 1.16178 1.24244 0
M  V30 2725 O 269.154 1.44592 1.29641 0
M  V30 2726 C 266.284 2.84478 1.99223 0
M  V30 2727 C 265.238 3.95053 1.64672 0
M  V30 2728 C 264.564 4.45805 2.95232 0
M  V30 2729 C 265.864 5.14865 0.878155 0
M  V30 2730 H 267.558 2.98537 0.22713 0
M  V30 2731 H 265.104 1.43596 0.107805 0
M  V30 2732 H 267.057 3.27951 2.64624 0
M  V30 2733 H 265.781 2.04056 2.55007 0
M  V30 2734 H 264.44 3.52228 1.01641 0
M  V30 2735 H 264.088 3.62181 3.49047 0
M  V30 2736 H 263.788 5.204 2.7287 0
M  V30 2737 H 265.312 4.91962 3.6167 0
M  V30 2738 H 266.726 5.55059 1.43466 0
M  V30 2739 H 265.123 5.95348 0.753738 0
M  V30 2740 H 266.193 4.84735 -0.126377 0
M  V30 2741 N 267.536 -0.106894 1.57237 0
M  V30 2742 C 268.813 -0.843526 1.76477 0
M  V30 2743 C 269.193 -1.97499 0.745464 0
M  V30 2744 O 268.541 -2.27357 -0.228306 0
M  V30 2745 C 268.751 -1.34903 3.21873 0
M  V30 2746 C 270.099 -1.79654 3.8472 0
M  V30 2747 O 271.123 -1.44554 3.2555 0
M  V30 2748 O 269.982 -2.44515 4.88748 0
M  V30 2749 H 267.076 -0.401468 0.723016 0
M  V30 2750 H 269.622 -0.0896927 1.69463 0
M  V30 2751 H 268.394 -0.53781 3.87586 0
M  V30 2752 H 268.017 -2.16522 3.33473 0
M  V30 2753 N 269.014 -1.53014 -0.377408 0
M  V30 2754 C 270.254 -1.70318 -1.1301 0
M  V30 2755 C 270.618 -0.439538 -1.86901 0
M  V30 2756 O 271.819 -0.489095 -2.64313 0
M  V30 2757 C 270.09 -2.91125 -2.07319 0
M  V30 2758 S 271.649 -3.29075 -2.90268 0
M  V30 2759 H 268.467 -0.599426 -0.382374 0
M  V30 2760 H 271.069 -1.91089 -0.412933 0
M  V30 2761 H 269.773 -3.81303 -1.51777 0
M  V30 2762 H 269.304 -2.7272 -2.83526 0
M  V30 2763 H 271.319 -2.80165 -4.09539 0
M  V30 2764 N 270.492 0.636531 -1.44174 0
M  V30 2765 C 271.74 1.39343 -1.46383 0
M  V30 2766 C 272.061 1.94766 -0.0955715 0
M  V30 2767 O 271.331 1.75452 0.871395 0
M  V30 2768 H 269.911 0.517199 -0.538994 0
M  V30 2769 H 272.573 0.74957 -1.7991 0
M  V30 2770 H 271.669 2.22746 -2.18611 0
M  V30 2771 N 271.97 1.30982 0.876444 0
M  V30 2772 C 272.9 1.20668 1.99903 0
M  V30 2773 C 273.881 0.095354 1.69833 0
M  V30 2774 O 275.066 0.27885 1.92188 0
M  V30 2775 C 272.196 0.90655 3.3526 0
M  V30 2776 C 271.15 1.97675 3.79617 0
M  V30 2777 C 270.476 1.52943 5.1236 0
M  V30 2778 C 271.776 3.389 3.97422 0
M  V30 2779 H 273.47 2.14586 2.0879 0
M  V30 2780 H 271.016 1.03308 1.00317 0
M  V30 2781 H 272.969 0.821025 4.13324 0
M  V30 2782 H 271.693 -0.0682969 3.26529 0
M  V30 2783 H 270.352 2.05205 3.03787 0
M  V30 2784 H 270 0.54262 5.00065 0
M  V30 2785 H 269.7 2.24532 5.43009 0
M  V30 2786 H 271.224 1.45786 5.92941 0
M  V30 2787 H 272.638 3.34081 4.659 0
M  V30 2788 H 271.035 4.0865 4.3946 0
M  V30 2789 H 272.105 3.80163 3.01006 0
M  V30 2790 N 273.449 -1.08991 1.13837 0
M  V30 2791 C 274.396 -2.15748 0.819835 0
M  V30 2792 C 275.366 -1.64636 -0.220026 0
M  V30 2793 O 276.551 -1.90582 -0.0912757 0
M  V30 2794 C 273.691 -3.4382 0.296913 0
M  V30 2795 C 272.804 -4.0881 1.39636 0
M  V30 2796 C 271.939 -5.24655 0.831314 0
M  V30 2797 C 270.978 -5.81575 1.90886 0
M  V30 2798 N 270.115 -6.88774 1.36142 0
M  V30 2799 H 274.955 -2.42338 1.73426 0
M  V30 2800 H 272.492 -1.18935 0.865613 0
M  V30 2801 H 274.45 -4.17193 -0.0244339 0
M  V30 2802 H 273.08 -3.17535 -0.580628 0
M  V30 2803 H 272.132 -3.33258 1.83422 0
M  V30 2804 H 273.444 -4.47141 2.21058 0
M  V30 2805 H 272.598 -6.04942 0.461515 0
M  V30 2806 H 271.337 -4.87698 -0.013932 0
M  V30 2807 H 270.342 -4.99946 2.28767 0
M  V30 2808 H 271.567 -6.20592 2.75758 0
M  V30 2809 H 269.513 -6.53788 0.538254 0
M  V30 2810 H 269.43 -7.25898 2.11208 0
M  V30 2811 H 270.698 -7.72806 1.01933 0
M  V30 2812 N 274.927 -0.932562 -1.27047 0
M  V30 2813 C 276.157 -0.591173 -1.97961 0
M  V30 2814 C 276.565 0.836219 -1.69717 0
M  V30 2815 O 275.908 1.56801 -0.957036 0
M  V30 2816 C 275.97 -0.743082 -3.51736 0
M  V30 2817 C 275.634 -2.1435 -4.03613 0
M  V30 2818 C 276.631 -3.11815 -4.16014 0
M  V30 2819 C 274.316 -2.46175 -4.37839 0
M  V30 2820 C 276.31 -4.39211 -4.61923 0
M  V30 2821 C 273.997 -3.73806 -4.83438 0
M  V30 2822 C 274.995 -4.70137 -4.95439 0
M  V30 2823 O 274.683 -5.95496 -5.40037 0
M  V30 2824 H 274.415 -0.222375 -0.638377 0
M  V30 2825 H 276.969 -1.25317 -1.62742 0
M  V30 2826 H 275.199 -0.0239739 -3.86693 0
M  V30 2827 H 276.888 -0.40603 -4.03864 0
M  V30 2828 H 277.654 -2.88549 -3.89826 0
M  V30 2829 H 273.533 -1.71936 -4.27737 0
M  V30 2830 H 277.077 -5.14404 -4.71205 0
M  V30 2831 H 272.974 -3.96888 -5.09068 0
M  V30 2832 H 273.742 -5.98554 -5.58279 0
M  V30 2833 N 276.405 1.4127 -0.698611 0
M  V30 2834 C 277.353 2.32588 -0.023855 0
M  V30 2835 C 278.347 1.51128 0.765292 0
M  V30 2836 O 279.553 1.67043 0.670571 0
M  V30 2837 H 275.928 0.751918 0.0110871 0
M  V30 2838 H 277.899 2.87167 -0.811031 0
M  V30 2839 C 276.648 3.35947 0.896369 0
M  V30 2840 H 275.971 3.98684 0.298548 0
M  V30 2841 H 277.411 4.02376 1.33676 0
M  V30 2842 C 275.87 2.70076 2.01396 0
M  V30 2843 O 276.4 2.55093 3.10307 0
M  V30 2844 N 274.606 2.28724 1.79259 0
M  V30 2845 H 274.153 2.4111 0.906841 0
M  V30 2846 H 274.111 1.84986 2.54219 0
M  V30 2847 N 277.883 0.443576 1.51229 0
M  V30 2848 C 278.815 -0.400608 2.25672 0
M  V30 2849 C 279.828 -0.980945 1.29928 0
M  V30 2850 O 281.017 -0.874024 1.55638 0
M  V30 2851 C 278.117 -1.57304 3.00181 0
M  V30 2852 C 277.29 -1.11046 4.23069 0
M  V30 2853 C 276.349 -2.15374 4.80105 0
M  V30 2854 O 275.375 -1.74554 5.41774 0
M  V30 2855 N 276.577 -3.47922 4.64683 0
M  V30 2856 H 279.342 0.23745 2.98758 0
M  V30 2857 H 276.903 0.272809 1.59585 0
M  V30 2858 H 278.895 -2.26733 3.35223 0
M  V30 2859 H 277.465 -2.11632 2.30066 0
M  V30 2860 H 276.685 -0.243019 3.9345 0
M  V30 2861 H 277.973 -0.778888 5.02803 0
M  V30 2862 H 277.371 -3.83815 4.15575 0
M  V30 2863 H 275.928 -4.13228 5.0407 0
M  V30 2864 N 279.361 -1.56624 0.175154 0
M  V30 2865 C 280.61 -1.96173 -0.468921 0
M  V30 2866 C 280.923 -1.06401 -1.64128 0
M  V30 2867 O 282.129 -1.35648 -2.35185 0
M  V30 2868 C 280.585 -3.48833 -0.885633 0
M  V30 2869 C 280.193 -4.47237 0.261343 0
M  V30 2870 C 281.937 -3.97194 -1.49791 0
M  V30 2871 C 279.844 -5.9114 -0.175214 0
M  V30 2872 H 278.774 -0.732455 -0.178958 0
M  V30 2873 H 281.425 -1.81591 0.263997 0
M  V30 2874 H 279.807 -3.58848 -1.67464 0
M  V30 2875 H 280.981 -4.4894 1.03871 0
M  V30 2876 H 279.296 -4.08956 0.783827 0
M  V30 2877 H 281.893 -5.02167 -1.83665 0
M  V30 2878 H 282.236 -3.40351 -2.39722 0
M  V30 2879 H 282.769 -3.90212 -0.773267 0
M  V30 2880 H 279.508 -6.51865 0.689414 0
M  V30 2881 H 279.028 -5.92735 -0.91786 0
M  V30 2882 H 280.707 -6.44044 -0.617792 0
M  V30 2883 N 280.839 0.0985539 -1.57292 0
M  V30 2884 C 282.255 0.45267 -1.53046 0
M  V30 2885 C 282.455 1.80713 -0.891342 0
M  V30 2886 O 281.511 2.4785 -0.482375 0
M  V30 2887 C 282.824 0.418341 -2.97776 0
M  V30 2888 C 284.372 0.500443 -3.08973 0
M  V30 2889 C 284.847 0.496297 -4.55303 0
M  V30 2890 N 286.338 0.557151 -4.59837 0
M  V30 2891 C 287.073 0.575726 -5.70502 0
M  V30 2892 N 286.569 0.550714 -6.90608 0
M  V30 2893 N 288.362 0.620277 -5.58667 0
M  V30 2894 H 280.513 -0.788673 -1.97215 0
M  V30 2895 H 282.776 -0.293188 -0.901524 0
M  V30 2896 H 282.482 -0.509659 -3.47988 0
M  V30 2897 H 282.356 1.2386 -3.56284 0
M  V30 2898 H 284.743 1.41886 -2.58751 0
M  V30 2899 H 284.824 -0.347894 -2.53423 0
M  V30 2900 H 284.468 -0.418162 -5.06176 0
M  V30 2901 H 284.398 1.3618 -5.08687 0
M  V30 2902 H 286.889 0.581816 -3.73394 0
M  V30 2903 H 287.202 0.568075 -7.70709 0
M  V30 2904 H 285.547 0.517816 -6.93068 0
M  V30 2905 H 288.738 0.637322 -4.63741 0
M  V30 2906 H 288.911 0.631283 -6.44918 0
M  V30 2907 N 282.317 1.53212 0.369288 0
M  V30 2908 C 283.557 1.70915 1.12105 0
M  V30 2909 C 283.921 0.449444 1.86665 0
M  V30 2910 O 285.122 0.503105 2.6405 0
M  V30 2911 C 283.393 2.9222 2.05772 0
M  V30 2912 S 284.952 3.30609 2.88519 0
M  V30 2913 H 281.77 0.601445 0.379189 0
M  V30 2914 H 284.372 1.91306 0.402794 0
M  V30 2915 H 283.076 3.82103 1.49752 0
M  V30 2916 H 282.607 2.7422 2.82076 0
M  V30 2917 H 284.622 2.82333 4.08047 0
M  V30 2918 N 283.795 -0.628877 1.44509 0
M  V30 2919 C 284.725 -1.75187 1.54376 0
M  V30 2920 C 285.706 -1.65411 0.396618 0
M  V30 2921 O 286.891 -1.84137 0.617031 0
M  V30 2922 C 284.021 -3.13725 1.48976 0
M  V30 2923 C 282.975 -3.38291 2.62189 0
M  V30 2924 C 282.301 -4.76883 2.41841 0
M  V30 2925 C 283.601 -3.30632 4.04326 0
M  V30 2926 H 285.295 -1.67187 2.48373 0
M  V30 2927 H 282.841 -0.802909 1.19538 0
M  V30 2928 H 284.794 -3.92064 1.54478 0
M  V30 2929 H 283.518 -3.22515 0.514961 0
M  V30 2930 H 282.177 -2.62334 2.56079 0
M  V30 2931 H 281.825 -4.82378 1.42548 0
M  V30 2932 H 281.525 -4.94278 3.17747 0
M  V30 2933 H 283.049 -5.57449 2.49165 0
M  V30 2934 H 284.463 -3.98873 4.11793 0
M  V30 2935 H 282.86 -3.59561 4.80454 0
M  V30 2936 H 283.93 -2.28404 4.27738 0
M  V30 2937 N 285.273 -1.31445 -0.869486 0
M  V30 2938 C 286.513 -1.22458 -1.63656 0
M  V30 2939 C 286.877 0.213846 -1.90805 0
M  V30 2940 O 288.078 0.427212 -2.65383 0
M  V30 2941 C 286.349 -2.04564 -2.93067 0
M  V30 2942 S 287.908 -2.12445 -3.83944 0
M  V30 2943 H 284.726 -0.436145 -0.561514 0
M  V30 2944 H 287.328 -1.66114 -1.03085 0
M  V30 2945 H 286.032 -3.0816 -2.71045 0
M  V30 2946 H 285.563 -1.6163 -3.58663 0
M  V30 2947 H 287.578 -1.26312 -4.79854 0
M  V30 2948 N 286.751 1.08385 -1.14413 0
M  V30 2949 C 287.683 2.1519 -0.789036 0
M  V30 2950 C 288.696 1.61638 0.19417 0
M  V30 2951 O 289.885 1.78479 -0.0275711 0
M  V30 2952 C 286.985 3.38565 -0.15058 0
M  V30 2953 C 286.158 4.21501 -1.16857 0
M  V30 2954 C 285.217 5.23277 -0.553832 0
M  V30 2955 O 284.243 5.56041 -1.21686 0
M  V30 2956 N 285.445 5.76629 0.669296 0
M  V30 2957 H 288.21 2.46257 -1.70814 0
M  V30 2958 H 285.771 1.24198 -1.03858 0
M  V30 2959 H 287.763 4.03777 0.273181 0
M  V30 2960 H 286.333 3.05299 0.671667 0
M  V30 2961 H 285.553 3.52265 -1.76926 0
M  V30 2962 H 286.841 4.73731 -1.85624 0
M  V30 2963 H 286.239 5.52243 1.22654 0
M  V30 2964 H 284.796 6.43521 1.03556 0
M  V30 2965 N 288.23 0.939286 1.26551 0
M  V30 2966 C 289.646 0.641304 1.46149 0
M  V30 2967 C 289.846 -0.805964 1.84679 0
M  V30 2968 O 288.902 -1.58278 1.96734 0
M  V30 2969 C 290.215 1.6011 2.54529 0
M  V30 2970 C 291.763 1.6106 2.68382 0
M  V30 2971 C 292.238 2.55765 3.79932 0
M  V30 2972 N 293.729 2.5404 3.87322 0
M  V30 2973 C 294.464 3.24004 4.73085 0
M  V30 2974 N 293.96 4.03388 5.63249 0
M  V30 2975 N 295.753 3.12965 4.66914 0
M  V30 2976 H 287.904 1.87478 0.998285 0
M  V30 2977 H 290.167 0.805559 0.499779 0
M  V30 2978 H 289.873 2.63412 2.33039 0
M  V30 2979 H 289.747 1.35171 3.52149 0
M  V30 2980 H 292.134 0.584835 2.89247 0
M  V30 2981 H 292.215 1.90053 1.71212 0
M  V30 2982 H 291.859 3.58458 3.5982 0
M  V30 2983 H 291.789 2.24063 4.76554 0
M  V30 2984 H 294.28 1.96396 3.22858 0
M  V30 2985 H 294.593 4.5373 6.25579 0
M  V30 2986 H 292.938 4.07489 5.63008 0
M  V30 2987 H 296.129 2.50432 3.95476 0
M  V30 2988 H 296.302 3.67759 5.33533 0
M  V30 2989 N 289.708 -1.40897 0.706093 0
M  V30 2990 C 290.956 -2.00657 0.241054 0
M  V30 2991 C 291.277 -1.56241 -1.16678 0
M  V30 2992 O 290.547 -0.79765 -1.78926 0
M  V30 2993 H 289.127 -0.742018 0.0861308 0
M  V30 2994 H 291.789 -1.72372 0.909604 0
M  V30 2995 H 290.885 -3.10958 0.266705 0
M  V30 2996 N 291.186 -0.45159 -1.50991 0
M  V30 2997 C 292.149 0.341117 -2.26647 0
M  V30 2998 C 293.149 0.937422 -1.30649 0
M  V30 2999 O 294.339 0.809644 -1.54241 0
M  V30 3000 C 291.471 1.48398 -3.06905 0
M  V30 3001 H 292.664 -0.322117 -2.98165 0
M  V30 3002 H 290.217 -0.205122 -1.54948 0
M  V30 3003 H 290.952 2.18284 -2.39838 0
M  V30 3004 H 290.737 1.06241 -3.77432 0
M  V30 3005 H 292.227 2.04367 -3.64176 0
M  V30 3006 N 292.664 1.56529 -0.183458 0
M  V30 3007 C 293.574 2.22144 0.754272 0
M  V30 3008 C 294.59 1.21684 1.24374 0
M  V30 3009 O 295.766 1.54385 1.29333 0
M  V30 3010 C 292.831 2.85884 1.96141 0
M  V30 3011 C 291.892 4.01579 1.51765 0
M  V30 3012 C 291.125 4.6227 2.66725 0
M  V30 3013 O 291.348 4.21865 3.83909 0
M  V30 3014 O 290.282 5.51936 2.40104 0
M  V30 3015 H 294.108 3.02861 0.225527 0
M  V30 3016 H 291.693 1.49331 0.0453032 0
M  V30 3017 H 293.575 3.26253 2.66715 0
M  V30 3018 H 292.25 2.08154 2.47899 0
M  V30 3019 H 291.157 3.65856 0.781049 0
M  V30 3020 H 292.49 4.80938 1.04686 0
M  V30 3021 N 294.142 -0.090211 1.57342 0
M  V30 3022 C 295.388 -0.793982 1.86611 0
M  V30 3023 C 295.721 -1.78142 0.773252 0
M  V30 3024 O 294.996 -1.93271 -0.218304 0
M  V30 3025 C 295.279 -1.51839 3.26523 0
M  V30 3026 C 295.132 -0.548609 4.46442 0
M  V30 3027 C 296.451 -2.46779 3.64401 0
M  V30 3028 H 293.57 -0.287186 0.678744 0
M  V30 3029 H 296.212 -0.0575076 1.89913 0
M  V30 3030 H 294.362 -2.14617 3.23839 0
M  V30 3031 H 296.034 0.0725513 4.61243 0
M  V30 3032 H 294.277 0.137614 4.33582 0
M  V30 3033 H 294.948 -1.09271 5.41076 0
M  V30 3034 H 297.424 -1.94089 3.68061 0
M  V30 3035 H 296.3 -2.94479 4.63221 0
M  V30 3036 H 296.561 -3.30758 2.93346 0
M  V30 3037 N 295.62 -1.53406 -0.361157 0
M  V30 3038 C 296.848 -1.73717 -1.12383 0
M  V30 3039 C 297.263 -0.468161 -1.82904 0
M  V30 3040 O 296.62 0.559198 -1.73722 0
M  V30 3041 C 296.671 -2.90558 -2.15078 0
M  V30 3042 O 296.392 -4.12549 -1.47428 0
M  V30 3043 C 297.893 -3.22777 -3.03858 0
M  V30 3044 H 295.113 -0.580896 -0.335858 0
M  V30 3045 H 297.657 -2.00167 -0.418728 0
M  V30 3046 H 295.812 -2.66489 -2.8118 0
M  V30 3047 H 296.226 -4.78009 -2.15887 0
M  V30 3048 H 297.7 -4.07927 -3.71887 0
M  V30 3049 H 298.177 -2.38329 -3.68912 0
M  V30 3050 H 298.783 -3.48787 -2.43367 0
M  V30 3051 N 297.098 0.621204 -1.44841 0
M  V30 3052 C 298.344 1.3826 -1.48365 0
M  V30 3053 C 298.677 1.93831 -0.119624 0
M  V30 3054 O 297.952 1.74251 0.864111 0
M  V30 3055 C 298.235 2.54058 -2.55199 0
M  V30 3056 C 298.088 2.03772 -4.00995 0
M  V30 3057 C 299.407 3.56225 -2.58442 0
M  V30 3058 H 296.526 0.501374 -0.540179 0
M  V30 3059 H 299.168 0.7015 -1.76576 0
M  V30 3060 H 297.318 3.12162 -2.31274 0
M  V30 3061 H 298.99 1.50423 -4.36086 0
M  V30 3062 H 297.233 1.34876 -4.12299 0
M  V30 3063 H 297.904 2.87185 -4.71411 0
M  V30 3064 H 300.38 3.07939 -2.79844 0
M  V30 3065 H 299.256 4.34756 -3.3508 0
M  V30 3066 H 299.517 4.10949 -1.63013 0
M  V30 3067 N 298.576 1.31904 0.862503 0
M  V30 3068 C 299.822 1.22197 1.61851 0
M  V30 3069 C 300.155 -0.217641 1.92977 0
M  V30 3070 O 299.43 -1.15264 1.56666 0
M  V30 3071 C 299.713 2.07378 2.94391 0
M  V30 3072 C 299.566 3.59678 2.70096 0
M  V30 3073 C 300.885 1.92891 3.95577 0
M  V30 3074 H 298.004 0.445255 0.587296 0
M  V30 3075 H 300.646 1.6177 0.99651 0
M  V30 3076 H 298.796 1.73758 3.47477 0
M  V30 3077 H 300.468 4.03472 2.23625 0
M  V30 3078 H 298.711 3.82735 2.04197 0
M  V30 3079 H 299.382 4.14595 3.64438 0
M  V30 3080 H 301.858 2.22327 3.51724 0
M  V30 3081 H 300.734 2.54781 4.86187 0
M  V30 3082 H 300.995 0.894315 4.3296 0
M  V30 3083 N 300.054 -1.07777 1.14986 0
M  V30 3084 C 301.465 -1.61766 0.932127 0
M  V30 3085 C 301.816 -1.88974 -0.527581 0
M  V30 3086 O 300.941 -1.65198 -1.39781 0
M  V30 3087 C 301.536 -2.93891 1.68563 0
M  V30 3088 C 300.095 -3.44639 1.5133 0
M  V30 3089 C 299.242 -2.18767 1.704 0
M  V30 3090 H 302.193 -0.909201 1.30074 0
M  V30 3091 H 302.214 -3.62623 1.15259 0
M  V30 3092 H 301.726 -2.74057 2.74799 0
M  V30 3093 H 299.827 -3.69564 0.474702 0
M  V30 3094 H 299.94 -4.20966 2.28746 0
M  V30 3095 H 298.304 -2.28253 1.13016 0
M  V30 3096 H 299.087 -2.01433 2.77992 0
M  V30 3097 N 301.532 -0.945985 -1.26051 0
M  V30 3098 C 302.778 -0.606539 -1.94146 0
M  V30 3099 C 303.133 0.84586 -1.72809 0
M  V30 3100 O 302.426 1.59781 -1.05738 0
M  V30 3101 C 302.62 -0.890475 -3.46129 0
M  V30 3102 C 302.449 -2.36892 -3.82246 0
M  V30 3103 C 301.219 -3.02494 -4.04753 0
M  V30 3104 C 303.417 -3.34772 -3.90425 0
M  V30 3105 N 301.399 -4.40302 -4.27794 0
M  V30 3106 C 302.77 -4.57855 -4.18054 0
M  V30 3107 C 304.825 -3.2973 -3.73072 0
M  V30 3108 C 303.528 -5.76522 -4.30134 0
M  V30 3109 C 305.554 -4.47727 -3.86386 0
M  V30 3110 C 304.916 -5.69593 -4.14419 0
M  V30 3111 H 301.015 -0.272407 -0.73302 0
M  V30 3112 H 303.599 -1.21638 -1.52027 0
M  V30 3113 H 301.77 -0.309638 -3.87164 0
M  V30 3114 H 303.502 -0.51181 -4.01451 0
M  V30 3115 H 300.257 -2.53095 -4.003 0
M  V30 3116 H 300.681 -5.11646 -4.43337 0
M  V30 3117 H 305.323 -2.36565 -3.50424 0
M  V30 3118 H 303.041 -6.70136 -4.51601 0
M  V30 3119 H 306.627 -4.45363 -3.74356 0
M  V30 3120 H 305.507 -6.59375 -4.24493 0
M  V30 3121 N 303.011 1.40521 -0.713556 0
M  V30 3122 C 304.288 1.94775 -0.17943 0
M  V30 3123 C 304.668 1.65184 1.31444 0
M  V30 3124 O 304.016 0.968429 2.06963 0
M  V30 3125 C 304.226 3.45543 -0.489986 0
M  V30 3126 C 305.574 4.22442 -0.427536 0
M  V30 3127 O 306.598 3.53644 -0.425929 0
M  V30 3128 O 305.457 5.4501 -0.403292 0
M  V30 3129 H 302.551 0.826606 -0.0255192 0
M  V30 3130 H 305.097 1.5014 -0.790949 0
M  V30 3131 H 303.869 3.60432 -1.5233 0
M  V30 3132 H 303.492 3.97311 0.151598 0
M  V30 3133 N 304.489 0.459591 1.5075 0
M  V30 3134 C 305.439 -0.358926 2.25157 0
M  V30 3135 C 306.423 -0.971285 1.28276 0
M  V30 3136 O 307.615 -0.885739 1.53244 0
M  V30 3137 C 304.744 -1.44695 3.11317 0
M  V30 3138 C 303.83 -0.842894 4.15639 0
M  V30 3139 N 304.221 0.0299373 5.05791 0
M  V30 3140 C 302.519 -1.10809 4.32015 0
M  V30 3141 C 303.22 0.371563 5.80512 0
M  V30 3142 N 302.196 -0.250409 5.43023 0
M  V30 3143 H 305.998 0.313636 2.92222 0
M  V30 3144 H 303.512 0.273021 1.60089 0
M  V30 3145 H 305.509 -2.04641 3.63218 0
M  V30 3146 H 304.169 -2.12162 2.45799 0
M  V30 3147 H 305.18 0.39797 5.16369 0
M  V30 3148 H 301.857 -1.7786 3.77719 0
M  V30 3149 H 303.247 1.08319 6.63111 0
M  V30 3150 N 305.967 -1.56429 0.191757 0
M  V30 3151 C 306.93 -2.17707 -0.716688 0
M  V30 3152 C 307.93 -1.13061 -1.14341 0
M  V30 3153 O 309.12 -1.38464 -1.05704 0
M  V30 3154 C 306.252 -2.77644 -1.97804 0
M  V30 3155 H 307.445 -2.99342 -0.1829 0
M  V30 3156 H 304.998 -1.56193 -0.0578566 0
M  V30 3157 H 305.733 -1.99799 -2.55443 0
M  V30 3158 H 305.518 -3.54246 -1.68083 0
M  V30 3159 H 307.008 -3.24708 -2.62592 0
M  V30 3160 N 307.445 0.0818655 -1.57387 0
M  V30 3161 C 308.375 1.09885 -2.06028 0
M  V30 3162 C 309.356 1.4098 -0.951774 0
M  V30 3163 O 310.541 1.50781 -1.22387 0
M  V30 3164 C 307.671 2.4151 -2.4958 0
M  V30 3165 C 306.625 2.24792 -3.64215 0
M  V30 3166 C 305.951 3.61712 -3.93787 0
M  V30 3167 C 307.251 1.67749 -4.94629 0
M  V30 3168 H 308.945 0.694128 -2.91243 0
M  V30 3169 H 306.491 0.332448 -1.4011 0
M  V30 3170 H 308.444 3.12939 -2.82219 0
M  V30 3171 H 307.168 2.83943 -1.61381 0
M  V30 3172 H 305.827 1.55807 -3.31843 0
M  V30 3173 H 305.475 4.01697 -3.02735 0
M  V30 3174 H 305.175 3.51368 -4.70971 0
M  V30 3175 H 306.699 4.34587 -4.28913 0
M  V30 3176 H 308.113 2.29032 -5.25564 0
M  V30 3177 H 306.51 1.68128 -5.76067 0
M  V30 3178 H 307.58 0.638059 -4.80684 0
M  V30 3179 N 308.923 1.53595 0.353017 0
M  V30 3180 C 310.2 1.61002 1.11075 0
M  V30 3181 C 310.58 0.425356 2.0677 0
M  V30 3182 O 309.928 -0.583267 2.2093 0
M  V30 3183 C 310.138 2.96631 1.83877 0
M  V30 3184 C 311.486 3.51653 2.37961 0
M  V30 3185 O 312.51 2.98743 1.93987 0
M  V30 3186 O 311.369 4.44177 3.18386 0
M  V30 3187 H 308.463 0.650825 0.510251 0
M  V30 3188 H 311.009 1.6594 0.35527 0
M  V30 3189 H 309.781 3.74293 1.14108 0
M  V30 3190 H 309.404 2.95242 2.66304 0
M  V30 3191 N 310.401 -0.613514 1.45168 0
M  V30 3192 C 311.626 -1.40437 1.52618 0
M  V30 3193 C 312.051 -1.87438 0.157707 0
M  V30 3194 O 311.409 -1.59791 -0.856537 0
M  V30 3195 C 311.457 -2.58894 2.51011 0
M  V30 3196 O 310.561 -3.59326 2.02382 0
M  V30 3197 H 309.902 -0.419506 0.514695 0
M  V30 3198 H 312.432 -0.747215 1.90467 0
M  V30 3199 H 312.442 -3.06214 2.69624 0
M  V30 3200 H 311.117 -2.24032 3.50403 0
M  V30 3201 H 309.694 -3.18695 1.93618 0
M  V30 3202 N 311.879 -1.3236 -0.855495 0
M  V30 3203 C 312.811 -1.17052 -1.97057 0
M  V30 3204 C 313.824 -0.10574 -1.62456 0
M  V30 3205 O 315.013 -0.354619 -1.74942 0
M  V30 3206 C 312.113 -0.769305 -3.30053 0
M  V30 3207 C 311.286 -1.9222 -3.929 0
M  V30 3208 C 310.345 -1.50466 -5.04228 0
M  V30 3209 O 309.371 -2.21655 -5.24269 0
M  V30 3210 N 310.573 -0.400209 -5.79119 0
M  V30 3211 H 313.338 -2.13103 -2.1073 0
M  V30 3212 H 310.899 -1.24885 -1.0303 0
M  V30 3213 H 312.891 -0.472407 -4.01933 0
M  V30 3214 H 311.461 0.100025 -3.1244 0
M  V30 3215 H 310.681 -2.38563 -3.13817 0
M  V30 3216 H 311.969 -2.69403 -4.31624 0
M  V30 3217 H 311.367 0.192319 -5.65373 0
M  V30 3218 H 309.924 -0.162912 -6.51596 0
M  V30 3219 N 313.357 1.07166 -1.15556 0
M  V30 3220 C 314.267 2.17947 -0.868116 0
M  V30 3221 C 315.283 1.73297 0.156297 0
M  V30 3222 O 316.459 2.01392 -0.0182327 0
M  V30 3223 C 313.524 3.44789 -0.36355 0
M  V30 3224 C 312.585 4.03996 -1.45209 0
M  V30 3225 C 311.818 5.24783 -0.971508 0
M  V30 3226 O 312.041 5.70109 0.182194 0
M  V30 3227 O 310.975 5.75715 -1.75603 0
M  V30 3228 H 314.801 2.4503 -1.79427 0
M  V30 3229 H 312.386 1.16539 -0.934824 0
M  V30 3230 H 314.268 4.21307 -0.0887113 0
M  V30 3231 H 312.943 3.19253 0.534708 0
M  V30 3232 H 311.85 3.29009 -1.78056 0
M  V30 3233 H 313.183 4.33808 -2.32533 0
M  V30 3234 N 314.835 0.952656 1.25548 0
M  V30 3235 C 316.065 0.622592 1.96996 0
M  V30 3236 C 316.473 -0.809112 1.71026 0
M  V30 3237 O 315.816 -1.55258 0.981861 0
M  V30 3238 C 315.878 0.798946 3.5051 0
M  V30 3239 C 315.542 2.20744 4.00151 0
M  V30 3240 C 316.539 3.18394 4.11001 0
M  V30 3241 C 314.224 2.5311 4.33867 0
M  V30 3242 C 316.218 4.46504 4.54877 0
M  V30 3243 C 313.905 3.8145 4.7743 0
M  V30 3244 C 314.903 4.77959 4.87897 0
M  V30 3245 O 314.591 6.04012 5.30494 0
M  V30 3246 H 314.323 0.232503 0.634758 0
M  V30 3247 H 316.877 1.2789 1.60728 0
M  V30 3248 H 315.107 0.0854903 3.86605 0
M  V30 3249 H 316.796 0.47023 4.03167 0
M  V30 3250 H 317.562 2.94715 3.85186 0
M  V30 3251 H 313.441 1.78719 4.24948 0
M  V30 3252 H 316.985 5.21835 4.62962 0
M  V30 3253 H 312.882 4.04936 5.0269 0
M  V30 3254 H 313.65 6.0736 5.48685 0
M  V30 3255 N 316.313 -1.40141 0.720998 0
M  V30 3256 C 317.223 -2.34486 0.0731031 0
M  V30 3257 C 318.239 -1.57587 -0.737723 0
M  V30 3258 O 319.415 -1.89949 -0.669429 0
M  V30 3259 C 316.48 -3.36528 -0.833656 0
M  V30 3260 C 315.541 -4.29298 -0.0121673 0
M  V30 3261 C 314.774 -5.26466 -0.875742 0
M  V30 3262 O 314.997 -5.29745 -2.11485 0
M  V30 3263 O 313.931 -6.01092 -0.31185 0
M  V30 3264 H 317.757 -2.9152 0.851444 0
M  V30 3265 H 315.342 -1.41427 0.481527 0
M  V30 3266 H 317.224 -3.99093 -1.35289 0
M  V30 3267 H 315.899 -2.81899 -1.59105 0
M  V30 3268 H 314.806 -3.70001 0.552262 0
M  V30 3269 H 316.139 -4.87094 0.707129 0
M  V30 3270 N 317.792 -0.46758 -1.50504 0
M  V30 3271 C 319.04 0.0884469 -2.01906 0
M  V30 3272 C 319.361 1.40532 -1.35188 0
M  V30 3273 O 318.631 1.89515 -0.496079 0
M  V30 3274 H 317.211 0.0356765 -0.746148 0
M  V30 3275 H 319.873 -0.6172 -1.84869 0
M  V30 3276 H 318.969 0.2425 -3.11156 0
M  V30 3277 N 319.27 1.56325 -0.20005 0
M  V30 3278 C 320.2 2.22318 0.713916 0
M  V30 3279 C 321.181 1.18788 1.21752 0
M  V30 3280 O 322.366 1.47309 1.26545 0
M  V30 3281 C 319.496 2.88639 1.93144 0
M  V30 3282 C 318.45 3.98457 1.56255 0
M  V30 3283 C 317.776 4.51967 2.85709 0
M  V30 3284 C 319.076 5.16612 0.768747 0
M  V30 3285 H 320.77 2.98952 0.163755 0
M  V30 3286 H 318.316 1.43792 0.0773219 0
M  V30 3287 H 320.269 3.33491 2.57608 0
M  V30 3288 H 318.993 2.09419 2.50621 0
M  V30 3289 H 317.652 3.54305 0.941471 0
M  V30 3290 H 317.3 3.69503 3.41287 0
M  V30 3291 H 317 5.26071 2.6177 0
M  V30 3292 H 318.524 4.99523 3.51154 0
M  V30 3293 H 319.938 5.57977 1.3166 0
M  V30 3294 H 318.335 5.96812 0.627286 0
M  V30 3295 H 319.405 4.84358 -0.229168 0
M  V30 3296 N 320.748 -0.0735177 1.57428 0
M  V30 3297 C 321.995 -0.772999 1.87166 0
M  V30 3298 C 322.323 -1.77665 0.791551 0
M  V30 3299 O 321.578 -1.94541 -0.212636 0
M  V30 3300 C 321.877 -1.51799 3.23561 0
M  V30 3301 C 321.543 -0.654484 4.46125 0
M  V30 3302 C 320.205 -0.416511 4.79394 0
M  V30 3303 C 322.557 -0.0555862 5.2117 0
M  V30 3304 C 319.885 0.429869 5.85123 0
M  V30 3305 C 322.237 0.778239 6.27795 0
M  V30 3306 C 320.901 1.0261 6.59566 0
M  V30 3307 H 320.171 -0.282861 0.684888 0
M  V30 3308 H 322.818 -0.0338272 1.9147 0
M  V30 3309 H 321.123 -2.32932 3.1504 0
M  V30 3310 H 322.82 -2.06397 3.43804 0
M  V30 3311 H 319.41 -0.850091 4.20085 0
M  V30 3312 H 323.594 -0.226558 4.95783 0
M  V30 3313 H 318.85 0.630665 6.08139 0
M  V30 3314 H 323.024 1.24906 6.85107 0
M  V30 3315 H 320.651 1.68371 7.4132 0
M  V30 3316 N 322.226 -1.5378 -0.344866 0
M  V30 3317 C 323.156 -1.84662 -1.42906 0
M  V30 3318 C 324.137 -0.701648 -1.54955 0
M  V30 3319 O 325.322 -0.953438 -1.69184 0
M  V30 3320 C 322.452 -2.05503 -2.79974 0
M  V30 3321 C 321.406 -3.21318 -2.82734 0
M  V30 3322 C 320.732 -3.2749 -4.22675 0
M  V30 3323 C 322.032 -4.59456 -2.48389 0
M  V30 3324 H 323.726 -2.75461 -1.17311 0
M  V30 3325 H 321.272 -1.32542 -0.562896 0
M  V30 3326 H 323.225 -2.25691 -3.55867 0
M  V30 3327 H 321.949 -1.11434 -3.07002 0
M  V30 3328 H 320.608 -3.00984 -2.09294 0
M  V30 3329 H 320.256 -2.31019 -4.4681 0
M  V30 3330 H 319.956 -4.05316 -4.25433 0
M  V30 3331 H 321.48 -3.49887 -5.00412 0
M  V30 3332 H 322.894 -4.79667 -3.13995 0
M  V30 3333 H 321.291 -5.39675 -2.62432 0
M  V30 3334 H 322.361 -4.63155 -1.4358 0
M  V30 3335 N 323.704 0.605807 -1.45491 0
M  V30 3336 C 324.929 1.39625 -1.53361 0
M  V30 3337 C 325.354 1.87351 -0.167645 0
M  V30 3338 O 324.712 1.60243 0.848051 0
M  V30 3339 C 324.76 2.57559 -2.5238 0
M  V30 3340 O 323.864 3.58248 -2.04285 0
M  V30 3341 H 323.205 0.416771 -0.516912 0
M  V30 3342 H 325.735 0.737103 -1.90861 0
M  V30 3343 H 325.745 3.0478 -2.71244 0
M  V30 3344 H 324.42 2.22171 -3.51586 0
M  V30 3345 H 322.997 3.17664 -1.95305 0
M  V30 3346 N 325.182 1.32811 0.848464 0
M  V30 3347 C 326.13 1.22231 1.97895 0
M  V30 3348 C 327.124 0.125749 1.68933 0
M  V30 3349 O 328.33 0.289083 1.77663 0
M  V30 3350 H 324.705 0.379058 0.649476 0
M  V30 3351 H 326.676 2.17828 2.03945 0
M  V30 3352 C 325.425 0.968572 3.33937 0
M  V30 3353 H 324.748 1.80458 3.56756 0
M  V30 3354 H 326.188 0.934808 4.13567 0
M  V30 3355 C 324.647 -0.328628 3.35293 0
M  V30 3356 O 325.177 -1.33848 3.78745 0
M  V30 3357 N 323.383 -0.352788 2.88451 0
M  V30 3358 H 322.93 0.469541 2.53285 0
M  V30 3359 H 322.888 -1.22057 2.89741 0
M  V30 3360 N 326.66 -1.06551 1.16123 0
M  V30 3361 C 327.908 -1.78947 0.939267 0
M  V30 3362 C 328.229 -1.87532 -0.534476 0
M  V30 3363 O 327.499 -1.38211 -1.38833 0
M  V30 3364 H 326.079 -0.662807 0.344523 0
M  V30 3365 H 328.741 -1.28725 1.46342 0
M  V30 3366 H 327.837 -2.81117 1.35572 0
M  V30 3367 N 328.138 -0.959301 -1.25041 0
M  V30 3368 C 329.549 -0.65667 -1.74771 0
M  V30 3369 C 329.9 0.827852 -1.77879 0
M  V30 3370 O 329.025 1.64783 -1.40269 0
M  V30 3371 C 329.62 -1.1853 -3.1739 0
M  V30 3372 C 328.179 -0.932734 -3.6466 0
M  V30 3373 C 327.326 -1.32558 -2.43564 0
M  V30 3374 H 330.277 -1.13558 -1.10862 0
M  V30 3375 H 330.298 -0.547582 -3.76539 0
M  V30 3376 H 329.81 -2.26576 -3.15095 0
M  V30 3377 H 327.911 0.13257 -3.72364 0
M  V30 3378 H 328.024 -1.57248 -4.52559 0
M  V30 3379 H 326.388 -0.743956 -2.43593 0
M  V30 3380 H 327.171 -2.41537 -2.43957 0
M  V30 3381 N 329.616 1.39756 -0.72842 0
M  V30 3382 C 330.864 2.00248 -0.272946 0
M  V30 3383 C 331.185 1.58077 1.14178 0
M  V30 3384 O 330.455 0.826014 1.77634 0
M  V30 3385 H 329.035 0.740554 -0.0979247 0
M  V30 3386 H 331.697 1.70903 -0.936912 0
M  V30 3387 H 330.793 3.10495 -0.316142 0
M  V30 3388 N 331.094 0.475555 1.50254 0
M  V30 3389 C 332.371 -0.139685 1.95101 0
M  V30 3390 C 332.751 -1.56555 1.41611 0
M  V30 3391 O 332.099 -2.19956 0.618993 0
M  V30 3392 C 332.309 -0.0784298 3.48912 0
M  V30 3393 C 333.657 -0.265095 4.23772 0
M  V30 3394 O 334.681 -0.154808 3.55863 0
M  V30 3395 O 333.54 -0.488327 5.44314 0
M  V30 3396 H 330.634 -0.109236 0.819754 0
M  V30 3397 H 333.18 0.536276 1.61004 0
M  V30 3398 H 331.952 0.916918 3.80405 0
M  V30 3399 H 331.575 -0.795655 3.89558 0
M  V30 3400 N 332.573 -1.56217 0.208337 0
M  V30 3401 C 333.984 -1.84243 -0.301904 0
M  V30 3402 C 334.335 -1.12939 -1.60434 0
M  V30 3403 O 333.46 -0.39461 -2.12772 0
M  V30 3404 C 334.055 -3.34231 -0.554543 0
M  V30 3405 C 332.614 -3.62621 -1.00912 0
M  V30 3406 C 331.761 -2.77224 -0.064933 0
M  V30 3407 H 334.712 -1.52712 0.431833 0
M  V30 3408 H 334.733 -3.5372 -1.40223 0
M  V30 3409 H 334.245 -3.86099 0.393561 0
M  V30 3410 H 332.346 -3.16197 -1.97104 0
M  V30 3411 H 332.459 -4.7071 -0.892674 0
M  V30 3412 H 330.823 -2.48256 -0.56929 0
M  V30 3413 H 331.606 -3.31887 0.877851 0
M  V30 3414 N 334.051 0.0651679 -1.57465 0
M  V30 3415 C 335.014 1.06117 -2.03155 0
M  V30 3416 C 336.014 1.31204 -0.929632 0
M  V30 3417 O 337.204 1.26813 -1.19432 0
M  V30 3418 C 334.336 2.4032 -2.41783 0
M  V30 3419 H 335.529 0.667231 -2.92383 0
M  V30 3420 H 333.082 0.311075 -1.53173 0
M  V30 3421 H 333.817 2.84532 -1.55601 0
M  V30 3422 H 333.602 2.23451 -3.22199 0
M  V30 3423 H 335.092 3.11898 -2.77685 0
M  V30 3424 N 335.529 1.53961 0.336706 0
M  V30 3425 C 336.754 1.75797 1.10046 0
M  V30 3426 C 337.179 0.498985 1.81361 0
M  V30 3427 O 336.537 -0.548769 1.72795 0
M  V30 3428 C 336.585 2.94257 2.08436 0
M  V30 3429 O 335.689 2.64883 3.16087 0
M  V30 3430 H 335.03 0.582936 0.317934 0
M  V30 3431 H 337.56 2.00945 0.38501 0
M  V30 3432 H 337.57 3.21237 2.51537 0
M  V30 3433 H 336.245 3.85564 1.55927 0
M  V30 3434 H 334.822 2.48812 2.77753 0
M  V30 3435 N 337.007 -0.598083 1.45811 0
M  V30 3436 C 338.237 -1.38121 1.53643 0
M  V30 3437 C 338.645 -1.88425 0.171081 0
M  V30 3438 O 337.988 -1.63409 -0.839237 0
M  V30 3439 C 338.05 -2.61432 2.46766 0
M  V30 3440 C 337.714 -2.32702 3.93318 0
M  V30 3441 C 338.711 -1.92479 4.82957 0
M  V30 3442 C 336.396 -2.45321 4.38318 0
M  V30 3443 C 338.39 -1.65248 6.15607 0
M  V30 3444 C 336.077 -2.17703 5.71007 0
M  V30 3445 C 337.075 -1.7773 6.5947 0
M  V30 3446 O 336.763 -1.50441 7.89698 0
M  V30 3447 H 336.495 -0.428863 0.522544 0
M  V30 3448 H 339.049 -0.73557 1.91777 0
M  V30 3449 H 337.279 -3.28749 2.0362 0
M  V30 3450 H 338.968 -3.23487 2.45175 0
M  V30 3451 H 339.734 -1.82258 4.49452 0
M  V30 3452 H 335.613 -2.75399 3.69697 0
M  V30 3453 H 339.157 -1.33973 6.84614 0
M  V30 3454 H 335.054 -2.27544 6.04065 0
M  V30 3455 H 335.822 -1.64415 8.01817 0
M  V30 3456 N 338.485 -1.33259 -0.841409 0
M  V30 3457 C 339.896 -1.22066 -1.41269 0
M  V30 3458 C 340.247 0.161479 -1.95534 0
M  V30 3459 O 339.372 1.06094 -1.88608 0
M  V30 3460 C 339.967 -2.20996 -2.568 0
M  V30 3461 C 338.526 -2.13649 -3.09888 0
M  V30 3462 C 337.673 -2.08623 -1.82679 0
M  V30 3463 H 340.624 -1.44895 -0.647395 0
M  V30 3464 H 340.645 -1.81621 -3.34356 0
M  V30 3465 H 340.157 -3.2158 -2.17274 0
M  V30 3466 H 338.258 -1.16359 -3.53965 0
M  V30 3467 H 338.371 -3.04079 -3.70234 0
M  V30 3468 H 336.735 -1.54061 -2.02824 0
M  V30 3469 H 337.518 -3.1101 -1.45353 0
M  V30 3470 N 339.963 1.05934 -1.16686 0
M  V30 3471 C 341.188 1.83029 -0.975455 0
M  V30 3472 C 341.613 1.82096 0.471452 0
M  V30 3473 O 340.971 1.22443 1.33706 0
M  V30 3474 C 341.019 3.27372 -1.51195 0
M  V30 3475 O 340.123 4.06054 -0.720701 0
M  V30 3476 H 339.464 0.566194 -0.346872 0
M  V30 3477 H 341.994 1.33541 -1.55009 0
M  V30 3478 H 342.004 3.78186 -1.53099 0
M  V30 3479 H 340.679 3.27366 -2.56523 0
M  V30 3480 H 339.256 3.64812 -0.772458 0
M  V30 3481 N 341.441 0.965919 1.2453 0
M  V30 3482 C 342.687 0.62776 1.92839 0
M  V30 3483 C 343.02 -0.834694 1.75347 0
M  V30 3484 O 342.295 -1.60031 1.10546 0
M  V30 3485 C 342.578 1.00109 3.45905 0
M  V30 3486 C 342.431 2.52011 3.72573 0
M  V30 3487 C 343.75 0.53435 4.36844 0
M  V30 3488 H 340.869 0.229537 0.700344 0
M  V30 3489 H 343.511 1.2046 1.46933 0
M  V30 3490 H 341.661 0.510238 3.85135 0
M  V30 3491 H 343.333 3.08559 3.42912 0
M  V30 3492 H 341.576 2.95287 3.17786 0
M  V30 3493 H 342.247 2.73183 4.79661 0
M  V30 3494 H 344.723 0.955565 4.04979 0
M  V30 3495 H 343.599 0.824152 5.42678 0
M  V30 3496 H 343.86 -0.565589 4.38467 0
M  V30 3497 N 342.919 -1.39368 0.735821 0
M  V30 3498 C 344.165 -2.00794 0.284544 0
M  V30 3499 C 344.498 -1.58255 -1.12557 0
M  V30 3500 O 343.773 -0.811819 -1.76748 0
M  V30 3501 C 344.056 -3.58011 0.387337 0
M  V30 3502 C 343.909 -4.10566 1.83728 0
M  V30 3503 C 345.228 -4.395 -0.22975 0
M  V30 3504 H 342.347 -0.729501 0.104866 0
M  V30 3505 H 344.989 -1.65564 0.93213 0
M  V30 3506 H 343.139 -3.88154 -0.164006 0
M  V30 3507 H 344.811 -3.91139 2.44556 0
M  V30 3508 H 343.054 -3.64095 2.35833 0
M  V30 3509 H 343.725 -5.19702 1.86047 0
M  V30 3510 H 346.201 -4.15406 0.240257 0
M  V30 3511 H 345.077 -5.48752 -0.127485 0
M  V30 3512 H 345.338 -4.22062 -1.3159 0
M  V30 3513 N 344.397 -0.483516 -1.5 0
M  V30 3514 C 345.622 0.0667119 -2.07293 0
M  V30 3515 C 346.047 1.3164 -1.3436 0
M  V30 3516 O 345.405 1.76945 -0.394987 0
M  V30 3517 C 345.453 0.321126 -3.59167 0
M  V30 3518 O 344.557 1.39927 -3.87936 0
M  V30 3519 H 343.898 -0.0184758 -0.663743 0
M  V30 3520 H 346.428 -0.678125 -1.93035 0
M  V30 3521 H 346.438 0.557906 -4.04168 0
M  V30 3522 H 345.113 -0.592007 -4.11665 0
M  V30 3523 H 343.69 1.14882 -3.54763 0
M  V30 3524 N 345.875 1.56104 -0.216619 0
M  V30 3525 C 347.103 2.02563 0.421413 0
M  V30 3526 C 347.518 1.0965 1.53695 0
M  V30 3527 O 346.875 0.10521 1.82196 0
M  V30 3528 C 346.926 3.48584 0.957665 0
M  V30 3529 O 346.647 4.37953 -0.113389 0
M  V30 3530 C 348.148 4.10664 1.66943 0
M  V30 3531 H 345.368 0.662944 0.103665 0
M  V30 3532 H 347.912 2.01793 -0.331629 0
M  V30 3533 H 346.067 3.49985 1.661 0
M  V30 3534 H 346.481 5.23704 0.288932 0
M  V30 3535 H 347.955 5.14622 1.99671 0
M  V30 3536 H 348.432 3.55373 2.58083 0
M  V30 3537 H 349.038 4.13098 1.01142 0
M  V30 3538 N 347.353 -0.0568162 1.57498 0
M  V30 3539 C 348.283 -1.06593 2.0775 0
M  V30 3540 C 349.264 -1.39448 0.974082 0
M  V30 3541 O 350.449 -1.48815 1.24771 0
M  V30 3542 C 347.579 -2.37509 2.5339 0
M  V30 3543 C 346.533 -2.1897 3.67745 0
M  V30 3544 C 345.859 -3.55402 3.99492 0
M  V30 3545 C 347.159 -1.59859 4.97235 0
M  V30 3546 H 348.853 -0.647706 2.9231 0
M  V30 3547 H 346.399 -0.310116 1.40621 0
M  V30 3548 H 348.352 -3.08409 2.87162 0
M  V30 3549 H 347.076 -2.8134 1.65878 0
M  V30 3550 H 345.735 -1.50508 3.3428 0
M  V30 3551 H 345.383 -3.9683 3.09088 0
M  V30 3552 H 345.083 -3.43831 4.76502 0
M  V30 3553 H 346.607 -4.27708 4.35773 0
M  V30 3554 H 348.021 -2.20642 5.29141 0
M  V30 3555 H 346.418 -1.58942 5.78669 0
M  V30 3556 H 347.488 -0.561506 4.81638 0
M  V30 3557 N 348.832 -1.54138 -0.328536 0
M  V30 3558 C 350.057 -1.76378 -1.09112 0
M  V30 3559 C 350.482 -0.508596 -1.81094 0
M  V30 3560 O 349.84 0.539598 -1.73084 0
M  V30 3561 C 349.888 -2.95358 -2.06872 0
M  V30 3562 O 348.992 -2.66556 -3.14677 0
M  V30 3563 H 348.333 -0.584614 -0.314838 0
M  V30 3564 H 350.863 -2.01146 -0.374348 0
M  V30 3565 H 350.873 -3.22566 -2.4983 0
M  V30 3566 H 349.548 -3.86385 -1.5388 0
M  V30 3567 H 348.125 -2.50282 -2.7643 0
M  V30 3568 N 350.31 0.590341 -1.46126 0
M  V30 3569 C 351.726 0.912917 -1.30912 0
M  V30 3570 C 351.926 1.99616 -0.274893 0
M  V30 3571 O 350.982 2.50397 0.325197 0
M  V30 3572 C 352.295 1.3375 -2.69317 0
M  V30 3573 C 353.843 1.45077 -2.77348 0
M  V30 3574 C 354.318 1.90904 -4.16317 0
M  V30 3575 N 355.809 1.9811 -4.18696 0
M  V30 3576 C 356.544 2.34828 -5.23109 0
M  V30 3577 N 356.04 2.70393 -6.37856 0
M  V30 3578 N 357.833 2.35317 -5.10473 0
M  V30 3579 H 349.984 -0.125358 -2.1203 0
M  V30 3580 H 352.247 0.00658481 -0.947977 0
M  V30 3581 H 351.953 0.615614 -3.4627 0
M  V30 3582 H 351.827 2.30058 -2.9892 0
M  V30 3583 H 354.214 2.16353 -2.00687 0
M  V30 3584 H 354.295 0.4704 -2.51438 0
M  V30 3585 H 353.939 1.20209 -4.9347 0
M  V30 3586 H 353.869 2.89886 -4.39629 0
M  V30 3587 H 356.36 1.73146 -3.359 0
M  V30 3588 H 356.673 2.97341 -7.13308 0
M  V30 3589 H 355.018 2.68048 -6.41229 0
M  V30 3590 H 358.209 2.0695 -4.19868 0
M  V30 3591 H 358.382 2.63605 -5.9196 0
M  V30 3592 N 351.788 1.33704 0.83433 0
M  V30 3593 C 353.034 1.25603 1.59222 0
M  V30 3594 C 353.367 -0.176659 1.93395 0
M  V30 3595 O 352.642 -1.11915 1.59076 0
M  V30 3596 C 352.925 2.13576 2.89926 0
M  V30 3597 C 352.778 3.65326 2.62406 0
M  V30 3598 C 354.097 2.01238 3.91397 0
M  V30 3599 H 351.216 0.457613 0.577719 0
M  V30 3600 H 353.858 1.63848 0.961972 0
M  V30 3601 H 352.008 1.8109 3.43713 0
M  V30 3602 H 353.68 4.08124 2.15017 0
M  V30 3603 H 351.923 3.8698 1.96033 0
M  V30 3604 H 352.594 4.22232 3.55562 0
M  V30 3605 H 355.07 2.29738 3.46929 0
M  V30 3606 H 353.946 2.65036 4.80673 0
M  V30 3607 H 354.207 0.985951 4.30966 0
M  V30 3608 N 353.266 -1.05314 1.17247 0
M  V30 3609 C 354.196 -2.1498 0.911362 0
M  V30 3610 C 355.177 -1.69471 -0.146169 0
M  V30 3611 O 356.362 -1.942 0.003812 0
M  V30 3612 C 353.492 -3.4472 0.422528 0
M  V30 3613 C 352.446 -4.03789 1.4191 0
M  V30 3614 C 351.772 -5.28858 0.788274 0
M  V30 3615 C 353.072 -4.41418 2.7919 0
M  V30 3616 H 354.766 -2.3708 1.82848 0
M  V30 3617 H 352.312 -1.13938 0.880569 0
M  V30 3618 H 354.265 -4.20787 0.227289 0
M  V30 3619 H 352.989 -3.22269 -0.530123 0
M  V30 3620 H 351.648 -3.2979 1.60106 0
M  V30 3621 H 351.296 -5.02709 -0.171173 0
M  V30 3622 H 350.996 -5.69338 1.45353 0
M  V30 3623 H 352.52 -6.07612 0.603282 0
M  V30 3624 H 353.934 -5.08524 2.64719 0
M  V30 3625 H 352.331 -4.92913 3.42282 0
M  V30 3626 H 353.401 -3.51819 3.33693 0
M  V30 3627 N 354.744 -0.972509 -1.24016 0
M  V30 3628 C 355.969 -0.654417 -1.96805 0
M  V30 3629 C 356.394 0.770398 -1.716 0
M  V30 3630 O 355.752 1.52361 -0.982647 0
M  V30 3631 C 355.8 -0.941031 -3.48105 0
M  V30 3632 O 354.904 -0.0289472 -4.1239 0
M  V30 3633 H 354.245 -0.24692 -0.616382 0
M  V30 3634 H 356.775 -1.30396 -1.57664 0
M  V30 3635 H 356.785 -0.87452 -3.98517 0
M  V30 3636 H 355.46 -1.97939 -3.65777 0
M  V30 3637 H 354.037 -0.149192 -3.72601 0
M  V30 3638 N 356.222 1.38976 -0.743202 0
M  V30 3639 C 357.132 2.3434 -0.110399 0
M  V30 3640 C 358.148 1.58741 0.712559 0
M  V30 3641 O 359.324 1.9099 0.639125 0
M  V30 3642 C 356.389 3.37812 0.780012 0
M  V30 3643 C 355.45 4.29263 -0.0561319 0
M  V30 3644 C 354.683 5.27793 0.791875 0
M  V30 3645 O 354.906 5.33043 2.03031 0
M  V30 3646 O 353.84 6.01512 0.216183 0
M  V30 3647 H 357.666 2.90129 -0.897714 0
M  V30 3648 H 355.251 1.40643 -0.503966 0
M  V30 3649 H 357.133 4.01194 1.28923 0
M  V30 3650 H 355.808 2.84395 1.546 0
M  V30 3651 H 354.715 3.69076 -0.611056 0
M  V30 3652 H 356.048 4.85907 -0.784531 0
M  V30 3653 N 357.7 0.491464 1.49741 0
M  V30 3654 C 359.111 0.0413169 1.86654 0
M  V30 3655 C 359.462 -1.36985 1.40462 0
M  V30 3656 O 358.587 -2.01917 0.778354 0
M  V30 3657 C 359.182 0.0682023 3.38731 0
M  V30 3658 C 357.741 -0.32656 3.74981 0
M  V30 3659 C 356.888 0.444888 2.73708 0
M  V30 3660 H 359.839 0.704733 1.42194 0
M  V30 3661 H 359.86 -0.729322 3.73445 0
M  V30 3662 H 359.372 1.09539 3.72321 0
M  V30 3663 H 357.473 -1.35734 3.46997 0
M  V30 3664 H 357.586 -0.013741 4.79098 0
M  V30 3665 H 355.95 -0.104062 2.54487 0
M  V30 3666 H 356.733 1.47197 3.10142 0
M  V30 3667 N 359.178 -1.55987 0.224894 0
M  V30 3668 C 360.126 -2.21808 -0.700283 0
M  V30 3669 C 361.12 -1.19854 -1.19714 0
M  V30 3670 O 362.326 -1.37925 -1.15658 0
M  V30 3671 H 358.701 -0.711226 -0.244258 0
M  V30 3672 H 360.672 -2.98152 -0.121749 0
M  V30 3673 C 359.421 -2.91444 -1.8962 0
M  V30 3674 H 358.744 -3.69655 -1.52299 0
M  V30 3675 H 360.184 -3.40894 -2.52125 0
M  V30 3676 C 358.643 -1.94098 -2.75368 0
M  V30 3677 O 359.173 -1.46004 -3.74227 0
M  V30 3678 N 357.379 -1.61675 -2.41474 0
M  V30 3679 H 356.926 -2.00979 -1.61137 0
M  V30 3680 H 356.884 -0.968036 -2.99126 0
M  V30 3681 N 360.656 0.0484629 -1.57525 0
M  V30 3682 C 362.067 0.597486 -1.76881 0
M  V30 3683 C 362.418 1.76664 -0.853475 0
M  V30 3684 O 361.543 2.16357 -0.0433656 0
M  V30 3685 C 362.138 1.09066 -3.20765 0
M  V30 3686 C 360.697 1.58535 -3.41385 0
M  V30 3687 C 359.844 0.514868 -2.72478 0
M  V30 3688 H 362.795 -0.177758 -1.57701 0
M  V30 3689 H 362.816 1.95875 -3.2621 0
M  V30 3690 H 362.328 0.239521 -3.8736 0
M  V30 3691 H 360.429 2.45898 -2.79937 0
M  V30 3692 H 360.542 1.64622 -4.49929 0
M  V30 3693 H 358.906 0.965407 -2.35695 0
M  V30 3694 H 359.689 -0.32648 -3.41744 0
M  V30 3695 N 362.134 1.5431 0.320358 0
M  V30 3696 C 363.55 1.45091 0.664889 0
M  V30 3697 C 363.75 0.626382 1.91517 0
M  V30 3698 O 362.806 0.126443 2.52183 0
M  V30 3699 C 364.119 2.88848 0.83591 0
M  V30 3700 C 365.667 2.9877 0.933046 0
M  V30 3701 C 366.142 4.43683 1.13621 0
M  V30 3702 N 367.633 4.47309 1.20287 0
M  V30 3703 C 368.368 5.56595 1.37801 0
M  V30 3704 N 367.864 6.75844 1.52338 0
M  V30 3705 N 369.657 5.44248 1.40535 0
M  V30 3706 H 361.808 2.06398 -0.501374 0
M  V30 3707 H 364.071 0.933963 -0.162534 0
M  V30 3708 H 363.777 3.51698 -0.0116092 0
M  V30 3709 H 363.651 3.35148 1.73078 0
M  V30 3710 H 366.038 2.36045 1.77107 0
M  V30 3711 H 366.119 2.55796 0.0145782 0
M  V30 3712 H 365.763 5.06995 0.303032 0
M  V30 3713 H 365.693 4.84269 2.0686 0
M  V30 3714 H 368.184 3.61388 1.10485 0
M  V30 3715 H 368.497 7.54892 1.65403 0
M  V30 3716 H 366.842 6.78746 1.4943 0
M  V30 3717 H 370.033 4.50038 1.28777 0
M  V30 3718 H 370.206 6.29473 1.53842 0
M  V30 3719 N 363.613 -0.582584 1.46437 0
M  V30 3720 C 365.024 -1.1647 1.45916 0
M  V30 3721 C 365.375 -1.95177 0.200077 0
M  V30 3722 O 364.5 -2.04874 -0.696819 0
M  V30 3723 C 365.095 -2.11885 2.64367 0
M  V30 3724 C 363.654 -2.65421 2.66887 0
M  V30 3725 C 362.801 -1.41294 2.38603 0
M  V30 3726 H 365.752 -0.370514 1.54314 0
M  V30 3727 H 365.773 -2.9535 2.39892 0
M  V30 3728 H 365.285 -1.54573 3.5599 0
M  V30 3729 H 363.386 -3.26602 1.79338 0
M  V30 3730 H 363.499 -3.08147 3.66854 0
M  V30 3731 H 361.863 -1.71109 1.88663 0
M  V30 3732 H 362.646 -0.858125 3.32402 0
M  V30 3733 N 365.091 -1.34144 -0.827227 0
M  V30 3734 C 366.337 -1.26446 -1.58554 0
M  V30 3735 C 366.67 0.1664 -1.93486 0
M  V30 3736 O 365.945 1.1107 -1.59667 0
M  V30 3737 C 366.228 -2.15111 -2.8879 0
M  V30 3738 C 366.081 -3.66712 -2.60465 0
M  V30 3739 C 367.4 -2.03311 -3.90324 0
M  V30 3740 H 364.519 -0.46067 -0.575284 0
M  V30 3741 H 367.161 -1.64356 -0.953269 0
M  V30 3742 H 365.311 -1.8291 -3.42748 0
M  V30 3743 H 366.983 -4.09259 -2.1285 0
M  V30 3744 H 365.226 -3.88014 -1.93978 0
M  V30 3745 H 365.897 -4.24112 -3.53317 0
M  V30 3746 H 368.373 -2.31574 -3.45706 0
M  V30 3747 H 367.249 -2.67582 -4.79261 0
M  V30 3748 H 367.51 -1.00879 -4.30437 0
M  V30 3749 N 366.569 1.04691 -1.17803 0
M  V30 3750 C 367.816 1.77782 -0.969532 0
M  V30 3751 C 368.144 1.87926 0.501401 0
M  V30 3752 O 367.399 1.37918 1.38842 0
M  V30 3753 C 367.698 3.21467 -1.56186 0
M  V30 3754 C 367.364 3.3137 -3.05786 0
M  V30 3755 C 366.026 3.3378 -3.46619 0
M  V30 3756 C 368.378 3.31976 -4.01797 0
M  V30 3757 C 365.706 3.34431 -4.82051 0
M  V30 3758 C 368.058 3.34167 -5.37136 0
M  V30 3759 C 366.722 3.34866 -5.77426 0
M  V30 3760 H 365.992 0.650549 -0.354777 0
M  V30 3761 H 368.639 1.23006 -1.46772 0
M  V30 3762 H 366.944 3.79203 -0.985515 0
M  V30 3763 H 368.641 3.76652 -1.37602 0
M  V30 3764 H 365.231 3.3021 -2.73238 0
M  V30 3765 H 369.415 3.29311 -3.71306 0
M  V30 3766 H 364.671 3.33285 -5.12573 0
M  V30 3767 H 368.845 3.33585 -6.11305 0
M  V30 3768 H 366.472 3.35124 -6.82346 0
M  V30 3769 N 368.047 0.979072 1.23499 0
M  V30 3770 C 369.295 0.645941 1.91499 0
M  V30 3771 C 369.616 -0.822948 1.76784 0
M  V30 3772 O 368.886 -1.58854 1.14639 0
M  V30 3773 H 367.466 0.235919 0.708767 0
M  V30 3774 H 370.128 1.2426 1.50152 0
M  V30 3775 H 369.224 0.896411 2.9895 0
M  V30 3776 N 369.525 -1.3858 0.750561 0
M  V30 3777 C 370.774 -1.99424 0.302172 0
M  V30 3778 C 371.087 -1.60254 -1.12152 0
M  V30 3779 O 372.293 -2.14046 -1.67023 0
M  V30 3780 C 370.749 -3.56558 0.489307 0
M  V30 3781 C 370.357 -4.04682 1.92189 0
M  V30 3782 C 372.101 -4.24374 0.103478 0
M  V30 3783 C 370.008 -5.54446 2.05775 0
M  V30 3784 H 368.938 -0.746046 0.10923 0
M  V30 3785 H 371.589 -1.58383 0.92667 0
M  V30 3786 H 369.971 -3.95472 -0.204329 0
M  V30 3787 H 371.145 -3.77065 2.64875 0
M  V30 3788 H 369.46 -3.4958 2.26236 0
M  V30 3789 H 372.057 -5.34384 0.183787 0
M  V30 3790 H 372.4 -4.05468 -0.943481 0
M  V30 3791 H 372.933 -3.90688 0.748854 0
M  V30 3792 H 369.672 -5.78252 3.08714 0
M  V30 3793 H 369.192 -5.83816 1.37546 0
M  V30 3794 H 370.871 -6.20099 1.84626 0
M  V30 3795 N 371.003 -0.499398 -1.49478 0
M  V30 3796 C 372.243 0.0440751 -2.04352 0
M  V30 3797 C 372.607 1.34423 -1.37093 0
M  V30 3798 O 373.808 1.97184 -1.82679 0
M  V30 3799 C 372.079 0.194918 -3.56868 0
M  V30 3800 S 373.638 0.69287 -4.33295 0
M  V30 3801 H 370.456 0.00253458 -0.710995 0
M  V30 3802 H 373.058 -0.673 -1.83551 0
M  V30 3803 H 371.762 -0.756672 -4.03364 0
M  V30 3804 H 371.293 0.93728 -3.82071 0
M  V30 3805 H 373.308 1.96226 -4.55752 0
M  V30 3806 N 372.481 1.55866 -0.233164 0
M  V30 3807 C 373.411 2.23783 0.666599 0
M  V30 3808 C 374.392 1.21343 1.19205 0
M  V30 3809 O 375.577 1.4996 1.23392 0
M  V30 3810 C 372.707 2.92671 1.86978 0
M  V30 3811 C 371.661 4.01682 1.47768 0
M  V30 3812 C 370.987 4.57926 2.76058 0
M  V30 3813 C 372.287 5.18126 0.658993 0
M  V30 3814 H 373.981 2.99232 0.100306 0
M  V30 3815 H 371.527 1.43924 0.046804 0
M  V30 3816 H 373.48 3.3888 2.50476 0
M  V30 3817 H 372.204 2.14688 2.46123 0
M  V30 3818 H 370.863 3.56222 0.866106 0
M  V30 3819 H 370.511 3.76659 3.33372 0
M  V30 3820 H 370.211 5.31505 2.50552 0
M  V30 3821 H 371.735 5.06859 3.40479 0
M  V30 3822 H 373.149 5.60644 1.19795 0
M  V30 3823 H 371.546 5.98009 0.500552 0
M  V30 3824 H 372.616 4.83763 -0.331856 0
M  V30 3825 N 373.959 -0.0401083 1.57549 0
M  V30 3826 C 375.207 -0.731677 1.8839 0
M  V30 3827 C 375.528 -1.76481 0.829425 0
M  V30 3828 O 374.798 -1.95411 -0.1383 0
M  V30 3829 H 373.378 -0.273225 0.695239 0
M  V30 3830 H 376.04 -0.00867725 1.94898 0
M  V30 3831 H 375.136 -1.22816 2.86919 0
M  V30 3832 N 375.437 -1.54477 -0.31217 0
M  V30 3833 C 376.387 -1.81037 -1.38598 0
M  V30 3834 C 377.371 -0.666941 -1.46426 0
M  V30 3835 O 378.563 -0.927269 -1.50767 0
M  V30 3836 C 375.692 -2.05127 -2.75277 0
M  V30 3837 C 374.778 -3.25624 -2.71716 0
M  V30 3838 N 375.169 -4.46428 -2.37773 0
M  V30 3839 C 373.467 -3.27427 -3.02833 0
M  V30 3840 C 374.168 -5.28406 -2.43232 0
M  V30 3841 N 373.144 -4.6586 -2.80135 0
M  V30 3842 H 376.946 -2.7201 -1.11301 0
M  V30 3843 H 374.46 -1.53826 -0.520705 0
M  V30 3844 H 376.457 -2.22299 -3.52688 0
M  V30 3845 H 375.117 -1.15416 -3.03495 0
M  V30 3846 H 376.128 -4.73227 -2.1042 0
M  V30 3847 H 372.805 -2.47786 -3.36018 0
M  V30 3848 H 374.195 -6.34903 -2.19882 0
M  V30 3849 N 376.915 0.57481 -1.46744 0
M  V30 3850 C 377.847 1.69804 -1.53946 0
M  V30 3851 C 378.86 1.57098 -0.427106 0
M  V30 3852 O 380.049 1.64378 -0.695863 0
M  V30 3853 C 377.149 3.08125 -1.4111 0
M  V30 3854 C 376.322 3.46757 -2.66605 0
M  V30 3855 C 375.381 4.6417 -2.47855 0
M  V30 3856 O 374.407 4.69634 -3.21609 0
M  V30 3857 N 375.609 5.59553 -1.54534 0
M  V30 3858 H 378.374 1.64077 -2.50796 0
M  V30 3859 H 375.935 0.761 -1.429 0
M  V30 3860 H 377.927 3.84478 -1.26328 0
M  V30 3861 H 376.497 3.08175 -0.524109 0
M  V30 3862 H 375.717 2.6003 -2.96274 0
M  V30 3863 H 377.005 3.69337 -3.49954 0
M  V30 3864 H 376.403 5.57881 -0.937304 0
M  V30 3865 H 374.96 6.35304 -1.45711 0
M  V30 3866 N 378.394 1.34581 0.820102 0
M  V30 3867 C 379.324 1.29038 1.94606 0
M  V30 3868 C 380.305 0.1673 1.69275 0
M  V30 3869 O 381.49 0.360112 1.90832 0
M  V30 3870 C 378.62 1.04793 3.31113 0
M  V30 3871 C 377.574 2.13597 3.70891 0
M  V30 3872 C 376.9 1.74537 5.05412 0
M  V30 3873 C 378.2 3.55451 3.8269 0
M  V30 3874 H 379.894 2.23248 1.99501 0
M  V30 3875 H 377.44 1.0747 0.958449 0
M  V30 3876 H 379.393 0.995592 4.0947 0
M  V30 3877 H 378.117 0.0702565 3.26524 0
M  V30 3878 H 376.776 2.17905 2.9481 0
M  V30 3879 H 376.424 0.754226 4.97313 0
M  V30 3880 H 376.124 2.47361 5.32997 0
M  V30 3881 H 377.648 1.70803 5.86224 0
M  V30 3882 H 379.062 3.5354 4.51312 0
M  V30 3883 H 377.459 4.26922 4.21732 0
M  V30 3884 H 378.529 3.92587 2.84611 0
M  V30 3885 N 379.872 -1.04064 1.18357 0
M  V30 3886 C 380.802 -2.14001 0.934113 0
M  V30 3887 C 381.783 -1.69616 -0.128186 0
M  V30 3888 O 382.968 -1.94185 0.0244093 0
M  V30 3889 C 380.098 -3.44253 0.459066 0
M  V30 3890 C 379.052 -4.02261 1.46185 0
M  V30 3891 C 378.378 -5.27992 0.844322 0
M  V30 3892 C 379.678 -4.38432 2.83856 0
M  V30 3893 H 381.372 -2.35127 1.85352 0
M  V30 3894 H 378.918 -1.12998 0.892604 0
M  V30 3895 H 380.871 -4.20522 0.271907 0
M  V30 3896 H 379.595 -3.22813 -0.495912 0
M  V30 3897 H 378.254 -3.28074 1.63595 0
M  V30 3898 H 377.902 -5.02862 -0.117845 0
M  V30 3899 H 377.602 -5.67765 1.51384 0
M  V30 3900 H 379.126 -6.06938 0.667693 0
M  V30 3901 H 380.54 -5.05688 2.70098 0
M  V30 3902 H 378.937 -4.89254 3.47491 0
M  V30 3903 H 380.007 -3.4826 3.37406 0
M  V30 3904 N 381.35 -0.985608 -1.22978 0
M  V30 3905 C 382.313 -0.535071 -2.22867 0
M  V30 3906 C 383.313 0.378123 -1.56291 0
M  V30 3907 O 384.503 0.171092 -1.73358 0
M  V30 3908 C 381.635 0.222702 -3.40172 0
M  V30 3909 H 382.828 -1.41835 -2.6424 0
M  V30 3910 H 380.381 -0.772042 -1.35901 0
M  V30 3911 H 381.116 1.12229 -3.04262 0
M  V30 3912 H 380.901 -0.43288 -3.89703 0
M  V30 3913 H 382.391 0.526335 -4.1427 0
M  V30 3914 N 382.828 1.3818 -0.7579 0
M  V30 3915 C 383.758 2.33027 -0.148597 0
M  V30 3916 C 384.739 1.55085 0.69875 0
M  V30 3917 O 385.924 1.83384 0.639053 0
M  V30 3918 C 383.054 3.3928 0.742034 0
M  V30 3919 C 382.008 4.28 -0.00291946 0
M  V30 3920 C 381.334 5.25146 1.00625 0
M  V30 3921 C 382.634 5.08938 -1.17385 0
M  V30 3922 H 384.328 2.84231 -0.940909 0
M  V30 3923 H 381.874 1.36659 -0.453908 0
M  V30 3924 H 383.827 4.046 1.17799 0
M  V30 3925 H 382.551 2.86569 1.56671 0
M  V30 3926 H 381.21 3.64192 -0.419504 0
M  V30 3927 H 380.858 4.68721 1.8251 0
M  V30 3928 H 380.558 5.85361 0.512428 0
M  V30 3929 H 382.082 5.93342 1.44143 0
M  V30 3930 H 383.496 5.67474 -0.815224 0
M  V30 3931 H 381.893 5.7841 -1.59882 0
M  V30 3932 H 382.963 4.42424 -1.98468 0
M  V30 3933 N 384.306 0.507319 1.49211 0
M  V30 3934 C 385.269 -0.256763 2.27757 0
M  V30 3935 C 386.269 -0.888287 1.34038 0
M  V30 3936 O 387.459 -0.751841 1.5714 0
M  V30 3937 C 384.591 -1.36905 3.12202 0
M  V30 3938 H 385.784 0.432557 2.96764 0
M  V30 3939 H 383.337 0.262488 1.5408 0
M  V30 3940 H 384.072 -2.09233 2.47775 0
M  V30 3941 H 383.857 -0.921599 3.81115 0
M  V30 3942 H 385.347 -1.9071 3.7151 0
M  V30 3943 N 385.784 -1.5574 0.241426 0
M  V30 3944 C 387.033 -1.97986 -0.385295 0
M  V30 3945 C 387.346 -1.13267 -1.59468 0
M  V30 3946 O 388.552 -1.45501 -2.2922 0
M  V30 3947 C 387.008 -3.52275 -0.736884 0
M  V30 3948 C 386.616 -4.45726 0.450796 0
M  V30 3949 C 388.36 -4.03189 -1.3281 0
M  V30 3950 C 386.267 -5.91352 0.0756662 0
M  V30 3951 H 385.197 -0.739386 -0.147731 0
M  V30 3952 H 387.848 -1.80308 0.340779 0
M  V30 3953 H 386.23 -3.65628 -1.52094 0
M  V30 3954 H 387.404 -4.44131 1.22819 0
M  V30 3955 H 385.719 -4.05264 0.956573 0
M  V30 3956 H 388.316 -5.09505 -1.62201 0
M  V30 3957 H 388.659 -3.50212 -2.25071 0
M  V30 3958 H 389.192 -3.93141 -0.607069 0
M  V30 3959 H 385.931 -6.48354 0.965272 0
M  V30 3960 H 385.451 -5.96095 -0.665635 0
M  V30 3961 H 387.13 -6.46084 -0.344075 0
M  V30 3962 N 387.262 0.0317525 -1.57568 0
M  V30 3963 C 388.51 0.721676 -1.88776 0
M  V30 3964 C 388.831 1.76039 -0.838772 0
M  V30 3965 O 388.101 1.95482 0.127935 0
M  V30 3966 H 386.681 0.269534 -0.696678 0
M  V30 3967 H 389.343 -0.00165879 -1.949 0
M  V30 3968 H 388.439 1.21293 -2.87566 0
M  V30 3969 N 388.74 1.54641 0.303973 0
M  V30 3970 C 389.703 1.84646 1.35789 0
M  V30 3971 C 390.703 0.7192 1.4382 0
M  V30 3972 O 391.893 0.987491 1.43507 0
M  V30 3973 C 389.025 2.02407 2.74307 0
M  V30 3974 H 390.218 2.78829 1.10429 0
M  V30 3975 H 387.771 1.46658 0.540487 0
M  V30 3976 H 388.506 1.10502 3.04893 0
M  V30 3977 H 388.291 2.84453 2.69868 0
M  V30 3978 H 389.781 2.27002 3.50514 0
M  V30 3979 N 390.218 -0.567019 1.47046 0
M  V30 3980 C 391.165 -1.67489 1.58796 0
M  V30 3981 C 392.135 -1.60399 0.43144 0
M  V30 3982 O 393.32 -1.79378 0.650233 0
M  V30 3983 C 390.46 -3.05821 1.59899 0
M  V30 3984 C 389.573 -3.2342 2.86397 0
M  V30 3985 C 388.708 -4.52093 2.789 0
M  V30 3986 C 387.747 -4.6309 4.00267 0
M  V30 3987 N 386.884 -5.83106 3.91064 0
M  V30 3988 H 391.724 -1.56785 2.53422 0
M  V30 3989 H 389.261 -0.763896 1.2571 0
M  V30 3990 H 391.219 -3.8591 1.58522 0
M  V30 3991 H 389.849 -3.15384 0.687929 0
M  V30 3992 H 388.901 -2.3683 2.97684 0
M  V30 3993 H 390.213 -3.27412 3.76301 0
M  V30 3994 H 389.367 -5.4043 2.75718 0
M  V30 3995 H 388.106 -4.50565 1.86662 0
M  V30 3996 H 387.111 -3.73168 4.03765 0
M  V30 3997 H 388.336 -4.66386 4.93621 0
M  V30 3998 H 386.282 -5.82546 3.01623 0
M  V30 3999 H 386.199 -5.88434 4.74638 0
M  V30 4000 H 387.467 -6.73831 3.91882 0
M  V30 4001 N 391.696 -1.35014 -0.812953 0
M  V30 4002 C 392.924 -1.31031 -1.6012 0
M  V30 4003 C 393.339 0.113558 -1.88458 0
M  V30 4004 O 392.696 1.06363 -1.48301 0
M  V30 4005 C 392.747 -2.10872 -2.93624 0
M  V30 4006 O 392.468 -3.47706 -2.66518 0
M  V30 4007 C 393.969 -2.14401 -3.88004 0
M  V30 4008 H 391.189 -0.45037 -0.497401 0
M  V30 4009 H 393.733 -1.77775 -1.01076 0
M  V30 4010 H 391.888 -1.67744 -3.492 0
M  V30 4011 H 392.302 -3.89097 -3.51715 0
M  V30 4012 H 393.776 -2.74669 -4.78812 0
M  V30 4013 H 394.253 -1.14105 -4.24119 0
M  V30 4014 H 394.859 -2.57662 -3.38364 0
M  V30 4015 N 393.175 1.03435 -1.18907 0
M  V30 4016 C 394.405 1.8012 -1.01195 0
M  V30 4017 C 394.813 1.8395 0.442613 0
M  V30 4018 O 394.156 1.27836 1.31923 0
M  V30 4019 C 394.218 3.26792 -1.49823 0
M  V30 4020 C 393.882 3.46609 -2.97844 0
M  V30 4021 C 394.879 3.37278 -3.95651 0
M  V30 4022 C 392.564 3.73001 -3.36416 0
M  V30 4023 C 394.558 3.54054 -5.30023 0
M  V30 4024 C 392.245 3.89423 -4.70949 0
M  V30 4025 C 393.243 3.79951 -5.67562 0
M  V30 4026 O 392.931 3.95895 -6.99659 0
M  V30 4027 H 392.663 0.573865 -0.357289 0
M  V30 4028 H 395.217 1.31207 -1.58031 0
M  V30 4029 H 393.447 3.76703 -0.873578 0
M  V30 4030 H 395.136 3.85055 -1.28404 0
M  V30 4031 H 395.902 3.16846 -3.67197 0
M  V30 4032 H 391.781 3.79469 -2.61772 0
M  V30 4033 H 395.325 3.46577 -6.05417 0
M  V30 4034 H 391.222 4.09351 -4.99101 0
M  V30 4035 H 391.99 4.13019 -7.06653 0
M  V30 4036 N 394.653 0.992116 1.22453 0
M  V30 4037 C 395.6 0.541731 2.24352 0
M  V30 4038 C 396.57 -0.425519 1.60557 0
M  V30 4039 O 397.755 -0.330453 1.87917 0
M  V30 4040 C 394.895 -0.138248 3.44823 0
M  V30 4041 C 394.008 0.870649 4.23136 0
M  V30 4042 C 393.143 0.164269 5.30946 0
M  V30 4043 C 392.182 1.16159 6.00977 0
M  V30 4044 N 391.319 0.483568 7.00433 0
M  V30 4045 H 396.159 1.41541 2.62241 0
M  V30 4046 H 393.696 0.709013 1.28885 0
M  V30 4047 H 395.654 -0.5494 4.13567 0
M  V30 4048 H 394.284 -0.975721 3.077 0
M  V30 4049 H 393.336 1.40013 3.53696 0
M  V30 4050 H 394.648 1.63014 4.7141 0
M  V30 4051 H 393.802 -0.303653 6.0594 0
M  V30 4052 H 392.541 -0.627733 4.83643 0
M  V30 4053 H 391.546 1.64015 5.24766 0
M  V30 4054 H 392.771 1.95445 6.50368 0
M  V30 4055 H 390.717 -0.289012 6.55363 0
M  V30 4056 H 390.634 1.18152 7.4671 0
M  V30 4057 H 391.902 0.0384219 7.79491 0
M  V30 4058 N 396.131 -1.37776 0.765217 0
M  V30 4059 C 397.064 -2.28008 0.0935025 0
M  V30 4060 C 398.042 -1.45985 -0.716047 0
M  V30 4061 O 399.226 -1.75331 -0.692203 0
M  V30 4062 C 396.353 -3.27228 -0.874052 0
M  V30 4063 C 395.399 -4.26239 -0.149307 0
M  V30 4064 S 396.232 -5.22827 1.15809 0
M  V30 4065 C 397.388 -6.256 0.193906 0
M  V30 4066 H 397.621 -2.84631 0.858637 0
M  V30 4067 H 395.154 -1.43952 0.558313 0
M  V30 4068 H 397.112 -3.84902 -1.42691 0
M  V30 4069 H 395.773 -2.69565 -1.61225 0
M  V30 4070 H 394.966 -4.96213 -0.88254 0
M  V30 4071 H 394.568 -3.7252 0.332366 0
M  V30 4072 H 396.86 -6.74508 -0.636011 0
M  V30 4073 H 397.803 -7.02838 0.861638 0
M  V30 4074 H 398.211 -5.64173 -0.191975 0
M  V30 4075 N 397.609 -0.515225 -1.4894 0
M  V30 4076 C 399.025 -0.172099 -1.58669 0
M  V30 4077 C 399.225 1.32405 -1.51892 0
M  V30 4078 O 398.281 2.10116 -1.40027 0
M  V30 4079 C 399.594 -0.761533 -2.90897 0
M  V30 4080 C 401.142 -0.728926 -3.04394 0
M  V30 4081 C 401.617 -1.29667 -4.39261 0
M  V30 4082 N 403.108 -1.25799 -4.4579 0
M  V30 4083 C 403.843 -1.66733 -5.48623 0
M  V30 4084 N 403.339 -2.15327 -6.58488 0
M  V30 4085 N 405.132 -1.58061 -5.39419 0
M  V30 4086 H 397.283 -1.48778 -1.51588 0
M  V30 4087 H 399.546 -0.617968 -0.718901 0
M  V30 4088 H 399.252 -1.81136 -3.01468 0
M  V30 4089 H 399.126 -0.230106 -3.76497 0
M  V30 4090 H 401.513 0.312098 -2.93445 0
M  V30 4091 H 401.594 -1.29766 -2.20442 0
M  V30 4092 H 401.238 -2.33655 -4.50963 0
M  V30 4093 H 401.168 -0.703752 -5.21876 0
M  V30 4094 H 403.659 -0.902102 -3.66975 0
M  V30 4095 H 403.972 -2.44594 -7.33071 0
M  V30 4096 H 402.317 -2.19311 -6.59491 0
M  V30 4097 H 405.508 -1.19906 -4.52482 0
M  V30 4098 H 405.681 -1.90284 -6.19432 0
M  V30 4099 N 399.087 1.5561 -0.249682 0
M  V30 4100 C 400.317 2.03116 0.377803 0
M  V30 4101 C 400.725 1.12822 1.51881 0
M  V30 4102 O 400.068 0.13562 1.83199 0
M  V30 4103 C 400.13 3.46866 0.944693 0
M  V30 4104 C 399.794 4.56955 -0.0644259 0
M  V30 4105 C 400.791 5.12485 -0.874957 0
M  V30 4106 C 398.476 5.01936 -0.19132 0
M  V30 4107 C 400.47 6.11491 -1.79881 0
M  V30 4108 C 398.157 6.00773 -1.11868 0
M  V30 4109 C 399.155 6.5543 -1.92095 0
M  V30 4110 O 398.843 7.5234 -2.83267 0
M  V30 4111 H 398.575 0.669489 0.0935961 0
M  V30 4112 H 401.129 2.02004 -0.371966 0
M  V30 4113 H 399.359 3.45136 1.74407 0
M  V30 4114 H 401.048 3.77856 1.48255 0
M  V30 4115 H 401.814 4.78564 -0.787523 0
M  V30 4116 H 397.693 4.59055 0.423072 0
M  V30 4117 H 401.237 6.54078 -2.42543 0
M  V30 4118 H 397.134 6.34114 -1.20703 0
M  V30 4119 H 397.902 7.69966 -2.7766 0
M  V30 4120 N 400.565 -0.0233959 1.57583 0
M  V30 4121 C 401.813 -0.711654 1.89156 0
M  V30 4122 C 402.134 -1.75591 0.848096 0
M  V30 4123 O 401.404 -1.95547 -0.117566 0
M  V30 4124 H 399.984 -0.265835 0.698098 0
M  V30 4125 H 402.646 0.0119948 1.94896 0
M  V30 4126 H 401.742 -1.19766 2.88206 0
M  V30 4127 N 402.043 -1.548 -0.295768 0
M  V30 4128 C 402.991 -1.86874 -1.38495 0
M  V30 4129 C 403.985 -0.742938 -1.52239 0
M  V30 4130 O 405.191 -0.926999 -1.54294 0
M  V30 4131 H 401.566 -0.592786 -0.462719 0
M  V30 4132 H 403.537 -2.77904 -1.08682 0
M  V30 4133 C 402.286 -2.13732 -2.74252 0
M  V30 4134 H 401.609 -2.99835 -2.64459 0
M  V30 4135 H 403.049 -2.4011 -3.49461 0
M  V30 4136 C 401.508 -0.937539 -3.23592 0
M  V30 4137 O 402.038 -0.160665 -4.01379 0
M  V30 4138 N 400.244 -0.741478 -2.80981 0
M  V30 4139 H 399.791 -1.37489 -2.1784 0
M  V30 4140 H 399.749 0.0597103 -3.14343 0
M  V30 4141 N 403.521 0.559213 -1.47345 0
M  V30 4142 C 404.937 0.884943 -1.32819 0
M  V30 4143 C 405.137 1.98988 -0.317173 0
M  V30 4144 O 404.193 2.51031 0.272011 0
M  V30 4145 C 405.506 1.28007 -2.72093 0
M  V30 4146 C 407.054 1.39161 -2.80363 0
M  V30 4147 C 407.529 1.82031 -4.20272 0
M  V30 4148 N 409.02 1.89185 -4.22804 0
M  V30 4149 C 409.755 2.2368 -5.27973 0
M  V30 4150 N 409.251 2.56802 -6.43447 0
M  V30 4151 N 411.044 2.24436 -5.15349 0
M  V30 4152 H 403.195 -0.170304 -2.11716 0
M  V30 4153 H 405.458 -0.0135247 -0.947904 0
M  V30 4154 H 405.164 0.542027 -3.47498 0
M  V30 4155 H 405.038 2.23665 -3.03733 0
M  V30 4156 H 407.425 2.12048 -2.05231 0
M  V30 4157 H 407.506 0.41696 -2.52379 0
M  V30 4158 H 407.15 1.09715 -4.95908 0
M  V30 4159 H 407.08 2.80495 -4.45679 0
M  V30 4160 H 409.571 1.65982 -3.39497 0
M  V30 4161 H 409.884 2.82144 -7.19454 0
M  V30 4162 H 408.229 2.54387 -6.46771 0
M  V30 4163 H 411.42 1.97998 -4.24163 0
M  V30 4164 H 411.593 2.50989 -5.97418 0
M  V30 4165 N 404.999 1.35443 0.805782 0
M  V30 4166 C 406.247 1.28507 1.55982 0
M  V30 4167 C 406.568 -0.140046 1.94496 0
M  V30 4168 O 405.838 -1.07666 1.63661 0
M  V30 4169 H 404.418 0.472676 0.578434 0
M  V30 4170 H 407.08 1.69555 0.961098 0
M  V30 4171 H 406.176 1.90148 2.47488 0
M  V30 4172 N 406.477 -1.02803 1.19454 0
M  V30 4173 C 407.427 -2.0945 0.900827 0
M  V30 4174 C 408.411 -1.60335 -0.134715 0
M  V30 4175 O 409.603 -1.76857 0.0710924 0
M  V30 4176 C 406.732 -3.4044 0.442229 0
M  V30 4177 C 405.818 -3.96286 1.51056 0
M  V30 4178 N 406.209 -4.25785 2.73021 0
M  V30 4179 C 404.507 -4.24307 1.37404 0
M  V30 4180 C 405.208 -4.70654 3.41848 0
M  V30 4181 N 404.184 -4.72238 2.69243 0
M  V30 4182 H 407.986 -2.3015 1.82779 0
M  V30 4183 H 405.5 -1.20672 1.08683 0
M  V30 4184 H 407.497 -4.16354 0.21326 0
M  V30 4185 H 406.157 -3.21159 -0.478238 0
M  V30 4186 H 407.168 -4.15041 3.09776 0
M  V30 4187 H 403.845 -4.14285 0.517103 0
M  V30 4188 H 405.235 -5.02392 4.46152 0
M  V30 4189 N 407.956 -0.998596 -1.21925 0
M  V30 4190 C 408.904 -0.546641 -2.26085 0
M  V30 4191 C 409.898 0.405576 -1.64473 0
M  V30 4192 O 411.104 0.277471 -1.77849 0
M  V30 4193 H 407.479 -0.158403 -0.735127 0
M  V30 4194 H 409.45 -1.43645 -2.61551 0
M  V30 4195 C 408.199 0.117388 -3.47502 0
M  V30 4196 H 407.522 -0.606277 -3.95176 0
M  V30 4197 H 408.962 0.396993 -4.22137 0
M  V30 4198 C 407.421 1.35455 -3.0847 0
M  V30 4199 O 407.951 2.44944 -3.18379 0
M  V30 4200 N 406.157 1.23191 -2.63196 0
M  V30 4201 H 405.704 0.341006 -2.55333 0
M  V30 4202 H 405.662 2.06071 -2.37449 0
M  V30 4203 N 409.434 1.37368 -0.772513 0
M  V30 4204 C 410.366 2.28899 -0.117502 0
M  V30 4205 C 411.379 1.4867 0.663405 0
M  V30 4206 O 412.568 1.71314 0.501372 0
M  V30 4207 C 409.668 3.2788 0.857192 0
M  V30 4208 C 408.841 4.37207 0.129938 0
M  V30 4209 C 407.9 5.16257 1.01811 0
M  V30 4210 O 406.926 5.67159 0.481601 0
M  V30 4211 N 408.128 5.31058 2.3443 0
M  V30 4212 H 410.893 2.85752 -0.903662 0
M  V30 4213 H 408.454 1.49353 -0.62493 0
M  V30 4214 H 410.446 3.77647 1.45482 0
M  V30 4215 H 409.016 2.7179 1.54432 0
M  V30 4216 H 408.236 3.88827 -0.648605 0
M  V30 4217 H 409.524 5.07434 -0.372559 0
M  V30 4218 H 408.922 4.91287 2.80452 0
M  V30 4219 H 407.479 5.84131 2.89197 0
M  V30 4220 N 410.912 0.523116 1.48665 0
M  V30 4221 C 412.323 0.0808997 1.86525 0
M  V30 4222 C 412.674 -1.33975 1.43336 0
M  V30 4223 O 411.799 -2.00221 0.821009 0
M  V30 4224 C 412.394 0.140037 3.3851 0
M  V30 4225 C 410.953 -0.246948 3.75589 0
M  V30 4226 C 410.1 0.502845 2.72703 0
M  V30 4227 H 413.051 0.734736 1.40667 0
M  V30 4228 H 413.072 -0.649945 3.74908 0
M  V30 4229 H 412.584 1.17412 3.69914 0
M  V30 4230 H 410.685 -1.28343 3.49798 0
M  V30 4231 H 410.798 0.0878859 4.79019 0
M  V30 4232 H 409.162 -0.0500581 2.54651 0
M  V30 4233 H 409.945 1.53743 3.0695 0
M  V30 4234 N 412.39 -1.55475 0.257931 0
M  V30 4235 C 413.63 -2.01112 -0.365129 0
M  V30 4236 C 413.994 -1.1423 -1.54323 0
M  V30 4237 O 415.195 -1.49371 -2.23477 0
M  V30 4238 C 413.466 -3.49353 -0.754117 0
M  V30 4239 S 415.025 -4.16992 -1.36614 0
M  V30 4240 H 411.843 -0.701737 -0.114397 0
M  V30 4241 H 414.445 -1.91855 0.375747 0
M  V30 4242 H 413.149 -4.10246 0.112441 0
M  V30 4243 H 412.68 -3.6256 -1.52689 0
M  V30 4244 H 414.695 -4.19191 -2.65505 0
M  V30 4245 N 413.868 0.0150385 -1.57593 0
M  V30 4246 C 414.798 1.01047 -2.10503 0
M  V30 4247 C 415.779 1.36816 -1.01071 0
M  V30 4248 O 416.964 1.45455 -1.28672 0
M  V30 4249 C 414.094 2.30708 -2.59598 0
M  V30 4250 C 413.048 2.09142 -3.73421 0
M  V30 4251 C 412.374 3.44685 -4.08774 0
M  V30 4252 C 413.674 1.46619 -5.01298 0
M  V30 4253 H 415.368 0.569978 -2.93925 0
M  V30 4254 H 412.914 0.272724 -1.41394 0
M  V30 4255 H 414.867 3.00687 -2.95238 0
M  V30 4256 H 413.591 2.76843 -1.73279 0
M  V30 4257 H 412.25 1.41592 -3.38153 0
M  V30 4258 H 411.898 3.88495 -3.195 0
M  V30 4259 H 411.598 3.31077 -4.8545 0
M  V30 4260 H 413.122 4.16004 -4.4696 0
M  V30 4261 H 414.536 2.06535 -5.34805 0
M  V30 4262 H 412.933 1.43544 -5.82679 0
M  V30 4263 H 414.003 0.433611 -4.82957 0
M  V30 4264 N 415.346 1.54954 0.287554 0
M  V30 4265 C 416.276 1.89839 1.35954 0
M  V30 4266 C 417.257 0.758675 1.52244 0
M  V30 4267 O 418.442 1.01557 1.65529 0
M  V30 4268 C 415.572 2.15753 2.72154 0
M  V30 4269 C 414.526 3.3159 2.70614 0
M  V30 4270 C 413.852 3.42952 4.10229 0
M  V30 4271 C 415.152 4.68359 2.31165 0
M  V30 4272 H 416.846 2.79625 1.07007 0
M  V30 4273 H 414.392 1.3454 0.513316 0
M  V30 4274 H 416.345 2.38743 3.47246 0
M  V30 4275 H 415.069 1.22752 3.02654 0
M  V30 4276 H 413.728 3.08545 1.97979 0
M  V30 4277 H 413.376 2.47443 4.37928 0
M  V30 4278 H 413.076 4.20826 4.10097 0
M  V30 4279 H 414.6 3.68218 4.87081 0
M  V30 4280 H 416.014 4.9099 2.95976 0
M  V30 4281 H 414.411 5.49044 2.42221 0
M  V30 4282 H 415.481 4.68165 1.26291 0
M  V30 4283 N 416.824 -0.551391 1.4764 0
M  V30 4284 C 418.07 -1.31024 1.54792 0
M  V30 4285 C 418.403 -1.9304 0.211967 0
M  V30 4286 O 417.678 -1.78175 -0.77999 0
M  V30 4287 C 417.961 -2.41593 2.67029 0
M  V30 4288 C 417.814 -1.84408 4.10261 0
M  V30 4289 C 419.133 -3.43488 2.75143 0
M  V30 4290 H 416.252 -0.475031 0.563485 0
M  V30 4291 H 418.894 -0.616454 1.79722 0
M  V30 4292 H 417.044 -3.00772 2.45904 0
M  V30 4293 H 418.716 -1.29445 4.42766 0
M  V30 4294 H 416.959 -1.15051 4.18265 0
M  V30 4295 H 417.63 -2.64367 4.84576 0
M  V30 4296 H 420.106 -2.94236 2.94218 0
M  V30 4297 H 418.982 -4.18274 3.55441 0
M  V30 4298 H 419.243 -4.02703 1.82435 0
M  V30 4299 N 418.302 -1.35869 -0.798587 0
M  V30 4300 C 419.55 -1.29332 -1.55298 0
M  V30 4301 C 419.871 0.129729 -1.94568 0
M  V30 4302 O 419.141 1.06796 -1.6423 0
M  V30 4303 H 417.721 -0.475737 -0.57592 0
M  V30 4304 H 420.383 -1.70062 -0.952093 0
M  V30 4305 H 419.479 -1.91458 -2.46476 0
M  V30 4306 N 419.78 1.02168 -1.19998 0
M  V30 4307 C 421.005 1.79833 -1.03319 0
M  V30 4308 C 421.43 1.83504 0.413281 0
M  V30 4309 O 420.788 1.26635 1.29743 0
M  V30 4310 C 420.836 3.22396 -1.61533 0
M  V30 4311 O 419.94 4.03555 -0.849519 0
M  V30 4312 H 419.281 0.554872 -0.364709 0
M  V30 4313 H 421.811 1.28542 -1.59179 0
M  V30 4314 H 421.821 3.73124 -1.65054 0
M  V30 4315 H 420.496 3.19039 -2.66809 0
M  V30 4316 H 419.073 3.62169 -0.888129 0
M  V30 4317 N 421.258 1.00505 1.21394 0
M  V30 4318 C 422.506 0.686415 1.90086 0
M  V30 4319 C 422.827 -0.785264 1.7849 0
M  V30 4320 O 422.097 -1.56387 1.17983 0
M  V30 4321 H 420.677 0.2509 0.703604 0
M  V30 4322 H 423.339 1.27417 1.47482 0
M  V30 4323 H 422.435 0.959621 2.96981 0
M  V30 4324 N 422.737 -1.36956 0.779787 0
M  V30 4325 C 424.153 -1.52817 0.460342 0
M  V30 4326 C 424.353 -1.7361 -1.02283 0
M  V30 4327 O 423.409 -1.76207 -1.80852 0
M  V30 4328 C 424.722 -2.71983 1.28241 0
M  V30 4329 C 426.27 -2.85849 1.27512 0
M  V30 4330 C 426.745 -4.08008 2.08072 0
M  V30 4331 N 428.236 -4.15135 2.05467 0
M  V30 4332 C 428.971 -5.08711 2.64577 0
M  V30 4333 N 428.467 -6.07792 3.32506 0
M  V30 4334 N 430.26 -5.01254 2.54363 0
M  V30 4335 H 422.411 -1.21713 1.74068 0
M  V30 4336 H 424.674 -0.593294 0.739396 0
M  V30 4337 H 424.38 -2.63109 2.33381 0
M  V30 4338 H 424.254 -3.65882 0.917088 0
M  V30 4339 H 426.641 -2.94189 0.231686 0
M  V30 4340 H 426.722 -1.92886 1.68014 0
M  V30 4341 H 426.366 -4.00429 3.12441 0
M  V30 4342 H 426.296 -5.001 1.64947 0
M  V30 4343 H 428.787 -3.44189 1.5602 0
M  V30 4344 H 429.1 -6.75739 3.74963 0
M  V30 4345 H 427.445 -6.08047 3.36606 0
M  V30 4346 H 430.636 -4.22795 2.00902 0
M  V30 4347 H 430.809 -5.73995 3.00722 0
M  V30 4348 N 424.215 -0.530993 -1.48385 0
M  V30 4349 C 425.455 0.000718982 -2.044 0
M  V30 4350 C 425.819 1.31485 -1.39913 0
M  V30 4351 O 427.02 1.93265 -1.86821 0
M  V30 4352 C 425.291 0.119177 -3.57201 0
M  V30 4353 S 426.85 0.600806 -4.34667 0
M  V30 4354 H 423.668 -0.0125473 -0.710889 0
M  V30 4355 H 426.27 -0.711783 -1.82082 0
M  V30 4356 H 424.974 -0.842061 -4.01668 0
M  V30 4357 H 424.505 0.856026 -3.83974 0
M  V30 4358 H 426.52 1.86514 -4.59812 0
M  V30 4359 N 425.693 1.55336 -0.266172 0
M  V30 4360 C 426.94 1.99397 0.353158 0
M  V30 4361 C 427.268 1.15451 1.56529 0
M  V30 4362 O 426.523 0.209974 1.9457 0
M  V30 4363 C 426.822 3.48606 0.787957 0
M  V30 4364 C 426.488 4.49773 -0.318541 0
M  V30 4365 C 425.15 4.77158 -0.62239 0
M  V30 4366 C 427.502 5.10212 -1.06459 0
M  V30 4367 C 424.83 5.62251 -1.67602 0
M  V30 4368 C 427.182 5.96449 -2.10788 0
M  V30 4369 C 425.846 6.22158 -2.41817 0
M  V30 4370 H 425.116 0.729644 0.12923 0
M  V30 4371 H 427.763 1.87732 -0.37802 0
M  V30 4372 H 426.068 3.57701 1.59866 0
M  V30 4373 H 427.765 3.80098 1.27775 0
M  V30 4374 H 424.355 4.2854 -0.0715925 0
M  V30 4375 H 428.539 4.89086 -0.843098 0
M  V30 4376 H 423.795 5.80419 -1.92155 0
M  V30 4377 H 427.969 6.42317 -2.69076 0
M  V30 4378 H 425.596 6.87888 -3.23596 0
M  V30 4379 N 427.171 -0.0066808 1.57599 0
M  V30 4380 C 428.101 -0.999296 2.11036 0
M  V30 4381 C 429.082 -1.36278 1.01795 0
M  V30 4382 O 430.267 -1.4477 1.29442 0
M  V30 4383 C 427.397 -2.29328 2.60818 0
M  V30 4384 C 426.351 -2.07159 3.74525 0
M  V30 4385 C 425.677 -3.42512 4.10596 0
M  V30 4386 C 426.977 -1.43959 5.02069 0
M  V30 4387 H 428.671 -0.554382 2.94223 0
M  V30 4388 H 426.217 -0.265221 1.41536 0
M  V30 4389 H 428.17 -2.99117 2.96828 0
M  V30 4390 H 426.894 -2.7592 1.74745 0
M  V30 4391 H 425.553 -1.39797 3.38899 0
M  V30 4392 H 425.201 -3.86795 3.21556 0
M  V30 4393 H 424.901 -3.28498 4.87199 0
M  V30 4394 H 426.425 -4.13628 4.4916 0
M  V30 4395 H 427.839 -2.03696 5.35893 0
M  V30 4396 H 426.236 -1.40452 5.83432 0
M  V30 4397 H 427.306 -0.407992 4.83181 0
M  V30 4398 N 428.649 -1.55105 -0.279332 0
M  V30 4399 C 429.877 -1.7943 -1.03017 0
M  V30 4400 C 430.292 -0.564456 -1.80165 0
M  V30 4401 O 429.649 0.466326 -1.76442 0
M  V30 4402 C 429.7 -3.0155 -1.99374 0
M  V30 4403 O 429.421 -4.19784 -1.25352 0
M  V30 4404 C 430.922 -3.3843 -2.86321 0
M  V30 4405 H 428.142 -0.597882 -0.304594 0
M  V30 4406 H 430.686 -2.02105 -0.312035 0
M  V30 4407 H 428.841 -2.81019 -2.66659 0
M  V30 4408 H 429.255 -4.88781 -1.90246 0
M  V30 4409 H 430.729 -4.27066 -3.49741 0
M  V30 4410 H 431.206 -2.57549 -3.5576 0
M  V30 4411 H 431.812 -3.61197 -2.24536 0
M  V30 4412 N 430.127 0.543554 -1.4793 0
M  V30 4413 C 431.352 1.32995 -1.59145 0
M  V30 4414 C 431.777 1.86472 -0.246956 0
M  V30 4415 O 431.135 1.63696 0.779324 0
M  V30 4416 C 431.183 2.46623 -2.63077 0
M  V30 4417 O 430.287 3.49261 -2.19295 0
M  V30 4418 H 429.628 0.394472 -0.534124 0
M  V30 4419 H 432.158 0.655489 -1.93816 0
M  V30 4420 H 432.168 2.93001 -2.83926 0
M  V30 4421 H 430.843 2.07059 -3.60693 0
M  V30 4422 H 429.42 3.09094 -2.08603 0
M  V30 4423 N 431.605 1.3629 0.791371 0
M  V30 4424 C 432.537 1.26321 1.91248 0
M  V30 4425 C 433.55 0.18313 1.61767 0
M  V30 4426 O 434.739 0.437682 1.73051 0
M  V30 4427 C 431.839 0.925901 3.26007 0
M  V30 4428 C 431.012 2.10746 3.83281 0
M  V30 4429 C 430.071 1.74352 4.96475 0
M  V30 4430 O 429.097 2.46416 5.13096 0
M  V30 4431 N 430.299 0.676058 5.7655 0
M  V30 4432 H 433.064 2.22915 2.00323 0
M  V30 4433 H 430.625 1.29659 0.969546 0
M  V30 4434 H 432.617 0.663636 3.99222 0
M  V30 4435 H 431.187 0.0491581 3.12561 0
M  V30 4436 H 430.407 2.53264 3.02077 0
M  V30 4437 H 431.695 2.8969 4.18279 0
M  V30 4438 H 431.093 0.0776467 5.65647 0
M  V30 4439 H 429.65 0.473612 6.50077 0
M  V30 4440 N 433.083 -1.0153 1.20538 0
M  V30 4441 C 434.031 -2.12215 0.952235 0
M  V30 4442 C 435.025 -1.69123 -0.0968735 0
M  V30 4443 O 436.231 -1.7992 0.0536006 0
M  V30 4444 H 432.606 -0.693576 0.290613 0
M  V30 4445 H 434.577 -2.3075 1.89201 0
M  V30 4446 C 433.326 -3.43755 0.522287 0
M  V30 4447 H 432.649 -3.7734 1.32115 0
M  V30 4448 H 434.089 -4.22254 0.384389 0
M  V30 4449 C 432.548 -3.28088 -0.765489 0
M  V30 4450 O 433.078 -3.57921 -1.8236 0
M  V30 4451 N 431.284 -2.81333 -0.728011 0
M  V30 4452 H 430.831 -2.57255 0.133332 0
M  V30 4453 H 430.789 -2.71232 -1.58999 0
M  V30 4454 N 434.561 -1.01147 -1.20859 0
M  V30 4455 C 435.511 -0.548247 -2.2131 0
M  V30 4456 C 436.495 0.393646 -1.5601 0
M  V30 4457 O 437.687 0.217445 -1.75659 0
M  V30 4458 C 434.816 0.117252 -3.431 0
M  V30 4459 C 433.902 -0.846043 -4.15575 0
M  V30 4460 N 434.293 -2.00149 -4.64515 0
M  V30 4461 C 432.591 -0.665783 -4.41003 0
M  V30 4462 C 433.292 -2.60764 -5.19978 0
M  V30 4463 N 432.268 -1.88868 -5.09735 0
M  V30 4464 H 436.07 -1.42921 -2.56809 0
M  V30 4465 H 433.584 -0.876142 -1.36739 0
M  V30 4466 H 435.581 0.46662 -4.1428 0
M  V30 4467 H 434.241 0.994115 -3.09107 0
M  V30 4468 H 435.252 -2.38162 -4.5989 0
M  V30 4469 H 431.929 0.163456 -4.1718 0
M  V30 4470 H 433.319 -3.58519 -5.68255 0
M  V30 4471 N 436.039 1.36541 -0.78704 0
M  V30 4472 C 437.287 1.98911 -0.357633 0
M  V30 4473 C 437.608 1.62778 1.07371 0
M  V30 4474 O 436.878 0.900612 1.73971 0
M  V30 4475 H 435.458 0.735734 -0.129246 0
M  V30 4476 H 438.12 1.66776 -1.00855 0
M  V30 4477 H 437.216 3.08874 -0.447549 0
M  V30 4478 N 437.518 0.538854 1.48102 0
M  V30 4479 C 438.765 0.0080018 2.02498 0
M  V30 4480 C 439.093 -1.33437 1.41509 0
M  V30 4481 O 438.348 -1.87709 0.553507 0
M  V30 4482 C 438.647 -0.153808 3.57069 0
M  V30 4483 C 438.313 1.11533 4.36888 0
M  V30 4484 C 436.975 1.46314 4.58417 0
M  V30 4485 C 439.327 1.95718 4.83057 0
M  V30 4486 C 436.655 2.6516 5.23361 0
M  V30 4487 C 439.007 3.13751 5.49312 0
M  V30 4488 C 437.671 3.48866 5.69077 0
M  V30 4489 H 436.941 0.00292807 0.740994 0
M  V30 4490 H 439.588 0.706668 1.77984 0
M  V30 4491 H 437.893 -0.935309 3.80472 0
M  V30 4492 H 439.59 -0.579607 3.96789 0
M  V30 4493 H 436.18 0.834484 4.20398 0
M  V30 4494 H 440.364 1.70158 4.66219 0
M  V30 4495 H 435.62 2.92558 5.36861 0
M  V30 4496 H 439.794 3.79282 5.84053 0
M  V30 4497 H 437.421 4.41054 6.19173 0
M  V30 4498 N 438.996 -1.55193 0.274407 0
M  V30 4499 C 439.959 -2.212 -0.600279 0
M  V30 4500 C 440.959 -1.18963 -1.08187 0
M  V30 4501 O 442.149 -1.43873 -0.982158 0
M  V30 4502 C 439.281 -2.87739 -1.82809 0
M  V30 4503 H 440.474 -2.9989 -0.0239682 0
M  V30 4504 H 438.027 -1.5628 0.0250192 0
M  V30 4505 H 438.762 -2.13058 -2.44493 0
M  V30 4506 H 438.547 -3.62658 -1.49069 0
M  V30 4507 H 440.037 -3.38171 -2.45011 0
M  V30 4508 N 440.474 -0.00167713 -1.576 0
M  V30 4509 C 441.72 0.683832 -1.90923 0
M  V30 4510 C 442.053 1.7333 -0.875799 0
M  V30 4511 O 441.328 1.94215 0.10525 0
M  V30 4512 C 441.611 1.32543 -3.3482 0
M  V30 4513 C 441.464 0.287387 -4.48881 0
M  V30 4514 C 442.783 2.25114 -3.78169 0
M  V30 4515 H 439.902 0.247125 -0.694333 0
M  V30 4516 H 442.544 -0.0533149 -1.89925 0
M  V30 4517 H 440.694 1.95372 -3.35801 0
M  V30 4518 H 442.366 -0.341346 -4.60035 0
M  V30 4519 H 440.609 -0.39017 -4.32042 0
M  V30 4520 H 441.28 0.775393 -5.46527 0
M  V30 4521 H 443.756 1.723 -3.7875 0
M  V30 4522 H 442.632 2.66971 -4.79602 0
M  V30 4523 H 442.893 3.13092 -3.12131 0
M  V30 4524 N 441.952 1.55251 0.271103 0
M  V30 4525 C 442.862 1.9136 1.35714 0
M  V30 4526 C 443.878 0.811075 1.5394 0
M  V30 4527 O 445.054 1.11031 1.6803 0
M  V30 4528 C 442.119 2.1798 2.69603 0
M  V30 4529 C 441.18 3.4153 2.60107 0
M  V30 4530 C 440.413 3.66871 3.8761 0
M  V30 4531 O 440.636 2.94689 4.8838 0
M  V30 4532 O 439.57 4.60405 3.87699 0
M  V30 4533 H 443.396 2.83815 1.08088 0
M  V30 4534 H 440.981 1.41821 0.469792 0
M  V30 4535 H 442.863 2.36518 3.48765 0
M  V30 4536 H 441.538 1.28708 2.97012 0
M  V30 4537 H 440.445 3.28325 1.79314 0
M  V30 4538 H 441.778 4.31027 2.37647 0
M  V30 4539 N 443.43 -0.535701 1.48216 0
M  V30 4540 C 444.658 -1.31671 1.59594 0
M  V30 4541 C 445.073 -1.87083 0.254056 0
M  V30 4542 O 444.43 -1.66112 -0.755854 0
M  V30 4543 C 444.481 -2.47158 2.63809 0
M  V30 4544 O 444.202 -1.94032 3.92789 0
M  V30 4545 C 445.703 -3.39062 2.85573 0
M  V30 4546 H 442.923 -0.400623 0.538277 0
M  V30 4547 H 445.467 -0.646827 1.94001 0
M  V30 4548 H 443.622 -3.10043 2.32276 0
M  V30 4549 H 444.036 -2.69585 4.49916 0
M  V30 4550 H 445.51 -4.16459 3.62306 0
M  V30 4551 H 445.987 -3.93941 1.94184 0
M  V30 4552 H 446.593 -2.81975 3.18387 0
M  V30 4553 N 444.908 -1.36708 -0.784132 0
M  V30 4554 C 446.185 -1.21776 -1.53069 0
M  V30 4555 C 446.565 0.193876 -2.10208 0
M  V30 4556 O 445.913 1.20012 -1.94446 0
M  V30 4557 C 446.123 -2.30395 -2.62143 0
M  V30 4558 C 447.471 -2.67325 -3.29882 0
M  V30 4559 O 448.495 -2.29478 -2.7243 0
M  V30 4560 O 447.354 -3.32485 -4.33724 0
M  V30 4561 H 444.448 -0.474459 -0.677361 0
M  V30 4562 H 446.994 -1.48454 -0.82216 0
M  V30 4563 H 445.766 -3.2498 -2.17953 0
M  V30 4564 H 445.389 -2.05112 -3.40609 0
M  V30 4565 N 446.386 1.0089 -1.21074 0
M  V30 4566 C 447.611 1.78727 -1.05221 0
M  V30 4567 C 448.036 1.83932 0.393795 0
M  V30 4568 O 447.394 1.28004 1.28393 0
M  V30 4569 C 447.442 3.20665 -1.64944 0
M  V30 4570 O 446.546 4.02632 -0.892273 0
M  V30 4571 H 445.887 0.550973 -0.370574 0
M  V30 4572 H 448.417 1.26847 -1.60534 0
M  V30 4573 H 448.427 3.71352 -1.69002 0
M  V30 4574 H 447.102 3.16191 -2.70177 0
M  V30 4575 H 445.679 3.61207 -0.926492 0
M  V30 4576 N 447.864 1.01787 1.20321 0
M  V30 4577 C 448.794 0.609625 2.25401 0
M  V30 4578 C 449.775 -0.375951 1.65893 0
M  V30 4579 O 450.96 -0.261101 1.92437 0
M  V30 4580 C 448.09 -0.0515995 3.47262 0
M  V30 4581 C 447.044 0.855095 4.19371 0
M  V30 4582 C 446.37 0.0595757 5.34667 0
M  V30 4583 C 447.67 2.16374 4.75373 0
M  V30 4584 H 449.364 1.48803 2.59804 0
M  V30 4585 H 446.91 0.716934 1.24884 0
M  V30 4586 H 448.863 -0.348764 4.19954 0
M  V30 4587 H 447.587 -0.964726 3.12027 0
M  V30 4588 H 446.246 1.13628 3.48546 0
M  V30 4589 H 445.894 -0.85524 4.95676 0
M  V30 4590 H 445.594 0.663406 5.83843 0
M  V30 4591 H 447.118 -0.231105 6.10162 0
M  V30 4592 H 448.532 1.92885 5.39878 0
M  V30 4593 H 446.929 2.71853 5.34991 0
M  V30 4594 H 447.999 2.82589 3.94045 0
M  V30 4595 N 449.342 -1.36122 0.79427 0
M  V30 4596 C 450.753 -1.81646 0.431446 0
M  V30 4597 C 451.104 -1.66043 -1.04518 0
M  V30 4598 O 450.229 -1.1841 -1.8113 0
M  V30 4599 C 450.824 -3.29785 0.776341 0
M  V30 4600 C 449.383 -3.73501 0.466282 0
M  V30 4601 C 448.53 -2.58313 1.00844 0
M  V30 4602 H 451.481 -1.24274 0.986995 0
M  V30 4603 H 451.502 -3.80437 0.0692413 0
M  V30 4604 H 451.014 -3.4111 1.8511 0
M  V30 4605 H 449.115 -3.67733 -0.600245 0
M  V30 4606 H 449.228 -4.68754 0.990288 0
M  V30 4607 H 447.592 -2.5102 0.431406 0
M  V30 4608 H 448.375 -2.72421 2.08906 0
M  V30 4609 N 450.82 -0.546701 -1.47814 0
M  V30 4610 C 451.783 0.196287 -2.28358 0
M  V30 4611 C 452.783 0.852437 -1.36346 0
M  V30 4612 O 453.973 0.709913 -1.59078 0
M  V30 4613 C 451.105 1.28579 -3.15722 0
M  V30 4614 H 452.298 -0.511086 -2.95513 0
M  V30 4615 H 449.851 -0.303248 -1.5333 0
M  V30 4616 H 450.586 2.0259 -2.53235 0
M  V30 4617 H 450.371 0.820229 -3.83425 0
M  V30 4618 H 451.861 1.80793 -3.76435 0
M  V30 4619 N 452.299 1.55045 -0.282633 0
M  V30 4620 C 453.576 1.9179 0.384166 0
M  V30 4621 C 453.956 1.20778 1.73136 0
M  V30 4622 O 453.304 0.33719 2.25998 0
M  V30 4623 C 453.514 3.45149 0.517014 0
M  V30 4624 C 454.862 4.17064 0.796427 0
M  V30 4625 O 455.886 3.51084 0.601535 0
M  V30 4626 O 454.745 5.33837 1.16962 0
M  V30 4627 H 451.839 0.799483 0.211558 0
M  V30 4628 H 454.385 1.66474 -0.32934 0
M  V30 4629 H 453.157 3.88922 -0.430772 0
M  V30 4630 H 452.78 3.76443 1.2797 0
M  V30 4631 N 453.777 0.010035 1.57597 0
M  V30 4632 C 455.023 -0.668011 1.92118 0
M  V30 4633 C 455.378 -1.70821 0.885328 0
M  V30 4634 O 454.671 -1.91333 -0.101187 0
M  V30 4635 C 454.865 -1.34434 3.31153 0
M  V30 4636 C 454.694 -0.371176 4.48166 0
M  V30 4637 C 453.464 0.0220686 5.05295 0
M  V30 4638 C 455.662 0.366731 5.12991 0
M  V30 4639 N 453.644 0.9924 6.05826 0
M  V30 4640 C 455.015 1.19142 6.08445 0
M  V30 4641 C 457.07 0.429489 4.96044 0
M  V30 4642 C 455.773 2.07317 6.88776 0
M  V30 4643 C 457.799 1.2985 5.76969 0
M  V30 4644 C 457.161 2.11101 6.72023 0
M  V30 4645 H 453.26 -0.217337 0.751192 0
M  V30 4646 H 455.844 0.0727375 1.94564 0
M  V30 4647 H 454.015 -2.05533 3.29561 0
M  V30 4648 H 455.747 -1.97789 3.53075 0
M  V30 4649 H 452.502 -0.348409 4.72317 0
M  V30 4650 H 452.926 1.47324 6.60776 0
M  V30 4651 H 457.568 -0.18442 4.22398 0
M  V30 4652 H 455.286 2.69771 7.61741 0
M  V30 4653 H 458.872 1.3511 5.65894 0
M  V30 4654 H 457.752 2.77257 7.33552 0
M  V30 4655 N 455.255 -1.55392 -0.262866 0
M  V30 4656 C 456.218 -1.88181 -1.30846 0
M  V30 4657 C 457.218 -0.757079 -1.41862 0
M  V30 4658 O 458.408 -1.02519 -1.40838 0
M  V30 4659 C 455.54 -2.09609 -2.68844 0
M  V30 4660 H 456.733 -2.81659 -1.02997 0
M  V30 4661 H 454.286 -1.48039 -0.501414 0
M  V30 4662 H 455.021 -1.18547 -3.01856 0
M  V30 4663 H 454.806 -2.91508 -2.62231 0
M  V30 4664 H 456.296 -2.36215 -3.44372 0
M  V30 4665 N 456.733 0.527833 -1.48498 0
M  V30 4666 C 458.144 1.10975 -1.50138 0
M  V30 4667 C 458.495 1.943 -0.272378 0
M  V30 4668 O 457.62 2.07319 0.620301 0
M  V30 4669 C 458.215 2.01927 -2.72049 0
M  V30 4670 C 456.774 2.55332 -2.76554 0
M  V30 4671 C 455.921 1.32341 -2.43683 0
M  V30 4672 H 458.872 0.312986 -1.55583 0
M  V30 4673 H 458.893 2.86244 -2.50689 0
M  V30 4674 H 458.405 1.41254 -3.61481 0
M  V30 4675 H 456.506 3.19721 -1.91336 0
M  V30 4676 H 456.619 2.94319 -3.78038 0
M  V30 4677 H 454.983 1.63989 -1.94884 0
M  V30 4678 H 455.766 0.734165 -3.35358 0
M  V30 4679 N 458.211 1.37122 0.776871 0
M  V30 4680 C 459.141 1.35164 1.90402 0
M  V30 4681 C 460.122 0.221069 1.68657 0
M  V30 4682 O 461.307 0.420642 1.8959 0
M  V30 4683 C 458.437 1.15274 3.27611 0
M  V30 4684 C 457.391 2.25289 3.63908 0
M  V30 4685 C 456.717 1.90527 4.99603 0
M  V30 4686 C 458.017 3.67446 3.71188 0
M  V30 4687 H 459.711 2.29482 1.92297 0
M  V30 4688 H 457.257 1.10465 0.923773 0
M  V30 4689 H 459.21 1.12536 4.06096 0
M  V30 4690 H 457.934 0.174102 3.26136 0
M  V30 4691 H 456.593 2.27174 2.87728 0
M  V30 4692 H 456.241 0.91206 4.94662 0
M  V30 4693 H 455.941 2.64193 5.24858 0
M  V30 4694 H 457.465 1.89367 5.80493 0
M  V30 4695 H 458.879 3.67719 4.39836 0
M  V30 4696 H 457.276 4.40123 4.07936 0
M  V30 4697 H 458.346 4.01443 2.71977 0
M  V30 4698 N 459.689 -1.00246 1.21608 0
M  V30 4699 C 460.936 -1.74061 1.03485 0
M  V30 4700 C 461.264 -1.89658 -0.431308 0
M  V30 4701 O 460.519 -1.42976 -1.33627 0
M  V30 4702 C 460.818 -3.15448 1.68009 0
M  V30 4703 C 460.484 -3.19792 3.17874 0
M  V30 4704 C 459.146 -3.20685 3.58768 0
M  V30 4705 C 461.498 -3.16835 4.13842 0
M  V30 4706 C 458.826 -3.16309 4.94131 0
M  V30 4707 C 461.178 -3.14001 5.49169 0
M  V30 4708 C 459.842 -3.13204 5.89457 0
M  V30 4709 H 459.112 -0.636934 0.378677 0
M  V30 4710 H 461.759 -1.17473 1.51236 0
M  V30 4711 H 460.064 -3.75284 1.12557 0
M  V30 4712 H 461.761 -3.71285 1.51487 0
M  V30 4713 H 458.351 -3.19842 2.85305 0
M  V30 4714 H 462.535 -3.15303 3.83272 0
M  V30 4715 H 457.791 -3.14032 5.24589 0
M  V30 4716 H 461.965 -3.10667 6.23265 0
M  V30 4717 H 459.592 -3.09568 6.94314 0
M  V30 4718 N 461.167 -1.02423 -1.1978 0
M  V30 4719 C 462.395 -0.737456 -1.93311 0
M  V30 4720 C 462.81 0.703023 -1.75223 0
M  V30 4721 O 462.167 1.47761 -1.07112 0
M  V30 4722 C 462.218 -1.0733 -3.45199 0
M  V30 4723 O 461.939 -2.4572 -3.62702 0
M  V30 4724 C 463.44 -0.80866 -4.35862 0
M  V30 4725 H 460.66 -0.2702 -0.614193 0
M  V30 4726 H 463.204 -1.36747 -1.52054 0
M  V30 4727 H 461.359 -0.488545 -3.84307 0
M  V30 4728 H 461.773 -2.58081 -4.56612 0
M  V30 4729 H 463.247 -1.09365 -5.41057 0
M  V30 4730 H 463.724 0.257025 -4.38447 0
M  V30 4731 H 464.33 -1.37592 -4.02428 0
M  V30 4732 N 462.645 1.35699 -0.801477 0
M  V30 4733 C 463.593 2.3177 -0.196317 0
M  V30 4734 C 464.587 1.56388 0.651081 0
M  V30 4735 O 465.793 1.71557 0.544815 0
M  V30 4736 H 462.168 0.750669 -0.0447189 0
M  V30 4737 H 464.139 2.8036 -1.02181 0
M  V30 4738 C 462.888 3.41671 0.644702 0
M  V30 4739 H 462.211 3.998 0.0019921 0
M  V30 4740 H 463.651 4.11184 1.0346 0
M  V30 4741 C 462.11 2.84271 1.80808 0
M  V30 4742 O 462.64 2.77408 2.9053 0
M  V30 4743 N 460.846 2.41391 1.61799 0
M  V30 4744 H 460.393 2.47173 0.725493 0
M  V30 4745 H 460.351 2.03334 2.39797 0
M  V30 4746 N 464.123 0.554532 1.47522 0
M  V30 4747 C 465.086 -0.184174 2.28459 0
M  V30 4748 C 466.086 -0.845195 1.36796 0
M  V30 4749 O 467.276 -0.701467 1.59452 0
M  V30 4750 C 464.408 -1.26903 3.16399 0
M  V30 4751 H 465.601 0.526751 2.95238 0
M  V30 4752 H 463.154 0.311375 1.53167 0
M  V30 4753 H 463.889 -2.01244 2.54306 0
M  V30 4754 H 463.674 -0.799883 3.83854 0
M  V30 4755 H 465.164 -1.78794 3.77389 0
M  V30 4756 N 465.601 -1.54893 0.290851 0
M  V30 4757 C 466.549 -2.24579 -0.605576 0
M  V30 4758 C 467.543 -1.24824 -1.14522 0
M  V30 4759 O 468.749 -1.42706 -1.09704 0
M  V30 4760 H 465.124 -0.720946 -0.213872 0
M  V30 4761 H 467.095 -2.984 0.0048173 0
M  V30 4762 C 465.844 -2.99224 -1.77088 0
M  V30 4763 H 465.167 -3.75782 -1.36484 0
M  V30 4764 H 466.607 -3.51281 -2.3744 0
M  V30 4765 C 465.066 -2.05602 -2.66888 0
M  V30 4766 O 465.596 -1.61745 -3.67698 0
M  V30 4767 N 463.802 -1.71771 -2.34399 0
M  V30 4768 H 463.349 -2.07633 -1.52468 0
M  V30 4769 H 463.307 -1.09403 -2.94751 0
M  V30 4770 N 467.08 -0.0183926 -1.57589 0
M  V30 4771 C 468.357 0.700621 -1.82622 0
M  V30 4772 C 468.737 1.90951 -0.90005 0
M  V30 4773 O 468.085 2.28452 0.0469145 0
M  V30 4774 C 468.295 1.08899 -3.31575 0
M  V30 4775 C 469.643 1.48514 -3.9778 0
M  V30 4776 O 470.667 1.18227 -3.36007 0
M  V30 4777 O 469.526 2.04903 -5.06633 0
M  V30 4778 H 466.62 0.342743 -0.752633 0
M  V30 4779 H 469.166 -0.0452548 -1.6964 0
M  V30 4780 H 467.938 0.228113 -3.90635 0
M  V30 4781 H 467.561 1.89338 -3.49624 0
M  V30 4782 N 468.558 1.5553 0.254621 0
M  V30 4783 C 469.806 1.7665 0.981793 0
M  V30 4784 C 470.127 0.580963 1.86145 0
M  V30 4785 O 469.397 -0.403537 1.91699 0
M  V30 4786 H 467.977 0.651475 0.365498 0
M  V30 4787 H 470.639 1.92958 0.274426 0
M  V30 4788 H 469.735 2.67486 1.60802 0
M  V30 4789 N 470.036 -0.519951 1.48776 0
M  V30 4790 C 471.261 -1.30447 1.6124 0
M  V30 4791 C 471.686 -1.86055 0.276591 0
M  V30 4792 O 471.044 -1.64915 -0.753183 0
M  V30 4793 C 471.092 -2.42406 2.66967 0
M  V30 4794 O 470.196 -3.45728 2.24824 0
M  V30 4795 H 469.537 -0.385924 0.540332 0
M  V30 4796 H 472.067 -0.624572 1.94834 0
M  V30 4797 H 472.077 -2.88447 2.88552 0
M  V30 4798 H 470.752 -2.01294 3.63941 0
M  V30 4799 H 469.329 -3.05737 2.13494 0
M  V30 4800 N 471.514 -1.37532 -0.769588 0
M  V30 4801 C 472.462 -1.33561 -1.90432 0
M  V30 4802 C 473.456 -0.224027 -1.67912 0
M  V30 4803 O 474.662 -0.392174 -1.75676 0
M  V30 4804 H 471.037 -0.416279 -0.626271 0
M  V30 4805 H 473.008 -2.29348 -1.90899 0
M  V30 4806 C 471.757 -1.16162 -3.27722 0
M  V30 4807 H 471.08 -2.00951 -3.45628 0
M  V30 4808 H 472.52 -1.17434 -4.07413 0
M  V30 4809 C 470.979 0.132583 -3.36639 0
M  V30 4810 O 471.509 1.11539 -3.85904 0
M  V30 4811 N 469.715 0.184013 -2.90017 0
M  V30 4812 H 469.262 -0.616415 -2.50116 0
M  V30 4813 H 469.22 1.04956 -2.96364 0
M  V30 4814 N 472.992 0.995999 -1.22138 0
M  V30 4815 C 473.902 2.11985 -1.00496 0
M  V30 4816 C 474.918 1.7394 0.0457701 0
M  V30 4817 O 476.094 2.00868 -0.146273 0
M  V30 4818 C 473.159 3.41779 -0.582086 0
M  V30 4819 C 472.22 3.93943 -1.70608 0
M  V30 4820 C 471.453 5.17542 -1.30328 0
M  V30 4821 O 471.676 5.70114 -0.180743 0
M  V30 4822 O 470.61 5.63382 -2.11861 0
M  V30 4823 H 474.436 2.33123 -1.94647 0
M  V30 4824 H 472.021 1.10358 -1.00705 0
M  V30 4825 H 473.903 4.1989 -0.356467 0
M  V30 4826 H 472.578 3.22007 0.330592 0
M  V30 4827 H 471.485 3.17019 -1.98619 0
M  V30 4828 H 472.818 4.18141 -2.59651 0
M  V30 4829 N 474.47 1.03057 1.19235 0
M  V30 4830 C 475.718 0.726581 1.88587 0
M  V30 4831 C 476.039 -0.747227 1.80115 0
M  V30 4832 O 475.309 -1.53849 1.21274 0
M  V30 4833 H 473.889 0.265768 0.698124 0
M  V30 4834 H 476.551 1.30516 1.44746 0
M  V30 4835 H 475.647 1.0224 2.94879 0
M  V30 4836 N 475.948 -1.35272 0.808662 0
M  V30 4837 C 477.197 -1.97963 0.386483 0
M  V30 4838 C 477.51 -1.64866 -1.05255 0
M  V30 4839 O 478.716 -2.20937 -1.57794 0
M  V30 4840 C 477.172 -3.54162 0.640096 0
M  V30 4841 C 476.78 -3.96166 2.0918 0
M  V30 4842 C 478.524 -4.23553 0.283376 0
M  V30 4843 C 476.431 -5.4522 2.29106 0
M  V30 4844 H 475.361 -0.740742 0.140774 0
M  V30 4845 H 478.012 -1.5431 0.993012 0
M  V30 4846 H 476.394 -3.95983 -0.0364117 0
M  V30 4847 H 477.568 -3.65491 2.80629 0
M  V30 4848 H 475.883 -3.3967 2.40859 0
M  V30 4849 H 478.48 -5.33124 0.410273 0
M  V30 4850 H 478.823 -4.09105 -0.770659 0
M  V30 4851 H 479.356 -3.8716 0.913884 0
M  V30 4852 H 476.095 -5.64638 3.32962 0
M  V30 4853 H 475.615 -5.77457 1.62184 0
M  V30 4854 H 477.294 -6.1171 2.1076 0
M  V30 4855 N 477.426 -0.562348 -1.47226 0
M  V30 4856 C 478.672 -0.0402761 -2.0276 0
M  V30 4857 C 479.005 1.30823 -1.43523 0
M  V30 4858 O 478.28 1.85249 -0.592705 0
M  V30 4859 C 478.563 0.047311 -3.60069 0
M  V30 4860 C 478.416 -1.32865 -4.29729 0
M  V30 4861 C 479.735 0.758182 -4.3352 0
M  V30 4862 H 476.854 -0.0161105 -0.736824 0
M  V30 4863 H 479.496 -0.725628 -1.75598 0
M  V30 4864 H 477.646 0.630986 -3.83342 0
M  V30 4865 H 479.318 -1.95593 -4.17781 0
M  V30 4866 H 477.561 -1.90195 -3.89882 0
M  V30 4867 H 478.232 -1.22004 -5.38349 0
M  V30 4868 H 480.708 0.262546 -4.15271 0
M  V30 4869 H 479.584 0.78844 -5.43208 0
M  V30 4870 H 479.845 1.81537 -4.03109 0
M  V30 4871 N 478.904 1.54736 -0.299062 0
M  V30 4872 C 479.854 2.20155 0.592932 0
M  V30 4873 C 480.838 1.1739 1.10038 0
M  V30 4874 O 482.03 1.43116 1.04147 0
M  V30 4875 C 479.159 2.94437 1.76527 0
M  V30 4876 C 478.245 4.04516 1.27388 0
M  V30 4877 N 478.636 5.03319 0.500339 0
M  V30 4878 C 476.934 4.18022 1.55478 0
M  V30 4879 C 477.635 5.81209 0.238909 0
M  V30 4880 N 476.611 5.37408 0.818163 0
M  V30 4881 H 480.413 2.93899 -0.00563596 0
M  V30 4882 H 477.927 1.62068 -0.103732 0
M  V30 4883 H 479.924 3.3977 2.41582 0
M  V30 4884 H 478.584 2.22209 2.36756 0
M  V30 4885 H 479.595 5.17696 0.145419 0
M  V30 4886 H 476.272 3.56998 2.16469 0
M  V30 4887 H 477.662 6.70812 -0.382223 0
M  V30 4888 N 480.382 0.0267497 1.57577 0
M  V30 4889 C 481.33 -0.973923 2.11229 0
M  V30 4890 C 482.324 -1.33849 1.03831 0
M  V30 4891 O 483.53 -1.321 1.22269 0
M  V30 4892 H 479.905 -0.331844 0.674821 0
M  V30 4893 H 481.876 -0.496092 2.94247 0
M  V30 4894 C 480.625 -2.24798 2.65257 0
M  V30 4895 H 479.948 -1.9762 3.47543 0
M  V30 4896 H 481.388 -2.93031 3.06445 0
M  V30 4897 C 479.847 -2.97611 1.57891 0
M  V30 4898 O 480.377 -3.89629 0.97735 0
M  V30 4899 N 478.583 -2.59905 1.29992 0
M  V30 4900 H 478.13 -1.85154 1.79097 0
M  V30 4901 H 478.088 -3.08932 0.583798 0
M  V30 4902 N 481.861 -1.55662 -0.24637 0
M  V30 4903 C 483.086 -1.81914 -0.996093 0
M  V30 4904 C 483.511 -0.603875 -1.78143 0
M  V30 4905 O 482.869 0.447091 -1.75701 0
M  V30 4906 C 482.917 -3.05908 -1.90925 0
M  V30 4907 O 482.021 -2.82861 -3.00105 0
M  V30 4908 H 481.362 -0.600481 -0.283406 0
M  V30 4909 H 483.892 -2.02848 -0.267199 0
M  V30 4910 H 483.902 -3.35356 -2.3238 0
M  V30 4911 H 482.577 -3.93999 -1.33183 0
M  V30 4912 H 481.154 -2.64583 -2.62775 0
M  V30 4913 N 483.339 0.512053 -1.4905 0
M  V30 4914 C 484.269 1.62365 -1.67809 0
M  V30 4915 C 485.25 1.61737 -0.526809 0
M  V30 4916 O 486.435 1.78651 -0.761404 0
M  V30 4917 C 483.565 3.00895 -1.73435 0
M  V30 4918 C 482.519 3.16387 -2.88242 0
M  V30 4919 C 481.845 4.56157 -2.78971 0
M  V30 4920 C 483.145 2.97457 -4.29321 0
M  V30 4921 H 484.839 1.46921 -2.60873 0
M  V30 4922 H 482.385 0.705379 -1.2554 0
M  V30 4923 H 484.338 3.78549 -1.85145 0
M  V30 4924 H 483.062 3.17403 -0.769619 0
M  V30 4925 H 481.721 2.41155 -2.76116 0
M  V30 4926 H 481.369 4.69525 -1.8043 0
M  V30 4927 H 481.069 4.67465 -3.5602 0
M  V30 4928 H 482.593 5.35886 -2.92675 0
M  V30 4929 H 484.007 3.64888 -4.42187 0
M  V30 4930 H 482.404 3.20245 -5.07507 0
M  V30 4931 H 483.474 1.93692 -4.44535 0
M  V30 4932 N 484.817 1.37938 0.762283 0
M  V30 4933 C 486.228 1.30094 1.33912 0
M  V30 4934 C 486.579 -0.0472026 1.96143 0
M  V30 4935 O 485.704 -0.94917 1.94473 0
M  V30 4936 C 486.299 2.35592 2.43478 0
M  V30 4937 C 484.858 2.31353 2.96905 0
M  V30 4938 C 484.005 2.18919 1.70205 0
M  V30 4939 H 486.956 1.48423 0.561816 0
M  V30 4940 H 486.977 2.00806 3.23199 0
M  V30 4941 H 486.489 3.33701 1.98155 0
M  V30 4942 H 484.59 1.36799 3.46579 0
M  V30 4943 H 484.703 3.25147 3.51875 0
M  V30 4944 H 483.067 1.65624 1.93496 0
M  V30 4945 H 483.85 3.18956 1.26973 0
M  V30 4946 N 486.295 -0.989507 1.22664 0
M  V30 4947 C 487.542 -1.72953 1.05325 0
M  V30 4948 C 487.87 -1.90104 -0.411168 0
M  V30 4949 O 487.125 -1.44386 -1.32103 0
M  V30 4950 C 487.424 -3.13649 1.71345 0
M  V30 4951 C 487.09 -3.16403 3.21248 0
M  V30 4952 C 485.752 -3.16862 3.62149 0
M  V30 4953 C 488.104 -3.12428 4.17179 0
M  V30 4954 C 485.432 -3.11051 4.97458 0
M  V30 4955 C 487.784 -3.08159 5.52468 0
M  V30 4956 C 486.448 -3.06935 5.92746 0
M  V30 4957 H 485.718 -0.632881 0.385412 0
M  V30 4958 H 488.365 -1.15863 1.52473 0
M  V30 4959 H 486.67 -3.74069 1.16532 0
M  V30 4960 H 488.367 -3.69658 1.55416 0
M  V30 4961 H 484.957 -3.16798 2.88682 0
M  V30 4962 H 489.141 -3.11221 3.86595 0
M  V30 4963 H 484.397 -3.0845 5.27891 0
M  V30 4964 H 488.571 -3.04039 6.26525 0
M  V30 4965 H 486.198 -3.02186 6.97558 0
M  V30 4966 N 487.773 -1.03688 -1.18687 0
M  V30 4967 C 489.02 -0.73803 -1.88572 0
M  V30 4968 C 489.348 0.733973 -1.8012 0
M  V30 4969 O 488.603 1.55098 -1.19344 0
M  V30 4970 C 488.902 -1.14477 -3.3857 0
M  V30 4971 C 488.568 -2.61641 -3.67226 0
M  V30 4972 C 487.23 -3.01846 -3.74757 0
M  V30 4973 C 489.582 -3.56812 -3.79914 0
M  V30 4974 C 486.91 -4.36118 -3.92451 0
M  V30 4975 C 489.262 -4.90799 -3.99123 0
M  V30 4976 C 487.926 -5.3068 -4.04888 0
M  V30 4977 H 487.196 -0.270064 -0.690034 0
M  V30 4978 H 489.843 -1.3012 -1.40503 0
M  V30 4979 H 488.148 -0.500337 -3.88592 0
M  V30 4980 H 489.845 -0.89095 -3.90977 0
M  V30 4981 H 486.435 -2.29498 -3.61979 0
M  V30 4982 H 490.619 -3.26899 -3.73431 0
M  V30 4983 H 485.875 -4.66542 -3.95157 0
M  V30 4984 H 490.049 -5.64451 -4.07882 0
M  V30 4985 H 487.676 -6.34733 -4.18351 0
M  V30 4986 N 489.251 1.34841 -0.815825 0
M  V30 4987 C 490.476 2.03261 -0.41226 0
M  V30 4988 C 490.901 1.61055 0.971751 0
M  V30 4989 O 490.259 0.7917 1.63101 0
M  V30 4990 C 490.307 3.56914 -0.514289 0
M  V30 4991 O 489.411 4.09728 0.468675 0
M  V30 4992 H 488.752 0.641664 -0.170771 0
M  V30 4993 H 491.282 1.72241 -1.10427 0
M  V30 4994 H 491.292 4.06156 -0.387457 0
M  V30 4995 H 489.967 3.86982 -1.52375 0
M  V30 4996 H 488.544 3.71681 0.301316 0
M  V30 4997 N 490.729 0.570148 1.46925 0
M  V30 4998 C 491.975 0.0510284 2.02736 0
M  V30 4999 C 492.308 -1.3006 1.44215 0
M  V30 5000 O 491.583 -1.84932 0.602521 0
M  V30 5001 C 491.866 -0.028215 3.60089 0
M  V30 5002 C 491.719 1.35142 4.29018 0
M  V30 5003 C 493.038 -0.735181 4.33916 0
M  V30 5004 H 490.157 0.0200178 0.736728 0
M  V30 5005 H 492.799 0.73493 1.75211 0
M  V30 5006 H 490.949 -0.610648 3.83671 0
M  V30 5007 H 492.621 1.97806 4.16738 0
M  V30 5008 H 490.864 1.9226 3.88868 0
M  V30 5009 H 491.535 1.24857 5.37694 0
M  V30 5010 H 494.011 -0.240519 4.15404 0
M  V30 5011 H 492.887 -0.759622 5.43618 0
M  V30 5012 H 493.148 -1.79397 4.04066 0
M  V30 5013 N 492.207 -1.54576 0.307264 0
M  V30 5014 C 493.139 -2.21212 -0.599807 0
M  V30 5015 C 494.152 -1.20685 -1.09266 0
M  V30 5016 O 495.341 -1.47244 -1.00903 0
M  V30 5017 C 492.441 -2.84994 -1.83389 0
M  V30 5018 C 491.614 -4.11511 -1.48248 0
M  V30 5019 C 490.673 -4.59038 -2.57237 0
M  V30 5020 O 489.699 -5.24095 -2.22065 0
M  V30 5021 N 490.901 -4.31884 -3.87887 0
M  V30 5022 H 493.666 -2.99686 -0.0293075 0
M  V30 5023 H 491.227 -1.61379 0.129738 0
M  V30 5024 H 493.219 -3.1372 -2.5566 0
M  V30 5025 H 491.789 -2.10324 -2.31263 0
M  V30 5026 H 491.009 -3.89728 -0.592122 0
M  V30 5027 H 492.297 -4.93879 -1.22316 0
M  V30 5028 H 491.695 -3.79778 -4.19268 0
M  V30 5029 H 490.252 -4.65304 -4.56438 0
M  V30 5030 N 493.685 -0.035106 -1.57561 0
M  V30 5031 C 494.932 0.642229 -1.92046 0
M  V30 5032 C 495.26 1.7179 -0.91206 0
M  V30 5033 O 494.515 1.95544 0.0781153 0
M  V30 5034 C 494.814 1.29149 -3.3325 0
M  V30 5035 C 494.48 0.345604 -4.49574 0
M  V30 5036 C 493.142 0.0852775 -4.81124 0
M  V30 5037 C 495.494 -0.303569 -5.20315 0
M  V30 5038 C 492.822 -0.831927 -5.80772 0
M  V30 5039 C 495.174 -1.20886 -6.20942 0
M  V30 5040 C 493.838 -1.47802 -6.50931 0
M  V30 5041 H 493.108 0.235008 -0.702746 0
M  V30 5042 H 495.755 -0.0981529 -1.91248 0
M  V30 5043 H 494.06 2.10676 -3.30337 0
M  V30 5044 H 495.757 1.82223 -3.57205 0
M  V30 5045 H 492.347 0.558683 -4.24943 0
M  V30 5046 H 496.531 -0.115515 -4.96166 0
M  V30 5047 H 491.787 -1.0481 -6.02349 0
M  V30 5048 H 495.961 -1.71804 -6.74875 0
M  V30 5049 H 493.588 -2.19039 -7.2796 0
M  V30 5050 N 495.163 1.55791 0.238111 0
M  V30 5051 C 496.113 1.87444 1.29803 0
M  V30 5052 C 497.097 0.736043 1.43078 0
M  V30 5053 O 498.289 0.998146 1.46171 0
M  V30 5054 C 495.418 2.18028 2.65177 0
M  V30 5055 C 494.504 3.38217 2.55871 0
M  V30 5056 N 494.895 4.57264 2.16202 0
M  V30 5057 C 493.193 3.41502 2.86866 0
M  V30 5058 C 493.894 5.3941 2.17744 0
M  V30 5059 N 492.87 4.78695 2.57589 0
M  V30 5060 H 496.672 2.7701 0.981965 0
M  V30 5061 H 494.186 1.56135 0.44672 0
M  V30 5062 H 496.183 2.38873 3.4168 0
M  V30 5063 H 494.843 1.29765 2.97643 0
M  V30 5064 H 495.854 4.82727 1.87602 0
M  V30 5065 H 492.531 2.63536 3.23813 0
M  V30 5066 H 493.921 6.44671 1.89339 0
M  V30 5067 N 496.642 -0.504142 1.49319 0
M  V30 5068 C 498.053 -1.08572 1.51885 0
M  V30 5069 C 498.404 -1.93842 0.303255 0
M  V30 5070 O 497.529 -2.0828 -0.58724 0
M  V30 5071 C 498.124 -1.97574 2.75227 0
M  V30 5072 C 496.683 -2.509 2.80581 0
M  V30 5073 C 495.83 -1.28447 2.45757 0
M  V30 5074 H 498.781 -0.288194 1.56061 0
M  V30 5075 H 498.802 -2.82219 2.55211 0
M  V30 5076 H 498.314 -1.35486 3.63683 0
M  V30 5077 H 496.415 -3.16636 1.96398 0
M  V30 5078 H 496.528 -2.88268 3.82673 0
M  V30 5079 H 494.892 -1.60868 1.97468 0
M  V30 5080 H 495.675 -0.68072 3.36483 0
M  V30 5081 N 498.12 -1.38341 -0.754957 0
M  V30 5082 C 499.03 -1.3769 -1.89944 0
M  V30 5083 C 500.046 -0.274194 -1.71826 0
M  V30 5084 O 501.222 -0.512391 -1.94773 0
M  V30 5085 C 498.287 -1.19938 -3.25293 0
M  V30 5086 C 497.348 -2.40001 -3.55946 0
M  V30 5087 C 496.581 -2.23087 -4.84838 0
M  V30 5088 O 496.804 -1.22386 -5.57116 0
M  V30 5089 O 495.738 -3.11646 -5.14937 0
M  V30 5090 H 499.564 -2.3412 -1.93446 0
M  V30 5091 H 497.149 -1.19246 -0.900044 0
M  V30 5092 H 499.031 -1.12093 -4.06218 0
M  V30 5093 H 497.706 -0.265919 -3.22606 0
M  V30 5094 H 496.613 -2.53421 -2.75188 0
M  V30 5095 H 497.946 -3.31973 -3.63394 0
M  V30 5096 N 499.598 0.982988 -1.23187 0
M  V30 5097 C 500.548 2.05962 -0.977942 0
M  V30 5098 C 501.532 1.60725 0.0751148 0
M  V30 5099 O 502.724 1.76471 -0.136683 0
M  V30 5100 C 499.853 3.38564 -0.568276 0
M  V30 5101 C 498.939 3.90407 -1.6566 0
M  V30 5102 N 499.33 4.15359 -2.88635 0
M  V30 5103 C 497.628 4.18915 -1.53058 0
M  V30 5104 C 498.329 4.57642 -3.5908 0
M  V30 5105 N 497.305 4.6192 -2.86584 0
M  V30 5106 H 501.107 2.23208 -1.91195 0
M  V30 5107 H 498.621 1.16555 -1.13087 0
M  V30 5108 H 500.618 4.15276 -0.36764 0
M  V30 5109 H 499.278 3.22712 0.358713 0
M  V30 5110 H 500.289 4.03258 -3.24966 0
M  V30 5111 H 496.966 4.12081 -0.670506 0
M  V30 5112 H 498.356 4.85488 -4.6449 0
M  V30 5113 N 501.076 1.04316 1.18135 0
M  V30 5114 C 502.008 0.594444 2.21357 0
M  V30 5115 C 503.021 -0.337215 1.59269 0
M  V30 5116 O 504.21 -0.131337 1.78016 0
M  V30 5117 C 501.31 -0.151251 3.38562 0
M  V30 5118 C 500.483 0.788907 4.30227 0
M  V30 5119 C 499.542 0.0860572 5.2613 0
M  V30 5120 O 498.568 0.717302 5.64662 0
M  V30 5121 N 499.77 -1.17969 5.68387 0
M  V30 5122 H 502.535 1.48227 2.60478 0
M  V30 5123 H 500.096 0.92396 1.32946 0
M  V30 5124 H 502.088 -0.631352 3.99745 0
M  V30 5125 H 500.658 -0.940639 2.98112 0
M  V30 5126 H 499.878 1.44882 3.6661 0
M  V30 5127 H 501.166 1.42738 4.88368 0
M  V30 5128 H 500.564 -1.71302 5.3914 0
M  V30 5129 H 499.121 -1.60402 6.31755 0
M  V30 5130 N 502.554 -1.34406 0.822964 0
M  V30 5131 C 503.517 -2.2783 0.250271 0
M  V30 5132 C 504.517 -1.50288 -0.571854 0
M  V30 5133 O 505.707 -1.69825 -0.387952 0
M  V30 5134 C 502.839 -3.34663 -0.649137 0
M  V30 5135 H 504.032 -2.79992 1.07444 0
M  V30 5136 H 501.585 -1.44539 0.594829 0
M  V30 5137 H 502.32 -2.87714 -1.49637 0
M  V30 5138 H 502.105 -3.92052 -0.0611199 0
M  V30 5139 H 503.595 -4.04349 -1.04363 0
M  V30 5140 N 504.032 -0.577932 -1.46621 0
M  V30 5141 C 505.28 -0.061566 -2.02006 0
M  V30 5142 C 505.601 1.30117 -1.4524 0
M  V30 5143 O 504.871 1.85313 -0.63529 0
M  V30 5144 H 503.451 -0.0197692 -0.746738 0
M  V30 5145 H 506.113 -0.752631 -1.79782 0
M  V30 5146 H 505.209 0.0110238 -3.12098 0
M  V30 5147 N 505.51 1.54411 -0.315457 0
M  V30 5148 C 506.921 1.85885 0.174265 0
M  V30 5149 C 507.272 1.23723 1.52273 0
M  V30 5150 O 506.397 0.540246 2.09548 0
M  V30 5151 C 506.992 3.37257 0.322981 0
M  V30 5152 C 505.551 3.68711 0.756922 0
M  V30 5153 C 504.698 2.77013 -0.126195 0
M  V30 5154 H 507.649 1.49374 -0.536007 0
M  V30 5155 H 507.67 3.62539 1.15522 0
M  V30 5156 H 507.182 3.82471 -0.658602 0
M  V30 5157 H 505.283 3.29024 1.74854 0
M  V30 5158 H 505.396 4.75741 0.566291 0
M  V30 5159 H 503.76 2.51588 0.39692 0
M  V30 5160 H 504.543 3.25051 -1.1044 0
M  V30 5161 N 506.988 0.0434614 1.5754 0
M  V30 5162 C 508.213 -0.645358 1.97104 0
M  V30 5163 C 508.638 -1.64037 0.920521 0
M  V30 5164 O 507.996 -1.80922 -0.11708 0
M  V30 5165 C 508.044 -1.31547 3.35749 0
M  V30 5166 O 507.148 -2.43103 3.33129 0
M  V30 5167 H 506.489 -0.168403 0.64229 0
M  V30 5168 H 509.019 0.109573 2.04306 0
M  V30 5169 H 509.029 -1.66895 3.72304 0
M  V30 5170 H 507.704 -0.586205 4.11748 0
M  V30 5171 H 506.281 -2.0976 3.0831 0
M  V30 5172 N 508.466 -1.55915 -0.229846 0
M  V30 5173 C 509.743 -1.6932 -0.979295 0
M  V30 5174 C 510.123 -0.588321 -2.02736 0
M  V30 5175 O 509.471 0.40586 -2.24867 0
M  V30 5176 C 509.681 -3.10305 -1.59724 0
M  V30 5177 C 511.029 -3.6945 -2.09264 0
M  V30 5178 O 512.053 -3.13214 -1.69633 0
M  V30 5179 O 510.912 -4.68072 -2.82082 0
M  V30 5180 H 508.006 -0.689314 -0.456919 0
M  V30 5181 H 510.552 -1.68238 -0.222283 0
M  V30 5182 H 509.324 -3.82177 -0.840039 0
M  V30 5183 H 508.947 -3.1547 -2.42001 0
M  V30 5184 N 509.944 0.496216 -1.49584 0
M  V30 5185 C 510.877 1.61508 -1.61215 0
M  V30 5186 C 511.855 1.55927 -0.461045 0
M  V30 5187 O 513.039 1.75914 -0.677231 0
M  V30 5188 C 510.166 3.00035 -1.57152 0
M  V30 5189 C 509.212 3.23861 -2.77518 0
M  V30 5190 S 510.045 3.06466 -4.39134 0
M  V30 5191 C 511.201 4.4738 -4.37724 0
M  V30 5192 H 511.434 1.51398 -2.55863 0
M  V30 5193 H 508.967 0.681727 -1.38535 0
M  V30 5194 H 510.925 3.7991 -1.55494 0
M  V30 5195 H 509.586 3.07556 -0.637834 0
M  V30 5196 H 508.779 4.25 -2.70908 0
M  V30 5197 H 508.381 2.51716 -2.76614 0
M  V30 5198 H 510.673 5.39556 -4.09738 0
M  V30 5199 H 511.616 4.59038 -5.39156 0
M  V30 5200 H 512.024 4.28283 -3.67742 0
M  V30 5201 N 511.423 1.38739 0.74761 0
M  V30 5202 C 512.333 1.38696 1.89211 0
M  V30 5203 C 513.349 0.283303 1.71678 0
M  V30 5204 O 514.525 0.522713 1.94498 0
M  V30 5205 C 511.59 1.21662 3.24653 0
M  V30 5206 C 510.651 2.41886 3.54669 0
M  V30 5207 C 509.884 2.25655 4.83648 0
M  V30 5208 O 510.107 1.25339 5.56459 0
M  V30 5209 O 509.041 3.14372 5.13277 0
M  V30 5210 H 512.867 2.35143 1.92202 0
M  V30 5211 H 510.452 1.19721 0.893708 0
M  V30 5212 H 512.334 1.14246 4.05618 0
M  V30 5213 H 511.009 0.283024 3.2246 0
M  V30 5214 H 509.916 2.54877 2.73841 0
M  V30 5215 H 511.249 3.33895 3.61628 0
M  V30 5216 N 512.901 -0.976442 1.23707 0
M  V30 5217 C 513.831 -2.08749 1.04624 0
M  V30 5218 C 514.812 -1.70057 -0.0380956 0
M  V30 5219 O 515.997 -1.93782 0.127308 0
M  V30 5220 C 513.127 -3.41335 0.640902 0
M  V30 5221 C 512.081 -3.93947 1.67302 0
M  V30 5222 C 511.407 -5.22774 1.12301 0
M  V30 5223 C 512.707 -4.22769 3.06697 0
M  V30 5224 H 514.401 -2.24972 1.97555 0
M  V30 5225 H 511.947 -1.08108 0.951247 0
M  V30 5226 H 513.9 -4.18489 0.494434 0
M  V30 5227 H 512.624 -3.24988 -0.324099 0
M  V30 5228 H 511.283 -3.18941 1.80755 0
M  V30 5229 H 510.931 -5.0278 0.148877 0
M  V30 5230 H 510.631 -5.58942 1.81267 0
M  V30 5231 H 512.155 -6.02546 0.988479 0
M  V30 5232 H 513.569 -4.90659 2.96524 0
M  V30 5233 H 511.966 -4.70147 3.72937 0
M  V30 5234 H 513.036 -3.29885 3.55392 0
M  V30 5235 N 514.379 -1.04941 -1.1758 0
M  V30 5236 C 515.309 -0.669172 -2.23706 0
M  V30 5237 C 516.29 0.331835 -1.66832 0
M  V30 5238 O 517.475 0.209988 -1.93061 0
M  V30 5239 C 514.605 -0.0404889 -3.47276 0
M  V30 5240 C 513.559 -0.965983 -4.16957 0
M  V30 5241 C 512.885 -0.201312 -5.34321 0
M  V30 5242 C 514.185 -2.28902 -4.69469 0
M  V30 5243 H 515.879 -1.55639 -2.55767 0
M  V30 5244 H 513.425 -0.749793 -1.22939 0
M  V30 5245 H 515.378 0.237298 -4.20731 0
M  V30 5246 H 514.102 0.881658 -3.14475 0
M  V30 5247 H 512.761 -1.22829 -3.45411 0
M  V30 5248 H 512.409 0.723519 -4.97769 0
M  V30 5249 H 512.109 -0.817968 -5.81879 0
M  V30 5250 H 513.633 0.0692499 -6.10561 0
M  V30 5251 H 515.047 -2.07132 -5.34574 0
M  V30 5252 H 513.444 -2.85942 -5.27596 0
M  V30 5253 H 514.514 -2.92937 -3.86414 0
M  V30 5254 N 515.857 1.33968 -0.830081 0
M  V30 5255 C 517.104 1.98063 -0.421566 0
M  V30 5256 C 517.432 1.65787 1.0171 0
M  V30 5257 O 516.687 0.925348 1.72441 0
M  V30 5258 C 516.986 3.52679 -0.57898 0
M  V30 5259 C 516.652 4.04884 -1.98443 0
M  V30 5260 C 515.314 4.18852 -2.36888 0
M  V30 5261 C 517.666 4.32879 -2.90285 0
M  V30 5262 C 514.994 4.58145 -3.66497 0
M  V30 5263 C 517.346 4.7362 -4.19364 0
M  V30 5264 C 516.01 4.85794 -4.57778 0
M  V30 5265 H 515.28 0.724765 -0.154262 0
M  V30 5266 H 517.927 1.59792 -1.05541 0
M  V30 5267 H 516.232 3.91556 0.138219 0
M  V30 5268 H 517.929 4.00261 -0.243317 0
M  V30 5269 H 514.519 3.9448 -1.67581 0
M  V30 5270 H 518.703 4.21619 -2.61823 0
M  V30 5271 H 513.959 4.65762 -3.96075 0
M  V30 5272 H 518.133 4.9424 -4.90612 0
M  V30 5273 H 515.76 5.15998 -5.58256 0
M  V30 5274 N 517.335 0.585699 1.46312 0
M  V30 5275 C 518.612 0.00542031 1.95599 0
M  V30 5276 C 518.992 -1.45619 1.52834 0
M  V30 5277 O 518.34 -2.14759 0.780446 0
M  V30 5278 C 518.55 0.180601 3.48532 0
M  V30 5279 C 519.898 0.049979 4.24571 0
M  V30 5280 O 520.922 0.109589 3.56031 0
M  V30 5281 O 519.781 -0.0832226 5.46437 0
M  V30 5282 H 516.875 -0.0481281 0.825598 0
M  V30 5283 H 519.421 0.654227 1.56582 0
M  V30 5284 H 518.193 1.19657 3.72556 0
M  V30 5285 H 517.816 -0.504498 3.94386 0
M  V30 5286 N 518.813 -1.54241 0.323641 0
M  V30 5287 C 520.062 -1.9975 -0.279806 0
M  V30 5288 C 520.375 -1.2156 -1.5324 0
M  V30 5289 O 521.581 -1.57447 -2.21185 0
M  V30 5290 C 520.037 -3.55686 -0.549115 0
M  V30 5291 C 519.645 -4.4271 0.686432 0
M  V30 5292 C 521.389 -4.09663 -1.11251 0
M  V30 5293 C 519.296 -5.90119 0.389022 0
M  V30 5294 H 518.226 -0.746177 -0.10833 0
M  V30 5295 H 520.877 -1.78248 0.435877 0
M  V30 5296 H 519.259 -3.73176 -1.32499 0
M  V30 5297 H 520.433 -4.36996 1.46188 0
M  V30 5298 H 518.748 -3.99623 1.17005 0
M  V30 5299 H 521.345 -5.17386 -1.34965 0
M  V30 5300 H 521.688 -3.61651 -2.06191 0
M  V30 5301 H 522.221 -3.95806 -0.39782 0
M  V30 5302 H 518.96 -6.42326 1.30759 0
M  V30 5303 H 518.48 -5.98785 -0.348722 0
M  V30 5304 H 520.159 -6.47 -0.0011164 0
M  V30 5305 N 520.291 -0.0518155 -1.57515 0
M  V30 5306 C 521.538 0.621823 -1.92716 0
M  V30 5307 C 521.866 1.70813 -0.930229 0
M  V30 5308 O 521.121 1.95616 0.0573708 0
M  V30 5309 C 521.42 1.25607 -3.34601 0
M  V30 5310 C 521.086 0.297901 -4.49915 0
M  V30 5311 C 519.748 0.034243 -4.81188 0
M  V30 5312 C 522.1 -0.358738 -5.19964 0
M  V30 5313 C 519.428 -0.893479 -5.79857 0
M  V30 5314 C 521.78 -1.27466 -6.19625 0
M  V30 5315 C 520.444 -1.54698 -6.49326 0
M  V30 5316 H 519.714 0.227541 -0.705199 0
M  V30 5317 H 522.361 -0.118432 -1.91133 0
M  V30 5318 H 520.666 2.07161 -3.32553 0
M  V30 5319 H 522.363 1.78424 -3.59118 0
M  V30 5320 H 518.953 0.513581 -4.25512 0
M  V30 5321 H 523.137 -0.168133 -4.96015 0
M  V30 5322 H 518.393 -1.11193 -6.01204 0
M  V30 5323 H 522.567 -1.78953 -6.73015 0
M  V30 5324 H 520.194 -2.26748 -7.25596 0
M  V30 5325 N 521.769 1.56035 0.221574 0
M  V30 5326 C 522.699 1.95434 1.2778 0
M  V30 5327 C 523.68 0.822564 1.48889 0
M  V30 5328 O 524.865 1.08486 1.61072 0
M  V30 5329 C 521.995 2.27102 2.62759 0
M  V30 5330 C 520.949 3.4277 2.56306 0
M  V30 5331 C 520.275 3.60043 3.95314 0
M  V30 5332 C 521.575 4.77742 2.11093 0
M  V30 5333 H 523.269 2.83912 0.950504 0
M  V30 5334 H 520.815 1.36596 0.455791 0
M  V30 5335 H 522.768 2.53256 3.36807 0
M  V30 5336 H 521.492 1.35478 2.97176 0
M  V30 5337 H 520.151 3.16664 1.84715 0
M  V30 5338 H 519.799 2.65794 4.27039 0
M  V30 5339 H 519.499 4.37841 3.91879 0
M  V30 5340 H 521.023 3.88545 4.71025 0
M  V30 5341 H 522.437 5.03102 2.74885 0
M  V30 5342 H 520.834 5.58823 2.18716 0
M  V30 5343 H 521.904 4.731 1.06321 0
M  V30 5344 N 523.247 -0.488276 1.49845 0
M  V30 5345 C 524.157 -1.61451 1.70207 0
M  V30 5346 C 525.173 -1.63877 0.584846 0
M  V30 5347 O 526.349 -1.82063 0.861107 0
M  V30 5348 C 523.414 -2.9776 1.77594 0
M  V30 5349 C 522.475 -3.05861 3.01243 0
M  V30 5350 C 521.708 -4.35668 3.08268 0
M  V30 5351 O 521.931 -5.25197 2.22541 0
M  V30 5352 O 520.865 -4.49005 4.00847 0
M  V30 5353 H 524.691 -1.47199 2.65643 0
M  V30 5354 H 522.276 -0.665939 1.33737 0
M  V30 5355 H 524.158 -3.7875 1.84732 0
M  V30 5356 H 522.833 -3.12248 0.8534 0
M  V30 5357 H 521.74 -2.24012 2.99616 0
M  V30 5358 H 523.073 -2.96304 3.9302 0
M  V30 5359 N 524.725 -1.39134 -0.740242 0
M  V30 5360 C 525.953 -1.39334 -1.5295 0
M  V30 5361 C 526.368 0.0135008 -1.88795 0
M  V30 5362 O 525.725 0.983524 -1.5373 0
M  V30 5363 C 525.776 -2.2614 -2.82034 0
M  V30 5364 O 525.497 -3.61345 -2.47712 0
M  V30 5365 C 526.998 -2.34666 -3.76094 0
M  V30 5366 H 524.218 -0.476103 -0.472828 0
M  V30 5367 H 526.762 -1.82883 -0.9151 0
M  V30 5368 H 524.917 -1.86018 -3.39818 0
M  V30 5369 H 525.331 -4.07194 -3.30595 0
M  V30 5370 H 526.805 -2.99663 -4.63579 0
M  V30 5371 H 527.282 -1.36426 -4.17474 0
M  V30 5372 H 527.888 -2.75236 -3.2423 0
M  V30 5373 N 526.204 0.969867 -1.24223 0
M  V30 5374 C 527.45 1.7151 -1.08223 0
M  V30 5375 C 527.783 1.90478 0.37838 0
M  V30 5376 O 527.058 1.4647 1.27971 0
M  V30 5377 C 527.341 3.10714 -1.82013 0
M  V30 5378 C 527.194 2.9925 -3.35811 0
M  V30 5379 C 528.513 4.10332 -1.59108 0
M  V30 5380 H 525.632 0.622499 -0.394543 0
M  V30 5381 H 528.274 1.1284 -1.52863 0
M  V30 5382 H 526.424 3.608 -1.44068 0
M  V30 5383 H 528.096 2.56608 -3.83341 0
M  V30 5384 H 526.339 2.35512 -3.64303 0
M  V30 5385 H 527.01 3.97857 -3.82641 0
M  V30 5386 H 529.486 3.69097 -1.92111 0
M  V30 5387 H 528.362 5.05804 -2.13198 0
M  V30 5388 H 528.623 4.38926 -0.528832 0
M  V30 5389 N 527.682 1.05563 1.17022 0
M  V30 5390 C 528.629 0.659893 2.21165 0
M  V30 5391 C 529.599 -0.339813 1.62587 0
M  V30 5392 O 530.784 -0.230378 1.89404 0
M  V30 5393 C 527.924 0.0447297 3.45071 0
M  V30 5394 C 527.037 1.09372 4.17926 0
M  V30 5395 C 526.172 0.445481 5.29329 0
M  V30 5396 C 525.211 1.47852 5.93975 0
M  V30 5397 N 524.348 0.854172 6.96885 0
M  V30 5398 H 529.188 1.55243 2.54369 0
M  V30 5399 H 526.725 0.776336 1.24946 0
M  V30 5400 H 528.683 -0.329404 4.15898 0
M  V30 5401 H 527.313 -0.811244 3.1244 0
M  V30 5402 H 526.365 1.58564 3.45777 0
M  V30 5403 H 527.677 1.87773 4.62107 0
M  V30 5404 H 526.831 0.0179688 6.06697 0
M  V30 5405 H 525.57 -0.370481 4.86291 0
M  V30 5406 H 524.575 1.91601 5.15334 0
M  V30 5407 H 525.8 2.29645 6.39093 0
M  V30 5408 H 523.746 0.0587882 6.55974 0
M  V30 5409 H 523.663 1.57567 7.39397 0
M  V30 5410 H 524.931 0.451559 7.78191 0
M  V30 5411 N 529.16 -1.33526 0.837174 0
M  V30 5412 C 530.07 -2.33023 0.271568 0
M  V30 5413 C 531.086 -1.63272 -0.601514 0
M  V30 5414 O 532.262 -1.94939 -0.506038 0
M  V30 5415 C 529.327 -3.42382 -0.545448 0
M  V30 5416 C 528.388 -4.27857 0.351709 0
M  V30 5417 C 527.621 -5.31994 -0.426409 0
M  V30 5418 O 527.844 -5.45763 -1.65828 0
M  V30 5419 O 526.778 -6.01572 0.1987 0
M  V30 5420 H 530.604 -2.83256 1.09545 0
M  V30 5421 H 528.189 -1.36837 0.599655 0
M  V30 5422 H 530.071 -4.09122 -1.00979 0
M  V30 5423 H 528.746 -2.94369 -1.34641 0
M  V30 5424 H 527.653 -3.6399 0.863853 0
M  V30 5425 H 528.986 -4.79349 1.1174 0
M  V30 5426 N 530.638 -0.59345 -1.46 0
M  V30 5427 C 531.601 0.123538 -2.28867 0
M  V30 5428 C 532.601 0.808628 -1.38989 0
M  V30 5429 O 533.791 0.658945 -1.61256 0
M  V30 5430 C 530.923 1.1847 -3.19653 0
M  V30 5431 H 532.116 -0.604843 -2.93737 0
M  V30 5432 H 529.669 -0.351875 -1.52288 0
M  V30 5433 H 530.404 1.94431 -2.59552 0
M  V30 5434 H 530.189 0.69783 -3.8584 0
M  V30 5435 H 531.679 1.68726 -3.81997 0
M  V30 5436 N 532.116 1.54067 -0.331816 0
M  V30 5437 C 533.344 2.05131 0.269996 0
M  V30 5438 C 533.759 1.20749 1.45138 0
M  V30 5439 O 533.116 0.240069 1.80914 0
M  V30 5440 C 533.167 3.54728 0.696456 0
M  V30 5441 O 532.888 4.35906 -0.43794 0
M  V30 5442 C 534.389 4.21916 1.36021 0
M  V30 5443 H 531.609 0.668807 0.0542042 0
M  V30 5444 H 534.153 1.98777 -0.4804 0
M  V30 5445 H 532.308 3.61342 1.39681 0
M  V30 5446 H 532.722 5.24404 -0.100334 0
M  V30 5447 H 534.196 5.28015 1.60947 0
M  V30 5448 H 534.673 3.73538 2.31011 0
M  V30 5449 H 535.279 4.19463 0.702212 0
M  V30 5450 N 533.594 0.0601682 1.57485 0
M  V30 5451 C 534.557 -0.896373 2.10945 0
M  V30 5452 C 535.557 -1.23402 1.03095 0
M  V30 5453 O 536.747 -1.16921 1.29132 0
M  V30 5454 C 533.879 -2.20346 2.60116 0
M  V30 5455 H 535.072 -0.432778 2.96761 0
M  V30 5456 H 532.625 -0.188372 1.55161 0
M  V30 5457 H 533.36 -2.71268 1.7772 0
M  V30 5458 H 533.145 -1.9714 3.38937 0
M  V30 5459 H 534.635 -2.88846 3.01592 0
M  V30 5460 N 535.072 -1.5615 -0.213296 0
M  V30 5461 C 536.32 -1.79191 -0.934612 0
M  V30 5462 C 536.641 -0.630112 -1.84539 0
M  V30 5463 O 535.911 0.35257 -1.92701 0
M  V30 5464 H 534.491 -0.660937 -0.348097 0
M  V30 5465 H 537.153 -1.93618 -0.22317 0
M  V30 5466 H 536.249 -2.71656 -1.53654 0
M  V30 5467 N 536.55 0.480323 -1.50102 0
M  V30 5468 C 537.498 1.60024 -1.68805 0
M  V30 5469 C 538.492 1.60089 -0.553888 0
M  V30 5470 O 539.698 1.64349 -0.734127 0
M  V30 5471 H 536.073 0.530841 -0.532646 0
M  V30 5472 H 538.044 1.41408 -2.62767 0
M  V30 5473 C 536.793 2.98029 -1.79092 0
M  V30 5474 H 536.116 2.98694 -2.65748 0
M  V30 5475 H 537.556 3.75871 -1.96206 0
M  V30 5476 C 536.015 3.32538 -0.540388 0
M  V30 5477 O 536.545 4.00386 0.324637 0
M  V30 5478 N 534.751 2.87873 -0.397154 0
M  V30 5479 H 534.298 2.32834 -1.1021 0
M  V30 5480 H 534.256 3.11328 0.438425 0
M  V30 5481 N 538.028 1.39524 0.732853 0
M  V30 5482 C 539.439 1.32905 1.31122 0
M  V30 5483 C 539.79 -0.00558708 1.96199 0
M  V30 5484 O 538.915 -0.907706 1.96443 0
M  V30 5485 C 539.51 2.40704 2.38426 0
M  V30 5486 C 538.069 2.37599 2.91931 0
M  V30 5487 C 537.216 2.2248 1.65523 0
M  V30 5488 H 540.167 1.49581 0.530207 0
M  V30 5489 H 540.188 2.07616 3.18867 0
M  V30 5490 H 539.7 3.37829 1.91033 0
M  V30 5491 H 537.801 1.44119 3.43599 0
M  V30 5492 H 537.914 3.32538 3.44899 0
M  V30 5493 H 536.278 1.69691 1.8994 0
M  V30 5494 H 537.061 3.21577 1.20178 0
M  V30 5495 N 539.506 -0.963266 1.24736 0
M  V30 5496 C 540.754 -1.70343 1.08755 0
M  V30 5497 C 541.075 -1.91387 -0.373619 0
M  V30 5498 O 540.345 -1.4948 -1.2662 0
M  V30 5499 H 538.925 -0.631224 0.399456 0
M  V30 5500 H 541.587 -1.15859 1.56725 0
M  V30 5501 H 540.683 -2.68616 1.58909 0
M  V30 5502 N 540.985 -1.06182 -1.16461 0
M  V30 5503 C 542.233 -0.776326 -1.86595 0
M  V30 5504 C 542.554 0.69921 -1.82033 0
M  V30 5505 O 541.824 1.50579 -1.2531 0
M  V30 5506 H 540.404 -0.284184 -0.690832 0
M  V30 5507 H 543.066 -1.34308 -1.41235 0
M  V30 5508 H 542.162 -1.10022 -2.92064 0
M  V30 5509 N 542.463 1.3308 -0.844243 0
M  V30 5510 C 543.395 2.27954 -0.238671 0
M  V30 5511 C 544.408 1.51978 0.583665 0
M  V30 5512 O 545.597 1.73731 0.409857 0
M  V30 5513 C 542.697 3.31963 0.682185 0
M  V30 5514 C 541.87 4.37281 -0.101998 0
M  V30 5515 C 540.929 5.20928 0.743022 0
M  V30 5516 O 539.955 5.68914 0.180285 0
M  V30 5517 N 541.157 5.42738 2.0595 0
M  V30 5518 H 543.922 2.8056 -1.05386 0
M  V30 5519 H 541.483 1.4583 -0.70322 0
M  V30 5520 H 543.475 3.84828 1.25259 0
M  V30 5521 H 542.045 2.79594 1.39808 0
M  V30 5522 H 541.265 3.84843 -0.853802 0
M  V30 5523 H 542.553 5.04746 -0.641015 0
M  V30 5524 H 541.951 5.05463 2.54016 0
M  V30 5525 H 540.508 5.98639 2.57827 0
M  V30 5526 N 543.941 0.601185 1.45683 0
M  V30 5527 C 545.169 0.100054 2.06658 0
M  V30 5528 C 545.584 -1.21285 1.44691 0
M  V30 5529 O 544.941 -1.73735 0.558772 0
M  V30 5530 C 544.992 -0.0528579 3.61461 0
M  V30 5531 O 544.713 1.20809 4.21114 0
M  V30 5532 C 546.214 -0.586193 4.39407 0
M  V30 5533 H 543.434 0.065905 0.667756 0
M  V30 5534 H 545.978 0.827101 1.87028 0
M  V30 5535 H 544.133 -0.730203 3.80456 0
M  V30 5536 H 544.547 1.03368 5.14213 0
M  V30 5537 H 546.021 -0.642297 5.4825 0
M  V30 5538 H 546.498 -1.60713 4.0874 0
M  V30 5539 H 547.104 0.0568935 4.25262 0
M  V30 5540 N 545.419 -1.53889 0.339982 0
M  V30 5541 C 546.665 -2.01152 -0.258003 0
M  V30 5542 C 546.998 -1.22749 -1.50487 0
M  V30 5543 O 546.273 -0.314156 -1.91946 0
M  V30 5544 C 546.556 -3.55468 -0.575717 0
M  V30 5545 C 546.409 -4.44584 0.682996 0
M  V30 5546 C 547.728 -4.1768 -1.38677 0
M  V30 5547 H 544.847 -0.731198 -0.0922992 0
M  V30 5548 H 547.489 -1.84352 0.459814 0
M  V30 5549 H 545.639 -3.69914 -1.18725 0
M  V30 5550 H 547.311 -4.41981 1.32102 0
M  V30 5551 H 545.554 -4.13592 1.3086 0
M  V30 5552 H 546.225 -5.5043 0.416001 0
M  V30 5553 H 548.701 -4.0691 -0.869705 0
M  V30 5554 H 547.577 -5.25734 -1.57783 0
M  V30 5555 H 547.838 -3.72069 -2.38782 0
M  V30 5556 N 546.897 -0.0685191 -1.57451 0
M  V30 5557 C 548.313 0.288101 -1.56978 0
M  V30 5558 C 548.513 1.70262 -1.07765 0
M  V30 5559 O 547.569 2.4135 -0.742054 0
M  V30 5560 C 548.882 0.100745 -3.00531 0
M  V30 5561 C 550.43 0.170531 -3.12535 0
M  V30 5562 C 550.905 0.0114944 -4.57999 0
M  V30 5563 N 552.396 0.0672065 -4.63151 0
M  V30 5564 C 553.131 -0.0314813 -5.73391 0
M  V30 5565 N 552.627 -0.183503 -6.92557 0
M  V30 5566 N 554.42 0.0253489 -5.62094 0
M  V30 5567 H 546.571 -0.993026 -1.87757 0
M  V30 5568 H 548.834 -0.386981 -0.865419 0
M  V30 5569 H 548.54 -0.875197 -3.40636 0
M  V30 5570 H 548.414 0.854457 -3.67395 0
M  V30 5571 H 550.801 1.13696 -2.72318 0
M  V30 5572 H 550.882 -0.614229 -2.48316 0
M  V30 5573 H 550.526 -0.951684 -4.98904 0
M  V30 5574 H 550.456 0.815617 -5.20245 0
M  V30 5575 H 552.947 0.183246 -3.77455 0
M  V30 5576 H 553.26 -0.251041 -7.72392 0
M  V30 5577 H 551.605 -0.218822 -6.94655 0
M  V30 5578 H 554.796 0.142794 -4.67882 0
M  V30 5579 H 554.969 -0.0550166 -6.47977 0
M  V30 5580 N 548.375 1.56261 0.205012 0
M  V30 5581 C 549.285 1.96944 1.27476 0
M  V30 5582 C 550.301 0.875636 1.50362 0
M  V30 5583 O 551.477 1.18058 1.6317 0
M  V30 5584 C 548.542 2.29219 2.60115 0
M  V30 5585 C 547.603 3.52255 2.45387 0
M  V30 5586 C 546.836 3.8298 3.71701 0
M  V30 5587 O 547.059 3.15138 4.75441 0
M  V30 5588 O 545.993 4.76435 3.67823 0
M  V30 5589 H 549.819 2.88144 0.959527 0
M  V30 5590 H 547.404 1.43686 0.409217 0
M  V30 5591 H 549.286 2.51098 3.3842 0
M  V30 5592 H 547.961 1.4119 2.91285 0
M  V30 5593 H 546.868 3.35635 1.65227 0
M  V30 5594 H 548.201 4.40719 2.19152 0
M  V30 5595 N 549.853 -0.472356 1.50355 0
M  V30 5596 C 551.269 -0.806001 1.37753 0
M  V30 5597 C 551.469 -1.968 0.432649 0
M  V30 5598 O 550.525 -2.52189 -0.12519 0
M  V30 5599 C 551.838 -1.11926 2.79093 0
M  V30 5600 C 553.386 -1.22579 2.87999 0
M  V30 5601 C 553.861 -1.57218 4.3017 0
M  V30 5602 N 555.352 -1.64212 4.33115 0
M  V30 5603 C 556.087 -1.92517 5.40116 0
M  V30 5604 N 555.583 -2.1885 6.57325 0
M  V30 5605 N 557.376 -1.94008 5.27558 0
M  V30 5606 H 549.527 0.293451 2.10363 0
M  V30 5607 H 551.79 0.0687672 0.945503 0
M  V30 5608 H 551.496 -0.338504 3.50067 0
M  V30 5609 H 551.37 -2.05577 3.16256 0
M  V30 5610 H 553.757 -1.99722 2.17245 0
M  V30 5611 H 553.838 -0.269107 2.54381 0
M  V30 5612 H 553.482 -0.806154 5.01461 0
M  V30 5613 H 553.412 -2.54034 4.61275 0
M  V30 5614 H 555.903 -1.45906 3.48597 0
M  V30 5615 H 556.216 -2.39718 7.3468 0
M  V30 5616 H 554.561 -2.16245 6.60502 0
M  V30 5617 H 557.752 -1.72931 4.34986 0
M  V30 5618 H 557.925 -2.15731 6.11035 0
M  V30 5619 N 551.331 -1.39911 -0.725443 0
M  V30 5620 C 552.261 -1.42138 -1.85254 0
M  V30 5621 C 553.242 -0.283513 -1.67721 0
M  V30 5622 O 554.427 -0.490717 -1.87898 0
M  V30 5623 C 551.557 -1.27354 -3.23107 0
M  V30 5624 C 550.511 -2.3864 -3.55296 0
M  V30 5625 C 549.837 -2.08939 -4.92188 0
M  V30 5626 C 551.137 -3.8097 -3.57295 0
M  V30 5627 H 552.831 -2.36461 -1.83648 0
M  V30 5628 H 550.377 -1.13817 -0.882138 0
M  V30 5629 H 552.33 -1.2753 -4.01639 0
M  V30 5630 H 551.054 -0.295025 -3.25265 0
M  V30 5631 H 549.713 -2.37696 -2.79099 0
M  V30 5632 H 549.361 -1.09502 -4.90936 0
M  V30 5633 H 549.061 -2.83491 -5.14691 0
M  V30 5634 H 550.585 -2.10781 -5.73065 0
M  V30 5635 H 551.999 -3.8379 -4.25885 0
M  V30 5636 H 550.396 -4.5496 -3.9132 0
M  V30 5637 H 551.466 -4.11261 -2.5689 0
M  V30 5638 N 552.809 0.956637 -1.25245 0
M  V30 5639 C 554.037 1.73571 -1.12608 0
M  V30 5640 C 554.452 1.86063 0.320324 0
M  V30 5641 O 553.809 1.35691 1.22042 0
M  V30 5642 C 553.86 3.15053 -1.77268 0
M  V30 5643 O 553.581 3.03174 -3.16255 0
M  V30 5644 C 555.082 4.09248 -1.70386 0
M  V30 5645 H 552.302 0.543955 -0.392879 0
M  V30 5646 H 554.846 1.20031 -1.65568 0
M  V30 5647 H 553.001 3.65543 -1.28284 0
M  V30 5648 H 553.415 3.9241 -3.48015 0
M  V30 5649 H 554.889 5.06138 -2.20291 0
M  V30 5650 H 555.366 4.34102 -0.667239 0
M  V30 5651 H 555.972 3.64672 -2.18849 0
M  V30 5652 N 554.287 1.06798 1.15896 0
M  V30 5653 C 555.197 0.694564 2.24083 0
M  V30 5654 C 556.213 -0.291687 1.71538 0
M  V30 5655 O 557.389 -0.139723 2.00915 0
M  V30 5656 C 554.454 0.0921014 3.46578 0
M  V30 5657 C 553.515 1.13087 4.14137 0
M  V30 5658 C 552.748 0.557064 5.30785 0
M  V30 5659 O 552.971 -0.628623 5.66925 0
M  V30 5660 O 551.905 1.29924 5.8771 0
M  V30 5661 H 555.731 1.59663 2.58344 0
M  V30 5662 H 553.316 0.840575 1.2351 0
M  V30 5663 H 555.198 -0.241884 4.20705 0
M  V30 5664 H 553.873 -0.78337 3.14078 0
M  V30 5665 H 552.78 1.51712 3.41957 0
M  V30 5666 H 554.113 1.97805 4.50704 0
M  V30 5667 N 555.766 -1.3263 0.851289 0
M  V30 5668 C 557.182 -1.50162 0.5407 0
M  V30 5669 C 557.382 -1.78788 -0.929369 0
M  V30 5670 O 556.438 -1.85545 -1.71258 0
M  V30 5671 C 557.751 -2.64803 1.42478 0
M  V30 5672 C 559.299 -2.78688 1.42485 0
M  V30 5673 C 559.774 -3.96405 2.29407 0
M  V30 5674 N 561.265 -4.0366 2.27184 0
M  V30 5675 C 562 -4.93971 2.9117 0
M  V30 5676 N 561.496 -5.89313 3.64256 0
M  V30 5677 N 563.289 -4.87066 2.80576 0
M  V30 5678 H 555.44 -1.12315 1.80275 0
M  V30 5679 H 557.703 -0.553266 0.769806 0
M  V30 5680 H 557.409 -2.50368 2.46999 0
M  V30 5681 H 557.283 -3.60506 1.10974 0
M  V30 5682 H 559.67 -2.92547 0.387304 0
M  V30 5683 H 559.751 -1.83708 1.78002 0
M  V30 5684 H 559.395 -3.83304 3.33228 0
M  V30 5685 H 559.325 -4.90654 1.91224 0
M  V30 5686 H 561.816 -3.35435 1.74045 0
M  V30 5687 H 562.129 -6.54913 4.10255 0
M  V30 5688 H 560.474 -5.8935 3.68364 0
M  V30 5689 H 563.665 -4.11552 2.23031 0
M  V30 5690 H 563.838 -5.57248 3.30725 0
M  V30 5691 N 557.244 -0.608902 -1.45362 0
M  V30 5692 C 558.174 0.0964526 -2.33301 0
M  V30 5693 C 559.155 0.857444 -1.46908 0
M  V30 5694 O 560.34 0.827735 -1.75676 0
M  V30 5695 C 557.47 1.09354 -3.29635 0
M  V30 5696 C 556.424 0.445676 -4.25673 0
M  V30 5697 C 555.75 1.5511 -5.11708 0
M  V30 5698 C 557.05 -0.633972 -5.18438 0
M  V30 5699 H 558.744 -0.637829 -2.92527 0
M  V30 5700 H 556.29 -0.308178 -1.40664 0
M  V30 5701 H 558.243 1.59556 -3.90025 0
M  V30 5702 H 556.967 1.85843 -2.6857 0
M  V30 5703 H 555.626 -0.0354897 -3.66583 0
M  V30 5704 H 555.274 2.30631 -4.4701 0
M  V30 5705 H 554.974 1.12311 -5.76767 0
M  V30 5706 H 556.498 2.05537 -5.74967 0
M  V30 5707 H 557.912 -0.215974 -5.72893 0
M  V30 5708 H 556.309 -0.983789 -5.91981 0
M  V30 5709 H 557.379 -1.51005 -4.60788 0
M  V30 5710 N 558.722 1.53707 -0.348139 0
M  V30 5711 C 559.962 2.02899 0.247254 0
M  V30 5712 C 560.326 1.23033 1.47401 0
M  V30 5713 O 561.527 1.62146 2.14388 0
M  V30 5714 C 559.798 3.53156 0.549151 0
M  V30 5715 S 561.357 4.24247 1.1207 0
M  V30 5716 H 558.175 0.707213 0.0732894 0
M  V30 5717 H 560.777 1.89338 -0.486965 0
M  V30 5718 H 559.481 4.08893 -0.351435 0
M  V30 5719 H 559.012 3.70845 1.31291 0
M  V30 5720 H 561.027 4.33958 2.40613 0
M  V30 5721 N 560.2 0.0768682 1.57412 0
M  V30 5722 C 561.611 -0.455037 1.8107 0
M  V30 5723 C 561.962 -1.69323 0.991162 0
M  V30 5724 O 561.087 -2.15328 0.215156 0
M  V30 5725 C 561.682 -0.832316 3.28417 0
M  V30 5726 C 560.241 -1.30906 3.52903 0
M  V30 5727 C 559.388 -0.296714 2.75708 0
M  V30 5728 H 562.339 0.302514 1.5579 0
M  V30 5729 H 562.36 -1.69333 3.40744 0
M  V30 5730 H 561.872 0.0690532 3.88039 0
M  V30 5731 H 559.973 -2.22875 2.98592 0
M  V30 5732 H 560.086 -1.28348 4.61588 0
M  V30 5733 H 558.45 -0.775059 2.42621 0
M  V30 5734 H 559.233 0.597015 3.38069 0
M  V30 5735 N 561.678 -1.56367 -0.196722 0
M  V30 5736 C 563.089 -1.70462 -0.761545 0
M  V30 5737 C 563.44 -0.683161 -1.83922 0
M  V30 5738 O 562.565 0.160753 -2.15802 0
M  V30 5739 C 563.16 -3.09057 -1.38814 0
M  V30 5740 C 561.719 -3.24922 -1.90007 0
M  V30 5741 C 560.866 -2.66412 -0.769399 0
M  V30 5742 H 563.817 -1.58675 0.0283263 0
M  V30 5743 H 563.838 -3.06296 -2.2575 0
M  V30 5744 H 563.35 -3.83378 -0.603559 0
M  V30 5745 H 561.451 -2.55514 -2.71189 0
M  V30 5746 H 561.564 -4.3241 -2.06297 0
M  V30 5747 H 559.928 -2.25546 -1.18326 0
M  V30 5748 H 560.711 -3.433 0.00291773 0
M  V30 5749 N 563.156 0.464375 -1.50603 0
M  V30 5750 C 564.404 1.21356 -1.61608 0
M  V30 5751 C 564.725 1.92329 -0.321643 0
M  V30 5752 O 563.995 1.84403 0.661232 0
M  V30 5753 H 562.575 0.45094 -0.595535 0
M  V30 5754 H 565.237 0.535046 -1.87412 0
M  V30 5755 H 564.333 1.95783 -2.43054 0
M  V30 5756 N 564.634 1.40294 0.718013 0
M  V30 5757 C 565.883 1.37746 1.4734 0
M  V30 5758 C 566.196 -0.0180754 1.95592 0
M  V30 5759 O 567.402 -0.166166 2.70991 0
M  V30 5760 C 565.858 2.4208 2.66318 0
M  V30 5761 C 565.466 3.87432 2.24945 0
M  V30 5762 C 567.21 2.48635 3.44065 0
M  V30 5763 C 565.117 4.83368 3.40748 0
M  V30 5764 H 564.047 0.512165 0.553356 0
M  V30 5765 H 566.698 1.66019 0.781661 0
M  V30 5766 H 565.08 2.06903 3.3765 0
M  V30 5767 H 566.254 4.3174 1.6105 0
M  V30 5768 H 564.569 3.8433 1.60249 0
M  V30 5769 H 567.166 3.17499 4.30231 0
M  V30 5770 H 567.509 1.51611 3.87711 0
M  V30 5771 H 568.042 2.82791 2.79775 0
M  V30 5772 H 564.781 5.81716 3.02136 0
M  V30 5773 H 564.301 4.43726 4.03568 0
M  V30 5774 H 565.98 5.03074 4.06848 0
M  V30 5775 N 566.112 -0.949982 1.2575 0
M  V30 5776 C 567.523 -1.50989 1.09815 0
M  V30 5777 C 567.874 -1.93497 -0.324556 0
M  V30 5778 O 566.999 -1.79068 -1.21506 0
M  V30 5779 C 567.594 -2.74394 1.98729 0
M  V30 5780 C 566.153 -3.26682 1.86965 0
M  V30 5781 C 565.3 -1.99498 1.92603 0
M  V30 5782 H 568.251 -0.766387 1.38968 0
M  V30 5783 H 568.272 -3.48383 1.53001 0
M  V30 5784 H 567.784 -2.43425 3.02268 0
M  V30 5785 H 565.885 -3.62461 0.863279 0
M  V30 5786 H 565.998 -3.94383 2.72027 0
M  V30 5787 H 564.362 -2.15005 1.36546 0
M  V30 5788 H 565.145 -1.70871 2.97755 0
M  V30 5789 N 567.59 -1.07411 -1.15328 0
M  V30 5790 C 568.818 -0.818782 -1.90009 0
M  V30 5791 C 569.233 0.628072 -1.78047 0
M  V30 5792 O 568.59 1.43085 -1.13282 0
M  V30 5793 C 568.641 -1.21874 -3.40337 0
M  V30 5794 O 568.362 -2.60883 -3.51954 0
M  V30 5795 C 569.863 -0.992796 -4.3204 0
M  V30 5796 H 567.083 -0.296007 -0.60218 0
M  V30 5797 H 569.627 -1.43073 -1.46117 0
M  V30 5798 H 567.782 -0.651103 -3.81889 0
M  V30 5799 H 568.196 -2.77216 -4.45255 0
M  V30 5800 H 569.67 -1.32215 -5.35932 0
M  V30 5801 H 570.147 0.0708331 -4.39143 0
M  V30 5802 H 570.753 -1.54537 -3.9623 0
M  V30 5803 N 569.068 1.32177 -0.85831 0
M  V30 5804 C 570.479 1.79381 -0.517621 0
M  V30 5805 C 570.83 1.70841 0.964769 0
M  V30 5806 O 569.955 1.26917 1.75274 0
M  V30 5807 C 570.55 3.25706 -0.932801 0
M  V30 5808 C 569.109 3.70851 -0.643953 0
M  V30 5809 C 568.256 2.53208 -1.13054 0
M  V30 5810 H 571.207 1.19424 -1.04516 0
M  V30 5811 H 571.228 3.79673 -0.250674 0
M  V30 5812 H 570.74 3.31889 -2.01174 0
M  V30 5813 H 568.841 3.70178 0.424112 0
M  V30 5814 H 568.954 4.63495 -1.21281 0
M  V30 5815 H 567.318 2.48676 -0.550679 0
M  V30 5816 H 568.101 2.62143 -2.21666 0
M  V30 5817 N 570.547 0.616602 1.45037 0
M  V30 5818 C 571.795 0.115103 2.01772 0
M  V30 5819 C 572.116 -1.2622 1.48639 0
M  V30 5820 O 571.386 -1.83563 0.684199 0
M  V30 5821 H 569.966 0.0395607 0.745952 0
M  V30 5822 H 572.628 0.800032 1.77723 0
M  V30 5823 H 571.724 0.0717274 3.12018 0
M  V30 5824 N 572.025 -1.5352 0.356285 0
M  V30 5825 C 573.25 -2.06007 -0.239961 0
M  V30 5826 C 573.675 -1.22872 -1.42422 0
M  V30 5827 O 573.033 -0.245516 -1.7963 0
M  V30 5828 C 573.081 -3.5522 -0.620587 0
M  V30 5829 O 572.185 -3.74864 -1.71902 0
M  V30 5830 H 571.526 -0.662961 -0.0371377 0
M  V30 5831 H 574.056 -1.98033 0.514194 0
M  V30 5832 H 574.066 -3.98081 -0.894197 0
M  V30 5833 H 572.741 -4.15175 0.245407 0
M  V30 5834 H 571.318 -3.43904 -1.44169 0
M  V30 5835 N 573.503 -0.0852151 -1.57369 0
M  V30 5836 C 574.751 0.579658 -1.93609 0
M  V30 5837 C 575.072 1.69332 -0.967043 0
M  V30 5838 O 574.342 1.95892 -0.0174215 0
M  V30 5839 H 572.922 0.217113 -0.714752 0
M  V30 5840 H 575.584 -0.146226 -1.94351 0
M  V30 5841 H 574.68 0.996276 -2.95771 0
M  V30 5842 N 574.981 1.5647 0.188427 0
M  V30 5843 C 575.911 1.98101 1.23606 0
M  V30 5844 C 576.892 0.853961 1.47111 0
M  V30 5845 O 578.077 1.11879 1.58735 0
M  V30 5846 C 575.207 2.32624 2.57882 0
M  V30 5847 C 574.161 3.48129 2.48978 0
M  V30 5848 C 573.487 3.68347 3.87588 0
M  V30 5849 C 574.787 4.82112 2.00911 0
M  V30 5850 H 576.481 2.85864 0.890068 0
M  V30 5851 H 574.027 1.37532 0.426714 0
M  V30 5852 H 575.98 2.60343 3.3136 0
M  V30 5853 H 574.704 1.41751 2.94235 0
M  V30 5854 H 573.363 3.20511 1.77956 0
M  V30 5855 H 573.011 2.74793 4.21305 0
M  V30 5856 H 572.711 4.46055 3.82503 0
M  V30 5857 H 574.235 3.98449 4.62678 0
M  V30 5858 H 575.649 5.08819 2.64151 0
M  V30 5859 H 574.046 5.63337 2.06814 0
M  V30 5860 H 575.116 4.75249 0.96262 0
M  V30 5861 N 576.459 -0.456382 1.50847 0
M  V30 5862 C 577.87 -1.03685 1.55262 0
M  V30 5863 C 578.221 -1.92779 0.364771 0
M  V30 5864 O 577.346 -2.10043 -0.52068 0
M  V30 5865 C 577.941 -1.88718 2.81374 0
M  V30 5866 C 576.5 -2.41847 2.88422 0
M  V30 5867 C 575.647 -1.20564 2.49719 0
M  V30 5868 H 578.598 -0.238399 1.56899 0
M  V30 5869 H 578.619 -2.73957 2.6406 0
M  V30 5870 H 578.131 -1.23847 3.67809 0
M  V30 5871 H 576.232 -3.10228 2.06372 0
M  V30 5872 H 576.345 -2.75947 3.9165 0
M  V30 5873 H 574.709 -1.54504 2.02486 0
M  V30 5874 H 575.492 -0.573326 3.38479 0
M  V30 5875 N 577.937 -1.40673 -0.710563 0
M  V30 5876 C 579.348 -1.34975 -1.28991 0
M  V30 5877 C 579.699 -0.0256272 -1.96183 0
M  V30 5878 O 578.824 0.876339 -1.97862 0
M  V30 5879 C 579.419 -2.44467 -2.34567 0
M  V30 5880 C 577.978 -2.42213 -2.88114 0
M  V30 5881 C 577.125 -2.25085 -1.61963 0
M  V30 5882 H 580.076 -1.50406 -0.506343 0
M  V30 5883 H 580.097 -2.12663 -3.15523 0
M  V30 5884 H 579.609 -3.40825 -1.85634 0
M  V30 5885 H 577.71 -1.49568 -3.41263 0
M  V30 5886 H 577.823 -3.37983 -3.39565 0
M  V30 5887 H 576.187 -1.72691 -1.87216 0
M  V30 5888 H 576.97 -3.23449 -1.15047 0
M  V30 5889 N 579.415 0.9433 -1.26252 0
M  V30 5890 C 580.826 1.50404 -1.10614 0
M  V30 5891 C 581.177 1.93666 0.31429 0
M  V30 5892 O 580.302 1.79709 1.20555 0
M  V30 5893 C 580.897 2.73336 -2.00182 0
M  V30 5894 C 579.456 3.25686 -1.88695 0
M  V30 5895 C 578.603 1.98474 -1.93658 0
M  V30 5896 H 581.554 0.759006 -1.39373 0
M  V30 5897 H 581.575 3.47567 -1.54847 0
M  V30 5898 H 581.087 2.41818 -3.03555 0
M  V30 5899 H 579.188 3.61998 -0.882489 0
M  V30 5900 H 579.301 3.92935 -2.74115 0
M  V30 5901 H 577.665 2.14278 -1.37684 0
M  V30 5902 H 578.448 1.6929 -2.98657 0
M  V30 5903 N 580.893 1.08022 1.14757 0
M  V30 5904 C 582.309 0.807072 1.3769 0
M  V30 5905 C 582.509 -0.585504 1.92806 0
M  V30 5906 O 581.565 -1.34301 2.13821 0
M  V30 5907 C 582.878 1.88651 2.34161 0
M  V30 5908 C 584.426 1.91206 2.47809 0
M  V30 5909 C 584.901 2.98253 3.47576 0
M  V30 5910 N 586.392 2.974 3.55117 0
M  V30 5911 C 587.127 3.76872 4.32152 0
M  V30 5912 N 586.623 4.66212 5.12463 0
M  V30 5913 N 588.416 3.6519 4.27309 0
M  V30 5914 H 580.567 1.97824 0.77326 0
M  V30 5915 H 582.83 0.85826 0.402608 0
M  V30 5916 H 582.536 2.88749 2.00791 0
M  V30 5917 H 582.41 1.75244 3.3402 0
M  V30 5918 H 584.797 0.917564 2.80472 0
M  V30 5919 H 584.878 2.08691 1.47925 0
M  V30 5920 H 584.522 3.97907 3.15646 0
M  V30 5921 H 584.452 2.78014 4.47231 0
M  V30 5922 H 586.943 2.32643 2.97801 0
M  V30 5923 H 587.256 5.23468 5.68508 0
M  V30 5924 H 585.601 4.70257 5.11745 0
M  V30 5925 H 588.792 2.94765 3.63636 0
M  V30 5926 H 588.965 4.27366 4.87095 0
M  V30 5927 N 582.371 -1.3172 0.865308 0
M  V30 5928 C 583.318 -2.2863 0.315736 0
M  V30 5929 C 584.288 -1.55524 -0.583213 0
M  V30 5930 O 585.473 -1.83694 -0.51585 0
M  V30 5931 C 582.613 -3.41735 -0.480773 0
M  V30 5932 C 581.726 -4.297 0.445167 0
M  V30 5933 C 580.861 -5.29944 -0.365012 0
M  V30 5934 C 579.9 -6.09554 0.557651 0
M  V30 5935 N 579.037 -7.01768 -0.215994 0
M  V30 5936 H 583.877 -2.75026 1.14736 0
M  V30 5937 H 581.414 -1.35302 0.577209 0
M  V30 5938 H 583.372 -4.06045 -0.958306 0
M  V30 5939 H 582.002 -2.96461 -1.27714 0
M  V30 5940 H 581.054 -3.65875 1.04113 0
M  V30 5941 H 582.366 -4.85295 1.15284 0
M  V30 5942 H 581.52 -5.99908 -0.905255 0
M  V30 5943 H 580.259 -4.74994 -1.106 0
M  V30 5944 H 579.264 -5.38485 1.10969 0
M  V30 5945 H 580.489 -6.66591 1.29742 0
M  V30 5946 H 578.435 -6.49232 -0.939878 0
M  V30 5947 H 578.352 -7.54762 0.432431 0
M  V30 5948 H 579.62 -7.76002 -0.737618 0
M  V30 5949 N 583.85 -0.624285 -1.44708 0
M  V30 5950 C 585.096 -0.126237 -2.02407 0
M  V30 5951 C 585.428 1.24618 -1.48943 0
M  V30 5952 O 584.704 1.82569 -0.670742 0
M  V30 5953 C 584.986 -0.105449 -3.59946 0
M  V30 5954 C 584.84 -1.50972 -4.23707 0
M  V30 5955 C 586.159 0.573629 -4.36346 0
M  V30 5956 H 583.278 -0.0473472 -0.735478 0
M  V30 5957 H 585.92 -0.799452 -1.72362 0
M  V30 5958 H 584.07 0.46783 -3.85673 0
M  V30 5959 H 585.742 -2.13136 -4.0911 0
M  V30 5960 H 583.985 -2.0656 -3.81465 0
M  V30 5961 H 584.656 -1.44727 -5.32689 0
M  V30 5962 H 587.132 0.0861787 -4.16011 0
M  V30 5963 H 586.008 0.557338 -5.46063 0
M  V30 5964 H 586.269 1.64276 -4.10446 0
M  V30 5965 N 585.328 1.53329 -0.364422 0
M  V30 5966 C 586.258 2.28627 0.474543 0
M  V30 5967 C 587.239 1.31009 1.08492 0
M  V30 5968 O 588.424 1.59878 1.10239 0
M  V30 5969 C 585.554 3.07465 1.61501 0
M  V30 5970 C 584.508 4.1276 1.13194 0
M  V30 5971 C 583.834 4.79674 2.36255 0
M  V30 5972 C 585.134 5.21847 0.217507 0
M  V30 5973 H 586.828 2.99005 -0.153656 0
M  V30 5974 H 584.374 1.43803 -0.0753406 0
M  V30 5975 H 586.327 3.58889 2.20855 0
M  V30 5976 H 585.051 2.34775 2.27042 0
M  V30 5977 H 583.71 3.62281 0.56109 0
M  V30 5978 H 583.358 4.03557 3.00251 0
M  V30 5979 H 583.058 5.50827 2.04606 0
M  V30 5980 H 584.582 5.33892 2.96297 0
M  V30 5981 H 585.996 5.6878 0.718493 0
M  V30 5982 H 584.393 6.00099 -0.00806408 0
M  V30 5983 H 585.463 4.7921 -0.740653 0
M  V30 5984 N 586.806 0.0935595 1.57322 0
M  V30 5985 C 588.055 -0.570191 1.93473 0
M  V30 5986 C 588.368 -1.69434 0.977318 0
M  V30 5987 O 589.574 -2.41914 1.23248 0
M  V30 5988 C 588.03 -1.06564 3.43762 0
M  V30 5989 C 587.638 0.0286723 4.47991 0
M  V30 5990 C 589.382 -1.70221 3.88877 0
M  V30 5991 C 587.289 -0.482046 5.89432 0
M  V30 5992 H 586.219 -0.216764 0.72217 0
M  V30 5993 H 588.87 0.169313 1.82717 0
M  V30 5994 H 587.252 -1.85878 3.49664 0
M  V30 5995 H 588.426 0.804106 4.5373 0
M  V30 5996 H 586.741 0.570336 4.12476 0
M  V30 5997 H 589.338 -2.09502 4.91948 0
M  V30 5998 H 589.681 -2.57078 3.27439 0
M  V30 5999 H 590.214 -0.974919 3.85668 0
M  V30 6000 H 586.953 0.349871 6.54566 0
M  V30 6001 H 586.473 -1.22452 5.87167 0
M  V30 6002 H 588.152 -0.951508 6.39965 0
M  V30 6003 N 588.284 -1.56567 -0.180126 0
M  V30 6004 C 589.214 -1.98753 -1.22553 0
M  V30 6005 C 590.195 -0.86175 -1.46656 0
M  V30 6006 O 591.38 -1.12719 -1.58139 0
M  V30 6007 C 588.51 -2.33988 -2.56645 0
M  V30 6008 C 587.464 -3.49445 -2.47128 0
M  V30 6009 C 586.79 -3.70397 -3.8563 0
M  V30 6010 C 588.09 -4.83171 -1.98352 0
M  V30 6011 H 589.784 -2.86332 -0.874896 0
M  V30 6012 H 587.33 -1.37757 -0.419414 0
M  V30 6013 H 589.283 -2.62097 -3.29974 0
M  V30 6014 H 588.007 -1.43309 -2.93479 0
M  V30 6015 H 586.666 -3.2145 -1.76254 0
M  V30 6016 H 586.314 -2.77023 -4.19842 0
M  V30 6017 H 586.014 -4.48077 -3.80132 0
M  V30 6018 H 587.538 -4.00897 -4.60558 0
M  V30 6019 H 588.952 -5.10213 -2.61449 0
M  V30 6020 H 587.349 -5.64425 -2.03823 0
M  V30 6021 H 588.419 -4.75753 -0.937402 0
M  V30 6022 N 589.762 0.448376 -1.51087 0
M  V30 6023 C 591.01 1.19635 -1.62886 0
M  V30 6024 C 591.331 1.91977 -0.342024 0
M  V30 6025 O 590.601 1.85094 0.641636 0
M  V30 6026 H 589.181 0.444598 -0.600285 0
M  V30 6027 H 591.843 0.515138 -1.87969 0
M  V30 6028 H 590.939 1.93194 -2.45117 0
M  V30 6029 N 591.24 1.41047 0.703093 0
M  V30 6030 C 592.465 1.43537 1.49706 0
M  V30 6031 C 592.89 0.0401853 1.88057 0
M  V30 6032 O 592.248 -0.954785 1.54122 0
M  V30 6033 C 592.296 2.3433 2.74084 0
M  V30 6034 O 591.4 1.79515 3.71279 0
M  V30 6035 H 590.741 0.487454 0.450871 0
M  V30 6036 H 593.271 1.85422 0.86486 0
M  V30 6037 H 593.281 2.49947 3.22476 0
M  V30 6038 H 591.956 3.35708 2.45506 0
M  V30 6039 H 590.533 1.7331 3.30179 0
M  V30 6040 N 592.718 -0.936591 1.26751 0
M  V30 6041 C 593.966 -1.67998 1.12343 0
M  V30 6042 C 594.287 -1.92137 -0.332938 0
M  V30 6043 O 593.557 -1.52132 -1.23421 0
M  V30 6044 H 592.137 -0.622609 0.412756 0
M  V30 6045 H 594.799 -1.12509 1.59147 0
M  V30 6046 H 593.895 -2.65185 1.64571 0
M  V30 6047 N 594.196 -1.08629 -1.14182 0
M  V30 6048 C 595.444 -0.815731 -1.84906 0
M  V30 6049 C 595.765 0.660441 -1.83475 0
M  V30 6050 O 595.035 1.47888 -1.28476 0
M  V30 6051 H 593.615 -0.298773 -0.684648 0
M  V30 6052 H 596.277 -1.37274 -1.38354 0
M  V30 6053 H 595.373 -1.16193 -2.89665 0
M  V30 6054 N 595.674 1.31259 -0.872281 0
M  V30 6055 C 596.604 2.30929 -0.345554 0
M  V30 6056 C 597.585 1.60449 0.5648 0
M  V30 6057 O 598.77 1.8814 0.481335 0
M  V30 6058 C 595.9 3.44348 0.451823 0
M  V30 6059 C 594.854 4.26435 -0.365641 0
M  V30 6060 C 594.18 5.31785 0.557562 0
M  V30 6061 C 595.48 4.97159 -1.60095 0
M  V30 6062 H 597.174 2.75234 -1.17841 0
M  V30 6063 H 594.72 1.3232 -0.568094 0
M  V30 6064 H 596.673 4.13128 0.830854 0
M  V30 6065 H 595.397 2.98816 1.31821 0
M  V30 6066 H 594.056 3.59326 -0.726649 0
M  V30 6067 H 593.704 4.82502 1.4213 0
M  V30 6068 H 593.404 5.87598 0.0144878 0
M  V30 6069 H 594.928 6.03424 0.933387 0
M  V30 6070 H 596.342 5.58523 -1.29323 0
M  V30 6071 H 594.739 5.62779 -2.08327 0
M  V30 6072 H 595.809 4.24012 -2.35249 0
M  V30 6073 N 597.152 0.631951 1.44375 0
M  V30 6074 C 598.377 0.142146 2.06912 0
M  V30 6075 C 598.802 -1.17456 1.4692 0
M  V30 6076 O 598.16 -1.72074 0.570975 0
M  V30 6077 C 598.208 0.0417952 3.60576 0
M  V30 6078 O 597.312 -1.00194 4.00044 0
M  V30 6079 H 596.653 0.0851491 0.658518 0
M  V30 6080 H 599.183 0.868863 1.85235 0
M  V30 6081 H 599.193 -0.148517 4.0773 0
M  V30 6082 H 597.868 1.0031 4.03622 0
M  V30 6083 H 596.445 -0.786131 3.64519 0
M  V30 6084 N 598.631 -1.53133 0.372548 0
M  V30 6085 C 599.88 -2.00539 -0.216115 0
M  V30 6086 C 600.193 -1.26374 -1.49295 0
M  V30 6087 O 601.399 -1.64404 -2.16064 0
M  V30 6088 C 599.855 -3.57253 -0.435678 0
M  V30 6089 C 599.463 -4.40302 0.82693 0
M  V30 6090 C 601.207 -4.12995 -0.981618 0
M  V30 6091 C 599.114 -5.88583 0.576567 0
M  V30 6092 H 598.044 -0.749246 -0.084536 0
M  V30 6093 H 600.695 -1.76771 0.492364 0
M  V30 6094 H 599.077 -3.77202 -1.20559 0
M  V30 6095 H 600.251 -4.32124 1.60017 0
M  V30 6096 H 598.566 -3.95699 1.29659 0
M  V30 6097 H 601.163 -5.21418 -1.18436 0
M  V30 6098 H 601.506 -3.68027 -1.94581 0
M  V30 6099 H 602.039 -3.96871 -0.271696 0
M  V30 6100 H 598.778 -6.37841 1.51128 0
M  V30 6101 H 598.298 -5.99592 -0.158047 0
M  V30 6102 H 599.977 -6.46676 0.204722 0
M  V30 6103 N 600.109 -0.101901 -1.5727 0
M  V30 6104 C 601.357 0.559091 -1.94213 0
M  V30 6105 C 601.678 1.68297 -0.984948 0
M  V30 6106 O 600.948 1.95863 -0.0381975 0
M  V30 6107 H 599.528 0.20952 -0.717015 0
M  V30 6108 H 602.19 -0.166831 -1.94185 0
M  V30 6109 H 601.286 0.96485 -2.96811 0
M  V30 6110 N 601.587 1.56661 0.17182 0
M  V30 6111 C 602.519 1.92934 1.2373 0
M  V30 6112 C 603.532 0.822385 1.40502 0
M  V30 6113 O 604.721 1.10083 1.40514 0
M  V30 6114 C 601.821 2.16651 2.60607 0
M  V30 6115 C 600.994 3.47878 2.6514 0
M  V30 6116 C 600.053 3.60429 3.83377 0
M  V30 6117 O 599.079 4.33051 3.69398 0
M  V30 6118 N 600.281 2.95241 4.99813 0
M  V30 6119 H 603.046 2.84931 0.929205 0
M  V30 6120 H 600.607 1.5781 0.361588 0
M  V30 6121 H 602.599 2.22312 3.38171 0
M  V30 6122 H 601.169 1.3104 2.83809 0
M  V30 6123 H 600.389 3.53879 1.73675 0
M  V30 6124 H 601.677 4.34232 2.6518 0
M  V30 6125 H 601.075 2.3611 5.14071 0
M  V30 6126 H 599.632 3.06499 5.75241 0
M  V30 6127 N 603.065 -0.440357 1.51323 0
M  V30 6128 C 604.028 -1.51679 1.71832 0
M  V30 6129 C 605.028 -1.49648 0.588386 0
M  V30 6130 O 606.218 -1.51724 0.855891 0
M  V30 6131 C 603.35 -2.91228 1.77199 0
M  V30 6132 H 604.543 -1.34799 2.67898 0
M  V30 6133 H 602.096 -0.66883 1.41267 0
M  V30 6134 H 602.831 -3.13516 0.829363 0
M  V30 6135 H 602.616 -2.94107 2.59314 0
M  V30 6136 H 604.106 -3.69321 1.94915 0
M  V30 6137 N 604.543 -1.41418 -0.695603 0
M  V30 6138 C 605.791 -1.40496 -1.45277 0
M  V30 6139 C 606.112 -0.0149538 -1.94994 0
M  V30 6140 O 605.382 0.9432 -1.71699 0
M  V30 6141 H 603.962 -0.517147 -0.539044 0
M  V30 6142 H 606.624 -1.76656 -0.823321 0
M  V30 6143 H 605.72 -2.09214 -2.31595 0
M  V30 6144 N 606.021 0.929856 -1.27246 0
M  V30 6145 C 606.931 2.0636 -1.11592 0
M  V30 6146 C 607.947 1.73938 -0.046496 0
M  V30 6147 O 609.123 1.9981 -0.252544 0
M  V30 6148 C 606.188 3.38213 -0.762437 0
M  V30 6149 C 605.249 3.84346 -1.9125 0
M  V30 6150 C 604.482 5.09906 -1.57579 0
M  V30 6151 O 604.705 5.68354 -0.482694 0
M  V30 6152 O 603.639 5.51359 -2.41426 0
M  V30 6153 H 607.465 2.22478 -2.0673 0
M  V30 6154 H 605.05 1.04865 -1.06413 0
M  V30 6155 H 606.932 4.1741 -0.57854 0
M  V30 6156 H 605.607 3.23307 0.159439 0
M  V30 6157 H 604.514 3.06045 -2.15144 0
M  V30 6158 H 605.847 4.0379 -2.81451 0
M  V30 6159 N 607.499 1.09233 1.13605 0
M  V30 6160 C 608.746 0.827159 1.84836 0
M  V30 6161 C 609.074 -0.647199 1.83416 0
M  V30 6162 O 608.329 -1.49228 1.26608 0
M  V30 6163 C 608.628 1.305 3.32723 0
M  V30 6164 C 608.294 2.78864 3.54325 0
M  V30 6165 C 606.956 3.19382 3.59928 0
M  V30 6166 C 609.308 3.74532 3.62457 0
M  V30 6167 C 606.636 4.54346 3.71196 0
M  V30 6168 C 608.988 5.09283 3.75252 0
M  V30 6169 C 607.652 5.49394 3.79108 0
M  V30 6170 H 606.922 0.302679 0.676363 0
M  V30 6171 H 609.569 1.36676 1.34134 0
M  V30 6172 H 607.874 0.68517 3.85762 0
M  V30 6173 H 609.571 1.07648 3.86281 0
M  V30 6174 H 606.161 2.46507 3.50617 0
M  V30 6175 H 610.345 3.44343 3.57409 0
M  V30 6176 H 605.601 4.84864 3.72447 0
M  V30 6177 H 609.775 5.83269 3.80487 0
M  V30 6178 H 607.402 6.5397 3.87591 0
M  V30 6179 N 608.977 -1.30795 0.87923 0
M  V30 6180 C 610.254 -1.91145 0.415086 0
M  V30 6181 C 610.634 -1.7995 -1.10368 0
M  V30 6182 O 609.982 -1.21305 -1.93642 0
M  V30 6183 C 610.192 -3.37014 0.906778 0
M  V30 6184 C 611.54 -4.14101 0.938358 0
M  V30 6185 O 612.564 -3.45834 0.853053 0
M  V30 6186 O 611.423 -5.36054 1.06342 0
M  V30 6187 H 608.517 -0.81736 0.125905 0
M  V30 6188 H 611.063 -1.39401 0.967753 0
M  V30 6189 H 609.835 -3.3922 1.95053 0
M  V30 6190 H 609.458 -3.96204 0.332948 0
M  V30 6191 N 610.455 -0.639598 -1.44038 0
M  V30 6192 C 611.685 -0.154586 -2.06021 0
M  V30 6193 C 612.093 1.17951 -1.47933 0
M  V30 6194 O 611.436 1.73627 -0.59994 0
M  V30 6195 C 611.498 0.0255459 -3.59491 0
M  V30 6196 C 611.162 -1.2317 -4.40089 0
M  V30 6197 C 612.159 -2.15735 -4.73027 0
M  V30 6198 C 609.844 -1.46949 -4.80324 0
M  V30 6199 C 611.838 -3.30382 -5.45093 0
M  V30 6200 C 609.525 -2.61891 -5.52138 0
M  V30 6201 C 610.523 -3.53433 -5.84443 0
M  V30 6202 O 610.211 -4.6637 -6.54793 0
M  V30 6203 H 609.943 -0.0808543 -0.671147 0
M  V30 6204 H 612.497 -0.876541 -1.85758 0
M  V30 6205 H 610.727 0.802733 -3.78276 0
M  V30 6206 H 612.416 0.466184 -4.03214 0
M  V30 6207 H 613.182 -1.98602 -4.42473 0
M  V30 6208 H 609.061 -0.765815 -4.54595 0
M  V30 6209 H 612.605 -4.01856 -5.70226 0
M  V30 6210 H 608.502 -2.78964 -5.82108 0
M  V30 6211 H 609.27 -4.6546 -6.73267 0
M  V30 6212 N 611.933 1.52934 -0.380664 0
M  V30 6213 C 613.158 2.06363 0.207157 0
M  V30 6214 C 613.583 1.25122 1.4045 0
M  V30 6215 O 612.941 0.274062 1.79217 0
M  V30 6216 C 612.989 3.56162 0.563996 0
M  V30 6217 O 612.093 3.77552 1.65917 0
M  V30 6218 H 611.434 0.663468 0.0265859 0
M  V30 6219 H 613.964 1.9719 -0.545635 0
M  V30 6220 H 613.974 3.99453 0.830752 0
M  V30 6221 H 612.649 4.14732 -0.311427 0
M  V30 6222 H 611.226 3.46154 1.3868 0
M  V30 6223 N 613.412 0.11024 1.57214 0
M  V30 6224 C 614.66 -0.548783 1.94506 0
M  V30 6225 C 614.981 -1.67772 0.99386 0
M  V30 6226 O 614.251 -1.9584 0.0485841 0
M  V30 6227 H 612.831 -0.205715 0.718116 0
M  V30 6228 H 615.493 0.177127 1.94093 0
M  V30 6229 H 614.589 -0.949096 2.97319 0
M  V30 6230 N 614.89 -1.56749 -0.16351 0
M  V30 6231 C 616.115 -1.86938 -0.898264 0
M  V30 6232 C 616.54 -0.697456 -1.74692 0
M  V30 6233 O 615.898 0.353327 -1.77824 0
M  V30 6234 C 615.946 -3.15599 -1.74441 0
M  V30 6235 O 615.05 -2.98371 -2.8469 0
M  V30 6236 H 614.391 -0.614659 -0.251178 0
M  V30 6237 H 616.921 -2.03979 -0.159298 0
M  V30 6238 H 616.931 -3.47202 -2.14277 0
M  V30 6239 H 615.606 -4.00505 -1.1211 0
M  V30 6240 H 614.183 -2.7814 -2.4838 0
M  V30 6241 N 616.368 0.432326 -1.51554 0
M  V30 6242 C 617.3 1.54357 -1.6943 0
M  V30 6243 C 618.313 1.52311 -0.574897 0
M  V30 6244 O 619.502 1.56997 -0.849369 0
M  V30 6245 C 616.602 2.93273 -1.69836 0
M  V30 6246 C 615.775 3.19768 -2.98442 0
M  V30 6247 C 614.834 4.38433 -2.90969 0
M  V30 6248 O 613.86 4.36842 -3.64908 0
M  V30 6249 N 615.062 5.42276 -2.07163 0
M  V30 6250 H 617.827 1.39426 -2.65293 0
M  V30 6251 H 615.388 0.621331 -1.49503 0
M  V30 6252 H 617.38 3.70687 -1.62399 0
M  V30 6253 H 615.95 3.01777 -0.815456 0
M  V30 6254 H 615.17 2.30607 -3.19709 0
M  V30 6255 H 616.458 3.343 -3.83563 0
M  V30 6256 H 615.856 5.46407 -1.46477 0
M  V30 6257 H 614.413 6.18524 -2.05601 0
M  V30 6258 N 617.846 1.41785 0.688094 0
M  V30 6259 C 618.809 1.43936 1.78368 0
M  V30 6260 C 619.809 0.328866 1.57401 0
M  V30 6261 O 620.999 0.589093 1.63937 0
M  V30 6262 C 618.131 1.25804 3.16838 0
M  V30 6263 H 619.324 2.41472 1.77852 0
M  V30 6264 H 616.877 1.28037 0.896448 0
M  V30 6265 H 617.612 0.291386 3.22988 0
M  V30 6266 H 617.397 2.06272 3.33458 0
M  V30 6267 H 618.887 1.30162 3.96797 0
M  V30 6268 N 619.324 -0.923095 1.27737 0
M  V30 6269 C 620.573 -1.66581 1.13727 0
M  V30 6270 C 620.886 -1.9304 -0.315433 0
M  V30 6271 O 622.092 -2.65309 -0.57651 0
M  V30 6272 C 620.548 -3.00047 1.98745 0
M  V30 6273 C 620.156 -2.8127 3.48699 0
M  V30 6274 C 621.9 -3.77887 1.93395 0
M  V30 6275 C 619.807 -4.1032 4.25901 0
M  V30 6276 H 618.737 -0.624834 0.422017 0
M  V30 6277 H 621.388 -1.02514 1.52194 0
M  V30 6278 H 619.77 -3.65197 1.53125 0
M  V30 6279 H 620.944 -2.24859 4.02213 0
M  V30 6280 H 619.259 -2.16854 3.55476 0
M  V30 6281 H 621.856 -4.73526 2.48348 0
M  V30 6282 H 622.199 -4.06264 0.908605 0
M  V30 6283 H 622.732 -3.19541 2.36935 0
M  V30 6284 H 619.471 -3.8712 5.28978 0
M  V30 6285 H 618.991 -4.66377 3.77163 0
M  V30 6286 H 620.67 -4.78648 4.35321 0
M  V30 6287 N 620.802 -1.09834 -1.13024 0
M  V30 6288 C 621.749 -0.741522 -2.18564 0
M  V30 6289 C 622.719 0.279236 -1.63736 0
M  V30 6290 O 623.904 0.159923 -1.90129 0
M  V30 6291 C 621.044 -0.17277 -3.44667 0
M  V30 6292 C 620.157 -1.24808 -4.13578 0
M  V30 6293 C 619.292 -0.641631 -5.27311 0
M  V30 6294 C 618.331 -1.69795 -5.88078 0
M  V30 6295 N 617.468 -1.11223 -6.93234 0
M  V30 6296 H 622.308 -1.64576 -2.48432 0
M  V30 6297 H 619.845 -0.822174 -1.21978 0
M  V30 6298 H 621.803 0.17482 -4.16834 0
M  V30 6299 H 620.433 0.694725 -3.15235 0
M  V30 6300 H 619.485 -1.71288 -3.39653 0
M  V30 6301 H 620.797 -2.04795 -4.54819 0
M  V30 6302 H 619.951 -0.243128 -6.06213 0
M  V30 6303 H 618.69 0.189742 -4.87331 0
M  V30 6304 H 617.695 -2.10595 -5.07868 0
M  V30 6305 H 618.92 -2.53206 -6.3013 0
M  V30 6306 H 616.866 -0.302208 -6.55304 0
M  V30 6307 H 616.783 -1.84901 -7.3304 0
M  V30 6308 H 618.051 -0.740068 -7.75979 0
M  V30 6309 N 622.28 1.30327 -0.886154 0
M  V30 6310 C 623.243 2.26376 -0.358687 0
M  V30 6311 C 624.243 1.52845 0.499498 0
M  V30 6312 O 625.433 1.71483 0.306485 0
M  V30 6313 C 622.565 3.37379 0.488726 0
M  V30 6314 H 623.758 2.74547 -1.20681 0
M  V30 6315 H 621.311 1.41536 -0.663113 0
M  V30 6316 H 622.046 2.94526 1.35739 0
M  V30 6317 H 621.831 3.91897 -0.126003 0
M  V30 6318 H 623.321 4.08868 0.84952 0
M  V30 6319 N 623.758 0.647228 1.43697 0
M  V30 6320 C 624.688 -0.0345631 2.33474 0
M  V30 6321 C 625.669 -0.818193 1.4913 0
M  V30 6322 O 626.854 -0.780867 1.77809 0
M  V30 6323 C 623.984 -1.00576 3.32418 0
M  V30 6324 C 622.938 -0.33266 4.26705 0
M  V30 6325 C 622.264 -1.41489 5.1564 0
M  V30 6326 C 623.564 0.771204 5.16575 0
M  V30 6327 H 625.258 0.715163 2.90733 0
M  V30 6328 H 622.804 0.345364 1.39797 0
M  V30 6329 H 624.757 -1.49159 3.94119 0
M  V30 6330 H 623.481 -1.78657 2.73403 0
M  V30 6331 H 622.14 0.13267 3.6636 0
M  V30 6332 H 621.788 -2.18698 4.52968 0
M  V30 6333 H 621.488 -0.969799 5.79542 0
M  V30 6334 H 623.012 -1.9022 5.80214 0
M  V30 6335 H 624.426 0.36779 5.72119 0
M  V30 6336 H 622.823 1.1404 5.89165 0
M  V30 6337 H 623.893 1.63169 4.56622 0
M  V30 6338 N 625.236 -1.5273 0.388769 0
M  V30 6339 C 626.183 -2.26437 -0.446639 0
M  V30 6340 C 627.153 -1.28025 -1.05824 0
M  V30 6341 O 628.338 -1.56852 -1.08637 0
M  V30 6342 C 625.478 -3.07407 -1.56828 0
M  V30 6343 C 624.591 -4.20747 -0.979589 0
M  V30 6344 C 623.726 -4.89113 -2.07224 0
M  V30 6345 C 622.765 -5.94447 -1.45942 0
M  V30 6346 N 621.902 -6.56411 -2.49135 0
M  V30 6347 H 626.742 -2.97404 0.18837 0
M  V30 6348 H 624.279 -1.46727 0.104725 0
M  V30 6349 H 626.237 -3.52642 -2.22934 0
M  V30 6350 H 624.867 -2.3865 -2.17361 0
M  V30 6351 H 623.919 -3.7983 -0.208151 0
M  V30 6352 H 625.231 -4.9637 -0.491747 0
M  V30 6353 H 624.385 -5.3765 -2.81101 0
M  V30 6354 H 623.124 -4.13013 -2.59368 0
M  V30 6355 H 622.129 -5.4525 -0.705894 0
M  V30 6356 H 623.354 -6.7248 -0.945932 0
M  V30 6357 H 621.3 -5.83152 -3.00449 0
M  V30 6358 H 621.217 -7.27645 -2.05105 0
M  V30 6359 H 622.485 -7.09592 -3.22644 0
M  V30 6360 N 626.714 -0.118576 -1.57153 0
M  V30 6361 C 627.624 0.845484 -2.18835 0
M  V30 6362 C 628.64 1.29299 -1.16438 0
M  V30 6363 O 629.816 1.35607 -1.48905 0
M  V30 6364 C 626.881 2.07795 -2.77529 0
M  V30 6365 C 625.942 1.6824 -3.9496 0
M  V30 6366 C 625.175 2.85612 -4.50845 0
M  V30 6367 O 625.398 4.01025 -4.05629 0
M  V30 6368 O 624.332 2.62721 -5.41536 0
M  V30 6369 H 628.158 0.350568 -3.0167 0
M  V30 6370 H 625.743 0.107013 -1.49016 0
M  V30 6371 H 627.625 2.79978 -3.14945 0
M  V30 6372 H 626.3 2.56294 -1.97725 0
M  V30 6373 H 625.207 0.931663 -3.62313 0
M  V30 6374 H 626.54 1.24484 -4.76198 0
M  V30 6375 N 628.193 1.56834 0.155195 0
M  V30 6376 C 629.103 2.009 1.21146 0
M  V30 6377 C 630.119 0.923029 1.475 0
M  V30 6378 O 631.295 1.23189 1.59331 0
M  V30 6379 C 628.36 2.37378 2.52691 0
M  V30 6380 C 627.421 3.59883 2.34057 0
M  V30 6381 C 626.654 3.94612 3.59329 0
M  V30 6382 O 626.877 3.30104 4.65175 0
M  V30 6383 O 625.811 4.87895 3.52479 0
M  V30 6384 H 629.637 2.9105 0.867371 0
M  V30 6385 H 627.222 1.44916 0.363298 0
M  V30 6386 H 629.104 2.61737 3.3026 0
M  V30 6387 H 627.779 1.50385 2.86646 0
M  V30 6388 H 626.686 3.40722 1.54465 0
M  V30 6389 H 628.019 4.47468 2.0502 0
M  V30 6390 N 629.671 -0.424282 1.51781 0
M  V30 6391 C 630.619 -1.53649 1.74628 0
M  V30 6392 C 631.613 -1.57923 0.612922 0
M  V30 6393 O 632.819 -1.61511 0.794618 0
M  V30 6394 H 629.194 -0.510706 0.551981 0
M  V30 6395 H 631.165 -1.31558 2.67834 0
M  V30 6396 C 629.914 -2.91177 1.9003 0
M  V30 6397 H 629.237 -2.88625 2.76651 0
M  V30 6398 H 630.677 -3.6833 2.10021 0
M  V30 6399 C 629.136 -3.30303 0.663435 0
M  V30 6400 O 629.666 -4.01315 -0.175812 0
M  V30 6401 N 627.872 -2.86201 0.503723 0
M  V30 6402 H 627.419 -2.28583 1.18776 0
M  V30 6403 H 627.377 -3.12741 -0.322575 0
M  V30 6404 N 631.149 -1.42148 -0.680565 0
M  V30 6405 C 632.398 -1.41604 -1.43636 0
M  V30 6406 C 632.711 -0.0337887 -1.95571 0
M  V30 6407 O 633.917 0.0942588 -2.71336 0
M  V30 6408 C 632.373 -2.49056 -2.59806 0
M  V30 6409 C 631.981 -3.9326 -2.14594 0
M  V30 6410 C 633.725 -2.5767 -3.37352 0
M  V30 6411 C 631.632 -4.92232 -3.27813 0
M  V30 6412 H 630.562 -0.526656 -0.539583 0
M  V30 6413 H 633.213 -1.68033 -0.737369 0
M  V30 6414 H 631.595 -2.15782 -3.32045 0
M  V30 6415 H 632.769 -4.35858 -1.49546 0
M  V30 6416 H 631.084 -3.88443 -1.50002 0
M  V30 6417 H 633.681 -3.28794 -4.21662 0
M  V30 6418 H 634.024 -1.61837 -3.83555 0
M  V30 6419 H 634.557 -2.90109 -2.72179 0
M  V30 6420 H 631.296 -5.89522 -2.86607 0
M  V30 6421 H 630.816 -4.5427 -3.91661 0
M  V30 6422 H 632.495 -5.13684 -3.93367 0
M  V30 6423 N 632.627 0.916307 -1.28225 0
M  V30 6424 C 633.559 2.02303 -1.07732 0
M  V30 6425 C 634.572 1.62773 -0.0298421 0
M  V30 6426 O 635.761 1.76406 -0.272626 0
M  V30 6427 C 632.861 3.33282 -0.614504 0
M  V30 6428 C 632.034 4.01439 -1.73682 0
M  V30 6429 C 631.093 5.10698 -1.26781 0
M  V30 6430 O 630.119 5.34038 -1.96958 0
M  V30 6431 N 631.321 5.80355 -0.129624 0
M  V30 6432 H 634.086 2.20442 -2.03041 0
M  V30 6433 H 631.647 1.08744 -1.19943 0
M  V30 6434 H 633.639 4.03699 -0.284397 0
M  V30 6435 H 632.209 3.11633 0.245664 0
M  V30 6436 H 631.429 3.24604 -2.23665 0
M  V30 6437 H 632.717 4.43721 -2.48976 0
M  V30 6438 H 632.115 5.6386 0.455847 0
M  V30 6439 H 630.672 6.51647 0.141224 0
M  V30 6440 N 634.105 1.10431 1.1244 0
M  V30 6441 C 635.333 0.868872 1.87772 0
M  V30 6442 C 635.748 -0.580645 1.7965 0
M  V30 6443 O 635.105 -1.40031 1.17036 0
M  V30 6444 C 635.156 1.30855 3.36986 0
M  V30 6445 O 634.877 2.70123 3.44914 0
M  V30 6446 C 636.378 1.107 4.29256 0
M  V30 6447 H 633.598 0.311868 0.59412 0
M  V30 6448 H 636.142 1.46897 1.42273 0
M  V30 6449 H 634.297 0.752126 3.80029 0
M  V30 6450 H 634.711 2.88923 4.37748 0
M  V30 6451 H 636.185 1.46378 5.32238 0
M  V30 6452 H 636.662 0.0456228 4.39176 0
M  V30 6453 H 637.268 1.64988 3.91994 0
M  V30 6454 N 635.583 -1.29855 0.893053 0
M  V30 6455 C 636.513 -2.3035 0.382249 0
M  V30 6456 C 637.494 -1.61328 -0.539203 0
M  V30 6457 O 638.679 -1.88882 -0.451342 0
M  V30 6458 C 635.809 -3.45024 -0.396983 0
M  V30 6459 C 634.763 -4.258 0.433437 0
M  V30 6460 C 634.089 -5.32605 -0.472889 0
M  V30 6461 C 635.389 -4.94549 1.67984 0
M  V30 6462 H 637.083 -2.73325 1.22205 0
M  V30 6463 H 634.629 -1.314 0.589073 0
M  V30 6464 H 636.582 -4.14398 -0.765024 0
M  V30 6465 H 635.306 -3.00875 -1.2705 0
M  V30 6466 H 633.965 -3.58125 0.783723 0
M  V30 6467 H 633.613 -4.84702 -1.34435 0
M  V30 6468 H 633.313 -5.87547 0.0789958 0
M  V30 6469 H 634.837 -6.04832 -0.837269 0
M  V30 6470 H 636.251 -5.56395 1.38192 0
M  V30 6471 H 634.648 -5.59393 2.17254 0
M  V30 6472 H 635.718 -4.20215 2.41965 0
M  V30 6473 N 637.061 -0.65484 -1.43351 0
M  V30 6474 C 637.991 0.0221809 -2.33489 0
M  V30 6475 C 638.972 0.810272 -1.49561 0
M  V30 6476 O 640.157 0.771426 -1.78221 0
M  V30 6477 C 637.287 0.988117 -3.32947 0
M  V30 6478 C 636.241 0.310026 -4.26876 0
M  V30 6479 C 635.567 1.38752 -5.16384 0
M  V30 6480 C 636.867 -0.798589 -5.16159 0
M  V30 6481 H 638.561 -0.730571 -2.9035 0
M  V30 6482 H 636.107 -0.352773 -1.39612 0
M  V30 6483 H 638.06 1.47067 -3.94904 0
M  V30 6484 H 636.784 1.77205 -2.74346 0
M  V30 6485 H 635.443 -0.152097 -3.66284 0
M  V30 6486 H 635.091 2.16293 -4.54121 0
M  V30 6487 H 634.791 0.939051 -5.80048 0
M  V30 6488 H 636.315 1.87141 -5.81215 0
M  V30 6489 H 637.729 -0.398126 -5.71916 0
M  V30 6490 H 636.126 -1.17163 -5.88552 0
M  V30 6491 H 637.196 -1.65588 -4.55751 0
M  V30 6492 N 638.539 1.52521 -0.396863 0
M  V30 6493 C 639.788 2.00857 0.184184 0
M  V30 6494 C 640.101 1.28733 1.47265 0
M  V30 6495 O 641.307 1.67821 2.13421 0
M  V30 6496 C 639.763 3.57901 0.378787 0
M  V30 6497 C 639.371 4.38931 -0.896873 0
M  V30 6498 C 641.115 4.14504 0.915789 0
M  V30 6499 C 639.022 5.87591 -0.670133 0
M  V30 6500 H 637.952 0.750496 0.0726055 0
M  V30 6501 H 640.603 1.75965 -0.520425 0
M  V30 6502 H 638.985 3.79072 1.14543 0
M  V30 6503 H 640.159 4.29524 -1.66872 0
M  V30 6504 H 638.474 3.93586 -1.35938 0
M  V30 6505 H 641.071 5.23236 1.10126 0
M  V30 6506 H 641.414 3.71076 1.88701 0
M  V30 6507 H 641.947 3.97253 0.208523 0
M  V30 6508 H 638.686 6.35355 -1.61257 0
M  V30 6509 H 638.206 5.99767 0.0626368 0
M  V30 6510 H 639.885 6.46268 -0.307577 0
M  V30 6511 N 640.017 0.126909 1.57088 0
M  V30 6512 C 640.965 -0.837618 2.16995 0
M  V30 6513 C 641.959 -1.26974 1.12133 0
M  V30 6514 O 643.165 -1.24056 1.30423 0
M  V30 6515 H 639.54 -0.288256 0.694559 0
M  V30 6516 H 641.511 -0.307957 2.96807 0
M  V30 6517 C 640.26 -2.07474 2.79016 0
M  V30 6518 H 639.583 -1.75117 3.59408 0
M  V30 6519 H 641.023 -2.72949 3.24461 0
M  V30 6520 C 639.482 -2.86967 1.76498 0
M  V30 6521 O 640.012 -3.82625 1.22316 0
M  V30 6522 N 638.218 -2.51111 1.46258 0
M  V30 6523 H 637.765 -1.73389 1.90509 0
M  V30 6524 H 637.723 -3.04594 0.779085 0
M  V30 6525 N 641.495 -1.56914 -0.146875 0
M  V30 6526 C 642.906 -1.72799 -0.706928 0
M  V30 6527 C 643.257 -0.741329 -1.81656 0
M  V30 6528 O 642.382 0.0920162 -2.16204 0
M  V30 6529 C 642.977 -3.13317 -1.28911 0
M  V30 6530 C 641.536 -3.30803 -1.79573 0
M  V30 6531 C 640.683 -2.68725 -0.684252 0
M  V30 6532 H 643.634 -1.58504 0.0787931 0
M  V30 6533 H 643.655 -3.13323 -2.15891 0
M  V30 6534 H 643.167 -3.85104 -0.481284 0
M  V30 6535 H 641.268 -2.64012 -2.62923 0
M  V30 6536 H 641.381 -4.38754 -1.92436 0
M  V30 6537 H 639.745 -2.29196 -1.11091 0
M  V30 6538 H 640.528 -3.43117 0.112134 0
M  V30 6539 N 642.974 0.416227 -1.52004 0
M  V30 6540 C 643.922 1.5272 -1.7544 0
M  V30 6541 C 644.916 1.57596 -0.621289 0
M  V30 6542 O 646.122 1.61087 -0.803172 0
M  V30 6543 H 642.497 0.507772 -0.554682 0
M  V30 6544 H 644.468 1.30136 -2.68528 0
M  V30 6545 C 643.217 2.90165 -1.91571 0
M  V30 6546 H 642.54 2.87154 -2.78178 0
M  V30 6547 H 643.98 3.67211 -2.11972 0
M  V30 6548 C 642.439 3.29947 -0.680942 0
M  V30 6549 O 642.969 4.01403 0.154527 0
M  V30 6550 N 641.175 2.8593 -0.518894 0
M  V30 6551 H 640.722 2.2795 -1.19986 0
M  V30 6552 H 640.68 3.12907 0.305985 0
M  V30 6553 N 644.452 1.42507 0.673017 0
M  V30 6554 C 645.701 1.42364 1.42883 0
M  V30 6555 C 646.014 0.0441598 1.9555 0
M  V30 6556 O 647.22 -0.0798679 2.71382 0
M  V30 6557 C 645.676 2.5043 2.58482 0
M  V30 6558 C 645.284 3.94392 2.12506 0
M  V30 6559 C 647.028 2.59455 3.35981 0
M  V30 6560 C 644.935 4.93964 3.25198 0
M  V30 6561 H 643.865 0.52951 0.536782 0
M  V30 6562 H 646.516 1.68422 0.728448 0
M  V30 6563 H 644.898 2.1754 3.30896 0
M  V30 6564 H 646.072 4.36645 1.47233 0
M  V30 6565 H 644.387 3.89233 1.4794 0
M  V30 6566 H 646.984 3.31025 4.19912 0
M  V30 6567 H 647.327 1.63869 3.82691 0
M  V30 6568 H 647.86 2.91549 2.70637 0
M  V30 6569 H 644.599 5.91034 2.83477 0
M  V30 6570 H 644.119 4.56341 3.89247 0
M  V30 6571 H 645.798 5.15763 3.90637 0
M  V30 6572 N 645.93 -0.909495 1.28709 0
M  V30 6573 C 646.893 -1.99399 1.13016 0
M  V30 6574 C 647.893 -1.60654 0.068536 0
M  V30 6575 O 649.083 -1.71334 0.314671 0
M  V30 6576 C 646.215 -3.33078 0.726085 0
M  V30 6577 H 647.408 -2.14751 2.09338 0
M  V30 6578 H 644.961 -1.09272 1.11756 0
M  V30 6579 H 645.696 -3.23428 -0.23771 0
M  V30 6580 H 645.481 -3.62562 1.49302 0
M  V30 6581 H 646.971 -4.12681 0.639058 0
M  V30 6582 N 647.408 -1.11026 -1.11852 0
M  V30 6583 C 648.636 -0.878818 -1.87308 0
M  V30 6584 C 649.051 0.57111 -1.79955 0
M  V30 6585 O 648.408 1.39409 -1.17777 0
M  V30 6586 C 648.459 -1.3264 -3.36287 0
M  V30 6587 O 648.18 -2.71948 -3.43476 0
M  V30 6588 C 649.681 -1.12974 -4.28663 0
M  V30 6589 H 646.901 -0.315015 -0.592458 0
M  V30 6590 H 649.445 -1.47649 -1.41492 0
M  V30 6591 H 647.6 -0.772269 -3.79625 0
M  V30 6592 H 648.014 -2.91241 -4.3621 0
M  V30 6593 H 649.488 -1.49198 -5.31454 0
M  V30 6594 H 649.965 -0.0689127 -4.39146 0
M  V30 6595 H 650.571 -1.67064 -3.91113 0
M  V30 6596 N 648.886 1.2938 -0.899927 0
M  V30 6597 C 650.132 1.9584 -0.526742 0
M  V30 6598 C 650.465 1.70774 0.924651 0
M  V30 6599 O 649.74 1.02084 1.65557 0
M  V30 6600 C 650.023 3.50638 -0.820062 0
M  V30 6601 C 649.876 3.85161 -2.32317 0
M  V30 6602 C 651.195 4.3903 -0.30671 0
M  V30 6603 H 648.314 0.711322 -0.192848 0
M  V30 6604 H 650.956 1.52992 -1.12665 0
M  V30 6605 H 649.106 3.87265 -0.309491 0
M  V30 6606 H 650.778 3.58477 -2.9033 0
M  V30 6607 H 649.021 3.32696 -2.78381 0
M  V30 6608 H 649.692 4.93204 -2.47898 0
M  V30 6609 H 652.168 4.09396 -0.743908 0
M  V30 6610 H 651.044 5.46226 -0.541144 0
M  V30 6611 H 651.305 4.34937 0.792588 0
M  V30 6612 N 650.364 0.662433 1.43002 0
M  V30 6613 C 651.296 -0.062326 2.29115 0
M  V30 6614 C 652.309 -0.777926 1.43011 0
M  V30 6615 O 653.498 -0.634146 1.66856 0
M  V30 6616 C 650.598 -1.11163 3.2015 0
M  V30 6617 C 649.771 -0.472327 4.34842 0
M  V30 6618 C 648.83 -1.41974 5.06685 0
M  V30 6619 O 647.856 -0.924795 5.61637 0
M  V30 6620 N 649.058 -2.75345 5.11043 0
M  V30 6621 H 651.823 0.676838 2.91957 0
M  V30 6622 H 649.384 0.505907 1.53793 0
M  V30 6623 H 651.376 -1.74643 3.65078 0
M  V30 6624 H 649.946 -1.75266 2.58845 0
M  V30 6625 H 649.166 0.341751 3.92716 0
M  V30 6626 H 650.454 -0.0264381 5.08793 0
M  V30 6627 H 649.852 -3.18108 4.67786 0
M  V30 6628 H 648.409 -3.34105 5.59658 0
M  V30 6629 N 651.842 -1.52309 0.404946 0
M  V30 6630 C 653.07 -2.06185 -0.171818 0
M  V30 6631 C 653.485 -1.27536 -1.39212 0
M  V30 6632 O 652.842 -0.326112 -1.79563 0
M  V30 6633 C 652.893 -3.57647 -0.526417 0
M  V30 6634 O 652.614 -4.3332 0.645417 0
M  V30 6635 C 654.115 -4.27925 -1.15736 0
M  V30 6636 H 651.335 -0.670632 -0.0222328 0
M  V30 6637 H 653.879 -1.96259 0.574692 0
M  V30 6638 H 652.034 -3.67595 -1.22282 0
M  V30 6639 H 652.448 -5.23328 0.35042 0
M  V30 6640 H 653.922 -5.35093 -1.35572 0
M  V30 6641 H 654.399 -3.84134 -2.12926 0
M  V30 6642 H 655.005 -4.22335 -0.501281 0
M  V30 6643 N 653.32 -0.135238 -1.57019 0
M  V30 6644 C 654.545 0.529343 -2.00531 0
M  V30 6645 C 654.97 1.58391 -1.01459 0
M  V30 6646 O 654.328 1.81296 0.0113986 0
M  V30 6647 C 654.376 1.11748 -3.42848 0
M  V30 6648 O 653.48 2.23267 -3.46736 0
M  V30 6649 H 652.821 0.130669 -0.651016 0
M  V30 6650 H 655.351 -0.228503 -2.0332 0
M  V30 6651 H 655.361 1.44905 -3.81401 0
M  V30 6652 H 654.036 0.345147 -4.14465 0
M  V30 6653 H 652.613 1.91428 -3.20015 0
M  V30 6654 N 654.798 1.5699 0.138552 0
M  V30 6655 C 655.73 1.95515 1.1961 0
M  V30 6656 C 656.743 0.852002 1.38726 0
M  V30 6657 O 657.932 1.13038 1.38147 0
M  V30 6658 C 655.032 2.2213 2.55952 0
M  V30 6659 C 654.205 3.53424 2.57702 0
M  V30 6660 C 653.264 3.6848 3.75645 0
M  V30 6661 O 652.29 4.4079 3.60129 0
M  V30 6662 N 653.492 3.05777 4.93438 0
M  V30 6663 H 656.257 2.86838 0.868557 0
M  V30 6664 H 653.818 1.58542 0.328033 0
M  V30 6665 H 655.81 2.29435 3.33379 0
M  V30 6666 H 654.38 1.3703 2.80965 0
M  V30 6667 H 653.6 3.57484 1.6613 0
M  V30 6668 H 654.888 4.39759 2.55909 0
M  V30 6669 H 654.286 2.46961 5.08947 0
M  V30 6670 H 652.843 3.18631 5.6861 0
M  V30 6671 N 656.276 -0.40816 1.52223 0
M  V30 6672 C 657.524 -1.15274 1.66001 0
M  V30 6673 C 657.845 -1.91003 0.392803 0
M  V30 6674 O 657.115 -1.8673 -0.592336 0
M  V30 6675 H 655.695 -0.428526 0.611861 0
M  V30 6676 H 658.357 -0.46512 1.89269 0
M  V30 6677 H 657.453 -1.86628 2.50153 0
M  V30 6678 N 657.755 -1.42862 -0.66545 0
M  V30 6679 C 658.685 -1.49867 -1.79059 0
M  V30 6680 C 659.666 -0.354394 -1.66367 0
M  V30 6681 O 660.851 -0.569969 -1.85647 0
M  V30 6682 C 657.981 -1.40943 -3.17415 0
M  V30 6683 C 656.935 -2.53495 -3.44854 0
M  V30 6684 C 656.261 -2.29626 -4.82883 0
M  V30 6685 C 657.561 -3.95781 -3.40815 0
M  V30 6686 H 659.255 -2.44037 -1.73453 0
M  V30 6687 H 656.801 -1.17456 -0.833071 0
M  V30 6688 H 658.754 -1.4445 -3.95869 0
M  V30 6689 H 657.478 -0.432716 -3.23721 0
M  V30 6690 H 656.137 -2.4932 -2.68766 0
M  V30 6691 H 655.785 -1.30226 -4.8585 0
M  V30 6692 H 655.485 -3.05065 -5.02204 0
M  V30 6693 H 657.009 -2.34897 -5.63609 0
M  V30 6694 H 658.423 -4.01508 -4.09224 0
M  V30 6695 H 656.82 -4.71148 -3.71672 0
M  V30 6696 H 657.89 -4.21786 -2.39216 0
M  V30 6697 N 659.233 0.902656 -1.29189 0
M  V30 6698 C 660.196 1.98797 -1.14071 0
M  V30 6699 C 661.196 1.60615 -0.0770549 0
M  V30 6700 O 662.386 1.71165 -0.323753 0
M  V30 6701 C 659.518 3.32688 -0.743739 0
M  V30 6702 H 660.711 2.13637 -2.10473 0
M  V30 6703 H 658.264 1.08678 -1.12334 0
M  V30 6704 H 658.999 3.23549 0.220554 0
M  V30 6705 H 658.784 3.61765 -1.51223 0
M  V30 6706 H 660.274 4.12337 -0.660935 0
M  V30 6707 N 660.711 1.11618 1.11262 0
M  V30 6708 C 661.988 0.777876 1.79467 0
M  V30 6709 C 662.368 -0.733774 1.97937 0
M  V30 6710 O 661.716 -1.66443 1.56554 0
M  V30 6711 C 661.926 1.5431 3.13032 0
M  V30 6712 C 663.274 1.72357 3.88044 0
M  V30 6713 O 664.298 1.5075 3.22727 0
M  V30 6714 O 663.157 2.08276 5.05256 0
M  V30 6715 H 660.251 0.282018 0.777428 0
M  V30 6716 H 662.797 1.21971 1.17988 0
M  V30 6717 H 661.569 2.57132 2.94956 0
M  V30 6718 H 661.192 1.09495 3.82226 0
M  V30 6719 N 662.189 -1.289 0.906776 0
M  V30 6720 C 663.136 -2.2751 0.388313 0
M  V30 6721 C 664.106 -1.57301 -0.533439 0
M  V30 6722 O 665.291 -1.85243 -0.457148 0
M  V30 6723 C 662.431 -3.43091 -0.37181 0
M  V30 6724 C 661.544 -4.28066 0.581647 0
M  V30 6725 C 660.679 -5.30837 -0.19623 0
M  V30 6726 C 659.718 -6.07472 0.751294 0
M  V30 6727 N 658.855 -7.021 0.00737727 0
M  V30 6728 H 663.695 -2.71237 1.23428 0
M  V30 6729 H 661.232 -1.33397 0.619962 0
M  V30 6730 H 663.19 -4.08888 -0.828641 0
M  V30 6731 H 661.82 -3.00374 -1.18218 0
M  V30 6732 H 660.872 -3.62378 1.157 0
M  V30 6733 H 662.184 -4.81382 1.30665 0
M  V30 6734 H 661.338 -6.02485 -0.71394 0
M  V30 6735 H 660.077 -4.78272 -0.954324 0
M  V30 6736 H 659.082 -5.34682 1.28044 0
M  V30 6737 H 660.307 -6.62126 1.50883 0
M  V30 6738 H 658.253 -6.51894 -0.732854 0
M  V30 6739 H 658.17 -7.53004 0.672334 0
M  V30 6740 H 659.438 -7.77956 -0.490365 0
M  V30 6741 N 663.667 -0.670007 -1.42649 0
M  V30 6742 C 664.913 -0.190568 -2.01903 0
M  V30 6743 C 665.246 1.19817 -1.52832 0
M  V30 6744 O 664.521 1.80342 -0.728485 0
M  V30 6745 C 664.804 -0.21991 -3.59428 0
M  V30 6746 C 664.657 -1.64376 -4.18689 0
M  V30 6747 C 665.976 0.434519 -4.3795 0
M  V30 6748 H 663.095 -0.0707219 -0.733599 0
M  V30 6749 H 665.737 -0.853883 -1.69732 0
M  V30 6750 H 663.887 0.344894 -3.86966 0
M  V30 6751 H 665.559 -2.26044 -4.02122 0
M  V30 6752 H 663.802 -2.18591 -3.747 0
M  V30 6753 H 664.473 -1.61601 -5.27815 0
M  V30 6754 H 666.949 -0.0462156 -4.16074 0
M  V30 6755 H 665.825 0.38333 -5.4756 0
M  V30 6756 H 666.086 1.51135 -4.15464 0
M  V30 6757 N 665.145 1.52092 -0.413018 0
M  V30 6758 C 666.375 2.05974 0.160648 0
M  V30 6759 C 666.783 1.28267 1.39084 0
M  V30 6760 O 666.126 0.328805 1.80733 0
M  V30 6761 C 666.188 3.54918 0.572169 0
M  V30 6762 C 665.852 4.53705 -0.547826 0
M  V30 6763 C 666.849 5.00342 -1.41259 0
M  V30 6764 C 664.534 4.97089 -0.721627 0
M  V30 6765 C 666.528 5.89011 -2.43607 0
M  V30 6766 C 664.215 5.85554 -1.74841 0
M  V30 6767 C 665.213 6.3141 -2.60403 0
M  V30 6768 O 664.901 7.18123 -3.61323 0
M  V30 6769 H 664.633 0.675636 0.0221936 0
M  V30 6770 H 667.187 1.96931 -0.58373 0
M  V30 6771 H 665.417 3.61661 1.36889 0
M  V30 6772 H 667.106 3.91428 1.0742 0
M  V30 6773 H 667.872 4.67537 -1.28974 0
M  V30 6774 H 663.751 4.60954 -0.0652911 0
M  V30 6775 H 667.295 6.24725 -3.10425 0
M  V30 6776 H 663.192 6.17773 -1.87156 0
M  V30 6777 H 663.96 7.36244 -3.57613 0
M  V30 6778 N 666.623 0.143563 1.56945 0
M  V30 6779 C 667.87 -0.508407 1.96014 0
M  V30 6780 C 668.198 -1.65099 1.02824 0
M  V30 6781 O 667.453 -1.95618 0.0567764 0
M  V30 6782 C 667.752 -1.05885 3.41355 0
M  V30 6783 C 667.418 -0.0350809 4.50886 0
M  V30 6784 C 666.08 0.246362 4.80569 0
M  V30 6785 C 668.432 0.661282 5.16988 0
M  V30 6786 C 665.76 1.23003 5.73661 0
M  V30 6787 C 668.112 1.63375 6.11139 0
M  V30 6788 C 666.776 1.92292 6.39203 0
M  V30 6789 H 666.046 -0.186039 0.717266 0
M  V30 6790 H 668.693 0.229667 1.90118 0
M  V30 6791 H 666.998 -1.87419 3.44066 0
M  V30 6792 H 668.695 -1.57183 3.6891 0
M  V30 6793 H 665.285 -0.264622 4.27782 0
M  V30 6794 H 669.469 0.457038 4.94191 0
M  V30 6795 H 664.725 1.46056 5.93698 0
M  V30 6796 H 668.899 2.17887 6.61436 0
M  V30 6797 H 666.526 2.68666 7.11142 0
M  V30 6798 N 668.101 -1.57061 -0.130224 0
M  V30 6799 C 669.031 -2.02552 -1.16168 0
M  V30 6800 C 670.012 -0.907971 -1.4384 0
M  V30 6801 O 671.197 -1.17693 -1.54473 0
M  V30 6802 C 668.327 -2.42035 -2.49071 0
M  V30 6803 C 667.281 -3.5713 -2.35886 0
M  V30 6804 C 666.607 -3.82478 -3.7365 0
M  V30 6805 C 667.907 -4.89236 -1.8288 0
M  V30 6806 H 669.601 -2.8897 -0.783359 0
M  V30 6807 H 667.147 -1.39021 -0.375376 0
M  V30 6808 H 669.1 -2.72462 -3.21469 0
M  V30 6809 H 667.824 -1.52573 -2.88771 0
M  V30 6810 H 666.483 -3.26895 -1.65938 0
M  V30 6811 H 666.131 -2.9024 -4.10816 0
M  V30 6812 H 665.831 -4.59944 -3.65685 0
M  V30 6813 H 667.355 -4.15347 -4.47571 0
M  V30 6814 H 668.769 -5.18272 -2.45085 0
M  V30 6815 H 667.166 -5.70624 -1.85763 0
M  V30 6816 H 668.236 -4.78494 -0.785571 0
M  V30 6817 N 669.579 0.400081 -1.52437 0
M  V30 6818 C 670.99 0.97851 -1.59003 0
M  V30 6819 C 671.341 1.91293 -0.436068 0
M  V30 6820 O 670.466 2.1183 0.442365 0
M  V30 6821 C 671.061 1.78145 -2.88184 0
M  V30 6822 C 669.62 2.30976 -2.97199 0
M  V30 6823 C 668.767 1.11212 -2.54022 0
M  V30 6824 H 671.718 0.180002 -1.57676 0
M  V30 6825 H 671.739 2.63968 -2.74046 0
M  V30 6826 H 671.251 1.1011 -3.72152 0
M  V30 6827 H 669.352 3.02355 -2.17744 0
M  V30 6828 H 669.465 2.61221 -4.01622 0
M  V30 6829 H 667.829 1.46882 -2.08081 0
M  V30 6830 H 668.612 0.447307 -3.40373 0
M  V30 6831 N 671.057 1.43213 0.657864 0
M  V30 6832 C 672.306 1.43871 1.41365 0
M  V30 6833 C 672.619 0.064898 1.95492 0
M  V30 6834 O 673.825 -0.0510796 2.71452 0
M  V30 6835 C 672.281 2.53158 2.55811 0
M  V30 6836 C 671.889 3.96624 2.08311 0
M  V30 6837 C 673.633 2.63004 3.3321 0
M  V30 6838 C 671.54 4.97385 3.1994 0
M  V30 6839 H 670.47 0.535174 0.531136 0
M  V30 6840 H 673.121 1.69185 0.710543 0
M  V30 6841 H 671.503 2.21037 3.2857 0
M  V30 6842 H 672.677 4.38182 1.42593 0
M  V30 6843 H 670.992 3.90781 1.43804 0
M  V30 6844 H 673.589 3.3546 4.16378 0
M  V30 6845 H 673.932 1.67918 3.80932 0
M  V30 6846 H 674.465 2.94403 2.67529 0
M  V30 6847 H 671.204 5.94007 2.77192 0
M  V30 6848 H 670.724 4.60444 3.84385 0
M  V30 6849 H 672.403 5.19877 3.85145 0
M  V30 6850 N 672.536 -0.895792 1.29666 0
M  V30 6851 C 673.764 -1.68001 1.20761 0
M  V30 6852 C 674.179 -1.87379 -0.231187 0
M  V30 6853 O 673.536 -1.41359 -1.15429 0
M  V30 6854 C 673.587 -3.06236 1.92098 0
M  V30 6855 O 673.308 -2.8774 3.30359 0
M  V30 6856 C 674.809 -4.00652 1.89717 0
M  V30 6857 H 672.029 -0.524591 0.418384 0
M  V30 6858 H 674.573 -1.11995 1.71106 0
M  V30 6859 H 672.728 -3.59007 1.45578 0
M  V30 6860 H 673.142 -3.75359 3.66342 0
M  V30 6861 H 674.616 -4.95051 2.44189 0
M  V30 6862 H 675.093 -4.30424 0.873595 0
M  V30 6863 H 675.699 -3.53815 2.35998 0
M  V30 6864 N 674.014 -1.12206 -1.10668 0
M  V30 6865 C 675.425 -0.890657 -1.64086 0
M  V30 6866 C 675.776 0.575502 -1.8757 0
M  V30 6867 O 674.901 1.4394 -1.61587 0
M  V30 6868 C 675.496 -1.61029 -2.98085 0
M  V30 6869 C 674.055 -1.4251 -3.48379 0
M  V30 6870 C 673.202 -1.64778 -2.23033 0
M  V30 6871 H 676.153 -1.27718 -0.94201 0
M  V30 6872 H 676.174 -1.05993 -3.65439 0
M  V30 6873 H 675.686 -2.67735 -2.80962 0
M  V30 6874 H 673.787 -0.380497 -3.70652 0
M  V30 6875 H 673.9 -2.17959 -4.26651 0
M  V30 6876 H 672.264 -1.07171 -2.31055 0
M  V30 6877 H 673.047 -2.72776 -2.08443 0
M  V30 6878 N 675.492 1.28418 -0.913599 0
M  V30 6879 C 676.442 2.24928 -0.373042 0
M  V30 6880 C 677.426 1.52444 0.514753 0
M  V30 6881 O 678.618 1.73414 0.3545 0
M  V30 6882 C 675.747 3.41124 0.385896 0
M  V30 6883 C 674.833 4.20929 -0.51761 0
M  V30 6884 N 675.224 4.78777 -1.63113 0
M  V30 6885 C 673.522 4.44865 -0.317969 0
M  V30 6886 C 674.223 5.38822 -2.19193 0
M  V30 6887 N 673.199 5.22974 -1.48321 0
M  V30 6888 H 677.001 2.67224 -1.22346 0
M  V30 6889 H 674.515 1.43187 -0.766236 0
M  V30 6890 H 676.512 4.09347 0.789997 0
M  V30 6891 H 675.172 3.00362 1.23341 0
M  V30 6892 H 676.183 4.77148 -2.01372 0
M  V30 6893 H 672.86 4.14614 0.49004 0
M  V30 6894 H 674.25 5.94615 -3.12861 0
M  V30 6895 N 676.97 0.677563 1.42291 0
M  V30 6896 C 678.2 0.209155 2.05539 0
M  V30 6897 C 678.608 -1.13987 1.51009 0
M  V30 6898 O 677.951 -1.71976 0.645764 0
M  V30 6899 C 678.013 0.0697758 3.59432 0
M  V30 6900 C 677.677 1.34795 4.36668 0
M  V30 6901 C 678.674 2.28201 4.67141 0
M  V30 6902 C 676.359 1.59632 4.76259 0
M  V30 6903 C 678.353 3.44718 5.36142 0
M  V30 6904 C 676.04 2.76437 5.45 0
M  V30 6905 C 677.038 3.68805 5.74867 0
M  V30 6906 O 676.726 4.83567 6.42198 0
M  V30 6907 H 676.458 0.0986202 0.668768 0
M  V30 6908 H 679.012 0.925483 1.83368 0
M  V30 6909 H 677.242 -0.702157 3.80272 0
M  V30 6910 H 678.931 -0.359115 4.04308 0
M  V30 6911 H 679.697 2.10264 4.37052 0
M  V30 6912 H 675.576 0.886073 4.52404 0
M  V30 6913 H 679.12 4.16833 5.59371 0
M  V30 6914 H 675.017 2.94299 5.74507 0
M  V30 6915 H 675.785 4.83147 6.6069 0
M  V30 6916 N 678.448 -1.51871 0.421078 0
M  V30 6917 C 679.694 -2.02237 -0.151014 0
M  V30 6918 C 680.027 -1.30554 -1.43768 0
M  V30 6919 O 679.302 -0.41546 -1.90011 0
M  V30 6920 C 679.585 -3.5802 -0.386482 0
M  V30 6921 C 679.438 -4.40339 0.9177 0
M  V30 6922 C 680.757 -4.24444 -1.16342 0
M  V30 6923 H 677.876 -0.735062 -0.0534102 0
M  V30 6924 H 680.518 -1.81656 0.556888 0
M  V30 6925 H 678.668 -3.75688 -0.989494 0
M  V30 6926 H 680.34 -4.34357 1.55344 0
M  V30 6927 H 678.583 -4.06073 1.526 0
M  V30 6928 H 679.254 -5.47451 0.707187 0
M  V30 6929 H 681.73 -4.10948 -0.652788 0
M  V30 6930 H 680.606 -5.33358 -1.29693 0
M  V30 6931 H 680.867 -3.84204 -2.18724 0
M  V30 6932 N 679.926 -0.151884 -1.56866 0
M  V30 6933 C 681.154 0.504813 -2.00647 0
M  V30 6934 C 681.569 1.58098 -1.03201 0
M  V30 6935 O 680.926 1.82476 -0.0297814 0
M  V30 6936 C 680.977 1.10099 -3.44326 0
M  V30 6937 O 680.698 0.0678021 -4.38048 0
M  V30 6938 C 682.199 1.83782 -4.03409 0
M  V30 6939 H 679.419 0.130989 -0.65809 0
M  V30 6940 H 681.963 -0.247903 -2.02992 0
M  V30 6941 H 680.118 1.8043 -3.42817 0
M  V30 6942 H 680.532 0.505237 -5.22061 0
M  V30 6943 H 682.006 2.2078 -5.05925 0
M  V30 6944 H 682.483 2.72557 -3.44397 0
M  V30 6945 H 683.089 1.18138 -4.08563 0
M  V30 6946 N 681.404 1.57128 0.121893 0
M  V30 6947 C 682.336 1.96773 1.17529 0
M  V30 6948 C 683.349 0.866668 1.37814 0
M  V30 6949 O 684.538 1.14497 1.3694 0
M  V30 6950 C 681.638 2.24832 2.53582 0
M  V30 6951 C 680.811 3.56138 2.53939 0
M  V30 6952 C 679.87 3.72443 3.71716 0
M  V30 6953 O 678.896 4.44584 3.55434 0
M  V30 6954 N 680.098 3.10993 4.90167 0
M  V30 6955 H 682.863 2.87743 0.838086 0
M  V30 6956 H 680.424 1.58881 0.311199 0
M  V30 6957 H 682.416 2.32958 3.30927 0
M  V30 6958 H 680.986 1.40002 2.79496 0
M  V30 6959 H 680.206 3.59226 1.62329 0
M  V30 6960 H 681.494 4.42448 2.51231 0
M  V30 6961 H 680.892 2.52345 5.06299 0
M  V30 6962 H 679.449 3.24644 5.65198 0
M  V30 6963 N 682.882 -0.391992 1.52647 0
M  V30 6964 C 684.128 -1.139 1.67793 0
M  V30 6965 C 684.461 -1.89711 0.41514 0
M  V30 6966 O 683.736 -1.85431 -0.586979 0
M  V30 6967 C 684.019 -2.11966 2.91105 0
M  V30 6968 C 683.872 -1.39939 4.27478 0
M  V30 6969 C 685.191 -3.1243 3.09961 0
M  V30 6970 H 682.31 -0.412707 0.610608 0
M  V30 6971 H 684.952 -0.422725 1.85238 0
M  V30 6972 H 683.102 -2.73048 2.76364 0
M  V30 6973 H 684.774 -0.818439 4.53982 0
M  V30 6974 H 683.017 -0.701246 4.28095 0
M  V30 6975 H 683.688 -2.1158 5.09841 0
M  V30 6976 H 686.164 -2.61435 3.23714 0
M  V30 6977 H 685.04 -3.78294 3.97725 0
M  V30 6978 H 685.301 -3.81127 2.24042 0
M  V30 6979 N 684.36 -1.4356 -0.65026 0
M  V30 6980 C 685.609 -1.44619 -1.406 0
M  V30 6981 C 685.922 -0.0752645 -1.95455 0
M  V30 6982 O 687.128 0.0366832 -2.71475 0
M  V30 6983 C 685.584 -2.54511 -2.54465 0
M  V30 6984 C 685.192 -3.97723 -2.06204 0
M  V30 6985 C 686.936 -2.64768 -3.31811 0
M  V30 6986 C 684.843 -4.99075 -3.17298 0
M  V30 6987 H 683.773 -0.537983 -0.52829 0
M  V30 6988 H 686.424 -1.69559 -0.701561 0
M  V30 6989 H 684.806 -2.22777 -3.27393 0
M  V30 6990 H 685.98 -4.38932 -1.40267 0
M  V30 6991 H 684.295 -3.91538 -1.41729 0
M  V30 6992 H 686.892 -3.37664 -4.14593 0
M  V30 6993 H 687.235 -1.69936 -3.80036 0
M  V30 6994 H 687.768 -2.95817 -2.65964 0
M  V30 6995 H 684.507 -5.95469 -2.74038 0
M  V30 6996 H 684.027 -4.62476 -3.81937 0
M  V30 6997 H 685.706 -5.21913 -3.82382 0
M  V30 6998 N 685.838 0.888903 -1.30139 0
M  V30 6999 C 687.254 1.17153 -1.08385 0
M  V30 7000 C 687.454 2.0088 0.157925 0
M  V30 7001 O 686.51 2.37668 0.852652 0
M  V30 7002 C 687.823 1.882 -2.34523 0
M  V30 7003 C 689.371 2.00981 -2.39949 0
M  V30 7004 C 689.846 2.75441 -3.65918 0
M  V30 7005 N 691.337 2.82989 -3.66704 0
M  V30 7006 C 692.072 3.41167 -4.60861 0
M  V30 7007 N 691.568 4.00425 -5.6536 0
M  V30 7008 N 693.361 3.38944 -4.48412 0
M  V30 7009 H 685.512 0.33053 -2.09812 0
M  V30 7010 H 687.775 0.208964 -0.924683 0
M  V30 7011 H 687.481 1.34119 -3.25123 0
M  V30 7012 H 687.355 2.88609 -2.42868 0
M  V30 7013 H 689.742 2.54234 -1.4983 0
M  V30 7014 H 689.823 0.996725 -2.35582 0
M  V30 7015 H 689.467 2.22861 -4.56394 0
M  V30 7016 H 689.397 3.77118 -3.67546 0
M  V30 7017 H 691.888 2.40912 -2.91153 0
M  V30 7018 H 692.201 4.42871 -6.33313 0
M  V30 7019 H 690.546 3.98856 -5.69157 0
M  V30 7020 H 693.737 2.91875 -3.6596 0
M  V30 7021 H 693.91 3.83989 -5.21974 0
M  V30 7022 N 687.317 1.12792 1.10072 0
M  V30 7023 C 688.265 0.794523 2.18609 0
M  V30 7024 C 689.259 -0.220271 1.67962 0
M  V30 7025 O 690.465 -0.0780938 1.79831 0
M  V30 7026 H 686.84 0.239123 0.712969 0
M  V30 7027 H 688.811 1.71823 2.43966 0
M  V30 7028 C 687.56 0.269548 3.46654 0
M  V30 7029 H 686.883 1.04171 3.8599 0
M  V30 7030 H 688.323 0.0746242 4.23934 0
M  V30 7031 C 686.782 -1.00333 3.21613 0
M  V30 7032 O 687.312 -2.08042 3.4363 0
M  V30 7033 N 685.518 -0.931763 2.75257 0
M  V30 7034 H 685.065 -0.0551197 2.57541 0
M  V30 7035 H 685.023 -1.78405 2.58881 0
M  V30 7036 N 688.795 -1.27931 0.920396 0
M  V30 7037 C 689.705 -2.30824 0.419212 0
M  V30 7038 C 690.721 -1.66767 -0.496461 0
M  V30 7039 O 691.897 -1.97763 -0.38104 0
M  V30 7040 C 688.962 -3.45158 -0.326601 0
M  V30 7041 C 688.023 -4.24754 0.623098 0
M  V30 7042 C 687.256 -5.33629 -0.0872172 0
M  V30 7043 O 687.479 -5.55204 -1.30784 0
M  V30 7044 O 686.413 -5.99091 0.580875 0
M  V30 7045 H 690.239 -2.75716 1.27337 0
M  V30 7046 H 687.824 -1.32747 0.685465 0
M  V30 7047 H 689.706 -4.14716 -0.747559 0
M  V30 7048 H 688.381 -3.02336 -1.15648 0
M  V30 7049 H 687.288 -3.57759 1.09359 0
M  V30 7050 H 688.621 -4.71272 1.41998 0
M  V30 7051 N 690.273 -0.685099 -1.4193 0
M  V30 7052 C 691.689 -0.355632 -1.55587 0
M  V30 7053 C 691.889 1.13823 -1.66273 0
M  V30 7054 O 690.945 1.92387 -1.63534 0
M  V30 7055 C 692.258 -1.09498 -2.80055 0
M  V30 7056 C 693.806 -1.07831 -2.93839 0
M  V30 7057 C 694.281 -1.79919 -4.21181 0
M  V30 7058 N 695.772 -1.76837 -4.28115 0
M  V30 7059 C 696.507 -2.29463 -5.25485 0
M  V30 7060 N 696.003 -2.90516 -6.28945 0
M  V30 7061 N 697.796 -2.19779 -5.17353 0
M  V30 7062 H 689.947 -1.65412 -1.33239 0
M  V30 7063 H 692.21 -0.697453 -0.642078 0
M  V30 7064 H 691.916 -2.14997 -2.78333 0
M  V30 7065 H 691.79 -0.666813 -3.71259 0
M  V30 7066 H 694.177 -0.0316152 -2.95083 0
M  V30 7067 H 694.258 -1.54545 -2.03837 0
M  V30 7068 H 693.902 -2.84562 -4.20698 0
M  V30 7069 H 693.832 -1.30647 -5.10136 0
M  V30 7070 H 696.323 -1.32315 -3.53979 0
M  V30 7071 H 696.636 -3.28266 -6.99615 0
M  V30 7072 H 694.981 -2.94589 -6.29478 0
M  V30 7073 H 698.172 -1.71763 -4.35448 0
M  V30 7074 H 698.345 -2.61097 -5.9307 0
M  V30 7075 N 691.751 1.51645 -0.429126 0
M  V30 7076 C 693.162 1.86665 0.0359003 0
M  V30 7077 C 693.513 1.34677 1.42676 0
M  V30 7078 O 692.638 0.694195 2.04963 0
M  V30 7079 C 693.233 3.38724 0.0719221 0
M  V30 7080 C 691.792 3.7331 0.481336 0
M  V30 7081 C 690.939 2.75313 -0.331329 0
M  V30 7082 H 693.89 1.44987 -0.645333 0
M  V30 7083 H 693.911 3.7011 0.883118 0
M  V30 7084 H 693.423 3.76532 -0.940495 0
M  V30 7085 H 691.524 3.41088 1.49966 0
M  V30 7086 H 691.637 4.78631 0.211837 0
M  V30 7087 H 690.001 2.53839 0.209204 0
M  V30 7088 H 690.784 3.15963 -1.34247 0
M  V30 7089 N 693.229 0.160201 1.56784 0
M  V30 7090 C 694.506 -0.533355 1.88188 0
M  V30 7091 C 694.886 -1.82072 1.06831 0
M  V30 7092 O 694.234 -2.27946 0.158959 0
M  V30 7093 C 694.444 -0.786034 3.40033 0
M  V30 7094 C 695.792 -1.12097 4.09536 0
M  V30 7095 O 696.816 -0.874949 3.45287 0
M  V30 7096 O 695.675 -1.58457 5.23023 0
M  V30 7097 H 692.769 -0.273589 0.780434 0
M  V30 7098 H 695.315 0.197803 1.68543 0
M  V30 7099 H 694.087 0.124515 3.91102 0
M  V30 7100 H 693.71 -1.57091 3.65251 0
M  V30 7101 N 694.707 -1.5719 -0.113559 0
M  V30 7102 C 695.955 -1.84772 -0.818761 0
M  V30 7103 C 696.276 -0.746196 -1.80158 0
M  V30 7104 O 695.546 0.229305 -1.94553 0
M  V30 7105 H 694.126 -0.681737 -0.305359 0
M  V30 7106 H 696.788 -1.94645 -0.0995845 0
M  V30 7107 H 695.884 -2.80878 -1.36067 0
M  V30 7108 N 696.185 0.383891 -1.52853 0
M  V30 7109 C 697.431 1.13009 -1.68395 0
M  V30 7110 C 697.764 1.89488 -0.425195 0
M  V30 7111 O 697.039 1.8574 0.577136 0
M  V30 7112 C 697.322 2.10419 -2.92226 0
M  V30 7113 C 697.175 1.3767 -4.28214 0
M  V30 7114 C 698.494 3.10781 -3.11614 0
M  V30 7115 H 695.613 0.409463 -0.612788 0
M  V30 7116 H 698.255 0.412895 -1.85459 0
M  V30 7117 H 696.405 2.71579 -2.77808 0
M  V30 7118 H 698.077 0.794352 -4.54409 0
M  V30 7119 H 696.32 0.678533 -4.2846 0
M  V30 7120 H 696.991 2.08874 -5.10956 0
M  V30 7121 H 699.467 2.59715 -3.25096 0
M  V30 7122 H 698.343 3.76179 -3.99725 0
M  V30 7123 H 698.604 3.79933 -2.2606 0
M  V30 7124 N 697.663 1.43903 0.642637 0
M  V30 7125 C 698.593 1.52697 1.76652 0
M  V30 7126 C 699.574 0.380816 1.65782 0
M  V30 7127 O 700.759 0.599432 1.84717 0
M  V30 7128 C 697.889 1.45975 3.15133 0
M  V30 7129 C 696.843 2.58949 3.40778 0
M  V30 7130 C 696.169 2.37279 4.79169 0
M  V30 7131 C 697.469 4.01153 3.34475 0
M  V30 7132 H 699.163 2.46766 1.69549 0
M  V30 7133 H 696.709 1.18767 0.814279 0
M  V30 7134 H 698.662 1.5073 3.93521 0
M  V30 7135 H 697.386 0.484162 3.22991 0
M  V30 7136 H 696.045 2.53564 2.64765 0
M  V30 7137 H 695.693 1.37939 4.83717 0
M  V30 7138 H 695.393 3.13016 4.97287 0
M  V30 7139 H 696.917 2.43834 5.59801 0
M  V30 7140 H 698.331 4.07968 4.02784 0
M  V30 7141 H 696.728 4.77001 3.64129 0
M  V30 7142 H 697.798 4.25539 2.32475 0
M  V30 7143 N 699.141 -0.881989 1.30609 0
M  V30 7144 C 700.071 -2.00413 1.1982 0
M  V30 7145 C 701.052 -1.69871 0.0881538 0
M  V30 7146 O 702.237 -1.92304 0.2707 0
M  V30 7147 C 699.367 -3.35641 0.89233 0
M  V30 7148 C 698.321 -3.80451 1.96064 0
M  V30 7149 C 697.647 -5.13003 1.5077 0
M  V30 7150 C 698.947 -3.98855 3.37213 0
M  V30 7151 H 700.641 -2.09698 2.13699 0
M  V30 7152 H 698.187 -1.00754 1.02882 0
M  V30 7153 H 700.14 -4.13669 0.803497 0
M  V30 7154 H 698.864 -3.26497 -0.0821381 0
M  V30 7155 H 697.523 -3.04654 2.03916 0
M  V30 7156 H 697.171 -5.0029 0.521417 0
M  V30 7157 H 696.871 -5.43956 2.22229 0
M  V30 7158 H 698.395 -5.93554 1.43271 0
M  V30 7159 H 699.809 -4.67312 3.32103 0
M  V30 7160 H 698.206 -4.41188 4.06784 0
M  V30 7161 H 699.276 -3.02614 3.78883 0
M  V30 7162 N 700.619 -1.13374 -1.09472 0
M  V30 7163 C 701.847 -0.918351 -1.85402 0
M  V30 7164 C 702.262 0.53281 -1.81126 0
M  V30 7165 O 701.619 1.36879 -1.20708 0
M  V30 7166 C 701.67 -1.39743 -3.33398 0
M  V30 7167 O 701.391 -2.79172 -3.37631 0
M  V30 7168 C 702.892 -1.22042 -4.2617 0
M  V30 7169 H 700.112 -0.327511 -0.585643 0
M  V30 7170 H 702.656 -1.50617 -1.38328 0
M  V30 7171 H 700.811 -0.852619 -3.77901 0
M  V30 7172 H 701.225 -3.00428 -4.29934 0
M  V30 7173 H 702.699 -1.60438 -5.2817 0
M  V30 7174 H 703.176 -0.162047 -4.38901 0
M  V30 7175 H 703.782 -1.75323 -3.87482 0
M  V30 7176 N 702.098 1.27442 -0.927168 0
M  V30 7177 C 703.345 1.94391 -0.567324 0
M  V30 7178 C 703.673 1.72875 0.891321 0
M  V30 7179 O 702.928 1.05071 1.65102 0
M  V30 7180 C 703.227 3.47413 -0.838994 0
M  V30 7181 C 702.893 3.89049 -2.2793 0
M  V30 7182 C 701.555 4.00127 -2.67305 0
M  V30 7183 C 703.907 4.10154 -3.21595 0
M  V30 7184 C 701.235 4.29697 -3.99471 0
M  V30 7185 C 703.587 4.41208 -4.53341 0
M  V30 7186 C 702.251 4.50499 -4.92551 0
M  V30 7187 H 701.521 0.711325 -0.207598 0
M  V30 7188 H 704.168 1.51523 -1.17103 0
M  V30 7189 H 702.473 3.91503 -0.152609 0
M  V30 7190 H 704.17 3.97354 -0.53955 0
M  V30 7191 H 700.76 3.80962 -1.96381 0
M  V30 7192 H 704.944 4.01036 -2.92377 0
M  V30 7193 H 700.2 4.35099 -4.29533 0
M  V30 7194 H 704.374 4.56486 -5.25922 0
M  V30 7195 H 702.001 4.73167 -5.94994 0
M  V30 7196 N 703.576 0.692616 1.41565 0
M  V30 7197 C 704.824 0.221896 2.00878 0
M  V30 7198 C 705.145 -1.18164 1.5512 0
M  V30 7199 O 704.415 -1.79679 0.78054 0
M  V30 7200 H 702.995 0.0790463 0.742806 0
M  V30 7201 H 705.657 0.893115 1.73232 0
M  V30 7202 H 704.753 0.23702 3.11199 0
M  V30 7203 N 705.054 -1.51416 0.437162 0
M  V30 7204 C 706.302 -2.01687 -0.129108 0
M  V30 7205 C 706.623 -1.32329 -1.43227 0
M  V30 7206 O 705.893 -0.457796 -1.90476 0
M  V30 7207 H 704.473 -0.745277 -0.0507023 0
M  V30 7208 H 707.135 -1.86075 0.579828 0
M  V30 7209 H 706.231 -3.10605 -0.305141 0
M  V30 7210 N 706.532 -0.168513 -1.56696 0
M  V30 7211 C 707.464 0.794249 -2.14998 0
M  V30 7212 C 708.477 1.1957 -1.10485 0
M  V30 7213 O 709.666 1.13604 -1.37682 0
M  V30 7214 C 706.766 2.08018 -2.67547 0
M  V30 7215 C 705.939 1.84274 -3.96689 0
M  V30 7216 C 704.998 2.97059 -4.3433 0
M  V30 7217 O 704.024 2.67815 -5.02259 0
M  V30 7218 N 705.226 4.24775 -3.9566 0
M  V30 7219 H 707.991 0.295832 -2.98236 0
M  V30 7220 H 705.552 0.0143611 -1.61894 0
M  V30 7221 H 707.544 2.82559 -2.89729 0
M  V30 7222 H 706.114 2.49059 -1.88914 0
M  V30 7223 H 705.334 0.936528 -3.82914 0
M  V30 7224 H 706.622 1.65773 -4.81037 0
M  V30 7225 H 706.02 4.51395 -3.40968 0
M  V30 7226 H 704.577 4.96027 -4.22848 0
M  V30 7227 N 708.01 1.57248 0.105221 0
M  V30 7228 C 709.238 1.89768 0.82437 0
M  V30 7229 C 709.653 0.761192 1.72775 0
M  V30 7230 O 709.01 -0.267342 1.80531 0
M  V30 7231 C 709.061 3.2184 1.64625 0
M  V30 7232 O 708.782 4.31115 0.779217 0
M  V30 7233 C 710.283 3.68155 2.46935 0
M  V30 7234 H 707.503 0.628031 0.236259 0
M  V30 7235 H 710.047 2.04321 0.085485 0
M  V30 7236 H 708.202 3.08915 2.33775 0
M  V30 7237 H 708.616 5.06897 1.34745 0
M  V30 7238 H 710.09 4.6329 3.00111 0
M  V30 7239 H 710.567 2.95492 3.24932 0
M  V30 7240 H 711.173 3.83914 1.83002 0
M  V30 7241 N 709.488 -0.375779 1.53054 0
M  V30 7242 C 710.451 -1.44254 1.7811 0
M  V30 7243 C 711.451 -1.47018 0.651328 0
M  V30 7244 O 712.641 -1.47957 0.919472 0
M  V30 7245 C 709.773 -2.8345 1.89391 0
M  V30 7246 H 710.966 -1.23316 2.73374 0
M  V30 7247 H 708.519 -0.608312 1.43977 0
M  V30 7248 H 709.254 -3.09716 0.961589 0
M  V30 7249 H 709.039 -2.82844 2.71555 0
M  V30 7250 H 710.529 -3.60722 2.10404 0
M  V30 7251 N 710.966 -1.44241 -0.634997 0
M  V30 7252 C 711.896 -1.53632 -1.7584 0
M  V30 7253 C 712.877 -0.389603 -1.65578 0
M  V30 7254 O 714.062 -0.609219 -1.84397 0
M  V30 7255 C 711.192 -1.47644 -3.14354 0
M  V30 7256 C 710.146 -2.60752 -3.394 0
M  V30 7257 C 709.472 -2.39817 -4.77904 0
M  V30 7258 C 710.772 -4.02921 -3.32343 0
M  V30 7259 H 712.466 -2.47662 -1.68238 0
M  V30 7260 H 710.012 -1.19197 -0.807969 0
M  V30 7261 H 711.965 -1.52815 -3.92716 0
M  V30 7262 H 710.689 -0.501284 -3.2273 0
M  V30 7263 H 709.348 -2.54965 -2.63417 0
M  V30 7264 H 708.996 -1.40502 -4.82978 0
M  V30 7265 H 708.696 -3.15649 -4.9562 0
M  V30 7266 H 710.22 -2.46799 -5.585 0
M  V30 7267 H 711.634 -4.10098 -4.00615 0
M  V30 7268 H 710.031 -4.78925 -3.61595 0
M  V30 7269 H 711.101 -4.26766 -2.30215 0
M  V30 7270 N 712.444 0.87505 -1.31075 0
M  V30 7271 C 713.392 2.00317 -1.18219 0
M  V30 7272 C 714.386 1.69152 -0.0916872 0
M  V30 7273 O 715.592 1.7821 -0.253229 0
M  V30 7274 H 711.967 0.656981 -0.365895 0
M  V30 7275 H 713.938 2.08293 -2.13674 0
M  V30 7276 C 712.687 3.35821 -0.901095 0
M  V30 7277 H 712.01 3.6032 -1.73233 0
M  V30 7278 H 713.45 4.15366 -0.851295 0
M  V30 7279 C 711.909 3.34563 0.396114 0
M  V30 7280 O 712.439 3.75971 1.41452 0
M  V30 7281 N 710.645 2.87681 0.410832 0
M  V30 7282 H 710.192 2.54179 -0.418415 0
M  V30 7283 H 710.15 2.87223 1.27869 0
M  V30 7284 N 713.922 1.13953 1.08869 0
M  V30 7285 C 715.162 0.915128 1.8277 0
M  V30 7286 C 715.526 -0.548647 1.83994 0
M  V30 7287 O 716.727 -0.890817 2.5361 0
M  V30 7288 C 714.998 1.49382 3.24684 0
M  V30 7289 S 716.557 1.4103 4.15519 0
M  V30 7290 H 713.375 0.329716 0.629927 0
M  V30 7291 H 715.977 1.45213 1.30895 0
M  V30 7292 H 714.681 2.55241 3.21372 0
M  V30 7293 H 714.212 0.955008 3.81632 0
M  V30 7294 H 716.227 0.392617 4.94644 0
M  V30 7295 N 715.4 -1.26948 0.933913 0
M  V30 7296 C 716.648 -1.93704 0.576484 0
M  V30 7297 C 716.969 -1.73702 -0.886145 0
M  V30 7298 O 716.239 -1.08838 -1.62884 0
M  V30 7299 H 714.819 -0.716812 0.210214 0
M  V30 7300 H 717.481 -1.54534 1.18766 0
M  V30 7301 H 716.577 -3.01987 0.788055 0
M  V30 7302 N 716.879 -0.700114 -1.41195 0
M  V30 7303 C 718.125 -0.233351 -2.01453 0
M  V30 7304 C 718.458 1.16548 -1.55339 0
M  V30 7305 O 717.733 1.78756 -0.766575 0
M  V30 7306 C 718.016 -0.2961 -3.58881 0
M  V30 7307 C 717.869 -1.7322 -4.15108 0
M  V30 7308 C 719.188 0.341525 -4.38773 0
M  V30 7309 H 716.307 -0.0862667 -0.731934 0
M  V30 7310 H 718.949 -0.889693 -1.67882 0
M  V30 7311 H 717.099 0.262736 -3.87611 0
M  V30 7312 H 718.771 -2.34523 -3.97236 0
M  V30 7313 H 717.014 -2.2649 -3.69979 0
M  V30 7314 H 717.685 -1.7276 -5.24269 0
M  V30 7315 H 720.161 -0.134461 -4.15883 0
M  V30 7316 H 719.037 0.267098 -5.4825 0
M  V30 7317 H 719.298 1.42289 -4.18577 0
M  V30 7318 N 718.357 1.51182 -0.445186 0
M  V30 7319 C 719.267 2.31692 0.368255 0
M  V30 7320 C 720.283 1.40942 1.02036 0
M  V30 7321 O 721.459 1.74011 1.01401 0
M  V30 7322 C 718.524 3.14903 1.45041 0
M  V30 7323 C 717.585 4.21442 0.817615 0
M  V30 7324 C 716.818 5.00677 1.8482 0
M  V30 7325 O 717.041 4.80644 3.07145 0
M  V30 7326 O 715.975 5.84559 1.43438 0
M  V30 7327 H 719.801 3.0232 -0.289219 0
M  V30 7328 H 717.386 1.47951 -0.207555 0
M  V30 7329 H 719.268 3.66612 2.07783 0
M  V30 7330 H 717.943 2.47031 2.09182 0
M  V30 7331 H 716.85 3.73791 0.151931 0
M  V30 7332 H 718.183 4.9171 0.219564 0
M  V30 7333 N 719.835 0.176821 1.56605 0
M  V30 7334 C 720.765 -0.746841 2.21234 0
M  V30 7335 C 721.746 -1.23502 1.16967 0
M  V30 7336 O 722.931 -1.28718 1.45414 0
M  V30 7337 C 720.061 -1.97407 2.8574 0
M  V30 7338 C 719.015 -1.62153 3.96094 0
M  V30 7339 C 718.341 -2.92387 4.47676 0
M  V30 7340 C 719.641 -0.845353 5.15413 0
M  V30 7341 H 721.335 -0.208116 2.98676 0
M  V30 7342 H 718.881 -0.0986594 1.43662 0
M  V30 7343 H 720.834 -2.62531 3.2963 0
M  V30 7344 H 719.558 -2.53703 2.05676 0
M  V30 7345 H 718.217 -0.993964 3.52868 0
M  V30 7346 H 717.865 -3.46734 3.64396 0
M  V30 7347 H 717.565 -2.69551 5.22127 0
M  V30 7348 H 719.089 -3.5853 4.94255 0
M  V30 7349 H 720.503 -1.39929 5.55961 0
M  V30 7350 H 718.9 -0.715814 5.95815 0
M  V30 7351 H 719.97 0.157239 4.84645 0
M  V30 7352 N 721.313 -1.57302 -0.09688 0
M  V30 7353 C 722.541 -1.90202 -0.814295 0
M  V30 7354 C 722.956 -0.770344 -1.72369 0
M  V30 7355 O 722.313 0.257764 -1.8067 0
M  V30 7356 C 722.364 -3.22708 -1.62916 0
M  V30 7357 O 722.085 -4.31522 -0.756343 0
M  V30 7358 C 723.586 -3.69459 -2.44979 0
M  V30 7359 H 720.806 -0.629275 -0.232925 0
M  V30 7360 H 723.35 -2.04364 -0.0746482 0
M  V30 7361 H 721.505 -3.1015 -2.32133 0
M  V30 7362 H 721.919 -5.07604 -1.32054 0
M  V30 7363 H 723.393 -4.64875 -2.9765 0
M  V30 7364 H 723.87 -2.97211 -3.23361 0
M  V30 7365 H 724.476 -3.84879 -1.80964 0
M  V30 7366 N 722.791 0.367657 -1.53252 0
M  V30 7367 C 723.738 1.45028 -1.79543 0
M  V30 7368 C 724.708 1.53288 -0.63969 0
M  V30 7369 O 725.893 1.69209 -0.881653 0
M  V30 7370 C 723.033 2.82 -1.98923 0
M  V30 7371 C 722.146 2.82722 -3.26638 0
M  V30 7372 C 721.281 4.11257 -3.36216 0
M  V30 7373 C 720.32 4.06113 -4.57972 0
M  V30 7374 N 719.457 5.26293 -4.64715 0
M  V30 7375 H 724.297 1.21908 -2.71923 0
M  V30 7376 H 721.834 0.591011 -1.34705 0
M  V30 7377 H 723.792 3.61568 -2.08146 0
M  V30 7378 H 722.422 3.03523 -1.09881 0
M  V30 7379 H 721.474 1.95399 -3.26379 0
M  V30 7380 H 722.786 2.74794 -4.16281 0
M  V30 7381 H 721.94 4.99239 -3.44739 0
M  V30 7382 H 720.679 4.21935 -2.44586 0
M  V30 7383 H 719.684 3.16517 -4.49552 0
M  V30 7384 H 720.909 3.97039 -5.50942 0
M  V30 7385 H 718.855 5.37561 -3.75985 0
M  V30 7386 H 718.772 5.20526 -5.4826 0
M  V30 7387 H 720.04 6.16113 -4.77519 0
M  V30 7388 N 724.269 1.44576 0.627338 0
M  V30 7389 C 725.232 1.51372 1.72102 0
M  V30 7390 C 726.232 0.395329 1.55865 0
M  V30 7391 O 727.422 0.658094 1.61291 0
M  V30 7392 C 724.554 1.39129 3.11217 0
M  V30 7393 H 725.747 2.48798 1.6745 0
M  V30 7394 H 723.3 1.31724 0.841336 0
M  V30 7395 H 724.035 0.428114 3.21462 0
M  V30 7396 H 723.82 2.20229 3.24409 0
M  V30 7397 H 725.31 1.46874 3.90919 0
M  V30 7398 N 725.747 -0.868086 1.31537 0
M  V30 7399 C 726.995 -1.61807 1.21091 0
M  V30 7400 C 727.316 -1.93631 -0.230623 0
M  V30 7401 O 726.586 -1.5846 -1.15183 0
M  V30 7402 H 725.166 -0.599854 0.445178 0
M  V30 7403 H 727.828 -1.03915 1.64887 0
M  V30 7404 H 726.924 -2.56088 1.78396 0
M  V30 7405 N 727.225 -1.14528 -1.08264 0
M  V30 7406 C 728.471 -0.91576 -1.80947 0
M  V30 7407 C 728.804 0.55623 -1.86064 0
M  V30 7408 O 728.079 1.41207 -1.33756 0
M  V30 7409 C 728.362 -1.51917 -3.26486 0
M  V30 7410 C 728.215 -3.06111 -3.2957 0
M  V30 7411 C 729.534 -1.19724 -4.23502 0
M  V30 7412 H 726.653 -0.334113 -0.656915 0
M  V30 7413 H 729.295 -1.41547 -1.26746 0
M  V30 7414 H 727.445 -1.0942 -3.72773 0
M  V30 7415 H 729.117 -3.57448 -2.91597 0
M  V30 7416 H 727.36 -3.40483 -2.688 0
M  V30 7417 H 728.031 -3.43438 -4.32151 0
M  V30 7418 H 730.507 -1.56467 -3.85561 0
M  V30 7419 H 729.383 -1.64575 -5.23647 0
M  V30 7420 H 729.644 -0.112771 -4.41956 0
M  V30 7421 N 728.703 1.26451 -0.940633 0
M  V30 7422 C 729.633 2.28773 -0.467479 0
M  V30 7423 C 730.614 1.63218 0.478955 0
M  V30 7424 O 731.799 1.90427 0.380929 0
M  V30 7425 C 728.929 3.46259 0.268656 0
M  V30 7426 C 727.883 4.23898 -0.591171 0
M  V30 7427 C 727.209 5.33993 0.274891 0
M  V30 7428 C 728.509 4.87974 -1.86223 0
M  V30 7429 H 730.203 2.68601 -1.32265 0
M  V30 7430 H 727.749 1.29123 -0.637436 0
M  V30 7431 H 729.702 4.16951 0.610696 0
M  V30 7432 H 728.426 3.05383 1.15796 0
M  V30 7433 H 727.085 3.54969 -0.916098 0
M  V30 7434 H 726.733 4.89358 1.16353 0
M  V30 7435 H 726.433 5.86849 -0.297006 0
M  V30 7436 H 727.957 6.07523 0.612213 0
M  V30 7437 H 729.371 5.50883 -1.58747 0
M  V30 7438 H 727.768 5.50945 -2.37866 0
M  V30 7439 H 728.838 4.10945 -2.57394 0
M  V30 7440 N 730.181 0.707592 1.40822 0
M  V30 7441 C 731.144 0.0587224 2.29125 0
M  V30 7442 C 732.144 -0.695624 1.44975 0
M  V30 7443 O 733.334 -0.528718 1.65983 0
M  V30 7444 C 730.466 -0.926939 3.28056 0
M  V30 7445 H 731.659 0.836349 2.88002 0
M  V30 7446 H 729.212 0.471778 1.4901 0
M  V30 7447 H 729.947 -1.7319 2.74182 0
M  V30 7448 H 729.732 -0.389015 3.90165 0
M  V30 7449 H 731.222 -1.37837 3.94196 0
M  V30 7450 N 731.66 -1.50943 0.453197 0
M  V30 7451 C 733.076 -1.59245 0.106342 0
M  V30 7452 C 733.276 -1.46287 -1.38572 0
M  V30 7453 O 732.332 -1.31219 -2.15726 0
M  V30 7454 C 733.645 -2.93797 0.640595 0
M  V30 7455 C 735.193 -3.07148 0.602435 0
M  V30 7456 C 735.668 -4.44247 1.11393 0
M  V30 7457 N 737.159 -4.50611 1.07258 0
M  V30 7458 C 737.894 -5.55049 1.43905 0
M  V30 7459 N 737.39 -6.66828 1.87914 0
M  V30 7460 N 739.183 -5.45494 1.35621 0
M  V30 7461 H 731.334 -1.5761 1.42382 0
M  V30 7462 H 733.597 -0.74384 0.587713 0
M  V30 7463 H 733.303 -3.087 1.68515 0
M  V30 7464 H 733.177 -3.77127 0.0742272 0
M  V30 7465 H 735.564 -2.91903 -0.433171 0
M  V30 7466 H 735.645 -2.25619 1.20539 0
M  V30 7467 H 735.289 -4.60239 2.14808 0
M  V30 7468 H 735.219 -5.2434 0.487353 0
M  V30 7469 H 737.71 -3.70391 0.749585 0
M  V30 7470 H 738.023 -7.42558 2.14072 0
M  V30 7471 H 736.368 -6.67995 1.91853 0
M  V30 7472 H 739.559 -4.57053 1.01093 0
M  V30 7473 H 739.732 -6.2677 1.64508 0
M  V30 7474 N 733.138 -0.185124 -1.56509 0
M  V30 7475 C 734.368 0.461469 -2.0138 0
M  V30 7476 C 734.776 1.56417 -1.06445 0
M  V30 7477 O 734.119 1.83603 -0.0597515 0
M  V30 7478 C 734.181 1.08731 -3.42663 0
M  V30 7479 C 733.845 0.124581 -4.5683 0
M  V30 7480 C 734.842 -0.662295 -5.15664 0
M  V30 7481 C 732.527 0.0163947 -5.02297 0
M  V30 7482 C 734.521 -1.54442 -6.18406 0
M  V30 7483 C 732.208 -0.869301 -6.04885 0
M  V30 7484 C 733.206 -1.64828 -6.62813 0
M  V30 7485 O 732.894 -2.51915 -7.63409 0
M  V30 7486 H 732.626 0.1212 -0.665046 0
M  V30 7487 H 735.18 -0.288119 -2.03369 0
M  V30 7488 H 733.41 1.8853 -3.37629 0
M  V30 7489 H 735.099 1.63753 -3.71403 0
M  V30 7490 H 735.865 -0.588963 -4.81411 0
M  V30 7491 H 731.744 0.61253 -4.56913 0
M  V30 7492 H 735.288 -2.15289 -6.63548 0
M  V30 7493 H 731.185 -0.943786 -6.38563 0
M  V30 7494 H 731.953 -2.45584 -7.80789 0
M  V30 7495 N 734.616 1.57351 0.0885366 0
M  V30 7496 C 735.864 1.86051 0.789262 0
M  V30 7497 C 736.185 0.774763 1.78948 0
M  V30 7498 O 735.455 -0.198324 1.94894 0
M  V30 7499 H 734.035 0.686508 0.294475 0
M  V30 7500 H 736.697 1.94779 0.0686055 0
M  V30 7501 H 735.793 2.83007 1.31581 0
M  V30 7502 N 736.094 -0.359525 1.53444 0
M  V30 7503 C 737.34 -1.10315 1.70172 0
M  V30 7504 C 737.673 -1.88788 0.455287 0
M  V30 7505 O 736.948 -1.86635 -0.547514 0
M  V30 7506 C 737.231 -2.05744 2.95536 0
M  V30 7507 C 737.084 -1.3084 4.3035 0
M  V30 7508 C 738.403 -3.05784 3.16518 0
M  V30 7509 H 735.522 -0.399662 0.619225 0
M  V30 7510 H 738.164 -0.383338 1.86093 0
M  V30 7511 H 736.314 -2.67125 2.82093 0
M  V30 7512 H 737.986 -0.721959 4.55615 0
M  V30 7513 H 736.229 -0.610283 4.29486 0
M  V30 7514 H 736.9 -2.00718 5.14214 0
M  V30 7515 H 739.376 -2.5451 3.29187 0
M  V30 7516 H 738.252 -3.69772 4.05659 0
M  V30 7517 H 738.513 -3.76289 2.32076 0
M  V30 7518 N 737.572 -1.44907 -0.619662 0
M  V30 7519 C 738.988 -1.29046 -0.939107 0
M  V30 7520 C 739.188 -0.23462 -2.00129 0
M  V30 7521 O 738.244 0.37558 -2.49691 0
M  V30 7522 C 739.557 -2.66567 -1.39149 0
M  V30 7523 C 741.105 -2.74368 -1.50635 0
M  V30 7524 C 741.58 -4.12386 -1.99253 0
M  V30 7525 N 743.071 -4.1462 -2.06506 0
M  V30 7526 C 743.806 -5.18272 -2.4532 0
M  V30 7527 N 743.302 -6.32278 -2.83189 0
M  V30 7528 N 745.095 -5.05628 -2.45554 0
M  V30 7529 H 737.246 -2.12239 0.0826135 0
M  V30 7530 H 739.509 -0.947652 -0.0256829 0
M  V30 7531 H 739.215 -3.4496 -0.685254 0
M  V30 7532 H 739.089 -2.94224 -2.36034 0
M  V30 7533 H 741.476 -1.96287 -2.20353 0
M  V30 7534 H 741.557 -2.50439 -0.520963 0
M  V30 7535 H 741.201 -4.90947 -1.30127 0
M  V30 7536 H 741.131 -4.33699 -2.98684 0
M  V30 7537 H 743.622 -3.32343 -1.79878 0
M  V30 7538 H 743.935 -7.07172 -3.11652 0
M  V30 7539 H 742.28 -6.35699 -2.80913 0
M  V30 7540 H 745.471 -4.15613 -2.15367 0
M  V30 7541 H 745.644 -5.86529 -2.75478 0
M  V30 7542 N 739.05 0.861098 -1.31996 0
M  V30 7543 C 740.296 1.61721 -1.22369 0
M  V30 7544 C 740.629 1.93 0.215587 0
M  V30 7545 O 739.904 1.56789 1.15098 0
M  V30 7546 C 740.187 2.9417 -2.07691 0
M  V30 7547 C 740.04 2.69714 -3.59965 0
M  V30 7548 C 741.359 3.95372 -1.93312 0
M  V30 7549 H 738.478 0.586822 -0.44588 0
M  V30 7550 H 741.12 0.994788 -1.61876 0
M  V30 7551 H 739.27 3.47292 -1.74128 0
M  V30 7552 H 740.942 2.23196 -4.03709 0
M  V30 7553 H 739.185 2.03789 -3.82952 0
M  V30 7554 H 739.856 3.63996 -4.14983 0
M  V30 7555 H 742.332 3.51487 -2.22701 0
M  V30 7556 H 741.208 4.85916 -2.55298 0
M  V30 7557 H 741.469 4.32865 -0.898922 0
M  V30 7558 N 740.528 1.15101 1.07655 0
M  V30 7559 C 741.458 0.867864 2.16773 0
M  V30 7560 C 742.439 -0.180283 1.69142 0
M  V30 7561 O 743.624 -0.0353152 1.94168 0
M  V30 7562 C 740.754 0.35299 3.45501 0
M  V30 7563 C 739.708 1.33746 4.06566 0
M  V30 7564 C 739.034 0.681562 5.30338 0
M  V30 7565 C 740.334 2.7024 4.46954 0
M  V30 7566 H 742.028 1.78034 2.40716 0
M  V30 7567 H 739.574 0.857435 1.15689 0
M  V30 7568 H 741.527 0.142465 4.21159 0
M  V30 7569 H 740.251 -0.594945 3.21135 0
M  V30 7570 H 738.91 1.53429 3.32949 0
M  V30 7571 H 738.558 -0.272422 5.02262 0
M  V30 7572 H 738.258 1.33853 5.72151 0
M  V30 7573 H 739.782 0.48074 6.08705 0
M  V30 7574 H 741.196 2.5442 5.13754 0
M  V30 7575 H 739.593 3.32282 4.99709 0
M  V30 7576 H 740.663 3.26537 3.58471 0
M  V30 7577 N 742.006 -1.2595 0.947325 0
M  V30 7578 C 743.254 -1.93081 0.596996 0
M  V30 7579 C 743.575 -1.74632 -0.867672 0
M  V30 7580 O 742.845 -1.1056 -1.6172 0
M  V30 7581 H 741.425 -0.714542 0.217805 0
M  V30 7582 H 744.087 -1.53265 1.20398 0
M  V30 7583 H 743.183 -3.01134 0.82004 0
M  V30 7584 N 743.484 -0.715051 -1.40445 0
M  V30 7585 C 744.712 -0.263959 -2.05209 0
M  V30 7586 C 745.127 1.09403 -1.53871 0
M  V30 7587 O 744.484 1.68746 -0.695064 0
M  V30 7588 C 744.535 -0.234545 -3.60738 0
M  V30 7589 O 744.256 -1.53891 -4.10182 0
M  V30 7590 C 745.757 0.235164 -4.42676 0
M  V30 7591 H 742.977 -0.11876 -0.660407 0
M  V30 7592 H 745.521 -0.973107 -1.79864 0
M  V30 7593 H 743.676 0.425563 -3.85055 0
M  V30 7594 H 744.09 -1.43903 -5.04373 0
M  V30 7595 H 745.564 0.204598 -5.51621 0
M  V30 7596 H 746.041 1.27724 -4.20218 0
M  V30 7597 H 746.647 -0.394649 -4.23465 0
M  V30 7598 N 744.962 1.50701 -0.461195 0
M  V30 7599 C 746.373 1.867 -0.00370227 0
M  V30 7600 C 746.724 1.37673 1.39787 0
M  V30 7601 O 745.849 0.737515 2.03445 0
M  V30 7602 C 746.444 3.388 5.75786e-05 0
M  V30 7603 C 745.003 3.74247 0.402044 0
M  V30 7604 C 744.15 2.74549 -0.389652 0
M  V30 7605 H 747.101 1.43585 -0.675942 0
M  V30 7606 H 747.122 3.719 0.804414 0
M  V30 7607 H 746.634 3.74452 -1.02015 0
M  V30 7608 H 744.735 3.44192 1.42697 0
M  V30 7609 H 744.848 4.78973 0.110265 0
M  V30 7610 H 743.212 2.54226 0.155314 0
M  V30 7611 H 743.995 3.13044 -1.40919 0
M  V30 7612 N 746.441 0.193421 1.56409 0
M  V30 7613 C 747.687 -0.446449 1.97825 0
M  V30 7614 C 748.02 -1.61386 1.08019 0
M  V30 7615 O 747.295 -1.94053 0.131839 0
M  V30 7616 C 747.578 -0.908199 3.48459 0
M  V30 7617 C 747.431 0.260914 4.49043 0
M  V30 7618 C 748.75 -1.77428 4.0275 0
M  V30 7619 H 745.869 -0.160807 0.719243 0
M  V30 7620 H 748.511 0.284006 1.87865 0
M  V30 7621 H 746.661 -1.53062 3.57077 0
M  V30 7622 H 748.333 0.898548 4.52464 0
M  V30 7623 H 746.576 0.912949 4.24085 0
M  V30 7624 H 747.247 -0.104657 5.51901 0
M  V30 7625 H 749.723 -1.24936 3.96901 0
M  V30 7626 H 748.599 -2.06633 5.08521 0
M  V30 7627 H 748.86 -2.72788 3.47907 0
M  V30 7628 N 747.919 -1.57396 -0.0801906 0
M  V30 7629 C 748.829 -2.06451 -1.11423 0
M  V30 7630 C 749.845 -0.992352 -1.42928 0
M  V30 7631 O 751.021 -1.30651 -1.53272 0
M  V30 7632 C 748.086 -2.49164 -2.41077 0
M  V30 7633 C 747.147 -3.70641 -2.16619 0
M  V30 7634 C 746.38 -4.11307 -3.40092 0
M  V30 7635 O 746.603 -3.51922 -4.48895 0
M  V30 7636 O 745.537 -5.04157 -3.288 0
M  V30 7637 H 749.363 -2.94857 -0.727519 0
M  V30 7638 H 746.948 -1.46484 -0.293743 0
M  V30 7639 H 748.83 -2.77196 -3.17396 0
M  V30 7640 H 747.505 -1.6389 -2.79145 0
M  V30 7641 H 746.412 -3.47703 -1.38033 0
M  V30 7642 H 747.745 -4.5674 -1.83437 0
M  V30 7643 N 749.397 0.351382 -1.53633 0
M  V30 7644 C 750.625 1.11275 -1.74429 0
M  V30 7645 C 751.04 1.82602 -0.479798 0
M  V30 7646 O 750.397 1.74074 0.548125 0
M  V30 7647 C 750.448 2.13223 -2.91921 0
M  V30 7648 O 750.169 1.44798 -4.13479 0
M  V30 7649 C 751.67 3.01797 -3.24706 0
M  V30 7650 H 748.89 0.332153 -0.583023 0
M  V30 7651 H 751.434 0.405974 -2.0043 0
M  V30 7652 H 749.589 2.79477 -2.68274 0
M  V30 7653 H 750.003 2.12839 -4.79374 0
M  V30 7654 H 751.477 3.69282 -4.10286 0
M  V30 7655 H 751.954 3.67387 -2.40673 0
M  V30 7656 H 752.56 2.41141 -3.5033 0
M  V30 7657 N 750.875 1.45233 0.611969 0
M  V30 7658 C 752.124 1.48296 1.36716 0
M  V30 7659 C 752.437 0.12706 1.95187 0
M  V30 7660 O 753.643 0.0353066 2.71477 0
M  V30 7661 C 752.099 2.61168 2.47627 0
M  V30 7662 C 751.707 4.03051 1.95587 0
M  V30 7663 C 753.451 2.73472 3.24674 0
M  V30 7664 C 751.358 5.07312 3.03954 0
M  V30 7665 H 750.288 0.5518 0.513841 0
M  V30 7666 H 752.939 1.7136 0.656359 0
M  V30 7667 H 751.321 2.31379 3.21372 0
M  V30 7668 H 752.495 4.42497 1.2858 0
M  V30 7669 H 750.81 3.95158 1.31298 0
M  V30 7670 H 753.407 3.48537 4.05494 0
M  V30 7671 H 753.75 1.79953 3.75397 0
M  V30 7672 H 754.283 3.02765 2.58028 0
M  V30 7673 H 751.022 6.02525 2.58154 0
M  V30 7674 H 750.542 4.7244 3.69541 0
M  V30 7675 H 752.221 5.31867 3.6841 0
M  V30 7676 N 752.353 -0.854086 1.3245 0
M  V30 7677 C 753.263 -1.99503 1.23434 0
M  V30 7678 C 754.279 -1.73371 0.147828 0
M  V30 7679 O 755.455 -1.97998 0.368609 0
M  V30 7680 C 752.52 -3.33192 0.958328 0
M  V30 7681 C 751.581 -3.72542 2.13333 0
M  V30 7682 C 750.814 -4.99852 1.8704 0
M  V30 7683 O 751.037 -5.64573 0.813239 0
M  V30 7684 O 749.971 -5.36345 2.73161 0
M  V30 7685 H 753.797 -2.10046 2.1935 0
M  V30 7686 H 751.382 -0.984823 1.12346 0
M  V30 7687 H 753.264 -4.13327 0.820918 0
M  V30 7688 H 751.939 -3.23687 0.0293299 0
M  V30 7689 H 750.846 -2.92981 2.32622 0
M  V30 7690 H 752.179 -3.86694 3.04514 0
M  V30 7691 N 753.831 -1.1567 -1.07043 0
M  V30 7692 C 754.761 -0.879348 -2.16309 0
M  V30 7693 C 755.742 0.171311 -1.69235 0
M  V30 7694 O 756.927 0.0250175 -1.94184 0
M  V30 7695 C 754.057 -0.371307 -3.45309 0
M  V30 7696 C 753.011 -1.359 -4.05851 0
M  V30 7697 C 752.337 -0.709678 -5.29969 0
M  V30 7698 C 753.637 -2.72606 -4.45514 0
M  V30 7699 H 755.331 -1.79308 -2.39768 0
M  V30 7700 H 752.877 -0.863558 -1.15233 0
M  V30 7701 H 754.83 -0.164798 -4.21078 0
M  V30 7702 H 753.554 0.577906 -3.21446 0
M  V30 7703 H 752.213 -1.55193 -3.32131 0
M  V30 7704 H 751.861 0.245782 -5.02399 0
M  V30 7705 H 751.561 -1.36886 -5.71433 0
M  V30 7706 H 753.085 -0.513015 -6.08441 0
M  V30 7707 H 754.499 -2.57141 -5.12398 0
M  V30 7708 H 752.896 -3.34927 -4.97939 0
M  V30 7709 H 753.966 -3.28434 -3.56734 0
M  V30 7710 N 755.309 1.25446 -0.953992 0
M  V30 7711 C 756.537 1.97215 -0.625595 0
M  V30 7712 C 756.952 1.70911 0.802168 0
M  V30 7713 O 756.309 0.984782 1.5365 0
M  V30 7714 C 756.36 3.50777 -0.873943 0
M  V30 7715 O 756.081 3.76173 -2.24556 0
M  V30 7716 C 757.582 4.39776 -0.557845 0
M  V30 7717 H 754.802 0.628652 -0.2346 0
M  V30 7718 H 757.346 1.59632 -1.27819 0
M  V30 7719 H 755.501 3.86474 -0.267765 0
M  V30 7720 H 755.915 4.70636 -2.31522 0
M  V30 7721 H 757.389 5.46431 -0.782157 0
M  V30 7722 H 757.866 4.36257 0.507573 0
M  V30 7723 H 758.472 4.09644 -1.14332 0
M  V30 7724 N 756.787 0.722489 1.40064 0
M  V30 7725 C 757.697 0.0755984 2.34478 0
M  V30 7726 C 758.713 -0.736046 1.57665 0
M  V30 7727 O 759.889 -0.667407 1.9002 0
M  V30 7728 C 756.954 -0.830075 3.36616 0
M  V30 7729 C 756.015 -0.00759884 4.29299 0
M  V30 7730 C 755.248 -0.870139 5.26559 0
M  V30 7731 O 755.471 -2.10921 5.2997 0
M  V30 7732 O 754.405 -0.305454 6.01124 0
M  V30 7733 H 758.231 0.854545 2.9143 0
M  V30 7734 H 755.816 0.483032 1.41376 0
M  V30 7735 H 757.698 -1.34864 3.99236 0
M  V30 7736 H 756.373 -1.58805 2.82069 0
M  V30 7737 H 755.28 0.556199 3.69942 0
M  V30 7738 H 756.613 0.712312 4.87018 0
M  V30 7739 N 758.265 -1.50454 0.469181 0
M  V30 7740 C 759.542 -1.9504 -0.147955 0
M  V30 7741 C 759.922 -1.40946 -1.57154 0
M  V30 7742 O 759.27 -0.609663 -2.20217 0
M  V30 7743 C 759.48 -3.48875 -0.0932198 0
M  V30 7744 C 760.828 -4.23655 -0.283056 0
M  V30 7745 O 761.852 -3.55795 -0.169892 0
M  V30 7746 O 760.711 -5.44102 -0.511396 0
M  V30 7747 H 757.805 -0.819283 -0.11271 0
M  V30 7748 H 760.351 -1.6123 0.529446 0
M  V30 7749 H 759.123 -3.80791 0.900784 0
M  V30 7750 H 758.746 -3.89217 -0.812161 0
M  V30 7751 N 759.743 -0.201713 -1.56304 0
M  V30 7752 C 761.159 0.154025 -1.58855 0
M  V30 7753 C 761.359 1.60516 -1.21807 0
M  V30 7754 O 760.415 2.34193 -0.94393 0
M  V30 7755 C 761.728 -0.154319 -3.00304 0
M  V30 7756 C 763.276 -0.0949578 -3.12856 0
M  V30 7757 C 763.751 -0.376703 -4.56448 0
M  V30 7758 N 765.242 -0.325558 -4.62054 0
M  V30 7759 C 765.977 -0.51732 -5.71062 0
M  V30 7760 N 765.473 -0.769789 -6.8851 0
M  V30 7761 N 767.266 -0.45112 -5.60287 0
M  V30 7762 H 759.417 -1.14858 -1.78666 0
M  V30 7763 H 761.68 -0.458934 -0.829508 0
M  V30 7764 H 761.386 -1.16074 -3.31994 0
M  V30 7765 H 761.26 0.540014 -3.73314 0
M  V30 7766 H 763.647 0.902075 -2.80974 0
M  V30 7767 H 763.728 -0.822468 -2.42217 0
M  V30 7768 H 763.372 -1.37108 -4.89044 0
M  V30 7769 H 763.302 0.371772 -5.25286 0
M  V30 7770 H 765.793 -0.137308 -3.7765 0
M  V30 7771 H 766.106 -0.904744 -7.67486 0
M  V30 7772 H 764.451 -0.806758 -6.90302 0
M  V30 7773 H 767.642 -0.254253 -4.67409 0
M  V30 7774 H 767.815 -0.603982 -6.45179 0
M  V30 7775 N 761.222 1.57436 0.0718424 0
M  V30 7776 C 762.638 1.53792 0.426628 0
M  V30 7777 C 762.838 0.921887 1.79174 0
M  V30 7778 O 761.894 0.524374 2.46995 0
M  V30 7779 C 763.207 2.98443 0.367739 0
M  V30 7780 C 764.755 3.09778 0.447928 0
M  V30 7781 C 765.23 4.5608 0.418946 0
M  V30 7782 N 766.721 4.60716 0.479022 0
M  V30 7783 C 767.456 5.71397 0.47881 0
M  V30 7784 N 766.952 6.91443 0.433417 0
M  V30 7785 N 768.745 5.59639 0.525364 0
M  V30 7786 H 760.896 1.95848 -0.822033 0
M  V30 7787 H 763.159 0.896418 -0.308447 0
M  V30 7788 H 762.865 3.47072 -0.56865 0
M  V30 7789 H 762.739 3.58335 1.17795 0
M  V30 7790 H 765.126 2.61122 1.37474 0
M  V30 7791 H 765.207 2.52796 -0.390857 0
M  V30 7792 H 764.851 5.05393 -0.504016 0
M  V30 7793 H 764.781 5.10925 1.27526 0
M  V30 7794 H 767.272 3.74328 0.518355 0
M  V30 7795 H 767.585 7.71562 0.43718 0
M  V30 7796 H 765.93 6.93847 0.400106 0
M  V30 7797 H 769.121 4.64756 0.558519 0
M  V30 7798 H 769.294 6.45896 0.52173 0
M  V30 7799 N 762.7 -0.34323 1.53817 0
M  V30 7800 C 763.663 -1.40444 1.8113 0
M  V30 7801 C 764.663 -1.45604 0.682366 0
M  V30 7802 O 765.853 -1.45974 0.950649 0
M  V30 7803 C 762.985 -2.79369 1.95361 0
M  V30 7804 H 764.178 -1.17489 2.75928 0
M  V30 7805 H 761.731 -0.577636 1.45234 0
M  V30 7806 H 762.466 -3.07607 1.02707 0
M  V30 7807 H 762.251 -2.7702 2.77493 0
M  V30 7808 H 763.741 -3.56178 2.18008 0
M  V30 7809 N 764.178 -1.45556 -0.604258 0
M  V30 7810 C 765.425 -1.49746 -1.36317 0
M  V30 7811 C 765.753 -0.140516 -1.93992 0
M  V30 7812 O 765.008 0.861244 -1.7573 0
M  V30 7813 C 765.307 -2.52697 -2.52743 0
M  V30 7814 C 764.973 -3.97315 -2.13195 0
M  V30 7815 C 763.635 -4.36692 -2.02123 0
M  V30 7816 C 765.987 -4.88249 -1.8238 0
M  V30 7817 C 763.315 -5.64895 -1.58463 0
M  V30 7818 C 765.667 -6.16867 -1.40205 0
M  V30 7819 C 764.331 -6.55172 -1.27694 0
M  V30 7820 H 763.601 -0.54796 -0.49882 0
M  V30 7821 H 766.248 -1.7892 -0.682643 0
M  V30 7822 H 764.553 -2.17105 -3.26148 0
M  V30 7823 H 766.25 -2.53176 -3.10971 0
M  V30 7824 H 762.84 -3.66176 -2.22739 0
M  V30 7825 H 767.024 -4.58561 -1.89829 0
M  V30 7826 H 762.28 -5.93365 -1.47402 0
M  V30 7827 H 766.454 -6.86771 -1.15408 0
M  V30 7828 H 764.081 -7.54411 -0.936375 0
M  V30 7829 N 765.656 0.84705 -1.32902 0
M  V30 7830 C 766.619 1.9378 -1.224 0
M  V30 7831 C 767.619 1.60144 -0.145108 0
M  V30 7832 O 768.809 1.69638 -0.396058 0
M  V30 7833 C 765.941 3.29234 -0.884174 0
M  V30 7834 H 767.134 2.04518 -2.19345 0
M  V30 7835 H 764.687 1.03816 -1.16842 0
M  V30 7836 H 765.422 3.24193 0.0831277 0
M  V30 7837 H 765.207 3.55026 -1.6643 0
M  V30 7838 H 766.697 4.09162 -0.835226 0
M  V30 7839 N 767.134 1.16236 1.06428 0
M  V30 7840 C 768.097 0.870163 2.1204 0
M  V30 7841 C 769.097 -0.134239 1.60239 0
M  V30 7842 O 770.287 0.0964932 1.73933 0
M  V30 7843 C 767.419 0.301033 3.39568 0
M  V30 7844 H 768.612 1.8064 2.39394 0
M  V30 7845 H 766.165 0.971116 1.2247 0
M  V30 7846 H 766.9 -0.642948 3.17863 0
M  V30 7847 H 766.685 1.02475 3.78472 0
M  V30 7848 H 768.175 0.114494 4.17443 0
M  V30 7849 N 768.612 -1.24939 0.960631 0
M  V30 7850 C 770.028 -1.45039 0.666018 0
M  V30 7851 C 770.228 -1.86021 -0.774501 0
M  V30 7852 O 769.284 -1.99392 -1.54916 0
M  V30 7853 C 770.597 -2.51775 1.64408 0
M  V30 7854 C 772.145 -2.6561 1.65592 0
M  V30 7855 C 772.62 -3.75536 2.62177 0
M  V30 7856 N 774.111 -3.82954 2.60577 0
M  V30 7857 C 774.846 -4.67517 3.31987 0
M  V30 7858 N 774.342 -5.56321 4.1289 0
M  V30 7859 N 776.135 -4.61535 3.20845 0
M  V30 7860 H 768.286 -0.96632 1.89145 0
M  V30 7861 H 770.549 -0.486034 0.813926 0
M  V30 7862 H 770.255 -2.28534 2.67329 0
M  V30 7863 H 770.129 -3.49804 1.41128 0
M  V30 7864 H 772.516 -2.88212 0.633846 0
M  V30 7865 H 772.597 -1.67962 1.92931 0
M  V30 7866 H 772.241 -3.53684 3.64514 0
M  V30 7867 H 772.171 -4.72682 2.32119 0
M  V30 7868 H 774.662 -3.19478 2.01847 0
M  V30 7869 H 774.975 -6.17787 4.64283 0
M  V30 7870 H 773.32 -5.5601 4.16987 0
M  V30 7871 H 776.511 -3.91169 2.57108 0
M  V30 7872 H 776.684 -5.27214 3.76762 0
M  V30 7873 N 770.09 -0.729906 -1.39679 0
M  V30 7874 C 771.023 -0.0354454 -2.28172 0
M  V30 7875 C 772.001 0.752968 -1.44115 0
M  V30 7876 O 773.185 0.736599 -1.73512 0
M  V30 7877 C 770.312 0.957047 -3.24897 0
M  V30 7878 C 769.358 0.257734 -4.25721 0
M  V30 7879 S 770.191 -1.02466 -5.25605 0
M  V30 7880 C 771.347 -0.0346322 -6.2589 0
M  V30 7881 H 771.58 -0.785922 -2.86724 0
M  V30 7882 H 769.113 -0.521497 -1.45326 0
M  V30 7883 H 771.071 1.52441 -3.81146 0
M  V30 7884 H 769.732 1.68033 -2.65375 0
M  V30 7885 H 768.925 1.00854 -4.93806 0
M  V30 7886 H 768.527 -0.237454 -3.73245 0
M  V30 7887 H 770.819 0.807464 -6.72671 0
M  V30 7888 H 771.762 -0.682491 -7.04803 0
M  V30 7889 H 772.17 0.335492 -5.63502 0
M  V30 7890 N 771.568 1.50203 -0.477153 0
M  V30 7891 C 772.531 2.27194 0.302599 0
M  V30 7892 C 773.531 1.32221 0.915112 0
M  V30 7893 O 774.721 1.55593 0.783348 0
M  V30 7894 C 771.853 3.0938 1.43167 0
M  V30 7895 H 773.046 2.97575 -0.372678 0
M  V30 7896 H 770.599 1.54578 -0.231392 0
M  V30 7897 H 771.334 2.43509 2.14182 0
M  V30 7898 H 771.119 3.79181 0.998197 0
M  V30 7899 H 772.609 3.67592 1.98157 0
M  V30 7900 N 773.046 0.209999 1.56195 0
M  V30 7901 C 773.956 -0.716459 2.23392 0
M  V30 7902 C 774.972 -1.22291 1.23778 0
M  V30 7903 O 776.148 -1.26694 1.56558 0
M  V30 7904 C 773.213 -1.91261 2.89172 0
M  V30 7905 C 772.274 -1.44927 4.04097 0
M  V30 7906 C 771.507 -2.5884 4.66731 0
M  V30 7907 O 771.73 -3.76693 4.2832 0
M  V30 7908 O 770.664 -2.30701 5.55932 0
M  V30 7909 H 774.49 -0.174089 3.03201 0
M  V30 7910 H 772.075 -0.0199505 1.49387 0
M  V30 7911 H 773.957 -2.6114 3.30733 0
M  V30 7912 H 772.632 -2.4433 2.12331 0
M  V30 7913 H 771.539 -0.718839 3.67129 0
M  V30 7914 H 772.872 -0.965084 4.82646 0
M  V30 7915 N 774.524 -1.57472 -0.0634922 0
M  V30 7916 C 775.773 -1.86837 -0.759928 0
M  V30 7917 C 776.086 -0.803823 -1.7832 0
M  V30 7918 O 777.292 -0.985578 -2.52979 0
M  V30 7919 C 775.748 -3.31448 -1.4025 0
M  V30 7920 C 775.356 -4.46052 -0.417368 0
M  V30 7921 C 777.1 -3.70003 -2.08082 0
M  V30 7922 C 775.007 -5.81707 -1.06633 0
M  V30 7923 H 773.937 -0.697009 -0.287567 0
M  V30 7924 H 776.588 -1.83495 -0.0133914 0
M  V30 7925 H 774.97 -3.29427 -2.19759 0
M  V30 7926 H 776.144 -4.5948 0.348503 0
M  V30 7927 H 774.459 -4.16104 0.156955 0
M  V30 7928 H 777.056 -4.68653 -2.57426 0
M  V30 7929 H 777.399 -3.00226 -2.88393 0
M  V30 7930 H 777.932 -3.7405 -1.35394 0
M  V30 7931 H 774.671 -6.54798 -0.303374 0
M  V30 7932 H 774.191 -5.72064 -1.80286 0
M  V30 7933 H 775.87 -6.27317 -1.58376 0
M  V30 7934 N 776.003 0.335068 -1.53997 0
M  V30 7935 C 777.251 1.07223 -1.71312 0
M  V30 7936 C 777.572 1.88911 -0.483486 0
M  V30 7937 O 776.842 1.89344 0.50257 0
M  V30 7938 H 775.422 0.398846 -0.63161 0
M  V30 7939 H 778.084 0.374288 -1.91272 0
M  V30 7940 H 777.18 1.7448 -2.58772 0
M  V30 7941 N 777.481 1.45874 0.596531 0
M  V30 7942 C 778.391 1.57947 1.73464 0
M  V30 7943 C 779.407 0.463461 1.67714 0
M  V30 7944 O 780.583 0.725685 1.87872 0
M  V30 7945 C 777.648 1.55348 3.09948 0
M  V30 7946 C 776.709 2.78074 3.27068 0
M  V30 7947 C 775.942 2.75589 4.57041 0
M  V30 7948 O 776.165 1.83545 5.40063 0
M  V30 7949 O 775.099 3.66945 4.77111 0
M  V30 7950 H 778.925 2.54169 1.66228 0
M  V30 7951 H 776.51 1.2851 0.76194 0
M  V30 7952 H 778.392 1.56545 3.91244 0
M  V30 7953 H 777.067 0.622811 3.17652 0
M  V30 7954 H 775.974 2.82435 2.45319 0
M  V30 7955 H 777.307 3.70303 3.24248 0
M  V30 7956 N 778.959 -0.83999 1.33349 0
M  V30 7957 C 779.909 -1.93817 1.20079 0
M  V30 7958 C 780.893 -1.60564 0.103978 0
M  V30 7959 O 782.085 -1.73859 0.331964 0
M  V30 7960 C 779.214 -3.30151 0.941031 0
M  V30 7961 C 778.3 -3.69577 2.08023 0
M  V30 7962 N 778.691 -3.80707 3.3301 0
M  V30 7963 C 776.989 -3.99309 1.98667 0
M  V30 7964 C 777.69 -4.14899 4.07717 0
M  V30 7965 N 776.666 -4.27208 3.36146 0
M  V30 7966 H 780.468 -2.00576 2.14817 0
M  V30 7967 H 777.982 -1.03264 1.2534 0
M  V30 7968 H 779.979 -4.08617 0.826894 0
M  V30 7969 H 778.639 -3.247 0.00216738 0
M  V30 7970 H 779.65 -3.64644 3.67771 0
M  V30 7971 H 776.327 -4.02076 1.12433 0
M  V30 7972 H 777.717 -4.30857 5.15569 0
M  V30 7973 N 780.437 -1.16799 -1.0581 0
M  V30 7974 C 781.683 -0.953935 -1.78963 0
M  V30 7975 C 782.016 0.516638 -1.87202 0
M  V30 7976 O 781.291 1.38338 -1.36721 0
M  V30 7977 C 781.574 -1.58808 -3.23191 0
M  V30 7978 C 781.427 -3.13032 -3.23003 0
M  V30 7979 C 782.746 -1.2868 -4.20867 0
M  V30 7980 H 779.865 -0.347972 -0.64968 0
M  V30 7981 H 782.507 -1.44204 -1.23715 0
M  V30 7982 H 780.657 -1.17303 -3.70368 0
M  V30 7983 H 782.329 -3.63553 -2.83949 0
M  V30 7984 H 780.572 -3.46108 -2.61518 0
M  V30 7985 H 781.243 -3.52527 -4.24769 0
M  V30 7986 H 783.719 -1.6461 -3.82155 0
M  V30 7987 H 782.595 -1.75645 -5.20038 0
M  V30 7988 H 782.856 -0.206491 -4.41618 0
M  V30 7989 N 781.915 1.24427 -0.967243 0
M  V30 7990 C 782.878 2.23637 -0.501927 0
M  V30 7991 C 783.878 1.55712 0.401283 0
M  V30 7992 O 785.068 1.73085 0.196808 0
M  V30 7993 C 782.2 3.39804 0.273176 0
M  V30 7994 H 783.393 2.66317 -1.37897 0
M  V30 7995 H 780.946 1.37033 -0.751783 0
M  V30 7996 H 781.681 3.02562 1.16733 0
M  V30 7997 H 781.466 3.90303 -0.37498 0
M  V30 7998 H 782.956 4.13443 0.587776 0
M  V30 7999 N 783.393 0.737304 1.3929 0
M  V30 8000 C 784.804 0.355966 1.83275 0
M  V30 8001 C 785.155 -1.11295 1.6158 0
M  V30 8002 O 784.28 -1.85871 1.10819 0
M  V30 8003 C 784.875 0.63931 3.32713 0
M  V30 8004 C 783.434 0.31144 3.75109 0
M  V30 8005 C 782.581 0.900765 2.62262 0
M  V30 8006 H 785.532 0.934763 1.28249 0
M  V30 8007 H 785.553 -0.0881293 3.80398 0
M  V30 8008 H 785.065 1.70847 3.48472 0
M  V30 8009 H 783.166 -0.751791 3.64937 0
M  V30 8010 H 783.279 0.795611 4.72448 0
M  V30 8011 H 781.643 0.327239 2.52589 0
M  V30 8012 H 782.426 1.97463 2.80826 0
M  V30 8013 N 784.871 -1.49948 0.485112 0
M  V30 8014 C 786.096 -2.073 -0.0645059 0
M  V30 8015 C 786.521 -1.345 -1.31497 0
M  V30 8016 O 785.879 -0.39687 -1.76903 0
M  V30 8017 C 785.927 -3.59201 -0.317304 0
M  V30 8018 O 785.031 -3.88085 -1.39514 0
M  V30 8019 H 784.372 -0.663723 0.0191822 0
M  V30 8020 H 786.902 -1.92963 0.680179 0
M  V30 8021 H 786.912 -4.04227 -0.553604 0
M  V30 8022 H 785.587 -4.11602 0.596387 0
M  V30 8023 H 784.164 -3.54885 -1.14504 0
M  V30 8024 N 786.349 -0.21828 -1.56081 0
M  V30 8025 C 787.259 0.704602 -2.23769 0
M  V30 8026 C 788.275 1.21633 -1.24425 0
M  V30 8027 O 789.451 1.25862 -1.57228 0
M  V30 8028 C 786.516 1.89725 -2.90182 0
M  V30 8029 C 785.577 1.42782 -4.0486 0
M  V30 8030 C 784.81 2.56361 -4.68097 0
M  V30 8031 O 785.033 3.74417 -4.30312 0
M  V30 8032 O 783.967 2.2775 -5.57148 0
M  V30 8033 H 787.793 0.158007 -3.03289 0
M  V30 8034 H 785.378 0.0120279 -1.49395 0
M  V30 8035 H 787.26 2.59382 -3.32113 0
M  V30 8036 H 785.935 2.432 -2.13624 0
M  V30 8037 H 784.842 0.699359 -3.67505 0
M  V30 8038 H 786.175 0.939474 -4.83151 0
M  V30 8039 N 787.827 1.57504 0.0551401 0
M  V30 8040 C 788.79 2.03826 1.04821 0
M  V30 8041 C 789.79 0.937968 1.30609 0
M  V30 8042 O 790.98 1.20237 1.2605 0
M  V30 8043 C 788.112 2.43309 2.38775 0
M  V30 8044 H 789.305 2.92802 0.6486 0
M  V30 8045 H 786.858 1.53368 0.301315 0
M  V30 8046 H 787.593 1.5741 2.83536 0
M  V30 8047 H 787.378 3.23615 2.21395 0
M  V30 8048 H 788.868 2.79666 3.10124 0
M  V30 8049 N 789.305 -0.326896 1.54172 0
M  V30 8050 C 790.268 -1.38515 1.8261 0
M  V30 8051 C 791.268 -1.44872 0.697771 0
M  V30 8052 O 792.458 -1.44957 0.966078 0
M  V30 8053 C 789.59 -2.77281 1.98313 0
M  V30 8054 H 790.783 -1.14556 2.77159 0
M  V30 8055 H 788.336 -0.562199 1.45839 0
M  V30 8056 H 789.071 -3.065 1.05964 0
M  V30 8057 H 788.856 -2.74061 2.80416 0
M  V30 8058 H 790.346 -3.53845 2.21773 0
M  V30 8059 N 790.784 -1.46188 -0.588786 0
M  V30 8060 C 791.732 -1.56653 -1.71938 0
M  V30 8061 C 792.726 -0.435354 -1.6371 0
M  V30 8062 O 793.932 -0.611996 -1.69277 0
M  V30 8063 H 790.307 -0.492408 -0.568365 0
M  V30 8064 H 792.278 -2.51724 -1.60242 0
M  V30 8065 C 791.027 -1.56822 -3.10326 0
M  V30 8066 H 790.35 -2.43198 -3.17325 0
M  V30 8067 H 791.79 -1.68199 -3.89211 0
M  V30 8068 C 790.249 -0.295802 -3.35599 0
M  V30 8069 O 790.779 0.616515 -3.96941 0
M  V30 8070 N 788.985 -0.185609 -2.90007 0
M  V30 8071 H 788.532 -0.928914 -2.40269 0
M  V30 8072 H 788.49 0.664883 -3.07289 0
M  V30 8073 N 792.262 0.832906 -1.33792 0
M  V30 8074 C 793.487 1.62568 -1.28788 0
M  V30 8075 C 793.912 1.87599 0.137246 0
M  V30 8076 O 793.27 1.44436 1.0958 0
M  V30 8077 C 793.318 2.9495 -2.07453 0
M  V30 8078 O 792.422 3.86546 -1.43722 0
M  V30 8079 H 791.763 0.494809 -0.442787 0
M  V30 8080 H 794.293 1.03578 -1.76445 0
M  V30 8081 H 794.303 3.44599 -2.1844 0
M  V30 8082 H 792.978 2.76055 -3.11073 0
M  V30 8083 H 791.555 3.45044 -1.41417 0
M  V30 8084 N 793.74 1.17359 1.05189 0
M  V30 8085 C 794.67 0.91365 2.14883 0
M  V30 8086 C 795.651 -0.144365 1.69486 0
M  V30 8087 O 796.836 0.00587861 1.94199 0
M  V30 8088 C 793.966 0.426196 3.44675 0
M  V30 8089 C 792.92 1.4234 4.03638 0
M  V30 8090 C 792.246 0.793902 5.28773 0
M  V30 8091 C 793.546 2.7966 4.41121 0
M  V30 8092 H 795.24 1.831 2.36885 0
M  V30 8093 H 792.786 0.881781 1.13845 0
M  V30 8094 H 794.739 0.231767 4.20762 0
M  V30 8095 H 793.463 -0.526693 3.22325 0
M  V30 8096 H 792.122 1.60457 3.2962 0
M  V30 8097 H 791.77 -0.165824 5.02727 0
M  V30 8098 H 791.47 1.45959 5.69183 0
M  V30 8099 H 792.994 0.609747 6.07548 0
M  V30 8100 H 794.408 2.6526 5.08242 0
M  V30 8101 H 792.805 3.42807 4.92548 0
M  V30 8102 H 793.875 3.34068 3.51464 0
M  V30 8103 N 795.218 -1.23913 0.973828 0
M  V30 8104 C 796.128 -2.28838 0.516735 0
M  V30 8105 C 797.144 -1.68723 -0.425282 0
M  V30 8106 O 798.32 -1.99201 -0.296819 0
M  V30 8107 C 795.385 -3.46233 -0.179914 0
M  V30 8108 C 794.446 -4.21729 0.80269 0
M  V30 8109 C 793.679 -5.33518 0.139191 0
M  V30 8110 O 793.902 -5.60252 -1.07118 0
M  V30 8111 O 792.836 -5.96088 0.834447 0
M  V30 8112 H 796.662 -2.70067 1.38916 0
M  V30 8113 H 794.247 -1.2972 0.74115 0
M  V30 8114 H 796.129 -4.17514 -0.570991 0
M  V30 8115 H 794.804 -3.06969 -1.02721 0
M  V30 8116 H 793.711 -3.52799 1.24434 0
M  V30 8117 H 795.044 -4.64825 1.61859 0
M  V30 8118 N 796.696 -0.74468 -1.38897 0
M  V30 8119 C 797.628 -0.0713608 -2.29089 0
M  V30 8120 C 798.641 0.693224 -1.47303 0
M  V30 8121 O 799.83 0.535785 -1.70269 0
M  V30 8122 C 796.93 0.923078 -3.26087 0
M  V30 8123 C 796.103 0.217998 -4.36856 0
M  V30 8124 C 795.162 1.12192 -5.14101 0
M  V30 8125 O 794.188 0.595771 -5.66073 0
M  V30 8126 N 795.39 2.45082 -5.26227 0
M  V30 8127 H 798.155 -0.845906 -2.87514 0
M  V30 8128 H 795.716 -0.594712 -1.50581 0
M  V30 8129 H 797.708 1.53061 -3.74639 0
M  V30 8130 H 796.278 1.59876 -2.68623 0
M  V30 8131 H 795.498 -0.570134 -3.90055 0
M  V30 8132 H 796.786 -0.270248 -5.08082 0
M  V30 8133 H 796.184 2.90294 -4.85537 0
M  V30 8134 H 794.741 3.00907 -5.78185 0
M  V30 8135 N 798.174 1.49689 -0.493057 0
M  V30 8136 C 799.137 2.27502 0.278485 0
M  V30 8137 C 800.137 1.33184 0.901037 0
M  V30 8138 O 801.327 1.56415 0.766801 0
M  V30 8139 C 798.459 3.10881 1.39878 0
M  V30 8140 H 799.652 2.97163 -0.404219 0
M  V30 8141 H 797.205 1.54324 -0.247774 0
M  V30 8142 H 797.94 2.45767 2.11587 0
M  V30 8143 H 797.725 3.80219 0.957924 0
M  V30 8144 H 799.215 3.69673 1.94247 0
M  V30 8145 N 799.652 0.226554 1.55963 0
M  V30 8146 C 800.584 -0.713907 2.17798 0
M  V30 8147 C 801.597 -1.15387 1.14846 0
M  V30 8148 O 802.786 -1.08416 1.41804 0
M  V30 8149 C 799.886 -1.97945 2.75084 0
M  V30 8150 C 799.059 -1.69424 4.03255 0
M  V30 8151 C 798.118 -2.80734 4.45056 0
M  V30 8152 O 797.144 -2.4899 5.11852 0
M  V30 8153 N 798.346 -4.09797 4.11152 0
M  V30 8154 H 801.111 -0.18494 2.99129 0
M  V30 8155 H 798.672 0.0457346 1.61835 0
M  V30 8156 H 800.664 -2.71611 3.00016 0
M  V30 8157 H 799.234 -2.41876 1.98027 0
M  V30 8158 H 798.454 -0.793767 3.86126 0
M  V30 8159 H 799.742 -1.47806 4.86858 0
M  V30 8160 H 799.14 -4.38429 3.57486 0
M  V30 8161 H 797.697 -4.79992 4.40966 0
M  V30 8162 N 801.13 -1.57531 -0.0467866 0
M  V30 8163 C 802.093 -2.04379 -1.03738 0
M  V30 8164 C 803.093 -0.944881 -1.3011 0
M  V30 8165 O 804.283 -1.20904 -1.25411 0
M  V30 8166 C 801.415 -2.44572 -2.37482 0
M  V30 8167 H 802.608 -2.93142 -0.633063 0
M  V30 8168 H 800.161 -1.53526 -0.293177 0
M  V30 8169 H 800.896 -1.58911 -2.82697 0
M  V30 8170 H 800.681 -3.24785 -2.19675 0
M  V30 8171 H 802.171 -2.81307 -3.08636 0
M  V30 8172 N 802.608 0.318715 -1.54344 0
M  V30 8173 C 803.571 1.37545 -1.83342 0
M  V30 8174 C 804.571 1.445 -0.705444 0
M  V30 8175 O 805.761 1.44443 -0.973752 0
M  V30 8176 C 802.893 2.76225 -1.99781 0
M  V30 8177 H 804.086 1.13084 -2.77762 0
M  V30 8178 H 801.639 0.554457 -1.46135 0
M  V30 8179 H 802.374 3.05934 -1.07588 0
M  V30 8180 H 802.159 2.7257 -2.81865 0
M  V30 8181 H 803.649 3.52664 -2.23647 0
M  V30 8182 N 804.086 1.46499 0.581025 0
M  V30 8183 C 805.049 1.5677 1.672 0
M  V30 8184 C 806.049 0.444716 1.54528 0
M  V30 8185 O 807.239 0.709074 1.59116 0
M  V30 8186 C 804.371 1.4896 3.06633 0
M  V30 8187 H 805.564 2.54 1.5945 0
M  V30 8188 H 803.117 1.34334 0.799003 0
M  V30 8189 H 803.852 0.530168 3.19937 0
M  V30 8190 H 803.637 2.30439 3.17239 0
M  V30 8191 H 805.127 1.59237 3.86048 0
M  V30 8192 N 805.565 -0.825799 1.34232 0
M  V30 8193 C 806.475 -1.9684 1.27638 0
M  V30 8194 C 807.491 -1.73018 0.184569 0
M  V30 8195 O 808.667 -1.97172 0.410525 0
M  V30 8196 C 805.732 -3.31084 1.02879 0
M  V30 8197 C 804.793 -3.67933 2.21188 0
M  V30 8198 C 804.026 -4.95772 1.976 0
M  V30 8199 O 804.249 -5.62721 0.93281 0
M  V30 8200 O 803.183 -5.30431 2.84477 0
M  V30 8201 H 807.009 -2.05346 2.23756 0
M  V30 8202 H 804.594 -0.960772 1.1441 0
M  V30 8203 H 806.476 -4.11492 0.908406 0
M  V30 8204 H 805.151 -3.23552 0.0979821 0
M  V30 8205 H 804.058 -2.87981 2.38784 0
M  V30 8206 H 805.391 -3.80147 3.12648 0
M  V30 8207 N 807.043 -1.17915 -1.04565 0
M  V30 8208 C 808.459 -0.927761 -1.29864 0
M  V30 8209 C 808.659 0.409536 -1.97294 0
M  V30 8210 O 807.715 1.14505 -2.25044 0
M  V30 8211 C 809.028 -2.08967 -2.16225 0
M  V30 8212 C 810.576 -2.12741 -2.29587 0
M  V30 8213 C 811.051 -3.28335 -3.19312 0
M  V30 8214 N 812.542 -3.28164 -3.26898 0
M  V30 8215 C 813.277 -4.14249 -3.96466 0
M  V30 8216 N 812.773 -5.10457 -4.68407 0
M  V30 8217 N 814.566 -4.02179 -3.92694 0
M  V30 8218 H 806.717 -2.03983 -0.592011 0
M  V30 8219 H 808.98 -0.891023 -0.323701 0
M  V30 8220 H 808.686 -3.05654 -1.73979 0
M  V30 8221 H 808.56 -2.04606 -3.16885 0
M  V30 8222 H 810.947 -1.16636 -2.71072 0
M  V30 8223 H 811.028 -2.21162 -1.28535 0
M  V30 8224 H 810.672 -4.2471 -2.78539 0
M  V30 8225 H 810.602 -3.17151 -4.20384 0
M  V30 8226 H 813.093 -2.58511 -2.75646 0
M  V30 8227 H 813.406 -5.72526 -5.1907 0
M  V30 8228 H 811.751 -5.14422 -4.67328 0
M  V30 8229 H 814.942 -3.26308 -3.3562 0
M  V30 8230 H 815.115 -4.69486 -4.4664 0
M  V30 8231 N 808.521 1.23394 -0.980386 0
M  V30 8232 C 809.451 2.2717 -0.540024 0
M  V30 8233 C 810.432 1.64659 0.426787 0
M  V30 8234 O 811.617 1.91543 0.320153 0
M  V30 8235 C 808.747 3.46939 0.15836 0
M  V30 8236 C 807.701 4.21802 -0.725732 0
M  V30 8237 C 807.027 5.34597 0.104866 0
M  V30 8238 C 808.327 4.81802 -2.01654 0
M  V30 8239 H 810.021 2.64257 -1.40743 0
M  V30 8240 H 807.567 1.2703 -0.678193 0
M  V30 8241 H 809.52 4.18683 0.477737 0
M  V30 8242 H 808.244 3.08912 1.06022 0
M  V30 8243 H 806.903 3.51875 -1.02857 0
M  V30 8244 H 806.551 4.92812 1.00726 0
M  V30 8245 H 806.251 5.85607 -0.483557 0
M  V30 8246 H 807.775 6.09163 0.418624 0
M  V30 8247 H 809.189 5.45554 -1.76193 0
M  V30 8248 H 807.586 5.43098 -2.55273 0
M  V30 8249 H 808.656 4.02549 -2.70338 0
M  V30 8250 N 809.999 0.752036 1.385 0
M  V30 8251 C 811.247 0.306895 1.99756 0
M  V30 8252 C 811.568 -1.11478 1.59992 0
M  V30 8253 O 810.838 -1.76206 0.856045 0
M  V30 8254 H 809.418 0.11048 0.738785 0
M  V30 8255 H 812.08 0.965785 1.69289 0
M  V30 8256 H 811.176 0.368797 3.09913 0
M  V30 8257 N 811.477 -1.49425 0.500989 0
M  V30 8258 C 812.707 -2.06561 -0.0402858 0
M  V30 8259 C 813.115 -1.36157 -1.31369 0
M  V30 8260 O 812.458 -0.433618 -1.78509 0
M  V30 8261 C 812.52 -3.5765 -0.364269 0
M  V30 8262 C 812.184 -4.49739 0.811417 0
M  V30 8263 C 813.181 -4.91255 1.7019 0
M  V30 8264 C 810.866 -4.92036 1.01022 0
M  V30 8265 C 812.86 -5.73806 2.77534 0
M  V30 8266 C 810.547 -5.74364 2.08683 0
M  V30 8267 C 811.545 -6.15154 2.96774 0
M  V30 8268 O 811.233 -6.95836 4.02577 0
M  V30 8269 H 810.965 -0.67578 0.0172357 0
M  V30 8270 H 813.519 -1.93193 0.697553 0
M  V30 8271 H 811.749 -3.69026 -1.1557 0
M  V30 8272 H 813.438 -3.97025 -0.844156 0
M  V30 8273 H 814.204 -4.59222 1.56013 0
M  V30 8274 H 810.083 -4.59789 0.333929 0
M  V30 8275 H 813.627 -6.05564 3.4632 0
M  V30 8276 H 809.524 -6.0581 2.22855 0
M  V30 8277 H 810.292 -7.14142 3.9993 0
M  V30 8278 N 812.955 -0.234822 -1.55841 0
M  V30 8279 C 814.366 0.270588 -1.84729 0
M  V30 8280 C 814.717 1.58494 -1.15646 0
M  V30 8281 O 813.842 2.12071 -0.430667 0
M  V30 8282 C 814.437 0.497733 -3.35124 0
M  V30 8283 C 812.996 0.947428 -3.64281 0
M  V30 8284 C 812.143 0.01787 -2.77294 0
M  V30 8285 H 815.094 -0.457691 -1.51957 0
M  V30 8286 H 815.115 1.34199 -3.56049 0
M  V30 8287 H 814.627 -0.459037 -3.85376 0
M  V30 8288 H 812.728 1.91709 -3.19497 0
M  V30 8289 H 812.841 0.812651 -4.72158 0
M  V30 8290 H 811.205 0.527071 -2.49187 0
M  V30 8291 H 811.988 -0.934056 -3.30349 0
M  V30 8292 N 814.433 1.57553 0.0384317 0
M  V30 8293 C 815.679 1.89121 0.732199 0
M  V30 8294 C 816.012 0.831404 1.75503 0
M  V30 8295 O 815.287 -0.154642 1.93884 0
M  V30 8296 C 815.57 3.31338 1.41021 0
M  V30 8297 C 815.423 4.48004 0.401532 0
M  V30 8298 C 816.742 3.72318 2.34665 0
M  V30 8299 H 813.861 0.687819 0.264715 0
M  V30 8300 H 816.503 1.89999 -0.00496279 0
M  V30 8301 H 814.653 3.3072 2.03854 0
M  V30 8302 H 816.325 4.60755 -0.224159 0
M  V30 8303 H 814.568 4.32895 -0.280092 0
M  V30 8304 H 815.239 5.44377 0.91423 0
M  V30 8305 H 817.715 3.74243 1.81883 0
M  V30 8306 H 816.591 4.72652 2.7909 0
M  V30 8307 H 816.852 3.04062 3.20934 0
M  V30 8308 N 815.911 -0.310526 1.54511 0
M  V30 8309 C 816.841 -1.38757 1.878 0
M  V30 8310 C 817.822 -1.53353 0.735991 0
M  V30 8311 O 819.007 -1.67018 0.990887 0
M  V30 8312 C 816.137 -2.75327 2.11689 0
M  V30 8313 C 815.091 -2.75506 3.27537 0
M  V30 8314 C 814.417 -4.15275 3.36824 0
M  V30 8315 C 815.717 -2.38093 4.64875 0
M  V30 8316 H 817.411 -1.11146 2.78005 0
M  V30 8317 H 814.957 -0.533232 1.33763 0
M  V30 8318 H 816.91 -3.50752 2.33562 0
M  V30 8319 H 815.634 -3.04443 1.18245 0
M  V30 8320 H 814.293 -2.02538 3.05572 0
M  V30 8321 H 813.941 -4.41553 2.40915 0
M  V30 8322 H 813.641 -4.16299 4.14692 0
M  V30 8323 H 815.165 -4.92493 3.60947 0
M  V30 8324 H 816.579 -3.03232 4.86542 0
M  V30 8325 H 814.976 -2.50345 5.45387 0
M  V30 8326 H 816.046 -1.33227 4.66239 0
M  V30 8327 N 817.389 -1.46805 -0.573248 0
M  V30 8328 C 818.635 -1.5283 -1.33307 0
M  V30 8329 C 818.968 -0.183287 -1.93333 0
M  V30 8330 O 818.243 0.806354 -1.76998 0
M  V30 8331 C 818.526 -2.63414 -2.45531 0
M  V30 8332 C 818.379 -4.07478 -1.90478 0
M  V30 8333 C 819.698 -2.70014 -3.47535 0
M  V30 8334 H 816.817 -0.556371 -0.483343 0
M  V30 8335 H 819.459 -1.78787 -0.643066 0
M  V30 8336 H 817.609 -2.41412 -3.04389 0
M  V30 8337 H 819.281 -4.40795 -1.36004 0
M  V30 8338 H 817.524 -4.16511 -1.21248 0
M  V30 8339 H 818.195 -4.80598 -2.71531 0
M  V30 8340 H 820.671 -2.89817 -2.98572 0
M  V30 8341 H 819.547 -3.49192 -4.23504 0
M  V30 8342 H 819.808 -1.76436 -4.05367 0
M  V30 8343 N 818.867 0.818669 -1.34668 0
M  V30 8344 C 820.283 1.11243 -1.14443 0
M  V30 8345 C 820.483 2.01435 0.0512212 0
M  V30 8346 O 819.539 2.41854 0.725471 0
M  V30 8347 C 820.852 1.75504 -2.4417 0
M  V30 8348 C 822.4 1.8798 -2.50265 0
M  V30 8349 C 822.875 2.55657 -3.80004 0
M  V30 8350 N 824.366 2.63153 -3.81189 0
M  V30 8351 C 825.101 3.16258 -4.78298 0
M  V30 8352 N 824.597 3.69893 -5.85791 0
M  V30 8353 N 826.39 3.14698 -4.65748 0
M  V30 8354 H 818.541 0.218848 -2.1127 0
M  V30 8355 H 820.804 0.159655 -0.934459 0
M  V30 8356 H 820.51 1.16697 -3.31775 0
M  V30 8357 H 820.384 2.75329 -2.57825 0
M  V30 8358 H 822.771 2.45934 -1.63096 0
M  V30 8359 H 822.852 0.870447 -2.40535 0
M  V30 8360 H 822.496 1.98356 -4.67565 0
M  V30 8361 H 822.426 3.57105 -3.87019 0
M  V30 8362 H 824.917 2.2514 -3.03513 0
M  V30 8363 H 825.23 4.08678 -6.55898 0
M  V30 8364 H 823.575 3.68125 -5.89499 0
M  V30 8365 H 826.766 2.72066 -3.80917 0
M  V30 8366 H 826.939 3.5578 -5.41594 0
M  V30 8367 N 820.346 1.18468 1.03938 0
M  V30 8368 C 821.309 0.914944 2.10146 0
M  V30 8369 C 822.309 -0.10022 1.60487 0
M  V30 8370 O 823.499 0.133365 1.73689 0
M  V30 8371 C 820.631 0.372993 3.38853 0
M  V30 8372 H 821.824 1.85677 2.35508 0
M  V30 8373 H 819.377 0.996876 1.20383 0
M  V30 8374 H 820.112 -0.57538 3.19155 0
M  V30 8375 H 819.897 1.1048 3.76213 0
M  V30 8376 H 821.387 0.203014 4.17106 0
M  V30 8377 N 821.824 -1.22873 0.986916 0
M  V30 8378 C 822.787 -2.2281 0.537442 0
M  V30 8379 C 823.787 -1.56331 -0.37646 0
M  V30 8380 O 824.977 -1.73376 -0.169247 0
M  V30 8381 C 822.109 -3.40195 -0.219082 0
M  V30 8382 H 823.302 -2.64089 1.42116 0
M  V30 8383 H 820.855 -1.35819 0.773488 0
M  V30 8384 H 821.59 -3.04381 -1.11905 0
M  V30 8385 H 821.375 -3.89657 0.437026 0
M  V30 8386 H 822.865 -4.14326 -0.521926 0
M  V30 8387 N 823.302 -0.75937 -1.38099 0
M  V30 8388 C 824.549 -0.318113 -1.99986 0
M  V30 8389 C 824.877 1.10184 -1.6028 0
M  V30 8390 O 824.132 1.77015 -0.834524 0
M  V30 8391 C 824.431 -0.394999 -3.55211 0
M  V30 8392 C 824.097 -1.77143 -4.14646 0
M  V30 8393 C 822.759 -2.14811 -4.30592 0
M  V30 8394 C 825.111 -2.67407 -4.47373 0
M  V30 8395 C 822.439 -3.42203 -4.76565 0
M  V30 8396 C 824.791 -3.94196 -4.94765 0
M  V30 8397 C 823.455 -4.31925 -5.08918 0
M  V30 8398 H 822.725 -0.116406 -0.7318 0
M  V30 8399 H 825.372 -0.97098 -1.65058 0
M  V30 8400 H 823.677 0.341426 -3.9031 0
M  V30 8401 H 825.374 -0.0350722 -4.00985 0
M  V30 8402 H 821.964 -1.46864 -4.02652 0
M  V30 8403 H 826.148 -2.39569 -4.3465 0
M  V30 8404 H 821.404 -3.71346 -4.85708 0
M  V30 8405 H 825.578 -4.64276 -5.19057 0
M  V30 8406 H 823.205 -5.30699 -5.443 0
M  V30 8407 N 824.78 1.49157 -0.508906 0
M  V30 8408 C 825.743 2.27784 0.25434 0
M  V30 8409 C 826.743 1.34132 0.88686 0
M  V30 8410 O 827.933 1.5722 0.750168 0
M  V30 8411 C 825.065 3.12347 1.36573 0
M  V30 8412 H 826.258 2.96718 -0.435714 0
M  V30 8413 H 823.811 1.54052 -0.264128 0
M  V30 8414 H 824.546 2.47997 2.08969 0
M  V30 8415 H 824.331 3.81213 0.917543 0
M  V30 8416 H 825.821 3.71712 1.90315 0
M  V30 8417 N 826.258 0.243083 1.55714 0
M  V30 8418 C 827.188 -0.652336 2.24203 0
M  V30 8419 C 828.169 -1.1843 1.221 0
M  V30 8420 O 829.354 -1.22435 1.50743 0
M  V30 8421 C 826.484 -1.85111 2.93856 0
M  V30 8422 C 825.438 -1.45208 4.02615 0
M  V30 8423 C 824.764 -2.73137 4.59674 0
M  V30 8424 C 826.064 -0.625988 5.18535 0
M  V30 8425 H 827.758 -0.0812504 2.9929 0
M  V30 8426 H 825.304 -0.0376388 1.43951 0
M  V30 8427 H 827.257 -2.48314 3.40468 0
M  V30 8428 H 825.981 -2.44751 2.16251 0
M  V30 8429 H 824.64 -0.843406 3.56766 0
M  V30 8430 H 824.288 -3.30967 3.78774 0
M  V30 8431 H 823.988 -2.47163 5.33089 0
M  V30 8432 H 825.512 -3.37245 5.09017 0
M  V30 8433 H 826.926 -1.16223 5.61396 0
M  V30 8434 H 825.323 -0.462465 5.98315 0
M  V30 8435 H 826.393 0.362652 4.83542 0
M  V30 8436 N 827.736 -1.57571 -0.0300757 0
M  V30 8437 C 828.984 -1.88852 -0.719666 0
M  V30 8438 C 829.305 -0.840645 -1.75949 0
M  V30 8439 O 828.575 0.125854 -1.95495 0
M  V30 8440 H 827.155 -0.696965 -0.268792 0
M  V30 8441 H 829.817 -1.949 0.00373285 0
M  V30 8442 H 828.913 -2.87695 -1.20987 0
M  V30 8443 N 829.214 0.302327 -1.54673 0
M  V30 8444 C 830.462 1.03565 -1.73547 0
M  V30 8445 C 830.783 1.87843 -0.523448 0
M  V30 8446 O 830.053 1.90367 0.462295 0
M  V30 8447 H 828.633 0.385358 -0.639928 0
M  V30 8448 H 831.295 0.333632 -1.92023 0
M  V30 8449 H 830.391 1.68952 -2.62415 0
M  V30 8450 N 830.692 1.47107 0.565454 0
M  V30 8451 C 831.622 1.61846 1.68309 0
M  V30 8452 C 832.603 0.468159 1.63531 0
M  V30 8453 O 833.788 0.696504 1.8128 0
M  V30 8454 C 830.918 1.62474 3.06952 0
M  V30 8455 C 829.872 2.76649 3.26572 0
M  V30 8456 C 829.198 2.62345 4.65917 0
M  V30 8457 C 830.498 4.18319 3.12741 0
M  V30 8458 H 832.192 2.55407 1.5623 0
M  V30 8459 H 829.738 1.22916 0.750179 0
M  V30 8460 H 831.691 1.71378 3.84977 0
M  V30 8461 H 830.415 0.654692 3.19971 0
M  V30 8462 H 829.074 2.67242 2.50952 0
M  V30 8463 H 828.722 1.63386 4.75725 0
M  V30 8464 H 828.422 3.38936 4.79996 0
M  V30 8465 H 829.946 2.73165 5.46089 0
M  V30 8466 H 831.36 4.28745 3.80593 0
M  V30 8467 H 829.757 4.95632 3.38333 0
M  V30 8468 H 830.827 4.37263 2.09592 0
M  V30 8469 N 832.17 -0.811516 1.35101 0
M  V30 8470 C 833.418 -1.56525 1.27845 0
M  V30 8471 C 833.739 -1.94435 -0.14829 0
M  V30 8472 O 833.009 -1.63203 -1.08359 0
M  V30 8473 H 831.589 -0.580433 0.47022 0
M  V30 8474 H 834.251 -0.968277 1.69146 0
M  V30 8475 H 833.347 -2.48291 1.89097 0
M  V30 8476 N 833.648 -1.19017 -1.03309 0
M  V30 8477 C 834.873 -1.01598 -1.80811 0
M  V30 8478 C 835.298 0.430773 -1.83101 0
M  V30 8479 O 834.656 1.30946 -1.25391 0
M  V30 8480 C 834.704 -1.5845 -3.23923 0
M  V30 8481 O 833.808 -0.810972 -4.04348 0
M  V30 8482 H 833.149 -0.359398 -0.558327 0
M  V30 8483 H 835.679 -1.57945 -1.30055 0
M  V30 8484 H 835.689 -1.61486 -3.74682 0
M  V30 8485 H 834.364 -2.63752 -3.21571 0
M  V30 8486 H 832.941 -0.85353 -3.63 0
M  V30 8487 N 835.127 1.22348 -0.993418 0
M  V30 8488 C 836.375 1.90733 -0.668246 0
M  V30 8489 C 836.696 1.77732 0.802261 0
M  V30 8490 O 835.966 1.16486 1.57505 0
M  V30 8491 H 834.546 0.705966 -0.244174 0
M  V30 8492 H 837.208 1.48691 -1.26004 0
M  V30 8493 H 836.304 2.97883 -0.931239 0
M  V30 8494 N 836.605 0.766683 1.37694 0
M  V30 8495 C 837.852 0.328714 1.99814 0
M  V30 8496 C 838.18 -1.09333 1.60862 0
M  V30 8497 O 837.435 -1.7657 0.8439 0
M  V30 8498 C 837.734 0.413831 3.54996 0
M  V30 8499 C 837.4 1.7934 4.137 0
M  V30 8500 C 836.062 2.17092 4.29447 0
M  V30 8501 C 838.414 2.69776 4.45949 0
M  V30 8502 C 835.742 3.44726 4.74743 0
M  V30 8503 C 838.094 3.96814 4.92667 0
M  V30 8504 C 836.758 4.34618 5.0662 0
M  V30 8505 H 836.028 0.120285 0.731172 0
M  V30 8506 H 838.675 0.97972 1.64541 0
M  V30 8507 H 836.98 -0.320723 3.90485 0
M  V30 8508 H 838.677 0.0563369 4.0096 0
M  V30 8509 H 835.267 1.48997 4.01868 0
M  V30 8510 H 839.451 2.41871 4.33373 0
M  V30 8511 H 834.707 3.73917 4.83731 0
M  V30 8512 H 838.881 4.67022 5.16588 0
M  V30 8513 H 836.508 5.33578 5.41478 0
M  V30 8514 N 838.083 -1.48885 0.516809 0
M  V30 8515 C 839.046 -2.27916 -0.242256 0
M  V30 8516 C 840.046 -1.34601 -0.879735 0
M  V30 8517 O 841.236 -1.57616 -0.74182 0
M  V30 8518 C 838.368 -3.13067 -1.34914 0
M  V30 8519 H 839.561 -2.96483 0.451444 0
M  V30 8520 H 837.114 -1.5391 0.272294 0
M  V30 8521 H 837.849 -2.49102 -2.07651 0
M  V30 8522 H 837.634 -3.81695 -0.897313 0
M  V30 8523 H 839.124 -3.72716 -1.88341 0
M  V30 8524 N 839.561 -0.251338 -1.55583 0
M  V30 8525 C 840.786 0.379136 -2.03905 0
M  V30 8526 C 841.211 1.50428 -1.12929 0
M  V30 8527 O 840.569 1.80882 -0.123114 0
M  V30 8528 C 840.617 0.86009 -3.50193 0
M  V30 8529 O 839.721 1.96932 -3.62342 0
M  V30 8530 H 839.062 0.0820183 -0.658915 0
M  V30 8531 H 841.592 -0.378692 -2.01065 0
M  V30 8532 H 841.602 1.16214 -3.91099 0
M  V30 8533 H 840.277 0.0367559 -4.15884 0
M  V30 8534 H 838.854 1.67163 -3.33333 0
M  V30 8535 N 841.039 1.57585 0.0217189 0
M  V30 8536 C 841.987 2.08134 1.03842 0
M  V30 8537 C 842.981 0.996662 1.36978 0
M  V30 8538 O 844.187 1.18149 1.35797 0
M  V30 8539 H 840.562 0.664298 0.352438 0
M  V30 8540 H 842.533 2.92583 0.58634 0
M  V30 8541 C 841.282 2.58218 2.32849 0
M  V30 8542 H 840.605 3.41302 2.08214 0
M  V30 8543 H 842.045 2.97289 3.02316 0
M  V30 8544 C 840.504 1.48664 3.02325 0
M  V30 8545 O 841.034 0.857075 3.9245 0
M  V30 8546 N 839.24 1.21938 2.63779 0
M  V30 8547 H 838.787 1.73319 1.90574 0
M  V30 8548 H 838.745 0.488523 3.10581 0
M  V30 8549 N 842.517 -0.29412 1.54831 0
M  V30 8550 C 843.933 -0.640167 1.46199 0
M  V30 8551 C 844.133 -1.90426 0.658798 0
M  V30 8552 O 843.189 -2.51932 0.169228 0
M  V30 8553 C 844.502 -0.786763 2.90225 0
M  V30 8554 C 846.05 -0.882201 3.0031 0
M  V30 8555 C 846.525 -1.06074 4.45547 0
M  V30 8556 N 848.016 -1.12678 4.49286 0
M  V30 8557 C 848.751 -1.28334 5.58854 0
M  V30 8558 N 848.247 -1.40845 6.78332 0
M  V30 8559 N 850.04 -1.31277 5.46555 0
M  V30 8560 H 842.191 0.536334 2.05517 0
M  V30 8561 H 844.454 0.178363 0.93107 0
M  V30 8562 H 844.16 0.0713018 3.51628 0
M  V30 8563 H 844.034 -1.67364 3.38037 0
M  V30 8564 H 846.421 -1.73075 2.39017 0
M  V30 8565 H 846.502 0.0288405 2.55784 0
M  V30 8566 H 846.146 -0.216935 5.07437 0
M  V30 8567 H 846.076 -1.98611 4.8771 0
M  V30 8568 H 848.567 -1.04335 3.63212 0
M  V30 8569 H 848.88 -1.52566 7.57591 0
M  V30 8570 H 847.225 -1.37888 6.81184 0
M  V30 8571 H 850.416 -1.2112 4.52159 0
M  V30 8572 H 850.589 -1.43136 6.31994 0
M  V30 8573 N 843.995 -1.47404 -0.557645 0
M  V30 8574 C 844.905 -1.62491 -1.69216 0
M  V30 8575 C 845.921 -0.507764 -1.66426 0
M  V30 8576 O 847.097 -0.775241 -1.85882 0
M  V30 8577 C 844.162 -1.63511 -3.05721 0
M  V30 8578 C 843.223 -2.86648 -3.1958 0
M  V30 8579 C 842.456 -2.87609 -4.49574 0
M  V30 8580 O 842.679 -1.97799 -5.35006 0
M  V30 8581 O 841.613 -3.79465 -4.67215 0
M  V30 8582 H 845.439 -2.58487 -1.59431 0
M  V30 8583 H 843.024 -1.30485 -0.7276 0
M  V30 8584 H 844.906 -1.66863 -3.86956 0
M  V30 8585 H 843.581 -0.706812 -3.15889 0
M  V30 8586 H 842.488 -2.8884 -2.37744 0
M  V30 8587 H 843.821 -3.7877 -3.14316 0
M  V30 8588 N 845.473 0.80434 -1.35529 0
M  V30 8589 C 846.383 1.94784 -1.30753 0
M  V30 8590 C 847.399 1.72703 -0.212071 0
M  V30 8591 O 848.575 1.96494 -0.441841 0
M  V30 8592 C 845.64 3.29406 -1.08133 0
M  V30 8593 C 844.701 3.64367 -2.27013 0
M  V30 8594 C 843.934 4.92566 -2.05463 0
M  V30 8595 O 844.157 5.61166 -1.02222 0
M  V30 8596 O 843.091 5.25838 -2.92879 0
M  V30 8597 H 846.917 2.01761 -2.26994 0
M  V30 8598 H 844.502 0.942448 -1.15924 0
M  V30 8599 H 846.384 4.09995 -0.973756 0
M  V30 8600 H 845.059 3.23355 -0.149444 0
M  V30 8601 H 843.966 2.84146 -2.43335 0
M  V30 8602 H 845.299 3.75125 -3.18656 0
M  V30 8603 N 846.951 1.19563 1.02676 0
M  V30 8604 C 847.881 0.959024 2.12897 0
M  V30 8605 C 848.862 -0.108382 1.69754 0
M  V30 8606 O 850.047 0.0470698 1.94143 0
M  V30 8607 C 847.177 0.499211 3.43693 0
M  V30 8608 C 846.131 1.5087 4.00528 0
M  V30 8609 C 845.457 0.905884 5.2697 0
M  V30 8610 C 846.757 2.88954 4.3509 0
M  V30 8611 H 848.451 1.88084 2.32948 0
M  V30 8612 H 845.997 0.905731 1.11949 0
M  V30 8613 H 847.95 0.320965 4.20176 0
M  V30 8614 H 846.674 -0.458205 3.2337 0
M  V30 8615 H 845.333 1.67413 3.26142 0
M  V30 8616 H 844.981 -0.0591506 5.02965 0
M  V30 8617 H 844.681 1.58 5.65959 0
M  V30 8618 H 846.205 0.73848 6.06118 0
M  V30 8619 H 847.619 2.75981 5.02501 0
M  V30 8620 H 846.016 3.53177 4.85166 0
M  V30 8621 H 847.086 3.41447 3.44299 0
M  V30 8622 N 848.429 -1.21819 0.999893 0
M  V30 8623 C 849.654 -1.95298 0.698094 0
M  V30 8624 C 850.079 -1.73273 -0.731982 0
M  V30 8625 O 849.437 -1.01634 -1.50134 0
M  V30 8626 C 849.485 -3.45922 1.01834 0
M  V30 8627 O 848.589 -4.12223 0.120801 0
M  V30 8628 H 847.93 -0.610729 0.260588 0
M  V30 8629 H 850.46 -1.5472 1.33876 0
M  V30 8630 H 850.47 -3.96471 0.963074 0
M  V30 8631 H 849.145 -3.61278 2.06037 0
M  V30 8632 H 847.722 -3.72177 0.232153 0
M  V30 8633 N 849.908 -0.773975 -1.37286 0
M  V30 8634 C 850.871 -0.167974 -2.28584 0
M  V30 8635 C 851.871 0.625662 -1.48129 0
M  V30 8636 O 853.061 0.448924 -1.68316 0
M  V30 8637 C 850.193 0.769364 -3.32105 0
M  V30 8638 H 851.386 -0.972806 -2.83684 0
M  V30 8639 H 848.939 -0.542335 -1.46589 0
M  V30 8640 H 849.674 1.59912 -2.82132 0
M  V30 8641 H 849.459 0.202419 -3.91577 0
M  V30 8642 H 850.949 1.18872 -4.00324 0
M  V30 8643 N 851.386 1.48609 -0.524698 0
M  V30 8644 C 852.316 2.32366 0.229837 0
M  V30 8645 C 853.297 1.41759 0.940129 0
M  V30 8646 O 854.482 1.7065 0.926936 0
M  V30 8647 C 851.612 3.22835 1.28043 0
M  V30 8648 C 850.566 4.22424 0.688603 0
M  V30 8649 C 849.892 5.0199 1.84146 0
M  V30 8650 C 851.192 5.21217 -0.336176 0
M  V30 8651 H 852.886 2.95698 -0.469339 0
M  V30 8652 H 850.432 1.42197 -0.227156 0
M  V30 8653 H 852.385 3.80253 1.8162 0
M  V30 8654 H 851.109 2.57492 2.00912 0
M  V30 8655 H 849.768 3.66185 0.174402 0
M  V30 8656 H 849.416 4.33076 2.5584 0
M  V30 8657 H 849.116 5.69392 1.45142 0
M  V30 8658 H 850.64 5.62259 2.38111 0
M  V30 8659 H 852.054 5.7319 0.112307 0
M  V30 8660 H 850.451 5.96642 -0.643324 0
M  V30 8661 H 851.521 4.68676 -1.24381 0
M  V30 8662 N 852.864 0.259585 1.55447 0
M  V30 8663 C 854.11 -0.362143 1.9954 0
M  V30 8664 C 854.443 -1.5666 1.14767 0
M  V30 8665 O 853.718 -1.93319 0.214025 0
M  V30 8666 C 854.001 -0.759588 3.51998 0
M  V30 8667 C 853.854 0.451134 4.47532 0
M  V30 8668 C 855.173 -1.60186 4.09913 0
M  V30 8669 H 852.292 -0.130157 0.725416 0
M  V30 8670 H 854.934 0.363431 1.86492 0
M  V30 8671 H 853.084 -1.3778 3.63248 0
M  V30 8672 H 854.756 1.08965 4.48246 0
M  V30 8673 H 852.999 1.092 4.19831 0
M  V30 8674 H 853.67 0.129518 5.51848 0
M  V30 8675 H 856.146 -1.0799 4.01842 0
M  V30 8676 H 855.022 -1.84879 5.16828 0
M  V30 8677 H 855.283 -2.57787 3.59163 0
M  V30 8678 N 854.342 -1.57594 -0.0133615 0
M  V30 8679 C 855.305 -2.06534 -0.993799 0
M  V30 8680 C 856.305 -0.972267 -1.28077 0
M  V30 8681 O 857.495 -1.23537 -1.22818 0
M  V30 8682 C 854.627 -2.49554 -2.3224 0
M  V30 8683 H 855.82 -2.94419 -0.570741 0
M  V30 8684 H 853.373 -1.54113 -0.260546 0
M  V30 8685 H 854.108 -1.64872 -2.79263 0
M  V30 8686 H 853.893 -3.29371 -2.12737 0
M  V30 8687 H 855.383 -2.8779 -3.026 0
M  V30 8688 N 855.82 0.285905 -1.54985 0
M  V30 8689 C 857.231 0.857869 -1.65824 0
M  V30 8690 C 857.582 1.87531 -0.576763 0
M  V30 8691 O 856.707 2.14528 0.284016 0
M  V30 8692 C 857.302 1.56277 -3.00604 0
M  V30 8693 C 855.861 2.08294 -3.13513 0
M  V30 8694 C 855.008 0.920633 -2.61571 0
M  V30 8695 H 857.959 0.0625463 -1.58577 0
M  V30 8696 H 857.98 2.42912 -2.92872 0
M  V30 8697 H 857.492 0.822017 -3.79295 0
M  V30 8698 H 855.593 2.8537 -2.39572 0
M  V30 8699 H 855.706 2.3071 -4.19892 0
M  V30 8700 H 854.07 1.31043 -2.18403 0
M  V30 8701 H 854.853 0.193594 -3.42754 0
M  V30 8702 N 857.298 1.47698 0.54982 0
M  V30 8703 C 858.261 1.60282 1.63837 0
M  V30 8704 C 859.261 0.477394 1.5355 0
M  V30 8705 O 860.451 0.742665 1.57576 0
M  V30 8706 C 857.583 1.55431 3.03404 0
M  V30 8707 H 858.776 2.57325 1.54026 0
M  V30 8708 H 856.329 1.35999 0.770329 0
M  V30 8709 H 857.064 0.597912 3.1874 0
M  V30 8710 H 856.849 2.37116 3.12279 0
M  V30 8711 H 858.339 1.6739 3.82584 0
M  V30 8712 N 858.776 -0.797141 1.35954 0
M  V30 8713 C 860.023 -1.55468 1.29754 0
M  V30 8714 C 860.351 -1.94095 -0.125391 0
M  V30 8715 O 859.606 -1.62341 -1.09288 0
M  V30 8716 C 859.905 -2.84847 2.15863 0
M  V30 8717 C 859.571 -2.65394 3.64523 0
M  V30 8718 C 858.233 -2.59796 4.05042 0
M  V30 8719 C 860.585 -2.4727 4.58811 0
M  V30 8720 C 857.913 -2.3403 5.38002 0
M  V30 8721 C 860.265 -2.23032 5.91979 0
M  V30 8722 C 858.929 -2.15862 6.31633 0
M  V30 8723 H 858.199 -0.568897 0.474803 0
M  V30 8724 H 860.846 -0.920299 1.67937 0
M  V30 8725 H 859.151 -3.52712 1.70591 0
M  V30 8726 H 860.848 -3.42597 2.08395 0
M  V30 8727 H 857.438 -2.70602 3.32374 0
M  V30 8728 H 861.622 -2.506 4.28384 0
M  V30 8729 H 856.878 -2.26956 5.67715 0
M  V30 8730 H 861.052 -2.08001 6.64612 0
M  V30 8731 H 858.679 -1.9566 7.34589 0
M  V30 8732 N 860.254 -1.20106 -1.0204 0
M  V30 8733 C 861.217 -0.948261 -2.08664 0
M  V30 8734 C 862.217 0.0746753 -1.60627 0
M  V30 8735 O 863.407 -0.160981 -1.73455 0
M  V30 8736 C 860.539 -0.426854 -3.38217 0
M  V30 8737 H 861.732 -1.894 -2.32524 0
M  V30 8738 H 859.285 -1.0159 -1.18782 0
M  V30 8739 H 860.02 0.524532 -3.2003 0
M  V30 8740 H 859.805 -1.16451 -3.74408 0
M  V30 8741 H 861.295 -0.269346 -4.1673 0
M  V30 8742 N 861.732 1.21287 -1.00634 0
M  V30 8743 C 862.682 2.21541 -0.53886 0
M  V30 8744 C 863.666 1.55842 0.400256 0
M  V30 8745 O 864.858 1.75566 0.224889 0
M  V30 8746 C 861.987 3.43047 0.131796 0
M  V30 8747 C 861.073 4.1593 -0.828419 0
M  V30 8748 N 861.464 4.65359 -1.98178 0
M  V30 8749 C 859.762 4.41281 -0.647083 0
M  V30 8750 C 860.463 5.21079 -2.58557 0
M  V30 8751 N 859.439 5.10531 -1.86705 0
M  V30 8752 H 863.241 2.57413 -1.41831 0
M  V30 8753 H 860.755 1.37109 -0.870338 0
M  V30 8754 H 862.752 4.14079 0.484178 0
M  V30 8755 H 861.412 3.08683 1.00721 0
M  V30 8756 H 862.423 4.60896 -2.3621 0
M  V30 8757 H 859.1 4.17107 0.181139 0
M  V30 8758 H 860.49 5.6977 -3.56107 0
M  V30 8759 N 863.21 0.781244 1.36873 0
M  V30 8760 C 864.438 0.361566 2.03716 0
M  V30 8761 C 864.853 -1.01937 1.58916 0
M  V30 8762 O 864.21 -1.65237 0.774783 0
M  V30 8763 C 864.261 0.406391 3.59208 0
M  V30 8764 O 863.982 1.73286 4.02372 0
M  V30 8765 C 865.483 -0.0236894 4.43294 0
M  V30 8766 H 862.703 0.150133 0.653988 0
M  V30 8767 H 865.247 1.05781 1.75016 0
M  V30 8768 H 863.402 -0.241364 3.86647 0
M  V30 8769 H 863.816 1.67804 4.96933 0
M  V30 8770 H 865.29 0.0588205 5.51969 0
M  V30 8771 H 865.767 -1.07529 4.25833 0
M  V30 8772 H 866.373 0.59624 4.211 0
M  V30 8773 N 864.689 -1.48329 0.532571 0
M  V30 8774 C 865.914 -2.074 0.00147755 0
M  V30 8775 C 866.339 -1.38615 -1.27151 0
M  V30 8776 O 865.697 -0.452949 -1.75551 0
M  V30 8777 C 865.745 -3.60029 -0.202866 0
M  V30 8778 O 864.849 -3.92327 -1.27097 0
M  V30 8779 H 864.19 -0.662777 0.0402883 0
M  V30 8780 H 866.72 -1.90701 0.741224 0
M  V30 8781 H 866.73 -4.05783 -0.424722 0
M  V30 8782 H 865.405 -4.09496 0.727033 0
M  V30 8783 H 863.982 -3.58348 -1.03156 0
M  V30 8784 N 866.167 -0.267825 -1.55308 0
M  V30 8785 C 867.099 0.65591 -2.19614 0
M  V30 8786 C 868.112 1.12302 -1.17865 0
M  V30 8787 O 869.301 1.04618 -1.44628 0
M  V30 8788 C 866.401 1.90582 -2.80235 0
M  V30 8789 C 865.574 1.58673 -4.07605 0
M  V30 8790 C 864.633 2.68836 -4.52343 0
M  V30 8791 O 863.659 2.35331 -5.18274 0
M  V30 8792 N 864.861 3.98752 -4.21873 0
M  V30 8793 H 867.626 0.105566 -2.99514 0
M  V30 8794 H 865.187 -0.0886263 -1.61657 0
M  V30 8795 H 867.179 2.63561 -3.07112 0
M  V30 8796 H 865.749 2.3654 -2.04371 0
M  V30 8797 H 864.969 0.691113 -3.88094 0
M  V30 8798 H 866.257 1.34845 -4.90606 0
M  V30 8799 H 865.655 4.28797 -3.68985 0
M  V30 8800 H 864.212 4.68131 -4.53537 0
M  V30 8801 N 867.645 1.57599 0.00500368 0
M  V30 8802 C 868.891 1.90631 0.691919 0
M  V30 8803 C 869.224 0.868443 1.737 0
M  V30 8804 O 868.499 -0.113482 1.94169 0
M  V30 8805 C 868.782 3.34255 1.33961 0
M  V30 8806 C 868.635 4.48755 0.306413 0
M  V30 8807 C 869.954 3.77211 2.26715 0
M  V30 8808 H 867.073 0.693279 0.250066 0
M  V30 8809 H 869.715 1.89946 -0.0452634 0
M  V30 8810 H 867.865 3.3497 1.96793 0
M  V30 8811 H 869.537 4.60176 -0.321841 0
M  V30 8812 H 867.78 4.32203 -0.371852 0
M  V30 8813 H 868.451 5.46193 0.798554 0
M  V30 8814 H 870.927 3.78017 1.73904 0
M  V30 8815 H 869.803 4.78466 2.69002 0
M  V30 8816 H 870.064 3.10801 3.14413 0
M  V30 8817 N 869.123 -0.277682 1.55134 0
M  V30 8818 C 870.053 -1.34742 1.90701 0
M  V30 8819 C 871.034 -1.51757 0.768354 0
M  V30 8820 O 872.219 -1.64879 1.02609 0
M  V30 8821 C 869.349 -2.70775 2.17481 0
M  V30 8822 C 868.303 -2.68497 3.33307 0
M  V30 8823 C 867.629 -4.08037 3.45557 0
M  V30 8824 C 868.929 -2.28178 4.69821 0
M  V30 8825 H 870.623 -1.05224 2.803 0
M  V30 8826 H 868.169 -0.504738 1.34864 0
M  V30 8827 H 870.122 -3.45719 2.40949 0
M  V30 8828 H 868.846 -3.01867 1.24676 0
M  V30 8829 H 867.505 -1.9601 3.09799 0
M  V30 8830 H 867.153 -4.36344 2.50226 0
M  V30 8831 H 866.853 -4.07409 4.23429 0
M  V30 8832 H 868.377 -4.84726 3.71312 0
M  V30 8833 H 869.791 -2.92843 4.92865 0
M  V30 8834 H 868.188 -2.3872 5.50575 0
M  V30 8835 H 869.258 -1.23308 4.6896 0
M  V30 8836 N 870.601 -1.47988 -0.541979 0
M  V30 8837 C 871.847 -1.55623 -1.30036 0
M  V30 8838 C 872.18 -0.224254 -1.92901 0
M  V30 8839 O 871.455 0.768629 -1.78668 0
M  V30 8840 C 871.738 -2.68562 -2.39888 0
M  V30 8841 C 871.591 -4.11426 -1.81792 0
M  V30 8842 C 872.91 -2.77325 -3.41729 0
M  V30 8843 H 870.029 -0.566498 -0.471433 0
M  V30 8844 H 872.671 -1.8011 -0.604998 0
M  V30 8845 H 870.821 -2.47814 -2.992 0
M  V30 8846 H 872.493 -4.43581 -1.26624 0
M  V30 8847 H 870.736 -4.18989 -1.12386 0
M  V30 8848 H 871.407 -4.8625 -2.61276 0
M  V30 8849 H 873.883 -2.96085 -2.92357 0
M  V30 8850 H 872.759 -3.58097 -4.16002 0
M  V30 8851 H 873.02 -1.84995 -4.01534 0
M  V30 8852 N 872.079 0.78992 -1.36375 0
M  V30 8853 C 873.356 1.53584 -1.21126 0
M  V30 8854 C 873.736 2.10124 0.202785 0
M  V30 8855 O 873.084 1.93936 1.20835 0
M  V30 8856 C 873.294 2.63117 -2.29282 0
M  V30 8857 C 874.642 3.31013 -2.65924 0
M  V30 8858 O 875.666 2.734 -2.28321 0
M  V30 8859 O 874.525 4.35129 -3.30643 0
M  V30 8860 H 871.619 0.679366 -0.471583 0
M  V30 8861 H 874.165 0.828446 -1.48104 0
M  V30 8862 H 872.937 2.19329 -3.24053 0
M  V30 8863 H 872.56 3.41476 -2.03666 0
M  V30 8864 N 873.557 1.20646 1.01402 0
M  V30 8865 C 874.504 0.957618 2.09996 0
M  V30 8866 C 875.474 -0.113115 1.65714 0
M  V30 8867 O 876.659 0.032142 1.90773 0
M  V30 8868 C 873.799 0.5186 3.41181 0
M  V30 8869 C 872.912 1.65777 3.98926 0
M  V30 8870 C 872.047 1.16881 5.18182 0
M  V30 8871 C 871.086 2.2809 5.68015 0
M  V30 8872 N 870.223 1.80392 6.7853 0
M  V30 8873 H 875.063 1.88732 2.30617 0
M  V30 8874 H 872.6 0.940703 1.13089 0
M  V30 8875 H 874.558 0.245367 4.16478 0
M  V30 8876 H 873.188 -0.3741 3.20625 0
M  V30 8877 H 872.24 2.04586 3.207 0
M  V30 8878 H 873.552 2.49507 4.31912 0
M  V30 8879 H 872.706 0.851694 6.00692 0
M  V30 8880 H 871.445 0.301434 4.86768 0
M  V30 8881 H 870.45 2.60614 4.84108 0
M  V30 8882 H 871.675 3.15308 6.01463 0
M  V30 8883 H 869.621 0.959856 6.4894 0
M  V30 8884 H 869.538 2.57701 7.10722 0
M  V30 8885 H 870.806 1.51688 7.64598 0
M  V30 8886 N 875.035 -1.20752 1.01276 0
M  V30 8887 C 876.26 -1.94547 0.718769 0
M  V30 8888 C 876.685 -1.7404 -0.713563 0
M  V30 8889 O 876.043 -1.03221 -1.49047 0
M  V30 8890 C 876.091 -3.44823 1.05497 0
M  V30 8891 O 875.195 -4.12072 0.164516 0
M  V30 8892 H 874.536 -0.607931 0.267051 0
M  V30 8893 H 877.066 -1.53292 1.35509 0
M  V30 8894 H 877.076 -3.95427 1.00507 0
M  V30 8895 H 875.751 -3.59072 2.09858 0
M  V30 8896 H 874.328 -3.71909 0.271615 0
M  V30 8897 N 876.513 -0.788492 -1.36457 0
M  V30 8898 C 877.443 -0.200468 -2.32638 0
M  V30 8899 C 878.424 0.664031 -1.56603 0
M  V30 8900 O 879.609 0.598045 -1.84762 0
M  V30 8901 C 876.739 0.666274 -3.40849 0
M  V30 8902 C 875.693 -0.0982574 -4.27887 0
M  V30 8903 C 875.019 0.889018 -5.27258 0
M  V30 8904 C 876.319 -1.28692 -5.06197 0
M  V30 8905 H 878.013 -1.00399 -2.82065 0
M  V30 8906 H 875.559 -0.484237 -1.35614 0
M  V30 8907 H 877.512 1.08757 -4.07124 0
M  V30 8908 H 876.236 1.50249 -2.89987 0
M  V30 8909 H 874.895 -0.500525 -3.63167 0
M  V30 8910 H 874.543 1.72024 -4.7267 0
M  V30 8911 H 874.243 0.381909 -5.86358 0
M  V30 8912 H 875.767 1.30891 -5.96406 0
M  V30 8913 H 877.181 -0.941429 -5.65517 0
M  V30 8914 H 875.578 -1.72726 -5.74705 0
M  V30 8915 H 876.648 -2.08273 -4.37893 0
M  V30 8916 N 877.991 1.48044 -0.54043 0
M  V30 8917 C 878.938 2.29781 0.216597 0
M  V30 8918 C 879.908 1.38021 0.924094 0
M  V30 8919 O 881.093 1.66985 0.923078 0
M  V30 8920 C 878.233 3.21623 1.2511 0
M  V30 8921 C 877.346 4.28467 0.551384 0
M  V30 8922 C 876.481 5.07477 1.56972 0
M  V30 8923 C 875.52 6.06113 0.854048 0
M  V30 8924 N 874.657 6.78143 1.81842 0
M  V30 8925 H 879.497 2.94001 -0.486578 0
M  V30 8926 H 877.034 1.44929 -0.251789 0
M  V30 8927 H 878.992 3.73279 1.8633 0
M  V30 8928 H 877.622 2.59305 1.92252 0
M  V30 8929 H 876.674 3.79997 -0.174982 0
M  V30 8930 H 877.986 4.98799 -0.0100542 0
M  V30 8931 H 877.14 5.63199 2.25592 0
M  V30 8932 H 875.879 4.37008 2.16507 0
M  V30 8933 H 874.884 5.49585 0.153838 0
M  V30 8934 H 876.109 6.78584 0.264675 0
M  V30 8935 H 874.055 6.10417 2.40265 0
M  V30 8936 H 873.972 7.44587 1.3087 0
M  V30 8937 H 875.24 7.38448 2.49628 0
M  V30 8938 N 879.47 0.276058 1.55163 0
M  V30 8939 C 880.718 -0.339782 1.99223 0
M  V30 8940 C 881.039 -1.56307 1.16589 0
M  V30 8941 O 880.309 -1.94225 0.25564 0
M  V30 8942 H 878.889 -0.128534 0.735859 0
M  V30 8943 H 881.551 0.381612 1.91128 0
M  V30 8944 H 880.647 -0.629 3.05696 0
M  V30 8945 N 880.948 -1.576 0.00335426 0
M  V30 8946 C 882.194 -1.91833 -0.676149 0
M  V30 8947 C 882.549 -0.878079 -1.71194 0
M  V30 8948 O 881.842 0.109297 -1.91288 0
M  V30 8949 C 882.036 -3.3058 -1.35837 0
M  V30 8950 C 881.865 -4.48004 -0.390171 0
M  V30 8951 C 880.635 -5.053 0.000648493 0
M  V30 8952 C 882.833 -5.13142 0.344982 0
M  V30 8953 N 880.815 -6.06241 0.966709 0
M  V30 8954 C 882.186 -6.08944 1.16562 0
M  V30 8955 C 884.241 -4.96222 0.408457 0
M  V30 8956 C 882.944 -6.89649 2.04395 0
M  V30 8957 C 884.97 -5.77514 1.27403 0
M  V30 8958 C 884.332 -6.72912 2.08251 0
M  V30 8959 H 880.431 -0.750263 -0.220519 0
M  V30 8960 H 883.015 -1.94593 0.0644891 0
M  V30 8961 H 881.186 -3.28687 -2.06928 0
M  V30 8962 H 882.918 -3.52233 -1.99284 0
M  V30 8963 H 879.673 -4.72165 -0.368428 0
M  V30 8964 H 880.097 -6.61394 1.44521 0
M  V30 8965 H 884.739 -4.22316 -0.202324 0
M  V30 8966 H 882.457 -7.62878 2.66539 0
M  V30 8967 H 886.043 -5.66462 1.3271 0
M  V30 8968 H 884.923 -7.34721 2.74145 0
M  V30 8969 N 882.426 0.269451 -1.5528 0
M  V30 8970 C 883.373 1.33316 -1.88403 0
M  V30 8971 C 884.343 1.48909 -0.735881 0
M  V30 8972 O 885.528 1.63259 -0.987479 0
M  V30 8973 C 882.668 2.68778 -2.16454 0
M  V30 8974 C 881.781 2.61377 -3.43956 0
M  V30 8975 C 880.916 3.89042 -3.6169 0
M  V30 8976 C 879.955 3.76166 -4.82872 0
M  V30 8977 N 879.092 4.95673 -4.97245 0
M  V30 8978 H 883.932 1.04368 -2.79126 0
M  V30 8979 H 881.469 0.504147 -1.38191 0
M  V30 8980 H 883.427 3.47599 -2.30719 0
M  V30 8981 H 882.057 2.9592 -1.28961 0
M  V30 8982 H 881.109 1.74247 -3.38145 0
M  V30 8983 H 882.421 2.47764 -4.32914 0
M  V30 8984 H 881.575 4.76304 -3.75791 0
M  V30 8985 H 880.314 4.05526 -2.70924 0
M  V30 8986 H 879.319 2.87287 -4.68771 0
M  V30 8987 H 880.544 3.61198 -5.75077 0
M  V30 8988 H 878.49 5.12561 -4.09411 0
M  V30 8989 H 878.407 4.84605 -5.80254 0
M  V30 8990 H 879.675 5.84498 -5.15735 0
M  V30 8991 N 883.904 1.48273 0.534124 0
M  V30 8992 C 884.814 1.65162 1.66609 0
M  V30 8993 C 885.83 0.534177 1.65598 0
M  V30 8994 O 887.006 0.804715 1.84625 0
M  V30 8995 C 884.071 1.68354 3.03081 0
M  V30 8996 C 883.132 2.91696 3.1498 0
M  V30 8997 C 882.365 2.94725 4.44941 0
M  V30 8998 O 882.588 2.06285 5.31792 0
M  V30 8999 O 881.522 3.8685 4.61119 0
M  V30 9000 H 885.348 2.60991 1.55298 0
M  V30 9001 H 882.933 1.31626 0.706749 0
M  V30 9002 H 884.815 1.72998 3.84252 0
M  V30 9003 H 883.49 0.756978 3.14725 0
M  V30 9004 H 882.397 2.92586 2.33119 0
M  V30 9005 H 883.73 3.83722 3.0825 0
M  V30 9006 N 885.382 -0.782676 1.36792 0
M  V30 9007 C 886.631 -1.53605 1.30723 0
M  V30 9008 C 886.944 -1.95294 -0.109296 0
M  V30 9009 O 888.15 -2.69921 -0.292398 0
M  V30 9010 C 886.606 -2.77321 2.29393 0
M  V30 9011 C 886.214 -2.42774 3.76517 0
M  V30 9012 C 887.958 -3.55289 2.32314 0
M  V30 9013 C 885.865 -3.62926 4.66947 0
M  V30 9014 H 884.795 -0.576646 0.485794 0
M  V30 9015 H 887.446 -0.858255 1.62192 0
M  V30 9016 H 885.828 -3.46934 1.90927 0
M  V30 9017 H 887.002 -1.81014 4.23758 0
M  V30 9018 H 885.317 -1.78002 3.76436 0
M  V30 9019 H 887.914 -4.44573 2.97083 0
M  V30 9020 H 888.257 -3.94361 1.3336 0
M  V30 9021 H 888.79 -2.92662 2.69432 0
M  V30 9022 H 885.529 -3.28944 5.66989 0
M  V30 9023 H 885.049 -4.23828 4.24418 0
M  V30 9024 H 886.728 -4.29873 4.83548 0
M  V30 9025 N 886.86 -1.21182 -1.00761 0
M  V30 9026 C 887.77 -0.984691 -2.12934 0
M  V30 9027 C 888.786 0.0623657 -1.73888 0
M  V30 9028 O 889.962 -0.1271 -2.00999 0
M  V30 9029 C 887.027 -0.549447 -3.42319 0
M  V30 9030 C 886.088 -1.66841 -3.95553 0
M  V30 9031 C 885.321 -1.25384 -5.18763 0
M  V30 9032 O 885.544 -0.126333 -5.7026 0
M  V30 9033 O 884.478 -2.06475 -5.65377 0
M  V30 9034 H 888.304 -1.92413 -2.3497 0
M  V30 9035 H 885.889 -0.99647 -1.11314 0
M  V30 9036 H 887.771 -0.316384 -4.20211 0
M  V30 9037 H 886.446 0.361304 -3.21677 0
M  V30 9038 H 885.353 -1.95585 -3.189 0
M  V30 9039 H 886.686 -2.55649 -4.206 0
M  V30 9040 N 888.338 1.20213 -1.01915 0
M  V30 9041 C 889.568 1.93341 -0.728197 0
M  V30 9042 C 889.976 1.75151 0.715454 0
M  V30 9043 O 889.319 1.06437 1.49722 0
M  V30 9044 C 889.381 3.45677 -0.9873 0
M  V30 9045 C 889.045 3.8763 -2.42057 0
M  V30 9046 C 890.042 3.93184 -3.40151 0
M  V30 9047 C 887.727 4.19547 -2.76199 0
M  V30 9048 C 889.721 4.30069 -4.70446 0
M  V30 9049 C 887.408 4.56106 -4.06707 0
M  V30 9050 C 888.406 4.6134 -5.03641 0
M  V30 9051 O 888.094 4.97059 -6.31813 0
M  V30 9052 H 887.826 0.621258 -0.266485 0
M  V30 9053 H 890.38 1.53577 -1.36393 0
M  V30 9054 H 888.61 3.85578 -0.294405 0
M  V30 9055 H 890.299 4.00035 -0.687536 0
M  V30 9056 H 891.065 3.68687 -3.15111 0
M  V30 9057 H 886.944 4.14663 -2.01434 0
M  V30 9058 H 890.488 4.34069 -5.46105 0
M  V30 9059 H 886.385 4.80059 -4.31525 0
M  V30 9060 H 887.153 5.15043 -6.36139 0
M  V30 9061 N 889.816 0.795718 1.36037 0
M  V30 9062 C 890.726 0.199784 2.33748 0
M  V30 9063 C 891.742 -0.651436 1.61345 0
M  V30 9064 O 892.918 -0.565743 1.93291 0
M  V30 9065 C 889.983 -0.650475 3.40543 0
M  V30 9066 C 889.044 0.219974 4.28736 0
M  V30 9067 C 888.277 -0.589798 5.30431 0
M  V30 9068 O 888.5 -1.82532 5.40406 0
M  V30 9069 O 887.434 0.0136187 6.01898 0
M  V30 9070 H 891.26 1.00782 2.8649 0
M  V30 9071 H 888.845 0.557293 1.38617 0
M  V30 9072 H 890.727 -1.13512 4.05824 0
M  V30 9073 H 889.402 -1.4363 2.9009 0
M  V30 9074 H 888.309 0.751516 3.66474 0
M  V30 9075 H 889.642 0.969468 4.82558 0
M  V30 9076 N 891.294 -1.47756 0.548274 0
M  V30 9077 C 892.54 -2.02789 0.0209265 0
M  V30 9078 C 892.873 -1.42268 -1.32187 0
M  V30 9079 O 892.148 -0.575001 -1.85806 0
M  V30 9080 C 892.431 -3.60007 -0.0816674 0
M  V30 9081 C 892.284 -4.30977 1.28759 0
M  V30 9082 C 893.603 -4.32777 -0.799515 0
M  V30 9083 H 890.722 -0.736944 0.00907884 0
M  V30 9084 H 893.364 -1.76282 0.708839 0
M  V30 9085 H 891.514 -3.82722 -0.667537 0
M  V30 9086 H 893.186 -4.19629 1.91597 0
M  V30 9087 H 891.429 -3.9168 1.86466 0
M  V30 9088 H 892.1 -5.39488 1.16861 0
M  V30 9089 H 894.576 -4.15001 -0.30216 0
M  V30 9090 H 893.452 -5.42431 -0.840239 0
M  V30 9091 H 893.713 -4.01358 -1.85375 0
M  V30 9092 N 892.772 -0.284283 -1.55015 0
M  V30 9093 C 894.018 0.330352 -2.00091 0
M  V30 9094 C 894.351 1.54814 -1.17244 0
M  V30 9095 O 893.626 1.92954 -0.244753 0
M  V30 9096 C 893.909 0.703492 -3.53161 0
M  V30 9097 C 893.762 -0.522275 -4.46758 0
M  V30 9098 C 895.081 1.53645 -4.12409 0
M  V30 9099 H 892.2 0.118599 -0.727395 0
M  V30 9100 H 894.842 -0.393054 -1.8589 0
M  V30 9101 H 892.992 1.31983 -3.65394 0
M  V30 9102 H 894.664 -1.16082 -4.46456 0
M  V30 9103 H 892.907 -1.15865 -4.1804 0
M  V30 9104 H 893.578 -0.217295 -5.51572 0
M  V30 9105 H 896.054 1.01583 -4.0351 0
M  V30 9106 H 894.93 1.76633 -5.19704 0
M  V30 9107 H 895.191 2.5204 -3.63219 0
M  V30 9108 N 894.251 1.57596 -0.0117121 0
M  V30 9109 C 895.667 1.55837 0.344506 0
M  V30 9110 C 895.867 1.01557 1.74036 0
M  V30 9111 O 894.923 0.654563 2.43868 0
M  V30 9112 C 896.236 2.99973 0.209023 0
M  V30 9113 C 897.784 3.11717 0.283092 0
M  V30 9114 C 898.259 4.57659 0.176599 0
M  V30 9115 N 899.75 4.62608 0.234133 0
M  V30 9116 C 900.485 5.73132 0.175252 0
M  V30 9117 N 899.981 6.92768 0.0662888 0
M  V30 9118 N 901.774 5.61638 0.227972 0
M  V30 9119 H 893.925 1.91215 -0.924692 0
M  V30 9120 H 896.188 0.878807 -0.355531 0
M  V30 9121 H 895.894 3.4357 -0.751826 0
M  V30 9122 H 895.768 3.64075 0.98635 0
M  V30 9123 H 898.155 2.68043 1.23439 0
M  V30 9124 H 898.236 2.50369 -0.52431 0
M  V30 9125 H 897.88 5.02011 -0.771205 0
M  V30 9126 H 897.81 5.16967 1.00264 0
M  V30 9127 H 900.301 3.76549 0.319203 0
M  V30 9128 H 900.614 7.72795 0.0275765 0
M  V30 9129 H 898.959 6.94993 0.0317502 0
M  V30 9130 H 902.15 4.67063 0.311377 0
M  V30 9131 H 902.323 6.47754 0.178621 0
M  V30 9132 N 895.729 -0.261212 1.5542 0
M  V30 9133 C 897.006 -1.01321 1.67312 0
M  V30 9134 C 897.386 -2.0388 0.547356 0
M  V30 9135 O 896.734 -2.24003 -0.451083 0
M  V30 9136 C 896.944 -1.65943 3.07024 0
M  V30 9137 C 898.292 -2.16666 3.65159 0
M  V30 9138 O 899.316 -1.75909 3.09733 0
M  V30 9139 O 898.175 -2.91455 4.62294 0
M  V30 9140 H 895.269 -0.470714 0.679968 0
M  V30 9141 H 897.815 -0.256133 1.67756 0
M  V30 9142 H 896.587 -0.916868 3.80407 0
M  V30 9143 H 896.21 -2.48308 3.1053 0
M  V30 9144 N 897.207 -1.48554 -0.526253 0
M  V30 9145 C 898.17 -1.62868 -1.61266 0
M  V30 9146 C 899.17 -0.501762 -1.52771 0
M  V30 9147 O 900.36 -0.76764 -1.56374 0
M  V30 9148 C 897.492 -1.60238 -3.00893 0
M  V30 9149 H 898.685 -2.59742 -1.49913 0
M  V30 9150 H 896.238 -1.37207 -0.748595 0
M  V30 9151 H 896.973 -0.648545 -3.17749 0
M  V30 9152 H 896.758 -2.42054 -3.08468 0
M  V30 9153 H 898.248 -1.73455 -3.79872 0
M  V30 9154 N 898.685 0.775411 -1.37205 0
M  V30 9155 C 899.915 1.56219 -1.352 0
M  V30 9156 C 900.323 1.89087 0.065456 0
M  V30 9157 O 899.666 1.51655 1.03665 0
M  V30 9158 C 899.728 2.9019 -2.12203 0
M  V30 9159 C 899.392 2.79978 -3.61195 0
M  V30 9160 C 900.389 2.51258 -4.55154 0
M  V30 9161 C 898.074 2.98115 -4.04268 0
M  V30 9162 C 900.068 2.40798 -5.90165 0
M  V30 9163 C 897.755 2.87276 -5.39366 0
M  V30 9164 C 898.753 2.58657 -6.32128 0
M  V30 9165 O 898.441 2.47838 -7.64743 0
M  V30 9166 H 898.173 0.490735 -0.464925 0
M  V30 9167 H 900.727 0.969201 -1.81096 0
M  V30 9168 H 898.957 3.51594 -1.60992 0
M  V30 9169 H 900.646 3.51561 -2.02879 0
M  V30 9170 H 901.412 2.36935 -4.23186 0
M  V30 9171 H 897.291 3.19392 -3.3243 0
M  V30 9172 H 900.835 2.18381 -6.62537 0
M  V30 9173 H 896.732 3.01166 -5.70937 0
M  V30 9174 H 897.5 2.63215 -7.75023 0
M  V30 9175 N 900.163 1.21714 1.00117 0
M  V30 9176 C 901.411 1.03465 1.73607 0
M  V30 9177 C 901.732 -0.432295 1.90148 0
M  V30 9178 O 901.002 -1.31157 1.45515 0
M  V30 9179 H 899.582 0.379857 0.643209 0
M  V30 9180 H 902.244 1.53088 1.20624 0
M  V30 9181 H 901.34 1.50574 2.73375 0
M  V30 9182 N 901.641 -1.19671 1.02551 0
M  V30 9183 C 902.589 -2.24812 0.596867 0
M  V30 9184 C 903.583 -1.65336 -0.368839 0
M  V30 9185 O 904.789 -1.78422 -0.237786 0
M  V30 9186 H 901.164 -0.731417 0.174739 0
M  V30 9187 H 903.135 -2.58286 1.49435 0
M  V30 9188 C 901.884 -3.47677 -0.0399514 0
M  V30 9189 H 901.207 -3.93728 0.694153 0
M  V30 9190 H 902.647 -4.22917 -0.302861 0
M  V30 9191 C 901.106 -3.11411 -1.2855 0
M  V30 9192 O 901.636 -3.23757 -2.37791 0
M  V30 9193 N 899.842 -2.65875 -1.17297 0
M  V30 9194 H 899.389 -2.56029 -0.284045 0
M  V30 9195 H 899.347 -2.41981 -2.00731 0
M  V30 9196 N 903.119 -0.802921 -1.35613 0
M  V30 9197 C 904.359 -0.387163 -2.007 0
M  V30 9198 C 904.723 1.02546 -1.62322 0
M  V30 9199 O 905.924 1.54303 -2.201 0
M  V30 9200 C 904.195 -0.560813 -3.52973 0
M  V30 9201 S 905.754 -0.234935 -4.38171 0
M  V30 9202 H 902.572 -0.147218 -0.695592 0
M  V30 9203 H 905.174 -1.04437 -1.65267 0
M  V30 9204 H 903.878 -1.58897 -3.78391 0
M  V30 9205 H 903.409 0.111845 -3.93241 0
M  V30 9206 H 905.424 0.958715 -4.8685 0
M  V30 9207 N 904.597 1.47463 -0.556102 0
M  V30 9208 C 905.843 2.02775 -0.0316806 0
M  V30 9209 C 906.176 1.42967 1.3143 0
M  V30 9210 O 905.451 0.584847 1.85499 0
M  V30 9211 C 905.734 3.60046 0.0625742 0
M  V30 9212 C 905.587 4.30288 -1.31043 0
M  V30 9213 C 906.906 4.33195 0.776553 0
M  V30 9214 H 904.025 0.736886 -0.0129869 0
M  V30 9215 H 906.667 1.75904 -0.718177 0
M  V30 9216 H 904.817 3.83071 0.647231 0
M  V30 9217 H 906.489 4.18607 -1.9382 0
M  V30 9218 H 904.732 3.90685 -1.8854 0
M  V30 9219 H 905.403 5.38861 -1.1972 0
M  V30 9220 H 907.879 4.15156 0.280147 0
M  V30 9221 H 906.755 5.42869 0.81146 0
M  V30 9222 H 907.016 4.02336 1.83244 0
M  V30 9223 N 906.075 0.2925 1.54862 0
M  V30 9224 C 907.303 -0.322113 2.04377 0
M  V30 9225 C 907.718 -1.48164 1.17016 0
M  V30 9226 O 907.075 -1.81466 0.19395 0
M  V30 9227 C 907.126 -0.786506 3.5284 0
M  V30 9228 O 906.847 0.326863 4.36879 0
M  V30 9229 C 908.348 -1.46715 4.18318 0
M  V30 9230 H 905.568 -0.0712074 0.667211 0
M  V30 9231 H 908.112 0.429657 1.99935 0
M  V30 9232 H 906.267 -1.48832 3.5767 0
M  V30 9233 H 906.681 -0.0331558 5.2449 0
M  V30 9234 H 908.155 -1.74333 5.23748 0
M  V30 9235 H 908.632 -2.40443 3.67538 0
M  V30 9236 H 909.238 -0.808735 4.1754 0
M  V30 9237 N 907.553 -1.57587 0.0200696 0
M  V30 9238 C 908.799 -1.91708 -0.661503 0
M  V30 9239 C 909.132 -0.895968 -1.72296 0
M  V30 9240 O 908.407 0.082577 -1.94325 0
M  V30 9241 C 908.69 -3.36344 -1.28627 0
M  V30 9242 C 908.543 -4.49186 -0.234982 0
M  V30 9243 C 909.862 -3.80771 -2.20685 0
M  V30 9244 H 906.981 -0.69717 -0.239005 0
M  V30 9245 H 909.623 -1.8985 0.0754764 0
M  V30 9246 H 907.773 -3.38058 -1.91439 0
M  V30 9247 H 909.445 -4.59606 0.395011 0
M  V30 9248 H 907.688 -4.31557 0.440565 0
M  V30 9249 H 908.359 -5.47395 -0.711558 0
M  V30 9250 H 910.835 -3.80735 -1.67868 0
M  V30 9251 H 909.711 -4.82685 -2.61356 0
M  V30 9252 H 909.972 -3.15764 -3.09428 0
M  V30 9253 N 909.032 0.252966 -1.55557 0
M  V30 9254 C 910.272 0.989276 -1.78865 0
M  V30 9255 C 910.636 1.82755 -0.588615 0
M  V30 9256 O 911.837 2.59516 -0.700347 0
M  V30 9257 C 910.108 1.83203 -3.06874 0
M  V30 9258 S 911.667 2.62826 -3.5138 0
M  V30 9259 H 908.485 0.332863 -0.62827 0
M  V30 9260 H 911.087 0.257716 -1.93794 0
M  V30 9261 H 909.791 1.20579 -3.92287 0
M  V30 9262 H 909.322 2.60644 -2.94666 0
M  V30 9263 H 911.337 3.85648 -3.12234 0
M  V30 9264 N 910.51 1.48831 0.518367 0
M  V30 9265 C 911.458 1.64678 1.64268 0
M  V30 9266 C 912.452 0.512967 1.61447 0
M  V30 9267 O 913.658 0.692063 1.66164 0
M  V30 9268 H 910.033 0.518964 0.544224 0
M  V30 9269 H 912.004 2.59083 1.4805 0
M  V30 9270 C 910.753 1.71449 3.0249 0
M  V30 9271 H 910.076 2.58061 3.0536 0
M  V30 9272 H 911.516 1.86577 3.80743 0
M  V30 9273 C 909.975 0.455584 3.33805 0
M  V30 9274 O 910.505 -0.426428 3.9943 0
M  V30 9275 N 908.711 0.323763 2.88791 0
M  V30 9276 H 908.258 1.04249 2.35563 0
M  V30 9277 H 908.216 -0.517514 3.10112 0
M  V30 9278 N 911.988 -0.768124 1.37614 0
M  V30 9279 C 912.921 -1.88894 1.2804 0
M  V30 9280 C 913.899 -1.61809 0.160226 0
M  V30 9281 O 915.083 -1.85498 0.33506 0
M  V30 9282 C 912.21 -3.24197 0.980523 0
M  V30 9283 C 911.256 -3.70188 2.11808 0
M  V30 9284 S 912.089 -3.83433 3.73817 0
M  V30 9285 C 913.245 -5.21578 3.45987 0
M  V30 9286 H 913.478 -1.96726 2.22904 0
M  V30 9287 H 911.011 -0.929602 1.23279 0
M  V30 9288 H 912.969 -4.02342 0.814331 0
M  V30 9289 H 911.63 -3.14061 0.0493122 0
M  V30 9290 H 910.823 -4.6829 1.86335 0
M  V30 9291 H 910.425 -2.99155 2.2446 0
M  V30 9292 H 912.717 -6.06865 3.012 0
M  V30 9293 H 913.66 -5.52065 4.43429 0
M  V30 9294 H 914.068 -4.89687 2.80832 0
M  V30 9295 N 913.466 -1.22244 -0.994698 0
M  V30 9296 C 914.376 -1.00722 -2.11878 0
M  V30 9297 C 915.392 0.043919 -1.73945 0
M  V30 9298 O 916.568 -0.148411 -2.00852 0
M  V30 9299 C 913.633 -0.585723 -3.41717 0
M  V30 9300 C 912.694 -1.71027 -3.93762 0
M  V30 9301 C 911.927 -1.30879 -5.17403 0
M  V30 9302 O 912.15 -0.18681 -5.70094 0
M  V30 9303 O 911.084 -2.1246 -5.63156 0
M  V30 9304 H 914.91 -1.94894 -2.32916 0
M  V30 9305 H 912.495 -1.00822 -1.10251 0
M  V30 9306 H 914.377 -0.360935 -4.19851 0
M  V30 9307 H 913.052 0.327166 -3.22042 0
M  V30 9308 H 911.959 -1.98956 -3.16808 0
M  V30 9309 H 913.292 -2.60096 -4.17865 0
M  V30 9310 N 914.944 1.19125 -1.03184 0
M  V30 9311 C 915.892 2.24492 -0.608781 0
M  V30 9312 C 916.886 1.65529 0.360065 0
M  V30 9313 O 918.092 1.78546 0.22832 0
M  V30 9314 H 914.467 0.73048 -0.178616 0
M  V30 9315 H 916.438 2.5749 -1.50803 0
M  V30 9316 C 915.187 3.47693 0.0215126 0
M  V30 9317 H 914.51 3.93354 -0.715024 0
M  V30 9318 H 915.95 4.23072 0.280429 0
M  V30 9319 C 914.409 3.12088 1.26896 0
M  V30 9320 O 914.939 3.25013 2.36071 0
M  V30 9321 N 913.145 2.66494 1.15886 0
M  V30 9322 H 912.692 2.56176 0.270463 0
M  V30 9323 H 912.65 2.43042 1.99444 0
M  V30 9324 N 916.422 0.810101 1.35185 0
M  V30 9325 C 917.352 0.237453 2.32289 0
M  V30 9326 C 918.333 -0.639032 1.5764 0
M  V30 9327 O 919.518 -0.568575 1.8569 0
M  V30 9328 C 916.648 -0.611964 3.41866 0
M  V30 9329 C 915.602 0.166318 4.27677 0
M  V30 9330 C 914.928 -0.805024 5.28605 0
M  V30 9331 C 916.228 1.36729 5.04086 0
M  V30 9332 H 917.922 1.04874 2.80432 0
M  V30 9333 H 915.468 0.505751 1.34826 0
M  V30 9334 H 917.421 -1.02267 4.08802 0
M  V30 9335 H 916.145 -1.45617 2.92341 0
M  V30 9336 H 914.804 0.558238 3.62325 0
M  V30 9337 H 914.452 -1.64483 4.75347 0
M  V30 9338 H 914.152 -0.288577 5.86891 0
M  V30 9339 H 915.676 -1.21386 5.98413 0
M  V30 9340 H 917.09 1.03128 5.63948 0
M  V30 9341 H 915.487 1.81848 5.71884 0
M  V30 9342 H 916.557 2.15214 4.34524 0
M  V30 9343 N 917.9 -1.47166 0.563914 0
M  V30 9344 C 919.177 -1.95586 -0.0236172 0
M  V30 9345 C 919.557 -1.50655 -1.47872 0
M  V30 9346 O 918.905 -0.748479 -2.15894 0
M  V30 9347 C 919.115 -3.48762 0.128841 0
M  V30 9348 C 920.463 -4.24598 -0.0130544 0
M  V30 9349 O 921.487 -3.56155 0.0567242 0
M  V30 9350 O 920.346 -5.46253 -0.164332 0
M  V30 9351 H 917.44 -0.824793 -0.0603789 0
M  V30 9352 H 919.986 -1.57536 0.63091 0
M  V30 9353 H 918.758 -3.74291 1.14113 0
M  V30 9354 H 918.381 -3.93594 -0.56299 0
M  V30 9355 N 919.378 -0.300708 -1.54705 0
M  V30 9356 C 920.789 0.191995 -1.8571 0
M  V30 9357 C 921.14 1.53447 -1.22264 0
M  V30 9358 O 920.265 2.10054 -0.520226 0
M  V30 9359 C 920.86 0.355148 -3.36933 0
M  V30 9360 C 919.419 0.792071 -3.67972 0
M  V30 9361 C 918.566 -0.099756 -2.77121 0
M  V30 9362 H 921.517 -0.521729 -1.49879 0
M  V30 9363 H 921.538 1.18977 -3.61421 0
M  V30 9364 H 921.05 -0.622075 -3.83082 0
M  V30 9365 H 919.151 1.77986 -3.27341 0
M  V30 9366 H 919.264 0.611661 -4.75179 0
M  V30 9367 H 917.628 0.420909 -2.51198 0
M  V30 9368 H 918.411 -1.07333 -3.2609 0
M  V30 9369 N 920.856 1.57574 -0.0284266 0
M  V30 9370 C 921.786 2.1321 0.952039 0
M  V30 9371 C 922.767 1.04806 1.33977 0
M  V30 9372 O 923.952 1.32635 1.41851 0
M  V30 9373 C 921.082 2.65862 2.23461 0
M  V30 9374 C 920.036 3.79047 1.98765 0
M  V30 9375 C 919.362 4.18124 3.33281 0
M  V30 9376 C 920.662 5.05151 1.32739 0
M  V30 9377 H 922.356 2.95385 0.488705 0
M  V30 9378 H 919.902 1.42092 0.233628 0
M  V30 9379 H 921.855 3.03417 2.92431 0
M  V30 9380 H 920.579 1.80848 2.71959 0
M  V30 9381 H 919.238 3.41929 1.32213 0
M  V30 9382 H 918.886 3.30092 3.79537 0
M  V30 9383 H 918.586 4.94396 3.17563 0
M  V30 9384 H 920.11 4.58262 4.0352 0
M  V30 9385 H 921.524 5.40297 1.91708 0
M  V30 9386 H 919.921 5.86416 1.27421 0
M  V30 9387 H 920.991 4.83969 0.300261 0
M  V30 9388 N 922.334 -0.244713 1.55689 0
M  V30 9389 C 923.582 -0.970525 1.77272 0
M  V30 9390 C 923.903 -1.85771 0.592804 0
M  V30 9391 O 923.173 -1.91952 -0.391323 0
M  V30 9392 H 921.753 -0.361342 0.653789 0
M  V30 9393 H 924.415 -0.262134 1.93129 0
M  V30 9394 H 923.511 -1.59096 2.68505 0
M  V30 9395 N 923.813 -1.49104 -0.510467 0
M  V30 9396 C 925.062 -1.57362 -1.26175 0
M  V30 9397 C 925.375 -0.261218 -1.93848 0
M  V30 9398 O 926.581 -0.222238 -2.70589 0
M  V30 9399 C 925.037 -2.77606 -2.29048 0
M  V30 9400 C 924.645 -4.15567 -1.67357 0
M  V30 9401 C 926.389 -2.95188 -3.05064 0
M  V30 9402 C 924.296 -5.27046 -2.68285 0
M  V30 9403 H 923.226 -0.585887 -0.474608 0
M  V30 9404 H 925.877 -1.75474 -0.536753 0
M  V30 9405 H 924.259 -2.52968 -3.04669 0
M  V30 9406 H 925.433 -4.50304 -0.977924 0
M  V30 9407 H 923.748 -4.03264 -1.03765 0
M  V30 9408 H 926.345 -3.75643 -3.80521 0
M  V30 9409 H 926.688 -2.05385 -3.62108 0
M  V30 9410 H 927.221 -3.19821 -2.36558 0
M  V30 9411 H 923.96 -6.18878 -2.16034 0
M  V30 9412 H 923.48 -4.96774 -3.36118 0
M  V30 9413 H 925.159 -5.55983 -3.30896 0
M  V30 9414 N 925.291 0.760815 -1.38019 0
M  V30 9415 C 926.241 1.86487 -1.31174 0
M  V30 9416 C 927.225 1.59684 -0.197414 0
M  V30 9417 O 928.417 1.71628 -0.432764 0
M  V30 9418 C 925.546 3.24103 -1.13192 0
M  V30 9419 C 924.632 3.5682 -2.29216 0
M  V30 9420 N 925.023 3.60644 -3.5464 0
M  V30 9421 C 923.321 3.87047 -2.2161 0
M  V30 9422 C 924.022 3.90423 -4.31214 0
M  V30 9423 N 922.998 4.06883 -3.60482 0
M  V30 9424 H 926.8 1.87711 -2.26146 0
M  V30 9425 H 924.314 0.957811 -1.31148 0
M  V30 9426 H 926.311 4.03101 -1.06372 0
M  V30 9427 H 924.971 3.24135 -0.191473 0
M  V30 9428 H 925.982 3.42581 -3.88405 0
M  V30 9429 H 922.659 3.94837 -1.35684 0
M  V30 9430 H 924.049 4.00065 -5.39812 0
M  V30 9431 N 926.769 1.22769 0.988202 0
M  V30 9432 C 927.997 1.08155 1.76381 0
M  V30 9433 C 928.412 -0.367573 1.85187 0
M  V30 9434 O 927.769 -1.25455 1.32541 0
M  V30 9435 C 927.82 1.69193 3.19462 0
M  V30 9436 O 927.541 3.08437 3.11125 0
M  V30 9437 C 929.042 1.59915 4.13451 0
M  V30 9438 H 926.262 0.378908 0.553778 0
M  V30 9439 H 928.806 1.6246 1.24206 0
M  V30 9440 H 926.961 1.18939 3.6869 0
M  V30 9441 H 927.375 3.37916 4.0114 0
M  V30 9442 H 928.849 2.07339 5.1158 0
M  V30 9443 H 929.326 0.556546 4.3566 0
M  V30 9444 H 929.932 2.09497 3.70123 0
M  V30 9445 N 928.247 -1.18576 1.03814 0
M  V30 9446 C 929.495 -1.88121 0.738574 0
M  V30 9447 C 929.816 -1.80587 -0.735744 0
M  V30 9448 O 929.086 -1.22251 -1.53074 0
M  V30 9449 H 927.666 -0.696417 0.270208 0
M  V30 9450 H 930.328 -1.43912 1.31435 0
M  V30 9451 H 929.424 -2.94222 1.04115 0
M  V30 9452 N 929.725 -0.817259 -1.34754 0
M  V30 9453 C 930.635 -0.236946 -2.334 0
M  V30 9454 C 931.651 0.625685 -1.62361 0
M  V30 9455 O 932.827 0.534921 -1.94166 0
M  V30 9456 C 929.892 0.596215 -3.41535 0
M  V30 9457 C 928.953 -0.288154 -4.28332 0
M  V30 9458 C 928.186 0.505337 -5.31302 0
M  V30 9459 O 928.409 1.73912 -5.43241 0
M  V30 9460 O 927.343 -0.109374 -6.01801 0
M  V30 9461 H 931.169 -1.05327 -2.84851 0
M  V30 9462 H 928.754 -0.579275 -1.37713 0
M  V30 9463 H 930.636 1.07041 -4.07578 0
M  V30 9464 H 929.311 1.38997 -2.92338 0
M  V30 9465 H 928.218 -0.809724 -3.65232 0
M  V30 9466 H 929.551 -1.04612 -4.80955 0
M  V30 9467 N 931.203 1.46865 -0.571711 0
M  V30 9468 C 932.428 2.07323 -0.0564655 0
M  V30 9469 C 932.853 1.41938 1.23431 0
M  V30 9470 O 932.211 0.499334 1.74288 0
M  V30 9471 C 932.259 3.6044 0.107339 0
M  V30 9472 O 931.363 3.95558 1.1665 0
M  V30 9473 H 930.704 0.661475 -0.0578465 0
M  V30 9474 H 933.234 1.88669 -0.791524 0
M  V30 9475 H 933.244 4.06767 0.316987 0
M  V30 9476 H 931.919 4.07425 -0.835348 0
M  V30 9477 H 930.496 3.60957 0.936189 0
M  V30 9478 N 932.681 0.308908 1.54543 0
M  V30 9479 C 933.93 -0.298854 1.99474 0
M  V30 9480 C 934.243 -1.54393 1.20093 0
M  V30 9481 O 935.449 -2.22677 1.55329 0
M  V30 9482 C 933.905 -0.58303 3.55146 0
M  V30 9483 C 933.513 0.644157 4.43345 0
M  V30 9484 C 935.257 -1.15155 4.08582 0
M  V30 9485 C 933.164 0.332694 5.90463 0
M  V30 9486 H 932.094 -0.115445 0.74511 0
M  V30 9487 H 934.745 0.418848 1.78656 0
M  V30 9488 H 933.127 -1.36053 3.71894 0
M  V30 9489 H 934.301 1.42012 4.38371 0
M  V30 9490 H 932.616 1.13186 4.00722 0
M  V30 9491 H 935.213 -1.39896 5.16075 0
M  V30 9492 H 935.556 -2.09632 3.59667 0
M  V30 9493 H 936.089 -0.435571 3.95408 0
M  V30 9494 H 932.828 1.24624 6.43544 0
M  V30 9495 H 932.348 -0.405844 5.98425 0
M  V30 9496 H 934.027 -0.0628545 6.46969 0
M  V30 9497 N 934.159 -1.57557 0.0367827 0
M  V30 9498 C 935.405 -1.92399 -0.641133 0
M  V30 9499 C 935.738 -0.914191 -1.71336 0
M  V30 9500 O 935.013 0.0619616 -1.94401 0
M  V30 9501 C 935.296 -3.37689 -1.25052 0
M  V30 9502 C 935.149 -4.4941 -0.187326 0
M  V30 9503 C 936.468 -3.8309 -2.16634 0
M  V30 9504 H 933.587 -0.699666 -0.231597 0
M  V30 9505 H 936.229 -1.89759 0.0956083 0
M  V30 9506 H 934.379 -3.40069 -1.87843 0
M  V30 9507 H 936.051 -4.59161 0.443736 0
M  V30 9508 H 934.294 -4.31065 0.486313 0
M  V30 9509 H 934.965 -5.48119 -0.653459 0
M  V30 9510 H 937.441 -3.82494 -1.63821 0
M  V30 9511 H 936.317 -4.85429 -2.56222 0
M  V30 9512 H 936.578 -3.19028 -3.06062 0
M  V30 9513 N 935.637 0.236453 -1.55816 0
M  V30 9514 C 936.883 0.964439 -1.784 0
M  V30 9515 C 937.216 1.84573 -0.603868 0
M  V30 9516 O 936.491 1.90395 0.397473 0
M  V30 9517 C 936.774 1.81608 -3.10951 0
M  V30 9518 C 936.627 0.962283 -4.39386 0
M  V30 9519 C 937.946 2.79665 -3.39817 0
M  V30 9520 H 935.065 0.349192 -0.649026 0
M  V30 9521 H 937.707 0.234247 -1.8855 0
M  V30 9522 H 935.857 2.43864 -3.02428 0
M  V30 9523 H 937.529 0.35762 -4.59912 0
M  V30 9524 H 935.772 0.267062 -4.32977 0
M  V30 9525 H 936.443 1.59222 -5.28538 0
M  V30 9526 H 938.919 2.27546 -3.4837 0
M  V30 9527 H 937.795 3.36367 -4.33761 0
M  V30 9528 H 938.056 3.56657 -2.61244 0
M  V30 9529 N 937.115 1.49373 0.502552 0
M  V30 9530 C 938.078 1.65413 1.58654 0
M  V30 9531 C 939.078 0.526003 1.51953 0
M  V30 9532 O 940.268 0.792421 1.55133 0
M  V30 9533 C 937.4 1.65005 2.98306 0
M  V30 9534 H 938.593 2.62095 1.45762 0
M  V30 9535 H 936.146 1.38381 0.726672 0
M  V30 9536 H 936.881 0.699014 3.16677 0
M  V30 9537 H 936.666 2.46931 3.04578 0
M  V30 9538 H 938.156 1.79477 3.77065 0
M  V30 9539 N 938.594 -0.753485 1.38421 0
M  V30 9540 C 940.005 -1.33081 1.30944 0
M  V30 9541 C 940.356 -1.96169 -0.0347124 0
M  V30 9542 O 939.481 -1.95073 -0.936768 0
M  V30 9543 C 940.076 -2.41973 2.37138 0
M  V30 9544 C 938.635 -2.95426 2.33239 0
M  V30 9545 C 937.782 -1.68808 2.19998 0
M  V30 9546 H 940.733 -0.552354 1.48777 0
M  V30 9547 H 940.754 -3.21913 2.02859 0
M  V30 9548 H 940.266 -1.96027 3.34956 0
M  V30 9549 H 938.367 -3.45701 1.39003 0
M  V30 9550 H 938.48 -3.49798 3.27381 0
M  V30 9551 H 936.844 -1.92438 1.66852 0
M  V30 9552 H 937.627 -1.24939 3.19758 0
M  V30 9553 N 940.072 -1.23292 -0.981677 0
M  V30 9554 C 941.297 -1.09176 -1.76339 0
M  V30 9555 C 941.722 0.352726 -1.84763 0
M  V30 9556 O 941.08 1.25509 -1.30832 0
M  V30 9557 C 941.128 -1.72046 -3.16911 0
M  V30 9558 O 940.232 -0.98174 -4.00544 0
M  V30 9559 H 939.573 -0.382755 -0.542581 0
M  V30 9560 H 942.103 -1.63319 -1.23239 0
M  V30 9561 H 942.113 -1.77232 -3.67495 0
M  V30 9562 H 940.788 -2.77154 -3.10095 0
M  V30 9563 H 939.365 -1.00672 -3.59054 0
M  V30 9564 N 941.55 1.18024 -1.04442 0
M  V30 9565 C 942.482 2.21294 -0.596799 0
M  V30 9566 C 943.495 1.59305 0.33552 0
M  V30 9567 O 944.684 1.7803 0.129443 0
M  V30 9568 C 941.784 3.38578 0.147648 0
M  V30 9569 C 940.957 4.30143 -0.793484 0
M  V30 9570 C 940.016 5.2612 -0.0916561 0
M  V30 9571 O 939.042 5.64586 -0.72331 0
M  V30 9572 N 940.244 5.68512 1.17364 0
M  V30 9573 H 943.009 2.6032 -1.48504 0
M  V30 9574 H 940.57 1.32847 -0.925374 0
M  V30 9575 H 942.562 3.99812 0.627098 0
M  V30 9576 H 941.132 2.98212 0.937466 0
M  V30 9577 H 940.352 3.66456 -1.45272 0
M  V30 9578 H 941.64 4.88216 -1.43258 0
M  V30 9579 H 941.038 5.39322 1.70729 0
M  V30 9580 H 939.595 6.31925 1.5973 0
M  V30 9581 N 943.028 0.824394 1.34319 0
M  V30 9582 C 944.256 0.426194 2.02463 0
M  V30 9583 C 944.671 -0.968298 1.62078 0
M  V30 9584 O 944.028 -1.62689 0.82696 0
M  V30 9585 C 944.079 0.520465 3.57734 0
M  V30 9586 O 943.8 1.86 3.96656 0
M  V30 9587 C 945.301 0.117353 4.43145 0
M  V30 9588 H 942.521 0.170864 0.648881 0
M  V30 9589 H 945.065 1.11296 1.71562 0
M  V30 9590 H 943.22 -0.118233 3.8722 0
M  V30 9591 H 943.634 1.83528 4.91343 0
M  V30 9592 H 945.108 0.234395 5.51502 0
M  V30 9593 H 945.585 -0.939271 4.29039 0
M  V30 9594 H 946.191 0.729908 4.1899 0
M  V30 9595 N 944.506 -1.46559 0.579492 0
M  V30 9596 C 945.436 -2.33059 -0.143437 0
M  V30 9597 C 946.417 -1.4515 -0.886868 0
M  V30 9598 O 947.602 -1.73973 -0.862961 0
M  V30 9599 C 944.732 -3.27364 -1.15973 0
M  V30 9600 C 943.686 -4.24689 -0.531348 0
M  V30 9601 C 943.012 -5.08479 -1.65388 0
M  V30 9602 C 944.312 -5.1961 0.529391 0
M  V30 9603 H 946.006 -2.93753 0.578762 0
M  V30 9604 H 943.552 -1.41256 0.279775 0
M  V30 9605 H 945.505 -3.86732 -1.67382 0
M  V30 9606 H 944.229 -2.64771 -1.91217 0
M  V30 9607 H 942.888 -3.6658 -0.0383749 0
M  V30 9608 H 942.536 -4.42273 -2.3959 0
M  V30 9609 H 942.236 -5.74387 -1.23909 0
M  V30 9610 H 943.76 -5.70709 -2.17079 0
M  V30 9611 H 945.174 -5.73212 0.100506 0
M  V30 9612 H 943.571 -5.93843 0.86432 0
M  V30 9613 H 944.641 -4.63737 1.4169 0
M  V30 9614 N 945.984 -0.3171 -1.54377 0
M  V30 9615 C 946.932 0.567371 -2.25574 0
M  V30 9616 C 947.926 1.12387 -1.2675 0
M  V30 9617 O 949.132 1.07266 -1.44548 0
M  V30 9618 H 945.507 0.201605 -0.724472 0
M  V30 9619 H 947.478 -0.0554644 -2.98348 0
M  V30 9620 C 946.227 1.71984 -3.02187 0
M  V30 9621 H 945.55 1.30086 -3.78044 0
M  V30 9622 H 946.99 2.31443 -3.5526 0
M  V30 9623 C 945.449 2.6336 -2.10103 0
M  V30 9624 O 945.979 3.64899 -1.67962 0
M  V30 9625 N 944.185 2.3145 -1.75725 0
M  V30 9626 H 943.732 1.48921 -2.10191 0
M  V30 9627 H 943.69 2.92852 -1.14391 0
M  V30 9628 N 947.462 1.57535 -0.0451378 0
M  V30 9629 C 948.739 1.83785 0.669523 0
M  V30 9630 C 949.119 0.932331 1.89396 0
M  V30 9631 O 948.467 -0.00813229 2.28499 0
M  V30 9632 C 948.677 3.33376 1.03255 0
M  V30 9633 C 950.025 4.00243 1.41741 0
M  V30 9634 O 951.049 3.37965 1.12507 0
M  V30 9635 O 949.908 5.10038 1.96275 0
M  V30 9636 H 947.002 0.758342 0.329919 0
M  V30 9637 H 949.548 1.69538 -0.0740415 0
M  V30 9638 H 948.32 3.90965 0.161777 0
M  V30 9639 H 947.943 3.52787 1.83376 0
M  V30 9640 N 948.94 -0.228186 1.55939 0
M  V30 9641 C 950.356 -0.577583 1.48782 0
M  V30 9642 C 950.556 -1.87461 0.738972 0
M  V30 9643 O 949.612 -2.50988 0.275929 0
M  V30 9644 C 950.925 -0.662961 2.93301 0
M  V30 9645 C 952.473 -0.754035 3.03782 0
M  V30 9646 C 952.948 -0.870815 4.49645 0
M  V30 9647 N 954.439 -0.935208 4.53661 0
M  V30 9648 C 955.174 -1.04516 5.63794 0
M  V30 9649 N 954.67 -1.11948 6.83696 0
M  V30 9650 N 956.463 -1.07978 5.51631 0
M  V30 9651 H 948.614 0.623018 2.03057 0
M  V30 9652 H 950.877 0.217692 0.922667 0
M  V30 9653 H 950.583 0.220375 3.51009 0
M  V30 9654 H 950.457 -1.52876 3.44831 0
M  V30 9655 H 952.844 -1.62782 2.46143 0
M  V30 9656 H 952.925 0.137301 2.55431 0
M  V30 9657 H 952.569 -0.0015186 5.079 0
M  V30 9658 H 952.499 -1.77747 4.95695 0
M  V30 9659 H 954.99 -0.88836 3.6731 0
M  V30 9660 H 955.303 -1.20297 7.6338 0
M  V30 9661 H 953.648 -1.08873 6.8642 0
M  V30 9662 H 956.839 -1.01833 4.56889 0
M  V30 9663 H 957.012 -1.16202 6.37496 0
M  V30 9664 N 950.418 -1.49637 -0.494624 0
M  V30 9665 C 951.328 -1.69522 -1.62172 0
M  V30 9666 C 952.344 -0.577894 -1.64123 0
M  V30 9667 O 953.52 -0.853382 -1.82426 0
M  V30 9668 C 950.585 -1.7633 -2.9851 0
M  V30 9669 C 949.646 -2.99944 -3.07135 0
M  V30 9670 C 948.879 -3.06419 -4.36971 0
M  V30 9671 O 949.102 -2.20312 -5.26136 0
M  V30 9672 O 948.036 -3.9894 -4.507 0
M  V30 9673 H 951.862 -2.65017 -1.48324 0
M  V30 9674 H 949.447 -1.33454 -0.671603 0
M  V30 9675 H 951.329 -1.83125 -3.7953 0
M  V30 9676 H 950.004 -0.840155 -3.12607 0
M  V30 9677 H 948.911 -2.98664 -2.2528 0
M  V30 9678 H 950.244 -3.9176 -2.97968 0
M  V30 9679 N 951.896 0.746133 -1.38819 0
M  V30 9680 C 953.126 1.53316 -1.38484 0
M  V30 9681 C 953.534 1.89183 0.0253332 0
M  V30 9682 O 952.877 1.5382 1.00424 0
M  V30 9683 C 952.939 2.85623 -2.18311 0
M  V30 9684 C 952.603 2.72253 -3.67052 0
M  V30 9685 C 953.6 2.41547 -4.60381 0
M  V30 9686 C 951.285 2.89472 -4.10501 0
M  V30 9687 C 953.279 2.28226 -5.9514 0
M  V30 9688 C 950.966 2.7577 -5.45338 0
M  V30 9689 C 951.964 2.45191 -6.37472 0
M  V30 9690 O 951.652 2.31561 -7.69828 0
M  V30 9691 H 951.384 0.480763 -0.475229 0
M  V30 9692 H 953.938 0.93057 -1.83111 0
M  V30 9693 H 952.168 3.481 -1.68414 0
M  V30 9694 H 953.857 3.47178 -2.10291 0
M  V30 9695 H 954.623 2.27905 -4.28117 0
M  V30 9696 H 950.502 3.12269 -3.3913 0
M  V30 9697 H 954.046 2.04279 -6.6702 0
M  V30 9698 H 949.943 2.88987 -5.77197 0
M  V30 9699 H 950.711 2.46716 -7.80432 0
M  V30 9700 N 953.375 1.23811 0.975125 0
M  V30 9701 C 954.307 0.981779 2.07108 0
M  V30 9702 C 955.32 -0.0461211 1.62735 0
M  V30 9703 O 956.509 0.190039 1.77486 0
M  V30 9704 C 953.609 0.458364 3.35786 0
M  V30 9705 C 952.782 1.54767 4.09104 0
M  V30 9706 C 951.841 1.0282 5.16057 0
M  V30 9707 O 950.867 1.71831 5.42644 0
M  V30 9708 N 952.069 -0.141243 5.80328 0
M  V30 9709 H 954.834 1.92537 2.29673 0
M  V30 9710 H 952.395 1.1474 1.14221 0
M  V30 9711 H 954.387 0.0957686 4.04587 0
M  V30 9712 H 952.957 -0.390768 3.10148 0
M  V30 9713 H 952.177 2.08279 3.34684 0
M  V30 9714 H 953.465 2.28006 4.54853 0
M  V30 9715 H 952.863 -0.718382 5.6112 0
M  V30 9716 H 951.42 -0.445052 6.50279 0
M  V30 9717 N 954.853 -1.17469 1.05066 0
M  V30 9718 C 955.783 -2.23635 0.671552 0
M  V30 9719 C 956.764 -1.66867 -0.33006 0
M  V30 9720 O 957.949 -1.93084 -0.207933 0
M  V30 9721 C 955.079 -3.47272 0.0441845 0
M  V30 9722 C 954.033 -4.16854 0.97042 0
M  V30 9723 C 953.359 -5.34299 0.206998 0
M  V30 9724 C 954.659 -4.69225 2.29401 0
M  V30 9725 H 956.353 -2.55602 1.55911 0
M  V30 9726 H 953.899 -1.2286 0.751101 0
M  V30 9727 H 955.852 -4.20756 -0.23282 0
M  V30 9728 H 954.576 -3.14568 -0.878311 0
M  V30 9729 H 953.235 -3.4528 1.23197 0
M  V30 9730 H 952.883 -4.97846 -0.718222 0
M  V30 9731 H 952.583 -5.81792 0.82416 0
M  V30 9732 H 954.107 -6.10568 -0.0627525 0
M  V30 9733 H 955.521 -5.34353 2.077 0
M  V30 9734 H 953.918 -5.27291 2.86503 0
M  V30 9735 H 954.988 -3.86102 2.93348 0
M  V30 9736 N 956.331 -0.831506 -1.3388 0
M  V30 9737 C 957.261 -0.274378 -2.31882 0
M  V30 9738 C 958.242 0.613872 -1.58637 0
M  V30 9739 O 959.427 0.538961 -1.86571 0
M  V30 9740 C 956.557 0.557498 -3.42796 0
M  V30 9741 C 955.511 -0.234337 -4.27358 0
M  V30 9742 C 954.837 0.720825 -5.29819 0
M  V30 9743 C 956.137 -1.44732 -5.01847 0
M  V30 9744 H 957.831 -1.09322 -2.78728 0
M  V30 9745 H 955.377 -0.527136 -1.34005 0
M  V30 9746 H 957.33 0.957501 -4.10378 0
M  V30 9747 H 956.054 1.40947 -2.94621 0
M  V30 9748 H 954.713 -0.61581 -3.61391 0
M  V30 9749 H 954.361 1.569 -4.77903 0
M  V30 9750 H 954.061 0.195171 -5.87276 0
M  V30 9751 H 955.585 1.1185 -6.00268 0
M  V30 9752 H 956.999 -1.12087 -5.62236 0
M  V30 9753 H 955.396 -1.90923 -5.68919 0
M  V30 9754 H 956.466 -2.22099 -4.31045 0
M  V30 9755 N 957.809 1.4625 -0.587256 0
M  V30 9756 C 959.225 1.57641 -0.249284 0
M  V30 9757 C 959.425 1.58169 1.24839 0
M  V30 9758 O 958.481 1.50109 2.03036 0
M  V30 9759 C 959.794 2.86837 -0.902509 0
M  V30 9760 C 961.342 3.00476 -0.876524 0
M  V30 9761 C 961.817 4.32414 -1.50938 0
M  V30 9762 N 963.308 4.39124 -1.47392 0
M  V30 9763 C 964.043 5.39838 -1.93293 0
M  V30 9764 N 963.539 6.47202 -2.47188 0
M  V30 9765 N 965.332 5.31068 -1.84183 0
M  V30 9766 H 957.483 1.44151 -1.55994 0
M  V30 9767 H 959.746 0.687905 -0.652297 0
M  V30 9768 H 959.452 2.92274 -1.95624 0
M  V30 9769 H 959.326 3.74927 -0.413466 0
M  V30 9770 H 961.713 2.94618 0.168601 0
M  V30 9771 H 961.794 2.1385 -1.40363 0
M  V30 9772 H 961.438 4.3903 -2.55372 0
M  V30 9773 H 961.368 5.17823 -0.957455 0
M  V30 9774 H 963.859 3.62138 -1.08002 0
M  V30 9775 H 964.172 7.20269 -2.80058 0
M  V30 9776 H 962.517 6.48009 -2.51216 0
M  V30 9777 H 965.708 4.46095 -1.41833 0
M  V30 9778 H 965.881 6.09414 -2.2027 0
M  V30 9779 N 959.287 0.325282 1.54207 0
M  V30 9780 C 960.219 -0.57395 2.21897 0
M  V30 9781 C 961.232 -1.0785 1.21952 0
M  V30 9782 O 962.421 -0.991782 1.48411 0
M  V30 9783 C 959.521 -1.8005 2.87115 0
M  V30 9784 C 958.694 -1.43435 4.13213 0
M  V30 9785 C 957.753 -2.51862 4.62009 0
M  V30 9786 O 956.779 -2.15934 5.26651 0
M  V30 9787 N 957.981 -3.8282 4.36382 0
M  V30 9788 H 960.746 0.00566918 2.99699 0
M  V30 9789 H 958.307 0.148563 1.61217 0
M  V30 9790 H 960.299 -2.51981 3.16682 0
M  V30 9791 H 958.869 -2.28792 2.13009 0
M  V30 9792 H 958.089 -0.546598 3.90392 0
M  V30 9793 H 959.377 -1.16544 4.95273 0
M  V30 9794 H 958.775 -4.14807 3.84645 0
M  V30 9795 H 957.332 -4.50976 4.70599 0
M  V30 9796 N 960.765 -1.57509 0.0534917 0
M  V30 9797 C 961.993 -1.97098 -0.629298 0
M  V30 9798 C 962.408 -0.931128 -1.64242 0
M  V30 9799 O 961.765 0.0843866 -1.82305 0
M  V30 9800 C 961.816 -3.36767 -1.31415 0
M  V30 9801 O 961.537 -4.36766 -0.341599 0
M  V30 9802 C 963.038 -3.91127 -2.08649 0
M  V30 9803 H 960.258 -0.648611 -0.171886 0
M  V30 9804 H 962.802 -2.04145 0.120479 0
M  V30 9805 H 960.957 -3.30863 -2.01515 0
M  V30 9806 H 961.371 -5.1788 -0.830715 0
M  V30 9807 H 962.845 -4.91129 -2.51985 0
M  V30 9808 H 963.322 -3.26679 -2.9356 0
M  V30 9809 H 963.928 -4.00376 -1.43456 0
M  V30 9810 N 962.243 0.219913 -1.56058 0
M  V30 9811 C 963.206 1.25606 -1.91718 0
M  V30 9812 C 964.206 1.39721 -0.795912 0
M  V30 9813 O 965.396 1.37958 -1.06364 0
M  V30 9814 C 962.528 2.62961 -2.16943 0
M  V30 9815 H 963.721 0.951909 -2.84392 0
M  V30 9816 H 961.274 0.460398 -1.49365 0
M  V30 9817 H 962.009 2.98472 -1.26826 0
M  V30 9818 H 961.794 2.54093 -2.98629 0
M  V30 9819 H 963.284 3.37727 -2.45622 0
M  V30 9820 N 963.721 1.49897 0.486681 0
M  V30 9821 C 964.97 1.59349 1.23656 0
M  V30 9822 C 965.283 0.292024 1.93408 0
M  V30 9823 O 966.489 0.265258 2.70201 0
M  V30 9824 C 964.945 2.81215 2.24602 0
M  V30 9825 C 964.553 4.18177 1.60725 0
M  V30 9826 C 966.297 3.00004 3.00329 0
M  V30 9827 C 964.204 5.31247 2.59866 0
M  V30 9828 H 963.134 0.593363 0.465227 0
M  V30 9829 H 965.785 1.76306 0.508769 0
M  V30 9830 H 964.167 2.57783 3.00606 0
M  V30 9831 H 965.341 4.51802 0.90616 0
M  V30 9832 H 963.656 4.04864 0.973362 0
M  V30 9833 H 966.253 3.81649 3.74497 0
M  V30 9834 H 966.596 2.1112 3.58795 0
M  V30 9835 H 967.129 3.23544 2.3144 0
M  V30 9836 H 963.868 6.22236 2.06161 0
M  V30 9837 H 963.388 5.02059 3.28172 0
M  V30 9838 H 965.067 5.61177 3.22009 0
M  V30 9839 N 965.199 -0.738761 1.39212 0
M  V30 9840 C 966.146 -1.85273 1.37631 0
M  V30 9841 C 967.116 -1.64407 0.236572 0
M  V30 9842 O 968.301 -1.85866 0.431104 0
M  V30 9843 C 965.441 -3.22745 1.22188 0
M  V30 9844 C 964.554 -3.55342 2.45674 0
M  V30 9845 C 963.689 -4.82195 2.22847 0
M  V30 9846 C 962.728 -5.07625 3.42029 0
M  V30 9847 N 961.865 -6.25679 3.18543 0
M  V30 9848 H 966.705 -1.85959 2.32859 0
M  V30 9849 H 964.242 -0.908716 1.15675 0
M  V30 9850 H 966.2 -4.02095 1.11245 0
M  V30 9851 H 964.83 -3.21347 0.30592 0
M  V30 9852 H 963.882 -2.70722 2.67233 0
M  V30 9853 H 965.194 -3.70054 3.34457 0
M  V30 9854 H 964.348 -5.69518 2.09126 0
M  V30 9855 H 963.087 -4.6965 1.31454 0
M  V30 9856 H 962.092 -4.18765 3.56253 0
M  V30 9857 H 963.317 -5.22058 4.34319 0
M  V30 9858 H 961.263 -6.14429 2.2981 0
M  V30 9859 H 961.18 -6.40961 4.0088 0
M  V30 9860 H 962.448 -7.15851 3.08508 0
M  V30 9861 N 966.677 -1.24326 -0.968545 0
M  V30 9862 C 967.923 -1.08406 -1.71394 0
M  V30 9863 C 968.256 0.376353 -1.90518 0
M  V30 9864 O 967.531 1.27816 -1.46606 0
M  V30 9865 C 967.814 -1.82344 -3.1052 0
M  V30 9866 C 967.667 -3.3613 -2.98893 0
M  V30 9867 C 968.986 -1.59545 -4.10163 0
M  V30 9868 H 966.105 -0.395205 -0.622079 0
M  V30 9869 H 968.747 -1.52983 -1.12677 0
M  V30 9870 H 966.897 -1.44452 -3.60646 0
M  V30 9871 H 968.569 -3.83614 -2.56199 0
M  V30 9872 H 966.812 -3.64553 -2.35124 0
M  V30 9873 H 967.483 -3.83064 -3.97449 0
M  V30 9874 H 969.959 -1.92504 -3.68892 0
M  V30 9875 H 968.835 -2.13736 -5.05577 0
M  V30 9876 H 969.096 -0.533503 -4.38869 0
M  V30 9877 N 968.156 1.1691 -1.05688 0
M  V30 9878 C 969.384 1.91204 -0.790485 0
M  V30 9879 C 969.799 1.77095 0.654434 0
M  V30 9880 O 969.156 1.11146 1.44751 0
M  V30 9881 C 969.207 3.42108 -1.16808 0
M  V30 9882 O 968.928 3.55788 -2.55629 0
M  V30 9883 C 970.429 4.33466 -0.92855 0
M  V30 9884 H 967.649 0.606508 -0.287035 0
M  V30 9885 H 970.193 1.48225 -1.40888 0
M  V30 9886 H 968.348 3.82814 -0.59434 0
M  V30 9887 H 968.762 4.49321 -2.70575 0
M  V30 9888 H 970.236 5.37836 -1.24245 0
M  V30 9889 H 970.713 4.38989 0.136016 0
M  V30 9890 H 971.319 3.98481 -1.48638 0
M  V30 9891 N 969.634 0.838594 1.33437 0
M  V30 9892 C 970.566 0.229006 2.28053 0
M  V30 9893 C 971.579 -0.590103 1.51729 0
M  V30 9894 O 972.768 -0.417218 1.73556 0
M  V30 9895 C 969.868 -0.696251 3.31671 0
M  V30 9896 C 969.041 0.0834606 4.3732 0
M  V30 9897 C 968.1 -0.765097 5.20608 0
M  V30 9898 O 967.126 -0.2044 5.68833 0
M  V30 9899 N 968.328 -2.08249 5.4186 0
M  V30 9900 H 971.093 1.04196 2.81004 0
M  V30 9901 H 968.654 0.697031 1.46127 0
M  V30 9902 H 970.646 -1.26889 3.84293 0
M  V30 9903 H 969.216 -1.40992 2.78998 0
M  V30 9904 H 968.436 0.837481 3.85201 0
M  V30 9905 H 969.724 0.619613 5.05013 0
M  V30 9906 H 969.122 -2.56156 5.04381 0
M  V30 9907 H 967.679 -2.60362 5.97541 0
M  V30 9908 N 971.112 -1.45937 0.595003 0
M  V30 9909 C 972.062 -2.27491 -0.152331 0
M  V30 9910 C 973.046 -1.36591 -0.850396 0
M  V30 9911 O 974.238 -1.60675 -0.742462 0
M  V30 9912 C 971.367 -3.23203 -1.15735 0
M  V30 9913 C 970.453 -4.2159 -0.46077 0
M  V30 9914 N 970.844 -5.03416 0.490555 0
M  V30 9915 C 969.142 -4.40313 -0.709949 0
M  V30 9916 C 969.843 -5.74714 0.898825 0
M  V30 9917 N 968.819 -5.43046 0.24529 0
M  V30 9918 H 972.621 -2.8815 0.578526 0
M  V30 9919 H 970.135 -1.56936 0.417716 0
M  V30 9920 H 972.132 -3.8035 -1.70704 0
M  V30 9921 H 970.792 -2.64104 -1.8889 0
M  V30 9922 H 971.803 -5.10597 0.866692 0
M  V30 9923 H 968.48 -3.92351 -1.42713 0
M  V30 9924 H 969.87 -6.50487 1.68273 0
M  V30 9925 N 972.59 -0.333456 -1.54032 0
M  V30 9926 C 973.52 0.52051 -2.27625 0
M  V30 9927 C 974.501 1.1111 -1.28797 0
M  V30 9928 O 975.686 1.13438 -1.57625 0
M  V30 9929 C 972.816 1.67663 -3.04149 0
M  V30 9930 C 971.77 1.21487 -4.10396 0
M  V30 9931 C 971.096 2.45872 -4.74817 0
M  V30 9932 C 972.396 0.322603 -5.21303 0
M  V30 9933 H 974.09 -0.0933823 -2.99254 0
M  V30 9934 H 971.636 -0.0463526 -1.43925 0
M  V30 9935 H 973.589 2.28041 -3.54366 0
M  V30 9936 H 972.313 2.31727 -2.30153 0
M  V30 9937 H 970.972 0.633966 -3.61077 0
M  V30 9938 H 970.62 3.0832 -3.97426 0
M  V30 9939 H 970.32 2.15662 -5.46593 0
M  V30 9940 H 971.844 3.06994 -5.27814 0
M  V30 9941 H 973.258 0.832942 -5.67217 0
M  V30 9942 H 971.655 0.112843 -5.99994 0
M  V30 9943 H 972.725 -0.643954 -4.80605 0
M  V30 9944 N 974.068 1.57479 -0.061844 0
M  V30 9945 C 975.316 1.92727 0.608336 0
M  V30 9946 C 975.637 0.941799 1.70749 0
M  V30 9947 O 974.907 -0.0116608 1.95897 0
M  V30 9948 H 973.487 0.71145 0.2277 0
M  V30 9949 H 976.149 1.94546 -0.117359 0
M  V30 9950 H 975.245 2.9426 1.04007 0
M  V30 9951 N 975.546 -0.211634 1.56173 0
M  V30 9952 C 976.795 -0.932647 1.78842 0
M  V30 9953 C 977.108 -1.85103 0.63217 0
M  V30 9954 O 978.314 -2.61143 0.742746 0
M  V30 9955 C 976.77 -1.70866 3.16753 0
M  V30 9956 C 976.378 -0.835934 4.40132 0
M  V30 9957 C 978.122 -2.4203 3.48743 0
M  V30 9958 C 976.029 -1.60987 5.69067 0
M  V30 9959 H 974.959 -0.351983 0.666801 0
M  V30 9960 H 977.61 -0.186284 1.82552 0
M  V30 9961 H 975.992 -2.4983 3.07247 0
M  V30 9962 H 977.166 -0.0861298 4.60719 0
M  V30 9963 H 975.481 -0.235941 4.15731 0
M  V30 9964 H 978.078 -3.00453 4.42303 0
M  V30 9965 H 978.421 -3.15406 2.71707 0
M  V30 9966 H 978.954 -1.70048 3.59623 0
M  V30 9967 H 975.693 -0.9192 6.49023 0
M  V30 9968 H 975.213 -2.33403 5.52524 0
M  V30 9969 H 976.892 -2.16798 6.09596 0
M  V30 9970 N 977.024 -1.50153 -0.478725 0
M  V30 9971 C 978.27 -1.60998 -1.23318 0
M  V30 9972 C 978.603 -0.305868 -1.91776 0
M  V30 9973 O 977.878 0.692158 -1.81767 0
M  V30 9974 C 978.161 -2.78495 -2.28282 0
M  V30 9975 C 978.014 -4.18767 -1.64178 0
M  V30 9976 C 979.333 -2.91569 -3.2966 0
M  V30 9977 H 976.452 -0.585983 -0.446982 0
M  V30 9978 H 979.094 -1.82514 -0.528063 0
M  V30 9979 H 977.244 -2.60281 -2.8842 0
M  V30 9980 H 978.916 -4.48552 -1.07696 0
M  V30 9981 H 977.159 -4.23379 -0.94514 0
M  V30 9982 H 977.83 -4.96894 -2.40417 0
M  V30 9983 H 980.306 -3.08219 -2.79536 0
M  V30 9984 H 979.182 -3.75419 -4.0044 0
M  V30 9985 H 979.443 -2.01859 -3.93326 0
M  V30 9986 N 978.502 0.731368 -1.39602 0
M  V30 9987 C 979.75 1.48805 -1.36753 0
M  V30 9988 C 980.071 1.94969 0.034676 0
M  V30 9989 O 979.341 1.69243 0.986591 0
M  V30 9990 H 977.921 0.55203 -0.503261 0
M  V30 9991 H 980.583 0.868013 -1.74504 0
M  V30 9992 H 979.679 2.36844 -2.03252 0
M  V30 9993 N 979.98 1.24838 0.961938 0
M  V30 9994 C 980.89 1.06304 2.09133 0
M  V30 9995 C 981.906 0.00221475 1.74 0
M  V30 9996 O 983.082 0.201611 2.00388 0
M  V30 9997 C 980.147 0.676117 3.40043 0
M  V30 9998 C 979.208 1.81407 3.89089 0
M  V30 9999 C 978.441 1.44551 5.13752 0
M  V30 10000 O 978.664 0.337894 5.69398 0
M  V30 10001 O 977.598 2.27316 5.57325 0
M  V30 10002 H 981.424 2.01001 2.27667 0
M  V30 10003 H 979.009 1.0371 1.07539 0
M  V30 10004 H 980.891 0.472124 4.18747 0
M  V30 10005 H 979.566 -0.241667 3.22797 0
M  V30 10006 H 978.473 2.07286 3.11421 0
M  V30 10007 H 979.806 2.71083 4.10822 0
M  V30 10008 N 981.458 -1.16348 1.06306 0
M  V30 10009 C 982.698 -1.88556 0.789055 0
M  V30 10010 C 983.062 -1.79849 -0.672179 0
M  V30 10011 O 984.263 -2.46984 -1.06078 0
M  V30 10012 C 982.534 -3.34069 1.27016 0
M  V30 10013 S 984.093 -4.24128 1.12522 0
M  V30 10014 H 980.911 -0.65084 0.286232 0
M  V30 10015 H 983.513 -1.40443 1.36 0
M  V30 10016 H 982.217 -3.37944 2.32856 0
M  V30 10017 H 981.748 -3.87231 0.693963 0
M  V30 10018 H 983.763 -4.96168 0.0562142 0
M  V30 10019 N 982.937 -0.845659 -1.3299 0
M  V30 10020 C 983.885 -0.272412 -2.30999 0
M  V30 10021 C 984.879 0.599311 -1.58444 0
M  V30 10022 O 986.085 0.488117 -1.73255 0
M  V30 10023 H 982.46 -0.0693751 -0.748793 0
M  V30 10024 H 984.431 -1.11343 -2.76849 0
M  V30 10025 C 983.18 0.532019 -3.43606 0
M  V30 10026 H 982.503 -0.129455 -3.9959 0
M  V30 10027 H 983.943 0.898853 -4.14363 0
M  V30 10028 C 982.402 1.71364 -2.90062 0
M  V30 10029 O 982.932 2.81252 -2.8681 0
M  V30 10030 N 981.138 1.53775 -2.4658 0
M  V30 10031 H 980.685 0.643836 -2.49424 0
M  V30 10032 H 980.643 2.32982 -2.11108 0
M  V30 10033 N 984.415 1.45619 -0.602734 0
M  V30 10034 C 985.661 2.02572 -0.0961759 0
M  V30 10035 C 985.994 1.47076 1.26815 0
M  V30 10036 O 985.269 0.643566 1.83544 0
M  V30 10037 C 985.552 3.60062 -0.0520032 0
M  V30 10038 C 985.405 4.25901 -1.44665 0
M  V30 10039 C 986.724 4.35446 0.638342 0
M  V30 10040 H 983.843 0.736099 -0.0364238 0
M  V30 10041 H 986.485 1.7353 -0.773776 0
M  V30 10042 H 984.635 3.84936 0.525032 0
M  V30 10043 H 986.307 4.12228 -2.0704 0
M  V30 10044 H 984.55 3.84489 -2.00874 0
M  V30 10045 H 985.221 5.34779 -1.36803 0
M  V30 10046 H 987.697 4.15837 0.147926 0
M  V30 10047 H 986.573 5.45176 0.63834 0
M  V30 10048 H 986.834 4.07962 1.70351 0
M  V30 10049 N 985.893 0.34162 1.53853 0
M  V30 10050 C 986.825 -0.550383 2.22494 0
M  V30 10051 C 987.838 -1.0655 1.23089 0
M  V30 10052 O 989.027 -0.975985 1.49455 0
M  V30 10053 C 986.127 -1.76995 2.89009 0
M  V30 10054 C 985.3 -1.39045 4.14711 0
M  V30 10055 C 984.359 -2.46947 4.64654 0
M  V30 10056 O 983.385 -2.10336 5.28912 0
M  V30 10057 N 984.587 -3.7817 4.40418 0
M  V30 10058 H 987.352 0.037456 2.99677 0
M  V30 10059 H 984.913 0.165654 1.6105 0
M  V30 10060 H 986.905 -2.48608 3.19337 0
M  V30 10061 H 985.475 -2.2652 2.15424 0
M  V30 10062 H 984.695 -0.505161 3.9095 0
M  V30 10063 H 985.983 -1.11284 4.96481 0
M  V30 10064 H 985.381 -4.10704 3.89023 0
M  V30 10065 H 983.938 -4.45959 4.75356 0
M  V30 10066 N 987.371 -1.57444 0.0701946 0
M  V30 10067 C 988.601 -1.97467 -0.607476 0
M  V30 10068 C 989.009 -0.947232 -1.63781 0
M  V30 10069 O 988.352 0.074652 -1.83548 0
M  V30 10070 C 988.414 -3.33795 -1.33495 0
M  V30 10071 C 988.078 -4.54697 -0.458265 0
M  V30 10072 C 989.075 -5.19127 0.283488 0
M  V30 10073 C 986.76 -5.00833 -0.383612 0
M  V30 10074 C 988.754 -6.28043 1.08813 0
M  V30 10075 C 986.441 -6.09622 0.424705 0
M  V30 10076 C 987.439 -6.7309 1.15925 0
M  V30 10077 O 987.127 -7.79785 1.95423 0
M  V30 10078 H 986.859 -0.654405 -0.169501 0
M  V30 10079 H 989.413 -2.04931 0.138651 0
M  V30 10080 H 987.643 -3.22941 -2.12711 0
M  V30 10081 H 989.332 -3.58435 -1.9047 0
M  V30 10082 H 990.098 -4.84428 0.235397 0
M  V30 10083 H 985.977 -4.51211 -0.944968 0
M  V30 10084 H 989.521 -6.77513 1.66197 0
M  V30 10085 H 985.418 -6.43755 0.474366 0
M  V30 10086 H 986.186 -7.96655 1.87838 0
M  V30 10087 N 988.849 0.203349 -1.56283 0
M  V30 10088 C 989.812 1.23566 -1.93039 0
M  V30 10089 C 990.812 1.38869 -0.810687 0
M  V30 10090 O 992.002 1.36822 -1.07821 0
M  V30 10091 C 989.134 2.60645 -2.1972 0
M  V30 10092 H 990.327 0.921692 -2.85385 0
M  V30 10093 H 987.88 0.44453 -1.49845 0
M  V30 10094 H 988.615 2.9711 -1.29985 0
M  V30 10095 H 988.4 2.50911 -3.01307 0
M  V30 10096 H 989.89 3.35103 -2.4919 0
M  V30 10097 N 990.327 1.50405 0.470755 0
M  V30 10098 C 991.257 1.72222 1.57676 0
M  V30 10099 C 992.238 0.57121 1.60222 0
M  V30 10100 O 993.423 0.810381 1.76484 0
M  V30 10101 C 990.553 1.81666 2.95998 0
M  V30 10102 C 989.507 2.96857 3.08318 0
M  V30 10103 C 988.833 2.91445 4.4829 0
M  V30 10104 C 990.133 4.37361 2.85504 0
M  V30 10105 H 991.827 2.64825 1.39671 0
M  V30 10106 H 989.373 1.27438 0.67049 0
M  V30 10107 H 991.326 1.95514 3.73299 0
M  V30 10108 H 990.05 0.856856 3.1516 0
M  V30 10109 H 988.709 2.82661 2.33449 0
M  V30 10110 H 988.357 1.93309 4.64371 0
M  V30 10111 H 988.057 3.68776 4.57469 0
M  V30 10112 H 989.581 3.07341 5.27611 0
M  V30 10113 H 990.995 4.52081 3.52555 0
M  V30 10114 H 989.392 5.16145 3.06127 0
M  V30 10115 H 990.462 4.49708 1.81359 0
M  V30 10116 N 991.805 -0.723954 1.39988 0
M  V30 10117 C 992.753 -1.85938 1.39749 0
M  V30 10118 C 993.747 -1.67085 0.279112 0
M  V30 10119 O 994.953 -1.74291 0.44972 0
M  V30 10120 H 991.328 -0.612246 0.436644 0
M  V30 10121 H 993.299 -1.83255 2.355 0
M  V30 10122 C 992.048 -3.23726 1.26874 0
M  V30 10123 H 991.371 -3.38835 2.12206 0
M  V30 10124 H 992.811 -4.03332 1.30765 0
M  V30 10125 C 991.27 -3.36893 -0.0218317 0
M  V30 10126 O 991.8 -3.89363 -0.987905 0
M  V30 10127 N 990.006 -2.90465 -0.0885618 0
M  V30 10128 H 989.553 -2.47954 0.698314 0
M  V30 10129 H 989.511 -2.99654 -0.951557 0
M  V30 10130 N 993.283 -1.25346 -0.955304 0
M  V30 10131 C 994.694 -1.09173 -1.51453 0
M  V30 10132 C 995.045 0.332755 -1.93358 0
M  V30 10133 O 994.17 1.22264 -1.78551 0
M  V30 10134 C 994.765 -1.97564 -2.75234 0
M  V30 10135 C 993.324 -1.85579 -3.27471 0
M  V30 10136 C 992.471 -1.91755 -2.00313 0
M  V30 10137 H 995.422 -1.38642 -0.772271 0
M  V30 10138 H 995.443 -1.51523 -3.49029 0
M  V30 10139 H 994.955 -3.01233 -2.44704 0
M  V30 10140 H 993.056 -0.847906 -3.62824 0
M  V30 10141 H 993.169 -2.70353 -3.95533 0
M  V30 10142 H 991.533 -1.35633 -2.15582 0
M  V30 10143 H 992.316 -2.97028 -1.72132 0
M  V30 10144 N 994.761 1.15782 -1.06922 0
M  V30 10145 C 995.671 2.24008 -0.696948 0
M  V30 10146 C 996.687 1.71569 0.289862 0
M  V30 10147 O 997.863 2.00929 0.137585 0
M  V30 10148 C 994.928 3.46568 -0.0957895 0
M  V30 10149 C 993.989 4.14017 -1.13528 0
M  V30 10150 C 993.222 5.30725 -0.562713 0
M  V30 10151 O 993.445 5.66992 0.62259 0
M  V30 10152 O 992.379 5.87572 -1.30549 0
M  V30 10153 H 996.205 2.58174 -1.59938 0
M  V30 10154 H 993.79 1.2342 -0.841889 0
M  V30 10155 H 995.672 4.20731 0.237407 0
M  V30 10156 H 994.347 3.14161 0.780027 0
M  V30 10157 H 993.254 3.41795 -1.52076 0
M  V30 10158 H 994.587 4.50493 -1.98285 0
M  V30 10159 N 996.239 0.8527 1.3254 0
M  V30 10160 C 997.464 0.468157 2.02047 0
M  V30 10161 C 997.889 -0.926967 1.63673 0
M  V30 10162 O 997.247 -1.60855 0.836378 0
M  V30 10163 C 997.295 0.612519 3.5536 0
M  V30 10164 O 996.399 -0.355506 4.10865 0
M  V30 10165 H 995.74 0.188401 0.636711 0
M  V30 10166 H 998.27 1.15135 1.6913 0
M  V30 10167 H 998.28 0.499315 4.04933 0
M  V30 10168 H 996.955 1.62988 3.82632 0
M  V30 10169 H 995.532 -0.198703 3.7237 0
M  V30 10170 N 997.718 -1.45297 0.610449 0
M  V30 10171 C 998.628 -2.34349 -0.108475 0
M  V30 10172 C 999.644 -1.51409 -0.857397 0
M  V30 10173 O 1000.82 -1.84202 -0.814337 0
M  V30 10174 C 997.885 -3.29072 -1.09144 0
M  V30 10175 C 996.946 -4.27918 -0.344165 0
M  V30 10176 C 996.179 -5.18116 -1.28031 0
M  V30 10177 O 996.402 -5.11802 -2.51824 0
M  V30 10178 O 995.336 -5.96879 -0.775821 0
M  V30 10179 H 999.162 -2.97232 0.623421 0
M  V30 10180 H 996.747 -1.44728 0.3707 0
M  V30 10181 H 998.629 -3.87433 -1.65751 0
M  V30 10182 H 997.304 -2.68749 -1.80431 0
M  V30 10183 H 996.211 -3.73164 0.264437 0
M  V30 10184 H 997.544 -4.91104 0.328275 0
M  V30 10185 N 999.196 -0.349774 -1.5367 0
M  V30 10186 C 1000.13 0.538575 -2.22782 0
M  V30 10187 C 1001.14 1.05896 -1.23652 0
M  V30 10188 O 1002.33 0.968045 -1.4997 0
M  V30 10189 C 999.43 1.7546 -2.89943 0
M  V30 10190 C 998.603 1.36843 -4.15443 0
M  V30 10191 C 997.662 2.4448 -4.65957 0
M  V30 10192 O 996.688 2.07528 -5.3002 0
M  V30 10193 N 997.89 3.75829 -4.42417 0
M  V30 10194 H 1000.65 -0.053348 -2.99653 0
M  V30 10195 H 998.216 -0.174193 -1.6096 0
M  V30 10196 H 1000.21 2.46911 -3.20651 0
M  V30 10197 H 998.778 2.25375 -2.16622 0
M  V30 10198 H 997.998 0.484421 -3.91212 0
M  V30 10199 H 999.286 1.0865 -4.97064 0
M  V30 10200 H 998.684 4.08635 -3.91196 0
M  V30 10201 H 997.241 4.43432 -4.77714 0
M  V30 10202 N 1000.67 1.57404 -0.0785433 0
M  V30 10203 C 1001.9 1.97787 0.596995 0
M  V30 10204 C 1002.31 0.955904 1.63276 0
M  V30 10205 O 1001.65 -0.0649169 1.83585 0
M  V30 10206 C 1001.72 3.34499 1.31723 0
M  V30 10207 C 1001.38 4.54933 0.434144 0
M  V30 10208 C 1002.38 5.18969 -0.311015 0
M  V30 10209 C 1000.06 5.01029 0.357046 0
M  V30 10210 C 1002.06 6.27457 -1.12142 0
M  V30 10211 C 999.744 6.09389 -0.457029 0
M  V30 10212 C 1000.74 6.72466 -1.19493 0
M  V30 10213 O 1000.43 7.78738 -1.99556 0
M  V30 10214 H 1000.16 0.655294 0.166028 0
M  V30 10215 H 1002.72 2.04855 -0.149517 0
M  V30 10216 H 1000.95 3.24064 2.10996 0
M  V30 10217 H 1002.63 3.5944 1.88567 0
M  V30 10218 H 1003.4 4.84297 -0.261084 0
M  V30 10219 H 999.28 4.51706 0.921026 0
M  V30 10220 H 1002.82 6.76622 -1.69788 0
M  V30 10221 H 998.721 6.43494 -0.508499 0
M  V30 10222 H 999.489 7.95648 -1.9206 0
M  V30 10223 N 1002.15 -0.195058 1.56388 0
M  V30 10224 C 1003.38 -0.930291 1.8447 0
M  V30 10225 C 1003.79 -1.77356 0.658901 0
M  V30 10226 O 1003.13 -1.79691 -0.381664 0
M  V30 10227 C 1003.19 -1.87626 3.06654 0
M  V30 10228 C 1002.86 -1.21494 4.40555 0
M  V30 10229 C 1003.86 -0.591847 5.1652 0
M  V30 10230 C 1001.54 -1.21878 4.8729 0
M  V30 10231 C 1003.53 0.0185743 6.37397 0
M  V30 10232 C 1001.22 -0.604524 6.08103 0
M  V30 10233 C 1002.22 0.0130731 6.82999 0
M  V30 10234 O 1001.91 0.617703 8.01523 0
M  V30 10235 H 1001.64 -0.276933 0.616672 0
M  V30 10236 H 1004.19 -0.207277 2.04351 0
M  V30 10237 H 1002.42 -2.63897 2.82658 0
M  V30 10238 H 1004.11 -2.47929 3.21382 0
M  V30 10239 H 1004.88 -0.581018 4.81507 0
M  V30 10240 H 1000.76 -1.68888 4.2895 0
M  V30 10241 H 1004.3 0.50124 6.95797 0
M  V30 10242 H 1000.2 -0.612855 6.42584 0
M  V30 10243 H 1000.97 0.514612 8.16881 0
M  V30 10244 N 1003.63 -1.50653 -0.462772 0
M  V30 10245 C 1004.88 -1.61296 -1.21105 0
M  V30 10246 C 1005.19 -0.322757 -1.92919 0
M  V30 10247 O 1006.4 -0.308211 -2.69745 0
M  V30 10248 C 1004.85 -2.84752 -2.201 0
M  V30 10249 C 1004.46 -4.20681 -1.54051 0
M  V30 10250 C 1006.21 -3.04744 -2.95518 0
M  V30 10251 C 1004.11 -5.35314 -2.51381 0
M  V30 10252 H 1003.04 -0.60069 -0.455728 0
M  V30 10253 H 1005.69 -1.77093 -0.480656 0
M  V30 10254 H 1004.08 -2.62532 -2.96467 0
M  V30 10255 H 1005.25 -4.53187 -0.834168 0
M  V30 10256 H 1003.56 -4.06361 -0.908828 0
M  V30 10257 H 1006.16 -3.87559 -3.68378 0
M  V30 10258 H 1006.5 -2.16802 -3.55391 0
M  V30 10259 H 1007.04 -3.27185 -2.26263 0
M  V30 10260 H 1003.78 -6.25437 -1.96235 0
M  V30 10261 H 1003.3 -5.07216 -3.20144 0
M  V30 10262 H 1004.98 -5.66229 -3.1304 0
M  V30 10263 N 1005.11 0.71652 -1.4037 0
M  V30 10264 C 1006.36 1.47193 -1.37903 0
M  V30 10265 C 1006.67 1.95593 0.0159939 0
M  V30 10266 O 1007.88 2.71009 0.163282 0
M  V30 10267 C 1006.33 2.6606 -2.42363 0
M  V30 10268 C 1005.94 2.24533 -3.87671 0
M  V30 10269 C 1007.68 3.438 -2.49001 0
M  V30 10270 C 1005.59 3.40234 -4.8373 0
M  V30 10271 H 1004.52 0.552811 -0.512753 0
M  V30 10272 H 1007.17 0.779894 -1.66102 0
M  V30 10273 H 1005.55 3.37429 -2.07262 0
M  V30 10274 H 1006.73 1.6059 -4.31911 0
M  V30 10275 H 1005.04 1.59839 -3.845 0
M  V30 10276 H 1007.64 4.29893 -3.17956 0
M  V30 10277 H 1007.98 3.8755 -1.52023 0
M  V30 10278 H 1008.52 2.79474 -2.83088 0
M  V30 10279 H 1005.26 3.01517 -5.82037 0
M  V30 10280 H 1004.78 4.03095 -4.44156 0
M  V30 10281 H 1006.45 4.06312 -5.03507 0
M  V30 10282 N 1006.59 1.25851 0.948643 0
M  V30 10283 C 1007.5 1.08516 2.07994 0
M  V30 10284 C 1008.51 0.0206696 1.73988 0
M  V30 10285 O 1009.69 0.222854 2.00163 0
M  V30 10286 C 1006.75 0.712145 3.39307 0
M  V30 10287 C 1005.81 1.85523 3.87143 0
M  V30 10288 C 1005.05 1.49992 5.1219 0
M  V30 10289 O 1005.27 0.398268 5.69008 0
M  V30 10290 O 1004.2 2.33215 5.54882 0
M  V30 10291 H 1008.03 2.03405 2.25522 0
M  V30 10292 H 1005.62 1.04844 1.06433 0
M  V30 10293 H 1007.5 0.516512 4.18223 0
M  V30 10294 H 1006.17 -0.207416 3.23035 0
M  V30 10295 H 1005.08 2.10578 3.09205 0
M  V30 10296 H 1006.41 2.75425 4.07924 0
M  V30 10297 N 1008.06 -1.15214 1.07534 0
M  V30 10298 C 1009.31 -1.86319 0.800814 0
M  V30 10299 C 1009.64 -1.82221 -0.671494 0
M  V30 10300 O 1008.92 -1.24664 -1.49295 0
M  V30 10301 C 1009.2 -3.35347 1.31203 0
M  V30 10302 C 1009.05 -3.48067 2.84902 0
M  V30 10303 C 1010.37 -4.3016 0.930064 0
M  V30 10304 H 1007.49 -0.676523 0.292379 0
M  V30 10305 H 1010.13 -1.35349 1.33344 0
M  V30 10306 H 1008.28 -3.78886 0.858949 0
M  V30 10307 H 1009.96 -3.13379 3.38514 0
M  V30 10308 H 1008.2 -2.89566 3.23008 0
M  V30 10309 H 1008.87 -4.52782 3.15741 0
M  V30 10310 H 1011.35 -3.94591 1.3205 0
M  V30 10311 H 1010.22 -5.32914 1.31507 0
M  V30 10312 H 1010.48 -4.41796 -0.163824 0
M  V30 10313 N 1009.54 -0.859717 -1.32086 0
M  V30 10314 C 1010.49 -0.296897 -2.30697 0
M  V30 10315 C 1011.48 0.582473 -1.59071 0
M  V30 10316 O 1012.69 0.469713 -1.73763 0
M  V30 10317 H 1009.07 -0.0773132 -0.748015 0
M  V30 10318 H 1011.04 -1.14273 -2.75652 0
M  V30 10319 C 1009.79 0.495546 -3.44151 0
M  V30 10320 H 1009.11 -0.171829 -3.99431 0
M  V30 10321 H 1010.55 0.854854 -4.15293 0
M  V30 10322 C 1009.01 1.68278 -2.91863 0
M  V30 10323 O 1009.54 2.78194 -2.89777 0
M  V30 10324 N 1007.74 1.51151 -2.48197 0
M  V30 10325 H 1007.29 0.617345 -2.50093 0
M  V30 10326 H 1007.25 2.3073 -2.13567 0
M  V30 10327 N 1011.02 1.44971 -0.618145 0
M  V30 10328 C 1011.98 2.29044 0.0846739 0
M  V30 10329 C 1012.98 1.40341 0.784921 0
M  V30 10330 O 1014.17 1.62351 0.631479 0
M  V30 10331 C 1011.31 3.21617 1.13027 0
M  V30 10332 H 1012.5 2.92668 -0.654612 0
M  V30 10333 H 1010.05 1.51668 -0.377672 0
M  V30 10334 H 1010.79 2.62815 1.89997 0
M  V30 10335 H 1010.57 3.86969 0.63224 0
M  V30 10336 H 1012.06 3.84805 1.62218 0
M  V30 10337 N 1012.5 0.357919 1.53482 0
M  V30 10338 C 1013.91 0.00655107 1.59599 0
M  V30 10339 C 1014.11 -1.47449 1.37336 0
M  V30 10340 O 1013.17 -2.2351 1.17472 0
M  V30 10341 C 1014.48 0.455617 2.97228 0
M  V30 10342 C 1016.03 0.409183 3.10314 0
M  V30 10343 C 1016.51 0.833941 4.50344 0
M  V30 10344 N 1018 0.788695 4.56436 0
M  V30 10345 C 1018.73 1.08914 5.62961 0
M  V30 10346 N 1018.23 1.45847 6.77274 0
M  V30 10347 N 1020.02 1.01243 5.52907 0
M  V30 10348 H 1012.17 1.32248 1.66206 0
M  V30 10349 H 1014.44 0.540047 0.779136 0
M  V30 10350 H 1014.14 1.48881 3.18634 0
M  V30 10351 H 1014.02 -0.161751 3.76853 0
M  V30 10352 H 1016.4 -0.614863 2.88623 0
M  V30 10353 H 1016.48 1.06195 2.32715 0
M  V30 10354 H 1016.13 1.85607 4.72771 0
M  V30 10355 H 1016.06 0.158507 5.26361 0
M  V30 10356 H 1018.55 0.516497 3.74354 0
M  V30 10357 H 1018.86 1.67218 7.54492 0
M  V30 10358 H 1017.21 1.49705 6.78685 0
M  V30 10359 H 1020.4 0.723137 4.62481 0
M  V30 10360 H 1020.57 1.24991 6.35831 0
M  V30 10361 N 1013.98 -1.5736 0.0868897 0
M  V30 10362 C 1014.91 -2.16596 -0.872252 0
M  V30 10363 C 1015.89 -1.09706 -1.29995 0
M  V30 10364 O 1017.07 -1.37808 -1.36831 0
M  V30 10365 C 1014.2 -2.73972 -2.1344 0
M  V30 10366 C 1013.16 -3.86163 -1.8456 0
M  V30 10367 C 1012.48 -4.30206 -3.17533 0
M  V30 10368 C 1013.78 -5.0973 -1.13899 0
M  V30 10369 H 1015.48 -2.96995 -0.378738 0
M  V30 10370 H 1013.02 -1.42861 -0.18073 0
M  V30 10371 H 1014.98 -3.14062 -2.80968 0
M  V30 10372 H 1013.7 -1.90817 -2.6506 0
M  V30 10373 H 1012.36 -3.466 -1.19432 0
M  V30 10374 H 1012.01 -3.43951 -3.67024 0
M  V30 10375 H 1011.71 -5.05841 -2.98996 0
M  V30 10376 H 1013.23 -4.72922 -3.86234 0
M  V30 10377 H 1014.64 -5.4704 -1.71523 0
M  V30 10378 H 1013.04 -5.90741 -1.05569 0
M  V30 10379 H 1014.11 -4.8475 -0.120432 0
M  V30 10380 N 1015.45 0.186762 -1.56489 0
M  V30 10381 C 1016.68 0.925916 -1.85584 0
M  V30 10382 C 1017.1 1.75708 -0.671446 0
M  V30 10383 O 1016.46 1.7728 0.379687 0
M  V30 10384 C 1016.51 1.79107 -3.12975 0
M  V30 10385 O 1015.61 2.89088 -2.94112 0
M  V30 10386 H 1014.96 0.260275 -0.610863 0
M  V30 10387 H 1017.49 0.189561 -2.0372 0
M  V30 10388 H 1017.5 2.19408 -3.43983 0
M  V30 10389 H 1016.17 1.18044 -3.98796 0
M  V30 10390 H 1014.75 2.52482 -2.74422 0
M  V30 10391 N 1016.93 1.50896 0.454776 0
M  V30 10392 C 1018.35 1.38684 0.78987 0
M  V30 10393 C 1018.55 0.455587 1.96282 0
M  V30 10394 O 1017.6 -0.0957503 2.52318 0
M  V30 10395 C 1018.92 2.80381 1.08661 0
M  V30 10396 C 1020.47 2.8941 1.19209 0
M  V30 10397 C 1020.94 4.31976 1.52187 0
M  V30 10398 N 1022.43 4.35002 1.59146 0
M  V30 10399 C 1023.17 5.42326 1.862 0
M  V30 10400 N 1022.66 6.59835 2.11164 0
M  V30 10401 N 1024.46 5.29786 1.87838 0
M  V30 10402 H 1016.61 2.10006 -0.317981 0
M  V30 10403 H 1018.87 0.944636 -0.0797969 0
M  V30 10404 H 1018.58 3.50438 0.297626 0
M  V30 10405 H 1018.45 3.18634 2.01872 0
M  V30 10406 H 1020.84 2.19561 1.97173 0
M  V30 10407 H 1020.92 2.54677 0.239401 0
M  V30 10408 H 1020.56 5.02368 0.747576 0
M  V30 10409 H 1020.49 4.64208 2.48633 0
M  V30 10410 H 1022.98 3.50276 1.41828 0
M  V30 10411 H 1023.3 7.37428 2.31128 0
M  V30 10412 H 1021.64 6.62981 2.08522 0
M  V30 10413 H 1024.83 4.36974 1.67843 0
M  V30 10414 H 1025 6.13511 2.08585 0
M  V30 10415 N 1018.41 -0.709066 1.40748 0
M  V30 10416 C 1019.64 -1.50313 1.42901 0
M  V30 10417 C 1020.06 -1.88072 0.032213 0
M  V30 10418 O 1019.42 -1.53716 -0.96131 0
M  V30 10419 C 1019.47 -2.75074 2.33166 0
M  V30 10420 O 1018.57 -3.72036 1.7794 0
M  V30 10421 H 1017.91 -0.452934 0.485538 0
M  V30 10422 H 1020.44 -0.872712 1.85054 0
M  V30 10423 H 1020.45 -3.23532 2.48578 0
M  V30 10424 H 1019.13 -2.46927 3.34664 0
M  V30 10425 H 1017.7 -3.30911 1.71908 0
M  V30 10426 N 1019.89 -1.26353 -0.941956 0
M  V30 10427 C 1021.11 -1.14731 -1.72776 0
M  V30 10428 C 1021.54 0.293766 -1.85792 0
M  V30 10429 O 1020.9 1.21284 -1.34759 0
M  V30 10430 C 1020.95 -1.82041 -3.11277 0
M  V30 10431 O 1020.05 -1.10867 -3.97218 0
M  V30 10432 H 1019.39 -0.399823 -0.53013 0
M  V30 10433 H 1021.92 -1.67157 -1.17981 0
M  V30 10434 H 1021.93 -1.88834 -3.61671 0
M  V30 10435 H 1020.61 -2.86879 -3.0112 0
M  V30 10436 H 1019.18 -1.12044 -3.55669 0
M  V30 10437 N 1021.37 1.14642 -1.08144 0
M  V30 10438 C 1022.33 2.17834 -0.712799 0
M  V30 10439 C 1023.33 1.58828 0.251041 0
M  V30 10440 O 1024.52 1.74173 0.0309381 0
M  V30 10441 C 1021.65 3.4086 -0.0519477 0
M  V30 10442 H 1022.85 2.51961 -1.62653 0
M  V30 10443 H 1020.4 1.29243 -0.878971 0
M  V30 10444 H 1021.13 3.12311 0.873636 0
M  V30 10445 H 1020.92 3.84952 -0.745286 0
M  V30 10446 H 1022.41 4.17163 0.191031 0
M  V30 10447 N 1022.85 0.866709 1.31628 0
M  V30 10448 C 1023.78 0.335762 2.31073 0
M  V30 10449 C 1024.76 -0.571597 1.60209 0
M  V30 10450 O 1025.94 -0.489306 1.87935 0
M  V30 10451 C 1023.07 -0.466416 3.44154 0
M  V30 10452 C 1022.03 0.347561 4.26586 0
M  V30 10453 C 1021.35 -0.5801 5.31544 0
M  V30 10454 C 1022.65 1.57986 4.97833 0
M  V30 10455 H 1024.35 1.16673 2.75731 0
M  V30 10456 H 1021.89 0.56248 1.3256 0
M  V30 10457 H 1023.84 -0.84836 4.12772 0
M  V30 10458 H 1022.57 -1.33086 2.98254 0
M  V30 10459 H 1021.23 0.71141 3.59631 0
M  V30 10460 H 1020.88 -1.44174 4.81895 0
M  V30 10461 H 1020.58 -0.0393965 5.87587 0
M  V30 10462 H 1022.1 -0.958958 6.03023 0
M  V30 10463 H 1023.51 1.26954 5.59067 0
M  V30 10464 H 1021.91 2.05939 5.63657 0
M  V30 10465 H 1022.98 2.3345 4.25005 0
M  V30 10466 N 1024.32 -1.44642 0.625825 0
M  V30 10467 C 1025.29 -2.29085 -0.072526 0
M  V30 10468 C 1026.29 -1.40755 -0.777467 0
M  V30 10469 O 1027.48 -1.62684 -0.622861 0
M  V30 10470 C 1024.61 -3.22212 -1.1132 0
M  V30 10471 H 1025.8 -2.92317 0.670124 0
M  V30 10472 H 1023.35 -1.51466 0.38571 0
M  V30 10473 H 1024.09 -2.63819 -1.88601 0
M  V30 10474 H 1023.87 -3.87299 -0.611709 0
M  V30 10475 H 1025.36 -3.8566 -1.60175 0
M  V30 10476 N 1025.8 -0.366053 -1.5329 0
M  V30 10477 C 1027.03 0.226839 -2.06156 0
M  V30 10478 C 1027.45 1.41637 -1.23776 0
M  V30 10479 O 1026.81 1.7947 -0.256948 0
M  V30 10480 C 1026.86 0.597956 -3.55608 0
M  V30 10481 O 1025.96 1.69512 -3.75951 0
M  V30 10482 H 1025.3 0.0329156 -0.663184 0
M  V30 10483 H 1027.83 -0.526793 -1.97702 0
M  V30 10484 H 1027.84 0.868831 -3.98642 0
M  V30 10485 H 1026.52 -0.271838 -4.15011 0
M  V30 10486 H 1025.09 1.41976 -3.44815 0
M  V30 10487 N 1027.28 1.57312 -0.0952337 0
M  V30 10488 C 1028.23 2.14032 0.863657 0
M  V30 10489 C 1029.2 1.0589 1.27971 0
M  V30 10490 O 1030.38 1.33678 1.36143 0
M  V30 10491 C 1027.52 2.72513 2.11733 0
M  V30 10492 C 1026.63 3.94887 1.7518 0
M  V30 10493 C 1025.77 4.41533 2.95334 0
M  V30 10494 C 1024.81 5.56496 2.54908 0
M  V30 10495 N 1023.95 5.97993 3.67897 0
M  V30 10496 H 1028.79 2.95655 0.373115 0
M  V30 10497 H 1026.32 1.46085 0.172497 0
M  V30 10498 H 1028.28 3.04539 2.85153 0
M  V30 10499 H 1026.91 1.93618 2.58287 0
M  V30 10500 H 1025.96 3.69175 0.917279 0
M  V30 10501 H 1027.27 4.78322 1.41455 0
M  V30 10502 H 1026.43 4.75343 3.77007 0
M  V30 10503 H 1025.17 3.56999 3.3227 0
M  V30 10504 H 1024.17 5.22314 1.71662 0
M  V30 10505 H 1025.4 6.42779 2.19117 0
M  V30 10506 H 1023.34 5.16405 4.04551 0
M  V30 10507 H 1023.26 6.76225 3.38018 0
M  V30 10508 H 1024.53 6.36434 4.5008 0
M  V30 10509 N 1028.76 -0.17846 1.56586 0
M  V30 10510 C 1029.72 -1.20479 1.94981 0
M  V30 10511 C 1030.72 -1.37561 0.832677 0
M  V30 10512 O 1031.91 -1.35089 1.09984 0
M  V30 10513 C 1029.04 -2.57117 2.23839 0
M  V30 10514 H 1030.24 -0.876173 2.86816 0
M  V30 10515 H 1027.79 -0.420635 1.50534 0
M  V30 10516 H 1028.52 -2.95005 1.34695 0
M  V30 10517 H 1028.31 -2.46086 3.05261 0
M  V30 10518 H 1029.8 -3.31096 2.5449 0
M  V30 10519 N 1030.24 -1.51135 -0.446768 0
M  V30 10520 C 1031.46 -1.67129 -1.21965 0
M  V30 10521 C 1031.88 -0.36467 -1.85245 0
M  V30 10522 O 1031.24 0.655908 -1.70306 0
M  V30 10523 C 1031.29 -2.78016 -2.31061 0
M  V30 10524 O 1031.01 -4.03615 -1.70371 0
M  V30 10525 C 1032.51 -3.05197 -3.21511 0
M  V30 10526 H 1029.73 -0.561111 -0.367961 0
M  V30 10527 H 1032.27 -1.97499 -0.530517 0
M  V30 10528 H 1030.43 -2.50272 -2.95707 0
M  V30 10529 H 1030.84 -4.65126 -2.424 0
M  V30 10530 H 1032.32 -3.8639 -3.94216 0
M  V30 10531 H 1032.79 -2.17228 -3.81718 0
M  V30 10532 H 1033.4 -3.34565 -2.62577 0
M  V30 10533 N 1031.71 0.701592 -1.41122 0
M  V30 10534 C 1032.96 1.45871 -1.39879 0
M  V30 10535 C 1033.28 1.94999 -0.00668769 0
M  V30 10536 O 1032.55 1.71298 0.95047 0
M  V30 10537 H 1031.13 0.541231 -0.514857 0
M  V30 10538 H 1033.79 0.830803 -1.76306 0
M  V30 10539 H 1032.89 2.32479 -2.0823 0
M  V30 10540 N 1033.19 1.2685 0.935242 0
M  V30 10541 C 1034.42 1.15371 1.71386 0
M  V30 10542 C 1034.83 -0.293048 1.86917 0
M  V30 10543 O 1034.17 -1.212 1.38044 0
M  V30 10544 C 1034.23 1.75652 3.13666 0
M  V30 10545 C 1033.9 3.24788 3.215 0
M  V30 10546 C 1034.9 4.21525 3.04323 0
M  V30 10547 C 1032.58 3.65359 3.447 0
M  V30 10548 C 1034.57 5.56812 3.10224 0
M  V30 10549 C 1032.26 5.00778 3.50235 0
M  V30 10550 C 1033.26 5.96314 3.33014 0
M  V30 10551 O 1032.95 7.29266 3.38269 0
M  V30 10552 H 1032.68 0.40234 0.54323 0
M  V30 10553 H 1035.23 1.68083 1.18056 0
M  V30 10554 H 1033.46 1.17408 3.68446 0
M  V30 10555 H 1035.15 1.58994 3.73465 0
M  V30 10556 H 1035.92 3.91519 2.86249 0
M  V30 10557 H 1031.8 2.91479 3.57157 0
M  V30 10558 H 1035.34 6.3136 2.967 0
M  V30 10559 H 1031.24 5.30444 3.67831 0
M  V30 10560 H 1032.01 7.37616 3.54774 0
M  V30 10561 N 1034.67 -1.14067 1.0875 0
M  V30 10562 C 1036.08 -1.66747 0.839778 0
M  V30 10563 C 1036.43 -1.85711 -0.632909 0
M  V30 10564 O 1035.56 -1.57084 -1.48841 0
M  V30 10565 C 1036.15 -3.02896 1.51787 0
M  V30 10566 C 1034.71 -3.52596 1.3173 0
M  V30 10567 C 1033.86 -2.27994 1.57841 0
M  V30 10568 H 1036.81 -0.980838 1.24761 0
M  V30 10569 H 1036.83 -3.68526 0.947057 0
M  V30 10570 H 1036.34 -2.89062 2.58969 0
M  V30 10571 H 1034.44 -3.71647 0.266339 0
M  V30 10572 H 1034.56 -4.33151 2.04736 0
M  V30 10573 H 1032.92 -2.34241 1.00015 0
M  V30 10574 H 1033.7 -2.16732 2.66237 0
M  V30 10575 N 1036.15 -0.873678 -1.31166 0
M  V30 10576 C 1037.08 -0.348011 -2.30892 0
M  V30 10577 C 1038.06 0.563092 -1.60509 0
M  V30 10578 O 1039.24 0.479332 -1.88192 0
M  V30 10579 C 1036.37 0.448158 -3.44396 0
M  V30 10580 C 1035.33 -0.370179 -4.26396 0
M  V30 10581 C 1034.65 0.551903 -5.31844 0
M  V30 10582 C 1035.95 -1.60624 -4.96988 0
M  V30 10583 H 1037.65 -1.18134 -2.75109 0
M  V30 10584 H 1035.19 -0.569502 -1.3226 0
M  V30 10585 H 1037.15 0.826458 -4.13216 0
M  V30 10586 H 1035.87 1.31503 -2.98956 0
M  V30 10587 H 1034.53 -0.730472 -3.59249 0
M  V30 10588 H 1034.18 1.41616 -4.82653 0
M  V30 10589 H 1033.88 0.00823478 -5.87599 0
M  V30 10590 H 1035.4 0.926965 -6.03523 0
M  V30 10591 H 1036.82 -1.29917 -5.58386 0
M  V30 10592 H 1035.21 -2.08926 -5.62557 0
M  V30 10593 H 1036.28 -2.357 -4.23761 0
M  V30 10594 N 1037.63 1.44308 -0.633487 0
M  V30 10595 C 1038.59 2.2912 0.060376 0
M  V30 10596 C 1039.59 1.41166 0.769992 0
M  V30 10597 O 1040.78 1.63012 0.614224 0
M  V30 10598 C 1037.91 3.22798 1.0961 0
M  V30 10599 H 1039.1 2.91958 -0.685617 0
M  V30 10600 H 1036.66 1.51259 -0.393738 0
M  V30 10601 H 1037.39 2.64815 1.87199 0
M  V30 10602 H 1037.18 3.87618 0.591161 0
M  V30 10603 H 1038.67 3.86504 1.58127 0
M  V30 10604 N 1039.1 0.374177 1.53094 0
M  V30 10605 C 1040.33 -0.213015 2.05499 0
M  V30 10606 C 1040.74 -1.42303 1.24686 0
M  V30 10607 O 1040.09 -1.81512 0.282702 0
M  V30 10608 C 1040.15 -0.662308 3.53346 0
M  V30 10609 C 1039.81 0.432183 4.54952 0
M  V30 10610 C 1040.81 1.2848 5.03775 0
M  V30 10611 C 1038.49 0.594887 4.98765 0
M  V30 10612 C 1040.49 2.28538 5.9502 0
M  V30 10613 C 1038.17 1.59882 5.89814 0
M  V30 10614 C 1039.17 2.4425 6.37833 0
M  V30 10615 O 1038.86 3.4293 7.27086 0
M  V30 10616 H 1038.59 -0.0393809 0.674852 0
M  V30 10617 H 1041.15 0.533423 1.98353 0
M  V30 10618 H 1039.38 -1.46049 3.5806 0
M  V30 10619 H 1041.07 -1.17347 3.88567 0
M  V30 10620 H 1041.83 1.17033 4.70668 0
M  V30 10621 H 1037.71 -0.0520401 4.60971 0
M  V30 10622 H 1041.25 2.94426 6.32423 0
M  V30 10623 H 1037.15 1.71373 6.22335 0
M  V30 10624 H 1037.92 3.3876 7.45107 0
M  V30 10625 N 1040.58 -1.57259 0.103575 0
M  V30 10626 C 1041.83 -1.94945 -0.558953 0
M  V30 10627 C 1042.16 -0.986038 -1.67305 0
M  V30 10628 O 1041.44 -0.0205464 -1.94489 0
M  V30 10629 C 1041.72 -3.42689 -1.10617 0
M  V30 10630 C 1041.57 -4.498 0.00345246 0
M  V30 10631 C 1042.89 -3.91933 -2.00191 0
M  V30 10632 H 1040.01 -0.708859 -0.201713 0
M  V30 10633 H 1042.65 -1.89183 0.176006 0
M  V30 10634 H 1040.8 -3.4773 -1.73251 0
M  V30 10635 H 1042.47 -4.56866 0.638082 0
M  V30 10636 H 1040.72 -4.28615 0.668705 0
M  V30 10637 H 1041.39 -5.50397 -0.420396 0
M  V30 10638 H 1043.86 -3.89098 -1.4745 0
M  V30 10639 H 1042.74 -4.9586 -2.35402 0
M  V30 10640 H 1043 -3.31722 -2.92255 0
M  V30 10641 N 1042.06 0.170153 -1.56679 0
M  V30 10642 C 1043.02 1.19443 -1.95617 0
M  V30 10643 C 1044.02 1.37118 -0.83996 0
M  V30 10644 O 1045.21 1.34504 -1.10699 0
M  V30 10645 C 1042.35 2.55926 -2.25199 0
M  V30 10646 H 1043.54 0.86095 -2.87276 0
M  V30 10647 H 1041.09 0.412646 -1.50755 0
M  V30 10648 H 1041.83 2.94286 -1.36257 0
M  V30 10649 H 1041.61 2.44464 -3.06562 0
M  V30 10650 H 1043.1 3.29742 -2.56242 0
M  V30 10651 N 1043.54 1.5137 0.438746 0
M  V30 10652 C 1044.5 1.71993 1.51496 0
M  V30 10653 C 1045.5 0.589978 1.49586 0
M  V30 10654 O 1046.69 0.857505 1.51633 0
M  V30 10655 C 1043.82 1.77508 2.91039 0
M  V30 10656 H 1045.02 2.68041 1.34514 0
M  V30 10657 H 1042.57 1.41338 0.667326 0
M  V30 10658 H 1043.3 0.832698 3.13427 0
M  V30 10659 H 1043.09 2.59627 2.9383 0
M  V30 10660 H 1044.58 1.95308 3.69113 0
M  V30 10661 N 1045.02 -0.694098 1.41492 0
M  V30 10662 C 1045.96 -1.80801 1.43456 0
M  V30 10663 C 1046.93 -1.63571 0.288757 0
M  V30 10664 O 1048.12 -1.844 0.490017 0
M  V30 10665 C 1045.26 -3.18694 1.32394 0
M  V30 10666 C 1044.37 -3.47346 2.56855 0
M  V30 10667 C 1043.51 -4.74862 2.38075 0
M  V30 10668 C 1042.55 -4.96486 3.58005 0
M  V30 10669 N 1041.68 -6.15229 3.38287 0
M  V30 10670 H 1046.52 -1.78457 2.38657 0
M  V30 10671 H 1044.06 -0.871455 1.18508 0
M  V30 10672 H 1046.02 -3.98352 1.23982 0
M  V30 10673 H 1044.65 -3.20211 0.407999 0
M  V30 10674 H 1043.7 -2.62083 2.75711 0
M  V30 10675 H 1045.01 -3.59226 3.4606 0
M  V30 10676 H 1044.17 -5.62577 2.27139 0
M  V30 10677 H 1042.9 -4.6523 1.46329 0
M  V30 10678 H 1041.91 -4.07219 3.69395 0
M  V30 10679 H 1043.13 -5.07976 4.50708 0
M  V30 10680 H 1041.08 -6.06807 2.49242 0
M  V30 10681 H 1041 -6.27883 4.21069 0
M  V30 10682 H 1042.27 -7.05674 3.31126 0
M  V30 10683 N 1046.49 -1.27344 -0.928501 0
M  V30 10684 C 1047.42 -1.12517 -2.04602 0
M  V30 10685 C 1048.41 -0.0268563 -1.70079 0
M  V30 10686 O 1049.59 -0.201197 -1.93155 0
M  V30 10687 C 1046.72 -0.770749 -3.3864 0
M  V30 10688 C 1045.67 -1.8222 -3.87272 0
M  V30 10689 C 1045 -1.32178 -5.18105 0
M  V30 10690 C 1046.3 -3.22614 -4.10752 0
M  V30 10691 H 1047.99 -2.06 -2.17265 0
M  V30 10692 H 1045.54 -0.991827 -1.04397 0
M  V30 10693 H 1047.49 -0.653843 -4.16297 0
M  V30 10694 H 1046.22 0.19979 -3.25988 0
M  V30 10695 H 1044.88 -1.928 -3.11807 0
M  V30 10696 H 1044.52 -0.340719 -5.01845 0
M  V30 10697 H 1044.22 -2.02474 -5.51614 0
M  V30 10698 H 1045.75 -1.2178 -5.98333 0
M  V30 10699 H 1047.16 -3.1504 -4.78981 0
M  V30 10700 H 1045.56 -3.90614 -4.55566 0
M  V30 10701 H 1046.63 -3.67727 -3.16077 0
M  V30 10702 N 1047.97 1.13488 -1.09353 0
M  V30 10703 C 1048.94 2.17066 -0.735863 0
M  V30 10704 C 1049.94 1.59086 0.234181 0
M  V30 10705 O 1051.13 1.74196 0.012463 0
M  V30 10706 C 1048.26 3.40786 -0.0880975 0
M  V30 10707 H 1049.45 2.50221 -1.65316 0
M  V30 10708 H 1047 1.28304 -0.89263 0
M  V30 10709 H 1047.74 3.1322 0.840462 0
M  V30 10710 H 1047.52 3.8414 -0.786073 0
M  V30 10711 H 1049.01 4.17342 0.146775 0
M  V30 10712 N 1049.45 0.880621 1.30701 0
M  V30 10713 C 1050.38 0.360251 2.30704 0
M  V30 10714 C 1051.36 -0.554572 1.60806 0
M  V30 10715 O 1052.55 -0.469345 1.88443 0
M  V30 10716 C 1049.68 -0.429888 3.44629 0
M  V30 10717 C 1048.63 0.392786 4.26194 0
M  V30 10718 C 1047.96 -0.52369 5.32129 0
M  V30 10719 C 1049.26 1.63258 4.96129 0
M  V30 10720 H 1050.95 1.19591 2.74478 0
M  V30 10721 H 1048.5 0.576508 1.31956 0
M  V30 10722 H 1050.45 -0.804532 4.13649 0
M  V30 10723 H 1049.17 -1.29916 2.99649 0
M  V30 10724 H 1047.83 0.749514 3.58856 0
M  V30 10725 H 1047.48 -1.39054 4.83397 0
M  V30 10726 H 1047.18 0.0229272 5.87596 0
M  V30 10727 H 1048.71 -0.894946 6.04006 0
M  V30 10728 H 1050.12 1.32877 5.57689 0
M  V30 10729 H 1048.52 2.11906 5.61441 0
M  V30 10730 H 1049.59 2.37944 4.22505 0
M  V30 10731 N 1050.93 -1.4397 0.641131 0
M  V30 10732 C 1052.18 -2.01548 0.149333 0
M  V30 10733 C 1052.5 -1.50759 -1.23679 0
M  V30 10734 O 1051.77 -0.715257 -1.82376 0
M  V30 10735 H 1050.35 -0.745173 0.0522161 0
M  V30 10736 H 1053.01 -1.7634 0.830082 0
M  V30 10737 H 1052.11 -3.11851 0.124676 0
M  V30 10738 N 1052.41 -0.382291 -1.52893 0
M  V30 10739 C 1053.66 0.203342 -2.00672 0
M  V30 10740 C 1053.97 1.48487 -1.27322 0
M  V30 10741 O 1055.18 2.15013 -1.65776 0
M  V30 10742 C 1053.63 0.412922 -3.57523 0
M  V30 10743 C 1053.24 -0.854949 -4.39767 0
M  V30 10744 C 1054.98 0.955301 -4.13611 0
M  V30 10745 C 1052.89 -0.614033 -5.88204 0
M  V30 10746 H 1051.82 0.0797635 -0.749769 0
M  V30 10747 H 1054.47 -0.50361 -1.76454 0
M  V30 10748 H 1052.85 1.18155 -3.77962 0
M  V30 10749 H 1054.03 -1.62765 -4.31096 0
M  V30 10750 H 1052.34 -1.32176 -3.94865 0
M  V30 10751 H 1054.94 1.15114 -5.22162 0
M  V30 10752 H 1055.28 1.92233 -3.69259 0
M  V30 10753 H 1055.82 0.24642 -3.97036 0
M  V30 10754 H 1052.55 -1.55187 -6.36865 0
M  V30 10755 H 1052.07 0.119865 -5.9968 0
M  V30 10756 H 1053.75 -0.245895 -6.46533 0
M  V30 10757 N 1053.89 1.57202 -0.111913 0
M  V30 10758 C 1055.3 1.82039 0.414591 0
M  V30 10759 C 1055.65 1.02863 1.67074 0
M  V30 10760 O 1054.77 0.263068 2.14795 0
M  V30 10761 C 1055.37 3.3019 0.758953 0
M  V30 10762 C 1053.93 3.55732 1.23012 0
M  V30 10763 C 1053.07 2.76301 0.235226 0
M  V30 10764 H 1056.02 1.55078 -0.337142 0
M  V30 10765 H 1056.05 3.44431 1.61701 0
M  V30 10766 H 1055.56 3.87788 -0.155473 0
M  V30 10767 H 1053.66 3.03483 2.16169 0
M  V30 10768 H 1053.77 4.64333 1.18034 0
M  V30 10769 H 1052.14 2.44287 0.720822 0
M  V30 10770 H 1052.92 3.36655 -0.672173 0
M  V30 10771 N 1055.36 -0.161842 1.56767 0
M  V30 10772 C 1056.29 -1.20226 2.0017 0
M  V30 10773 C 1057.27 -1.4564 0.878807 0
M  V30 10774 O 1058.46 -1.56813 1.14557 0
M  V30 10775 C 1055.59 -2.53897 2.36968 0
M  V30 10776 C 1054.54 -2.43033 3.52305 0
M  V30 10777 C 1053.87 -3.81281 3.74872 0
M  V30 10778 C 1055.17 -1.927 4.85453 0
M  V30 10779 H 1056.86 -0.84142 2.87333 0
M  V30 10780 H 1054.41 -0.403309 1.38237 0
M  V30 10781 H 1056.36 -3.26893 2.6593 0
M  V30 10782 H 1055.09 -2.91787 1.46724 0
M  V30 10783 H 1053.75 -1.7249 3.23485 0
M  V30 10784 H 1053.39 -4.1658 2.81904 0
M  V30 10785 H 1053.09 -3.74877 4.52483 0
M  V30 10786 H 1054.62 -4.55848 4.06245 0
M  V30 10787 H 1056.03 -2.55477 5.13229 0
M  V30 10788 H 1054.43 -1.97222 5.66766 0
M  V30 10789 H 1055.5 -0.881816 4.76814 0
M  V30 10790 N 1056.84 -1.516 -0.430713 0
M  V30 10791 C 1058.25 -1.57 -1.01035 0
M  V30 10792 C 1058.6 -0.397439 -1.92132 0
M  V30 10793 O 1057.73 0.484954 -2.10896 0
M  V30 10794 C 1058.32 -2.84536 -1.83915 0
M  V30 10795 C 1056.88 -2.92485 -2.36917 0
M  V30 10796 C 1056.03 -2.5173 -1.16308 0
M  V30 10797 H 1058.98 -1.57281 -0.211734 0
M  V30 10798 H 1059 -2.68672 -2.69435 0
M  V30 10799 H 1058.51 -3.69858 -1.17586 0
M  V30 10800 H 1056.61 -2.11608 -3.0668 0
M  V30 10801 H 1056.73 -3.96277 -2.6926 0
M  V30 10802 H 1055.09 -2.05079 -1.51045 0
M  V30 10803 H 1055.87 -3.39403 -0.515793 0
M  V30 10804 N 1058.32 0.686584 -1.41858 0
M  V30 10805 C 1059.23 1.83002 -1.46791 0
M  V30 10806 C 1060.25 1.70284 -0.357675 0
M  V30 10807 O 1061.42 1.92042 -0.606781 0
M  V30 10808 C 1058.49 3.19056 -1.35661 0
M  V30 10809 C 1057.55 3.43817 -2.57077 0
M  V30 10810 C 1056.78 4.7338 -2.46469 0
M  V30 10811 O 1057 5.50483 -1.49413 0
M  V30 10812 O 1055.94 4.99124 -3.36391 0
M  V30 10813 H 1059.76 1.81797 -2.43277 0
M  V30 10814 H 1057.35 0.840812 -1.23494 0
M  V30 10815 H 1059.23 4.00267 -1.31773 0
M  V30 10816 H 1057.91 3.20925 -0.422951 0
M  V30 10817 H 1056.81 2.625 -2.66541 0
M  V30 10818 H 1058.15 3.4677 -3.49302 0
M  V30 10819 N 1059.8 1.27835 0.921735 0
M  V30 10820 C 1060.73 1.136 2.04003 0
M  V30 10821 C 1061.71 0.0358756 1.70062 0
M  V30 10822 O 1062.89 0.211438 1.93046 0
M  V30 10823 C 1060.02 0.788697 3.38226 0
M  V30 10824 C 1058.98 1.84272 3.863 0
M  V30 10825 C 1058.3 1.34923 5.17397 0
M  V30 10826 C 1059.6 3.24788 4.09035 0
M  V30 10827 H 1061.3 2.07149 2.1617 0
M  V30 10828 H 1058.84 0.997349 1.0387 0
M  V30 10829 H 1060.8 0.675911 4.15944 0
M  V30 10830 H 1059.52 -0.182499 3.2609 0
M  V30 10831 H 1058.18 1.94451 3.1078 0
M  V30 10832 H 1057.83 0.367328 5.01657 0
M  V30 10833 H 1057.53 2.05397 5.50532 0
M  V30 10834 H 1059.05 1.24951 5.97678 0
M  V30 10835 H 1060.47 3.17575 4.77304 0
M  V30 10836 H 1058.86 3.93025 4.53488 0
M  V30 10837 H 1059.93 3.69398 3.14122 0
M  V30 10838 N 1061.28 -1.12907 1.09954 0
M  V30 10839 C 1062.69 -1.363 0.830326 0
M  V30 10840 C 1062.89 -1.93772 -0.552694 0
M  V30 10841 O 1061.95 -2.1607 -1.30652 0
M  V30 10842 C 1063.26 -2.30925 1.92598 0
M  V30 10843 C 1064.81 -2.44528 1.95385 0
M  V30 10844 C 1065.28 -3.42464 3.0411 0
M  V30 10845 N 1066.77 -3.50018 3.03384 0
M  V30 10846 C 1067.51 -4.25693 3.84152 0
M  V30 10847 N 1067.01 -5.04476 4.74843 0
M  V30 10848 N 1068.8 -4.21049 3.7239 0
M  V30 10849 H 1060.95 -0.739571 1.99108 0
M  V30 10850 H 1063.21 -0.387983 0.86497 0
M  V30 10851 H 1062.92 -1.95861 2.92115 0
M  V30 10852 H 1062.79 -3.30997 1.80889 0
M  V30 10853 H 1065.18 -2.78875 0.965037 0
M  V30 10854 H 1065.26 -1.44361 2.11172 0
M  V30 10855 H 1064.9 -3.08847 4.03207 0
M  V30 10856 H 1064.83 -4.42448 2.85565 0
M  V30 10857 H 1067.33 -2.93809 2.37665 0
M  V30 10858 H 1067.64 -5.59541 5.33042 0
M  V30 10859 H 1065.98 -5.0369 4.78875 0
M  V30 10860 H 1069.17 -3.5858 3.00895 0
M  V30 10861 H 1069.35 -4.79771 4.35572 0
M  V30 10862 N 1062.75 -0.88754 -1.30232 0
M  V30 10863 C 1063.7 -0.345765 -2.30016 0
M  V30 10864 C 1064.7 0.5486 -1.60271 0
M  V30 10865 O 1065.9 0.43275 -1.74721 0
M  V30 10866 H 1062.28 -0.0931623 -0.746207 0
M  V30 10867 H 1064.25 -1.20095 -2.73166 0
M  V30 10868 C 1063 0.422435 -3.45124 0
M  V30 10869 H 1062.32 -0.256516 -3.98976 0
M  V30 10870 H 1063.76 0.766572 -4.17013 0
M  V30 10871 C 1062.22 1.62049 -2.95367 0
M  V30 10872 O 1062.75 2.71985 -2.95613 0
M  V30 10873 N 1060.95 1.45852 -2.51347 0
M  V30 10874 H 1060.5 0.564158 -2.51346 0
M  V30 10875 H 1060.46 2.26148 -2.18413 0
M  V30 10876 N 1064.23 1.43628 -0.648757 0
M  V30 10877 C 1065.46 2.06732 -0.166284 0
M  V30 10878 C 1065.88 1.48281 1.15734 0
M  V30 10879 O 1065.24 0.591018 1.71396 0
M  V30 10880 C 1065.29 3.60502 -0.0838732 0
M  V30 10881 O 1064.39 4.01186 0.955185 0
M  V30 10882 H 1063.73 0.657479 -0.0928285 0
M  V30 10883 H 1066.26 1.84208 -0.890421 0
M  V30 10884 H 1066.27 4.07875 0.100923 0
M  V30 10885 H 1064.95 4.02424 -1.05014 0
M  V30 10886 H 1063.53 3.65412 0.743537 0
M  V30 10887 N 1065.71 0.390394 1.52688 0
M  V30 10888 C 1066.96 -0.191729 2.01892 0
M  V30 10889 C 1067.29 -1.4637 1.27631 0
M  V30 10890 O 1066.56 -1.90809 0.377094 0
M  V30 10891 C 1066.85 -0.458535 3.57169 0
M  V30 10892 C 1066.7 0.828796 4.42098 0
M  V30 10893 C 1068.02 -1.2487 4.22014 0
M  V30 10894 H 1065.14 -0.0682091 0.733837 0
M  V30 10895 H 1067.78 0.520176 1.82741 0
M  V30 10896 H 1065.93 -1.06498 3.73618 0
M  V30 10897 H 1067.6 1.46562 4.37398 0
M  V30 10898 H 1065.85 1.44388 4.09066 0
M  V30 10899 H 1066.52 0.596746 5.48765 0
M  V30 10900 H 1068.99 -0.735452 4.09549 0
M  V30 10901 H 1067.87 -1.40412 5.30637 0
M  V30 10902 H 1068.13 -2.2642 3.79719 0
M  V30 10903 N 1067.19 -1.57141 0.120249 0
M  V30 10904 C 1068.42 -1.99589 -0.545136 0
M  V30 10905 C 1068.83 -0.999951 -1.60145 0
M  V30 10906 O 1068.19 0.00698897 -1.82499 0
M  V30 10907 C 1068.24 -3.42038 -1.17014 0
M  V30 10908 O 1067.96 -4.37822 -0.156044 0
M  V30 10909 C 1069.46 -3.99625 -1.91872 0
M  V30 10910 H 1066.68 -0.655318 -0.144222 0
M  V30 10911 H 1069.23 -2.0345 0.206955 0
M  V30 10912 H 1067.38 -3.39113 -1.873 0
M  V30 10913 H 1067.79 -5.20937 -0.610317 0
M  V30 10914 H 1069.27 -5.01374 -2.30928 0
M  V30 10915 H 1069.75 -3.38836 -2.7944 0
M  V30 10916 H 1070.35 -4.061 -1.26345 0
M  V30 10917 N 1068.67 0.153526 -1.5685 0
M  V30 10918 C 1069.91 0.865519 -1.82629 0
M  V30 10919 C 1070.24 1.81999 -0.700105 0
M  V30 10920 O 1069.51 1.93907 0.278744 0
M  V30 10921 H 1068.09 0.32261 -0.673745 0
M  V30 10922 H 1070.75 0.149088 -1.94329 0
M  V30 10923 H 1069.84 1.43171 -2.77324 0
M  V30 10924 N 1070.14 1.51827 0.422667 0
M  V30 10925 C 1071.39 1.64893 1.16853 0
M  V30 10926 C 1071.71 0.37456 1.91369 0
M  V30 10927 O 1070.98 -0.610128 1.86157 0
M  V30 10928 H 1069.56 0.607744 0.434345 0
M  V30 10929 H 1072.23 1.88816 0.483159 0
M  V30 10930 H 1071.32 2.48361 1.89006 0
M  V30 10931 N 1071.62 -0.679052 1.4222 0
M  V30 10932 C 1072.85 -1.46747 1.45852 0
M  V30 10933 C 1073.27 -1.88675 0.0685937 0
M  V30 10934 O 1072.62 -1.57861 -0.915757 0
M  V30 10935 C 1072.67 -2.71935 2.38188 0
M  V30 10936 O 1072.39 -2.31768 3.71773 0
M  V30 10937 C 1073.9 -3.65536 2.50796 0
M  V30 10938 H 1071.12 -0.451682 0.49621 0
M  V30 10939 H 1073.66 -0.834723 1.86689 0
M  V30 10940 H 1071.81 -3.31409 2.00616 0
M  V30 10941 H 1072.23 -3.12579 4.21182 0
M  V30 10942 H 1073.7 -4.50113 3.19535 0
M  V30 10943 H 1074.18 -4.11148 1.54447 0
M  V30 10944 H 1074.79 -3.11957 2.89072 0
M  V30 10945 N 1073.1 -1.28322 -0.914942 0
M  V30 10946 C 1074.06 -1.12169 -1.99877 0
M  V30 10947 C 1075.06 -0.0617252 -1.60681 0
M  V30 10948 O 1076.25 -0.307405 -1.71466 0
M  V30 10949 C 1073.39 -0.711959 -3.33383 0
M  V30 10950 H 1074.58 -2.08425 -2.15636 0
M  V30 10951 H 1072.13 -1.11291 -1.09745 0
M  V30 10952 H 1072.87 0.251418 -3.23324 0
M  V30 10953 H 1072.65 -1.47764 -3.63192 0
M  V30 10954 H 1074.14 -0.621558 -4.12948 0
M  V30 10955 N 1074.58 1.12322 -1.10551 0
M  V30 10956 C 1075.54 2.16273 -0.758844 0
M  V30 10957 C 1076.54 1.59325 0.217294 0
M  V30 10958 O 1077.73 1.74199 -0.00601346 0
M  V30 10959 C 1074.86 3.40674 -0.124238 0
M  V30 10960 H 1076.06 2.48454 -1.6796 0
M  V30 10961 H 1073.61 1.2735 -0.906188 0
M  V30 10962 H 1074.34 3.14094 0.807194 0
M  V30 10963 H 1074.13 3.83284 -0.826772 0
M  V30 10964 H 1075.62 4.17474 0.102502 0
M  V30 10965 N 1076.06 0.894434 1.2976 0
M  V30 10966 C 1077.3 0.517669 1.95771 0
M  V30 10967 C 1077.63 -0.935028 1.70551 0
M  V30 10968 O 1076.89 -1.67722 1.00835 0
M  V30 10969 C 1077.19 0.750307 3.49435 0
M  V30 10970 C 1076.85 2.17955 3.94723 0
M  V30 10971 C 1075.51 2.57036 4.068 0
M  V30 10972 C 1077.87 3.11053 4.18205 0
M  V30 10973 C 1075.19 3.88406 4.39724 0
M  V30 10974 C 1077.55 4.41966 4.52602 0
M  V30 10975 C 1076.21 4.80927 4.62888 0
M  V30 10976 H 1075.48 0.189428 0.716378 0
M  V30 10977 H 1078.13 1.13209 1.54454 0
M  V30 10978 H 1076.43 0.0529242 3.91764 0
M  V30 10979 H 1078.13 0.438251 3.98598 0
M  V30 10980 H 1074.72 1.86622 3.85837 0
M  V30 10981 H 1078.9 2.82076 4.08347 0
M  V30 10982 H 1074.16 4.18321 4.4589 0
M  V30 10983 H 1078.33 5.14134 4.69722 0
M  V30 10984 H 1075.96 5.82759 4.88156 0
M  V30 10985 N 1077.53 -1.43282 0.656365 0
M  V30 10986 C 1078.44 -2.34576 -0.033864 0
M  V30 10987 C 1079.46 -1.5406 -0.808793 0
M  V30 10988 O 1080.64 -1.867 -0.755322 0
M  V30 10989 C 1077.7 -3.32378 -0.986197 0
M  V30 10990 C 1076.76 -4.28797 -0.207851 0
M  V30 10991 C 1076 -5.21927 -1.11482 0
M  V30 10992 O 1076.22 -5.19554 -2.35414 0
M  V30 10993 O 1075.15 -5.99045 -0.585536 0
M  V30 10994 H 1078.98 -2.95099 0.717668 0
M  V30 10995 H 1076.56 -1.43475 0.416556 0
M  V30 10996 H 1078.45 -3.9251 -1.53341 0
M  V30 10997 H 1077.12 -2.74354 -1.7179 0
M  V30 10998 H 1076.03 -3.72134 0.383022 0
M  V30 10999 H 1077.36 -4.89811 0.48435 0
M  V30 11000 N 1079.01 -0.398486 -1.52479 0
M  V30 11001 C 1080.42 0.0735015 -1.86555 0
M  V30 11002 C 1080.78 1.45361 -1.31775 0
M  V30 11003 O 1079.9 2.0632 -0.652759 0
M  V30 11004 C 1080.5 0.140152 -3.3851 0
M  V30 11005 C 1079.05 0.556451 -3.72264 0
M  V30 11006 C 1078.2 -0.275792 -2.75925 0
M  V30 11007 H 1081.15 -0.615991 -1.46257 0
M  V30 11008 H 1081.17 0.957507 -3.68255 0
M  V30 11009 H 1080.69 -0.864442 -3.7835 0
M  V30 11010 H 1078.79 1.56808 -3.37997 0
M  V30 11011 H 1078.9 0.308227 -4.78107 0
M  V30 11012 H 1077.26 0.260304 -2.53366 0
M  V30 11013 H 1078.05 -1.27854 -3.18604 0
M  V30 11014 N 1080.49 1.57075 -0.12858 0
M  V30 11015 C 1081.72 2.00305 0.537839 0
M  V30 11016 C 1082.14 1.00787 1.58819 0
M  V30 11017 O 1081.5 -0.0190839 1.8129 0
M  V30 11018 C 1081.55 3.42371 1.13201 0
M  V30 11019 O 1080.65 3.45786 2.24735 0
M  V30 11020 H 1079.99 0.650456 0.133428 0
M  V30 11021 H 1082.52 2.03415 -0.219882 0
M  V30 11022 H 1082.53 3.80783 1.4652 0
M  V30 11023 H 1081.21 4.14315 0.362713 0
M  V30 11024 H 1079.78 3.19201 1.92783 0
M  V30 11025 N 1081.97 -0.145205 1.5693 0
M  V30 11026 C 1083.22 -0.858786 1.83719 0
M  V30 11027 C 1083.55 -1.80738 0.710452 0
M  V30 11028 O 1082.82 -1.92389 -0.285791 0
M  V30 11029 C 1083.11 -1.6317 3.2101 0
M  V30 11030 C 1082.96 -0.704472 4.44249 0
M  V30 11031 C 1084.28 -2.59377 3.55544 0
M  V30 11032 H 1081.4 -0.310757 0.66828 0
M  V30 11033 H 1084.04 -0.123918 1.89595 0
M  V30 11034 H 1082.19 -2.25816 3.16132 0
M  V30 11035 H 1083.86 -0.08887 4.61214 0
M  V30 11036 H 1082.1 -0.0141693 4.33798 0
M  V30 11037 H 1082.78 -1.28135 5.36922 0
M  V30 11038 H 1085.25 -2.06848 3.61044 0
M  V30 11039 H 1084.13 -3.10506 4.52634 0
M  V30 11040 H 1084.39 -3.40819 2.81594 0
M  V30 11041 N 1083.45 -1.52049 -0.414609 0
M  V30 11042 C 1084.72 -1.56397 -1.17471 0
M  V30 11043 C 1085.1 -0.34171 -2.08316 0
M  V30 11044 O 1084.45 0.6718 -2.18401 0
M  V30 11045 C 1084.66 -2.88983 -1.95678 0
M  V30 11046 C 1086.01 -3.41781 -2.51935 0
M  V30 11047 O 1087.03 -2.90686 -2.05865 0
M  V30 11048 O 1085.89 -4.30989 -3.36022 0
M  V30 11049 H 1082.99 -0.62974 -0.536056 0
M  V30 11050 H 1085.53 -1.64374 -0.421834 0
M  V30 11051 H 1084.31 -3.69392 -1.29094 0
M  V30 11052 H 1083.93 -2.84274 -2.77983 0
M  V30 11053 N 1084.93 0.6715 -1.42579 0
M  V30 11054 C 1086.16 1.4576 -1.46416 0
M  V30 11055 C 1086.56 1.89051 -0.0749843 0
M  V30 11056 O 1085.91 1.58927 0.921296 0
M  V30 11057 C 1085.97 2.7365 -2.33144 0
M  V30 11058 C 1085.63 2.52414 -3.80968 0
M  V30 11059 C 1086.63 2.16804 -4.72538 0
M  V30 11060 C 1084.31 2.67306 -4.25268 0
M  V30 11061 C 1086.31 1.96358 -6.06401 0
M  V30 11062 C 1084 2.46475 -5.5919 0
M  V30 11063 C 1084.99 2.11055 -6.49573 0
M  V30 11064 O 1084.68 1.90428 -7.8102 0
M  V30 11065 H 1084.41 0.454896 -0.500045 0
M  V30 11066 H 1086.97 0.832198 -1.87786 0
M  V30 11067 H 1085.2 3.38684 -1.86629 0
M  V30 11068 H 1086.89 3.35543 -2.28398 0
M  V30 11069 H 1087.65 2.04891 -4.39596 0
M  V30 11070 H 1083.53 2.93854 -3.55206 0
M  V30 11071 H 1087.08 1.68634 -6.76911 0
M  V30 11072 H 1082.97 2.57985 -5.91704 0
M  V30 11073 H 1083.74 2.05 -7.92412 0
M  V30 11074 N 1086.4 1.28806 0.908124 0
M  V30 11075 C 1087.64 1.17546 1.67219 0
M  V30 11076 C 1088.01 -0.270396 1.90086 0
M  V30 11077 O 1089.21 -0.505808 2.63998 0
M  V30 11078 C 1087.48 1.95774 2.99011 0
M  V30 11079 S 1089.04 2.00953 3.90081 0
M  V30 11080 H 1085.86 0.419283 0.574215 0
M  V30 11081 H 1088.46 1.6298 1.07971 0
M  V30 11082 H 1087.16 2.99978 2.80074 0
M  V30 11083 H 1086.69 1.50911 3.63303 0
M  V30 11084 H 1088.71 1.1201 4.83392 0
M  V30 11085 N 1087.88 -1.11734 1.11145 0
M  V30 11086 C 1089.13 -1.83677 0.859684 0
M  V30 11087 C 1089.46 -1.84265 -0.613182 0
M  V30 11088 O 1088.74 -1.29351 -1.45254 0
M  V30 11089 C 1089.02 -3.31003 1.41805 0
M  V30 11090 C 1088.87 -3.38827 2.95831 0
M  V30 11091 C 1090.19 -4.26984 1.06645 0
M  V30 11092 H 1087.31 -0.666879 0.313754 0
M  V30 11093 H 1089.95 -1.31038 1.37583 0
M  V30 11094 H 1088.1 -3.75961 0.979054 0
M  V30 11095 H 1089.77 -3.02451 3.48312 0
M  V30 11096 H 1088.02 -2.79143 3.32056 0
M  V30 11097 H 1088.69 -4.42508 3.29986 0
M  V30 11098 H 1091.16 -3.9019 1.44537 0
M  V30 11099 H 1090.04 -5.2846 1.48394 0
M  V30 11100 H 1090.3 -4.42094 -0.0231866 0
M  V30 11101 N 1089.36 -0.901303 -1.29284 0
M  V30 11102 C 1090.61 -0.528826 -1.95784 0
M  V30 11103 C 1090.94 0.922833 -1.70873 0
M  V30 11104 O 1090.21 1.65448 -1.0226 0
M  V30 11105 C 1090.5 -0.823793 -3.50551 0
M  V30 11106 C 1090.35 -2.32727 -3.84913 0
M  V30 11107 C 1091.67 -0.311382 -4.38997 0
M  V30 11108 H 1088.79 -0.193604 -0.711116 0
M  V30 11109 H 1091.43 -1.12828 -1.52872 0
M  V30 11110 H 1089.58 -0.313612 -3.87232 0
M  V30 11111 H 1091.25 -2.90712 -3.58168 0
M  V30 11112 H 1089.49 -2.78735 -3.32399 0
M  V30 11113 H 1090.17 -2.48423 -4.9294 0
M  V30 11114 H 1092.64 -0.748265 -4.09317 0
M  V30 11115 H 1091.52 -0.546957 -5.46168 0
M  V30 11116 H 1091.78 0.787959 -4.35021 0
M  V30 11117 N 1090.84 1.42931 -0.663954 0
M  V30 11118 C 1091.78 2.3079 0.0210764 0
M  V30 11119 C 1092.75 1.45356 0.803796 0
M  V30 11120 O 1093.94 1.74207 0.778237 0
M  V30 11121 C 1091.08 3.31069 0.974023 0
M  V30 11122 C 1090.19 4.31598 0.186273 0
M  V30 11123 C 1089.33 5.18955 1.13399 0
M  V30 11124 C 1088.37 6.1117 0.337292 0
M  V30 11125 N 1087.5 6.91114 1.23715 0
M  V30 11126 H 1092.34 2.88819 -0.733995 0
M  V30 11127 H 1089.88 1.42274 -0.373711 0
M  V30 11128 H 1091.84 3.87727 1.54024 0
M  V30 11129 H 1090.47 2.74665 1.69585 0
M  V30 11130 H 1089.52 3.77147 -0.496402 0
M  V30 11131 H 1090.83 4.96919 -0.432753 0
M  V30 11132 H 1089.99 5.80292 1.77049 0
M  V30 11133 H 1088.73 4.53785 1.78691 0
M  V30 11134 H 1087.73 5.48911 -0.312492 0
M  V30 11135 H 1088.96 6.78386 -0.31138 0
M  V30 11136 H 1086.9 6.28583 1.87668 0
M  V30 11137 H 1086.82 7.52999 0.672946 0
M  V30 11138 H 1088.09 7.56948 1.86146 0
M  V30 11139 N 1092.32 0.406567 1.52266 0
M  V30 11140 C 1093.56 -0.171391 2.00971 0
M  V30 11141 C 1093.88 -1.46443 1.29668 0
M  V30 11142 O 1095.08 -2.12348 1.69176 0
M  V30 11143 C 1093.54 -0.35599 3.58135 0
M  V30 11144 C 1093.15 0.924803 4.38351 0
M  V30 11145 C 1094.89 -0.889378 4.15079 0
M  V30 11146 C 1092.8 0.707534 5.87152 0
M  V30 11147 H 1091.73 -0.0678253 0.750943 0
M  V30 11148 H 1094.38 0.531619 1.7563 0
M  V30 11149 H 1092.76 -1.12127 3.79794 0
M  V30 11150 H 1093.94 1.69603 4.28452 0
M  V30 11151 H 1092.25 1.38442 3.92712 0
M  V30 11152 H 1094.85 -1.06792 5.23927 0
M  V30 11153 H 1095.19 -1.86334 3.7227 0
M  V30 11154 H 1095.72 -0.183224 3.97378 0
M  V30 11155 H 1092.46 1.65299 6.34316 0
M  V30 11156 H 1091.98 -0.024446 5.99795 0
M  V30 11157 H 1093.66 0.348721 6.4606 0
M  V30 11158 N 1093.79 -1.57004 0.136909 0
M  V30 11159 C 1095.21 -1.82675 -0.385577 0
M  V30 11160 C 1095.56 -1.05508 -1.65416 0
M  V30 11161 O 1094.68 -0.297207 -2.14349 0
M  V30 11162 C 1095.28 -3.31356 -0.706326 0
M  V30 11163 C 1093.84 -3.57644 -1.17337 0
M  V30 11164 C 1092.98 -2.7664 -0.191239 0
M  V30 11165 H 1095.93 -1.54522 0.36177 0
M  V30 11166 H 1095.95 -3.4696 -1.56201 0
M  V30 11167 H 1095.47 -3.87492 0.217147 0
M  V30 11168 H 1093.57 -3.06883 -2.11313 0
M  V30 11169 H 1093.68 -4.66152 -1.10632 0
M  V30 11170 H 1092.04 -2.45403 -0.681867 0
M  V30 11171 H 1092.83 -3.35543 0.725647 0
M  V30 11172 N 1095.27 0.136881 -1.57004 0
M  V30 11173 C 1096.69 0.489856 -1.51897 0
M  V30 11174 C 1096.89 1.82833 -0.847009 0
M  V30 11175 O 1095.94 2.48952 -0.421792 0
M  V30 11176 C 1097.26 0.490831 -2.96667 0
M  V30 11177 C 1098.81 0.575639 -3.07661 0
M  V30 11178 C 1099.28 0.607178 -4.53957 0
M  V30 11179 N 1100.77 0.66912 -4.58342 0
M  V30 11180 C 1101.51 0.714675 -5.68929 0
M  V30 11181 N 1101 0.718959 -6.89059 0
M  V30 11182 N 1102.8 0.756326 -5.56988 0
M  V30 11183 H 1094.95 -0.740347 -1.99079 0
M  V30 11184 H 1097.21 -0.271116 -0.908405 0
M  V30 11185 H 1096.92 -0.424648 -3.49127 0
M  V30 11186 H 1096.79 1.32512 -3.53158 0
M  V30 11187 H 1099.18 1.48154 -2.55215 0
M  V30 11188 H 1099.26 -0.285991 -2.54196 0
M  V30 11189 H 1098.9 -0.294604 -5.07045 0
M  V30 11190 H 1098.83 1.48544 -5.05215 0
M  V30 11191 H 1101.32 0.672697 -3.71864 0
M  V30 11192 H 1101.64 0.755848 -7.69095 0
M  V30 11193 H 1099.98 0.686671 -6.91599 0
M  V30 11194 H 1103.17 0.750219 -4.62049 0
M  V30 11195 H 1103.34 0.788363 -6.43186 0
M  V30 11196 N 1096.75 1.52266 0.40654 0
M  V30 11197 C 1098 1.67654 1.15168 0
M  V30 11198 C 1098.35 0.402751 1.88137 0
M  V30 11199 O 1097.64 -0.60291 1.81867 0
M  V30 11200 C 1097.84 2.8389 2.1712 0
M  V30 11201 C 1097.67 4.2245 1.54162 0
M  V30 11202 C 1096.44 4.87937 1.31322 0
M  V30 11203 C 1098.64 5.04462 1.00112 0
M  V30 11204 N 1096.62 6.10525 0.642842 0
M  V30 11205 C 1097.99 6.18307 0.457805 0
M  V30 11206 C 1100.04 4.89775 0.89583 0
M  V30 11207 C 1098.75 7.19074 -0.180477 0
M  V30 11208 C 1100.77 5.90777 0.271397 0
M  V30 11209 C 1100.13 7.03915 -0.261225 0
M  V30 11210 H 1096.23 0.667121 0.408012 0
M  V30 11211 H 1098.82 1.89577 0.443695 0
M  V30 11212 H 1096.99 2.63578 2.85274 0
M  V30 11213 H 1098.72 2.88302 2.84014 0
M  V30 11214 H 1095.48 4.46345 1.58344 0
M  V30 11215 H 1095.9 6.76223 0.324204 0
M  V30 11216 H 1100.54 4.0253 1.29344 0
M  V30 11217 H 1098.26 8.05942 -0.590141 0
M  V30 11218 H 1101.85 5.81485 0.191417 0
M  V30 11219 H 1100.73 7.80731 -0.736791 0
M  V30 11220 N 1098.23 -0.663929 1.42933 0
M  V30 11221 C 1099.51 -1.42054 1.34462 0
M  V30 11222 C 1099.89 -2.11096 -0.0127801 0
M  V30 11223 O 1099.23 -2.04027 -1.02884 0
M  V30 11224 C 1099.44 -2.41406 2.5204 0
M  V30 11225 C 1100.79 -3.05726 2.94647 0
M  V30 11226 O 1101.82 -2.51733 2.52009 0
M  V30 11227 O 1100.67 -4.03593 3.68477 0
M  V30 11228 H 1097.77 -0.634149 0.530834 0
M  V30 11229 H 1100.31 -0.691738 1.54962 0
M  V30 11230 H 1099.09 -1.89263 3.42484 0
M  V30 11231 H 1098.71 -3.21752 2.33584 0
M  V30 11232 N 1099.71 -1.29285 -0.901281 0
M  V30 11233 C 1100.64 -1.16832 -2.0217 0
M  V30 11234 C 1101.62 -0.0629265 -1.69984 0
M  V30 11235 O 1102.8 -0.242123 -1.92685 0
M  V30 11236 C 1099.93 -0.842406 -3.36929 0
M  V30 11237 C 1098.89 -1.90394 -3.8332 0
M  V30 11238 C 1098.21 -1.43138 -5.15185 0
M  V30 11239 C 1099.51 -3.31254 -4.03817 0
M  V30 11240 H 1101.21 -2.10562 -2.12847 0
M  V30 11241 H 1098.75 -1.01375 -1.0227 0
M  V30 11242 H 1100.71 -0.741999 -4.14816 0
M  V30 11243 H 1099.43 0.130598 -3.26339 0
M  V30 11244 H 1098.09 -1.99371 -3.07647 0
M  V30 11245 H 1097.74 -0.447091 -5.01009 0
M  V30 11246 H 1097.44 -2.14129 -5.47195 0
M  V30 11247 H 1098.96 -1.34444 -5.95615 0
M  V30 11248 H 1100.37 -3.25129 -4.72191 0
M  V30 11249 H 1098.77 -4.00189 -4.47178 0
M  V30 11250 H 1099.84 -3.74349 -3.08206 0
M  V30 11251 N 1101.18 1.11143 -1.11736 0
M  V30 11252 C 1102.41 1.87285 -0.891007 0
M  V30 11253 C 1102.83 1.79758 0.553971 0
M  V30 11254 O 1102.19 1.16221 1.39149 0
M  V30 11255 C 1102.24 3.33924 -1.36114 0
M  V30 11256 O 1101.34 4.08917 -0.534851 0
M  V30 11257 H 1100.69 0.581418 -0.320701 0
M  V30 11258 H 1103.22 1.40469 -1.4876 0
M  V30 11259 H 1103.23 3.84772 -1.35701 0
M  V30 11260 H 1101.9 3.38719 -2.41334 0
M  V30 11261 H 1100.48 3.67954 -0.605355 0
M  V30 11262 N 1102.66 0.908147 1.28804 0
M  V30 11263 C 1103.61 0.390734 2.27468 0
M  V30 11264 C 1104.58 -0.531765 1.57358 0
M  V30 11265 O 1105.76 -0.455177 1.85291 0
M  V30 11266 C 1102.9 -0.368159 3.43131 0
M  V30 11267 C 1102.02 0.586202 4.28004 0
M  V30 11268 C 1101.15 -0.190581 5.30858 0
M  V30 11269 C 1100.19 0.757758 6.07391 0
M  V30 11270 N 1099.33 0.0148488 7.02098 0
M  V30 11271 H 1104.17 1.23717 2.71105 0
M  V30 11272 H 1101.71 0.621382 1.33331 0
M  V30 11273 H 1103.66 -0.824289 4.08976 0
M  V30 11274 H 1102.29 -1.17898 3.00499 0
M  V30 11275 H 1101.35 1.16086 3.62254 0
M  V30 11276 H 1102.66 1.31177 4.81242 0
M  V30 11277 H 1101.81 -0.707528 6.0256 0
M  V30 11278 H 1100.55 -0.949234 4.78373 0
M  V30 11279 H 1099.56 1.28613 5.34545 0
M  V30 11280 H 1100.78 1.51588 6.61965 0
M  V30 11281 H 1098.73 -0.725916 6.51971 0
M  V30 11282 H 1098.64 0.680347 7.52932 0
M  V30 11283 H 1099.91 -0.482086 7.78008 0
M  V30 11284 N 1104.14 -1.42577 0.671525 0
M  V30 11285 C 1105.39 -2.01584 0.192431 0
M  V30 11286 C 1105.72 -1.53076 -1.19992 0
M  V30 11287 O 1104.97 -0.722196 -1.81887 0
M  V30 11288 C 1105.27 -3.56985 0.172097 0
M  V30 11289 C 1104.94 -4.24912 1.50867 0
M  V30 11290 C 1103.6 -4.43182 1.87464 0
M  V30 11291 C 1105.95 -4.6322 2.38908 0
M  V30 11292 C 1103.28 -4.97031 3.11732 0
M  V30 11293 C 1105.63 -5.18447 3.62485 0
M  V30 11294 C 1104.29 -5.34932 3.99255 0
M  V30 11295 H 1103.56 -0.737647 0.0704155 0
M  V30 11296 H 1106.21 -1.70807 0.865862 0
M  V30 11297 H 1104.52 -3.87411 -0.584835 0
M  V30 11298 H 1106.21 -4.00419 -0.215749 0
M  V30 11299 H 1102.8 -4.11048 1.21397 0
M  V30 11300 H 1106.99 -4.4878 2.1192 0
M  V30 11301 H 1102.24 -5.07979 3.40246 0
M  V30 11302 H 1106.42 -5.47075 4.30909 0
M  V30 11303 H 1104.04 -5.76422 4.95623 0
M  V30 11304 N 1105.62 -0.414636 -1.52048 0
M  V30 11305 C 1106.55 0.399119 -2.30064 0
M  V30 11306 C 1107.53 1.04126 -1.34506 0
M  V30 11307 O 1108.71 1.04923 -1.63416 0
M  V30 11308 C 1105.84 1.51305 -3.12608 0
M  V30 11309 C 1104.8 0.995621 -4.16259 0
M  V30 11310 C 1104.12 2.20357 -4.87183 0
M  V30 11311 C 1105.42 0.0458178 -5.2228 0
M  V30 11312 H 1107.12 -0.251879 -2.98339 0
M  V30 11313 H 1104.66 -0.122579 -1.43477 0
M  V30 11314 H 1106.62 2.08936 -3.65956 0
M  V30 11315 H 1105.34 2.19201 -2.42113 0
M  V30 11316 H 1104 0.441676 -3.6393 0
M  V30 11317 H 1103.65 2.8682 -4.13211 0
M  V30 11318 H 1103.35 1.86385 -5.57256 0
M  V30 11319 H 1104.87 2.78584 -5.43345 0
M  V30 11320 H 1106.29 0.531102 -5.70835 0
M  V30 11321 H 1104.68 -0.20536 -5.99749 0
M  V30 11322 H 1105.75 -0.897807 -4.76516 0
M  V30 11323 N 1107.1 1.56929 -0.145233 0
M  V30 11324 C 1108.51 1.58196 0.211194 0
M  V30 11325 C 1108.71 1.15941 1.64803 0
M  V30 11326 O 1107.77 0.858888 2.37443 0
M  V30 11327 C 1109.08 3.00665 -0.0459569 0
M  V30 11328 C 1110.63 3.12995 0.0178913 0
M  V30 11329 C 1111.1 4.5751 -0.211905 0
M  V30 11330 N 1112.6 4.62928 -0.158772 0
M  V30 11331 C 1113.33 5.72555 -0.311111 0
M  V30 11332 N 1112.83 6.90838 -0.521074 0
M  V30 11333 N 1114.62 5.61549 -0.248838 0
M  V30 11334 H 1106.77 1.8269 -1.08342 0
M  V30 11335 H 1109.03 0.845514 -0.428731 0
M  V30 11336 H 1108.74 3.35962 -1.0403 0
M  V30 11337 H 1108.61 3.71125 0.674246 0
M  V30 11338 H 1111 2.7754 1.00278 0
M  V30 11339 H 1111.08 2.45025 -0.734612 0
M  V30 11340 H 1110.73 4.93669 -1.19389 0
M  V30 11341 H 1110.66 5.23604 0.560901 0
M  V30 11342 H 1113.15 3.779 -0.00107283 0
M  V30 11343 H 1113.46 7.70248 -0.62747 0
M  V30 11344 H 1111.8 6.92761 -0.557374 0
M  V30 11345 H 1115 4.68022 -0.0855821 0
M  V30 11346 H 1115.17 6.46937 -0.370997 0
M  V30 11347 N 1108.58 -0.128553 1.57075 0
M  V30 11348 C 1109.82 -0.839252 1.8462 0
M  V30 11349 C 1110.15 -1.79974 0.729582 0
M  V30 11350 O 1109.43 -1.92681 -0.265369 0
M  V30 11351 C 1109.71 -1.59756 3.22723 0
M  V30 11352 C 1109.57 -0.657313 4.44971 0
M  V30 11353 C 1110.88 -2.55592 3.58275 0
M  V30 11354 H 1108 -0.303652 0.671539 0
M  V30 11355 H 1110.65 -0.103802 1.89716 0
M  V30 11356 H 1108.8 -2.22451 3.18509 0
M  V30 11357 H 1110.47 -0.0399471 4.61283 0
M  V30 11358 H 1108.71 0.0318416 4.33788 0
M  V30 11359 H 1109.38 -1.22433 5.38251 0
M  V30 11360 H 1111.86 -2.03007 3.63218 0
M  V30 11361 H 1110.73 -3.05687 4.55902 0
M  V30 11362 H 1110.99 -3.37813 2.85193 0
M  V30 11363 N 1110.05 -1.5248 -0.398459 0
M  V30 11364 C 1111.28 -1.71221 -1.17039 0
M  V30 11365 C 1111.7 -0.425515 -1.83224 0
M  V30 11366 O 1111.06 0.617938 -1.70444 0
M  V30 11367 C 1111.11 -2.8562 -2.20121 0
M  V30 11368 O 1110.21 -2.51934 -3.26501 0
M  V30 11369 H 1109.55 -0.569654 -0.34116 0
M  V30 11370 H 1112.08 -1.99231 -0.465652 0
M  V30 11371 H 1112.09 -3.10842 -2.64275 0
M  V30 11372 H 1110.77 -3.78969 -1.71334 0
M  V30 11373 H 1109.35 -2.3742 -2.87552 0
M  V30 11374 N 1111.53 0.65634 -1.43283 0
M  V30 11375 C 1112.76 1.44408 -1.48168 0
M  V30 11376 C 1113.17 1.88542 -0.0986016 0
M  V30 11377 O 1112.53 1.59298 0.890527 0
M  V30 11378 C 1112.58 2.68111 -2.42484 0
M  V30 11379 O 1112.3 2.25824 -3.75413 0
M  V30 11380 C 1113.8 3.61499 -2.56579 0
M  V30 11381 H 1111.02 0.443731 -0.503333 0
M  V30 11382 H 1113.57 0.804917 -1.87993 0
M  V30 11383 H 1111.72 3.28175 -2.05863 0
M  V30 11384 H 1112.14 3.05839 -4.26102 0
M  V30 11385 H 1113.61 4.44972 -3.26655 0
M  V30 11386 H 1114.09 4.08639 -1.60969 0
M  V30 11387 H 1114.69 3.07319 -2.93998 0
M  V30 11388 N 1113.01 1.29761 0.894412 0
M  V30 11389 C 1113.96 1.15341 1.99912 0
M  V30 11390 C 1114.93 0.0453488 1.66038 0
M  V30 11391 O 1116.11 0.213829 1.89598 0
M  V30 11392 C 1113.25 0.841432 3.34685 0
M  V30 11393 C 1112.36 2.03046 3.81309 0
M  V30 11394 C 1111.5 1.65739 5.04682 0
M  V30 11395 C 1110.54 2.81191 5.43689 0
M  V30 11396 N 1109.68 2.44244 6.58247 0
M  V30 11397 H 1114.52 2.09854 2.11578 0
M  V30 11398 H 1112.05 1.04421 1.03608 0
M  V30 11399 H 1114.01 0.641211 4.12243 0
M  V30 11400 H 1112.64 -0.066797 3.22731 0
M  V30 11401 H 1111.69 2.34222 2.9974 0
M  V30 11402 H 1113 2.89538 4.06164 0
M  V30 11403 H 1112.16 1.42036 5.8984 0
M  V30 11404 H 1110.9 0.764019 4.81678 0
M  V30 11405 H 1109.9 3.0557 4.57064 0
M  V30 11406 H 1111.13 3.712 5.68672 0
M  V30 11407 H 1109.07 1.57402 6.36837 0
M  V30 11408 H 1108.99 3.24269 6.82924 0
M  V30 11409 H 1110.26 2.23875 7.46659 0
M  V30 11410 N 1114.49 -1.10549 1.12324 0
M  V30 11411 C 1115.74 -1.81851 0.872531 0
M  V30 11412 C 1116.05 -1.86058 -0.603468 0
M  V30 11413 O 1117.26 -2.53553 -0.970736 0
M  V30 11414 C 1115.71 -3.26631 1.51131 0
M  V30 11415 C 1115.32 -3.30725 3.02201 0
M  V30 11416 C 1117.06 -4.02768 1.34082 0
M  V30 11417 C 1114.97 -4.69957 3.59018 0
M  V30 11418 H 1113.9 -0.681422 0.322769 0
M  V30 11419 H 1116.55 -1.24332 1.34959 0
M  V30 11420 H 1114.93 -3.8414 0.961913 0
M  V30 11421 H 1116.11 -2.83046 3.63623 0
M  V30 11422 H 1114.42 -2.68072 3.18632 0
M  V30 11423 H 1117.02 -5.05612 1.73955 0
M  V30 11424 H 1117.36 -4.15328 0.284369 0
M  V30 11425 H 1117.9 -3.51671 1.85937 0
M  V30 11426 H 1114.63 -4.62597 4.64418 0
M  V30 11427 H 1114.15 -5.18008 3.02371 0
M  V30 11428 H 1115.83 -5.38925 3.58007 0
M  V30 11429 N 1115.97 -0.914965 -1.28321 0
M  V30 11430 C 1117.21 -0.547665 -1.94538 0
M  V30 11431 C 1117.53 0.911834 -1.72368 0
M  V30 11432 O 1116.8 1.64481 -1.06408 0
M  V30 11433 H 1115.38 -0.199549 -0.719853 0
M  V30 11434 H 1118.05 -1.16459 -1.5628 0
M  V30 11435 H 1117.14 -0.743138 -3.03124 0
M  V30 11436 N 1117.44 1.42219 -0.679077 0
M  V30 11437 C 1118.67 2.06333 -0.210097 0
M  V30 11438 C 1119.09 1.50703 1.12562 0
M  V30 11439 O 1118.45 0.627241 1.70104 0
M  V30 11440 C 1118.5 3.60243 -0.160322 0
M  V30 11441 O 1117.6 4.03122 0.869872 0
M  V30 11442 H 1116.94 0.655362 -0.106754 0
M  V30 11443 H 1119.47 1.82278 -0.929294 0
M  V30 11444 H 1119.48 4.07997 0.014384 0
M  V30 11445 H 1118.16 4.00106 -1.13526 0
M  V30 11446 H 1116.74 3.66907 0.66586 0
M  V30 11447 N 1118.92 0.422693 1.51826 0
M  V30 11448 C 1120.16 -0.147997 2.03864 0
M  V30 11449 C 1120.53 -1.41224 1.30076 0
M  V30 11450 O 1121.73 -2.06224 1.72409 0
M  V30 11451 C 1120 -0.376248 3.55414 0
M  V30 11452 S 1121.56 -0.912444 4.29208 0
M  V30 11453 H 1118.37 -0.0387084 0.709946 0
M  V30 11454 H 1120.98 0.578733 1.86738 0
M  V30 11455 H 1119.68 0.550451 4.06692 0
M  V30 11456 H 1119.21 -1.13047 3.76807 0
M  V30 11457 H 1121.23 -2.19161 4.45177 0
M  V30 11458 N 1120.4 -1.5685 0.153553 0
M  V30 11459 C 1121.33 -2.12888 -0.821829 0
M  V30 11460 C 1122.31 -1.05418 -1.23798 0
M  V30 11461 O 1123.49 -1.33288 -1.33292 0
M  V30 11462 C 1120.62 -2.65394 -2.10438 0
M  V30 11463 C 1119.67 -3.85071 -1.83364 0
M  V30 11464 S 1120.5 -5.2572 -1.01877 0
M  V30 11465 C 1121.66 -5.81619 -2.31236 0
M  V30 11466 H 1121.89 -2.95288 -0.345314 0
M  V30 11467 H 1119.42 -1.5428 -0.0608377 0
M  V30 11468 H 1121.38 -2.96294 -2.84113 0
M  V30 11469 H 1120.04 -1.83112 -2.55204 0
M  V30 11470 H 1119.23 -4.20076 -2.78482 0
M  V30 11471 H 1118.84 -3.54965 -1.17794 0
M  V30 11472 H 1121.13 -5.9345 -3.26838 0
M  V30 11473 H 1122.07 -6.79054 -2.00727 0
M  V30 11474 H 1122.48 -5.09909 -2.42184 0
M  V30 11475 N 1121.88 0.120221 -1.57141 0
M  V30 11476 C 1122.82 1.14751 -2.00252 0
M  V30 11477 C 1123.79 1.41217 -0.874462 0
M  V30 11478 O 1124.98 1.53104 -1.13859 0
M  V30 11479 C 1122.12 2.46923 -2.41087 0
M  V30 11480 C 1121.23 2.27403 -3.67303 0
M  V30 11481 C 1120.37 3.52797 -3.97125 0
M  V30 11482 C 1119.41 3.28429 -5.16528 0
M  V30 11483 N 1118.54 4.46022 -5.42226 0
M  V30 11484 H 1123.38 0.772884 -2.87803 0
M  V30 11485 H 1120.92 0.370137 -1.42367 0
M  V30 11486 H 1122.88 3.24025 -2.62799 0
M  V30 11487 H 1121.51 2.82281 -1.5658 0
M  V30 11488 H 1120.56 1.41224 -3.53214 0
M  V30 11489 H 1121.87 2.05373 -4.54558 0
M  V30 11490 H 1121.03 4.38318 -4.19479 0
M  V30 11491 H 1119.77 3.77857 -3.08343 0
M  V30 11492 H 1118.77 2.41299 -4.94019 0
M  V30 11493 H 1120 3.0474 -6.06886 0
M  V30 11494 H 1117.94 4.71205 -4.56401 0
M  V30 11495 H 1117.86 4.27092 -6.23802 0
M  V30 11496 H 1119.13 5.3268 -5.69098 0
M  V30 11497 N 1123.36 1.52689 0.390367 0
M  V30 11498 C 1124.58 1.71839 1.16129 0
M  V30 11499 C 1125.01 0.435226 1.82996 0
M  V30 11500 O 1124.36 -0.60889 1.70769 0
M  V30 11501 C 1124.41 2.86784 2.18603 0
M  V30 11502 O 1123.52 2.53662 3.25161 0
M  V30 11503 H 1122.86 0.571455 0.338135 0
M  V30 11504 H 1125.39 1.99475 0.45508 0
M  V30 11505 H 1125.4 3.12239 2.62622 0
M  V30 11506 H 1124.07 3.79872 1.69322 0
M  V30 11507 H 1122.65 2.38942 2.86289 0
M  V30 11508 N 1124.83 -0.648732 1.43629 0
M  V30 11509 C 1126.08 -1.41066 1.45699 0
M  V30 11510 C 1126.41 -1.94024 0.082612 0
M  V30 11511 O 1125.69 -1.7257 -0.897207 0
M  V30 11512 C 1125.97 -2.58882 2.50304 0
M  V30 11513 C 1125.82 -2.11387 3.97033 0
M  V30 11514 C 1127.14 -3.61092 2.51597 0
M  V30 11515 H 1124.26 -0.511591 0.530512 0
M  V30 11516 H 1126.9 -0.735069 1.75205 0
M  V30 11517 H 1125.05 -3.16518 2.25274 0
M  V30 11518 H 1126.73 -1.58718 4.33136 0
M  V30 11519 H 1124.97 -1.4272 4.0965 0
M  V30 11520 H 1125.64 -2.96129 4.65845 0
M  V30 11521 H 1128.12 -3.13223 2.73917 0
M  V30 11522 H 1126.99 -4.41071 3.26722 0
M  V30 11523 H 1127.25 -4.13985 1.55141 0
M  V30 11524 N 1126.31 -1.30234 -0.887518 0
M  V30 11525 C 1127.56 -1.18675 -1.63587 0
M  V30 11526 C 1127.88 0.259342 -1.93268 0
M  V30 11527 O 1127.15 1.17523 -1.56733 0
M  V30 11528 H 1125.73 -0.436224 -0.606397 0
M  V30 11529 H 1128.39 -1.63326 -1.06351 0
M  V30 11530 H 1127.49 -1.74575 -2.58708 0
M  V30 11531 N 1127.79 1.09952 -1.12909 0
M  V30 11532 C 1128.7 2.19999 -0.81471 0
M  V30 11533 C 1129.72 1.72864 0.19851 0
M  V30 11534 O 1130.89 2.01376 0.0308832 0
M  V30 11535 C 1127.96 3.45573 -0.279363 0
M  V30 11536 C 1127.02 4.07417 -1.35314 0
M  V30 11537 C 1126.25 5.26996 -0.843247 0
M  V30 11538 O 1126.47 5.69495 0.321164 0
M  V30 11539 O 1125.41 5.79826 -1.61511 0
M  V30 11540 H 1129.23 2.49333 -1.73398 0
M  V30 11541 H 1126.82 1.18784 -0.906128 0
M  V30 11542 H 1128.7 4.21398 0.0140531 0
M  V30 11543 H 1127.38 3.17854 0.612401 0
M  V30 11544 H 1126.28 3.33253 -1.6998 0
M  V30 11545 H 1127.62 4.39349 -2.21885 0
M  V30 11546 N 1129.27 0.921757 1.27833 0
M  V30 11547 C 1130.51 0.559906 1.94918 0
M  V30 11548 C 1130.85 -0.895532 1.72319 0
M  V30 11549 O 1130.12 -1.638 1.04879 0
M  V30 11550 C 1130.41 0.879458 3.49196 0
M  V30 11551 C 1130.26 2.38821 3.81162 0
M  V30 11552 C 1131.58 0.381183 4.38446 0
M  V30 11553 H 1128.7 0.204893 0.707946 0
M  V30 11554 H 1131.34 1.15246 1.51058 0
M  V30 11555 H 1129.49 0.375177 3.86684 0
M  V30 11556 H 1131.16 2.96373 3.53498 0
M  V30 11557 H 1129.4 2.83988 3.27923 0
M  V30 11558 H 1130.07 2.56234 4.88926 0
M  V30 11559 H 1132.55 0.813289 4.08075 0
M  V30 11560 H 1131.43 0.633778 5.45229 0
M  V30 11561 H 1131.69 -0.718651 4.3622 0
M  V30 11562 N 1130.75 -1.41857 0.686609 0
M  V30 11563 C 1131.68 -2.28174 -0.0347358 0
M  V30 11564 C 1132.66 -1.41732 -0.796928 0
M  V30 11565 O 1133.84 -1.71165 -0.789607 0
M  V30 11566 C 1130.97 -3.21801 -1.0565 0
M  V30 11567 C 1130.01 -4.24727 -0.388523 0
M  V30 11568 S 1130.85 -5.28508 0.862546 0
M  V30 11569 C 1132 -6.25701 -0.157849 0
M  V30 11570 H 1132.24 -2.89005 0.697381 0
M  V30 11571 H 1129.77 -1.46861 0.476562 0
M  V30 11572 H 1131.73 -3.76278 -1.64089 0
M  V30 11573 H 1130.39 -2.60082 -1.76114 0
M  V30 11574 H 1129.58 -4.90471 -1.15991 0
M  V30 11575 H 1129.18 -3.73799 0.122567 0
M  V30 11576 H 1131.48 -6.6987 -1.01393 0
M  V30 11577 H 1132.42 -7.06569 0.465437 0
M  V30 11578 H 1132.83 -5.62204 -0.508614 0
M  V30 11579 N 1132.22 -0.430739 -1.51599 0
M  V30 11580 C 1133.47 0.137657 -2.01631 0
M  V30 11581 C 1133.79 1.43787 -1.31721 0
M  V30 11582 O 1133.06 1.90668 -0.449717 0
M  V30 11583 H 1131.64 0.0538611 -0.745056 0
M  V30 11584 H 1134.31 -0.571935 -1.86319 0
M  V30 11585 H 1133.4 0.318305 -3.10473 0
M  V30 11586 N 1133.7 1.56767 -0.161869 0
M  V30 11587 C 1134.95 1.95769 0.485536 0
M  V30 11588 C 1135.26 1.05006 1.65025 0
M  V30 11589 O 1136.47 1.33649 2.36326 0
M  V30 11590 C 1134.93 3.4807 0.915176 0
M  V30 11591 C 1134.53 4.47443 -0.223416 0
M  V30 11592 C 1136.28 3.95909 1.53153 0
M  V30 11593 C 1134.19 5.90971 0.225325 0
M  V30 11594 H 1133.12 0.730911 0.185161 0
M  V30 11595 H 1135.77 1.81808 -0.248592 0
M  V30 11596 H 1134.15 3.57415 1.705 0
M  V30 11597 H 1135.32 4.49805 -1.00061 0
M  V30 11598 H 1133.64 4.09606 -0.749127 0
M  V30 11599 H 1136.23 5.00592 1.87915 0
M  V30 11600 H 1136.58 3.38307 2.42599 0
M  V30 11601 H 1137.11 3.89542 0.806322 0
M  V30 11602 H 1133.85 6.52426 -0.634124 0
M  V30 11603 H 1133.37 5.91936 0.96808 0
M  V30 11604 H 1135.05 6.43497 0.672373 0
M  V30 11605 N 1135.18 -0.111886 1.57202 0
M  V30 11606 C 1136.43 -0.816794 1.84859 0
M  V30 11607 C 1136.75 -1.80079 0.748113 0
M  V30 11608 O 1136.02 -1.94578 -0.227235 0
M  V30 11609 H 1134.6 -0.304633 0.682061 0
M  V30 11610 H 1137.26 -0.097513 1.94656 0
M  V30 11611 H 1136.36 -1.35768 2.81022 0
M  V30 11612 N 1136.66 -1.52894 -0.382264 0
M  V30 11613 C 1138.07 -1.42295 -0.722802 0
M  V30 11614 C 1138.27 -0.548717 -1.93885 0
M  V30 11615 O 1137.33 -0.0247431 -2.52488 0
M  V30 11616 C 1138.64 -2.85246 -0.9516 0
M  V30 11617 C 1140.19 -2.94768 -1.05265 0
M  V30 11618 C 1140.67 -4.38745 -1.31404 0
M  V30 11619 N 1142.16 -4.421 -1.38211 0
M  V30 11620 C 1142.89 -5.50592 -1.60113 0
M  V30 11621 N 1142.39 -6.69158 -1.79442 0
M  V30 11622 N 1144.18 -5.38145 -1.62347 0
M  V30 11623 H 1136.33 -2.0825 0.417816 0
M  V30 11624 H 1138.6 -0.939753 0.124776 0
M  V30 11625 H 1138.3 -3.51459 -0.130088 0
M  V30 11626 H 1138.18 -3.27903 -1.86439 0
M  V30 11627 H 1140.56 -2.28718 -1.86472 0
M  V30 11628 H 1140.64 -2.55529 -0.117619 0
M  V30 11629 H 1140.29 -5.05363 -0.507038 0
M  V30 11630 H 1140.22 -4.75542 -2.26202 0
M  V30 11631 H 1142.71 -3.56644 -1.24954 0
M  V30 11632 H 1143.02 -7.47615 -1.95681 0
M  V30 11633 H 1141.37 -6.72175 -1.76653 0
M  V30 11634 H 1144.56 -4.44485 -1.46803 0
M  V30 11635 H 1144.73 -6.22764 -1.79077 0
M  V30 11636 N 1138.14 0.641106 -1.43971 0
M  V30 11637 C 1139.36 1.43324 -1.4991 0
M  V30 11638 C 1139.79 1.87705 -0.121908 0
M  V30 11639 O 1139.15 1.58127 0.886875 0
M  V30 11640 C 1139.19 2.63637 -2.46025 0
M  V30 11641 O 1138.3 3.63123 -1.95488 0
M  V30 11642 H 1137.64 0.429252 -0.506595 0
M  V30 11643 H 1140.17 0.783427 -1.89007 0
M  V30 11644 H 1140.18 3.11304 -2.63731 0
M  V30 11645 H 1138.85 2.30678 -3.46064 0
M  V30 11646 H 1137.43 3.22332 -1.87501 0
M  V30 11647 N 1139.62 1.30703 0.880598 0
M  V30 11648 C 1140.86 1.19778 1.63277 0
M  V30 11649 C 1141.19 -0.246521 1.92931 0
M  V30 11650 O 1140.45 -1.19226 1.55189 0
M  V30 11651 C 1140.74 1.97628 2.97789 0
M  V30 11652 C 1140.41 3.47213 2.87669 0
M  V30 11653 C 1139.07 3.88004 2.84617 0
M  V30 11654 C 1141.42 4.4245 2.75477 0
M  V30 11655 C 1138.75 5.22315 2.67216 0
M  V30 11656 C 1141.1 5.76874 2.59614 0
M  V30 11657 C 1139.77 6.16898 2.54939 0
M  V30 11658 H 1139.04 0.438298 0.597475 0
M  V30 11659 H 1141.69 1.61853 1.02352 0
M  V30 11660 H 1139.99 1.48201 3.6269 0
M  V30 11661 H 1141.69 1.86563 3.54958 0
M  V30 11662 H 1138.28 3.14802 2.90857 0
M  V30 11663 H 1142.46 4.11875 2.76899 0
M  V30 11664 H 1137.72 5.52412 2.62014 0
M  V30 11665 H 1141.89 6.50304 2.49155 0
M  V30 11666 H 1139.52 7.20916 2.41214 0
M  V30 11667 N 1141.09 -1.09351 1.1349 0
M  V30 11668 C 1142 -2.19564 0.826366 0
M  V30 11669 C 1143.02 -1.72967 -0.189339 0
M  V30 11670 O 1144.2 -2.0139 -0.0202033 0
M  V30 11671 C 1141.26 -3.4542 0.297685 0
M  V30 11672 C 1140.32 -4.06694 1.37473 0
M  V30 11673 C 1139.55 -5.26542 0.871183 0
M  V30 11674 O 1139.78 -5.69657 -0.290958 0
M  V30 11675 O 1138.71 -5.78961 1.64584 0
M  V30 11676 H 1142.54 -2.4841 1.74718 0
M  V30 11677 H 1140.12 -1.18302 0.912414 0
M  V30 11678 H 1142 -4.21399 0.00829479 0
M  V30 11679 H 1140.68 -3.18175 -0.595536 0
M  V30 11680 H 1139.59 -3.32347 1.71745 0
M  V30 11681 H 1140.92 -4.38166 2.24212 0
M  V30 11682 N 1142.57 -0.928524 -1.27343 0
M  V30 11683 C 1143.48 -0.433901 -2.30553 0
M  V30 11684 C 1144.5 0.485832 -1.6708 0
M  V30 11685 O 1145.67 0.36844 -1.98001 0
M  V30 11686 C 1142.74 0.304617 -3.45359 0
M  V30 11687 C 1141.8 -0.650131 -4.24349 0
M  V30 11688 C 1141.03 0.0532372 -5.33673 0
M  V30 11689 O 1141.26 1.27246 -5.56026 0
M  V30 11690 O 1140.19 -0.619009 -5.98709 0
M  V30 11691 H 1144.02 -1.2909 -2.74899 0
M  V30 11692 H 1141.6 -0.693903 -1.32308 0
M  V30 11693 H 1143.48 0.721137 -4.15184 0
M  V30 11694 H 1142.16 1.13721 -3.03066 0
M  V30 11695 H 1141.06 -1.11635 -3.57055 0
M  V30 11696 H 1142.4 -1.44996 -4.70358 0
M  V30 11697 N 1144.05 1.41491 -0.694123 0
M  V30 11698 C 1145.01 2.2917 -0.0368562 0
M  V30 11699 C 1146.01 1.44305 0.709426 0
M  V30 11700 O 1147.2 1.6547 0.544533 0
M  V30 11701 C 1144.33 3.27156 0.958201 0
M  V30 11702 H 1145.53 2.88787 -0.808829 0
M  V30 11703 H 1143.08 1.49453 -0.457538 0
M  V30 11704 H 1143.82 2.72516 1.75799 0
M  V30 11705 H 1143.6 3.89776 0.426227 0
M  V30 11706 H 1145.09 3.92863 1.41592 0
M  V30 11707 N 1145.53 0.438773 1.51369 0
M  V30 11708 C 1146.77 -0.127213 2.021 0
M  V30 11709 C 1147.1 -1.42587 1.32284 0
M  V30 11710 O 1146.36 -1.90986 0.426949 0
M  V30 11711 C 1146.66 -0.39186 3.55245 0
M  V30 11712 C 1146.32 0.821158 4.4336 0
M  V30 11713 C 1144.98 1.15381 4.67162 0
M  V30 11714 C 1147.34 1.6303 4.95046 0
M  V30 11715 C 1144.66 2.29626 5.39897 0
M  V30 11716 C 1147.02 2.76376 5.69033 0
M  V30 11717 C 1145.68 3.10094 5.91099 0
M  V30 11718 H 1144.95 -0.0465505 0.739536 0
M  V30 11719 H 1147.6 0.586261 1.82305 0
M  V30 11720 H 1145.9 -1.18724 3.73379 0
M  V30 11721 H 1147.6 -0.843228 3.92034 0
M  V30 11722 H 1144.19 0.551946 4.25031 0
M  V30 11723 H 1148.37 1.38651 4.76539 0
M  V30 11724 H 1143.63 2.56062 5.55196 0
M  V30 11725 H 1147.8 3.39442 6.08072 0
M  V30 11726 H 1145.43 3.98731 6.47238 0
M  V30 11727 N 1147.01 -1.56678 0.170181 0
M  V30 11728 C 1147.94 -2.15083 -0.791961 0
M  V30 11729 C 1148.95 -1.10612 -1.19452 0
M  V30 11730 O 1150.14 -1.37803 -1.13457 0
M  V30 11731 C 1147.24 -2.67769 -2.07733 0
M  V30 11732 C 1146.41 -3.96885 -1.83851 0
M  V30 11733 C 1145.47 -4.34646 -2.96596 0
M  V30 11734 O 1144.5 -5.02543 -2.67281 0
M  V30 11735 N 1145.7 -3.96112 -4.24353 0
M  V30 11736 H 1148.46 -2.98268 -0.292658 0
M  V30 11737 H 1146.03 -1.61895 -0.0126383 0
M  V30 11738 H 1148.02 -2.90029 -2.8225 0
M  V30 11739 H 1146.59 -1.89179 -2.48858 0
M  V30 11740 H 1145.81 -3.83013 -0.932452 0
M  V30 11741 H 1147.1 -4.81213 -1.65261 0
M  V30 11742 H 1146.49 -3.41448 -4.51032 0
M  V30 11743 H 1145.05 -4.23375 -4.95577 0
M  V30 11744 N 1148.48 0.103547 -1.57259 0
M  V30 11745 C 1149.43 1.12621 -2.01458 0
M  V30 11746 C 1150.4 1.40282 -0.889391 0
M  V30 11747 O 1151.59 1.51887 -1.15477 0
M  V30 11748 C 1148.73 2.44352 -2.43692 0
M  V30 11749 C 1147.84 2.23495 -3.69695 0
M  V30 11750 C 1146.97 3.48565 -4.00844 0
M  V30 11751 C 1146.01 3.22932 -5.19982 0
M  V30 11752 N 1145.15 4.40246 -5.46926 0
M  V30 11753 H 1149.99 0.742315 -2.88606 0
M  V30 11754 H 1147.53 0.355016 -1.42752 0
M  V30 11755 H 1149.48 3.2122 -2.66221 0
M  V30 11756 H 1148.11 2.80605 -1.59565 0
M  V30 11757 H 1147.17 1.3747 -3.54692 0
M  V30 11758 H 1148.48 2.0054 -4.56711 0
M  V30 11759 H 1147.63 4.33844 -4.24104 0
M  V30 11760 H 1146.37 3.74565 -3.12333 0
M  V30 11761 H 1145.38 2.36045 -4.96551 0
M  V30 11762 H 1146.6 2.98286 -6.10084 0
M  V30 11763 H 1144.55 4.66338 -4.61373 0
M  V30 11764 H 1144.46 4.20452 -6.28296 0
M  V30 11765 H 1145.73 5.26614 -5.74716 0
M  V30 11766 N 1149.96 1.53094 0.37415 0
M  V30 11767 C 1150.92 1.78264 1.44065 0
M  V30 11768 C 1151.92 0.652892 1.46949 0
M  V30 11769 O 1153.11 0.921046 1.47859 0
M  V30 11770 C 1150.25 1.89693 2.83248 0
M  V30 11771 H 1151.44 2.73505 1.23025 0
M  V30 11772 H 1148.99 1.44041 0.60678 0
M  V30 11773 H 1149.73 0.964884 3.09613 0
M  V30 11774 H 1149.51 2.71855 2.82554 0
M  V30 11775 H 1151 2.10787 3.60498 0
M  V30 11776 N 1151.44 -0.633461 1.44309 0
M  V30 11777 C 1152.37 -1.75676 1.53819 0
M  V30 11778 C 1153.35 -1.65537 0.391365 0
M  V30 11779 O 1154.54 -1.84332 0.611181 0
M  V30 11780 C 1151.67 -3.14197 1.47979 0
M  V30 11781 C 1150.62 -3.39122 2.61113 0
M  V30 11782 C 1149.95 -4.77648 2.40325 0
M  V30 11783 C 1151.25 -3.31914 4.03274 0
M  V30 11784 H 1152.94 -1.67974 2.47841 0
M  V30 11785 H 1150.49 -0.8067 1.19283 0
M  V30 11786 H 1152.44 -3.92553 1.53233 0
M  V30 11787 H 1151.16 -3.22677 0.504718 0
M  V30 11788 H 1149.82 -2.63145 2.55245 0
M  V30 11789 H 1149.47 -4.82829 1.41016 0
M  V30 11790 H 1149.17 -4.95284 3.16177 0
M  V30 11791 H 1150.69 -5.58237 2.47394 0
M  V30 11792 H 1152.11 -4.00178 4.10524 0
M  V30 11793 H 1150.5 -3.61085 4.7931 0
M  V30 11794 H 1151.57 -2.29761 4.2701 0
M  V30 11795 N 1152.92 -1.31168 -0.873655 0
M  V30 11796 C 1154.33 -1.09745 -1.1588 0
M  V30 11797 C 1154.53 0.134471 -2.01051 0
M  V30 11798 O 1153.59 0.824857 -2.38647 0
M  V30 11799 C 1154.9 -2.36704 -1.85451 0
M  V30 11800 C 1156.45 -2.42278 -1.98167 0
M  V30 11801 C 1156.93 -3.69108 -2.71152 0
M  V30 11802 N 1158.42 -3.69981 -2.7869 0
M  V30 11803 C 1159.15 -4.64811 -3.35765 0
M  V30 11804 N 1158.65 -5.69995 -3.938 0
M  V30 11805 N 1160.44 -4.52337 -3.33688 0
M  V30 11806 H 1152.59 -2.10184 -0.306021 0
M  V30 11807 H 1154.86 -0.927058 -0.198159 0
M  V30 11808 H 1154.56 -3.26666 -1.30316 0
M  V30 11809 H 1154.44 -2.46219 -2.85755 0
M  V30 11810 H 1156.82 -1.52787 -2.52468 0
M  V30 11811 H 1156.9 -2.3673 -0.969164 0
M  V30 11812 H 1156.55 -4.58963 -2.1752 0
M  V30 11813 H 1156.48 -3.71922 -3.72803 0
M  V30 11814 H 1158.97 -2.93944 -2.37498 0
M  V30 11815 H 1159.28 -6.38438 -4.3545 0
M  V30 11816 H 1157.63 -5.73773 -3.92186 0
M  V30 11817 H 1160.82 -3.69341 -2.87584 0
M  V30 11818 H 1160.99 -5.2642 -3.77871 0
M  V30 11819 N 1154.4 1.08748 -1.14068 0
M  V30 11820 C 1155.33 2.14886 -0.768052 0
M  V30 11821 C 1156.31 1.60682 0.248979 0
M  V30 11822 O 1157.49 1.87988 0.138852 0
M  V30 11823 C 1154.62 3.38412 -0.139747 0
M  V30 11824 C 1153.66 4.11357 -1.12639 0
M  V30 11825 S 1154.5 4.64645 -2.66206 0
M  V30 11826 C 1155.65 5.91461 -2.04755 0
M  V30 11827 H 1155.89 2.46163 -1.66706 0
M  V30 11828 H 1153.42 1.20804 -0.961549 0
M  V30 11829 H 1155.38 4.09929 0.21635 0
M  V30 11830 H 1154.04 3.0534 0.736638 0
M  V30 11831 H 1153.23 4.99987 -0.634719 0
M  V30 11832 H 1152.83 3.45735 -1.4263 0
M  V30 11833 H 1155.13 6.62859 -1.40086 0
M  V30 11834 H 1156.07 6.45319 -2.91494 0
M  V30 11835 H 1156.48 5.44308 -1.49629 0
M  V30 11836 N 1155.87 0.935264 1.26849 0
M  V30 11837 C 1157.12 0.580548 1.94313 0
M  V30 11838 C 1157.45 -0.877205 1.73259 0
M  V30 11839 O 1156.73 -1.62679 1.06611 0
M  V30 11840 C 1157.01 0.916445 3.48243 0
M  V30 11841 C 1156.86 2.42851 3.78607 0
M  V30 11842 C 1158.18 0.427665 4.38017 0
M  V30 11843 H 1155.3 0.21239 0.705733 0
M  V30 11844 H 1157.94 1.16841 1.49827 0
M  V30 11845 H 1156.09 0.416169 3.86265 0
M  V30 11846 H 1157.77 3.00106 3.50335 0
M  V30 11847 H 1156.01 2.8745 3.24892 0
M  V30 11848 H 1156.68 2.61405 4.8618 0
M  V30 11849 H 1159.16 0.856525 4.07189 0
M  V30 11850 H 1158.03 0.691571 5.44526 0
M  V30 11851 H 1158.29 -0.672344 4.36958 0
M  V30 11852 N 1157.35 -1.41121 0.701616 0
M  V30 11853 C 1158.63 -1.9492 0.162911 0
M  V30 11854 C 1159.01 -1.64064 -1.32839 0
M  V30 11855 O 1158.36 -0.950848 -2.07777 0
M  V30 11856 C 1158.57 -3.45946 0.460673 0
M  V30 11857 C 1159.92 -4.22789 0.391706 0
M  V30 11858 O 1160.94 -3.53993 0.395931 0
M  V30 11859 O 1159.8 -5.45332 0.357071 0
M  V30 11860 H 1156.89 -0.826793 0.0185103 0
M  V30 11861 H 1159.44 -1.50805 0.778192 0
M  V30 11862 H 1158.21 -3.61711 1.49269 0
M  V30 11863 H 1157.83 -3.97168 -0.185277 0
M  V30 11864 N 1158.83 -0.446794 -1.51134 0
M  V30 11865 C 1159.74 0.36579 -2.31731 0
M  V30 11866 C 1160.76 1.01886 -1.41051 0
M  V30 11867 O 1161.93 1.01216 -1.74119 0
M  V30 11868 C 1159 1.44705 -3.15058 0
M  V30 11869 C 1158.06 0.813129 -4.21529 0
M  V30 11870 C 1157.29 1.84287 -5.00873 0
M  V30 11871 O 1157.51 3.06633 -4.8097 0
M  V30 11872 O 1156.45 1.42816 -5.84711 0
M  V30 11873 H 1160.27 -0.292436 -3.02289 0
M  V30 11874 H 1157.86 -0.209129 -1.47929 0
M  V30 11875 H 1159.74 2.07393 -3.66833 0
M  V30 11876 H 1158.42 2.08919 -2.47254 0
M  V30 11877 H 1157.32 0.147953 -3.73807 0
M  V30 11878 H 1158.66 0.214331 -4.91733 0
M  V30 11879 N 1160.31 1.56586 -0.178487 0
M  V30 11880 C 1161.26 2.19631 0.765822 0
M  V30 11881 C 1162.25 1.16247 1.23219 0
M  V30 11882 O 1163.46 1.34431 1.19701 0
M  V30 11883 H 1159.83 0.703661 0.265264 0
M  V30 11884 H 1161.8 2.97659 0.210207 0
M  V30 11885 C 1160.55 2.85686 1.98188 0
M  V30 11886 H 1159.87 3.64971 1.63206 0
M  V30 11887 H 1161.31 3.33259 2.62134 0
M  V30 11888 C 1159.77 1.85837 2.81009 0
M  V30 11889 O 1160.3 1.3483 3.78396 0
M  V30 11890 N 1158.51 1.54435 2.46167 0
M  V30 11891 H 1158.06 1.96107 1.67032 0
M  V30 11892 H 1158.01 0.878808 3.01868 0
M  V30 11893 N 1161.79 -0.095206 1.57312 0
M  V30 11894 C 1163.03 -0.804335 1.87909 0
M  V30 11895 C 1163.39 -1.75907 0.769465 0
M  V30 11896 O 1164.59 -2.51155 0.957846 0
M  V30 11897 C 1162.86 -1.51405 3.23746 0
M  V30 11898 S 1164.42 -2.26147 3.76036 0
M  V30 11899 H 1161.24 -0.267976 0.658567 0
M  V30 11900 H 1163.84 -0.0614682 1.95403 0
M  V30 11901 H 1162.55 -0.805066 4.02426 0
M  V30 11902 H 1162.08 -2.29681 3.1939 0
M  V30 11903 H 1164.09 -3.52284 3.49443 0
M  V30 11904 N 1163.26 -1.53291 -0.366026 0
M  V30 11905 C 1164.51 -1.69702 -1.11036 0
M  V30 11906 C 1164.84 -0.44728 -1.88979 0
M  V30 11907 O 1164.12 0.55542 -1.86401 0
M  V30 11908 C 1164.4 -2.94661 -2.06995 0
M  V30 11909 C 1164.25 -4.29791 -1.32663 0
M  V30 11910 C 1165.57 -3.15219 -3.07123 0
M  V30 11911 H 1162.69 -0.617525 -0.402284 0
M  V30 11912 H 1165.33 -1.85929 -0.391223 0
M  V30 11913 H 1163.48 -2.80958 -2.68318 0
M  V30 11914 H 1165.16 -4.55305 -0.741266 0
M  V30 11915 H 1163.4 -4.29223 -0.628484 0
M  V30 11916 H 1164.07 -5.13359 -2.02896 0
M  V30 11917 H 1166.55 -3.28105 -2.55903 0
M  V30 11918 H 1165.42 -4.04088 -3.71489 0
M  V30 11919 H 1165.68 -2.30479 -3.77269 0
M  V30 11920 N 1164.74 0.6258 -1.44643 0
M  V30 11921 C 1165.99 1.38251 -1.47414 0
M  V30 11922 C 1166.31 1.94689 -0.110043 0
M  V30 11923 O 1165.58 1.76095 0.858333 0
M  V30 11924 H 1164.16 0.513179 -0.542823 0
M  V30 11925 H 1166.82 0.736179 -1.80462 0
M  V30 11926 H 1165.92 2.21115 -2.2026 0
M  V30 11927 N 1166.22 1.31629 0.866686 0
M  V30 11928 C 1167.47 1.21503 1.61998 0
M  V30 11929 C 1167.8 -0.226044 1.93182 0
M  V30 11930 O 1167.05 -1.17573 1.56445 0
M  V30 11931 C 1167.35 2.00775 2.95676 0
M  V30 11932 C 1167.02 3.50245 2.83971 0
M  V30 11933 C 1165.68 3.91 2.80485 0
M  V30 11934 C 1168.03 4.45347 2.70769 0
M  V30 11935 C 1165.36 5.25119 2.61661 0
M  V30 11936 C 1167.71 5.79595 2.53481 0
M  V30 11937 C 1166.37 6.19567 2.48381 0
M  V30 11938 H 1165.64 0.44461 0.592792 0
M  V30 11939 H 1168.29 1.62929 1.00629 0
M  V30 11940 H 1166.6 1.52039 3.61097 0
M  V30 11941 H 1168.29 1.90318 3.52959 0
M  V30 11942 H 1164.88 3.17869 2.87502 0
M  V30 11943 H 1169.07 4.14789 2.72514 0
M  V30 11944 H 1164.32 5.5516 2.5614 0
M  V30 11945 H 1168.5 6.5291 2.42243 0
M  V30 11946 H 1166.12 7.23434 2.33554 0
M  V30 11947 N 1167.7 -1.08142 1.14644 0
M  V30 11948 C 1168.98 -1.77254 0.827071 0
M  V30 11949 C 1169.36 -1.99885 -0.67891 0
M  V30 11950 O 1168.7 -1.61084 -1.62062 0
M  V30 11951 C 1168.91 -3.08658 1.62884 0
M  V30 11952 C 1170.26 -3.83143 1.82993 0
M  V30 11953 O 1171.29 -3.18447 1.59593 0
M  V30 11954 O 1170.15 -4.9932 2.2213 0
M  V30 11955 H 1167.24 -0.769356 0.30335 0
M  V30 11956 H 1169.79 -1.1458 1.25178 0
M  V30 11957 H 1168.56 -2.87753 2.65168 0
M  V30 11958 H 1168.18 -3.79061 1.19994 0
M  V30 11959 N 1169.18 -0.941978 -1.26351 0
M  V30 11960 C 1170.13 -0.423053 -2.24041 0
M  V30 11961 C 1171.11 0.480668 -1.53553 0
M  V30 11962 O 1172.3 0.315783 -1.7416 0
M  V30 11963 C 1169.43 0.309814 -3.41899 0
M  V30 11964 C 1168.52 -0.611245 -4.19672 0
M  V30 11965 N 1168.91 -1.73738 -4.75025 0
M  V30 11966 C 1167.21 -0.416985 -4.44046 0
M  V30 11967 C 1167.91 -2.31141 -5.33806 0
M  V30 11968 N 1166.88 -1.59934 -5.1954 0
M  V30 11969 H 1170.69 -1.28268 -2.64433 0
M  V30 11970 H 1168.2 -0.797941 -1.41445 0
M  V30 11971 H 1170.2 0.698618 -4.11005 0
M  V30 11972 H 1168.86 1.1662 -3.03035 0
M  V30 11973 H 1169.87 -2.1195 -4.72544 0
M  V30 11974 H 1166.55 0.397561 -4.15603 0
M  V30 11975 H 1167.94 -3.26029 -5.87499 0
M  V30 11976 N 1170.66 1.40747 -0.709091 0
M  V30 11977 C 1171.88 2.05319 -0.255258 0
M  V30 11978 C 1172.3 1.53406 1.10054 0
M  V30 11979 O 1171.66 0.687905 1.69039 0
M  V30 11980 C 1171.71 3.60835 -0.219251 0
M  V30 11981 O 1171.43 4.1083 -1.52151 0
M  V30 11982 C 1172.93 4.42572 0.253927 0
M  V30 11983 H 1170.15 0.660904 -0.115959 0
M  V30 11984 H 1172.69 1.80274 -0.965474 0
M  V30 11985 H 1170.85 3.84872 0.441882 0
M  V30 11986 H 1171.26 5.04979 -1.41764 0
M  V30 11987 H 1172.74 5.51529 0.22798 0
M  V30 11988 H 1173.21 4.19673 1.29504 0
M  V30 11989 H 1173.82 4.23629 -0.376694 0
M  V30 11990 N 1172.13 0.454803 1.50895 0
M  V30 11991 C 1173.38 -0.105927 2.02523 0
M  V30 11992 C 1173.71 -1.40825 1.33724 0
M  V30 11993 O 1172.99 -1.89038 0.457683 0
M  V30 11994 C 1173.27 -0.306635 3.58792 0
M  V30 11995 C 1173.12 1.01556 4.38185 0
M  V30 11996 C 1174.44 -1.06858 4.2693 0
M  V30 11997 H 1171.56 -0.0370232 0.736069 0
M  V30 11998 H 1174.2 0.597215 1.8037 0
M  V30 11999 H 1172.35 -0.905563 3.77799 0
M  V30 12000 H 1174.03 1.64981 4.30789 0
M  V30 12001 H 1172.27 1.61608 4.02574 0
M  V30 12002 H 1172.94 0.828959 5.4574 0
M  V30 12003 H 1175.42 -0.561086 4.123 0
M  V30 12004 H 1174.29 -1.1778 5.36115 0
M  V30 12005 H 1174.55 -2.10111 3.8898 0
M  V30 12006 N 1173.61 -1.56489 0.186789 0
M  V30 12007 C 1174.56 -2.18703 -0.737402 0
M  V30 12008 C 1175.53 -1.13171 -1.21579 0
M  V30 12009 O 1176.71 -1.41388 -1.28118 0
M  V30 12010 C 1173.85 -2.84394 -1.95484 0
M  V30 12011 C 1172.97 -4.04429 -1.51859 0
M  V30 12012 C 1172.1 -4.58001 -2.69089 0
M  V30 12013 C 1171.14 -5.70412 -2.22029 0
M  V30 12014 N 1170.28 -6.18425 -3.32407 0
M  V30 12015 H 1175.12 -2.97327 -0.200105 0
M  V30 12016 H 1172.65 -1.46842 -0.087032 0
M  V30 12017 H 1174.61 -3.20646 -2.66912 0
M  V30 12018 H 1173.24 -2.08347 -2.46559 0
M  V30 12019 H 1172.29 -3.73895 -0.70048 0
M  V30 12020 H 1173.61 -4.85756 -1.13327 0
M  V30 12021 H 1172.76 -4.96515 -3.48652 0
M  V30 12022 H 1171.5 -3.75764 -3.1089 0
M  V30 12023 H 1170.5 -5.31434 -1.40918 0
M  V30 12024 H 1171.73 -6.54461 -1.81268 0
M  V30 12025 H 1169.68 -5.39113 -3.73755 0
M  V30 12026 H 1169.59 -6.94782 -2.98017 0
M  V30 12027 H 1170.86 -6.61592 -4.12209 0
M  V30 12028 N 1175.09 0.086862 -1.5736 0
M  V30 12029 C 1176.5 0.640442 -1.75372 0
M  V30 12030 C 1176.85 1.78693 -0.81014 0
M  V30 12031 O 1175.98 2.16398 0.00940712 0
M  V30 12032 C 1176.57 1.16856 -3.1801 0
M  V30 12033 C 1175.13 1.66813 -3.37417 0
M  V30 12034 C 1174.28 0.58116 -2.71142 0
M  V30 12035 H 1177.23 -0.139249 -1.58088 0
M  V30 12036 H 1177.25 2.03772 -3.21337 0
M  V30 12037 H 1176.76 0.333909 -3.86661 0
M  V30 12038 H 1174.86 2.52652 -2.73858 0
M  V30 12039 H 1174.98 1.75545 -4.45781 0
M  V30 12040 H 1173.34 1.0226 -2.3327 0
M  V30 12041 H 1174.12 -0.243047 -3.42439 0
M  V30 12042 N 1176.57 1.53483 0.357892 0
M  V30 12043 C 1177.81 1.70289 1.10134 0
M  V30 12044 C 1178.15 0.457296 1.88739 0
M  V30 12045 O 1177.42 -0.545527 1.86693 0
M  V30 12046 C 1177.7 2.95755 2.05429 0
M  V30 12047 C 1177.56 4.30489 1.30382 0
M  V30 12048 C 1178.88 3.16844 3.05447 0
M  V30 12049 H 1176 0.61965 0.399003 0
M  V30 12050 H 1178.64 1.86133 0.381357 0
M  V30 12051 H 1176.79 2.82377 2.66825 0
M  V30 12052 H 1178.46 4.55692 0.71711 0
M  V30 12053 H 1176.7 4.2955 0.605712 0
M  V30 12054 H 1177.37 5.14427 2.00171 0
M  V30 12055 H 1179.85 3.29458 2.54159 0
M  V30 12056 H 1178.73 4.06053 3.69341 0
M  V30 12057 H 1178.99 2.32476 3.76041 0
M  V30 12058 N 1178.05 -0.61812 1.44973 0
M  V30 12059 C 1179.27 -1.40921 1.52171 0
M  V30 12060 C 1179.7 -1.87487 0.151755 0
M  V30 12061 O 1179.05 -1.59518 -0.861606 0
M  V30 12062 C 1179.1 -2.59689 2.50188 0
M  V30 12063 O 1178.21 -3.59967 2.0124 0
M  V30 12064 H 1177.55 -0.421138 0.51336 0
M  V30 12065 H 1180.08 -0.753258 1.90229 0
M  V30 12066 H 1180.09 -3.07069 2.6865 0
M  V30 12067 H 1178.76 -2.25144 3.4969 0
M  V30 12068 H 1177.34 -3.19308 1.92605 0
M  V30 12069 N 1179.52 -1.32087 -0.859693 0
M  V30 12070 C 1180.8 -1.12984 -1.59668 0
M  V30 12071 C 1181.18 0.311661 -2.08787 0
M  V30 12072 O 1180.53 1.30746 -1.87397 0
M  V30 12073 C 1180.74 -2.15305 -2.74672 0
M  V30 12074 C 1182.09 -2.48371 -3.44379 0
M  V30 12075 O 1183.11 -2.13811 -2.84891 0
M  V30 12076 O 1181.97 -3.07594 -4.51717 0
M  V30 12077 H 1179.06 -0.435657 -0.702945 0
M  V30 12078 H 1181.61 -1.43601 -0.90426 0
M  V30 12079 H 1180.38 -3.12223 -2.35866 0
M  V30 12080 H 1180 -1.85653 -3.51594 0
M  V30 12081 N 1181 1.07532 -1.15215 0
M  V30 12082 C 1181.93 2.1406 -0.7908 0
M  V30 12083 C 1182.91 1.60938 0.231922 0
M  V30 12084 O 1184.1 1.88125 0.118906 0
M  V30 12085 C 1181.22 3.38244 -0.175633 0
M  V30 12086 C 1180.27 4.10139 -1.16996 0
M  V30 12087 S 1181.1 4.61795 -2.71119 0
M  V30 12088 C 1182.26 5.89256 -2.11016 0
M  V30 12089 H 1182.49 2.44381 -1.69308 0
M  V30 12090 H 1180.02 1.19777 -0.974308 0
M  V30 12091 H 1181.98 4.10136 0.172859 0
M  V30 12092 H 1180.64 3.06104 0.704211 0
M  V30 12093 H 1179.84 4.99286 -0.687714 0
M  V30 12094 H 1179.44 3.44203 -1.46289 0
M  V30 12095 H 1181.73 6.61336 -1.47109 0
M  V30 12096 H 1182.67 6.42191 -2.98322 0
M  V30 12097 H 1183.08 5.4269 -1.55394 0
M  V30 12098 N 1182.48 0.948665 1.2585 0
M  V30 12099 C 1183.39 0.470525 2.29833 0
M  V30 12100 C 1184.41 -0.45919 1.67832 0
M  V30 12101 O 1185.58 -0.336893 1.98562 0
M  V30 12102 C 1182.65 -0.249635 3.458 0
M  V30 12103 C 1181.71 0.717559 4.23261 0
M  V30 12104 C 1180.94 0.0316724 5.33691 0
M  V30 12105 O 1181.16 -1.18384 5.5798 0
M  V30 12106 O 1180.1 0.71418 5.97648 0
M  V30 12107 H 1183.92 1.33447 2.72811 0
M  V30 12108 H 1181.51 0.714864 1.31187 0
M  V30 12109 H 1183.39 -0.654993 4.16279 0
M  V30 12110 H 1182.07 -1.08885 3.04837 0
M  V30 12111 H 1180.97 1.17301 3.55234 0
M  V30 12112 H 1182.31 1.52461 4.67992 0
M  V30 12113 N 1183.96 -1.40369 0.716545 0
M  V30 12114 C 1184.89 -2.33365 0.0793533 0
M  V30 12115 C 1185.87 -1.52943 -0.744482 0
M  V30 12116 O 1187.05 -1.81406 -0.693212 0
M  V30 12117 C 1184.18 -3.36928 -0.842429 0
M  V30 12118 C 1183.14 -4.2782 -0.124142 0
M  V30 12119 C 1182.46 -5.21928 -1.1617 0
M  V30 12120 C 1183.76 -5.12199 1.02224 0
M  V30 12121 H 1185.46 -2.86899 0.856115 0
M  V30 12122 H 1183 -1.37946 0.413138 0
M  V30 12123 H 1184.96 -4.00925 -1.29759 0
M  V30 12124 H 1183.68 -2.81791 -1.6511 0
M  V30 12125 H 1182.34 -3.65277 0.311201 0
M  V30 12126 H 1181.99 -4.63096 -1.96345 0
M  V30 12127 H 1181.69 -5.83582 -0.685978 0
M  V30 12128 H 1183.21 -5.88802 -1.61694 0
M  V30 12129 H 1184.63 -5.69644 0.646399 0
M  V30 12130 H 1183.02 -5.82901 1.4264 0
M  V30 12131 H 1184.09 -4.4812 1.85246 0
M  V30 12132 N 1185.44 -0.462799 -1.50652 0
M  V30 12133 C 1186.35 0.341191 -2.32106 0
M  V30 12134 C 1187.36 1.00384 -1.42123 0
M  V30 12135 O 1188.54 0.993635 -1.75182 0
M  V30 12136 C 1185.6 1.41356 -3.16575 0
M  V30 12137 C 1184.66 0.768375 -4.22368 0
M  V30 12138 C 1183.9 1.78964 -5.028 0
M  V30 12139 O 1184.12 3.01515 -4.84195 0
M  V30 12140 O 1183.05 1.36606 -5.86193 0
M  V30 12141 H 1186.88 -0.324482 -3.01962 0
M  V30 12142 H 1184.47 -0.224807 -1.47699 0
M  V30 12143 H 1186.35 2.0349 -3.69012 0
M  V30 12144 H 1185.02 2.06285 -2.49456 0
M  V30 12145 H 1183.93 0.108297 -3.73943 0
M  V30 12146 H 1185.26 0.162164 -4.91933 0
M  V30 12147 N 1186.91 1.56388 -0.195085 0
M  V30 12148 C 1188.14 2.01963 0.449289 0
M  V30 12149 C 1188.56 1.07522 1.55192 0
M  V30 12150 O 1187.91 0.0800915 1.82324 0
M  V30 12151 C 1187.97 3.47231 1.00561 0
M  V30 12152 O 1187.69 4.38068 -0.0530241 0
M  V30 12153 C 1189.19 4.08324 1.72587 0
M  V30 12154 H 1186.41 0.661452 0.112792 0
M  V30 12155 H 1188.95 2.02231 -0.303788 0
M  V30 12156 H 1187.11 3.47663 1.70907 0
M  V30 12157 H 1187.52 5.23256 0.361076 0
M  V30 12158 H 1188.99 5.11821 2.06744 0
M  V30 12159 H 1189.47 3.51782 2.62956 0
M  V30 12160 H 1190.08 4.11665 1.06826 0
M  V30 12161 N 1188.39 -0.0785156 1.57404 0
M  V30 12162 C 1189.8 -0.631132 1.75709 0
M  V30 12163 C 1190.15 -1.78261 0.819605 0
M  V30 12164 O 1189.28 -2.164 0.00206912 0
M  V30 12165 C 1189.87 -1.15168 3.18625 0
M  V30 12166 C 1188.43 -1.65021 3.38297 0
M  V30 12167 C 1187.58 -0.566773 2.71446 0
M  V30 12168 H 1190.53 0.147631 1.58012 0
M  V30 12169 H 1190.55 -2.02065 3.22413 0
M  V30 12170 H 1190.06 -0.313399 3.86833 0
M  V30 12171 H 1188.17 -2.51196 2.75194 0
M  V30 12172 H 1188.28 -1.73179 4.46706 0
M  V30 12173 H 1186.64 -1.01021 2.33809 0
M  V30 12174 H 1187.43 0.261204 3.42305 0
M  V30 12175 N 1189.87 -1.5367 -0.349747 0
M  V30 12176 C 1191.1 -1.74547 -1.11089 0
M  V30 12177 C 1191.51 -0.481741 -1.82551 0
M  V30 12178 O 1190.87 0.546272 -1.74132 0
M  V30 12179 C 1190.92 -2.92148 -2.12913 0
M  V30 12180 O 1190.64 -4.13633 -1.44358 0
M  V30 12181 C 1192.14 -3.25027 -3.01451 0
M  V30 12182 H 1189.36 -0.583376 -0.331532 0
M  V30 12183 H 1191.91 -2.00473 -0.403841 0
M  V30 12184 H 1190.06 -2.68572 -2.79192 0
M  V30 12185 H 1190.48 -4.79601 -2.12329 0
M  V30 12186 H 1191.95 -4.10679 -3.68845 0
M  V30 12187 H 1192.43 -2.41064 -3.67131 0
M  V30 12188 H 1193.03 -3.50586 -2.40768 0
M  V30 12189 N 1191.35 0.610423 -1.45298 0
M  V30 12190 C 1192.63 1.36966 -1.39641 0
M  V30 12191 C 1193.01 2.10998 -0.0655757 0
M  V30 12192 O 1192.35 2.07705 0.952407 0
M  V30 12193 C 1192.56 2.31885 -2.60826 0
M  V30 12194 C 1193.91 2.9458 -3.05791 0
M  V30 12195 O 1194.94 2.42207 -2.61179 0
M  V30 12196 O 1193.79 3.89639 -3.83202 0
M  V30 12197 H 1190.89 0.61401 -0.554004 0
M  V30 12198 H 1193.43 0.633748 -1.57422 0
M  V30 12199 H 1192.21 1.76421 -3.49272 0
M  V30 12200 H 1191.83 3.12861 -2.45364 0
M  V30 12201 N 1192.83 1.32541 0.852676 0
M  V30 12202 C 1193.77 1.21643 1.96142 0
M  V30 12203 C 1194.74 0.0981496 1.6581 0
M  V30 12204 O 1195.93 0.27404 1.88822 0
M  V30 12205 C 1193.07 0.947483 3.31838 0
M  V30 12206 C 1192.18 2.15074 3.74656 0
M  V30 12207 C 1191.32 1.81711 4.99154 0
M  V30 12208 C 1190.36 2.98346 5.34468 0
M  V30 12209 N 1189.49 2.65062 6.50143 0
M  V30 12210 H 1194.33 2.16479 2.04795 0
M  V30 12211 H 1191.87 1.07664 1.00234 0
M  V30 12212 H 1193.83 0.772038 4.09994 0
M  V30 12213 H 1192.46 0.0359112 3.2278 0
M  V30 12214 H 1191.51 2.43639 2.92137 0
M  V30 12215 H 1192.82 3.02314 3.96747 0
M  V30 12216 H 1191.98 1.60729 5.85022 0
M  V30 12217 H 1190.71 0.916875 4.79004 0
M  V30 12218 H 1189.72 3.19956 4.47111 0
M  V30 12219 H 1190.94 3.89104 5.56574 0
M  V30 12220 H 1188.89 1.77582 6.31507 0
M  V30 12221 H 1188.81 3.45832 6.72262 0
M  V30 12222 H 1190.08 2.47516 7.39159 0
M  V30 12223 N 1194.3 -1.0692 1.15784 0
M  V30 12224 C 1195.72 -1.31707 0.901408 0
M  V30 12225 C 1195.92 -1.96429 -0.449203 0
M  V30 12226 O 1194.98 -2.22692 -1.19015 0
M  V30 12227 C 1196.29 -2.20391 2.04568 0
M  V30 12228 C 1197.84 -2.33827 2.08072 0
M  V30 12229 C 1198.31 -3.25862 3.21835 0
M  V30 12230 N 1199.8 -3.33444 3.21511 0
M  V30 12231 C 1200.54 -4.04731 4.06177 0
M  V30 12232 N 1200.03 -4.78596 5.00917 0
M  V30 12233 N 1201.83 -4.00717 3.94185 0
M  V30 12234 H 1193.98 -0.632989 2.02749 0
M  V30 12235 H 1196.24 -0.341587 0.88432 0
M  V30 12236 H 1195.95 -1.80102 3.02087 0
M  V30 12237 H 1195.82 -3.20943 1.9818 0
M  V30 12238 H 1198.21 -2.73367 1.11151 0
M  V30 12239 H 1198.29 -1.32964 2.18527 0
M  V30 12240 H 1197.93 -2.8704 4.19012 0
M  V30 12241 H 1197.86 -4.26689 3.08617 0
M  V30 12242 H 1200.35 -2.80798 2.52905 0
M  V30 12243 H 1200.67 -5.30499 5.61952 0
M  V30 12244 H 1199.01 -4.77598 5.04902 0
M  V30 12245 H 1202.2 -3.42126 3.1948 0
M  V30 12246 H 1202.38 -4.56008 4.60392 0
M  V30 12247 N 1195.78 -0.955326 -1.25345 0
M  V30 12248 C 1197.03 -0.606149 -1.92377 0
M  V30 12249 C 1197.34 0.860927 -1.75634 0
M  V30 12250 O 1198.55 1.3201 -2.37246 0
M  V30 12251 C 1197.01 -1.03341 -3.44744 0
M  V30 12252 C 1196.61 -2.52308 -3.70196 0
M  V30 12253 C 1198.36 -0.756797 -4.17699 0
M  V30 12254 C 1196.27 -2.88831 -5.16072 0
M  V30 12255 H 1195.2 -0.222994 -0.720271 0
M  V30 12256 H 1197.85 -1.15987 -1.42194 0
M  V30 12257 H 1196.23 -0.408096 -3.93892 0
M  V30 12258 H 1197.4 -3.19864 -3.31698 0
M  V30 12259 H 1195.72 -2.77448 -3.10502 0
M  V30 12260 H 1198.31 -1.00583 -5.25154 0
M  V30 12261 H 1198.66 0.306794 -4.15168 0
M  V30 12262 H 1199.19 -1.34249 -3.74462 0
M  V30 12263 H 1195.93 -3.9421 -5.23716 0
M  V30 12264 H 1195.45 -2.25948 -5.55614 0
M  V30 12265 H 1197.13 -2.78061 -5.84201 0
M  V30 12266 N 1197.26 1.39987 -0.723979 0
M  V30 12267 C 1198.51 2.00731 -0.267115 0
M  V30 12268 C 1198.84 1.57424 1.14228 0
M  V30 12269 O 1198.09 0.789205 1.79081 0
M  V30 12270 C 1198.39 3.56101 -0.304472 0
M  V30 12271 C 1198.06 4.1902 -1.66533 0
M  V30 12272 C 1196.72 4.3592 -2.03783 0
M  V30 12273 C 1199.07 4.54034 -2.55935 0
M  V30 12274 C 1196.4 4.85119 -3.29964 0
M  V30 12275 C 1198.75 5.04637 -3.81477 0
M  V30 12276 C 1197.41 5.19745 -4.18833 0
M  V30 12277 H 1196.68 0.734525 -0.0977442 0
M  V30 12278 H 1199.33 1.67476 -0.928659 0
M  V30 12279 H 1197.64 3.89314 0.440647 0
M  V30 12280 H 1199.33 4.00944 0.0669875 0
M  V30 12281 H 1195.92 4.0626 -1.36569 0
M  V30 12282 H 1200.11 4.40606 -2.2843 0
M  V30 12283 H 1195.36 4.95001 -3.58865 0
M  V30 12284 H 1199.54 5.30705 -4.50916 0
M  V30 12285 H 1197.16 5.5763 -5.16675 0
M  V30 12286 N 1198.74 0.470782 1.50404 0
M  V30 12287 C 1199.99 -0.0844409 2.02624 0
M  V30 12288 C 1200.32 -1.39398 1.3521 0
M  V30 12289 O 1199.59 -1.88542 0.477707 0
M  V30 12290 C 1199.88 -0.268563 3.59097 0
M  V30 12291 C 1199.73 1.06198 4.37084 0
M  V30 12292 C 1201.05 -1.02324 4.28039 0
M  V30 12293 H 1198.17 -0.0292141 0.736421 0
M  V30 12294 H 1200.81 0.616312 1.79726 0
M  V30 12295 H 1198.96 -0.865441 3.78738 0
M  V30 12296 H 1200.63 1.69541 4.29015 0
M  V30 12297 H 1198.87 1.65868 4.00837 0
M  V30 12298 H 1199.55 0.886795 5.4483 0
M  V30 12299 H 1202.02 -0.517325 4.12872 0
M  V30 12300 H 1200.9 -1.12087 5.37334 0
M  V30 12301 H 1201.16 -2.05974 3.91187 0
M  V30 12302 N 1200.22 -1.56282 0.203376 0
M  V30 12303 C 1201.46 -1.98105 -0.433844 0
M  V30 12304 C 1201.8 -1.09044 -1.60695 0
M  V30 12305 O 1201.07 -0.144193 -1.93965 0
M  V30 12306 C 1201.35 -3.4903 -0.885992 0
M  V30 12307 C 1201.21 -4.48867 0.289501 0
M  V30 12308 C 1202.53 -4.03871 -1.7486 0
M  V30 12309 H 1199.65 -0.720252 -0.156224 0
M  V30 12310 H 1202.29 -1.87681 0.295963 0
M  V30 12311 H 1200.44 -3.58045 -1.50785 0
M  V30 12312 H 1202.11 -4.51883 0.92734 0
M  V30 12313 H 1200.35 -4.23495 0.939934 0
M  V30 12314 H 1201.02 -5.51956 -0.0695128 0
M  V30 12315 H 1203.5 -3.97688 -1.22407 0
M  V30 12316 H 1202.38 -5.09827 -2.03391 0
M  V30 12317 H 1202.64 -3.49637 -2.70567 0
M  V30 12318 N 1201.7 0.070167 -1.57444 0
M  V30 12319 C 1202.66 1.06761 -2.02817 0
M  V30 12320 C 1203.66 1.31498 -0.925462 0
M  V30 12321 O 1204.85 1.27192 -1.19029 0
M  V30 12322 C 1201.98 2.41086 -2.41019 0
M  V30 12323 H 1203.17 0.67651 -2.9217 0
M  V30 12324 H 1200.73 0.315936 -1.53074 0
M  V30 12325 H 1201.46 2.85025 -1.54697 0
M  V30 12326 H 1201.25 2.24472 -3.21488 0
M  V30 12327 H 1202.74 3.12778 -2.76694 0
M  V30 12328 N 1203.17 1.53854 0.341593 0
M  V30 12329 C 1204.14 1.8128 1.40251 0
M  V30 12330 C 1205.14 0.683915 1.45531 0
M  V30 12331 O 1206.33 0.952202 1.45872 0
M  V30 12332 C 1203.46 1.95658 2.79161 0
M  V30 12333 H 1204.65 2.76053 1.17195 0
M  V30 12334 H 1202.2 1.45296 0.57609 0
M  V30 12335 H 1202.94 1.03034 3.07497 0
M  V30 12336 H 1202.72 2.77788 2.76724 0
M  V30 12337 H 1204.21 2.18387 3.55945 0
M  V30 12338 N 1204.65 -0.602709 1.4562 0
M  V30 12339 C 1205.61 -1.69508 1.54271 0
M  V30 12340 C 1206.61 -1.55171 0.421727 0
M  V30 12341 O 1207.8 -1.60151 0.685375 0
M  V30 12342 C 1204.94 -3.0881 1.44392 0
M  V30 12343 H 1206.13 -1.63203 2.51605 0
M  V30 12344 H 1203.68 -0.818857 1.33133 0
M  V30 12345 H 1204.42 -3.20689 0.482614 0
M  V30 12346 H 1204.2 -3.20625 2.25704 0
M  V30 12347 H 1205.69 -3.8837 1.53488 0
M  V30 12348 N 1206.13 -1.32992 -0.845635 0
M  V30 12349 C 1207.06 -1.25301 -1.97033 0
M  V30 12350 C 1208.04 -0.134966 -1.69564 0
M  V30 12351 O 1209.23 -0.323629 -1.91484 0
M  V30 12352 C 1206.36 -0.984551 -3.33052 0
M  V30 12353 C 1205.31 -2.06481 -3.749 0
M  V30 12354 C 1204.64 -1.6486 -5.08651 0
M  V30 12355 C 1205.94 -3.48083 -3.89404 0
M  V30 12356 H 1207.63 -2.194 -2.03725 0
M  V30 12357 H 1205.18 -1.05621 -0.978783 0
M  V30 12358 H 1207.13 -0.917269 -4.11296 0
M  V30 12359 H 1205.85 -0.00793116 -3.26599 0
M  V30 12360 H 1204.51 -2.1224 -2.98915 0
M  V30 12361 H 1204.16 -0.659183 -4.98662 0
M  V30 12362 H 1203.86 -2.37145 -5.37621 0
M  V30 12363 H 1205.38 -1.59585 -5.89377 0
M  V30 12364 H 1206.8 -3.44863 -4.57976 0
M  V30 12365 H 1205.19 -4.18796 -4.29802 0
M  V30 12366 H 1206.26 -3.87084 -2.92051 0
M  V30 12367 N 1207.61 1.06304 -1.1635 0
M  V30 12368 C 1208.85 1.79516 -0.956328 0
M  V30 12369 C 1209.21 1.85506 0.510438 0
M  V30 12370 O 1208.5 1.33556 1.37381 0
M  V30 12371 C 1208.7 3.23589 -1.51741 0
M  V30 12372 C 1208.52 3.31639 -3.0372 0
M  V30 12373 C 1207.29 3.41579 -3.7236 0
M  V30 12374 C 1209.49 3.2151 -4.01417 0
M  V30 12375 N 1207.47 3.38643 -5.12049 0
M  V30 12376 C 1208.85 3.25815 -5.27489 0
M  V30 12377 C 1210.9 3.05393 -3.93242 0
M  V30 12378 C 1209.6 3.1566 -6.46337 0
M  V30 12379 C 1211.63 2.96577 -5.1166 0
M  V30 12380 C 1210.99 3.01504 -6.36612 0
M  V30 12381 H 1207.09 0.669727 -0.40372 0
M  V30 12382 H 1209.67 1.2681 -1.4774 0
M  V30 12383 H 1207.85 3.7469 -1.02282 0
M  V30 12384 H 1209.58 3.84977 -1.248 0
M  V30 12385 H 1206.33 3.46371 -3.22992 0
M  V30 12386 H 1206.76 3.40674 -5.85038 0
M  V30 12387 H 1211.4 3.0043 -2.97492 0
M  V30 12388 H 1209.12 3.1938 -7.42308 0
M  V30 12389 H 1212.7 2.85195 -5.07105 0
M  V30 12390 H 1211.58 2.9474 -7.26704 0
M  V30 12391 N 1209.09 0.96196 1.24836 0
M  V30 12392 C 1210.05 0.492443 2.23847 0
M  V30 12393 C 1211.05 -0.40788 1.55541 0
M  V30 12394 O 1212.24 -0.204143 1.73 0
M  V30 12395 C 1209.37 -0.287578 3.39685 0
M  V30 12396 H 1210.56 1.36767 2.66899 0
M  V30 12397 H 1208.12 0.745967 1.3735 0
M  V30 12398 H 1208.85 -1.18015 3.02064 0
M  V30 12399 H 1208.64 0.358431 3.90458 0
M  V30 12400 H 1210.13 -0.605297 4.1319 0
M  V30 12401 N 1210.56 -1.39601 0.731392 0
M  V30 12402 C 1211.81 -2.0019 0.277208 0
M  V30 12403 C 1212.13 -1.5832 -1.13841 0
M  V30 12404 O 1211.4 -0.829793 -1.77458 0
M  V30 12405 H 1209.98 -0.740344 0.0995006 0
M  V30 12406 H 1212.64 -1.70704 0.940547 0
M  V30 12407 H 1211.74 -3.10427 0.322749 0
M  V30 12408 N 1212.04 -0.478751 -1.50152 0
M  V30 12409 C 1213.27 0.0709455 -2.06478 0
M  V30 12410 C 1213.68 1.33376 -1.34192 0
M  V30 12411 O 1213.02 1.79133 -0.40707 0
M  V30 12412 C 1213.09 0.417322 -3.5707 0
M  V30 12413 C 1212.75 -0.744563 -4.50894 0
M  V30 12414 C 1213.75 -1.62879 -4.93727 0
M  V30 12415 C 1211.43 -0.937062 -4.93482 0
M  V30 12416 C 1213.43 -2.68985 -5.77863 0
M  V30 12417 C 1211.11 -2.00134 -5.77399 0
M  V30 12418 C 1212.11 -2.87609 -6.19492 0
M  V30 12419 O 1211.8 -3.92203 -7.01735 0
M  V30 12420 H 1211.53 -0.00720177 -0.675962 0
M  V30 12421 H 1214.08 -0.668797 -1.94207 0
M  V30 12422 H 1212.31 1.21036 -3.6727 0
M  V30 12423 H 1214 0.903002 -3.95728 0
M  V30 12424 H 1214.77 -1.49179 -4.61488 0
M  V30 12425 H 1210.65 -0.265636 -4.60234 0
M  V30 12426 H 1214.19 -3.37293 -6.10639 0
M  V30 12427 H 1210.09 -2.13837 -6.09052 0
M  V30 12428 H 1210.86 -3.89284 -7.2 0
M  V30 12429 N 1213.52 1.56172 -0.211661 0
M  V30 12430 C 1214.75 2.02874 0.430905 0
M  V30 12431 C 1215.17 1.09064 1.53254 0
M  V30 12432 O 1214.53 0.0770408 1.81136 0
M  V30 12433 C 1214.58 3.4789 0.948933 0
M  V30 12434 O 1213.68 3.57213 2.0609 0
M  V30 12435 H 1213.02 0.656614 0.0987607 0
M  V30 12436 H 1215.55 2.01964 -0.327399 0
M  V30 12437 H 1215.56 3.88015 1.2613 0
M  V30 12438 H 1214.24 4.15656 0.142584 0
M  V30 12439 H 1212.81 3.28971 1.75592 0
M  V30 12440 N 1215 -0.0618163 1.57479 0
M  V30 12441 C 1216.24 -0.760193 1.88013 0
M  V30 12442 C 1216.58 -1.76718 0.805258 0
M  V30 12443 O 1215.85 -1.93633 -0.183408 0
M  V30 12444 C 1216.14 -1.45924 3.29208 0
M  V30 12445 C 1215.99 -0.467994 4.47359 0
M  V30 12446 C 1217.31 -2.40166 3.68793 0
M  V30 12447 H 1214.43 -0.274896 0.683814 0
M  V30 12448 H 1217.07 -0.0232433 1.89986 0
M  V30 12449 H 1215.22 -2.08741 3.27657 0
M  V30 12450 H 1216.89 0.155735 4.61037 0
M  V30 12451 H 1215.13 0.215797 4.33263 0
M  V30 12452 H 1215.8 -0.994942 5.42959 0
M  V30 12453 H 1218.28 -1.87419 3.71501 0
M  V30 12454 H 1217.16 -2.86076 4.68457 0
M  V30 12455 H 1217.42 -3.25413 2.99264 0
M  V30 12456 N 1216.48 -1.54033 -0.333429 0
M  V30 12457 C 1217.75 -1.62404 -1.09015 0
M  V30 12458 C 1218.13 -0.451653 -2.06212 0
M  V30 12459 O 1217.48 0.555086 -2.21655 0
M  V30 12460 C 1217.69 -2.98949 -1.80085 0
M  V30 12461 C 1219.04 -3.54655 -2.33464 0
M  V30 12462 O 1220.06 -3.0119 -1.90166 0
M  V30 12463 O 1218.92 -4.48195 -3.12703 0
M  V30 12464 H 1216.02 -0.65727 -0.501921 0
M  V30 12465 H 1218.56 -1.66378 -0.33411 0
M  V30 12466 H 1217.33 -3.75716 -1.09332 0
M  V30 12467 H 1216.96 -2.98609 -2.62523 0
M  V30 12468 N 1217.95 0.594978 -1.45938 0
M  V30 12469 C 1219.37 0.917069 -1.30622 0
M  V30 12470 C 1219.57 1.99702 -0.268554 0
M  V30 12471 O 1218.63 2.50293 0.333146 0
M  V30 12472 C 1219.94 1.34604 -2.68891 0
M  V30 12473 C 1221.49 1.45957 -2.76886 0
M  V30 12474 C 1221.96 1.92225 -4.15708 0
M  V30 12475 N 1223.45 1.99439 -4.18065 0
M  V30 12476 C 1224.19 2.36488 -5.22361 0
M  V30 12477 N 1223.68 2.72416 -6.36994 0
M  V30 12478 N 1225.48 2.36936 -5.09723 0
M  V30 12479 H 1217.63 -0.118625 -2.12068 0
M  V30 12480 H 1219.89 0.00959453 -0.947951 0
M  V30 12481 H 1219.6 0.626605 -3.46073 0
M  V30 12482 H 1219.47 2.31006 -2.98188 0
M  V30 12483 H 1221.86 2.16989 -1.99999 0
M  V30 12484 H 1221.94 0.47838 -2.51287 0
M  V30 12485 H 1221.58 1.21775 -4.93085 0
M  V30 12486 H 1221.51 2.9128 -4.38707 0
M  V30 12487 H 1224 1.74212 -3.35349 0
M  V30 12488 H 1224.32 2.99604 -7.1236 0
M  V30 12489 H 1222.66 2.70083 -6.40375 0
M  V30 12490 H 1225.85 2.08282 -4.19209 0
M  V30 12491 H 1226.03 2.65483 -5.9112 0
M  V30 12492 N 1219.43 1.33438 0.838571 0
M  V30 12493 C 1220.36 1.26344 1.96365 0
M  V30 12494 C 1221.34 0.143956 1.6949 0
M  V30 12495 O 1222.53 0.333779 1.9131 0
M  V30 12496 C 1219.66 1.0022 3.32526 0
M  V30 12497 C 1218.61 2.08466 3.73799 0
M  V30 12498 C 1217.94 1.67555 5.07769 0
M  V30 12499 C 1219.24 3.50144 3.87552 0
M  V30 12500 H 1220.93 2.20478 2.02558 0
M  V30 12501 H 1218.48 1.06139 0.973168 0
M  V30 12502 H 1220.43 0.939068 4.10803 0
M  V30 12503 H 1219.16 0.0252514 3.2659 0
M  V30 12504 H 1217.81 2.13822 2.97785 0
M  V30 12505 H 1217.46 0.685619 4.98305 0
M  V30 12506 H 1217.16 2.39993 5.36356 0
M  V30 12507 H 1218.69 1.62708 5.88522 0
M  V30 12508 H 1220.1 3.47287 4.56141 0
M  V30 12509 H 1218.5 4.21069 4.27575 0
M  V30 12510 H 1219.57 3.88628 2.89994 0
M  V30 12511 N 1220.91 -1.05686 1.16912 0
M  V30 12512 C 1222.14 -1.82018 0.977392 0
M  V30 12513 C 1222.55 -1.83072 -0.477636 0
M  V30 12514 O 1221.89 -1.25296 -1.34338 0
M  V30 12515 C 1221.95 -3.29592 1.4356 0
M  V30 12516 C 1221.62 -3.5223 2.91175 0
M  V30 12517 C 1222.61 -3.44767 3.89142 0
M  V30 12518 C 1220.3 -3.79353 3.29236 0
M  V30 12519 C 1222.29 -3.64104 5.2317 0
M  V30 12520 C 1219.98 -3.98339 4.63432 0
M  V30 12521 C 1220.98 -3.90713 5.60207 0
M  V30 12522 O 1220.67 -4.09175 6.91976 0
M  V30 12523 H 1220.4 -0.580578 0.346273 0
M  V30 12524 H 1222.95 -1.34199 1.55498 0
M  V30 12525 H 1221.18 -3.78302 0.80153 0
M  V30 12526 H 1222.87 -3.87435 1.21032 0
M  V30 12527 H 1223.64 -3.23796 3.61083 0
M  V30 12528 H 1219.52 -3.84395 2.54482 0
M  V30 12529 H 1223.06 -3.58068 5.98693 0
M  V30 12530 H 1218.96 -4.18801 4.91198 0
M  V30 12531 H 1219.73 -4.26429 6.98642 0
M  V30 12532 N 1222.39 -0.968567 -1.24324 0
M  V30 12533 C 1223.3 -0.50703 -2.29055 0
M  V30 12534 C 1224.31 0.432431 -1.68541 0
M  V30 12535 O 1225.49 0.30526 -1.99073 0
M  V30 12536 C 1222.56 0.194589 -3.46153 0
M  V30 12537 C 1221.62 -0.784805 -4.22066 0
M  V30 12538 C 1220.85 -0.116574 -5.33573 0
M  V30 12539 O 1221.07 1.09492 -5.59792 0
M  V30 12540 O 1220.01 -0.809171 -5.96436 0
M  V30 12541 H 1223.83 -1.3777 -2.70653 0
M  V30 12542 H 1221.42 -0.735645 -1.30033 0
M  V30 12543 H 1223.3 0.588684 -4.17268 0
M  V30 12544 H 1221.97 1.04021 -3.06531 0
M  V30 12545 H 1220.88 -1.22938 -3.53323 0
M  V30 12546 H 1222.21 -1.59887 -4.65507 0
M  V30 12547 N 1223.87 1.39211 -0.738786 0
M  V30 12548 C 1224.8 2.33209 -0.11647 0
M  V30 12549 C 1225.78 1.54108 0.720056 0
M  V30 12550 O 1226.96 1.82486 0.664264 0
M  V30 12551 C 1224.09 3.38226 0.78872 0
M  V30 12552 C 1223.05 4.27963 0.0560636 0
M  V30 12553 C 1222.37 5.2371 1.07852 0
M  V30 12554 C 1223.67 5.10508 -1.1036 0
M  V30 12555 H 1225.37 2.85501 -0.901649 0
M  V30 12556 H 1222.91 1.37272 -0.435032 0
M  V30 12557 H 1224.87 4.02938 1.23364 0
M  V30 12558 H 1223.59 2.84382 1.60606 0
M  V30 12559 H 1222.25 3.64735 -0.369274 0
M  V30 12560 H 1221.9 4.66161 1.88953 0
M  V30 12561 H 1221.6 5.846 0.593048 0
M  V30 12562 H 1223.12 5.91299 1.52307 0
M  V30 12563 H 1224.53 5.68544 -0.736943 0
M  V30 12564 H 1222.93 5.80558 -1.51895 0
M  V30 12565 H 1224 4.45117 -1.92352 0
M  V30 12566 N 1225.34 0.486708 1.49896 0
M  V30 12567 C 1226.57 -0.0600816 2.06813 0
M  V30 12568 C 1226.99 -1.32112 1.34877 0
M  V30 12569 O 1226.34 -1.77537 0.422725 0
M  V30 12570 C 1226.4 -0.332266 3.5997 0
M  V30 12571 O 1226.12 0.878771 4.29196 0
M  V30 12572 C 1227.62 -0.924289 4.33557 0
M  V30 12573 H 1224.84 0.0140611 0.670853 0
M  V30 12574 H 1227.38 0.67997 1.92864 0
M  V30 12575 H 1225.54 -1.02227 3.73669 0
M  V30 12576 H 1225.95 0.632873 5.20668 0
M  V30 12577 H 1227.42 -1.06441 5.4164 0
M  V30 12578 H 1227.9 -1.91844 3.95085 0
M  V30 12579 H 1228.51 -0.272189 4.24428 0
M  V30 12580 N 1226.82 -1.56058 0.219941 0
M  V30 12581 C 1228.24 -1.59024 -0.135476 0
M  V30 12582 C 1228.44 -1.23672 -1.59083 0
M  V30 12583 O 1227.5 -0.971197 -2.33075 0
M  V30 12584 C 1228.81 -3.00103 0.189356 0
M  V30 12585 C 1230.36 -3.12724 0.131463 0
M  V30 12586 C 1230.83 -4.55977 0.429947 0
M  V30 12587 N 1232.32 -4.61643 0.37946 0
M  V30 12588 C 1233.06 -5.70419 0.58393 0
M  V30 12589 N 1232.55 -6.87565 0.850088 0
M  V30 12590 N 1234.35 -5.59722 0.516477 0
M  V30 12591 H 1226.5 -1.77313 1.16935 0
M  V30 12592 H 1228.76 -0.824096 0.468583 0
M  V30 12593 H 1228.47 -3.30616 1.19941 0
M  V30 12594 H 1228.34 -3.73919 -0.49641 0
M  V30 12595 H 1230.73 -2.82008 -0.869223 0
M  V30 12596 H 1230.81 -2.41241 0.85068 0
M  V30 12597 H 1230.45 -4.8741 1.42806 0
M  V30 12598 H 1230.38 -5.25684 -0.310444 0
M  V30 12599 H 1232.87 -3.77465 0.181373 0
M  V30 12600 H 1233.19 -7.66378 0.994251 0
M  V30 12601 H 1231.53 -6.89313 0.887265 0
M  V30 12602 H 1234.72 -4.6708 0.308784 0
M  V30 12603 H 1234.9 -6.4443 0.679236 0
M  V30 12604 N 1228.3 0.053464 -1.57509 0
M  V30 12605 C 1229.55 0.748016 -1.87317 0
M  V30 12606 C 1229.86 1.77805 -0.815161 0
M  V30 12607 O 1231.07 2.52347 -1.00167 0
M  V30 12608 C 1229.53 1.38137 -3.32334 0
M  V30 12609 C 1229.13 0.388958 -4.46308 0
M  V30 12610 C 1230.88 2.05722 -3.7132 0
M  V30 12611 C 1228.78 1.02927 -5.82374 0
M  V30 12612 H 1227.71 0.283123 -0.698826 0
M  V30 12613 H 1230.37 0.00170723 -1.835 0
M  V30 12614 H 1228.75 2.17656 -3.3082 0
M  V30 12615 H 1229.92 -0.377752 -4.59249 0
M  V30 12616 H 1228.24 -0.183447 -4.15996 0
M  V30 12617 H 1230.83 2.54437 -4.70283 0
M  V30 12618 H 1231.18 2.86475 -3.02056 0
M  V30 12619 H 1231.71 1.3301 -3.74904 0
M  V30 12620 H 1228.45 0.261674 -6.54977 0
M  V30 12621 H 1227.97 1.7664 -5.732 0
M  V30 12622 H 1229.65 1.54378 -6.28312 0
M  V30 12623 N 1229.78 1.54207 0.325255 0
M  V30 12624 C 1231.06 1.6298 1.08153 0
M  V30 12625 C 1231.44 0.462583 2.05969 0
M  V30 12626 O 1230.78 -0.543323 2.21947 0
M  V30 12627 C 1230.99 2.999 1.78497 0
M  V30 12628 C 1232.34 3.55888 2.3158 0
M  V30 12629 O 1233.37 3.02194 1.88566 0
M  V30 12630 O 1232.23 4.49847 3.10322 0
M  V30 12631 H 1229.32 0.659923 0.498429 0
M  V30 12632 H 1231.87 1.66553 0.325282 0
M  V30 12633 H 1230.64 3.7629 1.07338 0
M  V30 12634 H 1230.26 2.99997 2.60936 0
M  V30 12635 N 1231.26 -0.58723 1.46251 0
M  V30 12636 C 1232.67 -0.910129 1.31106 0
M  V30 12637 C 1232.87 -1.99557 0.279141 0
M  V30 12638 O 1231.93 -2.50466 -0.319867 0
M  V30 12639 C 1233.24 -1.33177 2.69601 0
M  V30 12640 C 1234.79 -1.44486 2.77656 0
M  V30 12641 C 1235.27 -1.90018 4.16722 0
M  V30 12642 N 1236.76 -1.97219 4.19117 0
M  V30 12643 C 1237.49 -2.33714 5.23608 0
M  V30 12644 N 1236.99 -2.69034 6.3843 0
M  V30 12645 N 1238.78 -2.3423 5.10972 0
M  V30 12646 H 1230.93 0.12987 2.12003 0
M  V30 12647 H 1233.19 -0.00456718 0.947989 0
M  V30 12648 H 1232.9 -0.608243 3.464 0
M  V30 12649 H 1232.77 -2.29421 2.99409 0
M  V30 12650 H 1235.16 -2.15926 2.01147 0
M  V30 12651 H 1235.24 -0.465047 2.51537 0
M  V30 12652 H 1234.89 -1.19159 4.93724 0
M  V30 12653 H 1234.82 -2.88949 4.40245 0
M  V30 12654 H 1237.31 -1.72431 3.36268 0
M  V30 12655 H 1237.62 -2.95822 7.13939 0
M  V30 12656 H 1235.97 -2.66683 6.41798 0
M  V30 12657 H 1239.16 -2.06056 4.20308 0
M  V30 12658 H 1239.33 -2.62345 5.92519 0
M  V30 12659 N 1232.74 -1.33881 -0.831482 0
M  V30 12660 C 1233.98 -1.26951 -1.58918 0
M  V30 12661 C 1234.34 0.161359 -1.91722 0
M  V30 12662 O 1233.63 1.1054 -1.56498 0
M  V30 12663 C 1233.82 -2.08544 -2.90249 0
M  V30 12664 C 1233.65 -3.5942 -2.70273 0
M  V30 12665 C 1232.42 -4.28718 -2.67449 0
M  V30 12666 C 1234.62 -4.53599 -2.42388 0
M  V30 12667 N 1232.6 -5.65496 -2.38929 0
M  V30 12668 C 1233.97 -5.7832 -2.23485 0
M  V30 12669 C 1236.03 -4.42605 -2.28046 0
M  V30 12670 C 1234.73 -6.93286 -1.91695 0
M  V30 12671 C 1236.76 -5.57395 -1.97649 0
M  V30 12672 C 1236.12 -6.81129 -1.79563 0
M  V30 12673 H 1232.22 -0.519762 -0.58427 0
M  V30 12674 H 1234.8 -1.68502 -0.97546 0
M  V30 12675 H 1232.97 -1.69302 -3.49559 0
M  V30 12676 H 1234.71 -1.93325 -3.55538 0
M  V30 12677 H 1231.46 -3.81068 -2.81219 0
M  V30 12678 H 1231.88 -6.37619 -2.27532 0
M  V30 12679 H 1236.53 -3.47571 -2.40737 0
M  V30 12680 H 1234.24 -7.88311 -1.7774 0
M  V30 12681 H 1237.83 -5.50828 -1.87296 0
M  V30 12682 H 1236.71 -7.68449 -1.56382 0
M  V30 12683 N 1234.21 1.05064 -1.1747 0
M  V30 12684 C 1235.46 1.78089 -0.963883 0
M  V30 12685 C 1235.79 1.87766 0.507365 0
M  V30 12686 O 1235.04 1.37477 1.39279 0
M  V30 12687 C 1235.34 3.21961 -1.55164 0
M  V30 12688 C 1235.01 3.32339 -3.04732 0
M  V30 12689 C 1233.67 3.34878 -3.45557 0
M  V30 12690 C 1236.02 3.3325 -4.00741 0
M  V30 12691 C 1233.35 3.35959 -4.80987 0
M  V30 12692 C 1235.7 3.3587 -5.36073 0
M  V30 12693 C 1234.37 3.36697 -5.7636 0
M  V30 12694 H 1233.64 0.651672 -0.35271 0
M  V30 12695 H 1236.28 1.23471 -1.4638 0
M  V30 12696 H 1234.59 3.79514 -0.973471 0
M  V30 12697 H 1236.29 3.77087 -1.36406 0
M  V30 12698 H 1232.88 3.31076 -2.72188 0
M  V30 12699 H 1237.06 3.30488 -3.70258 0
M  V30 12700 H 1232.32 3.34911 -5.11512 0
M  V30 12701 H 1236.49 3.35524 -6.10243 0
M  V30 12702 H 1234.12 3.37288 -6.81279 0
M  V30 12703 N 1235.69 0.975146 1.23809 0
M  V30 12704 C 1236.62 0.530389 2.27396 0
M  V30 12705 C 1237.6 -0.433763 1.64476 0
M  V30 12706 O 1238.79 -0.32827 1.91405 0
M  V30 12707 C 1235.92 -0.173066 3.46869 0
M  V30 12708 C 1234.87 0.707844 4.22106 0
M  V30 12709 C 1234.2 -0.127527 5.34548 0
M  V30 12710 C 1235.5 1.99609 4.82652 0
M  V30 12711 H 1237.19 1.39622 2.64851 0
M  V30 12712 H 1234.74 0.672802 1.27316 0
M  V30 12713 H 1236.69 -0.495481 4.18477 0
M  V30 12714 H 1235.41 -1.0733 3.0846 0
M  V30 12715 H 1234.07 1.01364 3.52308 0
M  V30 12716 H 1233.72 -1.02814 4.9238 0
M  V30 12717 H 1233.42 0.458728 5.85807 0
M  V30 12718 H 1234.95 -0.444443 6.0898 0
M  V30 12719 H 1236.36 1.73878 5.46296 0
M  V30 12720 H 1234.76 2.52969 5.44175 0
M  V30 12721 H 1235.83 2.68629 4.03691 0
M  V30 12722 N 1237.17 -1.38817 0.746158 0
M  V30 12723 C 1238.12 -2.27825 0.089362 0
M  V30 12724 C 1239.1 -1.44826 -0.701013 0
M  V30 12725 O 1240.3 -1.67632 -0.568188 0
M  V30 12726 C 1237.42 -3.33639 -0.808682 0
M  V30 12727 C 1236.51 -4.24098 -0.0118582 0
M  V30 12728 N 1236.9 -4.95393 1.02075 0
M  V30 12729 C 1235.2 -4.45355 -0.239815 0
M  V30 12730 C 1235.9 -5.61969 1.5022 0
M  V30 12731 N 1234.88 -5.37398 0.818816 0
M  V30 12732 H 1238.68 -2.80406 0.88033 0
M  V30 12733 H 1236.19 -1.51632 0.581512 0
M  V30 12734 H 1238.19 -3.96284 -1.29478 0
M  V30 12735 H 1236.85 -2.82617 -1.59868 0
M  V30 12736 H 1237.86 -4.98552 1.40237 0
M  V30 12737 H 1234.54 -4.05255 -1.00374 0
M  V30 12738 H 1235.93 -6.29017 2.36192 0
M  V30 12739 N 1238.65 -0.49465 -1.49636 0
M  V30 12740 C 1240.06 -0.150217 -1.58892 0
M  V30 12741 C 1240.26 1.34485 -1.50053 0
M  V30 12742 O 1239.32 2.12026 -1.37118 0
M  V30 12743 C 1240.63 -0.721372 -2.91919 0
M  V30 12744 C 1242.18 -0.686908 -3.0537 0
M  V30 12745 C 1242.66 -1.23601 -4.41006 0
M  V30 12746 N 1244.15 -1.19644 -4.47481 0
M  V30 12747 C 1244.88 -1.59157 -5.50869 0
M  V30 12748 N 1244.38 -2.06232 -6.61393 0
M  V30 12749 N 1246.17 -1.50612 -5.41546 0
M  V30 12750 H 1238.32 -1.46675 -1.53624 0
M  V30 12751 H 1240.58 -0.608003 -0.727349 0
M  V30 12752 H 1240.29 -1.76964 -3.03935 0
M  V30 12753 H 1240.16 -0.178199 -3.76779 0
M  V30 12754 H 1242.55 0.352508 -2.92987 0
M  V30 12755 H 1242.63 -1.26716 -2.22209 0
M  V30 12756 H 1242.28 -2.27418 -4.5414 0
M  V30 12757 H 1242.21 -0.631765 -5.22797 0
M  V30 12758 H 1244.7 -0.851443 -3.68183 0
M  V30 12759 H 1245.01 -2.34469 -7.36372 0
M  V30 12760 H 1243.36 -2.10202 -6.6245 0
M  V30 12761 H 1246.55 -1.13659 -4.54092 0
M  V30 12762 H 1246.72 -1.8173 -6.21995 0
M  V30 12763 N 1240.13 1.55939 -0.228214 0
M  V30 12764 C 1241.06 2.16566 0.719321 0
M  V30 12765 C 1242.04 1.11204 1.18627 0
M  V30 12766 O 1243.22 1.39495 1.2678 0
M  V30 12767 C 1240.35 2.75132 1.97536 0
M  V30 12768 C 1239.39 3.93381 1.64783 0
M  V30 12769 S 1240.23 5.29982 0.76678 0
M  V30 12770 C 1241.38 5.91989 2.03223 0
M  V30 12771 H 1241.62 2.96599 0.204035 0
M  V30 12772 H 1239.15 1.54395 -0.0128406 0
M  V30 12773 H 1241.11 3.09512 2.69652 0
M  V30 12774 H 1239.77 1.95079 2.46176 0
M  V30 12775 H 1238.96 4.32884 2.58122 0
M  V30 12776 H 1238.56 3.60181 1.00724 0
M  V30 12777 H 1240.85 6.08368 2.98152 0
M  V30 12778 H 1241.8 6.87858 1.68099 0
M  V30 12779 H 1242.21 5.20883 2.1758 0
M  V30 12780 N 1241.6 -0.0451101 1.57535 0
M  V30 12781 C 1242.55 -1.05066 2.05499 0
M  V30 12782 C 1243.52 -1.36884 0.940843 0
M  V30 12783 O 1244.71 -1.47497 1.21034 0
M  V30 12784 C 1241.85 -2.35139 2.52594 0
M  V30 12785 C 1240.96 -2.0962 3.77735 0
M  V30 12786 C 1240.09 -3.33447 4.13505 0
M  V30 12787 C 1239.13 -3.03411 5.31609 0
M  V30 12788 N 1238.27 -4.19644 5.62888 0
M  V30 12789 H 1243.11 -0.63469 2.91163 0
M  V30 12790 H 1240.65 -0.30179 1.43971 0
M  V30 12791 H 1242.61 -3.11118 2.7796 0
M  V30 12792 H 1241.24 -2.74489 1.69869 0
M  V30 12793 H 1240.29 -1.24211 3.59549 0
M  V30 12794 H 1241.6 -1.83452 4.63839 0
M  V30 12795 H 1240.75 -4.17805 4.39914 0
M  V30 12796 H 1239.49 -3.62715 3.2602 0
M  V30 12797 H 1238.5 -2.17453 5.04969 0
M  V30 12798 H 1239.72 -2.75438 6.20734 0
M  V30 12799 H 1237.67 -4.48893 4.78363 0
M  V30 12800 H 1237.59 -3.96843 6.43468 0
M  V30 12801 H 1238.85 -5.04921 5.93865 0
M  V30 12802 N 1243.08 -1.54377 -0.317073 0
M  V30 12803 C 1244.5 -1.45232 -0.6618 0
M  V30 12804 C 1244.7 -0.630457 -1.91383 0
M  V30 12805 O 1243.75 -0.13181 -2.52156 0
M  V30 12806 C 1245.07 -2.89025 -0.829761 0
M  V30 12807 C 1246.62 -2.98967 -0.926685 0
M  V30 12808 C 1247.09 -4.43923 -1.12677 0
M  V30 12809 N 1248.58 -4.47564 -1.19335 0
M  V30 12810 C 1249.32 -5.56887 -1.36617 0
M  V30 12811 N 1248.81 -6.76167 -1.50899 0
M  V30 12812 N 1250.61 -5.44546 -1.39377 0
M  V30 12813 H 1242.76 -2.0629 0.505766 0
M  V30 12814 H 1245.02 -0.933615 0.164522 0
M  V30 12815 H 1244.73 -3.51695 0.0190945 0
M  V30 12816 H 1244.6 -3.35515 -1.72364 0
M  V30 12817 H 1246.99 -2.36421 -1.76604 0
M  V30 12818 H 1247.07 -2.55798 -0.00913402 0
M  V30 12819 H 1246.71 -5.07059 -0.29224 0
M  V30 12820 H 1246.64 -4.84708 -2.05829 0
M  V30 12821 H 1249.13 -3.61623 -1.09715 0
M  V30 12822 H 1249.45 -7.55242 -1.63796 0
M  V30 12823 H 1247.79 -6.79062 -1.47985 0
M  V30 12824 H 1250.98 -4.50311 -1.27819 0
M  V30 12825 H 1251.15 -6.29799 -1.52502 0
M  V30 12826 N 1244.56 0.579466 -1.4656 0
M  V30 12827 C 1245.81 1.33379 -1.51304 0
M  V30 12828 C 1246.12 1.94855 -0.170507 0
M  V30 12829 O 1247.33 2.71331 -0.0957704 0
M  V30 12830 C 1245.78 2.41748 -2.66619 0
M  V30 12831 C 1245.39 1.8656 -4.07307 0
M  V30 12832 C 1247.14 3.18502 -2.80636 0
M  V30 12833 C 1245.04 2.92578 -5.13957 0
M  V30 12834 H 1243.97 0.501422 -0.56311 0
M  V30 12835 H 1246.62 0.618025 -1.72779 0
M  V30 12836 H 1245.01 3.16138 -2.3848 0
M  V30 12837 H 1246.18 1.18692 -4.45252 0
M  V30 12838 H 1244.5 1.22464 -3.97984 0
M  V30 12839 H 1247.09 3.9763 -3.57483 0
M  V30 12840 H 1247.44 3.71295 -1.8827 0
M  V30 12841 H 1247.97 2.51219 -3.08437 0
M  V30 12842 H 1244.71 2.44668 -6.08126 0
M  V30 12843 H 1244.23 3.58926 -4.80554 0
M  V30 12844 H 1245.91 3.56471 -5.39942 0
M  V30 12845 N 1246.04 1.3432 0.824371 0
M  V30 12846 C 1247.29 1.25938 1.57552 0
M  V30 12847 C 1247.6 -0.169298 1.94866 0
M  V30 12848 O 1248.81 -0.375262 2.68894 0
M  V30 12849 C 1247.26 2.20757 2.84244 0
M  V30 12850 C 1246.87 3.68873 2.54237 0
M  V30 12851 C 1248.61 2.21279 3.62265 0
M  V30 12852 C 1246.52 4.55566 3.77113 0
M  V30 12853 H 1245.45 0.467832 0.591311 0
M  V30 12854 H 1248.1 1.59476 0.907724 0
M  V30 12855 H 1246.48 1.80168 3.52641 0
M  V30 12856 H 1247.66 4.17991 1.93959 0
M  V30 12857 H 1245.97 3.70784 1.89494 0
M  V30 12858 H 1248.57 2.83272 4.53499 0
M  V30 12859 H 1248.91 1.2117 3.98276 0
M  V30 12860 H 1249.45 2.60305 3.00809 0
M  V30 12861 H 1246.19 5.56605 3.46223 0
M  V30 12862 H 1245.71 4.11184 4.36678 0
M  V30 12863 H 1247.38 4.701 4.44539 0
M  V30 12864 N 1247.52 -1.0444 1.18026 0
M  V30 12865 C 1248.48 -2.10532 0.906028 0
M  V30 12866 C 1249.48 -1.60443 -0.107022 0
M  V30 12867 O 1250.67 -1.73744 0.126001 0
M  V30 12868 C 1247.8 -3.39008 0.358625 0
M  V30 12869 H 1248.99 -2.36293 1.84677 0
M  V30 12870 H 1246.55 -1.20805 0.991763 0
M  V30 12871 H 1247.28 -3.18908 -0.588904 0
M  V30 12872 H 1247.07 -3.76678 1.08884 0
M  V30 12873 H 1248.56 -4.17189 0.185331 0
M  V30 12874 N 1248.99 -0.981699 -1.2329 0
M  V30 12875 C 1249.94 -0.494116 -2.22581 0
M  V30 12876 C 1250.93 0.431573 -1.55004 0
M  V30 12877 O 1252.12 0.260215 -1.75077 0
M  V30 12878 C 1249.25 0.200884 -3.42712 0
M  V30 12879 C 1248.34 -0.744451 -4.17515 0
M  V30 12880 N 1248.73 -1.88762 -4.69257 0
M  V30 12881 C 1247.02 -0.558044 -4.42495 0
M  V30 12882 C 1247.73 -2.48006 -5.26182 0
M  V30 12883 N 1246.7 -1.76382 -5.14189 0
M  V30 12884 H 1250.5 -1.36616 -2.60218 0
M  V30 12885 H 1248.02 -0.842537 -1.38835 0
M  V30 12886 H 1250.01 0.567506 -4.13019 0
M  V30 12887 H 1248.67 1.0692 -3.06591 0
M  V30 12888 H 1249.69 -2.26877 -4.65561 0
M  V30 12889 H 1246.36 0.265139 -4.16657 0
M  V30 12890 H 1247.75 -3.44555 -5.76829 0
M  V30 12891 N 1250.47 1.3842 -0.753509 0
M  V30 12892 C 1251.44 2.28808 -0.134022 0
M  V30 12893 C 1252.44 1.47184 0.647583 0
M  V30 12894 O 1253.63 1.67631 0.473861 0
M  V30 12895 C 1250.76 3.30926 0.81858 0
M  V30 12896 H 1251.95 2.85097 -0.930586 0
M  V30 12897 H 1249.5 1.47378 -0.520514 0
M  V30 12898 H 1250.24 2.79728 1.64082 0
M  V30 12899 H 1250.02 3.91234 0.260526 0
M  V30 12900 H 1251.51 3.98515 1.24802 0
M  V30 12901 N 1251.95 0.502579 1.49372 0
M  V30 12902 C 1252.88 -0.311743 2.2707 0
M  V30 12903 C 1253.9 -0.929204 1.33677 0
M  V30 12904 O 1255.08 -0.812277 1.58948 0
M  V30 12905 C 1252.18 -1.45404 3.06122 0
M  V30 12906 C 1251.36 -0.943591 4.27101 0
M  V30 12907 C 1250.42 -1.96368 4.88186 0
M  V30 12908 O 1249.44 -1.5316 5.48207 0
M  V30 12909 N 1250.64 -3.29419 4.77978 0
M  V30 12910 H 1253.41 0.354503 2.97596 0
M  V30 12911 H 1250.97 0.335222 1.58392 0
M  V30 12912 H 1252.96 -2.13404 3.43862 0
M  V30 12913 H 1251.53 -2.02441 2.38194 0
M  V30 12914 H 1250.75 -0.0884372 3.94101 0
M  V30 12915 H 1252.04 -0.580983 5.05472 0
M  V30 12916 H 1251.44 -3.67211 4.30317 0
M  V30 12917 H 1250 -3.93129 5.19897 0
M  V30 12918 N 1253.43 -1.55816 0.23648 0
M  V30 12919 C 1254.36 -2.23924 -0.661834 0
M  V30 12920 C 1255.34 -1.21597 -1.18946 0
M  V30 12921 O 1256.52 -1.50222 -1.23073 0
M  V30 12922 C 1253.65 -2.93069 -1.86355 0
M  V30 12923 C 1252.61 -4.01996 -1.46913 0
M  V30 12924 C 1251.93 -4.58512 -2.75083 0
M  V30 12925 C 1253.23 -5.18265 -0.647964 0
M  V30 12926 H 1254.93 -2.99253 -0.0939368 0
M  V30 12927 H 1252.47 -1.43934 -0.0437407 0
M  V30 12928 H 1254.43 -3.39412 -2.49755 0
M  V30 12929 H 1253.15 -2.15212 -2.45665 0
M  V30 12930 H 1251.81 -3.56406 -0.858522 0
M  V30 12931 H 1251.46 -3.77368 -3.3257 0
M  V30 12932 H 1251.16 -5.32037 -2.49421 0
M  V30 12933 H 1252.68 -5.07583 -3.39399 0
M  V30 12934 H 1254.1 -5.60898 -1.18602 0
M  V30 12935 H 1252.49 -5.98114 -0.487823 0
M  V30 12936 H 1253.56 -4.83691 0.342151 0
M  V30 12937 N 1254.91 0.036755 -1.57557 0
M  V30 12938 C 1255.84 1.03939 -2.09091 0
M  V30 12939 C 1256.82 1.38196 -0.991761 0
M  V30 12940 O 1258 1.47214 -1.26656 0
M  V30 12941 C 1255.13 2.34263 -2.56394 0
M  V30 12942 C 1254.09 2.14269 -3.70504 0
M  V30 12943 C 1253.41 3.50286 -4.03985 0
M  V30 12944 C 1254.71 1.53514 -4.9923 0
M  V30 12945 H 1256.41 0.610429 -2.93111 0
M  V30 12946 H 1253.95 0.292183 -1.41005 0
M  V30 12947 H 1255.91 3.04727 -2.91066 0
M  V30 12948 H 1254.63 2.79205 -1.69447 0
M  V30 12949 H 1253.29 1.46239 -3.36169 0
M  V30 12950 H 1252.94 3.92861 -3.14116 0
M  V30 12951 H 1252.64 3.37735 -4.80842 0
M  V30 12952 H 1254.16 4.22124 -4.41184 0
M  V30 12953 H 1255.57 2.13885 -5.31908 0
M  V30 12954 H 1253.97 1.51561 -5.80646 0
M  V30 12955 H 1255.04 0.500126 -4.82314 0
M  V30 12956 N 1256.39 1.54543 0.308881 0
M  V30 12957 C 1257.3 1.87994 1.4034 0
M  V30 12958 C 1258.31 0.773294 1.55872 0
M  V30 12959 O 1259.49 1.069 1.70688 0
M  V30 12960 C 1256.55 2.11341 2.74838 0
M  V30 12961 C 1255.61 3.35086 2.68358 0
M  V30 12962 C 1254.85 3.5731 3.96441 0
M  V30 12963 O 1255.07 2.82692 4.9542 0
M  V30 12964 O 1254 4.50814 3.98811 0
M  V30 12965 H 1257.83 2.81094 1.14976 0
M  V30 12966 H 1255.41 1.40634 0.504236 0
M  V30 12967 H 1257.3 2.27943 3.54429 0
M  V30 12968 H 1255.97 1.21427 3.00062 0
M  V30 12969 H 1254.88 3.23855 1.87267 0
M  V30 12970 H 1256.21 4.25104 2.48087 0
M  V30 12971 N 1257.86 -0.571685 1.46866 0
M  V30 12972 C 1258.8 -1.69475 1.54307 0
M  V30 12973 C 1259.81 -1.57006 0.430449 0
M  V30 12974 O 1261 -1.64229 0.69936 0
M  V30 12975 C 1258.1 -3.07824 1.41766 0
M  V30 12976 C 1257.27 -3.46189 2.67342 0
M  V30 12977 C 1256.33 -4.63642 2.48843 0
M  V30 12978 O 1255.36 -4.68949 3.22608 0
M  V30 12979 N 1256.56 -5.59223 1.55724 0
M  V30 12980 H 1259.32 -1.63543 2.51145 0
M  V30 12981 H 1256.88 -0.757957 1.43062 0
M  V30 12982 H 1258.88 -3.84208 1.27146 0
M  V30 12983 H 1257.45 -3.08063 0.530667 0
M  V30 12984 H 1256.67 -2.59399 2.96826 0
M  V30 12985 H 1257.95 -3.68591 3.50739 0
M  V30 12986 H 1257.35 -5.5768 0.949175 0
M  V30 12987 H 1255.91 -6.34993 1.47063 0
M  V30 12988 N 1259.34 -1.34755 -0.817236 0
M  V30 12989 C 1260.29 -1.23351 -1.91751 0
M  V30 12990 C 1261.28 -0.131215 -1.60364 0
M  V30 12991 O 1262.47 -0.361425 -1.73271 0
M  V30 12992 C 1259.6 -0.996932 -3.28506 0
M  V30 12993 C 1258.68 -2.14265 -3.65993 0
M  V30 12994 N 1259.07 -3.39424 -3.75 0
M  V30 12995 C 1257.37 -2.05416 -3.95879 0
M  V30 12996 C 1258.07 -4.14701 -4.07919 0
M  V30 12997 N 1257.05 -3.43349 -4.21441 0
M  V30 12998 H 1260.85 -2.18191 -1.96901 0
M  V30 12999 H 1258.36 -1.27075 -1.01122 0
M  V30 13000 H 1260.36 -0.89613 -4.07155 0
M  V30 13001 H 1259.02 -0.0572789 -3.24649 0
M  V30 13002 H 1260.03 -3.73907 -3.58349 0
M  V30 13003 H 1256.71 -1.19242 -4.0011 0
M  V30 13004 H 1258.1 -5.22808 -4.22044 0
M  V30 13005 N 1260.82 1.03812 -1.18578 0
M  V30 13006 C 1262.24 1.29271 -0.936011 0
M  V30 13007 C 1262.44 1.97551 0.396965 0
M  V30 13008 O 1261.49 2.25769 1.13069 0
M  V30 13009 C 1262.8 2.1489 -2.1034 0
M  V30 13010 C 1264.35 2.28228 -2.14198 0
M  V30 13011 C 1264.83 3.17214 -3.30362 0
M  V30 13012 N 1266.32 3.24802 -3.30239 0
M  V30 13013 C 1267.05 3.9382 -4.16765 0
M  V30 13014 N 1266.55 4.65147 -5.1343 0
M  V30 13015 N 1268.34 3.90125 -4.04671 0
M  V30 13016 H 1260.49 0.579011 -2.04356 0
M  V30 13017 H 1262.76 0.318021 -0.893066 0
M  V30 13018 H 1262.46 1.72029 -3.06755 0
M  V30 13019 H 1262.34 3.15576 -2.06619 0
M  V30 13020 H 1264.72 2.70324 -1.18359 0
M  V30 13021 H 1264.8 1.27124 -2.21976 0
M  V30 13022 H 1264.45 2.75829 -4.26475 0
M  V30 13023 H 1264.38 4.18356 -3.19821 0
M  V30 13024 H 1266.87 2.73994 -2.60261 0
M  V30 13025 H 1267.18 5.15414 -5.7582 0
M  V30 13026 H 1265.53 4.64043 -5.17387 0
M  V30 13027 H 1268.72 3.33536 -3.28438 0
M  V30 13028 H 1268.89 4.43641 -4.7232 0
M  V30 13029 N 1262.3 0.988223 1.22768 0
M  V30 13030 C 1263.55 0.660154 1.91014 0
M  V30 13031 C 1263.87 -0.809788 1.77391 0
M  V30 13032 O 1263.14 -1.57998 1.15817 0
M  V30 13033 H 1261.72 0.24118 0.706995 0
M  V30 13034 H 1264.38 1.25372 1.49224 0
M  V30 13035 H 1263.47 0.918603 2.98275 0
M  V30 13036 N 1263.78 -1.38018 0.760839 0
M  V30 13037 C 1264.71 -2.2899 0.0980916 0
M  V30 13038 C 1265.72 -1.48102 -0.675985 0
M  V30 13039 O 1266.91 -1.70883 -0.515878 0
M  V30 13040 C 1264.01 -3.27142 -0.884959 0
M  V30 13041 C 1263.18 -4.37081 -0.167 0
M  V30 13042 C 1262.24 -5.15375 -1.06184 0
M  V30 13043 O 1261.27 -5.6673 -0.529667 0
M  V30 13044 N 1262.47 -5.29052 -2.38924 0
M  V30 13045 H 1265.23 -2.86508 0.879403 0
M  V30 13046 H 1262.8 -1.49877 0.612245 0
M  V30 13047 H 1264.79 -3.764 -1.48678 0
M  V30 13048 H 1263.36 -2.70471 -1.5673 0
M  V30 13049 H 1262.58 -3.89363 0.615617 0
M  V30 13050 H 1263.87 -5.07732 0.329525 0
M  V30 13051 H 1263.26 -4.88892 -2.84607 0
M  V30 13052 H 1261.82 -5.81658 -2.94139 0
M  V30 13053 N 1265.25 -0.510493 -1.49103 0
M  V30 13054 C 1266.66 -0.0650831 -1.86587 0
M  V30 13055 C 1267.02 1.35185 -1.42195 0
M  V30 13056 O 1266.14 2.0091 -0.804004 0
M  V30 13057 C 1266.74 -0.111333 -3.38617 0
M  V30 13058 C 1265.29 0.278782 -3.75366 0
M  V30 13059 C 1264.44 -0.479707 -2.73119 0
M  V30 13060 H 1267.39 -0.722784 -1.41285 0
M  V30 13061 H 1267.41 0.681706 -3.74343 0
M  V30 13062 H 1266.93 -1.14271 -3.70896 0
M  V30 13063 H 1265.03 1.31304 -3.48698 0
M  V30 13064 H 1265.14 -0.047271 -4.79077 0
M  V30 13065 H 1263.5 0.0716459 -2.54599 0
M  V30 13066 H 1264.29 -1.51135 -3.08242 0
M  V30 13067 N 1266.73 1.55688 -0.24474 0
M  V30 13068 C 1267.66 2.24272 0.64995 0
M  V30 13069 C 1268.64 1.22226 1.183 0
M  V30 13070 O 1269.83 1.50873 1.22274 0
M  V30 13071 C 1266.96 2.94053 1.84798 0
M  V30 13072 C 1265.91 4.02769 1.44779 0
M  V30 13073 C 1265.24 4.59965 2.72647 0
M  V30 13074 C 1266.54 5.18601 0.62047 0
M  V30 13075 H 1268.23 2.99298 0.0780654 0
M  V30 13076 H 1265.78 1.43955 0.0361069 0
M  V30 13077 H 1267.73 3.40732 2.47951 0
M  V30 13078 H 1266.45 2.16511 2.44521 0
M  V30 13079 H 1265.11 3.56856 0.839609 0
M  V30 13080 H 1264.76 3.79126 3.30564 0
M  V30 13081 H 1264.46 5.33352 2.46596 0
M  V30 13082 H 1265.99 5.09376 3.36703 0
M  V30 13083 H 1267.4 5.61519 1.15625 0
M  V30 13084 H 1265.8 5.98364 0.456097 0
M  V30 13085 H 1266.87 4.83503 -0.367798 0
M  V30 13086 N 1268.21 -0.0283989 1.57574 0
M  V30 13087 C 1269.62 -0.574912 1.77628 0
M  V30 13088 C 1269.97 -1.75563 0.875903 0
M  V30 13089 O 1269.1 -2.16284 0.0709141 0
M  V30 13090 C 1269.69 -1.04972 3.22128 0
M  V30 13091 C 1268.25 -1.54175 3.43376 0
M  V30 13092 C 1267.4 -0.480127 2.73112 0
M  V30 13093 H 1270.35 0.197826 1.57462 0
M  V30 13094 H 1270.37 -1.91705 3.28678 0
M  V30 13095 H 1269.88 -0.190173 3.87634 0
M  V30 13096 H 1267.98 -2.42313 2.83046 0
M  V30 13097 H 1268.1 -1.58879 4.51989 0
M  V30 13098 H 1266.46 -0.935314 2.36905 0
M  V30 13099 H 1267.24 0.369973 3.41301 0
M  V30 13100 N 1269.69 -1.54705 -0.300681 0
M  V30 13101 C 1271.1 -1.64998 -0.873654 0
M  V30 13102 C 1271.45 -0.558842 -1.88073 0
M  V30 13103 O 1270.57 0.304474 -2.14247 0
M  V30 13104 C 1271.17 -2.99099 -1.59138 0
M  V30 13105 C 1269.73 -3.11512 -2.11276 0
M  V30 13106 C 1268.88 -2.60681 -0.945551 0
M  V30 13107 H 1271.83 -1.5851 -0.0776752 0
M  V30 13108 H 1271.85 -2.9054 -2.45696 0
M  V30 13109 H 1271.36 -3.78493 -0.858172 0
M  V30 13110 H 1269.46 -2.36838 -2.87643 0
M  V30 13111 H 1269.57 -4.17672 -2.34707 0
M  V30 13112 H 1267.94 -2.17143 -1.33121 0
M  V30 13113 H 1268.72 -3.42553 -0.226291 0
M  V30 13114 N 1271.17 0.563888 -1.47167 0
M  V30 13115 C 1272.44 1.32454 -1.43928 0
M  V30 13116 C 1272.82 2.10683 -0.13267 0
M  V30 13117 O 1272.17 2.1063 0.885845 0
M  V30 13118 C 1272.38 2.2347 -2.68071 0
M  V30 13119 C 1273.73 2.84702 -3.15008 0
M  V30 13120 O 1274.75 2.33775 -2.68752 0
M  V30 13121 O 1273.61 3.77251 -3.95404 0
M  V30 13122 H 1270.71 0.596074 -0.573258 0
M  V30 13123 H 1273.25 0.583345 -1.59359 0
M  V30 13124 H 1272.02 1.6522 -3.54708 0
M  V30 13125 H 1271.65 3.04897 -2.55193 0
M  V30 13126 N 1272.64 1.35187 0.810078 0
M  V30 13127 C 1273.57 1.30481 1.93641 0
M  V30 13128 C 1274.56 0.179875 1.69146 0
M  V30 13129 O 1275.74 0.374284 1.90559 0
M  V30 13130 C 1272.87 1.07251 3.30325 0
M  V30 13131 C 1271.82 2.16348 3.69293 0
M  V30 13132 C 1271.15 1.78288 5.04101 0
M  V30 13133 C 1272.45 3.58285 3.80038 0
M  V30 13134 H 1274.14 2.24725 1.97836 0
M  V30 13135 H 1271.69 1.08179 0.950436 0
M  V30 13136 H 1273.64 1.02599 4.08719 0
M  V30 13137 H 1272.37 0.0945203 3.26463 0
M  V30 13138 H 1271.03 2.2009 2.93182 0
M  V30 13139 H 1270.67 0.791163 4.96739 0
M  V30 13140 H 1270.37 2.51315 5.31144 0
M  V30 13141 H 1271.9 1.75155 5.84938 0
M  V30 13142 H 1273.31 3.56884 4.48672 0
M  V30 13143 H 1271.71 4.30044 4.18548 0
M  V30 13144 H 1272.78 3.94691 2.81685 0
M  V30 13145 N 1274.12 -1.03182 1.19127 0
M  V30 13146 C 1275.05 -2.13301 0.94999 0
M  V30 13147 C 1276.03 -1.69707 -0.115577 0
M  V30 13148 O 1277.22 -1.94161 0.0388395 0
M  V30 13149 C 1274.35 -3.43902 0.484637 0
M  V30 13150 C 1273.3 -4.01164 1.4917 0
M  V30 13151 C 1272.63 -5.2735 0.883537 0
M  V30 13152 C 1273.93 -4.36311 2.87107 0
M  V30 13153 H 1275.62 -2.33743 1.87095 0
M  V30 13154 H 1273.17 -1.12332 0.900977 0
M  V30 13155 H 1275.12 -4.20308 0.30315 0
M  V30 13156 H 1273.85 -3.23173 -0.471909 0
M  V30 13157 H 1272.5 -3.26849 1.66028 0
M  V30 13158 H 1272.15 -5.02936 -0.0804712 0
M  V30 13159 H 1271.85 -5.66624 1.55599 0
M  V30 13160 H 1273.38 -6.06425 0.71278 0
M  V30 13161 H 1274.79 -5.03666 2.73848 0
M  V30 13162 H 1273.19 -4.86659 3.51117 0
M  V30 13163 H 1274.26 -3.45743 3.39985 0
M  V30 13164 N 1275.6 -0.99472 -1.22242 0
M  V30 13165 C 1276.53 -0.504783 -2.23572 0
M  V30 13166 C 1277.55 0.401105 -1.57781 0
M  V30 13167 O 1278.73 0.202948 -1.77343 0
M  V30 13168 C 1275.83 0.287524 -3.37678 0
M  V30 13169 C 1275.01 -0.614941 -4.33056 0
M  V30 13170 C 1274.07 0.125974 -5.26049 0
M  V30 13171 O 1273.09 -0.489234 -5.67094 0
M  V30 13172 N 1274.29 1.40772 -5.63173 0
M  V30 13173 H 1277.06 -1.37612 -2.66238 0
M  V30 13174 H 1274.62 -0.86965 -1.3656 0
M  V30 13175 H 1276.61 0.791884 -3.96877 0
M  V30 13176 H 1275.18 1.05998 -2.9408 0
M  V30 13177 H 1274.4 -1.29994 -3.72149 0
M  V30 13178 H 1275.69 -1.22947 -4.93722 0
M  V30 13179 H 1275.09 1.92884 -5.31801 0
M  V30 13180 H 1273.65 1.85723 -6.2478 0
M  V30 13181 N 1277.08 1.37613 -0.768148 0
M  V30 13182 C 1278.01 2.28935 -0.110234 0
M  V30 13183 C 1279.02 1.48459 0.668122 0
M  V30 13184 O 1280.21 1.71154 0.506808 0
M  V30 13185 C 1277.31 3.27606 0.867598 0
M  V30 13186 C 1276.49 4.37163 0.143819 0
M  V30 13187 C 1275.54 5.15931 1.03449 0
M  V30 13188 O 1274.57 5.67003 0.499605 0
M  V30 13189 N 1275.77 5.30311 2.36114 0
M  V30 13190 H 1278.54 2.86037 -0.894585 0
M  V30 13191 H 1276.1 1.4955 -0.620185 0
M  V30 13192 H 1278.09 3.77183 1.4668 0
M  V30 13193 H 1276.66 2.71298 1.55294 0
M  V30 13194 H 1275.88 3.89031 -0.636257 0
M  V30 13195 H 1277.17 5.0755 -0.356446 0
M  V30 13196 H 1276.57 4.90394 2.82011 0
M  V30 13197 H 1275.12 5.83209 2.9105 0
M  V30 13198 N 1278.56 0.518393 1.4883 0
M  V30 13199 C 1279.52 -0.23983 2.27942 0
M  V30 13200 C 1280.52 -0.878302 1.34694 0
M  V30 13201 O 1281.71 -0.740142 1.57694 0
M  V30 13202 C 1278.84 -1.34581 3.1321 0
M  V30 13203 H 1280.03 0.454599 2.96434 0
M  V30 13204 H 1277.59 0.273932 1.53881 0
M  V30 13205 H 1278.32 -2.07385 2.49323 0
M  V30 13206 H 1278.11 -0.893251 3.8179 0
M  V30 13207 H 1279.6 -1.87944 3.72917 0
M  V30 13208 N 1280.03 -1.55556 0.252993 0
M  V30 13209 C 1280.98 -2.21634 -0.643979 0
M  V30 13210 C 1281.95 -1.18226 -1.1667 0
M  V30 13211 O 1283.14 -1.46694 -1.22006 0
M  V30 13212 C 1280.28 -2.92429 -1.83246 0
M  V30 13213 C 1279.39 -4.10506 -1.34569 0
M  V30 13214 C 1278.52 -4.69001 -2.49421 0
M  V30 13215 C 1277.56 -5.79315 -1.97636 0
M  V30 13216 N 1276.7 -6.31967 -3.05878 0
M  V30 13217 H 1281.54 -2.97909 -0.0738178 0
M  V30 13218 H 1279.08 -1.47079 -0.0246728 0
M  V30 13219 H 1281.04 -3.31678 -2.53072 0
M  V30 13220 H 1279.67 -2.18617 -2.375 0
M  V30 13221 H 1278.72 -3.76529 -0.541268 0
M  V30 13222 H 1280.03 -4.90125 -0.92622 0
M  V30 13223 H 1279.18 -5.10855 -3.27279 0
M  V30 13224 H 1277.92 -3.88612 -2.94673 0
M  V30 13225 H 1276.93 -5.36933 -1.18251 0
M  V30 13226 H 1278.15 -6.6156 -1.53347 0
M  V30 13227 H 1276.1 -5.5448 -3.50553 0
M  V30 13228 H 1276.02 -7.06797 -2.68281 0
M  V30 13229 H 1277.28 -6.7848 -3.83777 0
M  V30 13230 N 1281.51 0.0200419 -1.57587 0
M  V30 13231 C 1282.75 0.713765 -1.91533 0
M  V30 13232 C 1283.12 1.72035 -0.852516 0
M  V30 13233 O 1284.32 2.46299 -1.07658 0
M  V30 13234 C 1282.59 1.35786 -3.30601 0
M  V30 13235 S 1284.15 2.07948 -3.86397 0
M  V30 13236 H 1280.97 0.236249 -0.670602 0
M  V30 13237 H 1283.57 -0.0318313 -1.95474 0
M  V30 13238 H 1282.27 0.612147 -4.05809 0
M  V30 13239 H 1281.8 2.14181 -3.29985 0
M  V30 13240 H 1283.82 3.3521 -3.65853 0
M  V30 13241 N 1282.99 1.54862 0.292472 0
M  V30 13242 C 1283.92 1.89406 1.36556 0
M  V30 13243 C 1284.9 0.753838 1.52484 0
M  V30 13244 O 1286.09 1.01031 1.6585 0
M  V30 13245 C 1283.22 2.14888 2.72838 0
M  V30 13246 C 1282.17 3.3073 2.71665 0
M  V30 13247 C 1281.5 3.41648 4.11316 0
M  V30 13248 C 1282.8 4.67622 2.32651 0
M  V30 13249 H 1284.49 2.79284 1.07894 0
M  V30 13250 H 1282.04 1.34377 0.517585 0
M  V30 13251 H 1283.99 2.3764 3.48002 0
M  V30 13252 H 1282.71 1.2179 3.03042 0
M  V30 13253 H 1281.37 3.07915 1.98958 0
M  V30 13254 H 1281.02 2.46051 4.38711 0
M  V30 13255 H 1280.72 4.19522 4.11431 0
M  V30 13256 H 1282.24 3.6667 4.88248 0
M  V30 13257 H 1283.66 4.90048 2.97533 0
M  V30 13258 H 1282.06 5.48272 2.43963 0
M  V30 13259 H 1283.13 4.67762 1.27777 0
M  V30 13260 N 1284.47 -0.556076 1.47464 0
M  V30 13261 C 1285.72 -1.31061 1.53842 0
M  V30 13262 C 1286.04 -1.93943 0.202806 0
M  V30 13263 O 1285.31 -1.7999 -0.773338 0
M  V30 13264 H 1283.89 -0.486696 0.566689 0
M  V30 13265 H 1286.55 -0.64924 1.83769 0
M  V30 13266 H 1285.65 -2.10354 2.30559 0
M  V30 13267 N 1285.95 -1.35615 -0.802897 0
M  V30 13268 C 1287.19 -1.29094 -1.56016 0
M  V30 13269 C 1287.52 0.133617 -1.9404 0
M  V30 13270 O 1286.78 1.09975 -1.61876 0
M  V30 13271 C 1287.08 -2.14653 -2.8576 0
M  V30 13272 C 1286.74 -3.63395 -2.66936 0
M  V30 13273 C 1285.4 -4.03937 -2.61511 0
M  V30 13274 C 1287.76 -4.57758 -2.49212 0
M  V30 13275 C 1285.08 -5.37006 -2.36309 0
M  V30 13276 C 1287.44 -5.91029 -2.25539 0
M  V30 13277 C 1286.1 -6.30712 -2.18538 0
M  V30 13278 H 1285.37 -0.472387 -0.570904 0
M  V30 13279 H 1288.02 -1.67545 -0.92741 0
M  V30 13280 H 1286.32 -1.69095 -3.53432 0
M  V30 13281 H 1288.02 -2.06941 -3.43477 0
M  V30 13282 H 1284.61 -3.31224 -2.72009 0
M  V30 13283 H 1288.79 -4.27318 -2.52414 0
M  V30 13284 H 1284.05 -5.66748 -2.29361 0
M  V30 13285 H 1288.22 -6.63724 -2.10816 0
M  V30 13286 H 1285.85 -7.33753 -1.98772 0
M  V30 13287 N 1287.43 1.02549 -1.19673 0
M  V30 13288 C 1288.65 1.8016 -1.02748 0
M  V30 13289 C 1289.08 1.83372 0.419105 0
M  V30 13290 O 1288.43 1.26222 1.30144 0
M  V30 13291 C 1288.48 3.22907 -1.60509 0
M  V30 13292 O 1287.59 4.03823 -0.836702 0
M  V30 13293 H 1286.93 0.556027 -0.362946 0
M  V30 13294 H 1289.46 1.29047 -1.5877 0
M  V30 13295 H 1289.47 3.73646 -1.63868 0
M  V30 13296 H 1288.14 3.19885 -2.65794 0
M  V30 13297 H 1286.72 3.6245 -0.876626 0
M  V30 13298 N 1288.9 1.00119 1.21713 0
M  V30 13299 C 1290.18 0.597366 1.86255 0
M  V30 13300 C 1290.56 -0.925124 1.89749 0
M  V30 13301 O 1289.91 -1.8105 1.39402 0
M  V30 13302 C 1290.12 1.22735 3.26707 0
M  V30 13303 C 1291.47 1.33307 4.03131 0
M  V30 13304 O 1292.49 1.18237 3.36003 0
M  V30 13305 O 1291.35 1.57509 5.2331 0
M  V30 13306 H 1288.44 0.204091 0.801421 0
M  V30 13307 H 1290.99 1.09759 1.29426 0
M  V30 13308 H 1289.76 2.26837 3.18843 0
M  V30 13309 H 1289.38 0.713232 3.91151 0
M  V30 13310 N 1290.38 -1.37203 0.775435 0
M  V30 13311 C 1291.33 -2.30228 0.162388 0
M  V30 13312 C 1292.3 -1.51284 -0.685747 0
M  V30 13313 O 1293.48 -1.7984 -0.637342 0
M  V30 13314 C 1290.62 -3.37762 -0.707858 0
M  V30 13315 C 1289.74 -4.31714 0.157287 0
M  V30 13316 C 1288.87 -5.26325 -0.718012 0
M  V30 13317 C 1287.91 -6.11918 0.149442 0
M  V30 13318 N 1287.05 -6.9876 -0.684043 0
M  V30 13319 H 1291.89 -2.82073 0.961184 0
M  V30 13320 H 1289.42 -1.38854 0.485587 0
M  V30 13321 H 1291.38 -3.98741 -1.22726 0
M  V30 13322 H 1290.01 -2.87273 -1.47222 0
M  V30 13323 H 1289.06 -3.7201 0.794533 0
M  V30 13324 H 1290.38 -4.91909 0.826262 0
M  V30 13325 H 1289.53 -5.92526 -1.30376 0
M  V30 13326 H 1288.27 -4.6655 -1.42066 0
M  V30 13327 H 1287.27 -5.44692 0.747697 0
M  V30 13328 H 1288.5 -6.73766 0.849476 0
M  V30 13329 H 1286.45 -6.41508 -1.37124 0
M  V30 13330 H 1286.36 -7.55965 -0.0724464 0
M  V30 13331 H 1287.63 -7.69346 -1.25407 0
M  V30 13332 N 1291.86 -0.526279 -1.48553 0
M  V30 13333 C 1292.79 0.275579 -2.27537 0
M  V30 13334 C 1293.8 0.90782 -1.35139 0
M  V30 13335 O 1294.99 0.786887 -1.6022 0
M  V30 13336 C 1292.09 1.40515 -3.08397 0
M  V30 13337 C 1291.27 0.875523 -4.28548 0
M  V30 13338 C 1290.33 1.88577 -4.91249 0
M  V30 13339 O 1289.35 1.44419 -5.50574 0
M  V30 13340 N 1290.55 3.21774 -4.83158 0
M  V30 13341 H 1293.32 -0.401803 -2.96994 0
M  V30 13342 H 1290.88 -0.360378 -1.57838 0
M  V30 13343 H 1292.87 2.07907 -3.47213 0
M  V30 13344 H 1291.44 1.98626 -2.41384 0
M  V30 13345 H 1290.66 0.025728 -3.94192 0
M  V30 13346 H 1291.95 0.500493 -5.06332 0
M  V30 13347 H 1291.35 3.60319 -4.36104 0
M  V30 13348 H 1289.9 3.84808 -5.26085 0
M  V30 13349 N 1293.34 1.5542 -0.261239 0
M  V30 13350 C 1294.59 1.9846 0.360052 0
M  V30 13351 C 1294.9 1.15288 1.58013 0
M  V30 13352 O 1296.11 1.48408 2.27348 0
M  V30 13353 C 1294.56 3.53185 0.691964 0
M  V30 13354 C 1294.17 4.45116 -0.507521 0
M  V30 13355 C 1295.91 4.04848 1.27665 0
M  V30 13356 C 1293.82 5.91207 -0.150966 0
M  V30 13357 H 1292.75 0.741207 0.138303 0
M  V30 13358 H 1295.4 1.79859 -0.363712 0
M  V30 13359 H 1293.78 3.67535 1.47425 0
M  V30 13360 H 1294.96 4.42531 -1.28465 0
M  V30 13361 H 1293.27 4.04013 -1.0081 0
M  V30 13362 H 1295.87 5.11529 1.55699 0
M  V30 13363 H 1296.21 3.5305 2.20593 0
M  V30 13364 H 1296.75 3.93882 0.556955 0
M  V30 13365 H 1293.48 6.47072 -1.04776 0
M  V30 13366 H 1293 5.96894 0.589671 0
M  V30 13367 H 1294.68 6.4647 0.261772 0
M  V30 13368 N 1294.82 -0.0116844 1.57596 0
M  V30 13369 C 1295.78 -0.991601 2.0664 0
M  V30 13370 C 1296.78 -1.27973 0.973629 0
M  V30 13371 O 1297.97 -1.22686 1.23668 0
M  V30 13372 C 1295.1 -2.31975 2.49801 0
M  V30 13373 H 1296.29 -0.567607 2.9448 0
M  V30 13374 H 1293.85 -0.258906 1.54141 0
M  V30 13375 H 1294.58 -2.79087 1.65169 0
M  V30 13376 H 1294.37 -2.12386 3.29598 0
M  V30 13377 H 1295.86 -3.02294 2.88112 0
M  V30 13378 N 1296.29 -1.55015 -0.284256 0
M  V30 13379 C 1297.22 -1.90128 -1.3555 0
M  V30 13380 C 1298.2 -0.761914 -1.52082 0
M  V30 13381 O 1299.39 -1.01909 -1.65312 0
M  V30 13382 C 1296.52 -2.16332 -2.71695 0
M  V30 13383 C 1295.47 -3.32166 -2.69907 0
M  V30 13384 C 1294.8 -3.43824 -4.09498 0
M  V30 13385 C 1296.1 -4.6885 -2.30168 0
M  V30 13386 H 1297.79 -2.79852 -1.06411 0
M  V30 13387 H 1295.34 -1.34649 -0.510451 0
M  V30 13388 H 1297.29 -2.39482 -3.46737 0
M  V30 13389 H 1296.02 -1.23395 -3.02392 0
M  V30 13390 H 1294.68 -3.08965 -1.97322 0
M  V30 13391 H 1294.32 -2.48375 -4.374 0
M  V30 13392 H 1294.02 -4.21698 -4.092 0
M  V30 13393 H 1295.55 -3.69254 -4.86296 0
M  V30 13394 H 1296.96 -4.91619 -2.9493 0
M  V30 13395 H 1295.36 -5.49558 -2.41052 0
M  V30 13396 H 1296.43 -4.68433 -1.25294 0
M  V30 13397 N 1297.77 0.548248 -1.47757 0
M  V30 13398 C 1298.73 1.63666 -1.60456 0
M  V30 13399 C 1299.73 1.53499 -0.479028 0
M  V30 13400 O 1300.92 1.57497 -0.744342 0
M  V30 13401 C 1298.06 3.03239 -1.55754 0
M  V30 13402 H 1299.25 1.53752 -2.57488 0
M  V30 13403 H 1296.8 0.768881 -1.36081 0
M  V30 13404 H 1297.54 3.18677 -0.601303 0
M  V30 13405 H 1297.32 3.12027 -2.37448 0
M  V30 13406 H 1298.81 3.82406 -1.67797 0
M  V30 13407 N 1299.25 1.36039 0.795694 0
M  V30 13408 C 1300.5 1.30112 1.5556 0
M  V30 13409 C 1300.83 -0.121197 1.93821 0
M  V30 13410 O 1300.1 -1.07313 1.62216 0
M  V30 13411 C 1300.39 2.21792 2.8369 0
M  V30 13412 C 1300.24 3.72691 2.51836 0
M  V30 13413 C 1301.56 2.12365 3.85472 0
M  V30 13414 H 1298.68 0.473971 0.564376 0
M  V30 13415 H 1301.32 1.66536 0.91465 0
M  V30 13416 H 1299.47 1.9086 3.38386 0
M  V30 13417 H 1301.14 4.14115 2.0324 0
M  V30 13418 H 1299.38 3.92436 1.84869 0
M  V30 13419 H 1300.06 4.32242 3.43323 0
M  V30 13420 H 1302.53 2.3958 3.40207 0
M  V30 13421 H 1301.41 2.78695 4.72885 0
M  V30 13422 H 1301.67 1.10898 4.27965 0
M  V30 13423 N 1300.73 -1.01913 1.20215 0
M  V30 13424 C 1301.66 -2.12282 0.97256 0
M  V30 13425 C 1302.64 -1.6982 -0.0975709 0
M  V30 13426 O 1303.82 -1.94109 0.0594307 0
M  V30 13427 C 1300.95 -3.43369 0.521085 0
M  V30 13428 C 1299.91 -3.99559 1.53417 0
M  V30 13429 C 1299.23 -5.26383 0.93942 0
M  V30 13430 C 1300.53 -4.33241 2.91718 0
M  V30 13431 H 1302.23 -2.31746 1.89563 0
M  V30 13432 H 1299.77 -1.1137 0.912841 0
M  V30 13433 H 1301.73 -4.19963 0.347713 0
M  V30 13434 H 1300.45 -3.23655 -0.437605 0
M  V30 13435 H 1299.11 -3.25069 1.69486 0
M  V30 13436 H 1298.76 -5.02993 -0.0271236 0
M  V30 13437 H 1298.46 -5.64942 1.616 0
M  V30 13438 H 1299.98 -6.05635 0.777059 0
M  V30 13439 H 1301.4 -5.00734 2.79175 0
M  V30 13440 H 1299.79 -4.82907 3.56259 0
M  V30 13441 H 1300.86 -3.42118 3.43633 0
M  V30 13442 N 1302.21 -1.00763 -1.2118 0
M  V30 13443 C 1303.43 -0.710515 -1.9485 0
M  V30 13444 C 1303.86 0.720934 -1.73736 0
M  V30 13445 O 1303.21 1.49484 -1.02588 0
M  V30 13446 C 1303.26 -1.04035 -3.45267 0
M  V30 13447 O 1302.37 -0.147047 -4.12138 0
M  V30 13448 H 1301.71 -0.264472 -0.609057 0
M  V30 13449 H 1304.24 -1.34858 -1.53865 0
M  V30 13450 H 1304.25 -0.9883 -3.95849 0
M  V30 13451 H 1302.92 -2.08334 -3.59958 0
M  V30 13452 H 1301.5 -0.255847 -3.72021 0
M  V30 13453 N 1303.68 1.3679 -0.7827 0
M  V30 13454 C 1304.91 2.03678 -0.363734 0
M  V30 13455 C 1305.33 1.59024 1.01768 0
M  V30 13456 O 1304.68 0.776541 1.65155 0
M  V30 13457 C 1304.74 3.59165 -0.410213 0
M  V30 13458 O 1304.46 4.02188 -1.73714 0
M  V30 13459 C 1305.96 4.43296 0.018972 0
M  V30 13460 H 1303.18 0.653828 -0.150829 0
M  V30 13461 H 1305.72 1.74903 -1.05968 0
M  V30 13462 H 1303.88 3.86673 0.237249 0
M  V30 13463 H 1304.29 4.96754 -1.68332 0
M  V30 13464 H 1305.76 5.51962 -0.0646943 0
M  V30 13465 H 1306.24 4.25948 1.07076 0
M  V30 13466 H 1306.85 4.21036 -0.600721 0
M  V30 13467 N 1305.16 0.53415 1.48272 0
M  V30 13468 C 1306.07 -0.230062 2.33469 0
M  V30 13469 C 1307.09 -0.934889 1.46751 0
M  V30 13470 O 1308.26 -0.908921 1.79724 0
M  V30 13471 C 1305.33 -1.2609 3.22958 0
M  V30 13472 C 1304.39 -0.565983 4.25553 0
M  V30 13473 C 1303.62 -1.54771 5.10766 0
M  V30 13474 O 1303.85 -2.7807 4.9803 0
M  V30 13475 O 1302.78 -1.08482 5.92043 0
M  V30 13476 H 1306.61 0.468182 3.0007 0
M  V30 13477 H 1304.19 0.29502 1.46458 0
M  V30 13478 H 1306.07 -1.85652 3.783 0
M  V30 13479 H 1304.75 -1.94148 2.59014 0
M  V30 13480 H 1303.66 0.0702391 3.74034 0
M  V30 13481 H 1304.99 0.0727277 4.92146 0
M  V30 13482 N 1306.64 -1.55279 0.269478 0
M  V30 13483 C 1307.57 -2.25278 -0.614188 0
M  V30 13484 C 1308.55 -1.24092 -1.1634 0
M  V30 13485 O 1309.74 -1.52799 -1.19858 0
M  V30 13486 C 1306.87 -2.96956 -1.80096 0
M  V30 13487 C 1305.82 -4.05021 -1.38353 0
M  V30 13488 C 1305.15 -4.64244 -2.65295 0
M  V30 13489 C 1306.45 -5.19523 -0.537886 0
M  V30 13490 H 1308.14 -2.99385 -0.0304397 0
M  V30 13491 H 1305.69 -1.43994 -0.0132004 0
M  V30 13492 H 1307.64 -3.44633 -2.42499 0
M  V30 13493 H 1306.36 -2.20374 -2.41045 0
M  V30 13494 H 1305.02 -3.58146 -0.78273 0
M  V30 13495 H 1304.67 -3.84337 -3.2449 0
M  V30 13496 H 1304.37 -5.37208 -2.38079 0
M  V30 13497 H 1305.89 -5.14668 -3.28557 0
M  V30 13498 H 1307.31 -5.63287 -1.06677 0
M  V30 13499 H 1305.71 -5.99014 -0.360845 0
M  V30 13500 H 1306.78 -4.82857 0.444672 0
M  V30 13501 N 1308.12 0.00332656 -1.576 0
M  V30 13502 C 1309.08 0.980628 -2.07163 0
M  V30 13503 C 1310.08 1.27455 -0.980402 0
M  V30 13504 O 1311.27 1.22029 -1.24317 0
M  V30 13505 C 1308.4 2.30647 -2.51028 0
M  V30 13506 H 1309.6 0.551982 -2.94776 0
M  V30 13507 H 1307.15 0.250728 -1.54276 0
M  V30 13508 H 1307.88 2.78207 -1.66647 0
M  V30 13509 H 1307.67 2.10635 -3.30719 0
M  V30 13510 H 1309.16 3.00761 -2.89711 0
M  V30 13511 N 1309.6 1.55164 0.276031 0
M  V30 13512 C 1310.84 1.75887 1.00953 0
M  V30 13513 C 1311.18 0.5567 1.8605 0
M  V30 13514 O 1310.45 -0.445799 1.89322 0
M  V30 13515 C 1310.73 3.06228 1.89463 0
M  V30 13516 C 1310.59 4.36795 1.07379 0
M  V30 13517 C 1311.91 3.32589 2.88223 0
M  V30 13518 H 1309.02 0.639929 0.365596 0
M  V30 13519 H 1311.67 1.87893 0.282156 0
M  V30 13520 H 1309.82 2.96124 2.51481 0
M  V30 13521 H 1311.49 4.58853 0.474549 0
M  V30 13522 H 1309.73 4.32157 0.377165 0
M  V30 13523 H 1310.4 5.24315 1.72621 0
M  V30 13524 H 1312.88 3.42467 2.36338 0
M  V30 13525 H 1311.75 4.2506 3.47297 0
M  V30 13526 H 1312.02 2.52083 3.6319 0
M  V30 13527 N 1311.07 -0.540404 1.48045 0
M  V30 13528 C 1312.49 -0.867958 1.33935 0
M  V30 13529 C 1312.69 -1.98568 0.342488 0
M  V30 13530 O 1311.75 -2.51357 -0.240022 0
M  V30 13531 C 1313.06 -1.24532 2.73701 0
M  V30 13532 C 1314.61 -1.3558 2.82112 0
M  V30 13533 C 1315.08 -1.76664 4.22556 0
M  V30 13534 N 1316.57 -1.83785 4.25179 0
M  V30 13535 C 1317.31 -2.16938 5.30778 0
M  V30 13536 N 1316.8 -2.48587 6.46666 0
M  V30 13537 N 1318.6 -2.17855 5.18166 0
M  V30 13538 H 1310.75 0.197251 2.11482 0
M  V30 13539 H 1313.01 0.0255947 0.947654 0
M  V30 13540 H 1312.72 -0.497731 3.4816 0
M  V30 13541 H 1312.59 -2.19779 3.06556 0
M  V30 13542 H 1314.98 -2.09417 2.07915 0
M  V30 13543 H 1315.06 -0.384787 2.52889 0
M  V30 13544 H 1314.7 -1.03391 4.97265 0
M  V30 13545 H 1314.63 -2.74797 4.49215 0
M  V30 13546 H 1317.12 -1.61645 3.41583 0
M  V30 13547 H 1317.44 -2.72959 7.22989 0
M  V30 13548 H 1315.78 -2.4613 6.49958 0
M  V30 13549 H 1318.97 -1.9258 4.2665 0
M  V30 13550 H 1319.15 -2.43361 6.00566 0
M  V30 13551 N 1312.55 -1.36459 -0.788468 0
M  V30 13552 C 1313.5 -1.30863 -1.90115 0
M  V30 13553 C 1314.47 -0.177148 -1.65153 0
M  V30 13554 O 1315.65 -0.363817 -1.87299 0
M  V30 13555 C 1312.79 -1.10473 -3.2694 0
M  V30 13556 C 1311.91 -2.32704 -3.63968 0
M  V30 13557 C 1311.04 -2.05319 -4.89916 0
M  V30 13558 C 1310.08 -3.23506 -5.19625 0
M  V30 13559 N 1309.22 -2.9578 -6.36756 0
M  V30 13560 H 1314.06 -2.26003 -1.94233 0
M  V30 13561 H 1311.6 -1.12324 -0.949827 0
M  V30 13562 H 1313.55 -0.966773 -4.05844 0
M  V30 13563 H 1312.18 -0.189873 -3.22241 0
M  V30 13564 H 1311.24 -2.573 -2.8018 0
M  V30 13565 H 1312.55 -3.20899 -3.81871 0
M  V30 13566 H 1311.7 -1.88459 -5.76687 0
M  V30 13567 H 1310.44 -1.14437 -4.74084 0
M  V30 13568 H 1309.45 -3.40924 -4.31336 0
M  V30 13569 H 1310.67 -4.15216 -5.37376 0
M  V30 13570 H 1308.62 -2.0751 -6.22315 0
M  V30 13571 H 1308.53 -3.77513 -6.54996 0
M  V30 13572 H 1309.8 -2.825 -7.26508 0
M  V30 13573 N 1314.03 1.01274 -1.20754 0
M  V30 13574 C 1314.96 2.11763 -0.983805 0
M  V30 13575 C 1315.94 1.69869 0.0885635 0
M  V30 13576 O 1317.13 1.94075 -0.0697239 0
M  V30 13577 C 1314.26 3.43087 -0.539287 0
M  V30 13578 C 1313.21 3.9874 -1.55534 0
M  V30 13579 C 1312.54 5.25877 -0.967322 0
M  V30 13580 C 1313.84 4.31688 -2.94012 0
M  V30 13581 H 1315.53 2.30737 -1.90789 0
M  V30 13582 H 1313.08 1.10884 -0.918734 0
M  V30 13583 H 1315.03 4.19773 -0.369979 0
M  V30 13584 H 1313.75 3.23883 0.420435 0
M  V30 13585 H 1312.41 3.24166 -1.71207 0
M  V30 13586 H 1312.06 5.03 0.000448307 0
M  V30 13587 H 1311.76 5.64077 -1.64594 0
M  V30 13588 H 1313.28 6.05215 -0.809167 0
M  V30 13589 H 1314.7 4.99246 -2.81827 0
M  V30 13590 H 1313.1 4.81011 -3.58815 0
M  V30 13591 H 1314.17 3.4029 -3.45442 0
M  V30 13592 N 1315.51 1.01404 1.20644 0
M  V30 13593 C 1316.93 0.728446 1.42006 0
M  V30 13594 C 1317.13 -0.692894 1.89212 0
M  V30 13595 O 1316.18 -1.46101 2.05939 0
M  V30 13596 C 1317.49 1.75198 2.44389 0
M  V30 13597 C 1319.04 1.76983 2.58159 0
M  V30 13598 C 1319.52 2.78256 3.63782 0
M  V30 13599 N 1321.01 2.7698 3.71263 0
M  V30 13600 C 1321.74 3.51999 4.52641 0
M  V30 13601 N 1321.24 4.36687 5.37844 0
M  V30 13602 N 1323.03 3.40608 4.47149 0
M  V30 13603 H 1315.18 1.93168 0.883172 0
M  V30 13604 H 1317.45 0.834287 0.450187 0
M  V30 13605 H 1317.15 2.77013 2.16695 0
M  V30 13606 H 1317.03 1.56203 3.43337 0
M  V30 13607 H 1319.41 0.758551 2.85184 0
M  V30 13608 H 1319.49 2.00051 1.59415 0
M  V30 13609 H 1319.14 3.79546 3.37501 0
M  V30 13610 H 1319.07 2.5245 4.62143 0
M  V30 13611 H 1321.56 2.15546 3.104 0
M  V30 13612 H 1321.87 4.90703 5.97018 0
M  V30 13613 H 1320.22 4.40766 5.37355 0
M  V30 13614 H 1323.41 2.73872 3.79621 0
M  V30 13615 H 1323.58 3.99327 5.10335 0
M  V30 13616 N 1316.99 -1.36373 0.789944 0
M  V30 13617 C 1317.92 -2.2873 0.146642 0
M  V30 13618 C 1318.93 -1.49503 -0.644419 0
M  V30 13619 O 1320.12 -1.71939 -0.479515 0
M  V30 13620 C 1317.22 -3.28945 -0.815369 0
M  V30 13621 C 1316.39 -4.37337 -0.0742515 0
M  V30 13622 C 1315.45 -5.17511 -0.952284 0
M  V30 13623 O 1314.48 -5.67726 -0.409336 0
M  V30 13624 N 1315.68 -5.34001 -2.27648 0
M  V30 13625 H 1318.45 -2.84578 0.939978 0
M  V30 13626 H 1316.01 -1.48545 0.643898 0
M  V30 13627 H 1318 -3.79469 -1.40661 0
M  V30 13628 H 1316.57 -2.73734 -1.50958 0
M  V30 13629 H 1315.79 -3.8797 0.698068 0
M  V30 13630 H 1317.08 -5.06919 0.437148 0
M  V30 13631 H 1316.48 -4.94819 -2.74173 0
M  V30 13632 H 1315.03 -5.87766 -2.81735 0
M  V30 13633 N 1318.47 -0.542005 -1.47987 0
M  V30 13634 C 1319.38 0.217677 -2.33588 0
M  V30 13635 C 1320.39 0.927093 -1.47245 0
M  V30 13636 O 1321.57 0.899378 -1.80203 0
M  V30 13637 C 1318.63 1.24376 -3.23622 0
M  V30 13638 C 1317.69 0.543407 -4.25847 0
M  V30 13639 C 1316.93 1.5206 -5.11579 0
M  V30 13640 O 1317.15 2.75425 -4.99497 0
M  V30 13641 O 1316.08 1.05341 -5.9261 0
M  V30 13642 H 1319.91 -0.484089 -2.99817 0
M  V30 13643 H 1317.49 -0.302783 -1.463 0
M  V30 13644 H 1319.38 1.83644 -3.7928 0
M  V30 13645 H 1318.05 1.92772 -2.6004 0
M  V30 13646 H 1316.96 -0.090074 -3.73992 0
M  V30 13647 H 1318.29 -0.0988264 -4.92101 0
M  V30 13648 N 1319.94 1.55134 -0.277709 0
M  V30 13649 C 1320.87 2.256 0.602232 0
M  V30 13650 C 1321.85 1.24708 1.15681 0
M  V30 13651 O 1323.04 1.53433 1.19046 0
M  V30 13652 C 1320.17 2.97907 1.78519 0
M  V30 13653 C 1319.12 4.0575 1.36203 0
M  V30 13654 C 1318.45 4.65644 2.62829 0
M  V30 13655 C 1319.75 5.19801 0.510327 0
M  V30 13656 H 1321.44 2.99396 0.0145622 0
M  V30 13657 H 1318.99 1.43999 0.00556389 0
M  V30 13658 H 1320.94 3.45915 2.40668 0
M  V30 13659 H 1319.67 2.21649 2.39873 0
M  V30 13660 H 1318.33 3.58557 0.763726 0
M  V30 13661 H 1317.97 3.86053 3.22447 0
M  V30 13662 H 1317.67 5.38463 2.35227 0
M  V30 13663 H 1319.2 5.16403 3.25823 0
M  V30 13664 H 1320.61 5.63845 1.03689 0
M  V30 13665 H 1319.01 5.99197 0.329073 0
M  V30 13666 H 1320.08 4.82614 -0.470273 0
M  V30 13667 N 1321.42 0.00503138 1.57599 0
M  V30 13668 C 1322.67 -0.67742 1.90409 0
M  V30 13669 C 1322.99 -1.74033 0.87963 0
M  V30 13670 O 1322.26 -1.95727 -0.0822757 0
M  V30 13671 H 1320.84 -0.2532 0.702779 0
M  V30 13672 H 1323.5 0.0471466 1.94843 0
M  V30 13673 H 1322.6 -1.14548 2.90319 0
M  V30 13674 N 1322.9 -1.55308 -0.267798 0
M  V30 13675 C 1324.15 -1.75364 -0.996515 0
M  V30 13676 C 1324.46 -0.565028 -1.87261 0
M  V30 13677 O 1325.67 -0.648119 -2.63651 0
M  V30 13678 C 1324.12 -3.10388 -1.82175 0
M  V30 13679 C 1323.73 -4.36832 -0.994062 0
M  V30 13680 C 1325.48 -3.39791 -2.54445 0
M  V30 13681 C 1323.38 -5.62893 -1.81398 0
M  V30 13682 H 1322.31 -0.653679 -0.375793 0
M  V30 13683 H 1324.96 -1.81762 -0.251975 0
M  V30 13684 H 1323.35 -2.98041 -2.60744 0
M  V30 13685 H 1324.52 -4.6011 -0.252167 0
M  V30 13686 H 1322.83 -4.1461 -0.385662 0
M  V30 13687 H 1325.43 -4.31184 -3.16203 0
M  V30 13688 H 1325.77 -2.60159 -3.24997 0
M  V30 13689 H 1326.31 -3.53259 -1.82902 0
M  V30 13690 H 1323.05 -6.45287 -1.15258 0
M  V30 13691 H 1322.57 -5.43751 -2.5317 0
M  V30 13692 H 1324.25 -6.01384 -2.38634 0
M  V30 13693 N 1324.38 0.532545 -1.4833 0
M  V30 13694 C 1325.62 1.29902 -1.57812 0
M  V30 13695 C 1325.98 1.90427 -0.245283 0
M  V30 13696 O 1327.18 2.67938 -0.215083 0
M  V30 13697 C 1325.45 2.36119 -2.68296 0
M  V30 13698 S 1327.01 3.22526 -2.97527 0
M  V30 13699 H 1323.83 0.441908 -0.55699 0
M  V30 13700 H 1326.43 0.606983 -1.85839 0
M  V30 13701 H 1325.14 1.90131 -3.63701 0
M  V30 13702 H 1324.67 3.10033 -2.42163 0
M  V30 13703 H 1326.68 4.36144 -2.36628 0
M  V30 13704 N 1325.86 1.36875 0.78122 0
M  V30 13705 C 1327.27 1.28236 1.35692 0
M  V30 13706 C 1327.62 -0.0742286 1.9606 0
M  V30 13707 O 1326.74 -0.97588 1.93146 0
M  V30 13708 C 1327.34 2.32215 2.46702 0
M  V30 13709 C 1325.9 2.2724 3.00065 0
M  V30 13710 C 1325.04 2.16553 1.73206 0
M  V30 13711 H 1327.99 1.47634 0.582217 0
M  V30 13712 H 1328.02 1.96333 3.25935 0
M  V30 13713 H 1327.53 3.30938 2.02735 0
M  V30 13714 H 1325.63 1.3201 3.48431 0
M  V30 13715 H 1325.74 3.20267 3.56323 0
M  V30 13716 H 1324.11 1.62941 1.95761 0
M  V30 13717 H 1324.89 3.17176 1.31356 0
M  V30 13718 N 1327.33 -1.00632 1.21289 0
M  V30 13719 C 1328.3 -2.07543 0.972548 0
M  V30 13720 C 1329.3 -1.60703 -0.0559244 0
M  V30 13721 O 1330.49 -1.73255 0.181213 0
M  V30 13722 C 1327.62 -3.37696 0.466297 0
M  V30 13723 H 1328.81 -2.30298 1.92101 0
M  V30 13724 H 1326.36 -1.17588 1.02969 0
M  V30 13725 H 1327.1 -3.2062 -0.487148 0
M  V30 13726 H 1326.88 -3.73024 1.20813 0
M  V30 13727 H 1328.37 -4.16388 0.317962 0
M  V30 13728 N 1328.81 -1.02043 -1.20104 0
M  V30 13729 C 1330.06 -0.713027 -1.89852 0
M  V30 13730 C 1330.39 0.755767 -1.7889 0
M  V30 13731 O 1329.67 1.54948 -1.17564 0
M  V30 13732 C 1329.95 -1.15417 -3.41103 0
M  V30 13733 C 1329.8 -2.68355 -3.60979 0
M  V30 13734 C 1331.12 -0.728389 -4.34031 0
M  V30 13735 H 1328.24 -0.260502 -0.689426 0
M  V30 13736 H 1330.88 -1.26885 -1.41422 0
M  V30 13737 H 1329.03 -0.68127 -3.8248 0
M  V30 13738 H 1330.7 -3.23526 -3.28829 0
M  V30 13739 H 1328.95 -3.09148 -3.04319 0
M  V30 13740 H 1329.62 -2.94276 -4.67018 0
M  V30 13741 H 1332.09 -1.13499 -4.00321 0
M  V30 13742 H 1330.97 -1.06504 -5.38468 0
M  V30 13743 H 1331.23 0.369736 -4.40551 0
M  V30 13744 N 1330.29 1.35952 -0.797165 0
M  V30 13745 C 1331.24 2.29941 -0.198995 0
M  V30 13746 C 1332.21 1.52355 0.661592 0
M  V30 13747 O 1333.39 1.80832 0.60865 0
M  V30 13748 C 1330.53 3.38846 0.654033 0
M  V30 13749 C 1329.65 4.31409 -0.225949 0
M  V30 13750 C 1328.78 5.27401 0.634188 0
M  V30 13751 C 1327.82 6.11602 -0.246773 0
M  V30 13752 N 1326.96 6.9976 0.57279 0
M  V30 13753 H 1331.8 2.80508 -1.00594 0
M  V30 13754 H 1329.33 1.38064 -0.507617 0
M  V30 13755 H 1331.29 4.00643 1.16367 0
M  V30 13756 H 1329.92 2.89578 1.42633 0
M  V30 13757 H 1328.97 3.70699 -0.853616 0
M  V30 13758 H 1330.29 4.90532 -0.904416 0
M  V30 13759 H 1329.44 5.94525 1.20933 0
M  V30 13760 H 1328.18 4.68751 1.34625 0
M  V30 13761 H 1327.18 5.43434 -0.834258 0
M  V30 13762 H 1328.41 6.72329 -0.956559 0
M  V30 13763 H 1326.35 6.43609 1.26901 0
M  V30 13764 H 1326.27 7.55985 -0.0478303 0
M  V30 13765 H 1327.54 7.71244 1.13151 0
M  V30 13766 N 1331.77 0.549846 1.47697 0
M  V30 13767 C 1332.7 -0.239345 2.27947 0
M  V30 13768 C 1333.71 -0.886206 1.36566 0
M  V30 13769 O 1334.9 -0.761298 1.61451 0
M  V30 13770 C 1332 -1.35591 3.10593 0
M  V30 13771 C 1331.18 -0.807234 4.29887 0
M  V30 13772 C 1330.23 -1.80738 4.94187 0
M  V30 13773 O 1329.26 -1.35641 5.52802 0
M  V30 13774 N 1330.46 -3.14046 4.88216 0
M  V30 13775 H 1333.23 0.449001 2.96318 0
M  V30 13776 H 1330.79 0.385443 1.57245 0
M  V30 13777 H 1332.78 -2.02356 3.50477 0
M  V30 13778 H 1331.35 -1.94761 2.44514 0
M  V30 13779 H 1330.57 0.0369877 3.94183 0
M  V30 13780 H 1331.86 -0.419877 5.07065 0
M  V30 13781 H 1331.26 -3.53335 4.41781 0
M  V30 13782 H 1329.81 -3.7639 5.32141 0
M  V30 13783 N 1333.25 -1.54984 0.285932 0
M  V30 13784 C 1334.5 -1.99008 -0.328433 0
M  V30 13785 C 1334.81 -1.17787 -1.56158 0
M  V30 13786 O 1336.01 -1.52006 -2.24959 0
M  V30 13787 C 1334.47 -3.54241 -0.635688 0
M  V30 13788 C 1334.08 -4.44252 0.578271 0
M  V30 13789 C 1335.82 -4.06828 -1.21208 0
M  V30 13790 C 1333.73 -5.90892 0.245003 0
M  V30 13791 H 1332.66 -0.743314 -0.126494 0
M  V30 13792 H 1335.31 -1.79258 0.39228 0
M  V30 13793 H 1333.69 -3.69834 -1.41559 0
M  V30 13794 H 1334.87 -4.40431 1.35489 0
M  V30 13795 H 1333.18 -4.02358 1.07225 0
M  V30 13796 H 1335.78 -5.13941 -1.47542 0
M  V30 13797 H 1336.12 -3.56515 -2.14948 0
M  V30 13798 H 1336.65 -3.94718 -0.494222 0
M  V30 13799 H 1333.39 -6.45323 1.15057 0
M  V30 13800 H 1332.91 -5.97757 -0.494636 0
M  V30 13801 H 1334.59 -6.46805 -0.158891 0
M  V30 13802 N 1334.72 -0.0133892 -1.57594 0
M  V30 13803 C 1336 0.706416 -1.82398 0
M  V30 13804 C 1336.38 1.91236 -0.893983 0
M  V30 13805 O 1335.73 2.28436 0.0541675 0
M  V30 13806 C 1335.94 1.09951 -3.31228 0
M  V30 13807 C 1337.29 1.49776 -3.97306 0
M  V30 13808 O 1338.31 1.19293 -3.3563 0
M  V30 13809 O 1337.17 2.06511 -5.0598 0
M  V30 13810 H 1334.26 0.345131 -0.751541 0
M  V30 13811 H 1336.81 -0.0398687 -1.69653 0
M  V30 13812 H 1335.58 0.240514 -3.9056 0
M  V30 13813 H 1335.21 1.90447 -3.49021 0
M  V30 13814 N 1336.2 1.55448 0.259558 0
M  V30 13815 C 1337.43 1.80727 1.00723 0
M  V30 13816 C 1337.85 0.587354 1.79431 0
M  V30 13817 O 1337.2 -0.443819 1.77021 0
M  V30 13818 C 1337.25 3.04064 1.95517 0
M  V30 13819 O 1336.97 4.21346 1.19996 0
M  V30 13820 C 1338.48 3.42049 2.81988 0
M  V30 13821 H 1335.7 0.601713 0.296956 0
M  V30 13822 H 1338.24 2.02486 0.286273 0
M  V30 13823 H 1336.39 2.84392 2.63058 0
M  V30 13824 H 1336.81 4.91164 1.84006 0
M  V30 13825 H 1338.28 4.31485 3.44274 0
M  V30 13826 H 1338.76 2.62059 3.52451 0
M  V30 13827 H 1339.37 3.64027 2.19918 0
M  V30 13828 N 1337.68 -0.524672 1.4861 0
M  V30 13829 C 1338.93 -1.28211 1.5713 0
M  V30 13830 C 1339.26 -1.92626 0.246751 0
M  V30 13831 O 1338.53 -1.79553 -0.747725 0
M  V30 13832 C 1338.82 -2.36737 2.71344 0
M  V30 13833 C 1338.67 -1.76978 4.1352 0
M  V30 13834 C 1339.99 -3.3847 2.81294 0
M  V30 13835 H 1337.11 -0.46479 0.571961 0
M  V30 13836 H 1339.75 -0.583937 1.80804 0
M  V30 13837 H 1337.9 -2.96287 2.51289 0
M  V30 13838 H 1339.57 -1.21438 4.45029 0
M  V30 13839 H 1337.82 -1.07488 4.20272 0
M  V30 13840 H 1338.49 -2.55583 4.89266 0
M  V30 13841 H 1340.96 -2.88882 2.99477 0
M  V30 13842 H 1339.84 -4.11795 3.62928 0
M  V30 13843 H 1340.1 -3.99347 1.89669 0
M  V30 13844 N 1339.16 -1.37287 -0.77395 0
M  V30 13845 C 1340.12 -1.32699 -1.86878 0
M  V30 13846 C 1341.12 -0.231486 -1.59125 0
M  V30 13847 O 1342.31 -0.487203 -1.67248 0
M  V30 13848 C 1339.44 -1.0609 -3.23972 0
M  V30 13849 H 1340.64 -2.30083 -1.92359 0
M  V30 13850 H 1338.19 -1.22284 -0.973459 0
M  V30 13851 H 1338.92 -0.0922868 -3.24169 0
M  V30 13852 H 1338.71 -1.85383 -3.45508 0
M  V30 13853 H 1340.2 -1.05524 -4.04048 0
M  V30 13854 N 1340.64 0.999871 -1.21821 0
M  V30 13855 C 1341.6 2.07024 -0.983541 0
M  V30 13856 C 1342.6 1.6073 0.0474011 0
M  V30 13857 O 1343.79 1.73156 -0.190398 0
M  V30 13858 C 1340.92 3.37444 -0.484199 0
M  V30 13859 H 1342.11 2.29276 -1.9332 0
M  V30 13860 H 1339.67 1.1704 -1.03592 0
M  V30 13861 H 1340.4 3.20874 0.470138 0
M  V30 13862 H 1340.19 3.72378 -1.2279 0
M  V30 13863 H 1341.68 4.16213 -0.34004 0
M  V30 13864 N 1342.11 1.02678 1.19562 0
M  V30 13865 C 1343.02 0.615738 2.26375 0
M  V30 13866 C 1344.04 -0.351525 1.70412 0
M  V30 13867 O 1345.22 -0.209932 2.00303 0
M  V30 13868 C 1342.28 -0.0292135 3.46688 0
M  V30 13869 C 1341.34 0.985284 4.1784 0
M  V30 13870 C 1340.58 0.371016 5.32409 0
M  V30 13871 O 1340.8 -0.826591 5.64379 0
M  V30 13872 O 1339.73 1.09282 5.91896 0
M  V30 13873 H 1343.56 1.50526 2.63772 0
M  V30 13874 H 1341.14 0.796847 1.26375 0
M  V30 13875 H 1343.03 -0.38893 4.19601 0
M  V30 13876 H 1341.7 -0.892778 3.11145 0
M  V30 13877 H 1340.61 1.39655 3.47055 0
M  V30 13878 H 1341.94 1.81915 4.57349 0
M  V30 13879 N 1343.59 -1.35528 0.804364 0
M  V30 13880 C 1344.84 -1.9956 0.393383 0
M  V30 13881 C 1345.19 -1.62667 -1.02749 0
M  V30 13882 O 1344.49 -0.87869 -1.70263 0
M  V30 13883 C 1344.68 -3.5372 0.511571 0
M  V30 13884 C 1344.51 -4.05588 1.94238 0
M  V30 13885 C 1343.28 -4.35046 2.57027 0
M  V30 13886 C 1345.48 -4.24287 2.90663 0
M  V30 13887 N 1343.46 -4.7283 3.91541 0
M  V30 13888 C 1344.83 -4.65043 4.10043 0
M  V30 13889 C 1346.89 -4.0649 2.87524 0
M  V30 13890 C 1345.59 -4.89864 5.26712 0
M  V30 13891 C 1347.61 -4.32467 4.03394 0
M  V30 13892 C 1346.98 -4.73492 5.21521 0
M  V30 13893 H 1343.08 -0.758146 0.191674 0
M  V30 13894 H 1345.66 -1.64271 1.04513 0
M  V30 13895 H 1343.83 -3.88244 -0.110174 0
M  V30 13896 H 1345.56 -4.0463 0.0753915 0
M  V30 13897 H 1342.32 -4.25285 2.08397 0
M  V30 13898 H 1342.74 -4.95985 4.6079 0
M  V30 13899 H 1347.38 -3.73916 1.97349 0
M  V30 13900 H 1345.1 -5.21313 6.17461 0
M  V30 13901 H 1348.69 -4.20252 4.02343 0
M  V30 13902 H 1347.57 -4.93201 6.09691 0
M  V30 13903 N 1345.07 -0.557671 -1.47404 0
M  V30 13904 C 1346.48 -0.124411 -1.86285 0
M  V30 13905 C 1346.83 1.30593 -1.46424 0
M  V30 13906 O 1345.96 1.9825 -0.867515 0
M  V30 13907 C 1346.55 -0.219005 -3.38091 0
M  V30 13908 C 1345.11 0.159221 -3.76063 0
M  V30 13909 C 1344.26 -0.566355 -2.71455 0
M  V30 13910 H 1347.21 -0.767367 -1.38914 0
M  V30 13911 H 1347.23 0.562267 -3.76323 0
M  V30 13912 H 1346.74 -1.26013 -3.67073 0
M  V30 13913 H 1344.84 1.20144 -3.52698 0
M  V30 13914 H 1344.96 -0.199662 -4.78684 0
M  V30 13915 H 1343.32 -0.00938921 -2.54698 0
M  V30 13916 H 1344.1 -1.60865 -3.03278 0
M  V30 13917 N 1346.55 1.54831 -0.294147 0
M  V30 13918 C 1347.51 2.21946 0.572061 0
M  V30 13919 C 1348.51 1.20331 1.06663 0
M  V30 13920 O 1349.7 1.45112 0.963757 0
M  V30 13921 C 1346.83 2.90044 1.7913 0
M  V30 13922 H 1348.03 2.99897 -0.0142234 0
M  V30 13923 H 1345.58 1.56235 -0.0449187 0
M  V30 13924 H 1346.32 2.16154 2.4176 0
M  V30 13925 H 1346.1 3.64527 1.44439 0
M  V30 13926 H 1347.59 3.41263 2.40684 0
M  V30 13927 N 1348.03 0.0217466 1.57585 0
M  V30 13928 C 1348.96 -0.99116 2.06661 0
M  V30 13929 C 1349.97 -1.29346 0.988604 0
M  V30 13930 O 1351.16 -1.25941 1.26496 0
M  V30 13931 C 1348.26 -2.32047 2.46997 0
M  V30 13932 C 1347.43 -2.20441 3.77789 0
M  V30 13933 C 1346.49 -3.36243 4.04755 0
M  V30 13934 O 1345.52 -3.13458 4.75114 0
M  V30 13935 N 1346.72 -4.598 3.54351 0
M  V30 13936 H 1349.49 -0.572486 2.94181 0
M  V30 13937 H 1347.05 -0.165175 1.61055 0
M  V30 13938 H 1349.04 -3.0833 2.62135 0
M  V30 13939 H 1347.61 -2.65581 1.64881 0
M  V30 13940 H 1346.83 -1.28931 3.72519 0
M  V30 13941 H 1348.12 -2.09882 4.63494 0
M  V30 13942 H 1347.52 -4.81207 2.97416 0
M  V30 13943 H 1346.07 -5.33276 3.7478 0
M  V30 13944 N 1349.51 -1.55583 -0.251311 0
M  V30 13945 C 1350.73 -1.81259 -0.997636 0
M  V30 13946 C 1351.15 -0.596861 -1.79117 0
M  V30 13947 O 1350.51 0.434425 -1.77254 0
M  V30 13948 C 1350.56 -3.05097 -1.93902 0
M  V30 13949 O 1350.28 -4.21976 -1.1776 0
M  V30 13950 C 1351.78 -3.4354 -2.8017 0
M  V30 13951 H 1349 -0.603279 -0.29376 0
M  V30 13952 H 1351.54 -2.02635 -0.27553 0
M  V30 13953 H 1349.7 -2.85784 -2.61546 0
M  V30 13954 H 1350.11 -4.92133 -1.81398 0
M  V30 13955 H 1351.59 -4.33305 -3.41981 0
M  V30 13956 H 1352.06 -2.63924 -3.51057 0
M  V30 13957 H 1352.67 -3.65189 -2.17985 0
M  V30 13958 N 1350.98 0.516783 -1.48886 0
M  V30 13959 C 1351.93 1.64093 -1.64853 0
M  V30 13960 C 1352.93 1.61392 -0.514685 0
M  V30 13961 O 1354.13 1.6609 -0.693831 0
M  V30 13962 H 1350.51 0.543672 -0.519543 0
M  V30 13963 H 1352.48 1.47774 -2.5924 0
M  V30 13964 C 1351.23 3.02308 -1.71771 0
M  V30 13965 H 1350.55 3.05085 -2.58385 0
M  V30 13966 H 1351.99 3.80544 -1.86982 0
M  V30 13967 C 1350.45 3.33757 -0.459136 0
M  V30 13968 O 1350.98 3.99475 0.422177 0
M  V30 13969 N 1349.18 2.88756 -0.326837 0
M  V30 13970 H 1348.73 2.35452 -1.045 0
M  V30 13971 H 1348.69 3.10166 0.514213 0
M  V30 13972 N 1352.46 1.37696 0.766659 0
M  V30 13973 C 1353.69 1.36192 1.55355 0
M  V30 13974 C 1354.1 -0.0534148 1.89125 0
M  V30 13975 O 1353.44 -1.02697 1.52312 0
M  V30 13976 C 1353.5 2.14047 2.88833 0
M  V30 13977 C 1353.17 3.6297 2.77672 0
M  V30 13978 C 1354.17 4.56745 2.48355 0
M  V30 13979 C 1351.85 4.06158 2.95534 0
M  V30 13980 C 1353.84 5.91687 2.37035 0
M  V30 13981 C 1351.53 5.41185 2.83835 0
M  V30 13982 C 1352.53 6.33762 2.54627 0
M  V30 13983 O 1352.22 7.66305 2.42963 0
M  V30 13984 H 1351.95 0.46804 0.487765 0
M  V30 13985 H 1354.5 1.81709 0.95765 0
M  V30 13986 H 1352.73 1.63227 3.50562 0
M  V30 13987 H 1354.42 2.05113 3.50262 0
M  V30 13988 H 1355.19 4.24687 2.34236 0
M  V30 13989 H 1351.07 3.34457 3.17269 0
M  V30 13990 H 1354.61 6.63914 2.14158 0
M  V30 13991 H 1350.51 5.72844 2.97524 0
M  V30 13992 H 1351.28 7.76683 2.58274 0
M  V30 13993 N 1353.94 -0.993397 1.22349 0
M  V30 13994 C 1354.87 -2.10171 1.01737 0
M  V30 13995 C 1355.85 -1.69989 -0.0615276 0
M  V30 13996 O 1357.04 -1.93939 0.100591 0
M  V30 13997 C 1354.17 -3.42186 0.593801 0
M  V30 13998 C 1353.12 -3.96215 1.61858 0
M  V30 13999 C 1352.45 -5.24272 1.05086 0
M  V30 14000 C 1353.75 -4.26956 3.00842 0
M  V30 14001 H 1355.44 -2.27673 1.94436 0
M  V30 14002 H 1352.99 -1.09408 0.936258 0
M  V30 14003 H 1354.94 -4.19131 0.436715 0
M  V30 14004 H 1353.66 -3.2451 -0.368855 0
M  V30 14005 H 1352.32 -3.21401 1.76343 0
M  V30 14006 H 1351.97 -5.02937 0.0795747 0
M  V30 14007 H 1351.67 -5.61387 1.73547 0
M  V30 14008 H 1353.19 -6.03851 0.905349 0
M  V30 14009 H 1354.61 -4.94699 2.89734 0
M  V30 14010 H 1353 -4.75242 3.66422 0
M  V30 14011 H 1354.07 -3.34752 3.50812 0
M  V30 14012 N 1355.42 -1.03311 -1.19015 0
M  V30 14013 C 1356.65 -0.750712 -1.92478 0
M  V30 14014 C 1357.06 0.694964 -1.75974 0
M  V30 14015 O 1356.4 1.4847 -1.08177 0
M  V30 14016 C 1356.46 -1.02757 -3.44501 0
M  V30 14017 C 1356.12 -2.46565 -3.84779 0
M  V30 14018 C 1357.12 -3.44716 -3.89187 0
M  V30 14019 C 1354.81 -2.81076 -4.16295 0
M  V30 14020 C 1356.8 -4.75433 -4.24549 0
M  V30 14021 C 1354.49 -4.12002 -4.51329 0
M  V30 14022 C 1355.49 -5.08991 -4.55431 0
M  V30 14023 O 1355.17 -6.37571 -4.89652 0
M  V30 14024 H 1354.91 -0.273717 -0.618106 0
M  V30 14025 H 1357.46 -1.38176 -1.51975 0
M  V30 14026 H 1355.69 -0.339383 -3.85208 0
M  V30 14027 H 1357.38 -0.734175 -3.99205 0
M  V30 14028 H 1358.14 -3.19392 -3.64985 0
M  V30 14029 H 1354.02 -2.0626 -4.12284 0
M  V30 14030 H 1357.57 -5.51133 -4.27666 0
M  V30 14031 H 1353.46 -4.37098 -4.7499 0
M  V30 14032 H 1354.23 -6.42107 -5.07583 0
M  V30 14033 N 1356.9 1.35099 -0.81154 0
M  V30 14034 C 1357.83 2.32264 -0.239925 0
M  V30 14035 C 1358.81 1.57708 0.637354 0
M  V30 14036 O 1359.99 1.85751 0.566598 0
M  V30 14037 C 1357.12 3.41931 0.608325 0
M  V30 14038 C 1356.08 4.27659 -0.170869 0
M  V30 14039 C 1355.4 5.28691 0.799398 0
M  V30 14040 C 1356.7 5.0394 -1.37266 0
M  V30 14041 H 1358.4 2.8032 -1.05172 0
M  V30 14042 H 1355.94 1.34773 -0.507185 0
M  V30 14043 H 1357.89 4.08911 1.01832 0
M  V30 14044 H 1356.62 2.92496 1.45306 0
M  V30 14045 H 1355.28 3.62265 -0.562094 0
M  V30 14046 H 1354.93 4.75521 1.63977 0
M  V30 14047 H 1354.63 5.86921 0.282331 0
M  V30 14048 H 1356.15 5.98542 1.20749 0
M  V30 14049 H 1357.56 5.63838 -1.03728 0
M  V30 14050 H 1355.96 5.7169 -1.82456 0
M  V30 14051 H 1357.03 4.34295 -2.15676 0
M  V30 14052 N 1358.37 0.56548 1.47106 0
M  V30 14053 C 1359.6 0.0496298 2.0684 0
M  V30 14054 C 1360.02 -1.24777 1.4169 0
M  V30 14055 O 1359.37 -1.75046 0.516239 0
M  V30 14056 C 1359.42 -0.140987 3.61225 0
M  V30 14057 O 1359.15 1.10504 4.23934 0
M  V30 14058 C 1360.65 -0.693171 4.37847 0
M  V30 14059 H 1357.87 0.0496018 0.669164 0
M  V30 14060 H 1360.41 0.781247 1.88989 0
M  V30 14061 H 1358.57 -0.822762 3.78562 0
M  V30 14062 H 1358.98 0.907978 5.16581 0
M  V30 14063 H 1360.45 -0.7758 5.46521 0
M  V30 14064 H 1360.93 -1.70632 4.04699 0
M  V30 14065 H 1361.54 -0.046826 4.25274 0
M  V30 14066 N 1359.85 -1.54672 0.302354 0
M  V30 14067 C 1361.08 -2.04282 -0.308645 0
M  V30 14068 C 1361.49 -1.17912 -1.47965 0
M  V30 14069 O 1360.83 -0.197723 -1.82633 0
M  V30 14070 C 1360.9 -3.49872 -0.826417 0
M  V30 14071 C 1360.56 -4.56473 0.219486 0
M  V30 14072 C 1361.56 -5.0922 1.0484 0
M  V30 14073 C 1359.24 -5.00997 0.361574 0
M  V30 14074 C 1361.24 -6.05033 2.00533 0
M  V30 14075 C 1358.92 -5.9663 1.32195 0
M  V30 14076 C 1359.92 -6.48532 2.1423 0
M  V30 14077 O 1359.61 -7.42292 3.08639 0
M  V30 14078 H 1359.34 -0.67228 -0.0708187 0
M  V30 14079 H 1361.89 -2.00625 0.440314 0
M  V30 14080 H 1360.12 -3.50857 -1.62593 0
M  V30 14081 H 1361.81 -3.8267 -1.35345 0
M  V30 14082 H 1362.58 -4.75615 0.949501 0
M  V30 14083 H 1358.46 -4.60226 -0.267018 0
M  V30 14084 H 1362 -6.45469 2.64604 0
M  V30 14085 H 1357.9 -6.29652 1.42156 0
M  V30 14086 H 1358.67 -7.60098 3.03633 0
M  V30 14087 N 1361.33 -0.0301034 -1.57571 0
M  V30 14088 C 1362.58 0.643491 -1.92953 0
M  V30 14089 C 1362.93 1.69679 -0.907009 0
M  V30 14090 O 1362.22 1.91446 0.0768136 0
M  V30 14091 C 1362.42 1.30206 -3.32838 0
M  V30 14092 C 1362.25 0.314074 -4.48602 0
M  V30 14093 C 1361.02 -0.0864138 -5.05226 0
M  V30 14094 C 1363.22 -0.432028 -5.12482 0
M  V30 14095 N 1361.2 -1.06947 -6.04513 0
M  V30 14096 C 1362.57 -1.26881 -6.06878 0
M  V30 14097 C 1364.62 -0.492623 -4.95457 0
M  V30 14098 C 1363.33 -2.16071 -6.8608 0
M  V30 14099 C 1365.35 -1.37187 -5.75268 0
M  V30 14100 C 1364.71 -2.19642 -6.69281 0
M  V30 14101 H 1360.81 0.207753 -0.753898 0
M  V30 14102 H 1363.4 -0.0975084 -1.94456 0
M  V30 14103 H 1361.57 2.0132 -3.32152 0
M  V30 14104 H 1363.3 1.93276 -3.55565 0
M  V30 14105 H 1360.06 0.288233 -4.72722 0
M  V30 14106 H 1360.48 -1.55726 -6.58846 0
M  V30 14107 H 1365.12 0.130615 -4.22598 0
M  V30 14108 H 1362.84 -2.79449 -7.58244 0
M  V30 14109 H 1366.43 -1.42306 -5.64128 0
M  V30 14110 H 1365.31 -2.86576 -7.29962 0
M  V30 14111 N 1362.81 1.55714 0.243056 0
M  V30 14112 C 1364.06 1.77375 0.968638 0
M  V30 14113 C 1364.38 0.594781 1.85708 0
M  V30 14114 O 1363.65 -0.38928 1.91993 0
M  V30 14115 H 1362.23 0.654174 0.360646 0
M  V30 14116 H 1364.89 1.93157 0.260079 0
M  V30 14117 H 1363.99 2.68674 1.5881 0
M  V30 14118 N 1364.29 -0.50888 1.49158 0
M  V30 14119 C 1365.51 -1.28771 1.61943 0
M  V30 14120 C 1365.93 -1.86594 0.287759 0
M  V30 14121 O 1365.29 -1.67448 -0.725769 0
M  V30 14122 C 1365.34 -2.4236 2.68224 0
M  V30 14123 O 1365.06 -1.86915 3.96225 0
M  V30 14124 C 1366.56 -3.33856 2.91642 0
M  V30 14125 H 1363.78 -0.390849 0.545416 0
M  V30 14126 H 1366.32 -0.611729 1.95136 0
M  V30 14127 H 1364.48 -3.05803 2.37831 0
M  V30 14128 H 1364.89 -2.61426 4.54705 0
M  V30 14129 H 1366.37 -4.09856 3.69759 0
M  V30 14130 H 1366.84 -3.90374 2.01258 0
M  V30 14131 H 1367.45 -2.76187 3.23421 0
M  V30 14132 N 1365.76 -1.381 -0.759346 0
M  V30 14133 C 1366.99 -1.37213 -1.54855 0
M  V30 14134 C 1367.41 0.0395175 -1.88759 0
M  V30 14135 O 1366.76 1.00462 -1.5236 0
M  V30 14136 C 1366.82 -2.22232 -2.85123 0
M  V30 14137 O 1366.54 -3.57897 -2.52668 0
M  V30 14138 C 1368.04 -2.29461 -3.79292 0
M  V30 14139 H 1365.26 -0.469542 -0.479345 0
M  V30 14140 H 1367.8 -1.81604 -0.940216 0
M  V30 14141 H 1365.96 -1.81317 -3.42349 0
M  V30 14142 H 1366.37 -4.02599 -3.36176 0
M  V30 14143 H 1367.84 -2.93246 -4.67665 0
M  V30 14144 H 1368.32 -1.3066 -4.19315 0
M  V30 14145 H 1368.93 -2.70741 -3.27993 0
M  V30 14146 N 1367.24 0.986894 -1.22875 0
M  V30 14147 C 1368.19 2.06271 -0.971398 0
M  V30 14148 C 1369.18 1.607 0.0802173 0
M  V30 14149 O 1370.37 1.76514 -0.131079 0
M  V30 14150 C 1367.5 3.38743 -0.557524 0
M  V30 14151 C 1366.58 3.90931 -1.64419 0
M  V30 14152 N 1366.97 4.16273 -2.87315 0
M  V30 14153 C 1365.27 4.19398 -1.51727 0
M  V30 14154 C 1365.97 4.5878 -3.57625 0
M  V30 14155 N 1364.95 4.62828 -2.85116 0
M  V30 14156 H 1368.75 2.23814 -1.90485 0
M  V30 14157 H 1366.27 1.16913 -1.12717 0
M  V30 14158 H 1368.26 4.1539 -0.354453 0
M  V30 14159 H 1366.92 3.22597 0.368957 0
M  V30 14160 H 1367.93 4.04288 -3.23684 0
M  V30 14161 H 1364.61 4.12291 -0.65742 0
M  V30 14162 H 1366 4.8696 -4.62947 0
M  V30 14163 N 1368.72 1.0394 1.18466 0
M  V30 14164 C 1370 0.65632 1.8426 0
M  V30 14165 C 1370.38 -0.864288 1.92596 0
M  V30 14166 O 1369.73 -1.76524 1.45092 0
M  V30 14167 C 1369.94 1.33067 3.22636 0
M  V30 14168 C 1371.28 1.46065 3.98686 0
M  V30 14169 O 1372.31 1.28867 3.32072 0
M  V30 14170 O 1371.17 1.74078 5.18034 0
M  V30 14171 H 1368.26 0.229484 0.794523 0
M  V30 14172 H 1370.81 1.13821 1.25868 0
M  V30 14173 H 1369.58 2.36866 3.11465 0
M  V30 14174 H 1369.2 0.837313 3.88683 0
M  V30 14175 N 1370.2 -1.34667 0.818693 0
M  V30 14176 C 1371.13 -2.32134 0.252239 0
M  V30 14177 C 1372.11 -1.58044 -0.628982 0
M  V30 14178 O 1373.29 -1.86049 -0.55674 0
M  V30 14179 C 1370.42 -3.42249 -0.590183 0
M  V30 14180 C 1369.38 -4.27562 0.193547 0
M  V30 14181 C 1368.7 -5.29107 -0.771349 0
M  V30 14182 C 1370 -5.03205 1.39936 0
M  V30 14183 H 1371.7 -2.79758 1.06657 0
M  V30 14184 H 1369.24 -1.34502 0.514325 0
M  V30 14185 H 1371.2 -4.09445 -0.996616 0
M  V30 14186 H 1369.92 -2.93262 -1.43752 0
M  V30 14187 H 1368.58 -3.61962 0.581297 0
M  V30 14188 H 1368.23 -4.76384 -1.61453 0
M  V30 14189 H 1367.93 -5.87063 -0.251201 0
M  V30 14190 H 1369.45 -5.99174 -1.17573 0
M  V30 14191 H 1370.87 -5.6328 1.06717 0
M  V30 14192 H 1369.26 -5.70715 1.85485 0
M  V30 14193 H 1370.33 -4.33145 2.17976 0
M  V30 14194 N 1371.68 -0.573274 -1.46804 0
M  V30 14195 C 1372.9 -0.0605984 -2.06811 0
M  V30 14196 C 1373.32 1.24024 -1.4235 0
M  V30 14197 O 1372.68 1.7477 -0.525515 0
M  V30 14198 C 1372.73 0.121828 -3.61295 0
M  V30 14199 O 1372.45 -1.12751 -4.23342 0
M  V30 14200 C 1373.95 0.669941 -4.38208 0
M  V30 14201 H 1371.17 -0.0531498 -0.668892 0
M  V30 14202 H 1373.71 -0.791259 -1.88572 0
M  V30 14203 H 1371.87 0.802674 -3.78993 0
M  V30 14204 H 1372.28 -0.935361 -5.16092 0
M  V30 14205 H 1373.76 0.746806 -5.46925 0
M  V30 14206 H 1374.23 1.68483 -4.05598 0
M  V30 14207 H 1374.84 0.0242721 -4.25293 0
M  V30 14208 N 1373.15 1.5451 -0.310553 0
M  V30 14209 C 1374.4 2.00326 0.295904 0
M  V30 14210 C 1374.73 1.19887 1.53158 0
M  V30 14211 O 1373.98 0.265615 1.93889 0
M  V30 14212 C 1374.28 3.5072 0.68779 0
M  V30 14213 C 1373.95 4.48677 -0.447229 0
M  V30 14214 C 1372.61 4.7518 -0.758796 0
M  V30 14215 C 1374.96 5.06953 -1.21028 0
M  V30 14216 C 1372.29 5.5722 -1.83637 0
M  V30 14217 C 1374.64 5.90167 -2.27784 0
M  V30 14218 C 1373.31 6.14977 -2.59537 0
M  V30 14219 H 1372.58 0.733046 0.108279 0
M  V30 14220 H 1375.22 1.86572 -0.431633 0
M  V30 14221 H 1373.53 3.62133 1.49556 0
M  V30 14222 H 1375.23 3.83602 1.16836 0
M  V30 14223 H 1371.82 4.28159 -0.1943 0
M  V30 14224 H 1376 4.86471 -0.98283 0
M  V30 14225 H 1371.26 5.74678 -2.08699 0
M  V30 14226 H 1375.43 6.34347 -2.87362 0
M  V30 14227 H 1373.06 6.78338 -3.43165 0
M  V30 14228 N 1374.63 0.0384594 1.57553 0
M  V30 14229 C 1376.05 -0.318006 1.564 0
M  V30 14230 C 1376.25 -1.72287 1.04496 0
M  V30 14231 O 1375.31 -2.42722 0.695861 0
M  V30 14232 C 1376.62 -0.158079 3.00284 0
M  V30 14233 C 1378.17 -0.230143 3.12153 0
M  V30 14234 C 1378.64 -0.0988948 4.57893 0
M  V30 14235 N 1380.13 -0.15558 4.62939 0
M  V30 14236 C 1380.87 -0.077948 5.73347 0
M  V30 14237 N 1380.36 0.0513054 6.92781 0
M  V30 14238 N 1382.16 -0.132612 5.61944 0
M  V30 14239 H 1374.31 0.957014 1.89618 0
M  V30 14240 H 1376.57 0.370396 0.872646 0
M  V30 14241 H 1376.28 0.810032 3.42245 0
M  V30 14242 H 1376.15 -0.924413 3.65697 0
M  V30 14243 H 1378.54 -1.18872 2.70099 0
M  V30 14244 H 1378.62 0.56673 2.49443 0
M  V30 14245 H 1378.26 0.856301 5.00629 0
M  V30 14246 H 1378.19 -0.91475 5.18594 0
M  V30 14247 H 1380.68 -0.255245 3.77037 0
M  V30 14248 H 1381 0.103595 7.72731 0
M  V30 14249 H 1379.34 0.0862166 6.94947 0
M  V30 14250 H 1382.53 -0.232056 4.67524 0
M  V30 14251 H 1382.71 -0.0686506 6.47964 0
M  V30 14252 N 1376.11 -1.55841 -0.234795 0
M  V30 14253 C 1377.34 -1.82307 -0.978355 0
M  V30 14254 C 1377.75 -0.615825 -1.78474 0
M  V30 14255 O 1377.11 0.4156 -1.77705 0
M  V30 14256 C 1377.16 -3.07136 -1.90655 0
M  V30 14257 O 1376.88 -4.23202 -1.13278 0
M  V30 14258 C 1378.38 -3.46492 -2.76511 0
M  V30 14259 H 1375.6 -0.606361 -0.287345 0
M  V30 14260 H 1378.15 -2.02916 -0.254023 0
M  V30 14261 H 1376.3 -2.88542 -2.58501 0
M  V30 14262 H 1376.72 -4.94029 -1.76168 0
M  V30 14263 H 1378.19 -4.36908 -3.37366 0
M  V30 14264 H 1378.67 -2.67633 -3.48238 0
M  V30 14265 H 1379.27 -3.6748 -2.14099 0
M  V30 14266 N 1377.59 0.500963 -1.49426 0
M  V30 14267 C 1379 1.08248 -1.52116 0
M  V30 14268 C 1379.35 1.93777 -0.30738 0
M  V30 14269 O 1378.48 2.08404 0.582805 0
M  V30 14270 C 1379.07 1.96988 -2.75647 0
M  V30 14271 C 1377.63 2.50303 -2.81115 0
M  V30 14272 C 1376.78 1.27924 -2.4603 0
M  V30 14273 H 1379.73 0.284872 -1.56122 0
M  V30 14274 H 1379.75 2.81675 -2.55811 0
M  V30 14275 H 1379.26 1.34711 -3.6397 0
M  V30 14276 H 1377.36 3.16218 -1.97072 0
M  V30 14277 H 1377.48 2.87453 -3.83286 0
M  V30 14278 H 1375.84 1.60447 -1.9781 0
M  V30 14279 H 1376.62 0.673557 -3.36628 0
M  V30 14280 N 1379.07 1.38501 0.752011 0
M  V30 14281 C 1380.02 1.32359 1.85648 0
M  V30 14282 C 1381 0.207578 1.59555 0
M  V30 14283 O 1382.19 0.443683 1.71349 0
M  V30 14284 C 1379.32 1.15253 3.23375 0
M  V30 14285 C 1378.41 2.31483 3.55354 0
M  V30 14286 N 1378.8 3.56929 3.58379 0
M  V30 14287 C 1377.1 2.2407 3.85628 0
M  V30 14288 C 1377.8 4.33691 3.87669 0
M  V30 14289 N 1376.77 3.63065 4.04579 0
M  V30 14290 H 1380.58 2.27336 1.86267 0
M  V30 14291 H 1378.09 1.31755 0.949441 0
M  V30 14292 H 1380.09 1.08937 4.02416 0
M  V30 14293 H 1378.75 0.212108 3.24006 0
M  V30 14294 H 1379.76 3.90578 3.40101 0
M  V30 14295 H 1376.44 1.38196 3.93965 0
M  V30 14296 H 1377.83 5.42349 3.9662 0
M  V30 14297 N 1380.55 -0.980364 1.23396 0
M  V30 14298 C 1381.79 -1.72421 1.06765 0
M  V30 14299 C 1382.12 -1.90151 -0.394515 0
M  V30 14300 O 1381.4 -1.4538 -1.29209 0
M  V30 14301 C 1381.68 -3.12246 1.79372 0
M  V30 14302 C 1381.54 -3.02087 3.33262 0
M  V30 14303 C 1382.85 -4.11667 1.55624 0
M  V30 14304 H 1379.97 -0.625822 0.389251 0
M  V30 14305 H 1382.62 -1.14132 1.51901 0
M  V30 14306 H 1380.77 -3.62008 1.41004 0
M  V30 14307 H 1382.44 -2.59848 3.81152 0
M  V30 14308 H 1380.68 -2.38592 3.62293 0
M  V30 14309 H 1381.35 -4.01087 3.79254 0
M  V30 14310 H 1383.83 -3.70712 1.88975 0
M  V30 14311 H 1382.7 -5.07593 2.08902 0
M  V30 14312 H 1382.96 -4.39358 0.491601 0
M  V30 14313 N 1382.02 -1.04567 -1.17913 0
M  V30 14314 C 1382.95 -0.662066 -2.23917 0
M  V30 14315 C 1383.93 0.33713 -1.66726 0
M  V30 14316 O 1385.12 0.216116 -1.92994 0
M  V30 14317 C 1382.25 -0.029463 -3.47288 0
M  V30 14318 C 1381.2 -0.95274 -4.17261 0
M  V30 14319 C 1380.53 -0.184347 -5.34382 0
M  V30 14320 C 1381.83 -2.2741 -4.70194 0
M  V30 14321 H 1383.52 -1.54826 -2.5626 0
M  V30 14322 H 1381.07 -0.745886 -1.23177 0
M  V30 14323 H 1383.02 0.250654 -4.20654 0
M  V30 14324 H 1381.75 0.891638 -3.14193 0
M  V30 14325 H 1380.41 -1.21732 -3.45799 0
M  V30 14326 H 1380.05 0.73932 -4.97537 0
M  V30 14327 H 1379.75 -0.79949 -5.82136 0
M  V30 14328 H 1381.28 0.0886344 -6.10536 0
M  V30 14329 H 1382.69 -2.05433 -5.35229 0
M  V30 14330 H 1381.09 -2.84265 -5.28501 0
M  V30 14331 H 1382.16 -2.91708 -3.87342 0
M  V30 14332 N 1383.5 1.34231 -0.825823 0
M  V30 14333 C 1384.75 1.9849 -0.415891 0
M  V30 14334 C 1385.08 1.6531 1.01913 0
M  V30 14335 O 1384.36 0.926223 1.7103 0
M  V30 14336 C 1384.64 3.54691 -0.621785 0
M  V30 14337 C 1384.49 3.97603 -2.10313 0
M  V30 14338 C 1385.81 4.4006 -0.0595871 0
M  V30 14339 H 1382.93 0.721032 -0.152582 0
M  V30 14340 H 1385.57 1.5908 -1.03892 0
M  V30 14341 H 1383.72 3.88392 -0.0914439 0
M  V30 14342 H 1385.39 3.74221 -2.69733 0
M  V30 14343 H 1383.64 3.47809 -2.59251 0
M  V30 14344 H 1384.31 5.06352 -2.19799 0
M  V30 14345 H 1386.78 4.12929 -0.512743 0
M  V30 14346 H 1385.66 5.48403 -0.233431 0
M  V30 14347 H 1385.92 4.29798 1.03568 0
M  V30 14348 N 1384.98 0.581051 1.46498 0
M  V30 14349 C 1385.91 -0.140957 2.33074 0
M  V30 14350 C 1386.89 -0.885323 1.45245 0
M  V30 14351 O 1388.08 -0.86111 1.74065 0
M  V30 14352 C 1385.21 -1.15625 3.27488 0
M  V30 14353 C 1384.16 -0.526829 4.24745 0
M  V30 14354 C 1383.49 -1.64847 5.08655 0
M  V30 14355 C 1384.79 0.53492 5.19554 0
M  V30 14356 H 1386.48 0.581888 2.93691 0
M  V30 14357 H 1384.03 0.281278 1.41226 0
M  V30 14358 H 1385.98 -1.6697 3.8691 0
M  V30 14359 H 1384.7 -1.90935 2.64974 0
M  V30 14360 H 1383.36 -0.0344738 3.66584 0
M  V30 14361 H 1383.01 -2.3912 4.42528 0
M  V30 14362 H 1382.71 -1.23298 5.74518 0
M  V30 14363 H 1384.23 -2.16472 5.7094 0
M  V30 14364 H 1385.65 0.106606 5.73201 0
M  V30 14365 H 1384.04 0.870639 5.93751 0
M  V30 14366 H 1385.11 1.42184 4.63586 0
M  V30 14367 N 1386.46 -1.54343 0.318742 0
M  V30 14368 C 1387.71 -2.00084 -0.284713 0
M  V30 14369 C 1388.03 -1.20855 -1.53033 0
M  V30 14370 O 1387.3 -0.309104 -1.93446 0
M  V30 14371 H 1385.88 -0.739123 -0.108193 0
M  V30 14372 H 1388.54 -1.90002 0.434174 0
M  V30 14373 H 1387.63 -3.07314 -0.544459 0
M  V30 14374 N 1387.94 -0.0468143 -1.5753 0
M  V30 14375 C 1389.16 0.641161 -1.97241 0
M  V30 14376 C 1389.59 1.6384 -0.92401 0
M  V30 14377 O 1388.94 1.80946 0.113229 0
M  V30 14378 C 1388.99 1.30832 -3.36029 0
M  V30 14379 O 1388.1 2.42394 -3.33645 0
M  V30 14380 H 1387.44 0.167035 -0.642647 0
M  V30 14381 H 1389.97 -0.113921 -2.04283 0
M  V30 14382 H 1389.98 1.66102 -3.72658 0
M  V30 14383 H 1388.65 0.57744 -4.11872 0
M  V30 14384 H 1387.23 2.09104 -3.08756 0
M  V30 14385 N 1389.41 1.55964 0.226527 0
M  V30 14386 C 1390.66 1.78392 0.94977 0
M  V30 14387 C 1390.98 0.614444 1.85066 0
M  V30 14388 O 1390.25 -0.368894 1.92395 0
M  V30 14389 H 1388.83 0.657962 0.353688 0
M  V30 14390 H 1391.5 1.93422 0.239577 0
M  V30 14391 H 1390.59 2.70343 1.55952 0
M  V30 14392 N 1390.89 -0.493031 1.4969 0
M  V30 14393 C 1392.14 -1.24849 1.59814 0
M  V30 14394 C 1392.47 -1.92059 0.287555 0
M  V30 14395 O 1391.75 -1.81099 -0.709471 0
M  V30 14396 C 1392.03 -2.30929 2.76304 0
M  V30 14397 C 1391.88 -1.68167 4.17181 0
M  V30 14398 C 1393.2 -3.32427 2.8841 0
M  V30 14399 H 1390.32 -0.452553 0.581691 0
M  V30 14400 H 1392.96 -0.545455 1.82002 0
M  V30 14401 H 1391.11 -2.9089 2.57517 0
M  V30 14402 H 1392.78 -1.11971 4.47504 0
M  V30 14403 H 1391.03 -0.985496 4.22458 0
M  V30 14404 H 1391.7 -2.45148 4.94577 0
M  V30 14405 H 1394.17 -2.82464 3.05537 0
M  V30 14406 H 1393.05 -4.04004 3.71581 0
M  V30 14407 H 1393.31 -3.95234 1.98097 0
M  V30 14408 N 1392.37 -1.38898 -0.744656 0
M  V30 14409 C 1393.6 -1.38647 -1.53169 0
M  V30 14410 C 1394.01 0.0233199 -1.89186 0
M  V30 14411 O 1393.35 1.00261 -1.53927 0
M  V30 14412 C 1393.41 -2.18615 -2.85391 0
M  V30 14413 C 1393.08 -3.67342 -2.71862 0
M  V30 14414 C 1394.07 -4.60638 -2.41057 0
M  V30 14415 C 1391.76 -4.10809 -2.89035 0
M  V30 14416 C 1393.75 -5.95383 -2.27592 0
M  V30 14417 C 1391.44 -5.45632 -2.7519 0
M  V30 14418 C 1392.44 -6.37733 -2.44512 0
M  V30 14419 O 1392.13 -7.70074 -2.30741 0
M  V30 14420 H 1391.86 -0.475741 -0.480257 0
M  V30 14421 H 1394.41 -1.8321 -0.928621 0
M  V30 14422 H 1392.64 -1.68784 -3.47921 0
M  V30 14423 H 1394.33 -2.1066 -3.46954 0
M  V30 14424 H 1395.1 -4.28359 -2.2745 0
M  V30 14425 H 1390.98 -3.39462 -3.11908 0
M  V30 14426 H 1394.52 -6.67237 -2.03569 0
M  V30 14427 H 1390.42 -5.77504 -2.88373 0
M  V30 14428 H 1391.19 -7.80694 -2.45885 0
M  V30 14429 N 1393.85 0.973806 -1.23914 0
M  V30 14430 C 1395.26 1.24128 -1.00322 0
M  V30 14431 C 1395.46 1.99378 0.29169 0
M  V30 14432 O 1394.52 2.31445 1.00943 0
M  V30 14433 C 1395.83 2.03438 -2.21435 0
M  V30 14434 C 1397.38 2.16553 -2.25995 0
M  V30 14435 C 1397.86 2.99257 -3.46712 0
M  V30 14436 N 1399.35 3.0684 -3.46992 0
M  V30 14437 C 1400.08 3.71174 -4.37055 0
M  V30 14438 N 1399.58 4.37277 -5.37364 0
M  V30 14439 N 1401.37 3.68126 -4.24782 0
M  V30 14440 H 1393.52 0.469872 -2.07138 0
M  V30 14441 H 1395.79 0.270234 -0.908668 0
M  V30 14442 H 1395.49 1.55527 -3.15443 0
M  V30 14443 H 1395.37 3.0418 -2.23057 0
M  V30 14444 H 1397.75 2.6367 -1.32522 0
M  V30 14445 H 1397.83 1.15179 -2.28402 0
M  V30 14446 H 1397.48 2.52835 -4.40496 0
M  V30 14447 H 1397.41 4.00815 -3.41547 0
M  V30 14448 H 1399.9 2.59813 -2.74419 0
M  V30 14449 H 1400.21 4.84166 -6.02331 0
M  V30 14450 H 1398.56 4.35965 -5.41257 0
M  V30 14451 H 1401.75 3.15657 -3.45656 0
M  V30 14452 H 1401.92 4.17981 -4.95173 0
M  V30 14453 N 1395.33 1.05191 1.17357 0
M  V30 14454 C 1396.58 0.757104 1.86951 0
M  V30 14455 C 1396.89 -0.718637 1.8192 0
M  V30 14456 O 1398.09 -1.12739 2.46986 0
M  V30 14457 C 1396.55 1.30409 3.35442 0
M  V30 14458 C 1396.16 2.80928 3.48975 0
M  V30 14459 C 1397.9 1.08633 4.10365 0
M  V30 14460 C 1395.81 3.28927 4.91488 0
M  V30 14461 H 1394.74 0.279525 0.700273 0
M  V30 14462 H 1397.39 1.2692 1.32528 0
M  V30 14463 H 1395.77 0.719812 3.89403 0
M  V30 14464 H 1396.95 3.45211 3.05231 0
M  V30 14465 H 1395.26 3.01245 2.87473 0
M  V30 14466 H 1397.86 1.41996 5.15501 0
M  V30 14467 H 1398.2 0.0240903 4.16293 0
M  V30 14468 H 1398.73 1.63581 3.6261 0
M  V30 14469 H 1395.47 4.34581 4.90734 0
M  V30 14470 H 1394.99 2.69386 5.35902 0
M  V30 14471 H 1396.67 3.23605 5.60258 0
M  V30 14472 N 1396.8 -1.33791 0.83293 0
M  V30 14473 C 1398.05 -1.97582 0.42494 0
M  V30 14474 C 1398.37 -1.66328 -1.01784 0
M  V30 14475 O 1397.64 -0.959141 -1.70814 0
M  V30 14476 H 1396.22 -0.730923 0.154143 0
M  V30 14477 H 1398.89 -1.63257 1.06458 0
M  V30 14478 H 1397.98 -3.07177 0.552127 0
M  V30 14479 N 1398.28 -0.588812 -1.46187 0
M  V30 14480 C 1399.51 -0.0806571 -2.07243 0
M  V30 14481 C 1399.93 1.21766 -1.43369 0
M  V30 14482 O 1399.29 1.73694 -0.51964 0
M  V30 14483 C 1399.34 0.065267 -3.60541 0
M  V30 14484 O 1398.44 1.12026 -3.96893 0
M  V30 14485 H 1397.78 -0.0655622 -0.660755 0
M  V30 14486 H 1400.31 -0.813489 -1.87733 0
M  V30 14487 H 1400.32 0.269494 -4.07109 0
M  V30 14488 H 1399 -0.88284 -4.06422 0
M  V30 14489 H 1397.58 0.894 -3.62025 0
M  V30 14490 N 1399.76 1.54172 -0.326923 0
M  V30 14491 C 1400.99 2.05512 0.279231 0
M  V30 14492 C 1401.41 1.20131 1.44741 0
M  V30 14493 O 1400.77 0.211191 1.80066 0
M  V30 14494 C 1400.82 3.53971 0.688263 0
M  V30 14495 O 1399.92 3.71516 1.79025 0
M  V30 14496 H 1399.26 0.662131 0.0497826 0
M  V30 14497 H 1401.79 1.98979 -0.476309 0
M  V30 14498 H 1401.8 3.96302 0.970002 0
M  V30 14499 H 1400.48 4.15568 -0.166132 0
M  V30 14500 H 1399.05 3.4109 1.50706 0
M  V30 14501 N 1401.24 0.0551678 1.57503 0
M  V30 14502 C 1402.48 -0.618636 1.93134 0
M  V30 14503 C 1402.82 -1.70258 0.934125 0
M  V30 14504 O 1402.09 -1.9446 -0.0392699 0
M  V30 14505 C 1402.38 -1.21103 3.39126 0
M  V30 14506 C 1402.23 -0.134865 4.49598 0
M  V30 14507 C 1403.55 -2.12148 3.85592 0
M  V30 14508 H 1400.67 -0.223416 0.702321 0
M  V30 14509 H 1403.31 0.117748 1.89635 0
M  V30 14510 H 1401.46 -1.83862 3.42238 0
M  V30 14511 H 1403.13 0.497292 4.58612 0
M  V30 14512 H 1401.37 0.536587 4.30469 0
M  V30 14513 H 1402.04 -0.589447 5.48844 0
M  V30 14514 H 1404.52 -1.59346 3.8438 0
M  V30 14515 H 1403.4 -2.50539 4.88387 0
M  V30 14516 H 1403.66 -3.02318 3.22578 0
M  V30 14517 N 1402.72 -1.56081 -0.218252 0
M  V30 14518 C 1403.63 -1.95856 -1.29141 0
M  V30 14519 C 1404.64 -0.862857 -1.51099 0
M  V30 14520 O 1405.82 -1.1667 -1.64165 0
M  V30 14521 C 1402.88 -2.27005 -2.62049 0
M  V30 14522 C 1401.94 -3.50162 -2.48365 0
M  V30 14523 C 1401.18 -3.79815 -3.74935 0
M  V30 14524 O 1401.4 -3.11095 -4.78096 0
M  V30 14525 O 1400.33 -4.73299 -3.71849 0
M  V30 14526 H 1404.16 -2.8732 -0.983922 0
M  V30 14527 H 1401.75 -1.43334 -0.421385 0
M  V30 14528 H 1403.63 -2.4822 -3.40536 0
M  V30 14529 H 1402.3 -1.38715 -2.92472 0
M  V30 14530 H 1401.21 -3.34222 -1.68066 0
M  V30 14531 H 1402.54 -4.38845 -2.22881 0
M  V30 14532 N 1404.2 0.485086 -1.49949 0
M  V30 14533 C 1405.44 1.23816 -1.60237 0
M  V30 14534 C 1405.77 1.9223 -0.296274 0
M  V30 14535 O 1405.03 1.82095 0.716939 0
M  V30 14536 C 1405.32 2.31573 -2.72229 0
M  V30 14537 C 1404.99 1.80508 -4.13192 0
M  V30 14538 C 1403.65 1.66301 -4.5155 0
M  V30 14539 C 1406 1.42471 -5.0135 0
M  V30 14540 C 1403.33 1.1246 -5.75821 0
M  V30 14541 C 1405.68 0.900757 -6.26154 0
M  V30 14542 C 1404.35 0.74521 -6.63327 0
M  V30 14543 H 1403.62 0.453075 -0.586348 0
M  V30 14544 H 1406.27 0.536349 -1.83836 0
M  V30 14545 H 1404.57 3.07606 -2.42663 0
M  V30 14546 H 1406.27 2.89574 -2.77395 0
M  V30 14547 H 1402.86 1.92529 -3.82924 0
M  V30 14548 H 1407.04 1.52287 -4.72358 0
M  V30 14549 H 1402.3 0.991422 -6.03308 0
M  V30 14550 H 1406.47 0.5973 -6.93834 0
M  V30 14551 H 1404.1 0.325838 -7.59501 0
M  V30 14552 N 1405.67 1.39291 0.737279 0
M  V30 14553 C 1406.95 1.26901 1.48847 0
M  V30 14554 C 1407.33 -0.122417 2.10745 0
M  V30 14555 O 1406.68 -1.13343 1.98408 0
M  V30 14556 C 1406.89 2.3916 2.54172 0
M  V30 14557 C 1408.24 2.78368 3.20619 0
M  V30 14558 O 1409.26 2.38593 2.64484 0
M  V30 14559 O 1408.12 3.47014 4.22189 0
M  V30 14560 H 1405.21 0.497176 0.660867 0
M  V30 14561 H 1407.76 1.51159 0.771299 0
M  V30 14562 H 1406.53 3.3219 2.06797 0
M  V30 14563 H 1406.15 2.16555 3.33451 0
M  V30 14564 N 1407.15 -0.967221 1.24429 0
M  V30 14565 C 1408.4 -1.71349 1.09596 0
M  V30 14566 C 1408.75 -1.88975 -0.361411 0
M  V30 14567 O 1408.05 -1.4405 -1.26333 0
M  V30 14568 C 1408.24 -3.10507 1.76975 0
M  V30 14569 C 1408.07 -3.06455 3.29113 0
M  V30 14570 C 1406.84 -3.1091 3.98326 0
M  V30 14571 C 1409.04 -2.88594 4.25697 0
M  V30 14572 N 1407.02 -2.96882 5.3734 0
M  V30 14573 C 1408.39 -2.82867 5.51712 0
M  V30 14574 C 1410.44 -2.73179 4.16267 0
M  V30 14575 C 1409.15 -2.63301 6.69377 0
M  V30 14576 C 1411.17 -2.5498 5.3361 0
M  V30 14577 C 1410.54 -2.49962 6.58558 0
M  V30 14578 H 1406.63 -0.635528 0.455663 0
M  V30 14579 H 1409.22 -1.14669 1.5735 0
M  V30 14580 H 1407.39 -3.65378 1.31733 0
M  V30 14581 H 1409.12 -3.73842 1.54997 0
M  V30 14582 H 1405.88 -3.19609 3.49495 0
M  V30 14583 H 1406.3 -2.93107 6.1026 0
M  V30 14584 H 1410.94 -2.7584 3.20425 0
M  V30 14585 H 1408.66 -2.59383 7.65341 0
M  V30 14586 H 1412.25 -2.43995 5.28164 0
M  V30 14587 H 1411.13 -2.3606 7.47827 0
M  V30 14588 N 1408.63 -1.05812 -1.16797 0
M  V30 14589 C 1409.87 -0.781055 -1.88889 0
M  V30 14590 C 1410.23 0.679797 -1.79563 0
M  V30 14591 O 1411.43 1.07124 -2.46532 0
M  V30 14592 C 1409.71 -1.25598 -3.34604 0
M  V30 14593 S 1411.26 -1.10724 -4.24601 0
M  V30 14594 H 1408.08 -0.28347 -0.652047 0
M  V30 14595 H 1410.68 -1.35404 -1.41018 0
M  V30 14596 H 1409.39 -2.31421 -3.38928 0
M  V30 14597 H 1408.92 -0.677541 -3.87522 0
M  V30 14598 H 1410.93 -0.0351807 -4.96188 0
M  V30 14599 N 1410.11 1.33347 -0.840014 0
M  V30 14600 C 1411.07 2.27492 -0.279264 0
M  V30 14601 C 1412.07 1.51004 0.552669 0
M  V30 14602 O 1413.26 1.70305 0.366295 0
M  V30 14603 C 1410.39 3.35462 0.606466 0
M  V30 14604 H 1411.59 2.78601 -1.11001 0
M  V30 14605 H 1409.14 1.4377 -0.613187 0
M  V30 14606 H 1409.87 2.89596 1.45961 0
M  V30 14607 H 1409.66 3.92098 0.0111889 0
M  V30 14608 H 1411.15 4.05645 0.992052 0
M  V30 14609 N 1411.59 0.596556 1.45873 0
M  V30 14610 C 1412.83 0.0875879 2.02611 0
M  V30 14611 C 1413.16 -1.27438 1.46538 0
M  V30 14612 O 1412.44 -1.83815 0.635779 0
M  V30 14613 C 1412.72 0.0367394 3.60081 0
M  V30 14614 C 1412.58 1.42859 4.26511 0
M  V30 14615 C 1413.89 -0.656795 4.35171 0
M  V30 14616 H 1411.01 0.0333031 0.736247 0
M  V30 14617 H 1413.66 0.766413 1.73857 0
M  V30 14618 H 1411.81 -0.541345 3.8471 0
M  V30 14619 H 1413.48 2.0529 4.13102 0
M  V30 14620 H 1411.72 1.99243 3.85337 0
M  V30 14621 H 1412.39 1.34535 5.35354 0
M  V30 14622 H 1414.87 -0.165553 4.15771 0
M  V30 14623 H 1413.74 -0.661445 5.449 0
M  V30 14624 H 1414 -1.72079 4.07236 0
M  V30 14625 N 1413.06 -1.53996 0.335095 0
M  V30 14626 C 1414.31 -2.00375 -0.263475 0
M  V30 14627 C 1414.63 -1.22471 -1.51742 0
M  V30 14628 O 1413.9 -0.329604 -1.93107 0
M  V30 14629 H 1412.48 -0.740229 -0.100347 0
M  V30 14630 H 1415.14 -1.89531 0.454302 0
M  V30 14631 H 1414.24 -3.07874 -0.511834 0
M  V30 14632 N 1414.54 -0.0635198 -1.57472 0
M  V30 14633 C 1415.78 0.611234 -1.95047 0
M  V30 14634 C 1416.15 1.67274 -0.94251 0
M  V30 14635 O 1417.35 2.40246 -1.20563 0
M  V30 14636 C 1415.62 1.18071 -3.37334 0
M  V30 14637 S 1417.18 1.87174 -3.96877 0
M  V30 14638 H 1413.99 0.20037 -0.682182 0
M  V30 14639 H 1416.6 -0.135403 -1.95031 0
M  V30 14640 H 1415.3 0.396176 -4.08483 0
M  V30 14641 H 1414.83 1.96388 -3.40874 0
M  V30 14642 H 1416.85 3.15346 -3.83107 0
M  V30 14643 N 1416.02 1.56195 0.209972 0
M  V30 14644 C 1417.27 1.78941 0.930744 0
M  V30 14645 C 1417.58 0.634139 1.85035 0
M  V30 14646 O 1418.79 0.745524 2.61064 0
M  V30 14647 C 1417.24 3.16935 1.70529 0
M  V30 14648 C 1416.85 4.40221 0.83125 0
M  V30 14649 C 1418.6 3.49 2.41659 0
M  V30 14650 C 1416.5 5.69238 1.60381 0
M  V30 14651 H 1415.43 0.667176 0.351273 0
M  V30 14652 H 1418.08 1.82572 0.184341 0
M  V30 14653 H 1416.47 3.07513 2.49503 0
M  V30 14654 H 1417.64 4.60728 0.081227 0
M  V30 14655 H 1415.95 4.15756 0.231517 0
M  V30 14656 H 1418.55 4.42623 2.99982 0
M  V30 14657 H 1418.89 2.72042 3.15117 0
M  V30 14658 H 1419.43 3.59804 1.69665 0
M  V30 14659 H 1416.17 6.49121 0.912292 0
M  V30 14660 H 1415.69 5.52772 2.32815 0
M  V30 14661 H 1417.37 6.09827 2.16149 0
M  V30 14662 N 1417.5 -0.477127 1.50204 0
M  V30 14663 C 1418.43 -1.59319 1.64773 0
M  V30 14664 C 1419.44 -1.53951 0.529427 0
M  V30 14665 O 1420.63 -1.59449 0.802388 0
M  V30 14666 C 1417.73 -2.98185 1.61055 0
M  V30 14667 C 1416.9 -3.28486 2.88817 0
M  V30 14668 C 1415.96 -4.46878 2.77825 0
M  V30 14669 O 1414.99 -4.47483 3.51778 0
M  V30 14670 N 1416.19 -5.48187 1.90974 0
M  V30 14671 H 1418.96 -1.4724 2.61037 0
M  V30 14672 H 1416.52 -0.66544 1.47592 0
M  V30 14673 H 1418.51 -3.75345 1.51323 0
M  V30 14674 H 1417.08 -3.04064 0.725509 0
M  V30 14675 H 1416.3 -2.39997 3.12722 0
M  V30 14676 H 1417.59 -3.4554 3.7347 0
M  V30 14677 H 1416.99 -5.50515 1.30192 0
M  V30 14678 H 1415.54 -6.24355 1.87148 0
M  V30 14679 N 1418.98 -1.3968 -0.729882 0
M  V30 14680 C 1419.91 -1.34713 -1.85432 0
M  V30 14681 C 1420.92 -0.254999 -1.60791 0
M  V30 14682 O 1422.11 -0.514324 -1.7093 0
M  V30 14683 C 1419.21 -1.07019 -3.21559 0
M  V30 14684 C 1418.38 -2.27609 -3.73515 0
M  V30 14685 C 1417.44 -1.96292 -4.88217 0
M  V30 14686 O 1416.47 -2.69025 -5.01612 0
M  V30 14687 N 1417.67 -0.932181 -5.72967 0
M  V30 14688 H 1420.44 -2.31616 -1.90195 0
M  V30 14689 H 1418 -1.33849 -0.910834 0
M  V30 14690 H 1419.99 -0.84079 -3.9587 0
M  V30 14691 H 1418.56 -0.188323 -3.12032 0
M  V30 14692 H 1417.78 -2.66468 -2.90497 0
M  V30 14693 H 1419.07 -3.08033 -4.04961 0
M  V30 14694 H 1418.46 -0.329507 -5.6474 0
M  V30 14695 H 1417.02 -0.762684 -6.47322 0
M  V30 14696 N 1420.45 0.960609 -1.2494 0
M  V30 14697 C 1421.38 2.074 -1.07274 0
M  V30 14698 C 1422.37 1.70092 0.0164365 0
M  V30 14699 O 1423.55 1.93604 -0.151975 0
M  V30 14700 C 1420.68 3.40491 -0.684317 0
M  V30 14701 C 1419.63 3.91784 -1.72306 0
M  V30 14702 C 1418.96 5.21301 -1.18949 0
M  V30 14703 C 1420.26 4.18829 -3.12056 0
M  V30 14704 H 1421.95 2.22438 -2.00404 0
M  V30 14705 H 1419.5 1.06888 -0.964937 0
M  V30 14706 H 1421.45 4.17826 -0.547686 0
M  V30 14707 H 1420.18 3.25374 0.282687 0
M  V30 14708 H 1418.84 3.16613 -1.84802 0
M  V30 14709 H 1418.48 5.02549 -0.212892 0
M  V30 14710 H 1418.18 5.56588 -1.8837 0
M  V30 14711 H 1419.71 6.01238 -1.06513 0
M  V30 14712 H 1421.12 4.86844 -3.02748 0
M  V30 14713 H 1419.52 4.6536 -3.78894 0
M  V30 14714 H 1420.59 3.25333 -3.59564 0
M  V30 14715 N 1421.93 1.0643 1.16234 0
M  V30 14716 C 1423.35 0.78802 1.38789 0
M  V30 14717 C 1423.55 -0.612019 1.91981 0
M  V30 14718 O 1422.6 -1.37235 2.1195 0
M  V30 14719 C 1423.92 1.85406 2.36738 0
M  V30 14720 C 1425.47 1.87773 2.5042 0
M  V30 14721 C 1425.94 2.93435 3.51653 0
M  V30 14722 N 1427.43 2.92477 3.59181 0
M  V30 14723 C 1428.17 3.7088 4.37305 0
M  V30 14724 N 1427.66 4.59106 5.18839 0
M  V30 14725 N 1429.46 3.59267 4.32301 0
M  V30 14726 H 1421.61 1.9674 0.800449 0
M  V30 14727 H 1423.87 0.852631 0.414397 0
M  V30 14728 H 1423.58 2.85954 2.04751 0
M  V30 14729 H 1423.45 1.70625 3.36403 0
M  V30 14730 H 1425.84 0.878825 2.8171 0
M  V30 14731 H 1425.92 2.06633 1.50787 0
M  V30 14732 H 1425.56 3.93519 3.211 0
M  V30 14733 H 1425.49 2.71824 4.5102 0
M  V30 14734 H 1427.98 2.28517 3.00979 0
M  V30 14735 H 1428.3 5.15583 5.75668 0
M  V30 14736 H 1426.64 4.6316 5.18177 0
M  V30 14737 H 1429.83 2.89726 3.67663 0
M  V30 14738 H 1430 4.20613 4.92939 0
M  V30 14739 N 1423.41 -1.329 0.847073 0
M  V30 14740 C 1424.36 -2.29044 0.284199 0
M  V30 14741 C 1425.33 -1.54706 -0.604591 0
M  V30 14742 O 1426.51 -1.82966 -0.541116 0
M  V30 14743 C 1423.65 -3.4104 -0.527822 0
M  V30 14744 C 1422.77 -4.30273 0.385907 0
M  V30 14745 C 1421.9 -5.29391 -0.438009 0
M  V30 14746 C 1420.94 -6.10265 0.473596 0
M  V30 14747 N 1420.08 -7.01403 -0.312684 0
M  V30 14748 H 1424.92 -2.76582 1.10935 0
M  V30 14749 H 1422.45 -1.36085 0.558508 0
M  V30 14750 H 1424.41 -4.04686 -1.01417 0
M  V30 14751 H 1423.04 -2.94673 -1.31787 0
M  V30 14752 H 1422.09 -3.67275 0.99061 0
M  V30 14753 H 1423.41 -4.86837 1.08585 0
M  V30 14754 H 1422.56 -5.98604 -0.987842 0
M  V30 14755 H 1421.3 -4.73424 -1.17135 0
M  V30 14756 H 1420.3 -5.39963 1.03537 0
M  V30 14757 H 1421.53 -6.68316 1.20543 0
M  V30 14758 H 1419.47 -6.47875 -1.02926 0
M  V30 14759 H 1419.39 -7.55286 0.328376 0
M  V30 14760 H 1420.66 -7.74912 -0.844489 0
M  V30 14761 N 1424.89 -0.604284 -1.45555 0
M  V30 14762 C 1425.82 0.165286 -2.27601 0
M  V30 14763 C 1426.8 0.876749 -1.36937 0
M  V30 14764 O 1427.98 0.886288 -1.66365 0
M  V30 14765 C 1425.11 1.23897 -3.15226 0
M  V30 14766 C 1424.16 0.631002 -4.21806 0
M  V30 14767 S 1424.99 -0.558612 -5.32578 0
M  V30 14768 C 1426.15 0.515745 -6.23772 0
M  V30 14769 H 1426.38 -0.53081 -2.92523 0
M  V30 14770 H 1423.91 -0.391717 -1.49348 0
M  V30 14771 H 1425.87 1.85358 -3.66268 0
M  V30 14772 H 1424.53 1.90712 -2.49575 0
M  V30 14773 H 1423.72 1.43876 -4.83028 0
M  V30 14774 H 1423.33 0.0915984 -3.73888 0
M  V30 14775 H 1425.62 1.39571 -6.62968 0
M  V30 14776 H 1426.56 -0.0602302 -7.08074 0
M  V30 14777 H 1426.97 0.829588 -5.58371 0
M  V30 14778 N 1426.37 1.53816 -0.343257 0
M  V30 14779 C 1427.61 2.00512 0.252845 0
M  V30 14780 C 1427.94 1.23274 1.51091 0
M  V30 14781 O 1427.21 0.339841 1.9293 0
M  V30 14782 H 1425.79 0.740751 0.0964202 0
M  V30 14783 H 1428.45 1.89288 -0.464347 0
M  V30 14784 H 1427.54 3.08142 0.495499 0
M  V30 14785 N 1427.84 0.0718701 1.57436 0
M  V30 14786 C 1429.07 -0.605374 1.97532 0
M  V30 14787 C 1429.48 -1.6368 0.948974 0
M  V30 14788 O 1428.83 -1.83556 -0.0726987 0
M  V30 14789 C 1428.89 -1.33139 3.33937 0
M  V30 14790 C 1428.55 -0.453426 4.54745 0
M  V30 14791 C 1429.55 0.289012 5.19096 0
M  V30 14792 C 1427.23 -0.378282 5.00874 0
M  V30 14793 C 1429.23 1.09482 6.27927 0
M  V30 14794 C 1426.91 0.431192 6.09577 0
M  V30 14795 C 1427.91 1.16641 6.72966 0
M  V30 14796 O 1427.6 1.96253 7.79577 0
M  V30 14797 H 1427.33 -0.168804 0.654585 0
M  V30 14798 H 1429.89 0.140832 2.04917 0
M  V30 14799 H 1428.12 -2.12367 3.23167 0
M  V30 14800 H 1429.81 -1.90089 3.58638 0
M  V30 14801 H 1430.57 0.240552 4.84403 0
M  V30 14802 H 1426.45 -0.940166 4.51311 0
M  V30 14803 H 1429.99 1.66918 6.77336 0
M  V30 14804 H 1425.89 0.481217 6.43704 0
M  V30 14805 H 1426.66 1.88686 7.96455 0
M  V30 14806 N 1429.32 -1.56304 -0.201686 0
M  V30 14807 C 1430.27 -1.94021 -1.24999 0
M  V30 14808 C 1431.24 -0.799926 -1.45569 0
M  V30 14809 O 1432.42 -1.05752 -1.58811 0
M  V30 14810 C 1429.56 -2.27935 -2.59113 0
M  V30 14811 C 1428.68 -3.54995 -2.46176 0
M  V30 14812 C 1427.81 -3.78262 -3.72949 0
M  V30 14813 C 1426.85 -4.9877 -3.54817 0
M  V30 14814 N 1425.99 -5.18325 -4.73586 0
M  V30 14815 H 1430.83 -2.834 -0.92134 0
M  V30 14816 H 1428.37 -1.40252 -0.44359 0
M  V30 14817 H 1430.32 -2.45613 -3.37239 0
M  V30 14818 H 1428.95 -1.41705 -2.90034 0
M  V30 14819 H 1428.01 -3.45401 -1.59381 0
M  V30 14820 H 1429.32 -4.43277 -2.28708 0
M  V30 14821 H 1428.47 -3.96144 -4.59516 0
M  V30 14822 H 1427.21 -2.88299 -3.93364 0
M  V30 14823 H 1426.22 -4.80818 -2.66635 0
M  V30 14824 H 1427.44 -5.90237 -3.35854 0
M  V30 14825 H 1425.39 -4.31308 -4.94277 0
M  V30 14826 H 1425.3 -6.00774 -4.58919 0
M  V30 14827 H 1426.57 -5.40659 -5.61523 0
M  V30 14828 N 1430.8 0.469154 -1.50455 0
M  V30 14829 C 1432.03 1.24432 -1.653 0
M  V30 14830 C 1432.44 1.85766 -0.33713 0
M  V30 14831 O 1431.8 1.69313 0.681118 0
M  V30 14832 C 1431.85 2.35163 -2.74555 0
M  V30 14833 O 1431.57 1.76344 -4.01042 0
M  V30 14834 C 1433.07 3.26006 -3.00391 0
M  V30 14835 H 1430.29 0.376251 -0.555587 0
M  V30 14836 H 1432.84 0.559777 -1.96689 0
M  V30 14837 H 1430.99 2.99389 -2.45855 0
M  V30 14838 H 1431.41 2.49278 -4.61477 0
M  V30 14839 H 1432.88 3.99909 -3.80496 0
M  V30 14840 H 1433.36 3.84901 -2.11537 0
M  V30 14841 H 1433.96 2.67515 -3.3063 0
M  V30 14842 N 1432.28 1.40065 0.722464 0
M  V30 14843 C 1433.53 1.37277 1.47776 0
M  V30 14844 C 1433.84 -0.0242852 1.95585 0
M  V30 14845 O 1435.05 -0.174769 2.70937 0
M  V30 14846 C 1433.5 2.41233 2.67085 0
M  V30 14847 C 1433.11 3.86716 2.26174 0
M  V30 14848 C 1434.85 2.47541 3.44853 0
M  V30 14849 C 1432.76 4.82284 3.42281 0
M  V30 14850 H 1431.69 0.510405 0.55498 0
M  V30 14851 H 1434.34 1.6577 0.786928 0
M  V30 14852 H 1432.72 2.0583 3.38305 0
M  V30 14853 H 1433.9 4.31227 1.6242 0
M  V30 14854 H 1432.21 3.83819 1.61468 0
M  V30 14855 H 1434.81 3.16131 4.31237 0
M  V30 14856 H 1435.15 1.50379 3.8819 0
M  V30 14857 H 1435.69 2.81901 2.80672 0
M  V30 14858 H 1432.43 5.80754 3.03982 0
M  V30 14859 H 1431.95 4.42443 4.04975 0
M  V30 14860 H 1433.62 5.0178 4.08443 0
M  V30 14861 N 1433.76 -0.95397 1.25448 0
M  V30 14862 C 1434.69 -2.05019 1.00212 0
M  V30 14863 C 1435.67 -1.62454 -0.0688563 0
M  V30 14864 O 1436.85 -1.88366 0.0709352 0
M  V30 14865 C 1433.98 -3.34762 0.514987 0
M  V30 14866 C 1433.03 -3.9629 1.57659 0
M  V30 14867 S 1433.86 -4.32181 3.16196 0
M  V30 14868 C 1435.01 -5.65041 2.6922 0
M  V30 14869 H 1435.25 -2.26111 1.93032 0
M  V30 14870 H 1432.78 -1.09369 1.08985 0
M  V30 14871 H 1434.74 -4.09794 0.24058 0
M  V30 14872 H 1433.4 -3.11635 -0.392724 0
M  V30 14873 H 1432.59 -4.89836 1.18647 0
M  V30 14874 H 1432.19 -3.27741 1.80171 0
M  V30 14875 H 1434.49 -6.43184 2.12887 0
M  V30 14876 H 1435.43 -6.08925 3.61408 0
M  V30 14877 H 1435.84 -5.24306 2.09196 0
M  V30 14878 N 1435.24 -1.07045 -1.15668 0
M  V30 14879 C 1436.48 -0.792908 -1.86657 0
M  V30 14880 C 1436.81 0.679213 -1.81935 0
M  V30 14881 O 1436.09 1.49822 -1.2403 0
M  V30 14882 C 1436.37 -1.2978 -3.35901 0
M  V30 14883 C 1436.23 -2.83424 -3.49272 0
M  V30 14884 C 1437.54 -0.911821 -4.30551 0
M  V30 14885 H 1434.66 -0.289509 -0.677756 0
M  V30 14886 H 1437.31 -1.32769 -1.35913 0
M  V30 14887 H 1435.46 -0.84288 -3.79246 0
M  V30 14888 H 1437.13 -3.37182 -3.14811 0
M  V30 14889 H 1435.37 -3.21777 -2.90933 0
M  V30 14890 H 1436.04 -3.13819 -4.54116 0
M  V30 14891 H 1438.52 -1.30376 -3.95147 0
M  V30 14892 H 1437.39 -1.29247 -5.33467 0
M  V30 14893 H 1437.65 0.18255 -4.41723 0
M  V30 14894 N 1436.71 1.32449 -0.85411 0
M  V30 14895 C 1437.66 2.30821 -0.287115 0
M  V30 14896 C 1438.66 1.58823 0.58921 0
M  V30 14897 O 1439.86 1.73563 0.477075 0
M  V30 14898 H 1436.24 0.748336 -0.0741416 0
M  V30 14899 H 1438.21 2.76134 -1.13104 0
M  V30 14900 C 1436.96 3.43937 0.51013 0
M  V30 14901 H 1436.28 3.995 -0.154895 0
M  V30 14902 H 1437.72 4.14927 0.872451 0
M  V30 14903 C 1436.18 2.91147 1.69513 0
M  V30 14904 O 1436.71 2.88595 2.7942 0
M  V30 14905 N 1434.91 2.47554 1.52202 0
M  V30 14906 H 1434.46 2.49829 0.627941 0
M  V30 14907 H 1434.42 2.12587 2.31633 0
M  V30 14908 N 1438.19 0.611994 1.45232 0
M  V30 14909 C 1439.42 0.115242 2.06278 0
M  V30 14910 C 1439.83 -1.20752 1.45656 0
M  V30 14911 O 1439.17 -1.7474 0.566697 0
M  V30 14912 C 1439.23 -0.0941449 3.59377 0
M  V30 14913 C 1438.9 1.1475 4.42359 0
M  V30 14914 C 1439.9 2.06669 4.77058 0
M  V30 14915 C 1437.58 1.37756 4.83041 0
M  V30 14916 C 1439.57 3.19919 5.51299 0
M  V30 14917 C 1437.26 2.51306 5.57035 0
M  V30 14918 C 1438.26 3.42216 5.91082 0
M  V30 14919 O 1437.95 4.5379 6.63574 0
M  V30 14920 H 1437.68 0.0680317 0.672568 0
M  V30 14921 H 1440.23 0.840932 1.87397 0
M  V30 14922 H 1438.46 -0.874775 3.76676 0
M  V30 14923 H 1440.15 -0.543047 4.02251 0
M  V30 14924 H 1440.92 1.90122 4.46182 0
M  V30 14925 H 1436.8 0.678922 4.55973 0
M  V30 14926 H 1440.34 3.90901 5.77791 0
M  V30 14927 H 1436.24 2.67804 5.87325 0
M  V30 14928 H 1437.01 4.52527 6.82027 0
M  V30 14929 N 1439.67 -1.53632 0.351409 0
M  V30 14930 C 1440.62 -2.26782 -0.516983 0
M  V30 14931 C 1441.61 -1.29222 -1.09536 0
M  V30 14932 O 1442.82 -1.46901 -1.04019 0
M  V30 14933 H 1439.19 -0.728783 -0.185417 0
M  V30 14934 H 1441.16 -2.98151 0.121909 0
M  V30 14935 C 1439.91 -3.05943 -1.6521 0
M  V30 14936 H 1439.24 -3.80848 -1.21633 0
M  V30 14937 H 1440.68 -3.60328 -2.23472 0
M  V30 14938 C 1439.13 -2.15917 -2.58614 0
M  V30 14939 O 1439.66 -1.76049 -3.61067 0
M  V30 14940 N 1437.87 -1.80837 -2.27478 0
M  V30 14941 H 1437.42 -2.13456 -1.44202 0
M  V30 14942 H 1437.38 -1.20886 -2.90231 0
M  V30 14943 N 1441.15 -0.0802183 -1.57396 0
M  V30 14944 C 1442.56 0.451183 -1.81166 0
M  V30 14945 C 1442.91 1.69112 -0.994764 0
M  V30 14946 O 1442.03 2.15281 -0.219739 0
M  V30 14947 C 1442.63 0.825324 -3.28594 0
M  V30 14948 C 1441.19 1.30154 -3.53181 0
M  V30 14949 C 1440.34 0.290846 -2.75771 0
M  V30 14950 H 1443.29 -0.305829 -1.55725 0
M  V30 14951 H 1443.31 1.68608 -3.41104 0
M  V30 14952 H 1442.82 -0.0773119 -3.88023 0
M  V30 14953 H 1440.92 2.22239 -2.99066 0
M  V30 14954 H 1441.03 1.27365 -4.6186 0
M  V30 14955 H 1439.4 0.769894 -2.42785 0
M  V30 14956 H 1440.18 -0.604209 -3.37941 0
M  V30 14957 N 1442.63 1.56409 0.193394 0
M  V30 14958 C 1443.54 1.97886 1.26009 0
M  V30 14959 C 1444.55 0.886786 1.49707 0
M  V30 14960 O 1445.73 1.19267 1.62288 0
M  V30 14961 C 1442.79 2.31145 2.58404 0
M  V30 14962 C 1441.85 3.54069 2.42763 0
M  V30 14963 C 1441.09 3.85732 3.68845 0
M  V30 14964 O 1441.31 3.18662 4.73086 0
M  V30 14965 O 1440.24 4.79155 3.64272 0
M  V30 14966 H 1444.07 2.88849 0.938087 0
M  V30 14967 H 1441.65 1.43987 0.398528 0
M  V30 14968 H 1443.54 2.53606 3.36544 0
M  V30 14969 H 1442.21 1.4335 2.90228 0
M  V30 14970 H 1441.12 3.36854 1.62728 0
M  V30 14971 H 1442.45 4.42335 2.15871 0
M  V30 14972 N 1444.1 -0.461169 1.50702 0
M  V30 14973 C 1445.33 -1.23554 1.65958 0
M  V30 14974 C 1445.75 -1.85584 0.346977 0
M  V30 14975 O 1445.1 -1.69672 -0.672129 0
M  V30 14976 C 1445.15 -2.33704 2.75799 0
M  V30 14977 O 1444.88 -1.74215 4.01971 0
M  V30 14978 C 1446.38 -3.24409 3.02116 0
M  V30 14979 H 1443.6 -0.373299 0.557574 0
M  V30 14980 H 1446.14 -0.549338 1.96984 0
M  V30 14981 H 1444.3 -2.98081 2.47439 0
M  V30 14982 H 1444.71 -2.46827 4.62792 0
M  V30 14983 H 1446.18 -3.97885 3.82611 0
M  V30 14984 H 1446.66 -3.83774 2.13576 0
M  V30 14985 H 1447.27 -2.65757 3.32044 0
M  V30 14986 N 1445.58 -1.40446 -0.715026 0
M  V30 14987 C 1446.83 -1.3896 -1.47709 0
M  V30 14988 C 1447.16 0.00798698 -1.94198 0
M  V30 14989 O 1446.44 0.976732 -1.68197 0
M  V30 14990 C 1446.72 -2.37955 -2.70277 0
M  V30 14991 C 1446.57 -3.8674 -2.29678 0
M  V30 14992 C 1447.89 -2.34478 -3.72435 0
M  V30 14993 H 1445.01 -0.50607 -0.535782 0
M  V30 14994 H 1447.65 -1.71585 -0.815999 0
M  V30 14995 H 1445.8 -2.10264 -3.26682 0
M  V30 14996 H 1447.47 -4.2526 -1.7875 0
M  V30 14997 H 1445.72 -4.02547 -1.61674 0
M  V30 14998 H 1446.39 -4.51524 -3.17538 0
M  V30 14999 H 1448.86 -2.59007 -3.2566 0
M  V30 15000 H 1447.74 -3.05791 -4.55832 0
M  V30 15001 H 1448 -1.35661 -4.20771 0
M  V30 15002 N 1447.06 0.947303 -1.25952 0
M  V30 15003 C 1448.28 1.73261 -1.13997 0
M  V30 15004 C 1448.71 1.85666 0.301639 0
M  V30 15005 O 1448.07 1.34244 1.21854 0
M  V30 15006 C 1448.12 3.12046 -1.8072 0
M  V30 15007 O 1447.22 3.97684 -1.09182 0
M  V30 15008 H 1446.56 0.53182 -0.397572 0
M  V30 15009 H 1449.09 1.18689 -1.66656 0
M  V30 15010 H 1449.1 3.62468 -1.87299 0
M  V30 15011 H 1447.78 3.02334 -2.856 0
M  V30 15012 H 1446.35 3.56141 -1.10536 0
M  V30 15013 N 1448.54 1.07657 1.15099 0
M  V30 15014 C 1449.77 0.822825 1.89835 0
M  V30 15015 C 1450.18 -0.624281 1.7818 0
M  V30 15016 O 1449.54 -1.42844 1.13587 0
M  V30 15017 C 1449.59 1.22598 3.40076 0
M  V30 15018 O 1449.31 2.61631 3.51398 0
M  V30 15019 C 1450.81 1.00199 4.31828 0
M  V30 15020 H 1448.03 0.297288 0.601549 0
M  V30 15021 H 1450.58 1.43384 1.45813 0
M  V30 15022 H 1448.73 0.65923 3.8175 0
M  V30 15023 H 1449.14 2.78163 4.44664 0
M  V30 15024 H 1450.62 1.33355 5.35649 0
M  V30 15025 H 1451.1 -0.0614865 4.39157 0
M  V30 15026 H 1451.7 1.5538 3.959 0
M  V30 15027 N 1450.02 -1.31994 0.861122 0
M  V30 15028 C 1451.29 -1.91699 0.388705 0
M  V30 15029 C 1451.67 -1.78412 -1.12838 0
M  V30 15030 O 1451.02 -1.18625 -1.95296 0
M  V30 15031 C 1451.23 -3.38232 0.860248 0
M  V30 15032 C 1452.58 -4.15355 0.881201 0
M  V30 15033 O 1453.6 -3.46977 0.805313 0
M  V30 15034 O 1452.46 -5.37468 0.98945 0
M  V30 15035 H 1449.56 -0.819017 0.114629 0
M  V30 15036 H 1452.1 -1.40721 0.94845 0
M  V30 15037 H 1450.87 -3.41876 1.9036 0
M  V30 15038 H 1450.5 -3.96625 0.278316 0
M  V30 15039 N 1451.49 -0.619688 -1.44906 0
M  V30 15040 C 1452.72 -0.12618 -2.06214 0
M  V30 15041 C 1453.13 1.19978 -1.46294 0
M  V30 15042 O 1452.48 1.74437 -0.575956 0
M  V30 15043 C 1452.54 0.075085 -3.59422 0
M  V30 15044 C 1452.2 -1.17094 -4.41744 0
M  V30 15045 C 1453.2 -2.09196 -4.75955 0
M  V30 15046 C 1450.88 -1.40315 -4.82304 0
M  V30 15047 C 1452.88 -3.22839 -5.49594 0
M  V30 15048 C 1450.56 -2.54257 -5.55695 0
M  V30 15049 C 1451.56 -3.45346 -5.89258 0
M  V30 15050 O 1451.25 -4.57302 -6.61158 0
M  V30 15051 H 1450.98 -0.0715975 -0.672198 0
M  V30 15052 H 1453.54 -0.850858 -1.86948 0
M  V30 15053 H 1451.77 0.854787 -3.77134 0
M  V30 15054 H 1453.46 0.521707 -4.02533 0
M  V30 15055 H 1454.22 -1.92486 -4.45168 0
M  V30 15056 H 1450.1 -0.703094 -4.55607 0
M  V30 15057 H 1453.64 -3.93959 -5.7571 0
M  V30 15058 H 1449.54 -2.70915 -5.85897 0
M  V30 15059 H 1450.31 -4.56138 -6.79618 0
M  V30 15060 N 1452.97 1.53444 -0.359552 0
M  V30 15061 C 1454.25 1.93467 0.288106 0
M  V30 15062 C 1454.63 1.29256 1.66901 0
M  V30 15063 O 1453.98 0.449402 2.24037 0
M  V30 15064 C 1454.19 3.47297 0.344359 0
M  V30 15065 C 1455.54 4.20515 0.587585 0
M  V30 15066 O 1456.56 3.53646 0.425818 0
M  V30 15067 O 1455.42 5.39003 0.902119 0
M  V30 15068 H 1452.51 0.809033 0.171451 0
M  V30 15069 H 1455.06 1.64625 -0.411896 0
M  V30 15070 H 1453.83 3.86292 -0.624064 0
M  V30 15071 H 1453.45 3.82353 1.0905 0
M  V30 15072 N 1454.45 0.0885642 1.57351 0
M  V30 15073 C 1455.38 -0.909155 2.09307 0
M  V30 15074 C 1456.36 -1.28051 1.00209 0
M  V30 15075 O 1457.55 -1.38689 1.27662 0
M  V30 15076 C 1454.67 -2.21232 2.56465 0
M  V30 15077 C 1453.72 -1.9913 3.7716 0
M  V30 15078 S 1454.55 -1.23528 5.21058 0
M  V30 15079 C 1455.71 -2.55089 5.7156 0
M  V30 15080 H 1455.94 -0.467121 2.93607 0
M  V30 15081 H 1453.47 -0.124581 1.53897 0
M  V30 15082 H 1455.43 -2.96121 2.84293 0
M  V30 15083 H 1454.09 -2.62557 1.72403 0
M  V30 15084 H 1453.29 -2.95614 4.08201 0
M  V30 15085 H 1452.89 -1.32372 3.49791 0
M  V30 15086 H 1455.18 -3.51098 5.79428 0
M  V30 15087 H 1456.12 -2.28634 6.70173 0
M  V30 15088 H 1456.53 -2.63062 4.99458 0
M  V30 15089 N 1455.93 -1.56509 -0.185096 0
M  V30 15090 C 1457.17 -1.82997 -0.910576 0
M  V30 15091 C 1457.53 -0.667514 -1.80023 0
M  V30 15092 O 1458.73 -0.812514 -2.56226 0
M  V30 15093 C 1457 -3.14549 -1.69688 0
M  V30 15094 S 1458.56 -3.62474 -2.47301 0
M  V30 15095 H 1455.38 -0.642148 -0.305233 0
M  V30 15096 H 1457.98 -1.94731 -0.173217 0
M  V30 15097 H 1456.69 -3.97158 -1.0341 0
M  V30 15098 H 1456.22 -3.05719 -2.47587 0
M  V30 15099 H 1458.23 -3.28705 -3.71709 0
M  V30 15100 N 1457.41 0.45317 -1.50944 0
M  V30 15101 C 1458.68 1.21413 -1.53357 0
M  V30 15102 C 1459.06 2.09118 -0.288584 0
M  V30 15103 O 1458.41 2.16621 0.727164 0
M  V30 15104 C 1458.62 2.02969 -2.83909 0
M  V30 15105 C 1459.97 2.60551 -3.35258 0
M  V30 15106 O 1460.99 2.13196 -2.85353 0
M  V30 15107 O 1459.85 3.46881 -4.22298 0
M  V30 15108 H 1456.95 0.551909 -0.615894 0
M  V30 15109 H 1459.49 0.463529 -1.63247 0
M  V30 15110 H 1458.26 1.38453 -3.65987 0
M  V30 15111 H 1457.89 2.85127 -2.77107 0
M  V30 15112 N 1458.88 1.40823 0.707568 0
M  V30 15113 C 1460.3 1.23029 1.01666 0
M  V30 15114 C 1460.5 0.111152 2.01193 0
M  V30 15115 O 1459.56 -0.52836 2.4691 0
M  V30 15116 C 1460.87 2.57509 1.55272 0
M  V30 15117 C 1462.42 2.6459 1.67216 0
M  V30 15118 C 1462.89 3.99357 2.24227 0
M  V30 15119 N 1464.38 4.01141 2.31603 0
M  V30 15120 C 1465.12 5.02211 2.76715 0
M  V30 15121 N 1464.61 6.13674 3.21521 0
M  V30 15122 N 1466.41 4.89577 2.76172 0
M  V30 15123 H 1458.56 2.12346 0.0480107 0
M  V30 15124 H 1460.82 0.944281 0.0838885 0
M  V30 15125 H 1460.53 3.40095 0.896012 0
M  V30 15126 H 1460.4 2.79158 2.53674 0
M  V30 15127 H 1462.79 1.8237 2.32002 0
M  V30 15128 H 1462.87 2.46763 0.673927 0
M  V30 15129 H 1462.51 4.8202 1.6006 0
M  V30 15130 H 1462.44 4.14518 3.2478 0
M  V30 15131 H 1464.93 3.20657 1.99968 0
M  V30 15132 H 1465.25 6.86677 3.54534 0
M  V30 15133 H 1463.59 6.17228 3.1946 0
M  V30 15134 H 1466.78 4.01588 2.40509 0
M  V30 15135 H 1466.96 5.68485 3.11012 0
M  V30 15136 N 1460.36 -0.94061 1.26453 0
M  V30 15137 C 1461.29 -2.05667 1.10559 0
M  V30 15138 C 1462.27 -1.70097 0.0106258 0
M  V30 15139 O 1463.46 -1.93338 0.182756 0
M  V30 15140 C 1460.59 -3.3936 0.7384 0
M  V30 15141 C 1459.54 -3.88993 1.78517 0
M  V30 15142 C 1458.87 -5.19343 1.27228 0
M  V30 15143 C 1460.17 -4.13812 3.1868 0
M  V30 15144 H 1461.86 -2.19221 2.03918 0
M  V30 15145 H 1459.41 -1.05339 0.98182 0
M  V30 15146 H 1461.36 -4.16902 0.61409 0
M  V30 15147 H 1460.09 -3.25783 -0.230887 0
M  V30 15148 H 1458.74 -3.13633 1.89816 0
M  V30 15149 H 1458.39 -5.02147 0.292816 0
M  V30 15150 H 1458.09 -5.53521 1.97201 0
M  V30 15151 H 1459.62 -5.99468 1.16065 0
M  V30 15152 H 1461.03 -4.81966 3.10455 0
M  V30 15153 H 1459.43 -4.59273 3.86249 0
M  V30 15154 H 1460.5 -3.19571 3.64695 0
M  V30 15155 N 1461.84 -1.08266 -1.14527 0
M  V30 15156 C 1463.07 -0.831673 -1.89121 0
M  V30 15157 C 1463.48 0.619702 -1.78763 0
M  V30 15158 O 1462.82 1.43748 -1.14377 0
M  V30 15159 C 1462.88 -1.17276 -3.39833 0
M  V30 15160 C 1462.55 -2.62662 -3.73975 0
M  V30 15161 C 1463.54 -3.60913 -3.74216 0
M  V30 15162 C 1461.23 -2.9848 -4.03999 0
M  V30 15163 C 1463.22 -4.93012 -4.04002 0
M  V30 15164 C 1460.91 -4.30773 -4.33448 0
M  V30 15165 C 1461.91 -5.27849 -4.33433 0
M  V30 15166 O 1461.6 -6.57765 -4.6217 0
M  V30 15167 H 1461.33 -0.299687 -0.60594 0
M  V30 15168 H 1463.88 -1.44498 -1.45978 0
M  V30 15169 H 1462.11 -0.502458 -3.83422 0
M  V30 15170 H 1463.8 -0.902831 -3.95732 0
M  V30 15171 H 1464.57 -3.34585 -3.5111 0
M  V30 15172 H 1460.45 -2.23561 -4.03164 0
M  V30 15173 H 1463.99 -5.68776 -4.03906 0
M  V30 15174 H 1459.89 -4.5685 -4.56024 0
M  V30 15175 H 1460.66 -6.63057 -4.79893 0
M  V30 15176 N 1463.32 1.31536 -0.86811 0
M  V30 15177 C 1464.57 1.96775 -0.47812 0
M  V30 15178 C 1464.89 1.68632 0.9692 0
M  V30 15179 O 1464.15 0.974357 1.6972 0
M  V30 15180 C 1464.45 3.50876 -0.679752 0
M  V30 15181 C 1464.11 3.99034 -2.09958 0
M  V30 15182 C 1462.78 4.11896 -2.48787 0
M  V30 15183 C 1465.13 4.24387 -3.02564 0
M  V30 15184 C 1462.46 4.47461 -3.79468 0
M  V30 15185 C 1464.81 4.61415 -4.32757 0
M  V30 15186 C 1463.47 4.72484 -4.71503 0
M  V30 15187 H 1462.74 0.720049 -0.174957 0
M  V30 15188 H 1465.39 1.56703 -1.10074 0
M  V30 15189 H 1463.69 3.91791 0.0260174 0
M  V30 15190 H 1465.39 3.994 -0.357855 0
M  V30 15191 H 1461.98 3.89518 -1.78811 0
M  V30 15192 H 1466.17 4.13947 -2.73791 0
M  V30 15193 H 1461.42 4.54227 -4.09252 0
M  V30 15194 H 1465.6 4.79985 -5.04566 0
M  V30 15195 H 1463.22 4.99798 -5.72806 0
M  V30 15196 N 1464.8 0.627364 1.44575 0
M  V30 15197 C 1466.07 0.0614392 1.95503 0
M  V30 15198 C 1466.45 -1.41182 1.56942 0
M  V30 15199 O 1465.8 -2.12435 0.841634 0
M  V30 15200 C 1466.01 0.280349 3.47872 0
M  V30 15201 C 1467.36 0.171559 4.24253 0
M  V30 15202 O 1468.38 0.211515 3.55571 0
M  V30 15203 O 1467.24 0.0733152 5.46451 0
M  V30 15204 H 1464.34 -0.0244626 0.826638 0
M  V30 15205 H 1466.88 0.698805 1.54644 0
M  V30 15206 H 1465.66 1.30278 3.68976 0
M  V30 15207 H 1465.28 -0.391336 3.95669 0
M  V30 15208 N 1466.28 -1.53251 0.367684 0
M  V30 15209 C 1467.19 -2.29518 -0.485669 0
M  V30 15210 C 1468.2 -1.35568 -1.09075 0
M  V30 15211 O 1469.38 -1.68626 -1.10124 0
M  V30 15212 C 1466.44 -3.07115 -1.60876 0
M  V30 15213 C 1465.5 -4.16736 -1.031 0
M  V30 15214 C 1464.74 -4.90624 -2.10056 0
M  V30 15215 O 1464.96 -4.64393 -3.31203 0
M  V30 15216 O 1463.89 -5.76503 -1.72996 0
M  V30 15217 H 1467.72 -3.034 0.135017 0
M  V30 15218 H 1465.3 -1.48816 0.132005 0
M  V30 15219 H 1467.19 -3.55564 -2.26168 0
M  V30 15220 H 1465.86 -2.36068 -2.21481 0
M  V30 15221 H 1464.77 -3.72534 -0.341928 0
M  V30 15222 H 1466.1 -4.89956 -0.469473 0
M  V30 15223 N 1467.75 -0.0969077 -1.57302 0
M  V30 15224 C 1469 0.566072 -1.93594 0
M  V30 15225 C 1469.32 1.69226 -0.980922 0
M  V30 15226 O 1470.52 2.41651 -1.23763 0
M  V30 15227 C 1468.98 1.05832 -3.43988 0
M  V30 15228 C 1468.59 -0.038207 -4.47984 0
M  V30 15229 C 1470.33 1.69393 -3.89238 0
M  V30 15230 C 1468.24 0.4695 -5.89533 0
M  V30 15231 H 1467.17 0.215226 -0.72263 0
M  V30 15232 H 1469.82 -0.173202 -1.82681 0
M  V30 15233 H 1468.2 1.85134 -3.50059 0
M  V30 15234 H 1469.37 -0.813761 -4.53558 0
M  V30 15235 H 1467.69 -0.579113 -4.12353 0
M  V30 15236 H 1470.29 2.08454 -4.92393 0
M  V30 15237 H 1470.63 2.56381 -3.27986 0
M  V30 15238 H 1471.16 0.966709 -3.85875 0
M  V30 15239 H 1467.9 -0.363802 -6.5449 0
M  V30 15240 H 1467.42 1.21202 -5.87427 0
M  V30 15241 H 1469.1 0.937885 -6.40166 0
M  V30 15242 N 1469.23 1.56605 0.176793 0
M  V30 15243 C 1470.46 1.8617 0.91408 0
M  V30 15244 C 1470.88 0.68262 1.75277 0
M  V30 15245 O 1470.24 -0.368391 1.77518 0
M  V30 15246 C 1470.29 3.14109 1.7711 0
M  V30 15247 O 1469.39 2.95947 2.87209 0
M  V30 15248 H 1468.73 0.612507 0.25638 0
M  V30 15249 H 1471.26 2.03837 0.176586 0
M  V30 15250 H 1471.27 3.45373 2.17213 0
M  V30 15251 H 1469.95 3.9954 1.15502 0
M  V30 15252 H 1468.52 2.76024 2.50729 0
M  V30 15253 N 1470.71 -0.445159 1.51182 0
M  V30 15254 C 1471.96 -1.19524 1.63463 0
M  V30 15255 C 1472.28 -1.91377 0.347136 0
M  V30 15256 O 1471.54 -1.83932 -0.668408 0
M  V30 15257 C 1471.84 -2.24274 2.78273 0
M  V30 15258 C 1471.5 -1.6949 4.17833 0
M  V30 15259 C 1470.17 -1.54271 4.558 0
M  V30 15260 C 1472.52 -1.29128 5.04951 0
M  V30 15261 C 1469.85 -0.971532 5.786 0
M  V30 15262 C 1472.2 -0.734426 6.28322 0
M  V30 15263 C 1470.86 -0.569079 6.6507 0
M  V30 15264 H 1470.13 -0.437369 0.598155 0
M  V30 15265 H 1472.78 -0.48742 1.85193 0
M  V30 15266 H 1471.08 -3.01065 2.50734 0
M  V30 15267 H 1472.78 -2.82117 2.84975 0
M  V30 15268 H 1469.37 -1.82309 3.87894 0
M  V30 15269 H 1473.56 -1.39709 4.7623 0
M  V30 15270 H 1468.81 -0.831117 6.05725 0
M  V30 15271 H 1472.99 -0.413133 6.95173 0
M  V30 15272 H 1470.61 -0.124355 7.60098 0
M  V30 15273 N 1472.19 -1.41197 -0.700089 0
M  V30 15274 C 1473.1 -1.45038 -1.84394 0
M  V30 15275 C 1474.11 -0.34141 -1.70618 0
M  V30 15276 O 1475.29 -0.588428 -1.92612 0
M  V30 15277 C 1472.35 -1.32611 -3.20336 0
M  V30 15278 C 1471.42 -2.53784 -3.46254 0
M  V30 15279 C 1470.65 -2.4194 -4.75711 0
M  V30 15280 O 1470.87 -1.44153 -5.51884 0
M  V30 15281 O 1469.81 -3.31613 -5.02311 0
M  V30 15282 H 1473.63 -2.41531 -1.8411 0
M  V30 15283 H 1471.22 -1.22686 -0.852558 0
M  V30 15284 H 1473.1 -1.27947 -4.01507 0
M  V30 15285 H 1471.77 -0.392309 -3.21314 0
M  V30 15286 H 1470.68 -2.64024 -2.65032 0
M  V30 15287 H 1472.01 -3.45977 -3.50087 0
M  V30 15288 N 1473.67 0.933891 -1.2695 0
M  V30 15289 C 1474.91 1.6834 -1.13091 0
M  V30 15290 C 1475.24 1.91484 0.32367 0
M  V30 15291 O 1474.52 1.50075 1.23724 0
M  V30 15292 C 1474.8 3.05374 -1.90838 0
M  V30 15293 C 1474.66 2.8951 -3.44244 0
M  V30 15294 C 1475.97 4.05607 -1.70795 0
M  V30 15295 H 1473.09 0.610944 -0.41221 0
M  V30 15296 H 1475.74 1.08416 -1.56032 0
M  V30 15297 H 1473.89 3.56526 -1.54343 0
M  V30 15298 H 1475.56 2.45523 -3.90533 0
M  V30 15299 H 1473.8 2.24981 -3.70899 0
M  V30 15300 H 1474.47 3.86734 -3.93879 0
M  V30 15301 H 1476.95 3.63443 -2.02604 0
M  V30 15302 H 1475.82 4.9949 -2.27597 0
M  V30 15303 H 1476.08 4.37231 -0.654327 0
M  V30 15304 N 1475.14 1.08871 1.13951 0
M  V30 15305 C 1476.39 0.822504 1.85372 0
M  V30 15306 C 1476.72 -0.650183 1.82993 0
M  V30 15307 O 1476 -1.4783 1.26398 0
M  V30 15308 C 1476.28 1.35107 3.33793 0
M  V30 15309 C 1476.13 2.88945 3.44719 0
M  V30 15310 C 1477.45 0.980203 4.29045 0
M  V30 15311 H 1474.57 0.300255 0.673065 0
M  V30 15312 H 1477.21 1.34914 1.33784 0
M  V30 15313 H 1475.36 0.903108 3.77857 0
M  V30 15314 H 1477.04 3.42148 3.09407 0
M  V30 15315 H 1475.28 3.26365 2.85777 0
M  V30 15316 H 1475.95 3.21004 4.49066 0
M  V30 15317 H 1478.43 1.36646 3.93023 0
M  V30 15318 H 1477.3 1.37717 5.31343 0
M  V30 15319 H 1477.56 -0.112253 4.41957 0
M  V30 15320 N 1476.62 -1.31073 0.875073 0
M  V30 15321 C 1477.55 -2.26485 0.279215 0
M  V30 15322 C 1478.53 -1.5134 -0.594556 0
M  V30 15323 O 1479.72 -1.80393 -0.546849 0
M  V30 15324 C 1476.84 -3.33268 -0.604165 0
M  V30 15325 C 1475.89 -4.26036 0.198944 0
M  V30 15326 S 1476.72 -5.11636 1.58079 0
M  V30 15327 C 1477.88 -6.21932 0.703665 0
M  V30 15328 H 1478.11 -2.76677 1.088 0
M  V30 15329 H 1475.64 -1.38917 0.673898 0
M  V30 15330 H 1477.6 -3.9526 -1.10813 0
M  V30 15331 H 1476.26 -2.8182 -1.38694 0
M  V30 15332 H 1475.46 -5.01759 -0.474755 0
M  V30 15333 H 1475.06 -3.68567 0.635185 0
M  V30 15334 H 1477.35 -6.77448 -0.0835828 0
M  V30 15335 H 1478.29 -6.93465 1.43219 0
M  V30 15336 H 1478.7 -5.63859 0.268954 0
M  V30 15337 N 1478.1 -0.635022 -1.4424 0
M  V30 15338 C 1479.38 -0.0718064 -1.95468 0
M  V30 15339 C 1479.76 1.40348 -1.57689 0
M  V30 15340 O 1479.11 2.11986 -0.852888 0
M  V30 15341 C 1479.32 -0.298793 -3.47719 0
M  V30 15342 C 1480.66 -0.194056 -4.24156 0
M  V30 15343 O 1481.69 -0.230368 -3.55454 0
M  V30 15344 O 1480.55 -0.102294 -5.46404 0
M  V30 15345 H 1477.64 0.0200784 -0.826756 0
M  V30 15346 H 1480.19 -0.706996 -1.54271 0
M  V30 15347 H 1478.96 -1.32233 -3.6828 0
M  V30 15348 H 1478.58 0.370347 -3.95871 0
M  V30 15349 N 1479.58 1.53054 -0.375806 0
M  V30 15350 C 1480.83 2.00584 0.211847 0
M  V30 15351 C 1481.14 1.26692 1.49025 0
M  V30 15352 O 1482.35 1.64863 2.15713 0
M  V30 15353 C 1480.8 3.57345 0.428074 0
M  V30 15354 C 1480.41 4.40125 -0.836299 0
M  V30 15355 C 1482.15 4.13203 0.972825 0
M  V30 15356 C 1480.06 5.88459 -0.589093 0
M  V30 15357 H 1478.99 0.749424 0.0829412 0
M  V30 15358 H 1481.64 1.76666 -0.496126 0
M  V30 15359 H 1480.02 3.77458 1.19756 0
M  V30 15360 H 1481.2 4.31782 -1.60936 0
M  V30 15361 H 1479.51 3.95422 -1.30501 0
M  V30 15362 H 1482.11 5.21669 1.17326 0
M  V30 15363 H 1482.45 3.68441 1.93797 0
M  V30 15364 H 1482.99 3.96928 0.263249 0
M  V30 15365 H 1479.73 6.37517 -1.52485 0
M  V30 15366 H 1479.25 5.99624 0.145285 0
M  V30 15367 H 1480.92 6.46631 -0.218485 0
M  V30 15368 N 1481.06 0.105248 1.57248 0
M  V30 15369 C 1482.29 -0.563339 1.98771 0
M  V30 15370 C 1482.69 -1.6163 0.98348 0
M  V30 15371 O 1482.04 -1.83669 -0.0337474 0
M  V30 15372 C 1482.1 -1.26026 3.36686 0
M  V30 15373 C 1481.76 -0.356865 4.55605 0
M  V30 15374 C 1482.76 0.399055 5.18366 0
M  V30 15375 C 1480.45 -0.271954 5.01563 0
M  V30 15376 C 1482.44 1.22776 6.25464 0
M  V30 15377 C 1480.13 0.560395 6.08525 0
M  V30 15378 C 1481.12 1.30889 6.70341 0
M  V30 15379 O 1480.81 2.12745 7.75239 0
M  V30 15380 H 1480.54 -0.154882 0.658018 0
M  V30 15381 H 1483.1 0.184266 2.04572 0
M  V30 15382 H 1481.33 -2.05465 3.27599 0
M  V30 15383 H 1483.02 -1.82439 3.62589 0
M  V30 15384 H 1483.78 0.343247 4.83784 0
M  V30 15385 H 1479.66 -0.844224 4.53204 0
M  V30 15386 H 1483.21 1.81248 6.73643 0
M  V30 15387 H 1479.1 0.617647 6.42538 0
M  V30 15388 H 1479.87 2.05537 7.92273 0
M  V30 15389 N 1482.53 -1.56697 -0.168486 0
M  V30 15390 C 1483.44 -1.99866 -1.22845 0
M  V30 15391 C 1484.46 -0.910491 -1.48277 0
M  V30 15392 O 1485.64 -1.21834 -1.6037 0
M  V30 15393 C 1482.7 -2.35227 -2.54694 0
M  V30 15394 C 1481.76 -3.57886 -2.37099 0
M  V30 15395 C 1481 -3.91551 -3.62661 0
M  V30 15396 O 1481.22 -3.26148 -4.67957 0
M  V30 15397 O 1480.15 -4.8489 -3.56603 0
M  V30 15398 H 1483.98 -2.90305 -0.892015 0
M  V30 15399 H 1481.56 -1.44602 -0.375571 0
M  V30 15400 H 1483.45 -2.58928 -3.32467 0
M  V30 15401 H 1482.12 -1.4795 -2.87911 0
M  V30 15402 H 1481.03 -3.394 -1.57348 0
M  V30 15403 H 1482.36 -4.45714 -2.08806 0
M  V30 15404 N 1484.01 0.437135 -1.51416 0
M  V30 15405 C 1484.94 1.538 -1.75692 0
M  V30 15406 C 1485.92 1.5891 -0.606759 0
M  V30 15407 O 1487.11 1.74635 -0.849492 0
M  V30 15408 C 1484.24 2.91877 -1.88215 0
M  V30 15409 C 1483.19 3.01628 -3.03652 0
M  V30 15410 C 1482.52 4.41687 -3.01358 0
M  V30 15411 C 1483.82 2.75691 -4.43612 0
M  V30 15412 H 1485.51 1.33737 -2.67871 0
M  V30 15413 H 1483.06 0.641936 -1.289 0
M  V30 15414 H 1485.01 3.68851 -2.03781 0
M  V30 15415 H 1483.74 3.13173 -0.926847 0
M  V30 15416 H 1482.39 2.27094 -2.87791 0
M  V30 15417 H 1482.04 4.5995 -2.03605 0
M  V30 15418 H 1481.74 4.49141 -3.78875 0
M  V30 15419 H 1483.27 5.20634 -3.19018 0
M  V30 15420 H 1484.68 3.42398 -4.59822 0
M  V30 15421 H 1483.08 2.94554 -5.22836 0
M  V30 15422 H 1484.15 1.71297 -4.53636 0
M  V30 15423 N 1485.49 1.41566 0.692592 0
M  V30 15424 C 1486.4 1.46014 1.83622 0
M  V30 15425 C 1487.42 0.350453 1.70434 0
M  V30 15426 O 1488.59 0.598634 1.92298 0
M  V30 15427 C 1485.66 1.34308 3.19628 0
M  V30 15428 C 1484.72 2.55617 3.44904 0
M  V30 15429 C 1483.95 2.4446 4.74421 0
M  V30 15430 O 1484.17 1.47078 5.51112 0
M  V30 15431 O 1483.11 3.34272 5.00546 0
M  V30 15432 H 1486.93 2.42504 1.82826 0
M  V30 15433 H 1484.52 1.23136 0.846039 0
M  V30 15434 H 1486.4 1.30075 4.00822 0
M  V30 15435 H 1485.08 0.409343 3.21101 0
M  V30 15436 H 1483.98 2.65426 2.63628 0
M  V30 15437 H 1485.32 3.47829 3.48247 0
M  V30 15438 N 1486.97 -0.927146 1.27443 0
M  V30 15439 C 1487.92 -2.04917 1.10053 0
M  V30 15440 C 1488.91 -1.69384 0.0234668 0
M  V30 15441 O 1490.12 -1.79085 0.181228 0
M  V30 15442 H 1486.49 -0.671189 0.33913 0
M  V30 15443 H 1488.46 -2.16732 2.05109 0
M  V30 15444 C 1487.21 -3.39178 0.765072 0
M  V30 15445 H 1486.53 -3.67006 1.58577 0
M  V30 15446 H 1487.97 -4.18458 0.683266 0
M  V30 15447 C 1486.43 -3.32696 -0.530578 0
M  V30 15448 O 1486.96 -3.69967 -1.56484 0
M  V30 15449 N 1485.17 -2.85793 -0.526396 0
M  V30 15450 H 1484.72 -2.55658 0.315675 0
M  V30 15451 H 1484.67 -2.81838 -1.39337 0
M  V30 15452 N 1488.45 -1.09474 -1.13372 0
M  V30 15453 C 1489.86 -0.850378 -1.66209 0
M  V30 15454 C 1490.21 0.621071 -1.86111 0
M  V30 15455 O 1489.33 1.47837 -1.58029 0
M  V30 15456 C 1489.93 -1.53713 -3.01924 0
M  V30 15457 C 1488.49 -1.33972 -3.5175 0
M  V30 15458 C 1487.63 -1.5929 -2.26985 0
M  V30 15459 H 1490.59 -1.25383 -0.972874 0
M  V30 15460 H 1490.61 -0.970503 -3.67915 0
M  V30 15461 H 1490.12 -2.60804 -2.87407 0
M  V30 15462 H 1488.22 -0.289998 -3.7147 0
M  V30 15463 H 1488.33 -2.0749 -4.31839 0
M  V30 15464 H 1486.7 -1.01505 -2.336 0
M  V30 15465 H 1487.48 -2.67611 -2.15033 0
M  V30 15466 N 1489.92 1.30607 -0.882012 0
M  V30 15467 C 1490.83 2.31967 -0.350503 0
M  V30 15468 C 1491.85 1.6522 0.54575 0
M  V30 15469 O 1493.03 1.96544 0.439581 0
M  V30 15470 C 1490.09 3.44037 0.428924 0
M  V30 15471 C 1489.15 4.26417 -0.496727 0
M  V30 15472 C 1488.39 5.33135 0.245597 0
M  V30 15473 O 1488.61 5.51077 1.47209 0
M  V30 15474 O 1487.54 6.00551 -0.402767 0
M  V30 15475 H 1491.37 2.79374 -1.19095 0
M  V30 15476 H 1488.95 1.34723 -0.645754 0
M  V30 15477 H 1490.84 4.12314 0.870346 0
M  V30 15478 H 1489.51 2.9877 1.24573 0
M  V30 15479 H 1488.42 3.60848 -0.986899 0
M  V30 15480 H 1489.75 4.7528 -1.27945 0
M  V30 15481 N 1491.4 0.642663 1.43901 0
M  V30 15482 C 1492.65 0.151478 2.01532 0
M  V30 15483 C 1492.97 -1.23519 1.50891 0
M  V30 15484 O 1492.24 -1.82299 0.717197 0
M  V30 15485 H 1490.82 0.0530091 0.745117 0
M  V30 15486 H 1493.48 0.831958 1.76251 0
M  V30 15487 H 1492.58 0.127995 3.11837 0
M  V30 15488 N 1492.88 -1.52852 0.383918 0
M  V30 15489 C 1494.13 -2.01809 -0.200285 0
M  V30 15490 C 1494.46 -1.27009 -1.46909 0
M  V30 15491 O 1493.74 -0.369002 -1.90968 0
M  V30 15492 C 1494.02 -3.56971 -0.473672 0
M  V30 15493 C 1493.87 -4.42446 0.810048 0
M  V30 15494 C 1495.19 -4.21481 -1.26658 0
M  V30 15495 H 1492.31 -0.733541 -0.0713192 0
M  V30 15496 H 1494.95 -1.8296 0.512425 0
M  V30 15497 H 1493.1 -3.73163 -1.08081 0
M  V30 15498 H 1494.77 -4.38016 1.44706 0
M  V30 15499 H 1493.02 -4.09674 1.42652 0
M  V30 15500 H 1493.69 -5.49013 0.573478 0
M  V30 15501 H 1496.16 -4.09233 -0.752806 0
M  V30 15502 H 1495.04 -5.30037 -1.42661 0
M  V30 15503 H 1495.3 -3.78756 -2.28028 0
M  V30 15504 N 1494.36 -0.113586 -1.5719 0
M  V30 15505 C 1495.61 0.545507 -1.94183 0
M  V30 15506 C 1495.92 1.68176 -0.998816 0
M  V30 15507 O 1497.13 2.40324 -1.26319 0
M  V30 15508 C 1495.58 1.02178 -3.45091 0
M  V30 15509 C 1495.19 -0.0857195 -4.47918 0
M  V30 15510 C 1496.94 1.65255 -3.91013 0
M  V30 15511 C 1494.84 0.406946 -5.89998 0
M  V30 15512 H 1493.77 0.20755 -0.724872 0
M  V30 15513 H 1496.42 -0.192567 -1.82487 0
M  V30 15514 H 1494.81 1.81411 -3.52003 0
M  V30 15515 H 1495.98 -0.861821 -4.52669 0
M  V30 15516 H 1494.29 -0.622816 -4.11716 0
M  V30 15517 H 1496.89 2.0322 -4.94576 0
M  V30 15518 H 1497.23 2.52888 -3.30687 0
M  V30 15519 H 1497.77 0.925727 -3.86879 0
M  V30 15520 H 1494.51 -0.433199 -6.54067 0
M  V30 15521 H 1494.03 1.14965 -5.88679 0
M  V30 15522 H 1495.71 0.869934 -6.41125 0
M  V30 15523 N 1495.84 1.56784 0.160173 0
M  V30 15524 C 1496.77 2.00298 1.20012 0
M  V30 15525 C 1497.75 0.880356 1.45546 0
M  V30 15526 O 1498.93 1.14724 1.56691 0
M  V30 15527 C 1496.06 2.37238 2.53645 0
M  V30 15528 C 1495.02 3.52563 2.42658 0
M  V30 15529 C 1494.34 3.75278 3.80881 0
M  V30 15530 C 1495.64 4.85657 1.92183 0
M  V30 15531 H 1497.34 2.87423 0.838362 0
M  V30 15532 H 1494.88 1.3828 0.401838 0
M  V30 15533 H 1496.84 2.66278 3.2661 0
M  V30 15534 H 1495.56 1.47035 2.9163 0
M  V30 15535 H 1494.22 3.23669 1.72146 0
M  V30 15536 H 1493.87 2.82347 4.1628 0
M  V30 15537 H 1493.57 4.52882 3.74396 0
M  V30 15538 H 1495.09 4.0673 4.55415 0
M  V30 15539 H 1496.51 5.13501 2.54931 0
M  V30 15540 H 1494.9 5.66975 1.96619 0
M  V30 15541 H 1495.97 4.76908 0.876742 0
M  V30 15542 N 1497.32 -0.429099 1.51646 0
M  V30 15543 C 1498.54 -1.20465 1.68828 0
M  V30 15544 C 1498.97 -1.84044 0.388514 0
M  V30 15545 O 1498.32 -1.69165 -0.652152 0
M  V30 15546 C 1498.37 -2.25831 2.81128 0
M  V30 15547 O 1497.48 -3.31511 2.45305 0
M  V30 15548 H 1496.82 -0.352568 0.562665 0
M  V30 15549 H 1499.35 -0.505698 1.98252 0
M  V30 15550 H 1499.36 -2.70484 3.05455 0
M  V30 15551 H 1498.03 -1.78934 3.7544 0
M  V30 15552 H 1496.61 -2.92277 2.31579 0
M  V30 15553 N 1498.79 -1.41931 -0.685074 0
M  V30 15554 C 1499.73 -1.39028 -1.8096 0
M  V30 15555 C 1500.7 -0.256001 -1.60572 0
M  V30 15556 O 1501.89 -0.44459 -1.83182 0
M  V30 15557 C 1499.02 -1.17125 -3.17804 0
M  V30 15558 C 1498.06 -2.33411 -3.56961 0
M  V30 15559 S 1498.89 -3.9592 -3.60565 0
M  V30 15560 C 1500.05 -3.7634 -5.00119 0
M  V30 15561 H 1500.28 -2.34189 -1.83146 0
M  V30 15562 H 1497.82 -1.2858 -0.854778 0
M  V30 15563 H 1499.77 -1.05175 -3.96798 0
M  V30 15564 H 1498.44 -0.235668 -3.13215 0
M  V30 15565 H 1497.63 -2.13807 -4.56402 0
M  V30 15566 H 1497.23 -2.41823 -2.85303 0
M  V30 15567 H 1499.52 -3.36695 -5.87914 0
M  V30 15568 H 1500.47 -4.7542 -5.24768 0
M  V30 15569 H 1500.87 -3.09407 -4.72152 0
M  V30 15570 N 1500.27 0.920374 -1.27933 0
M  V30 15571 C 1501.52 1.66554 -1.14474 0
M  V30 15572 C 1501.84 1.92545 0.308444 0
M  V30 15573 O 1501.11 1.53691 1.21473 0
M  V30 15574 H 1499.69 0.617302 -0.420651 0
M  V30 15575 H 1502.35 1.10473 -1.60567 0
M  V30 15576 H 1501.45 2.63067 -1.67935 0
M  V30 15577 N 1501.75 1.10074 1.1279 0
M  V30 15578 C 1503 0.839212 1.83852 0
M  V30 15579 C 1503.32 -0.637023 1.84301 0
M  V30 15580 O 1502.59 -1.46239 1.30349 0
M  V30 15581 H 1501.17 0.307468 0.680788 0
M  V30 15582 H 1503.83 1.39025 1.36595 0
M  V30 15583 H 1502.93 1.19872 2.88162 0
M  V30 15584 N 1503.23 -1.30138 0.888926 0
M  V30 15585 C 1504.16 -2.27013 0.315904 0
M  V30 15586 C 1505.17 -1.53871 -0.531746 0
M  V30 15587 O 1506.36 -1.75022 -0.350654 0
M  V30 15588 C 1503.46 -3.34087 -0.569119 0
M  V30 15589 C 1502.63 -4.36683 0.250359 0
M  V30 15590 C 1501.69 -5.23149 -0.565783 0
M  V30 15591 O 1500.72 -5.69199 0.0129167 0
M  V30 15592 N 1501.92 -5.49416 -1.8741 0
M  V30 15593 H 1504.69 -2.76821 1.14848 0
M  V30 15594 H 1502.25 -1.43359 0.752311 0
M  V30 15595 H 1504.24 -3.88857 -1.12125 0
M  V30 15596 H 1502.81 -2.84178 -1.30237 0
M  V30 15597 H 1502.03 -3.81723 0.983931 0
M  V30 15598 H 1503.32 -5.02279 0.811964 0
M  V30 15599 H 1502.72 -5.13793 -2.36713 0
M  V30 15600 H 1501.27 -6.07045 -2.37359 0
M  V30 15601 N 1504.71 -0.650285 -1.43559 0
M  V30 15602 C 1505.64 0.0295939 -2.33481 0
M  V30 15603 C 1506.62 0.815017 -1.49303 0
M  V30 15604 O 1507.8 0.77708 -1.77975 0
M  V30 15605 C 1504.93 0.998683 -3.32631 0
M  V30 15606 C 1503.89 0.323577 -4.26775 0
M  V30 15607 C 1503.21 1.40391 -5.1594 0
M  V30 15608 C 1504.51 -0.782197 -5.1641 0
M  V30 15609 H 1506.21 -0.721349 -2.9058 0
M  V30 15610 H 1503.75 -0.348339 -1.39723 0
M  V30 15611 H 1505.7 1.4832 -3.94435 0
M  V30 15612 H 1504.43 1.78075 -2.73782 0
M  V30 15613 H 1503.09 -0.140467 -3.66331 0
M  V30 15614 H 1502.74 2.17734 -4.53432 0
M  V30 15615 H 1502.44 0.957462 -5.79747 0
M  V30 15616 H 1503.96 1.88985 -5.80618 0
M  V30 15617 H 1505.37 -0.379966 -5.72039 0
M  V30 15618 H 1503.77 -1.15293 -5.88921 0
M  V30 15619 H 1504.84 -1.6414 -4.56274 0
M  V30 15620 N 1506.18 1.52647 -0.392018 0
M  V30 15621 C 1507.59 1.86522 0.0814091 0
M  V30 15622 C 1507.95 1.31158 1.45918 0
M  V30 15623 O 1507.07 0.644007 2.06595 0
M  V30 15624 C 1507.67 3.38448 0.1545 0
M  V30 15625 C 1506.22 3.72025 0.572227 0
M  V30 15626 C 1505.37 2.7604 -0.264093 0
M  V30 15627 H 1508.32 1.46517 -0.609785 0
M  V30 15628 H 1508.34 3.67846 0.973109 0
M  V30 15629 H 1507.86 3.78713 -0.848396 0
M  V30 15630 H 1505.96 3.37329 1.58239 0
M  V30 15631 H 1506.07 4.77973 0.328491 0
M  V30 15632 H 1504.43 2.53254 0.271042 0
M  V30 15633 H 1505.22 3.19143 -1.26502 0
M  V30 15634 N 1507.66 0.121921 1.57128 0
M  V30 15635 C 1508.61 -0.844503 2.16728 0
M  V30 15636 C 1509.6 -1.2733 1.1173 0
M  V30 15637 O 1510.81 -1.2447 1.30028 0
M  V30 15638 H 1507.19 -0.290459 0.693641 0
M  V30 15639 H 1509.16 -0.317379 2.96707 0
M  V30 15640 C 1507.91 -2.08359 2.78356 0
M  V30 15641 H 1507.23 -1.76258 3.5885 0
M  V30 15642 H 1508.67 -2.73978 3.23592 0
M  V30 15643 C 1507.13 -2.87526 1.75586 0
M  V30 15644 O 1507.66 -3.83011 1.21101 0
M  V30 15645 N 1505.86 -2.51575 1.4546 0
M  V30 15646 H 1505.41 -1.73993 1.89958 0
M  V30 15647 H 1505.37 -3.0484 0.769411 0
M  V30 15648 N 1509.14 -1.56867 -0.151857 0
M  V30 15649 C 1510.09 -1.98842 -1.20685 0
M  V30 15650 C 1511.08 -0.88007 -1.44745 0
M  V30 15651 O 1512.29 -1.06524 -1.45095 0
M  V30 15652 H 1508.66 -0.632904 -0.406123 0
M  V30 15653 H 1510.63 -2.86737 -0.826095 0
M  V30 15654 C 1509.38 -2.38095 -2.53389 0
M  V30 15655 H 1508.71 -3.2293 -2.35703 0
M  V30 15656 H 1510.15 -2.71292 -3.25847 0
M  V30 15657 C 1508.61 -1.23175 -3.13575 0
M  V30 15658 O 1509.14 -0.529864 -3.9819 0
M  V30 15659 N 1507.34 -0.997255 -2.72953 0
M  V30 15660 H 1506.89 -1.56979 -2.04243 0
M  V30 15661 H 1506.85 -0.23022 -3.13556 0
M  V30 15662 N 1510.62 0.421051 -1.51871 0
M  V30 15663 C 1511.55 1.53273 -1.69064 0
M  V30 15664 C 1512.53 1.53435 -0.538182 0
M  V30 15665 O 1513.71 1.72321 -0.76406 0
M  V30 15666 C 1510.84 2.9183 -1.7191 0
M  V30 15667 C 1509.89 3.09628 -2.93314 0
M  V30 15668 S 1510.72 2.842 -4.53862 0
M  V30 15669 C 1511.88 4.25009 -4.59476 0
M  V30 15670 H 1512.11 1.38459 -2.6309 0
M  V30 15671 H 1509.64 0.611839 -1.4176 0
M  V30 15672 H 1511.6 3.71689 -1.74234 0
M  V30 15673 H 1510.26 3.03995 -0.790319 0
M  V30 15674 H 1509.45 4.1097 -2.91753 0
M  V30 15675 H 1509.06 2.37617 -2.88815 0
M  V30 15676 H 1511.35 5.18465 -4.36119 0
M  V30 15677 H 1512.29 4.31598 -5.61363 0
M  V30 15678 H 1512.7 4.09424 -3.88629 0
M  V30 15679 N 1512.1 1.42293 0.677538 0
M  V30 15680 C 1513.06 1.45258 1.77293 0
M  V30 15681 C 1514.06 0.340554 1.57152 0
M  V30 15682 O 1515.25 0.601259 1.63495 0
M  V30 15683 C 1512.38 1.28156 3.15894 0
M  V30 15684 H 1513.57 2.42787 1.76052 0
M  V30 15685 H 1511.13 1.287 0.886908 0
M  V30 15686 H 1511.86 0.315381 3.22763 0
M  V30 15687 H 1511.65 2.08744 3.31916 0
M  V30 15688 H 1513.14 1.33107 3.95818 0
M  V30 15689 N 1513.57 -0.913576 1.28419 0
M  V30 15690 C 1514.51 -2.01727 1.06683 0
M  V30 15691 C 1515.49 -1.62591 -0.0171379 0
M  V30 15692 O 1516.67 -1.88045 0.130827 0
M  V30 15693 C 1513.8 -3.32954 0.621229 0
M  V30 15694 C 1512.84 -3.91074 1.70187 0
M  V30 15695 S 1513.68 -4.21902 3.29786 0
M  V30 15696 C 1514.83 -5.5619 2.8706 0
M  V30 15697 H 1515.06 -2.19855 2.00127 0
M  V30 15698 H 1512.6 -1.05846 1.1241 0
M  V30 15699 H 1514.56 -4.08822 0.370832 0
M  V30 15700 H 1513.22 -3.12727 -0.293381 0
M  V30 15701 H 1512.41 -4.85813 1.3417 0
M  V30 15702 H 1512.01 -3.21843 1.90507 0
M  V30 15703 H 1514.3 -6.36085 2.33242 0
M  V30 15704 H 1515.25 -5.97119 3.80598 0
M  V30 15705 H 1515.65 -5.17386 2.25771 0
M  V30 15706 N 1515.05 -1.1067 -1.12204 0
M  V30 15707 C 1516.02 -0.761145 -2.16193 0
M  V30 15708 C 1517.02 0.215599 -1.59348 0
M  V30 15709 O 1518.21 -0.00786723 -1.74198 0
M  V30 15710 C 1515.34 -0.127863 -3.4066 0
M  V30 15711 H 1516.53 -1.68225 -2.48275 0
M  V30 15712 H 1514.08 -0.907542 -1.27253 0
M  V30 15713 H 1514.82 0.803851 -3.14179 0
M  V30 15714 H 1514.6 -0.83085 -3.83196 0
M  V30 15715 H 1516.09 0.0980593 -4.17485 0
M  V30 15716 N 1516.53 1.29665 -0.895815 0
M  V30 15717 C 1517.46 2.30268 -0.387151 0
M  V30 15718 C 1518.44 1.61442 0.535768 0
M  V30 15719 O 1519.63 1.88978 0.447321 0
M  V30 15720 C 1516.76 3.45107 0.389639 0
M  V30 15721 C 1515.71 4.25706 -0.442498 0
M  V30 15722 C 1515.04 5.32704 0.461552 0
M  V30 15723 C 1516.34 4.9419 -1.69036 0
M  V30 15724 H 1518.03 2.73064 -1.22786 0
M  V30 15725 H 1515.58 1.31274 -0.591869 0
M  V30 15726 H 1517.53 4.14559 0.756203 0
M  V30 15727 H 1516.25 3.01145 1.2641 0
M  V30 15728 H 1514.91 3.57957 -0.791343 0
M  V30 15729 H 1514.56 4.84987 1.33403 0
M  V30 15730 H 1514.26 5.87529 -0.0915006 0
M  V30 15731 H 1515.78 6.05009 0.824395 0
M  V30 15732 H 1517.2 5.561 -1.39376 0
M  V30 15733 H 1515.6 5.5893 -2.18444 0
M  V30 15734 H 1516.67 4.19699 -2.42859 0
M  V30 15735 N 1518.01 0.657889 1.43212 0
M  V30 15736 C 1518.96 -0.0532813 2.27938 0
M  V30 15737 C 1519.94 -0.790207 1.40159 0
M  V30 15738 O 1521.13 -0.671904 1.63751 0
M  V30 15739 C 1518.26 -1.01574 3.27929 0
M  V30 15740 C 1517.35 -0.277042 4.23194 0
M  V30 15741 N 1517.74 0.708959 5.00807 0
M  V30 15742 C 1516.04 -0.517845 4.42983 0
M  V30 15743 C 1516.74 1.14784 5.70263 0
M  V30 15744 N 1515.72 0.481156 5.41466 0
M  V30 15745 H 1519.52 0.703257 2.85362 0
M  V30 15746 H 1517.03 0.485552 1.54971 0
M  V30 15747 H 1519.03 -1.54006 3.87412 0
M  V30 15748 H 1517.69 -1.77229 2.72066 0
M  V30 15749 H 1518.7 1.08786 5.06346 0
M  V30 15750 H 1515.38 -1.2552 3.98185 0
M  V30 15751 H 1516.77 1.96395 6.42556 0
M  V30 15752 N 1519.49 -1.52437 0.400108 0
M  V30 15753 C 1520.9 -1.5952 0.0505611 0
M  V30 15754 C 1521.1 -1.4135 -1.43606 0
M  V30 15755 O 1520.16 -1.23591 -2.20185 0
M  V30 15756 C 1521.47 -2.95859 0.537411 0
M  V30 15757 C 1523.02 -3.09067 0.494603 0
M  V30 15758 C 1523.49 -4.47873 0.957815 0
M  V30 15759 N 1524.99 -4.54087 0.914267 0
M  V30 15760 C 1525.72 -5.59744 1.24397 0
M  V30 15761 N 1525.22 -6.72995 1.64469 0
M  V30 15762 N 1527.01 -5.49905 1.16452 0
M  V30 15763 H 1519.16 -1.62496 1.36781 0
M  V30 15764 H 1521.42 -0.763947 0.561328 0
M  V30 15765 H 1521.13 -3.14407 1.57611 0
M  V30 15766 H 1521 -3.77156 -0.0577652 0
M  V30 15767 H 1523.39 -2.90209 -0.535035 0
M  V30 15768 H 1523.47 -2.29698 1.12572 0
M  V30 15769 H 1523.12 -4.67473 1.98574 0
M  V30 15770 H 1523.05 -5.25724 0.303602 0
M  V30 15771 H 1525.54 -3.72787 0.619536 0
M  V30 15772 H 1525.85 -7.49594 1.87961 0
M  V30 15773 H 1524.19 -6.74298 1.68364 0
M  V30 15774 H 1527.39 -4.60311 0.850401 0
M  V30 15775 H 1527.56 -6.32142 1.42478 0
M  V30 15776 N 1520.96 -0.130252 -1.57061 0
M  V30 15777 C 1521.9 0.846442 -2.12998 0
M  V30 15778 C 1522.91 1.22229 -1.07536 0
M  V30 15779 O 1524.1 1.16928 -1.34871 0
M  V30 15780 C 1521.2 2.14481 -2.62395 0
M  V30 15781 C 1520.37 1.93892 -3.92077 0
M  V30 15782 C 1519.43 3.07562 -4.26957 0
M  V30 15783 O 1518.46 2.79983 -4.95578 0
M  V30 15784 N 1519.66 4.34297 -3.85184 0
M  V30 15785 H 1522.42 0.368471 -2.97426 0
M  V30 15786 H 1519.98 0.0538355 -1.6181 0
M  V30 15787 H 1521.98 2.8954 -2.82752 0
M  V30 15788 H 1520.55 2.53592 -1.82784 0
M  V30 15789 H 1519.77 1.02962 -3.80516 0
M  V30 15790 H 1521.05 1.77454 -4.76852 0
M  V30 15791 H 1520.45 4.59575 -3.29859 0
M  V30 15792 H 1519.01 5.06191 -4.10626 0
M  V30 15793 N 1522.44 1.56945 0.143535 0
M  V30 15794 C 1523.38 1.95134 1.2023 0
M  V30 15795 C 1524.39 0.847593 1.38995 0
M  V30 15796 O 1525.58 1.12599 1.38505 0
M  V30 15797 C 1522.68 2.21316 2.56656 0
M  V30 15798 C 1521.85 3.52604 2.58822 0
M  V30 15799 C 1520.91 3.67285 3.76813 0
M  V30 15800 O 1519.94 4.39644 3.61527 0
M  V30 15801 N 1521.14 3.04208 4.94406 0
M  V30 15802 H 1523.9 2.86561 0.87766 0
M  V30 15803 H 1521.46 1.58437 0.333065 0
M  V30 15804 H 1523.46 2.28375 3.34106 0
M  V30 15805 H 1522.03 1.36137 2.81399 0
M  V30 15806 H 1521.25 3.56954 1.67264 0
M  V30 15807 H 1522.53 4.38944 2.57304 0
M  V30 15808 H 1521.93 2.45344 5.09728 0
M  V30 15809 H 1520.49 3.16824 5.69619 0
M  V30 15810 N 1523.92 -0.412991 1.52093 0
M  V30 15811 C 1525.16 -1.16951 1.67636 0
M  V30 15812 C 1525.53 -1.87875 0.39583 0
M  V30 15813 O 1526.73 -2.65382 0.42732 0
M  V30 15814 C 1525 -2.14052 2.8621 0
M  V30 15815 S 1526.56 -2.97863 3.22215 0
M  V30 15816 H 1523.37 -0.396249 0.590345 0
M  V30 15817 H 1525.98 -0.457386 1.90074 0
M  V30 15818 H 1524.68 -1.60628 3.7766 0
M  V30 15819 H 1524.21 -2.89809 2.66034 0
M  V30 15820 H 1526.23 -4.15961 2.70538 0
M  V30 15821 N 1525.4 -1.4265 -0.669982 0
M  V30 15822 C 1526.82 -1.25682 -0.983682 0
M  V30 15823 C 1527.02 -0.164456 -2.00828 0
M  V30 15824 O 1526.07 0.462711 -2.48224 0
M  V30 15825 C 1527.38 -2.61536 -1.4839 0
M  V30 15826 C 1528.93 -2.6893 -1.60143 0
M  V30 15827 C 1529.41 -4.05162 -2.1356 0
M  V30 15828 N 1530.9 -4.07141 -2.20886 0
M  V30 15829 C 1531.63 -5.09371 -2.63303 0
M  V30 15830 N 1531.13 -6.21983 -3.05137 0
M  V30 15831 N 1532.92 -4.96727 -2.63094 0
M  V30 15832 H 1525.07 -2.12398 0.0083059 0
M  V30 15833 H 1527.34 -0.946173 -0.058823 0
M  V30 15834 H 1527.04 -3.42351 -0.805527 0
M  V30 15835 H 1526.92 -2.85786 -2.46183 0
M  V30 15836 H 1529.3 -1.88457 -2.27085 0
M  V30 15837 H 1529.38 -2.48463 -0.608266 0
M  V30 15838 H 1529.03 -4.86094 -1.47224 0
M  V30 15839 H 1528.96 -4.22984 -3.13676 0
M  V30 15840 H 1531.45 -3.25846 -1.91396 0
M  V30 15841 H 1531.76 -6.95835 -3.36204 0
M  V30 15842 H 1530.11 -6.25481 -3.02983 0
M  V30 15843 H 1533.3 -4.07824 -2.29777 0
M  V30 15844 H 1533.47 -5.76531 -2.95831 0
M  V30 15845 N 1526.88 0.906753 -1.28902 0
M  V30 15846 C 1528.12 1.65903 -1.16636 0
M  V30 15847 C 1528.46 1.92127 0.282981 0
M  V30 15848 O 1527.73 1.52666 1.20513 0
M  V30 15849 C 1528.01 3.01257 -1.97272 0
M  V30 15850 C 1527.87 2.82143 -3.50308 0
M  V30 15851 C 1529.19 4.01893 -1.7936 0
M  V30 15852 H 1526.31 0.602063 -0.425076 0
M  V30 15853 H 1528.95 1.05081 -1.58297 0
M  V30 15854 H 1527.1 3.53172 -1.61871 0
M  V30 15855 H 1528.77 2.37184 -3.95653 0
M  V30 15856 H 1527.01 2.17063 -3.75588 0
M  V30 15857 H 1527.68 3.78293 -4.01993 0
M  V30 15858 H 1530.16 3.59064 -2.10267 0
M  V30 15859 H 1529.04 4.9455 -2.38141 0
M  V30 15860 H 1529.3 4.35745 -0.746923 0
M  V30 15861 N 1528.36 1.11264 1.11616 0
M  V30 15862 C 1529.29 0.79149 2.19676 0
M  V30 15863 C 1530.27 -0.239351 1.68408 0
M  V30 15864 O 1531.45 -0.103228 1.93925 0
M  V30 15865 C 1528.58 0.231891 3.46525 0
M  V30 15866 C 1527.54 1.19439 4.10997 0
M  V30 15867 C 1526.86 0.495593 5.32398 0
M  V30 15868 C 1528.16 2.54437 4.56135 0
M  V30 15869 H 1529.86 1.69503 2.46797 0
M  V30 15870 H 1527.4 0.816433 1.18619 0
M  V30 15871 H 1529.35 -0.00497468 4.214 0
M  V30 15872 H 1528.08 -0.706938 3.18857 0
M  V30 15873 H 1526.74 1.41686 3.38113 0
M  V30 15874 H 1526.39 -0.447984 5.01001 0
M  V30 15875 H 1526.09 1.13753 5.76484 0
M  V30 15876 H 1527.61 0.267476 6.10014 0
M  V30 15877 H 1529.02 2.36289 5.22341 0
M  V30 15878 H 1527.42 3.14595 5.11028 0
M  V30 15879 H 1528.49 3.13795 3.69676 0
M  V30 15880 N 1529.83 -1.29188 0.902679 0
M  V30 15881 C 1531.08 -1.95052 0.529076 0
M  V30 15882 C 1531.4 -1.7149 -0.92824 0
M  V30 15883 O 1530.67 -1.04834 -1.65489 0
M  V30 15884 H 1529.25 -0.721725 0.192671 0
M  V30 15885 H 1531.91 -1.57384 1.14962 0
M  V30 15886 H 1531.01 -3.03819 0.714179 0
M  V30 15887 N 1531.31 -0.665475 -1.42861 0
M  V30 15888 C 1532.54 -0.192 -2.06007 0
M  V30 15889 C 1532.95 1.1472 -1.49949 0
M  V30 15890 O 1532.31 1.71074 -0.635599 0
M  V30 15891 C 1532.36 -0.108189 -3.61338 0
M  V30 15892 O 1532.08 -1.39446 -4.15315 0
M  V30 15893 C 1533.58 0.3899 -4.41582 0
M  V30 15894 H 1530.8 -0.0955812 -0.664158 0
M  V30 15895 H 1533.35 -0.909582 -1.83158 0
M  V30 15896 H 1531.5 0.560024 -3.83331 0
M  V30 15897 H 1531.92 -1.26168 -5.09099 0
M  V30 15898 H 1533.39 0.39747 -5.50567 0
M  V30 15899 H 1533.87 1.42348 -4.15492 0
M  V30 15900 H 1534.47 -0.246248 -4.24587 0
M  V30 15901 N 1532.79 1.52222 -0.408187 0
M  V30 15902 C 1534.01 2.06703 0.169901 0
M  V30 15903 C 1534.44 1.27635 1.3817 0
M  V30 15904 O 1533.8 0.306343 1.78693 0
M  V30 15905 C 1533.85 3.57121 0.499663 0
M  V30 15906 O 1532.95 3.80483 1.5908 0
M  V30 15907 H 1532.29 0.663839 0.0146145 0
M  V30 15908 H 1534.82 1.96174 -0.581113 0
M  V30 15909 H 1534.83 4.00886 0.758567 0
M  V30 15910 H 1533.51 4.14103 -0.386182 0
M  V30 15911 H 1532.08 3.48599 1.32413 0
M  V30 15912 N 1534.27 0.138579 1.5699 0
M  V30 15913 C 1535.68 -0.383633 1.82716 0
M  V30 15914 C 1536.03 -1.65304 1.05684 0
M  V30 15915 O 1535.15 -2.14318 0.299488 0
M  V30 15916 C 1535.75 -0.7028 3.3143 0
M  V30 15917 C 1534.31 -1.16957 3.57768 0
M  V30 15918 C 1533.46 -0.188295 2.7666 0
M  V30 15919 H 1536.41 0.363415 1.54483 0
M  V30 15920 H 1536.43 -1.55832 3.47126 0
M  V30 15921 H 1535.94 0.221271 3.87469 0
M  V30 15922 H 1534.04 -2.10987 3.07108 0
M  V30 15923 H 1534.15 -1.10136 4.66269 0
M  V30 15924 H 1532.52 -0.679255 2.45475 0
M  V30 15925 H 1533.3 0.729218 3.35466 0
M  V30 15926 N 1535.75 -1.57019 -0.13521 0
M  V30 15927 C 1536.66 -2.02427 -1.18578 0
M  V30 15928 C 1537.67 -0.941738 -1.46312 0
M  V30 15929 O 1538.85 -1.25208 -1.57749 0
M  V30 15930 C 1535.91 -2.40577 -2.49647 0
M  V30 15931 C 1534.97 -3.62835 -2.29455 0
M  V30 15932 C 1534.21 -3.99156 -3.54274 0
M  V30 15933 O 1534.43 -3.36001 -4.60933 0
M  V30 15934 O 1533.36 -4.92345 -3.46238 0
M  V30 15935 H 1537.19 -2.92131 -0.830237 0
M  V30 15936 H 1534.77 -1.45366 -0.344814 0
M  V30 15937 H 1536.66 -2.65922 -3.269 0
M  V30 15938 H 1535.33 -1.54023 -2.84708 0
M  V30 15939 H 1534.24 -3.42661 -1.50114 0
M  V30 15940 H 1535.57 -4.50043 -1.99305 0
M  V30 15941 N 1537.22 0.404919 -1.52309 0
M  V30 15942 C 1538.19 1.47627 -1.75325 0
M  V30 15943 C 1539.19 1.48234 -0.623153 0
M  V30 15944 O 1540.38 1.49685 -0.891069 0
M  V30 15945 C 1537.51 2.87013 -1.83947 0
M  V30 15946 H 1538.7 1.2851 -2.70971 0
M  V30 15947 H 1536.26 0.635677 -1.42789 0
M  V30 15948 H 1536.99 3.11495 -0.902309 0
M  V30 15949 H 1536.78 2.87974 -2.66108 0
M  V30 15950 H 1538.27 3.64671 -2.03481 0
M  V30 15951 N 1538.7 1.43003 0.662408 0
M  V30 15952 C 1539.95 1.43422 1.41821 0
M  V30 15953 C 1540.26 0.0586909 1.95512 0
M  V30 15954 O 1541.47 -0.0596978 2.71434 0
M  V30 15955 C 1539.93 2.52344 2.56613 0
M  V30 15956 C 1539.53 3.95961 2.09569 0
M  V30 15957 C 1541.28 2.61945 3.34044 0
M  V30 15958 C 1539.19 4.96367 3.21518 0
M  V30 15959 H 1538.12 0.533485 0.532832 0
M  V30 15960 H 1540.77 1.68958 0.715911 0
M  V30 15961 H 1539.15 2.19993 3.2927 0
M  V30 15962 H 1540.32 4.37728 1.43984 0
M  V30 15963 H 1538.64 3.90322 1.45044 0
M  V30 15964 H 1541.23 3.34137 4.17441 0
M  V30 15965 H 1541.58 1.66708 3.81463 0
M  V30 15966 H 1542.11 2.93552 2.68463 0
M  V30 15967 H 1538.85 5.93124 2.79077 0
M  V30 15968 H 1538.37 4.59221 3.85845 0
M  V30 15969 H 1540.05 5.18652 3.86793 0
M  V30 15970 N 1540.18 -0.899904 1.29381 0
M  V30 15971 C 1541.46 -1.63067 1.08021 0
M  V30 15972 C 1541.84 -2.0773 -0.375716 0
M  V30 15973 O 1541.19 -1.83288 -1.36447 0
M  V30 15974 C 1541.4 -2.81163 2.06757 0
M  V30 15975 C 1542.74 -3.51854 2.37664 0
M  V30 15976 O 1543.77 -2.91332 2.0495 0
M  V30 15977 O 1542.63 -4.60962 2.93558 0
M  V30 15978 H 1539.72 -0.71601 0.413835 0
M  V30 15979 H 1542.27 -0.947991 1.40752 0
M  V30 15980 H 1541.04 -2.45355 3.04822 0
M  V30 15981 H 1540.66 -3.57137 1.74754 0
M  V30 15982 N 1541.66 -1.11854 -1.11024 0
M  V30 15983 C 1542.88 -0.892999 -1.8719 0
M  V30 15984 C 1543.31 0.552058 -1.79816 0
M  V30 15985 O 1542.67 1.39025 -1.16369 0
M  V30 15986 C 1542.71 -1.3647 -3.33779 0
M  V30 15987 O 1541.82 -0.539202 -4.0886 0
M  V30 15988 H 1541.16 -0.321319 -0.581076 0
M  V30 15989 H 1543.69 -1.4891 -1.4031 0
M  V30 15990 H 1543.7 -1.3611 -3.84627 0
M  V30 15991 H 1542.37 -2.41694 -3.38462 0
M  V30 15992 H 1540.95 -0.60927 -3.67889 0
M  V30 15993 N 1543.14 1.28707 -0.909517 0
M  V30 15994 C 1544.1 2.25692 -0.39946 0
M  V30 15995 C 1545.1 1.53721 0.471848 0
M  V30 15996 O 1546.29 1.72008 0.275504 0
M  V30 15997 C 1543.42 3.38205 0.427793 0
M  V30 15998 H 1544.61 2.72326 -1.25613 0
M  V30 15999 H 1542.17 1.40317 -0.688535 0
M  V30 16000 H 1542.9 2.96926 1.30404 0
M  V30 16001 H 1542.69 3.91606 -0.19667 0
M  V30 16002 H 1544.18 4.10334 0.775634 0
M  V30 16003 N 1544.61 0.673042 1.42506 0
M  V30 16004 C 1545.52 -0.00648572 2.34599 0
M  V30 16005 C 1546.54 -0.790758 1.54994 0
M  V30 16006 O 1547.72 -0.733482 1.87569 0
M  V30 16007 C 1544.78 -0.94734 3.33506 0
M  V30 16008 C 1543.84 -0.157795 4.2901 0
M  V30 16009 C 1543.08 -1.05384 5.23192 0
M  V30 16010 O 1543.3 -2.29334 5.22266 0
M  V30 16011 O 1542.23 -0.515584 5.99688 0
M  V30 16012 H 1546.06 0.752059 2.94241 0
M  V30 16013 H 1543.64 0.433272 1.42979 0
M  V30 16014 H 1545.53 -1.4875 3.94273 0
M  V30 16015 H 1544.2 -1.68577 2.7634 0
M  V30 16016 H 1543.11 0.426426 3.71662 0
M  V30 16017 H 1544.44 0.54148 4.89212 0
M  V30 16018 N 1546.09 -1.52004 0.416254 0
M  V30 16019 C 1547.04 -2.28771 -0.420331 0
M  V30 16020 C 1548.03 -1.33751 -1.03957 0
M  V30 16021 O 1549.24 -1.51181 -0.976951 0
M  V30 16022 H 1545.62 -0.735991 -0.15434 0
M  V30 16023 H 1547.59 -2.97366 0.248255 0
M  V30 16024 C 1546.34 -3.12675 -1.52085 0
M  V30 16025 H 1545.66 -3.85665 -1.0537 0
M  V30 16026 H 1547.1 -3.69482 -2.07989 0
M  V30 16027 C 1545.56 -2.26692 -2.49224 0
M  V30 16028 O 1546.09 -1.91205 -3.53276 0
M  V30 16029 N 1544.29 -1.90322 -2.19604 0
M  V30 16030 H 1543.84 -2.1938 -1.35019 0
M  V30 16031 H 1543.8 -1.33086 -2.84843 0
M  V30 16032 N 1547.57 -0.146903 -1.56914 0
M  V30 16033 C 1548.99 0.20951 -1.58219 0
M  V30 16034 C 1549.19 1.64679 -1.16116 0
M  V30 16035 O 1548.24 2.37352 -0.861414 0
M  V30 16036 C 1549.56 -0.0491564 -3.0066 0
M  V30 16037 C 1551.1 0.0145605 -3.12997 0
M  V30 16038 C 1551.58 -0.216773 -4.57487 0
M  V30 16039 N 1553.07 -0.163698 -4.62911 0
M  V30 16040 C 1553.8 -0.317204 -5.72522 0
M  V30 16041 N 1553.3 -0.528426 -6.90782 0
M  V30 16042 N 1555.09 -0.254814 -5.61522 0
M  V30 16043 H 1547.24 -1.08536 -1.82575 0
M  V30 16044 H 1549.51 -0.42963 -0.845057 0
M  V30 16045 H 1549.21 -1.04387 -3.35851 0
M  V30 16046 H 1549.09 0.670296 -3.71197 0
M  V30 16047 H 1551.47 0.999829 -2.77646 0
M  V30 16048 H 1551.56 -0.737219 -2.44946 0
M  V30 16049 H 1551.2 -1.19914 -4.93541 0
M  V30 16050 H 1551.13 0.555329 -5.23664 0
M  V30 16051 H 1553.62 -0.00509433 -3.779 0
M  V30 16052 H 1553.93 -0.635667 -7.70181 0
M  V30 16053 H 1552.28 -0.564746 -6.92702 0
M  V30 16054 H 1555.47 -0.0905626 -4.68012 0
M  V30 16055 H 1555.64 -0.377881 -6.46897 0
M  V30 16056 N 1549.05 1.57088 0.126881 0
M  V30 16057 C 1550.3 1.84436 0.836048 0
M  V30 16058 C 1550.62 0.730824 1.80248 0
M  V30 16059 O 1549.88 -0.278509 1.93708 0
M  V30 16060 C 1550.18 3.18225 1.62688 0
M  V30 16061 C 1549.84 4.43648 0.80545 0
M  V30 16062 C 1548.51 4.77705 0.578901 0
M  V30 16063 C 1550.86 5.20682 0.232355 0
M  V30 16064 C 1548.19 5.86245 -0.231126 0
M  V30 16065 C 1550.54 6.30073 -0.564819 0
M  V30 16066 C 1549.2 6.62667 -0.801759 0
M  V30 16067 H 1548.47 0.674898 0.305932 0
M  V30 16068 H 1551.12 1.91245 0.0987618 0
M  V30 16069 H 1549.42 3.06956 2.43485 0
M  V30 16070 H 1551.12 3.36604 2.17942 0
M  V30 16071 H 1547.71 4.16959 0.99211 0
M  V30 16072 H 1551.89 4.94729 0.394616 0
M  V30 16073 H 1547.15 6.09928 -0.423998 0
M  V30 16074 H 1551.32 6.8895 -1.01592 0
M  V30 16075 H 1548.95 7.46605 -1.43126 0
M  V30 16076 N 1550.53 -0.396836 1.52522 0
M  V30 16077 C 1551.47 -1.48427 1.76743 0
M  V30 16078 C 1552.44 -1.54481 0.610321 0
M  V30 16079 O 1553.63 -1.7086 0.849201 0
M  V30 16080 C 1550.77 -2.85744 1.93505 0
M  V30 16081 C 1549.88 -2.88904 3.21183 0
M  V30 16082 C 1549.02 -4.17598 3.28307 0
M  V30 16083 C 1548.06 -4.14779 4.50138 0
M  V30 16084 N 1547.19 -5.35065 4.54587 0
M  V30 16085 H 1552.03 -1.27075 2.69548 0
M  V30 16086 H 1549.57 -0.61661 1.33553 0
M  V30 16087 H 1551.53 -3.65474 2.01208 0
M  V30 16088 H 1550.16 -3.05564 1.04069 0
M  V30 16089 H 1549.21 -2.01592 3.22591 0
M  V30 16090 H 1550.52 -2.82688 4.10961 0
M  V30 16091 H 1549.68 -5.05727 3.35149 0
M  V30 16092 H 1548.41 -4.26526 2.36489 0
M  V30 16093 H 1547.42 -3.25039 4.4343 0
M  V30 16094 H 1548.64 -4.07481 5.43264 0
M  V30 16095 H 1546.59 -5.44638 3.65658 0
M  V30 16096 H 1546.51 -5.30894 5.38227 0
M  V30 16097 H 1547.78 -6.25114 4.65675 0
M  V30 16098 N 1552.01 -1.43353 -0.654814 0
M  V30 16099 C 1553.25 -1.44885 -1.41473 0
M  V30 16100 C 1553.58 -0.0725577 -1.94365 0
M  V30 16101 O 1552.84 0.9222 -1.72609 0
M  V30 16102 C 1553.13 -2.437 -2.61429 0
M  V30 16103 C 1552.8 -3.89612 -2.26965 0
M  V30 16104 C 1551.46 -4.29353 -2.17278 0
M  V30 16105 C 1553.81 -4.81569 -1.99351 0
M  V30 16106 C 1551.14 -5.59005 -1.7813 0
M  V30 16107 C 1553.49 -6.11584 -1.61702 0
M  V30 16108 C 1552.16 -6.50303 -1.50539 0
M  V30 16109 H 1551.43 -0.530172 -0.517686 0
M  V30 16110 H 1554.08 -1.76422 -0.744824 0
M  V30 16111 H 1552.38 -2.05561 -3.33544 0
M  V30 16112 H 1554.08 -2.42141 -3.19638 0
M  V30 16113 H 1550.67 -3.58159 -2.35414 0
M  V30 16114 H 1554.85 -4.51639 -2.05757 0
M  V30 16115 H 1550.11 -5.87845 -1.68072 0
M  V30 16116 H 1554.28 -6.82312 -1.39365 0
M  V30 16117 H 1551.91 -7.50673 -1.19975 0
M  V30 16118 N 1553.48 0.89303 -1.29857 0
M  V30 16119 C 1554.71 1.6827 -1.21243 0
M  V30 16120 C 1555.13 1.86778 0.222621 0
M  V30 16121 O 1554.49 1.39291 1.1605 0
M  V30 16122 C 1554.54 3.041 -1.93792 0
M  V30 16123 O 1553.64 3.92696 -1.25951 0
M  V30 16124 H 1552.98 0.514479 -0.419771 0
M  V30 16125 H 1555.51 1.11513 -1.7154 0
M  V30 16126 H 1555.52 3.54198 -2.02504 0
M  V30 16127 H 1554.2 2.89948 -2.98166 0
M  V30 16128 H 1552.78 3.51132 -1.25541 0
M  V30 16129 N 1554.96 1.12442 1.10429 0
M  V30 16130 C 1556.38 0.860481 1.34417 0
M  V30 16131 C 1556.58 -0.509394 1.94955 0
M  V30 16132 O 1555.63 -1.25807 2.18927 0
M  V30 16133 C 1556.95 1.97694 2.26578 0
M  V30 16134 C 1558.49 2.00783 2.40115 0
M  V30 16135 C 1558.97 3.11663 3.35604 0
M  V30 16136 N 1560.46 3.11106 3.43173 0
M  V30 16137 C 1561.2 3.9354 4.1703 0
M  V30 16138 N 1560.69 4.85963 4.93773 0
M  V30 16139 N 1562.48 3.81677 4.12649 0
M  V30 16140 H 1554.64 2.00706 0.695036 0
M  V30 16141 H 1556.9 0.873398 0.368619 0
M  V30 16142 H 1556.6 2.96405 1.89306 0
M  V30 16143 H 1556.48 1.88217 3.26886 0
M  V30 16144 H 1558.87 1.02692 2.76656 0
M  V30 16145 H 1558.95 2.14335 1.39621 0
M  V30 16146 H 1558.59 4.09987 2.99789 0
M  V30 16147 H 1558.52 2.9535 4.35977 0
M  V30 16148 H 1561.01 2.4415 2.88442 0
M  V30 16149 H 1561.32 5.45373 5.47529 0
M  V30 16150 H 1559.67 4.89976 4.92898 0
M  V30 16151 H 1562.86 3.08808 3.51789 0
M  V30 16152 H 1563.03 4.46151 4.6995 0
M  V30 16153 N 1556.44 -1.28223 0.91633 0
M  V30 16154 C 1557.37 -2.29623 0.423735 0
M  V30 16155 C 1558.35 -1.62274 -0.510016 0
M  V30 16156 O 1559.54 -1.89666 -0.4172 0
M  V30 16157 C 1556.67 -3.45684 -0.334686 0
M  V30 16158 C 1555.62 -4.24949 0.510169 0
M  V30 16159 C 1554.95 -5.33371 -0.376745 0
M  V30 16160 C 1556.25 -4.91438 1.76877 0
M  V30 16161 H 1557.94 -2.71076 1.27115 0
M  V30 16162 H 1555.49 -1.30316 0.612678 0
M  V30 16163 H 1557.44 -4.1571 -0.690154 0
M  V30 16164 H 1556.16 -3.03118 -1.21603 0
M  V30 16165 H 1554.82 -3.56653 0.848191 0
M  V30 16166 H 1554.47 -4.87048 -1.25671 0
M  V30 16167 H 1554.17 -5.87309 0.18496 0
M  V30 16168 H 1555.69 -6.06244 -0.728039 0
M  V30 16169 H 1557.11 -5.53812 1.48205 0
M  V30 16170 H 1555.5 -5.55384 2.27308 0
M  V30 16171 H 1556.57 -4.15783 2.49505 0
M  V30 16172 N 1557.92 -0.68059 -1.42147 0
M  V30 16173 C 1558.85 -0.0199376 -2.33491 0
M  V30 16174 C 1559.83 0.783164 -1.50999 0
M  V30 16175 O 1561.01 0.739154 -1.79583 0
M  V30 16176 C 1558.14 0.927902 -3.34675 0
M  V30 16177 C 1557.1 0.232979 -4.27365 0
M  V30 16178 C 1556.42 1.29415 -5.18802 0
M  V30 16179 C 1557.72 -0.891559 -5.14634 0
M  V30 16180 H 1559.42 -0.782823 -2.88985 0
M  V30 16181 H 1556.96 -0.377898 -1.38953 0
M  V30 16182 H 1558.92 1.3992 -3.97493 0
M  V30 16183 H 1557.64 1.72228 -2.77498 0
M  V30 16184 H 1556.3 -0.21814 -3.6595 0
M  V30 16185 H 1555.95 2.08067 -4.57949 0
M  V30 16186 H 1555.65 0.834274 -5.81647 0
M  V30 16187 H 1557.17 1.76627 -5.84496 0
M  V30 16188 H 1558.59 -0.501219 -5.71105 0
M  V30 16189 H 1556.98 -1.27759 -5.86343 0
M  V30 16190 H 1558.05 -1.73781 -4.5269 0
M  V30 16191 N 1559.4 1.51781 -0.424309 0
M  V30 16192 C 1560.67 1.94514 0.205791 0
M  V30 16193 C 1561.05 1.36219 1.61269 0
M  V30 16194 O 1560.4 0.544019 2.21929 0
M  V30 16195 C 1560.61 3.48445 0.196749 0
M  V30 16196 C 1561.96 4.22628 0.408702 0
M  V30 16197 O 1562.98 3.55133 0.275441 0
M  V30 16198 O 1561.84 5.42344 0.672698 0
M  V30 16199 H 1558.94 0.815576 0.136983 0
M  V30 16200 H 1561.48 1.6273 -0.481349 0
M  V30 16201 H 1560.25 3.83297 -0.787342 0
M  V30 16202 H 1559.88 3.86634 0.92735 0
M  V30 16203 N 1560.87 0.155222 1.56834 0
M  V30 16204 C 1562.1 -0.500542 2.00754 0
M  V30 16205 C 1562.52 -1.57878 1.03538 0
M  V30 16206 O 1561.87 -1.82469 0.0336651 0
M  V30 16207 C 1561.92 -1.09366 3.4456 0
M  V30 16208 O 1561.65 -0.0584788 4.38061 0
M  V30 16209 C 1563.15 -1.82923 4.038 0
M  V30 16210 H 1560.37 -0.129589 0.658368 0
M  V30 16211 H 1562.91 0.252223 2.02939 0
M  V30 16212 H 1561.07 -1.797 3.43201 0
M  V30 16213 H 1561.48 -0.494125 5.22167 0
M  V30 16214 H 1562.95 -2.19703 5.06394 0
M  V30 16215 H 1563.43 -2.71823 3.44976 0
M  V30 16216 H 1564.04 -1.17268 4.08813 0
M  V30 16217 N 1562.35 -1.57153 -0.118549 0
M  V30 16218 C 1563.6 -1.84064 -0.824832 0
M  V30 16219 C 1563.91 -0.740941 -1.81023 0
M  V30 16220 O 1565.12 -0.896464 -2.56273 0
M  V30 16221 C 1563.58 -3.26338 -1.51761 0
M  V30 16222 C 1563.18 -4.44318 -0.573174 0
M  V30 16223 C 1564.93 -3.62496 -2.209 0
M  V30 16224 C 1562.83 -5.7762 -1.2692 0
M  V30 16225 H 1561.76 -0.686521 -0.311777 0
M  V30 16226 H 1564.42 -1.83336 -0.0775833 0
M  V30 16227 H 1562.8 -3.21537 -2.3115 0
M  V30 16228 H 1563.97 -4.60418 0.187529 0
M  V30 16229 H 1562.29 -4.16398 0.0112747 0
M  V30 16230 H 1564.88 -4.5936 -2.73666 0
M  V30 16231 H 1565.23 -2.89952 -2.9872 0
M  V30 16232 H 1565.76 -3.69084 -1.48399 0
M  V30 16233 H 1562.5 -6.53335 -0.532285 0
M  V30 16234 H 1562.02 -5.65406 -2.00191 0
M  V30 16235 H 1563.7 -6.21391 -1.80227 0
M  V30 16236 N 1563.83 0.388742 -1.5273 0
M  V30 16237 C 1565.08 1.13151 -1.67455 0
M  V30 16238 C 1565.4 1.90487 -0.417095 0
M  V30 16239 O 1564.67 1.87469 0.568509 0
M  V30 16240 H 1563.25 0.4207 -0.617269 0
M  V30 16241 H 1565.91 0.44098 -1.89846 0
M  V30 16242 H 1565.01 1.83427 -2.52509 0
M  V30 16243 N 1565.31 1.43698 0.647203 0
M  V30 16244 C 1566.56 1.44918 1.40292 0
M  V30 16245 C 1566.87 0.0794243 1.95439 0
M  V30 16246 O 1568.08 -0.0309052 2.71482 0
M  V30 16247 C 1566.53 2.55052 2.53923 0
M  V30 16248 C 1566.14 3.98161 2.05357 0
M  V30 16249 C 1567.88 2.65473 3.31246 0
M  V30 16250 C 1565.79 4.99749 3.16235 0
M  V30 16251 H 1564.72 0.539106 0.527144 0
M  V30 16252 H 1567.37 1.69708 0.697951 0
M  V30 16253 H 1565.75 2.23473 3.26919 0
M  V30 16254 H 1566.93 4.3923 1.39333 0
M  V30 16255 H 1565.24 3.91839 1.40896 0
M  V30 16256 H 1567.84 3.38546 4.13873 0
M  V30 16257 H 1568.18 1.70745 3.79673 0
M  V30 16258 H 1568.72 2.96383 2.65334 0
M  V30 16259 H 1565.45 5.96051 2.7277 0
M  V30 16260 H 1564.97 4.63288 3.80952 0
M  V30 16261 H 1566.65 5.22725 3.81271 0
M  V30 16262 N 1566.79 -0.886131 1.30328 0
M  V30 16263 C 1568.01 -1.67625 1.22134 0
M  V30 16264 C 1568.44 -1.86893 -0.212712 0
M  V30 16265 O 1567.79 -1.39905 -1.1531 0
M  V30 16266 C 1567.84 -3.03068 1.95402 0
M  V30 16267 O 1566.95 -3.92022 1.28032 0
M  V30 16268 H 1566.29 -0.512246 0.422493 0
M  V30 16269 H 1568.82 -1.10602 1.72129 0
M  V30 16270 H 1568.83 -3.53119 2.04379 0
M  V30 16271 H 1567.5 -2.88363 2.99699 0
M  V30 16272 H 1566.08 -3.50461 1.27402 0
M  V30 16273 N 1568.26 -1.13026 -1.09832 0
M  V30 16274 C 1569.2 -0.761606 -2.16176 0
M  V30 16275 C 1570.21 0.214709 -1.61378 0
M  V30 16276 O 1571.4 -0.00487178 -1.78499 0
M  V30 16277 C 1568.5 -0.107513 -3.38729 0
M  V30 16278 C 1567.67 -1.11487 -4.22953 0
M  V30 16279 C 1566.73 -0.487243 -5.23939 0
M  V30 16280 O 1565.76 -1.14605 -5.57543 0
M  V30 16281 N 1566.96 0.742571 -5.75731 0
M  V30 16282 H 1569.72 -1.67669 -2.48409 0
M  V30 16283 H 1567.28 -1.0227 -1.25509 0
M  V30 16284 H 1569.28 0.324507 -4.03397 0
M  V30 16285 H 1567.85 0.710438 -3.0442 0
M  V30 16286 H 1567.07 -1.72432 -3.54487 0
M  V30 16287 H 1568.35 -1.79584 -4.76053 0
M  V30 16288 H 1567.75 1.29667 -5.50639 0
M  V30 16289 H 1566.31 1.11731 -6.42152 0
M  V30 16290 N 1569.74 1.27735 -0.923117 0
M  V30 16291 C 1571.15 1.76579 -0.606376 0
M  V30 16292 C 1571.5 1.75437 0.878428 0
M  V30 16293 O 1570.63 1.35495 1.68731 0
M  V30 16294 C 1571.22 3.20652 -1.09396 0
M  V30 16295 C 1569.78 3.67181 -0.827974 0
M  V30 16296 C 1568.93 2.47259 -1.25532 0
M  V30 16297 H 1571.88 1.14067 -1.10338 0
M  V30 16298 H 1571.9 3.77952 -0.439581 0
M  V30 16299 H 1571.41 3.21451 -2.17465 0
M  V30 16300 H 1569.52 3.71832 0.239098 0
M  V30 16301 H 1569.63 4.56875 -1.44229 0
M  V30 16302 H 1567.99 2.45622 -0.673928 0
M  V30 16303 H 1568.78 2.50771 -2.34455 0
M  V30 16304 N 1571.22 0.688118 1.41784 0
M  V30 16305 C 1572.15 -0.02099 2.2919 0
M  V30 16306 C 1573.17 -0.752005 1.44391 0
M  V30 16307 O 1574.35 -0.603947 1.67972 0
M  V30 16308 C 1571.45 -1.0537 3.22103 0
M  V30 16309 C 1570.63 -0.393817 4.35624 0
M  V30 16310 C 1569.69 -1.32812 5.09163 0
M  V30 16311 O 1568.71 -0.823341 5.63214 0
M  V30 16312 N 1569.91 -2.66083 5.15927 0
M  V30 16313 H 1572.68 0.729389 2.90689 0
M  V30 16314 H 1570.24 0.533564 1.52855 0
M  V30 16315 H 1572.23 -1.6803 3.68169 0
M  V30 16316 H 1570.8 -1.70568 2.61964 0
M  V30 16317 H 1570.02 0.41253 3.92035 0
M  V30 16318 H 1571.31 0.065338 5.08758 0
M  V30 16319 H 1570.71 -3.09619 4.73448 0
M  V30 16320 H 1569.27 -3.23956 5.65593 0
M  V30 16321 N 1572.7 -1.51554 0.432352 0
M  V30 16322 C 1573.94 -2.02995 -0.128264 0
M  V30 16323 C 1574.3 -1.31104 -1.40817 0
M  V30 16324 O 1573.59 -0.415687 -1.87036 0
M  V30 16325 C 1573.79 -3.55076 -0.406915 0
M  V30 16326 C 1573.62 -4.41701 0.844433 0
M  V30 16327 C 1572.39 -4.8619 1.37649 0
M  V30 16328 C 1574.58 -4.8436 1.72917 0
M  V30 16329 N 1572.57 -5.57012 2.5809 0
M  V30 16330 C 1573.94 -5.54198 2.77966 0
M  V30 16331 C 1575.99 -4.66351 1.74418 0
M  V30 16332 C 1574.69 -6.07937 3.84455 0
M  V30 16333 C 1576.72 -5.21003 2.79839 0
M  V30 16334 C 1576.08 -5.90783 3.83608 0
M  V30 16335 H 1572.18 -0.78196 -0.00789942 0
M  V30 16336 H 1574.77 -1.85485 0.591906 0
M  V30 16337 H 1572.94 -3.72612 -1.09612 0
M  V30 16338 H 1574.67 -3.93187 -0.958451 0
M  V30 16339 H 1571.42 -4.64356 0.931141 0
M  V30 16340 H 1571.85 -5.97053 3.1915 0
M  V30 16341 H 1576.49 -4.11868 0.955235 0
M  V30 16342 H 1574.21 -6.61478 4.64191 0
M  V30 16343 H 1577.79 -5.08923 2.81936 0
M  V30 16344 H 1576.67 -6.32313 4.63842 0
M  V30 16345 N 1574.18 -0.163538 -1.56749 0
M  V30 16346 C 1575.59 0.192717 -1.58432 0
M  V30 16347 C 1575.79 1.63438 -1.17856 0
M  V30 16348 O 1574.85 2.36425 -0.88654 0
M  V30 16349 C 1576.16 -0.0810427 -3.00591 0
M  V30 16350 C 1577.71 -0.0186378 -3.12994 0
M  V30 16351 C 1578.18 -0.265283 -4.57231 0
M  V30 16352 N 1579.68 -0.212787 -4.62711 0
M  V30 16353 C 1580.41 -0.37791 -5.72153 0
M  V30 16354 N 1579.91 -0.601663 -6.90182 0
M  V30 16355 N 1581.7 -0.314357 -5.6122 0
M  V30 16356 H 1573.85 -1.10467 -1.81413 0
M  V30 16357 H 1576.11 -0.438569 -0.840453 0
M  V30 16358 H 1575.82 -1.07944 -3.34725 0
M  V30 16359 H 1575.69 0.630888 -3.71887 0
M  V30 16360 H 1578.08 0.970324 -2.78691 0
M  V30 16361 H 1578.16 -0.763158 -2.44151 0
M  V30 16362 H 1577.81 -1.25142 -4.92242 0
M  V30 16363 H 1577.74 0.499756 -5.24223 0
M  V30 16364 H 1580.23 -0.0451754 -3.77873 0
M  V30 16365 H 1580.54 -0.717319 -7.69464 0
M  V30 16366 H 1578.88 -0.638184 -6.92064 0
M  V30 16367 H 1582.08 -0.140197 -4.6789 0
M  V30 16368 H 1582.25 -0.446472 -6.4646 0
M  V30 16369 N 1575.65 1.57214 0.110213 0
M  V30 16370 C 1576.56 2.04287 1.15342 0
M  V30 16371 C 1577.58 0.964895 1.44796 0
M  V30 16372 O 1578.76 1.27702 1.55737 0
M  V30 16373 C 1575.82 2.44518 2.45788 0
M  V30 16374 C 1574.88 3.66439 2.23653 0
M  V30 16375 C 1574.12 4.04742 3.47879 0
M  V30 16376 O 1574.34 3.43291 4.5553 0
M  V30 16377 O 1573.27 4.97791 3.38361 0
M  V30 16378 H 1577.1 2.93415 0.783656 0
M  V30 16379 H 1574.68 1.45897 0.321644 0
M  V30 16380 H 1576.57 2.71089 3.22628 0
M  V30 16381 H 1575.24 1.58533 2.82221 0
M  V30 16382 H 1574.15 3.45006 1.44643 0
M  V30 16383 H 1575.48 4.53156 1.9212 0
M  V30 16384 N 1577.13 -0.380637 1.52934 0
M  V30 16385 C 1578.06 -1.47174 1.81279 0
M  V30 16386 C 1579.04 -1.56549 0.665319 0
M  V30 16387 O 1580.23 -1.71362 0.913722 0
M  V30 16388 C 1577.36 -2.84691 1.98918 0
M  V30 16389 C 1576.31 -2.90151 3.14637 0
M  V30 16390 C 1575.64 -4.30198 3.17544 0
M  V30 16391 C 1576.94 -2.59037 4.53539 0
M  V30 16392 H 1578.63 -1.23703 2.7265 0
M  V30 16393 H 1576.18 -0.593654 1.31194 0
M  V30 16394 H 1578.13 -3.61034 2.1733 0
M  V30 16395 H 1576.86 -3.09517 1.04244 0
M  V30 16396 H 1575.51 -2.16257 2.96021 0
M  V30 16397 H 1575.16 -4.52076 2.20536 0
M  V30 16398 H 1574.86 -4.3477 3.95284 0
M  V30 16399 H 1576.39 -5.08435 3.38121 0
M  V30 16400 H 1577.8 -3.25096 4.72214 0
M  V30 16401 H 1576.2 -2.74946 5.33408 0
M  V30 16402 H 1577.27 -1.54342 4.59681 0
M  V30 16403 N 1578.61 -1.44039 -0.639573 0
M  V30 16404 C 1579.84 -1.50063 -1.43164 0
M  V30 16405 C 1580.26 -0.123906 -1.87691 0
M  V30 16406 O 1579.62 0.885192 -1.58221 0
M  V30 16407 C 1579.67 -2.46305 -2.63375 0
M  V30 16408 O 1578.77 -1.95874 -3.62915 0
M  V30 16409 H 1578.11 -0.507052 -0.428713 0
M  V30 16410 H 1580.64 -1.8909 -0.781415 0
M  V30 16411 H 1580.65 -2.64062 -3.11023 0
M  V30 16412 H 1579.33 -3.46309 -2.3031 0
M  V30 16413 H 1577.9 -1.87844 -3.22132 0
M  V30 16414 N 1580.09 0.879207 -1.30796 0
M  V30 16415 C 1581.37 1.61328 -1.10602 0
M  V30 16416 C 1581.75 2.08301 0.342621 0
M  V30 16417 O 1581.09 1.85436 1.33514 0
M  V30 16418 C 1581.3 2.77838 -2.11203 0
M  V30 16419 C 1582.65 3.48028 -2.43231 0
M  V30 16420 O 1583.68 2.88034 -2.09559 0
M  V30 16421 O 1582.53 4.56233 -3.00854 0
M  V30 16422 H 1579.63 0.709335 -0.425174 0
M  V30 16423 H 1582.17 0.925478 -1.42243 0
M  V30 16424 H 1580.95 2.40475 -3.08687 0
M  V30 16425 H 1580.57 3.54312 -1.80414 0
M  V30 16426 N 1581.57 1.13606 1.09231 0
M  V30 16427 C 1582.5 0.837908 2.17948 0
M  V30 16428 C 1583.48 -0.203575 1.68877 0
M  V30 16429 O 1584.66 -0.0620702 1.94101 0
M  V30 16430 C 1581.79 0.305342 3.45955 0
M  V30 16431 C 1580.75 1.2813 4.08371 0
M  V30 16432 C 1580.07 0.608412 5.31227 0
M  V30 16433 C 1581.37 2.64055 4.50636 0
M  V30 16434 H 1583.07 1.747 2.43147 0
M  V30 16435 H 1580.61 0.84141 1.1686 0
M  V30 16436 H 1582.57 0.0844116 4.21315 0
M  V30 16437 H 1581.29 -0.639144 3.20285 0
M  V30 16438 H 1579.95 1.48826 3.35032 0
M  V30 16439 H 1579.6 -0.341613 5.01839 0
M  V30 16440 H 1579.3 1.25956 5.73942 0
M  V30 16441 H 1580.82 0.396809 6.09309 0
M  V30 16442 H 1582.24 2.47316 5.17212 0
M  V30 16443 H 1580.63 3.25364 5.0424 0
M  V30 16444 H 1581.7 3.21566 3.62937 0
M  V30 16445 N 1583.05 -1.27244 0.929878 0
M  V30 16446 C 1583.96 -2.30506 0.436355 0
M  V30 16447 C 1584.97 -1.67131 -0.484054 0
M  V30 16448 O 1586.15 -1.9804 -0.366332 0
M  V30 16449 C 1583.21 -3.45391 -0.300942 0
M  V30 16450 C 1582.27 -4.24279 0.654647 0
M  V30 16451 C 1581.51 -5.33679 -0.047558 0
M  V30 16452 O 1581.73 -5.56161 -1.26654 0
M  V30 16453 O 1580.66 -5.98642 0.62538 0
M  V30 16454 H 1584.49 -2.74762 1.29382 0
M  V30 16455 H 1582.07 -1.32234 0.695311 0
M  V30 16456 H 1583.96 -4.1526 -0.716718 0
M  V30 16457 H 1582.63 -3.03187 -1.13398 0
M  V30 16458 H 1581.54 -3.56936 1.12015 0
M  V30 16459 H 1582.87 -4.70204 1.45497 0
M  V30 16460 N 1584.52 -0.695628 -1.41417 0
M  V30 16461 C 1585.75 -0.234163 -2.06074 0
M  V30 16462 C 1586.17 1.10796 -1.52006 0
M  V30 16463 O 1585.53 1.6936 -0.64705 0
M  V30 16464 C 1585.58 -0.202353 -3.60032 0
M  V30 16465 O 1584.68 0.822767 -4.04109 0
M  V30 16466 H 1584.02 -0.114395 -0.654072 0
M  V30 16467 H 1586.55 -0.950503 -1.81181 0
M  V30 16468 H 1586.56 -0.0332321 -4.07986 0
M  V30 16469 H 1585.24 -1.18188 -3.98754 0
M  V30 16470 H 1583.82 0.622995 -3.67659 0
M  V30 16471 N 1586 1.51322 -0.440383 0
M  V30 16472 C 1586.96 2.26388 0.357911 0
M  V30 16473 C 1587.96 1.2995 0.947083 0
M  V30 16474 O 1589.15 1.53637 0.821057 0
M  V30 16475 C 1586.29 3.05797 1.50669 0
M  V30 16476 H 1587.48 2.98396 -0.300002 0
M  V30 16477 H 1585.03 1.55096 -0.193628 0
M  V30 16478 H 1585.77 2.38213 2.20057 0
M  V30 16479 H 1585.55 3.76634 1.09037 0
M  V30 16480 H 1587.04 3.6265 2.07062 0
M  V30 16481 N 1587.48 0.171848 1.5666 0
M  V30 16482 C 1588.9 -0.184312 1.58532 0
M  V30 16483 C 1589.1 -1.62811 1.18721 0
M  V30 16484 O 1588.15 -2.35951 0.899066 0
M  V30 16485 C 1589.46 0.0969826 3.00544 0
M  V30 16486 C 1591.01 0.0352364 3.1298 0
M  V30 16487 C 1591.49 0.289528 4.57084 0
M  V30 16488 N 1592.98 0.237322 4.62592 0
M  V30 16489 C 1593.71 0.408247 5.71945 0
M  V30 16490 N 1593.21 0.638256 6.89854 0
M  V30 16491 N 1595 0.344115 5.61046 0
M  V30 16492 H 1587.15 1.11427 1.80825 0
M  V30 16493 H 1589.42 0.44302 0.838115 0
M  V30 16494 H 1589.12 1.09717 3.34148 0
M  V30 16495 H 1589 -0.611157 3.72216 0
M  V30 16496 H 1591.38 -0.955531 2.79202 0
M  V30 16497 H 1591.46 0.776095 2.43743 0
M  V30 16498 H 1591.11 1.27751 4.91571 0
M  V30 16499 H 1591.04 -0.471948 5.24481 0
M  V30 16500 H 1593.53 0.0652142 3.77844 0
M  V30 16501 H 1593.84 0.758116 7.69072 0
M  V30 16502 H 1592.19 0.674877 6.91716 0
M  V30 16503 H 1595.38 0.165008 4.67809 0
M  V30 16504 H 1595.55 0.480749 6.46214 0
M  V30 16505 N 1588.96 -1.5727 -0.101874 0
M  V30 16506 C 1589.89 -1.98253 -1.15014 0
M  V30 16507 C 1590.9 -0.884147 -1.36699 0
M  V30 16508 O 1592.09 -1.16232 -1.35471 0
M  V30 16509 C 1589.19 -2.28043 -2.50698 0
M  V30 16510 C 1588.36 -3.59343 -2.49383 0
M  V30 16511 C 1587.42 -3.77147 -3.66943 0
M  V30 16512 O 1586.45 -4.49075 -3.49744 0
M  V30 16513 N 1587.65 -3.1721 -4.86167 0
M  V30 16514 H 1590.42 -2.88787 -0.801375 0
M  V30 16515 H 1587.98 -1.59264 -0.290941 0
M  V30 16516 H 1589.97 -2.37153 -3.27934 0
M  V30 16517 H 1588.54 -1.4355 -2.77691 0
M  V30 16518 H 1587.76 -3.61264 -1.57741 0
M  V30 16519 H 1589.05 -4.45612 -2.45576 0
M  V30 16520 H 1588.45 -2.58772 -5.03044 0
M  V30 16521 H 1587 -3.31816 -5.61018 0
M  V30 16522 N 1590.44 0.372521 -1.53134 0
M  V30 16523 C 1591.68 1.11589 -1.6898 0
M  V30 16524 C 1592.01 1.89503 -0.438049 0
M  V30 16525 O 1591.27 1.86911 0.579891 0
M  V30 16526 C 1591.56 2.10742 -2.88656 0
M  V30 16527 C 1591.23 1.49361 -4.25443 0
M  V30 16528 C 1589.89 1.32348 -4.62642 0
M  V30 16529 C 1592.24 1.04889 -5.10537 0
M  V30 16530 C 1589.57 0.694368 -5.82577 0
M  V30 16531 C 1591.92 0.433809 -6.31111 0
M  V30 16532 C 1590.59 0.251118 -6.67027 0
M  V30 16533 H 1589.86 0.408333 -0.618341 0
M  V30 16534 H 1592.51 0.398507 -1.87308 0
M  V30 16535 H 1590.81 2.88759 -2.64812 0
M  V30 16536 H 1592.51 2.682 -2.98111 0
M  V30 16537 H 1589.1 1.63594 -3.9615 0
M  V30 16538 H 1593.28 1.16829 -4.82353 0
M  V30 16539 H 1588.54 0.541171 -6.09 0
M  V30 16540 H 1592.71 0.0809859 -6.96353 0
M  V30 16541 H 1590.34 -0.23844 -7.59826 0
M  V30 16542 N 1591.91 1.44376 0.631925 0
M  V30 16543 C 1593.15 1.48638 1.40307 0
M  V30 16544 C 1593.52 0.115559 1.91652 0
M  V30 16545 O 1594.72 0.0328551 2.6878 0
M  V30 16546 C 1592.99 2.51663 2.53773 0
M  V30 16547 S 1594.55 2.74966 3.41964 0
M  V30 16548 H 1591.37 0.525735 0.478669 0
M  V30 16549 H 1593.97 1.81294 0.731632 0
M  V30 16550 H 1592.67 3.49968 2.14361 0
M  V30 16551 H 1592.2 2.20577 3.25744 0
M  V30 16552 H 1594.22 2.06501 4.51189 0
M  V30 16553 N 1593.39 -0.872258 1.31261 0
M  V30 16554 C 1594.32 -1.9853 1.14537 0
M  V30 16555 C 1595.34 -1.62578 0.0850723 0
M  V30 16556 O 1596.53 -1.75379 0.332343 0
M  V30 16557 C 1593.63 -3.31005 0.72727 0
M  V30 16558 C 1592.8 -3.95313 1.87208 0
M  V30 16559 C 1591.86 -5.06101 1.44042 0
M  V30 16560 O 1590.88 -5.27045 2.1497 0
M  V30 16561 N 1592.09 -5.79581 0.32653 0
M  V30 16562 H 1594.85 -2.13423 2.10406 0
M  V30 16563 H 1592.41 -1.0461 1.23565 0
M  V30 16564 H 1594.4 -4.02502 0.421255 0
M  V30 16565 H 1592.97 -3.12287 -0.13975 0
M  V30 16566 H 1592.19 -3.16825 2.34553 0
M  V30 16567 H 1593.48 -4.35015 2.63893 0
M  V30 16568 H 1592.88 -5.65083 -0.264202 0
M  V30 16569 H 1591.44 -6.51751 0.0800358 0
M  V30 16570 N 1594.87 -1.14184 -1.08627 0
M  V30 16571 C 1596.1 -0.932104 -1.84714 0
M  V30 16572 C 1596.51 0.519335 -1.81517 0
M  V30 16573 O 1595.87 1.35978 -1.21722 0
M  V30 16574 C 1595.92 -1.42217 -3.3235 0
M  V30 16575 O 1595.64 -2.81674 -3.35547 0
M  V30 16576 C 1597.14 -1.25205 -4.25251 0
M  V30 16577 H 1594.36 -0.331854 -0.583193 0
M  V30 16578 H 1596.91 -1.51641 -1.37205 0
M  V30 16579 H 1595.06 -0.880679 -3.77257 0
M  V30 16580 H 1595.48 -3.03615 -4.2769 0
M  V30 16581 H 1596.95 -1.64358 -5.26963 0
M  V30 16582 H 1597.43 -0.194659 -4.38768 0
M  V30 16583 H 1598.03 -1.78198 -3.86168 0
M  V30 16584 N 1596.35 1.26749 -0.936613 0
M  V30 16585 C 1597.59 1.94251 -0.582616 0
M  V30 16586 C 1597.93 1.73352 0.875361 0
M  V30 16587 O 1597.2 1.06784 1.62565 0
M  V30 16588 C 1597.49 3.48145 -0.920151 0
M  V30 16589 C 1597.34 3.78349 -2.43253 0
M  V30 16590 C 1598.66 4.37971 -0.432326 0
M  V30 16591 H 1595.78 0.705507 -0.213141 0
M  V30 16592 H 1598.42 1.49703 -1.17001 0
M  V30 16593 H 1596.57 3.8622 -0.420279 0
M  V30 16594 H 1598.24 3.50015 -3.00478 0
M  V30 16595 H 1596.48 3.24586 -2.87795 0
M  V30 16596 H 1597.15 4.85902 -2.61922 0
M  V30 16597 H 1599.63 4.07098 -0.860857 0
M  V30 16598 H 1598.51 5.44452 -0.697366 0
M  V30 16599 H 1598.77 4.37029 0.667694 0
M  V30 16600 N 1597.83 0.703118 1.41046 0
M  V30 16601 C 1599.07 0.236818 2.00708 0
M  V30 16602 C 1599.4 -1.17008 1.55994 0
M  V30 16603 O 1598.67 -1.79094 0.793871 0
M  V30 16604 H 1597.25 0.0845643 0.742198 0
M  V30 16605 H 1599.91 0.905964 1.72564 0
M  V30 16606 H 1599 0.260141 3.11014 0
M  V30 16607 N 1599.3 -1.51086 0.448402 0
M  V30 16608 C 1600.53 -2.06293 -0.112531 0
M  V30 16609 C 1600.94 -1.31478 -1.36052 0
M  V30 16610 O 1600.29 -0.370897 -1.79917 0
M  V30 16611 C 1600.35 -3.56156 -0.489178 0
M  V30 16612 C 1600.01 -4.52302 0.653568 0
M  V30 16613 C 1601.01 -4.96909 1.52898 0
M  V30 16614 C 1598.69 -4.9527 0.837448 0
M  V30 16615 C 1600.69 -5.83165 2.57288 0
M  V30 16616 C 1598.37 -5.81314 1.8846 0
M  V30 16617 C 1599.37 -6.25161 2.75069 0
M  V30 16618 O 1599.06 -7.09495 3.77985 0
M  V30 16619 H 1598.79 -0.67597 -0.00641865 0
M  V30 16620 H 1601.35 -1.95515 0.629533 0
M  V30 16621 H 1599.58 -3.64757 -1.28411 0
M  V30 16622 H 1601.27 -3.93828 -0.982548 0
M  V30 16623 H 1602.03 -4.64399 1.3985 0
M  V30 16624 H 1597.91 -4.60676 0.172857 0
M  V30 16625 H 1601.45 -6.1731 3.24921 0
M  V30 16626 H 1597.35 -6.13236 2.01523 0
M  V30 16627 H 1598.12 -7.27697 3.74699 0
M  V30 16628 N 1600.78 -0.180154 -1.56567 0
M  V30 16629 C 1602.19 0.335054 -1.83669 0
M  V30 16630 C 1602.54 1.62443 -1.1003 0
M  V30 16631 O 1601.67 2.13448 -0.356205 0
M  V30 16632 C 1602.26 0.61468 -3.33177 0
M  V30 16633 C 1600.82 1.0743 -3.60743 0
M  V30 16634 C 1599.97 0.114877 -2.77062 0
M  V30 16635 H 1602.92 -0.404245 -1.53465 0
M  V30 16636 H 1602.94 1.46574 -3.51136 0
M  V30 16637 H 1602.45 -0.323923 -3.86746 0
M  V30 16638 H 1600.56 2.0277 -3.12594 0
M  V30 16639 H 1600.67 0.977349 -4.69025 0
M  V30 16640 H 1599.03 0.613933 -2.4719 0
M  V30 16641 H 1599.82 -0.817904 -3.33414 0
M  V30 16642 N 1602.26 1.57322 0.0935319 0
M  V30 16643 C 1603.5 1.87995 0.802335 0
M  V30 16644 C 1603.86 0.771337 1.75825 0
M  V30 16645 O 1605.07 0.960519 2.51053 0
M  V30 16646 C 1603.34 3.23907 1.5106 0
M  V30 16647 S 1604.9 3.76276 2.25747 0
M  V30 16648 H 1601.71 0.658851 0.267275 0
M  V30 16649 H 1604.32 1.9541 0.0593887 0
M  V30 16650 H 1603.02 4.02512 0.800784 0
M  V30 16651 H 1602.55 3.19634 2.29341 0
M  V30 16652 H 1604.57 3.49818 3.51912 0
M  V30 16653 N 1603.74 -0.364395 1.53329 0
M  V30 16654 C 1604.98 -1.10855 1.6982 0
M  V30 16655 C 1605.32 -1.88931 0.449291 0
M  V30 16656 O 1604.59 -1.8646 -0.553437 0
M  V30 16657 C 1604.88 -2.06681 2.94881 0
M  V30 16658 C 1604.73 -1.32206 4.29932 0
M  V30 16659 C 1606.05 -3.06788 3.15546 0
M  V30 16660 H 1603.17 -0.401626 0.617953 0
M  V30 16661 H 1605.81 -0.389244 1.8597 0
M  V30 16662 H 1603.96 -2.68019 2.81244 0
M  V30 16663 H 1605.63 -0.73642 4.55384 0
M  V30 16664 H 1603.87 -0.623916 4.2929 0
M  V30 16665 H 1604.54 -2.0235 5.13574 0
M  V30 16666 H 1607.02 -2.55554 3.28377 0
M  V30 16667 H 1605.9 -3.71059 4.04483 0
M  V30 16668 H 1606.16 -3.77023 2.3088 0
M  V30 16669 N 1605.22 -1.44709 -0.62426 0
M  V30 16670 C 1606.46 -1.48072 -1.38573 0
M  V30 16671 C 1606.8 -0.115532 -1.93856 0
M  V30 16672 O 1606.07 0.867787 -1.74068 0
M  V30 16673 C 1606.35 -2.54662 -2.54596 0
M  V30 16674 C 1606.21 -4.00564 -2.04618 0
M  V30 16675 C 1607.53 -2.57689 -3.56769 0
M  V30 16676 H 1604.64 -0.539119 -0.502513 0
M  V30 16677 H 1607.29 -1.76427 -0.705225 0
M  V30 16678 H 1605.44 -2.30614 -3.12649 0
M  V30 16679 H 1607.11 -4.35767 -1.51343 0
M  V30 16680 H 1605.35 -4.12014 -1.35746 0
M  V30 16681 H 1606.02 -4.70804 -2.8818 0
M  V30 16682 H 1608.5 -2.79194 -3.08529 0
M  V30 16683 H 1607.37 -3.34161 -4.35462 0
M  V30 16684 H 1607.64 -1.62146 -4.11292 0
M  V30 16685 N 1606.69 0.865285 -1.31722 0
M  V30 16686 C 1608.11 1.15179 -1.10481 0
M  V30 16687 C 1608.31 2.01132 0.121667 0
M  V30 16688 O 1607.37 2.39167 0.809645 0
M  V30 16689 C 1608.68 1.8394 -2.3788 0
M  V30 16690 C 1610.23 1.96621 -2.43535 0
M  V30 16691 C 1610.7 2.68796 -3.70827 0
M  V30 16692 N 1612.19 2.76329 -3.71748 0
M  V30 16693 C 1612.93 3.32798 -4.6694 0
M  V30 16694 N 1612.42 3.90162 -5.7249 0
M  V30 16695 N 1614.22 3.30801 -4.54453 0
M  V30 16696 H 1606.37 0.292632 -2.10374 0
M  V30 16697 H 1608.63 0.192252 -0.928301 0
M  V30 16698 H 1608.34 1.28233 -3.27489 0
M  V30 16699 H 1608.21 2.84182 -2.48034 0
M  V30 16700 H 1610.6 2.5149 -1.54392 0
M  V30 16701 H 1610.68 0.954071 -2.37342 0
M  V30 16702 H 1610.32 2.14593 -4.60339 0
M  V30 16703 H 1610.25 3.70427 -3.74288 0
M  V30 16704 H 1612.74 2.35621 -2.95451 0
M  V30 16705 H 1613.06 4.31376 -6.41198 0
M  V30 16706 H 1611.4 3.88525 -5.76258 0
M  V30 16707 H 1614.59 2.85227 -3.71165 0
M  V30 16708 H 1614.77 3.74511 -5.28815 0
M  V30 16709 N 1608.17 1.14759 1.0802 0
M  V30 16710 C 1609.58 0.928711 1.61963 0
M  V30 16711 C 1609.93 -0.531568 1.88862 0
M  V30 16712 O 1609.06 -1.40129 1.64902 0
M  V30 16713 C 1609.65 1.67943 2.94246 0
M  V30 16714 C 1608.21 1.50602 3.44958 0
M  V30 16715 C 1607.36 1.69938 2.19126 0
M  V30 16716 H 1610.31 1.29882 0.911945 0
M  V30 16717 H 1610.33 1.14493 3.62866 0
M  V30 16718 H 1609.84 2.7422 2.74636 0
M  V30 16719 H 1607.95 0.466901 3.69663 0
M  V30 16720 H 1608.06 2.27857 4.21447 0
M  V30 16721 H 1606.42 1.12534 2.28491 0
M  V30 16722 H 1607.21 2.77566 2.0202 0
M  V30 16723 N 1609.65 -1.26251 0.943322 0
M  V30 16724 C 1610.88 -1.98278 0.608341 0
M  V30 16725 C 1611.3 -1.69756 -0.810208 0
M  V30 16726 O 1610.66 -0.946846 -1.54611 0
M  V30 16727 C 1610.71 -3.50205 0.859591 0
M  V30 16728 O 1609.81 -4.12345 -0.0672371 0
M  V30 16729 H 1609.15 -0.621973 0.232477 0
M  V30 16730 H 1611.68 -1.60662 1.26684 0
M  V30 16731 H 1611.69 -4.00449 0.781341 0
M  V30 16732 H 1610.37 -3.70294 1.89354 0
M  V30 16733 H 1608.94 -3.72848 0.0622543 0
M  V30 16734 N 1611.13 -0.710588 -1.40671 0
M  V30 16735 C 1612.36 -0.257069 -2.04994 0
M  V30 16736 C 1612.77 1.10431 -1.53628 0
M  V30 16737 O 1612.11 1.70422 -0.685726 0
M  V30 16738 C 1612.17 -0.153646 -3.59172 0
M  V30 16739 C 1611.84 -1.4495 -4.33403 0
M  V30 16740 C 1612.83 -2.39042 -4.61687 0
M  V30 16741 C 1610.52 -1.70704 -4.72404 0
M  V30 16742 C 1612.51 -3.57137 -5.27951 0
M  V30 16743 C 1610.2 -2.89082 -5.384 0
M  V30 16744 C 1611.2 -3.82121 -5.66103 0
M  V30 16745 O 1610.89 -4.98424 -6.30737 0
M  V30 16746 H 1610.62 -0.114202 -0.666284 0
M  V30 16747 H 1613.17 -0.968028 -1.81158 0
M  V30 16748 H 1611.4 0.613213 -3.81807 0
M  V30 16749 H 1613.09 0.264655 -4.05036 0
M  V30 16750 H 1613.86 -2.20407 -4.32025 0
M  V30 16751 H 1609.74 -0.99142 -4.50213 0
M  V30 16752 H 1613.28 -4.29775 -5.4949 0
M  V30 16753 H 1609.18 -3.07627 -5.67482 0
M  V30 16754 H 1609.94 -4.98436 -6.49233 0
M  V30 16755 N 1612.61 1.50847 -0.456408 0
M  V30 16756 C 1613.85 2.02534 0.103772 0
M  V30 16757 C 1614.19 1.33874 1.40682 0
M  V30 16758 O 1613.46 0.459695 1.8899 0
M  V30 16759 C 1613.74 3.58825 0.302817 0
M  V30 16760 C 1613.6 4.38077 -1.02022 0
M  V30 16761 C 1614.92 4.27044 1.06404 0
M  V30 16762 H 1612.04 0.736108 0.0362398 0
M  V30 16763 H 1614.68 1.80306 -0.599134 0
M  V30 16764 H 1612.83 3.77895 0.901542 0
M  V30 16765 H 1614.5 4.30613 -1.6544 0
M  V30 16766 H 1612.74 4.02401 -1.62036 0
M  V30 16767 H 1613.41 5.45652 -0.834766 0
M  V30 16768 H 1615.89 4.12359 0.556698 0
M  V30 16769 H 1614.77 5.3624 1.17209 0
M  V30 16770 H 1615.03 3.89204 2.09697 0
M  V30 16771 N 1614.09 0.188454 1.56469 0
M  V30 16772 C 1615.02 -0.730379 2.21783 0
M  V30 16773 C 1616 -1.22629 1.17882 0
M  V30 16774 O 1617.18 -1.27634 1.46367 0
M  V30 16775 C 1614.31 -1.95278 2.872 0
M  V30 16776 C 1613.27 -1.59205 3.97288 0
M  V30 16777 C 1612.59 -2.89052 4.49836 0
M  V30 16778 C 1613.89 -0.807027 5.16027 0
M  V30 16779 H 1615.59 -0.185914 2.98822 0
M  V30 16780 H 1613.13 -0.0879804 1.43731 0
M  V30 16781 H 1615.08 -2.60074 3.31571 0
M  V30 16782 H 1613.81 -2.52167 2.07556 0
M  V30 16783 H 1612.47 -0.967713 3.53597 0
M  V30 16784 H 1612.12 -3.44017 3.66963 0
M  V30 16785 H 1611.82 -2.65663 5.24115 0
M  V30 16786 H 1613.34 -3.54847 4.96906 0
M  V30 16787 H 1614.75 -1.35794 5.56986 0
M  V30 16788 H 1613.15 -0.671516 5.96331 0
M  V30 16789 H 1614.22 0.193251 4.84515 0
M  V30 16790 N 1615.56 -1.5737 -0.0851874 0
M  V30 16791 C 1616.79 -1.91183 -0.803983 0
M  V30 16792 C 1617.21 -0.78365 -1.70999 0
M  V30 16793 O 1616.57 0.264266 -1.79364 0
M  V30 16794 C 1616.62 -3.239 -1.58496 0
M  V30 16795 O 1615.72 -3.12189 -2.69466 0
M  V30 16796 H 1615.06 -0.626413 -0.220233 0
M  V30 16797 H 1617.59 -2.04519 -0.0574426 0
M  V30 16798 H 1617.6 -3.5745 -1.96707 0
M  V30 16799 H 1616.28 -4.05594 -0.920111 0
M  V30 16800 H 1614.86 -2.90173 -2.3421 0
M  V30 16801 N 1617.04 0.356258 -1.53521 0
M  V30 16802 C 1618.29 1.09573 -1.69818 0
M  V30 16803 C 1618.61 1.89559 -0.457406 0
M  V30 16804 O 1617.88 1.88633 0.528616 0
M  V30 16805 H 1616.46 0.407512 -0.626054 0
M  V30 16806 H 1619.12 0.400612 -1.90738 0
M  V30 16807 H 1618.22 1.7803 -2.56343 0
M  V30 16808 N 1618.52 1.45038 0.616577 0
M  V30 16809 C 1619.48 1.52647 1.70973 0
M  V30 16810 C 1620.48 0.406902 1.55567 0
M  V30 16811 O 1621.67 0.670062 1.60797 0
M  V30 16812 C 1618.8 1.41438 3.10174 0
M  V30 16813 H 1620 2.50036 1.65596 0
M  V30 16814 H 1617.55 1.32346 0.831524 0
M  V30 16815 H 1618.29 0.451991 3.21135 0
M  V30 16816 H 1618.07 2.22634 3.22764 0
M  V30 16817 H 1619.56 1.49776 3.89817 0
M  V30 16818 N 1620 -0.858287 1.32179 0
M  V30 16819 C 1620.96 -1.94811 1.20753 0
M  V30 16820 C 1621.96 -1.60261 0.131526 0
M  V30 16821 O 1623.15 -1.69968 0.381662 0
M  V30 16822 C 1620.28 -3.29972 0.856229 0
M  V30 16823 H 1621.48 -2.06371 2.17603 0
M  V30 16824 H 1619.03 -1.04802 1.15958 0
M  V30 16825 H 1619.76 -3.24111 -0.11061 0
M  V30 16826 H 1619.55 -3.56424 1.63414 0
M  V30 16827 H 1621.04 -4.09856 0.800507 0
M  V30 16828 N 1621.48 -1.1533 -1.07409 0
M  V30 16829 C 1622.41 -0.793078 -2.13976 0
M  V30 16830 C 1623.39 0.23021 -1.60962 0
M  V30 16831 O 1624.57 0.116904 -1.88137 0
M  V30 16832 C 1621.7 -0.179232 -3.38225 0
M  V30 16833 C 1620.74 -1.17432 -4.10015 0
M  V30 16834 S 1621.58 -2.7161 -4.61506 0
M  V30 16835 C 1622.73 -2.11643 -5.89031 0
M  V30 16836 H 1622.97 -1.69568 -2.44201 0
M  V30 16837 H 1620.5 -0.975582 -1.19674 0
M  V30 16838 H 1622.46 0.168494 -4.10154 0
M  V30 16839 H 1621.12 0.700954 -3.06179 0
M  V30 16840 H 1620.31 -0.693027 -4.99213 0
M  V30 16841 H 1619.91 -1.46655 -3.44047 0
M  V30 16842 H 1622.2 -1.47812 -6.61179 0
M  V30 16843 H 1623.15 -2.99006 -6.41873 0
M  V30 16844 H 1623.56 -1.55971 -5.42525 0
M  V30 16845 N 1622.95 1.25748 -0.950004 0
M  V30 16846 C 1623.9 2.28056 -0.457542 0
M  V30 16847 C 1624.9 1.62756 0.469776 0
M  V30 16848 O 1626.1 1.76623 0.347016 0
M  V30 16849 H 1622.48 0.740775 -0.129447 0
M  V30 16850 H 1624.45 2.66984 -1.33275 0
M  V30 16851 C 1623.2 3.46774 0.2536 0
M  V30 16852 H 1622.52 3.9725 -0.450808 0
M  V30 16853 H 1623.96 4.20255 0.562264 0
M  V30 16854 C 1622.42 3.02919 1.4745 0
M  V30 16855 O 1622.95 3.08527 2.57243 0
M  V30 16856 N 1621.15 2.58162 1.33419 0
M  V30 16857 H 1620.7 2.53799 0.440894 0
M  V30 16858 H 1620.66 2.29184 2.15226 0
M  V30 16859 N 1624.43 0.718038 1.40292 0
M  V30 16860 C 1625.68 0.258986 2.0114 0
M  V30 16861 C 1626.01 -1.1456 1.56811 0
M  V30 16862 O 1625.29 -1.77766 0.789276 0
M  V30 16863 C 1625.57 0.341778 3.58474 0
M  V30 16864 C 1625.42 1.78492 4.12869 0
M  V30 16865 C 1626.74 -0.285622 4.39172 0
M  V30 16866 H 1623.86 0.0955806 0.730776 0
M  V30 16867 H 1626.5 0.911 1.66736 0
M  V30 16868 H 1624.65 -0.213354 3.87914 0
M  V30 16869 H 1626.32 2.39562 3.94218 0
M  V30 16870 H 1624.57 2.31183 3.67065 0
M  V30 16871 H 1625.24 1.79423 5.22026 0
M  V30 16872 H 1627.71 0.187411 4.15678 0
M  V30 16873 H 1626.59 -0.19726 5.48545 0
M  V30 16874 H 1626.85 -1.36947 4.20355 0
M  V30 16875 N 1625.91 -1.50602 0.464402 0
M  V30 16876 C 1626.87 -2.26929 -0.32185 0
M  V30 16877 C 1627.87 -1.3144 -0.926289 0
M  V30 16878 O 1629.06 -1.54924 -0.796511 0
M  V30 16879 C 1626.2 -3.08155 -1.45785 0
M  V30 16880 H 1627.39 -2.97881 0.347436 0
M  V30 16881 H 1624.94 -1.54768 0.218278 0
M  V30 16882 H 1625.68 -2.41684 -2.16239 0
M  V30 16883 H 1625.46 -3.78321 -1.03031 0
M  V30 16884 H 1626.95 -3.65899 -2.01266 0
M  V30 16885 N 1627.39 -0.19675 -1.56367 0
M  V30 16886 C 1628.62 0.446491 -2.01718 0
M  V30 16887 C 1629.03 1.55621 -1.07604 0
M  V30 16888 O 1628.37 1.83553 -0.0733943 0
M  V30 16889 C 1628.43 1.06182 -3.43461 0
M  V30 16890 C 1628.1 0.0906278 -4.5691 0
M  V30 16891 C 1629.09 -0.700599 -5.15158 0
M  V30 16892 C 1626.78 -0.0209341 -5.02296 0
M  V30 16893 C 1628.77 -1.59034 -6.17241 0
M  V30 16894 C 1626.46 -0.91423 -6.04223 0
M  V30 16895 C 1627.46 -1.6975 -6.61569 0
M  V30 16896 O 1627.14 -2.57582 -7.61516 0
M  V30 16897 H 1626.88 0.116254 -0.665929 0
M  V30 16898 H 1629.43 -0.303224 -2.03149 0
M  V30 16899 H 1627.66 1.86015 -3.39021 0
M  V30 16900 H 1629.35 1.60988 -3.72609 0
M  V30 16901 H 1630.12 -0.624723 -4.8096 0
M  V30 16902 H 1625.99 0.578557 -4.57355 0
M  V30 16903 H 1629.54 -2.20215 -6.6193 0
M  V30 16904 H 1625.44 -0.991215 -6.37844 0
M  V30 16905 H 1626.2 -2.5138 -7.78942 0
M  V30 16906 N 1628.87 1.57413 0.0768405 0
M  V30 16907 C 1630.09 1.91224 0.790007 0
M  V30 16908 C 1630.51 0.792232 1.71374 0
M  V30 16909 O 1629.87 -0.234736 1.80984 0
M  V30 16910 C 1629.92 3.24757 1.58793 0
M  V30 16911 O 1629.64 4.3245 0.701329 0
M  V30 16912 C 1631.14 3.72549 2.40254 0
M  V30 16913 H 1628.36 0.63219 0.224893 0
M  V30 16914 H 1630.9 2.04442 0.0486173 0
M  V30 16915 H 1629.06 3.13081 2.28165 0
M  V30 16916 H 1629.47 5.09245 1.2558 0
M  V30 16917 H 1630.95 4.68628 2.91705 0
M  V30 16918 H 1631.42 3.01305 3.1955 0
M  V30 16919 H 1632.03 3.87153 1.76048 0
M  V30 16920 N 1630.34 -0.348112 1.53707 0
M  V30 16921 C 1631.62 -1.1056 1.61356 0
M  V30 16922 C 1632 -2.06633 0.431955 0
M  V30 16923 O 1631.35 -2.21115 -0.576211 0
M  V30 16924 C 1631.56 -1.82929 2.97217 0
M  V30 16925 C 1632.91 -2.36837 3.52411 0
M  V30 16926 O 1633.93 -1.93032 2.99361 0
M  V30 16927 O 1632.79 -3.16966 4.45191 0
M  V30 16928 H 1629.88 -0.50817 0.652451 0
M  V30 16929 H 1632.43 -0.349971 1.66052 0
M  V30 16930 H 1631.2 -1.12912 3.74655 0
M  V30 16931 H 1630.83 -2.65361 2.9609 0
M  V30 16932 N 1631.82 -1.45363 -0.608876 0
M  V30 16933 C 1633.07 -1.49018 -1.36522 0
M  V30 16934 C 1633.39 -0.132757 -1.94548 0
M  V30 16935 O 1632.66 0.837723 -1.77085 0
M  V30 16936 H 1631.24 -0.548775 -0.506809 0
M  V30 16937 H 1633.9 -1.81309 -0.715068 0
M  V30 16938 H 1633 -2.22826 -2.18529 0
M  V30 16939 N 1633.3 0.851265 -1.32632 0
M  V30 16940 C 1634.58 1.58945 -1.13999 0
M  V30 16941 C 1634.96 2.08981 0.29836 0
M  V30 16942 O 1634.31 1.88226 1.2955 0
M  V30 16943 C 1634.52 2.73296 -2.17049 0
M  V30 16944 C 1635.86 3.42791 -2.50559 0
M  V30 16945 O 1636.89 2.83524 -2.15621 0
M  V30 16946 O 1635.75 4.49749 -3.10464 0
M  V30 16947 H 1632.84 0.700157 -0.440124 0
M  V30 16948 H 1635.39 0.895098 -1.44174 0
M  V30 16949 H 1634.16 2.33873 -3.13718 0
M  V30 16950 H 1633.78 3.50405 -1.87888 0
M  V30 16951 N 1634.78 1.15898 1.06796 0
M  V30 16952 C 1635.71 0.88395 2.16122 0
M  V30 16953 C 1636.69 -0.167708 1.69271 0
M  V30 16954 O 1637.87 -0.0208846 1.94189 0
M  V30 16955 C 1635 0.378656 3.4523 0
M  V30 16956 C 1633.96 1.36764 4.05561 0
M  V30 16957 C 1633.28 0.720956 5.29817 0
M  V30 16958 C 1634.58 2.73554 4.44933 0
M  V30 16959 H 1636.28 1.79818 2.39386 0
M  V30 16960 H 1633.82 0.866008 1.15049 0
M  V30 16961 H 1635.78 0.17376 4.21042 0
M  V30 16962 H 1634.5 -0.571063 3.21569 0
M  V30 16963 H 1633.16 1.55899 3.318 0
M  V30 16964 H 1632.81 -0.235089 5.0245 0
M  V30 16965 H 1632.51 1.38101 5.71141 0
M  V30 16966 H 1634.03 0.525963 6.0833 0
M  V30 16967 H 1635.45 2.58231 5.11849 0
M  V30 16968 H 1633.84 3.35986 4.97226 0
M  V30 16969 H 1634.91 3.29192 3.56034 0
M  V30 16970 N 1636.26 -1.25243 0.956659 0
M  V30 16971 C 1637.17 -2.29529 0.48515 0
M  V30 16972 C 1638.18 -1.68121 -0.448494 0
M  V30 16973 O 1639.36 -1.98773 -0.324243 0
M  V30 16974 C 1636.42 -3.45952 -0.227611 0
M  V30 16975 C 1635.48 -4.22795 0.744495 0
M  V30 16976 C 1634.72 -5.3366 0.0656539 0
M  V30 16977 O 1634.94 -5.58722 -1.14829 0
M  V30 16978 O 1633.87 -5.97181 0.75222 0
M  V30 16979 H 1637.7 -2.71955 1.35181 0
M  V30 16980 H 1635.29 -1.30729 0.723203 0
M  V30 16981 H 1637.17 -4.16687 -0.628474 0
M  V30 16982 H 1635.84 -3.05524 -1.06942 0
M  V30 16983 H 1634.75 -3.5448 1.1956 0
M  V30 16984 H 1636.08 -4.67012 1.55438 0
M  V30 16985 N 1637.73 -0.725468 -1.3991 0
M  V30 16986 C 1639.15 -0.400048 -1.54505 0
M  V30 16987 C 1639.35 1.09014 -1.69464 0
M  V30 16988 O 1638.41 1.87624 -1.68977 0
M  V30 16989 C 1639.72 -1.17474 -2.76804 0
M  V30 16990 C 1641.27 -1.16202 -2.9063 0
M  V30 16991 C 1641.74 -1.91908 -4.15855 0
M  V30 16992 N 1643.23 -1.89026 -4.22875 0
M  V30 16993 C 1643.97 -2.4442 -5.18697 0
M  V30 16994 N 1643.46 -3.0841 -6.20367 0
M  V30 16995 N 1645.26 -2.34506 -5.10846 0
M  V30 16996 H 1637.41 -1.6916 -1.28447 0
M  V30 16997 H 1639.67 -0.715556 -0.621839 0
M  V30 16998 H 1639.38 -2.22881 -2.72061 0
M  V30 16999 H 1639.25 -0.772871 -3.69197 0
M  V30 17000 H 1641.64 -0.116116 -2.94871 0
M  V30 17001 H 1641.72 -1.60319 -1.99327 0
M  V30 17002 H 1641.36 -2.96494 -4.12375 0
M  V30 17003 H 1641.29 -1.45204 -5.06185 0
M  V30 17004 H 1643.78 -1.42399 -3.50044 0
M  V30 17005 H 1644.1 -3.48169 -6.89926 0
M  V30 17006 H 1642.44 -3.12497 -6.20782 0
M  V30 17007 H 1645.63 -1.84164 -4.3035 0
M  V30 17008 H 1645.81 -2.77976 -5.85349 0
M  V30 17009 N 1639.21 1.50354 -0.472382 0
M  V30 17010 C 1640.46 2.02333 0.0821629 0
M  V30 17011 C 1640.79 1.35428 1.39605 0
M  V30 17012 O 1640.04 0.469386 1.89988 0
M  V30 17013 C 1640.34 3.5603 0.31263 0
M  V30 17014 C 1640.01 4.41421 -0.919715 0
M  V30 17015 C 1638.67 4.64476 -1.25759 0
M  V30 17016 C 1641.02 4.91292 -1.74017 0
M  V30 17017 C 1638.35 5.34648 -2.41596 0
M  V30 17018 C 1640.7 5.62736 -2.88983 0
M  V30 17019 C 1639.37 5.84045 -3.23184 0
M  V30 17020 H 1638.64 0.74039 0.0300655 0
M  V30 17021 H 1641.28 1.80954 -0.626725 0
M  V30 17022 H 1639.59 3.75931 1.10378 0
M  V30 17023 H 1641.28 3.93815 0.755691 0
M  V30 17024 H 1637.87 4.23696 -0.646486 0
M  V30 17025 H 1642.06 4.73332 -1.49232 0
M  V30 17026 H 1637.31 5.49354 -2.68366 0
M  V30 17027 H 1641.49 6.0036 -3.52903 0
M  V30 17028 H 1639.12 6.38196 -4.1305 0
M  V30 17029 N 1640.69 0.205039 1.56261 0
M  V30 17030 C 1641.62 -0.706815 2.22545 0
M  V30 17031 C 1642.6 -1.21372 1.19176 0
M  V30 17032 O 1643.79 -1.26074 1.47712 0
M  V30 17033 C 1640.92 -1.92221 2.89255 0
M  V30 17034 C 1639.87 -1.54982 3.98954 0
M  V30 17035 C 1639.2 -2.84265 4.52877 0
M  V30 17036 C 1640.5 -0.75225 5.16854 0
M  V30 17037 H 1642.19 -0.15421 2.99003 0
M  V30 17038 H 1639.74 -0.0727309 1.43816 0
M  V30 17039 H 1641.69 -2.56542 3.34311 0
M  V30 17040 H 1640.41 -2.49952 2.10218 0
M  V30 17041 H 1639.07 -0.930155 3.54604 0
M  V30 17042 H 1638.72 -3.40105 3.70591 0
M  V30 17043 H 1638.42 -2.60089 5.26904 0
M  V30 17044 H 1639.95 -3.49557 5.00642 0
M  V30 17045 H 1641.36 -1.29878 5.58395 0
M  V30 17046 H 1639.76 -0.60823 5.9701 0
M  V30 17047 H 1640.83 0.24463 4.84283 0
M  V30 17048 N 1642.17 -1.57451 -0.0684915 0
M  V30 17049 C 1643.39 -1.92025 -0.78366 0
M  V30 17050 C 1643.82 -0.801743 -1.70158 0
M  V30 17051 O 1643.18 0.245227 -1.79634 0
M  V30 17052 C 1643.23 -3.25563 -1.55051 0
M  V30 17053 O 1642.33 -3.15029 -2.6614 0
M  V30 17054 H 1641.67 -0.628714 -0.213576 0
M  V30 17055 H 1644.2 -2.04569 -0.0357474 0
M  V30 17056 H 1644.21 -3.59516 -1.92905 0
M  V30 17057 H 1642.89 -4.06547 -0.87704 0
M  V30 17058 H 1641.46 -2.9264 -2.31119 0
M  V30 17059 N 1643.65 0.339955 -1.5389 0
M  V30 17060 C 1644.87 1.10417 -1.75564 0
M  V30 17061 C 1645.3 1.81466 -0.495156 0
M  V30 17062 O 1644.66 1.72679 0.552415 0
M  V30 17063 C 1644.7 2.09056 -2.93816 0
M  V30 17064 O 1643.81 3.16645 -2.64215 0
M  V30 17065 H 1643.15 0.319164 -0.582263 0
M  V30 17066 H 1645.68 0.389251 -2.00863 0
M  V30 17067 H 1645.69 2.52215 -3.20705 0
M  V30 17068 H 1644.36 1.56741 -3.85234 0
M  V30 17069 H 1642.94 2.78278 -2.48225 0
M  V30 17070 N 1645.13 1.45684 0.601159 0
M  V30 17071 C 1646.09 1.54451 1.69344 0
M  V30 17072 C 1647.09 0.423379 1.55126 0
M  V30 17073 O 1648.28 0.687079 1.60078 0
M  V30 17074 C 1645.41 1.4472 3.08657 0
M  V30 17075 H 1646.6 2.51778 1.62935 0
M  V30 17076 H 1644.16 1.3322 0.81744 0
M  V30 17077 H 1644.89 0.486027 3.20637 0
M  V30 17078 H 1644.68 2.26045 3.20384 0
M  V30 17079 H 1646.17 1.53902 3.88206 0
M  V30 17080 N 1646.6 -0.84422 1.33082 0
M  V30 17081 C 1647.57 -1.93519 1.22813 0
M  V30 17082 C 1648.57 -1.60113 0.148516 0
M  V30 17083 O 1649.76 -1.69553 0.399668 0
M  V30 17084 C 1646.89 -3.29045 0.891179 0
M  V30 17085 H 1648.08 -2.04051 2.1978 0
M  V30 17086 H 1645.63 -1.03567 1.17063 0
M  V30 17087 H 1646.37 -3.2421 -0.0762276 0
M  V30 17088 H 1646.15 -3.54671 1.67186 0
M  V30 17089 H 1647.64 -4.08984 0.843932 0
M  V30 17090 N 1648.08 -1.16463 -1.0618 0
M  V30 17091 C 1649.04 -0.874674 -2.11854 0
M  V30 17092 C 1650.04 0.130829 -1.60267 0
M  V30 17093 O 1651.23 -0.100195 -1.73912 0
M  V30 17094 C 1648.37 -0.30826 -3.39503 0
M  V30 17095 H 1649.56 -1.81149 -2.39009 0
M  V30 17096 H 1647.11 -0.973721 -1.22264 0
M  V30 17097 H 1647.85 0.636181 -3.17999 0
M  V30 17098 H 1647.63 -1.03281 -3.78253 0
M  V30 17099 H 1649.12 -0.123378 -4.17418 0
M  V30 17100 N 1649.56 1.24734 -0.963288 0
M  V30 17101 C 1650.81 1.92971 -0.623688 0
M  V30 17102 C 1651.14 1.7517 0.838393 0
M  V30 17103 O 1650.41 1.10208 1.60264 0
M  V30 17104 C 1650.7 3.46115 -0.99379 0
M  V30 17105 C 1650.55 3.73104 -2.51224 0
M  V30 17106 C 1651.87 4.36956 -0.525128 0
M  V30 17107 H 1648.99 0.700827 -0.228058 0
M  V30 17108 H 1651.63 1.47187 -1.2015 0
M  V30 17109 H 1649.78 3.85242 -0.502108 0
M  V30 17110 H 1651.45 3.43563 -3.07835 0
M  V30 17111 H 1649.69 3.18409 -2.94616 0
M  V30 17112 H 1650.37 4.80237 -2.7217 0
M  V30 17113 H 1652.84 4.0518 -0.947015 0
M  V30 17114 H 1651.72 5.4285 -0.812695 0
M  V30 17115 H 1651.98 4.38347 0.574843 0
M  V30 17116 N 1651.04 0.732878 1.39523 0
M  V30 17117 C 1652.26 0.288717 2.05381 0
M  V30 17118 C 1652.69 -1.06727 1.5489 0
M  V30 17119 O 1652.05 -1.67585 0.691726 0
M  V30 17120 C 1652.09 0.297738 3.59369 0
M  V30 17121 O 1651.2 -0.715335 4.06149 0
M  V30 17122 H 1650.54 0.131696 0.650809 0
M  V30 17123 H 1653.07 0.998206 1.78597 0
M  V30 17124 H 1653.08 0.141391 4.07755 0
M  V30 17125 H 1651.75 1.28719 3.9548 0
M  V30 17126 H 1650.33 -0.525298 3.69182 0
M  V30 17127 N 1652.52 -1.50101 0.480349 0
M  V30 17128 C 1653.46 -2.28722 -0.308993 0
M  V30 17129 C 1654.43 -1.34186 -0.978948 0
M  V30 17130 O 1655.62 -1.6313 -0.989602 0
M  V30 17131 C 1652.76 -3.16322 -1.37966 0
M  V30 17132 C 1651.87 -4.25898 -0.723552 0
M  V30 17133 C 1651.01 -5.00741 -1.7729 0
M  V30 17134 C 1650.04 -6.0218 -1.09754 0
M  V30 17135 N 1649.18 -6.70266 -2.09015 0
M  V30 17136 H 1654.02 -2.95722 0.367739 0
M  V30 17137 H 1651.56 -1.45826 0.193197 0
M  V30 17138 H 1653.52 -3.65469 -2.01217 0
M  V30 17139 H 1652.15 -2.51349 -2.02543 0
M  V30 17140 H 1651.2 -3.80394 0.0217507 0
M  V30 17141 H 1652.51 -4.98435 -0.190905 0
M  V30 17142 H 1651.66 -5.53653 -2.48098 0
M  V30 17143 H 1650.4 -4.27931 -2.33937 0
M  V30 17144 H 1649.41 -5.48519 -0.375123 0
M  V30 17145 H 1650.63 -6.76967 -0.537841 0
M  V30 17146 H 1648.58 -6.00242 -2.64662 0
M  V30 17147 H 1648.5 -7.3871 -1.6076 0
M  V30 17148 H 1649.76 -7.27792 -2.79175 0
M  V30 17149 N 1653.99 -0.213323 -1.5615 0
M  V30 17150 C 1654.9 0.711703 -2.23544 0
M  V30 17151 C 1655.92 1.22027 -1.24038 0
M  V30 17152 O 1657.1 1.26361 -1.56828 0
M  V30 17153 C 1654.16 1.90645 -2.89578 0
M  V30 17154 C 1653.22 1.44066 -4.04405 0
M  V30 17155 C 1652.45 2.57846 -4.6728 0
M  V30 17156 O 1652.68 3.75781 -4.29121 0
M  V30 17157 O 1651.61 2.29518 -5.56422 0
M  V30 17158 H 1655.44 0.167635 -3.03237 0
M  V30 17159 H 1653.02 0.016771 -1.49391 0
M  V30 17160 H 1654.9 2.60435 -3.31288 0
M  V30 17161 H 1653.58 2.43877 -2.12851 0
M  V30 17162 H 1652.49 0.711024 -3.67281 0
M  V30 17163 H 1653.82 0.954809 -4.8285 0
M  V30 17164 N 1655.47 1.57485 0.0601405 0
M  V30 17165 C 1656.42 2.00939 1.07739 0
M  V30 17166 C 1657.41 0.893348 1.33821 0
M  V30 17167 O 1658.6 1.15727 1.33927 0
M  V30 17168 C 1655.73 2.46657 2.38778 0
M  V30 17169 C 1654.81 3.65019 2.1592 0
M  V30 17170 N 1655.2 4.78807 1.63025 0
M  V30 17171 C 1653.5 3.71794 2.46344 0
M  V30 17172 C 1654.2 5.60599 1.55253 0
M  V30 17173 N 1653.18 5.04788 2.01718 0
M  V30 17174 H 1656.98 2.86349 0.661923 0
M  V30 17175 H 1654.5 1.6019 0.267017 0
M  V30 17176 H 1656.49 2.76032 3.12429 0
M  V30 17177 H 1655.15 1.62639 2.81031 0
M  V30 17178 H 1656.16 5.00868 1.31725 0
M  V30 17179 H 1652.84 2.98513 2.91884 0
M  V30 17180 H 1654.23 6.61966 1.1511 0
M  V30 17181 N 1656.95 -0.331789 1.54068 0
M  V30 17182 C 1658.36 -0.906719 1.63204 0
M  V30 17183 C 1658.71 -1.89161 0.520837 0
M  V30 17184 O 1657.84 -2.1359 -0.347577 0
M  V30 17185 C 1658.43 -1.65132 2.95832 0
M  V30 17186 C 1656.99 -2.17509 3.07192 0
M  V30 17187 C 1656.14 -0.99788 2.58723 0
M  V30 17188 H 1659.09 -0.109595 1.58321 0
M  V30 17189 H 1659.11 -2.515 2.85531 0
M  V30 17190 H 1658.62 -0.934255 3.76687 0
M  V30 17191 H 1656.72 -2.92356 2.30995 0
M  V30 17192 H 1656.84 -2.43074 4.12858 0
M  V30 17193 H 1655.2 -1.37469 2.14417 0
M  V30 17194 H 1655.98 -0.295261 3.42028 0
M  V30 17195 N 1658.43 -1.46001 -0.593424 0
M  V30 17196 C 1659.67 -1.50978 -1.35401 0
M  V30 17197 C 1660.01 -0.156626 -1.93567 0
M  V30 17198 O 1659.28 0.83067 -1.7587 0
M  V30 17199 C 1659.57 -2.60005 -2.49137 0
M  V30 17200 C 1659.42 -4.04814 -1.96075 0
M  V30 17201 C 1660.74 -2.65199 -3.51223 0
M  V30 17202 H 1657.86 -0.549657 -0.490965 0
M  V30 17203 H 1660.5 -1.77883 -0.667644 0
M  V30 17204 H 1658.65 -2.37194 -3.07687 0
M  V30 17205 H 1660.32 -4.38879 -1.42066 0
M  V30 17206 H 1658.56 -4.148 -1.26976 0
M  V30 17207 H 1659.23 -4.76811 -2.78128 0
M  V30 17208 H 1661.71 -2.85675 -3.02537 0
M  V30 17209 H 1660.59 -3.43323 -4.28276 0
M  V30 17210 H 1660.85 -1.70833 -4.0776 0
M  V30 17211 N 1659.91 0.83715 -1.33527 0
M  V30 17212 C 1661.15 1.59487 -1.25267 0
M  V30 17213 C 1661.49 1.93357 0.180741 0
M  V30 17214 O 1660.76 1.5884 1.12251 0
M  V30 17215 C 1661.04 2.90376 -2.12964 0
M  V30 17216 C 1660.9 2.63177 -3.64771 0
M  V30 17217 C 1662.22 3.9182 -2.00412 0
M  V30 17218 H 1659.33 0.578684 -0.456392 0
M  V30 17219 H 1661.98 0.965428 -1.63644 0
M  V30 17220 H 1660.13 3.44095 -1.80364 0
M  V30 17221 H 1661.8 2.15878 -4.0767 0
M  V30 17222 H 1660.04 1.96849 -3.86566 0
M  V30 17223 H 1660.71 3.56452 -4.21481 0
M  V30 17224 H 1663.19 3.47413 -2.29005 0
M  V30 17225 H 1662.06 4.81232 -2.64021 0
M  V30 17226 H 1662.33 4.31173 -0.976852 0
M  V30 17227 N 1661.38 1.17024 1.05561 0
M  V30 17228 C 1662.63 0.950769 1.77886 0
M  V30 17229 C 1662.95 -0.522005 1.88506 0
M  V30 17230 O 1664.15 -0.859582 2.57533 0
M  V30 17231 C 1662.61 1.65189 3.19751 0
M  V30 17232 C 1662.22 3.16294 3.17273 0
M  V30 17233 C 1663.96 1.51466 3.96558 0
M  V30 17234 C 1661.87 3.79111 4.53904 0
M  V30 17235 H 1660.8 0.352089 0.666745 0
M  V30 17236 H 1663.45 1.40237 1.18346 0
M  V30 17237 H 1661.83 1.12801 3.79594 0
M  V30 17238 H 1663 3.75585 2.66969 0
M  V30 17239 H 1661.32 3.29986 2.53966 0
M  V30 17240 H 1663.92 1.95772 4.97571 0
M  V30 17241 H 1664.26 0.46467 4.13699 0
M  V30 17242 H 1664.79 2.0105 3.43254 0
M  V30 17243 H 1661.53 4.84091 4.41969 0
M  V30 17244 H 1661.05 3.24606 5.04372 0
M  V30 17245 H 1662.73 3.81099 5.2285 0
M  V30 17246 N 1662.86 -1.24221 0.969889 0
M  V30 17247 C 1664.09 -1.96943 0.650262 0
M  V30 17248 C 1664.51 -1.71437 -0.774018 0
M  V30 17249 O 1663.87 -0.979428 -1.52568 0
M  V30 17250 C 1663.92 -3.48303 0.933682 0
M  V30 17251 O 1663.02 -4.12395 0.0202425 0
M  V30 17252 H 1662.36 -0.616902 0.245618 0
M  V30 17253 H 1664.89 -1.57939 1.30063 0
M  V30 17254 H 1664.9 -3.98701 0.866106 0
M  V30 17255 H 1663.58 -3.66194 1.97166 0
M  V30 17256 H 1662.16 -3.72632 0.141327 0
M  V30 17257 N 1664.34 -0.740267 -1.39132 0
M  V30 17258 C 1665.29 -0.103744 -2.30567 0
M  V30 17259 C 1666.26 0.724026 -1.49489 0
M  V30 17260 O 1667.44 0.682904 -1.7816 0
M  V30 17261 C 1664.58 0.793587 -3.35851 0
M  V30 17262 C 1663.7 -0.0473671 -4.31974 0
M  V30 17263 C 1662.83 0.851726 -5.24327 0
M  V30 17264 C 1661.87 0.00633633 -6.121 0
M  V30 17265 N 1661.01 0.861652 -6.96793 0
M  V30 17266 H 1665.85 -0.889087 -2.84428 0
M  V30 17267 H 1663.38 -0.450093 -1.40045 0
M  V30 17268 H 1665.34 1.32834 -3.95488 0
M  V30 17269 H 1663.97 1.54485 -2.83433 0
M  V30 17270 H 1663.02 -0.699601 -3.73911 0
M  V30 17271 H 1664.34 -0.700806 -4.93852 0
M  V30 17272 H 1663.49 1.45413 -5.89016 0
M  V30 17273 H 1662.23 1.53893 -4.62783 0
M  V30 17274 H 1661.23 -0.608833 -5.46419 0
M  V30 17275 H 1662.46 -0.677731 -6.7571 0
M  V30 17276 H 1660.4 1.53405 -6.37811 0
M  V30 17277 H 1660.32 0.264812 -7.55536 0
M  V30 17278 H 1661.59 1.44945 -7.65905 0
M  V30 17279 N 1665.82 1.49844 -0.488302 0
M  V30 17280 C 1667.07 2.02409 0.0606981 0
M  V30 17281 C 1667.39 1.36901 1.38161 0
M  V30 17282 O 1666.65 0.48951 1.89479 0
M  V30 17283 C 1666.95 3.56342 0.274851 0
M  V30 17284 C 1666.61 4.4042 -0.966481 0
M  V30 17285 C 1665.28 4.63116 -1.30678 0
M  V30 17286 C 1667.63 4.89418 -1.79218 0
M  V30 17287 C 1664.96 5.32055 -2.47253 0
M  V30 17288 C 1667.31 5.59639 -2.94935 0
M  V30 17289 C 1665.97 5.80584 -3.2936 0
M  V30 17290 H 1665.24 0.740667 0.022211 0
M  V30 17291 H 1667.89 1.80279 -0.645882 0
M  V30 17292 H 1666.19 3.7708 1.06384 0
M  V30 17293 H 1667.89 3.94594 0.71388 0
M  V30 17294 H 1664.48 4.22987 -0.691388 0
M  V30 17295 H 1668.66 4.71723 -1.54244 0
M  V30 17296 H 1663.92 5.46477 -2.74177 0
M  V30 17297 H 1668.09 5.96583 -3.59251 0
M  V30 17298 H 1665.72 6.33779 -4.19795 0
M  V30 17299 N 1667.3 0.221601 1.56034 0
M  V30 17300 C 1668.55 -0.410442 1.9748 0
M  V30 17301 C 1668.86 -1.60895 1.1123 0
M  V30 17302 O 1670.06 -2.31052 1.42574 0
M  V30 17303 C 1668.52 -0.781624 3.5131 0
M  V30 17304 C 1668.13 0.394077 4.46263 0
M  V30 17305 C 1669.87 -1.37927 4.01468 0
M  V30 17306 C 1667.78 0.000458181 5.914 0
M  V30 17307 H 1666.71 -0.157122 0.737447 0
M  V30 17308 H 1669.36 0.317821 1.80727 0
M  V30 17309 H 1667.74 -1.56731 3.63664 0
M  V30 17310 H 1668.92 1.17161 4.45657 0
M  V30 17311 H 1667.23 0.904959 4.06447 0
M  V30 17312 H 1669.83 -1.68667 5.07401 0
M  V30 17313 H 1670.17 -2.29507 3.47322 0
M  V30 17314 H 1670.7 -0.657015 3.92337 0
M  V30 17315 H 1667.44 0.882743 6.49529 0
M  V30 17316 H 1666.96 -0.741386 5.952 0
M  V30 17317 H 1668.64 -0.42621 6.45595 0
M  V30 17318 N 1668.77 -1.57515 -0.0517878 0
M  V30 17319 C 1669.71 -2.01812 -1.08649 0
M  V30 17320 C 1670.72 -0.92719 -1.33817 0
M  V30 17321 O 1671.91 -1.20483 -1.31705 0
M  V30 17322 C 1669.01 -2.35903 -2.43316 0
M  V30 17323 C 1668.18 -3.67095 -2.37824 0
M  V30 17324 C 1667.24 -3.8863 -3.54758 0
M  V30 17325 O 1666.27 -4.59974 -3.3528 0
M  V30 17326 N 1667.47 -3.32516 -4.75829 0
M  V30 17327 H 1670.23 -2.91191 -0.709094 0
M  V30 17328 H 1667.79 -1.60109 -0.240125 0
M  V30 17329 H 1669.79 -2.47466 -3.20223 0
M  V30 17330 H 1668.36 -1.52312 -2.72983 0
M  V30 17331 H 1667.58 -3.66099 -1.46168 0
M  V30 17332 H 1668.86 -4.53199 -2.31275 0
M  V30 17333 H 1668.26 -2.74645 -4.94557 0
M  V30 17334 H 1666.82 -3.49496 -5.50178 0
M  V30 17335 N 1670.25 0.323614 -1.54242 0
M  V30 17336 C 1671.16 1.42128 -1.86646 0
M  V30 17337 C 1672.18 1.56603 -0.758385 0
M  V30 17338 O 1673.36 1.717 -1.05267 0
M  V30 17339 C 1670.42 2.76842 -2.08709 0
M  V30 17340 C 1669.48 2.71543 -3.3251 0
M  V30 17341 C 1668.71 3.99833 -3.5351 0
M  V30 17342 O 1668.94 4.98095 -2.77952 0
M  V30 17343 O 1667.87 4.03095 -4.46988 0
M  V30 17344 H 1671.7 1.17653 -2.79985 0
M  V30 17345 H 1669.28 0.517632 -1.40146 0
M  V30 17346 H 1671.16 3.56588 -2.24551 0
M  V30 17347 H 1669.84 3.01207 -1.18558 0
M  V30 17348 H 1668.75 1.90348 -3.22053 0
M  V30 17349 H 1670.08 2.52133 -4.22717 0
M  V30 17350 N 1671.73 1.46313 0.585673 0
M  V30 17351 C 1672.69 1.56239 1.67696 0
M  V30 17352 C 1673.69 0.439808 1.54668 0
M  V30 17353 O 1674.88 0.704019 1.5934 0
M  V30 17354 C 1672.02 1.47986 3.07104 0
M  V30 17355 H 1673.21 2.53492 1.60255 0
M  V30 17356 H 1670.76 1.3408 0.803264 0
M  V30 17357 H 1671.5 0.520007 3.20104 0
M  V30 17358 H 1671.28 2.2943 3.17969 0
M  V30 17359 H 1672.77 1.5801 3.86552 0
M  V30 17360 N 1673.21 -0.830057 1.33969 0
M  V30 17361 C 1674.16 -1.94049 1.24955 0
M  V30 17362 C 1675.13 -1.65619 0.126279 0
M  V30 17363 O 1676.31 -1.88329 0.306049 0
M  V30 17364 C 1673.45 -3.30182 1.00367 0
M  V30 17365 C 1672.56 -3.70952 2.21402 0
M  V30 17366 C 1671.7 -4.95998 1.90157 0
M  V30 17367 C 1670.74 -5.29327 3.07374 0
M  V30 17368 N 1669.88 -6.45551 2.76059 0
M  V30 17369 H 1674.72 -2.01091 2.19923 0
M  V30 17370 H 1672.25 -0.983918 1.0935 0
M  V30 17371 H 1674.21 -4.08625 0.841516 0
M  V30 17372 H 1672.84 -3.22673 0.090692 0
M  V30 17373 H 1671.89 -2.8796 2.48563 0
M  V30 17374 H 1673.2 -3.91558 3.09004 0
M  V30 17375 H 1672.36 -5.8221 1.70636 0
M  V30 17376 H 1671.1 -4.77379 0.998045 0
M  V30 17377 H 1670.1 -4.41616 3.27499 0
M  V30 17378 H 1671.33 -5.4989 3.98495 0
M  V30 17379 H 1669.27 -6.28401 1.88275 0
M  V30 17380 H 1669.19 -6.66295 3.57193 0
M  V30 17381 H 1670.46 -7.34851 2.60026 0
M  V30 17382 N 1674.69 -1.17582 -1.04939 0
M  V30 17383 C 1675.6 -0.909588 -2.16249 0
M  V30 17384 C 1676.61 0.123166 -1.73564 0
M  V30 17385 O 1677.79 -0.0566976 -2.0132 0
M  V30 17386 C 1674.85 -0.429342 -3.44031 0
M  V30 17387 C 1673.92 -1.529 -4.01149 0
M  V30 17388 C 1673.15 -1.07157 -5.22832 0
M  V30 17389 O 1673.37 0.0732634 -5.70353 0
M  V30 17390 O 1672.31 -1.86567 -5.72255 0
M  V30 17391 H 1676.13 -1.84074 -2.41558 0
M  V30 17392 H 1673.72 -0.956914 -1.14732 0
M  V30 17393 H 1675.6 -0.16917 -4.2106 0
M  V30 17394 H 1674.27 0.473629 -3.20216 0
M  V30 17395 H 1673.18 -1.84308 -3.25548 0
M  V30 17396 H 1674.51 -2.40777 -4.29287 0
M  V30 17397 N 1676.17 1.23705 -0.976463 0
M  V30 17398 C 1677.41 1.9132 -0.638714 0
M  V30 17399 C 1677.73 1.7707 0.830993 0
M  V30 17400 O 1678.93 2.39453 1.27964 0
M  V30 17401 C 1677.39 3.42941 -1.09178 0
M  V30 17402 C 1677 3.6586 -2.58555 0
M  V30 17403 C 1678.74 4.16355 -0.827585 0
M  V30 17404 C 1676.65 5.11096 -2.97549 0
M  V30 17405 H 1675.58 0.716382 -0.235187 0
M  V30 17406 H 1678.23 1.40205 -1.18384 0
M  V30 17407 H 1676.61 3.93142 -0.474893 0
M  V30 17408 H 1677.79 3.26221 -3.25448 0
M  V30 17409 H 1676.1 3.05748 -2.82678 0
M  V30 17410 H 1678.7 5.23372 -1.09482 0
M  V30 17411 H 1679.04 4.15629 0.236282 0
M  V30 17412 H 1679.57 3.7213 -1.40586 0
M  V30 17413 H 1676.31 5.1695 -4.03042 0
M  V30 17414 H 1675.83 5.51699 -2.35346 0
M  V30 17415 H 1677.51 5.79397 -2.87937 0
M  V30 17416 N 1677.64 0.747635 1.38738 0
M  V30 17417 C 1678.92 0.226908 1.94279 0
M  V30 17418 C 1679.3 -1.27373 1.68343 0
M  V30 17419 O 1678.65 -2.04538 1.01865 0
M  V30 17420 C 1678.86 0.574164 3.44245 0
M  V30 17421 C 1680.21 0.530498 4.21273 0
M  V30 17422 O 1681.23 0.512102 3.525 0
M  V30 17423 O 1680.09 0.536171 5.43863 0
M  V30 17424 H 1677.18 0.0456834 0.825737 0
M  V30 17425 H 1679.73 0.827353 1.48165 0
M  V30 17426 H 1678.5 1.6108 3.56607 0
M  V30 17427 H 1678.12 -0.0545964 3.97563 0
M  V30 17428 N 1679.12 -1.49583 0.496242 0
M  V30 17429 C 1680.37 -2.02738 -0.050037 0
M  V30 17430 C 1680.7 -1.37556 -1.37083 0
M  V30 17431 O 1679.98 -0.50964 -1.87704 0
M  V30 17432 C 1680.26 -3.59501 -0.207575 0
M  V30 17433 C 1680.11 -4.35218 1.13601 0
M  V30 17434 C 1681.43 -4.29715 -0.950443 0
M  V30 17435 H 1678.55 -0.736811 -0.0167105 0
M  V30 17436 H 1681.19 -1.78654 0.646728 0
M  V30 17437 H 1679.34 -3.80152 -0.801033 0
M  V30 17438 H 1681.01 -4.26075 1.76798 0
M  V30 17439 H 1679.26 -3.97964 1.72648 0
M  V30 17440 H 1679.93 -5.43247 0.979142 0
M  V30 17441 H 1682.4 -4.1369 -0.447173 0
M  V30 17442 H 1681.28 -5.39159 -1.02951 0
M  V30 17443 H 1681.54 -3.94627 -1.99304 0
M  V30 17444 N 1680.6 -0.229873 -1.55915 0
M  V30 17445 C 1681.88 0.449007 -1.90377 0
M  V30 17446 C 1682.26 1.77133 -1.14835 0
M  V30 17447 O 1681.6 2.27012 -0.260328 0
M  V30 17448 C 1681.81 0.633805 -3.43197 0
M  V30 17449 C 1683.16 0.937453 -4.14122 0
M  V30 17450 O 1684.19 0.72029 -3.48841 0
M  V30 17451 O 1683.05 1.35005 -5.29562 0
M  V30 17452 H 1680.14 0.238557 -0.791846 0
M  V30 17453 H 1682.69 -0.272676 -1.67495 0
M  V30 17454 H 1681.46 -0.298587 -3.90159 0
M  V30 17455 H 1681.08 1.40667 -3.71885 0
M  V30 17456 N 1682.08 1.5754 0.0434337 0
M  V30 17457 C 1683.04 2.046 1.03303 0
M  V30 17458 C 1684.04 0.947648 1.29909 0
M  V30 17459 O 1685.23 1.21171 1.25153 0
M  V30 17460 C 1682.36 2.45077 2.36961 0
M  V30 17461 H 1683.56 2.93276 0.626822 0
M  V30 17462 H 1681.11 1.53588 0.289909 0
M  V30 17463 H 1681.84 1.59513 2.82358 0
M  V30 17464 H 1681.63 3.25252 2.18983 0
M  V30 17465 H 1683.12 2.81963 3.08037 0
M  V30 17466 N 1683.56 -0.31543 1.54411 0
M  V30 17467 C 1684.8 -1.05396 1.73261 0
M  V30 17468 C 1685.13 -1.87406 0.509171 0
M  V30 17469 O 1684.41 -1.88126 -0.493836 0
M  V30 17470 C 1684.69 -1.97195 3.01308 0
M  V30 17471 C 1684.55 -1.18461 4.33921 0
M  V30 17472 C 1685.86 -2.96594 3.25146 0
M  V30 17473 H 1682.98 -0.381763 0.630417 0
M  V30 17474 H 1685.63 -0.329882 1.87114 0
M  V30 17475 H 1683.78 -2.58936 2.89628 0
M  V30 17476 H 1685.45 -0.591171 4.57496 0
M  V30 17477 H 1683.69 -0.487025 4.31057 0
M  V30 17478 H 1684.36 -1.85909 5.19752 0
M  V30 17479 H 1686.84 -2.44977 3.36341 0
M  V30 17480 H 1685.71 -3.58002 4.16084 0
M  V30 17481 H 1685.97 -3.69487 2.42758 0
M  V30 17482 N 1685.03 -1.46622 -0.577906 0
M  V30 17483 C 1686 -1.57126 -1.66865 0
M  V30 17484 C 1687 -0.448004 -1.54433 0
M  V30 17485 O 1688.19 -0.712459 -1.58964 0
M  V30 17486 C 1685.32 -1.49612 -3.06315 0
M  V30 17487 H 1686.51 -2.54338 -1.58909 0
M  V30 17488 H 1684.07 -1.34504 -0.796142 0
M  V30 17489 H 1684.8 -0.536976 -3.19823 0
M  V30 17490 H 1684.59 -2.31113 -3.16748 0
M  V30 17491 H 1686.08 -1.60058 -3.85709 0
M  V30 17492 N 1686.51 0.822941 -1.34408 0
M  V30 17493 C 1687.74 1.61607 -1.29992 0
M  V30 17494 C 1688.16 1.87695 0.123301 0
M  V30 17495 O 1687.52 1.45247 1.08504 0
M  V30 17496 C 1687.57 2.934 -2.09639 0
M  V30 17497 O 1686.67 3.85467 -1.4659 0
M  V30 17498 H 1686.01 0.491504 -0.446452 0
M  V30 17499 H 1688.54 1.02264 -1.7721 0
M  V30 17500 H 1688.55 3.42966 -2.20994 0
M  V30 17501 H 1687.23 2.73736 -3.13116 0
M  V30 17502 H 1685.81 3.43984 -1.43978 0
M  V30 17503 N 1687.99 1.18137 1.04314 0
M  V30 17504 C 1689.27 0.884901 1.74439 0
M  V30 17505 C 1689.65 -0.612825 2.02009 0
M  V30 17506 O 1689 -1.56679 1.66325 0
M  V30 17507 C 1689.21 1.72944 3.03136 0
M  V30 17508 C 1690.55 1.95491 3.7692 0
M  V30 17509 O 1691.58 1.69976 3.13028 0
M  V30 17510 O 1690.44 2.38426 4.91747 0
M  V30 17511 H 1687.53 0.328481 0.758966 0
M  V30 17512 H 1690.08 1.28878 1.10402 0
M  V30 17513 H 1688.85 2.74485 2.78879 0
M  V30 17514 H 1688.47 1.32392 3.74911 0
M  V30 17515 N 1689.47 -1.23186 0.98301 0
M  V30 17516 C 1690.72 -1.91292 0.652051 0
M  V30 17517 C 1691.04 -1.77046 -0.8173 0
M  V30 17518 O 1690.31 -1.15146 -1.58487 0
M  V30 17519 H 1688.89 -0.708011 0.23818 0
M  V30 17520 H 1691.55 -1.49754 1.24739 0
M  V30 17521 H 1690.65 -2.98662 0.905951 0
M  V30 17522 N 1690.95 -0.754982 -1.38339 0
M  V30 17523 C 1692.19 -0.312224 -2.00382 0
M  V30 17524 C 1692.53 1.10362 -1.59793 0
M  V30 17525 O 1691.8 1.75611 -0.83613 0
M  V30 17526 C 1692.08 -0.436701 -3.57442 0
M  V30 17527 C 1691.94 -1.89376 -4.07991 0
M  V30 17528 C 1693.26 0.169083 -4.39775 0
M  V30 17529 H 1690.37 -0.114922 -0.727985 0
M  V30 17530 H 1693.02 -0.954887 -1.64262 0
M  V30 17531 H 1691.17 0.11043 -3.88343 0
M  V30 17532 H 1692.84 -2.4993 -3.87728 0
M  V30 17533 H 1691.08 -2.40834 -3.60807 0
M  V30 17534 H 1691.75 -1.932 -5.17086 0
M  V30 17535 H 1694.23 -0.297554 -4.15035 0
M  V30 17536 H 1693.1 0.0517531 -5.48876 0
M  V30 17537 H 1693.37 1.25754 -4.23838 0
M  V30 17538 N 1692.42 1.49318 -0.504168 0
M  V30 17539 C 1693.67 2.02762 0.0392846 0
M  V30 17540 C 1694 1.38282 1.36352 0
M  V30 17541 O 1693.28 0.519587 1.87431 0
M  V30 17542 C 1693.56 3.59606 0.188507 0
M  V30 17543 C 1693.41 4.3461 -1.15908 0
M  V30 17544 C 1694.73 4.30213 0.927641 0
M  V30 17545 H 1691.85 0.736889 0.0128028 0
M  V30 17546 H 1694.49 1.78309 -0.656193 0
M  V30 17547 H 1692.64 3.80572 0.780861 0
M  V30 17548 H 1694.32 4.25132 -1.79055 0
M  V30 17549 H 1692.56 3.97043 -1.74756 0
M  V30 17550 H 1693.23 5.4272 -1.00794 0
M  V30 17551 H 1695.71 4.13922 0.425228 0
M  V30 17552 H 1694.58 5.39697 1.0009 0
M  V30 17553 H 1694.84 3.95678 1.97209 0
M  V30 17554 N 1693.9 0.238138 1.5579 0
M  V30 17555 C 1694.87 -0.651703 2.1974 0
M  V30 17556 C 1695.87 -1.10932 1.16408 0
M  V30 17557 O 1697.06 -1.01544 1.41543 0
M  V30 17558 C 1694.19 -1.8947 2.83397 0
M  V30 17559 H 1695.38 -0.0939013 2.99753 0
M  V30 17560 H 1692.93 -0.0114348 1.56296 0
M  V30 17561 H 1693.67 -2.49395 2.07298 0
M  V30 17562 H 1693.45 -1.57486 3.59083 0
M  V30 17563 H 1694.94 -2.52831 3.32365 0
M  V30 17564 N 1695.38 -1.57561 -0.0350783 0
M  V30 17565 C 1696.34 -2.05145 -1.02217 0
M  V30 17566 C 1697.34 -0.954524 -1.29404 0
M  V30 17567 O 1698.53 -1.21833 -1.24509 0
M  V30 17568 C 1695.67 -2.4633 -2.35658 0
M  V30 17569 H 1696.86 -2.93605 -0.61126 0
M  V30 17570 H 1694.41 -1.53739 -0.28176 0
M  V30 17571 H 1695.15 -1.61008 -2.81508 0
M  V30 17572 H 1694.93 -3.26408 -2.17256 0
M  V30 17573 H 1696.42 -2.83592 -3.06537 0
M  V30 17574 N 1696.86 0.307236 -1.54576 0
M  V30 17575 C 1698.11 1.04082 -1.72771 0
M  V30 17576 C 1698.42 1.88639 -0.517188 0
M  V30 17577 O 1699.63 2.65215 -0.580811 0
M  V30 17578 C 1698.08 1.90015 -3.05651 0
M  V30 17579 C 1697.69 1.10491 -4.34161 0
M  V30 17580 C 1699.43 2.6301 -3.33205 0
M  V30 17581 C 1697.34 1.95664 -5.58094 0
M  V30 17582 H 1696.27 0.392307 -0.643903 0
M  V30 17583 H 1698.92 0.29815 -1.81062 0
M  V30 17584 H 1697.3 2.68245 -2.91309 0
M  V30 17585 H 1698.48 0.369181 -4.59319 0
M  V30 17586 H 1696.79 0.491053 -4.13494 0
M  V30 17587 H 1699.39 3.27074 -4.22997 0
M  V30 17588 H 1699.73 3.31512 -2.51804 0
M  V30 17589 H 1700.27 1.91833 -3.4849 0
M  V30 17590 H 1697.01 1.31643 -6.42145 0
M  V30 17591 H 1696.53 2.66927 -5.37131 0
M  V30 17592 H 1698.2 2.53861 -5.95116 0
M  V30 17593 N 1698.34 1.46926 0.570122 0
M  V30 17594 C 1699.3 1.58009 1.6603 0
M  V30 17595 C 1700.3 0.456188 1.54193 0
M  V30 17596 O 1701.49 0.720879 1.58584 0
M  V30 17597 C 1698.62 1.51235 3.05517 0
M  V30 17598 H 1699.81 2.55178 1.57558 0
M  V30 17599 H 1697.37 1.34924 0.788998 0
M  V30 17600 H 1698.1 0.553929 3.19534 0
M  V30 17601 H 1697.89 2.3279 3.15518 0
M  V30 17602 H 1699.38 1.62101 3.84854 0
M  V30 17603 N 1699.82 -0.815801 1.34842 0
M  V30 17604 C 1701.06 -1.56747 1.26938 0
M  V30 17605 C 1701.38 -1.9497 -0.156887 0
M  V30 17606 O 1702.58 -2.69128 -0.358132 0
M  V30 17607 C 1701.04 -2.82832 2.22562 0
M  V30 17608 C 1700.65 -2.51883 3.70485 0
M  V30 17609 C 1702.39 -3.60849 2.23581 0
M  V30 17610 C 1700.3 -3.74204 4.57957 0
M  V30 17611 H 1699.23 -0.58832 0.471588 0
M  V30 17612 H 1701.88 -0.897551 1.60051 0
M  V30 17613 H 1700.26 -3.51486 1.8241 0
M  V30 17614 H 1701.44 -1.91294 4.19217 0
M  V30 17615 H 1699.75 -1.87129 3.71983 0
M  V30 17616 H 1702.35 -4.51686 2.86154 0
M  V30 17617 H 1702.69 -3.97496 1.23703 0
M  V30 17618 H 1703.22 -2.99146 2.62215 0
M  V30 17619 H 1699.96 -3.42672 5.58799 0
M  V30 17620 H 1699.48 -4.34051 4.13956 0
M  V30 17621 H 1701.16 -4.41536 4.72921 0
M  V30 17622 N 1701.29 -1.18689 -1.03686 0
M  V30 17623 C 1702.52 -1.01024 -1.81132 0
M  V30 17624 C 1702.94 0.436584 -1.82963 0
M  V30 17625 O 1702.3 1.31343 -1.24975 0
M  V30 17626 C 1702.35 -1.5742 -3.24424 0
M  V30 17627 O 1701.45 -0.79813 -4.04603 0
M  V30 17628 H 1700.79 -0.357623 -0.559465 0
M  V30 17629 H 1703.32 -1.57532 -1.30556 0
M  V30 17630 H 1703.33 -1.60295 -3.75193 0
M  V30 17631 H 1702.01 -2.6273 -3.22406 0
M  V30 17632 H 1700.59 -0.842 -3.6327 0
M  V30 17633 N 1702.77 1.22662 -0.989529 0
M  V30 17634 C 1703.68 2.28162 -0.545835 0
M  V30 17635 C 1704.7 1.69251 0.403762 0
M  V30 17636 O 1705.87 1.99563 0.271428 0
M  V30 17637 C 1702.94 3.46434 0.135808 0
M  V30 17638 C 1702 4.20673 -0.85633 0
M  V30 17639 C 1701.23 5.33298 -0.207121 0
M  V30 17640 O 1701.46 5.6157 0.99975 0
M  V30 17641 O 1700.39 5.94977 -0.910288 0
M  V30 17642 H 1704.22 2.68276 -1.42344 0
M  V30 17643 H 1701.8 1.28766 -0.757609 0
M  V30 17644 H 1703.68 4.18207 0.517776 0
M  V30 17645 H 1702.36 3.08252 0.988035 0
M  V30 17646 H 1701.26 3.51186 -1.28917 0
M  V30 17647 H 1702.6 4.62726 -1.67765 0
M  V30 17648 N 1704.25 0.762308 1.37937 0
M  V30 17649 C 1705.2 0.115944 2.27705 0
M  V30 17650 C 1706.18 -0.684063 1.45634 0
M  V30 17651 O 1707.38 -0.548586 1.68284 0
M  V30 17652 C 1704.5 -0.76969 3.3456 0
M  V30 17653 C 1703.59 0.0376368 4.24083 0
M  V30 17654 N 1703.98 1.07849 4.94168 0
M  V30 17655 C 1702.28 -0.187824 4.45604 0
M  V30 17656 C 1702.98 1.56769 5.60177 0
M  V30 17657 N 1701.96 0.881477 5.36406 0
M  V30 17658 H 1705.76 0.912994 2.79359 0
M  V30 17659 H 1703.27 0.599168 1.50943 0
M  V30 17660 H 1705.27 -1.24844 3.97768 0
M  V30 17661 H 1703.93 -1.56559 2.84463 0
M  V30 17662 H 1704.94 1.46046 4.96881 0
M  V30 17663 H 1701.62 -0.95638 4.06398 0
M  V30 17664 H 1703.01 2.43517 6.26218 0
M  V30 17665 N 1705.73 -1.49049 0.51208 0
M  V30 17666 C 1706.97 -2.0278 -0.0285311 0
M  V30 17667 C 1707.31 -1.39003 -1.35617 0
M  V30 17668 O 1706.58 -0.52952 -1.87153 0
M  V30 17669 C 1706.86 -3.59701 -0.169433 0
M  V30 17670 C 1706.72 -4.33989 1.18211 0
M  V30 17671 C 1708.04 -4.30698 -0.904812 0
M  V30 17672 H 1705.16 -0.736946 -0.00889467 0
M  V30 17673 H 1707.8 -1.77959 0.66564 0
M  V30 17674 H 1705.95 -3.8098 -0.760667 0
M  V30 17675 H 1707.62 -4.24176 1.81307 0
M  V30 17676 H 1705.86 -3.9611 1.76859 0
M  V30 17677 H 1706.53 -5.42177 1.03671 0
M  V30 17678 H 1709.01 -4.14141 -0.40327 0
M  V30 17679 H 1707.89 -5.40221 -0.972264 0
M  V30 17680 H 1708.15 -3.96718 -1.95108 0
M  V30 17681 N 1707.21 -0.246397 -1.55662 0
M  V30 17682 C 1708.12 0.664125 -2.25003 0
M  V30 17683 C 1709.13 1.19368 -1.26598 0
M  V30 17684 O 1710.31 1.23006 -1.59473 0
M  V30 17685 C 1707.37 1.8446 -2.93557 0
M  V30 17686 C 1706.43 1.35456 -4.0737 0
M  V30 17687 C 1705.67 2.47877 -4.72645 0
M  V30 17688 O 1705.89 3.66594 -4.36995 0
M  V30 17689 O 1704.82 2.17663 -5.61165 0
M  V30 17690 H 1708.65 0.103277 -3.03524 0
M  V30 17691 H 1706.23 -0.0149207 -1.49393 0
M  V30 17692 H 1708.12 2.53349 -3.36737 0
M  V30 17693 H 1706.79 2.39308 -2.17976 0
M  V30 17694 H 1705.7 0.632958 -3.68706 0
M  V30 17695 H 1707.03 0.852175 -4.84767 0
M  V30 17696 N 1708.68 1.57577 0.026722 0
M  V30 17697 C 1709.63 2.07803 1.04502 0
M  V30 17698 C 1710.63 0.992308 1.37294 0
M  V30 17699 O 1711.83 1.17717 1.36171 0
M  V30 17700 H 1708.21 0.663176 0.354545 0
M  V30 17701 H 1710.18 2.92395 0.595626 0
M  V30 17702 C 1708.93 2.57478 2.33667 0
M  V30 17703 H 1708.25 3.40639 2.09296 0
M  V30 17704 H 1709.69 2.96328 3.03258 0
M  V30 17705 C 1708.15 1.47704 3.02796 0
M  V30 17706 O 1708.68 0.844611 3.9272 0
M  V30 17707 N 1706.88 1.211 2.64165 0
M  V30 17708 H 1706.43 1.72713 1.91123 0
M  V30 17709 H 1706.39 0.47866 3.10735 0
M  V30 17710 N 1710.16 -0.299034 1.54737 0
M  V30 17711 C 1711.12 -1.35199 1.85078 0
M  V30 17712 C 1712.12 -1.4359 0.723788 0
M  V30 17713 O 1713.31 -1.43191 0.992067 0
M  V30 17714 C 1710.45 -2.73659 2.03282 0
M  V30 17715 H 1711.64 -1.09538 2.7918 0
M  V30 17716 H 1709.19 -0.535803 1.46829 0
M  V30 17717 H 1709.93 -3.04539 1.11475 0
M  V30 17718 H 1709.71 -2.68959 2.85313 0
M  V30 17719 H 1711.2 -3.49787 2.28119 0
M  V30 17720 N 1711.64 -1.47227 -0.562322 0
M  V30 17721 C 1712.89 -1.53286 -1.31712 0
M  V30 17722 C 1713.21 -0.194583 -1.94027 0
M  V30 17723 O 1712.48 0.780961 -1.7966 0
M  V30 17724 H 1711.06 -0.564621 -0.489094 0
M  V30 17725 H 1713.72 -1.83492 -0.657024 0
M  V30 17726 H 1712.82 -2.29665 -2.1133 0
M  V30 17727 N 1713.12 0.808639 -1.35273 0
M  V30 17728 C 1714.36 1.56794 -1.28621 0
M  V30 17729 C 1714.7 1.93697 0.139686 0
M  V30 17730 O 1713.97 1.61185 1.08856 0
M  V30 17731 C 1714.25 2.85794 -2.19075 0
M  V30 17732 C 1714.11 2.5538 -3.70271 0
M  V30 17733 C 1715.43 3.87481 -2.08678 0
M  V30 17734 H 1712.55 0.568873 -0.468564 0
M  V30 17735 H 1715.19 0.930499 -1.65655 0
M  V30 17736 H 1713.34 3.40191 -1.87622 0
M  V30 17737 H 1715.01 2.07182 -4.12157 0
M  V30 17738 H 1713.25 1.88605 -3.90654 0
M  V30 17739 H 1713.92 3.47432 -4.28947 0
M  V30 17740 H 1716.4 3.42478 -2.36323 0
M  V30 17741 H 1715.28 4.75523 -2.7417 0
M  V30 17742 H 1715.54 4.29004 -1.06809 0
M  V30 17743 N 1714.6 1.19237 1.03055 0
M  V30 17744 C 1715.55 0.896404 2.09639 0
M  V30 17745 C 1716.53 -0.138099 1.60306 0
M  V30 17746 O 1717.72 0.0673592 1.76872 0
M  V30 17747 C 1714.85 0.435042 3.40532 0
M  V30 17748 C 1713.94 1.50219 3.96604 0
M  V30 17749 N 1714.33 2.72121 4.26361 0
M  V30 17750 C 1712.63 1.36509 4.24596 0
M  V30 17751 C 1713.33 3.40853 4.71374 0
M  V30 17752 N 1712.3 2.68246 4.72806 0
M  V30 17753 H 1716.11 1.82292 2.30536 0
M  V30 17754 H 1713.62 1.08428 1.20901 0
M  V30 17755 H 1715.62 0.204471 4.16398 0
M  V30 17756 H 1714.28 -0.485016 3.21057 0
M  V30 17757 H 1715.29 3.08899 4.15694 0
M  V30 17758 H 1711.96 0.508358 4.14394 0
M  V30 17759 H 1713.35 4.4509 5.03333 0
M  V30 17760 N 1716.07 -1.22136 0.99602 0
M  V30 17761 C 1717.3 -1.95519 0.69189 0
M  V30 17762 C 1717.72 -1.7304 -0.73748 0
M  V30 17763 O 1717.08 -1.01157 -1.50456 0
M  V30 17764 C 1717.13 -3.46244 1.00735 0
M  V30 17765 O 1716.23 -4.12259 0.107713 0
M  V30 17766 H 1715.58 -0.611553 0.258648 0
M  V30 17767 H 1718.11 -1.55145 1.33384 0
M  V30 17768 H 1718.12 -3.96774 0.950482 0
M  V30 17769 H 1716.79 -3.6193 2.04889 0
M  V30 17770 H 1715.37 -3.72248 0.220336 0
M  V30 17771 N 1717.55 -0.769612 -1.37531 0
M  V30 17772 C 1718.8 -0.332309 -1.99349 0
M  V30 17773 C 1719.12 1.09432 -1.61399 0
M  V30 17774 O 1718.39 1.75102 -0.878415 0
M  V30 17775 H 1716.97 -0.119879 -0.737318 0
M  V30 17776 H 1719.63 -0.987265 -1.68045 0
M  V30 17777 H 1718.73 -0.408233 -3.09419 0
M  V30 17778 N 1719.03 1.48775 -0.519977 0
M  V30 17779 C 1720.31 1.95429 0.0816701 0
M  V30 17780 C 1720.69 1.46199 1.52279 0
M  V30 17781 O 1720.04 0.684057 2.1802 0
M  V30 17782 C 1720.25 3.48991 -0.0252472 0
M  V30 17783 C 1721.59 4.24372 0.139099 0
M  V30 17784 O 1722.62 3.56166 0.0490322 0
M  V30 17785 O 1721.48 5.45524 0.326426 0
M  V30 17786 H 1718.57 0.822637 0.0848378 0
M  V30 17787 H 1721.12 1.5934 -0.583865 0
M  V30 17788 H 1719.89 3.77514 -1.02951 0
M  V30 17789 H 1719.51 3.91749 0.679588 0
M  V30 17790 N 1720.51 0.254649 1.55529 0
M  V30 17791 C 1721.47 -0.62836 2.20418 0
M  V30 17792 C 1722.47 -1.09691 1.17578 0
M  V30 17793 O 1723.66 -1.00037 1.42612 0
M  V30 17794 C 1720.79 -1.86453 2.85391 0
M  V30 17795 H 1721.99 -0.0621032 2.99836 0
M  V30 17796 H 1719.54 0.00514311 1.56299 0
M  V30 17797 H 1720.27 -2.47182 2.09932 0
M  V30 17798 H 1720.06 -1.53669 3.60733 0
M  V30 17799 H 1721.55 -2.49291 3.35028 0
M  V30 17800 N 1721.99 -1.57589 -0.0183649 0
M  V30 17801 C 1723.21 -1.94024 -0.718491 0
M  V30 17802 C 1723.63 -0.85529 -1.68316 0
M  V30 17803 O 1722.99 0.167403 -1.81731 0
M  V30 17804 C 1723.04 -3.30427 -1.4663 0
M  V30 17805 O 1722.76 -4.34755 -0.540345 0
M  V30 17806 C 1724.26 -3.81209 -2.26262 0
M  V30 17807 H 1721.48 -0.640101 -0.201275 0
M  V30 17808 H 1724.02 -2.04482 0.0272935 0
M  V30 17809 H 1722.18 -3.21333 -2.16388 0
M  V30 17810 H 1722.59 -5.13554 -1.06593 0
M  V30 17811 H 1724.07 -4.79131 -2.74112 0
M  V30 17812 H 1724.54 -3.12957 -3.08147 0
M  V30 17813 H 1725.15 -3.9342 -1.61558 0
M  V30 17814 N 1723.46 0.290824 -1.54893 0
M  V30 17815 C 1724.39 1.36354 -1.89551 0
M  V30 17816 C 1725.38 1.52403 -0.75546 0
M  V30 17817 O 1726.56 1.65743 -1.01208 0
M  V30 17818 C 1723.69 2.72609 -2.15178 0
M  V30 17819 C 1722.64 2.71313 -3.31019 0
M  V30 17820 C 1721.97 4.10952 -3.42085 0
M  V30 17821 C 1723.27 2.32153 -4.6787 0
M  V30 17822 H 1724.96 1.07597 -2.79398 0
M  V30 17823 H 1722.51 0.516154 -1.34432 0
M  V30 17824 H 1724.46 3.47749 -2.3801 0
M  V30 17825 H 1723.19 3.02913 -1.22112 0
M  V30 17826 H 1721.85 1.9863 -3.08126 0
M  V30 17827 H 1721.49 4.38449 -2.46518 0
M  V30 17828 H 1721.19 4.10984 -4.1996 0
M  V30 17829 H 1722.72 4.87857 -3.67189 0
M  V30 17830 H 1724.13 2.97011 -4.90364 0
M  V30 17831 H 1722.53 2.4338 -5.48531 0
M  V30 17832 H 1723.6 1.27279 -4.67897 0
M  V30 17833 N 1724.94 1.47523 0.554506 0
M  V30 17834 C 1726.19 1.54515 1.3135 0
M  V30 17835 C 1726.52 0.207892 1.93084 0
M  V30 17836 O 1725.8 -0.783749 1.7801 0
M  V30 17837 C 1726.08 2.66519 2.42156 0
M  V30 17838 C 1725.93 4.0987 1.85274 0
M  V30 17839 C 1727.25 2.74418 3.44068 0
M  V30 17840 H 1724.37 0.562481 0.476219 0
M  V30 17841 H 1727.01 1.79591 0.620246 0
M  V30 17842 H 1725.16 2.45268 3.0129 0
M  V30 17843 H 1726.83 4.42492 1.3038 0
M  V30 17844 H 1725.08 4.18021 1.15934 0
M  V30 17845 H 1725.75 4.84017 2.65389 0
M  V30 17846 H 1728.22 2.93596 2.94857 0
M  V30 17847 H 1727.1 3.54557 4.19023 0
M  V30 17848 H 1727.36 1.81584 4.03088 0
M  V30 17849 N 1726.42 -0.801453 1.357 0
M  V30 17850 C 1727.65 -1.59001 1.32386 0
M  V30 17851 C 1728.06 -1.88548 -0.0975432 0
M  V30 17852 O 1727.42 -1.49199 -1.05099 0
M  V30 17853 C 1727.47 -2.91822 2.13359 0
M  V30 17854 O 1727.19 -2.63554 3.49958 0
M  V30 17855 C 1728.69 -3.86169 2.17689 0
M  V30 17856 H 1725.91 -0.493557 0.45458 0
M  V30 17857 H 1728.46 -0.995616 1.78627 0
M  V30 17858 H 1726.61 -3.47763 1.70704 0
M  V30 17859 H 1727.03 -3.48397 3.92071 0
M  V30 17860 H 1728.5 -4.76461 2.78727 0
M  V30 17861 H 1728.98 -4.23134 1.17704 0
M  V30 17862 H 1729.58 -3.36163 2.60527 0
M  V30 17863 N 1727.9 -1.19782 -1.02421 0
M  V30 17864 C 1729.31 -1.00493 -1.57347 0
M  V30 17865 C 1729.66 0.440854 -1.91183 0
M  V30 17866 O 1728.79 1.32102 -1.714 0
M  V30 17867 C 1729.38 -1.8179 -2.85898 0
M  V30 17868 C 1727.94 -1.66889 -3.3738 0
M  V30 17869 C 1727.09 -1.80199 -2.10769 0
M  V30 17870 H 1730.04 -1.34085 -0.848938 0
M  V30 17871 H 1730.06 -1.31676 -3.5699 0
M  V30 17872 H 1729.57 -2.87011 -2.6124 0
M  V30 17873 H 1727.67 -0.64274 -3.67014 0
M  V30 17874 H 1727.78 -2.47705 -4.10096 0
M  V30 17875 H 1726.15 -1.23308 -2.22862 0
M  V30 17876 H 1726.93 -2.86889 -1.88546 0
M  V30 17877 N 1729.38 1.21606 -1.00248 0
M  V30 17878 C 1730.79 1.72365 -0.717446 0
M  V30 17879 C 1731.14 1.80668 0.765078 0
M  V30 17880 O 1730.26 1.45951 1.59772 0
M  V30 17881 C 1730.86 3.13046 -1.29567 0
M  V30 17882 C 1729.42 3.61172 -1.05981 0
M  V30 17883 C 1728.57 2.38775 -1.41003 0
M  V30 17884 H 1731.52 1.06818 -1.17369 0
M  V30 17885 H 1731.54 3.74392 -0.679054 0
M  V30 17886 H 1731.05 3.0697 -2.37467 0
M  V30 17887 H 1729.15 3.726 0.00214307 0
M  V30 17888 H 1729.26 4.46778 -1.72993 0
M  V30 17889 H 1727.63 2.40839 -0.82877 0
M  V30 17890 H 1728.41 2.35352 -2.49928 0
M  V30 17891 N 1730.86 0.776895 1.37121 0
M  V30 17892 C 1731.79 0.124809 2.2886 0
M  V30 17893 C 1732.8 -0.658655 1.48881 0
M  V30 17894 O 1733.99 -0.4959 1.71473 0
M  V30 17895 C 1731.09 -0.84672 3.28152 0
M  V30 17896 C 1730.26 -0.11598 4.37246 0
M  V30 17897 C 1729.32 -1.00162 5.16579 0
M  V30 17898 O 1728.35 -0.463491 5.6731 0
M  V30 17899 N 1729.55 -2.32733 5.31804 0
M  V30 17900 H 1732.31 0.91278 2.85462 0
M  V30 17901 H 1729.88 0.629695 1.49152 0
M  V30 17902 H 1731.87 -1.44275 3.78109 0
M  V30 17903 H 1730.44 -1.53563 2.72281 0
M  V30 17904 H 1729.66 0.661015 3.88618 0
M  V30 17905 H 1730.95 0.388757 5.07313 0
M  V30 17906 H 1730.34 -2.78882 4.9218 0
M  V30 17907 H 1728.9 -2.8733 5.85051 0
M  V30 17908 N 1732.33 -1.48497 0.527859 0
M  V30 17909 C 1733.61 -1.9547 -0.0713049 0
M  V30 17910 C 1733.99 -1.47005 -1.51502 0
M  V30 17911 O 1733.34 -0.695609 -2.17655 0
M  V30 17912 C 1733.55 -3.48973 0.0437547 0
M  V30 17913 C 1734.9 -4.2444 -0.116591 0
M  V30 17914 O 1735.92 -3.56187 -0.0301431 0
M  V30 17915 O 1734.78 -5.4569 -0.297491 0
M  V30 17916 H 1731.87 -0.823075 -0.080474 0
M  V30 17917 H 1734.42 -1.59028 0.592307 0
M  V30 17918 H 1733.19 -3.76963 1.04952 0
M  V30 17919 H 1732.81 -3.92104 -0.658803 0
M  V30 17920 N 1733.81 -0.262893 -1.55392 0
M  V30 17921 C 1735.06 0.357939 -1.98499 0
M  V30 17922 C 1735.37 1.5789 -1.15456 0
M  V30 17923 O 1736.58 2.2719 -1.4865 0
M  V30 17924 C 1735.04 0.688205 -3.53259 0
M  V30 17925 C 1734.64 -0.512257 -4.45062 0
M  V30 17926 C 1736.39 1.27234 -4.04984 0
M  V30 17927 C 1734.29 -0.157257 -5.91191 0
M  V30 17928 H 1733.22 0.137514 -0.741354 0
M  V30 17929 H 1735.88 -0.365626 -1.79821 0
M  V30 17930 H 1734.26 1.47034 -3.67692 0
M  V30 17931 H 1735.43 -1.28935 -4.42394 0
M  V30 17932 H 1733.75 -1.0124 -4.03905 0
M  V30 17933 H 1736.34 1.55155 -5.11694 0
M  V30 17934 H 1736.69 2.20217 -3.53285 0
M  V30 17935 H 1737.22 0.552763 -3.93941 0
M  V30 17936 H 1733.96 -1.05464 -6.4696 0
M  V30 17937 H 1733.48 0.583319 -5.96957 0
M  V30 17938 H 1735.16 0.254892 -6.46498 0
M  V30 17939 N 1735.29 1.57597 0.0100073 0
M  V30 17940 C 1736.52 1.94402 0.708192 0
M  V30 17941 C 1736.93 0.864205 1.6786 0
M  V30 17942 O 1736.29 -0.157763 1.81817 0
M  V30 17943 C 1736.34 3.312 1.44876 0
M  V30 17944 O 1736.06 4.35035 0.517281 0
M  V30 17945 C 1737.56 3.82404 2.24237 0
M  V30 17946 H 1734.78 0.64116 0.197877 0
M  V30 17947 H 1737.33 2.04464 -0.0381373 0
M  V30 17948 H 1735.48 3.22476 2.1468 0
M  V30 17949 H 1735.9 5.14113 1.03868 0
M  V30 17950 H 1737.37 4.80578 2.71567 0
M  V30 17951 H 1737.85 3.14587 3.06483 0
M  V30 17952 H 1738.45 3.94271 1.59469 0
M  V30 17953 N 1736.77 -0.282606 1.55045 0
M  V30 17954 C 1737.73 -1.33228 1.86502 0
M  V30 17955 C 1738.73 -1.42814 0.738977 0
M  V30 17956 O 1739.92 -1.42131 1.0072 0
M  V30 17957 C 1737.05 -2.71488 2.06173 0
M  V30 17958 H 1738.25 -1.06571 2.80326 0
M  V30 17959 H 1735.8 -0.520199 1.47389 0
M  V30 17960 H 1736.53 -3.03339 1.14699 0
M  V30 17961 H 1736.32 -2.65917 2.8815 0
M  V30 17962 H 1737.81 -3.47348 2.31817 0
M  V30 17963 N 1738.25 -1.47815 -0.546675 0
M  V30 17964 C 1739.19 -1.61092 -1.65282 0
M  V30 17965 C 1740.16 -0.453531 -1.59788 0
M  V30 17966 O 1741.35 -0.674923 -1.78464 0
M  V30 17967 C 1738.49 -1.64103 -3.03585 0
M  V30 17968 C 1737.6 -2.90832 -3.19438 0
M  V30 17969 C 1736.74 -2.85112 -4.48201 0
M  V30 17970 C 1735.77 -4.06619 -4.57523 0
M  V30 17971 N 1734.91 -3.99073 -5.77655 0
M  V30 17972 H 1739.75 -2.55561 -1.53273 0
M  V30 17973 H 1737.29 -1.26752 -0.746477 0
M  V30 17974 H 1739.25 -1.63832 -3.83686 0
M  V30 17975 H 1737.88 -0.731382 -3.14405 0
M  V30 17976 H 1736.93 -3.00924 -2.327 0
M  V30 17977 H 1738.24 -3.80783 -3.22188 0
M  V30 17978 H 1737.39 -2.83149 -5.36574 0
M  V30 17979 H 1736.13 -1.92862 -4.47946 0
M  V30 17980 H 1735.14 -4.08876 -3.67561 0
M  V30 17981 H 1736.36 -5.00009 -4.5953 0
M  V30 17982 H 1734.31 -3.09633 -5.78328 0
M  V30 17983 H 1734.23 -4.82713 -5.81829 0
M  V30 17984 H 1735.49 -4.01143 -6.6836 0
M  V30 17985 N 1739.72 0.794246 -1.36123 0
M  V30 17986 C 1740.95 1.58297 -1.33228 0
M  V30 17987 C 1741.37 1.88597 0.0875426 0
M  V30 17988 O 1740.72 1.49754 1.04307 0
M  V30 17989 C 1740.77 2.90687 -2.14904 0
M  V30 17990 O 1740.5 2.61695 -3.51351 0
M  V30 17991 C 1742 3.85009 -2.19734 0
M  V30 17992 H 1739.22 0.491139 -0.457191 0
M  V30 17993 H 1741.76 0.986129 -1.79153 0
M  V30 17994 H 1739.92 3.46852 -1.72546 0
M  V30 17995 H 1740.33 3.46313 -3.93913 0
M  V30 17996 H 1741.8 4.74976 -2.8125 0
M  V30 17997 H 1742.28 4.22504 -1.19946 0
M  V30 17998 H 1742.89 3.34777 -2.62307 0
M  V30 17999 N 1741.2 1.20323 1.01785 0
M  V30 18000 C 1742.13 0.974819 2.12178 0
M  V30 18001 C 1743.11 -0.0957637 1.6983 0
M  V30 18002 O 1744.3 0.0614963 1.94103 0
M  V30 18003 C 1741.43 0.524739 3.43313 0
M  V30 18004 C 1740.38 1.53842 3.99395 0
M  V30 18005 C 1739.71 0.945021 5.26283 0
M  V30 18006 C 1741.01 2.92179 4.3293 0
M  V30 18007 H 1742.7 1.8981 2.31544 0
M  V30 18008 H 1740.25 0.914025 1.11273 0
M  V30 18009 H 1742.2 0.352182 4.19926 0
M  V30 18010 H 1740.92 -0.434161 3.23701 0
M  V30 18011 H 1739.58 1.69832 3.24889 0
M  V30 18012 H 1739.23 -0.0217709 5.02995 0
M  V30 18013 H 1738.93 1.62201 5.64769 0
M  V30 18014 H 1740.46 0.783504 6.05552 0
M  V30 18015 H 1741.87 2.79708 5.00436 0
M  V30 18016 H 1740.27 3.56773 4.82528 0
M  V30 18017 H 1741.34 3.43997 3.41752 0
M  V30 18018 N 1742.68 -1.21073 1.00892 0
M  V30 18019 C 1743.59 -2.27265 0.582065 0
M  V30 18020 C 1744.61 -1.69872 -0.376785 0
M  V30 18021 O 1745.78 -1.99969 -0.239644 0
M  V30 18022 C 1742.85 -3.46606 -0.0806764 0
M  V30 18023 C 1741.91 -4.19257 0.923147 0
M  V30 18024 C 1741.14 -5.32901 0.291938 0
M  V30 18025 O 1741.36 -5.6309 -0.910282 0
M  V30 18026 O 1740.3 -5.93453 1.00483 0
M  V30 18027 H 1744.12 -2.65977 1.46594 0
M  V30 18028 H 1741.71 -1.27544 0.777999 0
M  V30 18029 H 1743.59 -4.18978 -0.451177 0
M  V30 18030 H 1742.27 -3.09785 -0.93887 0
M  V30 18031 H 1741.17 -3.4909 1.34488 0
M  V30 18032 H 1742.51 -4.59999 1.75106 0
M  V30 18033 N 1744.16 -0.784156 -1.36707 0
M  V30 18034 C 1745.57 -0.465219 -1.52669 0
M  V30 18035 C 1745.77 1.01729 -1.73935 0
M  V30 18036 O 1744.83 1.80289 -1.76783 0
M  V30 18037 C 1746.14 -1.29109 -2.71572 0
M  V30 18038 C 1747.69 -1.28424 -2.8544 0
M  V30 18039 C 1748.17 -2.09373 -4.07341 0
M  V30 18040 N 1749.66 -2.06792 -4.14477 0
M  V30 18041 C 1750.39 -2.66199 -5.07864 0
M  V30 18042 N 1749.89 -3.34445 -6.06728 0
M  V30 18043 N 1751.68 -2.55962 -5.0044 0
M  V30 18044 H 1743.83 -1.74456 -1.21156 0
M  V30 18045 H 1746.1 -0.741286 -0.59093 0
M  V30 18046 H 1745.8 -2.34219 -2.62363 0
M  V30 18047 H 1745.68 -0.928764 -3.65587 0
M  V30 18048 H 1748.06 -0.241077 -2.94114 0
M  V30 18049 H 1748.14 -1.68629 -1.92348 0
M  V30 18050 H 1747.79 -3.13718 -3.99429 0
M  V30 18051 H 1747.72 -1.66542 -4.99571 0
M  V30 18052 H 1750.21 -1.57118 -3.43689 0
M  V30 18053 H 1750.52 -3.77118 -6.74538 0
M  V30 18054 H 1748.87 -3.38546 -6.06969 0
M  V30 18055 H 1752.06 -2.02251 -4.22152 0
M  V30 18056 H 1752.23 -3.02553 -5.73032 0
M  V30 18057 N 1745.64 1.48215 -0.535727 0
M  V30 18058 C 1746.89 2.017 -0.0016958 0
M  V30 18059 C 1747.2 1.41756 1.34776 0
M  V30 18060 O 1748.4 1.86774 1.97048 0
M  V30 18061 C 1746.86 3.59869 0.0473588 0
M  V30 18062 C 1746.47 4.28798 -1.29754 0
M  V30 18063 C 1748.21 4.21179 0.529915 0
M  V30 18064 C 1746.12 5.78915 -1.20876 0
M  V30 18065 H 1745.05 0.753993 0.00313606 0
M  V30 18066 H 1747.7 1.70421 -0.680368 0
M  V30 18067 H 1746.08 3.88015 0.791229 0
M  V30 18068 H 1747.26 4.12318 -2.05743 0
M  V30 18069 H 1745.57 3.79384 -1.7163 0
M  V30 18070 H 1748.17 5.31158 0.614396 0
M  V30 18071 H 1748.51 3.86887 1.53702 0
M  V30 18072 H 1749.04 3.97484 -0.158445 0
M  V30 18073 H 1745.78 6.17792 -2.1912 0
M  V30 18074 H 1745.3 5.97792 -0.490333 0
M  V30 18075 H 1746.98 6.40684 -0.901824 0
M  V30 18076 N 1747.11 0.27113 1.5525 0
M  V30 18077 C 1748.06 -0.618069 2.2237 0
M  V30 18078 C 1749.03 -1.15282 1.19579 0
M  V30 18079 O 1750.22 -1.20285 1.48108 0
M  V30 18080 C 1747.36 -1.79821 2.94548 0
M  V30 18081 C 1746.47 -1.29769 4.12049 0
M  V30 18082 C 1745.6 -2.43931 4.7188 0
M  V30 18083 C 1744.64 -1.90862 5.81582 0
M  V30 18084 N 1743.78 -2.98482 6.35494 0
M  V30 18085 H 1748.62 -0.0390456 2.97974 0
M  V30 18086 H 1746.16 -0.00750636 1.47098 0
M  V30 18087 H 1748.12 -2.49184 3.34609 0
M  V30 18088 H 1746.75 -2.34933 2.21374 0
M  V30 18089 H 1745.8 -0.497288 3.77136 0
M  V30 18090 H 1747.11 -0.868957 4.91173 0
M  V30 18091 H 1746.26 -3.21295 5.1464 0
M  V30 18092 H 1745 -2.90118 3.92024 0
M  V30 18093 H 1744.01 -1.11977 5.38276 0
M  V30 18094 H 1745.23 -1.45616 6.63304 0
M  V30 18095 H 1743.18 -3.44058 5.58534 0
M  V30 18096 H 1743.1 -2.60014 7.09879 0
M  V30 18097 H 1744.36 -3.75833 6.82913 0
M  V30 18098 N 1748.59 -1.576 -0.00164943 0
M  V30 18099 C 1749.56 -2.07267 -0.978423 0
M  V30 18100 C 1750.56 -0.981758 -1.27351 0
M  V30 18101 O 1751.75 -1.24446 -1.21896 0
M  V30 18102 C 1748.88 -2.51273 -2.30379 0
M  V30 18103 H 1750.07 -2.94835 -0.548845 0
M  V30 18104 H 1747.62 -1.54302 -0.249086 0
M  V30 18105 H 1748.36 -1.66943 -2.7803 0
M  V30 18106 H 1748.14 -3.30943 -2.10283 0
M  V30 18107 H 1749.63 -2.90031 -3.00453 0
M  V30 18108 N 1750.07 0.274379 -1.55193 0
M  V30 18109 C 1751.32 1.00394 -1.7494 0
M  V30 18110 C 1751.63 1.87499 -0.557084 0
M  V30 18111 O 1752.84 2.63923 -0.636936 0
M  V30 18112 C 1751.29 1.83489 -3.09612 0
M  V30 18113 C 1750.9 1.01257 -4.36407 0
M  V30 18114 C 1752.65 2.55883 -3.38709 0
M  V30 18115 C 1750.55 1.83782 -5.62119 0
M  V30 18116 H 1749.48 0.378561 -0.65208 0
M  V30 18117 H 1752.13 0.259678 -1.81653 0
M  V30 18118 H 1750.52 2.62005 -2.96933 0
M  V30 18119 H 1751.69 0.27167 -4.59998 0
M  V30 18120 H 1750.01 0.403235 -4.14443 0
M  V30 18121 H 1752.6 3.18028 -4.2984 0
M  V30 18122 H 1752.95 3.26096 -2.58779 0
M  V30 18123 H 1753.48 1.84398 -3.5248 0
M  V30 18124 H 1750.22 1.17992 -6.44793 0
M  V30 18125 H 1749.74 2.55473 -5.42673 0
M  V30 18126 H 1751.42 2.41181 -6.00367 0
M  V30 18127 N 1751.55 1.48103 0.538828 0
M  V30 18128 C 1752.79 1.559 1.29704 0
M  V30 18129 C 1753.13 0.228359 1.92853 0
M  V30 18130 O 1752.4 -0.764825 1.78831 0
M  V30 18131 C 1752.69 2.69072 2.39316 0
M  V30 18132 C 1752.54 4.11812 1.80916 0
M  V30 18133 C 1753.86 2.78051 3.41138 0
M  V30 18134 H 1750.98 0.5675 0.470226 0
M  V30 18135 H 1753.62 1.80239 0.601163 0
M  V30 18136 H 1751.77 2.4845 2.98672 0
M  V30 18137 H 1753.44 4.4385 1.25679 0
M  V30 18138 H 1751.68 4.19227 1.11494 0
M  V30 18139 H 1752.35 4.86805 2.6024 0
M  V30 18140 H 1754.83 2.96707 2.91726 0
M  V30 18141 H 1753.71 3.58982 4.15239 0
M  V30 18142 H 1753.97 1.85849 4.01139 0
M  V30 18143 N 1753.03 -0.787016 1.36542 0
M  V30 18144 C 1753.98 -1.88956 1.27592 0
M  V30 18145 C 1754.96 -1.60032 0.166904 0
M  V30 18146 O 1756.15 -1.72423 0.399932 0
M  V30 18147 C 1753.28 -3.26204 1.06986 0
M  V30 18148 C 1752.37 -3.6113 2.22365 0
M  V30 18149 N 1752.76 -3.67346 3.47693 0
M  V30 18150 C 1751.06 -3.91205 2.14183 0
M  V30 18151 C 1751.76 -3.98581 4.23684 0
M  V30 18152 N 1750.73 -4.13688 3.52651 0
M  V30 18153 H 1754.54 -1.91992 2.22522 0
M  V30 18154 H 1752.05 -0.982664 1.29296 0
M  V30 18155 H 1754.05 -4.05058 0.986603 0
M  V30 18156 H 1752.71 -3.24441 0.129582 0
M  V30 18157 H 1753.72 -3.49931 3.81797 0
M  V30 18158 H 1750.39 -3.97354 1.28125 0
M  V30 18159 H 1751.78 -4.10294 5.32079 0
M  V30 18160 N 1754.5 -1.20861 -1.01145 0
M  V30 18161 C 1755.47 -0.963742 -2.07954 0
M  V30 18162 C 1756.47 0.0627362 -1.60678 0
M  V30 18163 O 1757.66 -0.173867 -1.7333 0
M  V30 18164 C 1754.79 -0.451977 -3.3789 0
M  V30 18165 H 1755.98 -1.91123 -2.3111 0
M  V30 18166 H 1753.54 -1.0247 -1.18024 0
M  V30 18167 H 1754.27 0.500735 -3.20411 0
M  V30 18168 H 1754.06 -1.19231 -3.73532 0
M  V30 18169 H 1755.55 -0.300308 -4.16519 0
M  V30 18170 N 1755.98 1.20536 -1.01532 0
M  V30 18171 C 1757.23 1.90152 -0.704973 0
M  V30 18172 C 1757.56 1.78569 0.763343 0
M  V30 18173 O 1756.84 1.16906 1.55445 0
M  V30 18174 C 1757.12 3.41589 -1.1397 0
M  V30 18175 C 1756.97 3.62113 -2.66823 0
M  V30 18176 C 1758.29 4.34335 -0.709984 0
M  V30 18177 H 1755.41 0.690524 -0.257577 0
M  V30 18178 H 1758.05 1.41959 -1.26284 0
M  V30 18179 H 1756.2 3.82765 -0.66505 0
M  V30 18180 H 1757.87 3.30197 -3.2213 0
M  V30 18181 H 1756.12 3.05626 -3.07855 0
M  V30 18182 H 1756.79 4.68261 -2.92294 0
M  V30 18183 H 1759.26 4.00799 -1.11801 0
M  V30 18184 H 1758.14 5.38915 -1.04221 0
M  V30 18185 H 1758.4 4.40391 0.388408 0
M  V30 18186 N 1757.46 0.791395 1.36289 0
M  V30 18187 C 1758.71 0.363981 1.98795 0
M  V30 18188 C 1759.03 -1.0685 1.6312 0
M  V30 18189 O 1758.3 -1.73682 0.906161 0
M  V30 18190 H 1756.88 0.131594 0.735318 0
M  V30 18191 H 1759.54 1.01387 1.66453 0
M  V30 18192 H 1758.64 0.457407 3.0873 0
M  V30 18193 N 1758.94 -1.47929 0.54358 0
M  V30 18194 C 1759.87 -2.27843 -0.249005 0
M  V30 18195 C 1760.88 -1.36189 -0.891987 0
M  V30 18196 O 1762.07 -1.61127 -0.768135 0
M  V30 18197 C 1759.17 -3.10016 -1.36906 0
M  V30 18198 C 1758.35 -4.29541 -0.82545 0
M  V30 18199 C 1757.41 -4.93416 -1.82831 0
M  V30 18200 O 1756.43 -5.52222 -1.37984 0
M  V30 18201 N 1757.63 -4.86881 -3.16113 0
M  V30 18202 H 1760.4 -2.96505 0.436436 0
M  V30 18203 H 1757.96 -1.57407 0.378774 0
M  V30 18204 H 1759.95 -3.49616 -2.0384 0
M  V30 18205 H 1758.52 -2.43686 -1.95796 0
M  V30 18206 H 1757.74 -3.94195 0.0202776 0
M  V30 18207 H 1759.03 -5.06882 -0.441368 0
M  V30 18208 H 1758.43 -4.4028 -3.55205 0
M  V30 18209 H 1756.98 -5.30541 -3.78642 0
M  V30 18210 N 1760.42 -0.27936 -1.55104 0
M  V30 18211 C 1761.33 0.616249 -2.26361 0
M  V30 18212 C 1762.34 1.16656 -1.29102 0
M  V30 18213 O 1763.52 1.19596 -1.62046 0
M  V30 18214 C 1760.58 1.78191 -2.97403 0
M  V30 18215 C 1759.65 1.26785 -4.10151 0
M  V30 18216 C 1758.88 2.37795 -4.77796 0
M  V30 18217 O 1759.1 3.57242 -4.44673 0
M  V30 18218 O 1758.04 2.05711 -5.65656 0
M  V30 18219 H 1761.86 0.0388715 -3.03675 0
M  V30 18220 H 1759.45 -0.0466058 -1.49327 0
M  V30 18221 H 1761.33 2.4615 -3.42036 0
M  V30 18222 H 1760 2.3463 -2.23003 0
M  V30 18223 H 1758.91 0.554608 -3.69966 0
M  V30 18224 H 1760.24 0.749157 -4.86465 0
M  V30 18225 N 1761.9 1.57599 -0.0067085 0
M  V30 18226 C 1762.83 2.11878 0.981331 0
M  V30 18227 C 1763.81 1.02949 1.35408 0
M  V30 18228 O 1764.99 1.30667 1.43665 0
M  V30 18229 C 1762.12 2.62757 2.27104 0
M  V30 18230 C 1761.08 3.76272 2.0397 0
M  V30 18231 C 1760.4 4.13491 3.39012 0
M  V30 18232 C 1761.7 5.03274 1.39688 0
M  V30 18233 H 1763.4 2.94683 0.529366 0
M  V30 18234 H 1760.94 1.41757 0.253187 0
M  V30 18235 H 1762.89 2.99359 2.96585 0
M  V30 18236 H 1761.62 1.77082 2.74426 0
M  V30 18237 H 1760.28 3.40074 1.36913 0
M  V30 18238 H 1759.93 3.24831 3.8405 0
M  V30 18239 H 1759.63 4.89972 3.24347 0
M  V30 18240 H 1761.15 4.52657 4.09797 0
M  V30 18241 H 1762.56 5.37604 1.99136 0
M  V30 18242 H 1760.96 5.84604 1.3549 0
M  V30 18243 H 1762.03 4.8351 0.366928 0
M  V30 18244 N 1763.37 -0.266145 1.55336 0
M  V30 18245 C 1764.31 -1.35159 1.85107 0
M  V30 18246 C 1765.32 -1.45213 0.736006 0
M  V30 18247 O 1766.51 -1.46907 1.01393 0
M  V30 18248 C 1763.61 -2.73218 2.00512 0
M  V30 18249 C 1762.78 -2.85671 3.31226 0
M  V30 18250 C 1761.84 -4.0445 3.36611 0
M  V30 18251 O 1760.87 -3.94884 4.09945 0
M  V30 18252 N 1762.07 -5.16735 2.64508 0
M  V30 18253 H 1764.83 -1.09963 2.78798 0
M  V30 18254 H 1762.39 -0.456261 1.55338 0
M  V30 18255 H 1764.39 -3.50983 2.01477 0
M  V30 18256 H 1762.96 -2.91206 1.13655 0
M  V30 18257 H 1762.18 -1.94736 3.42741 0
M  V30 18258 H 1763.46 -2.90927 4.17419 0
M  V30 18259 H 1762.86 -5.27395 2.04624 0
M  V30 18260 H 1761.42 -5.92706 2.71189 0
M  V30 18261 N 1764.85 -1.48386 -0.530967 0
M  V30 18262 C 1766.1 -1.56585 -1.28875 0
M  V30 18263 C 1766.43 -0.238583 -1.92729 0
M  V30 18264 O 1765.71 0.75533 -1.79235 0
M  V30 18265 C 1765.99 -2.70338 -2.37886 0
M  V30 18266 C 1765.84 -4.12766 -1.78729 0
M  V30 18267 C 1767.16 -2.79857 -3.39659 0
M  V30 18268 H 1764.28 -0.569986 -0.46721 0
M  V30 18269 H 1766.92 -1.80555 -0.591596 0
M  V30 18270 H 1765.07 -2.50031 -2.9735 0
M  V30 18271 H 1766.74 -4.4451 -1.23324 0
M  V30 18272 H 1764.99 -4.19813 -1.09269 0
M  V30 18273 H 1765.66 -4.88178 -2.57655 0
M  V30 18274 H 1768.13 -2.9825 -2.90149 0
M  V30 18275 H 1767.01 -3.61179 -4.13329 0
M  V30 18276 H 1767.27 -1.87974 -4.00148 0
M  V30 18277 N 1766.33 0.779763 -1.36958 0
M  V30 18278 C 1767.56 1.56875 -1.34899 0
M  V30 18279 C 1767.97 1.88679 0.0675345 0
M  V30 18280 O 1767.33 1.50852 1.02712 0
M  V30 18281 C 1767.38 2.88391 -2.17975 0
M  V30 18282 O 1767.1 2.57954 -3.54107 0
M  V30 18283 C 1768.6 3.82657 -2.23805 0
M  V30 18284 H 1765.82 0.486262 -0.462374 0
M  V30 18285 H 1768.37 0.967072 -1.80189 0
M  V30 18286 H 1766.52 3.45003 -1.76215 0
M  V30 18287 H 1766.94 3.42115 -3.97564 0
M  V30 18288 H 1768.41 4.71967 -2.86272 0
M  V30 18289 H 1768.89 4.21208 -1.24421 0
M  V30 18290 H 1769.49 3.31976 -2.65843 0
M  V30 18291 N 1767.81 1.21396 1.00503 0
M  V30 18292 C 1769.06 1.02913 1.73935 0
M  V30 18293 C 1769.38 -0.438329 1.9001 0
M  V30 18294 O 1768.65 -1.31618 1.45098 0
M  V30 18295 H 1767.23 0.377813 0.644412 0
M  V30 18296 H 1769.89 1.52704 1.21109 0
M  V30 18297 H 1768.98 1.49705 2.73852 0
M  V30 18298 N 1769.29 -1.19996 1.0217 0
M  V30 18299 C 1770.7 -1.71202 0.744777 0
M  V30 18300 C 1771.05 -1.81862 -0.736238 0
M  V30 18301 O 1770.17 -1.48475 -1.5743 0
M  V30 18302 C 1770.77 -3.10945 1.34531 0
M  V30 18303 C 1769.33 -3.5944 1.11714 0
M  V30 18304 C 1768.47 -2.36501 1.44784 0
M  V30 18305 H 1771.42 -1.04938 1.19054 0
M  V30 18306 H 1771.45 -3.73264 0.738531 0
M  V30 18307 H 1770.96 -3.03154 2.42321 0
M  V30 18308 H 1769.06 -3.72556 0.0571346 0
M  V30 18309 H 1769.17 -4.43969 1.80079 0
M  V30 18310 H 1767.54 -2.3949 0.866981 0
M  V30 18311 H 1768.32 -2.31347 2.53641 0
M  V30 18312 N 1770.76 -0.798611 -1.35867 0
M  V30 18313 C 1772.01 -0.37526 -1.98993 0
M  V30 18314 C 1772.34 1.05549 -1.6337 0
M  V30 18315 O 1771.59 1.74552 -0.88488 0
M  V30 18316 C 1771.89 -0.496572 -3.53934 0
M  V30 18317 C 1771.56 -1.88946 -4.09402 0
M  V30 18318 C 1770.22 -2.27056 -4.24263 0
M  V30 18319 C 1772.57 -2.8011 -4.39531 0
M  V30 18320 C 1769.9 -3.55712 -4.66568 0
M  V30 18321 C 1772.25 -4.08205 -4.83272 0
M  V30 18322 C 1770.92 -4.46323 -4.96338 0
M  V30 18323 H 1770.19 -0.137317 -0.728165 0
M  V30 18324 H 1772.83 -1.01786 -1.6221 0
M  V30 18325 H 1771.14 0.229499 -3.91127 0
M  V30 18326 H 1772.84 -0.149903 -4.0072 0
M  V30 18327 H 1769.43 -1.58336 -3.98281 0
M  V30 18328 H 1773.61 -2.51919 -4.2761 0
M  V30 18329 H 1768.87 -3.85105 -4.74873 0
M  V30 18330 H 1773.04 -4.78952 -5.05547 0
M  V30 18331 H 1770.67 -5.4607 -5.28877 0
M  V30 18332 N 1772.24 1.47639 -0.551417 0
M  V30 18333 C 1773.19 2.31626 0.212654 0
M  V30 18334 C 1774.18 1.42567 0.914925 0
M  V30 18335 O 1775.39 1.59363 0.836869 0
M  V30 18336 H 1771.76 0.746898 0.0874493 0
M  V30 18337 H 1773.74 2.93923 -0.514976 0
M  V30 18338 C 1772.48 3.25098 1.23316 0
M  V30 18339 H 1771.81 3.93585 0.702196 0
M  V30 18340 H 1773.25 3.86707 1.73878 0
M  V30 18341 C 1771.71 2.48209 2.27802 0
M  V30 18342 O 1772.24 2.22235 3.34626 0
M  V30 18343 N 1770.44 2.09321 2.01577 0
M  V30 18344 H 1769.99 2.30645 1.14719 0
M  V30 18345 H 1769.95 1.58191 2.71704 0
M  V30 18346 N 1773.72 0.287581 1.54954 0
M  V30 18347 C 1774.65 -0.587855 2.25979 0
M  V30 18348 C 1775.63 -1.14884 1.25442 0
M  V30 18349 O 1776.82 -1.18067 1.54188 0
M  V30 18350 C 1773.95 -1.76618 2.99037 0
M  V30 18351 C 1772.9 -1.33617 4.06609 0
M  V30 18352 C 1772.23 -2.59859 4.67309 0
M  V30 18353 C 1773.53 -0.477219 5.20115 0
M  V30 18354 H 1775.22 0.00450183 2.994 0
M  V30 18355 H 1772.77 0.00360521 1.44 0
M  V30 18356 H 1774.72 -2.38461 3.4744 0
M  V30 18357 H 1773.44 -2.38457 2.23172 0
M  V30 18358 H 1772.1 -0.74088 3.59036 0
M  V30 18359 H 1771.75 -3.19983 3.88098 0
M  V30 18360 H 1771.45 -2.31793 5.3995 0
M  V30 18361 H 1772.97 -3.22528 5.18467 0
M  V30 18362 H 1774.39 -1.00096 5.64494 0
M  V30 18363 H 1772.79 -0.290913 5.99394 0
M  V30 18364 H 1773.86 0.500993 4.82305 0
M  V30 18365 N 1775.2 -1.57593 0.0150662 0
M  V30 18366 C 1776.13 -2.06239 -0.999912 0
M  V30 18367 C 1777.14 -0.983112 -1.29764 0
M  V30 18368 O 1778.33 -1.25961 -1.26476 0
M  V30 18369 C 1775.43 -2.46011 -2.33092 0
M  V30 18370 C 1774.61 -3.76851 -2.2204 0
M  V30 18371 C 1773.66 -4.03326 -3.37956 0
M  V30 18372 O 1772.69 -4.73781 -3.15469 0
M  V30 18373 N 1773.89 -3.52399 -4.61298 0
M  V30 18374 H 1776.66 -2.93936 -0.584952 0
M  V30 18375 H 1774.22 -1.60984 -0.172001 0
M  V30 18376 H 1776.21 -2.60825 -3.09439 0
M  V30 18377 H 1774.78 -1.63753 -2.66277 0
M  V30 18378 H 1774 -3.71969 -1.30509 0
M  V30 18379 H 1775.29 -4.626 -2.11845 0
M  V30 18380 H 1774.69 -2.95374 -4.82463 0
M  V30 18381 H 1773.24 -3.72516 -5.3486 0
M  V30 18382 N 1776.68 0.257904 -1.55475 0
M  V30 18383 C 1777.61 1.32303 -1.92401 0
M  V30 18384 C 1778.59 1.50767 -0.787617 0
M  V30 18385 O 1779.77 1.63559 -1.047 0
M  V30 18386 C 1776.9 2.67984 -2.20912 0
M  V30 18387 C 1775.86 2.64231 -3.36699 0
M  V30 18388 C 1775.18 4.03604 -3.50725 0
M  V30 18389 C 1776.48 2.22177 -4.72689 0
M  V30 18390 H 1778.18 1.01646 -2.81618 0
M  V30 18391 H 1775.72 0.487523 -1.35496 0
M  V30 18392 H 1777.68 3.42622 -2.45332 0
M  V30 18393 H 1776.4 3.00254 -1.2851 0
M  V30 18394 H 1775.06 1.92049 -3.1227 0
M  V30 18395 H 1774.71 4.33122 -2.55763 0
M  V30 18396 H 1774.41 4.01983 -4.28583 0
M  V30 18397 H 1775.93 4.79959 -3.77455 0
M  V30 18398 H 1777.34 2.86543 -4.96554 0
M  V30 18399 H 1775.74 2.3169 -5.5357 0
M  V30 18400 H 1776.81 1.17326 -4.70492 0
M  V30 18401 N 1778.15 1.48666 0.52309 0
M  V30 18402 C 1779.4 1.56286 1.27505 0
M  V30 18403 C 1779.72 0.244774 1.94062 0
M  V30 18404 O 1780.92 0.199289 2.70768 0
M  V30 18405 C 1779.38 2.75654 2.31393 0
M  V30 18406 C 1778.99 4.14133 1.70874 0
M  V30 18407 C 1780.73 2.92591 3.07556 0
M  V30 18408 C 1778.64 5.24752 2.72743 0
M  V30 18409 H 1777.57 0.581842 0.479558 0
M  V30 18410 H 1780.22 1.75013 0.551611 0
M  V30 18411 H 1778.6 2.50376 3.06803 0
M  V30 18412 H 1779.77 4.49458 1.01607 0
M  V30 18413 H 1778.09 4.0237 1.0718 0
M  V30 18414 H 1780.69 3.72403 3.83692 0
M  V30 18415 H 1781.03 2.02308 3.63837 0
M  V30 18416 H 1781.56 3.17804 2.39261 0
M  V30 18417 H 1778.3 6.17024 2.21273 0
M  V30 18418 H 1777.82 4.93907 3.40318 0
M  V30 18419 H 1779.5 5.53158 3.35598 0
M  V30 18420 N 1779.63 -0.772489 1.37369 0
M  V30 18421 C 1780.6 -1.86737 1.32898 0
M  V30 18422 C 1781.6 -1.591 0.23318 0
M  V30 18423 O 1782.79 -1.67196 0.488983 0
M  V30 18424 C 1779.92 -3.23859 1.06435 0
M  V30 18425 H 1781.11 -1.92114 2.30287 0
M  V30 18426 H 1778.66 -0.972158 1.22388 0
M  V30 18427 H 1779.4 -3.24159 0.0957365 0
M  V30 18428 H 1779.18 -3.4531 1.85751 0
M  V30 18429 H 1780.67 -4.03935 1.05954 0
M  V30 18430 N 1781.11 -1.21927 -0.998575 0
M  V30 18431 C 1782.06 -0.984283 -2.08759 0
M  V30 18432 C 1783.03 0.0920029 -1.65845 0
M  V30 18433 O 1784.21 -0.0564334 -1.90717 0
M  V30 18434 C 1781.35 -0.562006 -3.40493 0
M  V30 18435 C 1780.47 -1.70844 -3.96783 0
M  V30 18436 C 1779.6 -1.2347 -5.16651 0
M  V30 18437 C 1778.64 -2.35305 -5.65065 0
M  V30 18438 N 1777.78 -1.89018 -6.76178 0
M  V30 18439 H 1782.62 -1.91653 -2.28195 0
M  V30 18440 H 1780.15 -0.955028 -1.11882 0
M  V30 18441 H 1782.11 -0.298383 -4.16132 0
M  V30 18442 H 1780.74 0.33324 -3.21075 0
M  V30 18443 H 1779.79 -2.08653 -3.18069 0
M  V30 18444 H 1781.11 -2.54987 -4.28699 0
M  V30 18445 H 1780.26 -0.928121 -5.99559 0
M  V30 18446 H 1779 -0.363397 -4.86344 0
M  V30 18447 H 1778 -2.66758 -4.8075 0
M  V30 18448 H 1779.23 -3.22941 -5.97399 0
M  V30 18449 H 1777.17 -1.04242 -6.47665 0
M  V30 18450 H 1777.09 -2.66731 -7.07383 0
M  V30 18451 H 1778.36 -1.61413 -7.62605 0
M  V30 18452 N 1782.59 1.19452 -1.02805 0
M  V30 18453 C 1783.87 1.84878 -0.638707 0
M  V30 18454 C 1784.25 1.91763 0.882627 0
M  V30 18455 O 1783.59 1.43401 1.779 0
M  V30 18456 C 1783.8 3.23891 -1.29982 0
M  V30 18457 C 1785.15 4.00061 -1.42254 0
M  V30 18458 O 1786.18 3.33286 -1.25693 0
M  V30 18459 O 1785.03 5.19671 -1.69127 0
M  V30 18460 H 1782.13 0.796676 -0.221892 0
M  V30 18461 H 1784.67 1.26949 -1.12615 0
M  V30 18462 H 1783.45 3.13711 -2.33883 0
M  V30 18463 H 1783.07 3.89465 -0.800186 0
M  V30 18464 N 1784.07 0.805805 1.35442 0
M  V30 18465 C 1785.34 0.309105 1.93142 0
M  V30 18466 C 1785.72 -1.20119 1.73593 0
M  V30 18467 O 1785.07 -2.00034 1.10448 0
M  V30 18468 C 1785.28 0.719653 3.415 0
M  V30 18469 C 1786.63 0.708697 4.18644 0
M  V30 18470 O 1787.65 0.661148 3.5001 0
M  V30 18471 O 1786.51 0.76636 5.411 0
M  V30 18472 H 1783.61 0.0806647 0.823057 0
M  V30 18473 H 1786.15 0.88945 1.44523 0
M  V30 18474 H 1784.92 1.7606 3.49455 0
M  V30 18475 H 1784.55 0.114073 3.97436 0
M  V30 18476 N 1785.54 -1.47344 0.559239 0
M  V30 18477 C 1786.48 -2.28095 -0.224826 0
M  V30 18478 C 1787.49 -1.37127 -0.877492 0
M  V30 18479 O 1788.68 -1.61933 -0.751002 0
M  V30 18480 C 1785.78 -3.1145 -1.33611 0
M  V30 18481 C 1784.95 -4.30392 -0.779845 0
M  V30 18482 C 1784.01 -4.95327 -1.77587 0
M  V30 18483 O 1783.04 -5.53654 -1.32119 0
M  V30 18484 N 1784.24 -4.90206 -3.10931 0
M  V30 18485 H 1787 -2.96026 0.46786 0
M  V30 18486 H 1784.56 -1.56996 0.395448 0
M  V30 18487 H 1786.56 -3.51758 -2.00121 0
M  V30 18488 H 1785.13 -2.45749 -1.932 0
M  V30 18489 H 1784.35 -3.94151 0.0620861 0
M  V30 18490 H 1785.63 -5.07322 -0.387581 0
M  V30 18491 H 1785.03 -4.44022 -3.50515 0
M  V30 18492 H 1783.59 -5.34527 -3.72994 0
M  V30 18493 N 1787.02 -0.295795 -1.54799 0
M  V30 18494 C 1787.95 0.575863 -2.26288 0
M  V30 18495 C 1788.93 1.14217 -1.26049 0
M  V30 18496 O 1790.12 1.17248 -1.54812 0
M  V30 18497 C 1787.25 1.7503 -2.9997 0
M  V30 18498 C 1786.2 1.31459 -4.07311 0
M  V30 18499 C 1785.53 2.57377 -4.6868 0
M  V30 18500 C 1786.83 0.449629 -5.20361 0
M  V30 18501 H 1788.52 -0.0203797 -2.99393 0
M  V30 18502 H 1786.07 -0.0112418 -1.43996 0
M  V30 18503 H 1788.02 2.36615 -3.487 0
M  V30 18504 H 1786.75 2.3727 -2.24434 0
M  V30 18505 H 1785.4 0.721829 -3.59423 0
M  V30 18506 H 1785.05 3.1792 -3.89789 0
M  V30 18507 H 1784.75 2.28927 -5.41171 0
M  V30 18508 H 1786.28 3.19774 -5.2017 0
M  V30 18509 H 1787.69 0.971014 -5.65017 0
M  V30 18510 H 1786.09 0.259121 -5.9954 0
M  V30 18511 H 1787.16 -0.526564 -4.82032 0
M  V30 18512 N 1788.5 1.57583 -0.0234236 0
M  V30 18513 C 1789.45 2.09872 0.960327 0
M  V30 18514 C 1790.42 0.999466 1.32665 0
M  V30 18515 O 1791.6 1.27332 1.42095 0
M  V30 18516 C 1788.74 2.62578 2.23935 0
M  V30 18517 C 1787.86 3.86491 1.92999 0
M  V30 18518 C 1786.99 4.27611 3.15154 0
M  V30 18519 C 1786.03 5.44298 2.80011 0
M  V30 18520 N 1785.17 5.80601 3.94775 0
M  V30 18521 H 1790.01 2.93647 0.507502 0
M  V30 18522 H 1787.54 1.45147 0.238911 0
M  V30 18523 H 1789.5 2.91223 2.98739 0
M  V30 18524 H 1788.13 1.81643 2.66844 0
M  V30 18525 H 1787.18 3.6461 1.08462 0
M  V30 18526 H 1788.5 4.71377 1.63112 0
M  V30 18527 H 1787.65 4.57663 3.98284 0
M  V30 18528 H 1786.39 3.41481 3.48198 0
M  V30 18529 H 1785.39 5.13946 1.95293 0
M  V30 18530 H 1786.62 6.32122 2.4819 0
M  V30 18531 H 1784.57 4.97427 4.27671 0
M  V30 18532 H 1784.48 6.60113 3.68492 0
M  V30 18533 H 1785.75 6.15255 4.78624 0
M  V30 18534 N 1789.98 -0.249655 1.5561 0
M  V30 18535 C 1791.23 -0.979529 1.77576 0
M  V30 18536 C 1791.56 -1.85078 0.588198 0
M  V30 18537 O 1790.83 -1.90052 -0.4136 0
M  V30 18538 C 1791.12 -1.84238 3.094 0
M  V30 18539 C 1790.97 -0.9995 4.38554 0
M  V30 18540 C 1792.29 -2.82536 3.37433 0
M  V30 18541 H 1789.41 -0.354681 0.646042 0
M  V30 18542 H 1792.05 -0.250224 1.88345 0
M  V30 18543 H 1790.2 -2.46419 3.0035 0
M  V30 18544 H 1791.87 -0.396599 4.59592 0
M  V30 18545 H 1790.11 -0.30376 4.32735 0
M  V30 18546 H 1790.79 -1.63697 5.27169 0
M  V30 18547 H 1793.26 -2.30491 3.46429 0
M  V30 18548 H 1792.14 -3.40033 4.30893 0
M  V30 18549 H 1792.4 -3.58859 2.58211 0
M  V30 18550 N 1791.46 -1.48941 -0.515198 0
M  V30 18551 C 1792.71 -1.5696 -1.26674 0
M  V30 18552 C 1793.02 -0.255062 -1.9393 0
M  V30 18553 O 1794.23 -0.213645 -2.70658 0
M  V30 18554 C 1792.68 -2.76877 -2.29928 0
M  V30 18555 C 1792.29 -4.15033 -1.68676 0
M  V30 18556 C 1794.03 -2.94218 -3.06 0
M  V30 18557 C 1791.94 -5.26191 -2.69957 0
M  V30 18558 H 1790.87 -0.584377 -0.476465 0
M  V30 18559 H 1793.52 -1.75303 -0.542322 0
M  V30 18560 H 1791.9 -2.51999 -3.05471 0
M  V30 18561 H 1793.08 -4.49991 -0.992215 0
M  V30 18562 H 1791.39 -4.02932 -1.05045 0
M  V30 18563 H 1793.99 -3.74433 -3.81712 0
M  V30 18564 H 1794.33 -2.04235 -3.62759 0
M  V30 18565 H 1794.87 -3.19068 -2.37572 0
M  V30 18566 H 1791.6 -6.18189 -2.17998 0
M  V30 18567 H 1791.12 -4.95705 -3.37694 0
M  V30 18568 H 1792.8 -5.54929 -3.32659 0
M  V30 18569 N 1792.94 0.765193 -1.37777 0
M  V30 18570 C 1793.85 1.90959 -1.36278 0
M  V30 18571 C 1794.86 1.72025 -0.261448 0
M  V30 18572 O 1796.04 1.95148 -0.497937 0
M  V30 18573 C 1793.1 3.26174 -1.17523 0
M  V30 18574 C 1792.16 3.57716 -2.37356 0
M  V30 18575 C 1791.4 4.86479 -2.19486 0
M  V30 18576 O 1791.62 5.58008 -1.18252 0
M  V30 18577 O 1790.55 5.17234 -3.0782 0
M  V30 18578 H 1794.38 1.95176 -2.3268 0
M  V30 18579 H 1791.96 0.90886 -1.18575 0
M  V30 18580 H 1793.85 4.07038 -1.09078 0
M  V30 18581 H 1792.52 3.22794 -0.241994 0
M  V30 18582 H 1791.43 2.7706 -2.51374 0
M  V30 18583 H 1792.76 3.65845 -3.29269 0
M  V30 18584 N 1794.41 1.22455 0.992094 0
M  V30 18585 C 1795.65 1.06119 1.74694 0
M  V30 18586 C 1796.02 -0.396703 1.87857 0
M  V30 18587 O 1797.22 -0.680936 2.60032 0
M  V30 18588 C 1795.49 1.75374 3.11414 0
M  V30 18589 S 1797.05 1.74461 4.02627 0
M  V30 18590 H 1793.87 0.380011 0.600927 0
M  V30 18591 H 1796.47 1.55408 1.18611 0
M  V30 18592 H 1795.17 2.8061 2.99477 0
M  V30 18593 H 1794.7 1.26319 3.72568 0
M  V30 18594 H 1796.72 0.794871 4.89792 0
M  V30 18595 N 1795.89 -1.18905 1.03437 0
M  V30 18596 C 1796.84 -2.24362 0.613557 0
M  V30 18597 C 1797.83 -1.65605 -0.356541 0
M  V30 18598 O 1799.04 -1.78594 -0.22452 0
M  V30 18599 H 1795.41 -0.730098 0.18017 0
M  V30 18600 H 1797.39 -2.57168 1.51351 0
M  V30 18601 C 1796.13 -3.47697 -0.0141125 0
M  V30 18602 H 1795.46 -3.93201 0.723394 0
M  V30 18603 H 1796.9 -4.2313 -0.271424 0
M  V30 18604 C 1795.36 -3.12357 -1.26232 0
M  V30 18605 O 1795.89 -3.25515 -2.35378 0
M  V30 18606 N 1794.09 -2.6674 -1.15318 0
M  V30 18607 H 1793.64 -2.56233 -0.26501 0
M  V30 18608 H 1793.6 -2.43466 -1.98927 0
M  V30 18609 N 1797.37 -0.812977 -1.35013 0
M  V30 18610 C 1798.62 -0.396932 -1.98878 0
M  V30 18611 C 1798.95 1.03486 -1.6433 0
M  V30 18612 O 1798.22 1.71906 -0.90986 0
M  V30 18613 C 1798.51 -0.587911 -3.55268 0
M  V30 18614 C 1798.36 -2.06509 -3.99592 0
M  V30 18615 C 1799.68 -0.017593 -4.40096 0
M  V30 18616 H 1796.8 -0.145695 -0.722455 0
M  V30 18617 H 1799.44 -1.0237 -1.60064 0
M  V30 18618 H 1797.59 -0.0543785 -3.88462 0
M  V30 18619 H 1799.26 -2.6615 -3.76778 0
M  V30 18620 H 1797.5 -2.55921 -3.50267 0
M  V30 18621 H 1798.18 -2.14958 -5.08426 0
M  V30 18622 H 1800.65 -0.473317 -4.13399 0
M  V30 18623 H 1799.53 -0.18109 -5.48601 0
M  V30 18624 H 1799.79 1.07664 -4.2879 0
M  V30 18625 N 1798.85 1.47045 -0.567045 0
M  V30 18626 C 1800.26 1.5797 -0.227536 0
M  V30 18627 C 1800.46 1.56434 1.27006 0
M  V30 18628 O 1799.52 1.47297 2.05085 0
M  V30 18629 C 1800.83 2.88053 -0.862894 0
M  V30 18630 C 1802.38 3.01656 -0.835032 0
M  V30 18631 C 1802.86 4.34453 -1.44964 0
M  V30 18632 N 1804.35 4.41113 -1.41327 0
M  V30 18633 C 1805.08 5.42451 -1.85835 0
M  V30 18634 N 1804.58 6.50547 -2.38245 0
M  V30 18635 N 1806.37 5.33556 -1.76847 0
M  V30 18636 H 1798.52 1.46287 -1.53993 0
M  V30 18637 H 1800.78 0.696829 -0.642755 0
M  V30 18638 H 1800.49 2.94942 -1.91578 0
M  V30 18639 H 1800.36 3.75461 -0.361758 0
M  V30 18640 H 1802.75 2.94358 0.209187 0
M  V30 18641 H 1802.83 2.15764 -1.37403 0
M  V30 18642 H 1802.48 4.42508 -2.49298 0
M  V30 18643 H 1802.41 5.19093 -0.886003 0
M  V30 18644 H 1804.9 3.63592 -1.03001 0
M  V30 18645 H 1805.21 7.2406 -2.70105 0
M  V30 18646 H 1803.56 6.51409 -2.42262 0
M  V30 18647 H 1806.75 4.48008 -1.35671 0
M  V30 18648 H 1806.92 6.12391 -2.11851 0
M  V30 18649 N 1800.33 0.304 1.5464 0
M  V30 18650 C 1801.57 -0.304845 2.00496 0
M  V30 18651 C 1801.9 -1.53308 1.19206 0
M  V30 18652 O 1801.18 -1.92627 0.269305 0
M  V30 18653 C 1801.46 -0.658462 3.54029 0
M  V30 18654 C 1801.32 0.579125 4.46056 0
M  V30 18655 C 1802.63 -1.4838 4.14332 0
M  V30 18656 H 1799.75 -0.109327 0.728846 0
M  V30 18657 H 1802.4 0.416694 1.85374 0
M  V30 18658 H 1800.55 -1.27319 3.67045 0
M  V30 18659 H 1802.22 1.21758 4.44941 0
M  V30 18660 H 1800.46 1.21179 4.16531 0
M  V30 18661 H 1801.13 0.287518 5.51251 0
M  V30 18662 H 1803.61 -0.964367 4.04771 0
M  V30 18663 H 1802.48 -1.70001 5.21911 0
M  V30 18664 H 1802.74 -2.47394 3.66399 0
M  V30 18665 N 1801.8 -1.57568 0.0317802 0
M  V30 18666 C 1803.03 -1.9662 -0.659953 0
M  V30 18667 C 1803.45 -0.908334 -1.64715 0
M  V30 18668 O 1802.81 0.130491 -1.8083 0
M  V30 18669 C 1802.86 -3.34765 -1.34033 0
M  V30 18670 O 1801.96 -3.31317 -2.45566 0
M  V30 18671 H 1801.3 -0.641024 -0.17316 0
M  V30 18672 H 1803.83 -2.04382 0.0944231 0
M  V30 18673 H 1803.84 -3.71056 -1.69651 0
M  V30 18674 H 1802.52 -4.11302 -0.616716 0
M  V30 18675 H 1801.1 -3.06746 -2.1204 0
M  V30 18676 N 1803.28 0.241399 -1.5574 0
M  V30 18677 C 1804.7 0.590176 -1.48287 0
M  V30 18678 C 1804.9 1.8808 -0.723052 0
M  V30 18679 O 1803.95 2.51213 -0.25464 0
M  V30 18680 C 1805.27 0.687804 -2.92728 0
M  V30 18681 C 1806.82 0.779763 -3.03131 0
M  V30 18682 C 1807.29 0.908905 -4.48891 0
M  V30 18683 N 1808.78 0.973636 -4.52852 0
M  V30 18684 C 1809.52 1.09292 -5.62888 0
M  V30 18685 N 1809.01 1.1774 -6.82722 0
M  V30 18686 N 1810.81 1.12651 -5.50696 0
M  V30 18687 H 1802.96 -0.605781 -2.03578 0
M  V30 18688 H 1805.22 -0.209862 -0.924479 0
M  V30 18689 H 1804.93 -0.190608 -3.51183 0
M  V30 18690 H 1804.8 1.55794 -3.43523 0
M  V30 18691 H 1807.19 1.64863 -2.44754 0
M  V30 18692 H 1807.27 -0.115641 -2.55538 0
M  V30 18693 H 1806.91 0.0445788 -5.0788 0
M  V30 18694 H 1806.84 1.81943 -4.9417 0
M  V30 18695 H 1809.33 0.919469 -3.66544 0
M  V30 18696 H 1809.65 1.26764 -7.62332 0
M  V30 18697 H 1807.99 1.14688 -6.85472 0
M  V30 18698 H 1811.18 1.05703 -4.56009 0
M  V30 18699 H 1811.35 1.21602 -6.36488 0
M  V30 18700 N 1804.76 1.49212 0.507292 0
M  V30 18701 C 1805.99 1.62343 1.29072 0
M  V30 18702 C 1806.41 0.292387 1.85814 0
M  V30 18703 O 1805.77 -0.739145 1.65549 0
M  V30 18704 C 1805.82 2.69017 2.40129 0
M  V30 18705 O 1804.92 2.27753 3.43806 0
M  V30 18706 H 1804.26 0.543591 0.38132 0
M  V30 18707 H 1806.79 1.95358 0.607997 0
M  V30 18708 H 1806.8 2.90992 2.85985 0
M  V30 18709 H 1805.48 3.65638 1.98195 0
M  V30 18710 H 1804.05 2.16084 3.03912 0
M  V30 18711 N 1806.24 -0.757876 1.38181 0
M  V30 18712 C 1807.49 -1.51688 1.34153 0
M  V30 18713 C 1807.81 -1.94375 -0.0697487 0
M  V30 18714 O 1807.07 -1.65404 -1.04594 0
M  V30 18715 C 1807.37 -2.78548 2.23933 0
M  V30 18716 C 1807.03 -2.54845 3.71975 0
M  V30 18717 C 1805.7 -2.48089 4.12317 0
M  V30 18718 C 1808.05 -2.34027 4.65704 0
M  V30 18719 C 1805.38 -2.18526 5.44485 0
M  V30 18720 C 1807.73 -2.05986 5.98124 0
M  V30 18721 C 1806.39 -1.97683 6.37556 0
M  V30 18722 H 1805.66 -0.555064 0.490902 0
M  V30 18723 H 1808.31 -0.871823 1.70504 0
M  V30 18724 H 1806.61 -3.47682 1.80623 0
M  V30 18725 H 1808.31 -3.36487 2.18122 0
M  V30 18726 H 1804.9 -2.60972 3.39988 0
M  V30 18727 H 1809.08 -2.38228 4.35386 0
M  V30 18728 H 1804.34 -2.10603 5.73983 0
M  V30 18729 H 1808.51 -1.8888 6.70296 0
M  V30 18730 H 1806.14 -1.7454 7.39892 0
M  V30 18731 N 1807.72 -1.22979 -0.985586 0
M  V30 18732 C 1809.13 -1.05448 -1.5407 0
M  V30 18733 C 1809.48 0.379808 -1.92489 0
M  V30 18734 O 1808.6 1.26582 -1.75516 0
M  V30 18735 C 1809.2 -1.90794 -2.7997 0
M  V30 18736 C 1807.76 -1.77538 -3.31899 0
M  V30 18737 C 1806.9 -1.86814 -2.04929 0
M  V30 18738 H 1809.86 -1.36718 -0.80585 0
M  V30 18739 H 1809.88 -1.42967 -3.5262 0
M  V30 18740 H 1809.39 -2.95177 -2.51977 0
M  V30 18741 H 1807.49 -0.759177 -3.64784 0
M  V30 18742 H 1807.6 -2.60627 -4.02008 0
M  V30 18743 H 1805.97 -1.30336 -2.18826 0
M  V30 18744 H 1806.75 -2.92742 -1.79324 0
M  V30 18745 N 1809.19 1.18355 -1.04066 0
M  V30 18746 C 1810.44 1.88335 -0.744046 0
M  V30 18747 C 1810.77 1.80353 0.728219 0
M  V30 18748 O 1810.02 1.19839 1.54717 0
M  V30 18749 C 1810.32 3.38203 -1.15557 0
M  V30 18750 C 1809.99 3.66389 -2.62812 0
M  V30 18751 C 1808.65 3.73791 -3.03041 0
M  V30 18752 C 1811 3.78773 -3.58023 0
M  V30 18753 C 1808.33 3.91056 -4.37369 0
M  V30 18754 C 1810.68 3.97554 -4.92071 0
M  V30 18755 C 1809.35 4.03192 -5.3197 0
M  V30 18756 H 1808.62 0.689168 -0.272266 0
M  V30 18757 H 1811.26 1.40087 -1.30568 0
M  V30 18758 H 1809.57 3.8843 -0.512741 0
M  V30 18759 H 1811.27 3.90691 -0.903428 0
M  V30 18760 H 1807.86 3.61244 -2.30652 0
M  V30 18761 H 1812.04 3.72386 -3.28089 0
M  V30 18762 H 1807.3 3.93665 -4.67801 0
M  V30 18763 H 1811.47 4.06078 -5.65751 0
M  V30 18764 H 1809.1 4.16323 -6.36066 0
M  V30 18765 N 1810.67 0.820125 1.3458 0
M  V30 18766 C 1811.92 0.407473 1.98664 0
M  V30 18767 C 1812.25 -1.02613 1.64877 0
M  V30 18768 O 1811.53 -1.71421 0.918964 0
M  V30 18769 C 1811.81 0.606744 3.54952 0
M  V30 18770 C 1811.66 2.08626 3.98491 0
M  V30 18771 C 1812.98 0.0409321 4.40081 0
M  V30 18772 H 1810.1 0.149524 0.721673 0
M  V30 18773 H 1812.74 1.03217 1.59519 0
M  V30 18774 H 1810.89 0.0749788 3.88428 0
M  V30 18775 H 1812.56 2.68144 3.75361 0
M  V30 18776 H 1810.81 2.57774 3.48905 0
M  V30 18777 H 1811.48 2.17651 5.07279 0
M  V30 18778 H 1813.95 0.495234 4.13142 0
M  V30 18779 H 1812.83 0.210182 5.48497 0
M  V30 18780 H 1813.09 -1.05389 4.29355 0
M  V30 18781 N 1812.15 -1.46743 0.574835 0
M  V30 18782 C 1813.38 -2.07311 0.0608779 0
M  V30 18783 C 1813.8 -1.422 -1.23129 0
M  V30 18784 O 1813.16 -0.503042 -1.74181 0
M  V30 18785 C 1813.21 -3.60462 -0.0996676 0
M  V30 18786 O 1812.31 -3.95806 -1.15808 0
M  V30 18787 H 1811.65 -0.661351 0.0592542 0
M  V30 18788 H 1814.18 -1.885 0.795538 0
M  V30 18789 H 1814.19 -4.06833 -0.308329 0
M  V30 18790 H 1812.87 -4.07246 0.844018 0
M  V30 18791 H 1811.44 -3.61155 -0.928504 0
M  V30 18792 N 1813.63 -0.312197 -1.54477 0
M  V30 18793 C 1814.58 0.558894 -2.23931 0
M  V30 18794 C 1815.55 1.12071 -1.22594 0
M  V30 18795 O 1816.73 1.16316 -1.51245 0
M  V30 18796 C 1813.87 1.71948 -2.99212 0
M  V30 18797 C 1812.98 1.18799 -4.15344 0
M  V30 18798 C 1812.12 2.31334 -4.78182 0
M  V30 18799 C 1811.16 1.75375 -5.86438 0
M  V30 18800 N 1810.29 2.81528 -6.43184 0
M  V30 18801 H 1815.13 -0.0399708 -2.97973 0
M  V30 18802 H 1812.67 -0.0314967 -1.47066 0
M  V30 18803 H 1814.63 2.40225 -3.41098 0
M  V30 18804 H 1813.26 2.28981 -2.27525 0
M  V30 18805 H 1812.31 0.397122 -3.78321 0
M  V30 18806 H 1813.62 0.738426 -4.93304 0
M  V30 18807 H 1812.78 3.07537 -5.22978 0
M  V30 18808 H 1811.52 2.79622 -3.99578 0
M  V30 18809 H 1810.52 0.976658 -5.41056 0
M  V30 18810 H 1811.75 1.27978 -6.66932 0
M  V30 18811 H 1809.69 3.29129 -5.6746 0
M  V30 18812 H 1809.61 2.41101 -7.16524 0
M  V30 18813 H 1810.88 3.57595 -6.92637 0
M  V30 18814 N 1815.11 1.57549 -0.040136 0
M  V30 18815 C 1816.33 1.96557 0.645986 0
M  V30 18816 C 1816.75 0.91717 1.65026 0
M  V30 18817 O 1816.11 -0.0998395 1.82227 0
M  V30 18818 C 1816.16 3.35641 1.34266 0
M  V30 18819 O 1815.88 4.36461 0.378616 0
M  V30 18820 C 1817.38 3.89344 2.11957 0
M  V30 18821 H 1814.6 0.64713 0.177379 0
M  V30 18822 H 1817.14 2.0424 -0.103167 0
M  V30 18823 H 1815.3 3.29143 2.04312 0
M  V30 18824 H 1815.71 5.17157 0.874592 0
M  V30 18825 H 1817.19 4.88975 2.5614 0
M  V30 18826 H 1817.66 3.24178 2.96319 0
M  V30 18827 H 1818.27 3.99145 1.46845 0
M  V30 18828 N 1816.58 -0.233136 1.55866 0
M  V30 18829 C 1817.51 -1.29225 1.94482 0
M  V30 18830 C 1818.5 -1.49495 0.811503 0
M  V30 18831 O 1819.68 -1.61872 1.07289 0
M  V30 18832 C 1816.81 -2.64435 2.25147 0
M  V30 18833 C 1815.76 -2.5884 3.4086 0
M  V30 18834 C 1815.09 -3.97973 3.57102 0
M  V30 18835 C 1816.39 -2.14629 4.76164 0
M  V30 18836 H 1818.08 -0.971527 2.83199 0
M  V30 18837 H 1815.63 -0.465905 1.36255 0
M  V30 18838 H 1817.58 -3.38676 2.50752 0
M  V30 18839 H 1816.31 -2.98172 1.33271 0
M  V30 18840 H 1814.97 -1.87057 3.15286 0
M  V30 18841 H 1814.61 -4.28998 2.62621 0
M  V30 18842 H 1814.31 -3.95114 4.34924 0
M  V30 18843 H 1815.84 -4.73893 3.85043 0
M  V30 18844 H 1817.25 -2.78607 5.0105 0
M  V30 18845 H 1815.65 -2.22853 5.57186 0
M  V30 18846 H 1816.72 -1.09826 4.72299 0
M  V30 18847 N 1818.06 -1.49479 -0.499372 0
M  V30 18848 C 1819.31 -1.58734 -1.25092 0
M  V30 18849 C 1819.63 -0.276701 -1.93027 0
M  V30 18850 O 1818.9 0.704058 -1.82811 0
M  V30 18851 H 1817.48 -0.584857 -0.464706 0
M  V30 18852 H 1820.14 -1.86113 -0.578608 0
M  V30 18853 H 1819.24 -2.38422 -2.01399 0
M  V30 18854 N 1819.54 0.750537 -1.38581 0
M  V30 18855 C 1820.79 1.51198 -1.35156 0
M  V30 18856 C 1821.12 1.94115 0.0574068 0
M  V30 18857 O 1820.4 1.65657 1.01922 0
M  V30 18858 C 1820.68 2.76245 -2.30999 0
M  V30 18859 C 1820.53 2.39446 -3.8077 0
M  V30 18860 C 1821.85 3.78282 -2.24924 0
M  V30 18861 H 1818.97 0.548488 -0.492271 0
M  V30 18862 H 1821.61 0.859402 -1.69453 0
M  V30 18863 H 1819.76 3.31928 -2.01882 0
M  V30 18864 H 1821.43 1.89515 -4.20573 0
M  V30 18865 H 1819.68 1.71866 -3.98302 0
M  V30 18866 H 1820.35 3.28926 -4.43296 0
M  V30 18867 H 1822.82 3.32146 -2.50636 0
M  V30 18868 H 1821.7 4.63467 -2.94091 0
M  V30 18869 H 1821.96 4.24088 -1.24908 0
M  V30 18870 N 1821.02 1.235 0.979051 0
M  V30 18871 C 1822.3 0.976124 1.69503 0
M  V30 18872 C 1822.68 -0.504883 2.04974 0
M  V30 18873 O 1822.02 -1.47642 1.74397 0
M  V30 18874 C 1822.23 1.8877 2.93542 0
M  V30 18875 C 1823.58 2.15196 3.66027 0
M  V30 18876 O 1824.61 1.8633 3.03578 0
M  V30 18877 O 1823.47 2.64157 4.78417 0
M  V30 18878 H 1820.56 0.36825 0.740487 0
M  V30 18879 H 1823.11 1.34549 1.03415 0
M  V30 18880 H 1821.88 2.88882 2.63937 0
M  V30 18881 H 1821.5 1.52079 3.67366 0
M  V30 18882 N 1822.5 -1.17802 1.04693 0
M  V30 18883 C 1823.43 -2.23847 0.664448 0
M  V30 18884 C 1824.41 -1.66761 -0.335356 0
M  V30 18885 O 1825.59 -1.93017 -0.214062 0
M  V30 18886 C 1822.72 -3.47284 0.0331587 0
M  V30 18887 C 1821.68 -4.1716 0.95718 0
M  V30 18888 C 1821 -5.34362 0.190034 0
M  V30 18889 C 1822.3 -4.69951 2.2791 0
M  V30 18890 H 1824 -2.56095 1.55099 0
M  V30 18891 H 1821.54 -1.23097 0.747196 0
M  V30 18892 H 1823.5 -4.2068 -0.246178 0
M  V30 18893 H 1822.22 -3.14288 -0.888294 0
M  V30 18894 H 1820.88 -3.45669 1.221 0
M  V30 18895 H 1820.53 -4.97615 -0.734025 0
M  V30 18896 H 1820.23 -5.8205 0.805684 0
M  V30 18897 H 1821.75 -6.10545 -0.0821372 0
M  V30 18898 H 1823.17 -5.3501 2.06003 0
M  V30 18899 H 1821.56 -5.28198 2.84828 0
M  V30 18900 H 1822.63 -3.87032 2.9212 0
M  V30 18901 N 1823.98 -0.827251 -1.34143 0
M  V30 18902 C 1825.22 -0.418003 -1.98445 0
M  V30 18903 C 1825.55 1.01737 -1.65418 0
M  V30 18904 O 1824.83 1.70932 -0.928042 0
M  V30 18905 C 1825.11 -0.625559 -3.54625 0
M  V30 18906 C 1824.97 -2.10736 -3.97379 0
M  V30 18907 C 1826.28 -0.0642701 -4.40053 0
M  V30 18908 H 1823.4 -0.15335 -0.72087 0
M  V30 18909 H 1826.05 -1.04062 -1.58969 0
M  V30 18910 H 1824.2 -0.095577 -3.88382 0
M  V30 18911 H 1825.87 -2.70131 -3.73934 0
M  V30 18912 H 1824.11 -2.59621 -3.47533 0
M  V30 18913 H 1824.78 -2.20338 -5.06118 0
M  V30 18914 H 1827.26 -0.517137 -4.12874 0
M  V30 18915 H 1826.13 -0.239267 -5.48378 0
M  V30 18916 H 1826.39 1.0311 -4.29908 0
M  V30 18917 N 1825.45 1.46436 -0.582609 0
M  V30 18918 C 1826.42 2.28769 0.140502 0
M  V30 18919 C 1827.42 1.38385 0.818911 0
M  V30 18920 O 1828.61 1.60763 0.670882 0
M  V30 18921 C 1825.74 3.18765 1.20836 0
M  V30 18922 H 1826.93 2.94178 -0.583049 0
M  V30 18923 H 1824.48 1.52544 -0.340575 0
M  V30 18924 H 1825.22 2.58103 1.9635 0
M  V30 18925 H 1825 3.85312 0.726417 0
M  V30 18926 H 1826.49 3.80735 1.71553 0
M  V30 18927 N 1826.93 0.320385 1.54309 0
M  V30 18928 C 1827.86 -0.539789 2.27175 0
M  V30 18929 C 1828.84 -1.12198 1.2785 0
M  V30 18930 O 1830.03 -1.1477 1.56657 0
M  V30 18931 C 1827.16 -1.70236 3.02716 0
M  V30 18932 C 1826.11 -1.24962 4.09351 0
M  V30 18933 C 1825.44 -2.49888 4.72715 0
M  V30 18934 C 1826.74 -0.366788 5.21011 0
M  V30 18935 H 1828.43 0.0680079 2.99323 0
M  V30 18936 H 1825.98 0.0341488 1.4396 0
M  V30 18937 H 1827.93 -2.31037 3.5242 0
M  V30 18938 H 1826.65 -2.33669 2.2818 0
M  V30 18939 H 1825.31 -0.664556 3.60526 0
M  V30 18940 H 1824.96 -3.11679 3.94798 0
M  V30 18941 H 1824.66 -2.20288 5.44745 0
M  V30 18942 H 1826.19 -3.11458 5.25192 0
M  V30 18943 H 1827.6 -0.881001 5.6649 0
M  V30 18944 H 1826 -0.163707 5.99877 0
M  V30 18945 H 1827.07 0.603185 4.81134 0
M  V30 18946 N 1828.41 -1.57525 0.0484906 0
M  V30 18947 C 1829.37 -2.10275 -0.911987 0
M  V30 18948 C 1830.37 -1.02178 -1.24163 0
M  V30 18949 O 1831.56 -1.28262 -1.17875 0
M  V30 18950 C 1828.69 -2.58475 -2.22269 0
M  V30 18951 H 1829.89 -2.96432 -0.454768 0
M  V30 18952 H 1827.44 -1.55017 -0.19987 0
M  V30 18953 H 1828.18 -1.75704 -2.72578 0
M  V30 18954 H 1827.96 -3.37466 -1.99648 0
M  V30 18955 H 1829.45 -2.99443 -2.91074 0
M  V30 18956 N 1829.89 0.224867 -1.55988 0
M  V30 18957 C 1831.12 0.966727 -1.82926 0
M  V30 18958 C 1831.53 1.78078 -0.627177 0
M  V30 18959 O 1830.89 1.77966 0.404277 0
M  V30 18960 C 1830.94 1.88696 -3.08344 0
M  V30 18961 O 1830.66 1.10581 -4.23914 0
M  V30 18962 C 1832.16 2.74299 -3.48246 0
M  V30 18963 H 1829.38 0.283479 -0.608178 0
M  V30 18964 H 1831.92 0.241097 -2.03074 0
M  V30 18965 H 1830.08 2.56658 -2.90182 0
M  V30 18966 H 1830.49 1.73019 -4.95141 0
M  V30 18967 H 1831.97 3.34577 -4.39047 0
M  V30 18968 H 1832.44 3.46526 -2.69845 0
M  V30 18969 H 1833.05 2.11755 -3.68836 0
M  V30 18970 N 1831.37 1.49742 0.491438 0
M  V30 18971 C 1832.78 1.36717 0.823454 0
M  V30 18972 C 1832.98 0.407587 1.97335 0
M  V30 18973 O 1832.04 -0.157251 2.5201 0
M  V30 18974 C 1833.35 2.77647 1.15466 0
M  V30 18975 C 1834.9 2.86417 1.26231 0
M  V30 18976 C 1835.37 4.28136 1.62676 0
M  V30 18977 N 1836.86 4.30992 1.69707 0
M  V30 18978 C 1837.6 5.37624 1.9937 0
M  V30 18979 N 1837.1 6.54489 2.27192 0
M  V30 18980 N 1838.89 5.25048 2.00701 0
M  V30 18981 H 1831.04 2.10719 -0.266676 0
M  V30 18982 H 1833.3 0.946301 -0.0567377 0
M  V30 18983 H 1833.01 3.49608 0.382994 0
M  V30 18984 H 1832.88 3.13617 2.09582 0
M  V30 18985 H 1835.27 2.14687 2.02468 0
M  V30 18986 H 1835.35 2.54018 0.301434 0
M  V30 18987 H 1834.99 5.00396 0.869859 0
M  V30 18988 H 1834.92 4.58007 2.59879 0
M  V30 18989 H 1837.42 3.46713 1.50327 0
M  V30 18990 H 1837.73 7.31572 2.49041 0
M  V30 18991 H 1836.07 6.57699 2.24627 0
M  V30 18992 H 1839.26 4.32751 1.78449 0
M  V30 18993 H 1839.44 6.08242 2.23484 0
M  V30 18994 N 1832.84 -0.743177 1.38977 0
M  V30 18995 C 1834.09 -1.50479 1.35956 0
M  V30 18996 C 1834.42 -1.94143 -0.0471116 0
M  V30 18997 O 1833.7 -1.66195 -1.01042 0
M  V30 18998 C 1833.98 -2.75016 2.32461 0
M  V30 18999 C 1833.83 -2.37423 3.82034 0
M  V30 19000 C 1835.15 -3.77084 2.26927 0
M  V30 19001 H 1832.27 -0.545869 0.495172 0
M  V30 19002 H 1834.91 -0.850403 1.69906 0
M  V30 19003 H 1833.06 -3.30852 2.03639 0
M  V30 19004 H 1834.74 -1.87282 4.21572 0
M  V30 19005 H 1832.98 -1.69752 3.99208 0
M  V30 19006 H 1833.65 -3.2657 4.45035 0
M  V30 19007 H 1836.13 -3.30812 2.52394 0
M  V30 19008 H 1835 -4.61901 2.96545 0
M  V30 19009 H 1835.26 -4.23419 1.27156 0
M  V30 19010 N 1834.32 -1.24018 -0.972487 0
M  V30 19011 C 1835.57 -1.07105 -1.70913 0
M  V30 19012 C 1835.88 0.390908 -1.91654 0
M  V30 19013 O 1837.09 0.68013 -2.62843 0
M  V30 19014 C 1835.55 -1.86823 -3.07612 0
M  V30 19015 C 1835.15 -3.37399 -2.94731 0
M  V30 19016 C 1836.9 -1.78425 -3.85182 0
M  V30 19017 C 1834.81 -4.09479 -4.2671 0
M  V30 19018 H 1833.74 -0.397184 -0.640907 0
M  V30 19019 H 1836.39 -1.48056 -1.08405 0
M  V30 19020 H 1834.77 -1.38683 -3.70922 0
M  V30 19021 H 1835.94 -3.93084 -2.40462 0
M  V30 19022 H 1834.26 -3.46697 -2.3063 0
M  V30 19023 H 1836.85 -2.29584 -4.82903 0
M  V30 19024 H 1837.2 -0.748555 -4.09515 0
M  V30 19025 H 1837.73 -2.24219 -3.28589 0
M  V30 19026 H 1834.47 -5.13387 -4.07571 0
M  V30 19027 H 1833.99 -3.5858 -4.80812 0
M  V30 19028 H 1835.67 -4.16212 -4.95355 0
M  V30 19029 N 1835.8 1.17245 -1.05316 0
M  V30 19030 C 1836.73 2.20183 -0.599551 0
M  V30 19031 C 1837.71 1.58275 0.37251 0
M  V30 19032 O 1838.9 1.86351 0.283832 0
M  V30 19033 C 1836.02 3.38479 0.12241 0
M  V30 19034 C 1835.07 4.18837 -0.804859 0
M  V30 19035 S 1835.9 4.83842 -2.29471 0
M  V30 19036 C 1837.06 6.05526 -1.58396 0
M  V30 19037 H 1837.29 2.5832 -1.47168 0
M  V30 19038 H 1834.82 1.27879 -0.865235 0
M  V30 19039 H 1836.78 4.07028 0.532755 0
M  V30 19040 H 1835.44 2.98728 0.970592 0
M  V30 19041 H 1834.64 5.03399 -0.246111 0
M  V30 19042 H 1834.24 3.55731 -1.15463 0
M  V30 19043 H 1836.53 6.71708 -0.883988 0
M  V30 19044 H 1837.47 6.65931 -2.4071 0
M  V30 19045 H 1837.88 5.5425 -1.07083 0
M  V30 19046 N 1837.28 0.834353 1.33702 0
M  V30 19047 C 1838.53 0.427042 1.97537 0
M  V30 19048 C 1838.85 -1.01607 1.66436 0
M  V30 19049 O 1838.12 -1.70711 0.960958 0
M  V30 19050 H 1836.7 0.154921 0.730759 0
M  V30 19051 H 1839.36 1.06632 1.63143 0
M  V30 19052 H 1838.46 0.555396 3.07118 0
M  V30 19053 N 1838.76 -1.46125 0.590367 0
M  V30 19054 C 1839.67 -2.34177 -0.140761 0
M  V30 19055 C 1840.68 -1.50213 -0.878181 0
M  V30 19056 O 1841.86 -1.83063 -0.839644 0
M  V30 19057 C 1838.92 -3.27537 -1.13669 0
M  V30 19058 C 1837.98 -4.27403 -0.403103 0
M  V30 19059 C 1837.22 -5.16302 -1.35159 0
M  V30 19060 O 1837.44 -5.08283 -2.58853 0
M  V30 19061 O 1836.37 -5.95753 -0.858003 0
M  V30 19062 H 1840.2 -2.98063 0.582401 0
M  V30 19063 H 1837.79 -1.45225 0.35072 0
M  V30 19064 H 1839.67 -3.85112 -1.71074 0
M  V30 19065 H 1838.34 -2.66237 -1.84118 0
M  V30 19066 H 1837.25 -3.73493 0.212986 0
M  V30 19067 H 1838.58 -4.9151 0.260565 0
M  V30 19068 N 1840.23 -0.328564 -1.54137 0
M  V30 19069 C 1841.14 0.543922 -2.28207 0
M  V30 19070 C 1842.16 1.1249 -1.32748 0
M  V30 19071 O 1843.34 1.1438 -1.65769 0
M  V30 19072 C 1840.4 1.6864 -3.02922 0
M  V30 19073 C 1839.46 1.13672 -4.13977 0
M  V30 19074 C 1838.7 2.22474 -4.85119 0
M  V30 19075 O 1838.92 3.42914 -4.55813 0
M  V30 19076 O 1837.85 1.87611 -5.71914 0
M  V30 19077 H 1841.68 -0.0577601 -3.03645 0
M  V30 19078 H 1839.26 -0.0940895 -1.49103 0
M  V30 19079 H 1841.15 2.35143 -3.49693 0
M  V30 19080 H 1839.82 2.27417 -2.30355 0
M  V30 19081 H 1838.73 0.436625 -3.71543 0
M  V30 19082 H 1840.06 0.594012 -4.88602 0
M  V30 19083 N 1841.71 1.57497 -0.0568439 0
M  V30 19084 C 1842.96 1.932 0.61658 0
M  V30 19085 C 1843.29 0.935936 1.70158 0
M  V30 19086 O 1842.57 -0.0372005 1.94464 0
M  V30 19087 C 1842.85 3.39254 1.20742 0
M  V30 19088 C 1842.7 4.49612 0.130081 0
M  V30 19089 C 1844.02 3.85817 2.11738 0
M  V30 19090 H 1841.14 0.702558 0.222668 0
M  V30 19091 H 1843.78 1.89622 -0.119765 0
M  V30 19092 H 1841.93 3.42434 1.83497 0
M  V30 19093 H 1843.6 4.58559 -0.502172 0
M  V30 19094 H 1841.85 4.30411 -0.541167 0
M  V30 19095 H 1842.52 5.48906 0.583606 0
M  V30 19096 H 1844.99 3.8455 1.58936 0
M  V30 19097 H 1843.87 4.88653 2.50019 0
M  V30 19098 H 1844.13 3.22899 3.01974 0
M  V30 19099 N 1843.19 -0.216591 1.56105 0
M  V30 19100 C 1844.1 -1.28933 1.95994 0
M  V30 19101 C 1845.12 -1.51007 0.864464 0
M  V30 19102 O 1846.29 -1.6404 1.16845 0
M  V30 19103 C 1843.36 -2.61807 2.27284 0
M  V30 19104 C 1842.42 -2.47992 3.50426 0
M  V30 19105 C 1841.65 -3.7453 3.80214 0
M  V30 19106 O 1841.87 -4.77765 3.11604 0
M  V30 19107 O 1840.81 -3.71345 4.73694 0
M  V30 19108 H 1844.63 -0.980864 2.87424 0
M  V30 19109 H 1842.22 -0.419859 1.43379 0
M  V30 19110 H 1844.1 -3.40272 2.48582 0
M  V30 19111 H 1842.78 -2.92324 1.39026 0
M  V30 19112 H 1841.68 -1.67711 3.34401 0
M  V30 19113 H 1843.02 -2.22413 4.39082 0
M  V30 19114 N 1844.67 -1.5 -0.48349 0
M  V30 19115 C 1846.08 -1.53369 -1.06466 0
M  V30 19116 C 1846.43 -0.329973 -1.93405 0
M  V30 19117 O 1845.56 0.558444 -2.0907 0
M  V30 19118 C 1846.15 -2.77927 -1.93757 0
M  V30 19119 C 1844.71 -2.84017 -2.47005 0
M  V30 19120 C 1843.86 -2.47506 -1.25044 0
M  V30 19121 H 1846.81 -1.56444 -0.266633 0
M  V30 19122 H 1846.83 -2.59081 -2.78671 0
M  V30 19123 H 1846.34 -3.65518 -1.30454 0
M  V30 19124 H 1844.44 -2.00748 -3.13896 0
M  V30 19125 H 1844.55 -3.86614 -2.8296 0
M  V30 19126 H 1842.92 -1.99669 -1.58127 0
M  V30 19127 H 1843.7 -3.37391 -0.634225 0
M  V30 19128 N 1846.15 0.735796 -1.39369 0
M  V30 19129 C 1847.39 1.49756 -1.36752 0
M  V30 19130 C 1847.73 1.94165 0.036815 0
M  V30 19131 O 1847 1.66728 1.00159 0
M  V30 19132 C 1847.28 2.73779 -2.33916 0
M  V30 19133 C 1847.14 2.35394 -3.83288 0
M  V30 19134 C 1848.46 3.75875 -2.28924 0
M  V30 19135 H 1845.57 0.543236 -0.49806 0
M  V30 19136 H 1848.22 0.841381 -1.70355 0
M  V30 19137 H 1846.37 3.29768 -2.05391 0
M  V30 19138 H 1848.04 1.85043 -4.2256 0
M  V30 19139 H 1846.28 1.67632 -4.00102 0
M  V30 19140 H 1846.95 3.24206 -4.4676 0
M  V30 19141 H 1849.43 3.29469 -2.54144 0
M  V30 19142 H 1848.3 4.60321 -2.98991 0
M  V30 19143 H 1848.57 4.22739 -1.29399 0
M  V30 19144 N 1847.63 1.24532 0.965897 0
M  V30 19145 C 1848.87 1.08395 1.70572 0
M  V30 19146 C 1849.19 -0.377657 1.91308 0
M  V30 19147 O 1848.46 -1.26935 1.49212 0
M  V30 19148 H 1847.04 0.398123 0.632066 0
M  V30 19149 H 1849.71 1.5648 1.1619 0
M  V30 19150 H 1848.8 1.58342 2.6895 0
M  V30 19151 N 1849.1 -1.16685 1.05936 0
M  V30 19152 C 1850.03 -2.23129 0.688153 0
M  V30 19153 C 1851.01 -1.67108 -0.31765 0
M  V30 19154 O 1852.2 -1.93233 -0.193578 0
M  V30 19155 C 1849.33 -3.47229 0.069991 0
M  V30 19156 C 1848.28 -4.16121 1.00137 0
M  V30 19157 C 1847.61 -5.34131 0.246699 0
M  V30 19158 C 1848.91 -4.67508 2.32882 0
M  V30 19159 H 1850.6 -2.54436 1.57806 0
M  V30 19160 H 1848.15 -1.22298 0.76021 0
M  V30 19161 H 1850.1 -4.20918 -0.201545 0
M  V30 19162 H 1848.83 -3.15212 -0.854909 0
M  V30 19163 H 1847.49 -3.44355 1.25759 0
M  V30 19164 H 1847.13 -4.98366 -0.681204 0
M  V30 19165 H 1846.83 -5.81163 0.867373 0
M  V30 19166 H 1848.36 -6.10598 -0.0173762 0
M  V30 19167 H 1849.77 -5.32795 2.11666 0
M  V30 19168 H 1848.17 -5.25147 2.90414 0
M  V30 19169 H 1849.24 -3.83912 2.96209 0
M  V30 19170 N 1850.58 -0.841432 -1.33258 0
M  V30 19171 C 1851.51 -0.221485 -2.27123 0
M  V30 19172 C 1852.49 0.632879 -1.49778 0
M  V30 19173 O 1853.68 0.592581 -1.78943 0
M  V30 19174 C 1850.8 0.688784 -3.31622 0
M  V30 19175 C 1849.85 -0.0904563 -4.26404 0
M  V30 19176 S 1850.68 -1.45006 -5.15493 0
M  V30 19177 C 1851.84 -0.545159 -6.23521 0
M  V30 19178 H 1852.07 -1.01723 -2.79356 0
M  V30 19179 H 1849.6 -0.638326 -1.40587 0
M  V30 19180 H 1851.56 1.20836 -3.92312 0
M  V30 19181 H 1850.22 1.45821 -2.78199 0
M  V30 19182 H 1849.42 0.602296 -5.00388 0
M  V30 19183 H 1849.02 -0.541181 -3.70064 0
M  V30 19184 H 1851.31 0.255962 -6.77016 0
M  V30 19185 H 1852.25 -1.25524 -6.96885 0
M  V30 19186 H 1852.66 -0.125368 -5.64361 0
M  V30 19187 N 1852.06 1.4581 -0.598108 0
M  V30 19188 C 1853.29 2.06679 -0.0956921 0
M  V30 19189 C 1853.7 1.44435 1.2159 0
M  V30 19190 O 1853.06 0.555104 1.73853 0
M  V30 19191 C 1853.11 3.61449 0.0604873 0
M  V30 19192 O 1852.83 4.21368 -1.1992 0
M  V30 19193 C 1854.33 4.39282 0.595466 0
M  V30 19194 H 1851.55 0.667893 -0.0644954 0
M  V30 19195 H 1854.1 1.87202 -0.823151 0
M  V30 19196 H 1852.25 3.80301 0.738231 0
M  V30 19197 H 1852.67 5.1443 -1.02282 0
M  V30 19198 H 1854.14 5.48114 0.653868 0
M  V30 19199 H 1854.62 4.084 1.61575 0
M  V30 19200 H 1855.22 4.25273 -0.0479171 0
M  V30 19201 N 1853.54 0.336733 1.53961 0
M  V30 19202 C 1854.79 -0.261343 2.00403 0
M  V30 19203 C 1855.11 -1.51612 1.22633 0
M  V30 19204 O 1854.38 -1.93072 0.331659 0
M  V30 19205 H 1852.96 -0.0995594 0.740336 0
M  V30 19206 H 1855.62 0.456319 1.89483 0
M  V30 19207 H 1854.71 -0.508557 3.07929 0
M  V30 19208 N 1855.02 -1.57465 0.0651956 0
M  V30 19209 C 1856.24 -1.97975 -0.618099 0
M  V30 19210 C 1856.67 -0.943068 -1.62751 0
M  V30 19211 O 1856.02 0.0921045 -1.81066 0
M  V30 19212 C 1856.07 -3.37533 -1.26902 0
M  V30 19213 O 1855.18 -3.36451 -2.38483 0
M  V30 19214 H 1854.52 -0.644553 -0.159524 0
M  V30 19215 H 1857.05 -2.04136 0.137754 0
M  V30 19216 H 1857.06 -3.74571 -1.61742 0
M  V30 19217 H 1855.73 -4.12518 -0.529334 0
M  V30 19218 H 1854.31 -3.11175 -2.05486 0
M  V30 19219 N 1856.49 0.20831 -1.56217 0
M  V30 19220 C 1857.74 0.928886 -1.79488 0
M  V30 19221 C 1858.06 1.84337 -0.636 0
M  V30 19222 O 1857.33 1.92813 0.346416 0
M  V30 19223 H 1855.91 0.345985 -0.662045 0
M  V30 19224 H 1858.57 0.216988 -1.93688 0
M  V30 19225 H 1857.67 1.52786 -2.72145 0
M  V30 19226 N 1857.97 1.50255 0.475528 0
M  V30 19227 C 1859.22 1.61261 1.22975 0
M  V30 19228 C 1859.55 0.309949 1.91711 0
M  V30 19229 O 1858.83 -0.688288 1.81914 0
M  V30 19230 C 1859.11 2.7898 2.27688 0
M  V30 19231 C 1858.96 4.19115 1.63287 0
M  V30 19232 C 1860.28 2.9227 3.29038 0
M  V30 19233 H 1857.4 0.586933 0.445734 0
M  V30 19234 H 1860.04 1.82626 0.524177 0
M  V30 19235 H 1858.19 2.60894 2.87865 0
M  V30 19236 H 1859.86 4.48781 1.06741 0
M  V30 19237 H 1858.11 4.23579 0.936127 0
M  V30 19238 H 1858.78 4.97405 2.39359 0
M  V30 19239 H 1861.25 3.08813 2.78879 0
M  V30 19240 H 1860.13 3.7627 3.9964 0
M  V30 19241 H 1860.39 2.02696 3.92895 0
M  V30 19242 N 1859.45 -0.728395 1.39758 0
M  V30 19243 C 1860.7 -1.49028 1.37544 0
M  V30 19244 C 1861.03 -1.94182 -0.0265175 0
M  V30 19245 O 1860.3 -1.67257 -0.992737 0
M  V30 19246 C 1860.59 -2.72535 2.35365 0
M  V30 19247 C 1860.44 -2.33358 3.84531 0
M  V30 19248 C 1861.76 -3.74656 2.30914 0
M  V30 19249 H 1858.88 -0.540587 0.500934 0
M  V30 19250 H 1861.52 -0.832335 1.70799 0
M  V30 19251 H 1859.67 -3.28674 2.07137 0
M  V30 19252 H 1861.34 -1.828 4.23535 0
M  V30 19253 H 1859.58 -1.65508 4.00986 0
M  V30 19254 H 1860.26 -3.21832 4.48473 0
M  V30 19255 H 1862.73 -3.28117 2.55888 0
M  V30 19256 H 1861.61 -4.58729 3.01428 0
M  V30 19257 H 1861.87 -4.22047 1.31639 0
M  V30 19258 N 1860.93 -1.25042 -0.959279 0
M  V30 19259 C 1862.18 -1.09298 -1.69995 0
M  V30 19260 C 1862.5 0.367507 -1.91506 0
M  V30 19261 O 1861.77 1.26142 -1.49883 0
M  V30 19262 H 1860.35 -0.401469 -0.629945 0
M  V30 19263 H 1863.01 -1.57094 -1.15358 0
M  V30 19264 H 1862.1 -1.59766 -2.68107 0
M  V30 19265 N 1862.41 1.16121 -1.06553 0
M  V30 19266 C 1863.65 1.86991 -0.784989 0
M  V30 19267 C 1863.99 1.81645 0.686919 0
M  V30 19268 O 1863.26 1.23394 1.50347 0
M  V30 19269 C 1863.54 3.36448 -1.28355 0
M  V30 19270 C 1863.4 3.5047 -2.81941 0
M  V30 19271 C 1864.72 4.30933 -0.893561 0
M  V30 19272 H 1861.83 0.678978 -0.286633 0
M  V30 19273 H 1864.48 1.36475 -1.32192 0
M  V30 19274 H 1862.63 3.796 -0.826796 0
M  V30 19275 H 1864.3 3.16237 -3.35845 0
M  V30 19276 H 1862.54 2.92294 -3.20541 0
M  V30 19277 H 1863.21 4.55443 -3.11891 0
M  V30 19278 H 1865.69 3.95696 -1.287 0
M  V30 19279 H 1864.56 5.3401 -1.26984 0
M  V30 19280 H 1864.83 4.41642 0.201274 0
M  V30 19281 N 1863.88 0.848487 1.3281 0
M  V30 19282 C 1864.83 0.286636 2.29013 0
M  V30 19283 C 1865.8 -0.602944 1.5477 0
M  V30 19284 O 1866.99 -0.539169 1.83024 0
M  V30 19285 C 1864.13 -0.524193 3.41096 0
M  V30 19286 C 1863.24 0.390486 4.30232 0
M  V30 19287 C 1862.37 -0.432376 5.29437 0
M  V30 19288 C 1861.41 0.48009 6.10214 0
M  V30 19289 N 1860.55 -0.30522 7.01436 0
M  V30 19290 H 1865.39 1.1123 2.76463 0
M  V30 19291 H 1862.93 0.559956 1.36025 0
M  V30 19292 H 1864.89 -1.00987 4.04793 0
M  V30 19293 H 1863.52 -1.31474 2.94813 0
M  V30 19294 H 1862.57 0.994518 3.6717 0
M  V30 19295 H 1863.88 1.09103 4.86722 0
M  V30 19296 H 1863.03 -0.981471 5.98709 0
M  V30 19297 H 1861.77 -1.16631 4.73549 0
M  V30 19298 H 1860.78 1.04112 5.39853 0
M  V30 19299 H 1862 1.21254 6.68187 0
M  V30 19300 H 1859.95 -1.02236 6.47984 0
M  V30 19301 H 1859.87 0.336414 7.55251 0
M  V30 19302 H 1861.13 -0.836242 7.75001 0
M  V30 19303 N 1865.36 -1.4549 0.605832 0
M  V30 19304 C 1866.61 -2.02551 0.100487 0
M  V30 19305 C 1866.94 -1.47346 -1.26502 0
M  V30 19306 O 1866.22 -0.647471 -1.83407 0
M  V30 19307 C 1866.5 -3.60051 0.0596664 0
M  V30 19308 C 1866.35 -4.25592 1.45572 0
M  V30 19309 C 1867.67 -4.35581 -0.629073 0
M  V30 19310 H 1864.79 -0.73602 0.0379904 0
M  V30 19311 H 1867.43 -1.73365 0.777468 0
M  V30 19312 H 1865.58 -3.85047 -0.516838 0
M  V30 19313 H 1867.25 -4.11787 2.07916 0
M  V30 19314 H 1865.5 -3.84061 2.01692 0
M  V30 19315 H 1866.17 -5.34487 1.37941 0
M  V30 19316 H 1868.64 -4.15868 -0.139076 0
M  V30 19317 H 1867.52 -5.4531 -0.626735 0
M  V30 19318 H 1867.78 -4.08323 -1.69483 0
M  V30 19319 N 1866.84 -0.344893 -1.5378 0
M  V30 19320 C 1868.25 0.138727 -1.86184 0
M  V30 19321 C 1868.6 1.49882 -1.26609 0
M  V30 19322 O 1867.73 2.08478 -0.580174 0
M  V30 19323 C 1868.32 0.258502 -3.37812 0
M  V30 19324 C 1866.88 0.686356 -3.70089 0
M  V30 19325 C 1866.03 -0.179085 -2.76721 0
M  V30 19326 H 1868.98 -0.564442 -1.48323 0
M  V30 19327 H 1869 1.08576 -3.6468 0
M  V30 19328 H 1868.51 -0.731538 -3.81143 0
M  V30 19329 H 1866.61 1.68537 -3.32304 0
M  V30 19330 H 1866.73 0.475315 -4.76736 0
M  V30 19331 H 1865.09 0.348791 -2.523 0
M  V30 19332 H 1865.87 -1.16628 -3.22882 0
M  V30 19333 N 1868.32 1.57428 -0.0735454 0
M  V30 19334 C 1869.25 2.09808 0.922679 0
M  V30 19335 C 1870.26 1.0306 1.26026 0
M  V30 19336 O 1871.45 1.30568 1.21714 0
M  V30 19337 C 1868.55 2.54492 2.23801 0
M  V30 19338 C 1867.73 3.84832 2.07901 0
M  V30 19339 C 1866.78 4.15592 3.22754 0
M  V30 19340 O 1865.81 4.85163 2.97667 0
M  V30 19341 N 1867.01 3.69277 4.47901 0
M  V30 19342 H 1869.78 2.95905 0.475456 0
M  V30 19343 H 1867.34 1.61511 0.112135 0
M  V30 19344 H 1869.33 2.7213 2.99545 0
M  V30 19345 H 1867.9 1.73523 2.60016 0
M  V30 19346 H 1867.12 3.76557 1.16614 0
M  V30 19347 H 1868.41 4.70144 1.9453 0
M  V30 19348 H 1867.81 3.13076 4.71168 0
M  V30 19349 H 1866.36 3.92111 5.20665 0
M  V30 19350 N 1869.8 -0.200022 1.56326 0
M  V30 19351 C 1871.04 -0.921174 1.80335 0
M  V30 19352 C 1871.37 -1.83461 0.645946 0
M  V30 19353 O 1870.63 -1.92198 -0.368568 0
M  V30 19354 C 1870.93 -1.77356 3.1029 0
M  V30 19355 C 1870.59 -1.01153 4.39407 0
M  V30 19356 C 1869.25 -0.801112 4.74485 0
M  V30 19357 C 1871.61 -0.474992 5.19031 0
M  V30 19358 C 1868.93 -0.0425991 5.86685 0
M  V30 19359 C 1871.29 0.270286 6.32022 0
M  V30 19360 C 1869.95 0.491763 6.65686 0
M  V30 19361 H 1869.22 -0.337082 0.659892 0
M  V30 19362 H 1871.87 -0.187867 1.90576 0
M  V30 19363 H 1870.17 -2.57539 2.95264 0
M  V30 19364 H 1871.87 -2.33406 3.26071 0
M  V30 19365 H 1868.46 -1.18553 4.11877 0
M  V30 19366 H 1872.64 -0.624969 4.92349 0
M  V30 19367 H 1867.9 0.139015 6.11242 0
M  V30 19368 H 1872.07 0.693432 6.92939 0
M  V30 19369 H 1869.7 1.08142 7.52469 0
M  V30 19370 N 1871.27 -1.50505 -0.467553 0
M  V30 19371 C 1872.5 -1.65708 -1.24722 0
M  V30 19372 C 1872.92 -0.34155 -1.84973 0
M  V30 19373 O 1872.28 0.694993 -1.6745 0
M  V30 19374 C 1872.33 -2.75289 -2.32912 0
M  V30 19375 O 1871.43 -2.36788 -3.37646 0
M  V30 19376 H 1870.78 -0.55351 -0.366774 0
M  V30 19377 H 1873.31 -1.96901 -0.555988 0
M  V30 19378 H 1873.32 -2.98472 -2.7817 0
M  V30 19379 H 1871.99 -3.70765 -1.88431 0
M  V30 19380 H 1870.57 -2.24065 -2.98076 0
M  V30 19381 N 1872.75 0.720973 -1.40142 0
M  V30 19382 C 1874 1.48078 -1.38128 0
M  V30 19383 C 1874.33 1.94491 0.0181891 0
M  V30 19384 O 1873.58 1.68119 1.00172 0
M  V30 19385 C 1873.88 2.72513 -2.31239 0
M  V30 19386 C 1873.55 2.44893 -3.78601 0
M  V30 19387 C 1872.21 2.3707 -4.1875 0
M  V30 19388 C 1874.56 2.21598 -4.71745 0
M  V30 19389 C 1871.89 2.04013 -5.50087 0
M  V30 19390 C 1874.24 1.90055 -6.03375 0
M  V30 19391 C 1872.91 1.8071 -6.42573 0
M  V30 19392 H 1872.18 0.541854 -0.505446 0
M  V30 19393 H 1874.82 0.826311 -1.72755 0
M  V30 19394 H 1873.13 3.4277 -1.89778 0
M  V30 19395 H 1874.82 3.30586 -2.26967 0
M  V30 19396 H 1871.41 2.51866 -3.46788 0
M  V30 19397 H 1875.6 2.26601 -4.41549 0
M  V30 19398 H 1870.85 1.95311 -5.79365 0
M  V30 19399 H 1875.03 1.71042 -6.75069 0
M  V30 19400 H 1872.66 1.54862 -7.44259 0
M  V30 19401 N 1874.23 1.25549 0.952634 0
M  V30 19402 C 1875.46 1.13262 1.73743 0
M  V30 19403 C 1875.88 -0.309507 1.85536 0
M  V30 19404 O 1875.24 -1.22422 1.33726 0
M  V30 19405 C 1875.29 1.79395 3.12809 0
M  V30 19406 O 1874.39 1.07496 3.98144 0
M  V30 19407 H 1873.73 0.395314 0.5335 0
M  V30 19408 H 1876.26 1.66151 1.19394 0
M  V30 19409 H 1876.27 1.85761 3.63259 0
M  V30 19410 H 1874.95 2.84316 3.03542 0
M  V30 19411 H 1873.52 1.09025 3.56606 0
M  V30 19412 N 1875.71 -1.15554 1.07168 0
M  V30 19413 C 1877.12 -1.38284 0.796841 0
M  V30 19414 C 1877.32 -1.92366 -0.599782 0
M  V30 19415 O 1876.38 -2.1282 -1.35883 0
M  V30 19416 C 1877.69 -2.35553 1.8691 0
M  V30 19417 C 1879.24 -2.4922 1.89364 0
M  V30 19418 C 1879.72 -3.49778 2.95668 0
M  V30 19419 N 1881.21 -3.57312 2.94759 0
M  V30 19420 C 1881.94 -4.34934 3.73657 0
M  V30 19421 N 1881.44 -5.15905 4.624 0
M  V30 19422 N 1883.23 -4.30004 3.62012 0
M  V30 19423 H 1875.38 -0.787905 1.97246 0
M  V30 19424 H 1877.65 -0.40896 0.855252 0
M  V30 19425 H 1877.35 -2.02927 2.87252 0
M  V30 19426 H 1877.23 -3.3531 1.72763 0
M  V30 19427 H 1879.61 -2.81145 0.896745 0
M  V30 19428 H 1879.69 -1.49468 2.07589 0
M  V30 19429 H 1879.34 -3.18588 3.95556 0
M  V30 19430 H 1879.27 -4.4928 2.74691 0
M  V30 19431 H 1881.76 -2.99518 2.30429 0
M  V30 19432 H 1882.07 -5.72373 5.19238 0
M  V30 19433 H 1880.42 -5.15218 4.6645 0
M  V30 19434 H 1883.61 -3.65811 2.92061 0
M  V30 19435 H 1883.78 -4.90251 4.23743 0
M  V30 19436 N 1877.19 -0.855519 -1.32358 0
M  V30 19437 C 1878.12 -0.316159 -2.3135 0
M  V30 19438 C 1879.1 0.585159 -1.59718 0
M  V30 19439 O 1880.28 0.505221 -1.87513 0
M  V30 19440 C 1877.41 0.495577 -3.43746 0
M  V30 19441 C 1876.37 -0.311382 -4.26866 0
M  V30 19442 C 1875.69 0.625144 -5.31033 0
M  V30 19443 C 1876.99 -1.5376 -4.99154 0
M  V30 19444 H 1878.69 -1.14331 -2.7671 0
M  V30 19445 H 1876.23 -0.551221 -1.33032 0
M  V30 19446 H 1878.19 0.883325 -4.12038 0
M  V30 19447 H 1876.91 1.3561 -2.97115 0
M  V30 19448 H 1875.57 -0.680895 -3.60221 0
M  V30 19449 H 1875.22 1.48254 -4.80656 0
M  V30 19450 H 1874.92 0.0892112 -5.87532 0
M  V30 19451 H 1876.44 1.01005 -6.02188 0
M  V30 19452 H 1877.86 -1.2221 -5.60123 0
M  V30 19453 H 1876.25 -2.01153 -5.65382 0
M  V30 19454 H 1877.32 -2.29838 -4.26969 0
M  V30 19455 N 1878.67 1.45167 -0.61354 0
M  V30 19456 C 1879.63 2.29016 0.0919454 0
M  V30 19457 C 1880.63 1.40091 0.789373 0
M  V30 19458 O 1881.82 1.6215 0.636631 0
M  V30 19459 C 1878.95 3.21257 1.14048 0
M  V30 19460 H 1880.14 2.92875 -0.645317 0
M  V30 19461 H 1877.7 1.51788 -0.372855 0
M  V30 19462 H 1878.43 2.6221 1.90831 0
M  V30 19463 H 1878.22 3.86766 0.644523 0
M  V30 19464 H 1879.71 3.84288 1.63439 0
M  V30 19465 N 1880.14 0.353044 1.53595 0
M  V30 19466 C 1881.39 -0.240073 2.00669 0
M  V30 19467 C 1881.71 -1.50303 1.24234 0
M  V30 19468 O 1880.98 -1.92709 0.352118 0
M  V30 19469 H 1879.56 -0.0917016 0.74135 0
M  V30 19470 H 1882.22 0.47639 1.88988 0
M  V30 19471 H 1881.32 -0.475869 3.08451 0
M  V30 19472 N 1881.62 -1.57387 0.0818932 0
M  V30 19473 C 1882.58 -2.12162 -0.86718 0
M  V30 19474 C 1883.58 -1.04788 -1.21967 0
M  V30 19475 O 1884.77 -1.30733 -1.15128 0
M  V30 19476 C 1881.91 -2.63132 -2.16736 0
M  V30 19477 H 1883.1 -2.9733 -0.391788 0
M  V30 19478 H 1880.65 -1.55406 -0.166944 0
M  V30 19479 H 1881.39 -1.81446 -2.6879 0
M  V30 19480 H 1881.17 -3.41625 -1.92445 0
M  V30 19481 H 1882.66 -3.05549 -2.84657 0
M  V30 19482 N 1883.1 0.191729 -1.56429 0
M  V30 19483 C 1884.38 0.937684 -1.71659 0
M  V30 19484 C 1884.76 2.0124 -0.63762 0
M  V30 19485 O 1884.1 2.2579 0.350865 0
M  V30 19486 C 1884.31 1.52104 -3.14111 0
M  V30 19487 C 1885.66 2.00186 -3.74447 0
M  V30 19488 O 1886.69 1.61939 -3.1726 0
M  V30 19489 O 1885.55 2.70576 -4.74817 0
M  V30 19490 H 1882.64 0.439962 -0.700259 0
M  V30 19491 H 1885.19 0.181161 -1.6873 0
M  V30 19492 H 1883.96 0.746526 -3.84113 0
M  V30 19493 H 1883.58 2.3423 -3.21282 0
M  V30 19494 N 1884.58 1.50751 0.459565 0
M  V30 19495 C 1885.82 1.62556 1.21258 0
M  V30 19496 C 1886.16 0.330265 1.91371 0
M  V30 19497 O 1885.43 -0.668955 1.82634 0
M  V30 19498 C 1885.71 2.8138 2.24716 0
M  V30 19499 C 1885.57 4.20823 1.58832 0
M  V30 19500 C 1886.89 2.95744 3.2592 0
M  V30 19501 H 1884.01 0.591628 0.439483 0
M  V30 19502 H 1886.65 1.83172 0.504777 0
M  V30 19503 H 1884.8 2.63933 2.85082 0
M  V30 19504 H 1886.47 4.49888 1.01975 0
M  V30 19505 H 1884.71 4.24548 0.891148 0
M  V30 19506 H 1885.38 4.99915 2.3407 0
M  V30 19507 H 1887.86 3.11754 2.75588 0
M  V30 19508 H 1886.74 3.80488 3.95626 0
M  V30 19509 H 1887 2.06852 3.90723 0
M  V30 19510 N 1886.06 -0.713531 1.40522 0
M  V30 19511 C 1887.3 -1.47561 1.39117 0
M  V30 19512 C 1887.63 -1.94199 -0.00592038 0
M  V30 19513 O 1886.91 -1.68301 -0.974941 0
M  V30 19514 C 1887.19 -2.70023 2.38242 0
M  V30 19515 C 1887.05 -2.29266 3.86984 0
M  V30 19516 C 1888.36 -3.72185 2.34875 0
M  V30 19517 H 1885.48 -0.535243 0.50664 0
M  V30 19518 H 1888.13 -0.814172 1.71672 0
M  V30 19519 H 1886.28 -3.26458 2.10611 0
M  V30 19520 H 1887.95 -1.78297 4.2545 0
M  V30 19521 H 1886.19 -1.61246 4.02719 0
M  V30 19522 H 1886.86 -3.17057 4.51862 0
M  V30 19523 H 1889.34 -3.25384 2.59354 0
M  V30 19524 H 1888.21 -4.55507 3.06276 0
M  V30 19525 H 1888.47 -4.20627 1.36108 0
M  V30 19526 N 1887.53 -1.26053 -0.945962 0
M  V30 19527 C 1888.46 -1.09687 -2.06134 0
M  V30 19528 C 1889.44 -0.00341513 -1.701 0
M  V30 19529 O 1890.63 -0.174559 -1.93414 0
M  V30 19530 C 1887.76 -0.724007 -3.3967 0
M  V30 19531 C 1886.71 -1.76866 -3.89747 0
M  V30 19532 C 1886.04 -1.25025 -5.19878 0
M  V30 19533 C 1887.34 -3.16923 -4.15159 0
M  V30 19534 H 1889.03 -2.02986 -2.20084 0
M  V30 19535 H 1886.58 -0.977346 -1.05754 0
M  V30 19536 H 1888.53 -0.596411 -4.17158 0
M  V30 19537 H 1887.26 0.244695 -3.25682 0
M  V30 19538 H 1885.92 -1.88485 -3.14435 0
M  V30 19539 H 1885.56 -0.271527 -5.02267 0
M  V30 19540 H 1885.26 -1.94853 -5.54352 0
M  V30 19541 H 1886.79 -1.13523 -5.99954 0
M  V30 19542 H 1888.2 -3.08409 -4.83277 0
M  V30 19543 H 1886.6 -3.84299 -4.60906 0
M  V30 19544 H 1887.67 -3.63337 -3.21114 0
M  V30 19545 N 1889.01 1.14984 -1.07779 0
M  V30 19546 C 1890.26 1.85506 -0.802 0
M  V30 19547 C 1890.58 1.82981 0.674026 0
M  V30 19548 O 1889.85 1.27376 1.48836 0
M  V30 19549 H 1888.43 0.686845 -0.293689 0
M  V30 19550 H 1891.09 1.39368 -1.36244 0
M  V30 19551 H 1890.19 2.90518 -1.14042 0
M  V30 19552 N 1890.49 0.862526 1.31902 0
M  V30 19553 C 1891.74 0.470471 1.97267 0
M  V30 19554 C 1892.07 -0.973153 1.68058 0
M  V30 19555 O 1891.34 -1.68411 0.973035 0
M  V30 19556 C 1891.63 0.719362 3.52842 0
M  V30 19557 C 1891.48 2.21198 3.91652 0
M  V30 19558 C 1892.8 0.18092 4.39728 0
M  V30 19559 H 1889.92 0.172408 0.71655 0
M  V30 19560 H 1892.56 1.0824 1.56154 0
M  V30 19561 H 1890.71 0.198516 3.87992 0
M  V30 19562 H 1892.38 2.79951 3.66641 0
M  V30 19563 H 1890.62 2.68744 3.40528 0
M  V30 19564 H 1891.3 2.33679 5.00098 0
M  V30 19565 H 1893.77 0.626421 4.11358 0
M  V30 19566 H 1892.65 0.384575 5.47551 0
M  V30 19567 H 1892.91 -0.916756 4.3249 0
M  V30 19568 N 1891.97 -1.4484 0.62123 0
M  V30 19569 C 1892.88 -2.34423 -0.0910566 0
M  V30 19570 C 1893.89 -1.52042 -0.846121 0
M  V30 19571 O 1895.07 -1.84802 -0.800625 0
M  V30 19572 C 1892.14 -3.29874 -1.06696 0
M  V30 19573 C 1891.2 -4.28162 -0.312354 0
M  V30 19574 C 1890.43 -5.19053 -1.24177 0
M  V30 19575 O 1890.65 -5.13659 -2.48014 0
M  V30 19576 O 1889.59 -5.97439 -0.731442 0
M  V30 19577 H 1893.41 -2.96761 0.645493 0
M  V30 19578 H 1891 -1.44448 0.381445 0
M  V30 19579 H 1892.88 -3.88654 -1.62867 0
M  V30 19580 H 1891.55 -2.70083 -1.78429 0
M  V30 19581 H 1890.46 -3.72957 0.292161 0
M  V30 19582 H 1891.79 -4.90847 0.364763 0
M  V30 19583 N 1893.45 -0.361184 -1.53405 0
M  V30 19584 C 1894.38 0.530831 -2.2194 0
M  V30 19585 C 1895.36 1.08647 -1.20974 0
M  V30 19586 O 1896.54 1.14343 -1.4986 0
M  V30 19587 C 1893.67 1.73198 -2.91067 0
M  V30 19588 C 1892.71 1.30419 -4.0607 0
M  V30 19589 S 1893.55 0.30917 -5.34607 0
M  V30 19590 C 1894.7 1.51675 -6.07244 0
M  V30 19591 H 1894.94 -0.0512313 -2.97256 0
M  V30 19592 H 1892.47 -0.145281 -1.53715 0
M  V30 19593 H 1894.43 2.42098 -3.3151 0
M  V30 19594 H 1893.09 2.28528 -2.15485 0
M  V30 19595 H 1892.28 2.20024 -4.53437 0
M  V30 19596 H 1891.88 0.694455 -3.67496 0
M  V30 19597 H 1894.18 2.44847 -6.31709 0
M  V30 19598 H 1895.12 1.08454 -6.99745 0
M  V30 19599 H 1895.53 1.7208 -5.37632 0
M  V30 19600 N 1894.92 1.57341 -0.0902386 0
M  V30 19601 C 1896.15 1.98513 0.583126 0
M  V30 19602 C 1896.57 0.969208 1.62024 0
M  V30 19603 O 1895.92 -0.041815 1.82452 0
M  V30 19604 C 1895.98 3.39743 1.2352 0
M  V30 19605 O 1895.7 4.37444 0.239568 0
M  V30 19606 C 1897.2 3.9589 1.99463 0
M  V30 19607 H 1894.42 0.652446 0.156701 0
M  V30 19608 H 1896.96 2.03808 -0.168092 0
M  V30 19609 H 1895.12 3.35477 1.93738 0
M  V30 19610 H 1895.53 5.19677 0.709619 0
M  V30 19611 H 1897 4.96876 2.40454 0
M  V30 19612 H 1897.48 3.33441 2.85856 0
M  V30 19613 H 1898.09 4.03615 1.34072 0
M  V30 19614 N 1896.4 -0.183431 1.56529 0
M  V30 19615 C 1897.63 -0.921964 1.85781 0
M  V30 19616 C 1898.05 -1.75564 0.675184 0
M  V30 19617 O 1897.41 -1.7736 -0.375913 0
M  V30 19618 C 1897.46 -1.7844 3.13355 0
M  V30 19619 O 1896.56 -2.88461 2.94727 0
M  V30 19620 H 1895.9 -0.258974 0.611415 0
M  V30 19621 H 1898.43 -0.185225 2.0376 0
M  V30 19622 H 1898.44 -2.18675 3.44449 0
M  V30 19623 H 1897.12 -1.17195 3.99047 0
M  V30 19624 H 1895.7 -2.51897 2.74959 0
M  V30 19625 N 1897.88 -1.50992 -0.451564 0
M  V30 19626 C 1899.11 -1.66741 -1.22495 0
M  V30 19627 C 1899.52 -0.358787 -1.8536 0
M  V30 19628 O 1898.88 0.661312 -1.70097 0
M  V30 19629 C 1898.93 -2.77281 -2.31943 0
M  V30 19630 O 1898.65 -4.03072 -1.71652 0
M  V30 19631 C 1900.15 -3.04175 -3.22479 0
M  V30 19632 H 1897.37 -0.55994 -0.369741 0
M  V30 19633 H 1899.92 -1.97329 -0.536785 0
M  V30 19634 H 1898.07 -2.49332 -2.965 0
M  V30 19635 H 1898.49 -4.64354 -2.43875 0
M  V30 19636 H 1899.96 -3.85137 -3.95441 0
M  V30 19637 H 1900.44 -2.16015 -3.82406 0
M  V30 19638 H 1901.04 -3.33729 -2.63638 0
M  V30 19639 N 1899.36 0.706069 -1.40899 0
M  V30 19640 C 1900.61 1.46315 -1.39415 0
M  V30 19641 C 1900.93 1.95 -0.000496593 0
M  V30 19642 O 1900.2 1.70995 0.955904 0
M  V30 19643 H 1898.78 0.542863 -0.513136 0
M  V30 19644 H 1901.44 0.836396 -1.76041 0
M  V30 19645 H 1900.54 2.33139 -2.07491 0
M  V30 19646 N 1900.84 1.26553 0.939264 0
M  V30 19647 C 1901.75 1.10059 2.07181 0
M  V30 19648 C 1902.76 0.033599 1.73968 0
M  V30 19649 O 1903.94 0.237723 1.99992 0
M  V30 19650 C 1901 0.737342 3.38769 0
M  V30 19651 C 1900.06 1.88395 3.85753 0
M  V30 19652 C 1899.3 1.53794 5.11061 0
M  V30 19653 O 1899.52 0.440543 5.68696 0
M  V30 19654 O 1898.45 2.37332 5.53134 0
M  V30 19655 H 1902.28 2.05075 2.24004 0
M  V30 19656 H 1899.87 1.05633 1.05651 0
M  V30 19657 H 1901.75 0.547578 4.17827 0
M  V30 19658 H 1900.42 -0.183404 3.2318 0
M  V30 19659 H 1899.33 2.1287 3.07632 0
M  V30 19660 H 1900.66 2.78449 4.05865 0
M  V30 19661 N 1902.31 -1.14411 1.08387 0
M  V30 19662 C 1903.56 -1.85719 0.814638 0
M  V30 19663 C 1903.89 -1.82715 -0.657934 0
M  V30 19664 O 1903.17 -1.2577 -1.48365 0
M  V30 19665 C 1903.45 -3.34363 1.33691 0
M  V30 19666 C 1903.3 -3.4594 2.87481 0
M  V30 19667 C 1904.62 -4.29457 0.962006 0
M  V30 19668 H 1901.74 -0.674332 0.297399 0
M  V30 19669 H 1904.38 -1.34354 1.34346 0
M  V30 19670 H 1902.53 -3.78237 0.887082 0
M  V30 19671 H 1904.21 -3.10854 3.40833 0
M  V30 19672 H 1902.45 -2.87158 3.25151 0
M  V30 19673 H 1903.12 -4.50423 3.19097 0
M  V30 19674 H 1905.6 -3.93599 1.34979 0
M  V30 19675 H 1904.47 -5.31922 1.35464 0
M  V30 19676 H 1904.73 -4.41906 -0.130987 0
M  V30 19677 N 1903.79 -0.869509 -1.31443 0
M  V30 19678 C 1904.76 -0.329869 -2.26814 0
M  V30 19679 C 1905.76 0.518895 -1.52198 0
M  V30 19680 O 1906.95 0.328267 -1.71079 0
M  V30 19681 C 1904.08 0.53159 -3.3673 0
M  V30 19682 H 1905.27 -1.1718 -2.7606 0
M  V30 19683 H 1902.82 -0.645061 -1.42368 0
M  V30 19684 H 1903.56 1.39473 -2.92776 0
M  V30 19685 H 1903.34 -0.0761553 -3.92026 0
M  V30 19686 H 1904.83 0.901447 -4.07754 0
M  V30 19687 N 1905.27 1.44508 -0.628902 0
M  V30 19688 C 1906.52 2.01667 -0.13224 0
M  V30 19689 C 1906.84 1.49706 1.24953 0
M  V30 19690 O 1906.11 0.699769 1.82976 0
M  V30 19691 H 1904.69 0.745589 -0.0458966 0
M  V30 19692 H 1907.35 1.77037 -0.815102 0
M  V30 19693 H 1906.45 3.11945 -0.0982328 0
M  V30 19694 N 1906.75 0.369315 1.53212 0
M  V30 19695 C 1908 -0.219209 2.0131 0
M  V30 19696 C 1908.32 -1.48469 1.25647 0
M  V30 19697 O 1907.58 -1.92734 0.339443 0
M  V30 19698 C 1907.88 -0.553392 3.5309 0
M  V30 19699 C 1907.54 0.618198 4.46642 0
M  V30 19700 C 1906.21 0.939656 4.71936 0
M  V30 19701 C 1908.56 1.40294 5.01963 0
M  V30 19702 C 1905.89 2.04776 5.49803 0
M  V30 19703 C 1908.24 2.50149 5.81041 0
M  V30 19704 C 1906.9 2.82826 6.0462 0
M  V30 19705 H 1906.17 -0.0802141 0.736646 0
M  V30 19706 H 1908.82 0.502547 1.84788 0
M  V30 19707 H 1907.12 -1.35621 3.67579 0
M  V30 19708 H 1908.82 -1.02106 3.87783 0
M  V30 19709 H 1905.41 0.35762 4.27105 0
M  V30 19710 H 1909.6 1.16784 4.82364 0
M  V30 19711 H 1904.85 2.30487 5.66291 0
M  V30 19712 H 1909.03 3.1137 6.22914 0
M  V30 19713 H 1906.65 3.68812 6.64742 0
M  V30 19714 N 1908.23 -1.57291 0.0985816 0
M  V30 19715 C 1909.48 -1.94094 -0.563189 0
M  V30 19716 C 1909.8 -0.981394 -1.68504 0
M  V30 19717 O 1909.07 -0.0340632 -1.9587 0
M  V30 19718 H 1907.65 -0.716571 -0.211033 0
M  V30 19719 H 1910.31 -1.94219 0.162732 0
M  V30 19720 H 1909.4 -2.96607 -0.971113 0
M  V30 19721 N 1909.71 0.175127 -1.56624 0
M  V30 19722 C 1910.62 1.23691 -1.99343 0
M  V30 19723 C 1911.63 1.48662 -0.904197 0
M  V30 19724 O 1912.81 1.60885 -1.21153 0
M  V30 19725 C 1909.87 2.55689 -2.34145 0
M  V30 19726 C 1908.93 2.38614 -3.56878 0
M  V30 19727 C 1908.17 3.64318 -3.9001 0
M  V30 19728 O 1908.39 4.69335 -3.24162 0
M  V30 19729 O 1907.32 3.58655 -4.83373 0
M  V30 19730 H 1911.15 0.904314 -2.89924 0
M  V30 19731 H 1908.73 0.381697 -1.44442 0
M  V30 19732 H 1910.62 3.33562 -2.57516 0
M  V30 19733 H 1909.29 2.88535 -1.46728 0
M  V30 19734 H 1908.2 1.58786 -3.3873 0
M  V30 19735 H 1909.53 2.10694 -4.44825 0
M  V30 19736 N 1911.18 1.5123 0.44355 0
M  V30 19737 C 1912.41 1.67671 1.2207 0
M  V30 19738 C 1912.83 0.370934 1.84406 0
M  V30 19739 O 1912.19 -0.668265 1.68535 0
M  V30 19740 C 1912.24 2.7896 2.28503 0
M  V30 19741 O 1911.34 2.4213 3.33837 0
M  V30 19742 H 1910.68 0.559275 0.357921 0
M  V30 19743 H 1913.21 1.9776 0.524592 0
M  V30 19744 H 1913.22 3.0286 2.73386 0
M  V30 19745 H 1911.9 3.73716 1.82509 0
M  V30 19746 H 1910.48 2.28779 2.94473 0
M  V30 19747 N 1912.66 -0.698586 1.41271 0
M  V30 19748 C 1914.08 -1.0088 1.23674 0
M  V30 19749 C 1914.28 -2.01118 0.123961 0
M  V30 19750 O 1913.33 -2.47242 -0.512628 0
M  V30 19751 C 1914.65 -1.53629 2.58493 0
M  V30 19752 C 1916.19 -1.65528 2.65649 0
M  V30 19753 C 1916.67 -2.21679 4.00777 0
M  V30 19754 N 1918.16 -2.29044 4.02608 0
M  V30 19755 C 1918.9 -2.73512 5.03963 0
M  V30 19756 N 1918.39 -3.17607 6.15709 0
M  V30 19757 N 1920.18 -2.73049 4.91326 0
M  V30 19758 H 1912.34 -0.0344888 2.12372 0
M  V30 19759 H 1914.6 -0.0778742 0.944796 0
M  V30 19760 H 1914.3 -0.874339 3.40658 0
M  V30 19761 H 1914.18 -2.51891 2.80768 0
M  V30 19762 H 1916.57 -2.30836 1.83844 0
M  V30 19763 H 1916.65 -0.658201 2.47187 0
M  V30 19764 H 1916.29 -1.56988 4.83029 0
M  V30 19765 H 1916.22 -3.22134 4.16578 0
M  V30 19766 H 1918.71 -1.97922 3.21924 0
M  V30 19767 H 1919.02 -3.50155 6.88921 0
M  V30 19768 H 1917.37 -3.15523 6.1925 0
M  V30 19769 H 1920.56 -2.37947 4.03112 0
M  V30 19770 H 1920.73 -3.07386 5.70454 0
M  V30 19771 N 1914.14 -1.27049 -0.93254 0
M  V30 19772 C 1915.38 -1.14333 -1.69432 0
M  V30 19773 C 1915.74 0.306622 -1.89536 0
M  V30 19774 O 1916.94 0.556096 -2.62985 0
M  V30 19775 C 1915.22 -1.90032 -3.02692 0
M  V30 19776 S 1916.77 -1.93472 -3.93845 0
M  V30 19777 H 1913.59 -0.408249 -0.582111 0
M  V30 19778 H 1916.19 -1.6089 -1.11061 0
M  V30 19779 H 1914.9 -2.94579 -2.85748 0
M  V30 19780 H 1914.43 -1.4395 -3.66117 0
M  V30 19781 H 1916.44 -1.02765 -4.85442 0
M  V30 19782 N 1915.62 1.13835 -1.08993 0
M  V30 19783 C 1916.53 2.22715 -0.73724 0
M  V30 19784 C 1917.54 1.72064 0.258869 0
M  V30 19785 O 1918.72 2.01145 0.101321 0
M  V30 19786 C 1915.78 3.46338 -0.158285 0
M  V30 19787 C 1914.85 4.11902 -1.20977 0
M  V30 19788 C 1914.08 5.29624 -0.658349 0
M  V30 19789 O 1914.3 5.68023 0.520219 0
M  V30 19790 O 1913.24 5.85121 -1.41126 0
M  V30 19791 H 1917.06 2.55247 -1.64568 0
M  V30 19792 H 1914.65 1.21882 -0.864013 0
M  V30 19793 H 1916.53 4.2109 0.161481 0
M  V30 19794 H 1915.2 3.15517 0.723235 0
M  V30 19795 H 1914.11 3.38996 -1.58216 0
M  V30 19796 H 1915.44 4.46843 -2.06378 0
M  V30 19797 N 1917.1 0.876467 1.3098 0
M  V30 19798 C 1918.06 0.341893 2.26636 0
M  V30 19799 C 1919.06 -0.510816 1.52471 0
M  V30 19800 O 1920.25 -0.31919 1.71251 0
M  V30 19801 C 1917.38 -0.513725 3.37007 0
M  V30 19802 H 1918.57 1.18642 2.75434 0
M  V30 19803 H 1916.13 0.652602 1.42024 0
M  V30 19804 H 1916.86 -1.37919 2.93511 0
M  V30 19805 H 1916.65 0.0969443 3.9198 0
M  V30 19806 H 1918.14 -0.87981 4.08227 0
M  V30 19807 N 1918.57 -1.44173 0.636557 0
M  V30 19808 C 1919.8 -2.06053 0.150237 0
M  V30 19809 C 1920.21 -1.47684 -1.18263 0
M  V30 19810 O 1919.55 -0.596274 -1.73753 0
M  V30 19811 C 1919.62 -3.59485 -0.0331338 0
M  V30 19812 C 1919.28 -4.40348 1.22241 0
M  V30 19813 C 1920.28 -4.73481 2.14736 0
M  V30 19814 C 1917.96 -4.80633 1.45934 0
M  V30 19815 C 1919.96 -5.45789 3.29231 0
M  V30 19816 C 1917.64 -5.5269 2.60725 0
M  V30 19817 C 1918.64 -5.85188 3.52199 0
M  V30 19818 O 1918.33 -6.55776 4.64987 0
M  V30 19819 H 1918.06 -0.671316 0.0794375 0
M  V30 19820 H 1920.62 -1.85942 0.872618 0
M  V30 19821 H 1918.85 -3.78106 -0.810716 0
M  V30 19822 H 1920.53 -4.03115 -0.474694 0
M  V30 19823 H 1921.3 -4.42891 1.97668 0
M  V30 19824 H 1917.18 -4.54755 0.756218 0
M  V30 19825 H 1920.72 -5.71073 4.00651 0
M  V30 19826 H 1916.62 -5.82695 2.77734 0
M  V30 19827 H 1917.39 -6.74248 4.64038 0
M  V30 19828 N 1920.05 -0.377435 -1.53014 0
M  V30 19829 C 1920.98 0.455103 -2.29022 0
M  V30 19830 C 1921.96 1.07375 -1.31926 0
M  V30 19831 O 1923.15 1.08877 -1.60809 0
M  V30 19832 C 1920.28 1.58883 -3.08826 0
M  V30 19833 C 1919.23 1.09683 -4.13707 0
M  V30 19834 C 1918.56 2.32172 -4.81664 0
M  V30 19835 C 1919.86 0.173165 -5.22013 0
M  V30 19836 H 1921.55 -0.179053 -2.98864 0
M  V30 19837 H 1919.1 -0.0875549 -1.43734 0
M  V30 19838 H 1921.05 2.17798 -3.60752 0
M  V30 19839 H 1919.77 2.2504 -2.36695 0
M  V30 19840 H 1918.43 0.530291 -3.62744 0
M  V30 19841 H 1918.08 2.96811 -4.06094 0
M  V30 19842 H 1917.78 1.99919 -5.52545 0
M  V30 19843 H 1919.31 2.91751 -5.3639 0
M  V30 19844 H 1920.72 0.670145 -5.6937 0
M  V30 19845 H 1919.12 -0.0590463 -6.00071 0
M  V30 19846 H 1920.19 -0.781339 -4.78564 0
M  V30 19847 N 1921.53 1.57237 -0.106922 0
M  V30 19848 C 1922.48 2.14668 0.847728 0
M  V30 19849 C 1923.45 1.06838 1.2718 0
M  V30 19850 O 1924.63 1.34686 1.35146 0
M  V30 19851 C 1921.77 2.74079 2.09702 0
M  V30 19852 C 1920.89 3.96178 1.7224 0
M  V30 19853 C 1920.02 4.43715 2.92045 0
M  V30 19854 C 1919.06 5.58375 2.50766 0
M  V30 19855 N 1918.2 6.00711 3.63443 0
M  V30 19856 H 1923.04 2.95924 0.351133 0
M  V30 19857 H 1920.57 1.46209 0.161636 0
M  V30 19858 H 1922.53 3.06649 2.82882 0
M  V30 19859 H 1921.16 1.95532 2.56841 0
M  V30 19860 H 1920.21 3.69846 0.889819 0
M  V30 19861 H 1921.53 4.7936 1.37896 0
M  V30 19862 H 1920.68 4.78131 3.73464 0
M  V30 19863 H 1919.42 3.59458 3.29607 0
M  V30 19864 H 1918.42 5.23576 1.67776 0
M  V30 19865 H 1919.65 6.4439 2.14334 0
M  V30 19866 H 1917.59 5.19397 4.00702 0
M  V30 19867 H 1917.51 6.78718 3.32983 0
M  V30 19868 H 1918.78 6.39761 4.45338 0
M  V30 19869 N 1923.01 -0.166818 1.56715 0
M  V30 19870 C 1923.97 -1.19027 1.95871 0
M  V30 19871 C 1924.97 -1.36939 0.842877 0
M  V30 19872 O 1926.16 -1.34268 1.10985 0
M  V30 19873 C 1923.29 -2.55446 2.25743 0
M  V30 19874 H 1924.49 -0.854834 2.87459 0
M  V30 19875 H 1922.04 -0.409436 1.50842 0
M  V30 19876 H 1922.77 -2.93996 1.36884 0
M  V30 19877 H 1922.56 -2.4381 3.07081 0
M  V30 19878 H 1924.05 -3.29196 2.56943 0
M  V30 19879 N 1924.49 -1.51463 -0.435524 0
M  V30 19880 C 1925.42 -1.67594 -1.54879 0
M  V30 19881 C 1926.4 -0.523516 -1.53942 0
M  V30 19882 O 1927.58 -0.747582 -1.73042 0
M  V30 19883 C 1924.71 -1.69117 -2.93457 0
M  V30 19884 C 1923.75 -2.90346 -3.12413 0
M  V30 19885 S 1924.59 -4.51129 -2.88518 0
M  V30 19886 C 1925.74 -4.554 -4.29374 0
M  V30 19887 H 1925.98 -2.61757 -1.40963 0
M  V30 19888 H 1923.51 -1.4117 -0.625338 0
M  V30 19889 H 1925.47 -1.70679 -3.73335 0
M  V30 19890 H 1924.13 -0.761275 -3.04735 0
M  V30 19891 H 1923.32 -2.87818 -4.13735 0
M  V30 19892 H 1922.92 -2.86534 -2.40362 0
M  V30 19893 H 1925.22 -4.31152 -5.22603 0
M  V30 19894 H 1926.16 -5.5722 -4.36935 0
M  V30 19895 H 1926.57 -3.84704 -4.13113 0
M  V30 19896 N 1925.96 0.691085 -1.4164 0
M  V30 19897 C 1926.89 1.8173 -1.46616 0
M  V30 19898 C 1927.88 1.66979 -0.324357 0
M  V30 19899 O 1929.06 1.86644 -0.536424 0
M  V30 19900 C 1926.19 3.19903 -1.35201 0
M  V30 19901 C 1925.14 3.49366 -2.47239 0
M  V30 19902 C 1924.47 4.86942 -2.20887 0
M  V30 19903 C 1925.77 3.47891 -3.89575 0
M  V30 19904 H 1927.46 1.77823 -2.40872 0
M  V30 19905 H 1925.01 0.8541 -1.15936 0
M  V30 19906 H 1926.96 3.98407 -1.37293 0
M  V30 19907 H 1925.69 3.24448 -0.374312 0
M  V30 19908 H 1924.35 2.73215 -2.44436 0
M  V30 19909 H 1923.99 4.88118 -1.2145 0
M  V30 19910 H 1923.69 5.0762 -2.95966 0
M  V30 19911 H 1925.22 5.67751 -2.24703 0
M  V30 19912 H 1926.63 4.16392 -3.94069 0
M  V30 19913 H 1925.03 3.80101 -4.64374 0
M  V30 19914 H 1926.1 2.46778 -4.17407 0
M  V30 19915 N 1927.44 1.27542 0.925789 0
M  V30 19916 C 1928.67 1.16921 1.71301 0
M  V30 19917 C 1929.09 -0.270082 1.86151 0
M  V30 19918 O 1928.45 -1.19558 1.36293 0
M  V30 19919 C 1928.5 1.8599 3.08934 0
M  V30 19920 O 1927.6 1.15917 3.95774 0
M  V30 19921 H 1926.94 0.406542 0.524995 0
M  V30 19922 H 1929.47 1.68646 1.15843 0
M  V30 19923 H 1929.48 1.93424 3.59237 0
M  V30 19924 H 1928.16 2.9069 2.97443 0
M  V30 19925 H 1926.74 1.16564 3.54213 0
M  V30 19926 N 1928.92 -1.13255 1.09595 0
M  V30 19927 C 1930.15 -1.88411 0.854927 0
M  V30 19928 C 1930.56 -1.79214 -0.593949 0
M  V30 19929 O 1929.92 -1.15995 -1.40895 0
M  V30 19930 C 1929.97 -3.37946 1.28353 0
M  V30 19931 O 1929.69 -3.46907 2.67558 0
M  V30 19932 C 1931.19 -4.30065 1.07514 0
M  V30 19933 H 1928.41 -0.596416 0.307455 0
M  V30 19934 H 1930.96 -1.43358 1.45838 0
M  V30 19935 H 1929.11 -3.80576 0.72393 0
M  V30 19936 H 1929.53 -4.39878 2.8567 0
M  V30 19937 H 1931 -5.33309 1.42428 0
M  V30 19938 H 1931.48 -4.39198 0.0130611 0
M  V30 19939 H 1932.08 -3.93206 1.62077 0
M  V30 19940 N 1930.4 -0.883401 -1.30514 0
M  V30 19941 C 1931.65 -0.500062 -1.95816 0
M  V30 19942 C 1931.97 0.953596 -1.70093 0
M  V30 19943 O 1931.24 1.67027 -1.02365 0
M  V30 19944 H 1929.82 -0.181936 -0.724506 0
M  V30 19945 H 1932.48 -1.12613 -1.59073 0
M  V30 19946 H 1931.58 -0.668998 -3.04846 0
M  V30 19947 N 1931.88 1.43833 -0.644194 0
M  V30 19948 C 1933.12 2.01914 -0.153927 0
M  V30 19949 C 1933.45 1.50758 1.22891 0
M  V30 19950 O 1932.71 0.687354 1.83232 0
M  V30 19951 C 1933.01 3.57249 -0.103941 0
M  V30 19952 C 1932.67 4.27713 -1.42731 0
M  V30 19953 C 1931.33 4.46679 -1.78972 0
M  V30 19954 C 1933.69 4.67695 -2.30024 0
M  V30 19955 C 1931.01 5.0289 -3.0219 0
M  V30 19956 C 1933.37 5.2527 -3.52525 0
M  V30 19957 C 1932.03 5.42453 -3.88974 0
M  V30 19958 H 1931.3 0.738856 -0.0563257 0
M  V30 19959 H 1933.95 1.72428 -0.833108 0
M  V30 19960 H 1932.25 3.86224 0.65866 0
M  V30 19961 H 1933.95 3.99935 0.292124 0
M  V30 19962 H 1930.54 4.1329 -1.1353 0
M  V30 19963 H 1934.72 4.52743 -2.03317 0
M  V30 19964 H 1929.98 5.14379 -3.3049 0
M  V30 19965 H 1934.15 5.55198 -4.2039 0
M  V30 19966 H 1931.78 5.85775 -4.84532 0
M  V30 19967 N 1933.35 0.385544 1.52811 0
M  V30 19968 C 1934.3 -0.451417 2.26342 0
M  V30 19969 C 1935.27 -1.06094 1.27801 0
M  V30 19970 O 1936.46 -1.08968 1.56623 0
M  V30 19971 C 1933.6 -1.57477 3.07075 0
M  V30 19972 C 1932.71 -0.988468 4.20539 0
M  V30 19973 C 1931.84 -2.08256 4.88675 0
M  V30 19974 C 1930.88 -1.47196 5.94138 0
M  V30 19975 N 1930.02 -2.5052 6.55884 0
M  V30 19976 H 1934.86 0.182092 2.97443 0
M  V30 19977 H 1932.4 0.101628 1.46749 0
M  V30 19978 H 1934.36 -2.23677 3.52171 0
M  V30 19979 H 1932.99 -2.17864 2.38191 0
M  V30 19980 H 1932.04 -0.216168 3.79785 0
M  V30 19981 H 1933.35 -0.502223 4.96265 0
M  V30 19982 H 1932.5 -2.82235 5.37055 0
M  V30 19983 H 1931.24 -2.60239 4.12464 0
M  V30 19984 H 1930.25 -0.717401 5.45099 0
M  V30 19985 H 1931.47 -0.960124 6.72279 0
M  V30 19986 H 1929.42 -3.0168 5.82516 0
M  V30 19987 H 1929.34 -2.0664 7.27211 0
M  V30 19988 H 1930.6 -3.24141 7.0891 0
M  V30 19989 N 1934.83 -1.57178 0.115259 0
M  V30 19990 C 1936.08 -1.94241 -0.54344 0
M  V30 19991 C 1936.39 -1.0006 -1.68069 0
M  V30 19992 O 1937.6 -1.26574 -2.4019 0
M  V30 19993 C 1936.06 -3.45199 -1.0181 0
M  V30 19994 C 1935.66 -4.47909 0.0904861 0
M  V30 19995 C 1937.41 -3.91188 -1.64839 0
M  V30 19996 C 1935.32 -5.90041 -0.400667 0
M  V30 19997 H 1934.25 -0.725092 -0.206778 0
M  V30 19998 H 1936.9 -1.82466 0.194509 0
M  V30 19999 H 1935.28 -3.52196 -1.81036 0
M  V30 20000 H 1936.45 -4.52577 0.866638 0
M  V30 20001 H 1934.77 -4.11649 0.627197 0
M  V30 20002 H 1937.36 -4.94792 -2.02694 0
M  V30 20003 H 1937.71 -3.30955 -2.52536 0
M  V30 20004 H 1938.24 -3.86977 -0.92161 0
M  V30 20005 H 1934.98 -6.54021 0.440159 0
M  V30 20006 H 1934.5 -5.88801 -1.14338 0
M  V30 20007 H 1936.18 -6.41217 -0.863111 0
M  V30 20008 N 1936.31 0.158505 -1.56801 0
M  V30 20009 C 1937.72 0.71972 -1.7227 0
M  V30 20010 C 1938.07 1.822 -0.72784 0
M  V30 20011 O 1937.2 2.1613 0.108043 0
M  V30 20012 C 1937.79 1.31231 -3.12352 0
M  V30 20013 C 1936.35 1.82021 -3.29462 0
M  V30 20014 C 1935.5 0.704157 -2.68211 0
M  V30 20015 H 1938.45 -0.0670395 -1.58558 0
M  V30 20016 H 1938.47 2.18208 -3.11714 0
M  V30 20017 H 1937.98 0.509823 -3.84737 0
M  V30 20018 H 1936.08 2.64873 -2.62056 0
M  V30 20019 H 1936.2 1.95684 -4.37315 0
M  V30 20020 H 1934.56 1.12787 -2.28366 0
M  V30 20021 H 1935.34 -0.0866929 -3.43191 0
M  V30 20022 N 1937.79 1.51692 0.427485 0
M  V30 20023 C 1938.74 1.73716 1.51958 0
M  V30 20024 C 1939.71 0.579073 1.55679 0
M  V30 20025 O 1940.89 0.814605 1.72536 0
M  V30 20026 C 1938.03 1.87709 2.89585 0
M  V30 20027 C 1937.14 3.15297 2.95317 0
M  V30 20028 C 1936.28 3.19827 4.24128 0
M  V30 20029 C 1935.32 4.4169 4.23764 0
M  V30 20030 N 1934.46 4.43715 5.44116 0
M  V30 20031 H 1939.3 2.66933 1.3248 0
M  V30 20032 H 1936.83 1.32283 0.643393 0
M  V30 20033 H 1938.79 1.93804 3.69454 0
M  V30 20034 H 1937.42 0.978912 3.07599 0
M  V30 20035 H 1936.47 3.18464 2.08051 0
M  V30 20036 H 1937.78 4.05182 2.90911 0
M  V30 20037 H 1936.94 3.24892 5.12377 0
M  V30 20038 H 1935.68 2.27848 4.31204 0
M  V30 20039 H 1934.68 4.36791 3.33907 0
M  V30 20040 H 1935.91 5.34944 4.18343 0
M  V30 20041 H 1933.85 3.5461 5.51894 0
M  V30 20042 H 1933.77 5.27421 5.4163 0
M  V30 20043 H 1935.04 4.52986 6.34369 0
M  V30 20044 N 1939.27 -0.683564 1.42004 0
M  V30 20045 C 1940.21 -1.7973 1.44796 0
M  V30 20046 C 1941.18 -1.63352 0.300905 0
M  V30 20047 O 1942.37 -1.84031 0.503707 0
M  V30 20048 C 1939.51 -3.17701 1.34758 0
M  V30 20049 C 1938.62 -3.45428 2.59429 0
M  V30 20050 C 1937.76 -4.73079 2.41598 0
M  V30 20051 C 1936.8 -4.93812 3.61685 0
M  V30 20052 N 1935.93 -6.12698 3.4285 0
M  V30 20053 H 1940.77 -1.76679 2.39976 0
M  V30 20054 H 1938.31 -0.862624 1.19152 0
M  V30 20055 H 1940.27 -3.9742 1.26938 0
M  V30 20056 H 1938.9 -3.19899 0.431785 0
M  V30 20057 H 1937.95 -2.60027 2.77651 0
M  V30 20058 H 1939.26 -3.56645 3.48721 0
M  V30 20059 H 1938.42 -5.60873 2.31314 0
M  V30 20060 H 1937.16 -4.6413 1.49782 0
M  V30 20061 H 1936.16 -4.04463 3.72411 0
M  V30 20062 H 1937.39 -5.04612 4.5447 0
M  V30 20063 H 1935.33 -6.04938 2.53744 0
M  V30 20064 H 1935.25 -6.24736 4.25724 0
M  V30 20065 H 1936.52 -7.03194 3.36361 0
M  V30 20066 N 1940.75 -1.28031 -0.919012 0
M  V30 20067 C 1941.69 -1.11355 -2.04213 0
M  V30 20068 C 1942.69 -0.0342517 -1.69365 0
M  V30 20069 O 1943.89 -0.192628 -1.78966 0
M  V30 20070 H 1940.27 -0.343397 -0.669016 0
M  V30 20071 H 1942.24 -2.06485 -2.15421 0
M  V30 20072 C 1940.99 -0.786653 -3.38684 0
M  V30 20073 H 1940.31 -1.6091 -3.65989 0
M  V30 20074 H 1941.75 -0.709897 -4.18015 0
M  V30 20075 C 1940.21 0.509383 -3.33027 0
M  V30 20076 O 1940.74 1.54125 -3.70956 0
M  V30 20077 N 1938.95 0.508188 -2.86122 0
M  V30 20078 H 1938.49 -0.331947 -2.55452 0
M  V30 20079 H 1938.45 1.37539 -2.82719 0
M  V30 20080 N 1942.22 1.12672 -1.10194 0
M  V30 20081 C 1943.47 1.83483 -0.837668 0
M  V30 20082 C 1943.79 1.84873 0.638864 0
M  V30 20083 O 1944.99 2.51654 1.01895 0
M  V30 20084 C 1943.45 3.29455 -1.4487 0
M  V30 20085 C 1943.06 3.36431 -2.95834 0
M  V30 20086 C 1944.8 4.05254 -1.26371 0
M  V30 20087 C 1942.71 4.76723 -3.49984 0
M  V30 20088 H 1941.64 0.687458 -0.309706 0
M  V30 20089 H 1944.29 1.26884 -1.32562 0
M  V30 20090 H 1942.67 3.85905 -0.88843 0
M  V30 20091 H 1943.84 2.89934 -3.58155 0
M  V30 20092 H 1942.16 2.74104 -3.13458 0
M  V30 20093 H 1944.76 5.0884 -1.64274 0
M  V30 20094 H 1945.1 4.15795 -0.205058 0
M  V30 20095 H 1945.63 3.55155 -1.79192 0
M  V30 20096 H 1942.37 4.71376 -4.55505 0
M  V30 20097 H 1941.89 5.23684 -2.9243 0
M  V30 20098 H 1943.57 5.45659 -3.47657 0
M  V30 20099 N 1943.7 0.89031 1.30043 0
M  V30 20100 C 1944.63 0.377386 2.3043 0
M  V30 20101 C 1945.61 -0.542607 1.61213 0
M  V30 20102 O 1946.8 -0.455328 1.88787 0
M  V30 20103 C 1943.93 -0.404264 3.44939 0
M  V30 20104 C 1942.88 0.424448 4.2589 0
M  V30 20105 C 1942.21 -0.48413 5.32504 0
M  V30 20106 C 1943.51 1.6694 4.94902 0
M  V30 20107 H 1945.2 1.21628 2.73582 0
M  V30 20108 H 1942.75 0.586299 1.31524 0
M  V30 20109 H 1944.7 -0.773769 4.14235 0
M  V30 20110 H 1943.42 -1.27685 3.00606 0
M  V30 20111 H 1942.08 0.776162 3.58289 0
M  V30 20112 H 1941.73 -1.35458 4.84417 0
M  V30 20113 H 1941.43 0.0665939 5.87562 0
M  V30 20114 H 1942.96 -0.850034 6.04654 0
M  V30 20115 H 1944.37 1.37017 5.56686 0
M  V30 20116 H 1942.77 2.16073 5.59851 0
M  V30 20117 H 1943.84 2.41077 4.20725 0
M  V30 20118 N 1945.18 -1.43489 0.651812 0
M  V30 20119 C 1946.11 -2.33484 -0.0271093 0
M  V30 20120 C 1947.09 -1.4939 -0.813427 0
M  V30 20121 O 1948.28 -1.78058 -0.775186 0
M  V30 20122 C 1945.41 -3.32737 -0.995143 0
M  V30 20123 C 1944.36 -4.26809 -0.319036 0
M  V30 20124 C 1943.69 -5.1609 -1.39842 0
M  V30 20125 C 1944.99 -5.16326 0.787692 0
M  V30 20126 H 1946.68 -2.90503 0.724441 0
M  V30 20127 H 1944.23 -1.39686 0.349826 0
M  V30 20128 H 1946.18 -3.94593 -1.479 0
M  V30 20129 H 1944.9 -2.73972 -1.77784 0
M  V30 20130 H 1943.56 -3.66316 0.144366 0
M  V30 20131 H 1943.21 -4.53664 -2.17251 0
M  V30 20132 H 1942.91 -5.79848 -0.951292 0
M  V30 20133 H 1944.43 -5.80819 -1.88367 0
M  V30 20134 H 1945.85 -5.71999 0.386053 0
M  V30 20135 H 1944.24 -5.88798 1.1592 0
M  V30 20136 H 1945.31 -4.56099 1.64626 0
M  V30 20137 N 1946.66 -0.393643 -1.52605 0
M  V30 20138 C 1947.89 0.1871 -2.06052 0
M  V30 20139 C 1948.3 1.40154 -1.26501 0
M  V30 20140 O 1947.66 1.798 -0.31279 0
M  V30 20141 C 1947.71 0.552918 -3.57246 0
M  V30 20142 O 1947.43 -0.613274 -4.33786 0
M  V30 20143 C 1948.93 1.18906 -4.27055 0
M  V30 20144 H 1946.15 0.0272042 -0.670448 0
M  V30 20145 H 1948.69 -0.560126 -1.9668 0
M  V30 20146 H 1946.85 1.25004 -3.66678 0
M  V30 20147 H 1947.26 -0.311611 -5.23574 0
M  V30 20148 H 1948.74 1.39535 -5.34073 0
M  V30 20149 H 1949.21 2.15768 -3.82545 0
M  V30 20150 H 1949.82 0.532579 -4.21952 0
M  V30 20151 N 1948.14 1.57115 -0.123593 0
M  V30 20152 C 1949.38 1.94527 0.533131 0
M  V30 20153 C 1949.7 1.0095 1.67536 0
M  V30 20154 O 1950.9 1.27846 2.39515 0
M  V30 20155 C 1949.36 3.45735 0.999783 0
M  V30 20156 C 1948.97 4.47854 -0.114238 0
M  V30 20157 C 1950.71 3.92057 1.62762 0
M  V30 20158 C 1948.62 5.90245 0.36937 0
M  V30 20159 H 1947.55 0.726179 0.20293 0
M  V30 20160 H 1950.2 1.8236 -0.204183 0
M  V30 20161 H 1948.58 3.53151 1.79166 0
M  V30 20162 H 1949.76 4.52111 -0.890627 0
M  V30 20163 H 1948.07 4.11311 -0.649019 0
M  V30 20164 H 1950.67 4.9586 2.00067 0
M  V30 20165 H 1951.01 3.3229 2.50777 0
M  V30 20166 H 1951.54 3.8746 0.901074 0
M  V30 20167 H 1948.28 6.53778 -0.474837 0
M  V30 20168 H 1947.8 5.89399 1.11214 0
M  V30 20169 H 1949.48 6.41666 0.829093 0
M  V30 20170 N 1949.61 -0.150187 1.56883 0
M  V30 20171 C 1950.86 -0.86163 1.82812 0
M  V30 20172 C 1951.18 -1.81849 0.703977 0
M  V30 20173 O 1950.45 -1.93966 -0.274616 0
M  V30 20174 H 1949.03 -0.321175 0.67443 0
M  V30 20175 H 1951.69 -0.144952 1.9436 0
M  V30 20176 H 1950.79 -1.4258 2.77628 0
M  V30 20177 N 1951.09 -1.51916 -0.419434 0
M  V30 20178 C 1952.32 -1.69592 -1.19387 0
M  V30 20179 C 1952.74 -0.400225 -1.83793 0
M  V30 20180 O 1952.1 0.641368 -1.69576 0
M  V30 20181 C 1952.15 -2.8256 -2.24036 0
M  V30 20182 O 1951.25 -2.4741 -3.29942 0
M  V30 20183 H 1950.59 -0.564898 -0.348978 0
M  V30 20184 H 1953.12 -1.9857 -0.493064 0
M  V30 20185 H 1953.13 -3.07171 -2.68533 0
M  V30 20186 H 1951.81 -3.76572 -1.7654 0
M  V30 20187 H 1950.39 -2.33435 -2.90796 0
M  V30 20188 N 1952.57 0.676023 -1.42365 0
M  V30 20189 C 1953.8 1.46224 -1.45952 0
M  V30 20190 C 1954.21 1.89074 -0.0689817 0
M  V30 20191 O 1953.55 1.58634 0.926337 0
M  V30 20192 C 1953.61 2.74388 -2.32274 0
M  V30 20193 C 1953.28 2.53622 -3.80164 0
M  V30 20194 C 1954.27 2.18303 -4.71847 0
M  V30 20195 C 1951.96 2.68654 -4.24417 0
M  V30 20196 C 1953.95 1.98282 -6.05775 0
M  V30 20197 C 1951.64 2.48249 -5.58404 0
M  V30 20198 C 1952.64 2.13116 -6.48899 0
M  V30 20199 O 1952.33 1.92907 -7.80412 0
M  V30 20200 H 1952.06 0.456481 -0.498599 0
M  V30 20201 H 1954.61 0.838156 -1.87521 0
M  V30 20202 H 1952.84 3.39274 -1.85553 0
M  V30 20203 H 1954.53 3.36267 -2.27332 0
M  V30 20204 H 1955.3 2.06286 -4.38943 0
M  V30 20205 H 1951.18 2.9498 -3.54271 0
M  V30 20206 H 1954.72 1.70783 -6.76372 0
M  V30 20207 H 1950.62 2.59862 -5.90882 0
M  V30 20208 H 1951.39 2.07515 -7.91757 0
M  V30 20209 N 1954.05 1.28517 0.912209 0
M  V30 20210 C 1955 1.12575 2.01483 0
M  V30 20211 C 1955.97 0.0224628 1.66085 0
M  V30 20212 O 1957.15 0.18768 1.89875 0
M  V30 20213 C 1954.29 0.795229 3.35813 0
M  V30 20214 C 1953.4 1.97772 3.84071 0
M  V30 20215 C 1952.54 1.58768 5.06918 0
M  V30 20216 C 1951.58 2.73672 5.47513 0
M  V30 20217 N 1950.71 2.3515 6.6155 0
M  V30 20218 H 1955.55 2.06918 2.1445 0
M  V30 20219 H 1953.09 1.02983 1.05037 0
M  V30 20220 H 1955.05 0.584339 4.13088 0
M  V30 20221 H 1953.68 -0.111266 3.22608 0
M  V30 20222 H 1952.73 2.30069 3.0294 0
M  V30 20223 H 1954.04 2.83913 4.10115 0
M  V30 20224 H 1953.2 1.33894 5.91741 0
M  V30 20225 H 1951.94 0.697566 4.82686 0
M  V30 20226 H 1950.94 2.99242 4.61231 0
M  V30 20227 H 1952.17 3.63328 5.73733 0
M  V30 20228 H 1950.11 1.4861 6.38945 0
M  V30 20229 H 1950.03 3.14827 6.87328 0
M  V30 20230 H 1951.3 2.13564 7.49674 0
M  V30 20231 N 1955.53 -1.12086 1.1079 0
M  V30 20232 C 1956.47 -2.20006 0.755001 0
M  V30 20233 C 1957.47 -1.67538 -0.250501 0
M  V30 20234 O 1958.67 -1.79661 -0.110486 0
M  V30 20235 H 1955.05 -0.717162 0.226237 0
M  V30 20236 H 1957.02 -2.47022 1.67399 0
M  V30 20237 C 1955.77 -3.47083 0.207038 0
M  V30 20238 H 1955.09 -3.87805 0.971991 0
M  V30 20239 H 1956.53 -4.24 -0.00177915 0
M  V30 20240 C 1954.99 -3.19753 -1.06112 0
M  V30 20241 O 1955.52 -3.39825 -2.142 0
M  V30 20242 N 1953.73 -2.73534 -0.981212 0
M  V30 20243 H 1953.27 -2.574 -0.101519 0
M  V30 20244 H 1953.23 -2.55624 -1.83041 0
M  V30 20245 N 1957 -0.897194 -1.29569 0
M  V30 20246 C 1957.95 -0.371435 -2.27792 0
M  V30 20247 C 1958.92 0.545087 -1.56901 0
M  V30 20248 O 1960.11 0.47087 -1.84899 0
M  V30 20249 C 1957.25 0.397236 -3.42806 0
M  V30 20250 C 1956.36 -0.549895 -4.28486 0
M  V30 20251 C 1955.49 0.23558 -5.30677 0
M  V30 20252 C 1954.53 -0.706236 -6.08012 0
M  V30 20253 N 1953.67 0.0446763 -7.02086 0
M  V30 20254 H 1958.51 -1.21414 -2.72145 0
M  V30 20255 H 1956.05 -0.610055 -1.33853 0
M  V30 20256 H 1958.01 0.858933 -4.08262 0
M  V30 20257 H 1956.64 1.20441 -2.99489 0
M  V30 20258 H 1955.69 -1.13011 -3.63226 0
M  V30 20259 H 1957 -1.27092 -4.82337 0
M  V30 20260 H 1956.15 0.758588 -6.01939 0
M  V30 20261 H 1954.89 0.989757 -4.77551 0
M  V30 20262 H 1953.9 -1.24077 -5.35617 0
M  V30 20263 H 1955.12 -1.4597 -6.63227 0
M  V30 20264 H 1953.07 0.781165 -6.51332 0
M  V30 20265 H 1952.99 -0.616488 -7.53482 0
M  V30 20266 H 1954.25 0.548029 -7.77571 0
M  V30 20267 N 1958.48 1.43142 -0.659413 0
M  V30 20268 C 1959.71 2.06603 -0.181642 0
M  V30 20269 C 1960.13 1.49137 1.14629 0
M  V30 20270 O 1959.49 0.603739 1.70952 0
M  V30 20271 C 1959.54 3.6043 -0.110662 0
M  V30 20272 O 1958.64 4.01884 0.925344 0
M  V30 20273 H 1957.98 0.656771 -0.097712 0
M  V30 20274 H 1960.51 1.83541 -0.904086 0
M  V30 20275 H 1960.52 4.07939 0.0706089 0
M  V30 20276 H 1959.2 4.01632 -1.08002 0
M  V30 20277 H 1957.78 3.65954 0.716361 0
M  V30 20278 N 1959.96 0.40173 1.52394 0
M  V30 20279 C 1960.87 -0.434422 2.30543 0
M  V30 20280 C 1961.89 -1.06028 1.37964 0
M  V30 20281 O 1963.06 -1.0634 1.71037 0
M  V30 20282 C 1960.13 -1.53995 3.10623 0
M  V30 20283 C 1959.19 -0.93791 4.18929 0
M  V30 20284 C 1958.42 -1.99075 4.95182 0
M  V30 20285 O 1958.64 -3.20777 4.71655 0
M  V30 20286 O 1957.58 -1.60111 5.80214 0
M  V30 20287 H 1961.4 0.202567 3.03024 0
M  V30 20288 H 1958.99 0.165122 1.48485 0
M  V30 20289 H 1960.87 -2.18191 3.60514 0
M  V30 20290 H 1959.55 -2.16167 2.40943 0
M  V30 20291 H 1958.45 -0.25886 3.73203 0
M  V30 20292 H 1959.79 -0.360217 4.9088 0
M  V30 20293 N 1961.44 -1.57047 0.131923 0
M  V30 20294 C 1962.37 -2.19006 -0.809859 0
M  V30 20295 C 1963.35 -1.13384 -1.26799 0
M  V30 20296 O 1964.53 -1.4167 -1.32827 0
M  V30 20297 C 1961.66 -2.79973 -2.05505 0
M  V30 20298 C 1960.62 -3.9129 -1.73424 0
M  V30 20299 C 1959.94 -4.39123 -3.05081 0
M  V30 20300 C 1961.24 -5.12783 -0.992535 0
M  V30 20301 H 1962.94 -2.97958 -0.293522 0
M  V30 20302 H 1960.48 -1.4332 -0.13974 0
M  V30 20303 H 1962.44 -3.2198 -2.71858 0
M  V30 20304 H 1961.16 -1.9833 -2.59486 0
M  V30 20305 H 1959.82 -3.49879 -1.09456 0
M  V30 20306 H 1959.47 -3.54322 -3.57022 0
M  V30 20307 H 1959.17 -5.14197 -2.84385 0
M  V30 20308 H 1960.69 -4.8379 -3.72531 0
M  V30 20309 H 1962.11 -5.51728 -1.55785 0
M  V30 20310 H 1960.5 -5.93522 -0.886062 0
M  V30 20311 H 1961.57 -4.84896 0.0184538 0
M  V30 20312 N 1962.92 0.141865 -1.5696 0
M  V30 20313 C 1963.85 1.17667 -2.01685 0
M  V30 20314 C 1964.83 1.44509 -0.897282 0
M  V30 20315 O 1966.01 1.55342 -1.16544 0
M  V30 20316 C 1963.14 2.50859 -2.40182 0
M  V30 20317 C 1962.1 2.38527 -3.55371 0
M  V30 20318 C 1961.42 3.76476 -3.79697 0
M  V30 20319 C 1962.72 1.86502 -4.87867 0
M  V30 20320 H 1964.42 0.804761 -2.88382 0
M  V30 20321 H 1961.96 0.385672 -1.38739 0
M  V30 20322 H 1963.92 3.2348 -2.70071 0
M  V30 20323 H 1962.64 2.89895 -1.50428 0
M  V30 20324 H 1961.3 1.68357 -3.25656 0
M  V30 20325 H 1960.95 4.12957 -2.87186 0
M  V30 20326 H 1960.65 3.69085 -4.5722 0
M  V30 20327 H 1962.17 4.50638 -4.12017 0
M  V30 20328 H 1963.58 2.48921 -5.16441 0
M  V30 20329 H 1961.98 1.89989 -5.69231 0
M  V30 20330 H 1963.05 0.821025 -4.77899 0
M  V30 20331 N 1964.39 1.52136 0.411372 0
M  V30 20332 C 1965.81 1.58274 0.990272 0
M  V30 20333 C 1966.16 0.421874 1.91611 0
M  V30 20334 O 1965.28 -0.458058 2.11497 0
M  V30 20335 C 1965.88 2.86855 1.80276 0
M  V30 20336 C 1964.44 2.95478 2.33173 0
M  V30 20337 C 1963.58 2.5319 1.13093 0
M  V30 20338 H 1966.53 1.57538 0.191687 0
M  V30 20339 H 1966.55 2.72082 2.65992 0
M  V30 20340 H 1966.07 3.71326 1.12866 0
M  V30 20341 H 1964.17 2.15496 3.03961 0
M  V30 20342 H 1964.28 3.99674 2.64192 0
M  V30 20343 H 1962.64 2.06986 1.48421 0
M  V30 20344 H 1963.43 3.40032 0.472529 0
M  V30 20345 N 1965.87 -0.668464 1.42721 0
M  V30 20346 C 1967.1 -1.45659 1.46939 0
M  V30 20347 C 1967.52 -1.88619 0.0826133 0
M  V30 20348 O 1966.87 -1.58537 -0.904 0
M  V30 20349 C 1966.92 -2.70158 2.40202 0
M  V30 20350 O 1966.65 -2.28999 3.73485 0
M  V30 20351 C 1968.15 -3.63662 2.53505 0
M  V30 20352 H 1965.37 -0.447982 0.499553 0
M  V30 20353 H 1967.91 -0.820826 1.87304 0
M  V30 20354 H 1966.07 -3.29909 2.03074 0
M  V30 20355 H 1966.48 -3.09441 4.23493 0
M  V30 20356 H 1967.95 -4.47726 3.22871 0
M  V30 20357 H 1968.43 -4.09989 1.57498 0
M  V30 20358 H 1969.04 -3.09801 2.91382 0
M  V30 20359 N 1967.35 -1.28999 -0.905381 0
M  V30 20360 C 1968.6 -1.16813 -1.65779 0
M  V30 20361 C 1968.93 0.280936 -1.92157 0
M  V30 20362 O 1968.21 1.2035 -1.52794 0
M  V30 20363 C 1968.49 -1.97593 -3.01047 0
M  V30 20364 C 1968.34 -3.50608 -2.8177 0
M  V30 20365 C 1969.66 -1.79788 -4.01702 0
M  V30 20366 H 1966.78 -0.425716 -0.60161 0
M  V30 20367 H 1969.42 -1.58409 -1.04913 0
M  V30 20368 H 1967.57 -1.62246 -3.52999 0
M  V30 20369 H 1969.24 -3.95905 -2.36763 0
M  V30 20370 H 1967.49 -3.75818 -2.16663 0
M  V30 20371 H 1968.16 -4.02396 -3.77865 0
M  V30 20372 H 1970.63 -2.10649 -3.5884 0
M  V30 20373 H 1969.51 -2.38667 -4.94297 0
M  V30 20374 H 1969.77 -0.75156 -4.35665 0
M  V30 20375 N 1968.83 1.11497 -1.11383 0
M  V30 20376 C 1970.25 1.35232 -0.847616 0
M  V30 20377 C 1970.45 1.9446 0.527973 0
M  V30 20378 O 1969.5 2.17716 1.2789 0
M  V30 20379 C 1970.81 2.28454 -1.95523 0
M  V30 20380 C 1972.36 2.4202 -1.98483 0
M  V30 20381 C 1972.84 3.38563 -3.08446 0
M  V30 20382 N 1974.33 3.46126 -3.07817 0
M  V30 20383 C 1975.06 4.20766 -3.89542 0
M  V30 20384 N 1974.56 4.98388 -4.81229 0
M  V30 20385 N 1976.35 4.16272 -3.77722 0
M  V30 20386 H 1968.5 0.714156 -2.00034 0
M  V30 20387 H 1970.77 0.376936 -0.869841 0
M  V30 20388 H 1970.47 1.92126 -2.94586 0
M  V30 20389 H 1970.35 3.28667 -1.85089 0
M  V30 20390 H 1972.73 2.77623 -1.00047 0
M  V30 20391 H 1972.81 1.4166 -2.12993 0
M  V30 20392 H 1972.46 3.03687 -4.07107 0
M  V30 20393 H 1972.39 4.38776 -2.91176 0
M  V30 20394 H 1974.88 2.90759 -2.41387 0
M  V30 20395 H 1975.19 5.52708 -5.40124 0
M  V30 20396 H 1973.54 4.97551 -4.85251 0
M  V30 20397 H 1976.73 3.54719 -3.05437 0
M  V30 20398 H 1976.9 4.74186 -4.41647 0
M  V30 20399 N 1970.31 0.904053 1.29092 0
M  V30 20400 C 1971.24 0.401805 2.30017 0
M  V30 20401 C 1972.22 -0.525477 1.6178 0
M  V30 20402 O 1973.4 -0.435279 1.89259 0
M  V30 20403 C 1970.53 -0.367656 3.45348 0
M  V30 20404 C 1969.49 0.469596 4.25416 0
M  V30 20405 C 1968.81 -0.427624 5.32987 0
M  V30 20406 C 1970.11 1.7218 4.93104 0
M  V30 20407 H 1971.81 1.24523 2.72276 0
M  V30 20408 H 1969.35 0.600215 1.30895 0
M  V30 20409 H 1971.31 -0.729791 4.15033 0
M  V30 20410 H 1970.03 -1.2449 3.01944 0
M  V30 20411 H 1968.69 0.814119 3.57446 0
M  V30 20412 H 1968.34 -1.30313 4.85827 0
M  V30 20413 H 1968.04 0.128909 5.87459 0
M  V30 20414 H 1969.56 -0.785855 6.05522 0
M  V30 20415 H 1970.98 1.42914 5.55201 0
M  V30 20416 H 1969.37 2.21999 5.57527 0
M  V30 20417 H 1970.44 2.45526 4.18145 0
M  V30 20418 N 1971.79 -1.4279 0.666995 0
M  V30 20419 C 1972.72 -2.335 -0.00234362 0
M  V30 20420 C 1973.7 -1.50244 -0.797537 0
M  V30 20421 O 1974.88 -1.7887 -0.756257 0
M  V30 20422 C 1972.01 -3.33774 -0.959795 0
M  V30 20423 C 1970.97 -4.27124 -0.273749 0
M  V30 20424 C 1970.29 -5.17544 -1.3436 0
M  V30 20425 C 1971.59 -5.15462 0.842411 0
M  V30 20426 H 1973.29 -2.89719 0.755212 0
M  V30 20427 H 1970.83 -1.39307 0.364622 0
M  V30 20428 H 1972.78 -3.96139 -1.43707 0
M  V30 20429 H 1971.51 -2.75842 -1.74868 0
M  V30 20430 H 1970.17 -3.66142 0.18321 0
M  V30 20431 H 1969.82 -4.55943 -2.12427 0
M  V30 20432 H 1969.52 -5.80825 -0.889738 0
M  V30 20433 H 1971.04 -5.82784 -1.82196 0
M  V30 20434 H 1972.45 -5.71557 0.4467 0
M  V30 20435 H 1970.85 -5.87535 1.22158 0
M  V30 20436 H 1971.92 -4.54327 1.69454 0
M  V30 20437 N 1973.26 -0.409806 -1.52179 0
M  V30 20438 C 1974.17 0.42219 -2.3077 0
M  V30 20439 C 1975.19 1.05295 -1.38524 0
M  V30 20440 O 1976.37 1.05432 -1.71599 0
M  V30 20441 C 1973.43 1.52345 -3.11435 0
M  V30 20442 C 1972.49 0.91568 -4.19421 0
M  V30 20443 C 1971.72 1.96446 -4.9623 0
M  V30 20444 O 1971.95 3.18271 -4.7335 0
M  V30 20445 O 1970.88 1.57032 -5.81055 0
M  V30 20446 H 1974.71 -0.218635 -3.02912 0
M  V30 20447 H 1972.29 -0.172994 -1.48395 0
M  V30 20448 H 1974.17 2.16276 -3.61666 0
M  V30 20449 H 1972.85 2.14886 -2.42086 0
M  V30 20450 H 1971.76 0.239064 -3.73335 0
M  V30 20451 H 1973.09 0.33418 -4.91064 0
M  V30 20452 N 1974.74 1.56975 -0.14025 0
M  V30 20453 C 1975.97 2.00699 0.522938 0
M  V30 20454 C 1976.39 1.01964 1.58066 0
M  V30 20455 O 1975.75 -0.0056107 1.81299 0
M  V30 20456 C 1975.8 3.43203 1.10653 0
M  V30 20457 O 1974.9 3.47447 2.22159 0
M  V30 20458 H 1974.24 0.65143 0.12859 0
M  V30 20459 H 1976.77 2.03246 -0.234993 0
M  V30 20460 H 1976.78 3.81862 1.43686 0
M  V30 20461 H 1975.46 4.14573 0.331913 0
M  V30 20462 H 1974.03 3.20625 1.90405 0
M  V30 20463 N 1976.22 -0.133539 1.57033 0
M  V30 20464 C 1977.15 -1.16595 2.02306 0
M  V30 20465 C 1978.13 -1.44031 0.904933 0
M  V30 20466 O 1979.32 -1.54721 1.17367 0
M  V30 20467 C 1976.45 -2.49581 2.41509 0
M  V30 20468 C 1975.4 -2.36639 3.56631 0
M  V30 20469 C 1974.73 -3.74457 3.81688 0
M  V30 20470 C 1976.03 -1.83912 4.88849 0
M  V30 20471 H 1977.72 -0.789456 2.88804 0
M  V30 20472 H 1975.27 -0.378309 1.38942 0
M  V30 20473 H 1977.22 -3.22043 2.71783 0
M  V30 20474 H 1975.94 -2.89093 1.51964 0
M  V30 20475 H 1974.6 -1.66628 3.26544 0
M  V30 20476 H 1974.25 -4.11428 2.89372 0
M  V30 20477 H 1973.95 -3.66655 4.59171 0
M  V30 20478 H 1975.47 -4.48446 4.14401 0
M  V30 20479 H 1976.89 -2.46178 5.17754 0
M  V30 20480 H 1975.28 -1.86967 5.70231 0
M  V30 20481 H 1976.35 -0.795669 4.78327 0
M  V30 20482 N 1977.7 -1.52352 -0.403298 0
M  V30 20483 C 1978.95 -1.66368 -1.14744 0
M  V30 20484 C 1979.27 -0.398899 -1.90876 0
M  V30 20485 O 1978.54 0.586372 -1.86918 0
M  V30 20486 H 1977.12 -0.613226 -0.426571 0
M  V30 20487 H 1979.78 -1.89416 -0.459075 0
M  V30 20488 H 1978.87 -2.50748 -1.85828 0
M  V30 20489 N 1979.18 0.660885 -1.43074 0
M  V30 20490 C 1980.41 1.44668 -1.47495 0
M  V30 20491 C 1980.81 1.8899 -0.0890316 0
M  V30 20492 O 1980.16 1.59607 0.90946 0
M  V30 20493 C 1980.22 2.71909 -2.35171 0
M  V30 20494 C 1979.88 2.49576 -3.82833 0
M  V30 20495 C 1980.88 2.13286 -4.74136 0
M  V30 20496 C 1978.56 2.64138 -4.27243 0
M  V30 20497 C 1980.56 1.91846 -6.07844 0
M  V30 20498 C 1978.25 2.42313 -5.61006 0
M  V30 20499 C 1979.24 2.06222 -6.51123 0
M  V30 20500 O 1978.93 1.84619 -7.82414 0
M  V30 20501 H 1978.66 0.451167 -0.503412 0
M  V30 20502 H 1981.22 0.81822 -1.88399 0
M  V30 20503 H 1979.45 3.37287 -1.89141 0
M  V30 20504 H 1981.14 3.33836 -2.30885 0
M  V30 20505 H 1981.9 2.01619 -4.41106 0
M  V30 20506 H 1977.78 2.91206 -3.5738 0
M  V30 20507 H 1981.33 1.63599 -6.78145 0
M  V30 20508 H 1977.22 2.53581 -5.93605 0
M  V30 20509 H 1977.99 1.99106 -7.93914 0
M  V30 20510 N 1980.65 1.29477 0.898527 0
M  V30 20511 C 1981.88 1.20529 1.68783 0
M  V30 20512 C 1982.3 -0.230536 1.86682 0
M  V30 20513 O 1981.66 -1.1664 1.38798 0
M  V30 20514 C 1981.71 1.92501 3.04919 0
M  V30 20515 O 1980.81 1.24286 3.93226 0
M  V30 20516 H 1980.16 0.417586 0.516254 0
M  V30 20517 H 1982.69 1.71066 1.1224 0
M  V30 20518 H 1982.7 2.01001 3.55053 0
M  V30 20519 H 1981.37 2.96934 2.9121 0
M  V30 20520 H 1979.95 1.24052 3.51661 0
M  V30 20521 N 1982.13 -1.10905 1.11972 0
M  V30 20522 C 1983.06 -2.19168 0.805461 0
M  V30 20523 C 1984.04 -1.68557 -0.228623 0
M  V30 20524 O 1985.23 -1.93987 -0.0908778 0
M  V30 20525 C 1982.36 -3.4637 0.253951 0
M  V30 20526 C 1981.31 -4.10228 1.22054 0
M  V30 20527 C 1980.64 -5.32072 0.529483 0
M  V30 20528 C 1981.94 -4.54506 2.57336 0
M  V30 20529 H 1983.63 -2.45713 1.71071 0
M  V30 20530 H 1981.18 -1.18096 0.823969 0
M  V30 20531 H 1983.13 -4.21394 0.0218576 0
M  V30 20532 H 1981.86 -3.19301 -0.68662 0
M  V30 20533 H 1980.51 -3.37204 1.43836 0
M  V30 20534 H 1980.16 -5.01276 -0.416074 0
M  V30 20535 H 1979.86 -5.75748 1.17422 0
M  V30 20536 H 1981.39 -6.09831 0.306313 0
M  V30 20537 H 1982.8 -5.20826 2.3961 0
M  V30 20538 H 1981.2 -5.09015 3.17842 0
M  V30 20539 H 1982.27 -3.67671 3.16143 0
M  V30 20540 N 1983.61 -0.910886 -1.2861 0
M  V30 20541 C 1984.84 -0.557522 -1.98935 0
M  V30 20542 C 1985.25 0.864875 -1.68275 0
M  V30 20543 O 1984.59 1.58401 -0.930312 0
M  V30 20544 C 1984.65 -0.683336 -3.52946 0
M  V30 20545 C 1984.32 -2.07475 -4.07189 0
M  V30 20546 C 1985.31 -3.04716 -4.21241 0
M  V30 20547 C 1983 -2.38716 -4.4195 0
M  V30 20548 C 1984.99 -4.31315 -4.69303 0
M  V30 20549 C 1982.68 -3.65555 -4.89707 0
M  V30 20550 C 1983.68 -4.61669 -5.0334 0
M  V30 20551 O 1983.37 -5.86254 -5.50056 0
M  V30 20552 H 1983.1 -0.211519 -0.642056 0
M  V30 20553 H 1985.65 -1.22539 -1.64843 0
M  V30 20554 H 1983.88 0.0415955 -3.86678 0
M  V30 20555 H 1985.57 -0.337494 -4.04494 0
M  V30 20556 H 1986.34 -2.81898 -3.94662 0
M  V30 20557 H 1982.22 -1.64658 -4.30591 0
M  V30 20558 H 1985.76 -5.0634 -4.79859 0
M  V30 20559 H 1981.66 -3.88199 -5.15724 0
M  V30 20560 H 1982.43 -5.89002 -5.68347 0
M  V30 20561 N 1985.09 1.42434 -0.674558 0
M  V30 20562 C 1986.05 2.29199 -0.00527063 0
M  V30 20563 C 1987.05 1.43313 0.729245 0
M  V30 20564 O 1988.24 1.64704 0.567284 0
M  V30 20565 C 1985.37 3.25805 1.0032 0
M  V30 20566 H 1986.57 2.89874 -0.768954 0
M  V30 20567 H 1984.12 1.5007 -0.436898 0
M  V30 20568 H 1984.85 2.70068 1.79538 0
M  V30 20569 H 1984.64 3.89152 0.479902 0
M  V30 20570 H 1986.13 3.90875 1.46993 0
M  V30 20571 N 1986.57 0.417871 1.51959 0
M  V30 20572 C 1987.79 -0.156736 2.06807 0
M  V30 20573 C 1988.22 -1.37354 1.28512 0
M  V30 20574 O 1987.57 -1.78494 0.317715 0
M  V30 20575 C 1987.62 -0.476913 3.57432 0
M  V30 20576 O 1986.73 -1.56654 3.81488 0
M  V30 20577 H 1986.07 -0.0103873 0.663919 0
M  V30 20578 H 1988.6 0.593593 1.958 0
M  V30 20579 H 1988.61 -0.733026 4.01361 0
M  V30 20580 H 1987.28 0.412542 4.13849 0
M  V30 20581 H 1985.86 -1.30191 3.49435 0
M  V30 20582 N 1988.04 -1.56898 0.148573 0
M  V30 20583 C 1988.97 -2.19852 -0.786585 0
M  V30 20584 C 1989.96 -1.14723 -1.2559 0
M  V30 20585 O 1991.14 -1.43071 -1.31317 0
M  V30 20586 C 1988.27 -2.82137 -2.02524 0
M  V30 20587 C 1987.22 -3.93108 -1.69264 0
M  V30 20588 C 1986.55 -4.42335 -3.00407 0
M  V30 20589 C 1987.85 -5.13807 -0.938092 0
M  V30 20590 H 1989.54 -2.98252 -0.261903 0
M  V30 20591 H 1987.09 -1.43461 -0.124531 0
M  V30 20592 H 1989.04 -3.24845 -2.68428 0
M  V30 20593 H 1987.77 -2.01071 -2.57368 0
M  V30 20594 H 1986.43 -3.5102 -1.05739 0
M  V30 20595 H 1986.07 -3.58089 -3.53244 0
M  V30 20596 H 1985.77 -5.17185 -2.78915 0
M  V30 20597 H 1987.3 -4.87714 -3.67378 0
M  V30 20598 H 1988.71 -5.53349 -1.49924 0
M  V30 20599 H 1987.11 -5.94429 -0.823062 0
M  V30 20600 H 1988.18 -4.8485 0.0698825 0
M  V30 20601 N 1989.52 0.125209 -1.57102 0
M  V30 20602 C 1990.77 0.832437 -1.8416 0
M  V30 20603 C 1991.09 1.80706 -0.732819 0
M  V30 20604 O 1990.36 1.94378 0.243723 0
M  V30 20605 H 1988.94 0.310405 -0.679454 0
M  V30 20606 H 1991.6 0.114013 -1.94566 0
M  V30 20607 H 1990.7 1.38145 -2.79861 0
M  V30 20608 N 1991 1.52564 0.395213 0
M  V30 20609 C 1992.23 1.71173 1.16222 0
M  V30 20610 C 1992.64 0.427335 1.839 0
M  V30 20611 O 1992 -0.597726 1.72434 0
M  V30 20612 C 1992.05 2.85698 2.21492 0
M  V30 20613 O 1991.77 4.09165 1.56574 0
M  V30 20614 C 1993.27 3.15934 3.10967 0
M  V30 20615 H 1990.49 0.573277 0.348705 0
M  V30 20616 H 1993.04 1.99186 0.463177 0
M  V30 20617 H 1991.19 2.60165 2.87042 0
M  V30 20618 H 1991.61 4.73086 2.26473 0
M  V30 20619 H 1993.08 3.99548 3.80874 0
M  V30 20620 H 1993.56 2.30059 3.74125 0
M  V30 20621 H 1994.16 3.43284 2.5107 0
M  V30 20622 N 1992.48 -0.653289 1.43422 0
M  V30 20623 C 1993.44 -1.74802 1.48246 0
M  V30 20624 C 1994.44 -1.56552 0.367179 0
M  V30 20625 O 1995.63 -1.62451 0.628923 0
M  V30 20626 C 1992.76 -3.13673 1.33499 0
M  V30 20627 H 1993.96 -1.71906 2.4574 0
M  V30 20628 H 1991.51 -0.864936 1.30187 0
M  V30 20629 H 1992.24 -3.22181 0.370118 0
M  V30 20630 H 1992.03 -3.28325 2.14348 0
M  V30 20631 H 1993.52 -3.93502 1.39806 0
M  V30 20632 N 1993.96 -1.29952 -0.891648 0
M  V30 20633 C 1995.23 -1.09057 -1.62376 0
M  V30 20634 C 1995.61 0.362482 -2.07965 0
M  V30 20635 O 1994.96 1.35277 -1.84153 0
M  V30 20636 C 1995.17 -2.08543 -2.79841 0
M  V30 20637 C 1996.52 -2.39899 -3.50333 0
M  V30 20638 O 1997.54 -2.06801 -2.90021 0
M  V30 20639 O 1996.4 -2.96487 -4.59083 0
M  V30 20640 H 1993.5 -0.418386 -0.71336 0
M  V30 20641 H 1996.04 -1.41353 -0.939009 0
M  V30 20642 H 1994.81 -3.06378 -2.43409 0
M  V30 20643 H 1994.44 -1.77024 -3.56017 0
M  V30 20644 N 1995.44 1.1031 -1.12559 0
M  V30 20645 C 1996.68 1.82297 -0.881699 0
M  V30 20646 C 1997.01 1.85258 0.592431 0
M  V30 20647 O 1996.27 1.30985 1.45401 0
M  V30 20648 C 1996.56 3.28699 -1.40326 0
M  V30 20649 C 1996.23 3.45885 -2.89266 0
M  V30 20650 C 1994.89 3.50283 -3.29933 0
M  V30 20651 C 1997.24 3.51172 -3.85134 0
M  V30 20652 C 1994.57 3.57536 -4.65172 0
M  V30 20653 C 1996.92 3.59958 -5.20205 0
M  V30 20654 C 1995.59 3.62621 -5.60413 0
M  V30 20655 H 1994.86 0.667073 -0.322636 0
M  V30 20656 H 1997.51 1.30015 -1.406 0
M  V30 20657 H 1995.81 3.83557 -0.799456 0
M  V30 20658 H 1997.51 3.82913 -1.19074 0
M  V30 20659 H 1994.1 3.4314 -2.56813 0
M  V30 20660 H 1998.28 3.47023 -3.54808 0
M  V30 20661 H 1993.54 3.5788 -4.95713 0
M  V30 20662 H 1997.71 3.62993 -5.94314 0
M  V30 20663 H 1995.34 3.67994 -6.65195 0
M  V30 20664 N 1996.91 0.917694 1.28125 0
M  V30 20665 C 1998.14 0.568064 1.98637 0
M  V30 20666 C 1998.55 -0.855939 1.68732 0
M  V30 20667 O 1997.89 -1.57905 0.938699 0
M  V30 20668 C 1997.96 0.702044 3.52578 0
M  V30 20669 C 1997.62 2.09632 4.06083 0
M  V30 20670 C 1998.62 3.06946 4.19619 0
M  V30 20671 C 1996.3 2.41056 4.40678 0
M  V30 20672 C 1998.3 4.33798 4.67009 0
M  V30 20673 C 1995.98 3.68147 4.87761 0
M  V30 20674 C 1996.98 4.64332 5.00884 0
M  V30 20675 O 1996.67 5.89163 5.46939 0
M  V30 20676 H 1996.4 0.214921 0.640925 0
M  V30 20677 H 1998.96 1.23412 1.64191 0
M  V30 20678 H 1997.19 -0.0210885 3.86694 0
M  V30 20679 H 1998.87 0.358941 4.0431 0
M  V30 20680 H 1999.64 2.83987 3.93162 0
M  V30 20681 H 1995.52 1.6694 4.29712 0
M  V30 20682 H 1999.06 5.08878 4.77167 0
M  V30 20683 H 1994.96 3.90929 5.13659 0
M  V30 20684 H 1995.73 5.92008 5.65216 0
M  V30 20685 N 1998.39 -1.42074 0.682102 0
M  V30 20686 C 1999.62 -2.05769 0.216029 0
M  V30 20687 C 2000.03 -1.51278 -1.12962 0
M  V30 20688 O 1999.39 -0.655521 -1.70321 0
M  V30 20689 C 1999.44 -3.61187 0.150351 0
M  V30 20690 O 1999.16 -4.13659 1.44283 0
M  V30 20691 C 2000.66 -4.42007 -0.338339 0
M  V30 20692 H 1997.88 -0.662997 0.103326 0
M  V30 20693 H 2000.43 -1.82084 0.930895 0
M  V30 20694 H 1998.58 -3.83958 -0.515249 0
M  V30 20695 H 1999 -5.07592 1.32101 0
M  V30 20696 H 2000.47 -5.50994 -0.33319 0
M  V30 20697 H 2000.95 -4.17125 -1.37489 0
M  V30 20698 H 2001.55 -4.2427 0.295782 0
M  V30 20699 N 1999.87 -0.425924 -1.51735 0
M  V30 20700 C 2000.78 0.39769 -2.31205 0
M  V30 20701 C 2001.8 1.0382 -1.39633 0
M  V30 20702 O 2002.97 1.03606 -1.72707 0
M  V30 20703 C 2000.04 1.49033 -3.13033 0
M  V30 20704 C 1999.1 0.871143 -4.20368 0
M  V30 20705 C 1998.33 1.91172 -4.98286 0
M  V30 20706 O 1998.55 3.13232 -4.76699 0
M  V30 20707 O 1997.49 1.5086 -5.82688 0
M  V30 20708 H 2001.31 -0.25075 -3.02663 0
M  V30 20709 H 1998.9 -0.188723 -1.48203 0
M  V30 20710 H 2000.78 2.12428 -3.6394 0
M  V30 20711 H 1999.46 2.12307 -2.44351 0
M  V30 20712 H 1998.36 0.199453 -3.73568 0
M  V30 20713 H 1999.7 0.282077 -4.91391 0
M  V30 20714 N 2001.35 1.56817 -0.156891 0
M  V30 20715 C 2002.3 2.1384 0.790976 0
M  V30 20716 C 2003.28 1.0688 1.20272 0
M  V30 20717 O 2004.47 1.33036 1.16749 0
M  V30 20718 C 2001.6 2.77136 2.0261 0
M  V30 20719 C 2000.69 3.91233 1.637 0
M  V30 20720 N 2001.08 4.96671 0.956661 0
M  V30 20721 C 1999.38 4.02125 1.92903 0
M  V30 20722 C 2000.08 5.76618 0.767257 0
M  V30 20723 N 1999.05 5.27723 1.30421 0
M  V30 20724 H 2002.86 2.92729 0.262059 0
M  V30 20725 H 2000.37 1.6234 0.0443045 0
M  V30 20726 H 2002.37 3.16355 2.71523 0
M  V30 20727 H 2001.03 1.99723 2.5601 0
M  V30 20728 H 2002.04 5.1422 0.61631 0
M  V30 20729 H 1998.72 3.35799 2.48083 0
M  V30 20730 H 2000.11 6.71505 0.230312 0
M  V30 20731 N 2002.83 -0.116876 1.57166 0
M  V30 20732 C 2004.07 -0.822659 1.84599 0
M  V30 20733 C 2004.39 -1.80315 0.742392 0
M  V30 20734 O 2003.66 -1.94505 -0.233411 0
M  V30 20735 H 2002.24 -0.306797 0.681091 0
M  V30 20736 H 2004.91 -0.103693 1.94624 0
M  V30 20737 H 2004 -1.36659 2.8059 0
M  V30 20738 N 2004.3 -1.52772 -0.387116 0
M  V30 20739 C 2005.55 -1.68156 -1.13364 0
M  V30 20740 C 2005.88 -0.421195 -1.89577 0
M  V30 20741 O 2005.16 0.581056 -1.85618 0
M  V30 20742 C 2005.44 -2.91781 -2.11036 0
M  V30 20743 C 2005.29 -4.27922 -1.38573 0
M  V30 20744 C 2006.61 -3.10957 -3.11438 0
M  V30 20745 H 2003.73 -0.611922 -0.410755 0
M  V30 20746 H 2006.37 -1.85372 -0.416809 0
M  V30 20747 H 2004.52 -2.77234 -2.72165 0
M  V30 20748 H 2006.2 -4.54241 -0.803941 0
M  V30 20749 H 2004.44 -4.28316 -0.687576 0
M  V30 20750 H 2005.11 -5.10514 -2.09952 0
M  V30 20751 H 2007.59 -3.24547 -2.604 0
M  V30 20752 H 2006.46 -3.9893 -3.77022 0
M  V30 20753 H 2006.72 -2.25258 -3.80409 0
M  V30 20754 N 2005.78 0.645673 -1.43767 0
M  V30 20755 C 2006.73 1.75828 -1.4951 0
M  V30 20756 C 2007.7 1.62496 -0.344109 0
M  V30 20757 O 2008.88 1.82631 -0.552323 0
M  V30 20758 C 2006.02 3.14017 -1.43134 0
M  V30 20759 C 2005.14 3.38428 -2.68496 0
M  V30 20760 C 2004.27 4.66507 -2.54056 0
M  V30 20761 C 2003.31 4.84049 -3.74651 0
M  V30 20762 N 2002.45 6.03392 -3.58974 0
M  V30 20763 H 2007.29 1.70254 -2.44576 0
M  V30 20764 H 2004.82 0.830729 -1.21397 0
M  V30 20765 H 2006.78 3.93915 -1.37431 0
M  V30 20766 H 2005.41 3.18642 -0.516449 0
M  V30 20767 H 2004.46 2.52574 -2.84448 0
M  V30 20768 H 2005.78 3.47274 -3.58054 0
M  V30 20769 H 2004.93 5.54543 -2.46103 0
M  V30 20770 H 2003.67 4.59996 -1.62035 0
M  V30 20771 H 2002.67 3.94447 -3.83004 0
M  V30 20772 H 2003.9 4.92385 -4.67689 0
M  V30 20773 H 2001.85 5.97998 -2.69694 0
M  V30 20774 H 2001.76 6.13229 -4.42138 0
M  V30 20775 H 2003.03 6.94029 -3.54887 0
M  V30 20776 N 2007.26 1.30423 0.884744 0
M  V30 20777 C 2008.51 1.19435 1.63899 0
M  V30 20778 C 2008.84 -0.25033 1.9258 0
M  V30 20779 O 2008.11 -1.17904 1.5469 0
M  V30 20780 C 2008.4 2.02357 2.97865 0
M  V30 20781 C 2008.25 3.55046 2.76156 0
M  V30 20782 C 2009.57 1.86156 3.98791 0
M  V30 20783 H 2006.69 0.435234 0.594761 0
M  V30 20784 H 2009.33 1.60058 1.0238 0
M  V30 20785 H 2007.48 1.67842 3.50373 0
M  V30 20786 H 2009.15 3.99622 2.30434 0
M  V30 20787 H 2007.39 3.79218 2.10657 0
M  V30 20788 H 2008.07 4.08356 3.71415 0
M  V30 20789 H 2010.54 2.16332 3.55443 0
M  V30 20790 H 2009.42 2.46501 4.90437 0
M  V30 20791 H 2009.68 0.820775 4.34414 0
M  V30 20792 N 2008.74 -1.09711 1.13142 0
M  V30 20793 C 2009.97 -1.85595 0.914436 0
M  V30 20794 C 2010.38 -1.81013 -0.536632 0
M  V30 20795 O 2009.74 -1.20419 -1.37134 0
M  V30 20796 C 2009.79 -3.33692 1.39039 0
M  V30 20797 O 2009.51 -3.38219 2.78459 0
M  V30 20798 C 2011.01 -4.26427 1.21142 0
M  V30 20799 H 2008.23 -0.586333 0.326274 0
M  V30 20800 H 2010.77 -1.38646 1.50325 0
M  V30 20801 H 2008.93 -3.7808 0.844641 0
M  V30 20802 H 2009.34 -4.30567 2.9952 0
M  V30 20803 H 2010.82 -5.28508 1.59323 0
M  V30 20804 H 2011.29 -4.38934 0.152782 0
M  V30 20805 H 2011.9 -3.87851 1.74505 0
M  V30 20806 N 2010.22 -0.924476 -1.27637 0
M  V30 20807 C 2011.18 -0.425772 -2.25211 0
M  V30 20808 C 2012.18 0.453876 -1.54261 0
M  V30 20809 O 2013.37 0.255412 -1.72317 0
M  V30 20810 C 2010.5 0.388294 -3.38681 0
M  V30 20811 H 2011.69 -1.28783 -2.70841 0
M  V30 20812 H 2009.25 -0.704863 -1.39504 0
M  V30 20813 H 2009.98 1.2693 -2.98428 0
M  V30 20814 H 2009.77 -0.242358 -3.9135 0
M  V30 20815 H 2011.26 0.727693 -4.11211 0
M  V30 20816 N 2011.69 1.41711 -0.689627 0
M  V30 20817 C 2012.94 2.0162 -0.218409 0
M  V30 20818 C 2013.27 1.54471 1.17696 0
M  V30 20819 O 2012.55 0.753301 1.7932 0
M  V30 20820 C 2012.83 3.5909 -0.269485 0
M  V30 20821 C 2012.68 4.16381 -1.70137 0
M  V30 20822 C 2014 4.38508 0.374046 0
M  V30 20823 H 2011.12 0.732553 -0.0808378 0
M  V30 20824 H 2013.76 1.68537 -0.877222 0
M  V30 20825 H 2011.91 3.87405 0.291466 0
M  V30 20826 H 2013.59 3.98964 -2.31571 0
M  V30 20827 H 2011.83 3.71648 -2.23741 0
M  V30 20828 H 2012.5 5.25535 -1.68869 0
M  V30 20829 H 2014.98 4.15971 -0.103624 0
M  V30 20830 H 2013.85 5.48037 0.307738 0
M  V30 20831 H 2014.11 4.1751 1.45388 0
M  V30 20832 N 2013.17 0.433965 1.51507 0
M  V30 20833 C 2014.45 -0.193401 1.94642 0
M  V30 20834 C 2014.83 -1.60398 1.37243 0
M  V30 20835 O 2014.18 -2.21579 0.558139 0
M  V30 20836 C 2014.39 -0.174558 3.48563 0
M  V30 20837 C 2015.74 -0.381783 4.2288 0
M  V30 20838 O 2016.76 -0.252823 3.55302 0
M  V30 20839 O 2015.62 -0.638151 5.42761 0
M  V30 20840 H 2012.71 -0.131787 0.816432 0
M  V30 20841 H 2015.26 0.491701 1.6242 0
M  V30 20842 H 2014.03 0.811732 3.82788 0
M  V30 20843 H 2013.65 -0.902712 3.87217 0
M  V30 20844 N 2014.65 -1.56732 0.165206 0
M  V30 20845 C 2015.9 -1.97763 -0.475543 0
M  V30 20846 C 2016.25 -1.04927 -1.6127 0
M  V30 20847 O 2015.54 -0.087751 -1.91399 0
M  V30 20848 C 2015.74 -3.42783 -1.01165 0
M  V30 20849 C 2015.57 -4.49642 0.0720333 0
M  V30 20850 C 2014.34 -5.02621 0.519634 0
M  V30 20851 C 2016.54 -5.06885 0.8702 0
M  V30 20852 N 2014.52 -5.93106 1.58426 0
M  V30 20853 C 2015.89 -5.93752 1.78489 0
M  V30 20854 C 2017.94 -4.89402 0.915962 0
M  V30 20855 C 2016.65 -6.65008 2.74147 0
M  V30 20856 C 2018.67 -5.61374 1.86045 0
M  V30 20857 C 2018.03 -6.47964 2.76264 0
M  V30 20858 H 2014.13 -0.768945 -0.142294 0
M  V30 20859 H 2016.72 -1.92902 0.264013 0
M  V30 20860 H 2014.89 -3.48202 -1.72075 0
M  V30 20861 H 2016.62 -3.70838 -1.62052 0
M  V30 20862 H 2013.38 -4.73452 0.118477 0
M  V30 20863 H 2013.8 -6.43053 2.11688 0
M  V30 20864 H 2018.44 -4.2216 0.232502 0
M  V30 20865 H 2016.16 -7.31467 3.43484 0
M  V30 20866 H 2019.75 -5.49836 1.90189 0
M  V30 20867 H 2018.63 -7.02678 3.48157 0
M  V30 20868 N 2016.13 0.10854 -1.57226 0
M  V30 20869 C 2017.08 1.13867 -1.97531 0
M  V30 20870 C 2018.06 1.36505 -0.851775 0
M  V30 20871 O 2019.25 1.37422 -1.11554 0
M  V30 20872 C 2016.38 2.4625 -2.39198 0
M  V30 20873 C 2015.47 2.27043 -3.58207 0
M  V30 20874 N 2015.86 1.77671 -4.73568 0
M  V30 20875 C 2014.16 2.5766 -3.64043 0
M  V30 20876 C 2014.86 1.72418 -5.5556 0
M  V30 20877 N 2013.84 2.17145 -4.98346 0
M  V30 20878 H 2017.64 0.749664 -2.84178 0
M  V30 20879 H 2015.15 0.31615 -1.59293 0
M  V30 20880 H 2017.15 3.20769 -2.66295 0
M  V30 20881 H 2015.81 2.859 -1.5392 0
M  V30 20882 H 2016.82 1.47065 -4.96581 0
M  V30 20883 H 2013.5 3.00925 -2.89397 0
M  V30 20884 H 2014.89 1.35411 -6.58113 0
M  V30 20885 N 2017.61 1.52975 0.379009 0
M  V30 20886 C 2018.85 1.68505 1.12304 0
M  V30 20887 C 2019.18 0.430012 1.89687 0
M  V30 20888 O 2018.44 -0.587809 1.86664 0
M  V30 20889 C 2018.74 2.8776 2.11964 0
M  V30 20890 C 2018.4 4.24806 1.51163 0
M  V30 20891 C 2017.06 4.62077 1.34308 0
M  V30 20892 C 2019.42 5.10087 1.07053 0
M  V30 20893 C 2016.74 5.82277 0.719058 0
M  V30 20894 C 2019.1 6.30921 0.460559 0
M  V30 20895 C 2017.76 6.66915 0.279391 0
M  V30 20896 H 2017.03 0.616604 0.41095 0
M  V30 20897 H 2019.68 1.87137 0.406443 0
M  V30 20898 H 2017.98 2.63586 2.89879 0
M  V30 20899 H 2019.68 2.96971 2.69461 0
M  V30 20900 H 2016.27 3.95453 1.65272 0
M  V30 20901 H 2020.45 4.81854 1.18872 0
M  V30 20902 H 2015.71 6.08765 0.566983 0
M  V30 20903 H 2019.88 6.96312 0.110504 0
M  V30 20904 H 2017.51 7.5992 -0.206228 0
M  V30 20905 N 2019.08 -0.63804 1.44107 0
M  V30 20906 C 2019.99 -1.77914 1.52917 0
M  V30 20907 C 2021.01 -1.68972 0.415266 0
M  V30 20908 O 2022.19 -1.89872 0.671613 0
M  V30 20909 C 2019.25 -3.14268 1.46412 0
M  V30 20910 C 2018.31 -3.34893 2.68598 0
M  V30 20911 C 2017.55 -4.64742 2.62394 0
M  V30 20912 O 2017.77 -5.45095 1.68011 0
M  V30 20913 O 2016.7 -4.87419 3.53138 0
M  V30 20914 H 2020.53 -1.73435 2.49307 0
M  V30 20915 H 2018.11 -0.798412 1.26276 0
M  V30 20916 H 2020 -3.95564 1.45282 0
M  V30 20917 H 2018.67 -3.19304 0.531634 0
M  V30 20918 H 2017.58 -2.53302 2.75297 0
M  V30 20919 H 2018.91 -3.34714 3.6087 0
M  V30 20920 N 2020.56 -1.3089 -0.877815 0
M  V30 20921 C 2021.47 -1.19819 -2.01694 0
M  V30 20922 C 2022.49 -0.116563 -1.73609 0
M  V30 20923 O 2023.66 -0.332871 -1.9863 0
M  V30 20924 C 2020.73 -0.898133 -3.34865 0
M  V30 20925 C 2019.79 -2.06586 -3.76325 0
M  V30 20926 C 2019.02 -1.78002 -5.03141 0
M  V30 20927 O 2019.25 -0.711373 -5.65947 0
M  V30 20928 O 2018.18 -2.63452 -5.41181 0
M  V30 20929 H 2022.01 -2.15529 -2.13965 0
M  V30 20930 H 2019.59 -1.10553 -1.00491 0
M  V30 20931 H 2021.47 -0.746305 -4.14739 0
M  V30 20932 H 2020.15 0.0290018 -3.23687 0
M  V30 20933 H 2019.06 -2.27305 -2.97125 0
M  V30 20934 H 2020.39 -2.97497 -3.92118 0
M  V30 20935 N 2022.04 1.0911 -1.13723 0
M  V30 20936 C 2023 2.14011 -0.820475 0
M  V30 20937 C 2024 1.59882 0.171573 0
M  V30 20938 O 2025.19 1.7411 -0.0559029 0
M  V30 20939 C 2022.33 3.40178 -0.221758 0
M  V30 20940 H 2023.52 2.43541 -1.75007 0
M  V30 20941 H 2021.07 1.24702 -0.94229 0
M  V30 20942 H 2021.81 3.16277 0.716904 0
M  V30 20943 H 2021.59 3.80759 -0.936208 0
M  V30 20944 H 2023.08 4.17596 -0.0171079 0
M  V30 20945 N 2023.52 0.931232 1.27145 0
M  V30 20946 C 2024.76 0.574376 1.94496 0
M  V30 20947 C 2025.1 -0.882702 1.7298 0
M  V30 20948 O 2024.37 -1.63016 1.06094 0
M  V30 20949 C 2024.66 0.905384 3.48532 0
M  V30 20950 C 2024.51 2.41647 3.79377 0
M  V30 20951 C 2025.83 0.413756 4.38151 0
M  V30 20952 H 2022.95 0.210149 0.706404 0
M  V30 20953 H 2025.59 1.16365 1.50197 0
M  V30 20954 H 2023.74 0.403903 3.86395 0
M  V30 20955 H 2025.41 2.98992 3.51286 0
M  V30 20956 H 2023.65 2.86417 3.25803 0
M  V30 20957 H 2024.32 2.5986 4.87008 0
M  V30 20958 H 2026.8 0.843592 4.07459 0
M  V30 20959 H 2025.68 0.67428 5.44743 0
M  V30 20960 H 2025.94 -0.686214 4.36742 0
M  V30 20961 N 2025 -1.41343 0.697132 0
M  V30 20962 C 2026.27 -1.94971 0.156721 0
M  V30 20963 C 2026.65 -1.63641 -1.33359 0
M  V30 20964 O 2026 -0.944246 -2.08077 0
M  V30 20965 C 2026.21 -3.46091 0.449687 0
M  V30 20966 C 2027.56 -4.22912 0.378281 0
M  V30 20967 O 2028.58 -3.54117 0.38469 0
M  V30 20968 O 2027.44 -5.45443 0.339755 0
M  V30 20969 H 2024.54 -0.826847 0.0158852 0
M  V30 20970 H 2027.08 -1.51052 0.7734 0
M  V30 20971 H 2025.86 -3.62183 1.48119 0
M  V30 20972 H 2025.48 -3.97107 -0.197886 0
M  V30 20973 N 2026.48 -0.441993 -1.51275 0
M  V30 20974 C 2027.72 0.122669 -2.01727 0
M  V30 20975 C 2028.04 1.42804 -1.32786 0
M  V30 20976 O 2027.31 1.90329 -0.463874 0
M  V30 20977 H 2025.89 0.0483227 -0.745435 0
M  V30 20978 H 2028.56 -0.585765 -1.85889 0
M  V30 20979 H 2027.65 0.295224 -3.10701 0
M  V30 20980 N 2027.95 1.56642 -0.173515 0
M  V30 20981 C 2028.86 2.2166 0.768363 0
M  V30 20982 C 2029.88 1.20892 1.25144 0
M  V30 20983 O 2031.06 1.53561 1.30311 0
M  V30 20984 C 2028.12 2.84632 1.97953 0
M  V30 20985 C 2027.18 4.00608 1.54312 0
M  V30 20986 C 2026.41 4.60567 2.69655 0
M  V30 20987 O 2026.64 4.19419 3.8658 0
M  V30 20988 O 2025.57 5.50401 2.43604 0
M  V30 20989 H 2029.4 3.02712 0.244753 0
M  V30 20990 H 2026.98 1.493 0.0547846 0
M  V30 20991 H 2028.86 3.24553 2.68782 0
M  V30 20992 H 2027.54 2.06575 2.49215 0
M  V30 20993 H 2026.45 3.65352 0.804264 0
M  V30 20994 H 2027.78 4.80264 1.07738 0
M  V30 20995 N 2029.43 -0.1002 1.57281 0
M  V30 20996 C 2030.67 -0.810297 1.87653 0
M  V30 20997 C 2031.04 -1.7615 0.763876 0
M  V30 20998 O 2032.24 -2.51458 0.949868 0
M  V30 20999 C 2030.51 -1.52432 3.23264 0
M  V30 21000 S 2032.07 -2.2734 3.75316 0
M  V30 21001 H 2028.88 -0.270065 0.657713 0
M  V30 21002 H 2031.49 -0.0676718 1.95383 0
M  V30 21003 H 2030.19 -0.817839 4.02169 0
M  V30 21004 H 2029.72 -2.30694 3.18659 0
M  V30 21005 H 2031.74 -3.53392 3.48323 0
M  V30 21006 N 2030.91 -1.53174 -0.370891 0
M  V30 21007 C 2032.32 -1.60843 -0.94796 0
M  V30 21008 C 2032.67 -0.472528 -1.90425 0
M  V30 21009 O 2031.8 0.401822 -2.12637 0
M  V30 21010 C 2032.39 -2.91534 -1.72607 0
M  V30 21011 C 2030.95 -3.01557 -2.25257 0
M  V30 21012 C 2030.1 -2.561 -1.0634 0
M  V30 21013 H 2033.05 -1.57991 -0.149852 0
M  V30 21014 H 2033.07 -2.79038 -2.58685 0
M  V30 21015 H 2032.58 -3.74188 -1.02982 0
M  V30 21016 H 2030.68 -2.23479 -2.9814 0
M  V30 21017 H 2030.8 -4.06538 -2.53502 0
M  V30 21018 H 2029.16 -2.10849 -1.42881 0
M  V30 21019 H 2029.94 -3.41166 -0.38221 0
M  V30 21020 N 2032.39 0.630389 -1.44443 0
M  V30 21021 C 2033.8 1.21202 -1.4201 0
M  V30 21022 C 2034.15 1.95729 -0.135833 0
M  V30 21023 O 2033.27 2.02474 0.763765 0
M  V30 21024 C 2033.87 2.20458 -2.57262 0
M  V30 21025 C 2032.43 2.74047 -2.58021 0
M  V30 21026 C 2031.58 1.49058 -2.33831 0
M  V30 21027 H 2034.53 0.421022 -1.53013 0
M  V30 21028 H 2034.55 3.03074 -2.30057 0
M  V30 21029 H 2034.06 1.66188 -3.50718 0
M  V30 21030 H 2032.16 3.32319 -1.68509 0
M  V30 21031 H 2032.27 3.20036 -3.56531 0
M  V30 21032 H 2030.64 1.77216 -1.82939 0
M  V30 21033 H 2031.42 0.96689 -3.29403 0
M  V30 21034 N 2033.87 1.31354 0.870861 0
M  V30 21035 C 2034.8 1.14748 1.98408 0
M  V30 21036 C 2035.81 0.0868023 1.62568 0
M  V30 21037 O 2037 0.334209 1.75343 0
M  V30 21038 C 2034.1 0.730792 3.30927 0
M  V30 21039 C 2033.27 1.87628 3.95113 0
M  V30 21040 C 2032.33 1.44581 5.05948 0
M  V30 21041 O 2031.36 2.15531 5.26816 0
M  V30 21042 N 2032.56 0.332698 5.79546 0
M  V30 21043 H 2035.32 2.10633 2.13199 0
M  V30 21044 H 2032.89 1.23676 1.04479 0
M  V30 21045 H 2034.88 0.425538 4.02457 0
M  V30 21046 H 2033.45 -0.136426 3.12302 0
M  V30 21047 H 2032.67 2.3489 3.16576 0
M  V30 21048 H 2033.96 2.64356 4.34734 0
M  V30 21049 H 2033.35 -0.258188 5.65111 0
M  V30 21050 H 2031.91 0.0869715 6.51742 0
M  V30 21051 N 2035.34 -1.08505 1.143 0
M  V30 21052 C 2036.76 -1.32937 0.883172 0
M  V30 21053 C 2036.96 -1.95791 -0.47623 0
M  V30 21054 O 2036.02 -2.2103 -1.22073 0
M  V30 21055 C 2037.33 -2.23189 2.01512 0
M  V30 21056 C 2038.88 -2.36672 2.0483 0
M  V30 21057 C 2039.35 -3.30266 3.17314 0
M  V30 21058 N 2040.84 -3.37843 3.16886 0
M  V30 21059 C 2041.58 -4.1029 4.00561 0
M  V30 21060 N 2041.07 -4.85454 4.94274 0
M  V30 21061 N 2042.87 -4.06111 3.88626 0
M  V30 21062 H 2035.02 -0.660869 2.01857 0
M  V30 21063 H 2037.28 -0.353741 0.879529 0
M  V30 21064 H 2036.99 -1.84248 2.99576 0
M  V30 21065 H 2036.86 -3.23644 1.93738 0
M  V30 21066 H 2039.25 -2.74873 1.07373 0
M  V30 21067 H 2039.33 -1.35963 2.16674 0
M  V30 21068 H 2038.97 -2.92787 4.15016 0
M  V30 21069 H 2038.9 -4.30901 3.02707 0
M  V30 21070 H 2041.39 -2.84257 2.49011 0
M  V30 21071 H 2041.71 -5.38193 5.54588 0
M  V30 21072 H 2040.05 -4.8451 4.98272 0
M  V30 21073 H 2043.24 -3.46497 3.14734 0
M  V30 21074 H 2043.42 -4.6231 4.54064 0
M  V30 21075 N 2036.82 -0.937962 -1.26649 0
M  V30 21076 C 2038.05 -0.59993 -1.98534 0
M  V30 21077 C 2038.47 0.817397 -1.69411 0
M  V30 21078 O 2037.83 1.55011 -0.940284 0
M  V30 21079 C 2037.88 -0.844738 -3.50566 0
M  V30 21080 O 2036.98 0.0847162 -4.12313 0
M  V30 21081 H 2036.32 -0.229839 -0.622953 0
M  V30 21082 H 2038.85 -1.26002 -1.61198 0
M  V30 21083 H 2038.86 -0.764359 -4.00776 0
M  V30 21084 H 2037.54 -1.87783 -3.71094 0
M  V30 21085 H 2036.11 -0.0464484 -3.72871 0
M  V30 21086 N 2038.3 1.40971 -0.704618 0
M  V30 21087 C 2039.55 2.00309 -0.236478 0
M  V30 21088 C 2039.86 1.56482 1.17358 0
M  V30 21089 O 2041.07 2.08442 1.73966 0
M  V30 21090 C 2039.52 3.57974 -0.371877 0
M  V30 21091 C 2039.13 4.10779 -1.78788 0
M  V30 21092 C 2040.88 4.24485 0.0360284 0
M  V30 21093 C 2038.78 5.60909 -1.87445 0
M  V30 21094 H 2037.71 0.749233 -0.0846557 0
M  V30 21095 H 2040.36 1.61342 -0.874125 0
M  V30 21096 H 2038.75 3.94587 0.334172 0
M  V30 21097 H 2039.92 3.85565 -2.52342 0
M  V30 21098 H 2038.23 3.56826 -2.14626 0
M  V30 21099 H 2040.83 5.34699 -0.00808813 0
M  V30 21100 H 2041.17 4.02149 1.07621 0
M  V30 21101 H 2041.71 3.92938 -0.620069 0
M  V30 21102 H 2038.45 5.88084 -2.89546 0
M  V30 21103 H 2037.97 5.88021 -1.18287 0
M  V30 21104 H 2039.65 6.25831 -1.6415 0
M  V30 21105 N 2039.78 0.45001 1.51039 0
M  V30 21106 C 2040.71 -0.345315 2.30933 0
M  V30 21107 C 2041.69 -1.00959 1.36899 0
M  V30 21108 O 2042.87 -1.0108 1.6582 0
M  V30 21109 C 2040 -1.43968 3.16055 0
M  V30 21110 C 2038.96 -0.898198 4.18469 0
M  V30 21111 C 2038.28 -2.08927 4.92193 0
M  V30 21112 C 2039.58 0.0760911 5.22245 0
M  V30 21113 H 2041.28 0.321441 2.97669 0
M  V30 21114 H 2038.82 0.156032 1.43152 0
M  V30 21115 H 2040.78 -2.00338 3.70732 0
M  V30 21116 H 2039.5 -2.1349 2.47163 0
M  V30 21117 H 2038.16 -0.356617 3.64861 0
M  V30 21118 H 2037.81 -2.77098 4.19792 0
M  V30 21119 H 2037.51 -1.73328 5.61454 0
M  V30 21120 H 2039.03 -2.65827 5.49698 0
M  V30 21121 H 2040.45 -0.397728 5.71919 0
M  V30 21122 H 2038.84 0.345281 5.99106 0
M  V30 21123 H 2039.91 1.00878 4.74291 0
M  V30 21124 N 2041.26 -1.56548 0.18182 0
M  V30 21125 C 2042.17 -2.22065 -0.756597 0
M  V30 21126 C 2043.18 -1.21554 -1.24501 0
M  V30 21127 O 2044.36 -1.5425 -1.29495 0
M  V30 21128 C 2041.42 -2.85678 -1.9644 0
M  V30 21129 C 2040.48 -4.0142 -1.52185 0
M  V30 21130 C 2039.72 -4.61991 -2.67209 0
M  V30 21131 O 2039.94 -4.21463 -3.8435 0
M  V30 21132 O 2038.87 -5.51685 -2.40682 0
M  V30 21133 H 2042.7 -3.02838 -0.228696 0
M  V30 21134 H 2040.29 -1.49326 -0.0468661 0
M  V30 21135 H 2042.17 -3.25973 -2.67057 0
M  V30 21136 H 2040.84 -2.07894 -2.48116 0
M  V30 21137 H 2039.75 -3.65774 -0.784878 0
M  V30 21138 H 2041.08 -4.80828 -1.0519 0
M  V30 21139 N 2042.73 0.0918577 -1.57332 0
M  V30 21140 C 2043.67 1.13749 -1.98982 0
M  V30 21141 C 2044.68 1.36133 -0.892834 0
M  V30 21142 O 2045.87 1.34728 -1.17092 0
M  V30 21143 C 2042.97 2.49241 -2.29635 0
M  V30 21144 C 2042.14 2.4709 -3.60923 0
M  V30 21145 C 2041.2 3.64534 -3.79475 0
M  V30 21146 O 2040.23 3.46877 -4.51292 0
M  V30 21147 N 2041.43 4.84137 -3.20299 0
M  V30 21148 H 2044.19 0.78297 -2.89292 0
M  V30 21149 H 2041.75 0.280794 -1.59446 0
M  V30 21150 H 2043.75 3.26417 -2.39236 0
M  V30 21151 H 2042.32 2.76771 -1.45316 0
M  V30 21152 H 2041.54 1.55438 -3.62261 0
M  V30 21153 H 2042.82 2.42733 -4.47167 0
M  V30 21154 H 2042.22 5.01386 -2.6197 0
M  V30 21155 H 2040.78 5.58894 -3.35381 0
M  V30 21156 N 2044.21 1.53368 0.362763 0
M  V30 21157 C 2045.14 1.82984 1.45048 0
M  V30 21158 C 2046.12 0.683544 1.55762 0
M  V30 21159 O 2047.31 0.933658 1.70283 0
M  V30 21160 C 2044.44 2.02227 2.8235 0
M  V30 21161 C 2043.39 3.18002 2.86459 0
M  V30 21162 C 2042.72 3.22543 4.26463 0
M  V30 21163 C 2044.02 4.56531 2.53726 0
M  V30 21164 H 2045.71 2.74075 1.20513 0
M  V30 21165 H 2043.26 1.31877 0.578302 0
M  V30 21166 H 2045.21 2.21529 3.58473 0
M  V30 21167 H 2043.94 1.07849 3.08279 0
M  V30 21168 H 2042.59 2.98525 2.12787 0
M  V30 21169 H 2042.24 2.25797 4.49472 0
M  V30 21170 H 2041.94 4.00331 4.30127 0
M  V30 21171 H 2043.47 3.44032 5.04455 0
M  V30 21172 H 2044.88 4.75975 3.19563 0
M  V30 21173 H 2043.28 5.36581 2.68703 0
M  V30 21174 H 2044.35 4.61451 1.48967 0
M  V30 21175 N 2045.69 -0.62272 1.44776 0
M  V30 21176 C 2046.65 -1.71618 1.5192 0
M  V30 21177 C 2047.65 -1.55738 0.400303 0
M  V30 21178 O 2048.84 -1.6108 0.66324 0
M  V30 21179 C 2045.98 -3.10771 1.40122 0
M  V30 21180 H 2047.17 -1.66655 2.49332 0
M  V30 21181 H 2044.72 -0.837126 1.31992 0
M  V30 21182 H 2045.46 -3.21323 0.438374 0
M  V30 21183 H 2045.24 -3.23705 2.21264 0
M  V30 21184 H 2046.73 -3.90448 1.48122 0
M  V30 21185 N 2047.17 -1.31814 -0.863883 0
M  V30 21186 C 2048.08 -1.21951 -2.00412 0
M  V30 21187 C 2049.09 -0.13497 -1.73476 0
M  V30 21188 O 2050.27 -0.35392 -1.98266 0
M  V30 21189 C 2047.34 -0.933599 -3.33893 0
M  V30 21190 C 2046.4 -2.10565 -3.74113 0
M  V30 21191 C 2045.63 -1.83329 -5.01225 0
M  V30 21192 O 2045.85 -0.77136 -5.6516 0
M  V30 21193 O 2044.79 -2.69178 -5.38356 0
M  V30 21194 H 2048.61 -2.17786 -2.11667 0
M  V30 21195 H 2046.2 -1.11613 -0.993126 0
M  V30 21196 H 2048.08 -0.790251 -4.13924 0
M  V30 21197 H 2046.75 -0.00533113 -3.237 0
M  V30 21198 H 2045.66 -2.30443 -2.94698 0
M  V30 21199 H 2046.99 -3.01639 -3.88941 0
M  V30 21200 N 2048.65 1.07897 -1.14873 0
M  V30 21201 C 2049.59 2.14955 -0.840422 0
M  V30 21202 C 2050.56 1.64839 0.204277 0
M  V30 21203 O 2051.75 1.9066 0.0730523 0
M  V30 21204 C 2048.89 3.43521 -0.329768 0
M  V30 21205 C 2048 4.07456 -1.43538 0
M  V30 21206 C 2047.14 5.23836 -0.881432 0
M  V30 21207 C 2046.18 5.79723 -1.96437 0
M  V30 21208 N 2045.31 6.87441 -1.42721 0
M  V30 21209 H 2050.15 2.40669 -1.75734 0
M  V30 21210 H 2047.69 1.18102 -0.876944 0
M  V30 21211 H 2049.65 4.17197 -0.01545 0
M  V30 21212 H 2048.28 3.18076 0.550246 0
M  V30 21213 H 2047.33 3.31489 -1.86599 0
M  V30 21214 H 2048.64 4.45007 -2.25323 0
M  V30 21215 H 2047.8 6.04473 -0.519325 0
M  V30 21216 H 2046.53 4.87689 -0.0326916 0
M  V30 21217 H 2045.54 4.97736 -2.33536 0
M  V30 21218 H 2046.76 6.17927 -2.81678 0
M  V30 21219 H 2044.71 6.53244 -0.600731 0
M  V30 21220 H 2044.63 7.23845 -2.18137 0
M  V30 21221 H 2045.9 7.71797 -1.09317 0
M  V30 21222 N 2050.12 0.944665 1.2615 0
M  V30 21223 C 2051.07 0.44787 2.28247 0
M  V30 21224 C 2052.07 -0.476672 1.62555 0
M  V30 21225 O 2053.27 -0.3545 1.76475 0
M  V30 21226 H 2049.65 0.126306 0.741317 0
M  V30 21227 H 2051.62 1.32142 2.67546 0
M  V30 21228 C 2050.37 -0.268298 3.46663 0
M  V30 21229 H 2049.69 0.433964 3.97438 0
M  V30 21230 H 2051.13 -0.580074 4.20013 0
M  V30 21231 C 2049.59 -1.48732 3.02292 0
M  V30 21232 O 2050.12 -2.58549 3.07434 0
M  V30 21233 N 2048.33 -1.34513 2.57594 0
M  V30 21234 H 2047.87 -0.451649 2.5361 0
M  V30 21235 H 2047.83 -2.16196 2.28269 0
M  V30 21236 N 2051.6 -1.40596 0.712085 0
M  V30 21237 C 2052.85 -2.0095 0.250087 0
M  V30 21238 C 2053.18 -1.5645 -1.15558 0
M  V30 21239 O 2052.43 -0.773994 -1.79744 0
M  V30 21240 C 2052.73 -3.56346 0.27427 0
M  V30 21241 C 2052.4 -4.20416 1.62975 0
M  V30 21242 C 2051.06 -4.37632 2.0008 0
M  V30 21243 C 2053.41 -4.56187 2.52076 0
M  V30 21244 C 2050.74 -4.87899 3.2584 0
M  V30 21245 C 2053.09 -5.07853 3.77185 0
M  V30 21246 C 2051.76 -5.23277 4.14412 0
M  V30 21247 H 2051.03 -0.735327 0.0915134 0
M  V30 21248 H 2053.67 -1.68257 0.914427 0
M  V30 21249 H 2051.98 -3.88927 -0.473638 0
M  V30 21250 H 2053.67 -4.00873 -0.100977 0
M  V30 21251 H 2050.26 -4.07403 1.3312 0
M  V30 21252 H 2054.45 -4.42527 2.24686 0
M  V30 21253 H 2049.7 -4.98026 3.54655 0
M  V30 21254 H 2053.88 -5.34509 4.46401 0
M  V30 21255 H 2051.51 -5.6199 5.11929 0
M  V30 21256 N 2053.08 -0.458013 -1.50798 0
M  V30 21257 C 2053.99 0.348558 -2.31996 0
M  V30 21258 C 2055.01 1.00835 -1.41804 0
M  V30 21259 O 2056.18 0.999192 -1.74866 0
M  V30 21260 C 2053.25 1.4236 -3.16124 0
M  V30 21261 C 2052.31 0.781781 -4.22122 0
M  V30 21262 C 2051.54 1.8056 -5.02229 0
M  V30 21263 O 2051.76 3.0305 -4.83236 0
M  V30 21264 O 2050.7 1.38466 -5.85757 0
M  V30 21265 H 2054.52 -0.314893 -3.02063 0
M  V30 21266 H 2052.11 -0.220117 -1.4777 0
M  V30 21267 H 2053.99 2.04661 -3.68364 0
M  V30 21268 H 2052.67 2.07076 -2.488 0
M  V30 21269 H 2051.57 0.120169 -3.73907 0
M  V30 21270 H 2052.91 0.177782 -4.91879 0
M  V30 21271 N 2054.56 1.56449 -0.190119 0
M  V30 21272 C 2055.49 2.21861 0.728019 0
M  V30 21273 C 2056.47 1.18012 1.22504 0
M  V30 21274 O 2057.66 1.46503 1.27478 0
M  V30 21275 C 2054.79 2.87407 1.94973 0
M  V30 21276 C 2053.74 3.97457 1.58782 0
M  V30 21277 C 2053.07 4.50144 2.88573 0
M  V30 21278 C 2054.37 5.16113 0.801535 0
M  V30 21279 H 2056.06 2.98842 0.182734 0
M  V30 21280 H 2053.61 1.4374 0.0864508 0
M  V30 21281 H 2055.56 3.31848 2.59721 0
M  V30 21282 H 2054.28 2.07824 2.51946 0
M  V30 21283 H 2052.94 3.537 0.96395 0
M  V30 21284 H 2052.59 3.67328 3.43626 0
M  V30 21285 H 2052.29 5.24398 2.65105 0
M  V30 21286 H 2053.81 4.97283 3.54318 0
M  V30 21287 H 2055.23 5.5713 1.35201 0
M  V30 21288 H 2053.62 5.96402 0.66517 0
M  V30 21289 H 2054.69 4.84494 -0.198407 0
M  V30 21290 N 2056.04 -0.0835127 1.57379 0
M  V30 21291 C 2057.28 -0.786031 1.86948 0
M  V30 21292 C 2057.62 -1.77811 0.780828 0
M  V30 21293 O 2056.89 -1.93362 -0.210075 0
M  V30 21294 C 2057.17 -1.50447 3.27166 0
M  V30 21295 C 2057.03 -0.529601 4.46671 0
M  V30 21296 C 2058.35 -2.45226 3.65448 0
M  V30 21297 H 2055.47 -0.284294 0.67996 0
M  V30 21298 H 2058.11 -0.0494231 1.89936 0
M  V30 21299 H 2056.26 -2.13237 3.24749 0
M  V30 21300 H 2057.93 0.0921842 4.61208 0
M  V30 21301 H 2056.17 0.156069 4.33519 0
M  V30 21302 H 2056.84 -1.06967 5.41537 0
M  V30 21303 H 2059.32 -1.92521 3.68883 0
M  V30 21304 H 2058.2 -2.92505 4.6447 0
M  V30 21305 H 2058.46 -3.29506 2.94751 0
M  V30 21306 N 2057.52 -1.53558 -0.354624 0
M  V30 21307 C 2058.76 -1.69489 -1.09346 0
M  V30 21308 C 2059.08 -0.458936 -1.9014 0
M  V30 21309 O 2060.28 -0.498981 -2.66875 0
M  V30 21310 C 2058.74 -2.99663 -1.99324 0
M  V30 21311 C 2058.35 -4.30558 -1.2379 0
M  V30 21312 C 2060.09 -3.2496 -2.73132 0
M  V30 21313 C 2058 -5.51814 -2.12733 0
M  V30 21314 H 2056.93 -0.631535 -0.411922 0
M  V30 21315 H 2059.58 -1.80059 -0.353687 0
M  V30 21316 H 2057.96 -2.82922 -2.77076 0
M  V30 21317 H 2059.14 -4.57966 -0.51025 0
M  V30 21318 H 2057.45 -4.11789 -0.617973 0
M  V30 21319 H 2060.05 -4.12739 -3.39927 0
M  V30 21320 H 2060.39 -2.41491 -3.39099 0
M  V30 21321 H 2060.92 -3.42426 -2.02458 0
M  V30 21322 H 2057.66 -6.37793 -1.51327 0
M  V30 21323 H 2057.18 -5.28669 -2.83317 0
M  V30 21324 H 2058.86 -5.87028 -2.72041 0
M  V30 21325 N 2058.99 0.615033 -1.45104 0
M  V30 21326 C 2059.94 1.74733 -1.53529 0
M  V30 21327 C 2060.94 1.64468 -0.405784 0
M  V30 21328 O 2062.14 1.70352 -0.581394 0
M  V30 21329 H 2058.52 0.577146 -0.482086 0
M  V30 21330 H 2060.49 1.64752 -2.48796 0
M  V30 21331 C 2059.24 3.13102 -1.51204 0
M  V30 21332 H 2058.56 3.21656 -2.3744 0
M  V30 21333 H 2060 3.92179 -1.61158 0
M  V30 21334 C 2058.46 3.36077 -0.235281 0
M  V30 21335 O 2058.99 3.95765 0.687942 0
M  V30 21336 N 2057.19 2.90294 -0.133321 0
M  V30 21337 H 2056.74 2.41903 -0.885467 0
M  V30 21338 H 2056.7 3.06041 0.720147 0
M  V30 21339 N 2060.47 1.3227 0.85688 0
M  V30 21340 C 2061.4 1.23626 1.98088 0
M  V30 21341 C 2062.38 0.120585 1.69672 0
M  V30 21342 O 2063.57 0.307383 1.91752 0
M  V30 21343 C 2060.7 0.956279 3.33875 0
M  V30 21344 C 2059.65 2.03295 3.76637 0
M  V30 21345 C 2058.98 1.60541 5.1003 0
M  V30 21346 C 2060.28 3.4477 3.92341 0
M  V30 21347 H 2061.97 2.17665 2.05578 0
M  V30 21348 H 2059.52 1.04788 0.987703 0
M  V30 21349 H 2061.47 0.882366 4.12059 0
M  V30 21350 H 2060.19 -0.0197585 3.26594 0
M  V30 21351 H 2058.85 2.09698 3.00703 0
M  V30 21352 H 2058.5 0.616883 4.99203 0
M  V30 21353 H 2058.2 2.32578 5.39612 0
M  V30 21354 H 2059.73 1.54582 5.90709 0
M  V30 21355 H 2061.14 3.40968 4.60884 0
M  V30 21356 H 2059.54 4.15137 4.33338 0
M  V30 21357 H 2060.61 3.84594 2.95322 0
M  V30 21358 N 2061.95 -1.07287 1.15444 0
M  V30 21359 C 2063.17 -1.84153 0.954061 0
M  V30 21360 C 2063.6 -1.81534 -0.492639 0
M  V30 21361 O 2062.96 -1.20877 -1.35124 0
M  V30 21362 C 2063.01 -3.29112 1.4737 0
M  V30 21363 O 2062.11 -4.06866 0.673335 0
M  V30 21364 H 2061.45 -0.570198 0.34025 0
M  V30 21365 H 2063.98 -1.35339 1.53442 0
M  V30 21366 H 2063.99 -3.79944 1.48682 0
M  V30 21367 H 2062.67 -3.30333 2.52691 0
M  V30 21368 H 2061.24 -3.65687 0.729894 0
M  V30 21369 N 2063.43 -0.951342 -1.25647 0
M  V30 21370 C 2064.36 -0.413176 -2.24428 0
M  V30 21371 C 2065.34 0.503664 -1.54603 0
M  V30 21372 O 2066.52 0.438794 -1.83322 0
M  V30 21373 C 2063.65 0.405254 -3.36267 0
M  V30 21374 C 2062.7 -0.45151 -4.24103 0
M  V30 21375 S 2063.53 -1.88173 -5.01349 0
M  V30 21376 C 2064.68 -1.07164 -6.16658 0
M  V30 21377 H 2064.92 -1.25033 -2.6973 0
M  V30 21378 H 2062.45 -0.755177 -1.34672 0
M  V30 21379 H 2064.41 0.871528 -4.01142 0
M  V30 21380 H 2063.07 1.21719 -2.89557 0
M  V30 21381 H 2062.26 0.176047 -5.03692 0
M  V30 21382 H 2061.86 -0.852865 -3.64146 0
M  V30 21383 H 2064.16 -0.318733 -6.7675 0
M  V30 21384 H 2065.1 -1.84134 -6.8374 0
M  V30 21385 H 2065.51 -0.603216 -5.61268 0
M  V30 21386 N 2064.91 1.40216 -0.719531 0
M  V30 21387 C 2066.32 1.54673 -0.393494 0
M  V30 21388 C 2066.52 1.69001 1.09732 0
M  V30 21389 O 2065.58 1.6818 1.88339 0
M  V30 21390 C 2066.89 2.77299 -1.163 0
M  V30 21391 C 2068.44 2.9112 -1.14969 0
M  V30 21392 C 2068.91 4.16665 -1.90143 0
M  V30 21393 N 2070.4 4.23673 -1.87232 0
M  V30 21394 C 2071.14 5.19729 -2.42219 0
M  V30 21395 N 2070.64 6.21669 -3.05778 0
M  V30 21396 N 2072.43 5.11835 -2.32338 0
M  V30 21397 H 2064.58 1.29162 -1.68614 0
M  V30 21398 H 2066.84 0.624867 -0.712914 0
M  V30 21399 H 2066.55 2.73003 -2.21726 0
M  V30 21400 H 2066.42 3.69521 -0.757213 0
M  V30 21401 H 2068.81 2.94918 -0.103615 0
M  V30 21402 H 2068.89 2.00005 -1.59473 0
M  V30 21403 H 2068.53 4.13629 -2.94744 0
M  V30 21404 H 2068.46 5.06796 -1.43057 0
M  V30 21405 H 2070.96 3.50645 -1.40914 0
M  V30 21406 H 2071.27 6.91396 -3.45241 0
M  V30 21407 H 2069.61 6.22101 -3.09863 0
M  V30 21408 H 2072.8 4.31127 -1.82338 0
M  V30 21409 H 2072.98 5.86522 -2.75492 0
M  V30 21410 N 2066.38 0.466004 1.50553 0
M  V30 21411 C 2067.63 -0.09056 2.01897 0
M  V30 21412 C 2067.95 -1.40673 1.35041 0
M  V30 21413 O 2067.22 -1.89567 0.494095 0
M  V30 21414 H 2065.8 -0.0364574 0.74611 0
M  V30 21415 H 2068.46 0.615265 1.84934 0
M  V30 21416 H 2067.56 -0.245757 3.11131 0
M  V30 21417 N 2067.86 -1.56346 0.198413 0
M  V30 21418 C 2068.82 -2.1801 -0.707414 0
M  V30 21419 C 2069.82 -1.13547 -1.13858 0
M  V30 21420 O 2071.01 -1.38913 -1.05114 0
M  V30 21421 C 2068.15 -2.78484 -1.96621 0
M  V30 21422 H 2069.34 -2.99417 -0.170156 0
M  V30 21423 H 2066.89 -1.56216 -0.0512075 0
M  V30 21424 H 2067.63 -2.00884 -2.5459 0
M  V30 21425 H 2067.41 -3.54959 -1.66574 0
M  V30 21426 H 2068.9 -3.25823 -2.61207 0
M  V30 21427 N 2069.34 0.0751653 -1.57421 0
M  V30 21428 C 2070.59 0.773427 -1.86715 0
M  V30 21429 C 2070.91 1.78283 -0.789938 0
M  V30 21430 O 2070.18 1.95055 0.18176 0
M  V30 21431 H 2068.76 0.288632 -0.688985 0
M  V30 21432 H 2071.42 0.0520552 -1.9483 0
M  V30 21433 H 2070.52 1.29172 -2.84114 0
M  V30 21434 N 2070.82 1.53744 0.346476 0
M  V30 21435 C 2072.07 1.70512 1.0849 0
M  V30 21436 C 2072.39 0.469467 1.89264 0
M  V30 21437 O 2071.66 -0.516594 1.88966 0
M  V30 21438 H 2070.24 0.628636 0.403517 0
M  V30 21439 H 2072.9 1.9099 0.388459 0
M  V30 21440 H 2072 2.57472 1.76394 0
M  V30 21441 N 2072.3 -0.607329 1.45428 0
M  V30 21442 C 2073.71 -0.92811 1.29839 0
M  V30 21443 C 2073.91 -1.99923 0.251614 0
M  V30 21444 O 2072.97 -2.50001 -0.354354 0
M  V30 21445 C 2074.28 -1.36879 2.6774 0
M  V30 21446 C 2075.83 -1.48299 2.75638 0
M  V30 21447 C 2076.3 -1.95743 4.14064 0
M  V30 21448 N 2077.8 -2.02976 4.16359 0
M  V30 21449 C 2078.53 -2.40908 5.20337 0
M  V30 21450 N 2078.03 -2.77807 6.34661 0
M  V30 21451 N 2079.82 -2.41249 5.07696 0
M  V30 21452 H 2071.97 0.100642 2.12161 0
M  V30 21453 H 2074.23 -0.017631 0.947836 0
M  V30 21454 H 2073.94 -0.655923 3.45529 0
M  V30 21455 H 2073.81 -2.33525 2.96219 0
M  V30 21456 H 2076.2 -2.18677 1.98152 0
M  V30 21457 H 2076.28 -0.499667 2.50872 0
M  V30 21458 H 2075.93 -1.25951 4.92035 0
M  V30 21459 H 2075.86 -2.94989 4.36221 0
M  V30 21460 H 2078.35 -1.77048 3.3386 0
M  V30 21461 H 2078.66 -3.05633 7.09794 0
M  V30 21462 H 2077 -2.75502 6.38062 0
M  V30 21463 H 2080.2 -2.11829 4.17428 0
M  V30 21464 H 2080.37 -2.70485 5.88848 0
M  V30 21465 N 2073.77 -1.32722 -0.849853 0
M  V30 21466 C 2075.19 -1.11818 -1.13882 0
M  V30 21467 C 2075.39 0.0981854 -2.01261 0
M  V30 21468 O 2074.45 0.781678 -2.40096 0
M  V30 21469 C 2075.76 -2.4001 -1.81151 0
M  V30 21470 C 2077.31 -2.45813 -1.93765 0
M  V30 21471 C 2077.78 -3.73939 -2.6445 0
M  V30 21472 N 2079.27 -3.74948 -2.71971 0
M  V30 21473 C 2080.01 -4.70792 -3.27326 0
M  V30 21474 N 2079.5 -5.77005 -3.83454 0
M  V30 21475 N 2081.3 -4.58282 -3.25475 0
M  V30 21476 H 2073.45 -2.10702 -0.26806 0
M  V30 21477 H 2075.71 -0.930482 -0.181405 0
M  V30 21478 H 2075.42 -3.28963 -1.24403 0
M  V30 21479 H 2075.29 -2.51333 -2.81267 0
M  V30 21480 H 2077.68 -1.57316 -2.49671 0
M  V30 21481 H 2077.76 -2.38439 -0.926307 0
M  V30 21482 H 2077.4 -4.62812 -2.09206 0
M  V30 21483 H 2077.33 -3.78586 -3.66034 0
M  V30 21484 H 2079.82 -2.9818 -2.32157 0
M  V30 21485 H 2080.14 -6.46188 -4.23864 0
M  V30 21486 H 2078.48 -5.80753 -3.81773 0
M  V30 21487 H 2081.67 -3.74468 -2.80876 0
M  V30 21488 H 2081.85 -5.3315 -3.68314 0
M  V30 21489 N 2075.25 1.06673 -1.16011 0
M  V30 21490 C 2076.18 2.16027 -0.886249 0
M  V30 21491 C 2077.16 1.69289 0.165907 0
M  V30 21492 O 2078.35 1.94191 0.0188181 0
M  V30 21493 C 2075.48 3.45189 -0.382329 0
M  V30 21494 C 2074.43 4.05415 -1.37195 0
M  V30 21495 C 2073.76 5.2974 -0.726594 0
M  V30 21496 C 2075.06 4.44642 -2.74027 0
M  V30 21497 H 2076.75 2.39195 -1.80073 0
M  V30 21498 H 2074.3 1.14957 -0.867232 0
M  V30 21499 H 2076.25 4.21023 -0.17824 0
M  V30 21500 H 2074.98 3.21629 0.567641 0
M  V30 21501 H 2073.63 3.31634 -1.56252 0
M  V30 21502 H 2073.28 5.02475 0.229742 0
M  V30 21503 H 2072.98 5.70993 -1.38709 0
M  V30 21504 H 2074.51 6.08274 -0.532437 0
M  V30 21505 H 2075.92 5.11574 -2.58775 0
M  V30 21506 H 2074.32 4.96868 -3.36515 0
M  V30 21507 H 2075.39 3.55684 -3.29571 0
M  V30 21508 N 2076.73 0.957992 1.25141 0
M  V30 21509 C 2077.96 0.631439 1.97554 0
M  V30 21510 C 2078.38 -0.790342 1.7069 0
M  V30 21511 O 2077.74 -1.53495 0.964826 0
M  V30 21512 C 2077.79 0.900403 3.49178 0
M  V30 21513 O 2076.89 -0.01911 4.12396 0
M  V30 21514 H 2076.23 0.23972 0.619217 0
M  V30 21515 H 2078.76 1.2855 1.59173 0
M  V30 21516 H 2078.77 0.828022 3.99509 0
M  V30 21517 H 2077.45 1.93663 3.68059 0
M  V30 21518 H 2076.02 0.105763 3.7275 0
M  V30 21519 N 2078.21 -1.39832 0.726957 0
M  V30 21520 C 2079.43 -2.05501 0.280008 0
M  V30 21521 C 2079.86 -1.54436 -1.07383 0
M  V30 21522 O 2079.22 -0.684615 -1.67877 0
M  V30 21523 C 2079.26 -3.59492 0.282502 0
M  V30 21524 O 2078.37 -4.05842 -0.732546 0
M  V30 21525 H 2077.71 -0.651361 0.128936 0
M  V30 21526 H 2080.24 -1.79019 0.990626 0
M  V30 21527 H 2080.25 -4.07811 0.124104 0
M  V30 21528 H 2078.92 -3.96022 1.27041 0
M  V30 21529 H 2077.5 -3.68956 -0.540943 0
M  V30 21530 N 2079.69 -0.473982 -1.50304 0
M  V30 21531 C 2080.93 0.0800096 -2.02342 0
M  V30 21532 C 2081.26 1.39461 -1.35576 0
M  V30 21533 O 2080.52 1.89937 -0.471407 0
M  V30 21534 C 2080.82 0.308841 -3.56063 0
M  V30 21535 C 2080.48 -0.924412 -4.41322 0
M  V30 21536 C 2079.14 -1.26253 -4.64342 0
M  V30 21537 C 2081.5 -1.7454 -4.91106 0
M  V30 21538 C 2078.82 -2.42164 -5.34391 0
M  V30 21539 C 2081.18 -2.89582 -5.62428 0
M  V30 21540 C 2079.84 -3.23805 -5.83701 0
M  V30 21541 H 2079.11 0.0292776 -0.740421 0
M  V30 21542 H 2081.76 -0.62865 -1.80887 0
M  V30 21543 H 2080.06 1.09977 -3.76048 0
M  V30 21544 H 2081.76 0.7515 -3.93895 0
M  V30 21545 H 2078.35 -0.650995 -4.23627 0
M  V30 21546 H 2082.53 -1.49735 -4.73173 0
M  V30 21547 H 2077.79 -2.6895 -5.49068 0
M  V30 21548 H 2081.96 -3.53542 -5.99984 0
M  V30 21549 H 2079.59 -4.13729 -6.37756 0
M  V30 21550 N 2081.16 1.56239 -0.206702 0
M  V30 21551 C 2082.41 1.98197 0.429627 0
M  V30 21552 C 2082.74 1.09386 1.60463 0
M  V30 21553 O 2082.02 0.148321 1.93934 0
M  V30 21554 C 2082.3 3.49218 0.878562 0
M  V30 21555 C 2082.15 4.48805 -0.299054 0
M  V30 21556 C 2083.47 4.04243 1.74 0
M  V30 21557 H 2080.59 0.720583 0.154691 0
M  V30 21558 H 2083.23 1.87617 -0.299957 0
M  V30 21559 H 2081.38 3.58365 1.50023 0
M  V30 21560 H 2083.06 4.51684 -0.936956 0
M  V30 21561 H 2081.3 4.23294 -0.948945 0
M  V30 21562 H 2081.97 5.5197 0.0577652 0
M  V30 21563 H 2084.45 3.97948 1.2156 0
M  V30 21564 H 2083.32 5.10259 2.02305 0
M  V30 21565 H 2083.58 3.50212 2.69823 0
M  V30 21566 N 2082.64 -0.0668159 1.57458 0
M  V30 21567 C 2083.87 -0.777815 1.91723 0
M  V30 21568 C 2084.29 -1.70866 0.803128 0
M  V30 21569 O 2083.64 -1.8113 -0.223207 0
M  V30 21570 C 2083.69 -1.56722 3.25761 0
M  V30 21571 O 2083.41 -0.673779 4.32888 0
M  V30 21572 C 2084.92 -2.37877 3.74071 0
M  V30 21573 H 2082.14 -0.220863 0.633609 0
M  V30 21574 H 2084.68 -0.0355987 2.04469 0
M  V30 21575 H 2082.83 -2.26166 3.14527 0
M  V30 21576 H 2083.25 -1.22335 5.10034 0
M  V30 21577 H 2084.72 -2.88716 4.70476 0
M  V30 21578 H 2085.2 -3.17625 3.03334 0
M  V30 21579 H 2085.81 -1.73579 3.88266 0
M  V30 21580 N 2084.12 -1.53926 -0.338317 0
M  V30 21581 C 2085.07 -1.8228 -1.41572 0
M  V30 21582 C 2086.04 -0.668853 -1.52038 0
M  V30 21583 O 2087.22 -0.913813 -1.67494 0
M  V30 21584 C 2084.36 -2.04273 -2.78148 0
M  V30 21585 C 2083.48 -3.31978 -2.76432 0
M  V30 21586 C 2082.61 -3.44011 -4.04759 0
M  V30 21587 C 2081.65 -4.65646 -3.97292 0
M  V30 21588 N 2080.79 -4.74683 -5.1732 0
M  V30 21589 H 2085.63 -2.74202 -1.16692 0
M  V30 21590 H 2083.16 -1.35809 -0.565173 0
M  V30 21591 H 2085.12 -2.15014 -3.57526 0
M  V30 21592 H 2083.75 -1.15659 -3.01368 0
M  V30 21593 H 2082.8 -3.30052 -1.89129 0
M  V30 21594 H 2084.12 -4.21454 -2.66792 0
M  V30 21595 H 2083.27 -3.54213 -4.92563 0
M  V30 21596 H 2082.01 -2.52601 -4.17186 0
M  V30 21597 H 2081.01 -4.55516 -3.07873 0
M  V30 21598 H 2082.24 -5.58425 -3.86443 0
M  V30 21599 H 2080.19 -3.86184 -5.30281 0
M  V30 21600 H 2080.1 -5.58103 -5.09958 0
M  V30 21601 H 2081.37 -4.89201 -6.0688 0
M  V30 21602 N 2085.6 0.599608 -1.45748 0
M  V30 21603 C 2086.85 1.3557 -1.49884 0
M  V30 21604 C 2087.17 1.94459 -0.145141 0
M  V30 21605 O 2086.44 1.77615 0.82643 0
M  V30 21606 H 2085.02 0.503305 -0.551991 0
M  V30 21607 H 2087.68 0.703509 -1.8176 0
M  V30 21608 H 2086.78 2.17106 -2.24213 0
M  V30 21609 N 2087.08 1.33171 0.842803 0
M  V30 21610 C 2088.31 1.2725 1.62761 0
M  V30 21611 C 2088.72 -0.159577 1.88526 0
M  V30 21612 O 2088.06 -1.11091 1.46302 0
M  V30 21613 C 2088.12 1.97482 3.00401 0
M  V30 21614 C 2087.78 3.46798 2.97624 0
M  V30 21615 C 2088.78 4.42071 2.73622 0
M  V30 21616 C 2086.47 3.88915 3.17885 0
M  V30 21617 C 2088.46 5.77436 2.69901 0
M  V30 21618 C 2086.15 5.24385 3.1379 0
M  V30 21619 C 2087.15 6.18457 2.89828 0
M  V30 21620 O 2086.83 7.51446 2.85629 0
M  V30 21621 H 2086.57 0.439899 0.513288 0
M  V30 21622 H 2089.12 1.76042 1.05822 0
M  V30 21623 H 2087.35 1.43276 3.59178 0
M  V30 21624 H 2089.04 1.85113 3.61231 0
M  V30 21625 H 2089.8 4.10857 2.57724 0
M  V30 21626 H 2085.68 3.16105 3.35557 0
M  V30 21627 H 2089.23 6.50835 2.51118 0
M  V30 21628 H 2085.12 5.55225 3.29235 0
M  V30 21629 H 2085.89 7.60947 3.01499 0
M  V30 21630 N 2088.56 -1.06056 1.16576 0
M  V30 21631 C 2089.97 -1.31034 0.911171 0
M  V30 21632 C 2090.17 -1.96758 -0.434593 0
M  V30 21633 O 2089.23 -2.2357 -1.17357 0
M  V30 21634 C 2090.54 -2.18865 2.06201 0
M  V30 21635 C 2092.09 -2.32274 2.09804 0
M  V30 21636 C 2092.56 -3.23461 3.24248 0
M  V30 21637 N 2094.05 -3.31045 3.2398 0
M  V30 21638 C 2094.79 -4.01702 4.09174 0
M  V30 21639 N 2094.29 -4.7486 5.0446 0
M  V30 21640 N 2096.08 -3.97777 3.97153 0
M  V30 21641 H 2088.23 -0.617904 2.03213 0
M  V30 21642 H 2090.49 -0.335006 0.886834 0
M  V30 21643 H 2090.2 -1.77852 3.03417 0
M  V30 21644 H 2090.07 -3.19462 2.00559 0
M  V30 21645 H 2092.46 -2.72534 1.13179 0
M  V30 21646 H 2092.54 -1.31337 2.19509 0
M  V30 21647 H 2092.18 -2.83918 4.21133 0
M  V30 21648 H 2092.11 -4.24384 3.11779 0
M  V30 21649 H 2094.61 -2.78911 2.54984 0
M  V30 21650 H 2094.92 -5.26308 5.65879 0
M  V30 21651 H 2093.26 -4.73832 5.08437 0
M  V30 21652 H 2096.45 -3.39743 3.22013 0
M  V30 21653 H 2096.63 -4.52574 4.63768 0
M  V30 21654 N 2090.03 -0.964615 -1.24631 0
M  V30 21655 C 2091.26 -0.642327 -1.96677 0
M  V30 21656 C 2091.68 0.787619 -1.71587 0
M  V30 21657 O 2091.03 1.52808 -0.9978 0
M  V30 21658 C 2091.08 -0.903712 -3.50022 0
M  V30 21659 O 2090.81 -2.27744 -3.74252 0
M  V30 21660 C 2092.31 -0.595187 -4.39286 0
M  V30 21661 H 2089.53 -0.239932 -0.626637 0
M  V30 21662 H 2092.07 -1.29171 -1.58541 0
M  V30 21663 H 2090.23 -0.300589 -3.86232 0
M  V30 21664 H 2090.64 -2.35512 -4.68652 0
M  V30 21665 H 2092.11 -0.828552 -5.45746 0
M  V30 21666 H 2092.59 0.470491 -4.36673 0
M  V30 21667 H 2093.2 -1.17808 -4.08658 0
M  V30 21668 N 2091.51 1.39445 -0.734362 0
M  V30 21669 C 2092.93 1.54247 -0.409878 0
M  V30 21670 C 2093.13 1.70155 1.07933 0
M  V30 21671 O 2092.18 1.70169 1.86545 0
M  V30 21672 C 2093.5 2.7605 -1.19234 0
M  V30 21673 C 2095.04 2.89885 -1.1805 0
M  V30 21674 C 2095.52 4.14625 -1.94552 0
M  V30 21675 N 2097.01 4.21663 -1.91715 0
M  V30 21676 C 2097.75 5.1713 -2.47717 0
M  V30 21677 N 2097.24 6.1839 -3.12354 0
M  V30 21678 N 2099.03 5.09342 -2.37754 0
M  V30 21679 H 2091.19 1.27367 -1.69975 0
M  V30 21680 H 2093.45 0.61727 -0.719501 0
M  V30 21681 H 2093.15 2.70636 -2.24609 0
M  V30 21682 H 2093.03 3.68698 -0.796363 0
M  V30 21683 H 2095.42 2.94792 -0.13489 0
M  V30 21684 H 2095.5 1.98302 -1.61585 0
M  V30 21685 H 2095.14 4.10479 -2.99114 0
M  V30 21686 H 2095.07 5.0525 -1.48424 0
M  V30 21687 H 2097.56 3.4913 -1.44625 0
M  V30 21688 H 2097.87 6.87695 -3.52555 0
M  V30 21689 H 2096.22 6.1878 -3.16444 0
M  V30 21690 H 2099.41 4.29169 -1.86901 0
M  V30 21691 H 2099.58 5.83567 -2.81698 0
M  V30 21692 N 2092.99 0.481946 1.5005 0
M  V30 21693 C 2094.41 0.13674 1.59013 0
M  V30 21694 C 2094.61 -1.35753 1.48908 0
M  V30 21695 O 2093.66 -2.1318 1.35316 0
M  V30 21696 C 2094.97 0.696597 2.9252 0
M  V30 21697 C 2096.52 0.660993 3.05941 0
M  V30 21698 C 2097 1.19858 4.42038 0
M  V30 21699 N 2098.49 1.15846 4.4848 0
M  V30 21700 C 2099.22 1.54481 5.52199 0
M  V30 21701 N 2098.72 2.00617 6.63117 0
M  V30 21702 N 2100.51 1.46016 5.42804 0
M  V30 21703 H 2092.66 1.45367 1.54862 0
M  V30 21704 H 2094.93 0.601814 0.732478 0
M  V30 21705 H 2094.63 1.74381 3.05425 0
M  V30 21706 H 2094.51 0.146249 3.76916 0
M  V30 21707 H 2096.89 -0.377335 2.92678 0
M  V30 21708 H 2096.97 1.24827 2.23275 0
M  V30 21709 H 2096.62 2.2356 4.56052 0
M  V30 21710 H 2096.55 0.587419 5.23313 0
M  V30 21711 H 2099.04 0.820197 3.68892 0
M  V30 21712 H 2099.35 2.28217 7.38334 0
M  V30 21713 H 2097.7 2.04578 6.64209 0
M  V30 21714 H 2100.89 1.09805 4.55039 0
M  V30 21715 H 2101.06 1.7645 6.23514 0
M  V30 21716 N 2094.47 -1.56127 0.214985 0
M  V30 21717 C 2095.4 -2.22991 -0.69263 0
M  V30 21718 C 2096.38 -1.19946 -1.20611 0
M  V30 21719 O 2097.56 -1.48512 -1.25131 0
M  V30 21720 C 2094.69 -2.90473 -1.90376 0
M  V30 21721 C 2093.65 -3.99933 -1.52439 0
M  V30 21722 C 2092.97 -4.54678 -2.81375 0
M  V30 21723 C 2094.27 -5.17323 -0.719325 0
M  V30 21724 H 2095.97 -2.99095 -0.135168 0
M  V30 21725 H 2093.51 -1.4386 -0.0635721 0
M  V30 21726 H 2095.47 -3.35938 -2.54408 0
M  V30 21727 H 2094.19 -2.11806 -2.48608 0
M  V30 21728 H 2092.85 -3.55189 -0.907557 0
M  V30 21729 H 2092.5 -3.72749 -3.37739 0
M  V30 21730 H 2092.2 -5.28549 -2.56729 0
M  V30 21731 H 2093.72 -5.02857 -3.46362 0
M  V30 21732 H 2095.14 -5.5921 -1.2632 0
M  V30 21733 H 2093.53 -5.97385 -0.570203 0
M  V30 21734 H 2094.6 -4.84117 0.275461 0
M  V30 21735 N 2095.95 0.0584645 -1.57492 0
M  V30 21736 C 2096.91 1.05251 -2.03605 0
M  V30 21737 C 2097.91 1.30807 -0.935209 0
M  V30 21738 O 2099.1 1.26304 -1.19971 0
M  V30 21739 C 2096.23 2.39288 -2.42804 0
M  V30 21740 H 2097.42 0.654779 -2.92665 0
M  V30 21741 H 2094.98 0.304552 -1.53304 0
M  V30 21742 H 2095.71 2.83868 -1.56811 0
M  V30 21743 H 2095.5 2.22077 -3.23147 0
M  V30 21744 H 2096.99 3.10713 -2.79011 0
M  V30 21745 N 2097.42 1.54103 0.330149 0
M  V30 21746 C 2098.39 1.82317 1.389 0
M  V30 21747 C 2099.39 0.694711 1.45019 0
M  V30 21748 O 2100.58 0.963016 1.45161 0
M  V30 21749 C 2097.71 1.97727 2.77699 0
M  V30 21750 H 2098.9 2.76916 1.15141 0
M  V30 21751 H 2096.45 1.4572 0.565276 0
M  V30 21752 H 2097.19 1.05316 3.06723 0
M  V30 21753 H 2096.97 2.79837 2.74652 0
M  V30 21754 H 2098.46 2.21026 3.54313 0
M  V30 21755 N 2098.9 -0.59187 1.46064 0
M  V30 21756 C 2100.18 -1.35177 1.41374 0
M  V30 21757 C 2100.56 -2.10898 0.09244 0
M  V30 21758 O 2099.91 -2.08901 -0.925879 0
M  V30 21759 C 2100.12 -2.28545 2.63758 0
M  V30 21760 C 2101.47 -2.90662 3.09517 0
M  V30 21761 O 2102.49 -2.38861 2.64242 0
M  V30 21762 O 2101.35 -3.84728 3.88133 0
M  V30 21763 H 2098.44 -0.606905 0.561778 0
M  V30 21764 H 2100.99 -0.61365 1.58216 0
M  V30 21765 H 2099.76 -1.71959 3.51491 0
M  V30 21766 H 2099.38 -3.09711 2.49328 0
M  V30 21767 N 2100.38 -1.33616 -0.835729 0
M  V30 21768 C 2101.63 -1.25251 -1.59118 0
M  V30 21769 C 2101.96 0.180895 -1.93657 0
M  V30 21770 O 2101.21 1.1389 -1.59146 0
M  V30 21771 C 2101.51 -2.07621 -2.90909 0
M  V30 21772 C 2101.18 -3.56777 -2.75719 0
M  V30 21773 C 2099.84 -3.9744 -2.71283 0
M  V30 21774 C 2102.19 -4.51545 -2.60301 0
M  V30 21775 C 2099.52 -5.31083 -2.49334 0
M  V30 21776 C 2101.87 -5.85353 -2.39885 0
M  V30 21777 C 2100.53 -6.25195 -2.33853 0
M  V30 21778 H 2099.8 -0.458325 -0.582254 0
M  V30 21779 H 2102.45 -1.65234 -0.967991 0
M  V30 21780 H 2100.76 -1.60426 -3.5745 0
M  V30 21781 H 2102.45 -1.98504 -3.48421 0
M  V30 21782 H 2099.04 -3.24492 -2.80005 0
M  V30 21783 H 2103.23 -4.21036 -2.62759 0
M  V30 21784 H 2098.48 -5.60987 -2.43113 0
M  V30 21785 H 2102.66 -6.58386 -2.26939 0
M  V30 21786 H 2100.28 -7.28688 -2.16606 0
M  V30 21787 N 2101.86 1.05436 -1.17136 0
M  V30 21788 C 2103.08 1.82612 -0.983237 0
M  V30 21789 C 2103.51 1.82295 0.463697 0
M  V30 21790 O 2102.87 1.23011 1.33184 0
M  V30 21791 C 2102.91 3.26726 -1.52587 0
M  V30 21792 O 2102.02 4.05743 -0.737979 0
M  V30 21793 H 2101.36 0.564713 -0.349279 0
M  V30 21794 H 2103.89 1.3288 -1.55576 0
M  V30 21795 H 2103.9 3.77531 -1.54708 0
M  V30 21796 H 2102.57 3.26271 -2.57915 0
M  V30 21797 H 2101.15 3.64479 -0.78798 0
M  V30 21798 N 2103.34 0.971211 1.24118 0
M  V30 21799 C 2104.58 0.635963 1.9257 0
M  V30 21800 C 2104.92 -0.827222 1.75701 0
M  V30 21801 O 2104.19 -1.59559 1.11226 0
M  V30 21802 C 2104.47 1.01581 3.45476 0
M  V30 21803 C 2104.33 2.53595 3.71497 0
M  V30 21804 C 2105.65 0.552941 4.36613 0
M  V30 21805 H 2102.76 0.232516 0.699361 0
M  V30 21806 H 2105.41 1.21085 1.46419 0
M  V30 21807 H 2103.56 0.526628 3.84914 0
M  V30 21808 H 2105.23 3.10016 3.41596 0
M  V30 21809 H 2103.47 2.96637 3.16526 0
M  V30 21810 H 2104.14 2.75222 4.78494 0
M  V30 21811 H 2106.62 0.972795 4.04569 0
M  V30 21812 H 2105.49 0.847244 5.42322 0
M  V30 21813 H 2105.76 -0.54692 4.38704 0
M  V30 21814 N 2104.81 -1.39054 0.741747 0
M  V30 21815 C 2106.23 -1.83161 0.361815 0
M  V30 21816 C 2106.58 -1.61934 -1.10778 0
M  V30 21817 O 2105.7 -1.11412 -1.85516 0
M  V30 21818 C 2106.3 -3.32508 0.649929 0
M  V30 21819 C 2104.86 -3.75008 0.323414 0
M  V30 21820 C 2104 -2.61973 0.909134 0
M  V30 21821 H 2106.95 -1.2795 0.938853 0
M  V30 21822 H 2106.97 -3.80424 -0.0759846 0
M  V30 21823 H 2106.49 -3.47925 1.71959 0
M  V30 21824 H 2104.59 -3.65175 -0.740136 0
M  V30 21825 H 2104.7 -4.72191 0.81069 0
M  V30 21826 H 2103.06 -2.52483 0.335302 0
M  V30 21827 H 2103.85 -2.80194 1.98358 0
M  V30 21828 N 2106.29 -0.489897 -1.49792 0
M  V30 21829 C 2107.22 0.283966 -2.31767 0
M  V30 21830 C 2108.2 0.972934 -1.39528 0
M  V30 21831 O 2109.39 0.966482 -1.68442 0
M  V30 21832 C 2106.52 1.35538 -3.19761 0
M  V30 21833 C 2105.47 0.786932 -4.20703 0
M  V30 21834 C 2104.8 1.95803 -4.97559 0
M  V30 21835 C 2106.1 -0.214528 -5.21859 0
M  V30 21836 H 2107.79 -0.40025 -2.96713 0
M  V30 21837 H 2105.34 -0.193932 -1.42688 0
M  V30 21838 H 2107.29 1.90438 -3.75914 0
M  V30 21839 H 2106.02 2.06862 -2.52736 0
M  V30 21840 H 2104.67 0.259755 -3.65679 0
M  V30 21841 H 2104.32 2.65871 -4.26992 0
M  V30 21842 H 2104.02 1.58381 -5.65853 0
M  V30 21843 H 2105.55 2.51159 -5.56553 0
M  V30 21844 H 2106.96 0.245954 -5.72772 0
M  V30 21845 H 2105.36 -0.504002 -5.9798 0
M  V30 21846 H 2106.43 -1.13417 -4.71449 0
M  V30 21847 N 2107.77 1.56011 -0.223262 0
M  V30 21848 C 2109.02 1.97523 0.40834 0
M  V30 21849 C 2109.33 1.11401 1.60777 0
M  V30 21850 O 2110.54 1.4282 2.309 0
M  V30 21851 C 2108.99 3.51393 0.777885 0
M  V30 21852 C 2108.6 4.46221 -0.398826 0
M  V30 21853 C 2110.35 4.01614 1.37499 0
M  V30 21854 C 2108.25 5.914 -0.00675168 0
M  V30 21855 H 2107.18 0.737614 0.156337 0
M  V30 21856 H 2109.83 1.80693 -0.319744 0
M  V30 21857 H 2108.22 3.6383 1.56344 0
M  V30 21858 H 2109.39 4.45532 -1.17635 0
M  V30 21859 H 2107.71 4.06351 -0.909284 0
M  V30 21860 H 2110.3 5.0758 1.68127 0
M  V30 21861 H 2110.65 3.47566 2.29137 0
M  V30 21862 H 2111.18 3.92406 0.65284 0
M  V30 21863 H 2107.92 6.49435 -0.889654 0
M  V30 21864 H 2107.44 5.95279 0.735052 0
M  V30 21865 H 2109.12 6.4564 0.419339 0
M  V30 21866 N 2109.25 -0.0501116 1.5752 0
M  V30 21867 C 2110.5 -0.744028 1.87476 0
M  V30 21868 C 2110.81 -1.77631 0.818943 0
M  V30 21869 O 2112.02 -2.52133 1.00703 0
M  V30 21870 C 2110.47 -1.37429 3.32628 0
M  V30 21871 C 2110.08 -0.379458 4.4639 0
M  V30 21872 C 2111.82 -2.04931 3.71757 0
M  V30 21873 C 2109.73 -1.01687 5.82592 0
M  V30 21874 H 2108.66 -0.281635 0.699427 0
M  V30 21875 H 2111.31 0.00219827 1.835 0
M  V30 21876 H 2109.69 -2.16952 3.31282 0
M  V30 21877 H 2110.87 0.387526 4.59168 0
M  V30 21878 H 2109.18 0.1923 4.15956 0
M  V30 21879 H 2111.78 -2.53436 4.70823 0
M  V30 21880 H 2112.12 -2.85832 3.02665 0
M  V30 21881 H 2112.66 -1.32212 3.75186 0
M  V30 21882 H 2109.4 -0.247733 6.55032 0
M  V30 21883 H 2108.92 -1.7542 5.73575 0
M  V30 21884 H 2110.59 -1.53041 6.28639 0
M  V30 21885 N 2110.73 -1.54276 -0.321972 0
M  V30 21886 C 2112 -1.63209 -1.07806 0
M  V30 21887 C 2112.38 -0.466965 -2.0587 0
M  V30 21888 O 2111.73 0.538598 -2.22062 0
M  V30 21889 C 2111.94 -3.00279 -1.77858 0
M  V30 21890 C 2113.29 -3.5638 -2.30822 0
M  V30 21891 O 2114.31 -3.02594 -1.87923 0
M  V30 21892 O 2113.17 -4.50507 -3.09364 0
M  V30 21893 H 2110.27 -0.660982 -0.497023 0
M  V30 21894 H 2112.81 -1.66622 -0.321736 0
M  V30 21895 H 2111.58 -3.76518 -1.06537 0
M  V30 21896 H 2111.21 -3.00552 -2.60297 0
M  V30 21897 N 2112.2 0.584116 -1.46376 0
M  V30 21898 C 2113.45 1.33858 -1.5088 0
M  V30 21899 C 2113.77 1.94909 -0.164319 0
M  V30 21900 O 2114.97 2.7136 -0.0871554 0
M  V30 21901 C 2113.43 2.42594 -2.6585 0
M  V30 21902 C 2113.04 1.87853 -4.06713 0
M  V30 21903 C 2114.78 3.19391 -2.79624 0
M  V30 21904 C 2112.69 2.94209 -5.13026 0
M  V30 21905 H 2111.62 0.503207 -0.561515 0
M  V30 21906 H 2114.27 0.623507 -1.72582 0
M  V30 21907 H 2112.65 3.16894 -2.37475 0
M  V30 21908 H 2113.82 1.20105 -4.44872 0
M  V30 21909 H 2112.14 1.23726 -3.97594 0
M  V30 21910 H 2114.74 3.98763 -3.56219 0
M  V30 21911 H 2115.08 3.71891 -1.8709 0
M  V30 21912 H 2115.61 2.52197 -3.07638 0
M  V30 21913 H 2112.35 2.46598 -6.07347 0
M  V30 21914 H 2111.87 3.6045 -4.79412 0
M  V30 21915 H 2113.55 3.58184 -5.38807 0
M  V30 21916 N 2113.68 1.34058 0.828631 0
M  V30 21917 C 2114.63 1.25161 1.93916 0
M  V30 21918 C 2115.6 0.128041 1.65606 0
M  V30 21919 O 2116.79 0.308053 1.88297 0
M  V30 21920 C 2113.93 1.00718 3.30075 0
M  V30 21921 C 2113.04 2.21797 3.70716 0
M  V30 21922 C 2112.17 1.90684 4.95795 0
M  V30 21923 C 2111.21 3.07938 5.29 0
M  V30 21924 N 2110.35 2.76746 6.45257 0
M  V30 21925 H 2115.19 2.20137 2.00857 0
M  V30 21926 H 2112.73 1.09455 0.982754 0
M  V30 21927 H 2114.68 0.845864 4.08535 0
M  V30 21928 H 2113.31 0.0941257 3.22663 0
M  V30 21929 H 2112.37 2.48869 2.87695 0
M  V30 21930 H 2113.68 3.09421 3.91229 0
M  V30 21931 H 2112.83 1.71255 5.82028 0
M  V30 21932 H 2111.57 1.00312 4.77272 0
M  V30 21933 H 2110.58 3.27969 4.41267 0
M  V30 21934 H 2111.8 3.9908 5.49465 0
M  V30 21935 H 2109.75 1.88944 6.28201 0
M  V30 21936 H 2109.66 3.57901 6.65915 0
M  V30 21937 H 2110.93 2.60808 7.34574 0
M  V30 21938 N 2115.16 -1.04814 1.17694 0
M  V30 21939 C 2116.4 -1.79454 0.978546 0
M  V30 21940 C 2116.77 -1.85802 -0.483903 0
M  V30 21941 O 2117.97 -2.56573 -0.801495 0
M  V30 21942 C 2116.24 -3.19256 1.60656 0
M  V30 21943 S 2117.8 -4.10327 1.55489 0
M  V30 21944 H 2114.61 -0.617999 0.351565 0
M  V30 21945 H 2117.22 -1.25732 1.49706 0
M  V30 21946 H 2115.92 -3.12241 2.66334 0
M  V30 21947 H 2115.45 -3.78055 1.08801 0
M  V30 21948 H 2117.47 -4.92967 0.565526 0
M  V30 21949 N 2116.64 -0.977779 -1.23601 0
M  V30 21950 C 2117.87 -0.663151 -1.95984 0
M  V30 21951 C 2118.28 0.769376 -1.72412 0
M  V30 21952 O 2117.64 1.51741 -1.01395 0
M  V30 21953 C 2117.69 -0.940786 -3.49044 0
M  V30 21954 O 2117.41 -2.31701 -3.71815 0
M  V30 21955 C 2118.91 -0.641745 -4.3863 0
M  V30 21956 H 2116.13 -0.246565 -0.624057 0
M  V30 21957 H 2118.68 -1.30845 -1.57162 0
M  V30 21958 H 2116.83 -0.341537 -3.85892 0
M  V30 21959 H 2117.25 -2.40469 -4.66128 0
M  V30 21960 H 2118.72 -0.886389 -5.44837 0
M  V30 21961 H 2119.2 0.42415 -4.37147 0
M  V30 21962 H 2119.8 -1.22135 -4.07386 0
M  V30 21963 N 2118.12 1.38658 -0.749111 0
M  V30 21964 C 2119.06 2.30496 -0.118423 0
M  V30 21965 C 2120.03 1.49947 0.714492 0
M  V30 21966 O 2121.22 1.78591 0.671546 0
M  V30 21967 C 2118.36 3.3635 0.772186 0
M  V30 21968 C 2117.47 4.31935 -0.0748716 0
M  V30 21969 C 2116.61 5.24859 0.818323 0
M  V30 21970 C 2115.65 6.12091 -0.0326386 0
M  V30 21971 N 2114.78 6.97327 0.817267 0
M  V30 21972 H 2119.62 2.83856 -0.90718 0
M  V30 21973 H 2117.16 1.39755 -0.459001 0
M  V30 21974 H 2119.12 3.96326 1.30313 0
M  V30 21975 H 2117.75 2.84411 1.52677 0
M  V30 21976 H 2116.8 3.73458 -0.723395 0
M  V30 21977 H 2118.11 4.93396 -0.732237 0
M  V30 21978 H 2117.27 5.8993 1.4166 0
M  V30 21979 H 2116.01 4.63754 1.50943 0
M  V30 21980 H 2115.01 5.4602 -0.643614 0
M  V30 21981 H 2116.24 6.75264 -0.720742 0
M  V30 21982 H 2114.18 6.38775 1.49341 0
M  V30 21983 H 2114.1 7.55689 0.216698 0
M  V30 21984 H 2115.37 7.66813 1.40066 0
M  V30 21985 N 2119.6 0.497834 1.49531 0
M  V30 21986 C 2120.53 -0.271671 2.31914 0
M  V30 21987 C 2121.51 -0.965521 1.40042 0
M  V30 21988 O 2122.69 -0.957536 1.68952 0
M  V30 21989 C 2119.82 -1.3384 3.20475 0
M  V30 21990 C 2118.78 -0.76461 4.21115 0
M  V30 21991 C 2118.1 -1.93162 4.98591 0
M  V30 21992 C 2119.4 0.242201 5.21738 0
M  V30 21993 H 2121.1 0.415979 2.96496 0
M  V30 21994 H 2118.64 0.201496 1.42583 0
M  V30 21995 H 2120.59 -1.88442 3.76918 0
M  V30 21996 H 2119.32 -2.05519 2.5383 0
M  V30 21997 H 2117.98 -0.240359 3.65811 0
M  V30 21998 H 2117.63 -2.63602 4.28396 0
M  V30 21999 H 2117.33 -1.55378 5.66685 0
M  V30 22000 H 2118.85 -2.48204 5.57877 0
M  V30 22001 H 2120.26 -0.215575 5.72895 0
M  V30 22002 H 2118.66 0.535707 5.97704 0
M  V30 22003 H 2119.73 1.15916 4.70841 0
M  V30 22004 N 2121.07 -1.5589 0.231532 0
M  V30 22005 C 2122.32 -1.98561 -0.397452 0
M  V30 22006 C 2122.65 -1.11939 -1.5906 0
M  V30 22007 O 2121.9 -0.166615 -1.94989 0
M  V30 22008 C 2122.2 -3.46766 -0.865354 0
M  V30 22009 C 2121.87 -4.50371 0.218353 0
M  V30 22010 C 2120.53 -4.78425 0.516031 0
M  V30 22011 C 2122.88 -5.12455 0.950761 0
M  V30 22012 C 2120.21 -5.65842 1.55046 0
M  V30 22013 C 2122.56 -6.00993 1.9746 0
M  V30 22014 C 2121.23 -6.27386 2.27909 0
M  V30 22015 H 2120.5 -0.726587 -0.145438 0
M  V30 22016 H 2123.14 -1.88527 0.336141 0
M  V30 22017 H 2121.45 -3.54054 -1.67788 0
M  V30 22018 H 2123.15 -3.7716 -1.36204 0
M  V30 22019 H 2119.74 -4.28593 -0.023809 0
M  V30 22020 H 2123.92 -4.90842 0.734029 0
M  V30 22021 H 2119.18 -5.84552 1.79188 0
M  V30 22022 H 2123.35 -6.48147 2.54712 0
M  V30 22023 H 2120.98 -6.9492 3.08205 0
M  V30 22024 N 2122.55 0.0417572 -1.57545 0
M  V30 22025 C 2123.8 0.736189 -1.88966 0
M  V30 22026 C 2124.13 1.75678 -0.827697 0
M  V30 22027 O 2123.41 1.93851 0.158734 0
M  V30 22028 C 2123.69 1.4172 -3.3104 0
M  V30 22029 C 2123.54 0.410987 -4.47918 0
M  V30 22030 C 2124.86 2.3545 -3.71822 0
M  V30 22031 H 2121.98 0.266166 -0.687259 0
M  V30 22032 H 2124.62 -0.000952352 -1.9 0
M  V30 22033 H 2122.77 2.04552 -3.30289 0
M  V30 22034 H 2124.44 -0.214433 -4.60801 0
M  V30 22035 H 2122.69 -0.270954 -4.32953 0
M  V30 22036 H 2123.36 0.925718 -5.44182 0
M  V30 22037 H 2125.83 1.82673 -3.73858 0
M  V30 22038 H 2124.71 2.80087 -4.72062 0
M  V30 22039 H 2124.97 3.21575 -3.03384 0
M  V30 22040 N 2124.03 1.54445 0.313786 0
M  V30 22041 C 2124.94 1.87547 1.40937 0
M  V30 22042 C 2125.96 0.768341 1.56117 0
M  V30 22043 O 2127.13 1.06358 1.71026 0
M  V30 22044 C 2124.2 2.10467 2.75508 0
M  V30 22045 C 2123.26 3.34232 2.69421 0
M  V30 22046 C 2122.49 3.56049 3.97574 0
M  V30 22047 O 2122.71 2.81118 4.96316 0
M  V30 22048 O 2121.65 4.49546 4.0024 0
M  V30 22049 H 2125.47 2.80728 1.15868 0
M  V30 22050 H 2123.06 1.40473 0.508698 0
M  V30 22051 H 2124.94 2.26817 3.55151 0
M  V30 22052 H 2123.62 1.20474 3.00446 0
M  V30 22053 H 2122.52 3.23259 1.88294 0
M  V30 22054 H 2123.86 4.24314 2.49436 0
M  V30 22055 N 2125.51 -0.576345 1.46683 0
M  V30 22056 C 2126.47 -1.66698 1.57303 0
M  V30 22057 C 2127.47 -1.54385 0.449647 0
M  V30 22058 O 2128.66 -1.58888 0.71415 0
M  V30 22059 C 2125.79 -3.06156 1.49938 0
M  V30 22060 H 2126.99 -1.58638 2.54507 0
M  V30 22061 H 2124.54 -0.79471 1.34588 0
M  V30 22062 H 2125.27 -3.19766 0.540379 0
M  V30 22063 H 2125.06 -3.16502 2.3145 0
M  V30 22064 H 2126.55 -3.85538 1.60469 0
M  V30 22065 N 2126.99 -1.34495 -0.82151 0
M  V30 22066 C 2127.92 -1.28835 -1.94741 0
M  V30 22067 C 2128.9 -0.165528 -1.69293 0
M  V30 22068 O 2130.08 -0.358115 -1.9087 0
M  V30 22069 C 2127.21 -1.04446 -3.31222 0
M  V30 22070 C 2126.17 -2.13209 -3.71114 0
M  V30 22071 C 2125.49 -1.74007 -5.05594 0
M  V30 22072 C 2126.79 -3.55051 -3.83062 0
M  V30 22073 H 2128.49 -2.23039 -1.99734 0
M  V30 22074 H 2126.03 -1.07369 -0.959573 0
M  V30 22075 H 2127.98 -0.991306 -4.09574 0
M  V30 22076 H 2126.71 -0.0668391 -3.26532 0
M  V30 22077 H 2125.37 -2.17597 -2.95038 0
M  V30 22078 H 2125.02 -0.749021 -4.97392 0
M  V30 22079 H 2124.72 -2.46803 -5.33256 0
M  V30 22080 H 2126.24 -1.7019 -5.86402 0
M  V30 22081 H 2127.65 -3.53068 -4.51681 0
M  V30 22082 H 2126.05 -4.2648 -4.22179 0
M  V30 22083 H 2127.12 -3.92289 -2.85021 0
M  V30 22084 N 2128.46 1.04188 -1.18248 0
M  V30 22085 C 2129.71 1.77017 -0.975161 0
M  V30 22086 C 2130.03 1.88572 0.496551 0
M  V30 22087 O 2129.3 1.40982 1.36018 0
M  V30 22088 H 2127.88 0.655725 -0.357818 0
M  V30 22089 H 2130.55 1.25748 -1.48908 0
M  V30 22090 H 2129.64 2.78326 -1.41213 0
M  V30 22091 N 2129.94 0.98432 1.23081 0
M  V30 22092 C 2130.87 0.48581 2.23992 0
M  V30 22093 C 2131.89 -0.414468 1.57436 0
M  V30 22094 O 2133.08 -0.217976 1.77164 0
M  V30 22095 C 2130.18 -0.316143 3.37422 0
M  V30 22096 C 2129.35 0.578204 4.33561 0
M  V30 22097 C 2128.41 -0.170568 5.25923 0
M  V30 22098 O 2127.43 0.441138 5.67488 0
M  V30 22099 N 2128.64 -1.45541 5.61959 0
M  V30 22100 H 2131.4 1.3535 2.67396 0
M  V30 22101 H 2128.96 0.858041 1.37293 0
M  V30 22102 H 2130.95 -0.825504 3.96191 0
M  V30 22103 H 2129.52 -1.08487 2.93171 0
M  V30 22104 H 2128.74 1.26835 3.73238 0
M  V30 22105 H 2130.03 1.18757 4.94747 0
M  V30 22106 H 2129.43 -1.97385 5.30147 0
M  V30 22107 H 2127.99 -1.91013 6.23183 0
M  V30 22108 N 2131.42 -1.38259 0.756453 0
M  V30 22109 C 2132.67 -1.99293 0.310658 0
M  V30 22110 C 2132.98 -1.60729 -1.11469 0
M  V30 22111 O 2134.19 -2.14755 -1.6611 0
M  V30 22112 C 2132.64 -3.56347 0.50448 0
M  V30 22113 C 2132.25 -4.0386 1.9391 0
M  V30 22114 C 2134 -4.24326 0.121541 0
M  V30 22115 C 2131.9 -5.53565 2.08133 0
M  V30 22116 H 2130.83 -0.745574 0.112405 0
M  V30 22117 H 2133.48 -1.57987 0.933403 0
M  V30 22118 H 2131.87 -3.95556 -0.187493 0
M  V30 22119 H 2133.04 -3.75934 2.66478 0
M  V30 22120 H 2131.36 -3.48614 2.27722 0
M  V30 22121 H 2133.95 -5.34301 0.206533 0
M  V30 22122 H 2134.3 -4.05866 -0.926213 0
M  V30 22123 H 2134.83 -3.90366 0.765478 0
M  V30 22124 H 2131.57 -5.76933 3.11173 0
M  V30 22125 H 2131.09 -5.83225 1.4003 0
M  V30 22126 H 2132.77 -6.19307 1.87264 0
M  V30 22127 N 2132.9 -0.505757 -1.49264 0
M  V30 22128 C 2134.15 0.0369987 -2.02066 0
M  V30 22129 C 2134.47 1.37044 -1.38723 0
M  V30 22130 O 2133.74 1.8819 -0.544182 0
M  V30 22131 H 2132.32 0.0166628 -0.746814 0
M  V30 22132 H 2134.98 -0.66408 -1.83238 0
M  V30 22133 H 2134.08 0.163179 -3.11673 0
M  V30 22134 N 2134.38 1.55765 -0.239796 0
M  V30 22135 C 2135.79 1.84814 0.264689 0
M  V30 22136 C 2136.14 1.16151 1.58124 0
M  V30 22137 O 2135.26 0.437435 2.11933 0
M  V30 22138 C 2135.86 3.35281 0.487032 0
M  V30 22139 C 2134.42 3.64582 0.935793 0
M  V30 22140 C 2133.56 2.77299 0.00901728 0
M  V30 22141 H 2136.52 1.5181 -0.46254 0
M  V30 22142 H 2136.54 3.56476 1.33061 0
M  V30 22143 H 2136.05 3.85227 -0.471338 0
M  V30 22144 H 2134.15 3.20108 1.90688 0
M  V30 22145 H 2134.26 4.72415 0.797573 0
M  V30 22146 H 2132.63 2.49354 0.519113 0
M  V30 22147 H 2133.41 3.30049 -0.944598 0
M  V30 22148 N 2135.85 -0.0334016 1.57565 0
M  V30 22149 C 2136.82 -1.01998 2.05253 0
M  V30 22150 C 2137.82 -1.29303 0.955901 0
M  V30 22151 O 2139.01 -1.24379 1.21965 0
M  V30 22152 C 2136.14 -2.35395 2.4658 0
M  V30 22153 H 2137.33 -0.608136 2.93669 0
M  V30 22154 H 2134.89 -0.280124 1.53769 0
M  V30 22155 H 2135.62 -2.81337 1.61307 0
M  V30 22156 H 2135.41 -2.16908 3.26639 0
M  V30 22157 H 2136.9 -3.06235 2.83918 0
M  V30 22158 N 2137.33 -1.54609 -0.305591 0
M  V30 22159 C 2138.74 -1.64719 -0.878888 0
M  V30 22160 C 2139.09 -0.552868 -1.88249 0
M  V30 22161 O 2138.22 0.311274 -2.1415 0
M  V30 22162 C 2138.81 -2.98593 -1.60087 0
M  V30 22163 C 2137.37 -3.10839 -2.12264 0
M  V30 22164 C 2136.52 -2.6038 -0.953822 0
M  V30 22165 H 2139.47 -1.58484 -0.0827074 0
M  V30 22166 H 2139.49 -2.89759 -2.46617 0
M  V30 22167 H 2139 -3.78219 -0.870185 0
M  V30 22168 H 2137.11 -2.35924 -2.88394 0
M  V30 22169 H 2137.22 -4.16924 -2.36031 0
M  V30 22170 H 2135.58 -2.16719 -1.33809 0
M  V30 22171 H 2136.37 -3.4248 -0.237166 0
M  V30 22172 N 2138.81 0.568558 -1.46987 0
M  V30 22173 C 2140.22 1.1507 -1.47023 0
M  V30 22174 C 2140.57 1.94977 -0.218726 0
M  V30 22175 O 2139.7 2.05531 0.677201 0
M  V30 22176 C 2140.29 2.09348 -2.66381 0
M  V30 22177 C 2138.85 2.62857 -2.69413 0
M  V30 22178 C 2138 1.39006 -2.39943 0
M  V30 22179 H 2140.95 0.355745 -1.54661 0
M  V30 22180 H 2140.97 2.93044 -2.42705 0
M  V30 22181 H 2140.48 1.51163 -3.57451 0
M  V30 22182 H 2138.58 3.24872 -1.82452 0
M  V30 22183 H 2138.7 3.04626 -3.69784 0
M  V30 22184 H 2137.06 1.69297 -1.90291 0
M  V30 22185 H 2137.84 0.826309 -3.33207 0
M  V30 22186 N 2140.29 1.34929 0.814366 0
M  V30 22187 C 2141.22 1.29866 1.94055 0
M  V30 22188 C 2142.2 0.174504 1.69203 0
M  V30 22189 O 2143.38 0.368232 1.90677 0
M  V30 22190 C 2140.51 1.06201 3.30664 0
M  V30 22191 C 2139.47 2.15174 3.69978 0
M  V30 22192 C 2138.79 1.76686 5.04664 0
M  V30 22193 C 2140.09 3.57077 3.81174 0
M  V30 22194 H 2141.79 2.24095 1.98549 0
M  V30 22195 H 2139.33 1.07877 0.953865 0
M  V30 22196 H 2141.29 1.01301 4.09043 0
M  V30 22197 H 2140.01 0.0841549 3.26492 0
M  V30 22198 H 2138.67 2.19158 2.9388 0
M  V30 22199 H 2138.32 0.775388 4.96988 0
M  V30 22200 H 2138.02 2.49628 5.3194 0
M  V30 22201 H 2139.54 1.73297 5.85492 0
M  V30 22202 H 2140.96 3.55458 4.49803 0
M  V30 22203 H 2139.35 4.28713 4.19911 0
M  V30 22204 H 2140.42 3.93795 2.82937 0
M  V30 22205 N 2141.77 -1.0356 1.18799 0
M  V30 22206 C 2142.71 -2.11687 0.919622 0
M  V30 22207 C 2143.68 -1.65484 -0.142958 0
M  V30 22208 O 2144.87 -1.908 -0.00223972 0
M  V30 22209 C 2142.01 -3.4206 0.457036 0
M  V30 22210 C 2141.12 -4.01848 1.58562 0
M  V30 22211 C 2140.26 -5.20204 1.07524 0
M  V30 22212 C 2139.3 -5.72033 2.17817 0
M  V30 22213 N 2138.43 -6.8167 1.68136 0
M  V30 22214 H 2143.27 -2.33981 1.84546 0
M  V30 22215 H 2140.81 -1.14766 0.920172 0
M  V30 22216 H 2142.77 -4.16852 0.170279 0
M  V30 22217 H 2141.4 -3.19899 -0.431815 0
M  V30 22218 H 2140.45 -3.24335 1.98774 0
M  V30 22219 H 2141.76 -4.36338 2.41684 0
M  V30 22220 H 2140.92 -6.02129 0.743314 0
M  V30 22221 H 2139.65 -4.87232 0.213672 0
M  V30 22222 H 2138.66 -4.88725 2.51849 0
M  V30 22223 H 2139.88 -6.07047 3.04418 0
M  V30 22224 H 2137.83 -6.50564 0.842764 0
M  V30 22225 H 2137.75 -7.15251 2.44852 0
M  V30 22226 H 2139.02 -7.67208 1.37886 0
M  V30 22227 N 2143.25 -0.990834 -1.22557 0
M  V30 22228 C 2144.49 -0.666519 -1.91534 0
M  V30 22229 C 2144.82 0.799165 -1.76994 0
M  V30 22230 O 2144.1 1.57769 -1.13751 0
M  V30 22231 C 2144.38 -1.07064 -3.43816 0
M  V30 22232 C 2144.24 -2.59473 -3.67415 0
M  V30 22233 C 2145.55 -0.622332 -4.35678 0
M  V30 22234 H 2142.67 -0.243613 -0.695573 0
M  V30 22235 H 2145.32 -1.23399 -1.44474 0
M  V30 22236 H 2143.47 -0.587797 -3.84028 0
M  V30 22237 H 2145.14 -3.15412 -3.3662 0
M  V30 22238 H 2143.38 -3.01635 -3.11767 0
M  V30 22239 H 2144.05 -2.828 -4.74055 0
M  V30 22240 H 2146.53 -1.03704 -4.0297 0
M  V30 22241 H 2145.4 -0.933416 -5.40905 0
M  V30 22242 H 2145.66 0.477057 -4.39519 0
M  V30 22243 N 2144.72 1.37856 -0.763775 0
M  V30 22244 C 2145.67 2.27693 -0.118367 0
M  V30 22245 C 2146.66 1.45707 0.682513 0
M  V30 22246 O 2147.85 1.68342 0.546795 0
M  V30 22247 C 2144.98 3.34642 0.766129 0
M  V30 22248 C 2144.06 4.24079 -0.0421497 0
M  V30 22249 N 2144.46 4.94053 -1.08375 0
M  V30 22250 C 2142.75 4.45624 0.183082 0
M  V30 22251 C 2143.45 5.6001 -1.57365 0
M  V30 22252 N 2142.43 5.36311 -0.887185 0
M  V30 22253 H 2146.23 2.79262 -0.915967 0
M  V30 22254 H 2143.75 1.50879 -0.600774 0
M  V30 22255 H 2145.74 3.97901 1.24421 0
M  V30 22256 H 2144.4 2.8463 1.56256 0
M  V30 22257 H 2145.41 4.96726 -1.46575 0
M  V30 22258 H 2142.09 4.065 0.952055 0
M  V30 22259 H 2143.48 6.25958 -2.44183 0
M  V30 22260 N 2146.2 0.513665 1.48994 0
M  V30 22261 C 2147.45 -0.0263732 2.02783 0
M  V30 22262 C 2147.78 -1.35469 1.39147 0
M  V30 22263 O 2147.06 -1.87097 0.531511 0
M  V30 22264 C 2147.34 -0.165605 3.59719 0
M  V30 22265 C 2147.19 1.18673 4.33863 0
M  V30 22266 C 2148.51 -0.900228 4.30794 0
M  V30 22267 H 2145.63 -0.00811043 0.736955 0
M  V30 22268 H 2148.27 0.667534 1.77888 0
M  V30 22269 H 2146.42 -0.756613 3.81061 0
M  V30 22270 H 2148.09 1.81759 4.23983 0
M  V30 22271 H 2146.34 1.77281 3.95922 0
M  V30 22272 H 2147.01 1.04247 5.42067 0
M  V30 22273 H 2149.48 -0.398863 4.14184 0
M  V30 22274 H 2148.36 -0.966514 5.40324 0
M  V30 22275 H 2148.62 -1.94685 3.96926 0
M  V30 22276 N 2147.68 -1.55636 0.248053 0
M  V30 22277 C 2148.96 -1.90888 -0.426759 0
M  V30 22278 C 2149.34 -1.16894 -1.75781 0
M  V30 22279 O 2148.68 -0.286804 -2.26693 0
M  V30 22280 C 2148.89 -3.43913 -0.593709 0
M  V30 22281 C 2150.24 -4.15188 -0.889059 0
M  V30 22282 O 2151.27 -3.49658 -0.67953 0
M  V30 22283 O 2150.13 -5.31102 -1.28815 0
M  V30 22284 H 2147.22 -0.794576 -0.2293 0
M  V30 22285 H 2149.77 -1.67165 0.292205 0
M  V30 22286 H 2148.54 -3.89784 0.3441 0
M  V30 22287 H 2148.16 -3.73502 -1.36317 0
M  V30 22288 N 2149.16 0.0250451 -1.5758 0
M  V30 22289 C 2150.4 0.719842 -1.91305 0
M  V30 22290 C 2150.76 1.72305 -0.84705 0
M  V30 22291 O 2151.96 2.46639 -1.06876 0
M  V30 22292 C 2150.23 1.36835 -3.30168 0
M  V30 22293 S 2151.79 2.09174 -3.85735 0
M  V30 22294 H 2148.61 0.238377 -0.669849 0
M  V30 22295 H 2151.21 -0.025625 -1.95483 0
M  V30 22296 H 2149.92 0.625028 -4.05613 0
M  V30 22297 H 2149.45 2.15228 -3.29303 0
M  V30 22298 H 2151.46 3.3637 -3.64787 0
M  V30 22299 N 2150.64 1.54769 0.297388 0
M  V30 22300 C 2151.57 1.80857 1.39161 0
M  V30 22301 C 2152.55 0.659989 1.48603 0
M  V30 22302 O 2153.73 0.900341 1.65608 0
M  V30 22303 C 2150.86 1.94851 2.77039 0
M  V30 22304 C 2149.9 3.17294 2.85003 0
M  V30 22305 S 2150.74 4.75273 2.4673 0
M  V30 22306 C 2151.89 4.92208 3.86629 0
M  V30 22307 H 2152.13 2.73385 1.16824 0
M  V30 22308 H 2149.66 1.46227 0.495698 0
M  V30 22309 H 2151.62 2.03599 3.56452 0
M  V30 22310 H 2150.28 1.03255 2.96643 0
M  V30 22311 H 2149.47 3.23899 3.86142 0
M  V30 22312 H 2149.07 3.07011 2.13589 0
M  V30 22313 H 2151.36 4.76453 4.81663 0
M  V30 22314 H 2152.31 5.94295 3.84992 0
M  V30 22315 H 2152.72 4.20336 3.76799 0
M  V30 22316 N 2152.11 -0.560755 1.47286 0
M  V30 22317 C 2153.34 -1.34358 1.57339 0
M  V30 22318 C 2153.76 -1.87487 0.222299 0
M  V30 22319 O 2153.11 -1.64806 -0.78391 0
M  V30 22320 C 2153.16 -2.51596 2.5958 0
M  V30 22321 O 2152.89 -2.00664 3.89443 0
M  V30 22322 C 2154.39 -3.43856 2.79783 0
M  V30 22323 H 2151.61 -0.409692 0.531407 0
M  V30 22324 H 2154.15 -0.679628 1.92876 0
M  V30 22325 H 2152.31 -3.13936 2.26986 0
M  V30 22326 H 2152.72 -2.77175 4.4528 0
M  V30 22327 H 2154.19 -4.22542 3.55193 0
M  V30 22328 H 2154.67 -3.97177 1.87477 0
M  V30 22329 H 2155.28 -2.87333 3.1356 0
M  V30 22330 N 2153.59 -1.35359 -0.807199 0
M  V30 22331 C 2154.82 -1.31869 -1.60079 0
M  V30 22332 C 2155.24 0.101387 -1.87827 0
M  V30 22333 O 2154.6 1.06801 -1.46503 0
M  V30 22334 C 2154.65 -2.13049 -2.90934 0
M  V30 22335 O 2153.75 -1.51079 -3.8373 0
M  V30 22336 H 2153.09 -0.452158 -0.486261 0
M  V30 22337 H 2155.62 -1.78391 -1.00189 0
M  V30 22338 H 2155.63 -2.24982 -3.40363 0
M  V30 22339 H 2154.31 -3.16289 -2.70063 0
M  V30 22340 H 2152.88 -1.47982 -3.4228 0
M  V30 22341 N 2155.07 1.02928 -1.19346 0
M  V30 22342 C 2156 2.11274 -0.888596 0
M  V30 22343 C 2157.01 1.62368 0.118528 0
M  V30 22344 O 2158.2 1.78156 -0.11083 0
M  V30 22345 C 2155.3 3.37494 -0.30841 0
M  V30 22346 C 2154.48 4.15589 -1.36399 0
M  V30 22347 C 2153.54 5.20123 -0.797421 0
M  V30 22348 O 2152.56 5.49756 -1.47501 0
M  V30 22349 N 2153.76 5.79124 0.399478 0
M  V30 22350 H 2156.53 2.38018 -1.8212 0
M  V30 22351 H 2154.09 1.19216 -1.09541 0
M  V30 22352 H 2156.08 4.04612 0.0844572 0
M  V30 22353 H 2154.65 3.08101 0.528465 0
M  V30 22354 H 2153.87 3.43625 -1.93172 0
M  V30 22355 H 2155.16 4.64553 -2.07529 0
M  V30 22356 H 2154.56 5.57365 0.967492 0
M  V30 22357 H 2153.11 6.47653 0.734129 0
M  V30 22358 N 2156.55 0.997319 1.2203 0
M  V30 22359 C 2157.49 0.551276 2.2412 0
M  V30 22360 C 2158.46 -0.418681 1.60737 0
M  V30 22361 O 2159.65 -0.322451 1.88056 0
M  V30 22362 C 2156.79 -0.123569 3.44879 0
M  V30 22363 C 2155.9 0.888653 4.22761 0
M  V30 22364 C 2155.04 0.186868 5.30871 0
M  V30 22365 C 2154.08 1.18716 6.00477 0
M  V30 22366 N 2153.21 0.513378 7.00221 0
M  V30 22367 H 2158.05 1.42656 2.61636 0
M  V30 22368 H 2155.59 0.714493 1.28582 0
M  V30 22369 H 2157.55 -0.53179 4.13797 0
M  V30 22370 H 2156.18 -0.962614 3.08113 0
M  V30 22371 H 2155.23 1.41517 3.53096 0
M  V30 22372 H 2156.54 1.65019 4.70712 0
M  V30 22373 H 2155.7 -0.277858 6.06063 0
M  V30 22374 H 2154.44 -0.60714 4.83906 0
M  V30 22375 H 2153.44 1.66247 5.24063 0
M  V30 22376 H 2154.67 1.98212 6.4953 0
M  V30 22377 H 2152.61 -0.261113 6.5548 0
M  V30 22378 H 2152.53 1.21329 7.462 0
M  V30 22379 H 2153.8 0.0716018 7.79467 0
M  V30 22380 N 2158.03 -1.37449 0.771075 0
M  V30 22381 C 2158.96 -2.32874 0.170867 0
M  V30 22382 C 2159.94 -1.55746 -0.683892 0
M  V30 22383 O 2161.12 -1.83987 -0.621492 0
M  V30 22384 C 2158.25 -3.39974 -0.709566 0
M  V30 22385 C 2157.21 -4.27978 0.0438353 0
M  V30 22386 C 2156.53 -5.26084 -0.955998 0
M  V30 22387 C 2157.83 -5.07793 1.22245 0
M  V30 22388 H 2159.53 -2.83319 0.968038 0
M  V30 22389 H 2157.07 -1.36219 0.466952 0
M  V30 22390 H 2159.03 -4.05708 -1.13926 0
M  V30 22391 H 2157.75 -2.88053 -1.53925 0
M  V30 22392 H 2156.41 -3.63774 0.454301 0
M  V30 22393 H 2156.06 -4.70444 -1.78021 0
M  V30 22394 H 2155.76 -5.85824 -0.456445 0
M  V30 22395 H 2157.28 -5.94693 -1.38465 0
M  V30 22396 H 2158.69 -5.66669 0.869436 0
M  V30 22397 H 2157.09 -5.76855 1.65404 0
M  V30 22398 H 2158.16 -4.40506 2.02688 0
M  V30 22399 N 2159.5 -0.52156 -1.4872 0
M  V30 22400 C 2160.75 0.0156187 -2.02794 0
M  V30 22401 C 2161.08 1.34729 -1.39863 0
M  V30 22402 O 2160.36 1.86812 -0.541426 0
M  V30 22403 C 2160.64 0.146526 -3.59802 0
M  V30 22404 C 2160.49 -1.20972 -4.33227 0
M  V30 22405 C 2161.81 0.87737 -4.31266 0
M  V30 22406 H 2158.93 0.00420207 -0.736988 0
M  V30 22407 H 2161.57 -0.676958 -1.77531 0
M  V30 22408 H 2159.72 0.736393 -3.81457 0
M  V30 22409 H 2161.4 -1.84005 -4.23013 0
M  V30 22410 H 2159.64 -1.79378 -3.94976 0
M  V30 22411 H 2160.31 -1.07121 -5.41506 0
M  V30 22412 H 2162.79 0.376892 -4.1439 0
M  V30 22413 H 2161.66 0.937846 -5.40829 0
M  V30 22414 H 2161.92 1.92578 -3.97953 0
M  V30 22415 N 2160.98 1.55502 -0.256304 0
M  V30 22416 C 2162.4 1.59297 0.0983236 0
M  V30 22417 C 2162.6 1.27351 1.56154 0
M  V30 22418 O 2161.65 1.02533 2.30745 0
M  V30 22419 C 2162.97 2.9958 -0.259346 0
M  V30 22420 C 2164.52 3.12332 -0.204415 0
M  V30 22421 C 2164.99 4.5485 -0.536252 0
M  V30 22422 N 2166.48 4.60632 -0.487101 0
M  V30 22423 C 2167.22 5.68901 -0.716903 0
M  V30 22424 N 2166.71 6.85393 -1.01033 0
M  V30 22425 N 2168.51 5.58364 -0.646972 0
M  V30 22426 H 2160.66 1.74536 -1.21042 0
M  V30 22427 H 2162.92 0.812935 -0.487689 0
M  V30 22428 H 2162.63 3.27727 -1.27624 0
M  V30 22429 H 2162.5 3.74976 0.409004 0
M  V30 22430 H 2164.89 2.8396 0.803168 0
M  V30 22431 H 2164.97 2.3919 -0.906752 0
M  V30 22432 H 2164.61 4.83944 -1.54143 0
M  V30 22433 H 2164.54 5.26265 0.187668 0
M  V30 22434 H 2167.03 3.76938 -0.269421 0
M  V30 22435 H 2167.35 7.63848 -1.17285 0
M  V30 22436 H 2165.69 6.87055 -1.0479 0
M  V30 22437 H 2168.88 4.66233 -0.417713 0
M  V30 22438 H 2169.05 6.42669 -0.829457 0
M  V30 22439 N 2162.46 -0.0166879 1.57591 0
M  V30 22440 C 2163.39 -1.01268 2.10398 0
M  V30 22441 C 2164.37 -1.36922 1.00928 0
M  V30 22442 O 2165.56 -1.45589 1.2852 0
M  V30 22443 C 2162.69 -2.30979 2.59357 0
M  V30 22444 C 2161.64 -2.09533 3.73202 0
M  V30 22445 C 2160.97 -3.45113 4.08413 0
M  V30 22446 C 2162.27 -1.47144 5.01145 0
M  V30 22447 H 2163.96 -0.573053 2.93865 0
M  V30 22448 H 2161.51 -0.274203 1.41365 0
M  V30 22449 H 2163.46 -3.00996 2.94923 0
M  V30 22450 H 2162.18 -2.77024 1.72989 0
M  V30 22451 H 2160.84 -1.41946 3.38004 0
M  V30 22452 H 2160.49 -3.88829 3.19094 0
M  V30 22453 H 2160.19 -3.31585 4.85104 0
M  V30 22454 H 2161.71 -4.16472 4.46524 0
M  V30 22455 H 2163.13 -2.07094 5.34588 0
M  V30 22456 H 2161.53 -1.44154 5.82529 0
M  V30 22457 H 2162.6 -0.438665 4.82912 0
M  V30 22458 N 2163.94 -1.54924 -0.289176 0
M  V30 22459 C 2165.35 -1.65642 -0.861368 0
M  V30 22460 C 2165.7 -0.572803 -1.87652 0
M  V30 22461 O 2164.83 0.288543 -2.14468 0
M  V30 22462 C 2165.42 -3.00274 -1.56911 0
M  V30 22463 C 2163.98 -3.13073 -2.08955 0
M  V30 22464 C 2163.13 -2.61377 -0.926152 0
M  V30 22465 H 2166.08 -1.58563 -0.0658933 0
M  V30 22466 H 2166.1 -2.92358 -2.4353 0
M  V30 22467 H 2165.61 -3.7912 -0.830021 0
M  V30 22468 H 2163.71 -2.38969 -2.85875 0
M  V30 22469 H 2163.82 -4.19404 -2.31596 0
M  V30 22470 H 2162.19 -2.18126 -1.31503 0
M  V30 22471 H 2162.97 -3.42712 -0.200828 0
M  V30 22472 N 2165.42 0.552936 -1.47582 0
M  V30 22473 C 2166.66 1.30733 -1.54121 0
M  V30 22474 C 2166.99 1.93899 -0.206934 0
M  V30 22475 O 2166.26 1.80154 0.769505 0
M  V30 22476 H 2164.84 0.485489 -0.567723 0
M  V30 22477 H 2167.5 0.645327 -1.83906 0
M  V30 22478 H 2166.59 2.09863 -2.31006 0
M  V30 22479 N 2166.89 1.35785 0.800009 0
M  V30 22480 C 2167.82 1.31917 1.92666 0
M  V30 22481 C 2168.81 0.19244 1.69008 0
M  V30 22482 O 2169.99 0.388435 1.90276 0
M  V30 22483 C 2167.12 1.09703 3.29519 0
M  V30 22484 C 2166.07 2.19086 3.67675 0
M  V30 22485 C 2165.4 1.82029 5.02762 0
M  V30 22486 C 2166.7 3.611 3.77365 0
M  V30 22487 H 2168.39 2.26189 1.96161 0
M  V30 22488 H 2165.94 1.08882 0.94237 0
M  V30 22489 H 2167.89 1.05634 4.07945 0
M  V30 22490 H 2166.62 0.118779 3.26384 0
M  V30 22491 H 2165.28 2.22263 2.91539 0
M  V30 22492 H 2164.92 0.828056 4.96137 0
M  V30 22493 H 2164.62 2.55256 5.29262 0
M  V30 22494 H 2166.15 1.79497 5.83621 0
M  V30 22495 H 2167.56 3.60209 4.46007 0
M  V30 22496 H 2165.96 4.33143 4.1534 0
M  V30 22497 H 2167.03 3.96774 2.78744 0
M  V30 22498 N 2168.37 -1.02294 1.19891 0
M  V30 22499 C 2169.62 -1.75196 0.999463 0
M  V30 22500 C 2169.93 -1.89874 -0.469823 0
M  V30 22501 O 2171.14 -2.59806 -0.788235 0
M  V30 22502 C 2169.6 -3.15074 1.73944 0
M  V30 22503 C 2169.2 -3.0843 3.24923 0
M  V30 22504 C 2170.95 -3.9223 1.62345 0
M  V30 22505 C 2168.86 -4.43277 3.91484 0
M  V30 22506 H 2167.79 -0.656782 0.370342 0
M  V30 22507 H 2170.44 -1.14434 1.43447 0
M  V30 22508 H 2168.82 -3.76339 1.23227 0
M  V30 22509 H 2169.99 -2.5651 3.82804 0
M  V30 22510 H 2168.31 -2.44769 3.36864 0
M  V30 22511 H 2170.9 -4.91983 2.09419 0
M  V30 22512 H 2171.25 -4.1226 0.578579 0
M  V30 22513 H 2171.78 -3.37579 2.1044 0
M  V30 22514 H 2168.52 -4.28451 4.96095 0
M  V30 22515 H 2168.04 -4.95228 3.38392 0
M  V30 22516 H 2169.72 -5.12142 3.95373 0
M  V30 22517 N 2169.85 -1.00378 -1.21499 0
M  V30 22518 C 2171.13 -0.601329 -1.86127 0
M  V30 22519 C 2171.51 0.921083 -1.89945 0
M  V30 22520 O 2170.86 1.80753 -1.39787 0
M  V30 22521 C 2171.07 -1.2343 -3.26445 0
M  V30 22522 C 2172.41 -1.34165 -4.02846 0
M  V30 22523 O 2173.44 -1.18952 -3.35751 0
M  V30 22524 O 2172.3 -1.58622 -5.22973 0
M  V30 22525 H 2169.39 -0.205796 -0.800985 0
M  V30 22526 H 2171.94 -1.10035 -1.29192 0
M  V30 22527 H 2170.71 -2.27515 -3.18359 0
M  V30 22528 H 2170.33 -0.721556 -3.90998 0
M  V30 22529 N 2171.33 1.37038 -0.778354 0
M  V30 22530 C 2172.57 1.99823 -0.34619 0
M  V30 22531 C 2172.91 1.61643 1.07634 0
M  V30 22532 O 2172.18 0.865817 1.74166 0
M  V30 22533 C 2172.47 3.56649 -0.497307 0
M  V30 22534 C 2172.32 4.04718 -1.96273 0
M  V30 22535 C 2173.64 4.39999 0.0944148 0
M  V30 22536 H 2170.76 0.725929 -0.127262 0
M  V30 22537 H 2173.4 1.62617 -0.98263 0
M  V30 22538 H 2171.55 3.88475 0.0445004 0
M  V30 22539 H 2173.22 3.8343 -2.56475 0
M  V30 22540 H 2171.46 3.56667 -2.46924 0
M  V30 22541 H 2172.13 5.13732 -2.01949 0
M  V30 22542 H 2174.61 4.1447 -0.367956 0
M  V30 22543 H 2173.49 5.48884 -0.0414159 0
M  V30 22544 H 2173.75 4.25911 1.18542 0
M  V30 22545 N 2172.81 0.529439 1.48441 0
M  V30 22546 C 2173.76 -0.253463 2.26587 0
M  V30 22547 C 2174.74 -0.910366 1.32669 0
M  V30 22548 O 2175.93 -0.813262 1.5721 0
M  V30 22549 C 2173.06 -1.3001 3.1773 0
M  V30 22550 C 2172.15 -0.648014 4.1912 0
M  V30 22551 N 2172.54 0.265936 5.051 0
M  V30 22552 C 2170.84 -0.905282 4.36716 0
M  V30 22553 C 2171.54 0.642059 5.78146 0
M  V30 22554 N 2170.51 0.0032706 5.436 0
M  V30 22555 H 2174.32 0.449662 2.9044 0
M  V30 22556 H 2171.83 0.347431 1.5864 0
M  V30 22557 H 2173.83 -1.87468 3.72372 0
M  V30 22558 H 2172.49 -2.00461 2.55432 0
M  V30 22559 H 2173.5 0.638504 5.13949 0
M  V30 22560 H 2170.18 -1.6004 3.85608 0
M  V30 22561 H 2171.57 1.39145 6.57334 0
M  V30 22562 N 2174.29 -1.55364 0.264547 0
M  V30 22563 C 2175.53 -1.99655 -0.355771 0
M  V30 22564 C 2175.86 -1.15266 -1.56293 0
M  V30 22565 O 2175.14 -0.220196 -1.9325 0
M  V30 22566 C 2175.42 -3.52238 -0.748347 0
M  V30 22567 C 2175.28 -4.47386 0.465419 0
M  V30 22568 C 2176.59 -4.10422 -1.58877 0
M  V30 22569 H 2173.71 -0.725828 -0.12784 0
M  V30 22570 H 2176.36 -1.86375 0.369383 0
M  V30 22571 H 2174.51 -3.63686 -1.36619 0
M  V30 22572 H 2176.18 -4.47896 1.10395 0
M  V30 22573 H 2174.42 -4.1948 1.10539 0
M  V30 22574 H 2175.09 -5.51804 0.147135 0
M  V30 22575 H 2177.57 -4.02185 -1.06707 0
M  V30 22576 H 2176.44 -5.17415 -1.83228 0
M  V30 22577 H 2176.7 -3.59985 -2.56639 0
M  V30 22578 N 2175.76 0.00833021 -1.57598 0
M  V30 22579 C 2176.71 1.01074 -2.04372 0
M  V30 22580 C 2177.7 1.30812 -0.936863 0
M  V30 22581 O 2178.89 1.30049 -1.20067 0
M  V30 22582 C 2176.02 2.3054 -2.54374 0
M  V30 22583 C 2175.1 2.03803 -3.71921 0
M  V30 22584 N 2175.5 1.47194 -4.83908 0
M  V30 22585 C 2173.79 2.33987 -3.79692 0
M  V30 22586 C 2174.49 1.36737 -5.65401 0
M  V30 22587 N 2173.47 1.85013 -5.11147 0
M  V30 22588 H 2177.27 0.56742 -2.88371 0
M  V30 22589 H 2174.79 0.214206 -1.60981 0
M  V30 22590 H 2176.78 3.03184 -2.86155 0
M  V30 22591 H 2175.44 2.75532 -1.71791 0
M  V30 22592 H 2176.45 1.15186 -5.04928 0
M  V30 22593 H 2173.13 2.81911 -3.07948 0
M  V30 22594 H 2174.52 0.932837 -6.65393 0
M  V30 22595 N 2177.24 1.55075 0.280956 0
M  V30 22596 C 2178.17 1.90416 1.35145 0
M  V30 22597 C 2179.15 0.765149 1.51919 0
M  V30 22598 O 2180.34 1.02261 1.65095 0
M  V30 22599 C 2177.47 2.16909 2.71233 0
M  V30 22600 C 2176.42 3.32739 2.692 0
M  V30 22601 C 2175.75 3.44695 4.08766 0
M  V30 22602 C 2177.05 4.69338 2.2917 0
M  V30 22603 H 2178.74 2.80078 1.05815 0
M  V30 22604 H 2176.29 1.34758 0.507584 0
M  V30 22605 H 2178.24 2.40219 3.46226 0
M  V30 22606 H 2176.96 1.24039 3.02129 0
M  V30 22607 H 2175.62 3.09385 1.96664 0
M  V30 22608 H 2175.27 2.49305 4.36871 0
M  V30 22609 H 2174.97 4.22568 4.08301 0
M  V30 22610 H 2176.5 3.70288 4.85509 0
M  V30 22611 H 2177.91 4.92246 2.93883 0
M  V30 22612 H 2176.31 5.5007 2.39882 0
M  V30 22613 H 2177.38 4.68698 1.24297 0
M  V30 22614 N 2178.72 -0.545102 1.47873 0
M  V30 22615 C 2180.14 -0.872206 1.33659 0
M  V30 22616 C 2180.34 -1.98676 0.336181 0
M  V30 22617 O 2179.39 -2.51279 -0.248001 0
M  V30 22618 C 2180.7 -1.254 2.73304 0
M  V30 22619 C 2182.25 -1.36475 2.8168 0
M  V30 22620 C 2182.73 -1.78005 4.21993 0
M  V30 22621 N 2184.22 -1.85134 4.24593 0
M  V30 22622 C 2184.95 -2.18622 5.30087 0
M  V30 22623 N 2184.45 -2.50639 6.45873 0
M  V30 22624 N 2186.24 -2.19499 5.17471 0
M  V30 22625 H 2178.39 0.190536 2.11544 0
M  V30 22626 H 2180.66 0.0225858 0.947731 0
M  V30 22627 H 2180.36 -0.508782 3.48 0
M  V30 22628 H 2180.24 -2.20752 3.05857 0
M  V30 22629 H 2182.62 -2.10076 2.07249 0
M  V30 22630 H 2182.7 -0.392814 2.52766 0
M  V30 22631 H 2182.35 -1.04969 4.96935 0
M  V30 22632 H 2182.28 -2.76222 4.4834 0
M  V30 22633 H 2184.77 -1.62729 3.41068 0
M  V30 22634 H 2185.08 -2.75253 7.22119 0
M  V30 22635 H 2183.43 -2.48192 6.49173 0
M  V30 22636 H 2186.62 -1.93934 4.26037 0
M  V30 22637 H 2186.79 -2.45267 5.9979 0
M  V30 22638 N 2180.2 -1.36208 -0.792797 0
M  V30 22639 C 2181.11 -1.32403 -1.93666 0
M  V30 22640 C 2182.12 -0.226736 -1.72516 0
M  V30 22641 O 2183.3 -0.458518 -1.96111 0
M  V30 22642 C 2180.36 -1.10928 -3.28475 0
M  V30 22643 C 2179.43 -2.301 -3.62426 0
M  V30 22644 C 2178.66 -2.0964 -4.90802 0
M  V30 22645 O 2178.88 -1.06985 -5.60277 0
M  V30 22646 O 2177.82 -2.97336 -5.23331 0
M  V30 22647 H 2181.64 -2.287 -1.99825 0
M  V30 22648 H 2179.23 -1.1672 -0.932566 0
M  V30 22649 H 2181.11 -1.00855 -4.09153 0
M  V30 22650 H 2179.78 -0.17691 -3.23216 0
M  V30 22651 H 2178.69 -2.45741 -2.82068 0
M  V30 22652 H 2180.02 -3.21832 -3.72405 0
M  V30 22653 N 2181.68 1.01656 -1.20431 0
M  V30 22654 C 2183.09 1.56704 -1.01493 0
M  V30 22655 C 2183.44 1.9146 0.428672 0
M  V30 22656 O 2182.56 1.72238 1.31008 0
M  V30 22657 C 2183.16 2.84735 -1.83607 0
M  V30 22658 C 2181.72 3.3631 -1.69034 0
M  V30 22659 C 2180.86 2.09617 -1.81538 0
M  V30 22660 H 2183.81 0.840383 -1.34623 0
M  V30 22661 H 2183.84 3.56144 -1.33946 0
M  V30 22662 H 2183.35 2.59407 -2.88668 0
M  V30 22663 H 2181.45 3.66598 -0.666096 0
M  V30 22664 H 2181.56 4.08511 -2.50312 0
M  V30 22665 H 2179.93 2.22072 -1.24724 0
M  V30 22666 H 2180.71 1.86716 -2.88083 0
M  V30 22667 N 2183.15 1.01021 1.20965 0
M  V30 22668 C 2184.4 0.6945 1.89792 0
M  V30 22669 C 2184.72 -0.77766 1.78822 0
M  V30 22670 O 2183.99 -1.55883 1.18648 0
M  V30 22671 H 2182.57 0.253892 0.702529 0
M  V30 22672 H 2185.23 1.28043 1.46938 0
M  V30 22673 H 2184.33 0.972254 2.9657 0
M  V30 22674 N 2184.63 -1.36623 0.78561 0
M  V30 22675 C 2185.88 -1.98948 0.355551 0
M  V30 22676 C 2186.2 -1.62665 -1.07541 0
M  V30 22677 O 2185.47 -0.89879 -1.74065 0
M  V30 22678 H 2184.05 -0.735869 0.128476 0
M  V30 22679 H 2186.71 -1.66881 1.00681 0
M  V30 22680 H 2185.81 -3.08921 0.444316 0
M  V30 22681 N 2186.11 -0.537304 -1.48158 0
M  V30 22682 C 2187.34 -0.0101482 -2.06898 0
M  V30 22683 C 2187.75 1.27458 -1.39283 0
M  V30 22684 O 2187.11 1.76 -0.48274 0
M  V30 22685 C 2187.16 0.209896 -3.6089 0
M  V30 22686 O 2186.88 -1.02394 -4.25966 0
M  V30 22687 C 2188.38 0.776601 -4.36444 0
M  V30 22688 H 2185.6 -0.0368227 -0.669989 0
M  V30 22689 H 2188.15 -0.745039 -1.90445 0
M  V30 22690 H 2186.3 0.894855 -3.76923 0
M  V30 22691 H 2186.72 -0.809231 -5.1822 0
M  V30 22692 H 2188.19 0.879955 -5.44941 0
M  V30 22693 H 2188.67 1.78324 -4.01369 0
M  V30 22694 H 2189.27 0.127975 -4.25107 0
M  V30 22695 N 2187.59 1.55221 -0.272782 0
M  V30 22696 C 2188.54 2.19118 0.630176 0
M  V30 22697 C 2189.52 1.15507 1.12013 0
M  V30 22698 O 2190.71 1.4133 1.06559 0
M  V30 22699 C 2187.84 2.91401 1.81494 0
M  V30 22700 C 2186.93 4.02298 1.34228 0
M  V30 22701 N 2187.32 5.02399 0.585608 0
M  V30 22702 C 2185.62 4.15326 1.62543 0
M  V30 22703 C 2186.32 5.80721 0.337422 0
M  V30 22704 N 2185.3 5.35943 0.909166 0
M  V30 22705 H 2189.1 2.93867 0.0441972 0
M  V30 22706 H 2186.61 1.62221 -0.076237 0
M  V30 22707 H 2188.61 3.35625 2.47309 0
M  V30 22708 H 2187.27 2.18163 2.40489 0
M  V30 22709 H 2188.28 5.17375 0.233177 0
M  V30 22710 H 2184.96 3.53276 2.22491 0
M  V30 22711 H 2186.35 6.71364 -0.268428 0
M  V30 22712 N 2189.07 2.77022e-05 1.576 0
M  V30 22713 C 2190.01 -0.991376 2.08424 0
M  V30 22714 C 2190.98 -1.34134 0.979661 0
M  V30 22715 O 2192.17 -1.4397 1.25209 0
M  V30 22716 C 2189.31 -2.27808 2.59224 0
M  V30 22717 C 2188.42 -1.98715 3.83584 0
M  V30 22718 C 2187.56 -3.21468 4.22885 0
M  V30 22719 C 2186.6 -2.88061 5.40081 0
M  V30 22720 N 2185.73 -4.0335 5.74676 0
M  V30 22721 H 2190.57 -0.551038 2.92861 0
M  V30 22722 H 2188.11 -0.260432 1.44776 0
M  V30 22723 H 2190.07 -3.03029 2.86756 0
M  V30 22724 H 2188.7 -2.69511 1.77661 0
M  V30 22725 H 2187.75 -1.13862 3.62959 0
M  V30 22726 H 2189.06 -1.70092 4.68903 0
M  V30 22727 H 2188.22 -4.05034 4.517 0
M  V30 22728 H 2186.95 -3.53229 3.36275 0
M  V30 22729 H 2185.96 -2.02902 5.1099 0
M  V30 22730 H 2187.18 -2.57547 6.28368 0
M  V30 22731 H 2185.13 -4.35008 4.91023 0
M  V30 22732 H 2185.05 -3.78251 6.5457 0
M  V30 22733 H 2186.32 -4.87705 6.08082 0
M  V30 22734 N 2190.54 -1.55222 -0.272728 0
M  V30 22735 C 2191.45 -1.91218 -1.35915 0
M  V30 22736 C 2192.47 -0.809463 -1.54025 0
M  V30 22737 O 2193.65 -1.10855 -1.68146 0
M  V30 22738 C 2190.71 -2.17698 -2.69831 0
M  V30 22739 C 2189.77 -3.41258 -2.60464 0
M  V30 22740 C 2189.01 -3.66465 -3.87994 0
M  V30 22741 O 2189.23 -2.94178 -4.88688 0
M  V30 22742 O 2188.16 -4.59999 -3.88181 0
M  V30 22743 H 2191.99 -2.83701 -1.08385 0
M  V30 22744 H 2189.57 -1.41772 -0.471276 0
M  V30 22745 H 2191.46 -2.36153 -3.49012 0
M  V30 22746 H 2190.13 -1.28397 -2.97146 0
M  V30 22747 H 2189.04 -3.28137 -1.79657 0
M  V30 22748 H 2190.37 -4.30778 -2.38098 0
M  V30 22749 N 2192.02 0.537252 -1.4816 0
M  V30 22750 C 2193.3 1.29837 -1.46294 0
M  V30 22751 C 2193.68 2.10409 -0.17065 0
M  V30 22752 O 2193.03 2.12194 0.847709 0
M  V30 22753 C 2193.24 2.18598 -2.72058 0
M  V30 22754 C 2194.59 2.78974 -3.20092 0
M  V30 22755 O 2195.61 2.28889 -2.72925 0
M  V30 22756 O 2194.47 3.70057 -4.02144 0
M  V30 22757 H 2191.56 0.585637 -0.583916 0
M  V30 22758 H 2194.11 0.554506 -1.60385 0
M  V30 22759 H 2192.88 1.58795 -3.57631 0
M  V30 22760 H 2192.5 3.00244 -2.60651 0
M  V30 22761 N 2193.5 1.36626 0.785562 0
M  V30 22762 C 2194.75 1.3107 1.5436 0
M  V30 22763 C 2195.08 -0.108896 1.94195 0
M  V30 22764 O 2194.33 -1.07905 1.63264 0
M  V30 22765 C 2194.63 2.18275 2.83003 0
M  V30 22766 C 2194.3 3.66765 2.62287 0
M  V30 22767 C 2192.96 4.07235 2.56346 0
M  V30 22768 C 2195.31 4.60895 2.43363 0
M  V30 22769 C 2192.64 5.39971 2.29451 0
M  V30 22770 C 2194.99 5.93853 2.17994 0
M  V30 22771 C 2193.65 6.33444 2.10489 0
M  V30 22772 H 2192.92 0.479619 0.564842 0
M  V30 22773 H 2195.57 1.68713 0.905999 0
M  V30 22774 H 2193.88 1.73582 3.5125 0
M  V30 22775 H 2195.57 2.11298 3.40814 0
M  V30 22776 H 2192.16 3.34661 2.67769 0
M  V30 22777 H 2196.35 4.30498 2.46952 0
M  V30 22778 H 2191.6 5.69623 2.22125 0
M  V30 22779 H 2195.78 6.66355 2.02347 0
M  V30 22780 H 2193.4 7.36225 1.89412 0
M  V30 22781 N 2194.98 -1.01016 1.20969 0
M  V30 22782 C 2195.94 -2.07851 0.965954 0
M  V30 22783 C 2196.94 -1.60684 -0.0610263 0
M  V30 22784 O 2198.13 -1.73312 0.175711 0
M  V30 22785 C 2195.26 -3.37842 0.455573 0
M  V30 22786 H 2196.46 -2.30907 1.91369 0
M  V30 22787 H 2194.01 -1.17915 1.02596 0
M  V30 22788 H 2194.74 -3.20464 -0.497325 0
M  V30 22789 H 2194.53 -3.73405 1.19628 0
M  V30 22790 H 2196.02 -4.16487 0.304741 0
M  V30 22791 N 2196.46 -1.01661 -1.20428 0
M  V30 22792 C 2197.68 -0.724976 -1.94316 0
M  V30 22793 C 2198.11 0.708003 -1.74267 0
M  V30 22794 O 2197.46 1.48717 -1.03696 0
M  V30 22795 C 2197.51 -1.06597 -3.44484 0
M  V30 22796 O 2196.62 -0.177671 -4.12017 0
M  V30 22797 H 2195.96 -0.268991 -0.607075 0
M  V30 22798 H 2198.49 -1.35998 -1.52858 0
M  V30 22799 H 2198.5 -1.01769 -3.95104 0
M  V30 22800 H 2197.17 -2.11003 -3.584 0
M  V30 22801 H 2195.75 -0.283486 -3.71821 0
M  V30 22802 N 2197.93 1.36205 -0.792844 0
M  V30 22803 C 2199.18 1.98756 -0.366097 0
M  V30 22804 C 2199.5 1.63233 1.06677 0
M  V30 22805 O 2198.77 0.908009 1.73586 0
M  V30 22806 H 2197.35 0.735177 -0.132377 0
M  V30 22807 H 2200.02 1.66345 -1.01564 0
M  V30 22808 H 2199.11 3.08681 -0.460692 0
M  V30 22809 N 2199.41 0.545154 1.47871 0
M  V30 22810 C 2200.64 0.0211204 2.06889 0
M  V30 22811 C 2201.06 -1.26718 1.39957 0
M  V30 22812 O 2200.41 -1.75741 0.492067 0
M  V30 22813 C 2200.46 -0.190754 3.60996 0
M  V30 22814 O 2200.18 1.04652 4.25417 0
M  V30 22815 C 2201.69 -0.753445 4.3685 0
M  V30 22816 H 2198.91 0.0403753 0.669784 0
M  V30 22817 H 2201.45 0.755128 1.90048 0
M  V30 22818 H 2199.6 -0.874854 3.77392 0
M  V30 22819 H 2200.02 0.836702 5.17783 0
M  V30 22820 H 2201.49 -0.851043 5.454 0
M  V30 22821 H 2201.97 -1.76193 4.02309 0
M  V30 22822 H 2202.58 -0.105429 4.25169 0
M  V30 22823 N 2200.89 -1.55074 0.28101 0
M  V30 22824 C 2201.85 -2.21453 -0.590858 0
M  V30 22825 C 2202.85 -1.19423 -1.07679 0
M  V30 22826 O 2204.04 -1.44289 -0.976025 0
M  V30 22827 C 2201.18 -2.88515 -1.81582 0
M  V30 22828 H 2202.37 -2.99898 -0.0112027 0
M  V30 22829 H 2199.92 -1.56268 0.0316713 0
M  V30 22830 H 2200.66 -2.14097 -2.43584 0
M  V30 22831 H 2200.44 -3.63289 -1.47524 0
M  V30 22832 H 2201.93 -3.39211 -2.43569 0
M  V30 22833 N 2202.37 -0.00838561 -1.57598 0
M  V30 22834 C 2203.33 0.965206 -2.07886 0
M  V30 22835 C 2204.33 1.26723 -0.989847 0
M  V30 22836 O 2205.52 1.21101 -1.2522 0
M  V30 22837 C 2202.65 2.28775 -2.52735 0
M  V30 22838 H 2203.85 0.53006 -2.95179 0
M  V30 22839 H 2201.4 0.239256 -1.54458 0
M  V30 22840 H 2202.14 2.76961 -1.6871 0
M  V30 22841 H 2201.92 2.08172 -3.32276 0
M  V30 22842 H 2203.41 2.986 -2.91938 0
M  V30 22843 N 2203.85 1.55365 0.264492 0
M  V30 22844 C 2204.81 1.88044 1.31042 0
M  V30 22845 C 2205.81 0.755594 1.41942 0
M  V30 22846 O 2207 1.02372 1.40946 0
M  V30 22847 C 2204.13 2.09327 2.69063 0
M  V30 22848 H 2205.33 2.81551 1.03292 0
M  V30 22849 H 2202.88 1.47986 0.502963 0
M  V30 22850 H 2203.61 1.18231 3.0198 0
M  V30 22851 H 2203.4 2.91234 2.62536 0
M  V30 22852 H 2204.89 2.35854 3.44619 0
M  V30 22853 N 2205.33 -0.529387 1.48443 0
M  V30 22854 C 2206.26 -1.6431 1.65905 0
M  V30 22855 C 2207.24 -1.6234 0.507926 0
M  V30 22856 O 2208.42 -1.79526 0.740534 0
M  V30 22857 C 2205.55 -3.02895 1.69917 0
M  V30 22858 C 2204.51 -3.19724 2.84536 0
M  V30 22859 C 2203.83 -4.59377 2.73637 0
M  V30 22860 C 2205.13 -3.02439 4.25826 0
M  V30 22861 H 2206.83 -1.49951 2.59143 0
M  V30 22862 H 2204.37 -0.71996 1.2471 0
M  V30 22863 H 2206.32 -3.80681 1.80721 0
M  V30 22864 H 2205.05 -3.18278 0.73258 0
M  V30 22865 H 2203.71 -2.44356 2.73287 0
M  V30 22866 H 2203.36 -4.71596 1.74946 0
M  V30 22867 H 2203.06 -4.71582 3.50549 0
M  V30 22868 H 2204.58 -5.3926 2.8641 0
M  V30 22869 H 2205.99 -3.70016 4.37905 0
M  V30 22870 H 2204.39 -3.26137 5.03741 0
M  V30 22871 H 2205.46 -1.98859 4.42248 0
M  V30 22872 N 2206.8 -1.37041 -0.778305 0
M  V30 22873 C 2207.77 -1.32105 -1.87299 0
M  V30 22874 C 2208.77 -0.226433 -1.59198 0
M  V30 22875 O 2209.96 -0.481891 -1.67402 0
M  V30 22876 C 2207.09 -1.05061 -3.24307 0
M  V30 22877 H 2208.28 -2.29471 -1.93089 0
M  V30 22878 H 2205.83 -1.21975 -0.977337 0
M  V30 22879 H 2206.57 -0.0819943 -3.24196 0
M  V30 22880 H 2206.35 -1.84285 -3.46094 0
M  V30 22881 H 2207.84 -1.04241 -4.04381 0
M  V30 22882 N 2208.28 1.00373 -1.21503 0
M  V30 22883 C 2209.53 1.73825 -1.03098 0
M  V30 22884 C 2209.85 1.90056 0.436307 0
M  V30 22885 O 2209.12 1.45238 1.31464 0
M  V30 22886 H 2207.7 0.644009 -0.378498 0
M  V30 22887 H 2210.36 1.20947 -1.52833 0
M  V30 22888 H 2209.46 2.73692 -1.49996 0
M  V30 22889 N 2209.76 1.02298 1.19887 0
M  V30 22890 C 2211.01 0.714591 1.89045 0
M  V30 22891 C 2211.33 -0.758649 1.79637 0
M  V30 22892 O 2210.6 -1.54616 1.20294 0
M  V30 22893 H 2209.18 0.261329 0.699797 0
M  V30 22894 H 2211.84 1.29595 1.45572 0
M  V30 22895 H 2210.94 1.00365 2.95522 0
M  V30 22896 N 2211.24 -1.35782 0.800057 0
M  V30 22897 C 2212.49 -1.98204 0.373905 0
M  V30 22898 C 2212.8 -1.64194 -1.06299 0
M  V30 22899 O 2214.01 -2.19931 -1.59194 0
M  V30 22900 C 2212.46 -3.54561 0.617594 0
M  V30 22901 C 2212.07 -3.97486 2.06661 0
M  V30 22902 C 2213.81 -4.23725 0.256476 0
M  V30 22903 C 2211.72 -5.46663 2.25639 0
M  V30 22904 H 2210.65 -0.741621 0.136068 0
M  V30 22905 H 2213.3 -1.54937 0.983193 0
M  V30 22906 H 2211.68 -3.95952 -0.0615552 0
M  V30 22907 H 2212.86 -3.67266 2.78303 0
M  V30 22908 H 2211.17 -3.41193 2.38697 0
M  V30 22909 H 2213.77 -5.33373 0.376412 0
M  V30 22910 H 2214.11 -4.08607 -0.796621 0
M  V30 22911 H 2214.65 -3.87733 0.889282 0
M  V30 22912 H 2211.38 -5.66741 3.2937 0
M  V30 22913 H 2210.9 -5.78475 1.58514 0
M  V30 22914 H 2212.58 -6.13036 2.06872 0
M  V30 22915 N 2212.72 -0.552988 -1.4758 0
M  V30 22916 C 2213.94 -0.0320919 -2.06875 0
M  V30 22917 C 2214.36 1.25974 -1.40627 0
M  V30 22918 O 2213.72 1.75478 -0.50138 0
M  V30 22919 C 2213.77 0.171607 -3.61092 0
M  V30 22920 O 2213.49 -1.06906 -4.24856 0
M  V30 22921 C 2214.99 0.730267 -4.37244 0
M  V30 22922 H 2212.21 -0.0439268 -0.669561 0
M  V30 22923 H 2214.75 -0.765196 -1.89644 0
M  V30 22924 H 2212.91 0.854827 -3.77851 0
M  V30 22925 H 2213.32 -0.86415 -5.17332 0
M  V30 22926 H 2214.8 0.822107 -5.45844 0
M  V30 22927 H 2215.27 1.74057 -4.03238 0
M  V30 22928 H 2215.88 0.0828795 -4.25219 0
M  V30 22929 N 2214.19 1.54923 -0.28923 0
M  V30 22930 C 2215.13 2.19222 0.633784 0
M  V30 22931 C 2216.1 1.15774 1.14172 0
M  V30 22932 O 2217.29 1.44363 1.21209 0
M  V30 22933 C 2214.42 2.82671 1.86587 0
M  V30 22934 C 2213.46 3.99544 1.4922 0
M  V30 22935 S 2214.29 5.32583 0.558219 0
M  V30 22936 C 2215.45 5.99508 1.79836 0
M  V30 22937 H 2215.68 2.97171 0.0874893 0
M  V30 22938 H 2213.22 1.54225 -0.073417 0
M  V30 22939 H 2215.17 3.19855 2.57299 0
M  V30 22940 H 2213.84 2.04589 2.38332 0
M  V30 22941 H 2213.03 4.4268 2.40937 0
M  V30 22942 H 2212.63 3.63856 0.865129 0
M  V30 22943 H 2214.92 6.19599 2.74049 0
M  V30 22944 H 2215.87 6.93924 1.40978 0
M  V30 22945 H 2216.27 5.2902 1.96973 0
M  V30 22946 N 2215.67 0.0167433 1.57591 0
M  V30 22947 C 2216.92 -0.665548 1.91568 0
M  V30 22948 C 2217.25 -1.72485 0.892329 0
M  V30 22949 O 2216.53 -1.94307 -0.0866785 0
M  V30 22950 C 2216.81 -1.29336 3.36072 0
M  V30 22951 C 2216.66 -0.244462 4.49135 0
M  V30 22952 C 2217.98 -2.21488 3.80304 0
M  V30 22953 H 2215.1 -0.240476 0.696664 0
M  V30 22954 H 2217.74 0.071469 1.89866 0
M  V30 22955 H 2215.89 -1.92153 3.37653 0
M  V30 22956 H 2217.56 0.385309 4.59688 0
M  V30 22957 H 2215.81 0.431455 4.31649 0
M  V30 22958 H 2216.48 -0.723111 5.47243 0
M  V30 22959 H 2218.95 -1.68672 3.8038 0
M  V30 22960 H 2217.83 -2.62374 4.82132 0
M  V30 22961 H 2218.09 -3.10094 3.1511 0
M  V30 22962 N 2217.15 -1.55503 -0.256249 0
M  V30 22963 C 2218.39 -1.78656 -0.993049 0
M  V30 22964 C 2218.75 -0.584756 -1.82879 0
M  V30 22965 O 2219.96 -0.694868 -2.59663 0
M  V30 22966 C 2218.23 -3.06486 -1.8385 0
M  V30 22967 S 2219.79 -3.50824 -2.63567 0
M  V30 22968 H 2216.6 -0.627566 -0.334188 0
M  V30 22969 H 2219.21 -1.93739 -0.261806 0
M  V30 22970 H 2217.91 -3.92031 -1.21407 0
M  V30 22971 H 2217.44 -2.94115 -2.61266 0
M  V30 22972 H 2219.46 -3.11419 -3.86306 0
M  V30 22973 N 2218.63 0.521507 -1.48721 0
M  V30 22974 C 2219.59 1.60745 -1.63382 0
M  V30 22975 C 2220.59 1.5261 -0.506637 0
M  V30 22976 O 2221.78 1.56128 -0.772629 0
M  V30 22977 C 2218.91 3.0038 -1.61198 0
M  V30 22978 H 2220.11 1.49083 -2.6022 0
M  V30 22979 H 2217.66 0.744211 -1.37445 0
M  V30 22980 H 2218.39 3.1754 -0.658686 0
M  V30 22981 H 2218.18 3.07693 -2.43038 0
M  V30 22982 H 2219.67 3.79317 -1.74667 0
M  V30 22983 N 2220.11 1.37452 0.771027 0
M  V30 22984 C 2221.04 1.27641 1.89164 0
M  V30 22985 C 2222.02 0.15681 1.61842 0
M  V30 22986 O 2223.2 0.331144 1.85569 0
M  V30 22987 C 2220.33 0.973678 3.24403 0
M  V30 22988 C 2219.37 2.11027 3.70635 0
M  V30 22989 S 2220.21 3.73007 3.84221 0
M  V30 22990 C 2221.36 3.44885 5.22307 0
M  V30 22991 H 2221.6 2.22488 1.97196 0
M  V30 22992 H 2219.13 1.23083 0.932202 0
M  V30 22993 H 2221.09 0.805837 4.02513 0
M  V30 22994 H 2219.75 0.0426831 3.14071 0
M  V30 22995 H 2218.94 1.85347 4.68682 0
M  V30 22996 H 2218.54 2.23828 2.99628 0
M  V30 22997 H 2220.84 2.99918 6.07499 0
M  V30 22998 H 2221.78 4.42263 5.53 0
M  V30 22999 H 2222.19 2.79798 4.90279 0
M  V30 23000 N 2221.58 -0.997276 1.22033 0
M  V30 23001 C 2223 -1.5507 1.03973 0
M  V30 23002 C 2223.35 -1.92118 -0.398158 0
M  V30 23003 O 2222.47 -1.743 -1.28251 0
M  V30 23004 C 2223.07 -2.81778 1.88114 0
M  V30 23005 C 2221.63 -3.33578 1.74363 0
M  V30 23006 C 2220.77 -2.06702 1.8485 0
M  V30 23007 H 2223.72 -0.818859 1.35943 0
M  V30 23008 H 2223.74 -3.53968 1.39595 0
M  V30 23009 H 2223.26 -2.54782 2.92759 0
M  V30 23010 H 2221.36 -3.65492 0.724334 0
M  V30 23011 H 2221.47 -4.04477 2.56779 0
M  V30 23012 H 2219.83 -2.20059 1.28242 0
M  V30 23013 H 2220.62 -1.82109 2.91017 0
M  V30 23014 N 2223.06 -1.02932 -1.19343 0
M  V30 23015 C 2224.01 -0.604041 -2.2462 0
M  V30 23016 C 2225 0.363558 -1.65453 0
M  V30 23017 O 2226.21 0.232088 -1.78497 0
M  V30 23018 H 2222.59 -0.177073 -0.730855 0
M  V30 23019 H 2224.56 -1.50259 -2.57808 0
M  V30 23020 C 2223.31 0.0288516 -3.47688 0
M  V30 23021 H 2222.63 -0.70672 -3.93504 0
M  V30 23022 H 2224.07 0.289358 -4.23011 0
M  V30 23023 C 2222.53 1.27555 -3.11819 0
M  V30 23024 O 2223.06 2.36756 -3.24514 0
M  V30 23025 N 2221.26 1.16448 -2.66248 0
M  V30 23026 H 2220.81 0.275869 -2.56119 0
M  V30 23027 H 2220.77 1.99957 -2.4262 0
M  V30 23028 N 2224.54 1.35356 -0.807246 0
M  V30 23029 C 2225.77 2.02988 -0.400413 0
M  V30 23030 C 2226.18 1.60834 0.988831 0
M  V30 23031 O 2225.54 0.806204 1.63727 0
M  V30 23032 C 2225.59 3.58367 -0.47493 0
M  V30 23033 O 2225.31 3.98989 -1.8094 0
M  V30 23034 C 2226.81 4.43258 -0.0609891 0
M  V30 23035 H 2224.03 0.651001 -0.162598 0
M  V30 23036 H 2226.58 1.72963 -1.09105 0
M  V30 23037 H 2224.73 3.87038 0.167466 0
M  V30 23038 H 2225.15 4.93637 -1.77265 0
M  V30 23039 H 2226.62 5.51756 -0.164242 0
M  V30 23040 H 2227.1 4.2781 0.993756 0
M  V30 23041 H 2227.7 4.19884 -0.676566 0
M  V30 23042 N 2226.02 0.560807 1.47284 0
M  V30 23043 C 2227.43 0.220837 1.58065 0
M  V30 23044 C 2227.63 -1.27668 1.55894 0
M  V30 23045 O 2226.69 -2.05708 1.46426 0
M  V30 23046 C 2228 0.850676 2.88416 0
M  V30 23047 C 2229.55 0.822237 3.02007 0
M  V30 23048 C 2230.03 1.43121 4.35064 0
M  V30 23049 N 2231.52 1.39456 4.41708 0
M  V30 23050 C 2232.25 1.83534 5.43234 0
M  V30 23051 N 2231.75 2.35485 6.51551 0
M  V30 23052 N 2233.54 1.74583 5.34301 0
M  V30 23053 H 2225.69 1.53371 1.46939 0
M  V30 23054 H 2227.96 0.639795 0.699547 0
M  V30 23055 H 2227.66 1.90326 2.95752 0
M  V30 23056 H 2227.54 0.345839 3.75611 0
M  V30 23057 H 2229.92 -0.221663 2.94266 0
M  V30 23058 H 2230 1.36487 2.16345 0
M  V30 23059 H 2229.65 2.4742 4.43561 0
M  V30 23060 H 2229.58 0.86399 5.19464 0
M  V30 23061 H 2232.07 1.01459 3.64026 0
M  V30 23062 H 2232.38 2.67034 7.25198 0
M  V30 23063 H 2230.73 2.39498 6.5243 0
M  V30 23064 H 2233.92 1.33771 4.48579 0
M  V30 23065 H 2234.09 2.09253 6.13284 0
M  V30 23066 N 2227.5 -1.54768 0.297442 0
M  V30 23067 C 2228.91 -1.85669 -0.195914 0
M  V30 23068 C 2229.26 -1.2194 -1.53704 0
M  V30 23069 O 2228.38 -0.515791 -2.10163 0
M  V30 23070 C 2228.98 -3.36858 -0.362259 0
M  V30 23071 C 2227.54 -3.67804 -0.799836 0
M  V30 23072 C 2226.68 -2.77141 0.0939065 0
M  V30 23073 H 2229.64 -1.49989 0.518565 0
M  V30 23074 H 2229.66 -3.61169 -1.19739 0
M  V30 23075 H 2229.17 -3.83212 0.613988 0
M  V30 23076 H 2227.27 -3.26964 -1.78676 0
M  V30 23077 H 2227.38 -4.75049 -0.62169 0
M  V30 23078 H 2225.75 -2.51109 -0.42621 0
M  V30 23079 H 2226.53 -3.26316 1.06644 0
M  V30 23080 N 2228.97 -0.0251005 -1.5758 0
M  V30 23081 C 2230.39 0.514292 -1.79477 0
M  V30 23082 C 2230.74 1.72489 -0.934987 0
M  V30 23083 O 2229.86 2.15918 -0.144283 0
M  V30 23084 C 2230.46 0.939785 -3.25505 0
M  V30 23085 C 2229.02 1.42432 -3.48411 0
M  V30 23086 C 2228.16 0.387152 -2.74584 0
M  V30 23087 H 2231.11 -0.251157 -1.567 0
M  V30 23088 H 2231.13 1.80439 -3.34996 0
M  V30 23089 H 2230.65 0.0584946 -3.88056 0
M  V30 23090 H 2228.75 2.32567 -2.91107 0
M  V30 23091 H 2228.86 1.43447 -4.57121 0
M  V30 23092 H 2227.22 0.854367 -2.39943 0
M  V30 23093 H 2228.01 -0.485603 -3.39848 0
M  V30 23094 N 2230.45 1.55637 0.247999 0
M  V30 23095 C 2231.7 1.76619 0.974103 0
M  V30 23096 C 2232.01 0.588829 1.86527 0
M  V30 23097 O 2233.22 0.681641 2.62804 0
M  V30 23098 C 2231.68 3.12682 1.78207 0
M  V30 23099 C 2231.28 4.38063 0.938353 0
M  V30 23100 C 2233.03 3.43004 2.50098 0
M  V30 23101 C 2230.94 5.65158 1.74215 0
M  V30 23102 H 2229.87 0.658411 0.367438 0
M  V30 23103 H 2232.52 1.82068 0.228808 0
M  V30 23104 H 2230.9 3.01337 2.56928 0
M  V30 23105 H 2232.07 4.60393 0.193554 0
M  V30 23106 H 2230.39 4.15068 0.332832 0
M  V30 23107 H 2232.98 4.35176 3.10687 0
M  V30 23108 H 2233.33 2.64277 3.21657 0
M  V30 23109 H 2233.86 3.55559 1.78388 0
M  V30 23110 H 2230.6 6.46703 1.07031 0
M  V30 23111 H 2230.12 5.46931 2.46226 0
M  V30 23112 H 2231.8 6.04374 2.30956 0
M  V30 23113 N 2231.93 -0.513613 1.48996 0
M  V30 23114 C 2233.18 -1.26507 1.57095 0
M  V30 23115 C 2233.49 -1.93903 0.257126 0
M  V30 23116 O 2234.7 -2.70635 0.216526 0
M  V30 23117 C 2233.16 -2.29633 2.77122 0
M  V30 23118 C 2232.76 -1.68234 4.15212 0
M  V30 23119 C 2234.51 -3.05686 2.94544 0
M  V30 23120 C 2232.41 -2.69396 5.26478 0
M  V30 23121 H 2231.34 -0.475843 0.584884 0
M  V30 23122 H 2234 -0.540456 1.75361 0
M  V30 23123 H 2232.38 -3.05202 2.52324 0
M  V30 23124 H 2233.55 -0.987426 4.50096 0
M  V30 23125 H 2231.87 -1.04616 4.03044 0
M  V30 23126 H 2234.46 -3.81313 3.74839 0
M  V30 23127 H 2234.81 -3.62541 2.04621 0
M  V30 23128 H 2235.34 -2.37232 3.19321 0
M  V30 23129 H 2232.08 -2.1734 6.1842 0
M  V30 23130 H 2231.6 -3.37166 4.96064 0
M  V30 23131 H 2233.28 -3.32069 5.55283 0
M  V30 23132 N 2233.41 -1.37859 -0.763727 0
M  V30 23133 C 2234.69 -1.24037 -1.51242 0
M  V30 23134 C 2235.07 0.162612 -2.10473 0
M  V30 23135 O 2234.41 1.17109 -1.96208 0
M  V30 23136 C 2234.62 -2.34266 -2.5869 0
M  V30 23137 C 2235.97 -2.72199 -3.25873 0
M  V30 23138 O 2237 -2.33502 -2.68989 0
M  V30 23139 O 2235.86 -3.38894 -4.28734 0
M  V30 23140 H 2232.95 -0.484474 -0.670234 0
M  V30 23141 H 2235.5 -1.4966 -0.800005 0
M  V30 23142 H 2234.27 -3.28184 -2.13099 0
M  V30 23143 H 2233.89 -2.10152 -3.37523 0
M  V30 23144 N 2234.89 0.990791 -1.22561 0
M  V30 23145 C 2235.85 2.06288 -0.998899 0
M  V30 23146 C 2236.85 1.60761 0.0354551 0
M  V30 23147 O 2238.04 1.7301 -0.203261 0
M  V30 23148 C 2235.17 3.37075 -0.509263 0
M  V30 23149 H 2236.37 2.27833 -1.95018 0
M  V30 23150 H 2233.92 1.16267 -1.04459 0
M  V30 23151 H 2234.65 3.21215 0.446279 0
M  V30 23152 H 2234.44 3.71455 -1.25554 0
M  V30 23153 H 2235.93 4.15949 -0.370961 0
M  V30 23154 N 2236.37 1.03564 1.18795 0
M  V30 23155 C 2237.78 0.764706 1.70321 0
M  V30 23156 C 2238.13 -0.714964 1.82709 0
M  V30 23157 O 2237.25 -1.55687 1.50302 0
M  V30 23158 C 2237.85 1.38151 3.09354 0
M  V30 23159 C 2236.41 1.15901 3.58112 0
M  V30 23160 C 2235.55 1.47534 2.34796 0
M  V30 23161 H 2238.5 1.2027 1.03541 0
M  V30 23162 H 2238.53 0.782042 3.72377 0
M  V30 23163 H 2238.04 2.45842 3.00305 0
M  V30 23164 H 2236.14 0.10061 3.72464 0
M  V30 23165 H 2236.25 1.85248 4.41837 0
M  V30 23166 H 2234.62 0.894871 2.38462 0
M  V30 23167 H 2235.4 2.56323 2.28371 0
M  V30 23168 N 2237.84 -1.34926 0.814413 0
M  V30 23169 C 2238.81 -2.27984 0.235799 0
M  V30 23170 C 2239.81 -1.49922 -0.581385 0
M  V30 23171 O 2241 -1.69575 -0.398728 0
M  V30 23172 C 2238.13 -3.34244 -0.670374 0
M  V30 23173 H 2239.32 -2.80669 1.05664 0
M  V30 23174 H 2236.87 -1.44914 0.585639 0
M  V30 23175 H 2237.61 -2.86758 -1.51461 0
M  V30 23176 H 2237.39 -3.92006 -0.0860133 0
M  V30 23177 H 2238.88 -4.03678 -1.06928 0
M  V30 23178 N 2239.32 -0.56861 -1.46985 0
M  V30 23179 C 2240.25 0.160712 -2.32946 0
M  V30 23180 C 2241.23 0.897605 -1.44489 0
M  V30 23181 O 2242.42 0.875836 -1.73328 0
M  V30 23182 C 2239.55 1.18397 -3.26496 0
M  V30 23183 C 2238.5 0.56282 -4.24283 0
M  V30 23184 C 2237.83 1.69154 -5.07239 0
M  V30 23185 C 2239.13 -0.490853 -5.19988 0
M  V30 23186 H 2240.82 -0.556968 -2.94174 0
M  V30 23187 H 2238.37 -0.269295 -1.4146 0
M  V30 23188 H 2240.32 1.70244 -3.8548 0
M  V30 23189 H 2239.04 1.93174 -2.63346 0
M  V30 23190 H 2237.7 0.0655519 -3.66541 0
M  V30 23191 H 2237.35 2.42863 -4.40485 0
M  V30 23192 H 2237.05 1.28164 -5.73452 0
M  V30 23193 H 2238.58 2.21304 -5.69084 0
M  V30 23194 H 2239.99 -0.0580055 -5.73271 0
M  V30 23195 H 2238.39 -0.820269 -5.94467 0
M  V30 23196 H 2239.46 -1.38248 -4.64775 0
M  V30 23197 N 2240.8 1.54608 -0.305646 0
M  V30 23198 C 2241.76 2.22365 0.555551 0
M  V30 23199 C 2242.76 1.21121 1.05766 0
M  V30 23200 O 2243.95 1.45824 0.952946 0
M  V30 23201 C 2241.08 2.91367 1.76969 0
M  V30 23202 H 2242.28 2.99878 -0.0365099 0
M  V30 23203 H 2239.83 1.56198 -0.0565281 0
M  V30 23204 H 2240.57 2.17945 2.40147 0
M  V30 23205 H 2240.35 3.6559 1.41726 0
M  V30 23206 H 2241.84 3.43043 2.38142 0
M  V30 23207 N 2242.28 0.033457 1.57564 0
M  V30 23208 C 2243.21 -0.945228 2.13513 0
M  V30 23209 C 2244.19 -1.33642 1.05233 0
M  V30 23210 O 2245.37 -1.41427 1.33087 0
M  V30 23211 C 2242.5 -2.22611 2.66574 0
M  V30 23212 C 2241.46 -1.97554 3.79679 0
M  V30 23213 C 2240.78 -3.31945 4.19186 0
M  V30 23214 C 2242.08 -1.31126 5.05572 0
M  V30 23215 H 2243.78 -0.479273 2.95539 0
M  V30 23216 H 2241.32 -0.22909 1.42166 0
M  V30 23217 H 2243.28 -2.91461 3.04349 0
M  V30 23218 H 2242 -2.7138 1.81715 0
M  V30 23219 H 2240.66 -1.31121 3.42349 0
M  V30 23220 H 2240.31 -3.78481 3.31302 0
M  V30 23221 H 2240.01 -3.15983 4.95407 0
M  V30 23222 H 2241.53 -4.02055 4.59548 0
M  V30 23223 H 2242.95 -1.89982 5.40906 0
M  V30 23224 H 2241.34 -1.25548 5.8682 0
M  V30 23225 H 2242.41 -0.284809 4.84063 0
M  V30 23226 N 2243.76 -1.55766 -0.239741 0
M  V30 23227 C 2244.72 -1.90105 -1.28034 0
M  V30 23228 C 2245.72 -0.77808 -1.40722 0
M  V30 23229 O 2246.91 -1.04601 -1.39299 0
M  V30 23230 C 2244.04 -2.13581 -2.65699 0
M  V30 23231 H 2245.23 -2.83158 -0.987998 0
M  V30 23232 H 2242.79 -1.48768 -0.479356 0
M  V30 23233 H 2243.52 -1.2302 -3.00061 0
M  V30 23234 H 2243.31 -2.95374 -2.5787 0
M  V30 23235 H 2244.8 -2.41307 -3.40823 0
M  V30 23236 N 2245.23 0.505704 -1.49266 0
M  V30 23237 C 2246.17 1.62434 -1.61702 0
M  V30 23238 C 2247.18 1.54933 -0.499952 0
M  V30 23239 O 2248.37 1.60951 -0.771813 0
M  V30 23240 C 2245.47 3.01204 -1.55335 0
M  V30 23241 C 2244.64 3.33938 -2.82496 0
M  V30 23242 C 2243.7 4.52098 -2.69246 0
M  V30 23243 O 2242.73 4.54114 -3.43175 0
M  V30 23244 N 2243.93 5.51732 -1.80477 0
M  V30 23245 H 2246.69 1.52195 -2.5818 0
M  V30 23246 H 2244.25 0.693485 -1.46296 0
M  V30 23247 H 2246.25 3.78164 -1.44132 0
M  V30 23248 H 2244.82 3.05394 -0.66735 0
M  V30 23249 H 2244.04 2.45921 -3.08085 0
M  V30 23250 H 2245.32 3.52604 -3.66808 0
M  V30 23251 H 2244.72 5.52899 -1.19662 0
M  V30 23252 H 2243.28 6.27812 -1.75199 0
M  V30 23253 N 2246.71 1.38262 0.756405 0
M  V30 23254 C 2247.66 1.35264 1.87009 0
M  V30 23255 C 2248.63 0.215645 1.64694 0
M  V30 23256 O 2249.81 0.407432 1.86399 0
M  V30 23257 C 2246.95 1.18073 3.24273 0
M  V30 23258 C 2246.07 2.41136 3.58438 0
M  V30 23259 C 2245.2 2.16697 4.8499 0
M  V30 23260 C 2244.24 3.35546 5.11933 0
M  V30 23261 N 2243.38 3.10561 6.2968 0
M  V30 23262 H 2248.22 2.30475 1.88906 0
M  V30 23263 H 2245.76 1.1451 0.923353 0
M  V30 23264 H 2247.71 1.06123 4.03477 0
M  V30 23265 H 2246.34 0.26503 3.2171 0
M  V30 23266 H 2245.4 2.63769 2.74099 0
M  V30 23267 H 2246.71 3.29724 3.74278 0
M  V30 23268 H 2245.86 2.01867 5.72132 0
M  V30 23269 H 2244.6 1.25471 4.71284 0
M  V30 23270 H 2243.61 3.50898 4.23262 0
M  V30 23271 H 2244.83 4.27645 5.27539 0
M  V30 23272 H 2242.78 2.21978 6.17302 0
M  V30 23273 H 2242.69 3.92697 6.46007 0
M  V30 23274 H 2243.96 2.99379 7.19717 0
M  V30 23275 N 2248.19 -0.984277 1.23084 0
M  V30 23276 C 2249.12 -2.09409 1.03296 0
M  V30 23277 C 2250.1 -1.7003 -0.0488931 0
M  V30 23278 O 2251.29 -1.93859 0.115001 0
M  V30 23279 C 2248.42 -3.41735 0.619215 0
M  V30 23280 C 2247.37 -3.95001 1.64798 0
M  V30 23281 C 2246.7 -5.23476 1.08979 0
M  V30 23282 C 2248 -4.24708 3.04007 0
M  V30 23283 H 2249.69 -2.26222 1.96123 0
M  V30 23284 H 2247.24 -1.0871 0.944363 0
M  V30 23285 H 2249.19 -4.18795 0.467851 0
M  V30 23286 H 2247.91 -3.24776 -0.344729 0
M  V30 23287 H 2246.57 -3.20082 1.78726 0
M  V30 23288 H 2246.22 -5.02864 0.116948 0
M  V30 23289 H 2245.92 -5.60082 1.77714 0
M  V30 23290 H 2247.44 -6.03161 0.950199 0
M  V30 23291 H 2248.86 -4.92532 2.93402 0
M  V30 23292 H 2247.26 -4.72506 3.69944 0
M  V30 23293 H 2248.33 -3.32135 3.5329 0
M  V30 23294 N 2249.67 -1.04192 -1.18244 0
M  V30 23295 C 2250.63 -0.638491 -2.20127 0
M  V30 23296 C 2251.63 0.304777 -1.57885 0
M  V30 23297 O 2252.82 0.0900063 -1.73967 0
M  V30 23298 C 2249.95 0.0637152 -3.4084 0
M  V30 23299 H 2251.15 -1.54012 -2.57333 0
M  V30 23300 H 2248.7 -0.834621 -1.32151 0
M  V30 23301 H 2249.43 0.979081 -3.09167 0
M  V30 23302 H 2249.22 -0.614266 -3.87259 0
M  V30 23303 H 2250.71 0.332439 -4.16275 0
M  V30 23304 N 2251.15 1.34492 -0.821557 0
M  V30 23305 C 2252.06 2.33324 -0.244396 0
M  V30 23306 C 2253.07 1.6256 0.620499 0
M  V30 23307 O 2254.25 1.94336 0.52872 0
M  V30 23308 C 2251.31 3.41724 0.585308 0
M  V30 23309 C 2250.37 4.28238 -0.301827 0
M  V30 23310 C 2249.61 5.31461 0.488372 0
M  V30 23311 O 2249.83 5.43794 1.72177 0
M  V30 23312 O 2248.76 6.01763 -0.128586 0
M  V30 23313 H 2252.59 2.84513 -1.06236 0
M  V30 23314 H 2250.18 1.37527 -0.583669 0
M  V30 23315 H 2252.06 4.07918 1.0574 0
M  V30 23316 H 2250.73 2.9278 1.38063 0
M  V30 23317 H 2249.64 3.64971 -0.821379 0
M  V30 23318 H 2250.97 4.80618 -1.06147 0
M  V30 23319 N 2252.62 0.576397 1.46681 0
M  V30 23320 C 2253.59 -0.150199 2.28707 0
M  V30 23321 C 2254.59 -0.82477 1.38037 0
M  V30 23322 O 2255.78 -0.677691 1.60477 0
M  V30 23323 C 2252.91 -1.22187 3.1825 0
M  V30 23324 H 2254.1 0.570573 2.94422 0
M  V30 23325 H 2251.66 0.334105 1.52687 0
M  V30 23326 H 2252.39 -1.97442 2.57269 0
M  V30 23327 H 2252.18 -0.742744 3.85001 0
M  V30 23328 H 2253.67 -1.73166 3.80004 0
M  V30 23329 N 2254.1 -1.54444 0.313841 0
M  V30 23330 C 2255.35 -1.99993 -0.291064 0
M  V30 23331 C 2255.67 -1.20369 -1.53416 0
M  V30 23332 O 2254.94 -0.302961 -1.93543 0
M  V30 23333 H 2253.52 -0.738776 -0.110539 0
M  V30 23334 H 2256.18 -1.90139 0.428139 0
M  V30 23335 H 2255.28 -3.0714 -0.554214 0
M  V30 23336 N 2255.58 -0.0418125 -1.57545 0
M  V30 23337 C 2256.54 0.920893 -2.09886 0
M  V30 23338 C 2257.54 1.24595 -1.0165 0
M  V30 23339 O 2258.73 1.18418 -1.27761 0
M  V30 23340 C 2255.87 2.23363 -2.57531 0
M  V30 23341 H 2257.06 0.467329 -2.96236 0
M  V30 23342 H 2254.61 0.20644 -1.54931 0
M  V30 23343 H 2255.35 2.7332 -1.74547 0
M  V30 23344 H 2255.13 2.01077 -3.36616 0
M  V30 23345 H 2256.62 2.9234 -2.98206 0
M  V30 23346 N 2257.06 1.55891 0.231477 0
M  V30 23347 C 2258.47 1.4866 0.580722 0
M  V30 23348 C 2258.67 0.735013 1.87616 0
M  V30 23349 O 2257.73 0.27063 2.51045 0
M  V30 23350 C 2259.04 2.9316 0.669151 0
M  V30 23351 C 2260.59 3.03622 0.760445 0
M  V30 23352 C 2261.07 4.4946 0.880304 0
M  V30 23353 N 2262.56 4.53462 0.944781 0
M  V30 23354 C 2263.29 5.63572 1.05706 0
M  V30 23355 N 2262.79 6.83458 1.13391 0
M  V30 23356 N 2264.58 5.51402 1.09142 0
M  V30 23357 H 2256.73 2.03188 -0.618731 0
M  V30 23358 H 2259 0.923124 -0.215744 0
M  V30 23359 H 2258.7 3.51055 -0.212966 0
M  V30 23360 H 2258.58 3.44508 1.53604 0
M  V30 23361 H 2260.96 2.45798 1.63301 0
M  V30 23362 H 2261.04 2.5546 -0.131909 0
M  V30 23363 H 2260.69 5.07899 0.0122391 0
M  V30 23364 H 2260.62 4.95319 1.78793 0
M  V30 23365 H 2263.11 3.67122 0.896111 0
M  V30 23366 H 2263.42 7.63124 1.21908 0
M  V30 23367 H 2261.77 6.86188 1.10321 0
M  V30 23368 H 2264.96 4.56673 1.02797 0
M  V30 23369 H 2265.13 6.37249 1.17547 0
M  V30 23370 N 2258.54 -0.497781 1.49532 0
M  V30 23371 C 2259.78 -1.26184 1.60801 0
M  V30 23372 C 2260.14 -1.89802 0.28966 0
M  V30 23373 O 2261.34 -2.67363 0.277559 0
M  V30 23374 C 2259.61 -2.29793 2.73733 0
M  V30 23375 S 2261.17 -3.15494 3.04973 0
M  V30 23376 H 2257.99 -0.428788 0.567152 0
M  V30 23377 H 2260.59 -0.563444 1.87205 0
M  V30 23378 H 2259.3 -1.81591 3.68039 0
M  V30 23379 H 2258.83 -3.04297 2.49333 0
M  V30 23380 H 2260.84 -4.30503 2.46743 0
M  V30 23381 N 2260.01 -1.38661 -0.749062 0
M  V30 23382 C 2261.29 -1.25634 -1.49918 0
M  V30 23383 C 2261.67 0.14028 -2.10633 0
M  V30 23384 O 2261.02 1.15021 -1.97439 0
M  V30 23385 C 2261.23 -2.36997 -2.56191 0
M  V30 23386 C 2262.58 -2.7564 -3.22967 0
M  V30 23387 O 2263.6 -2.36342 -2.66498 0
M  V30 23388 O 2262.46 -3.43423 -4.25116 0
M  V30 23389 H 2259.55 -0.491555 -0.665058 0
M  V30 23390 H 2262.1 -1.505 -0.784086 0
M  V30 23391 H 2260.87 -3.30425 -2.09606 0
M  V30 23392 H 2260.5 -2.1372 -3.35275 0
M  V30 23393 N 2261.49 0.977736 -1.23605 0
M  V30 23394 C 2262.74 1.71939 -1.06974 0
M  V30 23395 C 2263.07 1.90489 0.392975 0
M  V30 23396 O 2262.32 1.45642 1.30717 0
M  V30 23397 C 2262.62 3.11996 -1.74336 0
M  V30 23398 C 2262.29 3.13317 -3.24258 0
M  V30 23399 C 2260.95 3.13385 -3.65162 0
M  V30 23400 C 2263.3 3.08425 -4.20147 0
M  V30 23401 C 2260.63 3.06281 -5.00409 0
M  V30 23402 C 2262.98 3.02863 -5.55389 0
M  V30 23403 C 2261.65 3.01254 -5.95653 0
M  V30 23404 H 2260.92 0.629168 -0.391444 0
M  V30 23405 H 2263.56 1.144 -1.53574 0
M  V30 23406 H 2261.87 3.72938 -1.20102 0
M  V30 23407 H 2263.57 3.68155 -1.58943 0
M  V30 23408 H 2260.16 3.14024 -2.91697 0
M  V30 23409 H 2264.34 3.07511 -3.89552 0
M  V30 23410 H 2259.6 3.0339 -5.30815 0
M  V30 23411 H 2263.77 2.98035 -6.29403 0
M  V30 23412 H 2261.4 2.95504 -7.00415 0
M  V30 23413 N 2262.97 1.04818 1.1769 0
M  V30 23414 C 2263.93 0.650156 2.19785 0
M  V30 23415 C 2264.93 -0.296399 1.58045 0
M  V30 23416 O 2266.12 -0.0807791 1.74013 0
M  V30 23417 C 2263.26 -0.0456387 3.40869 0
M  V30 23418 H 2264.45 1.55374 2.56513 0
M  V30 23419 H 2262 0.841617 1.31706 0
M  V30 23420 H 2262.74 -0.962672 3.09682 0
M  V30 23421 H 2262.52 0.634795 3.86927 0
M  V30 23422 H 2264.01 -0.310358 4.16445 0
M  V30 23423 N 2264.45 -1.34055 0.828678 0
M  V30 23424 C 2265.38 -2.3194 0.269483 0
M  V30 23425 C 2266.36 -1.58507 -0.617219 0
M  V30 23426 O 2267.55 -1.86457 -0.542898 0
M  V30 23427 C 2264.68 -3.42678 -0.564733 0
M  V30 23428 C 2263.63 -4.27407 0.225316 0
M  V30 23429 C 2262.96 -5.29666 -0.732007 0
M  V30 23430 C 2264.26 -5.02151 1.43672 0
M  V30 23431 H 2265.95 -2.78958 1.08733 0
M  V30 23432 H 2263.5 -1.34116 0.524307 0
M  V30 23433 H 2265.45 -4.10175 -0.966161 0
M  V30 23434 H 2264.17 -2.94323 -1.41569 0
M  V30 23435 H 2262.83 -3.6152 0.608181 0
M  V30 23436 H 2262.48 -4.77571 -1.57908 0
M  V30 23437 H 2262.18 -5.87233 -0.207566 0
M  V30 23438 H 2263.7 -6.00031 -1.13117 0
M  V30 23439 H 2265.12 -5.62471 1.109 0
M  V30 23440 H 2263.51 -5.6932 1.89721 0
M  V30 23441 H 2264.58 -4.31513 2.21189 0
M  V30 23442 N 2265.93 -0.584167 -1.46374 0
M  V30 23443 C 2267.17 -0.070303 -2.02378 0
M  V30 23444 C 2267.5 1.2902 -1.45548 0
M  V30 23445 O 2266.76 1.85917 -0.610999 0
M  V30 23446 C 2267.06 0.0438714 -3.57373 0
M  V30 23447 C 2266.72 -1.24923 -4.3325 0
M  V30 23448 C 2265.38 -1.60349 -4.53698 0
M  V30 23449 C 2267.74 -2.10488 -4.76806 0
M  V30 23450 C 2265.06 -2.81137 -5.14955 0
M  V30 23451 C 2267.42 -3.30503 -5.39398 0
M  V30 23452 C 2266.08 -3.6621 -5.58074 0
M  V30 23453 H 2265.35 -0.0257257 -0.740553 0
M  V30 23454 H 2268 -0.761096 -1.75726 0
M  V30 23455 H 2266.3 0.817801 -3.8317 0
M  V30 23456 H 2268 0.457248 -3.98385 0
M  V30 23457 H 2264.59 -0.963437 -4.17631 0
M  V30 23458 H 2268.77 -1.84422 -4.60763 0
M  V30 23459 H 2264.03 -3.08938 -5.27605 0
M  V30 23460 H 2268.2 -3.97073 -5.72107 0
M  V30 23461 H 2265.83 -4.59896 -6.0531 0
M  V30 23462 N 2267.41 1.54275 -0.322027 0
M  V30 23463 C 2268.34 2.27232 0.537371 0
M  V30 23464 C 2269.32 1.2797 1.12061 0
M  V30 23465 O 2270.5 1.56779 1.14603 0
M  V30 23466 C 2267.63 3.02897 1.69913 0
M  V30 23467 C 2266.59 4.09484 1.24526 0
M  V30 23468 C 2265.91 4.72981 2.49385 0
M  V30 23469 C 2267.21 5.21049 0.361243 0
M  V30 23470 H 2268.91 2.99315 -0.0711932 0
M  V30 23471 H 2266.45 1.43956 -0.0356808 0
M  V30 23472 H 2268.4 3.52666 2.30662 0
M  V30 23473 H 2267.13 2.28429 2.33427 0
M  V30 23474 H 2265.79 3.60597 0.660719 0
M  V30 23475 H 2265.44 3.95129 3.11258 0
M  V30 23476 H 2265.14 5.44979 2.19708 0
M  V30 23477 H 2266.66 5.25523 3.10899 0
M  V30 23478 H 2268.07 5.66584 0.874972 0
M  V30 23479 H 2266.47 5.99894 0.157323 0
M  V30 23480 H 2267.54 4.81069 -0.608304 0
M  V30 23481 N 2268.88 0.0501669 1.5752 0
M  V30 23482 C 2270.13 -0.622608 1.92271 0
M  V30 23483 C 2270.45 -1.71442 0.929113 0
M  V30 23484 O 2269.72 -1.95883 -0.0261842 0
M  V30 23485 H 2268.3 -0.232968 0.709743 0
M  V30 23486 H 2270.96 0.102932 1.94628 0
M  V30 23487 H 2270.06 -1.06186 2.93481 0
M  V30 23488 N 2270.36 -1.56011 -0.223207 0
M  V30 23489 C 2271.32 -1.91452 -1.26011 0
M  V30 23490 C 2272.32 -0.792961 -1.39888 0
M  V30 23491 O 2273.51 -1.06073 -1.38182 0
M  V30 23492 C 2270.65 -2.16388 -2.63418 0
M  V30 23493 H 2271.84 -2.8419 -0.95791 0
M  V30 23494 H 2269.39 -1.49268 -0.46355 0
M  V30 23495 H 2270.13 -1.26196 -2.98739 0
M  V30 23496 H 2269.91 -2.98092 -2.54723 0
M  V30 23497 H 2271.4 -2.44909 -3.38245 0
M  V30 23498 N 2271.84 0.489844 -1.49794 0
M  V30 23499 C 2273.06 1.27169 -1.63838 0
M  V30 23500 C 2273.49 1.8546 -0.314053 0
M  V30 23501 O 2272.85 1.664 0.719774 0
M  V30 23502 C 2272.9 2.36973 -2.71801 0
M  V30 23503 O 2272 3.41124 -2.3175 0
M  V30 23504 H 2271.34 0.37495 -0.548004 0
M  V30 23505 H 2273.87 0.585157 -1.96054 0
M  V30 23506 H 2273.88 2.8257 -2.9431 0
M  V30 23507 H 2272.56 1.93915 -3.67927 0
M  V30 23508 H 2271.13 3.01369 -2.19616 0
M  V30 23509 N 2273.32 1.39056 0.741698 0
M  V30 23510 C 2274.54 1.39357 1.53605 0
M  V30 23511 C 2274.97 -0.0116574 1.88096 0
M  V30 23512 O 2274.33 -0.996898 1.51432 0
M  V30 23513 C 2274.37 2.26687 2.80438 0
M  V30 23514 O 2273.48 1.69215 3.76085 0
M  V30 23515 H 2272.82 0.474843 0.464134 0
M  V30 23516 H 2275.35 1.82968 0.915633 0
M  V30 23517 H 2275.36 2.40965 3.29241 0
M  V30 23518 H 2274.03 3.28814 2.54665 0
M  V30 23519 H 2272.61 1.64144 3.3483 0
M  V30 23520 N 2274.8 -0.971167 1.24121 0
M  V30 23521 C 2275.71 -2.09915 1.04751 0
M  V30 23522 C 2276.72 -1.73997 -0.0106856 0
M  V30 23523 O 2277.9 -2.00532 0.186749 0
M  V30 23524 C 2274.96 -3.40535 0.650888 0
M  V30 23525 C 2274.02 -3.90423 1.78517 0
M  V30 23526 C 2273.26 -5.14809 1.40738 0
M  V30 23527 O 2273.48 -5.69633 0.29567 0
M  V30 23528 O 2272.41 -5.58995 2.23178 0
M  V30 23529 H 2276.24 -2.29151 1.99308 0
M  V30 23530 H 2273.82 -1.08305 1.0291 0
M  V30 23531 H 2275.71 -4.19085 0.441066 0
M  V30 23532 H 2274.38 -3.22609 -0.265592 0
M  V30 23533 H 2273.29 -3.1295 2.04972 0
M  V30 23534 H 2274.62 -4.1282 2.6803 0
M  V30 23535 N 2276.27 -1.05441 -1.17133 0
M  V30 23536 C 2277.22 -0.65155 -2.23288 0
M  V30 23537 C 2278.22 0.328382 -1.66187 0
M  V30 23538 O 2279.42 0.194174 -1.7895 0
M  V30 23539 H 2275.8 -0.192536 -0.726935 0
M  V30 23540 H 2277.77 -1.55694 -2.54562 0
M  V30 23541 C 2276.52 -0.0449047 -3.47671 0
M  V30 23542 H 2275.84 -0.790029 -3.91917 0
M  V30 23543 H 2277.28 0.199566 -4.2353 0
M  V30 23544 C 2275.74 1.20912 -3.14455 0
M  V30 23545 O 2276.27 2.29819 -3.29463 0
M  V30 23546 N 2274.48 1.10774 -2.68659 0
M  V30 23547 H 2274.02 0.221481 -2.56646 0
M  V30 23548 H 2273.98 1.94766 -2.46807 0
M  V30 23549 N 2277.75 1.33613 -0.835776 0
M  V30 23550 C 2278.72 2.2758 -0.27204 0
M  V30 23551 C 2279.72 1.50828 0.55746 0
M  V30 23552 O 2280.91 1.70188 0.3717 0
M  V30 23553 C 2278.04 3.35268 0.617114 0
M  V30 23554 H 2279.23 2.78952 -1.10116 0
M  V30 23555 H 2276.78 1.43964 -0.60862 0
M  V30 23556 H 2277.52 2.89131 1.46879 0
M  V30 23557 H 2277.3 3.92093 0.0236377 0
M  V30 23558 H 2278.79 4.05328 1.00493 0
M  V30 23559 N 2279.23 0.591922 1.46062 0
M  V30 23560 C 2280.48 0.0808746 2.01938 0
M  V30 23561 C 2280.8 -1.28722 1.46477 0
M  V30 23562 O 2280.07 -1.84697 0.652976 0
M  V30 23563 H 2278.65 0.0269069 0.746515 0
M  V30 23564 H 2281.31 0.769783 1.79054 0
M  V30 23565 H 2280.41 0.0188126 3.12094 0
M  V30 23566 N 2280.71 -1.54102 0.330204 0
M  V30 23567 C 2281.94 -2.05102 -0.272143 0
M  V30 23568 C 2282.35 -1.20597 -1.45264 0
M  V30 23569 O 2281.71 -0.238175 -1.80939 0
M  V30 23570 C 2281.76 -3.54655 -0.700168 0
M  V30 23571 O 2281.48 -4.35951 0.433378 0
M  V30 23572 C 2282.98 -4.21773 -1.36463 0
M  V30 23573 H 2280.2 -0.66875 -0.0549041 0
M  V30 23574 H 2282.75 -1.98827 0.47832 0
M  V30 23575 H 2280.9 -3.61195 -1.40059 0
M  V30 23576 H 2281.31 -5.24414 0.0948461 0
M  V30 23577 H 2282.79 -5.27846 -1.615 0
M  V30 23578 H 2283.27 -3.73296 -2.31402 0
M  V30 23579 H 2283.87 -4.19389 -0.706601 0
M  V30 23580 N 2282.19 -0.0585199 -1.57491 0
M  V30 23581 C 2283.12 0.91114 -2.1499 0
M  V30 23582 C 2284.1 1.3195 -1.07346 0
M  V30 23583 O 2285.28 1.39292 -1.3532 0
M  V30 23584 C 2282.41 2.18342 -2.70082 0
M  V30 23585 C 2281.37 1.91489 -3.82774 0
M  V30 23586 C 2280.69 3.25234 -4.24414 0
M  V30 23587 C 2281.99 1.23066 -5.07594 0
M  V30 23588 H 2283.69 0.432194 -2.96264 0
M  V30 23589 H 2281.23 0.206444 -1.42512 0
M  V30 23590 H 2283.19 2.86582 -3.08948 0
M  V30 23591 H 2281.91 2.68455 -1.86009 0
M  V30 23592 H 2280.57 1.25658 -3.44392 0
M  V30 23593 H 2280.22 3.73162 -3.37282 0
M  V30 23594 H 2279.92 3.08062 -5.00371 0
M  V30 23595 H 2281.44 3.94693 -4.65886 0
M  V30 23596 H 2282.85 1.81353 -5.4386 0
M  V30 23597 H 2281.25 1.16197 -5.88743 0
M  V30 23598 H 2282.32 0.207762 -4.84455 0
M  V30 23599 N 2283.66 1.56128 0.21493 0
M  V30 23600 C 2284.91 1.79093 0.936487 0
M  V30 23601 C 2285.23 0.62818 1.84605 0
M  V30 23602 O 2284.5 -0.354586 1.92664 0
M  V30 23603 H 2283.08 0.660572 0.348788 0
M  V30 23604 H 2285.75 1.93595 0.225196 0
M  V30 23605 H 2284.84 2.71495 1.53938 0
M  V30 23606 N 2285.14 -0.481893 1.50052 0
M  V30 23607 C 2286.37 -1.25829 1.64239 0
M  V30 23608 C 2286.79 -1.86045 0.321369 0
M  V30 23609 O 2286.14 -1.6873 -0.695448 0
M  V30 23610 C 2286.19 -2.37482 2.72552 0
M  V30 23611 O 2285.91 -1.79738 3.99532 0
M  V30 23612 C 2287.42 -3.28541 2.97616 0
M  V30 23613 H 2284.64 -0.380947 0.552377 0
M  V30 23614 H 2287.18 -0.576433 1.96208 0
M  V30 23615 H 2285.33 -3.01463 2.43308 0
M  V30 23616 H 2285.75 -2.53182 4.59347 0
M  V30 23617 H 2287.22 -4.0312 3.77092 0
M  V30 23618 H 2287.7 -3.8668 2.08266 0
M  V30 23619 H 2288.31 -2.70308 3.2835 0
M  V30 23620 N 2286.62 -1.39448 -0.734313 0
M  V30 23621 C 2287.87 -1.36911 -1.4961 0
M  V30 23622 C 2288.2 0.0347488 -1.94169 0
M  V30 23623 O 2287.47 0.999818 -1.66835 0
M  V30 23624 C 2287.76 -2.34208 -2.7353 0
M  V30 23625 C 2287.61 -3.83538 -2.34986 0
M  V30 23626 C 2288.93 -2.29324 -3.75631 0
M  V30 23627 H 2286.05 -0.498638 -0.542705 0
M  V30 23628 H 2288.69 -1.70444 -0.839567 0
M  V30 23629 H 2286.84 -2.05742 -3.29549 0
M  V30 23630 H 2288.51 -4.22756 -1.84593 0
M  V30 23631 H 2286.76 -4.00281 -1.67206 0
M  V30 23632 H 2287.43 -4.47105 -3.2373 0
M  V30 23633 H 2289.9 -2.54495 -3.29198 0
M  V30 23634 H 2288.78 -2.9948 -4.60003 0
M  V30 23635 H 2289.04 -1.29849 -4.22601 0
M  V30 23636 N 2288.1 0.964571 -1.24635 0
M  V30 23637 C 2289.06 2.04123 -1.04243 0
M  V30 23638 C 2290.06 1.608 0.00134736 0
M  V30 23639 O 2291.25 1.7254 -0.239913 0
M  V30 23640 C 2288.38 3.35919 -0.580647 0
M  V30 23641 H 2289.58 2.23645 -1.99807 0
M  V30 23642 H 2287.13 1.14026 -1.06901 0
M  V30 23643 H 2287.86 3.22089 0.378044 0
M  V30 23644 H 2287.65 3.68708 -1.33404 0
M  V30 23645 H 2289.14 4.15069 -0.459107 0
M  V30 23646 N 2289.58 1.0606 1.16572 0
M  V30 23647 C 2290.82 0.774373 1.86676 0
M  V30 23648 C 2291.15 -0.701115 1.8196 0
M  V30 23649 O 2290.42 -1.5071 1.25153 0
M  V30 23650 H 2289 0.283461 0.691129 0
M  V30 23651 H 2291.66 1.3416 1.41375 0
M  V30 23652 H 2290.75 1.09716 2.92179 0
M  V30 23653 N 2291.06 -1.33168 0.84285 0
M  V30 23654 C 2292.28 -2.02389 0.453164 0
M  V30 23655 C 2292.71 -1.62981 -0.939077 0
M  V30 23656 O 2292.06 -0.824429 -1.61471 0
M  V30 23657 C 2292.11 -3.55804 0.586156 0
M  V30 23658 O 2291.22 -4.1059 -0.385957 0
M  V30 23659 H 2290.56 -0.63809 0.183675 0
M  V30 23660 H 2293.09 -1.69979 1.13878 0
M  V30 23661 H 2293.1 -4.05292 0.46928 0
M  V30 23662 H 2291.77 -3.8383 1.60147 0
M  V30 23663 H 2290.35 -3.72213 -0.226305 0
M  V30 23664 N 2292.53 -0.599659 -1.45746 0
M  V30 23665 C 2293.5 0.113794 -2.28917 0
M  V30 23666 C 2294.5 0.802705 -1.39332 0
M  V30 23667 O 2295.69 0.652074 -1.61535 0
M  V30 23668 C 2292.82 1.17108 -3.20154 0
M  V30 23669 H 2294.01 -0.617341 -2.93477 0
M  V30 23670 H 2291.56 -0.358354 -1.52136 0
M  V30 23671 H 2292.3 1.93324 -2.60377 0
M  V30 23672 H 2292.08 0.6814 -3.86134 0
M  V30 23673 H 2293.57 1.67098 -3.82711 0
M  V30 23674 N 2294.01 1.53925 -0.338371 0
M  V30 23675 C 2294.97 2.23494 0.50826 0
M  V30 23676 C 2295.97 1.23337 1.03173 0
M  V30 23677 O 2297.16 1.47812 0.9218 0
M  V30 23678 C 2294.3 2.95055 1.70749 0
M  V30 23679 H 2295.49 2.99733 -0.10011 0
M  V30 23680 H 2293.04 1.56043 -0.0896473 0
M  V30 23681 H 2293.78 2.2299 2.3547 0
M  V30 23682 H 2293.56 3.68514 1.33939 0
M  V30 23683 H 2295.05 3.48017 2.30812 0
M  V30 23684 N 2295.49 0.0668712 1.57458 0
M  V30 23685 C 2296.74 -0.60218 1.9292 0
M  V30 23686 C 2297.06 -1.70447 0.947245 0
M  V30 23687 O 2296.33 -1.95899 -0.00540674 0
M  V30 23688 H 2294.91 -0.225428 0.712174 0
M  V30 23689 H 2297.57 0.123569 1.94508 0
M  V30 23690 H 2296.67 -1.03067 2.9459 0
M  V30 23691 N 2296.97 -1.56239 -0.206647 0
M  V30 23692 C 2297.9 -1.96647 -1.25906 0
M  V30 23693 C 2298.88 -0.83676 -1.48096 0
M  V30 23694 O 2300.06 -1.10021 -1.60028 0
M  V30 23695 C 2297.19 -2.29603 -2.60576 0
M  V30 23696 C 2296.15 -3.45204 -2.53018 0
M  V30 23697 C 2295.47 -3.63805 -3.91854 0
M  V30 23698 C 2296.77 -4.79738 -2.06516 0
M  V30 23699 H 2298.47 -2.84807 -0.923319 0
M  V30 23700 H 2296.01 -1.37026 -0.442711 0
M  V30 23701 H 2297.97 -2.56464 -3.34371 0
M  V30 23702 H 2296.69 -1.38312 -2.95867 0
M  V30 23703 H 2295.35 -3.18415 -1.81679 0
M  V30 23704 H 2295 -2.69865 -4.24479 0
M  V30 23705 H 2294.7 -4.41567 -3.87675 0
M  V30 23706 H 2296.22 -3.93031 -4.67289 0
M  V30 23707 H 2297.64 -5.05706 -2.70063 0
M  V30 23708 H 2296.03 -5.60888 -2.13364 0
M  V30 23709 H 2297.1 -4.74095 -1.01793 0
M  V30 23710 N 2298.45 0.473929 -1.50305 0
M  V30 23711 C 2299.39 1.57228 -1.68961 0
M  V30 23712 C 2300.36 1.57386 -0.530927 0
M  V30 23713 O 2301.55 1.7496 -0.761164 0
M  V30 23714 C 2298.69 2.9522 -1.78715 0
M  V30 23715 C 2297.8 3.04872 -3.06067 0
M  V30 23716 C 2296.94 4.33762 -3.06633 0
M  V30 23717 C 2295.97 4.37146 -4.2845 0
M  V30 23718 N 2295.11 5.57503 -4.26773 0
M  V30 23719 H 2299.95 1.40626 -2.62732 0
M  V30 23720 H 2297.49 0.683766 -1.30242 0
M  V30 23721 H 2299.45 3.75239 -1.82351 0
M  V30 23722 H 2298.08 3.10464 -0.88386 0
M  V30 23723 H 2297.13 2.17745 -3.11915 0
M  V30 23724 H 2298.44 3.03233 -3.96045 0
M  V30 23725 H 2297.59 5.22125 -3.08983 0
M  V30 23726 H 2296.33 4.38006 -2.1448 0
M  V30 23727 H 2295.34 3.47181 -4.26316 0
M  V30 23728 H 2296.56 4.34595 -5.21827 0
M  V30 23729 H 2294.51 5.62538 -3.37472 0
M  V30 23730 H 2294.43 5.57592 -5.10516 0
M  V30 23731 H 2295.69 6.47999 -4.33264 0
M  V30 23732 N 2299.92 1.39835 0.726907 0
M  V30 23733 C 2300.85 1.41944 1.85403 0
M  V30 23734 C 2301.83 0.281757 1.6775 0
M  V30 23735 O 2303.02 0.48875 1.87949 0
M  V30 23736 C 2300.15 1.27015 3.2324 0
M  V30 23737 C 2299.1 2.38268 3.55545 0
M  V30 23738 C 2298.43 2.08423 4.92406 0
M  V30 23739 C 2299.73 3.80595 3.57693 0
M  V30 23740 H 2301.42 2.36269 1.83895 0
M  V30 23741 H 2298.97 1.13725 0.883329 0
M  V30 23742 H 2300.92 1.2711 4.01772 0
M  V30 23743 H 2299.65 0.291621 3.25295 0
M  V30 23744 H 2298.31 2.37404 2.79347 0
M  V30 23745 H 2297.95 1.08988 4.9105 0
M  V30 23746 H 2297.65 2.82952 5.14987 0
M  V30 23747 H 2299.18 2.10181 5.73285 0
M  V30 23748 H 2300.59 3.83344 4.26286 0
M  V30 23749 H 2298.99 4.5455 3.91796 0
M  V30 23750 H 2300.06 4.10992 2.5732 0
M  V30 23751 N 2301.4 -0.957948 1.25144 0
M  V30 23752 C 2302.63 -1.73437 1.12264 0
M  V30 23753 C 2303.04 -1.86358 -0.326682 0
M  V30 23754 O 2302.38 -1.35838 -1.23668 0
M  V30 23755 C 2302.44 -3.16781 1.69971 0
M  V30 23756 C 2302.11 -3.273 3.18942 0
M  V30 23757 C 2303.11 -3.11869 4.15973 0
M  V30 23758 C 2300.79 -3.51227 3.59089 0
M  V30 23759 C 2302.78 -3.20207 5.51132 0
M  V30 23760 C 2300.47 -3.59202 4.94386 0
M  V30 23761 C 2301.47 -3.43705 5.90217 0
M  V30 23762 O 2301.16 -3.51355 7.23052 0
M  V30 23763 H 2300.89 -0.550392 0.392486 0
M  V30 23764 H 2303.44 -1.21065 1.65929 0
M  V30 23765 H 2301.67 -3.70501 1.1075 0
M  V30 23766 H 2303.36 -3.76269 1.52238 0
M  V30 23767 H 2304.13 -2.93257 3.86297 0
M  V30 23768 H 2300.01 -3.62351 2.84996 0
M  V30 23769 H 2303.55 -3.08029 6.25911 0
M  V30 23770 H 2299.45 -3.7733 5.23729 0
M  V30 23771 H 2300.22 -3.68007 7.31104 0
M  V30 23772 N 2302.88 -1.06677 -1.16008 0
M  V30 23773 C 2303.81 -0.702346 -2.22687 0
M  V30 23774 C 2304.79 0.307003 -1.67307 0
M  V30 23775 O 2305.98 0.181271 -1.93352 0
M  V30 23776 C 2303.11 -0.092099 -3.47178 0
M  V30 23777 C 2302.06 -1.02785 -4.15475 0
M  V30 23778 C 2301.39 -0.280704 -5.33963 0
M  V30 23779 C 2302.69 -2.35854 -4.66015 0
M  V30 23780 H 2304.38 -1.59423 -2.53426 0
M  V30 23781 H 2301.93 -0.767982 -1.21811 0
M  V30 23782 H 2303.88 0.17474 -4.21038 0
M  V30 23783 H 2302.6 0.834821 -3.1575 0
M  V30 23784 H 2301.26 -1.2795 -3.43547 0
M  V30 23785 H 2300.91 0.649458 -4.9879 0
M  V30 23786 H 2300.61 -0.90436 -5.80599 0
M  V30 23787 H 2302.13 -0.0215033 -6.10596 0
M  V30 23788 H 2303.55 -2.15054 -5.31436 0
M  V30 23789 H 2301.94 -2.93752 -5.23288 0
M  V30 23790 H 2303.01 -2.98648 -3.82018 0
M  V30 23791 N 2304.36 1.32719 -0.8499 0
M  V30 23792 C 2305.31 2.30911 -0.279785 0
M  V30 23793 C 2306.3 1.58635 0.59425 0
M  V30 23794 O 2307.51 1.7341 0.482583 0
M  V30 23795 H 2303.88 0.748568 -0.0717653 0
M  V30 23796 H 2305.85 2.76492 -1.12227 0
M  V30 23797 C 2304.6 3.43774 0.521047 0
M  V30 23798 H 2303.92 3.99547 -0.142211 0
M  V30 23799 H 2305.36 4.14648 0.88562 0
M  V30 23800 C 2303.82 2.90608 1.70437 0
M  V30 23801 O 2304.35 2.87707 2.80335 0
M  V30 23802 N 2302.56 2.4707 1.52987 0
M  V30 23803 H 2302.11 2.49629 0.63587 0
M  V30 23804 H 2302.06 2.11851 2.32307 0
M  V30 23805 N 2305.84 0.60738 1.45426 0
M  V30 23806 C 2306.75 -0.113422 2.34326 0
M  V30 23807 C 2307.76 -0.860591 1.51228 0
M  V30 23808 O 2308.94 -0.818223 1.8403 0
M  V30 23809 C 2306 -1.09838 3.28841 0
M  V30 23810 C 2305.06 -0.353196 4.27845 0
M  V30 23811 C 2304.3 -1.29124 5.17844 0
M  V30 23812 O 2304.52 -2.52904 5.11269 0
M  V30 23813 O 2303.45 -0.788418 5.96714 0
M  V30 23814 H 2307.28 0.617146 2.97363 0
M  V30 23815 H 2304.87 0.367644 1.44806 0
M  V30 23816 H 2306.75 -1.66568 3.87083 0
M  V30 23817 H 2305.42 -1.80998 2.68368 0
M  V30 23818 H 2304.33 0.25656 3.73219 0
M  V30 23819 H 2305.66 0.317909 4.91172 0
M  V30 23820 N 2307.31 -1.53743 0.34653 0
M  V30 23821 C 2308.54 -2.0538 -0.250374 0
M  V30 23822 C 2308.96 -1.22131 -1.43977 0
M  V30 23823 O 2308.31 -0.257353 -1.80676 0
M  V30 23824 C 2308.37 -3.55377 -0.662512 0
M  V30 23825 O 2308.09 -4.35467 0.479592 0
M  V30 23826 C 2309.59 -4.23197 -1.31982 0
M  V30 23827 H 2306.81 -0.669295 -0.047808 0
M  V30 23828 H 2309.35 -1.98309 0.499381 0
M  V30 23829 H 2307.51 -3.62661 -1.36221 0
M  V30 23830 H 2307.92 -5.24284 0.150462 0
M  V30 23831 H 2309.39 -5.2953 -1.55892 0
M  V30 23832 H 2309.87 -3.75729 -2.2743 0
M  V30 23833 H 2310.48 -4.20115 -0.66208 0
M  V30 23834 N 2308.79 -0.0752207 -1.5742 0
M  V30 23835 C 2310.04 0.593112 -1.93619 0
M  V30 23836 C 2310.37 1.69411 -0.955514 0
M  V30 23837 O 2309.62 1.9568 0.0282907 0
M  V30 23838 C 2309.92 1.2062 -3.36431 0
M  V30 23839 C 2309.59 0.230999 -4.50308 0
M  V30 23840 C 2308.25 -0.0372781 -4.81186 0
M  V30 23841 C 2310.6 -0.435979 -5.19373 0
M  V30 23842 C 2307.93 -0.979562 -5.78465 0
M  V30 23843 C 2310.28 -1.36661 -6.17662 0
M  V30 23844 C 2308.95 -1.64332 -6.46955 0
M  V30 23845 H 2308.22 0.217035 -0.708503 0
M  V30 23846 H 2310.86 -0.146826 -1.90936 0
M  V30 23847 H 2309.17 2.02195 -3.35596 0
M  V30 23848 H 2310.86 1.73067 -3.6173 0
M  V30 23849 H 2307.45 0.450282 -4.26228 0
M  V30 23850 H 2311.64 -0.241836 -4.9571 0
M  V30 23851 H 2306.89 -1.20116 -5.99485 0
M  V30 23852 H 2311.07 -1.88936 -6.70281 0
M  V30 23853 H 2308.7 -2.37507 -7.22146 0
M  V30 23854 N 2310.27 1.56347 0.198358 0
M  V30 23855 C 2311.5 1.84893 0.93965 0
M  V30 23856 C 2311.92 0.6584 1.76201 0
M  V30 23857 O 2311.28 -0.39282 1.76993 0
M  V30 23858 C 2311.33 3.11638 1.81422 0
M  V30 23859 O 2310.43 2.91961 2.9126 0
M  V30 23860 H 2309.77 0.608916 0.264796 0
M  V30 23861 H 2312.3 2.03574 0.20466 0
M  V30 23862 H 2312.31 3.42347 2.21952 0
M  V30 23863 H 2310.99 3.9791 1.20997 0
M  V30 23864 H 2309.56 2.72542 2.54509 0
M  V30 23865 N 2311.75 -0.465951 1.50554 0
M  V30 23866 C 2312.66 -1.58904 1.72588 0
M  V30 23867 C 2313.67 -1.62989 0.609138 0
M  V30 23868 O 2314.85 -1.80763 0.888072 0
M  V30 23869 C 2311.92 -2.95088 1.82 0
M  V30 23870 C 2310.98 -3.0135 3.05756 0
M  V30 23871 C 2310.21 -4.31038 3.14709 0
M  V30 23872 O 2310.43 -5.21831 2.30322 0
M  V30 23873 O 2309.37 -4.42997 4.07476 0
M  V30 23874 H 2313.19 -1.43235 2.67801 0
M  V30 23875 H 2310.78 -0.645989 1.34712 0
M  V30 23876 H 2312.66 -3.75963 1.90341 0
M  V30 23877 H 2311.33 -3.10945 0.899714 0
M  V30 23878 H 2310.24 -2.19534 3.02912 0
M  V30 23879 H 2311.57 -2.9043 3.9738 0
M  V30 23880 N 2313.23 -1.40218 -0.719481 0
M  V30 23881 C 2314.16 -1.42925 -1.84647 0
M  V30 23882 C 2315.14 -0.290649 -1.67598 0
M  V30 23883 O 2316.32 -0.49871 -1.87687 0
M  V30 23884 C 2313.45 -1.28728 -3.22562 0
M  V30 23885 C 2312.41 -2.4015 -3.54277 0
M  V30 23886 C 2311.73 -2.11032 -4.91294 0
M  V30 23887 C 2313.03 -3.82487 -3.5567 0
M  V30 23888 H 2314.73 -2.37241 -1.8264 0
M  V30 23889 H 2312.27 -1.14192 -0.877285 0
M  V30 23890 H 2314.23 -1.29239 -4.01093 0
M  V30 23891 H 2312.95 -0.308868 -3.25136 0
M  V30 23892 H 2311.61 -2.38882 -2.78084 0
M  V30 23893 H 2311.26 -1.11591 -4.90466 0
M  V30 23894 H 2310.96 -2.85679 -5.1348 0
M  V30 23895 H 2312.48 -2.13219 -5.72163 0
M  V30 23896 H 2313.89 -3.856 -4.24247 0
M  V30 23897 H 2312.29 -4.56621 -3.8938 0
M  V30 23898 H 2313.36 -4.12351 -2.55137 0
M  V30 23899 N 2314.7 0.951297 -1.25651 0
M  V30 23900 C 2316.12 1.22298 -1.02545 0
M  V30 23901 C 2316.32 1.99871 0.25568 0
M  V30 23902 O 2315.38 2.33228 0.967517 0
M  V30 23903 C 2316.69 1.99411 -2.25068 0
M  V30 23904 C 2318.24 2.12442 -2.29864 0
M  V30 23905 C 2318.71 2.92954 -3.52054 0
M  V30 23906 N 2320.2 3.00532 -3.5247 0
M  V30 23907 C 2320.94 3.63231 -4.43679 0
M  V30 23908 N 2320.43 4.27514 -5.45164 0
M  V30 23909 N 2322.23 3.60404 -4.31353 0
M  V30 23910 H 2314.38 0.432434 -2.07951 0
M  V30 23911 H 2316.64 0.2538 -0.913394 0
M  V30 23912 H 2316.35 1.49812 -3.18197 0
M  V30 23913 H 2316.22 3.00107 -2.28507 0
M  V30 23914 H 2318.61 2.61237 -1.37257 0
M  V30 23915 H 2318.69 1.1104 -2.30442 0
M  V30 23916 H 2318.33 2.44849 -4.44985 0
M  V30 23917 H 2318.26 3.9459 -3.48722 0
M  V30 23918 H 2320.75 2.54821 -2.7906 0
M  V30 23919 H 2321.07 4.73223 -6.10966 0
M  V30 23920 H 2319.41 4.26131 -5.49033 0
M  V30 23921 H 2322.6 3.09371 -3.51294 0
M  V30 23922 H 2322.78 4.08982 -5.02631 0
M  V30 23923 N 2316.18 1.07291 1.1544 0
M  V30 23924 C 2317.11 0.714146 2.22311 0
M  V30 23925 C 2318.09 -0.298126 1.67467 0
M  V30 23926 O 2319.28 -0.171014 1.93446 0
M  V30 23927 C 2316.41 0.110509 3.47124 0
M  V30 23928 C 2315.36 1.04987 4.14924 0
M  V30 23929 C 2314.69 0.309018 5.33806 0
M  V30 23930 C 2315.99 2.38322 4.64758 0
M  V30 23931 H 2317.68 1.60765 2.52577 0
M  V30 23932 H 2315.23 0.774431 1.21402 0
M  V30 23933 H 2317.18 -0.152408 4.21124 0
M  V30 23934 H 2315.91 -0.818065 3.16189 0
M  V30 23935 H 2314.56 1.2977 3.42864 0
M  V30 23936 H 2314.21 -0.622997 4.99127 0
M  V30 23937 H 2313.91 0.935138 5.80111 0
M  V30 23938 H 2315.44 0.0538844 6.10576 0
M  V30 23939 H 2316.85 2.17869 5.30289 0
M  V30 23940 H 2315.25 2.96523 5.21722 0
M  V30 23941 H 2316.32 3.00669 3.80429 0
M  V30 23942 N 2317.66 -1.32267 0.856927 0
M  V30 23943 C 2318.94 -1.91821 0.382617 0
M  V30 23944 C 2319.32 -1.78053 -1.13404 0
M  V30 23945 O 2318.67 -1.18004 -1.95671 0
M  V30 23946 C 2318.88 -3.38503 0.849505 0
M  V30 23947 C 2320.22 -4.15633 0.868009 0
M  V30 23948 O 2321.25 -3.47231 0.794293 0
M  V30 23949 O 2320.11 -5.3778 0.972381 0
M  V30 23950 H 2317.2 -0.819377 0.112028 0
M  V30 23951 H 2319.75 -1.41022 0.943977 0
M  V30 23952 H 2318.52 -3.42478 1.89273 0
M  V30 23953 H 2318.14 -3.96711 0.265722 0
M  V30 23954 N 2319.14 -0.615084 -1.45102 0
M  V30 23955 C 2320.36 -0.118025 -2.07064 0
M  V30 23956 C 2320.79 1.1916 -1.45542 0
M  V30 23957 O 2320.15 1.72728 -0.550885 0
M  V30 23958 C 2320.19 0.000225002 -3.606 0
M  V30 23959 O 2319.3 1.04849 -3.98849 0
M  V30 23960 H 2318.64 -0.0774697 -0.659465 0
M  V30 23961 H 2321.17 -0.847218 -1.86235 0
M  V30 23962 H 2321.18 0.196019 -4.07529 0
M  V30 23963 H 2319.85 -0.956003 -4.04763 0
M  V30 23964 H 2318.43 0.828555 -3.63579 0
M  V30 23965 N 2320.62 1.53557 -0.354678 0
M  V30 23966 C 2321.86 2.0139 0.238761 0
M  V30 23967 C 2322.2 1.24182 1.49306 0
M  V30 23968 O 2321.47 0.332491 1.91637 0
M  V30 23969 C 2321.75 3.56002 0.541709 0
M  V30 23970 C 2321.61 4.43911 -0.725466 0
M  V30 23971 C 2322.93 4.18987 1.34678 0
M  V30 23972 H 2320.05 0.732047 0.0853048 0
M  V30 23973 H 2322.69 1.83904 -0.477416 0
M  V30 23974 H 2320.84 3.71033 1.15183 0
M  V30 23975 H 2322.51 4.40698 -1.36321 0
M  V30 23976 H 2320.75 4.12322 -1.34808 0
M  V30 23977 H 2321.42 5.50007 -0.468602 0
M  V30 23978 H 2323.9 4.07722 0.830765 0
M  V30 23979 H 2322.78 5.27218 1.5275 0
M  V30 23980 H 2323.04 3.74335 2.35214 0
M  V30 23981 N 2322.1 0.083568 1.57378 0
M  V30 23982 C 2323.34 -0.583699 1.94218 0
M  V30 23983 C 2323.67 -1.68545 0.964683 0
M  V30 23984 O 2322.95 -1.945 -0.00418839 0
M  V30 23985 C 2323.23 -1.14966 3.41255 0
M  V30 23986 C 2323.09 -0.0537487 4.49768 0
M  V30 23987 C 2324.4 -2.05159 3.89356 0
M  V30 23988 H 2321.52 -0.210711 0.706236 0
M  V30 23989 H 2324.17 0.151933 1.89392 0
M  V30 23990 H 2322.32 -1.77659 3.45499 0
M  V30 23991 H 2323.99 0.579931 4.5764 0
M  V30 23992 H 2322.23 0.614144 4.29431 0
M  V30 23993 H 2322.9 -0.490355 5.49818 0
M  V30 23994 H 2325.38 -1.52387 3.87192 0
M  V30 23995 H 2324.25 -2.41689 4.92826 0
M  V30 23996 H 2324.51 -2.9645 3.27978 0
M  V30 23997 N 2323.57 -1.5645 -0.190064 0
M  V30 23998 C 2324.51 -1.91479 -1.2597 0
M  V30 23999 C 2325.52 -0.805956 -1.4145 0
M  V30 24000 O 2326.71 -1.08438 -1.41787 0
M  V30 24001 C 2323.81 -2.13599 -2.63113 0
M  V30 24002 C 2322.98 -3.44765 -2.69176 0
M  V30 24003 C 2322.04 -3.55937 -3.87551 0
M  V30 24004 O 2321.07 -4.28718 -3.74419 0
M  V30 24005 N 2322.27 -2.89397 -5.03219 0
M  V30 24006 H 2325.03 -2.83829 -0.962344 0
M  V30 24007 H 2322.59 -1.57378 -0.379953 0
M  V30 24008 H 2324.59 -2.18356 -3.40739 0
M  V30 24009 H 2323.16 -1.27724 -2.85316 0
M  V30 24010 H 2322.38 -3.51832 -1.77787 0
M  V30 24011 H 2323.66 -4.31112 -2.70222 0
M  V30 24012 H 2323.06 -2.30103 -5.16787 0
M  V30 24013 H 2321.62 -2.99775 -5.78773 0
M  V30 24014 N 2325.05 0.45796 -1.50799 0
M  V30 24015 C 2326.3 1.20789 -1.63651 0
M  V30 24016 C 2326.65 1.89395 -0.338695 0
M  V30 24017 O 2325.95 1.79717 0.66426 0
M  V30 24018 C 2326.14 2.26625 -2.76362 0
M  V30 24019 C 2325.97 1.68404 -4.16977 0
M  V30 24020 C 2324.74 1.47799 -4.83201 0
M  V30 24021 C 2326.94 1.17167 -5.00776 0
M  V30 24022 N 2324.92 0.849585 -6.07993 0
M  V30 24023 C 2326.29 0.667295 -6.16399 0
M  V30 24024 C 2328.34 1.06146 -4.86454 0
M  V30 24025 C 2327.05 0.0635644 -7.19272 0
M  V30 24026 C 2329.07 0.471655 -5.89516 0
M  V30 24027 C 2328.44 -0.0222795 -7.04396 0
M  V30 24028 H 2324.53 0.430409 -0.652895 0
M  V30 24029 H 2327.12 0.507752 -1.87963 0
M  V30 24030 H 2325.29 2.94051 -2.53749 0
M  V30 24031 H 2327.02 2.93631 -2.78501 0
M  V30 24032 H 2323.78 1.73395 -4.40717 0
M  V30 24033 H 2324.2 0.553419 -6.74734 0
M  V30 24034 H 2328.84 1.42925 -3.9791 0
M  V30 24035 H 2326.56 -0.316395 -8.0748 0
M  V30 24036 H 2330.15 0.388569 -5.80501 0
M  V30 24037 H 2329.03 -0.471513 -7.82781 0
M  V30 24038 N 2326.53 1.40598 0.712035 0
M  V30 24039 C 2327.46 1.3555 1.8358 0
M  V30 24040 C 2328.44 0.225312 1.61031 0
M  V30 24041 O 2329.62 0.409552 1.83997 0
M  V30 24042 C 2326.75 1.11039 3.19981 0
M  V30 24043 C 2325.8 2.26557 3.61351 0
M  V30 24044 S 2326.63 3.88967 3.68055 0
M  V30 24045 C 2327.79 3.66728 5.0721 0
M  V30 24046 H 2328.02 2.30652 1.87582 0
M  V30 24047 H 2325.55 1.26926 0.87916 0
M  V30 24048 H 2327.51 0.975831 3.98733 0
M  V30 24049 H 2326.17 0.175853 3.13607 0
M  V30 24050 H 2325.36 2.05058 4.60399 0
M  V30 24051 H 2324.97 2.36334 2.89866 0
M  V30 24052 H 2327.26 3.25414 5.94232 0
M  V30 24053 H 2328.2 4.65319 5.33745 0
M  V30 24054 H 2328.61 3.0034 4.77971 0
M  V30 24055 N 2328.01 -0.94462 1.26153 0
M  V30 24056 C 2328.92 -2.07646 1.0918 0
M  V30 24057 C 2329.93 -1.7398 0.0262241 0
M  V30 24058 O 2331.11 -2.00091 0.229243 0
M  V30 24059 C 2328.17 -3.39078 0.722974 0
M  V30 24060 C 2327.24 -3.86549 1.86758 0
M  V30 24061 C 2326.47 -5.11708 1.51626 0
M  V30 24062 O 2326.69 -5.68878 0.416431 0
M  V30 24063 O 2325.63 -5.54135 2.34985 0
M  V30 24064 H 2329.45 -2.24872 2.04124 0
M  V30 24065 H 2327.04 -1.06098 1.05184 0
M  V30 24066 H 2328.92 -4.18056 0.529861 0
M  V30 24067 H 2327.59 -3.23099 -0.197102 0
M  V30 24068 H 2326.5 -3.08531 2.11564 0
M  V30 24069 H 2327.83 -4.07042 2.76726 0
M  V30 24070 N 2329.49 -1.07901 -1.1487 0
M  V30 24071 C 2330.44 -0.674065 -2.17808 0
M  V30 24072 C 2331.42 0.303671 -1.58008 0
M  V30 24073 O 2332.61 0.116509 -1.76616 0
M  V30 24074 C 2329.74 -0.0793921 -3.43208 0
M  V30 24075 C 2328.83 -1.08261 -4.10049 0
M  V30 24076 N 2329.22 -2.26418 -4.52293 0
M  V30 24077 C 2327.52 -0.917201 -4.36467 0
M  V30 24078 C 2328.22 -2.90109 -5.04194 0
M  V30 24079 N 2327.19 -2.17745 -4.98085 0
M  V30 24080 H 2330.99 -1.57391 -2.48204 0
M  V30 24081 H 2328.51 -0.952999 -1.31498 0
M  V30 24082 H 2330.51 0.228646 -4.16273 0
M  V30 24083 H 2329.17 0.815495 -3.14292 0
M  V30 24084 H 2330.18 -2.64104 -4.45499 0
M  V30 24085 H 2326.85 -0.0756812 -4.17431 0
M  V30 24086 H 2328.24 -3.90468 -5.46795 0
M  V30 24087 N 2330.96 1.31811 -0.863929 0
M  V30 24088 C 2332.21 1.96925 -0.47187 0
M  V30 24089 C 2332.54 1.68323 0.974549 0
M  V30 24090 O 2331.79 0.968963 1.70028 0
M  V30 24091 C 2332.09 3.5109 -0.668609 0
M  V30 24092 C 2331.76 3.99699 -2.0869 0
M  V30 24093 C 2330.42 4.12684 -2.47478 0
M  V30 24094 C 2332.77 4.25346 -3.01215 0
M  V30 24095 C 2330.1 4.48663 -3.78045 0
M  V30 24096 C 2332.45 4.62787 -4.3129 0
M  V30 24097 C 2331.12 4.73978 -4.70001 0
M  V30 24098 H 2330.39 0.720601 -0.17267 0
M  V30 24099 H 2333.03 1.57052 -1.09576 0
M  V30 24100 H 2331.34 3.91781 0.0384563 0
M  V30 24101 H 2333.04 3.99512 -0.345172 0
M  V30 24102 H 2329.63 3.90084 -1.77573 0
M  V30 24103 H 2333.81 4.14814 -2.72476 0
M  V30 24104 H 2329.07 4.55524 -4.07808 0
M  V30 24105 H 2333.24 4.81585 -5.0304 0
M  V30 24106 H 2330.87 5.01614 -5.71216 0
M  V30 24107 N 2332.44 0.62277 1.44773 0
M  V30 24108 C 2333.35 -0.0885619 2.34433 0
M  V30 24109 C 2334.37 -0.844502 1.52132 0
M  V30 24110 O 2335.54 -0.798658 1.84888 0
M  V30 24111 C 2332.61 -1.06344 3.29987 0
M  V30 24112 C 2331.67 -0.307798 4.28195 0
M  V30 24113 C 2330.9 -1.23624 5.19185 0
M  V30 24114 O 2331.13 -2.47467 5.13922 0
M  V30 24115 O 2330.06 -0.725084 5.97517 0
M  V30 24116 H 2333.89 0.648651 2.96692 0
M  V30 24117 H 2331.47 0.382982 1.44408 0
M  V30 24118 H 2333.35 -1.62453 3.88828 0
M  V30 24119 H 2332.03 -1.78142 2.70272 0
M  V30 24120 H 2330.93 0.29613 3.72926 0
M  V30 24121 H 2332.27 0.369986 4.90807 0
M  V30 24122 N 2333.92 -1.53367 0.362817 0
M  V30 24123 C 2335.15 -2.05634 -0.228577 0
M  V30 24124 C 2335.56 -1.23651 -1.42674 0
M  V30 24125 O 2334.92 -0.276502 -1.80393 0
M  V30 24126 C 2334.97 -3.5606 -0.624783 0
M  V30 24127 O 2334.69 -4.34934 0.525752 0
M  V30 24128 C 2336.19 -4.24573 -1.27486 0
M  V30 24129 H 2333.41 -0.669764 -0.0407066 0
M  V30 24130 H 2335.96 -1.97768 0.520386 0
M  V30 24131 H 2334.11 -3.64085 -1.32366 0
M  V30 24132 H 2334.53 -5.24095 0.206061 0
M  V30 24133 H 2336 -5.31153 -1.50267 0
M  V30 24134 H 2336.48 -3.7812 -2.23432 0
M  V30 24135 H 2337.08 -4.20794 -0.617484 0
M  V30 24136 N 2335.4 -0.091913 -1.57332 0
M  V30 24137 C 2336.64 0.567279 -1.95329 0
M  V30 24138 C 2337 1.6599 -0.972895 0
M  V30 24139 O 2336.29 1.916 0.00162888 0
M  V30 24140 C 2336.49 1.17045 -3.37691 0
M  V30 24141 C 2336.32 0.137796 -4.49489 0
M  V30 24142 C 2335.09 -0.284604 -5.04498 0
M  V30 24143 C 2337.28 -0.6328 -5.10392 0
M  V30 24144 N 2335.27 -1.30586 -5.9985 0
M  V30 24145 C 2336.64 -1.50598 -6.01432 0
M  V30 24146 C 2338.69 -0.686667 -4.93142 0
M  V30 24147 C 2337.39 -2.42827 -6.77073 0
M  V30 24148 C 2339.42 -1.59656 -5.69442 0
M  V30 24149 C 2338.78 -2.45736 -6.60146 0
M  V30 24150 H 2334.88 0.178009 -0.76147 0
M  V30 24151 H 2337.47 -0.17374 -1.93923 0
M  V30 24152 H 2335.64 1.88131 -3.39796 0
M  V30 24153 H 2337.37 1.79175 -3.62875 0
M  V30 24154 H 2334.12 0.10251 -4.73489 0
M  V30 24155 H 2334.55 -1.8146 -6.52228 0
M  V30 24156 H 2339.19 -0.0353183 -4.22785 0
M  V30 24157 H 2336.91 -3.08988 -7.46694 0
M  V30 24158 H 2340.49 -1.64333 -5.58109 0
M  V30 24159 H 2339.37 -3.15 -7.18154 0
M  V30 24160 N 2336.88 1.56548 0.181765 0
M  V30 24161 C 2338.29 1.71183 0.745214 0
M  V30 24162 C 2338.64 0.700712 1.83261 0
M  V30 24163 O 2337.76 -0.140116 2.15946 0
M  V30 24164 C 2338.36 3.1037 1.35853 0
M  V30 24165 C 2336.92 3.26724 1.86892 0
M  V30 24166 C 2336.06 2.67136 0.743895 0
M  V30 24167 H 2339.02 1.5864 -0.043494 0
M  V30 24168 H 2339.04 3.0844 2.22812 0
M  V30 24169 H 2338.55 3.83938 0.566881 0
M  V30 24170 H 2336.65 2.58095 2.68734 0
M  V30 24171 H 2336.76 4.34362 2.02154 0
M  V30 24172 H 2335.13 2.26667 1.16165 0
M  V30 24173 H 2335.91 3.43281 -0.0357364 0
M  V30 24174 N 2338.35 -0.449957 1.5104 0
M  V30 24175 C 2339.58 -1.2278 1.67152 0
M  V30 24176 C 2340 -1.84562 0.363114 0
M  V30 24177 O 2339.36 -1.6825 -0.675403 0
M  V30 24178 C 2339.41 -2.29684 2.77989 0
M  V30 24179 O 2338.51 -3.3486 2.40713 0
M  V30 24180 H 2337.86 -0.360289 0.557753 0
M  V30 24181 H 2340.39 -0.532971 1.97536 0
M  V30 24182 H 2340.4 -2.74667 3.01698 0
M  V30 24183 H 2339.07 -1.84091 3.72939 0
M  V30 24184 H 2337.65 -2.95441 2.27529 0
M  V30 24185 N 2339.83 -1.40974 -0.704569 0
M  V30 24186 C 2340.78 -1.38584 -1.81048 0
M  V30 24187 C 2341.77 -0.261613 -1.58759 0
M  V30 24188 O 2342.96 -0.501586 -1.69744 0
M  V30 24189 C 2340.09 -1.26163 -3.19277 0
M  V30 24190 C 2339.17 -2.43411 -3.47292 0
M  V30 24191 N 2339.56 -3.68887 -3.46058 0
M  V30 24192 C 2337.86 -2.3703 -3.778 0
M  V30 24193 C 2338.56 -4.46599 -3.72726 0
M  V30 24194 N 2337.54 -3.76588 -3.92023 0
M  V30 24195 H 2341.34 -2.33528 -1.78443 0
M  V30 24196 H 2338.86 -1.34902 -0.904175 0
M  V30 24197 H 2340.85 -1.22533 -3.98486 0
M  V30 24198 H 2339.51 -0.321958 -3.231 0
M  V30 24199 H 2340.52 -4.01897 -3.26649 0
M  V30 24200 H 2337.2 -1.51488 -3.89047 0
M  V30 24201 H 2338.59 -5.55498 -3.77983 0
M  V30 24202 N 2341.31 0.937917 -1.26653 0
M  V30 24203 C 2342.24 2.05431 -1.10997 0
M  V30 24204 C 2343.22 1.70094 -0.014246 0
M  V30 24205 O 2344.41 1.93299 -0.186871 0
M  V30 24206 C 2341.54 3.39202 -0.745621 0
M  V30 24207 C 2340.49 3.88612 -1.79344 0
M  V30 24208 C 2339.82 5.19071 -1.28333 0
M  V30 24209 C 2341.12 4.13133 -3.1956 0
M  V30 24210 H 2342.81 2.18787 -2.04384 0
M  V30 24211 H 2340.36 1.0513 -0.98406 0
M  V30 24212 H 2342.31 4.1677 -0.622961 0
M  V30 24213 H 2341.03 3.25831 0.223953 0
M  V30 24214 H 2339.69 3.13228 -1.90483 0
M  V30 24215 H 2339.34 5.02084 -0.303503 0
M  V30 24216 H 2339.04 5.531 -1.98379 0
M  V30 24217 H 2340.56 5.99219 -1.1734 0
M  V30 24218 H 2341.98 4.81304 -3.1148 0
M  V30 24219 H 2340.38 4.5845 -3.87226 0
M  V30 24220 H 2341.45 3.18794 -3.65374 0
M  V30 24221 N 2342.79 1.08509 1.14296 0
M  V30 24222 C 2344.2 0.836257 1.66924 0
M  V30 24223 C 2344.55 -0.636828 1.85577 0
M  V30 24224 O 2343.68 -1.49172 1.5677 0
M  V30 24225 C 2344.27 1.51147 3.03216 0
M  V30 24226 C 2342.83 1.30985 3.52874 0
M  V30 24227 C 2341.98 1.5736 2.28327 0
M  V30 24228 H 2344.93 1.24553 0.983469 0
M  V30 24229 H 2344.95 0.939276 3.68725 0
M  V30 24230 H 2344.46 2.58358 2.89608 0
M  V30 24231 H 2342.56 0.258494 3.71702 0
M  V30 24232 H 2342.67 2.03821 4.33582 0
M  V30 24233 H 2341.04 0.995206 2.34452 0
M  V30 24234 H 2341.82 2.65779 2.17294 0
M  V30 24235 N 2344.27 -1.31351 0.870907 0
M  V30 24236 C 2345.52 -1.95943 0.478443 0
M  V30 24237 C 2345.83 -1.69598 -0.974463 0
M  V30 24238 O 2347.03 -2.2806 -1.47312 0
M  V30 24239 C 2345.49 -3.50789 0.804671 0
M  V30 24240 C 2345.1 -3.85973 2.2744 0
M  V30 24241 C 2346.84 -4.21769 0.480722 0
M  V30 24242 C 2344.75 -5.33934 2.54299 0
M  V30 24243 H 2343.68 -0.733366 0.175188 0
M  V30 24244 H 2346.33 -1.49508 1.06394 0
M  V30 24245 H 2344.71 -3.95722 0.148417 0
M  V30 24246 H 2345.89 -3.51997 2.9738 0
M  V30 24247 H 2344.2 -3.2806 2.56448 0
M  V30 24248 H 2346.8 -5.30628 0.658612 0
M  V30 24249 H 2347.14 -4.12255 -0.578907 0
M  V30 24250 H 2347.67 -3.82474 1.09356 0
M  V30 24251 H 2344.41 -5.48485 3.58949 0
M  V30 24252 H 2343.93 -5.69259 1.88955 0
M  V30 24253 H 2345.61 -6.01208 2.39077 0
M  V30 24254 N 2345.74 -0.630439 -1.44441 0
M  V30 24255 C 2346.99 -0.134852 -2.02351 0
M  V30 24256 C 2347.32 1.23983 -1.49472 0
M  V30 24257 O 2346.6 1.82281 -0.678507 0
M  V30 24258 C 2346.88 -0.12077 -3.59897 0
M  V30 24259 C 2346.73 -1.52774 -4.2306 0
M  V30 24260 C 2348.05 0.55505 -4.36586 0
M  V30 24261 H 2345.17 -0.0504775 -0.735269 0
M  V30 24262 H 2347.81 -0.806781 -1.7202 0
M  V30 24263 H 2345.96 0.451409 -3.85869 0
M  V30 24264 H 2347.64 -2.14876 -4.08199 0
M  V30 24265 H 2345.88 -2.08182 -3.80582 0
M  V30 24266 H 2346.55 -1.46993 -5.32069 0
M  V30 24267 H 2349.03 0.0684697 -4.16044 0
M  V30 24268 H 2347.9 0.534089 -5.46295 0
M  V30 24269 H 2348.16 1.62528 -4.11141 0
M  V30 24270 N 2347.22 1.53172 -0.370945 0
M  V30 24271 C 2348.19 2.24521 0.460739 0
M  V30 24272 C 2349.19 1.25498 1.00534 0
M  V30 24273 O 2350.38 1.49734 0.89024 0
M  V30 24274 C 2347.51 2.98611 1.64452 0
M  V30 24275 H 2348.7 2.99453 -0.163665 0
M  V30 24276 H 2346.25 1.55817 -0.122726 0
M  V30 24277 H 2346.99 2.27934 2.30687 0
M  V30 24278 H 2346.77 3.71272 1.26092 0
M  V30 24279 H 2348.26 3.52834 2.23378 0
M  V30 24280 N 2348.7 0.100255 1.57281 0
M  V30 24281 C 2349.65 -0.867553 2.1085 0
M  V30 24282 C 2350.63 -1.24047 1.02475 0
M  V30 24283 O 2351.83 -1.21469 1.28741 0
M  V30 24284 C 2348.96 -2.12469 2.69651 0
M  V30 24285 C 2348.04 -1.77698 3.85077 0
M  V30 24286 N 2348.43 -1.13509 4.92899 0
M  V30 24287 C 2346.73 -2.07275 3.94909 0
M  V30 24288 C 2347.43 -0.974634 5.73477 0
M  V30 24289 N 2346.41 -1.49361 5.22678 0
M  V30 24290 H 2350.21 -0.36742 2.91594 0
M  V30 24291 H 2347.72 -0.102801 1.62074 0
M  V30 24292 H 2349.72 -2.82752 3.06361 0
M  V30 24293 H 2348.38 -2.63043 1.90364 0
M  V30 24294 H 2349.39 -0.801291 5.11664 0
M  V30 24295 H 2346.07 -2.60028 3.26637 0
M  V30 24296 H 2347.46 -0.472246 6.70238 0
M  V30 24297 N 2350.18 -1.56643 -0.17346 0
M  V30 24298 C 2351.14 -1.95364 -1.19856 0
M  V30 24299 C 2352.14 -0.837064 -1.37295 0
M  V30 24300 O 2353.33 -1.10415 -1.34737 0
M  V30 24301 C 2350.46 -2.24658 -2.56401 0
M  V30 24302 H 2351.66 -2.87094 -0.867012 0
M  V30 24303 H 2349.21 -1.50667 -0.415827 0
M  V30 24304 H 2349.95 -1.35636 -2.94573 0
M  V30 24305 H 2349.73 -3.06045 -2.4511 0
M  V30 24306 H 2351.22 -2.55546 -3.30282 0
M  V30 24307 N 2351.66 0.44194 -1.51277 0
M  V30 24308 C 2352.57 1.56138 -1.75094 0
M  V30 24309 C 2353.58 1.62 -0.634991 0
M  V30 24310 O 2354.76 1.79327 -0.916717 0
M  V30 24311 C 2351.82 2.92155 -1.86672 0
M  V30 24312 C 2350.89 2.96447 -3.10512 0
M  V30 24313 C 2350.12 4.25977 -3.21527 0
M  V30 24314 O 2350.34 5.18101 -2.38595 0
M  V30 24315 O 2349.28 4.36459 -4.14472 0
M  V30 24316 H 2353.1 1.38956 -2.70046 0
M  V30 24317 H 2350.69 0.624476 -1.35723 0
M  V30 24318 H 2352.57 3.72887 -1.96298 0
M  V30 24319 H 2351.24 3.09474 -0.949068 0
M  V30 24320 H 2350.15 2.14687 -3.06366 0
M  V30 24321 H 2351.48 2.84072 -4.0195 0
M  V30 24322 N 2353.14 1.41345 0.697083 0
M  V30 24323 C 2354.07 1.39005 1.82237 0
M  V30 24324 C 2355.08 0.292457 1.60152 0
M  V30 24325 O 2356.27 0.554078 1.69683 0
M  V30 24326 C 2353.37 1.14494 3.18974 0
M  V30 24327 C 2352.54 2.36264 3.68101 0
M  V30 24328 C 2351.6 2.07633 4.83503 0
M  V30 24329 O 2350.63 2.80659 4.95196 0
M  V30 24330 N 2351.83 1.06565 5.70635 0
M  V30 24331 H 2354.59 2.35992 1.84738 0
M  V30 24332 H 2352.16 1.35938 0.879346 0
M  V30 24333 H 2354.15 0.932954 3.938 0
M  V30 24334 H 2352.72 0.261098 3.11508 0
M  V30 24335 H 2351.94 2.73175 2.84199 0
M  V30 24336 H 2353.23 3.174 3.97661 0
M  V30 24337 H 2352.62 0.461224 5.63817 0
M  V30 24338 H 2351.18 0.913557 6.45366 0
M  V30 24339 N 2354.61 -0.931187 1.27148 0
M  V30 24340 C 2355.55 -2.03544 1.05368 0
M  V30 24341 C 2356.56 -1.62796 0.0108724 0
M  V30 24342 O 2357.75 -1.76711 0.252051 0
M  V30 24343 C 2354.85 -3.33976 0.575625 0
M  V30 24344 C 2354.02 -4.03436 1.68992 0
M  V30 24345 C 2353.08 -5.12141 1.20822 0
M  V30 24346 O 2352.11 -5.36297 1.90721 0
M  V30 24347 N 2353.31 -5.80467 0.0619871 0
M  V30 24348 H 2356.07 -2.22793 2.00458 0
M  V30 24349 H 2353.63 -1.10134 1.18668 0
M  V30 24350 H 2355.63 -4.04003 0.237335 0
M  V30 24351 H 2354.2 -3.11326 -0.281961 0
M  V30 24352 H 2353.42 -3.27188 2.19867 0
M  V30 24353 H 2354.7 -4.46592 2.43788 0
M  V30 24354 H 2354.1 -5.63291 -0.521522 0
M  V30 24355 H 2352.66 -6.51438 -0.21715 0
M  V30 24356 N 2356.09 -1.09114 -1.13719 0
M  V30 24357 C 2357.32 -0.846932 -1.88771 0
M  V30 24358 C 2357.73 0.60154 -1.78961 0
M  V30 24359 O 2357.09 1.41386 -1.15397 0
M  V30 24360 C 2357.14 -1.26919 -3.38488 0
M  V30 24361 O 2356.86 -2.66085 -3.48038 0
M  V30 24362 C 2358.36 -1.0569 -4.30517 0
M  V30 24363 H 2355.58 -0.304924 -0.597714 0
M  V30 24364 H 2358.13 -1.45229 -1.43975 0
M  V30 24365 H 2356.28 -0.70779 -3.80879 0
M  V30 24366 H 2356.7 -2.83803 -4.41085 0
M  V30 24367 H 2358.17 -1.40166 -5.33908 0
M  V30 24368 H 2358.65 0.00555696 -4.392 0
M  V30 24369 H 2359.25 -1.60409 -3.9389 0
M  V30 24370 N 2357.57 1.30887 -0.877861 0
M  V30 24371 C 2358.82 1.96705 -0.49346 0
M  V30 24372 C 2359.15 1.69182 0.953474 0
M  V30 24373 O 2358.42 0.992624 1.67264 0
M  V30 24374 C 2358.71 3.51978 -0.760491 0
M  V30 24375 C 2358.56 3.89044 -2.25753 0
M  V30 24376 C 2359.88 4.39487 -0.232226 0
M  V30 24377 H 2357 0.714489 -0.180759 0
M  V30 24378 H 2359.64 1.5488 -1.10055 0
M  V30 24379 H 2357.79 3.87734 -0.243783 0
M  V30 24380 H 2359.46 3.63349 -2.8421 0
M  V30 24381 H 2357.7 3.37368 -2.727 0
M  V30 24382 H 2358.38 4.97337 -2.395 0
M  V30 24383 H 2360.85 4.10599 -0.674386 0
M  V30 24384 H 2359.73 5.47065 -0.448451 0
M  V30 24385 H 2359.99 4.33531 0.86622 0
M  V30 24386 N 2359.05 0.638091 1.44105 0
M  V30 24387 C 2360.01 -0.053061 2.29139 0
M  V30 24388 C 2361.01 -0.765481 1.41411 0
M  V30 24389 O 2362.2 -0.609017 1.63207 0
M  V30 24390 C 2359.33 -1.08579 3.23146 0
M  V30 24391 H 2360.53 0.694934 2.91737 0
M  V30 24392 H 2358.08 0.398565 1.51133 0
M  V30 24393 H 2358.81 -1.86353 2.65411 0
M  V30 24394 H 2358.6 -0.578784 3.87805 0
M  V30 24395 H 2360.09 -1.56893 3.87007 0
M  V30 24396 N 2360.53 -1.52973 0.379063 0
M  V30 24397 C 2361.49 -2.24763 -0.448826 0
M  V30 24398 C 2362.49 -1.26029 -0.998667 0
M  V30 24399 O 2363.68 -1.50204 -0.882286 0
M  V30 24400 C 2360.81 -2.99478 -1.62866 0
M  V30 24401 H 2362 -2.99362 0.179544 0
M  V30 24402 H 2359.56 -1.5575 0.130988 0
M  V30 24403 H 2360.29 -2.29155 -2.29475 0
M  V30 24404 H 2360.08 -3.71936 -1.24121 0
M  V30 24405 H 2361.57 -3.54014 -2.21504 0
M  V30 24406 N 2362 -0.108595 -1.57225 0
M  V30 24407 C 2363.25 0.552727 -1.95122 0
M  V30 24408 C 2363.58 1.66989 -0.991375 0
M  V30 24409 O 2362.86 1.94482 -0.0267553 0
M  V30 24410 C 2363.14 1.09522 -3.43041 0
M  V30 24411 C 2362.99 -0.0178123 -4.49796 0
M  V30 24412 C 2364.31 1.98938 -3.9257 0
M  V30 24413 H 2361.43 0.199449 -0.709499 0
M  V30 24414 H 2364.07 -0.182044 -1.89126 0
M  V30 24415 H 2362.22 1.7214 -3.48282 0
M  V30 24416 H 2363.9 -0.652664 -4.5666 0
M  V30 24417 H 2362.14 -0.682385 -4.28399 0
M  V30 24418 H 2362.81 0.402822 -5.50528 0
M  V30 24419 H 2365.29 1.46207 -3.89567 0
M  V30 24420 H 2364.16 2.33818 -4.96609 0
M  V30 24421 H 2364.42 2.91195 -3.32653 0
M  V30 24422 N 2363.48 1.56732 0.16515 0
M  V30 24423 C 2364.41 1.99916 1.20648 0
M  V30 24424 C 2365.39 0.875731 1.45825 0
M  V30 24425 O 2366.58 1.14226 1.57055 0
M  V30 24426 C 2363.71 2.36431 2.54396 0
M  V30 24427 C 2362.66 3.51791 2.43776 0
M  V30 24428 C 2361.99 3.74067 3.82071 0
M  V30 24429 C 2363.29 4.85045 1.93724 0
M  V30 24430 H 2364.98 2.87155 0.847483 0
M  V30 24431 H 2362.53 1.38151 0.406226 0
M  V30 24432 H 2364.48 2.6524 3.27454 0
M  V30 24433 H 2363.2 1.46108 2.92096 0
M  V30 24434 H 2361.86 3.2312 1.73173 0
M  V30 24435 H 2361.51 2.81024 4.17174 0
M  V30 24436 H 2361.21 4.51691 3.75832 0
M  V30 24437 H 2362.74 4.05282 4.56705 0
M  V30 24438 H 2364.15 5.12689 2.5656 0
M  V30 24439 H 2362.55 5.66348 1.98418 0
M  V30 24440 H 2363.62 4.76627 0.891879 0
M  V30 24441 N 2364.96 -0.433911 1.51509 0
M  V30 24442 C 2365.89 -1.54701 1.67758 0
M  V30 24443 C 2366.87 -1.53886 0.525154 0
M  V30 24444 O 2368.05 -1.72962 0.749423 0
M  V30 24445 C 2365.18 -2.93277 1.69429 0
M  V30 24446 C 2364.23 -3.12103 2.90678 0
M  V30 24447 S 2365.06 -2.88038 4.51436 0
M  V30 24448 C 2366.22 -4.28889 4.55856 0
M  V30 24449 H 2366.45 -1.40684 2.61907 0
M  V30 24450 H 2363.98 -0.623835 1.41236 0
M  V30 24451 H 2365.94 -3.73153 1.71077 0
M  V30 24452 H 2364.6 -3.04654 0.764517 0
M  V30 24453 H 2363.8 -4.13429 2.88258 0
M  V30 24454 H 2363.4 -2.40057 2.8679 0
M  V30 24455 H 2365.69 -5.22144 4.31708 0
M  V30 24456 H 2366.63 -4.36342 5.57684 0
M  V30 24457 H 2367.04 -4.12704 3.85144 0
M  V30 24458 N 2366.44 -1.41713 -0.689577 0
M  V30 24459 C 2367.68 -1.41602 -1.45179 0
M  V30 24460 C 2368.02 -0.0270422 -1.94181 0
M  V30 24461 O 2367.29 0.946235 -1.69931 0
M  V30 24462 C 2367.58 -2.42791 -2.65941 0
M  V30 24463 C 2367.43 -3.9082 -2.22665 0
M  V30 24464 C 2368.75 -2.41158 -3.68145 0
M  V30 24465 H 2365.87 -0.515651 -0.526567 0
M  V30 24466 H 2368.51 -1.73029 -0.784917 0
M  V30 24467 H 2366.66 -2.16122 -3.22837 0
M  V30 24468 H 2368.33 -4.28415 -1.7105 0
M  V30 24469 H 2366.57 -4.05397 -1.54387 0
M  V30 24470 H 2367.24 -4.57178 -3.09342 0
M  V30 24471 H 2369.72 -2.64839 -3.20935 0
M  V30 24472 H 2368.6 -3.13963 -4.50242 0
M  V30 24473 H 2368.86 -1.43228 -4.18256 0
M  V30 24474 N 2367.92 0.924431 -1.2764 0
M  V30 24475 C 2368.88 2.00703 -1.10684 0
M  V30 24476 C 2369.88 1.60723 -0.0498106 0
M  V30 24477 O 2371.07 1.71689 -0.294684 0
M  V30 24478 C 2368.2 3.33901 -0.687223 0
M  V30 24479 H 2369.39 2.17175 -2.06821 0
M  V30 24480 H 2366.95 1.10567 -1.10475 0
M  V30 24481 H 2367.68 3.23129 0.275382 0
M  V30 24482 H 2367.47 3.64277 -1.45067 0
M  V30 24483 H 2368.96 4.13398 -0.590925 0
M  V30 24484 N 2369.39 1.09715 1.13139 0
M  V30 24485 C 2370.33 0.697094 2.18342 0
M  V30 24486 C 2371.34 -0.262523 1.60669 0
M  V30 24487 O 2372.53 -0.0481213 1.78435 0
M  V30 24488 C 2369.63 0.00690685 3.38899 0
M  V30 24489 C 2368.8 0.988816 4.26077 0
M  V30 24490 C 2367.86 0.331486 5.25155 0
M  V30 24491 O 2366.89 0.980025 5.607 0
M  V30 24492 N 2368.09 -0.913161 5.73273 0
M  V30 24493 H 2370.85 1.60221 2.53277 0
M  V30 24494 H 2368.41 0.984993 1.28489 0
M  V30 24495 H 2370.41 -0.44412 4.02256 0
M  V30 24496 H 2368.98 -0.800498 3.02177 0
M  V30 24497 H 2368.2 1.61832 3.5945 0
M  V30 24498 H 2369.48 1.65373 4.81175 0
M  V30 24499 H 2368.88 -1.45956 5.46547 0
M  V30 24500 H 2367.44 -1.30746 6.38552 0
M  V30 24501 N 2370.87 -1.30419 0.88479 0
M  V30 24502 C 2371.8 -2.30588 0.367614 0
M  V30 24503 C 2372.78 -1.60982 -0.549436 0
M  V30 24504 O 2373.97 -1.88592 -0.463327 0
M  V30 24505 C 2371.1 -3.44765 -0.418883 0
M  V30 24506 C 2370.05 -4.26066 0.406391 0
M  V30 24507 C 2369.38 -5.32294 -0.506699 0
M  V30 24508 C 2370.68 -4.95606 1.64841 0
M  V30 24509 H 2372.37 -2.74095 1.20467 0
M  V30 24510 H 2369.92 -1.31771 0.580718 0
M  V30 24511 H 2371.87 -4.13903 -0.791322 0
M  V30 24512 H 2370.6 -3.00062 -1.28958 0
M  V30 24513 H 2369.25 -3.58615 0.760967 0
M  V30 24514 H 2368.9 -4.83839 -1.3751 0
M  V30 24515 H 2368.6 -5.87585 0.041686 0
M  V30 24516 H 2370.13 -6.04288 -0.875658 0
M  V30 24517 H 2371.54 -5.57262 1.34656 0
M  V30 24518 H 2369.94 -5.60761 2.13698 0
M  V30 24519 H 2371.01 -4.21743 2.39292 0
M  V30 24520 N 2372.35 -0.645724 -1.43764 0
M  V30 24521 C 2373.58 -0.163592 -2.06252 0
M  V30 24522 C 2373.99 1.16775 -1.48354 0
M  V30 24523 O 2373.35 1.71934 -0.611963 0
M  V30 24524 C 2373.4 -0.0583822 -3.61453 0
M  V30 24525 O 2373.12 -1.33709 -4.17197 0
M  V30 24526 C 2374.62 0.450718 -4.41003 0
M  V30 24527 H 2371.84 -0.0864194 -0.665412 0
M  V30 24528 H 2374.39 -0.884254 -1.84394 0
M  V30 24529 H 2372.54 0.612798 -3.82523 0
M  V30 24530 H 2372.96 -1.1914 -5.10789 0
M  V30 24531 H 2374.43 0.473306 -5.49967 0
M  V30 24532 H 2374.91 1.4806 -4.13491 0
M  V30 24533 H 2375.51 -0.187712 -4.24886 0
M  V30 24534 N 2373.83 1.5277 -0.38717 0
M  V30 24535 C 2374.76 2.2403 0.484049 0
M  V30 24536 C 2375.77 1.262 1.02847 0
M  V30 24537 O 2376.96 1.52288 0.931159 0
M  V30 24538 C 2374.06 2.94139 1.68332 0
M  V30 24539 C 2373.24 4.18658 1.26664 0
M  V30 24540 C 2372.29 4.71784 2.33036 0
M  V30 24541 O 2371.32 5.34926 1.94532 0
M  V30 24542 N 2372.52 4.51457 3.64921 0
M  V30 24543 H 2375.29 2.99433 -0.126457 0
M  V30 24544 H 2372.85 1.60487 -0.21342 0
M  V30 24545 H 2374.84 3.26581 2.39013 0
M  V30 24546 H 2373.41 2.22057 2.20021 0
M  V30 24547 H 2372.63 3.92278 0.388809 0
M  V30 24548 H 2373.92 4.99567 0.964876 0
M  V30 24549 H 2373.32 4.01051 3.98967 0
M  V30 24550 H 2371.87 4.88393 4.31643 0
M  V30 24551 N 2375.31 0.116931 1.57166 0
M  V30 24552 C 2376.72 -0.239666 1.5779 0
M  V30 24553 C 2376.92 -1.66865 1.12952 0
M  V30 24554 O 2375.98 -2.38953 0.815962 0
M  V30 24555 C 2377.29 -0.00822916 3.00699 0
M  V30 24556 C 2378.84 -0.0742888 3.12912 0
M  V30 24557 C 2379.31 0.129429 4.57817 0
M  V30 24558 N 2380.81 0.0753284 4.63139 0
M  V30 24559 C 2381.54 0.207888 5.73023 0
M  V30 24560 N 2381.04 0.396504 6.91664 0
M  V30 24561 N 2382.83 0.147609 5.61906 0
M  V30 24562 H 2374.98 1.05033 1.84613 0
M  V30 24563 H 2377.24 0.413425 0.853102 0
M  V30 24564 H 2376.95 0.97959 3.37782 0
M  V30 24565 H 2376.82 -0.741012 3.6985 0
M  V30 24566 H 2379.21 -1.05263 2.75688 0
M  V30 24567 H 2379.29 0.690341 2.46309 0
M  V30 24568 H 2378.94 1.10474 4.9574 0
M  V30 24569 H 2378.87 -0.655161 5.22509 0
M  V30 24570 H 2381.36 -0.0670234 3.77841 0
M  V30 24571 H 2381.67 0.488573 7.71254 0
M  V30 24572 H 2380.01 0.432451 6.93653 0
M  V30 24573 H 2383.21 0.00123264 4.681 0
M  V30 24574 H 2383.38 0.254361 6.47501 0
M  V30 24575 N 2376.78 -1.56818 -0.156836 0
M  V30 24576 C 2378.01 -1.87319 -0.890298 0
M  V30 24577 C 2378.43 -0.704885 -1.74393 0
M  V30 24578 O 2377.79 0.345755 -1.77973 0
M  V30 24579 C 2377.84 -3.16339 -1.73096 0
M  V30 24580 O 2376.94 -2.99581 -2.83417 0
M  V30 24581 H 2376.29 -0.615723 -0.248559 0
M  V30 24582 H 2378.82 -2.04045 -0.150614 0
M  V30 24583 H 2378.83 -3.48111 -2.12797 0
M  V30 24584 H 2377.5 -4.00978 -1.10405 0
M  V30 24585 H 2376.08 -2.79194 -2.47194 0
M  V30 24586 N 2378.26 0.425871 -1.51737 0
M  V30 24587 C 2379.51 1.17607 -1.65217 0
M  V30 24588 C 2379.84 1.90588 -0.372812 0
M  V30 24589 O 2379.12 1.84079 0.628106 0
M  V30 24590 C 2379.4 2.18393 -2.86315 0
M  V30 24591 C 2379.25 1.49419 -4.24257 0
M  V30 24592 C 2380.57 3.19251 -3.0293 0
M  V30 24593 H 2377.69 0.426195 -0.601271 0
M  V30 24594 H 2380.33 0.46385 -1.84251 0
M  V30 24595 H 2378.48 2.79132 -2.70218 0
M  V30 24596 H 2380.15 0.919283 -4.52047 0
M  V30 24597 H 2378.4 0.796357 -4.26428 0
M  V30 24598 H 2379.07 2.22876 -5.05005 0
M  V30 24599 H 2381.54 2.68575 -3.17815 0
M  V30 24600 H 2380.42 3.87053 -3.89206 0
M  V30 24601 H 2380.68 3.86019 -2.15504 0
M  V30 24602 N 2379.74 1.42077 0.682052 0
M  V30 24603 C 2380.69 1.41447 1.78821 0
M  V30 24604 C 2381.67 0.286837 1.58323 0
M  V30 24605 O 2382.87 0.528527 1.68925 0
M  V30 24606 C 2380 1.31226 3.1723 0
M  V30 24607 C 2379.08 2.48906 3.43376 0
M  V30 24608 N 2379.47 3.74346 3.40145 0
M  V30 24609 C 2377.77 2.4301 3.73981 0
M  V30 24610 C 2378.47 4.52472 3.65573 0
M  V30 24611 N 2377.45 3.82777 3.85983 0
M  V30 24612 H 2381.25 2.36337 1.74706 0
M  V30 24613 H 2378.76 1.36323 0.882598 0
M  V30 24614 H 2380.76 1.28857 3.96487 0
M  V30 24615 H 2379.42 0.37332 3.22547 0
M  V30 24616 H 2380.43 4.07043 3.20213 0
M  V30 24617 H 2377.11 1.57658 3.86588 0
M  V30 24618 H 2378.5 5.61441 3.69098 0
M  V30 24619 N 2381.22 -0.917649 1.28129 0
M  V30 24620 C 2382.47 -1.66095 1.14435 0
M  V30 24621 C 2382.78 -1.93172 -0.307213 0
M  V30 24622 O 2383.99 -2.65552 -0.565212 0
M  V30 24623 C 2382.44 -2.99199 2.0002 0
M  V30 24624 C 2382.05 -2.79783 3.49893 0
M  V30 24625 C 2383.8 -3.7706 1.95002 0
M  V30 24626 C 2381.7 -4.08503 4.27643 0
M  V30 24627 H 2380.63 -0.623032 0.424673 0
M  V30 24628 H 2383.28 -1.01865 1.52629 0
M  V30 24629 H 2381.67 -3.64542 1.54678 0
M  V30 24630 H 2382.84 -2.23145 4.03166 0
M  V30 24631 H 2381.15 -2.15339 3.56396 0
M  V30 24632 H 2383.75 -4.72465 2.50362 0
M  V30 24633 H 2384.09 -4.05873 0.92589 0
M  V30 24634 H 2384.63 -3.1853 2.38293 0
M  V30 24635 H 2381.37 -3.84865 5.30621 0
M  V30 24636 H 2380.89 -4.64768 3.79145 0
M  V30 24637 H 2382.57 -4.76791 4.37355 0
M  V30 24638 N 2382.7 -1.10314 -1.12555 0
M  V30 24639 C 2383.94 -0.854575 -1.85678 0
M  V30 24640 C 2384.3 0.608811 -1.82092 0
M  V30 24641 O 2385.5 0.973673 -2.50546 0
M  V30 24642 C 2383.77 -1.38632 -3.29418 0
M  V30 24643 S 2385.33 -1.273 -4.19929 0
M  V30 24644 H 2382.15 -0.308839 -0.640421 0
M  V30 24645 H 2384.75 -1.40833 -1.35596 0
M  V30 24646 H 2383.46 -2.44543 -3.29586 0
M  V30 24647 H 2382.99 -0.829087 -3.84564 0
M  V30 24648 H 2385 -0.229863 -4.95667 0
M  V30 24649 N 2384.18 1.29948 -0.891694 0
M  V30 24650 C 2385.13 2.25528 -0.334851 0
M  V30 24651 C 2386.11 1.51549 0.540526 0
M  V30 24652 O 2387.3 1.72788 0.383852 0
M  V30 24653 C 2384.43 3.40421 0.44368 0
M  V30 24654 C 2383.52 4.21747 -0.446164 0
M  V30 24655 N 2383.91 4.81474 -1.54972 0
M  V30 24656 C 2382.21 4.4534 -0.242494 0
M  V30 24657 C 2382.91 5.42461 -2.10025 0
M  V30 24658 N 2381.88 5.25414 -1.39433 0
M  V30 24659 H 2385.68 2.6926 -1.17797 0
M  V30 24660 H 2383.2 1.44466 -0.741848 0
M  V30 24661 H 2385.2 4.07948 0.859291 0
M  V30 24662 H 2383.86 2.98227 1.28416 0
M  V30 24663 H 2384.87 4.80493 -1.93252 0
M  V30 24664 H 2381.54 4.13724 0.56027 0
M  V30 24665 H 2382.93 5.99835 -3.02734 0
M  V30 24666 N 2385.65 0.653339 1.4342 0
M  V30 24667 C 2386.9 0.167027 2.02111 0
M  V30 24668 C 2387.23 -1.21589 1.51425 0
M  V30 24669 O 2386.51 -1.81179 0.707421 0
M  V30 24670 C 2386.79 0.178011 3.5966 0
M  V30 24671 C 2386.64 1.59485 4.20576 0
M  V30 24672 C 2387.96 -0.485523 4.37414 0
M  V30 24673 H 2385.08 0.0621686 0.734373 0
M  V30 24674 H 2387.72 0.834046 1.70715 0
M  V30 24675 H 2385.87 -0.389964 3.86538 0
M  V30 24676 H 2387.55 2.21343 4.04728 0
M  V30 24677 H 2385.79 2.1421 3.77222 0
M  V30 24678 H 2386.46 1.55439 5.29663 0
M  V30 24679 H 2388.94 -0.00227214 4.161 0
M  V30 24680 H 2387.81 -0.44711 5.47076 0
M  V30 24681 H 2388.07 -1.55966 4.13675 0
M  V30 24682 N 2387.13 -1.52563 0.395266 0
M  V30 24683 C 2388.09 -2.25226 -0.424961 0
M  V30 24684 C 2389.09 -1.27081 -0.985244 0
M  V30 24685 O 2390.28 -1.51132 -0.866305 0
M  V30 24686 C 2387.42 -3.01189 -1.59681 0
M  V30 24687 H 2388.61 -2.99155 0.211285 0
M  V30 24688 H 2386.16 -1.55602 0.1475 0
M  V30 24689 H 2386.9 -2.31576 -2.27031 0
M  V30 24690 H 2386.68 -3.73231 -1.2017 0
M  V30 24691 H 2388.17 -3.56343 -2.17736 0
M  V30 24692 N 2388.61 -0.125265 -1.57101 0
M  V30 24693 C 2390.03 0.231294 -1.57915 0
M  V30 24694 C 2390.23 1.66264 -1.13836 0
M  V30 24695 O 2389.28 2.38516 -0.828623 0
M  V30 24696 C 2390.59 -0.00771775 -3.00699 0
M  V30 24697 C 2392.14 0.0576933 -3.12947 0
M  V30 24698 C 2392.62 -0.153706 -4.57742 0
M  V30 24699 N 2394.11 -0.0998887 -4.63092 0
M  V30 24700 C 2394.84 -0.238274 -5.72905 0
M  V30 24701 N 2394.34 -0.433179 -6.91444 0
M  V30 24702 N 2396.13 -0.177406 -5.6182 0
M  V30 24703 H 2388.28 -1.0601 -1.84053 0
M  V30 24704 H 2390.55 -0.417944 -0.850898 0
M  V30 24705 H 2390.25 -0.99749 -3.37258 0
M  V30 24706 H 2390.13 0.721387 -3.70238 0
M  V30 24707 H 2392.51 1.038 -2.76242 0
M  V30 24708 H 2392.59 -0.703393 -2.45939 0
M  V30 24709 H 2392.24 -1.13101 -4.95147 0
M  V30 24710 H 2392.17 0.627442 -5.22849 0
M  V30 24711 H 2394.66 0.0469846 -3.77871 0
M  V30 24712 H 2394.97 -0.529468 -7.70984 0
M  V30 24713 H 2393.32 -0.469231 -6.93414 0
M  V30 24714 H 2396.51 -0.0260571 -4.68093 0
M  V30 24715 H 2396.68 -0.288696 -6.47357 0
M  V30 24716 N 2390.09 1.56899 0.148518 0
M  V30 24717 C 2391.03 1.98151 1.18341 0
M  V30 24718 C 2392 0.848873 1.4277 0
M  V30 24719 O 2393.19 1.11082 1.55131 0
M  V30 24720 C 2390.33 2.36598 2.51227 0
M  V30 24721 C 2389.44 3.63146 2.33985 0
M  V30 24722 C 2388.58 3.90703 3.59895 0
M  V30 24723 C 2387.62 5.10526 3.37683 0
M  V30 24724 N 2386.75 5.341 4.5572 0
M  V30 24725 H 2391.59 2.86363 0.82462 0
M  V30 24726 H 2389.13 1.41677 0.395731 0
M  V30 24727 H 2391.09 2.56918 3.28708 0
M  V30 24728 H 2389.72 1.51468 2.85057 0
M  V30 24729 H 2388.77 3.50612 1.47566 0
M  V30 24730 H 2390.08 4.50784 2.13531 0
M  V30 24731 H 2389.24 4.11512 4.45805 0
M  V30 24732 H 2387.98 3.01484 3.83352 0
M  V30 24733 H 2386.98 4.89591 2.50161 0
M  V30 24734 H 2388.21 6.01296 3.15627 0
M  V30 24735 H 2386.15 4.47836 4.79353 0
M  V30 24736 H 2386.07 6.16004 4.38263 0
M  V30 24737 H 2387.34 5.59407 5.42848 0
M  V30 24738 N 2391.57 -0.417818 1.51961 0
M  V30 24739 C 2392.48 -1.53333 1.77556 0
M  V30 24740 C 2393.49 -1.60969 0.660684 0
M  V30 24741 O 2394.67 -1.77846 0.945131 0
M  V30 24742 C 2391.73 -2.89148 1.91296 0
M  V30 24743 C 2390.79 -2.9147 3.15189 0
M  V30 24744 C 2390.03 -4.20808 3.28263 0
M  V30 24745 O 2390.25 -5.1424 2.46807 0
M  V30 24746 O 2389.18 -4.2981 4.21364 0
M  V30 24747 H 2393.01 -1.34642 2.72223 0
M  V30 24748 H 2390.59 -0.602804 1.36699 0
M  V30 24749 H 2392.48 -3.69717 2.02206 0
M  V30 24750 H 2391.15 -3.07925 0.998183 0
M  V30 24751 H 2390.06 -2.09786 3.09743 0
M  V30 24752 H 2391.39 -2.77641 4.06419 0
M  V30 24753 N 2393.04 -1.42436 -0.674508 0
M  V30 24754 C 2393.95 -1.4834 -1.81748 0
M  V30 24755 C 2394.97 -0.372129 -1.69974 0
M  V30 24756 O 2396.15 -0.623074 -1.9152 0
M  V30 24757 C 2393.21 -1.38367 -3.17892 0
M  V30 24758 C 2392.27 -2.59988 -3.41621 0
M  V30 24759 C 2391.5 -2.50481 -4.71269 0
M  V30 24760 O 2391.73 -1.54084 -5.49194 0
M  V30 24761 O 2390.66 -3.40619 -4.96248 0
M  V30 24762 H 2394.49 -2.44813 -1.79723 0
M  V30 24763 H 2392.07 -1.24204 -0.83029 0
M  V30 24764 H 2393.95 -1.35168 -3.99133 0
M  V30 24765 H 2392.63 -0.450201 -3.20554 0
M  V30 24766 H 2391.54 -2.68762 -2.60227 0
M  V30 24767 H 2392.87 -3.52235 -3.43789 0
M  V30 24768 N 2394.52 0.910841 -1.28614 0
M  V30 24769 C 2395.77 1.65486 -1.15314 0
M  V30 24770 C 2396.08 1.93333 0.296965 0
M  V30 24771 O 2397.29 2.65848 0.551121 0
M  V30 24772 C 2395.75 2.98134 -2.01604 0
M  V30 24773 C 2395.35 2.77924 -3.51372 0
M  V30 24774 C 2397.1 3.76021 -1.96999 0
M  V30 24775 C 2395 4.0623 -4.29804 0
M  V30 24776 H 2393.93 0.620771 -0.427971 0
M  V30 24777 H 2396.59 1.01054 -1.53167 0
M  V30 24778 H 2394.97 3.63716 -1.56609 0
M  V30 24779 H 2396.14 2.21003 -4.04344 0
M  V30 24780 H 2394.46 2.13446 -3.57533 0
M  V30 24781 H 2397.05 4.7113 -2.52864 0
M  V30 24782 H 2397.4 4.05376 -0.947401 0
M  V30 24783 H 2397.93 3.17262 -2.39979 0
M  V30 24784 H 2394.67 3.82046 -5.32655 0
M  V30 24785 H 2394.19 4.62751 -3.81604 0
M  V30 24786 H 2395.87 4.74465 -4.39877 0
M  V30 24787 N 2396 1.10909 1.11969 0
M  V30 24788 C 2396.93 0.784511 2.19927 0
M  V30 24789 C 2397.91 -0.244697 1.68331 0
M  V30 24790 O 2399.1 -0.109384 1.93892 0
M  V30 24791 C 2396.23 0.220888 3.46597 0
M  V30 24792 C 2395.18 1.18134 4.11374 0
M  V30 24793 C 2394.51 0.478688 5.32553 0
M  V30 24794 C 2395.81 2.52987 4.56941 0
M  V30 24795 H 2397.5 1.68719 2.47334 0
M  V30 24796 H 2395.05 0.812663 1.18877 0
M  V30 24797 H 2397 -0.0183538 4.21396 0
M  V30 24798 H 2395.72 -0.717057 3.18631 0
M  V30 24799 H 2394.38 1.40612 3.38561 0
M  V30 24800 H 2394.03 -0.463888 5.00856 0
M  V30 24801 H 2393.73 1.11922 5.76842 0
M  V30 24802 H 2395.25 0.248107 6.10096 0
M  V30 24803 H 2396.67 2.3463 5.23089 0
M  V30 24804 H 2395.07 3.12971 5.12025 0
M  V30 24805 H 2396.14 3.1262 3.70671 0
M  V30 24806 N 2397.48 -1.29474 0.898573 0
M  V30 24807 C 2398.41 -2.30185 0.392051 0
M  V30 24808 C 2399.39 -1.61556 -0.532331 0
M  V30 24809 O 2400.57 -1.89073 -0.443298 0
M  V30 24810 C 2397.7 -3.4519 -0.382293 0
M  V30 24811 C 2396.66 -4.25611 0.451558 0
M  V30 24812 C 2395.98 -5.32801 -0.450214 0
M  V30 24813 C 2397.28 -4.93829 1.70088 0
M  V30 24814 H 2398.98 -2.72802 1.23367 0
M  V30 24815 H 2396.52 -1.31148 0.594661 0
M  V30 24816 H 2398.48 -4.14719 -0.747378 0
M  V30 24817 H 2397.2 -3.01413 -1.25769 0
M  V30 24818 H 2395.86 -3.57788 0.79896 0
M  V30 24819 H 2395.51 -4.8527 -1.32371 0
M  V30 24820 H 2395.21 -5.87508 0.104005 0
M  V30 24821 H 2396.73 -6.05183 -0.811516 0
M  V30 24822 H 2398.15 -5.55802 1.40559 0
M  V30 24823 H 2396.54 -5.58463 2.19633 0
M  V30 24824 H 2397.61 -4.19182 2.43752 0
M  V30 24825 N 2398.96 -0.660936 -1.43071 0
M  V30 24826 C 2400.21 -0.17477 -2.00941 0
M  V30 24827 C 2400.52 1.22114 -1.52799 0
M  V30 24828 O 2401.72 1.80294 -2.02994 0
M  V30 24829 C 2400.18 -0.261622 -3.58948 0
M  V30 24830 C 2399.79 -1.66071 -4.16082 0
M  V30 24831 C 2401.53 0.166543 -4.24173 0
M  V30 24832 C 2399.44 -1.70108 -5.66407 0
M  V30 24833 H 2398.37 -0.0615763 -0.751481 0
M  V30 24834 H 2401.02 -0.824098 -1.63954 0
M  V30 24835 H 2399.4 0.455352 -3.93373 0
M  V30 24836 H 2400.58 -2.40366 -3.93142 0
M  V30 24837 H 2398.89 -2.03552 -3.63257 0
M  V30 24838 H 2401.49 0.156339 -5.34471 0
M  V30 24839 H 2401.83 1.19936 -3.98649 0
M  V30 24840 H 2402.36 -0.498945 -3.94659 0
M  V30 24841 H 2399.1 -2.71325 -5.9671 0
M  V30 24842 H 2398.62 -1.00149 -5.9138 0
M  V30 24843 H 2400.3 -1.44827 -6.30582 0
M  V30 24844 N 2400.43 1.52351 -0.403352 0
M  V30 24845 C 2401.38 2.26854 0.424972 0
M  V30 24846 C 2402.35 1.29031 1.04596 0
M  V30 24847 O 2403.54 1.57884 1.07132 0
M  V30 24848 C 2400.68 3.08892 1.53882 0
M  V30 24849 C 2399.79 4.21664 0.939322 0
M  V30 24850 C 2398.92 4.91072 2.02539 0
M  V30 24851 C 2397.96 5.95815 1.40252 0
M  V30 24852 N 2397.1 6.58763 2.42849 0
M  V30 24853 H 2401.94 2.9721 -0.216793 0
M  V30 24854 H 2399.48 1.4662 -0.118747 0
M  V30 24855 H 2401.44 3.54757 2.19552 0
M  V30 24856 H 2400.07 2.40717 2.1507 0
M  V30 24857 H 2399.12 3.80012 0.171831 0
M  V30 24858 H 2400.43 4.96818 0.444273 0
M  V30 24859 H 2399.58 5.40312 2.75948 0
M  V30 24860 H 2398.32 4.15473 2.55408 0
M  V30 24861 H 2397.33 5.459 0.653737 0
M  V30 24862 H 2398.55 6.73353 0.881601 0
M  V30 24863 H 2396.5 5.85998 2.94861 0
M  V30 24864 H 2396.42 7.29573 1.98139 0
M  V30 24865 H 2397.68 7.12644 3.15845 0
M  V30 24866 N 2401.91 0.133594 1.57033 0
M  V30 24867 C 2402.88 -0.796957 2.14898 0
M  V30 24868 C 2403.88 -1.18456 1.08742 0
M  V30 24869 O 2405.07 -1.10768 1.34447 0
M  V30 24870 C 2402.2 -2.07968 2.70115 0
M  V30 24871 H 2403.39 -0.29382 2.98457 0
M  V30 24872 H 2400.94 -0.115759 1.55871 0
M  V30 24873 H 2401.68 -2.62679 1.90185 0
M  V30 24874 H 2401.46 -1.81109 3.47767 0
M  V30 24875 H 2402.95 -2.74457 3.14743 0
M  V30 24876 N 2403.39 -1.56975 -0.140195 0
M  V30 24877 C 2404.35 -1.97863 -1.15685 0
M  V30 24878 C 2405.35 -0.865998 -1.35488 0
M  V30 24879 O 2406.54 -1.13248 -1.32365 0
M  V30 24880 C 2403.68 -2.30047 -2.51578 0
M  V30 24881 H 2404.87 -2.88868 -0.80592 0
M  V30 24882 H 2402.42 -1.51515 -0.383775 0
M  V30 24883 H 2403.16 -1.41854 -2.9163 0
M  V30 24884 H 2402.94 -3.11175 -2.38563 0
M  V30 24885 H 2404.43 -2.62494 -3.24787 0
M  V30 24886 N 2404.87 0.409753 -1.5218 0
M  V30 24887 C 2405.82 1.49921 -1.75478 0
M  V30 24888 C 2406.79 1.54993 -0.597202 0
M  V30 24889 O 2407.97 1.71574 -0.834685 0
M  V30 24890 C 2405.11 2.87375 -1.91076 0
M  V30 24891 C 2404.22 2.91617 -3.18722 0
M  V30 24892 C 2403.36 4.20366 -3.24755 0
M  V30 24893 C 2402.4 4.18581 -4.46606 0
M  V30 24894 N 2401.53 5.389 -4.50034 0
M  V30 24895 H 2406.37 1.29356 -2.6846 0
M  V30 24896 H 2403.91 0.627911 -1.33025 0
M  V30 24897 H 2405.87 3.67167 -1.98102 0
M  V30 24898 H 2404.5 3.06436 -1.01474 0
M  V30 24899 H 2403.55 2.0432 -3.2087 0
M  V30 24900 H 2404.86 2.86162 -4.08549 0
M  V30 24901 H 2404.02 5.0855 -3.3085 0
M  V30 24902 H 2402.76 4.28515 -2.32865 0
M  V30 24903 H 2401.76 3.28787 -4.40658 0
M  V30 24904 H 2402.99 4.12072 -5.3979 0
M  V30 24905 H 2400.93 5.47718 -3.61027 0
M  V30 24906 H 2400.85 5.35438 -5.33706 0
M  V30 24907 H 2402.12 6.2904 -4.60358 0
M  V30 24908 N 2406.35 1.42792 0.666944 0
M  V30 24909 C 2407.31 1.46571 1.76209 0
M  V30 24910 C 2408.31 0.352224 1.56895 0
M  V30 24911 O 2409.5 0.613393 1.63043 0
M  V30 24912 C 2406.63 1.305 3.14933 0
M  V30 24913 H 2407.82 2.44089 1.74243 0
M  V30 24914 H 2405.38 1.29355 0.877319 0
M  V30 24915 H 2406.11 0.339358 3.2252 0
M  V30 24916 H 2405.9 2.11205 3.30356 0
M  V30 24917 H 2407.39 1.36045 3.94818 0
M  V30 24918 N 2407.82 -0.904008 1.29095 0
M  V30 24919 C 2409.24 -1.18408 1.07013 0
M  V30 24920 C 2409.44 -2.00683 -0.181323 0
M  V30 24921 O 2408.5 -2.36658 -0.88029 0
M  V30 24922 C 2409.81 -1.9092 2.32314 0
M  V30 24923 C 2411.36 -2.03764 2.37591 0
M  V30 24924 C 2411.83 -2.79686 3.62684 0
M  V30 24925 N 2413.32 -2.87243 3.63381 0
M  V30 24926 C 2414.06 -3.46514 4.56854 0
M  V30 24927 N 2413.55 -4.06986 5.60655 0
M  V30 24928 N 2415.35 -3.44146 4.44432 0
M  V30 24929 H 2407.5 -0.354957 2.09413 0
M  V30 24930 H 2409.76 -0.219725 0.922185 0
M  V30 24931 H 2409.47 -1.37899 3.23538 0
M  V30 24932 H 2409.34 -2.9142 2.39488 0
M  V30 24933 H 2411.73 -2.55963 1.46858 0
M  V30 24934 H 2411.81 -1.02411 2.34405 0
M  V30 24935 H 2411.45 -2.28165 4.53766 0
M  V30 24936 H 2411.38 -3.81375 3.63126 0
M  V30 24937 H 2413.87 -2.44288 2.88325 0
M  V30 24938 H 2414.19 -4.50221 6.28109 0
M  V30 24939 H 2412.53 -4.05461 5.6447 0
M  V30 24940 H 2415.72 -2.9612 3.62534 0
M  V30 24941 H 2415.9 -3.90045 5.17464 0
M  V30 24942 N 2409.3 -1.11501 -1.11379 0
M  V30 24943 C 2410.55 -0.862556 -1.82769 0
M  V30 24944 C 2410.87 0.613501 -1.85098 0
M  V30 24945 O 2410.14 1.44568 -1.32201 0
M  V30 24946 H 2408.72 -0.316112 -0.676817 0
M  V30 24947 H 2411.38 -1.40753 -1.34813 0
M  V30 24948 H 2410.48 -1.23532 -2.86612 0
M  V30 24949 N 2410.78 1.28995 -0.905426 0
M  V30 24950 C 2411.71 2.29974 -0.404253 0
M  V30 24951 C 2412.69 1.61836 0.523755 0
M  V30 24952 O 2413.88 1.89305 0.433265 0
M  V30 24953 C 2411.01 3.45387 0.363981 0
M  V30 24954 C 2409.96 4.25366 -0.474123 0
M  V30 24955 C 2409.29 5.33033 0.421952 0
M  V30 24956 C 2410.59 4.9292 -1.72704 0
M  V30 24957 H 2412.28 2.72144 -1.24812 0
M  V30 24958 H 2409.83 1.30831 -0.601608 0
M  V30 24959 H 2411.78 4.1511 0.725374 0
M  V30 24960 H 2410.5 3.02076 1.24168 0
M  V30 24961 H 2409.16 3.57359 -0.817923 0
M  V30 24962 H 2408.81 4.85965 1.29796 0
M  V30 24963 H 2408.51 5.87445 -0.13516 0
M  V30 24964 H 2410.04 6.05605 0.77941 0
M  V30 24965 H 2411.45 5.55049 -1.43505 0
M  V30 24966 H 2409.85 5.57291 -2.22592 0
M  V30 24967 H 2410.92 4.17883 -2.45971 0
M  V30 24968 N 2412.26 0.668514 1.42719 0
M  V30 24969 C 2413.67 0.266184 1.84793 0
M  V30 24970 C 2414.02 -1.1904 1.55961 0
M  V30 24971 O 2413.15 -1.91053 1.01625 0
M  V30 24972 C 2413.74 0.47633 3.35435 0
M  V30 24973 C 2412.3 0.128179 3.76182 0
M  V30 24974 C 2411.45 0.771824 2.66342 0
M  V30 24975 H 2414.4 0.871121 1.32654 0
M  V30 24976 H 2414.42 -0.273494 3.79516 0
M  V30 24977 H 2413.93 1.53653 3.56388 0
M  V30 24978 H 2412.03 -0.928827 3.60837 0
M  V30 24979 H 2412.15 0.564315 4.75765 0
M  V30 24980 H 2410.51 0.203696 2.53884 0
M  V30 24981 H 2411.29 1.83536 2.9012 0
M  V30 24982 N 2413.74 -1.52135 0.411426 0
M  V30 24983 C 2414.98 -2.02137 -0.163852 0
M  V30 24984 C 2415.32 -1.29638 -1.44595 0
M  V30 24985 O 2414.59 -0.403387 -1.90271 0
M  V30 24986 C 2414.87 -3.57767 -0.409208 0
M  V30 24987 C 2414.73 -4.40913 0.889721 0
M  V30 24988 C 2416.05 -4.23697 -1.19035 0
M  V30 24989 H 2413.17 -0.734708 -0.0580766 0
M  V30 24990 H 2415.81 -1.82006 0.545342 0
M  V30 24991 H 2413.96 -3.75052 -1.01333 0
M  V30 24992 H 2415.63 -4.35334 1.52583 0
M  V30 24993 H 2413.87 -4.07034 1.50018 0
M  V30 24994 H 2414.54 -5.47889 0.672411 0
M  V30 24995 H 2417.02 -4.10525 -0.67887 0
M  V30 24996 H 2415.9 -5.32524 -1.33077 0
M  V30 24997 H 2416.16 -3.82807 -2.21159 0
M  V30 24998 N 2415.22 -0.14192 -1.5696 0
M  V30 24999 C 2416.44 0.517544 -2.00322 0
M  V30 25000 C 2416.86 1.5875 -1.02195 0
M  V30 25001 O 2416.22 1.82491 -0.018194 0
M  V30 25002 C 2416.27 1.12283 -3.4362 0
M  V30 25003 O 2415.99 0.0956159 -4.37996 0
M  V30 25004 C 2417.49 1.86339 -4.02234 0
M  V30 25005 H 2414.71 0.135166 -0.657245 0
M  V30 25006 H 2417.25 -0.235009 -2.03145 0
M  V30 25007 H 2415.41 1.82603 -3.41665 0
M  V30 25008 H 2415.82 0.538377 -5.2173 0
M  V30 25009 H 2417.3 2.23988 -5.04513 0
M  V30 25010 H 2417.77 2.74738 -3.42659 0
M  V30 25011 H 2418.38 1.2073 -4.07804 0
M  V30 25012 N 2416.69 1.57047 0.131868 0
M  V30 25013 C 2417.93 1.85982 0.84794 0
M  V30 25014 C 2418.3 0.728231 1.77654 0
M  V30 25015 O 2419.5 0.899012 2.5332 0
M  V30 25016 C 2417.77 3.20127 1.58914 0
M  V30 25017 S 2419.33 3.70659 2.34855 0
M  V30 25018 H 2416.15 0.652138 0.283262 0
M  V30 25019 H 2418.75 1.95207 0.107023 0
M  V30 25020 H 2417.45 4.00439 0.8987 0
M  V30 25021 H 2416.98 3.13947 2.37068 0
M  V30 25022 H 2419 3.41132 3.60338 0
M  V30 25023 N 2418.17 -0.401677 1.52395 0
M  V30 25024 C 2419.08 -1.51441 1.79173 0
M  V30 25025 C 2420.1 -1.60259 0.67772 0
M  V30 25026 O 2421.27 -1.76834 0.96394 0
M  V30 25027 C 2418.34 -2.87103 1.94352 0
M  V30 25028 C 2417.4 -2.8811 3.18262 0
M  V30 25029 C 2416.63 -4.17302 3.32708 0
M  V30 25030 O 2416.86 -5.11593 2.52247 0
M  V30 25031 O 2415.79 -4.25316 4.25899 0
M  V30 25032 H 2419.62 -1.31747 2.73635 0
M  V30 25033 H 2417.2 -0.588272 1.37331 0
M  V30 25034 H 2419.08 -3.67552 2.06116 0
M  V30 25035 H 2417.76 -3.06849 1.03079 0
M  V30 25036 H 2416.66 -2.06489 3.11951 0
M  V30 25037 H 2418 -2.73315 4.09341 0
M  V30 25038 N 2419.65 -1.43144 -0.659362 0
M  V30 25039 C 2420.9 -1.44649 -1.42142 0
M  V30 25040 C 2421.23 -0.0682248 -1.9408 0
M  V30 25041 O 2420.5 0.909977 -1.719 0
M  V30 25042 C 2420.79 -2.48378 -2.60731 0
M  V30 25043 C 2420.64 -3.95455 -2.14325 0
M  V30 25044 C 2421.96 -2.48913 -3.62947 0
M  V30 25045 H 2419.08 -0.526705 -0.515511 0
M  V30 25046 H 2421.72 -1.74655 -0.748038 0
M  V30 25047 H 2419.87 -2.22921 -3.1818 0
M  V30 25048 H 2421.54 -4.31947 -1.61925 0
M  V30 25049 H 2419.78 -4.08581 -1.45753 0
M  V30 25050 H 2420.46 -4.63637 -2.99575 0
M  V30 25051 H 2422.93 -2.71587 -3.15245 0
M  V30 25052 H 2421.81 -3.23443 -4.43482 0
M  V30 25053 H 2422.07 -1.52068 -4.15124 0
M  V30 25054 N 2421.13 0.897149 -1.29572 0
M  V30 25055 C 2422.09 1.9831 -1.14917 0
M  V30 25056 C 2423.09 1.60581 -0.0838911 0
M  V30 25057 O 2424.28 1.71026 -0.331036 0
M  V30 25058 C 2421.41 3.32368 -0.757893 0
M  V30 25059 H 2422.61 2.1274 -2.11381 0
M  V30 25060 H 2420.16 1.08199 -1.12795 0
M  V30 25061 H 2420.89 3.2364 0.20678 0
M  V30 25062 H 2420.68 3.61118 -1.52761 0
M  V30 25063 H 2422.17 4.12051 -0.67848 0
M  V30 25064 N 2422.61 1.1209 1.10786 0
M  V30 25065 C 2424.02 0.888939 1.64179 0
M  V30 25066 C 2424.37 -0.577465 1.87509 0
M  V30 25067 O 2423.49 -1.44109 1.61436 0
M  V30 25068 C 2424.09 1.60717 2.98254 0
M  V30 25069 C 2422.65 1.42145 3.48528 0
M  V30 25070 C 2421.79 1.64544 2.23205 0
M  V30 25071 H 2424.74 1.27619 0.943346 0
M  V30 25072 H 2424.77 1.05611 3.6555 0
M  V30 25073 H 2424.28 2.67441 2.81242 0
M  V30 25074 H 2422.38 0.376617 3.70692 0
M  V30 25075 H 2422.49 2.17512 4.26879 0
M  V30 25076 H 2420.86 1.06929 2.31167 0
M  V30 25077 H 2421.64 2.72557 2.08728 0
M  V30 25078 N 2424.08 -1.28513 0.912254 0
M  V30 25079 C 2425.03 -2.24966 0.370688 0
M  V30 25080 C 2426.02 -1.5239 -0.516348 0
M  V30 25081 O 2427.21 -1.73376 -0.356314 0
M  V30 25082 C 2424.34 -3.41084 -0.389466 0
M  V30 25083 C 2423.42 -4.20983 0.513204 0
M  V30 25084 N 2423.82 -4.78948 1.62612 0
M  V30 25085 C 2422.11 -4.44898 0.313313 0
M  V30 25086 C 2422.81 -5.39051 2.18628 0
M  V30 25087 N 2421.79 -5.23129 1.47774 0
M  V30 25088 H 2425.59 -2.67352 1.22066 0
M  V30 25089 H 2423.11 -1.43267 0.764737 0
M  V30 25090 H 2425.1 -4.09264 -0.794281 0
M  V30 25091 H 2423.76 -3.00232 -1.23655 0
M  V30 25092 H 2424.77 -4.77358 2.00872 0
M  V30 25093 H 2421.45 -4.14563 -0.494379 0
M  V30 25094 H 2422.84 -5.94942 3.12239 0
M  V30 25095 N 2425.56 -0.676073 -1.42362 0
M  V30 25096 C 2426.51 0.0242502 -2.27987 0
M  V30 25097 C 2427.5 0.772294 -1.41154 0
M  V30 25098 O 2428.69 0.650996 -1.64594 0
M  V30 25099 C 2425.82 0.973895 -3.29196 0
M  V30 25100 C 2424.9 0.223127 -4.23513 0
M  V30 25101 N 2425.29 -0.772677 -4.99863 0
M  V30 25102 C 2423.59 0.461391 -4.43607 0
M  V30 25103 C 2424.29 -1.22037 -5.68755 0
M  V30 25104 N 2423.27 -0.55007 -5.4081 0
M  V30 25105 H 2427.07 -0.73954 -2.84443 0
M  V30 25106 H 2424.59 -0.505247 -1.54341 0
M  V30 25107 H 2426.58 1.4906 -3.89341 0
M  V30 25108 H 2425.24 1.7375 -2.74301 0
M  V30 25109 H 2426.25 -1.15226 -5.04919 0
M  V30 25110 H 2422.93 1.20439 -3.99751 0
M  V30 25111 H 2424.32 -2.04562 -6.40003 0
M  V30 25112 N 2427.04 1.51915 -0.419488 0
M  V30 25113 C 2427.97 2.3019 0.391772 0
M  V30 25114 C 2428.95 1.34837 1.03696 0
M  V30 25115 O 2430.14 1.6375 1.04401 0
M  V30 25116 C 2427.27 3.1309 1.50306 0
M  V30 25117 C 2426.22 4.16575 0.982327 0
M  V30 25118 C 2425.55 4.87884 2.18801 0
M  V30 25119 C 2426.85 5.22292 0.0291438 0
M  V30 25120 H 2428.54 2.98257 -0.261402 0
M  V30 25121 H 2426.09 1.43437 -0.127159 0
M  V30 25122 H 2428.04 3.66621 2.07767 0
M  V30 25123 H 2426.76 2.42811 2.18427 0
M  V30 25124 H 2425.42 3.64069 0.430055 0
M  V30 25125 H 2425.07 4.14124 2.855 0
M  V30 25126 H 2424.77 5.57848 1.84605 0
M  V30 25127 H 2426.29 5.44231 2.76848 0
M  V30 25128 H 2427.71 5.71001 0.512875 0
M  V30 25129 H 2426.11 5.9968 -0.224505 0
M  V30 25130 H 2427.18 4.76227 -0.913015 0
M  V30 25131 N 2428.52 0.150242 1.56882 0
M  V30 25132 C 2429.77 -0.500058 1.96229 0
M  V30 25133 C 2430.09 -1.64659 1.03525 0
M  V30 25134 O 2429.35 -1.95592 0.0651027 0
M  V30 25135 C 2429.65 -1.04431 3.41802 0
M  V30 25136 C 2429.31 -0.0158879 4.50897 0
M  V30 25137 C 2427.98 0.266816 4.8046 0
M  V30 25138 C 2430.33 0.683282 5.16702 0
M  V30 25139 C 2427.66 1.25444 5.73132 0
M  V30 25140 C 2430.01 1.65975 6.10439 0
M  V30 25141 C 2428.67 1.95012 6.38378 0
M  V30 25142 H 2427.94 -0.182984 0.718051 0
M  V30 25143 H 2430.59 0.237757 1.90018 0
M  V30 25144 H 2428.89 -1.85953 3.4486 0
M  V30 25145 H 2430.59 -1.55611 3.69576 0
M  V30 25146 H 2427.18 -0.24641 4.27891 0
M  V30 25147 H 2431.36 0.47807 4.93992 0
M  V30 25148 H 2426.62 1.48581 5.93071 0
M  V30 25149 H 2430.79 2.207 6.60503 0
M  V30 25150 H 2428.42 2.71691 7.09992 0
M  V30 25151 N 2430 -1.57115 -0.123538 0
M  V30 25152 C 2430.93 -2.03044 -1.15305 0
M  V30 25153 C 2431.91 -0.914086 -1.43452 0
M  V30 25154 O 2433.09 -1.18349 -1.53971 0
M  V30 25155 C 2430.22 -2.43093 -2.48038 0
M  V30 25156 C 2429.18 -3.58131 -2.34363 0
M  V30 25157 C 2428.5 -3.84065 -3.72019 0
M  V30 25158 C 2429.8 -4.9001 -1.80796 0
M  V30 25159 H 2431.5 -2.89301 -0.771051 0
M  V30 25160 H 2429.04 -1.3918 -0.369455 0
M  V30 25161 H 2431 -2.73828 -3.20306 0
M  V30 25162 H 2429.72 -1.53801 -2.88119 0
M  V30 25163 H 2428.38 -3.27598 -1.64545 0
M  V30 25164 H 2428.03 -2.91986 -4.09577 0
M  V30 25165 H 2427.73 -4.61496 -3.63724 0
M  V30 25166 H 2429.25 -4.17248 -4.45799 0
M  V30 25167 H 2430.66 -5.19311 -2.42877 0
M  V30 25168 H 2429.06 -5.7141 -1.83333 0
M  V30 25169 H 2430.13 -4.78824 -0.765196 0
M  V30 25170 N 2431.47 0.393589 -1.52606 0
M  V30 25171 C 2432.7 1.16492 -1.71594 0
M  V30 25172 C 2433.12 1.83087 -0.431363 0
M  V30 25173 O 2432.48 1.70641 0.612493 0
M  V30 25174 C 2432.53 2.19208 -2.86322 0
M  V30 25175 O 2431.63 3.25695 -2.52975 0
M  V30 25176 H 2430.98 0.33934 -0.57074 0
M  V30 25177 H 2433.51 0.459289 -1.99378 0
M  V30 25178 H 2433.52 2.63281 -3.11684 0
M  V30 25179 H 2432.19 1.70123 -3.79514 0
M  V30 25180 H 2430.77 2.86792 -2.38337 0
M  V30 25181 N 2432.95 1.43492 0.651762 0
M  V30 25182 C 2433.9 1.45208 1.7578 0
M  V30 25183 C 2434.89 0.320355 1.57679 0
M  V30 25184 O 2436.08 0.56424 1.67766 0
M  V30 25185 C 2433.21 1.37925 3.14375 0
M  V30 25186 C 2432.29 2.56133 3.38019 0
M  V30 25187 N 2432.68 3.81477 3.32128 0
M  V30 25188 C 2430.98 2.50888 3.68743 0
M  V30 25189 C 2431.68 4.60125 3.55893 0
M  V30 25190 N 2430.66 3.90878 3.77776 0
M  V30 25191 H 2434.46 2.3999 1.69653 0
M  V30 25192 H 2431.98 1.38164 0.853484 0
M  V30 25193 H 2433.97 1.37238 3.93664 0
M  V30 25194 H 2432.63 0.441653 3.21682 0
M  V30 25195 H 2433.64 4.13743 3.11507 0
M  V30 25196 H 2430.32 1.65823 3.83157 0
M  V30 25197 H 2431.71 5.69144 3.57106 0
M  V30 25198 N 2434.43 -0.890264 1.30046 0
M  V30 25199 C 2435.71 -1.6226 1.0923 0
M  V30 25200 C 2436.09 -2.08003 -0.360268 0
M  V30 25201 O 2435.44 -1.84297 -1.35081 0
M  V30 25202 C 2435.65 -2.79619 2.0884 0
M  V30 25203 C 2436.99 -3.50078 2.40272 0
M  V30 25204 O 2438.02 -2.898 2.07109 0
M  V30 25205 O 2436.88 -4.58768 2.96975 0
M  V30 25206 H 2433.97 -0.712914 0.419145 0
M  V30 25207 H 2436.52 -0.937504 1.41453 0
M  V30 25208 H 2435.29 -2.43083 3.06637 0
M  V30 25209 H 2434.91 -3.55828 1.77403 0
M  V30 25210 N 2435.91 -1.12676 -1.1019 0
M  V30 25211 C 2437.19 -0.794997 -1.78715 0
M  V30 25212 C 2437.57 0.714818 -1.98629 0
M  V30 25213 O 2436.91 1.64939 -1.58138 0
M  V30 25214 C 2437.12 -1.57296 -3.11543 0
M  V30 25215 C 2438.47 -1.76059 -3.86379 0
M  V30 25216 O 2439.5 -1.53829 -3.21271 0
M  V30 25217 O 2438.35 -2.13096 -5.03242 0
M  V30 25218 H 2435.45 -0.289437 -0.774697 0
M  V30 25219 H 2437.99 -1.23093 -1.16817 0
M  V30 25220 H 2436.77 -2.5994 -2.92484 0
M  V30 25221 H 2436.39 -1.13144 -3.81162 0
M  V30 25222 N 2437.39 1.28028 -0.919057 0
M  V30 25223 C 2438.32 2.29532 -0.428622 0
M  V30 25224 C 2439.3 1.62382 0.506561 0
M  V30 25225 O 2440.48 1.89754 0.413162 0
M  V30 25226 C 2437.61 3.45754 0.327328 0
M  V30 25227 C 2436.57 4.24839 -0.519212 0
M  V30 25228 C 2435.89 5.3345 0.365393 0
M  V30 25229 C 2437.19 4.91061 -1.77923 0
M  V30 25230 H 2438.89 2.70805 -1.27692 0
M  V30 25231 H 2436.43 1.30185 -0.615451 0
M  V30 25232 H 2438.39 4.15856 0.681305 0
M  V30 25233 H 2437.11 3.03376 1.20957 0
M  V30 25234 H 2435.77 3.56472 -0.855779 0
M  V30 25235 H 2435.42 4.87314 1.24634 0
M  V30 25236 H 2435.12 5.87268 -0.197459 0
M  V30 25237 H 2436.64 6.06398 0.715134 0
M  V30 25238 H 2438.05 5.53496 -1.49384 0
M  V30 25239 H 2436.45 5.54898 -2.2849 0
M  V30 25240 H 2437.52 4.15251 -2.50389 0
M  V30 25241 N 2438.86 0.683613 1.42002 0
M  V30 25242 C 2439.77 0.0109488 2.34597 0
M  V30 25243 C 2440.79 -0.779218 1.55577 0
M  V30 25244 O 2441.97 -0.719522 1.88109 0
M  V30 25245 C 2439.03 -0.922529 3.34201 0
M  V30 25246 C 2438.09 -0.125908 4.29115 0
M  V30 25247 C 2437.33 -1.01493 5.23961 0
M  V30 25248 O 2437.55 -2.25447 5.23956 0
M  V30 25249 O 2436.48 -0.471004 6.00054 0
M  V30 25250 H 2440.31 0.773904 2.93674 0
M  V30 25251 H 2437.89 0.443886 1.42653 0
M  V30 25252 H 2439.78 -1.45816 3.95368 0
M  V30 25253 H 2438.45 -1.66518 2.77585 0
M  V30 25254 H 2437.36 0.454034 3.71335 0
M  V30 25255 H 2438.69 0.577822 4.88797 0
M  V30 25256 N 2440.34 -1.5169 0.427538 0
M  V30 25257 C 2441.76 -1.59403 0.0793258 0
M  V30 25258 C 2441.96 -1.43917 -1.41033 0
M  V30 25259 O 2441.02 -1.27543 -2.1792 0
M  V30 25260 C 2442.33 -2.94841 0.590688 0
M  V30 25261 C 2443.88 -3.08125 0.550269 0
M  V30 25262 C 2444.35 -4.46072 1.03844 0
M  V30 25263 N 2445.84 -4.52364 0.996023 0
M  V30 25264 C 2446.58 -5.57409 1.34473 0
M  V30 25265 N 2446.07 -6.69919 1.76581 0
M  V30 25266 N 2447.87 -5.47715 1.26352 0
M  V30 25267 H 2440.02 -1.60002 1.39689 0
M  V30 25268 H 2442.28 -0.753698 0.575016 0
M  V30 25269 H 2441.99 -3.11513 1.63257 0
M  V30 25270 H 2441.86 -3.77199 0.0102724 0
M  V30 25271 H 2444.25 -2.91127 -0.482603 0
M  V30 25272 H 2444.33 -2.2763 1.16697 0
M  V30 25273 H 2443.97 -4.63815 2.06973 0
M  V30 25274 H 2443.9 -5.25091 0.398378 0
M  V30 25275 H 2446.39 -3.71609 0.686675 0
M  V30 25276 H 2446.71 -7.46081 2.01451 0
M  V30 25277 H 2445.05 -6.71152 1.80499 0
M  V30 25278 H 2448.24 -4.58702 0.933289 0
M  V30 25279 H 2448.42 -6.2947 1.53857 0
M  V30 25280 N 2441.82 -0.15856 -1.568 0
M  V30 25281 C 2442.75 0.77257 -2.20349 0
M  V30 25282 C 2443.73 1.24857 -1.1552 0
M  V30 25283 O 2444.92 1.30404 -1.43905 0
M  V30 25284 C 2442.05 2.00724 -2.83421 0
M  V30 25285 C 2441 1.66758 -3.94177 0
M  V30 25286 C 2440.33 2.97584 -4.44238 0
M  V30 25287 C 2441.63 0.905357 -5.14393 0
M  V30 25288 H 2443.32 0.242906 -2.98413 0
M  V30 25289 H 2440.87 0.115393 -1.43537 0
M  V30 25290 H 2442.82 2.66354 -3.26548 0
M  V30 25291 H 2441.54 2.56082 -2.02705 0
M  V30 25292 H 2440.2 1.03502 -3.51686 0
M  V30 25293 H 2439.85 3.50957 -3.60331 0
M  V30 25294 H 2439.55 2.75617 -5.1895 0
M  V30 25295 H 2441.08 3.64266 -4.90044 0
M  V30 25296 H 2442.49 1.46398 -5.54293 0
M  V30 25297 H 2440.89 0.785195 -5.94941 0
M  V30 25298 H 2441.96 -0.100753 -4.84795 0
M  V30 25299 N 2443.3 1.57178 0.115204 0
M  V30 25300 C 2444.55 1.84686 0.820694 0
M  V30 25301 C 2444.87 0.74431 1.80236 0
M  V30 25302 O 2444.14 -0.231341 1.94529 0
M  V30 25303 H 2442.72 0.681417 0.306072 0
M  V30 25304 H 2445.38 1.94635 0.101622 0
M  V30 25305 H 2444.48 2.80735 1.36361 0
M  V30 25306 N 2444.78 -0.38549 1.52813 0
M  V30 25307 C 2446.19 -0.963265 1.59932 0
M  V30 25308 C 2446.54 -1.90867 0.454335 0
M  V30 25309 O 2445.66 -2.12244 -0.422094 0
M  V30 25310 C 2446.26 -1.75381 2.89874 0
M  V30 25311 C 2444.82 -2.28124 2.99393 0
M  V30 25312 C 2443.97 -1.08779 2.55073 0
M  V30 25313 H 2446.92 -0.164921 1.57841 0
M  V30 25314 H 2446.94 -2.61336 2.76557 0
M  V30 25315 H 2446.45 -1.06548 3.73188 0
M  V30 25316 H 2444.55 -3.00259 2.20624 0
M  V30 25317 H 2444.66 -2.5737 4.04101 0
M  V30 25318 H 2443.03 -1.44886 2.09476 0
M  V30 25319 H 2443.81 -0.414747 3.40785 0
M  V30 25320 N 2446.26 -1.43835 -0.644143 0
M  V30 25321 C 2447.5 -1.45644 -1.40115 0
M  V30 25322 C 2447.82 -0.0852755 -1.94813 0
M  V30 25323 O 2447.09 0.880657 -1.74989 0
M  V30 25324 H 2445.67 -0.536253 -0.520041 0
M  V30 25325 H 2448.34 -1.79511 -0.759069 0
M  V30 25326 H 2447.43 -2.17431 -2.23898 0
M  V30 25327 N 2447.73 0.883355 -1.30517 0
M  V30 25328 C 2448.68 1.98925 -1.17036 0
M  V30 25329 C 2449.65 1.65994 -0.0594533 0
M  V30 25330 O 2450.84 1.8941 -0.229929 0
M  V30 25331 C 2447.98 3.33958 -0.869835 0
M  V30 25332 C 2447.09 3.7957 -2.06278 0
M  V30 25333 C 2446.22 5.03256 -1.7002 0
M  V30 25334 C 2445.26 5.41281 -2.858 0
M  V30 25335 N 2444.4 6.56148 -2.49828 0
M  V30 25336 H 2449.24 2.09788 -2.11644 0
M  V30 25337 H 2446.78 1.02717 -1.05297 0
M  V30 25338 H 2448.73 4.11683 -0.676211 0
M  V30 25339 H 2447.36 3.22776 0.0393764 0
M  V30 25340 H 2446.42 2.9774 -2.3676 0
M  V30 25341 H 2447.73 4.03689 -2.92979 0
M  V30 25342 H 2446.88 5.88612 -1.47042 0
M  V30 25343 H 2445.62 4.81012 -0.804913 0
M  V30 25344 H 2444.63 4.54451 -3.09442 0
M  V30 25345 H 2445.85 5.65497 -3.76018 0
M  V30 25346 H 2443.8 6.35476 -1.62806 0
M  V30 25347 H 2443.71 6.80145 -3.3006 0
M  V30 25348 H 2444.98 7.44731 -2.3021 0
M  V30 25349 N 2449.21 1.13259 1.09591 0
M  V30 25350 C 2450.46 0.891524 1.81373 0
M  V30 25351 C 2450.78 -0.583976 1.8605 0
M  V30 25352 O 2450.05 -1.42446 1.34484 0
M  V30 25353 H 2448.63 0.32684 0.671703 0
M  V30 25354 H 2451.29 1.4288 1.32557 0
M  V30 25355 H 2450.39 1.28076 2.8461 0
M  V30 25356 N 2450.69 -1.27539 0.925834 0
M  V30 25357 C 2451.6 -2.30644 0.429034 0
M  V30 25358 C 2452.62 -1.66977 -0.489358 0
M  V30 25359 O 2453.79 -1.97923 -0.372618 0
M  V30 25360 C 2450.86 -3.45294 -0.311906 0
M  V30 25361 C 2449.92 -4.24485 0.641173 0
M  V30 25362 C 2449.15 -5.33661 -0.0645016 0
M  V30 25363 O 2449.37 -5.55756 -1.28419 0
M  V30 25364 O 2448.31 -5.98838 0.606371 0
M  V30 25365 H 2452.13 -2.75171 1.28509 0
M  V30 25366 H 2449.72 -1.32454 0.691109 0
M  V30 25367 H 2451.6 -4.15031 -0.729899 0
M  V30 25368 H 2450.28 -3.02826 -1.1436 0
M  V30 25369 H 2449.18 -3.5729 1.10881 0
M  V30 25370 H 2450.52 -4.70663 1.44003 0
M  V30 25371 N 2452.17 -0.691135 -1.41637 0
M  V30 25372 C 2453.41 -0.220555 -2.01597 0
M  V30 25373 C 2453.75 1.17532 -1.54596 0
M  V30 25374 O 2453.02 1.7924 -0.755209 0
M  V30 25375 C 2453.3 -0.273306 -3.59061 0
M  V30 25376 C 2453.16 -1.7058 -4.162 0
M  V30 25377 C 2454.48 0.36938 -4.38547 0
M  V30 25378 H 2451.6 -0.0816173 -0.732467 0
M  V30 25379 H 2454.24 -0.879015 -1.68444 0
M  V30 25380 H 2452.39 0.287343 -3.87436 0
M  V30 25381 H 2454.06 -2.31996 -3.98718 0
M  V30 25382 H 2452.3 -2.24136 -3.7141 0
M  V30 25383 H 2452.97 -1.69428 -5.25355 0
M  V30 25384 H 2455.45 -0.10805 -4.1596 0
M  V30 25385 H 2454.33 0.301906 -5.48069 0
M  V30 25386 H 2454.59 1.44944 -4.17665 0
M  V30 25387 N 2453.65 1.51461 -0.435577 0
M  V30 25388 C 2455.06 1.59358 -0.0877782 0
M  V30 25389 C 2455.26 1.44663 1.40267 0
M  V30 25390 O 2454.32 1.28696 2.17241 0
M  V30 25391 C 2455.63 2.94524 -0.606316 0
M  V30 25392 C 2457.18 3.07829 -0.566602 0
M  V30 25393 C 2457.65 4.45515 -1.06208 0
M  V30 25394 N 2459.14 4.5183 -1.02 0
M  V30 25395 C 2459.88 5.56688 -1.37427 0
M  V30 25396 N 2459.38 6.68973 -1.80131 0
M  V30 25397 N 2461.17 5.47037 -1.29255 0
M  V30 25398 H 2453.32 1.59259 -1.40536 0
M  V30 25399 H 2455.58 0.750638 -0.579005 0
M  V30 25400 H 2455.29 3.10642 -1.64906 0
M  V30 25401 H 2455.16 3.77188 -0.030276 0
M  V30 25402 H 2457.55 2.91379 0.467157 0
M  V30 25403 H 2457.63 2.27008 -1.17902 0
M  V30 25404 H 2457.27 4.62711 -2.0943 0
M  V30 25405 H 2457.2 5.24872 -0.426219 0
M  V30 25406 H 2459.7 3.7124 -0.706373 0
M  V30 25407 H 2460.01 7.45002 -2.05405 0
M  V30 25408 H 2458.35 6.70185 -1.84056 0
M  V30 25409 H 2461.54 4.582 -0.957602 0
M  V30 25410 H 2461.72 6.28645 -1.57193 0
M  V30 25411 N 2455.12 0.166873 1.56714 0
M  V30 25412 C 2456.54 -0.350614 1.83378 0
M  V30 25413 C 2456.89 -1.6337 1.08649 0
M  V30 25414 O 2456.01 -2.13743 0.338096 0
M  V30 25415 C 2456.61 -0.642905 3.32644 0
M  V30 25416 C 2455.17 -1.10485 3.5982 0
M  V30 25417 C 2454.31 -0.138363 2.76955 0
M  V30 25418 H 2457.26 0.39122 1.53802 0
M  V30 25419 H 2457.28 -1.49545 3.49881 0
M  V30 25420 H 2456.8 0.291123 3.87007 0
M  V30 25421 H 2454.9 -2.05413 3.10864 0
M  V30 25422 H 2455.01 -1.01708 4.6818 0
M  V30 25423 H 2453.37 -0.634868 2.46661 0
M  V30 25424 H 2454.16 0.789608 3.34096 0
M  V30 25425 N 2456.6 -1.57237 -0.106866 0
M  V30 25426 C 2457.51 -2.04532 -1.14907 0
M  V30 25427 C 2458.53 -0.967975 -1.4459 0
M  V30 25428 O 2459.7 -1.28033 -1.55465 0
M  V30 25429 C 2456.77 -2.4504 -2.45267 0
M  V30 25430 C 2455.83 -3.66914 -2.22873 0
M  V30 25431 C 2455.06 -4.05481 -3.47017 0
M  V30 25432 O 2455.29 -3.4426 -4.54798 0
M  V30 25433 O 2454.22 -4.9851 -3.37301 0
M  V30 25434 H 2458.05 -2.93581 -0.777409 0
M  V30 25435 H 2455.63 -1.45965 -0.318538 0
M  V30 25436 H 2457.51 -2.71775 -3.2205 0
M  V30 25437 H 2456.19 -1.59134 -2.81883 0
M  V30 25438 H 2455.1 -3.45313 -1.43909 0
M  V30 25439 H 2456.43 -4.53564 -1.91155 0
M  V30 25440 N 2458.08 0.377381 -1.53015 0
M  V30 25441 C 2459.01 1.46788 -1.81592 0
M  V30 25442 C 2459.99 1.56407 -0.66865 0
M  V30 25443 O 2461.18 1.71167 -0.917367 0
M  V30 25444 C 2458.31 2.84267 -1.99524 0
M  V30 25445 C 2457.26 2.8948 -3.15254 0
M  V30 25446 C 2456.59 4.29521 -3.18459 0
M  V30 25447 C 2457.89 2.58071 -4.54089 0
M  V30 25448 H 2459.58 1.23123 -2.72912 0
M  V30 25449 H 2457.13 0.59086 -1.3132 0
M  V30 25450 H 2459.08 3.60571 -2.18098 0
M  V30 25451 H 2457.8 3.09294 -1.04903 0
M  V30 25452 H 2456.46 2.15626 -2.96481 0
M  V30 25453 H 2456.11 4.51606 -2.21498 0
M  V30 25454 H 2455.81 4.33927 -3.96208 0
M  V30 25455 H 2457.33 5.07715 -3.39202 0
M  V30 25456 H 2458.75 3.2409 -4.72904 0
M  V30 25457 H 2457.15 2.73811 -5.33992 0
M  V30 25458 H 2458.22 1.53364 -4.60008 0
M  V30 25459 N 2459.56 1.44175 0.636506 0
M  V30 25460 C 2460.81 1.46385 1.39341 0
M  V30 25461 C 2461.13 0.0956057 1.94765 0
M  V30 25462 O 2460.4 -0.871365 1.75454 0
M  V30 25463 H 2458.98 0.539003 0.517189 0
M  V30 25464 H 2461.64 1.79911 0.749538 0
M  V30 25465 H 2460.74 2.18615 2.22742 0
M  V30 25466 N 2461.04 -0.876421 1.30983 0
M  V30 25467 C 2462.26 -1.66713 1.23376 0
M  V30 25468 C 2462.69 -1.87046 -0.198817 0
M  V30 25469 O 2462.04 -1.40758 -1.14267 0
M  V30 25470 C 2462.09 -3.01608 1.97649 0
M  V30 25471 O 2461.2 -3.9106 1.30942 0
M  V30 25472 H 2460.54 -0.509092 0.426288 0
M  V30 25473 H 2463.07 -1.0932 1.72946 0
M  V30 25474 H 2463.08 -3.5159 2.06998 0
M  V30 25475 H 2461.75 -2.86128 3.01834 0
M  V30 25476 H 2460.33 -3.49505 1.30003 0
M  V30 25477 N 2462.51 -1.13839 -1.08989 0
M  V30 25478 C 2463.93 -0.877529 -1.3331 0
M  V30 25479 C 2464.13 0.484526 -1.95588 0
M  V30 25480 O 2463.19 1.23009 -2.20511 0
M  V30 25481 C 2464.5 -2.00564 -2.24042 0
M  V30 25482 C 2466.05 -2.03825 -2.37538 0
M  V30 25483 C 2466.52 -3.15911 -3.31608 0
M  V30 25484 N 2468.01 -3.15451 -3.39183 0
M  V30 25485 C 2468.75 -3.98818 -4.11985 0
M  V30 25486 N 2468.24 -4.92211 -4.87545 0
M  V30 25487 N 2470.04 -3.86901 -4.07755 0
M  V30 25488 H 2462.19 -2.01575 -0.66942 0
M  V30 25489 H 2464.45 -0.878021 -0.357466 0
M  V30 25490 H 2464.16 -2.98792 -1.85516 0
M  V30 25491 H 2464.03 -1.92364 -3.24462 0
M  V30 25492 H 2466.42 -1.06207 -2.75326 0
M  V30 25493 H 2466.5 -2.16096 -1.36881 0
M  V30 25494 H 2466.14 -4.13771 -2.94543 0
M  V30 25495 H 2466.07 -3.00878 -4.32181 0
M  V30 25496 H 2468.56 -2.47804 -2.8531 0
M  V30 25497 H 2468.88 -5.52302 -5.40539 0
M  V30 25498 H 2467.22 -4.96214 -4.86618 0
M  V30 25499 H 2470.41 -3.13263 -3.47828 0
M  V30 25500 H 2470.59 -4.521 -4.6423 0
M  V30 25501 N 2463.99 1.27046 -0.932584 0
M  V30 25502 C 2464.92 2.25809 -0.392774 0
M  V30 25503 C 2465.94 1.55587 0.479213 0
M  V30 25504 O 2467.13 1.76111 0.291047 0
M  V30 25505 C 2464.23 3.35826 0.455397 0
M  V30 25506 C 2463.4 4.35582 -0.398431 0
M  V30 25507 C 2462.46 5.24768 0.387893 0
M  V30 25508 O 2461.48 5.68827 -0.206103 0
M  V30 25509 N 2462.69 5.5546 1.68654 0
M  V30 25510 H 2465.45 2.72764 -1.24178 0
M  V30 25511 H 2463.01 1.40723 -0.800536 0
M  V30 25512 H 2465 3.92439 0.988623 0
M  V30 25513 H 2463.57 2.88434 1.20517 0
M  V30 25514 H 2462.79 3.78163 -1.11293 0
M  V30 25515 H 2464.08 4.99234 -0.981977 0
M  V30 25516 H 2463.48 5.21531 2.19138 0
M  V30 25517 H 2462.04 6.14752 2.16619 0
M  V30 25518 N 2465.47 0.698636 1.41269 0
M  V30 25519 C 2466.75 0.158796 1.94954 0
M  V30 25520 C 2467.13 -1.33185 1.63783 0
M  V30 25521 O 2466.48 -2.07977 0.94646 0
M  V30 25522 C 2466.69 0.45337 3.46043 0
M  V30 25523 C 2468.03 0.382781 4.22871 0
M  V30 25524 O 2469.06 0.388458 3.54075 0
M  V30 25525 O 2467.92 0.345559 5.45406 0
M  V30 25526 H 2465.01 0.0167651 0.82683 0
M  V30 25527 H 2467.56 0.775007 1.50969 0
M  V30 25528 H 2466.33 1.48505 3.62025 0
M  V30 25529 H 2465.95 -0.19366 3.97128 0
M  V30 25530 N 2466.95 -1.51228 0.443603 0
M  V30 25531 C 2468.19 -2.02439 -0.120939 0
M  V30 25532 C 2468.53 -1.32676 -1.41812 0
M  V30 25533 O 2467.8 -0.443655 -1.89373 0
M  V30 25534 C 2468.09 -3.58555 -0.333228 0
M  V30 25535 C 2467.94 -4.38926 0.983045 0
M  V30 25536 C 2469.26 -4.26126 -1.10021 0
M  V30 25537 H 2466.38 -0.735775 -0.0424793 0
M  V30 25538 H 2469.02 -1.80808 0.583826 0
M  V30 25539 H 2467.17 -3.77117 -0.933548 0
M  V30 25540 H 2468.84 -4.32 1.61783 0
M  V30 25541 H 2467.08 -4.03761 1.58618 0
M  V30 25542 H 2467.75 -5.4634 0.788475 0
M  V30 25543 H 2470.23 -4.11872 -0.591638 0
M  V30 25544 H 2469.11 -5.35227 -1.21751 0
M  V30 25545 H 2469.37 -3.87412 -2.12989 0
M  V30 25546 N 2468.43 -0.175182 -1.56623 0
M  V30 25547 C 2469.34 0.766003 -2.21742 0
M  V30 25548 C 2470.35 1.25015 -1.21025 0
M  V30 25549 O 2471.53 1.30148 -1.537 0
M  V30 25550 C 2468.59 1.9765 -2.84843 0
M  V30 25551 C 2467.65 1.53885 -4.00772 0
M  V30 25552 C 2466.89 2.69165 -4.60854 0
M  V30 25553 O 2467.11 3.86134 -4.1983 0
M  V30 25554 O 2466.04 2.43018 -5.50659 0
M  V30 25555 H 2469.87 0.241532 -3.02738 0
M  V30 25556 H 2467.46 0.0531958 -1.49305 0
M  V30 25557 H 2469.34 2.68436 -3.24838 0
M  V30 25558 H 2468.01 2.48995 -2.06841 0
M  V30 25559 H 2466.92 0.800376 -3.65438 0
M  V30 25560 H 2468.25 1.07227 -4.80378 0
M  V30 25561 N 2469.91 1.57292 0.0985263 0
M  V30 25562 C 2470.87 2.0086 1.10398 0
M  V30 25563 C 2471.87 0.901616 1.33145 0
M  V30 25564 O 2473.06 1.16718 1.29316 0
M  V30 25565 C 2470.19 2.36636 2.4539 0
M  V30 25566 H 2471.38 2.90904 0.729048 0
M  V30 25567 H 2468.94 1.52479 0.343468 0
M  V30 25568 H 2469.67 1.49536 2.87766 0
M  V30 25569 H 2469.46 3.17391 2.30229 0
M  V30 25570 H 2470.95 2.71013 3.17713 0
M  V30 25571 N 2471.38 -0.369261 1.53213 0
M  V30 25572 C 2472.31 -1.45823 1.82368 0
M  V30 25573 C 2473.29 -1.5605 0.676935 0
M  V30 25574 O 2474.48 -1.70678 0.926431 0
M  V30 25575 C 2471.61 -2.83205 2.01028 0
M  V30 25576 C 2470.56 -2.87805 3.16785 0
M  V30 25577 C 2469.89 -4.27826 3.20732 0
M  V30 25578 C 2471.19 -2.55659 4.55451 0
M  V30 25579 H 2472.88 -1.21674 2.73562 0
M  V30 25580 H 2470.43 -0.583888 1.31631 0
M  V30 25581 H 2472.38 -3.59409 2.20007 0
M  V30 25582 H 2471.11 -3.08734 1.06541 0
M  V30 25583 H 2469.77 -2.14051 2.9762 0
M  V30 25584 H 2469.41 -4.50425 2.23889 0
M  V30 25585 H 2469.11 -4.3182 3.98504 0
M  V30 25586 H 2470.64 -5.05909 3.4189 0
M  V30 25587 H 2472.05 -3.21578 4.74616 0
M  V30 25588 H 2470.45 -2.70975 5.35437 0
M  V30 25589 H 2471.52 -1.50922 4.60815 0
M  V30 25590 N 2472.86 -1.4451 -0.628851 0
M  V30 25591 C 2474.11 -1.48625 -1.3886 0
M  V30 25592 C 2474.46 -0.117966 -1.92038 0
M  V30 25593 O 2473.76 0.86713 -1.70855 0
M  V30 25594 C 2473.95 -2.48375 -2.56991 0
M  V30 25595 C 2473.78 -3.94769 -2.15379 0
M  V30 25596 C 2472.55 -4.62927 -2.0255 0
M  V30 25597 C 2474.75 -4.83918 -1.7415 0
M  V30 25598 N 2472.73 -5.94134 -1.54524 0
M  V30 25599 C 2474.1 -6.04587 -1.37386 0
M  V30 25600 C 2476.15 -4.70963 -1.61551 0
M  V30 25601 C 2474.86 -7.13737 -0.892823 0
M  V30 25602 C 2476.88 -5.80141 -1.14852 0
M  V30 25603 C 2476.25 -6.99952 -0.790393 0
M  V30 25604 H 2472.34 -0.598889 -0.502847 0
M  V30 25605 H 2474.93 -1.80851 -0.721178 0
M  V30 25606 H 2473.1 -2.18136 -3.21358 0
M  V30 25607 H 2474.83 -2.42772 -3.23796 0
M  V30 25608 H 2471.59 -4.17774 -2.23074 0
M  V30 25609 H 2472.01 -6.63847 -1.32803 0
M  V30 25610 H 2476.65 -3.78767 -1.8787 0
M  V30 25611 H 2474.37 -8.0574 -0.617149 0
M  V30 25612 H 2477.96 -5.72144 -1.05559 0
M  V30 25613 H 2476.84 -7.82995 -0.434576 0
M  V30 25614 N 2474.34 0.869463 -1.31446 0
M  V30 25615 C 2475.25 2.00927 -1.211 0
M  V30 25616 C 2476.27 1.73531 -0.127615 0
M  V30 25617 O 2477.44 1.98414 -0.345512 0
M  V30 25618 C 2474.51 3.34286 -0.919437 0
M  V30 25619 C 2473.57 3.75002 -2.08978 0
M  V30 25620 C 2472.8 5.01997 -1.81202 0
M  V30 25621 O 2473.02 5.65482 -0.747395 0
M  V30 25622 O 2471.96 5.39492 -2.66893 0
M  V30 25623 H 2475.78 2.12588 -2.16887 0
M  V30 25624 H 2473.37 0.997848 -1.11191 0
M  V30 25625 H 2475.25 4.14255 -0.772698 0
M  V30 25626 H 2473.93 3.23699 0.00839082 0
M  V30 25627 H 2472.83 2.95672 -2.29192 0
M  V30 25628 H 2474.17 3.90216 -2.99987 0
M  V30 25629 N 2475.82 1.14415 1.08383 0
M  V30 25630 C 2476.77 0.826926 2.17404 0
M  V30 25631 C 2477.76 -0.195283 1.68271 0
M  V30 25632 O 2478.97 -0.0513575 1.79927 0
M  V30 25633 H 2475.34 0.249693 0.709336 0
M  V30 25634 H 2477.31 1.7543 2.41385 0
M  V30 25635 C 2476.06 0.32104 3.46215 0
M  V30 25636 H 2475.38 1.09897 3.84399 0
M  V30 25637 H 2476.82 0.137624 4.23777 0
M  V30 25638 C 2475.28 -0.955415 3.23069 0
M  V30 25639 O 2475.81 -2.02912 3.46684 0
M  V30 25640 N 2474.02 -0.89075 2.76612 0
M  V30 25641 H 2473.57 -0.0168362 2.57594 0
M  V30 25642 H 2473.52 -1.74537 2.61504 0
M  V30 25643 N 2477.3 -1.26549 0.939309 0
M  V30 25644 C 2478.23 -2.24812 0.391742 0
M  V30 25645 C 2479.21 -1.54115 -0.518394 0
M  V30 25646 O 2480.39 -1.82895 -0.456267 0
M  V30 25647 C 2477.52 -3.35865 -0.437323 0
M  V30 25648 C 2476.56 -4.24515 0.411021 0
M  V30 25649 S 2477.4 -5.03122 1.83381 0
M  V30 25650 C 2478.55 -6.17652 1.01274 0
M  V30 25651 H 2478.79 -2.70911 1.22453 0
M  V30 25652 H 2476.32 -1.35386 0.742292 0
M  V30 25653 H 2478.28 -4.00292 -0.909766 0
M  V30 25654 H 2476.94 -2.88382 -1.24477 0
M  V30 25655 H 2476.13 -5.03502 -0.224103 0
M  V30 25656 H 2475.73 -3.64943 0.818078 0
M  V30 25657 H 2478.02 -6.77023 0.254142 0
M  V30 25658 H 2478.97 -6.85466 1.77601 0
M  V30 25659 H 2479.38 -5.61818 0.549631 0
M  V30 25660 N 2478.77 -0.706118 -1.40896 0
M  V30 25661 C 2479.74 -0.0563244 -2.29131 0
M  V30 25662 C 2480.74 0.697141 -1.44902 0
M  V30 25663 O 2481.93 0.530455 -1.65927 0
M  V30 25664 C 2479.06 0.930372 -3.27959 0
M  V30 25665 H 2480.25 -0.833334 -2.88089 0
M  V30 25666 H 2477.8 -0.470218 -1.49059 0
M  V30 25667 H 2478.54 1.73477 -2.74 0
M  V30 25668 H 2478.32 0.393098 -3.90125 0
M  V30 25669 H 2479.81 1.38249 -3.94052 0
M  V30 25670 N 2480.25 1.50991 -0.451617 0
M  V30 25671 C 2481.5 2.025 0.110202 0
M  V30 25672 C 2481.83 1.33426 1.41107 0
M  V30 25673 O 2481.11 0.453692 1.89135 0
M  V30 25674 C 2481.39 3.58727 0.314208 0
M  V30 25675 C 2481.24 4.38399 -1.00631 0
M  V30 25676 C 2482.56 4.26704 1.07759 0
M  V30 25677 H 2479.68 0.73599 0.0385767 0
M  V30 25678 H 2482.32 1.80496 -0.593406 0
M  V30 25679 H 2480.47 3.77607 0.913535 0
M  V30 25680 H 2482.14 4.31136 -1.64072 0
M  V30 25681 H 2480.39 4.02914 -1.60757 0
M  V30 25682 H 2481.06 5.45914 -0.817437 0
M  V30 25683 H 2483.53 4.1218 0.569788 0
M  V30 25684 H 2482.41 5.35865 1.18911 0
M  V30 25685 H 2482.67 3.88536 2.10932 0
M  V30 25686 N 2481.73 0.183486 1.56528 0
M  V30 25687 C 2482.98 -0.458477 1.9642 0
M  V30 25688 C 2483.29 -1.6356 1.07273 0
M  V30 25689 O 2484.5 -2.3446 1.36897 0
M  V30 25690 C 2482.95 -0.86706 3.49299 0
M  V30 25691 C 2482.56 0.285136 4.47092 0
M  V30 25692 C 2484.31 -1.47676 3.97985 0
M  V30 25693 C 2482.21 -0.143758 5.91225 0
M  V30 25694 H 2481.14 -0.175058 0.733397 0
M  V30 25695 H 2483.79 0.273656 1.81448 0
M  V30 25696 H 2482.18 -1.65552 3.59734 0
M  V30 25697 H 2483.35 1.06258 4.48381 0
M  V30 25698 H 2481.66 0.805575 4.08533 0
M  V30 25699 H 2484.26 -1.8099 5.03137 0
M  V30 25700 H 2484.6 -2.37908 3.41622 0
M  V30 25701 H 2485.14 -0.752494 3.90618 0
M  V30 25702 H 2481.88 0.724089 6.51488 0
M  V30 25703 H 2481.4 -0.886309 5.93215 0
M  V30 25704 H 2483.08 -0.583515 6.44363 0
M  V30 25705 N 2483.21 -1.57342 -0.0901833 0
M  V30 25706 C 2484.48 -1.77363 -0.82473 0
M  V30 25707 C 2484.86 -0.766404 -1.96696 0
M  V30 25708 O 2484.21 0.204139 -2.27586 0
M  V30 25709 C 2484.42 -3.23288 -1.31476 0
M  V30 25710 C 2485.77 -3.86607 -1.75556 0
M  V30 25711 O 2486.79 -3.27067 -1.41087 0
M  V30 25712 O 2485.65 -4.91318 -2.39309 0
M  V30 25713 H 2482.75 -0.727241 -0.393764 0
M  V30 25714 H 2485.29 -1.69549 -0.071684 0
M  V30 25715 H 2484.07 -3.88136 -0.496603 0
M  V30 25716 H 2483.69 -3.35754 -2.12967 0
M  V30 25717 N 2484.69 0.36113 -1.53407 0
M  V30 25718 C 2485.93 1.11194 -1.71509 0
M  V30 25719 C 2486.29 1.86424 -0.45937 0
M  V30 25720 O 2487.49 2.63778 -0.517148 0
M  V30 25721 C 2485.76 2.04215 -2.93311 0
M  V30 25722 S 2487.32 2.86755 -3.3214 0
M  V30 25723 H 2484.14 0.375984 -0.603454 0
M  V30 25724 H 2486.74 0.392609 -1.91517 0
M  V30 25725 H 2485.45 1.47717 -3.82894 0
M  V30 25726 H 2484.98 2.80613 -2.75717 0
M  V30 25727 H 2486.99 4.06539 -2.845 0
M  V30 25728 N 2486.16 1.44842 0.621179 0
M  V30 25729 C 2487.41 1.48147 1.38053 0
M  V30 25730 C 2487.74 0.117901 1.94142 0
M  V30 25731 O 2486.99 -0.881663 1.74715 0
M  V30 25732 C 2487.29 2.49735 2.5567 0
M  V30 25733 C 2486.96 3.94803 2.1781 0
M  V30 25734 C 2485.62 4.34307 2.07198 0
M  V30 25735 C 2487.97 4.86091 1.88057 0
M  V30 25736 C 2485.3 5.6301 1.65035 0
M  V30 25737 C 2487.65 6.15192 1.47384 0
M  V30 25738 C 2486.32 6.5364 1.3532 0
M  V30 25739 H 2485.59 0.54211 0.505171 0
M  V30 25740 H 2488.23 1.78112 0.703446 0
M  V30 25741 H 2486.54 2.1329 3.28656 0
M  V30 25742 H 2488.24 2.49535 3.139 0
M  V30 25743 H 2484.83 3.63556 2.26991 0
M  V30 25744 H 2489.01 4.56318 1.9516 0
M  V30 25745 H 2484.27 5.91608 1.54307 0
M  V30 25746 H 2488.44 6.85379 1.23403 0
M  V30 25747 H 2486.07 7.53269 1.02422 0
M  V30 25748 N 2487.64 -0.862479 1.31905 0
M  V30 25749 C 2488.61 -1.95193 1.20134 0
M  V30 25750 C 2489.61 -1.60302 0.126437 0
M  V30 25751 O 2490.8 -1.70088 0.376264 0
M  V30 25752 C 2487.93 -3.30242 0.845749 0
M  V30 25753 H 2489.12 -2.0706 2.16947 0
M  V30 25754 H 2486.67 -1.0517 1.15624 0
M  V30 25755 H 2487.41 -3.24075 -0.1209 0
M  V30 25756 H 2487.19 -3.56941 1.62282 0
M  V30 25757 H 2488.68 -4.10108 0.78749 0
M  V30 25758 N 2489.12 -1.14988 -1.07775 0
M  V30 25759 C 2490.35 -0.946246 -1.84556 0
M  V30 25760 C 2490.77 0.50033 -1.81324 0
M  V30 25761 O 2490.13 1.35635 -1.20303 0
M  V30 25762 C 2490.18 -1.45973 -3.29733 0
M  V30 25763 O 2489.28 -0.656081 -4.07148 0
M  V30 25764 H 2488.62 -0.33783 -0.571635 0
M  V30 25765 H 2491.15 -1.52867 -1.35988 0
M  V30 25766 H 2491.16 -1.4707 -3.80571 0
M  V30 25767 H 2489.84 -2.51289 -3.31401 0
M  V30 25768 H 2488.41 -0.714386 -3.65993 0
M  V30 25769 N 2490.6 1.26049 -0.946007 0
M  V30 25770 C 2491.88 1.8873 -0.513849 0
M  V30 25771 C 2492.26 1.85442 1.00869 0
M  V30 25772 O 2491.6 1.31203 1.87077 0
M  V30 25773 C 2491.81 3.31847 -1.08067 0
M  V30 25774 C 2493.16 4.08666 -1.15227 0
M  V30 25775 O 2494.19 3.40935 -1.03161 0
M  V30 25776 O 2493.04 5.29804 -1.34054 0
M  V30 25777 H 2490.14 0.809713 -0.168207 0
M  V30 25778 H 2492.68 1.34184 -1.03888 0
M  V30 25779 H 2491.46 3.28626 -2.12416 0
M  V30 25780 H 2491.08 3.93938 -0.538376 0
M  V30 25781 N 2492.08 0.71358 1.4052 0
M  V30 25782 C 2493.03 0.0362051 2.27971 0
M  V30 25783 C 2494.01 -0.734598 1.43152 0
M  V30 25784 O 2495.2 -0.607128 1.66262 0
M  V30 25785 C 2492.33 -0.886272 3.31663 0
M  V30 25786 C 2491.42 -0.110762 4.23955 0
M  V30 25787 N 2491.81 0.904935 4.97639 0
M  V30 25788 C 2490.11 -0.343614 4.44674 0
M  V30 25789 C 2490.81 1.37073 5.65319 0
M  V30 25790 N 2489.78 0.693263 5.39161 0
M  V30 25791 H 2493.59 0.814695 2.82383 0
M  V30 25792 H 2491.1 0.54599 1.52947 0
M  V30 25793 H 2493.1 -1.38685 3.93157 0
M  V30 25794 H 2491.76 -1.66416 2.78811 0
M  V30 25795 H 2492.77 1.28572 5.01687 0
M  V30 25796 H 2489.44 -1.09798 4.02803 0
M  V30 25797 H 2490.83 2.21458 6.34355 0
M  V30 25798 N 2493.55 -1.50749 0.459618 0
M  V30 25799 C 2494.52 -2.26826 -0.329053 0
M  V30 25800 C 2495.52 -1.31145 -0.930458 0
M  V30 25801 O 2496.71 -1.5467 -0.801426 0
M  V30 25802 C 2493.84 -3.07691 -1.46763 0
M  V30 25803 H 2495.03 -2.97989 0.337977 0
M  V30 25804 H 2492.59 -1.54837 0.213363 0
M  V30 25805 H 2493.32 -2.40996 -2.17005 0
M  V30 25806 H 2493.11 -3.77992 -1.04231 0
M  V30 25807 H 2494.6 -3.65258 -2.02427 0
M  V30 25808 N 2495.03 -0.191784 -1.56429 0
M  V30 25809 C 2496.44 0.321396 -1.83913 0
M  V30 25810 C 2496.79 1.61621 -1.11234 0
M  V30 25811 O 2495.92 2.13178 -0.372058 0
M  V30 25812 C 2496.51 0.589903 -3.33625 0
M  V30 25813 C 2495.07 1.04746 -3.61532 0
M  V30 25814 C 2494.22 0.094284 -2.7714 0
M  V30 25815 H 2497.17 -0.415639 -1.5316 0
M  V30 25816 H 2497.19 1.4396 -3.52215 0
M  V30 25817 H 2496.7 -0.352656 -3.86494 0
M  V30 25818 H 2494.81 2.00441 -3.14092 0
M  V30 25819 H 2494.92 0.942466 -4.69739 0
M  V30 25820 H 2493.28 0.595546 -2.4764 0
M  V30 25821 H 2494.07 -0.842659 -3.32797 0
M  V30 25822 N 2496.51 1.57387 0.0818378 0
M  V30 25823 C 2497.46 1.99435 1.10498 0
M  V30 25824 C 2498.44 0.874821 1.3504 0
M  V30 25825 O 2499.64 1.1387 1.35509 0
M  V30 25826 C 2496.77 2.43343 2.42155 0
M  V30 25827 C 2495.85 3.62009 2.2093 0
M  V30 25828 N 2496.24 4.76515 1.69608 0
M  V30 25829 C 2494.54 3.68364 2.51444 0
M  V30 25830 C 2495.24 5.58406 1.62964 0
M  V30 25831 N 2494.22 5.0196 2.08655 0
M  V30 25832 H 2498.02 2.8541 0.701322 0
M  V30 25833 H 2495.53 1.59807 0.289068 0
M  V30 25834 H 2497.53 2.71701 3.16203 0
M  V30 25835 H 2496.19 1.58751 2.83246 0
M  V30 25836 H 2497.2 4.99005 1.38615 0
M  V30 25837 H 2493.88 2.94462 2.9597 0
M  V30 25838 H 2495.27 6.60317 1.24222 0
M  V30 25839 N 2497.99 -0.35299 1.53596 0
M  V30 25840 C 2499.22 -1.11457 1.74313 0
M  V30 25841 C 2499.63 -1.82652 0.477887 0
M  V30 25842 O 2498.99 -1.74017 -0.549947 0
M  V30 25843 C 2499.04 -2.13529 2.91698 0
M  V30 25844 O 2498.76 -1.45231 4.13328 0
M  V30 25845 C 2500.26 -3.02136 3.2439 0
M  V30 25846 H 2497.48 -0.332763 0.582675 0
M  V30 25847 H 2500.03 -0.408072 2.00387 0
M  V30 25848 H 2498.18 -2.79758 2.67982 0
M  V30 25849 H 2498.59 -2.13341 4.79151 0
M  V30 25850 H 2500.07 -3.69711 4.099 0
M  V30 25851 H 2500.55 -3.67639 2.40288 0
M  V30 25852 H 2501.15 -2.41508 3.50077 0
M  V30 25853 N 2499.47 -1.45169 -0.613489 0
M  V30 25854 C 2500.4 -1.56228 -1.73537 0
M  V30 25855 C 2501.38 -0.414169 -1.64981 0
M  V30 25856 O 2502.56 -0.636558 -1.83471 0
M  V30 25857 C 2499.69 -1.523 -3.12125 0
M  V30 25858 C 2498.65 -2.65768 -3.35487 0
M  V30 25859 C 2497.97 -2.46893 -4.74287 0
M  V30 25860 C 2499.27 -4.07816 -3.26318 0
M  V30 25861 H 2500.97 -2.50135 -1.64538 0
M  V30 25862 H 2498.51 -1.20384 -0.790164 0
M  V30 25863 H 2500.47 -1.58635 -3.90401 0
M  V30 25864 H 2499.19 -0.549195 -3.21949 0
M  V30 25865 H 2497.85 -2.58852 -2.59598 0
M  V30 25866 H 2497.5 -1.47665 -4.80837 0
M  V30 25867 H 2497.2 -3.22981 -4.90874 0
M  V30 25868 H 2498.72 -2.55073 -5.5477 0
M  V30 25869 H 2500.14 -4.16007 -3.94476 0
M  V30 25870 H 2498.53 -4.84247 -3.54437 0
M  V30 25871 H 2499.6 -4.3014 -2.23847 0
M  V30 25872 N 2500.95 0.855472 -1.32361 0
M  V30 25873 C 2501.86 1.99632 -1.23225 0
M  V30 25874 C 2502.87 1.73386 -0.146013 0
M  V30 25875 O 2504.05 1.98037 -0.366537 0
M  V30 25876 C 2501.11 3.33292 -0.95484 0
M  V30 25877 C 2500.17 3.72765 -2.12943 0
M  V30 25878 C 2499.41 5.00047 -1.86517 0
M  V30 25879 O 2499.63 5.64658 -0.80733 0
M  V30 25880 O 2498.56 5.36631 -2.726 0
M  V30 25881 H 2502.39 2.10276 -2.1913 0
M  V30 25882 H 2499.97 0.985999 -1.12243 0
M  V30 25883 H 2501.86 4.13412 -0.816592 0
M  V30 25884 H 2500.53 3.2369 -0.0259423 0
M  V30 25885 H 2499.44 2.93224 -2.32315 0
M  V30 25886 H 2500.77 3.87012 -3.04109 0
M  V30 25887 N 2502.42 1.15558 1.07164 0
M  V30 25888 C 2503.33 0.868154 2.17945 0
M  V30 25889 C 2504.35 -0.156266 1.73297 0
M  V30 25890 O 2505.53 0.0182681 2.01392 0
M  V30 25891 C 2502.59 0.36361 3.44788 0
M  V30 25892 C 2501.65 1.45216 4.03993 0
M  V30 25893 C 2500.88 0.9716 5.24782 0
M  V30 25894 O 2501.11 -0.182094 5.70109 0
M  V30 25895 O 2500.04 1.75613 5.75712 0
M  V30 25896 H 2503.87 1.79431 2.45027 0
M  V30 25897 H 2501.45 0.934845 1.16538 0
M  V30 25898 H 2503.33 0.0887854 4.21306 0
M  V30 25899 H 2502.01 -0.534652 3.19254 0
M  V30 25900 H 2500.92 1.78062 3.29006 0
M  V30 25901 H 2502.25 2.32541 4.33804 0
M  V30 25902 N 2503.9 -1.25546 0.952678 0
M  V30 25903 C 2504.85 -2.25961 0.47012 0
M  V30 25904 C 2505.82 -1.59123 -0.476356 0
M  V30 25905 O 2507 -1.86771 -0.390037 0
M  V30 25906 C 2504.14 -3.44209 -0.24782 0
M  V30 25907 C 2503.26 -4.2569 0.735666 0
M  V30 25908 C 2502.39 -5.312 -0.00463723 0
M  V30 25909 C 2501.43 -6.04367 0.969911 0
M  V30 25910 N 2500.57 -7.01616 0.260609 0
M  V30 25911 H 2505.41 -2.66609 1.33131 0
M  V30 25912 H 2502.94 -1.31075 0.667673 0
M  V30 25913 H 2504.9 -4.11611 -0.680622 0
M  V30 25914 H 2503.53 -3.04442 -1.07307 0
M  V30 25915 H 2502.58 -3.57969 1.28695 0
M  V30 25916 H 2503.9 -4.76355 1.47942 0
M  V30 25917 H 2503.05 -6.04668 -0.496169 0
M  V30 25918 H 2501.79 -4.81403 -0.781198 0
M  V30 25919 H 2500.79 -5.29716 1.47246 0
M  V30 25920 H 2502.02 -6.56253 1.74667 0
M  V30 25921 H 2499.97 -6.54113 -0.497249 0
M  V30 25922 H 2499.88 -7.50089 0.943494 0
M  V30 25923 H 2501.15 -7.79219 -0.20945 0
M  V30 25924 N 2505.38 -0.721022 -1.40139 0
M  V30 25925 C 2506.62 -0.26737 -2.02644 0
M  V30 25926 C 2506.98 1.11998 -1.5595 0
M  V30 25927 O 2508.18 1.67093 -2.10555 0
M  V30 25928 C 2506.46 -0.350344 -3.55679 0
M  V30 25929 S 2508.01 0.0255233 -4.38793 0
M  V30 25930 H 2504.83 -0.105676 -0.703103 0
M  V30 25931 H 2507.43 -0.944446 -1.71174 0
M  V30 25932 H 2506.14 -1.3616 -3.87155 0
M  V30 25933 H 2505.67 0.345027 -3.91884 0
M  V30 25934 H 2507.68 1.24596 -4.80302 0
M  V30 25935 N 2506.86 1.50503 -0.467606 0
M  V30 25936 C 2508.11 2.01907 0.0884114 0
M  V30 25937 C 2508.43 1.3519 1.4053 0
M  V30 25938 O 2507.7 0.496112 1.89514 0
M  V30 25939 H 2506.28 0.746148 0.0356634 0
M  V30 25940 H 2508.94 1.84868 -0.617232 0
M  V30 25941 H 2508.03 3.11157 0.242445 0
M  V30 25942 N 2508.34 0.200077 1.56325 0
M  V30 25943 C 2509.56 -0.445935 2.02549 0
M  V30 25944 C 2509.99 -1.54058 1.07925 0
M  V30 25945 O 2509.34 -1.81188 0.0636093 0
M  V30 25946 C 2509.39 -0.9747 3.47177 0
M  V30 25947 O 2508.5 -2.08732 3.55675 0
M  V30 25948 H 2507.84 -0.103626 0.655864 0
M  V30 25949 H 2510.37 0.312417 2.02201 0
M  V30 25950 H 2510.38 -1.29003 3.87069 0
M  V30 25951 H 2509.05 -0.173397 4.15538 0
M  V30 25952 H 2507.63 -1.78026 3.2766 0
M  V30 25953 N 2509.81 -1.57429 -0.0734901 0
M  V30 25954 C 2511.23 -1.53747 -0.428237 0
M  V30 25955 C 2511.43 -0.920011 -1.79271 0
M  V30 25956 O 2510.49 -0.521788 -2.4705 0
M  V30 25957 C 2511.8 -2.98404 -0.370862 0
M  V30 25958 C 2513.35 -3.09731 -0.45117 0
M  V30 25959 C 2513.82 -4.56036 -0.42372 0
M  V30 25960 N 2515.31 -4.60666 -0.483844 0
M  V30 25961 C 2516.05 -5.71347 -0.48479 0
M  V30 25962 N 2515.54 -6.91397 -0.440653 0
M  V30 25963 N 2517.34 -5.59584 -0.531221 0
M  V30 25964 H 2509.49 -1.95934 0.819983 0
M  V30 25965 H 2511.75 -0.89674 0.307509 0
M  V30 25966 H 2511.46 -3.47132 0.565017 0
M  V30 25967 H 2511.33 -3.58212 -1.1817 0
M  V30 25968 H 2513.72 -2.60978 -1.37747 0
M  V30 25969 H 2513.8 -2.52837 0.388211 0
M  V30 25970 H 2513.44 -5.05445 0.498727 0
M  V30 25971 H 2513.37 -5.10791 -1.28061 0
M  V30 25972 H 2515.86 -3.74274 -0.522272 0
M  V30 25973 H 2516.18 -7.71516 -0.445254 0
M  V30 25974 H 2514.52 -6.93805 -0.407368 0
M  V30 25975 H 2517.71 -4.64697 -0.563383 0
M  V30 25976 H 2517.89 -6.45841 -0.528489 0
M  V30 25977 N 2511.29 0.344839 -1.53781 0
M  V30 25978 C 2512.7 0.920523 -1.62429 0
M  V30 25979 C 2513.05 1.89595 -0.504781 0
M  V30 25980 O 2512.18 2.13288 0.365673 0
M  V30 25981 C 2512.77 1.67634 -2.94422 0
M  V30 25982 C 2511.33 2.20106 -3.05336 0
M  V30 25983 C 2510.48 1.01978 -2.57868 0
M  V30 25984 H 2513.43 0.123014 -1.58223 0
M  V30 25985 H 2513.45 2.53912 -2.83389 0
M  V30 25986 H 2512.96 0.966158 -3.75882 0
M  V30 25987 H 2511.06 2.94304 -2.28508 0
M  V30 25988 H 2511.18 2.46566 -4.10782 0
M  V30 25989 H 2509.54 1.39281 -2.13243 0
M  V30 25990 H 2510.32 0.324248 -3.41765 0
M  V30 25991 N 2512.77 1.45492 0.605781 0
M  V30 25992 C 2514.18 1.44047 1.18775 0
M  V30 25993 C 2514.53 0.169035 1.9547 0
M  V30 25994 O 2513.66 -0.729288 2.03741 0
M  V30 25995 C 2514.25 2.60967 2.1606 0
M  V30 25996 C 2512.81 2.62636 2.69628 0
M  V30 25997 C 2511.96 2.36327 1.45068 0
M  V30 25998 H 2514.91 1.53706 0.39499 0
M  V30 25999 H 2514.93 2.35168 2.99125 0
M  V30 26000 H 2514.44 3.53488 1.60211 0
M  V30 26001 H 2512.54 1.74125 3.29411 0
M  V30 26002 H 2512.66 3.61911 3.13938 0
M  V30 26003 H 2511.02 1.8592 1.74085 0
M  V30 26004 H 2511.8 3.30996 0.910841 0
M  V30 26005 N 2514.25 -0.848441 1.32813 0
M  V30 26006 C 2515.66 -1.41912 1.21317 0
M  V30 26007 C 2516.01 -1.95446 -0.171812 0
M  V30 26008 O 2515.14 -1.88045 -1.07089 0
M  V30 26009 C 2515.73 -2.57964 2.19636 0
M  V30 26010 C 2514.29 -3.11013 2.12008 0
M  V30 26011 C 2513.44 -1.83779 2.07655 0
M  V30 26012 H 2516.39 -0.655045 1.44551 0
M  V30 26013 H 2516.41 -3.35312 1.79851 0
M  V30 26014 H 2515.92 -2.18971 3.20427 0
M  V30 26015 H 2514.02 -3.54575 1.14487 0
M  V30 26016 H 2514.13 -3.71836 3.02117 0
M  V30 26017 H 2512.5 -2.03635 1.52986 0
M  V30 26018 H 2513.28 -1.46994 3.10238 0
M  V30 26019 N 2515.73 -1.16125 -1.06549 0
M  V30 26020 C 2516.97 -0.939299 -1.78946 0
M  V30 26021 C 2517.3 0.534443 -1.87533 0
M  V30 26022 O 2516.57 1.3883 -1.38213 0
M  V30 26023 H 2515.15 -0.344534 -0.662801 0
M  V30 26024 H 2517.81 -1.46344 -1.28722 0
M  V30 26025 H 2516.9 -1.35577 -2.81114 0
M  V30 26026 N 2517.2 1.25039 -0.959323 0
M  V30 26027 C 2518.45 1.92883 -0.616645 0
M  V30 26028 C 2518.78 1.75089 0.847006 0
M  V30 26029 O 2518.03 1.09242 1.62372 0
M  V30 26030 C 2518.33 3.45163 -0.927197 0
M  V30 26031 C 2518 3.83118 -2.37764 0
M  V30 26032 C 2516.66 3.93189 -2.77408 0
M  V30 26033 C 2519.01 4.01831 -3.31936 0
M  V30 26034 C 2516.34 4.19385 -4.10285 0
M  V30 26035 C 2518.69 4.2952 -4.6443 0
M  V30 26036 C 2517.36 4.37809 -5.03865 0
M  V30 26037 H 2516.63 0.705808 -0.225646 0
M  V30 26038 H 2519.27 1.48491 -1.20924 0
M  V30 26039 H 2517.58 3.90987 -0.252263 0
M  V30 26040 H 2519.28 3.95851 -0.640569 0
M  V30 26041 H 2515.87 3.75838 -2.0602 0
M  V30 26042 H 2520.05 3.9346 -3.02495 0
M  V30 26043 H 2515.31 4.24019 -4.40474 0
M  V30 26044 H 2519.48 4.42944 -5.37377 0
M  V30 26045 H 2517.11 4.5786 -6.06851 0
M  V30 26046 N 2518.68 0.728444 1.39755 0
M  V30 26047 C 2520.09 0.344321 1.83497 0
M  V30 26048 C 2520.44 -1.12318 1.6087 0
M  V30 26049 O 2519.57 -1.86571 1.09637 0
M  V30 26050 C 2520.16 0.61817 3.33113 0
M  V30 26051 C 2518.72 0.287615 3.753 0
M  V30 26052 C 2517.87 0.884094 2.62829 0
M  V30 26053 H 2520.82 0.926601 1.2884 0
M  V30 26054 H 2520.84 -0.112282 3.80334 0
M  V30 26055 H 2520.35 1.68631 3.4955 0
M  V30 26056 H 2518.46 -0.774948 3.64452 0
M  V30 26057 H 2518.57 0.765595 4.72943 0
M  V30 26058 H 2516.93 0.311194 2.52792 0
M  V30 26059 H 2517.72 1.95676 2.82074 0
M  V30 26060 N 2520.16 -1.50253 0.475581 0
M  V30 26061 C 2521.41 -2.01951 -0.0777025 0
M  V30 26062 C 2521.73 -1.35934 -1.39811 0
M  V30 26063 O 2521 -0.506156 -1.89248 0
M  V30 26064 H 2519.58 -0.746327 -0.0317059 0
M  V30 26065 H 2522.24 -1.84538 0.627028 0
M  V30 26066 H 2521.34 -3.11281 -0.225941 0
M  V30 26067 N 2521.64 -0.208365 -1.56217 0
M  V30 26068 C 2522.57 0.702077 -2.22695 0
M  V30 26069 C 2523.55 1.21118 -1.19434 0
M  V30 26070 O 2524.73 1.2576 -1.4798 0
M  V30 26071 C 2521.86 1.91605 -2.89663 0
M  V30 26072 C 2520.82 1.54133 -3.99283 0
M  V30 26073 C 2520.14 2.833 -4.53481 0
M  V30 26074 C 2521.44 0.741248 -5.17013 0
M  V30 26075 H 2523.14 0.147846 -2.99035 0
M  V30 26076 H 2520.68 0.0696698 -1.43831 0
M  V30 26077 H 2522.64 2.5583 -3.34857 0
M  V30 26078 H 2521.36 2.49504 -2.1075 0
M  V30 26079 H 2520.02 0.922606 -3.54801 0
M  V30 26080 H 2519.67 3.39316 -3.71314 0
M  V30 26081 H 2519.37 2.58967 -5.27456 0
M  V30 26082 H 2520.89 3.48491 -5.01385 0
M  V30 26083 H 2522.31 1.2869 -5.5867 0
M  V30 26084 H 2520.7 0.595522 -5.97138 0
M  V30 26085 H 2521.77 -0.254936 -4.84229 0
M  V30 26086 N 2523.12 1.57465 0.0651402 0
M  V30 26087 C 2524.03 2.07507 1.09444 0
M  V30 26088 C 2525.04 1.00597 1.41973 0
M  V30 26089 O 2526.22 1.3211 1.52016 0
M  V30 26090 C 2523.28 2.51457 2.38684 0
M  V30 26091 C 2522.34 3.72695 2.13066 0
M  V30 26092 C 2521.58 4.14539 3.36144 0
M  V30 26093 O 2521.8 3.56197 4.45511 0
M  V30 26094 O 2520.73 5.07277 3.23965 0
M  V30 26095 H 2524.56 2.95539 0.699298 0
M  V30 26096 H 2522.15 1.46758 0.279726 0
M  V30 26097 H 2524.03 2.80218 3.14732 0
M  V30 26098 H 2522.7 1.66551 2.77565 0
M  V30 26099 H 2521.61 3.49007 1.34703 0
M  V30 26100 H 2522.94 4.58473 1.79062 0
M  V30 26101 N 2524.59 -0.336679 1.53962 0
M  V30 26102 C 2525.82 -1.09602 1.75485 0
M  V30 26103 C 2526.24 -1.82135 0.497232 0
M  V30 26104 O 2525.59 -1.7459 -0.531459 0
M  V30 26105 C 2525.65 -2.10423 2.93946 0
M  V30 26106 O 2525.37 -1.40839 4.14845 0
M  V30 26107 C 2526.87 -2.98679 3.27576 0
M  V30 26108 H 2524.09 -0.326564 0.586171 0
M  V30 26109 H 2526.63 -0.386795 2.00809 0
M  V30 26110 H 2524.79 -2.769 2.70934 0
M  V30 26111 H 2525.2 -2.08247 4.81387 0
M  V30 26112 H 2526.67 -3.65343 4.13798 0
M  V30 26113 H 2527.15 -3.65069 2.44174 0
M  V30 26114 H 2527.76 -2.37781 3.52619 0
M  V30 26115 N 2526.07 -1.45812 -0.598057 0
M  V30 26116 C 2527.01 -1.49709 -1.72228 0
M  V30 26117 C 2527.98 -0.352563 -1.58732 0
M  V30 26118 O 2529.17 -0.55447 -1.80161 0
M  V30 26119 C 2526.29 -1.36115 -3.10146 0
M  V30 26120 C 2525.34 -2.54555 -3.42205 0
M  V30 26121 S 2526.17 -4.16985 -3.35982 0
M  V30 26122 C 2527.33 -4.05873 -4.76464 0
M  V30 26123 H 2527.56 -2.44828 -1.6866 0
M  V30 26124 H 2525.1 -1.33511 -0.775518 0
M  V30 26125 H 2527.05 -1.2896 -3.89717 0
M  V30 26126 H 2525.71 -0.424505 -3.11218 0
M  V30 26127 H 2524.91 -2.40995 -4.42648 0
M  V30 26128 H 2524.51 -2.58621 -2.70169 0
M  V30 26129 H 2526.8 -3.71606 -5.66494 0
M  V30 26130 H 2527.74 -5.06262 -4.9508 0
M  V30 26131 H 2528.15 -3.37372 -4.52593 0
M  V30 26132 N 2527.55 0.841385 -1.33261 0
M  V30 26133 C 2528.48 1.96632 -1.2593 0
M  V30 26134 C 2529.46 1.6952 -0.140378 0
M  V30 26135 O 2530.65 1.9138 -0.32974 0
M  V30 26136 C 2527.78 3.32736 -0.995178 0
M  V30 26137 C 2526.73 3.74239 -2.07676 0
M  V30 26138 C 2526.06 5.08122 -1.66483 0
M  V30 26139 C 2527.36 3.8829 -3.49325 0
M  V30 26140 H 2529.05 2.03023 -2.2005 0
M  V30 26141 H 2526.6 0.975406 -1.05933 0
M  V30 26142 H 2528.55 4.11001 -0.930395 0
M  V30 26143 H 2527.27 3.26595 -0.0183578 0
M  V30 26144 H 2525.93 2.98236 -2.13193 0
M  V30 26145 H 2525.58 4.98449 -0.6751 0
M  V30 26146 H 2525.28 5.36861 -2.3886 0
M  V30 26147 H 2526.8 5.88864 -1.61466 0
M  V30 26148 H 2528.22 4.56873 -3.46324 0
M  V30 26149 H 2526.62 4.28463 -4.20166 0
M  V30 26150 H 2527.69 2.90814 -3.88015 0
M  V30 26151 N 2529.03 1.16688 1.05932 0
M  V30 26152 C 2530.44 0.957773 1.60261 0
M  V30 26153 C 2530.79 -0.497416 1.8979 0
M  V30 26154 O 2529.92 -1.37132 1.67403 0
M  V30 26155 C 2530.51 1.73223 2.91169 0
M  V30 26156 C 2529.07 1.568 3.42185 0
M  V30 26157 C 2528.22 1.73863 2.16025 0
M  V30 26158 H 2531.17 1.31505 0.888369 0
M  V30 26159 H 2531.19 1.2102 3.60741 0
M  V30 26160 H 2530.7 2.79129 2.69646 0
M  V30 26161 H 2528.8 0.533501 3.68761 0
M  V30 26162 H 2528.92 2.35422 4.17269 0
M  V30 26163 H 2527.28 1.16637 2.26424 0
M  V30 26164 H 2528.06 2.81165 1.9698 0
M  V30 26165 N 2530.51 -1.24529 0.96594 0
M  V30 26166 C 2531.44 -2.27783 0.513516 0
M  V30 26167 C 2532.42 -1.6415 -0.445945 0
M  V30 26168 O 2533.6 -1.91157 -0.342451 0
M  V30 26169 C 2530.73 -3.46731 -0.198778 0
M  V30 26170 C 2529.69 -4.22619 0.67653 0
M  V30 26171 C 2529.01 -5.34439 -0.167154 0
M  V30 26172 C 2530.31 -4.84119 1.96026 0
M  V30 26173 H 2532.01 -2.65879 1.37654 0
M  V30 26174 H 2529.55 -1.27811 0.663344 0
M  V30 26175 H 2531.51 -4.18098 -0.526493 0
M  V30 26176 H 2530.23 -3.07656 -1.09614 0
M  V30 26177 H 2528.89 -3.5305 0.987492 0
M  V30 26178 H 2528.54 -4.91604 -1.06462 0
M  V30 26179 H 2528.24 -5.86131 0.415284 0
M  V30 26180 H 2529.76 -6.08634 -0.489581 0
M  V30 26181 H 2531.18 -5.4757 1.69823 0
M  V30 26182 H 2529.57 -5.46036 2.48927 0
M  V30 26183 H 2530.64 -4.05672 2.65629 0
M  V30 26184 N 2531.99 -0.735845 -1.39367 0
M  V30 26185 C 2532.92 -0.111547 -2.33233 0
M  V30 26186 C 2533.9 0.723307 -1.53955 0
M  V30 26187 O 2535.08 0.668115 -1.82345 0
M  V30 26188 C 2532.21 0.795857 -3.38058 0
M  V30 26189 C 2531.17 0.0650968 -4.2795 0
M  V30 26190 C 2530.49 1.08957 -5.23481 0
M  V30 26191 C 2531.79 -1.09282 -5.10739 0
M  V30 26192 H 2533.49 -0.895621 -2.8569 0
M  V30 26193 H 2531.03 -0.432134 -1.37363 0
M  V30 26194 H 2532.98 1.24214 -4.02677 0
M  V30 26195 H 2531.71 1.61206 -2.84043 0
M  V30 26196 H 2530.37 -0.361575 -3.64813 0
M  V30 26197 H 2530.02 1.89936 -4.65761 0
M  V30 26198 H 2529.72 0.605386 -5.84473 0
M  V30 26199 H 2531.24 1.53554 -5.90977 0
M  V30 26200 H 2532.65 -0.72494 -5.68698 0
M  V30 26201 H 2531.05 -1.5067 -5.80877 0
M  V30 26202 H 2532.12 -1.91412 -4.45522 0
M  V30 26203 N 2533.46 1.49999 -0.483543 0
M  V30 26204 C 2534.39 2.31644 0.293788 0
M  V30 26205 C 2535.37 1.39114 0.97884 0
M  V30 26206 O 2536.56 1.68031 0.973614 0
M  V30 26207 C 2533.69 3.19183 1.36892 0
M  V30 26208 C 2532.64 4.20366 0.804759 0
M  V30 26209 C 2531.97 4.96725 1.97911 0
M  V30 26210 C 2533.27 5.21945 -0.192404 0
M  V30 26211 H 2534.96 2.9688 -0.387668 0
M  V30 26212 H 2532.51 1.42769 -0.187881 0
M  V30 26213 H 2534.46 3.75103 1.9203 0
M  V30 26214 H 2533.19 2.51857 2.07932 0
M  V30 26215 H 2531.85 3.65565 0.275254 0
M  V30 26216 H 2531.49 4.25861 2.67678 0
M  V30 26217 H 2531.19 5.65176 1.60779 0
M  V30 26218 H 2532.72 5.55483 2.53516 0
M  V30 26219 H 2534.13 5.72663 0.270232 0
M  V30 26220 H 2532.53 5.98188 -0.478648 0
M  V30 26221 H 2533.6 4.71926 -1.11418 0
M  V30 26222 N 2534.94 0.216646 1.56104 0
M  V30 26223 C 2536.17 -0.421378 2.02564 0
M  V30 26224 C 2536.58 -1.53693 1.09653 0
M  V30 26225 O 2535.94 -1.82196 0.105242 0
M  V30 26226 C 2535.99 -0.957604 3.48586 0
M  V30 26227 O 2535.71 0.113466 4.37953 0
M  V30 26228 C 2537.21 -1.66936 4.10667 0
M  V30 26229 H 2534.43 -0.103654 0.662946 0
M  V30 26230 H 2536.98 0.331664 2.01793 0
M  V30 26231 H 2535.13 -1.66094 3.49988 0
M  V30 26232 H 2535.55 -0.28884 5.23704 0
M  V30 26233 H 2537.02 -1.99662 5.14625 0
M  V30 26234 H 2537.5 -2.58077 3.55377 0
M  V30 26235 H 2538.1 -1.01135 4.131 0
M  V30 26236 N 2536.42 -1.57498 -0.0567885 0
M  V30 26237 C 2537.38 -2.03717 -1.05034 0
M  V30 26238 C 2538.38 -0.9366 -1.30707 0
M  V30 26239 O 2539.57 -1.20105 -1.26176 0
M  V30 26240 C 2536.7 -2.43059 -2.3903 0
M  V30 26241 H 2537.9 -2.92734 -0.651664 0
M  V30 26242 H 2535.45 -1.53337 -0.30292 0
M  V30 26243 H 2536.19 -1.57113 -2.83701 0
M  V30 26244 H 2535.97 -3.23383 -2.21733 0
M  V30 26245 H 2537.46 -2.79341 -3.10416 0
M  V30 26246 N 2537.9 0.328509 -1.54138 0
M  V30 26247 C 2539.14 1.06861 -1.72361 0
M  V30 26248 C 2539.48 1.87831 -0.493264 0
M  V30 26249 O 2538.75 1.87701 0.509767 0
M  V30 26250 C 2539.03 1.99742 -2.99625 0
M  V30 26251 C 2538.89 1.22135 -4.32901 0
M  V30 26252 C 2540.21 2.9934 -3.2262 0
M  V30 26253 H 2537.33 0.387094 -0.627158 0
M  V30 26254 H 2539.97 0.345734 -1.86828 0
M  V30 26255 H 2538.12 2.61382 -2.87422 0
M  V30 26256 H 2539.79 0.629936 -4.56979 0
M  V30 26257 H 2538.03 0.523553 -4.30629 0
M  V30 26258 H 2538.7 1.90308 -5.18157 0
M  V30 26259 H 2541.18 2.4782 -3.34252 0
M  V30 26260 H 2540.06 3.61517 -4.13033 0
M  V30 26261 H 2540.32 3.71532 -2.39617 0
M  V30 26262 N 2539.38 1.46127 0.590316 0
M  V30 26263 C 2540.6 1.54835 1.37988 0
M  V30 26264 C 2541.03 0.187539 1.87163 0
M  V30 26265 O 2540.38 -0.830979 1.61135 0
M  V30 26266 C 2540.43 2.55102 2.54863 0
M  V30 26267 O 2539.54 2.08079 3.56057 0
M  V30 26268 H 2538.88 0.521311 0.411256 0
M  V30 26269 H 2541.41 1.91633 0.716785 0
M  V30 26270 H 2541.42 2.74466 3.01881 0
M  V30 26271 H 2540.09 3.53927 2.18423 0
M  V30 26272 H 2538.67 1.98669 3.15571 0
M  V30 26273 N 2540.85 -0.834306 1.33705 0
M  V30 26274 C 2541.76 -1.97646 1.26385 0
M  V30 26275 C 2542.78 -1.73132 0.173579 0
M  V30 26276 O 2543.96 -1.97428 0.397996 0
M  V30 26277 C 2541.02 -3.31731 1.00774 0
M  V30 26278 C 2540.08 -3.6933 2.18847 0
M  V30 26279 C 2539.31 -4.97017 1.94448 0
M  V30 26280 O 2539.54 -5.63302 0.89706 0
M  V30 26281 O 2538.47 -5.32226 2.81103 0
M  V30 26282 H 2542.3 -2.06763 2.22447 0
M  V30 26283 H 2539.88 -0.968017 1.13797 0
M  V30 26284 H 2541.76 -4.12061 0.882259 0
M  V30 26285 H 2540.44 -3.23607 0.0774352 0
M  V30 26286 H 2539.35 -2.89491 2.36951 0
M  V30 26287 H 2540.68 -3.82125 3.10228 0
M  V30 26288 N 2542.33 -1.17248 -1.05312 0
M  V30 26289 C 2543.58 -0.958225 -1.77939 0
M  V30 26290 C 2543.9 0.514523 -1.8809 0
M  V30 26291 O 2543.17 1.37357 -1.39678 0
M  V30 26292 H 2541.75 -0.351545 -0.659109 0
M  V30 26293 H 2544.41 -1.47701 -1.27163 0
M  V30 26294 H 2543.51 -1.38551 -2.79661 0
M  V30 26295 N 2543.81 1.24015 -0.972531 0
M  V30 26296 C 2545.23 1.44396 -0.679853 0
M  V30 26297 C 2545.43 1.86753 0.756683 0
M  V30 26298 O 2544.48 2.00864 1.53003 0
M  V30 26299 C 2545.8 2.50192 -1.66807 0
M  V30 26300 C 2547.34 2.64014 -1.68123 0
M  V30 26301 C 2547.82 3.73012 -2.65755 0
M  V30 26302 N 2549.31 3.80446 -2.64226 0
M  V30 26303 C 2550.04 4.64322 -3.36441 0
M  V30 26304 N 2549.54 5.52349 -4.1819 0
M  V30 26305 N 2551.33 4.58447 -3.25243 0
M  V30 26306 H 2543.48 0.948194 -1.90061 0
M  V30 26307 H 2545.75 0.478231 -0.818535 0
M  V30 26308 H 2545.45 2.25968 -2.69502 0
M  V30 26309 H 2545.33 3.48439 -1.44466 0
M  V30 26310 H 2547.71 2.87593 -0.661369 0
M  V30 26311 H 2547.8 1.6611 -1.94528 0
M  V30 26312 H 2547.44 3.50183 -3.67878 0
M  V30 26313 H 2547.37 4.70441 -2.36627 0
M  V30 26314 H 2549.86 3.17534 -2.04892 0
M  V30 26315 H 2550.17 6.13321 -4.70168 0
M  V30 26316 H 2548.52 5.51998 -4.22283 0
M  V30 26317 H 2551.71 3.88693 -2.60836 0
M  V30 26318 H 2551.88 5.23588 -3.81785 0
M  V30 26319 N 2545.29 0.743226 1.38974 0
M  V30 26320 C 2546.22 0.123914 2.33171 0
M  V30 26321 C 2547.2 -0.715132 1.54337 0
M  V30 26322 O 2548.38 -0.658435 1.82697 0
M  V30 26323 C 2545.51 -0.777918 3.38476 0
M  V30 26324 C 2544.47 -0.0424006 4.27979 0
M  V30 26325 C 2543.79 -1.0618 5.24051 0
M  V30 26326 C 2545.09 1.11989 5.10153 0
M  V30 26327 H 2546.79 0.91076 2.85211 0
M  V30 26328 H 2544.33 0.439412 1.37132 0
M  V30 26329 H 2546.29 -1.22077 4.0333 0
M  V30 26330 H 2545.01 -1.59697 2.84894 0
M  V30 26331 H 2543.67 0.380917 3.64616 0
M  V30 26332 H 2543.32 -1.87463 4.66762 0
M  V30 26333 H 2543.02 -0.574382 5.84786 0
M  V30 26334 H 2544.54 -1.50418 5.91783 0
M  V30 26335 H 2545.96 0.75509 5.68306 0
M  V30 26336 H 2544.35 1.53748 5.8007 0
M  V30 26337 H 2545.42 1.93772 4.445 0
M  V30 26338 N 2546.77 -1.4974 0.491491 0
M  V30 26339 C 2547.99 -2.07325 -0.0556813 0
M  V30 26340 C 2548.42 -1.35059 -1.30923 0
M  V30 26341 O 2547.77 -0.404396 -1.76732 0
M  V30 26342 C 2547.82 -3.59333 -0.302011 0
M  V30 26343 O 2546.93 -3.88675 -1.37861 0
M  V30 26344 H 2546.27 -0.663635 0.0220072 0
M  V30 26345 H 2548.8 -1.92672 0.688386 0
M  V30 26346 H 2548.81 -4.04459 -0.536393 0
M  V30 26347 H 2547.48 -4.11344 0.613902 0
M  V30 26348 H 2546.06 -3.55369 -1.12993 0
M  V30 26349 N 2548.24 -0.224922 -1.55987 0
M  V30 26350 C 2549.17 0.678418 -2.23427 0
M  V30 26351 C 2550.16 1.19845 -1.20712 0
M  V30 26352 O 2551.34 1.24183 -1.49306 0
M  V30 26353 C 2548.47 1.88522 -2.91679 0
M  V30 26354 C 2547.42 1.49889 -4.00895 0
M  V30 26355 C 2546.75 2.78475 -4.5646 0
M  V30 26356 C 2548.05 0.68637 -5.1777 0
M  V30 26357 H 2549.74 0.116121 -2.99175 0
M  V30 26358 H 2547.29 0.0544107 -1.43897 0
M  V30 26359 H 2549.24 2.52264 -3.37551 0
M  V30 26360 H 2547.97 2.47254 -2.13384 0
M  V30 26361 H 2546.63 0.884922 -3.55759 0
M  V30 26362 H 2546.27 3.35358 -3.74892 0
M  V30 26363 H 2545.97 2.53358 -5.30173 0
M  V30 26364 H 2547.5 3.43153 -5.05053 0
M  V30 26365 H 2548.91 1.22757 -5.60003 0
M  V30 26366 H 2547.31 0.532154 -5.97736 0
M  V30 26367 H 2548.38 -0.306281 -4.83932 0
M  V30 26368 N 2549.72 1.57526 0.0484352 0
M  V30 26369 C 2551 1.79487 0.777415 0
M  V30 26370 C 2551.38 0.818286 1.94595 0
M  V30 26371 O 2550.73 -0.143726 2.28048 0
M  V30 26372 C 2550.94 3.2666 1.22858 0
M  V30 26373 C 2552.29 3.91126 1.65245 0
M  V30 26374 O 2553.31 3.30693 1.32366 0
M  V30 26375 O 2552.17 4.9749 2.26198 0
M  V30 26376 H 2549.26 0.737425 0.374344 0
M  V30 26377 H 2551.81 1.69679 0.026706 0
M  V30 26378 H 2550.58 3.89316 0.393521 0
M  V30 26379 H 2550.2 3.41283 2.0399 0
M  V30 26380 N 2551.2 -0.32033 1.5431 0
M  V30 26381 C 2552.48 -1.07632 1.63324 0
M  V30 26382 C 2552.86 -2.05821 0.469156 0
M  V30 26383 O 2552.21 -2.22119 -0.536235 0
M  V30 26384 C 2552.42 -1.77539 3.00468 0
M  V30 26385 C 2553.76 -2.30442 3.56625 0
M  V30 26386 O 2554.79 -1.87601 3.02794 0
M  V30 26387 O 2553.65 -3.08884 4.50836 0
M  V30 26388 H 2550.74 -0.496319 0.66151 0
M  V30 26389 H 2553.29 -0.319963 1.66656 0
M  V30 26390 H 2552.06 -1.06136 3.76631 0
M  V30 26391 H 2551.68 -2.59977 3.00829 0
M  V30 26392 N 2552.68 -1.46438 -0.582558 0
M  V30 26393 C 2553.61 -1.59874 -1.70184 0
M  V30 26394 C 2554.59 -0.449071 -1.64065 0
M  V30 26395 O 2555.77 -0.675332 -1.82079 0
M  V30 26396 C 2552.9 -1.58886 -3.08824 0
M  V30 26397 C 2551.86 -2.72824 -3.29774 0
M  V30 26398 C 2551.18 -2.56898 -4.68943 0
M  V30 26399 C 2552.48 -4.14646 -3.17594 0
M  V30 26400 H 2554.18 -2.53569 -1.59196 0
M  V30 26401 H 2551.72 -1.22033 -0.764451 0
M  V30 26402 H 2553.68 -1.6688 -3.86948 0
M  V30 26403 H 2552.4 -0.617362 -3.20712 0
M  V30 26404 H 2551.06 -2.643 -2.54049 0
M  V30 26405 H 2550.71 -1.57831 -4.77596 0
M  V30 26406 H 2550.41 -3.3332 -4.83913 0
M  V30 26407 H 2551.93 -2.66783 -5.49235 0
M  V30 26408 H 2553.35 -4.24281 -3.85563 0
M  V30 26409 H 2551.74 -4.91656 -3.44085 0
M  V30 26410 H 2552.81 -4.34791 -2.14673 0
M  V30 26411 N 2554.16 0.827204 -1.34146 0
M  V30 26412 C 2555.09 1.95285 -1.28008 0
M  V30 26413 C 2556.07 1.69361 -0.15835 0
M  V30 26414 O 2557.25 1.9102 -0.35002 0
M  V30 26415 C 2554.38 3.31662 -1.03041 0
M  V30 26416 C 2553.34 3.72015 -2.11634 0
M  V30 26417 C 2552.66 5.06327 -1.71863 0
M  V30 26418 C 2553.96 3.84563 -3.53424 0
M  V30 26419 H 2555.66 2.00678 -2.22191 0
M  V30 26420 H 2553.2 0.964116 -1.06962 0
M  V30 26421 H 2555.16 4.09991 -0.973935 0
M  V30 26422 H 2553.88 3.26557 -0.0529965 0
M  V30 26423 H 2552.54 2.95958 -2.16344 0
M  V30 26424 H 2552.19 4.97705 -0.727929 0
M  V30 26425 H 2551.89 5.34297 -2.44541 0
M  V30 26426 H 2553.41 5.87119 -1.67702 0
M  V30 26427 H 2554.82 4.53174 -3.5115 0
M  V30 26428 H 2553.22 4.23983 -4.24687 0
M  V30 26429 H 2554.29 2.86682 -3.91077 0
M  V30 26430 N 2555.63 1.17805 1.04688 0
M  V30 26431 C 2556.57 0.857135 2.1257 0
M  V30 26432 C 2557.58 -0.142619 1.62174 0
M  V30 26433 O 2558.77 0.0843701 1.783 0
M  V30 26434 C 2555.87 0.258275 3.37914 0
M  V30 26435 C 2555.04 1.30215 4.17568 0
M  V30 26436 C 2554.1 0.72012 5.21249 0
M  V30 26437 O 2553.13 1.39324 5.51885 0
M  V30 26438 N 2554.33 -0.485405 5.78467 0
M  V30 26439 H 2557.09 1.78567 2.40695 0
M  V30 26440 H 2554.65 1.07759 1.20829 0
M  V30 26441 H 2556.65 -0.144513 4.04442 0
M  V30 26442 H 2555.22 -0.574145 3.07282 0
M  V30 26443 H 2554.44 1.88049 3.46455 0
M  V30 26444 H 2555.72 2.00609 4.67582 0
M  V30 26445 H 2555.12 -1.05013 5.55868 0
M  V30 26446 H 2553.68 -0.830193 6.46491 0
M  V30 26447 N 2557.11 -1.23497 0.979094 0
M  V30 26448 C 2558.53 -1.44033 0.687501 0
M  V30 26449 C 2558.73 -1.87151 -0.746768 0
M  V30 26450 O 2557.78 -2.01672 -1.51936 0
M  V30 26451 C 2559.1 -2.49304 1.68131 0
M  V30 26452 C 2560.65 -2.63119 1.69521 0
M  V30 26453 C 2561.12 -3.71598 2.67729 0
M  V30 26454 N 2562.61 -3.79039 2.6624 0
M  V30 26455 C 2563.35 -4.62531 3.38899 0
M  V30 26456 N 2562.84 -5.50123 4.21113 0
M  V30 26457 N 2564.64 -4.56716 3.2767 0
M  V30 26458 H 2556.79 -0.938101 1.90561 0
M  V30 26459 H 2559.05 -0.473883 0.82106 0
M  V30 26460 H 2558.76 -2.24536 2.70697 0
M  V30 26461 H 2558.63 -3.47668 1.46312 0
M  V30 26462 H 2561.02 -2.87239 0.676612 0
M  V30 26463 H 2561.1 -1.65076 1.95406 0
M  V30 26464 H 2560.74 -3.48227 3.6973 0
M  V30 26465 H 2560.67 -4.6918 2.39119 0
M  V30 26466 H 2563.16 -3.16443 2.06573 0
M  V30 26467 H 2563.48 -6.10819 4.73414 0
M  V30 26468 H 2561.82 -5.49751 4.25204 0
M  V30 26469 H 2565.01 -3.87304 2.62893 0
M  V30 26470 H 2565.18 -5.21556 3.84556 0
M  V30 26471 N 2558.59 -0.750586 -1.38578 0
M  V30 26472 C 2559.52 -0.136278 -2.33102 0
M  V30 26473 C 2560.5 0.706937 -1.54714 0
M  V30 26474 O 2561.69 0.648737 -1.83044 0
M  V30 26475 C 2558.82 0.759957 -3.38883 0
M  V30 26476 C 2557.77 0.0197032 -4.27995 0
M  V30 26477 C 2557.1 1.03399 -5.24607 0
M  V30 26478 C 2558.4 -1.14693 -5.09552 0
M  V30 26479 H 2560.09 -0.925872 -2.84724 0
M  V30 26480 H 2557.64 -0.446678 -1.36897 0
M  V30 26481 H 2559.59 1.19936 -4.03972 0
M  V30 26482 H 2558.31 1.58184 -2.85737 0
M  V30 26483 H 2556.97 -0.400248 -3.64409 0
M  V30 26484 H 2556.62 1.84985 -4.67749 0
M  V30 26485 H 2556.32 0.543361 -5.85082 0
M  V30 26486 H 2557.85 1.47278 -5.92572 0
M  V30 26487 H 2559.26 -0.785218 -5.67897 0
M  V30 26488 H 2557.66 -1.56822 -5.79247 0
M  V30 26489 H 2558.73 -1.96126 -4.43466 0
M  V30 26490 N 2560.07 1.49477 -0.499425 0
M  V30 26491 C 2561.02 2.2603 0.299063 0
M  V30 26492 C 2562 1.30808 0.936911 0
M  V30 26493 O 2563.2 1.5554 0.844771 0
M  V30 26494 C 2560.32 3.15046 1.36385 0
M  V30 26495 C 2559.41 4.17729 0.732325 0
M  V30 26496 N 2559.8 5.05534 -0.164117 0
M  V30 26497 C 2558.1 4.34803 0.993086 0
M  V30 26498 C 2558.8 5.79322 -0.525446 0
M  V30 26499 N 2557.78 5.43496 0.106252 0
M  V30 26500 H 2561.58 2.91287 -0.391054 0
M  V30 26501 H 2559.09 1.59308 -0.315398 0
M  V30 26502 H 2561.09 3.6852 1.94933 0
M  V30 26503 H 2559.75 2.51341 2.05567 0
M  V30 26504 H 2560.76 5.15131 -0.534827 0
M  V30 26505 H 2557.44 3.82305 1.67777 0
M  V30 26506 H 2558.83 6.60004 -1.25873 0
M  V30 26507 N 2561.55 0.233191 1.55865 0
M  V30 26508 C 2562.5 -0.685736 2.17443 0
M  V30 26509 C 2563.48 -1.14916 1.12619 0
M  V30 26510 O 2564.67 -1.10121 1.38572 0
M  V30 26511 C 2561.8 -1.88851 2.86688 0
M  V30 26512 C 2560.89 -1.44423 3.98752 0
M  V30 26513 N 2561.28 -0.713276 5.00745 0
M  V30 26514 C 2559.58 -1.7306 4.11055 0
M  V30 26515 C 2560.28 -0.485103 5.79674 0
M  V30 26516 N 2559.25 -1.04527 5.33456 0
M  V30 26517 H 2563.06 -0.11897 2.93659 0
M  V30 26518 H 2560.57 0.0349281 1.62362 0
M  V30 26519 H 2562.57 -2.5577 3.29222 0
M  V30 26520 H 2561.23 -2.45964 2.11972 0
M  V30 26521 H 2562.24 -0.36477 5.16614 0
M  V30 26522 H 2558.92 -2.3141 3.47499 0
M  V30 26523 H 2560.31 0.0974831 6.71829 0
M  V30 26524 N 2563.03 -1.57549 -0.0400806 0
M  V30 26525 C 2563.97 -2.0691 -1.0626 0
M  V30 26526 C 2564.97 -0.980633 -1.3813 0
M  V30 26527 O 2566.17 -1.16559 -1.37165 0
M  V30 26528 H 2562.55 -0.660146 -0.360155 0
M  V30 26529 H 2564.52 -2.9188 -0.620394 0
M  V30 26530 C 2563.27 -2.55488 -2.35842 0
M  V30 26531 H 2562.59 -3.38853 -2.12177 0
M  V30 26532 H 2564.03 -2.93746 -3.0576 0
M  V30 26533 C 2562.49 -1.45131 -3.04037 0
M  V30 26534 O 2563.02 -0.811285 -3.93422 0
M  V30 26535 N 2561.23 -1.18856 -2.65182 0
M  V30 26536 H 2560.77 -1.71086 -1.92581 0
M  V30 26537 H 2560.73 -0.452298 -3.1113 0
M  V30 26538 N 2564.5 0.312142 -1.54478 0
M  V30 26539 C 2565.91 0.885862 -1.64345 0
M  V30 26540 C 2566.27 1.88482 -0.544883 0
M  V30 26541 O 2565.39 2.14016 0.32035 0
M  V30 26542 C 2565.99 1.61351 -2.97911 0
M  V30 26543 C 2564.54 2.1358 -3.09937 0
M  V30 26544 C 2563.69 0.964852 -2.59973 0
M  V30 26545 H 2566.64 0.0894249 -1.58448 0
M  V30 26546 H 2566.66 2.47843 -2.88711 0
M  V30 26547 H 2566.18 0.88621 -3.77846 0
M  V30 26548 H 2564.28 2.89391 -2.34699 0
M  V30 26549 H 2564.39 2.37797 -4.1592 0
M  V30 26550 H 2562.75 1.34727 -2.1615 0
M  V30 26551 H 2563.54 0.251682 -3.42376 0
M  V30 26552 N 2565.98 1.46745 0.574784 0
M  V30 26553 C 2567.4 1.31875 0.898958 0
M  V30 26554 C 2567.6 0.296085 1.99313 0
M  V30 26555 O 2566.65 -0.298577 2.50728 0
M  V30 26556 C 2567.97 2.70722 1.30881 0
M  V30 26557 C 2569.51 2.78873 1.42122 0
M  V30 26558 C 2569.99 4.18321 1.86471 0
M  V30 26559 N 2571.48 4.20777 1.93651 0
M  V30 26560 C 2572.22 5.25574 2.29258 0
M  V30 26561 N 2571.71 6.40692 2.63601 0
M  V30 26562 N 2573.5 5.12944 2.2988 0
M  V30 26563 H 2565.66 2.11885 -0.147876 0
M  V30 26564 H 2567.92 0.947994 -0.00348679 0
M  V30 26565 H 2567.62 3.46905 0.578792 0
M  V30 26566 H 2567.5 3.01347 2.26869 0
M  V30 26567 H 2569.89 2.02974 2.14209 0
M  V30 26568 H 2569.97 2.51923 0.443661 0
M  V30 26569 H 2569.61 4.94719 1.1496 0
M  V30 26570 H 2569.54 4.42684 2.85199 0
M  V30 26571 H 2572.03 3.37721 1.69568 0
M  V30 26572 H 2572.34 7.16426 2.89746 0
M  V30 26573 H 2570.69 6.44041 2.61221 0
M  V30 26574 H 2573.88 4.22043 2.02478 0
M  V30 26575 H 2574.05 5.94727 2.57301 0
M  V30 26576 N 2567.46 -0.820078 1.34583 0
M  V30 26577 C 2568.88 -1.11362 1.14327 0
M  V30 26578 C 2569.08 -2.01429 -0.0533294 0
M  V30 26579 O 2568.13 -2.41778 -0.728002 0
M  V30 26580 C 2569.44 -1.7576 2.43986 0
M  V30 26581 C 2570.99 -1.88242 2.50068 0
M  V30 26582 C 2571.47 -2.56055 3.79737 0
M  V30 26583 N 2572.96 -2.63552 3.80913 0
M  V30 26584 C 2573.69 -3.16758 4.77966 0
M  V30 26585 N 2573.19 -3.70506 5.85403 0
M  V30 26586 N 2574.98 -3.15186 4.65419 0
M  V30 26587 H 2567.13 -0.221059 2.11247 0
M  V30 26588 H 2569.4 -0.160633 0.934292 0
M  V30 26589 H 2569.1 -1.17044 3.31653 0
M  V30 26590 H 2568.98 -2.75599 2.57536 0
M  V30 26591 H 2571.36 -2.46105 1.62839 0
M  V30 26592 H 2571.44 -0.872964 2.40443 0
M  V30 26593 H 2571.09 -1.98845 4.67358 0
M  V30 26594 H 2571.02 -3.5751 3.86645 0
M  V30 26595 H 2573.51 -2.25457 3.03278 0
M  V30 26596 H 2573.82 -4.09364 6.5547 0
M  V30 26597 H 2572.17 -3.68742 5.89113 0
M  V30 26598 H 2575.36 -2.72465 3.80632 0
M  V30 26599 H 2575.53 -3.56347 5.41222 0
M  V30 26600 N 2568.94 -1.18359 -1.04062 0
M  V30 26601 C 2570.19 -0.973344 -1.7666 0
M  V30 26602 C 2570.5 0.497958 -1.89155 0
M  V30 26603 O 2571.71 0.826716 -2.58607 0
M  V30 26604 C 2570.16 -1.69247 -3.17622 0
M  V30 26605 C 2569.77 -3.20308 -3.1322 0
M  V30 26606 C 2571.51 -1.56504 -3.94597 0
M  V30 26607 C 2569.42 -3.8486 -4.49039 0
M  V30 26608 H 2568.35 -0.360552 -0.662207 0
M  V30 26609 H 2571 -1.41733 -1.16551 0
M  V30 26610 H 2569.38 -1.17626 -3.78127 0
M  V30 26611 H 2570.56 -3.78954 -2.62165 0
M  V30 26612 H 2568.87 -3.33193 -2.49743 0
M  V30 26613 H 2571.47 -2.02093 -4.95038 0
M  V30 26614 H 2571.81 -0.517315 -4.13073 0
M  V30 26615 H 2572.35 -2.05405 -3.40666 0
M  V30 26616 H 2569.08 -4.8968 -4.35768 0
M  V30 26617 H 2568.6 -3.31003 -5.00197 0
M  V30 26618 H 2570.28 -3.87727 -5.17955 0
M  V30 26619 N 2570.42 1.22976 -0.98563 0
M  V30 26620 C 2571.66 1.91531 -0.65742 0
M  V30 26621 C 2571.99 1.76846 0.809676 0
M  V30 26622 O 2571.25 1.12661 1.60019 0
M  V30 26623 C 2571.54 3.43119 -1.0002 0
M  V30 26624 C 2571.21 3.77988 -2.45837 0
M  V30 26625 C 2569.87 3.87217 -2.85686 0
M  V30 26626 C 2572.22 3.94699 -3.40385 0
M  V30 26627 C 2569.55 4.10588 -4.19088 0
M  V30 26628 C 2571.9 4.19572 -4.73437 0
M  V30 26629 C 2570.57 4.27023 -5.13038 0
M  V30 26630 H 2569.84 0.700863 -0.240567 0
M  V30 26631 H 2572.49 1.45893 -1.24046 0
M  V30 26632 H 2570.79 3.90364 -0.335141 0
M  V30 26633 H 2572.49 3.94403 -0.724391 0
M  V30 26634 H 2569.08 3.71383 -2.13945 0
M  V30 26635 H 2573.26 3.86955 -3.10773 0
M  V30 26636 H 2568.52 4.14581 -4.49369 0
M  V30 26637 H 2572.69 4.31446 -5.46651 0
M  V30 26638 H 2570.32 4.44885 -6.16426 0
M  V30 26639 N 2571.89 0.757924 1.38178 0
M  V30 26640 C 2572.84 0.108714 2.27741 0
M  V30 26641 C 2573.83 -0.688683 1.45417 0
M  V30 26642 O 2575.02 -0.553926 1.68109 0
M  V30 26643 C 2572.15 -0.780308 3.34314 0
M  V30 26644 C 2571.23 0.0241723 4.24093 0
M  V30 26645 N 2571.63 1.0628 4.94508 0
M  V30 26646 C 2569.92 -0.20197 4.45542 0
M  V30 26647 C 2570.62 1.54989 5.60672 0
M  V30 26648 N 2569.6 0.864442 5.36683 0
M  V30 26649 H 2573.4 0.90412 2.79648 0
M  V30 26650 H 2570.92 0.594373 1.51132 0
M  V30 26651 H 2572.91 -1.26107 3.9737 0
M  V30 26652 H 2571.57 -1.57462 2.83965 0
M  V30 26653 H 2572.58 1.44468 4.97342 0
M  V30 26654 H 2569.26 -0.969278 4.06093 0
M  V30 26655 H 2570.65 2.41528 6.26988 0
M  V30 26656 N 2573.37 -1.4921 0.507345 0
M  V30 26657 C 2574.3 -2.32082 -0.256899 0
M  V30 26658 C 2575.28 -1.40654 -0.956584 0
M  V30 26659 O 2576.47 -1.69559 -0.946759 0
M  V30 26660 C 2573.6 -3.21321 -1.31797 0
M  V30 26661 C 2572.55 -4.21593 -0.737781 0
M  V30 26662 C 2571.88 -4.9981 -1.89983 0
M  V30 26663 C 2573.18 -5.21573 0.275417 0
M  V30 26664 H 2574.87 -2.96225 0.43485 0
M  V30 26665 H 2572.42 -1.42452 0.210571 0
M  V30 26666 H 2574.37 -3.78111 -1.86038 0
M  V30 26667 H 2573.1 -2.55133 -2.03899 0
M  V30 26668 H 2571.75 -3.65957 -0.217061 0
M  V30 26669 H 2571.4 -4.30065 -2.60869 0
M  V30 26670 H 2571.1 -5.67662 -1.51767 0
M  V30 26671 H 2572.63 -5.59446 -2.44647 0
M  V30 26672 H 2574.04 -5.7302 -0.179093 0
M  V30 26673 H 2572.44 -5.97351 0.573754 0
M  V30 26674 H 2573.51 -4.70094 1.18912 0
M  V30 26675 N 2574.85 -0.241454 -1.55739 0
M  V30 26676 C 2576.26 0.262722 -1.84842 0
M  V30 26677 C 2576.61 1.58001 -1.1632 0
M  V30 26678 O 2575.74 2.11886 -0.43969 0
M  V30 26679 C 2576.33 0.483464 -3.35333 0
M  V30 26680 C 2574.89 0.931913 -3.64681 0
M  V30 26681 C 2574.04 0.00606635 -2.77299 0
M  V30 26682 H 2576.99 -0.464155 -1.51761 0
M  V30 26683 H 2577.01 1.32682 -3.56617 0
M  V30 26684 H 2576.52 -0.475437 -3.85177 0
M  V30 26685 H 2574.62 1.90347 -3.2031 0
M  V30 26686 H 2574.74 0.792545 -4.72499 0
M  V30 26687 H 2573.1 0.51646 -2.49409 0
M  V30 26688 H 2573.88 -0.94811 -3.29948 0
M  V30 26689 N 2576.33 1.57568 0.0317248 0
M  V30 26690 C 2577.74 1.77506 0.57866 0
M  V30 26691 C 2578.09 0.872195 1.75748 0
M  V30 26692 O 2577.22 0.0663487 2.16298 0
M  V30 26693 C 2577.81 3.21905 1.05652 0
M  V30 26694 C 2576.37 3.4305 1.549 0
M  V30 26695 C 2575.52 2.7301 0.485891 0
M  V30 26696 H 2578.47 1.57504 -0.194502 0
M  V30 26697 H 2578.49 3.28273 1.92399 0
M  V30 26698 H 2578 3.87593 0.198354 0
M  V30 26699 H 2576.1 2.82534 2.4291 0
M  V30 26700 H 2576.21 4.51653 1.59833 0
M  V30 26701 H 2574.58 2.36707 0.940313 0
M  V30 26702 H 2575.36 3.41378 -0.362769 0
M  V30 26703 N 2577.81 -0.303946 1.54641 0
M  V30 26704 C 2578.74 -1.39633 1.81756 0
M  V30 26705 C 2579.75 -1.46965 0.700376 0
M  V30 26706 O 2580.94 -1.49336 0.977807 0
M  V30 26707 C 2578.04 -2.78027 1.93789 0
M  V30 26708 C 2577.21 -2.93663 3.24161 0
M  V30 26709 C 2576.27 -4.12538 3.26648 0
M  V30 26710 O 2575.3 -4.04764 4.00194 0
M  V30 26711 N 2576.5 -5.23032 2.51829 0
M  V30 26712 H 2579.27 -1.16729 2.76033 0
M  V30 26713 H 2576.83 -0.494006 1.54179 0
M  V30 26714 H 2578.82 -3.55792 1.92858 0
M  V30 26715 H 2577.39 -2.93891 1.0652 0
M  V30 26716 H 2576.61 -2.03036 3.37891 0
M  V30 26717 H 2577.9 -3.0102 4.10201 0
M  V30 26718 H 2577.29 -5.32228 1.91702 0
M  V30 26719 H 2575.85 -5.99142 2.56654 0
M  V30 26720 N 2579.28 -1.47047 -0.566994 0
M  V30 26721 C 2580.19 -1.61413 -1.70244 0
M  V30 26722 C 2581.21 -0.497186 -1.66745 0
M  V30 26723 O 2582.39 -0.763422 -1.8637 0
M  V30 26724 C 2579.45 -1.61566 -3.06753 0
M  V30 26725 C 2578.51 -2.84613 -3.21394 0
M  V30 26726 C 2577.75 -2.84749 -4.51391 0
M  V30 26727 O 2577.97 -1.94398 -5.36252 0
M  V30 26728 O 2576.9 -3.76491 -4.69615 0
M  V30 26729 H 2580.73 -2.5747 -1.61069 0
M  V30 26730 H 2578.31 -1.3002 -0.735871 0
M  V30 26731 H 2580.2 -1.64403 -3.88007 0
M  V30 26732 H 2578.87 -0.686739 -3.16331 0
M  V30 26733 H 2577.78 -2.87324 -2.39574 0
M  V30 26734 H 2579.11 -3.76766 -3.16714 0
M  V30 26735 N 2580.76 0.812929 -1.35016 0
M  V30 26736 C 2582.04 1.55615 -1.18504 0
M  V30 26737 C 2582.42 2.0975 0.238384 0
M  V30 26738 O 2581.77 1.91859 1.24106 0
M  V30 26739 C 2581.98 2.66967 -2.24788 0
M  V30 26740 C 2583.33 3.35474 -2.60274 0
M  V30 26741 O 2584.35 2.77232 -2.23653 0
M  V30 26742 O 2583.21 4.40673 -3.23218 0
M  V30 26743 H 2580.3 0.687264 -0.459996 0
M  V30 26744 H 2582.85 0.853438 -1.46678 0
M  V30 26745 H 2581.62 2.24792 -3.20288 0
M  V30 26746 H 2581.24 3.4488 -1.97847 0
M  V30 26747 N 2582.24 1.18909 1.03433 0
M  V30 26748 C 2583.47 1.01345 1.8038 0
M  V30 26749 C 2583.88 -0.437973 1.8365 0
M  V30 26750 O 2583.24 -1.30422 1.27657 0
M  V30 26751 C 2583.29 1.56879 3.25686 0
M  V30 26752 O 2583.01 2.96339 3.22668 0
M  V30 26753 C 2584.51 1.44022 4.19253 0
M  V30 26754 H 2581.73 0.3575 0.567833 0
M  V30 26755 H 2584.28 1.57602 1.30315 0
M  V30 26756 H 2582.43 1.04783 3.7296 0
M  V30 26757 H 2582.85 3.22362 4.13742 0
M  V30 26758 H 2584.32 1.87666 5.1912 0
M  V30 26759 H 2584.8 0.389892 4.37466 0
M  V30 26760 H 2585.4 1.95221 3.77848 0
M  V30 26761 N 2583.72 -1.22452 0.992137 0
M  V30 26762 C 2584.95 -1.94914 0.684983 0
M  V30 26763 C 2585.36 -1.73515 -0.754261 0
M  V30 26764 O 2584.7 -1.03078 -1.52054 0
M  V30 26765 C 2584.76 -3.47789 0.910115 0
M  V30 26766 C 2584.43 -3.92922 2.33369 0
M  V30 26767 C 2585.42 -4.00657 3.31315 0
M  V30 26768 C 2583.11 -4.2559 2.66792 0
M  V30 26769 C 2585.1 -4.40433 4.60757 0
M  V30 26770 C 2582.79 -4.65046 3.96454 0
M  V30 26771 C 2583.79 -4.72436 4.93248 0
M  V30 26772 O 2583.47 -5.10999 6.20593 0
M  V30 26773 H 2583.21 -0.627036 0.252591 0
M  V30 26774 H 2585.76 -1.56575 1.32941 0
M  V30 26775 H 2583.99 -3.86137 0.20851 0
M  V30 26776 H 2585.68 -4.01466 0.598327 0
M  V30 26777 H 2586.45 -3.7561 3.06826 0
M  V30 26778 H 2582.32 -4.19043 1.92155 0
M  V30 26779 H 2585.87 -4.46116 5.36308 0
M  V30 26780 H 2581.77 -4.89545 4.20733 0
M  V30 26781 H 2582.53 -5.29074 6.24518 0
M  V30 26782 N 2585.2 -0.765242 -1.37774 0
M  V30 26783 C 2586.44 -0.327107 -2.00145 0
M  V30 26784 C 2586.78 1.09172 -1.60609 0
M  V30 26785 O 2586.05 1.74984 -0.849158 0
M  V30 26786 C 2586.33 -0.463252 -3.57108 0
M  V30 26787 C 2586.19 -1.92402 -4.06573 0
M  V30 26788 C 2587.51 0.136396 -4.39889 0
M  V30 26789 H 2584.62 -0.120329 -0.727111 0
M  V30 26790 H 2587.27 -0.967068 -1.63548 0
M  V30 26791 H 2585.42 0.0815675 -3.88414 0
M  V30 26792 H 2587.09 -2.52805 -3.85859 0
M  V30 26793 H 2585.33 -2.43509 -3.59007 0
M  V30 26794 H 2586 -1.97038 -5.15636 0
M  V30 26795 H 2588.48 -0.328389 -4.14802 0
M  V30 26796 H 2587.35 0.0109617 -5.48899 0
M  V30 26797 H 2587.62 1.226 -4.24761 0
M  V30 26798 N 2586.67 1.48939 -0.515251 0
M  V30 26799 C 2587.58 2.33158 0.259733 0
M  V30 26800 C 2588.6 1.4555 0.953475 0
M  V30 26801 O 2589.78 1.78553 0.931703 0
M  V30 26802 C 2586.84 3.21329 1.30187 0
M  V30 26803 C 2585.9 4.24799 0.620054 0
M  V30 26804 C 2585.14 5.08756 1.61254 0
M  V30 26805 O 2585.36 4.94453 2.84381 0
M  V30 26806 O 2584.29 5.90616 1.16003 0
M  V30 26807 H 2588.12 3.00641 -0.429984 0
M  V30 26808 H 2585.7 1.46821 -0.276372 0
M  V30 26809 H 2587.59 3.75909 1.90448 0
M  V30 26810 H 2586.26 2.56524 1.97426 0
M  V30 26811 H 2585.17 3.74093 -0.0226677 0
M  V30 26812 H 2586.5 4.92199 -0.0101358 0
M  V30 26813 N 2588.15 0.249709 1.55609 0
M  V30 26814 C 2589.4 -0.374806 1.99306 0
M  V30 26815 C 2589.73 -1.57385 1.13769 0
M  V30 26816 O 2589.01 -1.93451 0.201745 0
M  V30 26817 C 2589.29 -0.781924 3.51508 0
M  V30 26818 C 2589.14 0.422707 4.47809 0
M  V30 26819 C 2590.46 -1.62786 4.08887 0
M  V30 26820 H 2587.58 -0.13476 0.724575 0
M  V30 26821 H 2590.22 0.351582 1.86719 0
M  V30 26822 H 2588.37 -1.40083 3.62366 0
M  V30 26823 H 2590.05 1.06116 4.48929 0
M  V30 26824 H 2588.29 1.06532 4.20516 0
M  V30 26825 H 2588.96 0.0944736 5.51919 0
M  V30 26826 H 2591.44 -1.10539 4.01149 0
M  V30 26827 H 2590.31 -1.88157 5.15643 0
M  V30 26828 H 2590.57 -2.60062 3.57519 0
M  V30 26829 N 2589.63 -1.57583 -0.0233682 0
M  V30 26830 C 2590.91 -1.80701 -0.748762 0
M  V30 26831 C 2591.29 -0.84914 -1.93269 0
M  V30 26832 O 2590.64 0.107428 -2.28247 0
M  V30 26833 C 2590.85 -3.28573 -1.17646 0
M  V30 26834 C 2592.19 -3.93705 -1.59001 0
M  V30 26835 O 2593.22 -3.32757 -1.27088 0
M  V30 26836 O 2592.08 -5.01026 -2.18255 0
M  V30 26837 H 2589.17 -0.743287 -0.362564 0
M  V30 26838 H 2591.72 -1.697 0.000291787 0
M  V30 26839 H 2590.49 -3.89893 -0.331534 0
M  V30 26840 H 2590.11 -3.44485 -1.98535 0
M  V30 26841 N 2591.11 0.29574 -1.548 0
M  V30 26842 C 2592.04 1.36955 -1.89118 0
M  V30 26843 C 2593.02 1.52643 -0.750617 0
M  V30 26844 O 2594.21 1.66063 -1.00681 0
M  V30 26845 C 2591.34 2.73291 -2.14311 0
M  V30 26846 C 2590.29 2.72363 -3.30155 0
M  V30 26847 C 2589.62 4.12036 -3.40779 0
M  V30 26848 C 2590.92 2.33638 -4.6713 0
M  V30 26849 H 2592.61 1.08483 -2.79055 0
M  V30 26850 H 2590.16 0.52042 -1.34267 0
M  V30 26851 H 2592.11 3.48503 -2.36904 0
M  V30 26852 H 2590.83 3.03299 -1.2115 0
M  V30 26853 H 2589.49 1.99607 -3.07494 0
M  V30 26854 H 2589.14 4.3923 -2.45125 0
M  V30 26855 H 2588.84 4.12315 -4.18653 0
M  V30 26856 H 2590.36 4.8902 -3.65638 0
M  V30 26857 H 2591.78 2.98567 -4.89419 0
M  V30 26858 H 2590.17 2.4512 -5.47756 0
M  V30 26859 H 2591.24 1.28764 -4.67491 0
M  V30 26860 N 2592.59 1.47346 0.559187 0
M  V30 26861 C 2593.5 1.62314 1.69386 0
M  V30 26862 C 2594.51 0.506022 1.66479 0
M  V30 26863 O 2595.69 0.773295 1.85963 0
M  V30 26864 C 2592.75 1.63191 3.05892 0
M  V30 26865 C 2591.82 2.86313 3.1988 0
M  V30 26866 C 2591.05 2.87139 4.49874 0
M  V30 26867 O 2591.27 1.97239 5.35213 0
M  V30 26868 O 2590.21 3.78976 4.67612 0
M  V30 26869 H 2594.03 2.5832 1.59701 0
M  V30 26870 H 2591.62 1.30409 0.728966 0
M  V30 26871 H 2593.5 1.66458 3.8713 0
M  V30 26872 H 2592.17 0.703506 3.15963 0
M  V30 26873 H 2591.08 2.88591 2.38046 0
M  V30 26874 H 2592.41 3.78441 3.14712 0
M  V30 26875 N 2594.07 -0.805758 1.35445 0
M  V30 26876 C 2595.02 -1.90696 1.24976 0
M  V30 26877 C 2596 -1.60247 0.144835 0
M  V30 26878 O 2597.19 -1.72957 0.376133 0
M  V30 26879 C 2594.32 -3.27647 1.02481 0
M  V30 26880 C 2593.41 -3.6416 2.17367 0
M  V30 26881 N 2593.8 -3.72103 3.42597 0
M  V30 26882 C 2592.1 -3.9412 2.08772 0
M  V30 26883 C 2592.8 -4.04382 4.18151 0
M  V30 26884 N 2591.77 -4.18509 3.46917 0
M  V30 26885 H 2595.57 -1.9504 2.19855 0
M  V30 26886 H 2593.09 -1.00039 1.2793 0
M  V30 26887 H 2595.09 -4.06379 0.930688 0
M  V30 26888 H 2593.75 -3.24589 0.084858 0
M  V30 26889 H 2594.76 -3.5516 3.76938 0
M  V30 26890 H 2591.43 -3.99082 1.22637 0
M  V30 26891 H 2592.82 -4.17587 5.26375 0
M  V30 26892 N 2595.54 -1.19456 -1.02801 0
M  V30 26893 C 2596.45 -0.948445 -2.14573 0
M  V30 26894 C 2597.47 0.0918405 -1.73757 0
M  V30 26895 O 2598.65 -0.0930008 -2.01185 0
M  V30 26896 C 2595.71 -0.491326 -3.43201 0
M  V30 26897 C 2594.77 -1.6011 -3.98325 0
M  V30 26898 C 2594 -1.1657 -5.20814 0
M  V30 26899 O 2594.23 -0.029624 -5.70392 0
M  V30 26900 O 2593.16 -1.96859 -5.68797 0
M  V30 26901 H 2596.99 -1.88401 -2.38199 0
M  V30 26902 H 2594.57 -0.977453 -1.12988 0
M  V30 26903 H 2596.45 -0.245089 -4.20687 0
M  V30 26904 H 2595.13 0.415794 -3.21018 0
M  V30 26905 H 2594.04 -1.9015 -3.22171 0
M  V30 26906 H 2595.37 -2.48481 -4.24874 0
M  V30 26907 N 2597.02 1.21924 -0.998617 0
M  V30 26908 C 2598.27 1.91398 -0.68837 0
M  V30 26909 C 2598.62 1.76242 0.771774 0
M  V30 26910 O 2597.92 1.12422 1.55151 0
M  V30 26911 C 2598.11 3.42039 -1.03654 0
M  V30 26912 C 2597.94 3.7185 -2.52898 0
M  V30 26913 C 2596.71 3.91554 -3.19396 0
M  V30 26914 C 2598.91 3.75869 -3.51037 0
M  V30 26915 N 2596.89 4.08726 -4.58057 0
M  V30 26916 C 2598.26 3.9825 -4.75181 0
M  V30 26917 C 2600.31 3.58745 -3.45263 0
M  V30 26918 C 2599.02 4.05284 -5.94254 0
M  V30 26919 C 2601.04 3.67041 -4.63719 0
M  V30 26920 C 2600.41 3.89877 -5.86665 0
M  V30 26921 H 2596.5 0.720802 -0.303264 0
M  V30 26922 H 2599.09 1.46729 -1.27979 0
M  V30 26923 H 2597.26 3.85501 -0.473637 0
M  V30 26924 H 2598.99 3.98917 -0.681689 0
M  V30 26925 H 2595.75 3.892 -2.69852 0
M  V30 26926 H 2596.17 4.21228 -5.29997 0
M  V30 26927 H 2600.81 3.40071 -2.51221 0
M  V30 26928 H 2598.53 4.2276 -6.88694 0
M  V30 26929 H 2602.12 3.55122 -4.60847 0
M  V30 26930 H 2601 3.96132 -6.76793 0
M  V30 26931 N 2598.5 0.772537 1.37367 0
M  V30 26932 C 2599.73 0.348623 2.03942 0
M  V30 26933 C 2600.14 -1.02944 1.58265 0
M  V30 26934 O 2599.5 -1.65726 0.764275 0
M  V30 26935 C 2599.55 0.383574 3.59459 0
M  V30 26936 O 2599.27 1.70728 4.03465 0
M  V30 26937 C 2600.77 -0.0518373 4.4327 0
M  V30 26938 H 2597.99 0.145978 0.654929 0
M  V30 26939 H 2600.54 1.04668 1.75684 0
M  V30 26940 H 2598.69 -0.26591 3.86486 0
M  V30 26941 H 2599.11 1.64645 4.97988 0
M  V30 26942 H 2600.58 0.0237703 5.51995 0
M  V30 26943 H 2601.06 -1.10231 4.25142 0
M  V30 26944 H 2601.66 0.569489 4.2147 0
M  V30 26945 N 2599.98 -1.48664 0.523142 0
M  V30 26946 C 2601.23 -2.01694 -0.0154046 0
M  V30 26947 C 2601.54 -1.40609 -1.35973 0
M  V30 26948 O 2602.75 -1.85096 -1.98624 0
M  V30 26949 C 2601.2 -3.59816 -0.0778671 0
M  V30 26950 C 2600.81 -4.29883 1.26114 0
M  V30 26951 C 2602.55 -4.20715 -0.565604 0
M  V30 26952 C 2600.46 -5.79919 1.15964 0
M  V30 26953 H 2599.39 -0.75394 -0.00952838 0
M  V30 26954 H 2602.04 -1.70991 0.665895 0
M  V30 26955 H 2600.42 -3.8733 -0.824097 0
M  V30 26956 H 2601.6 -4.14048 2.0224 0
M  V30 26957 H 2599.91 -3.80825 1.68407 0
M  V30 26958 H 2602.51 -5.30618 -0.659406 0
M  V30 26959 H 2602.85 -3.8557 -1.56977 0
M  V30 26960 H 2603.39 -3.97604 0.12474 0
M  V30 26961 H 2600.12 -6.19627 2.13875 0
M  V30 26962 H 2599.64 -5.98187 0.439634 0
M  V30 26963 H 2601.32 -6.41426 0.847473 0
M  V30 26964 N 2601.46 -0.257958 -1.55475 0
M  V30 26965 C 2602.87 0.243103 -1.85111 0
M  V30 26966 C 2603.22 1.56758 -1.17989 0
M  V30 26967 O 2602.34 2.11408 -0.462139 0
M  V30 26968 C 2602.94 0.44787 -3.35827 0
M  V30 26969 C 2601.5 0.893181 -3.65649 0
M  V30 26970 C 2600.64 -0.0233453 -2.7729 0
M  V30 26971 H 2603.59 -0.480225 -1.5126 0
M  V30 26972 H 2603.62 1.28892 -3.58004 0
M  V30 26973 H 2603.13 -0.516264 -3.84651 0
M  V30 26974 H 2601.23 1.86939 -3.22311 0
M  V30 26975 H 2601.34 0.742386 -4.73313 0
M  V30 26976 H 2599.71 0.489977 -2.49943 0
M  V30 26977 H 2600.49 -0.983052 -3.28924 0
M  V30 26978 N 2602.93 1.57593 0.0150108 0
M  V30 26979 C 2604.16 1.94574 0.718033 0
M  V30 26980 C 2604.58 0.859035 1.67339 0
M  V30 26981 O 2603.94 -0.184116 1.80363 0
M  V30 26982 C 2603.99 3.30638 1.43912 0
M  V30 26983 O 2603.09 3.23881 2.55294 0
M  V30 26984 H 2602.44 0.635601 0.192114 0
M  V30 26985 H 2604.97 2.04572 -0.0337068 0
M  V30 26986 H 2604.98 3.65856 1.80591 0
M  V30 26987 H 2603.65 4.0929 0.738547 0
M  V30 26988 H 2602.23 3.00316 2.21053 0
M  V30 26989 N 2604.41 -0.287527 1.54955 0
M  V30 26990 C 2605.36 -1.35697 1.83222 0
M  V30 26991 C 2606.35 -1.45346 0.690177 0
M  V30 26992 O 2607.54 -1.49271 0.951163 0
M  V30 26993 C 2604.67 -2.71975 2.09486 0
M  V30 26994 C 2603.75 -2.66496 3.2991 0
M  V30 26995 N 2604.14 -2.30633 4.50158 0
M  V30 26996 C 2602.44 -2.9758 3.32208 0
M  V30 26997 C 2603.14 -2.34785 5.32213 0
M  V30 26998 N 2602.12 -2.7268 4.70262 0
M  V30 26999 H 2605.92 -1.06955 2.73748 0
M  V30 27000 H 2603.44 -0.49614 1.54636 0
M  V30 27001 H 2605.43 -3.49103 2.27888 0
M  V30 27002 H 2604.09 -3.01618 1.20235 0
M  V30 27003 H 2605.1 -2.02857 4.76518 0
M  V30 27004 H 2601.78 -3.32029 2.53106 0
M  V30 27005 H 2603.17 -2.09742 6.38324 0
M  V30 27006 N 2605.89 -1.47641 -0.551365 0
M  V30 27007 C 2606.82 -1.55113 -1.67378 0
M  V30 27008 C 2607.8 -0.402884 -1.5753 0
M  V30 27009 O 2608.99 -0.611506 -1.78306 0
M  V30 27010 C 2606.11 -1.45914 -3.05658 0
M  V30 27011 C 2605.16 -2.65313 -3.33933 0
M  V30 27012 S 2605.99 -4.27463 -3.22546 0
M  V30 27013 C 2607.15 -4.20826 -4.6331 0
M  V30 27014 H 2607.38 -2.5007 -1.60786 0
M  V30 27015 H 2604.91 -1.3591 -0.73265 0
M  V30 27016 H 2606.87 -1.41293 -3.85417 0
M  V30 27017 H 2605.53 -0.523302 -3.0971 0
M  V30 27018 H 2604.73 -2.54956 -4.34757 0
M  V30 27019 H 2604.33 -2.67086 -2.61804 0
M  V30 27020 H 2606.62 -3.89441 -5.54385 0
M  V30 27021 H 2607.56 -5.21756 -4.78723 0
M  V30 27022 H 2607.97 -3.51601 -4.4163 0
M  V30 27023 N 2607.37 0.798563 -1.3587 0
M  V30 27024 C 2608.78 1.37312 -1.26501 0
M  V30 27025 C 2609.13 1.95949 0.0991554 0
M  V30 27026 O 2608.26 1.9189 1.00036 0
M  V30 27027 C 2608.85 2.49635 -2.29059 0
M  V30 27028 C 2607.41 3.02931 -2.23405 0
M  V30 27029 C 2606.56 1.75946 -2.14333 0
M  V30 27030 H 2609.51 0.600945 -1.46882 0
M  V30 27031 H 2609.53 3.28406 -1.92172 0
M  V30 27032 H 2609.04 2.06927 -3.28333 0
M  V30 27033 H 2607.14 3.50082 -1.27568 0
M  V30 27034 H 2607.25 3.60367 -3.1571 0
M  V30 27035 H 2605.62 1.97817 -1.60439 0
M  V30 27036 H 2606.4 1.35379 -3.1548 0
M  V30 27037 N 2608.85 1.19999 1.02166 0
M  V30 27038 C 2610.09 1.00706 1.75683 0
M  V30 27039 C 2610.42 -0.461393 1.88948 0
M  V30 27040 O 2609.68 -1.35882 1.40835 0
M  V30 27041 C 2609.98 1.62975 3.18079 0
M  V30 27042 C 2609.64 3.12751 3.24804 0
M  V30 27043 C 2608.3 3.53627 3.26346 0
M  V30 27044 C 2610.66 4.08754 3.23372 0
M  V30 27045 C 2607.98 4.89042 3.24122 0
M  V30 27046 C 2610.34 5.44109 3.22688 0
M  V30 27047 C 2609 5.84405 3.22532 0
M  V30 27048 H 2608.27 0.368508 0.642871 0
M  V30 27049 H 2610.92 1.4935 1.19862 0
M  V30 27050 H 2609.22 1.06579 3.77025 0
M  V30 27051 H 2610.92 1.45567 3.73646 0
M  V30 27052 H 2607.51 2.80187 3.24335 0
M  V30 27053 H 2611.69 3.78213 3.21354 0
M  V30 27054 H 2606.95 5.19533 3.22329 0
M  V30 27055 H 2611.12 6.18249 3.20532 0
M  V30 27056 H 2608.75 6.89307 3.20563 0
M  V30 27057 N 2610.32 -1.21392 1.00507 0
M  V30 27058 C 2611.55 -1.94999 0.706401 0
M  V30 27059 C 2611.97 -1.73583 -0.7246 0
M  V30 27060 O 2611.33 -1.02272 -1.497 0
M  V30 27061 C 2611.38 -3.45486 1.03306 0
M  V30 27062 O 2610.48 -4.12168 0.138347 0
M  V30 27063 H 2609.83 -0.609614 0.263186 0
M  V30 27064 H 2612.36 -1.54149 1.34533 0
M  V30 27065 H 2612.37 -3.96057 0.979942 0
M  V30 27066 H 2611.04 -3.60397 2.07573 0
M  V30 27067 H 2609.62 -3.72074 0.247994 0
M  V30 27068 N 2611.8 -0.779811 -1.36955 0
M  V30 27069 C 2612.75 -0.169737 -2.30175 0
M  V30 27070 C 2613.72 0.680914 -1.51502 0
M  V30 27071 O 2614.9 0.631597 -1.80043 0
M  V30 27072 C 2612.04 0.697071 -3.37987 0
M  V30 27073 C 2611.16 -0.171068 -4.31661 0
M  V30 27074 C 2610.29 0.701206 -5.26552 0
M  V30 27075 C 2609.33 -0.168976 -6.11867 0
M  V30 27076 N 2608.47 0.661732 -6.98975 0
M  V30 27077 H 2613.31 -0.970184 -2.81765 0
M  V30 27078 H 2610.85 -0.490018 -1.38698 0
M  V30 27079 H 2612.8 1.21453 -3.9913 0
M  V30 27080 H 2611.43 1.46304 -2.87741 0
M  V30 27081 H 2610.49 -0.806405 -3.71754 0
M  V30 27082 H 2611.8 -0.841962 -4.91643 0
M  V30 27083 H 2610.95 1.28484 -5.92939 0
M  V30 27084 H 2609.69 1.40576 -4.67001 0
M  V30 27085 H 2608.7 -0.765082 -5.44451 0
M  V30 27086 H 2609.92 -0.870981 -6.73491 0
M  V30 27087 H 2607.87 1.35075 -6.41943 0
M  V30 27088 H 2607.78 0.0483119 -7.55985 0
M  V30 27089 H 2609.05 1.2295 -7.69743 0
M  V30 27090 N 2613.28 1.48384 -0.531019 0
M  V30 27091 C 2614.24 2.28137 0.220457 0
M  V30 27092 C 2615.24 1.35435 0.866827 0
M  V30 27093 O 2616.43 1.58318 0.726718 0
M  V30 27094 C 2613.57 3.14342 1.31915 0
M  V30 27095 H 2614.76 2.96038 -0.479767 0
M  V30 27096 H 2612.31 1.53643 -0.286995 0
M  V30 27097 H 2613.05 2.51076 2.0526 0
M  V30 27098 H 2612.83 3.82535 0.860783 0
M  V30 27099 H 2614.32 3.745 1.84769 0
M  V30 27100 N 2614.76 0.2662 1.55336 0
M  V30 27101 C 2615.71 -0.639459 2.18849 0
M  V30 27102 C 2616.69 -1.12501 1.15032 0
M  V30 27103 O 2617.88 -1.07157 1.40877 0
M  V30 27104 C 2615.01 -1.82728 2.90629 0
M  V30 27105 C 2614.1 -1.35932 4.01725 0
M  V30 27106 N 2614.49 -0.6069 5.02146 0
M  V30 27107 C 2612.79 -1.64302 4.14633 0
M  V30 27108 C 2613.49 -0.362036 5.80572 0
M  V30 27109 N 2612.47 -0.931877 5.35553 0
M  V30 27110 H 2616.27 -0.0566541 2.93845 0
M  V30 27111 H 2613.78 0.0693597 1.62252 0
M  V30 27112 H 2615.78 -2.48729 3.34573 0
M  V30 27113 H 2614.44 -2.41412 2.17141 0
M  V30 27114 H 2615.45 -0.255107 5.17271 0
M  V30 27115 H 2612.13 -2.23987 3.5233 0
M  V30 27116 H 2613.52 0.239966 6.71471 0
M  V30 27117 N 2616.24 -1.57599 -0.0066531 0
M  V30 27118 C 2617.48 -1.914 -0.688316 0
M  V30 27119 C 2617.84 -0.867191 -1.71749 0
M  V30 27120 O 2617.13 0.121441 -1.91215 0
M  V30 27121 C 2617.32 -3.29711 -1.37933 0
M  V30 27122 C 2617.15 -4.47747 -0.41861 0
M  V30 27123 C 2615.92 -5.0529 -0.0314371 0
M  V30 27124 C 2618.12 -5.1335 0.312391 0
M  V30 27125 N 2616.1 -6.06842 0.928195 0
M  V30 27126 C 2617.47 -6.09672 1.12693 0
M  V30 27127 C 2619.53 -4.96471 0.37694 0
M  V30 27128 C 2618.23 -6.90933 2.00012 0
M  V30 27129 C 2620.26 -5.78311 1.23733 0
M  V30 27130 C 2619.62 -6.74221 2.03974 0
M  V30 27131 H 2615.72 -0.748848 -0.225279 0
M  V30 27132 H 2618.3 -1.9463 0.0521315 0
M  V30 27133 H 2616.47 -3.27367 -2.09011 0
M  V30 27134 H 2618.21 -3.50961 -2.01516 0
M  V30 27135 H 2614.96 -4.71921 -0.398402 0
M  V30 27136 H 2615.39 -6.62299 1.40318 0
M  V30 27137 H 2620.03 -4.22179 -0.229136 0
M  V30 27138 H 2617.75 -7.64555 2.6169 0
M  V30 27139 H 2621.33 -5.67293 1.2911 0
M  V30 27140 H 2620.21 -7.36447 2.69474 0
M  V30 27141 N 2617.72 0.279305 -1.55105 0
M  V30 27142 C 2618.94 1.03014 -1.79432 0
M  V30 27143 C 2619.36 1.80164 -0.564488 0
M  V30 27144 O 2618.72 1.76442 0.466295 0
M  V30 27145 C 2618.77 1.99368 -3.01553 0
M  V30 27146 O 2618.49 1.25345 -4.19786 0
M  V30 27147 C 2619.99 2.86315 -3.38435 0
M  V30 27148 H 2617.21 0.304584 -0.597888 0
M  V30 27149 H 2619.75 0.312 -2.02106 0
M  V30 27150 H 2617.91 2.66654 -2.81024 0
M  V30 27151 H 2618.32 1.90237 -4.88784 0
M  V30 27152 H 2619.8 3.49733 -4.27072 0
M  V30 27153 H 2620.27 3.55755 -2.57555 0
M  V30 27154 H 2620.88 2.2453 -3.61201 0
M  V30 27155 N 2619.19 1.47931 0.543528 0
M  V30 27156 C 2620.6 1.48955 1.12558 0
M  V30 27157 C 2620.96 0.251788 1.94578 0
M  V30 27158 O 2620.08 -0.642219 2.06651 0
M  V30 27159 C 2620.68 2.69896 2.04797 0
M  V30 27160 C 2619.23 2.73835 2.58246 0
M  V30 27161 C 2618.38 2.42268 1.34914 0
M  V30 27162 H 2621.33 1.55243 0.329443 0
M  V30 27163 H 2621.35 2.47644 2.88882 0
M  V30 27164 H 2620.87 3.59965 1.45074 0
M  V30 27165 H 2618.97 1.8794 3.21729 0
M  V30 27166 H 2619.08 3.74901 2.98306 0
M  V30 27167 H 2617.44 1.93137 1.66043 0
M  V30 27168 H 2618.23 3.34562 0.769634 0
M  V30 27169 N 2620.67 -0.791347 1.36292 0
M  V30 27170 C 2621.92 -1.54914 1.30414 0
M  V30 27171 C 2622.25 -1.94147 -0.117127 0
M  V30 27172 O 2621.5 -1.62805 -1.08596 0
M  V30 27173 C 2621.8 -2.83926 2.17073 0
M  V30 27174 C 2621.47 -2.6384 3.65649 0
M  V30 27175 C 2620.13 -2.5807 4.06145 0
M  V30 27176 C 2622.48 -2.45314 4.59859 0
M  V30 27177 C 2619.81 -2.31738 5.38994 0
M  V30 27178 C 2622.16 -2.2051 5.92923 0
M  V30 27179 C 2620.82 -2.13172 6.32546 0
M  V30 27180 H 2620.09 -0.56687 0.47722 0
M  V30 27181 H 2622.74 -0.913143 1.68327 0
M  V30 27182 H 2621.05 -3.51983 1.72091 0
M  V30 27183 H 2622.74 -3.41706 2.09852 0
M  V30 27184 H 2619.33 -2.69185 3.33523 0
M  V30 27185 H 2623.52 -2.48775 4.29447 0
M  V30 27186 H 2618.77 -2.24538 5.68676 0
M  V30 27187 H 2622.95 -2.0517 6.65491 0
M  V30 27188 H 2620.57 -1.92531 7.35415 0
M  V30 27189 N 2622.15 -1.2054 -1.01528 0
M  V30 27190 C 2623.06 -0.97115 -2.13555 0
M  V30 27191 C 2624.08 0.073406 -1.73845 0
M  V30 27192 O 2625.25 -0.114334 -2.01075 0
M  V30 27193 C 2622.32 -0.527699 -3.42661 0
M  V30 27194 C 2621.38 -1.64326 -3.96605 0
M  V30 27195 C 2620.61 -1.22087 -5.19548 0
M  V30 27196 O 2620.83 -0.0901201 -5.70329 0
M  V30 27197 O 2619.77 -2.02881 -5.66677 0
M  V30 27198 H 2623.59 -1.90917 -2.36187 0
M  V30 27199 H 2621.18 -0.989382 -1.11945 0
M  V30 27200 H 2623.06 -0.289695 -4.20403 0
M  V30 27201 H 2621.74 0.381723 -3.21441 0
M  V30 27202 H 2620.64 -1.93556 -3.20136 0
M  V30 27203 H 2621.98 -2.52973 -4.22215 0
M  V30 27204 N 2623.63 1.20858 -1.01149 0
M  V30 27205 C 2624.88 1.89718 -0.69652 0
M  V30 27206 C 2625.2 1.78905 0.775756 0
M  V30 27207 O 2624.47 1.18814 1.55757 0
M  V30 27208 H 2623.05 0.702259 -0.25464 0
M  V30 27209 H 2625.71 1.46802 -1.282 0
M  V30 27210 H 2624.8 2.96466 -0.97541 0
M  V30 27211 N 2625.11 0.787064 1.3654 0
M  V30 27212 C 2626.04 0.141813 2.28761 0
M  V30 27213 C 2627.05 -0.647573 1.49366 0
M  V30 27214 O 2628.24 -0.483143 1.71837 0
M  V30 27215 C 2625.34 -0.82231 3.28772 0
M  V30 27216 C 2624.51 -0.0834825 4.3732 0
M  V30 27217 C 2623.57 -0.963205 5.17309 0
M  V30 27218 O 2622.6 -0.421319 5.67639 0
M  V30 27219 N 2623.8 -2.28774 5.33519 0
M  V30 27220 H 2626.56 0.933969 2.84776 0
M  V30 27221 H 2624.13 0.640761 1.4868 0
M  V30 27222 H 2626.12 -1.41462 3.79171 0
M  V30 27223 H 2624.69 -1.51536 2.73415 0
M  V30 27224 H 2623.91 0.689877 3.88116 0
M  V30 27225 H 2625.2 0.426447 5.0701 0
M  V30 27226 H 2624.59 -2.75217 4.94239 0
M  V30 27227 H 2623.15 -2.82975 5.8717 0
M  V30 27228 N 2626.58 -1.48101 0.53888 0
M  V30 27229 C 2627.53 -2.29759 -0.219001 0
M  V30 27230 C 2628.5 -1.37924 -0.925538 0
M  V30 27231 O 2629.69 -1.66888 -0.924826 0
M  V30 27232 C 2626.83 -3.21492 -1.25447 0
M  V30 27233 C 2625.94 -4.28409 -0.555868 0
M  V30 27234 C 2625.07 -5.07313 -1.57503 0
M  V30 27235 C 2624.11 -6.06023 -0.860391 0
M  V30 27236 N 2623.25 -6.77952 -1.82552 0
M  V30 27237 H 2628.09 -2.94051 0.483501 0
M  V30 27238 H 2625.63 -1.44955 0.250272 0
M  V30 27239 H 2627.58 -3.73083 -1.86721 0
M  V30 27240 H 2626.21 -2.59103 -1.92524 0
M  V30 27241 H 2625.27 -3.80015 0.171005 0
M  V30 27242 H 2626.58 -4.988 0.00483384 0
M  V30 27243 H 2625.73 -5.62963 -2.26181 0
M  V30 27244 H 2624.47 -4.36781 -2.16964 0
M  V30 27245 H 2623.48 -5.49568 -0.15959 0
M  V30 27246 H 2624.7 -6.78556 -0.271777 0
M  V30 27247 H 2622.65 -6.10165 -2.40904 0
M  V30 27248 H 2622.56 -7.44449 -1.31649 0
M  V30 27249 H 2623.83 -7.38187 -2.50401 0
M  V30 27250 N 2628.06 -0.274434 -1.55192 0
M  V30 27251 C 2629.31 0.343051 -1.99877 0
M  V30 27252 C 2629.64 1.55555 -1.16259 0
M  V30 27253 O 2628.92 1.93105 -0.232496 0
M  V30 27254 C 2629.2 0.725903 -3.52708 0
M  V30 27255 C 2629.05 -0.493896 -4.4708 0
M  V30 27256 C 2630.37 1.5626 -4.11425 0
M  V30 27257 H 2627.49 0.123216 -0.726627 0
M  V30 27258 H 2630.13 -0.381243 -1.86136 0
M  V30 27259 H 2628.28 1.34301 -3.64548 0
M  V30 27260 H 2629.95 -1.13245 -4.47184 0
M  V30 27261 H 2628.2 -1.13208 -4.18768 0
M  V30 27262 H 2628.87 -0.182267 -5.51699 0
M  V30 27263 H 2631.34 1.04144 -4.02856 0
M  V30 27264 H 2630.22 1.7993 -5.18572 0
M  V30 27265 H 2630.48 2.54341 -3.61611 0
M  V30 27266 N 2629.54 1.576 -0.00170483 0
M  V30 27267 C 2630.49 2.08529 0.989158 0
M  V30 27268 C 2631.46 0.981088 1.34029 0
M  V30 27269 O 2632.64 1.25362 1.43837 0
M  V30 27270 C 2629.78 2.59467 2.27532 0
M  V30 27271 C 2628.89 3.83795 1.98307 0
M  V30 27272 C 2628.03 4.23227 3.21017 0
M  V30 27273 C 2627.07 5.40387 2.87486 0
M  V30 27274 N 2626.21 5.75105 4.02739 0
M  V30 27275 H 2631.05 2.92919 0.547921 0
M  V30 27276 H 2628.58 1.44804 0.258891 0
M  V30 27277 H 2630.54 2.87079 3.02724 0
M  V30 27278 H 2629.17 1.77948 2.69322 0
M  V30 27279 H 2628.22 3.6308 1.13476 0
M  V30 27280 H 2629.53 4.69084 1.69593 0
M  V30 27281 H 2628.69 4.5213 4.04553 0
M  V30 27282 H 2627.43 3.3665 3.52871 0
M  V30 27283 H 2626.43 5.11206 2.02358 0
M  V30 27284 H 2627.66 6.28642 2.56878 0
M  V30 27285 H 2625.6 4.91486 4.34485 0
M  V30 27286 H 2625.52 6.54972 3.77554 0
M  V30 27287 H 2626.79 6.08601 4.87058 0
M  V30 27288 N 2631.02 -0.271076 1.55251 0
M  V30 27289 C 2632.27 -1.00044 1.75601 0
M  V30 27290 C 2632.59 -1.86749 0.56122 0
M  V30 27291 O 2631.86 -1.91261 -0.423813 0
M  V30 27292 H 2630.44 -0.372376 0.647569 0
M  V30 27293 H 2633.1 -0.294843 1.92657 0
M  V30 27294 H 2632.19 -1.63626 2.65769 0
M  V30 27295 N 2632.5 -1.48217 -0.535675 0
M  V30 27296 C 2633.72 -1.59596 -1.31669 0
M  V30 27297 C 2634.14 -0.254089 -1.87082 0
M  V30 27298 O 2633.5 0.755825 -1.66113 0
M  V30 27299 C 2633.55 -2.63813 -2.47154 0
M  V30 27300 O 2633.27 -3.92793 -1.94025 0
M  V30 27301 C 2634.77 -2.85579 -3.39057 0
M  V30 27302 H 2631.99 -0.538284 -0.400614 0
M  V30 27303 H 2634.53 -1.94002 -0.646793 0
M  V30 27304 H 2632.69 -2.32282 -3.10039 0
M  V30 27305 H 2633.1 -4.49921 -2.69577 0
M  V30 27306 H 2634.58 -3.62314 -4.16453 0
M  V30 27307 H 2635.05 -1.94191 -3.93937 0
M  V30 27308 H 2635.66 -3.18392 -2.8197 0
M  V30 27309 N 2633.97 0.784108 -1.3671 0
M  V30 27310 C 2635.22 1.54449 -1.31429 0
M  V30 27311 C 2635.55 1.93917 0.104726 0
M  V30 27312 O 2634.83 1.63122 1.05931 0
M  V30 27313 C 2635.11 2.81796 -2.24194 0
M  V30 27314 C 2634.96 2.4866 -3.74817 0
M  V30 27315 C 2636.28 3.83654 -2.15633 0
M  V30 27316 H 2633.4 0.560329 -0.478749 0
M  V30 27317 H 2636.04 0.900468 -1.67307 0
M  V30 27318 H 2634.19 3.36752 -1.93728 0
M  V30 27319 H 2635.87 1.99714 -4.15827 0
M  V30 27320 H 2634.11 1.81528 -3.93992 0
M  V30 27321 H 2634.78 3.39638 -4.35144 0
M  V30 27322 H 2637.26 3.38159 -2.42461 0
M  V30 27323 H 2636.13 4.70501 -2.82702 0
M  V30 27324 H 2636.39 4.27007 -1.1453 0
M  V30 27325 N 2635.45 1.21076 1.00888 0
M  V30 27326 C 2636.87 0.967279 1.26948 0
M  V30 27327 C 2637.07 -0.348638 1.98461 0
M  V30 27328 O 2636.12 -1.07526 2.28461 0
M  V30 27329 C 2637.44 2.15521 2.09693 0
M  V30 27330 C 2638.99 2.19704 2.22933 0
M  V30 27331 C 2639.46 3.38005 3.09058 0
M  V30 27332 N 2640.95 3.38067 3.16647 0
M  V30 27333 C 2641.69 4.26252 3.83532 0
M  V30 27334 N 2641.18 5.24628 4.52479 0
M  V30 27335 N 2642.98 4.14071 3.80134 0
M  V30 27336 H 2635.13 2.05708 0.528969 0
M  V30 27337 H 2637.39 0.900561 0.296132 0
M  V30 27338 H 2637.1 3.10862 1.64492 0
M  V30 27339 H 2636.97 2.14259 3.1044 0
M  V30 27340 H 2639.36 1.24921 2.67355 0
M  V30 27341 H 2639.44 2.25012 1.21669 0
M  V30 27342 H 2639.08 4.33079 2.6534 0
M  V30 27343 H 2639.01 3.29935 4.10427 0
M  V30 27344 H 2641.5 2.66869 2.67561 0
M  V30 27345 H 2641.82 5.88226 5.01208 0
M  V30 27346 H 2640.16 5.28557 4.51279 0
M  V30 27347 H 2643.35 3.3648 3.25421 0
M  V30 27348 H 2643.52 4.83006 4.31983 0
M  V30 27349 N 2636.93 -1.2032 1.01789 0
M  V30 27350 C 2638.35 -1.41773 0.732976 0
M  V30 27351 C 2638.55 -1.89432 -0.68685 0
M  V30 27352 O 2637.6 -2.06404 -1.45443 0
M  V30 27353 C 2638.92 -2.43829 1.75978 0
M  V30 27354 C 2640.46 -2.57593 1.77806 0
M  V30 27355 C 2640.94 -3.62892 2.79416 0
M  V30 27356 N 2642.43 -3.70377 2.78164 0
M  V30 27357 C 2643.16 -4.51515 3.53442 0
M  V30 27358 N 2642.66 -5.36448 4.38402 0
M  V30 27359 N 2644.45 -4.4606 3.42034 0
M  V30 27360 H 2636.6 -0.877001 1.93449 0
M  V30 27361 H 2638.87 -0.447522 0.83572 0
M  V30 27362 H 2638.57 -2.1581 2.77703 0
M  V30 27363 H 2638.45 -3.42837 1.57298 0
M  V30 27364 H 2640.83 -2.84941 0.767652 0
M  V30 27365 H 2640.92 -1.58775 2.00559 0
M  V30 27366 H 2640.56 -3.36288 3.80622 0
M  V30 27367 H 2640.49 -4.61335 2.53924 0
M  V30 27368 H 2642.98 -3.0971 2.16536 0
M  V30 27369 H 2643.29 -5.95448 4.92607 0
M  V30 27370 H 2641.64 -5.35945 4.42479 0
M  V30 27371 H 2644.83 -3.78745 2.75082 0
M  V30 27372 H 2645 -5.09057 4.00955 0
M  V30 27373 N 2638.41 -0.794293 -1.3612 0
M  V30 27374 C 2639.65 -0.369487 -1.99406 0
M  V30 27375 C 2639.99 1.0574 -1.62888 0
M  V30 27376 O 2639.26 1.73144 -0.886084 0
M  V30 27377 C 2639.55 -0.538896 -3.56045 0
M  V30 27378 C 2639.4 -2.00983 -4.024 0
M  V30 27379 C 2640.72 0.0430585 -4.40079 0
M  V30 27380 H 2637.84 -0.135725 -0.724395 0
M  V30 27381 H 2640.48 -1.00154 -1.61459 0
M  V30 27382 H 2638.63 -0.000839293 -3.885 0
M  V30 27383 H 2640.3 -2.60932 -3.8041 0
M  V30 27384 H 2638.54 -2.51069 -3.53761 0
M  V30 27385 H 2639.21 -2.07931 -5.1134 0
M  V30 27386 H 2641.69 -0.416301 -4.14012 0
M  V30 27387 H 2640.57 -0.10547 -5.48799 0
M  V30 27388 H 2640.83 1.13563 -4.27266 0
M  V30 27389 N 2639.89 1.47813 -0.546727 0
M  V30 27390 C 2641.13 2.02791 -0.0188041 0
M  V30 27391 C 2641.47 1.4213 1.32336 0
M  V30 27392 O 2640.74 0.573056 1.85866 0
M  V30 27393 C 2641.02 3.59999 0.0854352 0
M  V30 27394 C 2640.88 4.31112 -1.28308 0
M  V30 27395 C 2642.2 4.32693 0.804044 0
M  V30 27396 H 2639.31 0.736953 -0.00830755 0
M  V30 27397 H 2641.96 1.76356 -0.706993 0
M  V30 27398 H 2640.11 3.82652 0.671542 0
M  V30 27399 H 2641.78 4.19829 -1.91158 0
M  V30 27400 H 2640.02 3.91875 -1.86056 0
M  V30 27401 H 2640.69 5.3961 -1.16296 0
M  V30 27402 H 2643.17 4.1497 0.306503 0
M  V30 27403 H 2642.04 5.42343 0.845915 0
M  V30 27404 H 2642.31 4.01164 1.85795 0
M  V30 27405 N 2641.36 0.28266 1.55044 0
M  V30 27406 C 2642.29 -0.595027 2.25791 0
M  V30 27407 C 2643.28 -1.15282 1.25076 0
M  V30 27408 O 2644.46 -1.18556 1.53812 0
M  V30 27409 C 2641.59 -1.77567 2.98475 0
M  V30 27410 C 2640.54 -1.34907 4.06182 0
M  V30 27411 C 2639.87 -2.61342 4.66481 0
M  V30 27412 C 2641.17 -0.49373 5.19961 0
M  V30 27413 H 2642.86 -0.00500391 2.994 0
M  V30 27414 H 2640.41 -0.00096669 1.44 0
M  V30 27415 H 2642.36 -2.39562 3.46681 0
M  V30 27416 H 2641.09 -2.39164 2.22414 0
M  V30 27417 H 2639.75 -0.752275 3.58799 0
M  V30 27418 H 2639.39 -3.21213 3.8708 0
M  V30 27419 H 2639.09 -2.33507 5.39211 0
M  V30 27420 H 2640.62 -3.24172 5.17441 0
M  V30 27421 H 2642.03 -1.01888 5.64173 0
M  V30 27422 H 2640.43 -0.309942 5.99299 0
M  V30 27423 H 2641.5 0.485678 4.82462 0
M  V30 27424 N 2642.84 -1.57597 0.0100627 0
M  V30 27425 C 2644.26 -1.55801 -0.346137 0
M  V30 27426 C 2644.46 -1.01375 -1.74142 0
M  V30 27427 O 2643.51 -0.652011 -2.43937 0
M  V30 27428 C 2644.83 -2.99951 -0.212163 0
M  V30 27429 C 2646.38 -3.11687 -0.286354 0
M  V30 27430 C 2646.85 -4.57641 -0.181389 0
M  V30 27431 N 2648.34 -4.62583 -0.238974 0
M  V30 27432 C 2649.08 -5.73113 -0.18125 0
M  V30 27433 N 2648.57 -6.92761 -0.0735392 0
M  V30 27434 N 2650.37 -5.61613 -0.23385 0
M  V30 27435 H 2642.52 -1.91312 0.92269 0
M  V30 27436 H 2644.78 -0.879179 0.354611 0
M  V30 27437 H 2644.49 -3.43649 0.74823 0
M  V30 27438 H 2644.36 -3.63972 -0.99016 0
M  V30 27439 H 2646.75 -2.67913 -1.2372 0
M  V30 27440 H 2646.83 -2.50424 0.521689 0
M  V30 27441 H 2646.47 -5.02091 0.765951 0
M  V30 27442 H 2646.4 -5.16862 -1.00805 0
M  V30 27443 H 2648.89 -3.76516 -0.323144 0
M  V30 27444 H 2649.21 -7.72792 -0.0356645 0
M  V30 27445 H 2647.55 -6.94989 -0.0390239 0
M  V30 27446 H 2650.74 -4.6703 -0.316265 0
M  V30 27447 H 2650.91 -6.47735 -0.1854 0
M  V30 27448 N 2644.32 0.262839 -1.55393 0
M  V30 27449 C 2645.57 0.991116 -1.76129 0
M  V30 27450 C 2645.89 1.86449 -0.571116 0
M  V30 27451 O 2645.16 1.91483 0.413664 0
M  V30 27452 H 2643.74 0.368936 -0.649534 0
M  V30 27453 H 2646.4 0.284621 -1.92811 0
M  V30 27454 H 2645.5 1.62214 -2.66633 0
M  V30 27455 N 2645.8 1.48499 0.527807 0
M  V30 27456 C 2646.71 1.6587 1.65905 0
M  V30 27457 C 2647.72 0.541221 1.65369 0
M  V30 27458 O 2648.9 0.812566 1.84281 0
M  V30 27459 C 2645.97 1.69642 3.02361 0
M  V30 27460 C 2645.03 2.93034 3.13735 0
M  V30 27461 C 2644.26 2.96617 4.43683 0
M  V30 27462 O 2644.48 2.08547 5.30909 0
M  V30 27463 O 2643.42 3.8881 4.59468 0
M  V30 27464 H 2647.24 2.6165 1.54186 0
M  V30 27465 H 2644.83 1.31926 0.70114 0
M  V30 27466 H 2646.71 1.74632 3.83512 0
M  V30 27467 H 2645.38 0.770368 3.14399 0
M  V30 27468 H 2644.29 2.93575 2.31871 0
M  V30 27469 H 2645.62 3.85031 3.06614 0
M  V30 27470 N 2647.28 -0.776847 1.37123 0
M  V30 27471 C 2648.52 -1.53749 1.32246 0
M  V30 27472 C 2648.86 -1.9397 -0.0944404 0
M  V30 27473 O 2648.13 -1.63682 -1.05065 0
M  V30 27474 C 2648.41 -2.80603 2.25686 0
M  V30 27475 C 2648.27 -2.46669 3.76131 0
M  V30 27476 C 2649.59 -3.82505 2.17664 0
M  V30 27477 H 2646.71 -0.557782 0.481714 0
M  V30 27478 H 2649.35 -0.891583 1.67782 0
M  V30 27479 H 2647.5 -3.3572 1.95511 0
M  V30 27480 H 2649.17 -1.97506 4.1688 0
M  V30 27481 H 2647.41 -1.79436 3.9495 0
M  V30 27482 H 2648.08 -3.37326 4.36939 0
M  V30 27483 H 2650.56 -3.36869 2.44251 0
M  V30 27484 H 2649.44 -4.68995 2.85193 0
M  V30 27485 H 2649.7 -4.26394 1.16793 0
M  V30 27486 N 2648.76 -1.2161 -1.00244 0
M  V30 27487 C 2649.72 -0.979169 -2.07232 0
M  V30 27488 C 2650.72 0.0507937 -1.6072 0
M  V30 27489 O 2651.91 -0.186743 -1.73196 0
M  V30 27490 C 2649.04 -0.477075 -3.37545 0
M  V30 27491 H 2650.23 -1.92835 -2.29684 0
M  V30 27492 H 2647.79 -1.03344 -1.17259 0
M  V30 27493 H 2648.52 0.476909 -3.20774 0
M  V30 27494 H 2648.31 -1.22003 -3.72636 0
M  V30 27495 H 2649.8 -0.331254 -4.16284 0
M  V30 27496 N 2650.23 1.19778 -1.02425 0
M  V30 27497 C 2651.46 1.9303 -0.736421 0
M  V30 27498 C 2651.87 1.75454 0.707992 0
M  V30 27499 O 2651.21 1.07074 1.49268 0
M  V30 27500 C 2651.28 3.45254 -1.00201 0
M  V30 27501 C 2650.94 3.86597 -2.43705 0
M  V30 27502 C 2651.94 3.91732 -3.41821 0
M  V30 27503 C 2649.62 4.18367 -2.77982 0
M  V30 27504 C 2651.62 4.28062 -4.72273 0
M  V30 27505 C 2649.3 4.54371 -4.08644 0
M  V30 27506 C 2650.3 4.59192 -5.056 0
M  V30 27507 O 2649.99 4.94365 -6.33923 0
M  V30 27508 H 2649.72 0.620118 -0.269127 0
M  V30 27509 H 2652.28 1.52995 -1.37046 0
M  V30 27510 H 2650.51 3.85449 -0.310815 0
M  V30 27511 H 2652.19 3.99738 -0.704558 0
M  V30 27512 H 2652.96 3.67343 -3.16677 0
M  V30 27513 H 2648.84 4.13802 -2.03198 0
M  V30 27514 H 2652.38 4.3174 -5.47947 0
M  V30 27515 H 2648.28 4.78218 -4.33564 0
M  V30 27516 H 2649.05 5.1233 -6.38326 0
M  V30 27517 N 2651.71 0.801501 1.35697 0
M  V30 27518 C 2652.96 0.376014 1.98164 0
M  V30 27519 C 2653.27 -1.06125 1.64307 0
M  V30 27520 O 2654.48 -1.5896 2.201 0
M  V30 27521 C 2652.94 0.621367 3.54495 0
M  V30 27522 C 2652.54 2.07083 3.97266 0
M  V30 27523 C 2654.29 0.260985 4.23697 0
M  V30 27524 C 2652.19 2.26221 5.46423 0
M  V30 27525 H 2651.12 0.136857 0.741476 0
M  V30 27526 H 2653.78 0.984842 1.54833 0
M  V30 27527 H 2652.16 -0.0573416 3.95958 0
M  V30 27528 H 2653.33 2.78694 3.66969 0
M  V30 27529 H 2651.65 2.3906 3.40939 0
M  V30 27530 H 2654.24 0.382088 5.33333 0
M  V30 27531 H 2654.59 -0.792272 4.08691 0
M  V30 27532 H 2655.12 0.893408 3.87638 0
M  V30 27533 H 2651.86 3.29973 5.6639 0
M  V30 27534 H 2651.38 1.59129 5.78306 0
M  V30 27535 H 2653.06 2.07524 6.12815 0
M  V30 27536 N 2653.19 -1.47521 0.554558 0
M  V30 27537 C 2654.47 -1.95567 -0.036036 0
M  V30 27538 C 2654.85 -1.49713 -1.48826 0
M  V30 27539 O 2654.19 -0.734755 -2.16365 0
M  V30 27540 C 2654.4 -3.48837 0.106692 0
M  V30 27541 C 2655.75 -4.24581 -0.0400153 0
M  V30 27542 O 2656.78 -3.56184 0.0341079 0
M  V30 27543 O 2655.64 -5.46138 -0.199015 0
M  V30 27544 H 2652.73 -0.824393 -0.0656149 0
M  V30 27545 H 2655.28 -1.57934 0.620894 0
M  V30 27546 H 2654.05 -3.75008 1.11734 0
M  V30 27547 H 2653.67 -3.93229 -0.587971 0
M  V30 27548 N 2654.67 -0.290879 -1.54892 0
M  V30 27549 C 2655.92 0.320721 -1.99539 0
M  V30 27550 C 2656.24 1.55186 -1.18078 0
M  V30 27551 O 2655.51 1.93972 -0.274196 0
M  V30 27552 H 2654.09 0.121494 -0.737054 0
M  V30 27553 H 2656.75 -0.399866 -1.90754 0
M  V30 27554 H 2655.84 0.599748 -3.06283 0
M  V30 27555 N 2656.15 1.57589 -0.0184203 0
M  V30 27556 C 2657.08 2.06451 0.99552 0
M  V30 27557 C 2658.09 0.985871 1.29555 0
M  V30 27558 O 2659.28 1.26229 1.26208 0
M  V30 27559 C 2656.38 2.46506 2.32568 0
M  V30 27560 C 2655.55 3.77323 2.21238 0
M  V30 27561 C 2654.61 4.04045 3.37097 0
M  V30 27562 O 2653.64 4.74451 3.1446 0
M  V30 27563 N 2654.84 3.5338 4.60547 0
M  V30 27564 H 2657.6 2.9406 0.578694 0
M  V30 27565 H 2655.17 1.6102 0.168575 0
M  V30 27566 H 2657.16 2.61483 3.08883 0
M  V30 27567 H 2655.73 1.6432 2.65928 0
M  V30 27568 H 2654.95 3.72246 1.29717 0
M  V30 27569 H 2656.24 4.6305 2.1086 0
M  V30 27570 H 2655.63 2.964 4.81834 0
M  V30 27571 H 2654.19 3.73654 5.34066 0
M  V30 27572 N 2657.62 -0.254594 1.5553 0
M  V30 27573 C 2658.87 -0.985162 1.77264 0
M  V30 27574 C 2659.2 -1.85264 0.582319 0
M  V30 27575 O 2658.48 -1.89919 -0.419632 0
M  V30 27576 C 2658.76 -1.85219 3.08814 0
M  V30 27577 C 2658.61 -1.01342 4.38235 0
M  V30 27578 C 2659.93 -2.83606 3.36535 0
M  V30 27579 H 2657.05 -0.356731 0.644913 0
M  V30 27580 H 2659.69 -0.256202 1.88265 0
M  V30 27581 H 2657.84 -2.47371 2.99566 0
M  V30 27582 H 2659.52 -0.411189 4.59464 0
M  V30 27583 H 2657.76 -0.317498 4.32637 0
M  V30 27584 H 2658.43 -1.6537 5.26647 0
M  V30 27585 H 2660.91 -2.3159 3.45695 0
M  V30 27586 H 2659.78 -3.41399 4.29811 0
M  V30 27587 H 2660.04 -3.59677 2.5707 0
M  V30 27588 N 2659.1 -1.48777 -0.519925 0
M  V30 27589 C 2660.03 -1.66948 -1.6325 0
M  V30 27590 C 2661.01 -0.518252 -1.62013 0
M  V30 27591 O 2662.2 -0.75195 -1.79051 0
M  V30 27592 C 2659.33 -1.71842 -3.01807 0
M  V30 27593 C 2658.28 -2.86566 -3.17906 0
M  V30 27594 C 2657.61 -2.76556 -4.57625 0
M  V30 27595 C 2658.91 -4.27743 -2.99722 0
M  V30 27596 H 2660.6 -2.60093 -1.48298 0
M  V30 27597 H 2658.15 -1.25166 -0.712004 0
M  V30 27598 H 2660.1 -1.83142 -3.79522 0
M  V30 27599 H 2658.82 -0.752831 -3.17805 0
M  V30 27600 H 2657.48 -2.74837 -2.42611 0
M  V30 27601 H 2657.13 -1.77946 -4.70472 0
M  V30 27602 H 2656.83 -3.53545 -4.6934 0
M  V30 27603 H 2658.36 -2.89838 -5.37426 0
M  V30 27604 H 2659.77 -4.40252 -3.67221 0
M  V30 27605 H 2658.17 -5.05807 -3.22923 0
M  V30 27606 H 2659.24 -4.43505 -1.96039 0
M  V30 27607 N 2660.58 0.769564 -1.37534 0
M  V30 27608 C 2661.83 1.53046 -1.33059 0
M  V30 27609 C 2662.16 1.94018 0.0841524 0
M  V30 27610 O 2661.43 1.64236 1.04195 0
M  V30 27611 C 2661.72 2.79402 -2.27171 0
M  V30 27612 C 2661.57 2.44671 -3.77434 0
M  V30 27613 C 2662.89 3.81346 -2.1969 0
M  V30 27614 H 2660.01 0.55522 -0.484665 0
M  V30 27615 H 2662.65 0.882673 -1.68252 0
M  V30 27616 H 2660.8 3.34678 -1.97288 0
M  V30 27617 H 2662.47 1.95293 -4.17922 0
M  V30 27618 H 2660.71 1.77339 -3.95896 0
M  V30 27619 H 2661.39 3.35004 -4.38721 0
M  V30 27620 H 2663.86 3.35569 -2.46034 0
M  V30 27621 H 2662.74 4.67476 -2.87676 0
M  V30 27622 H 2663 4.25769 -1.19052 0
M  V30 27623 N 2662.06 1.22139 0.995977 0
M  V30 27624 C 2663.47 1.04138 1.54959 0
M  V30 27625 C 2663.82 -0.396114 1.9216 0
M  V30 27626 O 2662.95 -1.28066 1.74437 0
M  V30 27627 C 2663.54 1.88413 2.81577 0
M  V30 27628 C 2662.1 1.74718 3.33393 0
M  V30 27629 C 2661.25 1.8507 2.06506 0
M  V30 27630 H 2664.2 1.3603 0.817412 0
M  V30 27631 H 2664.22 1.39972 3.53819 0
M  V30 27632 H 2663.73 2.9303 2.5447 0
M  V30 27633 H 2661.83 0.728223 3.65414 0
M  V30 27634 H 2661.94 2.57209 4.04203 0
M  V30 27635 H 2660.31 1.28476 2.19923 0
M  V30 27636 H 2661.09 2.91211 1.81799 0
M  V30 27637 N 2663.54 -1.19233 1.03059 0
M  V30 27638 C 2664.95 -1.70643 0.757479 0
M  V30 27639 C 2665.3 -1.82405 -0.722703 0
M  V30 27640 O 2664.42 -1.4964 -1.56322 0
M  V30 27641 C 2665.02 -3.09937 1.36838 0
M  V30 27642 C 2663.58 -3.586 1.14382 0
M  V30 27643 C 2662.72 -2.35419 1.46537 0
M  V30 27644 H 2665.68 -1.0405 1.1983 0
M  V30 27645 H 2665.7 -3.72705 0.76625 0
M  V30 27646 H 2665.21 -3.01344 2.44567 0
M  V30 27647 H 2663.31 -3.72503 0.0848197 0
M  V30 27648 H 2663.42 -4.42618 1.83373 0
M  V30 27649 H 2661.79 -2.38839 0.884754 0
M  V30 27650 H 2662.57 -2.29455 2.55353 0
M  V30 27651 N 2665.01 -0.808686 -1.3527 0
M  V30 27652 C 2666.26 -0.389267 -1.98316 0
M  V30 27653 C 2666.58 1.04764 -1.64467 0
M  V30 27654 O 2665.85 1.72514 -0.928205 0
M  V30 27655 H 2664.43 -0.140947 -0.733582 0
M  V30 27656 H 2667.1 -1.03499 -1.65148 0
M  V30 27657 H 2666.19 -0.496685 -3.08122 0
M  V30 27658 N 2666.49 1.47225 -0.562374 0
M  V30 27659 C 2667.72 2.06551 -0.0451982 0
M  V30 27660 C 2668.13 1.41475 1.25624 0
M  V30 27661 O 2667.47 0.507092 1.76562 0
M  V30 27662 C 2667.54 3.5885 0.216005 0
M  V30 27663 C 2667.2 4.45997 -0.996769 0
M  V30 27664 C 2668.2 4.83794 -1.90367 0
M  V30 27665 C 2665.88 4.87436 -1.2129 0
M  V30 27666 C 2667.88 5.61834 -3.01033 0
M  V30 27667 C 2665.56 5.6524 -2.32265 0
M  V30 27668 C 2666.56 6.02351 -3.21967 0
M  V30 27669 O 2666.25 6.78586 -4.31017 0
M  V30 27670 H 2665.98 0.674489 -0.0451764 0
M  V30 27671 H 2668.53 1.90142 -0.776876 0
M  V30 27672 H 2666.76 3.73491 1.00205 0
M  V30 27673 H 2668.45 4.00177 0.679193 0
M  V30 27674 H 2669.22 4.52375 -1.74876 0
M  V30 27675 H 2665.1 4.58014 -0.523848 0
M  V30 27676 H 2668.64 5.90719 -3.71075 0
M  V30 27677 H 2664.54 5.96072 -2.47726 0
M  V30 27678 H 2665.31 6.96986 -4.2913 0
M  V30 27679 N 2667.97 0.299089 1.54736 0
M  V30 27680 C 2669.22 -0.310135 1.99706 0
M  V30 27681 C 2669.54 -1.54557 1.18899 0
M  V30 27682 O 2668.81 -1.93823 0.284479 0
M  V30 27683 H 2667.39 -0.117583 0.737688 0
M  V30 27684 H 2670.05 0.409976 1.90539 0
M  V30 27685 H 2669.15 -0.583496 3.06597 0
M  V30 27686 N 2669.45 -1.57577 0.0267774 0
M  V30 27687 C 2670.38 -2.06976 -0.984558 0
M  V30 27688 C 2671.39 -0.992728 -1.2903 0
M  V30 27689 O 2672.58 -1.26897 -1.25536 0
M  V30 27690 C 2669.68 -2.47736 -2.31257 0
M  V30 27691 C 2668.86 -3.78491 -2.19234 0
M  V30 27692 C 2667.91 -4.05827 -3.34949 0
M  V30 27693 O 2666.94 -4.76112 -3.11939 0
M  V30 27694 N 2668.14 -3.55817 -4.58666 0
M  V30 27695 H 2670.91 -2.94363 -0.563092 0
M  V30 27696 H 2668.47 -1.61107 -0.160033 0
M  V30 27697 H 2670.46 -2.63118 -3.07492 0
M  V30 27698 H 2669.03 -1.65728 -2.65053 0
M  V30 27699 H 2668.25 -3.72929 -1.27741 0
M  V30 27700 H 2669.54 -4.64162 -2.08401 0
M  V30 27701 H 2668.94 -2.98951 -4.80255 0
M  V30 27702 H 2667.49 -3.76481 -5.32076 0
M  V30 27703 N 2670.93 0.246342 -1.55663 0
M  V30 27704 C 2672.2 0.997169 -1.68273 0
M  V30 27705 C 2672.58 2.03348 -0.566821 0
M  V30 27706 O 2671.93 2.24424 0.429648 0
M  V30 27707 C 2672.14 1.63001 -3.08597 0
M  V30 27708 C 2673.49 2.13165 -3.67214 0
M  V30 27709 O 2674.51 1.7294 -3.114 0
M  V30 27710 O 2673.37 2.87023 -4.65059 0
M  V30 27711 H 2670.47 0.464193 -0.684437 0
M  V30 27712 H 2673.01 0.240085 -1.67993 0
M  V30 27713 H 2671.78 0.88046 -3.81266 0
M  V30 27714 H 2671.41 2.45328 -3.1289 0
M  V30 27715 N 2672.4 1.4905 0.512027 0
M  V30 27716 C 2673.65 1.58214 1.26871 0
M  V30 27717 C 2673.98 0.263107 1.92409 0
M  V30 27718 O 2673.26 -0.732444 1.80182 0
M  V30 27719 C 2673.54 2.73345 2.34424 0
M  V30 27720 C 2673.39 4.15009 1.73459 0
M  V30 27721 C 2674.71 2.84159 3.36068 0
M  V30 27722 H 2671.83 0.575889 0.459914 0
M  V30 27723 H 2674.47 1.81294 0.568556 0
M  V30 27724 H 2672.62 2.53797 2.94142 0
M  V30 27725 H 2674.3 4.46044 1.17653 0
M  V30 27726 H 2672.54 4.2117 1.03914 0
M  V30 27727 H 2673.21 4.9142 2.51417 0
M  V30 27728 H 2675.69 3.01921 2.86327 0
M  V30 27729 H 2674.56 3.66413 4.08696 0
M  V30 27730 H 2674.82 1.93054 3.97721 0
M  V30 27731 N 2673.88 -0.762259 1.3794 0
M  V30 27732 C 2675.3 -1.06413 1.18947 0
M  V30 27733 C 2675.5 -2.01474 0.0321517 0
M  V30 27734 O 2674.55 -2.44648 -0.624801 0
M  V30 27735 C 2675.87 -1.65253 2.51221 0
M  V30 27736 C 2677.42 -1.77466 2.57827 0
M  V30 27737 C 2677.89 -2.39718 3.90255 0
M  V30 27738 N 2679.38 -2.47159 3.91748 0
M  V30 27739 C 2680.12 -2.96201 4.90971 0
M  V30 27740 N 2679.61 -3.45344 6.00591 0
M  V30 27741 N 2681.41 -2.95162 4.78368 0
M  V30 27742 H 2673.56 -0.131263 2.11994 0
M  V30 27743 H 2675.82 -0.120862 0.940264 0
M  V30 27744 H 2675.53 -1.02872 3.36319 0
M  V30 27745 H 2675.4 -2.64428 2.68994 0
M  V30 27746 H 2677.79 -2.38977 1.7313 0
M  V30 27747 H 2677.87 -0.770198 2.43929 0
M  V30 27748 H 2677.51 -1.78844 4.75371 0
M  V30 27749 H 2677.44 -3.40789 4.0146 0
M  V30 27750 H 2679.93 -2.12392 3.12567 0
M  V30 27751 H 2680.25 -3.81195 6.72242 0
M  V30 27752 H 2678.59 -3.43424 6.04223 0
M  V30 27753 H 2681.78 -2.56075 3.91846 0
M  V30 27754 H 2681.95 -3.33071 5.55849 0
M  V30 27755 N 2675.36 -1.22666 -0.989486 0
M  V30 27756 C 2676.31 -0.999769 -2.08022 0
M  V30 27757 C 2677.28 0.0796755 -1.65909 0
M  V30 27758 O 2678.46 -0.070605 -1.90669 0
M  V30 27759 C 2675.6 -0.587294 -3.40066 0
M  V30 27760 C 2674.72 -1.73788 -3.95502 0
M  V30 27761 C 2673.85 -1.27306 -5.15719 0
M  V30 27762 C 2672.89 -2.39497 -5.633 0
M  V30 27763 N 2672.03 -1.94038 -6.74754 0
M  V30 27764 H 2676.87 -1.93344 -2.26764 0
M  V30 27765 H 2674.4 -0.963317 -1.11169 0
M  V30 27766 H 2676.36 -0.3293 -4.15898 0
M  V30 27767 H 2674.99 0.30937 -3.21314 0
M  V30 27768 H 2674.04 -2.11011 -3.1651 0
M  V30 27769 H 2675.36 -2.58166 -4.26792 0
M  V30 27770 H 2674.51 -0.972652 -5.98853 0
M  V30 27771 H 2673.25 -0.39953 -4.86061 0
M  V30 27772 H 2672.25 -2.70323 -4.78754 0
M  V30 27773 H 2673.48 -3.27372 -5.94983 0
M  V30 27774 H 2671.42 -1.09052 -6.46872 0
M  V30 27775 H 2671.34 -2.7198 -7.05381 0
M  V30 27776 H 2672.61 -1.67076 -7.61384 0
M  V30 27777 N 2676.84 1.18685 -1.0369 0
M  V30 27778 C 2678.09 1.89111 -0.748914 0
M  V30 27779 C 2678.44 1.78609 0.715313 0
M  V30 27780 O 2677.73 1.17301 1.51496 0
M  V30 27781 C 2677.93 3.38568 -1.14483 0
M  V30 27782 C 2677.76 3.63616 -2.646 0
M  V30 27783 C 2676.53 3.81194 -3.31691 0
M  V30 27784 C 2678.72 3.64511 -3.62817 0
M  V30 27785 N 2676.71 3.93946 -4.70829 0
M  V30 27786 C 2678.08 3.82931 -4.8761 0
M  V30 27787 C 2680.13 3.47579 -3.56501 0
M  V30 27788 C 2678.84 3.86173 -6.06847 0
M  V30 27789 C 2680.86 3.52102 -4.75161 0
M  V30 27790 C 2680.22 3.71015 -5.98771 0
M  V30 27791 H 2676.32 0.710789 -0.326042 0
M  V30 27792 H 2678.91 1.42583 -1.32582 0
M  V30 27793 H 2677.08 3.83799 -0.596041 0
M  V30 27794 H 2678.81 3.96547 -0.808256 0
M  V30 27795 H 2675.56 3.80418 -2.82098 0
M  V30 27796 H 2675.99 4.04153 -5.43129 0
M  V30 27797 H 2680.63 3.31906 -2.61913 0
M  V30 27798 H 2678.35 4.00636 -7.01795 0
M  V30 27799 H 2681.93 3.40281 -4.71911 0
M  V30 27800 H 2680.81 3.744 -6.89053 0
M  V30 27801 N 2678.32 0.815849 1.34839 0
M  V30 27802 C 2679.73 0.460322 1.80936 0
M  V30 27803 C 2680.08 -1.0186 1.67687 0
M  V30 27804 O 2679.2 -1.79221 1.2128 0
M  V30 27805 C 2679.8 0.828766 3.28507 0
M  V30 27806 C 2678.36 0.525709 3.72711 0
M  V30 27807 C 2677.51 1.04945 2.56674 0
M  V30 27808 H 2680.46 1.00666 1.22687 0
M  V30 27809 H 2680.48 0.129824 3.80278 0
M  V30 27810 H 2679.99 1.90519 3.38118 0
M  V30 27811 H 2678.09 -0.541602 3.68643 0
M  V30 27812 H 2678.2 1.06482 4.67117 0
M  V30 27813 H 2676.57 0.47133 2.50301 0
M  V30 27814 H 2677.35 2.13218 2.69059 0
M  V30 27815 N 2679.8 -1.46924 0.570174 0
M  V30 27816 C 2680.73 -2.28255 -0.207868 0
M  V30 27817 C 2681.74 -1.37776 -0.867277 0
M  V30 27818 O 2682.93 -1.62486 -0.738948 0
M  V30 27819 C 2680.03 -3.12435 -1.31292 0
M  V30 27820 C 2679.2 -4.3096 -0.747839 0
M  V30 27821 C 2678.26 -4.96633 -1.73901 0
M  V30 27822 O 2677.29 -5.54621 -1.28001 0
M  V30 27823 N 2678.49 -4.92503 -3.0728 0
M  V30 27824 H 2681.25 -2.9567 0.489846 0
M  V30 27825 H 2678.82 -1.56698 0.407104 0
M  V30 27826 H 2680.81 -3.53236 -1.97501 0
M  V30 27827 H 2679.38 -2.47178 -1.91368 0
M  V30 27828 H 2678.6 -3.94094 0.0913759 0
M  V30 27829 H 2679.89 -5.07596 -0.349869 0
M  V30 27830 H 2679.28 -4.46615 -3.47206 0
M  V30 27831 H 2677.84 -5.37284 -3.69011 0
M  V30 27832 N 2681.27 -0.307291 -1.54575 0
M  V30 27833 C 2682.52 0.299539 -1.99868 0
M  V30 27834 C 2682.84 1.53925 -1.19717 0
M  V30 27835 O 2682.11 1.9367 -0.294754 0
M  V30 27836 H 2680.69 0.11367 -0.738301 0
M  V30 27837 H 2683.35 -0.420075 -1.90319 0
M  V30 27838 H 2682.45 0.567229 -3.06902 0
M  V30 27839 N 2682.75 1.57561 -0.0351337 0
M  V30 27840 C 2683.71 2.09494 0.929782 0
M  V30 27841 C 2684.71 1.01121 1.25024 0
M  V30 27842 O 2685.9 1.27258 1.18959 0
M  V30 27843 C 2683.04 2.56581 2.24452 0
M  V30 27844 H 2684.23 2.96036 0.479883 0
M  V30 27845 H 2681.78 1.54842 0.213005 0
M  V30 27846 H 2682.52 1.73386 2.74058 0
M  V30 27847 H 2682.3 3.35761 2.02502 0
M  V30 27848 H 2683.79 2.96964 2.93602 0
M  V30 27849 N 2684.23 -0.238084 1.55791 0
M  V30 27850 C 2685.48 -0.966305 1.78299 0
M  V30 27851 C 2685.81 -1.84636 0.601936 0
M  V30 27852 O 2685.08 -1.90354 -0.399465 0
M  V30 27853 C 2685.37 -1.81933 3.10761 0
M  V30 27854 C 2685.22 -0.966881 4.39285 0
M  V30 27855 C 2686.54 -2.80021 3.39524 0
M  V30 27856 H 2683.66 -0.349871 0.64866 0
M  V30 27857 H 2686.3 -0.23622 1.88526 0
M  V30 27858 H 2684.45 -2.4418 3.02173 0
M  V30 27859 H 2686.12 -0.362433 4.59874 0
M  V30 27860 H 2684.36 -0.271593 4.32949 0
M  V30 27861 H 2685.04 -1.59775 5.28371 0
M  V30 27862 H 2687.51 -2.27911 3.48132 0
M  V30 27863 H 2686.39 -3.36821 4.33408 0
M  V30 27864 H 2686.65 -3.5693 2.60871 0
M  V30 27865 N 2685.71 -1.4932 -0.504115 0
M  V30 27866 C 2687.12 -1.51887 -1.08569 0
M  V30 27867 C 2687.47 -0.303289 -1.93842 0
M  V30 27868 O 2686.59 0.587203 -2.08281 0
M  V30 27869 C 2687.19 -2.75231 -1.97569 0
M  V30 27870 C 2685.75 -2.80586 -2.50895 0
M  V30 27871 C 2684.9 -2.45759 -1.28443 0
M  V30 27872 H 2687.85 -1.56062 -0.288167 0
M  V30 27873 H 2687.87 -2.55216 -2.82215 0
M  V30 27874 H 2687.38 -3.63685 -1.35479 0
M  V30 27875 H 2685.48 -1.96404 -3.16633 0
M  V30 27876 H 2685.59 -3.82678 -2.88261 0
M  V30 27877 H 2683.96 -1.97471 -1.60864 0
M  V30 27878 H 2684.74 -3.36485 -0.680661 0
M  V30 27879 N 2687.19 0.754933 -1.38342 0
M  V30 27880 C 2688.12 1.87829 -1.3135 0
M  V30 27881 C 2689.13 1.61224 -0.225983 0
M  V30 27882 O 2690.32 1.71829 -0.48344 0
M  V30 27883 C 2687.42 3.23435 -1.01207 0
M  V30 27884 C 2686.59 3.77555 -2.20841 0
M  V30 27885 C 2685.65 4.91675 -1.87463 0
M  V30 27886 O 2684.68 5.06378 -2.59942 0
M  V30 27887 N 2685.88 5.74553 -0.828783 0
M  V30 27888 H 2688.64 1.94338 -2.28151 0
M  V30 27889 H 2686.21 0.934805 -1.32186 0
M  V30 27890 H 2688.2 3.9732 -0.769319 0
M  V30 27891 H 2686.77 3.12321 -0.132066 0
M  V30 27892 H 2685.99 2.95252 -2.6119 0
M  V30 27893 H 2687.28 4.10446 -3.00685 0
M  V30 27894 H 2686.67 5.65242 -0.22769 0
M  V30 27895 H 2685.23 6.48592 -0.645916 0
M  V30 27896 N 2688.66 1.23189 0.982967 0
M  V30 27897 C 2689.59 1.03519 2.09299 0
M  V30 27898 C 2690.57 -0.0470837 1.70035 0
M  V30 27899 O 2691.76 0.117064 1.93847 0
M  V30 27900 C 2688.89 0.622851 3.41669 0
M  V30 27901 C 2687.84 1.65218 3.94825 0
M  V30 27902 C 2687.17 1.09536 5.2336 0
M  V30 27903 C 2688.47 3.04459 4.24385 0
M  V30 27904 H 2690.16 1.96363 2.26013 0
M  V30 27905 H 2687.71 0.94552 1.08609 0
M  V30 27906 H 2689.66 0.472307 4.18745 0
M  V30 27907 H 2688.39 -0.341272 3.24812 0
M  V30 27908 H 2687.05 1.79067 3.19891 0
M  V30 27909 H 2686.69 0.1223 5.02851 0
M  V30 27910 H 2686.39 1.7831 5.59892 0
M  V30 27911 H 2687.92 0.956617 6.0306 0
M  V30 27912 H 2689.33 2.93926 4.9222 0
M  V30 27913 H 2687.73 3.70447 4.72112 0
M  V30 27914 H 2688.8 3.53644 3.31759 0
M  V30 27915 N 2690.14 -1.18133 1.04318 0
M  V30 27916 C 2691.55 -1.6983 0.775535 0
M  V30 27917 C 2691.9 -1.83161 -0.703316 0
M  V30 27918 O 2691.03 -1.5129 -1.54726 0
M  V30 27919 C 2691.62 -3.08468 1.40118 0
M  V30 27920 C 2690.18 -3.57366 1.18179 0
M  V30 27921 C 2689.33 -2.33851 1.49026 0
M  V30 27922 H 2692.28 -1.02773 1.20927 0
M  V30 27923 H 2692.3 -3.71871 0.805737 0
M  V30 27924 H 2691.81 -2.98734 2.4775 0
M  V30 27925 H 2689.91 -3.72393 0.124324 0
M  V30 27926 H 2690.03 -4.40649 1.88058 0
M  V30 27927 H 2688.39 -2.37887 0.910037 0
M  V30 27928 H 2689.17 -2.26734 2.57772 0
M  V30 27929 N 2691.62 -0.822988 -1.34405 0
M  V30 27930 C 2693.03 -0.469911 -1.8069 0
M  V30 27931 C 2693.38 1.0097 -1.68225 0
M  V30 27932 O 2692.51 1.78575 -1.22229 0
M  V30 27933 C 2693.1 -0.846176 -3.28063 0
M  V30 27934 C 2691.66 -0.545468 -3.72427 0
M  V30 27935 C 2690.81 -1.06305 -2.56114 0
M  V30 27936 H 2693.76 -1.01315 -1.22151 0
M  V30 27937 H 2693.78 -0.149989 -3.80204 0
M  V30 27938 H 2693.29 -1.9231 -3.37103 0
M  V30 27939 H 2691.39 0.522044 -3.68925 0
M  V30 27940 H 2691.51 -1.08958 -4.66546 0
M  V30 27941 H 2689.87 -0.484598 -2.50047 0
M  V30 27942 H 2690.65 -2.14642 -2.67925 0
M  V30 27943 N 2693.1 1.4662 -0.577957 0
M  V30 27944 C 2694.32 2.07297 -0.06529 0
M  V30 27945 C 2694.75 1.42462 1.22826 0
M  V30 27946 O 2694.11 0.506748 1.74074 0
M  V30 27947 C 2694.15 3.60483 0.0919955 0
M  V30 27948 O 2693.26 3.96051 1.14965 0
M  V30 27949 H 2692.6 0.661223 -0.0606616 0
M  V30 27950 H 2695.13 1.88331 -0.799548 0
M  V30 27951 H 2695.14 4.06898 0.299669 0
M  V30 27952 H 2693.81 4.07065 -0.852683 0
M  V30 27953 H 2692.39 3.61352 0.920815 0
M  V30 27954 N 2694.58 0.315484 1.5441 0
M  V30 27955 C 2695.54 -0.541381 2.22714 0
M  V30 27956 C 2696.54 -1.04993 1.21792 0
M  V30 27957 O 2697.73 -0.943641 1.46428 0
M  V30 27958 C 2694.86 -1.75111 2.92488 0
M  V30 27959 H 2696.05 0.0556036 2.99848 0
M  V30 27960 H 2693.61 0.0664727 1.56159 0
M  V30 27961 H 2694.34 -2.38754 2.1947 0
M  V30 27962 H 2694.13 -1.39395 3.66485 0
M  V30 27963 H 2695.62 -2.35953 3.44552 0
M  V30 27964 N 2696.05 -1.5754 0.0434891 0
M  V30 27965 C 2697.47 -1.80065 -0.493311 0
M  V30 27966 C 2697.82 -0.955053 -1.71386 0
M  V30 27967 O 2696.94 -0.169472 -2.15735 0
M  V30 27968 C 2697.54 -3.2658 -0.901733 0
M  V30 27969 C 2696.1 -3.50049 -1.38356 0
M  V30 27970 C 2695.24 -2.75017 -0.355081 0
M  V30 27971 H 2698.19 -1.56396 0.269428 0
M  V30 27972 H 2698.21 -3.37079 -1.76517 0
M  V30 27973 H 2697.73 -3.88098 -0.0132028 0
M  V30 27974 H 2695.83 -2.93802 -2.29154 0
M  V30 27975 H 2695.94 -4.58764 -1.38102 0
M  V30 27976 H 2694.3 -2.40924 -0.826306 0
M  V30 27977 H 2695.09 -3.39258 0.525231 0
M  V30 27978 N 2697.53 0.229818 -1.55915 0
M  V30 27979 C 2698.5 1.26821 -1.90916 0
M  V30 27980 C 2699.5 1.40223 -0.787024 0
M  V30 27981 O 2700.69 1.3863 -1.05486 0
M  V30 27982 C 2697.82 2.64333 -2.15269 0
M  V30 27983 H 2699.01 0.969948 -2.83782 0
M  V30 27984 H 2696.56 0.469873 -1.4907 0
M  V30 27985 H 2697.3 2.99272 -1.24928 0
M  V30 27986 H 2697.08 2.55984 -2.9701 0
M  V30 27987 H 2698.57 3.3928 -2.43473 0
M  V30 27988 N 2699.01 1.49585 0.49619 0
M  V30 27989 C 2700.24 1.63031 1.27391 0
M  V30 27990 C 2700.65 0.303601 1.86343 0
M  V30 27991 O 2700.01 -0.711517 1.68059 0
M  V30 27992 C 2700.06 2.70273 2.40072 0
M  V30 27993 O 2699.78 3.97799 1.83542 0
M  V30 27994 C 2701.28 2.94468 3.31366 0
M  V30 27995 H 2698.5 0.548716 0.386201 0
M  V30 27996 H 2701.05 1.95649 0.595129 0
M  V30 27997 H 2699.2 2.4042 3.03771 0
M  V30 27998 H 2699.62 4.5691 2.57553 0
M  V30 27999 H 2701.09 3.73228 4.067 0
M  V30 28000 H 2701.57 2.04567 3.8865 0
M  V30 28001 H 2702.17 3.25756 2.73429 0
M  V30 28002 N 2700.49 -0.747586 1.3874 0
M  V30 28003 C 2701.71 -1.54194 1.38704 0
M  V30 28004 C 2702.14 -1.8809 -0.0196309 0
M  V30 28005 O 2701.5 -1.51008 -1.00331 0
M  V30 28006 C 2701.54 -2.81396 2.25497 0
M  V30 28007 O 2700.65 -3.76799 1.67619 0
M  V30 28008 H 2699.99 -0.466143 0.472871 0
M  V30 28009 H 2702.52 -0.923381 1.82578 0
M  V30 28010 H 2702.53 -3.3026 2.39567 0
M  V30 28011 H 2701.2 -2.56056 3.27732 0
M  V30 28012 H 2699.78 -3.35523 1.62723 0
M  V30 28013 N 2701.97 -1.23709 -0.97642 0
M  V30 28014 C 2702.88 -1.0386 -2.10357 0
M  V30 28015 C 2703.89 0.0180614 -1.73991 0
M  V30 28016 O 2705.07 -0.178247 -2.0061 0
M  V30 28017 C 2702.13 -0.636447 -3.40808 0
M  V30 28018 C 2701.19 -1.76861 -3.91176 0
M  V30 28019 C 2700.43 -1.38555 -5.15401 0
M  V30 28020 O 2700.65 -0.27152 -5.69753 0
M  V30 28021 O 2699.58 -2.20806 -5.59936 0
M  V30 28022 H 2703.41 -1.98335 -2.29994 0
M  V30 28023 H 2701 -1.0245 -1.0874 0
M  V30 28024 H 2702.88 -0.423296 -4.19269 0
M  V30 28025 H 2701.55 0.279265 -3.22493 0
M  V30 28026 H 2700.46 -2.03643 -3.13816 0
M  V30 28027 H 2701.79 -2.66278 -4.13953 0
M  V30 28028 N 2703.44 1.17579 -1.04943 0
M  V30 28029 C 2704.38 2.20372 -0.592557 0
M  V30 28030 C 2705.36 1.58156 0.377534 0
M  V30 28031 O 2706.54 1.8626 0.289747 0
M  V30 28032 C 2703.67 3.38438 0.133156 0
M  V30 28033 C 2702.71 4.1909 -0.791557 0
M  V30 28034 S 2703.55 4.84568 -2.27934 0
M  V30 28035 C 2704.7 6.06026 -1.56472 0
M  V30 28036 H 2704.93 2.58785 -1.46347 0
M  V30 28037 H 2702.47 1.28153 -0.861171 0
M  V30 28038 H 2704.43 4.06857 0.545675 0
M  V30 28039 H 2703.09 2.98418 0.980071 0
M  V30 28040 H 2702.28 5.03474 -0.230127 0
M  V30 28041 H 2701.88 3.56096 -1.14333 0
M  V30 28042 H 2704.17 6.71985 -0.862657 0
M  V30 28043 H 2705.12 6.66692 -2.38595 0
M  V30 28044 H 2705.52 5.54588 -1.05322 0
M  V30 28045 N 2704.92 0.830104 1.33967 0
M  V30 28046 C 2706.15 0.434808 2.0228 0
M  V30 28047 C 2706.57 -0.96139 1.62489 0
M  V30 28048 O 2705.92 -1.62335 0.833878 0
M  V30 28049 C 2705.97 0.535687 3.57509 0
M  V30 28050 O 2705.69 1.87686 3.9586 0
M  V30 28051 C 2707.2 0.136215 4.43091 0
M  V30 28052 H 2704.42 0.173624 0.648148 0
M  V30 28053 H 2706.96 1.12025 1.71087 0
M  V30 28054 H 2705.11 -0.101749 3.87266 0
M  V30 28055 H 2705.53 1.85618 4.90557 0
M  V30 28056 H 2707 0.257869 5.51397 0
M  V30 28057 H 2707.48 -0.921 4.29435 0
M  V30 28058 H 2708.09 0.747736 4.18675 0
M  V30 28059 N 2706.4 -1.46311 0.585725 0
M  V30 28060 C 2707.63 -2.06752 0.0781662 0
M  V30 28061 C 2708.04 -1.43399 -1.2281 0
M  V30 28062 O 2707.4 -0.540344 -1.74317 0
M  V30 28063 C 2707.45 -3.61385 -0.0911292 0
M  V30 28064 O 2707.17 -4.22369 1.16344 0
M  V30 28065 C 2708.67 -4.38762 -0.632688 0
M  V30 28066 H 2705.89 -0.668416 0.0588306 0
M  V30 28067 H 2708.44 -1.87893 0.807251 0
M  V30 28068 H 2706.59 -3.79662 -0.770447 0
M  V30 28069 H 2707.01 -5.15279 0.979173 0
M  V30 28070 H 2708.48 -5.4754 -0.700314 0
M  V30 28071 H 2708.96 -4.07015 -1.65032 0
M  V30 28072 H 2709.56 -4.25298 0.0118603 0
M  V30 28073 N 2707.88 -0.323668 -1.54241 0
M  V30 28074 C 2709.11 0.280835 -2.04985 0
M  V30 28075 C 2709.52 1.45774 -1.1998 0
M  V30 28076 O 2708.88 1.81038 -0.230503 0
M  V30 28077 C 2708.93 0.715195 -3.54355 0
M  V30 28078 O 2708.65 -0.414893 -4.36131 0
M  V30 28079 C 2710.15 1.3825 -4.21191 0
M  V30 28080 H 2707.37 0.0577385 -0.668511 0
M  V30 28081 H 2709.92 -0.469887 -1.99028 0
M  V30 28082 H 2708.07 1.41589 -3.60598 0
M  V30 28083 H 2708.49 -0.0726148 -5.2445 0
M  V30 28084 H 2709.96 1.63736 -5.27157 0
M  V30 28085 H 2710.44 2.32982 -3.72311 0
M  V30 28086 H 2711.04 0.724373 -4.19086 0
M  V30 28087 N 2709.36 1.57515 -0.0518432 0
M  V30 28088 C 2710.77 1.80324 0.483755 0
M  V30 28089 C 2711.12 0.964129 1.70877 0
M  V30 28090 O 2710.24 0.18091 2.15642 0
M  V30 28091 C 2710.84 3.27053 0.884401 0
M  V30 28092 C 2709.4 3.50778 1.36498 0
M  V30 28093 C 2708.55 2.75202 0.340491 0
M  V30 28094 H 2711.5 1.56251 -0.277718 0
M  V30 28095 H 2711.52 3.3801 1.74727 0
M  V30 28096 H 2711.03 3.88099 -0.00737915 0
M  V30 28097 H 2709.13 2.95013 2.27592 0
M  V30 28098 H 2709.24 4.5949 1.35667 0
M  V30 28099 H 2707.61 2.41359 0.813518 0
M  V30 28100 H 2708.39 3.38975 -0.543216 0
M  V30 28101 N 2710.84 -0.221546 1.56035 0
M  V30 28102 C 2711.75 -1.29554 1.95583 0
M  V30 28103 C 2712.76 -1.5128 0.859665 0
M  V30 28104 O 2713.94 -1.64411 1.16323 0
M  V30 28105 C 2711 -2.62527 2.26452 0
M  V30 28106 C 2710.06 -2.49104 3.49637 0
M  V30 28107 C 2709.3 -3.75735 3.79023 0
M  V30 28108 O 2709.52 -4.78752 3.10086 0
M  V30 28109 O 2708.45 -3.72847 4.72513 0
M  V30 28110 H 2712.28 -0.989984 2.87111 0
M  V30 28111 H 2709.86 -0.424409 1.43245 0
M  V30 28112 H 2711.75 -3.4106 2.475 0
M  V30 28113 H 2710.42 -2.92764 1.38097 0
M  V30 28114 H 2709.33 -1.68771 3.33867 0
M  V30 28115 H 2710.66 -2.23806 4.38374 0
M  V30 28116 N 2712.31 -1.49846 -0.48825 0
M  V30 28117 C 2713.73 -1.36891 -0.820542 0
M  V30 28118 C 2713.93 -0.411786 -1.97247 0
M  V30 28119 O 2712.99 0.151887 -2.52043 0
M  V30 28120 C 2714.3 -2.77893 -1.14875 0
M  V30 28121 C 2715.85 -2.86685 -1.25621 0
M  V30 28122 C 2716.32 -4.28481 -1.61764 0
M  V30 28123 N 2717.81 -4.31352 -1.68789 0
M  V30 28124 C 2718.55 -5.38047 -1.98225 0
M  V30 28125 N 2718.04 -6.54971 -2.25798 0
M  V30 28126 N 2719.84 -5.25474 -1.99583 0
M  V30 28127 H 2711.99 -2.10662 0.27116 0
M  V30 28128 H 2714.25 -0.946178 0.0587516 0
M  V30 28129 H 2713.96 -3.49689 -0.375552 0
M  V30 28130 H 2713.83 -3.14062 -2.08914 0
M  V30 28131 H 2716.22 -2.15118 -2.02011 0
M  V30 28132 H 2716.3 -2.54081 -0.296027 0
M  V30 28133 H 2715.94 -5.0058 -0.859207 0
M  V30 28134 H 2715.87 -4.58559 -2.58904 0
M  V30 28135 H 2718.36 -3.47032 -1.49589 0
M  V30 28136 H 2718.68 -7.32101 -2.47484 0
M  V30 28137 H 2717.02 -6.58175 -2.23227 0
M  V30 28138 H 2720.21 -4.3313 -1.77527 0
M  V30 28139 H 2720.39 -6.08717 -2.22189 0
M  V30 28140 N 2713.79 0.740218 -1.39135 0
M  V30 28141 C 2715.2 1.31823 -1.32211 0
M  V30 28142 C 2715.55 1.96194 0.0159574 0
M  V30 28143 O 2714.68 1.9596 0.918077 0
M  V30 28144 C 2715.27 2.39695 -2.3944 0
M  V30 28145 C 2713.83 2.93183 -2.36053 0
M  V30 28146 C 2712.98 1.66697 -2.21602 0
M  V30 28147 H 2715.93 0.538106 -1.49299 0
M  V30 28148 H 2715.95 3.19959 -2.05928 0
M  V30 28149 H 2715.46 1.92815 -3.36814 0
M  V30 28150 H 2713.56 3.44356 -1.42301 0
M  V30 28151 H 2713.68 3.46652 -3.3071 0
M  V30 28152 H 2712.04 1.90834 -1.68684 0
M  V30 28153 H 2712.82 1.21877 -3.20938 0
M  V30 28154 N 2715.27 1.24225 0.969846 0
M  V30 28155 C 2716.69 1.00718 1.23807 0
M  V30 28156 C 2716.89 -0.285323 1.9947 0
M  V30 28157 O 2715.94 -1.00203 2.31766 0
M  V30 28158 C 2717.25 2.22083 2.0273 0
M  V30 28159 C 2718.8 2.26685 2.1583 0
M  V30 28160 C 2719.28 3.47666 2.98148 0
M  V30 28161 N 2720.77 3.4797 3.05731 0
M  V30 28162 C 2721.5 4.38238 3.69777 0
M  V30 28163 N 2721 5.38758 4.3556 0
M  V30 28164 N 2722.79 4.25955 3.66768 0
M  V30 28165 H 2714.94 2.07286 0.463257 0
M  V30 28166 H 2717.21 0.909526 0.267332 0
M  V30 28167 H 2716.91 3.15938 1.54519 0
M  V30 28168 H 2716.79 2.24027 3.03466 0
M  V30 28169 H 2719.17 1.33363 2.63246 0
M  V30 28170 H 2719.25 2.28769 1.14449 0
M  V30 28171 H 2718.9 4.41301 2.51427 0
M  V30 28172 H 2718.83 3.42825 3.99723 0
M  V30 28173 H 2721.32 2.75247 2.58936 0
M  V30 28174 H 2721.63 6.03874 4.82241 0
M  V30 28175 H 2719.98 5.42646 4.34235 0
M  V30 28176 H 2723.17 3.46662 3.14552 0
M  V30 28177 H 2723.34 4.96504 4.16398 0
M  V30 28178 N 2716.75 -1.1702 1.05565 0
M  V30 28179 C 2718.16 -1.39369 0.777709 0
M  V30 28180 C 2718.36 -1.91522 -0.626235 0
M  V30 28181 O 2717.42 -2.10927 -1.38803 0
M  V30 28182 C 2718.73 -2.38106 1.83646 0
M  V30 28183 C 2720.28 -2.51805 1.85911 0
M  V30 28184 C 2720.76 -3.53819 2.9082 0
M  V30 28185 N 2722.25 -3.6134 2.89806 0
M  V30 28186 C 2722.98 -4.40042 3.67628 0
M  V30 28187 N 2722.48 -5.22229 4.55246 0
M  V30 28188 N 2724.27 -4.34952 3.56052 0
M  V30 28189 H 2716.42 -0.815013 1.96141 0
M  V30 28190 H 2718.68 -0.420707 0.849535 0
M  V30 28191 H 2718.39 -2.06866 2.84428 0
M  V30 28192 H 2718.26 -3.37659 1.68126 0
M  V30 28193 H 2720.65 -2.82354 0.857915 0
M  V30 28194 H 2720.73 -1.52314 2.05509 0
M  V30 28195 H 2720.38 -3.24008 3.91128 0
M  V30 28196 H 2720.31 -4.53023 2.68473 0
M  V30 28197 H 2722.8 -3.02665 2.2628 0
M  V30 28198 H 2723.11 -5.79475 5.11301 0
M  V30 28199 H 2721.46 -5.21597 4.59306 0
M  V30 28200 H 2724.65 -3.69801 2.86992 0
M  V30 28201 H 2724.82 -4.96044 4.16947 0
M  V30 28202 N 2718.23 -0.837197 -1.33524 0
M  V30 28203 C 2719.47 -0.431246 -1.97445 0
M  V30 28204 C 2719.79 1.01252 -1.66652 0
M  V30 28205 O 2719.06 1.70507 -0.964589 0
M  V30 28206 H 2717.64 -0.156476 -0.730427 0
M  V30 28207 H 2720.31 -1.06979 -1.62916 0
M  V30 28208 H 2719.4 -0.561931 -3.07 0
M  V30 28209 N 2719.7 1.45999 -0.593476 0
M  V30 28210 C 2720.95 2.01538 -0.0808438 0
M  V30 28211 C 2721.27 1.46936 1.29109 0
M  V30 28212 O 2722.47 1.94362 1.89567 0
M  V30 28213 C 2720.93 3.59777 -0.0938943 0
M  V30 28214 C 2720.54 4.23376 -1.46481 0
M  V30 28215 C 2722.28 4.22935 0.364231 0
M  V30 28216 C 2720.19 5.73726 -1.43501 0
M  V30 28217 H 2719.12 0.753536 -0.0264539 0
M  V30 28218 H 2721.77 1.6762 -0.746719 0
M  V30 28219 H 2720.15 3.90821 0.638358 0
M  V30 28220 H 2721.32 4.03927 -2.21765 0
M  V30 28221 H 2719.64 3.72357 -1.86385 0
M  V30 28222 H 2722.24 5.3316 0.405491 0
M  V30 28223 H 2722.58 3.9262 1.38402 0
M  V30 28224 H 2723.11 3.96556 -0.3143 0
M  V30 28225 H 2719.85 6.08717 -2.43194 0
M  V30 28226 H 2719.37 5.95408 -0.724536 0
M  V30 28227 H 2721.05 6.36652 -1.15254 0
M  V30 28228 N 2721.18 0.331843 1.54067 0
M  V30 28229 C 2722.59 -0.154507 1.8606 0
M  V30 28230 C 2722.94 -1.5095 1.25334 0
M  V30 28231 O 2722.07 -2.08962 0.562478 0
M  V30 28232 C 2722.66 -0.287133 3.37581 0
M  V30 28233 C 2721.22 -0.717708 3.69494 0
M  V30 28234 C 2720.37 0.155617 2.76863 0
M  V30 28235 H 2723.32 0.551847 1.48796 0
M  V30 28236 H 2723.34 -1.11664 3.63746 0
M  V30 28237 H 2722.85 0.699198 3.8175 0
M  V30 28238 H 2720.96 -1.71349 3.30863 0
M  V30 28239 H 2721.07 -0.515716 4.76316 0
M  V30 28240 H 2719.43 -0.370169 2.51996 0
M  V30 28241 H 2720.22 1.13887 3.23859 0
M  V30 28242 N 2722.66 -1.57485 0.0601958 0
M  V30 28243 C 2723.91 -1.92663 -0.610353 0
M  V30 28244 C 2724.23 -0.940011 -1.70847 0
M  V30 28245 O 2723.5 0.013711 -1.95895 0
M  V30 28246 H 2722.08 -0.711212 -0.228445 0
M  V30 28247 H 2724.74 -1.94559 0.115322 0
M  V30 28248 H 2723.84 -2.94151 -1.04315 0
M  V30 28249 N 2724.14 0.213268 -1.5615 0
M  V30 28250 C 2725.07 1.26738 -1.96111 0
M  V30 28251 C 2726.05 1.48449 -0.830475 0
M  V30 28252 O 2727.23 1.60493 -1.09342 0
M  V30 28253 C 2724.36 2.61547 -2.28497 0
M  V30 28254 C 2723.32 2.54479 -3.44129 0
M  V30 28255 C 2722.64 3.93393 -3.62141 0
M  V30 28256 C 2723.94 2.08548 -4.78858 0
M  V30 28257 H 2725.64 0.935384 -2.84413 0
M  V30 28258 H 2723.18 0.448516 -1.36837 0
M  V30 28259 H 2725.14 3.35455 -2.55045 0
M  V30 28260 H 2723.86 2.96451 -1.37057 0
M  V30 28261 H 2722.52 1.83027 -3.17642 0
M  V30 28262 H 2722.17 4.25619 -2.68063 0
M  V30 28263 H 2721.87 3.89544 -4.3992 0
M  V30 28264 H 2723.39 4.68951 -3.91046 0
M  V30 28265 H 2724.81 2.72204 -5.04557 0
M  V30 28266 H 2723.2 2.1574 -5.59979 0
M  V30 28267 H 2724.27 1.03802 -4.73659 0
M  V30 28268 N 2725.62 1.50103 0.480296 0
M  V30 28269 C 2727.03 1.53595 1.06139 0
M  V30 28270 C 2727.38 0.334089 1.93335 0
M  V30 28271 O 2726.5 -0.553993 2.09189 0
M  V30 28272 C 2727.1 2.78339 1.93165 0
M  V30 28273 C 2725.66 2.84542 2.464 0
M  V30 28274 C 2724.8 2.47772 1.24517 0
M  V30 28275 H 2727.76 1.56501 0.263302 0
M  V30 28276 H 2727.78 2.59673 2.78119 0
M  V30 28277 H 2727.29 3.65795 1.29676 0
M  V30 28278 H 2725.39 2.01416 3.13468 0
M  V30 28279 H 2725.5 3.87216 2.82136 0
M  V30 28280 H 2723.87 2.00005 1.57702 0
M  V30 28281 H 2724.65 3.37525 0.627043 0
M  V30 28282 N 2727.09 -0.732829 1.39526 0
M  V30 28283 C 2728.37 -1.48441 1.27376 0
M  V30 28284 C 2728.75 -2.10783 -0.115688 0
M  V30 28285 O 2728.1 -1.98768 -1.12709 0
M  V30 28286 C 2728.31 -2.53407 2.3997 0
M  V30 28287 C 2729.66 -3.19729 2.7939 0
M  V30 28288 O 2730.68 -2.63721 2.39436 0
M  V30 28289 O 2729.54 -4.21079 3.4836 0
M  V30 28290 H 2726.63 -0.659276 0.499283 0
M  V30 28291 H 2729.18 -0.766469 1.51405 0
M  V30 28292 H 2727.95 -2.05736 3.32849 0
M  V30 28293 H 2727.58 -3.32758 2.17618 0
M  V30 28294 N 2728.57 -1.24737 -0.963244 0
M  V30 28295 C 2729.82 -1.08758 -1.70341 0
M  V30 28296 C 2730.14 0.373585 -1.91388 0
M  V30 28297 O 2729.41 1.26617 -1.49482 0
M  V30 28298 H 2727.99 -0.399467 -0.631217 0
M  V30 28299 H 2730.65 -1.56727 -1.15857 0
M  V30 28300 H 2729.75 -1.58914 -2.68613 0
M  V30 28301 N 2730.05 1.16459 -1.06184 0
M  V30 28302 C 2731.47 1.38955 -0.785089 0
M  V30 28303 C 2731.67 1.91851 0.61607 0
M  V30 28304 O 2730.72 2.1166 1.37682 0
M  V30 28305 C 2732.04 2.37129 -1.84906 0
M  V30 28306 C 2733.58 2.50816 -1.87244 0
M  V30 28307 C 2734.06 3.52272 -2.92692 0
M  V30 28308 N 2735.55 3.59798 -2.91719 0
M  V30 28309 C 2736.28 4.38086 -3.69957 0
M  V30 28310 N 2735.78 5.19807 -4.58009 0
M  V30 28311 N 2737.57 4.33058 -3.58353 0
M  V30 28312 H 2729.72 0.8046 -1.9657 0
M  V30 28313 H 2731.99 0.416196 -0.851754 0
M  V30 28314 H 2731.69 2.05355 -2.85521 0
M  V30 28315 H 2731.57 3.36763 -1.69914 0
M  V30 28316 H 2733.95 2.81895 -0.872877 0
M  V30 28317 H 2734.04 1.51222 -2.06314 0
M  V30 28318 H 2733.68 3.2193 -3.92841 0
M  V30 28319 H 2733.61 4.51593 -2.70872 0
M  V30 28320 H 2736.1 3.0146 -2.27882 0
M  V30 28321 H 2736.41 5.76755 -5.14367 0
M  V30 28322 H 2734.76 5.19154 -4.62065 0
M  V30 28323 H 2737.95 3.68274 -2.88949 0
M  V30 28324 H 2738.12 4.93825 -4.19572 0
M  V30 28325 N 2731.53 0.844266 1.33079 0
M  V30 28326 C 2732.78 0.442585 1.97604 0
M  V30 28327 C 2733.1 -0.999429 1.66858 0
M  V30 28328 O 2732.36 -1.71448 0.943616 0
M  V30 28329 C 2732.66 0.616416 3.52044 0
M  V30 28330 C 2732.32 2.02733 4.02753 0
M  V30 28331 C 2730.99 2.41325 4.16312 0
M  V30 28332 C 2733.34 2.94867 4.29771 0
M  V30 28333 C 2730.67 3.71343 4.54226 0
M  V30 28334 C 2733.02 4.24372 4.69138 0
M  V30 28335 C 2731.68 4.62913 4.80903 0
M  V30 28336 H 2730.95 0.161953 0.723085 0
M  V30 28337 H 2733.6 1.07233 1.58661 0
M  V30 28338 H 2731.9 -0.0966124 3.91681 0
M  V30 28339 H 2733.6 0.285826 3.9998 0
M  V30 28340 H 2730.19 1.71763 3.92677 0
M  V30 28341 H 2734.37 2.66288 4.18813 0
M  V30 28342 H 2729.63 4.01001 4.61528 0
M  V30 28343 H 2733.8 4.95835 4.89 0
M  V30 28344 H 2731.43 5.63706 5.10038 0
M  V30 28345 N 2733.01 -1.45682 0.60121 0
M  V30 28346 C 2733.96 -2.27553 -0.142646 0
M  V30 28347 C 2734.94 -1.36952 -0.844574 0
M  V30 28348 O 2736.13 -1.6099 -0.735616 0
M  V30 28349 C 2733.26 -3.23693 -1.14358 0
M  V30 28350 C 2732.35 -4.21782 -0.44282 0
M  V30 28351 N 2732.74 -5.03202 0.511979 0
M  V30 28352 C 2731.04 -4.40611 -0.6912 0
M  V30 28353 C 2731.74 -5.74326 0.923281 0
M  V30 28354 N 2730.71 -5.42937 0.268403 0
M  V30 28355 H 2734.52 -2.87901 0.590787 0
M  V30 28356 H 2732.03 -1.56757 0.424393 0
M  V30 28357 H 2734.03 -3.81073 -1.69083 0
M  V30 28358 H 2732.69 -2.64905 -1.87764 0
M  V30 28359 H 2733.7 -5.10223 0.888419 0
M  V30 28360 H 2730.37 -3.92955 -1.41042 0
M  V30 28361 H 2731.76 -6.49765 1.71041 0
M  V30 28362 N 2734.48 -0.340009 -1.53889 0
M  V30 28363 C 2735.41 0.510816 -2.27844 0
M  V30 28364 C 2736.4 1.1056 -1.29269 0
M  V30 28365 O 2737.58 1.12766 -1.58106 0
M  V30 28366 C 2734.71 1.66367 -3.0486 0
M  V30 28367 C 2733.66 1.19739 -4.10909 0
M  V30 28368 C 2732.99 2.43848 -4.75859 0
M  V30 28369 C 2734.29 0.30041 -5.21435 0
M  V30 28370 H 2735.98 -0.10612 -2.99212 0
M  V30 28371 H 2733.53 -0.0524786 -1.43904 0
M  V30 28372 H 2735.48 2.26531 -3.55333 0
M  V30 28373 H 2734.21 2.30745 -2.31137 0
M  V30 28374 H 2732.87 0.618591 -3.61343 0
M  V30 28375 H 2732.51 3.06626 -3.98735 0
M  V30 28376 H 2732.21 2.13333 -5.47506 0
M  V30 28377 H 2733.74 3.04744 -5.29115 0
M  V30 28378 H 2735.15 0.80879 -5.67566 0
M  V30 28379 H 2733.55 0.0873021 -6.00036 0
M  V30 28380 H 2734.62 -0.664406 -4.80327 0
M  V30 28381 N 2735.96 1.57451 -0.0685468 0
M  V30 28382 C 2737.37 1.80827 0.464602 0
M  V30 28383 C 2737.73 0.982198 1.69845 0
M  V30 28384 O 2736.85 0.203772 2.15438 0
M  V30 28385 C 2737.45 3.27973 0.849663 0
M  V30 28386 C 2736 3.52206 1.32769 0
M  V30 28387 C 2735.15 2.75547 0.311283 0
M  V30 28388 H 2738.1 1.55948 -0.294275 0
M  V30 28389 H 2738.12 3.39844 1.71132 0
M  V30 28390 H 2737.64 3.8807 -0.0485419 0
M  V30 28391 H 2735.74 2.9741 2.24451 0
M  V30 28392 H 2735.85 4.60903 1.30786 0
M  V30 28393 H 2734.21 2.42208 0.787873 0
M  V30 28394 H 2735 3.3838 -0.579138 0
M  V30 28395 N 2737.44 -0.204984 1.56261 0
M  V30 28396 C 2738.85 -0.770544 1.70057 0
M  V30 28397 C 2739.2 -1.84281 0.67343 0
M  V30 28398 O 2738.33 -2.15714 -0.172158 0
M  V30 28399 C 2738.92 -1.40446 3.08319 0
M  V30 28400 C 2737.48 -1.91721 3.23913 0
M  V30 28401 C 2736.63 -0.78347 2.66002 0
M  V30 28402 H 2739.58 0.0199389 1.58687 0
M  V30 28403 H 2739.6 -2.27366 3.05098 0
M  V30 28404 H 2739.11 -0.623814 3.83054 0
M  V30 28405 H 2737.21 -2.72536 2.54077 0
M  V30 28406 H 2737.33 -2.0858 4.31313 0
M  V30 28407 H 2735.69 -1.19517 2.24917 0
M  V30 28408 H 2736.47 -0.015228 3.43297 0
M  V30 28409 N 2738.92 -1.50356 -0.472329 0
M  V30 28410 C 2740.34 -1.37754 -0.805977 0
M  V30 28411 C 2740.54 -0.432684 -1.968 0
M  V30 28412 O 2739.59 0.125146 -2.5219 0
M  V30 28413 C 2740.9 -2.79095 -1.11921 0
M  V30 28414 C 2742.45 -2.88001 -1.22574 0
M  V30 28415 C 2742.93 -4.30173 -1.5721 0
M  V30 28416 N 2744.42 -4.33118 -1.64204 0
M  V30 28417 C 2745.15 -5.40119 -1.92507 0
M  V30 28418 N 2744.65 -6.57329 -2.18839 0
M  V30 28419 N 2746.44 -5.27561 -1.93999 0
M  V30 28420 H 2738.59 -2.10363 0.293488 0
M  V30 28421 H 2740.86 -0.945501 0.0687838 0
M  V30 28422 H 2740.56 -3.50068 -0.338442 0
M  V30 28423 H 2740.44 -3.1626 -2.05571 0
M  V30 28424 H 2742.82 -2.17248 -1.99718 0
M  V30 28425 H 2742.9 -2.54381 -0.269062 0
M  V30 28426 H 2742.55 -5.01463 -0.806066 0
M  V30 28427 H 2742.48 -4.61279 -2.54026 0
M  V30 28428 H 2744.97 -3.48599 -1.459 0
M  V30 28429 H 2745.28 -7.34685 -2.39705 0
M  V30 28430 H 2743.63 -6.60506 -2.16234 0
M  V30 28431 H 2746.82 -4.34989 -1.72923 0
M  V30 28432 H 2746.99 -6.11039 -2.15721 0
M  V30 28433 N 2740.4 0.725419 -1.39912 0
M  V30 28434 C 2741.65 1.48066 -1.36965 0
M  V30 28435 C 2741.96 1.95579 0.0284134 0
M  V30 28436 O 2743.17 2.70899 0.180487 0
M  V30 28437 C 2741.62 2.67594 -2.40669 0
M  V30 28438 C 2741.23 2.2699 -3.86238 0
M  V30 28439 C 2742.97 3.45375 -2.46813 0
M  V30 28440 C 2740.88 3.43298 -4.8156 0
M  V30 28441 H 2739.81 0.556056 -0.509233 0
M  V30 28442 H 2742.46 0.790425 -1.65604 0
M  V30 28443 H 2740.84 3.38739 -2.05115 0
M  V30 28444 H 2742.02 1.63329 -4.30883 0
M  V30 28445 H 2740.33 1.62278 -3.83477 0
M  V30 28446 H 2742.93 4.31903 -3.1522 0
M  V30 28447 H 2743.27 3.88507 -1.49559 0
M  V30 28448 H 2743.81 2.81266 -2.81308 0
M  V30 28449 H 2740.54 3.05207 -5.80111 0
M  V30 28450 H 2740.06 4.05908 -4.41587 0
M  V30 28451 H 2741.74 4.09501 -5.00917 0
M  V30 28452 N 2741.88 1.25246 0.956615 0
M  V30 28453 C 2742.83 1.02145 2.03839 0
M  V30 28454 C 2743.81 -0.0409776 1.60848 0
M  V30 28455 O 2745 0.174115 1.76142 0
M  V30 28456 C 2742.13 0.640022 3.37281 0
M  V30 28457 C 2741.22 1.7391 3.86802 0
M  V30 28458 N 2741.61 2.97388 4.09138 0
M  V30 28459 C 2739.91 1.61916 4.15571 0
M  V30 28460 C 2740.61 3.68714 4.49916 0
M  V30 28461 N 2739.58 2.96326 4.55732 0
M  V30 28462 H 2743.38 1.9589 2.19099 0
M  V30 28463 H 2740.9 1.15536 1.14128 0
M  V30 28464 H 2742.9 0.455716 4.14402 0
M  V30 28465 H 2741.56 -0.290123 3.23401 0
M  V30 28466 H 2742.57 3.33454 3.96269 0
M  V30 28467 H 2739.24 0.757836 4.10564 0
M  V30 28468 H 2740.63 4.74692 4.75518 0
M  V30 28469 N 2743.35 -1.15894 1.068 0
M  V30 28470 C 2744.77 -1.38537 0.792447 0
M  V30 28471 C 2744.97 -1.92175 -0.605887 0
M  V30 28472 O 2744.03 -2.12387 -1.36558 0
M  V30 28473 C 2745.34 -2.36145 1.86161 0
M  V30 28474 C 2746.89 -2.49819 1.88572 0
M  V30 28475 C 2747.36 -3.50715 2.94556 0
M  V30 28476 N 2748.85 -3.58246 2.93623 0
M  V30 28477 C 2749.59 -4.36118 3.72275 0
M  V30 28478 N 2749.08 -5.17371 4.6076 0
M  V30 28479 N 2750.88 -4.31152 3.60645 0
M  V30 28480 H 2743.03 -0.794164 1.96994 0
M  V30 28481 H 2745.29 -0.411673 0.853949 0
M  V30 28482 H 2745 -2.03838 2.86606 0
M  V30 28483 H 2744.87 -3.35857 1.71698 0
M  V30 28484 H 2747.26 -2.81428 0.887814 0
M  V30 28485 H 2747.34 -1.50126 2.07113 0
M  V30 28486 H 2746.98 -3.19842 3.94542 0
M  V30 28487 H 2746.91 -4.5015 2.73263 0
M  V30 28488 H 2749.4 -3.00248 2.29477 0
M  V30 28489 H 2749.72 -5.74019 5.17419 0
M  V30 28490 H 2748.06 -5.16696 4.64812 0
M  V30 28491 H 2751.25 -3.66737 2.90898 0
M  V30 28492 H 2751.43 -4.91593 4.22185 0
M  V30 28493 N 2744.83 -0.851312 -1.32629 0
M  V30 28494 C 2745.79 -0.298581 -2.27247 0
M  V30 28495 C 2746.79 0.53982 -1.51468 0
M  V30 28496 O 2747.98 0.351813 -1.7061 0
M  V30 28497 C 2745.12 0.577945 -3.35965 0
M  V30 28498 H 2746.31 -1.13364 -2.77648 0
M  V30 28499 H 2743.86 -0.62538 -1.43243 0
M  V30 28500 H 2744.6 1.43495 -2.90826 0
M  V30 28501 H 2744.38 -0.0221229 -3.92094 0
M  V30 28502 H 2745.87 0.957554 -4.06473 0
M  V30 28503 N 2746.31 1.45361 -0.608928 0
M  V30 28504 C 2747.53 2.07112 -0.109246 0
M  V30 28505 C 2747.96 1.45035 1.19776 0
M  V30 28506 O 2747.32 0.543558 1.7296 0
M  V30 28507 C 2747.37 3.60597 0.0155111 0
M  V30 28508 O 2746.47 3.98401 1.06539 0
M  V30 28509 H 2745.81 0.659788 -0.0746735 0
M  V30 28510 H 2748.34 1.86592 -0.839316 0
M  V30 28511 H 2748.35 4.07442 0.213293 0
M  V30 28512 H 2747.03 4.05165 -0.938836 0
M  V30 28513 H 2745.6 3.63224 0.84396 0
M  V30 28514 N 2747.79 0.348166 1.53706 0
M  V30 28515 C 2749.06 -0.302441 1.93248 0
M  V30 28516 C 2749.44 -1.67855 1.28015 0
M  V30 28517 O 2748.79 -2.24364 0.432779 0
M  V30 28518 C 2749 -0.370098 3.47032 0
M  V30 28519 C 2750.35 -0.618746 4.20067 0
M  V30 28520 O 2751.37 -0.452025 3.5332 0
M  V30 28521 O 2750.23 -0.942056 5.38319 0
M  V30 28522 H 2747.33 -0.177444 0.807739 0
M  V30 28523 H 2749.87 0.399679 1.64926 0
M  V30 28524 H 2748.65 0.595408 3.86744 0
M  V30 28525 H 2748.27 -1.11882 3.81534 0
M  V30 28526 N 2749.27 -1.57412 0.0768958 0
M  V30 28527 C 2750.68 -1.81071 -0.455006 0
M  V30 28528 C 2751.03 -0.991192 -1.69322 0
M  V30 28529 O 2750.15 -0.215194 -2.15327 0
M  V30 28530 C 2750.75 -3.28419 -0.832258 0
M  V30 28531 C 2749.31 -3.52905 -1.309 0
M  V30 28532 C 2748.45 -2.75709 -0.296666 0
M  V30 28533 H 2751.4 -1.5579 0.302541 0
M  V30 28534 H 2751.43 -3.40747 -1.69327 0
M  V30 28535 H 2750.94 -3.88038 0.0691214 0
M  V30 28536 H 2749.04 -2.98596 -2.2287 0
M  V30 28537 H 2749.15 -4.6159 -1.2834 0
M  V30 28538 H 2747.52 -2.42622 -0.775017 0
M  V30 28539 H 2748.3 -3.38068 0.597075 0
M  V30 28540 N 2750.74 0.196695 -1.56368 0
M  V30 28541 C 2751.99 0.915522 -1.80174 0
M  V30 28542 C 2752.31 1.83859 -0.649682 0
M  V30 28543 O 2751.58 1.93065 0.332077 0
M  V30 28544 H 2750.16 0.341055 -0.664598 0
M  V30 28545 H 2752.83 0.202588 -1.93844 0
M  V30 28546 H 2751.92 1.50759 -2.73273 0
M  V30 28547 N 2752.22 1.50604 0.464349 0
M  V30 28548 C 2753.15 1.72892 1.56941 0
M  V30 28549 C 2754.13 0.578025 1.59978 0
M  V30 28550 O 2755.32 0.817886 1.76137 0
M  V30 28551 C 2752.45 1.82925 2.95222 0
M  V30 28552 C 2751.4 2.98167 3.07051 0
M  V30 28553 C 2750.73 2.9335 4.47045 0
M  V30 28554 C 2752.03 4.38572 2.8364 0
M  V30 28555 H 2753.72 2.65417 1.38542 0
M  V30 28556 H 2751.27 1.27722 0.665059 0
M  V30 28557 H 2753.22 1.97101 3.72464 0
M  V30 28558 H 2751.95 0.870264 3.14792 0
M  V30 28559 H 2750.6 2.83652 2.32243 0
M  V30 28560 H 2750.25 1.95284 4.63544 0
M  V30 28561 H 2749.95 3.7072 4.55895 0
M  V30 28562 H 2751.48 3.09584 5.26298 0
M  V30 28563 H 2752.89 4.53578 3.50628 0
M  V30 28564 H 2751.29 5.17444 3.03928 0
M  V30 28565 H 2752.36 4.50475 1.79443 0
M  V30 28566 N 2753.7 -0.717989 1.40295 0
M  V30 28567 C 2755.11 -1.29703 1.34291 0
M  V30 28568 C 2755.46 -1.96194 0.0152573 0
M  V30 28569 O 2754.59 -1.97396 -0.886785 0
M  V30 28570 C 2755.18 -2.35855 2.43223 0
M  V30 28571 C 2753.74 -2.8939 2.40687 0
M  V30 28572 C 2752.89 -1.6315 2.24226 0
M  V30 28573 H 2755.84 -0.514286 1.50136 0
M  V30 28574 H 2755.86 -3.16643 2.10992 0
M  V30 28575 H 2755.37 -1.87433 3.39839 0
M  V30 28576 H 2753.47 -3.42049 1.47762 0
M  V30 28577 H 2753.59 -3.41347 3.36183 0
M  V30 28578 H 2751.95 -1.88126 1.71699 0
M  V30 28579 H 2752.73 -1.16755 3.22836 0
M  V30 28580 N 2755.18 -1.25752 -0.94996 0
M  V30 28581 C 2756.14 -1.06618 -2.02892 0
M  V30 28582 C 2757.14 -0.0174188 -1.60791 0
M  V30 28583 O 2758.33 -0.260033 -1.72248 0
M  V30 28584 C 2755.46 -0.61981 -3.35218 0
M  V30 28585 H 2756.66 -2.02403 -2.21298 0
M  V30 28586 H 2754.21 -1.08225 -1.1277 0
M  V30 28587 H 2754.94 0.340429 -3.22508 0
M  V30 28588 H 2754.73 -1.37698 -3.67126 0
M  V30 28589 H 2756.22 -0.507516 -4.14505 0
M  V30 28590 N 2756.66 1.15326 -1.07413 0
M  V30 28591 C 2757.57 2.2371 -0.706477 0
M  V30 28592 C 2758.58 1.7169 0.282556 0
M  V30 28593 O 2759.76 2.00986 0.129031 0
M  V30 28594 C 2756.82 3.46524 -0.110541 0
M  V30 28595 C 2755.88 4.1353 -1.15289 0
M  V30 28596 C 2755.12 5.30481 -0.585299 0
M  V30 28597 O 2755.34 5.67252 0.598449 0
M  V30 28598 O 2754.27 5.87011 -1.33049 0
M  V30 28599 H 2758.1 2.5749 -1.61035 0
M  V30 28600 H 2755.69 1.23061 -0.847135 0
M  V30 28601 H 2757.57 4.20828 0.219496 0
M  V30 28602 H 2756.24 3.1449 0.766648 0
M  V30 28603 H 2755.15 3.41144 -1.53529 0
M  V30 28604 H 2756.48 4.49645 -2.002 0
M  V30 28605 N 2758.13 0.858334 1.32176 0
M  V30 28606 C 2759.04 0.308647 2.32561 0
M  V30 28607 C 2760.06 -0.575433 1.6421 0
M  V30 28608 O 2761.24 -0.474926 1.9572 0
M  V30 28609 C 2758.3 -0.490848 3.43208 0
M  V30 28610 C 2757.36 0.419808 4.27242 0
M  V30 28611 C 2756.6 -0.341625 5.32605 0
M  V30 28612 O 2756.82 -1.57115 5.48335 0
M  V30 28613 O 2755.75 0.294485 6.01179 0
M  V30 28614 H 2759.58 1.14042 2.81475 0
M  V30 28615 H 2757.16 0.621373 1.35865 0
M  V30 28616 H 2759.05 -0.944502 4.10679 0
M  V30 28617 H 2757.72 -1.29936 2.96476 0
M  V30 28618 H 2756.63 0.921715 3.62568 0
M  V30 28619 H 2757.96 1.1936 4.77508 0
M  V30 28620 N 2759.61 -1.45036 0.616628 0
M  V30 28621 C 2761.02 -1.85632 0.199391 0
M  V30 28622 C 2761.37 -1.51568 -1.24585 0
M  V30 28623 O 2760.5 -0.946714 -1.94593 0
M  V30 28624 C 2761.09 -3.36934 0.355093 0
M  V30 28625 C 2759.65 -3.76399 -0.00752132 0
M  V30 28626 C 2758.8 -2.68952 0.675303 0
M  V30 28627 H 2761.75 -1.35709 0.822732 0
M  V30 28628 H 2761.77 -3.78283 -0.410135 0
M  V30 28629 H 2761.28 -3.61695 1.40705 0
M  V30 28630 H 2759.39 -3.57254 -1.05831 0
M  V30 28631 H 2759.5 -4.7749 0.39243 0
M  V30 28632 H 2757.86 -2.54453 0.112036 0
M  V30 28633 H 2758.65 -2.96548 1.72957 0
M  V30 28634 N 2761.09 -0.356312 -1.53519 0
M  V30 28635 C 2762.04 0.49453 -2.2544 0
M  V30 28636 C 2763.01 1.08514 -1.25753 0
M  V30 28637 O 2764.19 1.11937 -1.54515 0
M  V30 28638 C 2761.33 1.63308 -3.04014 0
M  V30 28639 C 2760.45 1.06854 -4.18576 0
M  V30 28640 C 2759.58 2.17544 -4.84611 0
M  V30 28641 C 2758.62 1.58507 -5.91221 0
M  V30 28642 N 2757.76 2.62991 -6.50984 0
M  V30 28643 H 2762.6 -0.125296 -2.97736 0
M  V30 28644 H 2760.13 -0.0736047 -1.46916 0
M  V30 28645 H 2762.09 2.30357 -3.47838 0
M  V30 28646 H 2760.72 2.2237 -2.3399 0
M  V30 28647 H 2759.77 0.288605 -3.79304 0
M  V30 28648 H 2761.09 0.596837 -4.95216 0
M  V30 28649 H 2760.24 2.92433 -5.31571 0
M  V30 28650 H 2758.98 2.68063 -4.07423 0
M  V30 28651 H 2757.98 0.821295 -5.43631 0
M  V30 28652 H 2759.21 1.08824 -6.70324 0
M  V30 28653 H 2757.15 3.12741 -5.76653 0
M  V30 28654 H 2757.07 2.20481 -7.23135 0
M  V30 28655 H 2758.34 3.3761 -7.02595 0
M  V30 28656 N 2762.57 1.57369 -0.0852427 0
M  V30 28657 C 2763.48 2.16994 0.891674 0
M  V30 28658 C 2764.49 1.13671 1.31738 0
M  V30 28659 O 2765.67 1.45998 1.38732 0
M  V30 28660 C 2762.74 2.73062 2.1363 0
M  V30 28661 C 2761.8 3.91306 1.76573 0
M  V30 28662 C 2761.03 4.44691 2.95103 0
M  V30 28663 O 2761.25 3.97039 4.09532 0
M  V30 28664 O 2760.19 5.35846 2.7414 0
M  V30 28665 H 2764.01 3.00859 0.414424 0
M  V30 28666 H 2761.6 1.48756 0.138572 0
M  V30 28667 H 2763.48 3.0894 2.8659 0
M  V30 28668 H 2762.15 1.92249 2.60427 0
M  V30 28669 H 2761.06 3.60257 1.00824 0
M  V30 28670 H 2762.39 4.73453 1.34548 0
M  V30 28671 N 2764.05 -0.188399 1.5647 0
M  V30 28672 C 2764.99 -1.23346 1.95076 0
M  V30 28673 C 2765.96 -1.44884 0.812264 0
M  V30 28674 O 2767.15 -1.57907 1.07098 0
M  V30 28675 C 2764.29 -2.57167 2.30128 0
M  V30 28676 C 2763.4 -2.43151 3.57074 0
M  V30 28677 C 2762.54 -3.69722 3.81417 0
M  V30 28678 C 2761.58 -3.50566 5.01766 0
M  V30 28679 N 2760.71 -4.69165 5.2233 0
M  V30 28680 H 2765.55 -0.89723 2.84172 0
M  V30 28681 H 2763.09 -0.431659 1.40624 0
M  V30 28682 H 2765.05 -3.3514 2.48469 0
M  V30 28683 H 2763.68 -2.88819 1.44164 0
M  V30 28684 H 2762.73 -1.56441 3.46743 0
M  V30 28685 H 2764.04 -2.24934 4.45204 0
M  V30 28686 H 2763.2 -4.56134 4.00034 0
M  V30 28687 H 2761.93 -3.909 2.9163 0
M  V30 28688 H 2760.94 -2.6254 4.83066 0
M  V30 28689 H 2762.16 -3.30827 5.93069 0
M  V30 28690 H 2760.11 -4.90595 4.35491 0
M  V30 28691 H 2760.03 -4.53798 6.04651 0
M  V30 28692 H 2761.3 -5.56909 5.4541 0
M  V30 28693 N 2765.53 -1.50848 -0.456355 0
M  V30 28694 C 2766.75 -1.6663 -1.23488 0
M  V30 28695 C 2767.18 -0.355287 -1.84714 0
M  V30 28696 O 2766.53 0.682529 -1.67962 0
M  V30 28697 C 2766.58 -2.77013 -2.3086 0
M  V30 28698 O 2765.69 -2.39291 -3.35877 0
M  V30 28699 H 2765.03 -0.55622 -0.36265 0
M  V30 28700 H 2767.56 -1.97309 -0.54134 0
M  V30 28701 H 2767.57 -3.00531 -2.75944 0
M  V30 28702 H 2766.24 -3.72155 -1.85671 0
M  V30 28703 H 2764.82 -2.26274 -2.96402 0
M  V30 28704 N 2767 0.710538 -1.40674 0
M  V30 28705 C 2768.23 1.50462 -1.42744 0
M  V30 28706 C 2768.65 1.88076 -0.0302447 0
M  V30 28707 O 2768.01 1.53615 0.962918 0
M  V30 28708 C 2768.06 2.75318 -2.32878 0
M  V30 28709 O 2767.16 3.72222 -1.77551 0
M  V30 28710 H 2766.5 0.453441 -0.485064 0
M  V30 28711 H 2769.03 0.874648 -1.84962 0
M  V30 28712 H 2769.04 3.23792 -2.48239 0
M  V30 28713 H 2767.72 2.47277 -3.34405 0
M  V30 28714 H 2766.3 3.3109 -1.71562 0
M  V30 28715 N 2768.48 1.26254 0.943277 0
M  V30 28716 C 2769.9 1.03321 1.21643 0
M  V30 28717 C 2770.1 -0.242948 2.0003 0
M  V30 28718 O 2769.15 -0.952647 2.33839 0
M  V30 28719 C 2770.47 2.26333 1.97974 0
M  V30 28720 C 2772.01 2.31212 2.10974 0
M  V30 28721 C 2772.49 3.53912 2.90707 0
M  V30 28722 N 2773.98 3.54376 2.98281 0
M  V30 28723 C 2774.72 4.45983 3.60398 0
M  V30 28724 N 2774.21 5.47875 4.24034 0
M  V30 28725 N 2776 4.33639 3.5765 0
M  V30 28726 H 2768.16 2.08222 0.419184 0
M  V30 28727 H 2770.42 0.914992 0.247979 0
M  V30 28728 H 2770.12 3.19144 1.47783 0
M  V30 28729 H 2770 2.30413 2.98646 0
M  V30 28730 H 2772.39 1.38917 2.60358 0
M  V30 28731 H 2772.47 2.31145 1.09571 0
M  V30 28732 H 2772.11 4.46535 2.4201 0
M  V30 28733 H 2772.04 3.51227 3.92361 0
M  V30 28734 H 2774.53 2.80677 2.53039 0
M  V30 28735 H 2774.84 6.13967 4.69323 0
M  V30 28736 H 2773.19 5.51735 4.22627 0
M  V30 28737 H 2776.38 3.53256 3.07128 0
M  V30 28738 H 2776.55 5.05225 4.05773 0
M  V30 28739 N 2769.96 -1.14755 1.08024 0
M  V30 28740 C 2770.91 -2.19714 0.706696 0
M  V30 28741 C 2771.88 -1.63272 -0.305221 0
M  V30 28742 O 2773.06 -1.8985 -0.190117 0
M  V30 28743 C 2770.2 -3.44898 0.117975 0
M  V30 28744 C 2769.31 -4.1551 1.1822 0
M  V30 28745 C 2768.45 -5.28264 0.557752 0
M  V30 28746 C 2767.49 -5.90702 1.60428 0
M  V30 28747 N 2766.63 -6.94914 1.00192 0
M  V30 28748 H 2771.47 -2.51016 1.60608 0
M  V30 28749 H 2769 -1.2327 0.802685 0
M  V30 28750 H 2770.96 -4.16503 -0.241039 0
M  V30 28751 H 2769.59 -3.14092 -0.744733 0
M  V30 28752 H 2768.64 -3.42333 1.65869 0
M  V30 28753 H 2769.95 -4.58016 1.97541 0
M  V30 28754 H 2769.11 -6.06522 0.146761 0
M  V30 28755 H 2767.85 -4.86968 -0.267163 0
M  V30 28756 H 2766.85 -5.1115 2.02498 0
M  V30 28757 H 2768.08 -6.34074 2.43161 0
M  V30 28758 H 2766.02 -6.55701 0.198032 0
M  V30 28759 H 2765.94 -7.35886 1.73229 0
M  V30 28760 H 2767.21 -7.77057 0.61666 0
M  V30 28761 N 2771.44 -0.865331 -1.31719 0
M  V30 28762 C 2772.68 -0.474668 -1.97167 0
M  V30 28763 C 2773.02 0.969574 -1.68264 0
M  V30 28764 O 2772.29 1.68204 -0.976618 0
M  V30 28765 C 2772.57 -0.72687 -3.52688 0
M  V30 28766 C 2772.43 -2.22031 -3.91181 0
M  V30 28767 C 2773.75 -0.190278 -4.39688 0
M  V30 28768 H 2770.87 -0.173933 -0.716182 0
M  V30 28769 H 2773.51 -1.08572 -1.55924 0
M  V30 28770 H 2771.66 -0.206774 -3.87949 0
M  V30 28771 H 2773.33 -2.8073 -3.66044 0
M  V30 28772 H 2771.57 -2.69468 -3.39955 0
M  V30 28773 H 2772.24 -2.34743 -4.99599 0
M  V30 28774 H 2774.72 -0.635175 -4.11223 0
M  V30 28775 H 2773.6 -0.396228 -5.47468 0
M  V30 28776 H 2773.86 0.907549 -4.32685 0
M  V30 28777 N 2772.92 1.44707 -0.624311 0
M  V30 28778 C 2773.88 2.29078 0.0749235 0
M  V30 28779 C 2774.88 1.40674 0.77894 0
M  V30 28780 O 2776.07 1.62619 0.624563 0
M  V30 28781 C 2773.2 3.22095 1.11657 0
M  V30 28782 H 2774.39 2.92387 -0.667064 0
M  V30 28783 H 2771.95 1.51506 -0.384125 0
M  V30 28784 H 2772.68 2.63621 1.88877 0
M  V30 28785 H 2772.47 3.87235 0.615762 0
M  V30 28786 H 2773.96 3.85492 1.60578 0
M  V30 28787 N 2774.39 0.364449 1.53328 0
M  V30 28788 C 2775.3 -0.490512 2.29415 0
M  V30 28789 C 2776.32 -1.09361 1.35337 0
M  V30 28790 O 2777.5 -1.1048 1.68393 0
M  V30 28791 C 2774.56 -1.61524 3.06775 0
M  V30 28792 C 2773.62 -1.03979 4.16518 0
M  V30 28793 C 2772.85 -2.11091 4.9018 0
M  V30 28794 O 2773.08 -3.32183 4.63693 0
M  V30 28795 O 2772.01 -1.74212 5.76137 0
M  V30 28796 H 2775.84 0.128613 3.03428 0
M  V30 28797 H 2773.42 0.128864 1.48843 0
M  V30 28798 H 2775.3 -2.26918 3.55086 0
M  V30 28799 H 2773.98 -2.21978 2.356 0
M  V30 28800 H 2772.89 -0.34979 3.72461 0
M  V30 28801 H 2774.22 -0.479814 4.89856 0
M  V30 28802 N 2775.87 -1.57322 0.0935872 0
M  V30 28803 C 2777.28 -1.81543 -0.435775 0
M  V30 28804 C 2777.63 -1.00909 -1.68261 0
M  V30 28805 O 2776.76 -0.238021 -2.15087 0
M  V30 28806 C 2777.35 -3.29283 -0.797378 0
M  V30 28807 C 2775.91 -3.54274 -1.27149 0
M  V30 28808 C 2775.06 -2.76008 -0.267407 0
M  V30 28809 H 2778.01 -1.5546 0.319048 0
M  V30 28810 H 2778.03 -3.42524 -1.65704 0
M  V30 28811 H 2777.54 -3.87943 0.110274 0
M  V30 28812 H 2775.64 -3.00943 -2.19691 0
M  V30 28813 H 2775.76 -4.62926 -1.23437 0
M  V30 28814 H 2774.12 -2.43431 -0.74924 0
M  V30 28815 H 2774.9 -3.37416 0.632898 0
M  V30 28816 N 2777.35 0.180099 -1.56568 0
M  V30 28817 C 2778.26 1.24323 -1.9895 0
M  V30 28818 C 2779.28 1.48948 -0.899473 0
M  V30 28819 O 2780.45 1.61269 -1.20642 0
M  V30 28820 C 2777.52 2.56431 -2.33332 0
M  V30 28821 C 2776.58 2.39746 -3.56118 0
M  V30 28822 C 2775.81 3.65554 -3.88852 0
M  V30 28823 O 2776.03 4.70362 -3.2267 0
M  V30 28824 O 2774.97 3.60188 -4.82232 0
M  V30 28825 H 2778.79 0.913514 -2.89635 0
M  V30 28826 H 2776.38 0.386281 -1.4432 0
M  V30 28827 H 2778.26 3.34378 -2.56456 0
M  V30 28828 H 2776.94 2.89 -1.45811 0
M  V30 28829 H 2775.84 1.5986 -3.38224 0
M  V30 28830 H 2777.18 2.12105 -4.44153 0
M  V30 28831 N 2778.83 1.51088 0.448349 0
M  V30 28832 C 2779.76 1.74547 1.55099 0
M  V30 28833 C 2780.74 0.594961 1.59356 0
M  V30 28834 O 2781.92 0.836522 1.7526 0
M  V30 28835 C 2779.05 1.86046 2.93265 0
M  V30 28836 C 2778.01 3.01407 3.03871 0
M  V30 28837 C 2777.33 2.98075 4.43909 0
M  V30 28838 C 2778.63 4.41556 2.78972 0
M  V30 28839 H 2780.33 2.66872 1.3572 0
M  V30 28840 H 2777.87 1.2842 0.651475 0
M  V30 28841 H 2779.83 2.01041 3.70352 0
M  V30 28842 H 2778.55 0.903603 3.13851 0
M  V30 28843 H 2777.21 2.861 2.29222 0
M  V30 28844 H 2776.86 2.0019 4.61447 0
M  V30 28845 H 2776.56 3.75535 4.51937 0
M  V30 28846 H 2778.08 3.15149 5.22985 0
M  V30 28847 H 2779.5 4.57271 3.45797 0
M  V30 28848 H 2777.89 5.20638 2.98422 0
M  V30 28849 H 2778.96 4.52353 1.74655 0
M  V30 28850 N 2780.31 -0.703068 1.41049 0
M  V30 28851 C 2781.24 -1.82713 1.36716 0
M  V30 28852 C 2782.22 -1.60885 0.235561 0
M  V30 28853 O 2783.4 -1.83733 0.421259 0
M  V30 28854 C 2780.53 -3.19268 1.13074 0
M  V30 28855 C 2779.57 -3.59901 2.28853 0
M  V30 28856 S 2780.41 -3.65571 3.91303 0
M  V30 28857 C 2781.56 -5.04864 3.6995 0
M  V30 28858 H 2781.8 -1.8611 2.31841 0
M  V30 28859 H 2779.33 -0.87106 1.27483 0
M  V30 28860 H 2781.29 -3.98103 1.0012 0
M  V30 28861 H 2779.95 -3.13489 0.195818 0
M  V30 28862 H 2779.14 -4.59084 2.07986 0
M  V30 28863 H 2778.74 -2.88355 2.38175 0
M  V30 28864 H 2781.04 -5.92148 3.29192 0
M  V30 28865 H 2781.98 -5.30771 4.68709 0
M  V30 28866 H 2782.39 -4.76049 3.03378 0
M  V30 28867 N 2781.78 -1.26752 -0.936569 0
M  V30 28868 C 2783.03 -1.12346 -1.67996 0
M  V30 28869 C 2783.35 0.332905 -1.92137 0
M  V30 28870 O 2782.62 1.23418 -1.52134 0
M  V30 28871 H 2781.2 -0.412767 -0.622602 0
M  V30 28872 H 2783.87 -1.59149 -1.12506 0
M  V30 28873 H 2782.96 -1.64576 -2.65182 0
M  V30 28874 N 2783.26 1.1418 -1.08631 0
M  V30 28875 C 2784.49 1.89129 -0.838923 0
M  V30 28876 C 2784.91 1.78704 0.609121 0
M  V30 28877 O 2784.26 1.14796 1.41874 0
M  V30 28878 C 2784.31 3.39023 -1.25483 0
M  V30 28879 O 2784.03 3.49163 -2.64607 0
M  V30 28880 C 2785.54 4.30961 -1.03864 0
M  V30 28881 H 2782.76 0.599001 -0.302388 0
M  V30 28882 H 2785.3 1.44589 -1.44617 0
M  V30 28883 H 2783.45 3.81176 -0.691638 0
M  V30 28884 H 2783.87 4.42284 -2.8193 0
M  V30 28885 H 2785.34 5.34497 -1.37901 0
M  V30 28886 H 2785.82 4.39193 0.024175 0
M  V30 28887 H 2786.43 3.94566 -1.58738 0
M  V30 28888 N 2784.74 0.872304 1.31258 0
M  V30 28889 C 2786.15 0.536649 1.78821 0
M  V30 28890 C 2786.5 -0.946564 1.71856 0
M  V30 28891 O 2785.63 -1.73916 1.28772 0
M  V30 28892 C 2786.22 0.967352 3.24696 0
M  V30 28893 C 2784.78 0.683316 3.70146 0
M  V30 28894 C 2783.93 1.15737 2.51992 0
M  V30 28895 H 2786.88 1.05779 1.18307 0
M  V30 28896 H 2786.9 0.290996 3.79386 0
M  V30 28897 H 2786.41 2.04689 3.29733 0
M  V30 28898 H 2784.51 -0.38476 3.70608 0
M  V30 28899 H 2784.63 1.26198 4.62181 0
M  V30 28900 H 2782.99 0.577067 2.48077 0
M  V30 28901 H 2783.77 2.24438 2.59774 0
M  V30 28902 N 2786.22 -1.44374 0.631976 0
M  V30 28903 C 2787.5 -1.95483 0.0676803 0
M  V30 28904 C 2787.88 -1.57392 -1.4068 0
M  V30 28905 O 2787.22 -0.848412 -2.12166 0
M  V30 28906 C 2787.43 -3.47781 0.291453 0
M  V30 28907 C 2788.78 -4.24196 0.185102 0
M  V30 28908 O 2789.81 -3.55502 0.222865 0
M  V30 28909 O 2788.66 -5.46425 0.0907602 0
M  V30 28910 H 2785.76 -0.826712 -0.0218234 0
M  V30 28911 H 2788.3 -1.5442 0.703739 0
M  V30 28912 H 2787.08 -3.68558 1.31455 0
M  V30 28913 H 2786.7 -3.95792 -0.378702 0
M  V30 28914 N 2787.7 -0.372575 -1.53133 0
M  V30 28915 C 2788.94 0.214499 -2.00958 0
M  V30 28916 C 2789.27 1.48709 -1.26138 0
M  V30 28917 O 2788.54 1.92245 -0.37663 0
M  V30 28918 H 2787.12 0.0822534 -0.742458 0
M  V30 28919 H 2789.78 -0.500418 -1.88366 0
M  V30 28920 H 2788.87 0.43655 -3.09032 0
M  V30 28921 N 2789.17 1.5727 -0.101929 0
M  V30 28922 C 2790.4 1.9894 0.568357 0
M  V30 28923 C 2790.82 0.981222 1.61299 0
M  V30 28924 O 2790.17 -0.0282548 1.82478 0
M  V30 28925 C 2790.23 3.40651 1.20991 0
M  V30 28926 O 2789.95 4.3761 0.207052 0
M  V30 28927 C 2791.45 3.97362 1.96516 0
M  V30 28928 H 2788.67 0.653592 0.151848 0
M  V30 28929 H 2791.21 2.03677 -0.183233 0
M  V30 28930 H 2789.37 3.36907 1.91239 0
M  V30 28931 H 2789.78 5.2019 0.67098 0
M  V30 28932 H 2791.25 4.98649 2.36755 0
M  V30 28933 H 2791.73 3.35557 2.8337 0
M  V30 28934 H 2792.34 4.046 1.31069 0
M  V30 28935 N 2790.65 -0.171793 1.56661 0
M  V30 28936 C 2791.89 -0.894996 1.83764 0
M  V30 28937 C 2792.26 -1.79449 0.682784 0
M  V30 28938 O 2793.46 -2.55526 0.834253 0
M  V30 28939 C 2791.73 -1.67009 3.15979 0
M  V30 28940 S 2793.29 -2.44212 3.64562 0
M  V30 28941 H 2790.11 -0.299766 0.644718 0
M  V30 28942 H 2792.71 -0.156667 1.94871 0
M  V30 28943 H 2791.41 -1.00032 3.98022 0
M  V30 28944 H 2790.94 -2.44981 3.07812 0
M  V30 28945 H 2792.96 -3.68903 3.31851 0
M  V30 28946 N 2792.13 -1.51324 -0.44033 0
M  V30 28947 C 2793.36 -1.67404 -1.21076 0
M  V30 28948 C 2793.77 -0.369631 -1.85554 0
M  V30 28949 O 2793.11 0.661495 -1.71377 0
M  V30 28950 C 2793.17 -2.7306 -2.33834 0
M  V30 28951 C 2792.84 -4.15746 -1.89748 0
M  V30 28952 C 2793.83 -5.00623 -1.4026 0
M  V30 28953 C 2791.52 -4.6183 -1.97531 0
M  V30 28954 C 2793.51 -6.29643 -0.991363 0
M  V30 28955 C 2791.2 -5.90848 -1.56019 0
M  V30 28956 C 2792.2 -6.74582 -1.06903 0
M  V30 28957 O 2791.89 -8.01188 -0.659793 0
M  V30 28958 H 2791.62 -0.565016 -0.371123 0
M  V30 28959 H 2794.17 -1.98488 -0.528374 0
M  V30 28960 H 2792.4 -2.37285 -3.05341 0
M  V30 28961 H 2794.09 -2.78049 -2.95708 0
M  V30 28962 H 2794.86 -4.66223 -1.33644 0
M  V30 28963 H 2790.74 -3.9678 -2.34706 0
M  V30 28964 H 2794.28 -6.94952 -0.607303 0
M  V30 28965 H 2790.18 -6.24762 -1.62304 0
M  V30 28966 H 2790.95 -8.14718 -0.785909 0
M  V30 28967 N 2793.61 0.695578 -1.41419 0
M  V30 28968 C 2795.02 1.2755 -1.36337 0
M  V30 28969 C 2795.37 1.96145 -0.0464681 0
M  V30 28970 O 2794.5 1.98782 0.855269 0
M  V30 28971 C 2795.09 2.31956 -2.46945 0
M  V30 28972 C 2793.65 2.85524 -2.45261 0
M  V30 28973 C 2792.8 1.59562 -2.26793 0
M  V30 28974 H 2795.75 0.490336 -1.50935 0
M  V30 28975 H 2795.77 3.13246 -2.16003 0
M  V30 28976 H 2795.28 1.82002 -3.42778 0
M  V30 28977 H 2793.38 3.39655 -1.53185 0
M  V30 28978 H 2793.49 3.35955 -3.41571 0
M  V30 28979 H 2791.86 1.85371 -1.7467 0
M  V30 28980 H 2792.64 1.11604 -3.24653 0
M  V30 28981 N 2795.09 1.27247 0.929833 0
M  V30 28982 C 2796.5 1.12205 1.49221 0
M  V30 28983 C 2796.85 -0.293697 1.93989 0
M  V30 28984 O 2795.97 -1.18639 1.8098 0
M  V30 28985 C 2796.57 2.03074 2.71194 0
M  V30 28986 C 2795.13 1.92145 3.23663 0
M  V30 28987 C 2794.28 1.95756 1.96405 0
M  V30 28988 H 2797.23 1.40171 0.744157 0
M  V30 28989 H 2797.25 1.5853 3.45902 0
M  V30 28990 H 2796.76 3.06107 2.3858 0
M  V30 28991 H 2794.86 0.920898 3.6104 0
M  V30 28992 H 2794.97 2.78274 3.90001 0
M  V30 28993 H 2793.34 1.39953 2.12803 0
M  V30 28994 H 2794.12 3.00438 1.66107 0
M  V30 28995 N 2796.57 -1.13603 1.09235 0
M  V30 28996 C 2797.98 -1.66388 0.846868 0
M  V30 28997 C 2798.33 -1.85979 -0.624998 0
M  V30 28998 O 2797.45 -1.57716 -1.48171 0
M  V30 28999 C 2798.05 -3.02247 1.53075 0
M  V30 29000 C 2796.61 -3.52032 1.3323 0
M  V30 29001 C 2795.75 -2.2732 1.5881 0
M  V30 29002 H 2798.7 -0.975519 1.25177 0
M  V30 29003 H 2798.73 -3.68119 0.962735 0
M  V30 29004 H 2798.24 -2.87957 2.60197 0
M  V30 29005 H 2796.34 -3.7153 0.282156 0
M  V30 29006 H 2796.45 -4.32276 2.06578 0
M  V30 29007 H 2794.82 -2.33814 1.01011 0
M  V30 29008 H 2795.6 -2.15597 2.67157 0
M  V30 29009 N 2798.04 -0.879253 -1.30793 0
M  V30 29010 C 2799.45 -0.546124 -1.78534 0
M  V30 29011 C 2799.81 0.937437 -1.72356 0
M  V30 29012 O 2798.93 1.7323 -1.29693 0
M  V30 29013 C 2799.53 -0.984557 -3.24179 0
M  V30 29014 C 2798.08 -0.702936 -3.69778 0
M  V30 29015 C 2797.23 -1.17072 -2.51375 0
M  V30 29016 H 2800.18 -1.06405 -1.17744 0
M  V30 29017 H 2800.2 -0.311112 -3.79226 0
M  V30 29018 H 2799.72 -2.06435 -3.28643 0
M  V30 29019 H 2797.82 0.365101 -3.70807 0
M  V30 29020 H 2797.93 -1.28647 -4.61505 0
M  V30 29021 H 2796.29 -0.590215 -2.47767 0
M  V30 29022 H 2797.08 -2.25813 -2.5858 0
M  V30 29023 N 2799.52 1.44037 -0.639624 0
M  V30 29024 C 2800.77 2.02261 -0.147734 0
M  V30 29025 C 2801.1 1.50258 1.23029 0
M  V30 29026 O 2800.38 0.6901 1.81846 0
M  V30 29027 C 2800.66 3.59813 -0.143683 0
M  V30 29028 C 2800.51 4.22079 -1.55465 0
M  V30 29029 C 2801.83 4.3693 0.52724 0
M  V30 29030 H 2798.95 0.734933 -0.0551582 0
M  V30 29031 H 2801.59 1.71503 -0.817718 0
M  V30 29032 H 2799.74 3.86148 0.42683 0
M  V30 29033 H 2801.41 4.06822 -2.17471 0
M  V30 29034 H 2799.66 3.79249 -2.10601 0
M  V30 29035 H 2800.33 5.31122 -1.50378 0
M  V30 29036 H 2802.8 4.16079 0.0419772 0
M  V30 29037 H 2801.68 5.46624 0.499293 0
M  V30 29038 H 2801.94 4.12168 1.59907 0
M  V30 29039 N 2801 0.380691 1.52933 0
M  V30 29040 C 2802.41 -0.0952356 1.86457 0
M  V30 29041 C 2802.76 -1.46886 1.30073 0
M  V30 29042 O 2801.89 -2.07067 0.628673 0
M  V30 29043 C 2802.48 -0.179589 3.38324 0
M  V30 29044 C 2801.04 -0.599793 3.7159 0
M  V30 29045 C 2800.19 0.243621 2.76228 0
M  V30 29046 H 2803.14 0.598906 1.46965 0
M  V30 29047 H 2803.16 -1.00035 3.67115 0
M  V30 29048 H 2802.67 0.820295 3.79332 0
M  V30 29049 H 2800.77 -1.60736 3.36147 0
M  V30 29050 H 2800.89 -0.363919 4.77716 0
M  V30 29051 H 2799.25 -0.289811 2.53046 0
M  V30 29052 H 2800.03 1.24132 3.20072 0
M  V30 29053 N 2802.48 -1.57214 0.110268 0
M  V30 29054 C 2803.89 -1.57687 -0.246352 0
M  V30 29055 C 2804.09 -1.12244 -1.67343 0
M  V30 29056 O 2803.15 -0.805825 -2.39296 0
M  V30 29057 C 2804.46 -3.00693 -0.020976 0
M  V30 29058 C 2806.01 -3.12878 -0.0875527 0
M  V30 29059 C 2806.49 -4.57868 0.11002 0
M  V30 29060 N 2807.98 -4.63167 0.0556949 0
M  V30 29061 C 2808.71 -5.73106 0.183596 0
M  V30 29062 N 2808.21 -6.91826 0.36718 0
M  V30 29063 N 2810 -5.61964 0.123788 0
M  V30 29064 H 2802.15 -1.85057 1.04249 0
M  V30 29065 H 2804.41 -0.854847 0.409805 0
M  V30 29066 H 2804.12 -3.38195 0.965263 0
M  V30 29067 H 2803.99 -3.69532 -0.756683 0
M  V30 29068 H 2806.38 -2.75239 -1.06431 0
M  V30 29069 H 2806.46 -2.46599 0.679893 0
M  V30 29070 H 2806.11 -4.96204 1.08371 0
M  V30 29071 H 2806.04 -5.22226 -0.677305 0
M  V30 29072 H 2808.53 -3.77809 -0.0830398 0
M  V30 29073 H 2808.84 -7.71454 0.455874 0
M  V30 29074 H 2807.19 -6.9383 0.403042 0
M  V30 29075 H 2810.38 -4.68096 -0.0186105 0
M  V30 29076 H 2810.55 -6.47603 0.226911 0
M  V30 29077 N 2803.96 0.163482 -1.5675 0
M  V30 29078 C 2804.89 1.22702 -1.9359 0
M  V30 29079 C 2805.9 1.40062 -0.829849 0
M  V30 29080 O 2807.09 1.39926 -1.10829 0
M  V30 29081 C 2804.19 2.5945 -2.18034 0
M  V30 29082 C 2803.36 2.63285 -3.49284 0
M  V30 29083 C 2802.42 3.81453 -3.62464 0
M  V30 29084 O 2801.45 3.67089 -4.35011 0
M  V30 29085 N 2802.65 4.98235 -2.97897 0
M  V30 29086 H 2805.41 0.914031 -2.85422 0
M  V30 29087 H 2802.98 0.353186 -1.58001 0
M  V30 29088 H 2804.97 3.36983 -2.24108 0
M  V30 29089 H 2803.54 2.83107 -1.32548 0
M  V30 29090 H 2802.76 1.7179 -3.54798 0
M  V30 29091 H 2804.05 2.62865 -4.35637 0
M  V30 29092 H 2803.44 5.12807 -2.38842 0
M  V30 29093 H 2802 5.73602 -3.09555 0
M  V30 29094 N 2805.43 1.51555 0.432299 0
M  V30 29095 C 2806.4 1.72636 1.50762 0
M  V30 29096 C 2807.4 0.59634 1.49333 0
M  V30 29097 O 2808.59 0.863952 1.51266 0
M  V30 29098 C 2805.72 1.78746 2.90281 0
M  V30 29099 H 2806.91 2.68611 1.33372 0
M  V30 29100 H 2804.46 1.41621 0.661304 0
M  V30 29101 H 2805.2 0.846032 3.1307 0
M  V30 29102 H 2804.98 2.60875 2.92723 0
M  V30 29103 H 2806.47 1.96877 3.68279 0
M  V30 29104 N 2806.91 -0.688069 1.41786 0
M  V30 29105 C 2808.14 -1.48172 1.4512 0
M  V30 29106 C 2808.56 -1.88004 0.0601621 0
M  V30 29107 O 2807.92 -1.55128 -0.938357 0
M  V30 29108 C 2807.97 -2.71579 2.37229 0
M  V30 29109 O 2807.07 -3.69351 1.8345 0
M  V30 29110 H 2806.41 -0.445667 0.492216 0
M  V30 29111 H 2808.94 -0.845112 1.8633 0
M  V30 29112 H 2808.95 -3.19802 2.53359 0
M  V30 29113 H 2807.63 -2.41926 3.38297 0
M  V30 29114 H 2806.2 -3.28319 1.76808 0
M  V30 29115 N 2808.39 -1.27739 -0.923072 0
M  V30 29116 C 2809.8 -1.12995 -1.48624 0
M  V30 29117 C 2810.15 0.283405 -1.94142 0
M  V30 29118 O 2809.28 1.17678 -1.81607 0
M  V30 29119 C 2809.87 -2.0451 -2.70113 0
M  V30 29120 C 2808.43 -1.93858 -3.22639 0
M  V30 29121 C 2807.58 -1.96795 -1.95364 0
M  V30 29122 H 2810.53 -1.40564 -0.736712 0
M  V30 29123 H 2810.55 -1.60362 -3.45057 0
M  V30 29124 H 2810.06 -3.07368 -2.36953 0
M  V30 29125 H 2808.16 -0.940032 -3.60547 0
M  V30 29126 H 2808.28 -2.80338 -3.8852 0
M  V30 29127 H 2806.64 -1.41079 -2.12058 0
M  V30 29128 H 2807.42 -3.01315 -1.64512 0
M  V30 29129 N 2809.87 1.13022 -1.09836 0
M  V30 29130 C 2810.8 2.18268 -0.699417 0
M  V30 29131 C 2811.81 1.60697 0.260813 0
M  V30 29132 O 2813 1.7844 0.0462224 0
M  V30 29133 C 2810.1 3.38898 -0.0105133 0
M  V30 29134 C 2809.28 4.25971 -0.99335 0
M  V30 29135 C 2808.33 5.25119 -0.337075 0
M  V30 29136 O 2807.36 5.60595 -0.985991 0
M  V30 29137 N 2808.56 5.7337 0.90706 0
M  V30 29138 H 2811.33 2.53107 -1.6049 0
M  V30 29139 H 2808.89 1.28384 -0.98636 0
M  V30 29140 H 2810.88 4.02303 0.439839 0
M  V30 29141 H 2809.45 3.02262 0.797281 0
M  V30 29142 H 2808.67 3.59277 -1.62214 0
M  V30 29143 H 2809.96 4.80999 -1.65885 0
M  V30 29144 H 2809.36 5.46702 1.45375 0
M  V30 29145 H 2807.91 6.38691 1.30066 0
M  V30 29146 N 2811.35 0.886177 1.30325 0
M  V30 29147 C 2812.29 0.343357 2.30052 0
M  V30 29148 C 2813.29 -0.550277 1.60213 0
M  V30 29149 O 2814.49 -0.434578 1.74675 0
M  V30 29150 H 2810.87 0.0923813 0.746304 0
M  V30 29151 H 2812.84 1.19809 2.73292 0
M  V30 29152 C 2811.59 -0.426046 3.4508 0
M  V30 29153 H 2810.91 0.25234 3.99003 0
M  V30 29154 H 2812.35 -0.770936 4.16932 0
M  V30 29155 C 2810.81 -1.62358 2.95197 0
M  V30 29156 O 2811.34 -2.72294 2.95328 0
M  V30 29157 N 2809.55 -1.46115 2.51194 0
M  V30 29158 H 2809.09 -0.566788 2.51287 0
M  V30 29159 H 2809.05 -2.26377 2.18177 0
M  V30 29160 N 2812.82 -1.43695 0.647253 0
M  V30 29161 C 2813.75 -2.33474 -0.0345221 0
M  V30 29162 C 2814.74 -1.49131 -0.818166 0
M  V30 29163 O 2815.92 -1.77811 -0.780835 0
M  V30 29164 C 2813.05 -3.3242 -1.0057 0
M  V30 29165 C 2812 -4.26706 -0.332585 0
M  V30 29166 C 2811.33 -5.15643 -1.4148 0
M  V30 29167 C 2812.63 -5.16574 0.771295 0
M  V30 29168 H 2814.32 -2.90732 0.715214 0
M  V30 29169 H 2811.87 -1.39797 0.345389 0
M  V30 29170 H 2813.82 -3.94121 -1.49152 0
M  V30 29171 H 2812.55 -2.73406 -1.78653 0
M  V30 29172 H 2811.21 -3.6636 0.132735 0
M  V30 29173 H 2810.85 -4.52972 -2.1869 0
M  V30 29174 H 2810.55 -5.79543 -0.969697 0
M  V30 29175 H 2812.08 -5.80218 -1.9021 0
M  V30 29176 H 2813.49 -5.72118 0.367891 0
M  V30 29177 H 2811.89 -5.89163 1.1405 0
M  V30 29178 H 2812.96 -4.5662 1.63177 0
M  V30 29179 N 2814.3 -0.388796 -1.52729 0
M  V30 29180 C 2815.55 0.193173 -2.01175 0
M  V30 29181 C 2815.87 1.47362 -1.27708 0
M  V30 29182 O 2815.14 1.91835 -0.396999 0
M  V30 29183 H 2813.72 0.074374 -0.743288 0
M  V30 29184 H 2816.38 -0.520369 -1.87825 0
M  V30 29185 H 2815.48 0.403749 -3.09477 0
M  V30 29186 N 2815.78 1.57153 -0.118604 0
M  V30 29187 C 2817.01 1.99532 0.547225 0
M  V30 29188 C 2817.42 0.998275 1.6025 0
M  V30 29189 O 2816.78 -0.00889898 1.82498 0
M  V30 29190 C 2816.83 3.41915 1.17372 0
M  V30 29191 O 2816.55 4.37805 0.160626 0
M  V30 29192 C 2818.05 3.99424 1.9229 0
M  V30 29193 H 2815.27 0.655166 0.144908 0
M  V30 29194 H 2817.82 2.03472 -0.204826 0
M  V30 29195 H 2815.97 3.38916 1.87655 0
M  V30 29196 H 2816.39 5.20873 0.615769 0
M  V30 29197 H 2817.86 5.01132 2.31453 0
M  V30 29198 H 2818.34 3.38543 2.79795 0
M  V30 29199 H 2818.94 4.05967 1.2677 0
M  V30 29200 N 2817.26 -0.155167 1.56834 0
M  V30 29201 C 2818.67 -0.716052 1.72423 0
M  V30 29202 C 2819.02 -1.82045 0.731717 0
M  V30 29203 O 2818.15 -2.16153 -0.103443 0
M  V30 29204 C 2818.74 -1.30566 3.12631 0
M  V30 29205 C 2817.3 -1.81319 3.29849 0
M  V30 29206 C 2816.45 -0.698447 2.6836 0
M  V30 29207 H 2819.4 0.070414 1.58544 0
M  V30 29208 H 2819.42 -2.17544 3.12177 0
M  V30 29209 H 2818.93 -0.501633 3.84844 0
M  V30 29210 H 2817.03 -2.64314 2.62619 0
M  V30 29211 H 2817.14 -1.94752 4.37731 0
M  V30 29212 H 2815.51 -1.12301 2.28606 0
M  V30 29213 H 2816.29 0.0939969 3.43171 0
M  V30 29214 N 2818.74 -1.51782 -0.424256 0
M  V30 29215 C 2819.98 -1.64771 -1.17025 0
M  V30 29216 C 2820.31 -0.372557 -1.91408 0
M  V30 29217 O 2819.58 0.612076 -1.86093 0
M  V30 29218 H 2818.16 -0.607289 -0.434981 0
M  V30 29219 H 2820.82 -1.88766 -0.485135 0
M  V30 29220 H 2819.91 -2.48163 -1.89266 0
M  V30 29221 N 2820.21 0.68054 -1.42149 0
M  V30 29222 C 2821.14 1.80636 -1.47963 0
M  V30 29223 C 2822.13 1.66733 -0.336757 0
M  V30 29224 O 2823.31 1.86241 -0.550279 0
M  V30 29225 C 2820.44 3.1889 -1.37574 0
M  V30 29226 C 2819.39 3.47519 -2.49829 0
M  V30 29227 C 2818.72 4.85287 -2.245 0
M  V30 29228 C 2820.02 3.44987 -3.9215 0
M  V30 29229 H 2821.71 1.76028 -2.42187 0
M  V30 29230 H 2819.26 0.845461 -1.16567 0
M  V30 29231 H 2821.21 3.97376 -1.4025 0
M  V30 29232 H 2819.94 3.24161 -0.398413 0
M  V30 29233 H 2818.6 2.71391 -2.4646 0
M  V30 29234 H 2818.24 4.87202 -1.25074 0
M  V30 29235 H 2817.94 5.05406 -2.99731 0
M  V30 29236 H 2819.47 5.66065 -2.28916 0
M  V30 29237 H 2820.88 4.13452 -3.97153 0
M  V30 29238 H 2819.28 3.7664 -4.67186 0
M  V30 29239 H 2820.35 2.43669 -4.1923 0
M  V30 29240 N 2821.69 1.28226 0.916285 0
M  V30 29241 C 2822.62 1.14468 2.03518 0
M  V30 29242 C 2823.6 0.0431143 1.70045 0
M  V30 29243 O 2824.79 0.219653 1.92954 0
M  V30 29244 C 2821.92 0.803087 3.37887 0
M  V30 29245 C 2820.87 1.85914 3.85512 0
M  V30 29246 C 2820.2 1.37125 5.16818 0
M  V30 29247 C 2821.5 3.26526 4.07649 0
M  V30 29248 H 2823.19 2.08068 2.15286 0
M  V30 29249 H 2820.74 1.00176 1.03444 0
M  V30 29250 H 2822.69 0.693611 4.15653 0
M  V30 29251 H 2821.42 -0.168617 3.26164 0
M  V30 29252 H 2820.07 1.95772 3.0995 0
M  V30 29253 H 2819.72 0.388678 5.01496 0
M  V30 29254 H 2819.42 2.07738 5.49653 0
M  V30 29255 H 2820.95 1.27494 5.97141 0
M  V30 29256 H 2822.36 3.19604 4.75948 0
M  V30 29257 H 2820.76 3.94951 4.51811 0
M  V30 29258 H 2821.83 3.70732 3.12547 0
M  V30 29259 N 2823.17 -1.12438 1.10433 0
M  V30 29260 C 2824.12 -2.16253 0.722416 0
M  V30 29261 C 2825.1 -1.58646 -0.268399 0
M  V30 29262 O 2826.3 -1.76832 -0.0771379 0
M  V30 29263 C 2823.43 -3.42946 0.155823 0
M  V30 29264 C 2822.51 -4.07536 1.17368 0
M  V30 29265 N 2822.9 -4.47137 2.36437 0
M  V30 29266 C 2821.2 -4.34316 1.0142 0
M  V30 29267 C 2821.9 -4.97607 3.01268 0
M  V30 29268 N 2820.88 -4.93111 2.28786 0
M  V30 29269 H 2824.68 -2.44637 1.6288 0
M  V30 29270 H 2822.19 -1.29342 0.982054 0
M  V30 29271 H 2824.19 -4.16679 -0.135863 0
M  V30 29272 H 2822.85 -3.16031 -0.745283 0
M  V30 29273 H 2823.86 -4.39506 2.73962 0
M  V30 29274 H 2820.54 -4.17159 0.168647 0
M  V30 29275 H 2821.93 -5.37961 4.02551 0
M  V30 29276 N 2824.65 -0.893076 -1.29853 0
M  V30 29277 C 2826.06 -0.56503 -1.77945 0
M  V30 29278 C 2826.41 0.919104 -1.7334 0
M  V30 29279 O 2825.54 1.71845 -1.31523 0
M  V30 29280 C 2826.13 -1.01889 -3.23116 0
M  V30 29281 C 2824.69 -0.742116 -3.69012 0
M  V30 29282 C 2823.84 -1.19732 -2.50119 0
M  V30 29283 H 2826.79 -1.07648 -1.16609 0
M  V30 29284 H 2826.81 -0.351316 -3.78875 0
M  V30 29285 H 2826.32 -2.09909 -3.26435 0
M  V30 29286 H 2824.42 0.325751 -3.71173 0
M  V30 29287 H 2824.54 -1.33535 -4.60114 0
M  V30 29288 H 2822.9 -0.616461 -2.47127 0
M  V30 29289 H 2823.68 -2.28543 -2.5617 0
M  V30 29290 N 2826.13 1.4335 -0.654865 0
M  V30 29291 C 2827.06 2.29079 0.0744354 0
M  V30 29292 C 2828.07 1.42598 0.785475 0
M  V30 29293 O 2829.26 1.66518 0.642956 0
M  V30 29294 C 2826.36 3.19558 1.12853 0
M  V30 29295 C 2825.53 4.34587 0.495305 0
M  V30 29296 C 2824.59 5.05928 1.4465 0
M  V30 29297 O 2823.62 5.6114 0.954468 0
M  V30 29298 N 2824.82 5.09581 2.78043 0
M  V30 29299 H 2827.59 2.92311 -0.661397 0
M  V30 29300 H 2825.15 1.54058 -0.497771 0
M  V30 29301 H 2827.14 3.6415 1.7657 0
M  V30 29302 H 2825.71 2.57915 1.76632 0
M  V30 29303 H 2824.93 3.92891 -0.320989 0
M  V30 29304 H 2826.22 5.08772 0.0533309 0
M  V30 29305 H 2825.62 4.66098 3.20576 0
M  V30 29306 H 2824.17 5.57884 3.37058 0
M  V30 29307 N 2827.61 0.39689 1.52521 0
M  V30 29308 C 2828.83 -0.182714 2.06092 0
M  V30 29309 C 2829.25 -1.39884 1.26799 0
M  V30 29310 O 2828.61 -1.79733 0.316616 0
M  V30 29311 C 2828.66 -0.545314 3.57363 0
M  V30 29312 O 2828.38 0.622505 4.33655 0
M  V30 29313 C 2829.88 -1.17997 4.27307 0
M  V30 29314 H 2827.1 -0.0257772 0.670505 0
M  V30 29315 H 2829.64 0.564311 1.9656 0
M  V30 29316 H 2827.8 -1.24223 3.66943 0
M  V30 29317 H 2828.21 0.322754 5.23506 0
M  V30 29318 H 2829.69 -1.38398 5.34369 0
M  V30 29319 H 2830.16 -2.14954 3.83003 0
M  V30 29320 H 2830.77 -0.523597 4.22065 0
M  V30 29321 N 2829.08 -1.57088 0.126936 0
M  V30 29322 C 2830.31 -2.00249 -0.539935 0
M  V30 29323 C 2830.73 -1.00621 -1.58925 0
M  V30 29324 O 2830.09 0.0209812 -1.81288 0
M  V30 29325 C 2830.14 -3.42252 -1.13559 0
M  V30 29326 O 2829.24 -3.45551 -2.25097 0
M  V30 29327 H 2828.58 -0.650316 -0.134108 0
M  V30 29328 H 2831.11 -2.03438 0.217753 0
M  V30 29329 H 2831.12 -3.8063 -1.46919 0
M  V30 29330 H 2829.8 -4.14277 -0.367049 0
M  V30 29331 H 2828.38 -3.18999 -1.93117 0
M  V30 29332 N 2830.56 0.146848 -1.56914 0
M  V30 29333 C 2831.97 0.706897 -1.728 0
M  V30 29334 C 2832.32 1.81654 -0.741361 0
M  V30 29335 O 2831.45 2.16204 0.0919782 0
M  V30 29336 C 2832.04 1.28906 -3.13319 0
M  V30 29337 C 2830.6 1.79568 -3.30806 0
M  V30 29338 C 2829.75 0.684205 -2.68726 0
M  V30 29339 H 2832.7 -0.078821 -1.58504 0
M  V30 29340 H 2832.72 2.15886 -3.13327 0
M  V30 29341 H 2832.23 0.481217 -3.85105 0
M  V30 29342 H 2830.33 2.62918 -2.64017 0
M  V30 29343 H 2830.45 1.92428 -4.38757 0
M  V30 29344 H 2828.81 1.11087 -2.29198 0
M  V30 29345 H 2829.59 -0.112195 -3.43117 0
M  V30 29346 N 2832.04 1.52005 0.4162 0
M  V30 29347 C 2832.97 1.77797 1.51362 0
M  V30 29348 C 2833.95 0.628628 1.58058 0
M  V30 29349 O 2835.14 0.873509 1.73446 0
M  V30 29350 C 2832.27 1.92224 2.89253 0
M  V30 29351 C 2831.22 3.07785 2.9741 0
M  V30 29352 C 2830.55 3.07424 4.37486 0
M  V30 29353 C 2831.85 4.47374 2.69543 0
M  V30 29354 H 2833.54 2.69691 1.30028 0
M  V30 29355 H 2831.09 1.29773 0.624089 0
M  V30 29356 H 2833.04 2.08851 3.66004 0
M  V30 29357 H 2831.76 0.969972 3.11864 0
M  V30 29358 H 2830.42 2.90897 2.23102 0
M  V30 29359 H 2830.07 2.09933 4.57097 0
M  V30 29360 H 2829.77 3.85037 4.4387 0
M  V30 29361 H 2831.29 3.26171 5.16183 0
M  V30 29362 H 2832.71 4.64503 3.3602 0
M  V30 29363 H 2831.1 5.26851 2.87312 0
M  V30 29364 H 2832.17 4.55956 1.65021 0
M  V30 29365 N 2833.52 -0.672992 1.42508 0
M  V30 29366 C 2834.45 -1.79848 1.48919 0
M  V30 29367 C 2835.43 -1.66552 0.345595 0
M  V30 29368 O 2836.61 -1.85946 0.560148 0
M  V30 29369 C 2833.74 -3.18156 1.39263 0
M  V30 29370 C 2832.7 -3.46189 2.51668 0
M  V30 29371 C 2832.02 -4.8409 2.2707 0
M  V30 29372 C 2833.32 -3.42902 3.93974 0
M  V30 29373 H 2835.02 -1.74741 2.43117 0
M  V30 29374 H 2832.56 -0.839267 1.17014 0
M  V30 29375 H 2834.52 -3.96627 1.42356 0
M  V30 29376 H 2833.24 -3.23945 0.415599 0
M  V30 29377 H 2831.9 -2.7008 2.47896 0
M  V30 29378 H 2831.55 -4.86532 1.27656 0
M  V30 29379 H 2831.25 -5.03809 3.02407 0
M  V30 29380 H 2832.77 -5.64843 2.31915 0
M  V30 29381 H 2834.19 -4.1134 3.9934 0
M  V30 29382 H 2832.58 -3.74157 4.69176 0
M  V30 29383 H 2833.65 -2.41442 4.20516 0
M  V30 29384 N 2835 -1.2871 -0.909472 0
M  V30 29385 C 2835.95 -1.0964 -1.99908 0
M  V30 29386 C 2836.93 -0.0187483 -1.60889 0
M  V30 29387 O 2838.12 -0.239369 -1.75374 0
M  V30 29388 C 2835.25 -0.764761 -3.34673 0
M  V30 29389 C 2834.34 -1.88146 -3.80081 0
M  V30 29390 N 2834.73 -3.12368 -3.97819 0
M  V30 29391 C 2833.03 -1.77228 -4.09275 0
M  V30 29392 C 2833.73 -3.85159 -4.35922 0
M  V30 29393 N 2832.7 -3.13036 -4.4442 0
M  V30 29394 H 2836.5 -2.03887 -2.11678 0
M  V30 29395 H 2834.02 -1.19692 -1.09761 0
M  V30 29396 H 2836.02 -0.609205 -4.12425 0
M  V30 29397 H 2834.68 0.169895 -3.24255 0
M  V30 29398 H 2835.69 -3.47931 -3.8362 0
M  V30 29399 H 2832.36 -0.909692 -4.07469 0
M  V30 29400 H 2833.75 -4.92014 -4.57572 0
M  V30 29401 N 2836.47 1.1185 -1.11028 0
M  V30 29402 C 2837.7 1.87847 -0.879097 0
M  V30 29403 C 2838.12 1.79402 0.565374 0
M  V30 29404 O 2837.48 1.15335 1.39884 0
M  V30 29405 C 2837.53 3.34782 -1.33991 0
M  V30 29406 O 2836.63 4.09248 -0.508875 0
M  V30 29407 H 2835.97 0.583443 -0.317003 0
M  V30 29408 H 2838.5 1.41411 -1.47866 0
M  V30 29409 H 2838.51 3.85626 -1.33255 0
M  V30 29410 H 2837.19 3.40245 -2.39178 0
M  V30 29411 H 2835.77 3.68331 -0.581978 0
M  V30 29412 N 2837.95 0.89995 1.29378 0
M  V30 29413 C 2838.88 0.3945 2.30143 0
M  V30 29414 C 2839.86 -0.530611 1.61612 0
M  V30 29415 O 2841.05 -0.441286 1.8912 0
M  V30 29416 C 2838.18 -0.378619 3.4523 0
M  V30 29417 C 2837.13 0.456087 4.25563 0
M  V30 29418 C 2836.46 -0.444544 5.32849 0
M  V30 29419 C 2837.76 1.70613 4.93648 0
M  V30 29420 H 2839.45 1.23657 2.7267 0
M  V30 29421 H 2837 0.596057 1.31085 0
M  V30 29422 H 2838.95 -0.742964 4.14799 0
M  V30 29423 H 2837.67 -1.25448 3.01547 0
M  V30 29424 H 2836.33 0.802767 3.57703 0
M  V30 29425 H 2835.98 -1.31854 4.85411 0
M  V30 29426 H 2835.68 0.110257 5.87497 0
M  V30 29427 H 2837.21 -0.805076 6.05269 0
M  V30 29428 H 2838.62 1.41151 5.55652 0
M  V30 29429 H 2837.02 2.20227 5.58229 0
M  V30 29430 H 2838.09 2.44197 4.18922 0
M  V30 29431 N 2839.43 -1.43001 0.662458 0
M  V30 29432 C 2840.68 -2.02001 0.179893 0
M  V30 29433 C 2841.01 -1.52197 -1.20623 0
M  V30 29434 O 2840.28 -0.718943 -1.80725 0
M  V30 29435 C 2840.57 -3.59539 0.200908 0
M  V30 29436 C 2840.42 -4.19552 1.6216 0
M  V30 29437 C 2841.74 -4.37714 -0.457661 0
M  V30 29438 H 2838.86 -0.733963 0.0668434 0
M  V30 29439 H 2841.5 -1.70181 0.8449 0
M  V30 29440 H 2839.65 -3.86778 -0.365343 0
M  V30 29441 H 2841.32 -4.03311 2.23915 0
M  V30 29442 H 2839.57 -3.7585 2.16608 0
M  V30 29443 H 2840.24 -5.28662 1.58809 0
M  V30 29444 H 2842.71 -4.16093 0.0242226 0
M  V30 29445 H 2841.59 -5.4735 -0.412267 0
M  V30 29446 H 2841.85 -4.1466 -1.53329 0
M  V30 29447 N 2840.91 -0.404973 -1.52308 0
M  V30 29448 C 2842.16 0.171824 -2.01368 0
M  V30 29449 C 2842.48 1.46 -1.29264 0
M  V30 29450 O 2841.75 1.91403 -0.417324 0
M  V30 29451 H 2840.33 0.0664863 -0.744035 0
M  V30 29452 H 2842.99 -0.540261 -1.87262 0
M  V30 29453 H 2842.09 0.370902 -3.09888 0
M  V30 29454 N 2842.39 1.57018 -0.135265 0
M  V30 29455 C 2843.32 2.13267 0.839637 0
M  V30 29456 C 2844.33 1.07926 1.21885 0
M  V30 29457 O 2845.52 1.35243 1.16497 0
M  V30 29458 C 2842.62 2.63079 2.13642 0
M  V30 29459 C 2841.79 3.92694 1.9264 0
M  V30 29460 C 2840.85 4.27937 3.06197 0
M  V30 29461 O 2839.88 4.9647 2.784 0
M  V30 29462 N 2841.08 3.86568 4.33065 0
M  V30 29463 H 2843.85 2.97542 0.358974 0
M  V30 29464 H 2841.41 1.61827 0.0486695 0
M  V30 29465 H 2843.4 2.83675 2.88636 0
M  V30 29466 H 2841.97 1.83593 2.53007 0
M  V30 29467 H 2841.19 3.80843 1.01747 0
M  V30 29468 H 2842.48 4.77416 1.75931 0
M  V30 29469 H 2841.87 3.31325 4.5852 0
M  V30 29470 H 2840.43 4.1224 5.04878 0
M  V30 29471 N 2843.86 -0.138524 1.5699 0
M  V30 29472 C 2844.81 -1.17616 1.95322 0
M  V30 29473 C 2845.8 -1.38106 0.82557 0
M  V30 29474 O 2846.99 -1.39526 1.08911 0
M  V30 29475 C 2844.12 -2.5077 2.34455 0
M  V30 29476 C 2843.21 -2.33837 3.53809 0
M  V30 29477 N 2843.6 -1.86676 4.70091 0
M  V30 29478 C 2841.89 -2.64561 3.59059 0
M  V30 29479 C 2842.6 -1.82989 5.52168 0
M  V30 29480 N 2841.57 -2.26616 4.94112 0
M  V30 29481 H 2845.37 -0.803759 2.82696 0
M  V30 29482 H 2842.89 -0.346492 1.58661 0
M  V30 29483 H 2844.88 -3.25793 2.60125 0
M  V30 29484 H 2843.54 -2.88785 1.48436 0
M  V30 29485 H 2844.56 -1.56514 4.93684 0
M  V30 29486 H 2841.23 -3.06393 2.83601 0
M  V30 29487 H 2842.62 -1.47946 6.5541 0
M  V30 29488 N 2845.34 -1.52224 -0.408133 0
M  V30 29489 C 2846.59 -1.65559 -1.15209 0
M  V30 29490 C 2846.9 -0.39213 -1.91629 0
M  V30 29491 O 2848.11 -0.405303 -2.68458 0
M  V30 29492 C 2846.57 -2.92506 -2.09686 0
M  V30 29493 C 2846.17 -4.25963 -1.38778 0
M  V30 29494 C 2847.92 -3.15205 -2.84334 0
M  V30 29495 C 2845.83 -5.44033 -2.3191 0
M  V30 29496 H 2844.76 -0.616736 -0.433765 0
M  V30 29497 H 2847.41 -1.78711 -0.416468 0
M  V30 29498 H 2845.79 -2.73055 -2.86805 0
M  V30 29499 H 2846.96 -4.55901 -0.670168 0
M  V30 29500 H 2845.28 -4.09375 -0.761669 0
M  V30 29501 H 2847.87 -4.00594 -3.54159 0
M  V30 29502 H 2848.22 -2.29479 -3.4734 0
M  V30 29503 H 2848.75 -3.35133 -2.14315 0
M  V30 29504 H 2845.49 -6.32108 -1.73549 0
M  V30 29505 H 2845.01 -5.18433 -3.01641 0
M  V30 29506 H 2846.69 -5.77151 -2.92413 0
M  V30 29507 N 2846.82 0.665425 -1.42863 0
M  V30 29508 C 2847.75 1.79056 -1.4987 0
M  V30 29509 C 2848.73 1.66367 -0.354423 0
M  V30 29510 O 2849.92 1.85646 -0.570002 0
M  V30 29511 C 2847.05 3.17413 -1.40949 0
M  V30 29512 C 2846 3.4485 -2.53501 0
M  V30 29513 C 2845.33 4.82879 -2.29634 0
M  V30 29514 C 2846.63 3.40808 -3.95787 0
M  V30 29515 H 2848.32 1.73449 -2.44041 0
M  V30 29516 H 2845.87 0.83305 -1.17458 0
M  V30 29517 H 2847.82 3.95866 -1.44457 0
M  V30 29518 H 2846.54 3.2372 -0.432773 0
M  V30 29519 H 2845.2 2.68761 -2.49325 0
M  V30 29520 H 2844.85 4.85848 -1.30235 0
M  V30 29521 H 2844.55 5.02199 -3.05074 0
M  V30 29522 H 2846.07 5.63605 -2.34907 0
M  V30 29523 H 2847.49 4.09217 -4.01515 0
M  V30 29524 H 2845.89 3.71664 -4.71154 0
M  V30 29525 H 2846.96 2.39209 -4.21791 0
M  V30 29526 N 2848.3 1.29191 0.902633 0
M  V30 29527 C 2849.52 1.19992 1.69164 0
M  V30 29528 C 2849.95 -0.236462 1.86608 0
M  V30 29529 O 2849.31 -1.1708 1.38427 0
M  V30 29530 C 2849.35 1.91532 3.05529 0
M  V30 29531 O 2848.46 1.23036 3.93619 0
M  V30 29532 H 2847.8 0.415945 0.517577 0
M  V30 29533 H 2850.33 1.70708 1.12782 0
M  V30 29534 H 2850.34 1.99872 3.5569 0
M  V30 29535 H 2849.01 2.96008 2.92151 0
M  V30 29536 H 2847.59 1.22935 3.52053 0
M  V30 29537 N 2849.78 -1.1126 1.1162 0
M  V30 29538 C 2851.02 -1.83309 0.867495 0
M  V30 29539 C 2851.36 -1.84525 -0.605333 0
M  V30 29540 O 2850.63 -1.29968 -1.44702 0
M  V30 29541 C 2850.91 -3.30397 1.43213 0
M  V30 29542 C 2850.77 -3.37565 2.97271 0
M  V30 29543 C 2852.09 -4.26526 1.08461 0
M  V30 29544 H 2849.2 -0.665537 0.31659 0
M  V30 29545 H 2851.85 -1.30452 1.38139 0
M  V30 29546 H 2850 -3.75541 0.995048 0
M  V30 29547 H 2851.67 -3.00965 3.49596 0
M  V30 29548 H 2849.91 -2.77727 3.33242 0
M  V30 29549 H 2850.58 -4.41099 3.31867 0
M  V30 29550 H 2853.06 -3.89571 1.46196 0
M  V30 29551 H 2851.93 -5.27824 1.50643 0
M  V30 29552 H 2852.2 -4.421 -0.00436797 0
M  V30 29553 N 2851.25 -0.906798 -1.28899 0
M  V30 29554 C 2852.19 -0.347199 -2.26555 0
M  V30 29555 C 2853.2 0.510463 -1.5459 0
M  V30 29556 O 2854.39 0.32647 -1.75489 0
M  V30 29557 C 2851.49 0.522965 -3.34841 0
M  V30 29558 C 2850.66 -0.310591 -4.36296 0
M  V30 29559 C 2849.72 0.493542 -5.2388 0
M  V30 29560 O 2848.75 -0.0914569 -5.69127 0
M  V30 29561 N 2849.95 1.79811 -5.5195 0
M  V30 29562 H 2852.71 -1.18657 -2.7521 0
M  V30 29563 H 2850.27 -0.772021 -1.42308 0
M  V30 29564 H 2852.27 1.06749 -3.90367 0
M  V30 29565 H 2850.84 1.26304 -2.85948 0
M  V30 29566 H 2850.06 -1.03651 -3.80329 0
M  V30 29567 H 2851.34 -0.881194 -5.01111 0
M  V30 29568 H 2850.74 2.29601 -5.1701 0
M  V30 29569 H 2849.3 2.28961 -6.10263 0
M  V30 29570 N 2852.73 1.42648 -0.670032 0
M  V30 29571 C 2853.66 2.29145 0.0501343 0
M  V30 29572 C 2854.68 1.43423 0.770306 0
M  V30 29573 O 2855.87 1.67191 0.625259 0
M  V30 29574 C 2852.97 3.20737 1.09458 0
M  V30 29575 C 2852.14 4.35087 0.449183 0
M  V30 29576 C 2851.2 5.07433 1.39276 0
M  V30 29577 O 2850.22 5.62121 0.894898 0
M  V30 29578 N 2851.43 5.12501 2.72622 0
M  V30 29579 H 2854.19 2.91593 -0.692363 0
M  V30 29580 H 2851.75 1.53521 -0.514083 0
M  V30 29581 H 2853.74 3.66002 1.72698 0
M  V30 29582 H 2852.31 2.59774 1.73886 0
M  V30 29583 H 2851.53 3.92528 -0.362642 0
M  V30 29584 H 2852.82 5.088 -0.00063421 0
M  V30 29585 H 2852.22 4.69472 3.15614 0
M  V30 29586 H 2850.78 5.61428 3.31122 0
M  V30 29587 N 2854.21 0.413044 1.52091 0
M  V30 29588 C 2855.46 -0.161462 2.01855 0
M  V30 29589 C 2855.79 -1.4481 1.29848 0
M  V30 29590 O 2855.04 -1.91682 0.394505 0
M  V30 29591 C 2855.34 -0.452037 3.5453 0
M  V30 29592 C 2855.01 0.745866 4.44688 0
M  V30 29593 C 2853.67 1.07444 4.69051 0
M  V30 29594 C 2856.02 1.54613 4.97739 0
M  V30 29595 C 2853.35 2.20439 5.43713 0
M  V30 29596 C 2855.7 2.66688 5.73638 0
M  V30 29597 C 2854.36 3.00027 5.96272 0
M  V30 29598 H 2853.63 -0.0590831 0.738641 0
M  V30 29599 H 2856.28 0.555266 1.83273 0
M  V30 29600 H 2854.59 -1.25038 3.71312 0
M  V30 29601 H 2856.28 -0.909578 3.90548 0
M  V30 29602 H 2852.87 0.4798 4.25906 0
M  V30 29603 H 2857.06 1.30551 4.78822 0
M  V30 29604 H 2852.31 2.46612 5.59457 0
M  V30 29605 H 2856.49 3.29083 6.1374 0
M  V30 29606 H 2854.11 3.877 6.53906 0
M  V30 29607 N 2855.69 -1.56945 0.143591 0
M  V30 29608 C 2856.92 -2.00377 -0.515412 0
M  V30 29609 C 2857.33 -1.02364 -1.58641 0
M  V30 29610 O 2856.69 -0.020136 -1.82489 0
M  V30 29611 C 2856.74 -3.43739 -1.11917 0
M  V30 29612 O 2856.46 -4.38006 -0.0909548 0
M  V30 29613 C 2857.96 -4.02432 -1.85911 0
M  V30 29614 H 2855.18 -0.657389 -0.134466 0
M  V30 29615 H 2857.73 -2.0312 0.23717 0
M  V30 29616 H 2855.88 -3.41859 -1.82239 0
M  V30 29617 H 2856.3 -5.21787 -0.532825 0
M  V30 29618 H 2857.77 -5.04751 -2.23451 0
M  V30 29619 H 2858.25 -3.42952 -2.74374 0
M  V30 29620 H 2858.85 -4.07933 -1.20296 0
M  V30 29621 N 2857.17 0.130197 -1.57061 0
M  V30 29622 C 2858.11 1.16021 -1.99519 0
M  V30 29623 C 2859.08 1.4177 -0.865477 0
M  V30 29624 O 2860.27 1.53824 -1.12885 0
M  V30 29625 C 2857.41 2.48449 -2.39514 0
M  V30 29626 C 2856.52 2.29731 -3.65852 0
M  V30 29627 C 2855.66 3.55311 -3.94876 0
M  V30 29628 C 2854.7 3.31702 -5.14432 0
M  V30 29629 N 2853.83 4.49456 -5.39383 0
M  V30 29630 H 2858.67 0.791144 -2.87306 0
M  V30 29631 H 2856.21 0.37917 -1.42129 0
M  V30 29632 H 2858.17 3.25687 -2.60736 0
M  V30 29633 H 2856.8 2.8327 -1.54784 0
M  V30 29634 H 2855.85 1.43464 -3.5231 0
M  V30 29635 H 2857.16 2.08255 -4.53245 0
M  V30 29636 H 2856.32 4.40972 -4.16687 0
M  V30 29637 H 2855.06 3.79807 -3.05937 0
M  V30 29638 H 2854.06 2.44431 -4.92477 0
M  V30 29639 H 2855.29 3.08588 -6.04938 0
M  V30 29640 H 2853.23 4.74094 -4.534 0
M  V30 29641 H 2853.15 4.31045 -6.21077 0
M  V30 29642 H 2854.42 5.36283 -5.65704 0
M  V30 29643 N 2858.65 1.52438 0.400055 0
M  V30 29644 C 2859.92 1.57513 1.1597 0
M  V30 29645 C 2860.3 0.361609 2.0798 0
M  V30 29646 O 2859.65 -0.650891 2.19033 0
M  V30 29647 C 2859.86 2.9084 1.92907 0
M  V30 29648 C 2861.21 3.44173 2.48656 0
M  V30 29649 O 2862.23 2.92641 2.03076 0
M  V30 29650 O 2861.09 4.34182 3.31886 0
M  V30 29651 H 2858.19 0.634836 0.530012 0
M  V30 29652 H 2860.73 1.64769 0.406101 0
M  V30 29653 H 2859.5 3.70609 1.25557 0
M  V30 29654 H 2859.13 2.86918 2.75252 0
M  V30 29655 N 2860.12 -0.657839 1.43214 0
M  V30 29656 C 2861.06 -1.78335 1.43977 0
M  V30 29657 C 2862.07 -1.59284 0.33651 0
M  V30 29658 O 2863.26 -1.6809 0.600661 0
M  V30 29659 C 2860.36 -3.15695 1.23247 0
M  V30 29660 C 2859.53 -3.61445 2.46325 0
M  V30 29661 C 2858.59 -4.77593 2.20888 0
M  V30 29662 O 2857.62 -4.87268 2.94208 0
M  V30 29663 N 2858.82 -5.67479 1.22261 0
M  V30 29664 H 2861.58 -1.7816 2.40996 0
M  V30 29665 H 2859.14 -0.841524 1.38311 0
M  V30 29666 H 2861.14 -3.91077 1.0412 0
M  V30 29667 H 2859.71 -3.10669 0.346903 0
M  V30 29668 H 2858.93 -2.76558 2.80908 0
M  V30 29669 H 2860.21 -3.88757 3.28246 0
M  V30 29670 H 2859.61 -5.6233 0.616532 0
M  V30 29671 H 2858.17 -6.42601 1.09118 0
M  V30 29672 N 2861.6 -1.29668 -0.895769 0
M  V30 29673 C 2862.53 -1.09457 -2.00236 0
M  V30 29674 C 2863.51 -0.00529902 -1.62599 0
M  V30 29675 O 2864.7 -0.156762 -1.87847 0
M  V30 29676 C 2861.82 -0.667113 -3.32065 0
M  V30 29677 C 2860.87 -1.75567 -3.88688 0
M  V30 29678 S 2861.7 -3.35576 -4.17312 0
M  V30 29679 C 2862.86 -2.94708 -5.52176 0
M  V30 29680 H 2863.09 -2.03142 -2.17073 0
M  V30 29681 H 2860.62 -1.13859 -1.04285 0
M  V30 29682 H 2862.58 -0.427208 -4.08271 0
M  V30 29683 H 2861.24 0.250201 -3.13102 0
M  V30 29684 H 2860.44 -1.40861 -4.83915 0
M  V30 29685 H 2860.04 -1.9493 -3.19184 0
M  V30 29686 H 2862.33 -2.41997 -6.32806 0
M  V30 29687 H 2863.27 -3.88801 -5.9181 0
M  V30 29688 H 2863.68 -2.32888 -5.14221 0
M  V30 29689 N 2863.08 1.10667 -1.12208 0
M  V30 29690 C 2864.3 1.86904 -0.898971 0
M  V30 29691 C 2864.73 1.79992 0.546314 0
M  V30 29692 O 2864.09 1.16812 1.38653 0
M  V30 29693 C 2864.14 3.33342 -1.37534 0
M  V30 29694 O 2863.24 4.08686 -0.552252 0
M  V30 29695 H 2862.58 0.580048 -0.323173 0
M  V30 29696 H 2865.11 1.39834 -1.49357 0
M  V30 29697 H 2865.12 3.84191 -1.37337 0
M  V30 29698 H 2863.8 3.37689 -2.42773 0
M  V30 29699 H 2862.37 3.67693 -0.621012 0
M  V30 29700 N 2864.56 0.913621 1.28416 0
M  V30 29701 C 2865.51 0.373082 2.24927 0
M  V30 29702 C 2866.49 -0.514726 1.52445 0
M  V30 29703 O 2867.68 -0.354469 1.73414 0
M  V30 29704 C 2864.81 -0.385836 3.41125 0
M  V30 29705 C 2863.9 0.517684 4.20929 0
M  V30 29706 N 2864.29 1.63122 4.78774 0
M  V30 29707 C 2862.59 0.318047 4.44865 0
M  V30 29708 C 2863.29 2.19202 5.38819 0
M  V30 29709 N 2862.26 1.4833 5.22971 0
M  V30 29710 H 2866.07 1.2235 2.67222 0
M  V30 29711 H 2863.58 0.766261 1.43186 0
M  V30 29712 H 2865.58 -0.789925 4.09348 0
M  V30 29713 H 2864.24 -1.23336 3.00364 0
M  V30 29714 H 2865.25 2.0138 4.77144 0
M  V30 29715 H 2861.93 -0.489967 4.14615 0
M  V30 29716 H 2863.32 3.12872 5.9461 0
M  V30 29717 N 2866.04 -1.4229 0.677588 0
M  V30 29718 C 2866.97 -2.33495 0.0150091 0
M  V30 29719 C 2867.95 -1.50833 -0.786349 0
M  V30 29720 O 2869.13 -1.79427 -0.742943 0
M  V30 29721 C 2866.26 -3.34478 -0.934964 0
M  V30 29722 C 2865.22 -4.27315 -0.241999 0
M  V30 29723 C 2864.54 -5.18528 -1.3051 0
M  V30 29724 C 2865.84 -5.14821 0.880694 0
M  V30 29725 H 2867.54 -2.89149 0.776722 0
M  V30 29726 H 2865.08 -1.39032 0.374964 0
M  V30 29727 H 2867.03 -3.97196 -1.40759 0
M  V30 29728 H 2865.76 -2.77134 -1.72813 0
M  V30 29729 H 2864.42 -3.65996 0.210415 0
M  V30 29730 H 2864.07 -4.57509 -2.09033 0
M  V30 29731 H 2863.77 -5.8147 -0.846549 0
M  V30 29732 H 2865.29 -5.84122 -1.7786 0
M  V30 29733 H 2866.7 -5.71209 0.489163 0
M  V30 29734 H 2865.1 -5.86611 1.26521 0
M  V30 29735 H 2866.17 -4.53056 1.72826 0
M  V30 29736 N 2867.51 -0.421104 -1.5187 0
M  V30 29737 C 2868.76 0.150755 -2.01938 0
M  V30 29738 C 2869.09 1.44119 -1.30614 0
M  V30 29739 O 2868.34 1.91471 -0.404664 0
M  V30 29740 C 2868.64 0.433229 -3.54765 0
M  V30 29741 C 2868.31 -0.769438 -4.44286 0
M  V30 29742 C 2866.97 -1.0993 -4.68475 0
M  V30 29743 C 2869.32 -1.57251 -4.96912 0
M  V30 29744 C 2866.65 -2.23319 -5.42536 0
M  V30 29745 C 2869 -2.69726 -5.72215 0
M  V30 29746 C 2867.67 -3.03185 -5.94672 0
M  V30 29747 H 2866.94 0.0551651 -0.738944 0
M  V30 29748 H 2869.58 -0.564978 -1.82976 0
M  V30 29749 H 2867.89 1.23067 -3.7197 0
M  V30 29750 H 2869.59 0.888854 -3.91025 0
M  V30 29751 H 2866.18 -0.50238 -4.25646 0
M  V30 29752 H 2870.36 -1.33089 -4.78122 0
M  V30 29753 H 2865.62 -2.49575 -5.58142 0
M  V30 29754 H 2869.79 -3.32333 -6.11987 0
M  V30 29755 H 2867.42 -3.91162 -6.51841 0
M  V30 29756 N 2868.99 1.56866 -0.151912 0
M  V30 29757 C 2869.94 2.18301 0.802952 0
M  V30 29758 C 2870.93 1.14141 1.25172 0
M  V30 29759 O 2872.14 1.32382 1.21963 0
M  V30 29760 H 2868.52 0.699062 0.277157 0
M  V30 29761 H 2870.49 2.97259 0.260646 0
M  V30 29762 C 2869.24 2.82285 2.03004 0
M  V30 29763 H 2868.56 3.62151 1.69371 0
M  V30 29764 H 2870 3.28767 2.67747 0
M  V30 29765 C 2868.46 1.81046 2.8412 0
M  V30 29766 O 2868.99 1.28395 3.80628 0
M  V30 29767 N 2867.19 1.50239 2.4875 0
M  V30 29768 H 2866.74 1.93247 1.70333 0
M  V30 29769 H 2866.7 0.827498 3.03315 0
M  V30 29770 N 2870.47 -0.121866 1.57128 0
M  V30 29771 C 2871.72 -0.831386 1.84975 0
M  V30 29772 C 2872.05 -1.79662 0.737236 0
M  V30 29773 O 2871.32 -1.92792 -0.257165 0
M  V30 29774 C 2871.61 -1.58381 3.234 0
M  V30 29775 C 2871.46 -0.638367 4.45247 0
M  V30 29776 C 2872.78 -2.54064 3.5936 0
M  V30 29777 H 2869.9 -0.300791 0.672825 0
M  V30 29778 H 2872.54 -0.0957254 1.89759 0
M  V30 29779 H 2870.69 -2.21093 3.19453 0
M  V30 29780 H 2872.36 -0.0203115 4.61296 0
M  V30 29781 H 2870.61 0.0503062 4.33771 0
M  V30 29782 H 2871.28 -1.20141 5.38767 0
M  V30 29783 H 2873.75 -2.01459 3.64079 0
M  V30 29784 H 2872.63 -3.03744 4.57199 0
M  V30 29785 H 2872.89 -3.36596 2.86628 0
M  V30 29786 N 2871.95 -1.52648 -0.391965 0
M  V30 29787 C 2872.91 -1.76573 -1.46132 0
M  V30 29788 C 2873.91 -0.635724 -1.477 0
M  V30 29789 O 2875.1 -0.903754 -1.48923 0
M  V30 29790 C 2872.23 -1.86379 -2.85439 0
M  V30 29791 H 2873.43 -2.72053 -1.26203 0
M  V30 29792 H 2870.98 -1.43324 -0.623523 0
M  V30 29793 H 2871.71 -0.92874 -3.10717 0
M  V30 29794 H 2871.5 -2.68544 -2.85703 0
M  V30 29795 H 2872.99 -2.06572 -3.62929 0
M  V30 29796 N 2873.43 0.650235 -1.43561 0
M  V30 29797 C 2874.38 1.75625 -1.45395 0
M  V30 29798 C 2875.36 1.57644 -0.322033 0
M  V30 29799 O 2876.55 1.67706 -0.566025 0
M  V30 29800 C 2873.68 3.14228 -1.3826 0
M  V30 29801 C 2872.77 3.37746 -2.56493 0
M  V30 29802 N 2873.16 3.31722 -3.8183 0
M  V30 29803 C 2871.46 3.68476 -2.5128 0
M  V30 29804 C 2872.16 3.55404 -4.60503 0
M  V30 29805 N 2871.13 3.7736 -3.9128 0
M  V30 29806 H 2874.94 1.69398 -2.4017 0
M  V30 29807 H 2872.45 0.852013 -1.38255 0
M  V30 29808 H 2874.45 3.93518 -1.37657 0
M  V30 29809 H 2873.11 3.21635 -0.445076 0
M  V30 29810 H 2874.12 3.11067 -4.14075 0
M  V30 29811 H 2870.79 3.8298 -1.6623 0
M  V30 29812 H 2872.18 3.565 -5.69524 0
M  V30 29813 N 2874.9 1.30141 0.88888 0
M  V30 29814 C 2876.13 1.21654 1.67356 0
M  V30 29815 C 2876.55 -0.221213 1.875 0
M  V30 29816 O 2875.9 -1.14675 1.41972 0
M  V30 29817 C 2875.96 1.93724 3.0521 0
M  V30 29818 O 2875.68 3.31886 2.85978 0
M  V30 29819 C 2877.18 1.91847 3.99637 0
M  V30 29820 H 2874.4 0.42117 0.522357 0
M  V30 29821 H 2876.94 1.717 1.11083 0
M  V30 29822 H 2875.1 1.47486 3.58227 0
M  V30 29823 H 2875.51 3.68334 3.73404 0
M  V30 29824 H 2876.98 2.4682 4.93745 0
M  V30 29825 H 2877.46 0.896484 4.29953 0
M  V30 29826 H 2878.07 2.37878 3.52554 0
M  V30 29827 N 2876.38 -1.1007 1.12794 0
M  V30 29828 C 2877.31 -2.18563 0.821727 0
M  V30 29829 C 2878.29 -1.68722 -0.21609 0
M  V30 29830 O 2879.48 -1.94049 -0.076459 0
M  V30 29831 C 2876.61 -3.46172 0.279685 0
M  V30 29832 C 2875.56 -4.09309 1.25099 0
M  V30 29833 C 2874.89 -5.31664 0.56901 0
M  V30 29834 C 2876.19 -4.52581 2.60706 0
M  V30 29835 H 2877.88 -2.44435 1.72893 0
M  V30 29836 H 2875.43 -1.17481 0.832723 0
M  V30 29837 H 2877.38 -4.21366 0.0531731 0
M  V30 29838 H 2876.11 -3.19802 -0.662872 0
M  V30 29839 H 2874.76 -3.36126 1.46338 0
M  V30 29840 H 2874.41 -5.01572 -0.37881 0
M  V30 29841 H 2874.11 -5.7486 1.21697 0
M  V30 29842 H 2875.64 -6.09587 0.351624 0
M  V30 29843 H 2877.05 -5.19031 2.43474 0
M  V30 29844 H 2875.45 -5.06639 3.21616 0
M  V30 29845 H 2876.52 -3.65311 3.18867 0
M  V30 29846 N 2877.86 -0.920419 -1.2793 0
M  V30 29847 C 2879.28 -0.619563 -1.47084 0
M  V30 29848 C 2879.48 0.833258 -1.83464 0
M  V30 29849 O 2878.53 1.61178 -1.94365 0
M  V30 29850 C 2879.85 -1.56319 -2.56875 0
M  V30 29851 C 2881.39 -1.57062 -2.7074 0
M  V30 29852 C 2881.87 -2.50104 -3.83682 0
M  V30 29853 N 2883.36 -2.48269 -3.91046 0
M  V30 29854 C 2884.09 -3.16954 -4.77837 0
M  V30 29855 N 2883.59 -3.94992 -5.69169 0
M  V30 29856 N 2885.38 -3.06008 -4.71504 0
M  V30 29857 H 2877.53 -1.85977 -1.02597 0
M  V30 29858 H 2879.8 -0.79806 -0.511668 0
M  V30 29859 H 2879.5 -2.59928 -2.36919 0
M  V30 29860 H 2879.38 -1.29934 -3.54114 0
M  V30 29861 H 2881.76 -0.541883 -2.90082 0
M  V30 29862 H 2881.85 -1.87493 -1.74011 0
M  V30 29863 H 2881.49 -3.53084 -3.65095 0
M  V30 29864 H 2881.42 -2.16972 -4.79824 0
M  V30 29865 H 2883.91 -1.91587 -3.25734 0
M  V30 29866 H 2884.22 -4.44405 -6.32238 0
M  V30 29867 H 2882.57 -3.99096 -5.68988 0
M  V30 29868 H 2885.76 -2.4454 -3.99146 0
M  V30 29869 H 2885.93 -3.59808 -5.38927 0
M  V30 29870 N 2879.34 1.41929 -0.685124 0
M  V30 29871 C 2880.27 2.2817 0.0371238 0
M  V30 29872 C 2881.25 1.41648 0.798411 0
M  V30 29873 O 2882.43 1.71082 0.791398 0
M  V30 29874 C 2879.56 3.2169 1.05987 0
M  V30 29875 C 2878.61 4.24686 0.392968 0
M  V30 29876 S 2879.44 5.28598 -0.857014 0
M  V30 29877 C 2880.6 6.25684 0.164398 0
M  V30 29878 H 2880.83 2.89078 -0.694356 0
M  V30 29879 H 2878.36 1.46911 -0.475025 0
M  V30 29880 H 2880.32 3.76106 1.64483 0
M  V30 29881 H 2878.98 2.59898 1.76386 0
M  V30 29882 H 2878.17 4.9035 1.16504 0
M  V30 29883 H 2877.78 3.73812 -0.118655 0
M  V30 29884 H 2880.07 6.69763 1.02094 0
M  V30 29885 H 2881.01 7.06617 -0.458041 0
M  V30 29886 H 2881.42 5.6215 0.514497 0
M  V30 29887 N 2880.82 0.429152 1.51644 0
M  V30 29888 C 2881.75 -0.431452 2.24084 0
M  V30 29889 C 2882.73 -1.03151 1.25693 0
M  V30 29890 O 2883.91 -1.07554 1.54804 0
M  V30 29891 C 2881.04 -1.60062 2.98493 0
M  V30 29892 C 2880.08 -1.12203 4.11476 0
M  V30 29893 S 2880.92 -0.0707508 5.35453 0
M  V30 29894 C 2882.07 -1.24477 6.13397 0
M  V30 29895 H 2882.31 0.183577 2.96733 0
M  V30 29896 H 2879.84 0.213601 1.52915 0
M  V30 29897 H 2881.8 -2.27093 3.41964 0
M  V30 29898 H 2880.46 -2.18704 2.25449 0
M  V30 29899 H 2879.65 -1.9961 4.62787 0
M  V30 29900 H 2879.25 -0.530084 3.70224 0
M  V30 29901 H 2881.55 -2.16468 6.41987 0
M  V30 29902 H 2882.49 -0.771797 7.03881 0
M  V30 29903 H 2882.9 -1.47964 5.44763 0
M  V30 29904 N 2882.29 -1.56783 0.160229 0
M  V30 29905 C 2883.54 -1.96834 -0.488276 0
M  V30 29906 C 2883.87 -1.04574 -1.6364 0
M  V30 29907 O 2883.15 -0.0906822 -1.94288 0
M  V30 29908 C 2883.43 -3.46456 -0.981847 0
M  V30 29909 C 2883.28 -4.49495 0.165686 0
M  V30 29910 C 2884.6 -3.98899 -1.85924 0
M  V30 29911 H 2881.72 -0.715673 -0.176014 0
M  V30 29912 H 2884.36 -1.88425 0.244127 0
M  V30 29913 H 2882.51 -3.53753 -1.60596 0
M  V30 29914 H 2884.19 -4.54267 0.802451 0
M  V30 29915 H 2882.43 -4.25924 0.822864 0
M  V30 29916 H 2883.1 -5.51555 -0.221602 0
M  V30 29917 H 2885.58 -3.94164 -1.3332 0
M  V30 29918 H 2884.45 -5.04028 -2.17364 0
M  V30 29919 H 2884.71 -3.42047 -2.801 0
M  V30 29920 N 2883.77 0.113531 -1.57191 0
M  V30 29921 C 2884.71 1.16481 -1.97395 0
M  V30 29922 C 2885.72 1.37351 -0.873988 0
M  V30 29923 O 2886.91 1.36329 -1.15224 0
M  V30 29924 C 2884.01 2.52382 -2.26178 0
M  V30 29925 C 2883.18 2.5204 -3.57484 0
M  V30 29926 C 2882.24 3.69729 -3.74416 0
M  V30 29927 O 2881.27 3.53063 -4.46469 0
M  V30 29928 N 2882.47 4.88505 -3.13597 0
M  V30 29929 H 2885.23 0.822763 -2.88185 0
M  V30 29930 H 2882.79 0.302741 -1.59044 0
M  V30 29931 H 2884.79 3.29683 -2.34715 0
M  V30 29932 H 2883.36 2.78747 -1.41488 0
M  V30 29933 H 2882.58 1.60415 -3.60084 0
M  V30 29934 H 2883.86 2.48873 -4.43779 0
M  V30 29935 H 2883.26 5.04949 -2.55035 0
M  V30 29936 H 2881.82 5.63463 -3.27647 0
M  V30 29937 N 2885.25 1.52854 0.383864 0
M  V30 29938 C 2886.2 1.77997 1.46921 0
M  V30 29939 C 2887.17 0.623423 1.53957 0
M  V30 29940 O 2888.35 0.863687 1.70133 0
M  V30 29941 C 2885.49 1.95926 2.8409 0
M  V30 29942 C 2884.61 3.23626 2.86165 0
M  V30 29943 C 2883.74 3.31843 4.14794 0
M  V30 29944 C 2882.78 4.53646 4.1094 0
M  V30 29945 N 2881.92 4.59116 5.31184 0
M  V30 29946 H 2886.76 2.70617 1.24781 0
M  V30 29947 H 2884.29 1.34072 0.605242 0
M  V30 29948 H 2886.25 2.04305 3.63751 0
M  V30 29949 H 2884.88 1.06661 3.04669 0
M  V30 29950 H 2883.93 3.24292 1.98844 0
M  V30 29951 H 2885.25 4.13348 2.79187 0
M  V30 29952 H 2884.4 3.39434 5.02861 0
M  V30 29953 H 2883.14 2.40104 4.24501 0
M  V30 29954 H 2882.14 4.46175 3.2126 0
M  V30 29955 H 2883.37 5.46707 4.02851 0
M  V30 29956 H 2881.32 3.70272 5.41512 0
M  V30 29957 H 2881.23 5.42718 5.26302 0
M  V30 29958 H 2882.5 4.70969 6.21135 0
M  V30 29959 N 2886.73 -0.642612 1.43904 0
M  V30 29960 C 2887.64 -1.78399 1.52352 0
M  V30 29961 C 2888.66 -1.69103 0.409899 0
M  V30 29962 O 2889.83 -1.90084 0.665581 0
M  V30 29963 C 2886.9 -3.14731 1.45414 0
M  V30 29964 C 2885.96 -3.35744 2.67533 0
M  V30 29965 C 2885.19 -4.65573 2.60917 0
M  V30 29966 O 2885.41 -5.45626 1.6628 0
M  V30 29967 O 2884.35 -4.88538 3.51589 0
M  V30 29968 H 2888.17 -1.74225 2.48755 0
M  V30 29969 H 2885.76 -0.802417 1.26022 0
M  V30 29970 H 2887.64 -3.96023 1.44026 0
M  V30 29971 H 2886.32 -3.19472 0.521494 0
M  V30 29972 H 2885.22 -2.54175 2.74492 0
M  V30 29973 H 2886.56 -3.35858 3.59806 0
M  V30 29974 N 2888.21 -1.30611 -0.881966 0
M  V30 29975 C 2889.62 -1.09007 -1.16574 0
M  V30 29976 C 2889.82 0.147235 -2.00961 0
M  V30 29977 O 2888.88 0.839994 -2.38118 0
M  V30 29978 C 2890.19 -2.35521 -1.8695 0
M  V30 29979 C 2891.74 -2.41015 -1.99702 0
M  V30 29980 C 2892.22 -3.67379 -2.7349 0
M  V30 29981 N 2893.71 -3.68204 -2.81034 0
M  V30 29982 C 2894.44 -4.6267 -3.3871 0
M  V30 29983 N 2893.94 -5.67482 -3.97411 0
M  V30 29984 N 2895.73 -4.50209 -3.36553 0
M  V30 29985 H 2887.88 -2.09985 -0.319361 0
M  V30 29986 H 2890.14 -0.925781 -0.204041 0
M  V30 29987 H 2889.85 -3.25832 -1.32388 0
M  V30 29988 H 2889.72 -2.444 -2.87313 0
M  V30 29989 H 2892.11 -1.51181 -2.53433 0
M  V30 29990 H 2892.19 -2.36109 -0.984176 0
M  V30 29991 H 2891.84 -4.57573 -2.2043 0
M  V30 29992 H 2891.77 -3.69547 -3.75157 0
M  V30 29993 H 2894.26 -2.9243 -2.39359 0
M  V30 29994 H 2894.57 -6.3566 -4.39495 0
M  V30 29995 H 2892.92 -5.71271 -3.95822 0
M  V30 29996 H 2896.11 -3.67508 -2.89924 0
M  V30 29997 H 2896.28 -5.2401 -3.81206 0
M  V30 29998 N 2889.69 1.0947 -1.13376 0
M  V30 29999 C 2890.91 1.8594 -0.918744 0
M  V30 30000 C 2891.34 1.80561 0.527193 0
M  V30 30001 O 2890.69 1.18276 1.37406 0
M  V30 30002 C 2890.74 3.31864 -1.41062 0
M  V30 30003 O 2889.85 4.08077 -0.595568 0
M  V30 30004 H 2889.19 0.576587 -0.329307 0
M  V30 30005 H 2891.72 1.38242 -1.50832 0
M  V30 30006 H 2891.73 3.82712 -1.41404 0
M  V30 30007 H 2890.4 3.35095 -2.46341 0
M  V30 30008 H 2888.98 3.67013 -0.659975 0
M  V30 30009 N 2891.16 0.92719 1.2744 0
M  V30 30010 C 2892.09 0.443228 2.29255 0
M  V30 30011 C 2893.07 -0.496211 1.62701 0
M  V30 30012 O 2894.26 -0.401071 1.90013 0
M  V30 30013 C 2891.39 -0.305305 3.45955 0
M  V30 30014 C 2890.34 0.546252 4.245 0
M  V30 30015 C 2889.67 -0.331418 5.33672 0
M  V30 30016 C 2890.97 1.81046 4.89918 0
M  V30 30017 H 2892.66 1.29413 2.69986 0
M  V30 30018 H 2890.21 0.623727 1.29791 0
M  V30 30019 H 2892.16 -0.654812 4.16281 0
M  V30 30020 H 2890.89 -1.19023 3.0414 0
M  V30 30021 H 2889.55 0.87846 3.55919 0
M  V30 30022 H 2889.19 -1.21528 4.88098 0
M  V30 30023 H 2888.89 0.234849 5.8713 0
M  V30 30024 H 2890.42 -0.676508 6.06841 0
M  V30 30025 H 2891.83 1.52905 5.52533 0
M  V30 30026 H 2890.23 2.32019 5.53432 0
M  V30 30027 H 2891.3 2.53028 4.13648 0
M  V30 30028 N 2892.64 -1.41564 0.692641 0
M  V30 30029 C 2893.92 -1.9502 0.15053 0
M  V30 30030 C 2894.3 -1.63217 -1.33878 0
M  V30 30031 O 2893.65 -0.937635 -2.08376 0
M  V30 30032 C 2893.86 -3.46232 0.438697 0
M  V30 30033 C 2895.2 -4.2303 0.364852 0
M  V30 30034 O 2896.23 -3.54237 0.373445 0
M  V30 30035 O 2895.09 -5.45548 0.322436 0
M  V30 30036 H 2892.18 -0.826894 0.0132599 0
M  V30 30037 H 2894.73 -1.51296 0.7686 0
M  V30 30038 H 2893.5 -3.62651 1.46969 0
M  V30 30039 H 2893.12 -3.97042 -0.210493 0
M  V30 30040 N 2894.12 -0.437188 -1.51415 0
M  V30 30041 C 2895.37 0.13083 -2.01275 0
M  V30 30042 C 2895.68 1.43798 -1.32595 0
M  V30 30043 O 2896.89 2.08893 -1.73424 0
M  V30 30044 C 2895.34 0.2837 -3.5878 0
M  V30 30045 C 2894.95 -1.01301 -4.36397 0
M  V30 30046 C 2896.7 0.805496 -4.16788 0
M  V30 30047 C 2894.6 -0.82579 -5.85606 0
M  V30 30048 H 2893.53 0.0526686 -0.752158 0
M  V30 30049 H 2896.18 -0.566927 -1.74523 0
M  V30 30050 H 2894.57 1.04446 -3.81978 0
M  V30 30051 H 2895.74 -1.78208 -4.24945 0
M  V30 30052 H 2894.05 -1.46333 -3.89841 0
M  V30 30053 H 2896.65 0.962054 -5.25974 0
M  V30 30054 H 2896.99 1.7879 -3.75952 0
M  V30 30055 H 2897.53 0.103055 -3.97666 0
M  V30 30056 H 2894.27 -1.78056 -6.30854 0
M  V30 30057 H 2893.79 -0.0965083 -5.99722 0
M  V30 30058 H 2895.47 -0.478929 -6.45225 0
M  V30 30059 N 2895.6 1.56696 -0.168541 0
M  V30 30060 C 2896.53 2.20836 0.758524 0
M  V30 30061 C 2897.51 1.16313 1.24118 0
M  V30 30062 O 2898.69 1.44732 1.29485 0
M  V30 30063 C 2895.82 2.84693 1.98915 0
M  V30 30064 C 2894.78 3.95231 1.64245 0
M  V30 30065 C 2894.1 4.46124 2.94749 0
M  V30 30066 C 2895.4 5.14959 0.872585 0
M  V30 30067 H 2897.1 2.98562 0.2239 0
M  V30 30068 H 2894.64 1.43607 0.106252 0
M  V30 30069 H 2896.6 3.28237 2.64269 0
M  V30 30070 H 2895.32 2.04332 2.54786 0
M  V30 30071 H 2893.98 3.52338 1.0126 0
M  V30 30072 H 2893.63 3.62558 3.48655 0
M  V30 30073 H 2893.33 5.20695 2.72307 0
M  V30 30074 H 2894.85 4.92353 3.61138 0
M  V30 30075 H 2896.27 5.55214 1.42866 0
M  V30 30076 H 2894.66 5.95429 0.747297 0
M  V30 30077 H 2895.73 4.84721 -0.13162 0
M  V30 30078 N 2897.08 -0.105193 1.57249 0
M  V30 30079 C 2898.02 -1.12832 2.0134 0
M  V30 30080 C 2898.99 -1.40375 0.887922 0
M  V30 30081 O 2900.18 -1.52008 1.15318 0
M  V30 30082 C 2897.32 -2.44607 2.43437 0
M  V30 30083 C 2896.43 -2.23881 3.69461 0
M  V30 30084 C 2895.57 -3.48984 4.00479 0
M  V30 30085 C 2894.6 -3.23476 5.19644 0
M  V30 30086 N 2893.74 -4.40818 5.46465 0
M  V30 30087 H 2898.58 -0.745336 2.88529 0
M  V30 30088 H 2896.12 -0.35651 1.42714 0
M  V30 30089 H 2898.08 -3.21498 2.65885 0
M  V30 30090 H 2896.71 -2.80771 1.59271 0
M  V30 30091 H 2895.76 -1.37841 3.54548 0
M  V30 30092 H 2897.07 -2.01018 4.56501 0
M  V30 30093 H 2896.22 -4.34288 4.2365 0
M  V30 30094 H 2894.96 -3.74892 3.11941 0
M  V30 30095 H 2893.97 -2.36565 4.96303 0
M  V30 30096 H 2895.19 -2.98925 6.09771 0
M  V30 30097 H 2893.14 -4.66821 4.60885 0
M  V30 30098 H 2893.06 -4.21109 6.27856 0
M  V30 30099 H 2894.32 -5.27215 5.74164 0
M  V30 30100 N 2898.55 -1.53055 -0.375752 0
M  V30 30101 C 2899.8 -1.68411 -1.11724 0
M  V30 30102 C 2900.12 -0.433263 -1.90126 0
M  V30 30103 O 2899.39 0.552562 -1.87946 0
M  V30 30104 H 2897.97 -0.620821 -0.41544 0
M  V30 30105 H 2900.64 -1.90213 -0.424835 0
M  V30 30106 H 2899.73 -2.54059 -1.81275 0
M  V30 30107 N 2900.03 0.634971 -1.44242 0
M  V30 30108 C 2900.98 1.74712 -1.50813 0
M  V30 30109 C 2901.95 1.62236 -0.356175 0
M  V30 30110 O 2903.13 1.82215 -0.56588 0
M  V30 30111 C 2900.27 3.12945 -1.45464 0
M  V30 30112 C 2899.39 3.36424 -2.71004 0
M  V30 30113 C 2898.52 4.64607 -2.57516 0
M  V30 30114 C 2897.56 4.81251 -3.78237 0
M  V30 30115 N 2896.7 6.00708 -3.63448 0
M  V30 30116 H 2901.54 1.68432 -2.45835 0
M  V30 30117 H 2899.08 0.821685 -1.22011 0
M  V30 30118 H 2901.03 3.92882 -1.40354 0
M  V30 30119 H 2899.66 3.18249 -0.540114 0
M  V30 30120 H 2898.72 2.50453 -2.86317 0
M  V30 30121 H 2900.03 3.44603 -3.60625 0
M  V30 30122 H 2899.18 5.52699 -2.50217 0
M  V30 30123 H 2897.92 4.58779 -1.65449 0
M  V30 30124 H 2896.93 3.91589 -3.85925 0
M  V30 30125 H 2898.15 4.88896 -4.71336 0
M  V30 30126 H 2896.1 5.95977 -2.7413 0
M  V30 30127 H 2896.01 6.09927 -4.46683 0
M  V30 30128 H 2897.28 6.91372 -3.60035 0
M  V30 30129 N 2901.51 1.31076 0.875027 0
M  V30 30130 C 2902.76 1.2065 1.63007 0
M  V30 30131 C 2903.09 -0.236011 1.92761 0
M  V30 30132 O 2902.36 -1.16751 1.55561 0
M  V30 30133 C 2902.65 2.04565 2.96353 0
M  V30 30134 C 2902.5 3.57089 2.7351 0
M  V30 30135 C 2903.82 1.89114 3.97396 0
M  V30 30136 H 2900.94 0.439641 0.59151 0
M  V30 30137 H 2903.58 1.60814 1.01187 0
M  V30 30138 H 2901.73 1.70441 3.49116 0
M  V30 30139 H 2903.4 4.01323 2.27458 0
M  V30 30140 H 2901.65 3.80773 2.07833 0
M  V30 30141 H 2902.32 4.11105 3.6837 0
M  V30 30142 H 2904.79 2.18967 3.53826 0
M  V30 30143 H 2903.67 2.50139 4.88592 0
M  V30 30144 H 2903.93 0.853036 4.33792 0
M  V30 30145 N 2902.99 -1.08867 1.13955 0
M  V30 30146 C 2903.92 -2.14967 0.765803 0
M  V30 30147 C 2904.9 -1.60656 -0.25066 0
M  V30 30148 O 2906.08 -1.87973 -0.140819 0
M  V30 30149 C 2903.21 -3.38426 0.136206 0
M  V30 30150 C 2902.26 -4.11475 1.12208 0
M  V30 30151 S 2903.09 -4.64923 2.65719 0
M  V30 30152 C 2904.25 -5.91675 2.04136 0
M  V30 30153 H 2904.48 -2.46338 1.66448 0
M  V30 30154 H 2902.01 -1.20905 0.960284 0
M  V30 30155 H 2903.97 -4.09907 -0.22064 0
M  V30 30156 H 2902.63 -3.05263 -0.739833 0
M  V30 30157 H 2901.82 -5.00053 0.629486 0
M  V30 30158 H 2901.43 -3.45884 1.42268 0
M  V30 30159 H 2903.72 -6.63005 1.39392 0
M  V30 30160 H 2904.66 -6.45624 2.90819 0
M  V30 30161 H 2905.07 -5.44464 1.4906 0
M  V30 30162 N 2904.47 -0.933936 -1.26946 0
M  V30 30163 C 2905.43 -0.442497 -2.24888 0
M  V30 30164 C 2906.43 0.442399 -1.54595 0
M  V30 30165 O 2907.62 0.242599 -1.72502 0
M  V30 30166 C 2904.75 0.363114 -3.38961 0
M  V30 30167 H 2905.94 -1.30792 -2.69877 0
M  V30 30168 H 2903.5 -0.715211 -1.38976 0
M  V30 30169 H 2904.23 1.24709 -2.99363 0
M  V30 30170 H 2904.02 -0.271435 -3.91159 0
M  V30 30171 H 2905.51 0.697114 -4.1174 0
M  V30 30172 N 2905.94 1.41194 -0.700139 0
M  V30 30173 C 2907.17 2.05998 -0.240741 0
M  V30 30174 C 2907.59 1.52359 1.1031 0
M  V30 30175 O 2906.95 0.652454 1.69153 0
M  V30 30176 C 2907 3.59965 -0.213846 0
M  V30 30177 O 2906.1 4.0437 0.809862 0
M  V30 30178 H 2905.45 0.653703 -0.116482 0
M  V30 30179 H 2907.98 1.80877 -0.956283 0
M  V30 30180 H 2907.99 4.07974 -0.0462569 0
M  V30 30181 H 2906.66 3.98374 -1.19461 0
M  V30 30182 H 2905.24 3.67856 0.611255 0
M  V30 30183 N 2907.42 0.445212 1.51181 0
M  V30 30184 C 2908.36 -0.407661 2.24529 0
M  V30 30185 C 2909.33 -1.01812 1.2678 0
M  V30 30186 O 2910.52 -1.05906 1.55936 0
M  V30 30187 C 2907.64 -1.56887 3.00174 0
M  V30 30188 C 2906.69 -1.07833 4.12643 0
M  V30 30189 S 2907.52 -0.0139549 5.35498 0
M  V30 30190 C 2908.68 -1.17965 6.14683 0
M  V30 30191 H 2908.91 0.21504 2.96521 0
M  V30 30192 H 2906.45 0.229807 1.5268 0
M  V30 30193 H 2908.4 -2.23453 3.44353 0
M  V30 30194 H 2907.06 -2.163 2.27756 0
M  V30 30195 H 2906.26 -1.9469 4.64878 0
M  V30 30196 H 2905.86 -0.490787 3.70766 0
M  V30 30197 H 2908.15 -2.09647 6.44247 0
M  V30 30198 H 2909.09 -0.697098 7.0466 0
M  V30 30199 H 2909.5 -1.42177 5.46302 0
M  V30 30200 N 2908.9 -1.56605 0.176849 0
M  V30 30201 C 2910.15 -1.97049 -0.46668 0
M  V30 30202 C 2910.48 -1.06305 -1.62879 0
M  V30 30203 O 2909.73 -0.0982914 -1.95453 0
M  V30 30204 C 2910.03 -3.43526 -0.986148 0
M  V30 30205 C 2909.7 -4.50859 0.0606459 0
M  V30 30206 C 2908.36 -4.79938 0.348326 0
M  V30 30207 C 2910.71 -5.15468 0.770885 0
M  V30 30208 C 2908.04 -5.70921 1.35154 0
M  V30 30209 C 2910.39 -6.07533 1.76312 0
M  V30 30210 C 2909.05 -6.34976 2.05819 0
M  V30 30211 H 2908.32 -0.721054 -0.17077 0
M  V30 30212 H 2910.97 -1.89587 0.269975 0
M  V30 30213 H 2909.28 -3.47967 -1.80073 0
M  V30 30214 H 2910.97 -3.72164 -1.49316 0
M  V30 30215 H 2907.56 -4.28248 -0.173748 0
M  V30 30216 H 2911.75 -4.93109 0.561847 0
M  V30 30217 H 2907 -5.90464 1.58626 0
M  V30 30218 H 2911.18 -6.56662 2.3188 0
M  V30 30219 H 2908.8 -7.05278 2.83703 0
M  V30 30220 N 2910.38 0.0968524 -1.57302 0
M  V30 30221 C 2911.61 0.81308 -1.89928 0
M  V30 30222 C 2912.02 1.72887 -0.76855 0
M  V30 30223 O 2911.36 1.81727 0.268517 0
M  V30 30224 C 2911.42 1.68077 -3.1779 0
M  V30 30225 C 2911.09 0.936982 -4.47291 0
M  V30 30226 C 2912.08 0.267595 -5.19211 0
M  V30 30227 C 2909.77 0.911584 -4.93959 0
M  V30 30228 C 2911.76 -0.417241 -6.36033 0
M  V30 30229 C 2909.45 0.222961 -6.10693 0
M  V30 30230 C 2910.45 -0.440275 -6.81579 0
M  V30 30231 O 2910.13 -1.11786 -7.9609 0
M  V30 30232 H 2909.87 0.237817 -0.632787 0
M  V30 30233 H 2912.42 0.0790457 -2.05248 0
M  V30 30234 H 2910.65 2.45699 -2.98611 0
M  V30 30235 H 2912.34 2.2734 -3.36261 0
M  V30 30236 H 2913.11 0.278689 -4.84199 0
M  V30 30237 H 2908.98 1.41726 -4.38674 0
M  V30 30238 H 2912.53 -0.935492 -6.91299 0
M  V30 30239 H 2908.43 0.209707 -6.45159 0
M  V30 30240 H 2909.19 -1.02458 -8.12062 0
M  V30 30241 N 2911.86 1.53252 0.36763 0
M  V30 30242 C 2912.77 1.82502 1.47412 0
M  V30 30243 C 2913.78 0.71325 1.5871 0
M  V30 30244 O 2914.96 1.00309 1.74643 0
M  V30 30245 C 2912.02 2.00699 2.82703 0
M  V30 30246 C 2911.08 3.24601 2.8095 0
M  V30 30247 C 2910.32 3.41921 4.09787 0
M  V30 30248 O 2910.54 2.63581 5.05847 0
M  V30 30249 O 2909.47 4.35267 4.15724 0
M  V30 30250 H 2913.3 2.76502 1.25619 0
M  V30 30251 H 2910.89 1.38607 0.557535 0
M  V30 30252 H 2912.77 2.14252 3.62869 0
M  V30 30253 H 2911.44 1.09888 3.04477 0
M  V30 30254 H 2910.35 3.16473 1.99489 0
M  V30 30255 H 2911.68 4.15327 2.64129 0
M  V30 30256 N 2913.34 -0.627313 1.44577 0
M  V30 30257 C 2914.58 -1.38885 1.4778 0
M  V30 30258 C 2914.91 -1.9388 0.11144 0
M  V30 30259 O 2914.19 -1.73885 -0.87146 0
M  V30 30260 C 2914.47 -2.55133 2.54124 0
M  V30 30261 C 2914.33 -2.05463 4.00131 0
M  V30 30262 C 2915.64 -3.57312 2.56936 0
M  V30 30263 H 2912.76 -0.50365 0.538057 0
M  V30 30264 H 2915.41 -0.708947 1.76278 0
M  V30 30265 H 2913.56 -3.13135 2.29954 0
M  V30 30266 H 2915.23 -1.52263 4.35447 0
M  V30 30267 H 2913.47 -1.36616 4.11726 0
M  V30 30268 H 2914.14 -2.89173 4.70195 0
M  V30 30269 H 2916.62 -3.09117 2.78542 0
M  V30 30270 H 2915.49 -4.36167 3.33241 0
M  V30 30271 H 2915.75 -4.11633 1.61277 0
M  V30 30272 N 2914.81 -1.31539 -0.868063 0
M  V30 30273 C 2916.04 -1.24435 -1.65924 0
M  V30 30274 C 2916.46 0.186903 -1.87169 0
M  V30 30275 O 2915.82 1.13369 -1.41482 0
M  V30 30276 C 2915.87 -1.99565 -3.00343 0
M  V30 30277 O 2914.97 -1.33429 -3.90218 0
M  V30 30278 H 2914.31 -0.429521 -0.506367 0
M  V30 30279 H 2916.84 -1.73639 -1.08216 0
M  V30 30280 H 2916.85 -2.09233 -3.50265 0
M  V30 30281 H 2915.53 -3.0365 -2.842 0
M  V30 30282 H 2914.11 -1.32225 -3.4867 0
M  V30 30283 N 2916.29 1.08262 -1.1453 0
M  V30 30284 C 2917.52 1.84416 -0.937996 0
M  V30 30285 C 2917.93 1.81682 0.513538 0
M  V30 30286 O 2917.29 1.22155 1.35589 0
M  V30 30287 C 2917.34 3.31894 -1.43277 0
M  V30 30288 O 2917.06 3.34646 -2.82744 0
M  V30 30289 C 2918.56 4.24849 -1.26562 0
M  V30 30290 H 2915.78 0.58213 -0.333714 0
M  V30 30291 H 2918.33 1.3672 -1.52078 0
M  V30 30292 H 2916.48 3.76974 -0.892719 0
M  V30 30293 H 2916.9 4.26718 -3.04978 0
M  V30 30294 H 2918.37 5.26436 -1.6604 0
M  V30 30295 H 2918.85 4.38704 -0.208666 0
M  V30 30296 H 2919.45 3.85597 -1.7943 0
M  V30 30297 N 2917.77 0.940655 1.26449 0
M  V30 30298 C 2919.19 0.642884 1.46079 0
M  V30 30299 C 2919.39 -0.803965 1.84766 0
M  V30 30300 O 2918.44 -1.58065 1.96905 0
M  V30 30301 C 2919.75 1.60386 2.54356 0
M  V30 30302 C 2921.3 1.6135 2.68207 0
M  V30 30303 C 2921.78 2.56176 3.79655 0
M  V30 30304 N 2923.27 2.54458 3.87047 0
M  V30 30305 C 2924 3.24516 4.72734 0
M  V30 30306 N 2923.5 4.03997 5.62813 0
M  V30 30307 N 2925.29 3.1347 4.66576 0
M  V30 30308 H 2917.44 1.87586 0.996256 0
M  V30 30309 H 2919.71 0.806099 0.498907 0
M  V30 30310 H 2919.41 2.63664 2.32754 0
M  V30 30311 H 2919.29 1.35552 3.52002 0
M  V30 30312 H 2921.67 0.587964 2.89183 0
M  V30 30313 H 2921.75 1.90238 1.71006 0
M  V30 30314 H 2921.4 3.58847 3.59432 0
M  V30 30315 H 2921.33 2.24578 4.76311 0
M  V30 30316 H 2923.82 1.96745 3.22645 0
M  V30 30317 H 2924.13 4.54407 6.25087 0
M  V30 30318 H 2922.48 4.08098 5.62566 0
M  V30 30319 H 2925.67 2.50859 3.95205 0
M  V30 30320 H 2925.84 3.68336 5.33134 0
M  V30 30321 N 2919.25 -1.40821 0.707617 0
M  V30 30322 C 2920.48 -2.05346 0.253109 0
M  V30 30323 C 2920.89 -1.53291 -1.10215 0
M  V30 30324 O 2920.25 -0.686135 -1.69111 0
M  V30 30325 C 2920.3 -3.60857 0.215474 0
M  V30 30326 O 2920.02 -4.10989 1.51721 0
M  V30 30327 C 2921.52 -4.42545 -0.258559 0
M  V30 30328 H 2918.74 -0.661025 0.115268 0
M  V30 30329 H 2921.28 -1.80375 0.963586 0
M  V30 30330 H 2919.44 -3.84825 -0.44591 0
M  V30 30331 H 2919.85 -5.05127 1.41235 0
M  V30 30332 H 2921.33 -5.51505 -0.233752 0
M  V30 30333 H 2921.8 -4.19537 -1.29943 0
M  V30 30334 H 2922.41 -4.23668 0.37226 0
M  V30 30335 N 2920.73 -0.453223 -1.50943 0
M  V30 30336 C 2921.95 0.108426 -2.07116 0
M  V30 30337 C 2922.38 1.34318 -1.31683 0
M  V30 30338 O 2921.73 1.77704 -0.359288 0
M  V30 30339 C 2921.78 0.393361 -3.58448 0
M  V30 30340 O 2920.89 1.47708 -3.85041 0
M  V30 30341 H 2920.23 -0.00511097 -0.66398 0
M  V30 30342 H 2922.76 -0.639129 -1.94361 0
M  V30 30343 H 2922.77 0.639151 -4.02963 0
M  V30 30344 H 2921.44 -0.509019 -4.12773 0
M  V30 30345 H 2920.02 1.22 -3.52378 0
M  V30 30346 N 2922.2 1.56509 -0.185151 0
M  V30 30347 C 2923.43 2.02114 0.465242 0
M  V30 30348 C 2923.85 1.0645 1.55081 0
M  V30 30349 O 2923.21 0.0463171 1.81241 0
M  V30 30350 C 2923.26 3.46231 1.00778 0
M  V30 30351 O 2922.36 3.53667 2.12117 0
M  V30 30352 H 2921.7 0.654845 0.10988 0
M  V30 30353 H 2924.23 2.0249 -0.293108 0
M  V30 30354 H 2924.24 3.8582 1.32691 0
M  V30 30355 H 2922.92 4.15354 0.21304 0
M  V30 30356 H 2921.5 3.25946 1.81144 0
M  V30 30357 N 2923.68 -0.0885089 1.57351 0
M  V30 30358 C 2924.91 -0.808017 1.91013 0
M  V30 30359 C 2925.33 -1.71164 0.780039 0
M  V30 30360 O 2924.69 -1.79307 -0.268051 0
M  V30 30361 C 2924.74 -1.59179 3.23565 0
M  V30 30362 O 2923.84 -2.70124 3.11619 0
M  V30 30363 H 2923.18 -0.221554 0.625947 0
M  V30 30364 H 2925.71 -0.0617594 2.04507 0
M  V30 30365 H 2925.72 -1.97461 3.57034 0
M  V30 30366 H 2924.4 -0.92867 4.05399 0
M  V30 30367 H 2922.97 -2.34822 2.89678 0
M  V30 30368 N 2925.16 -1.53445 -0.359498 0
M  V30 30369 C 2926.41 -1.69922 -1.10149 0
M  V30 30370 C 2926.73 -0.454133 -1.89124 0
M  V30 30371 O 2925.99 0.56399 -1.87397 0
M  V30 30372 C 2926.29 -2.90436 -2.08282 0
M  V30 30373 C 2925.95 -4.26697 -1.45741 0
M  V30 30374 C 2924.62 -4.63749 -1.28413 0
M  V30 30375 C 2926.97 -5.11409 -1.00548 0
M  V30 30376 C 2924.3 -5.83145 -0.644849 0
M  V30 30377 C 2926.65 -6.31457 -0.380177 0
M  V30 30378 C 2925.31 -6.67217 -0.19444 0
M  V30 30379 H 2924.58 -0.621788 -0.403065 0
M  V30 30380 H 2927.23 -1.87639 -0.382579 0
M  V30 30381 H 2925.53 -2.67256 -2.86499 0
M  V30 30382 H 2927.23 -3.00379 -2.65657 0
M  V30 30383 H 2923.82 -3.97526 -1.60223 0
M  V30 30384 H 2928.01 -4.83328 -1.12727 0
M  V30 30385 H 2923.26 -6.09438 -0.489413 0
M  V30 30386 H 2927.44 -6.96397 -0.0218231 0
M  V30 30387 H 2925.06 -7.59596 0.302983 0
M  V30 30388 N 2926.64 0.619637 -1.44908 0
M  V30 30389 C 2927.6 1.71295 -1.52285 0
M  V30 30390 C 2928.6 1.55652 -0.403617 0
M  V30 30391 O 2929.79 1.60938 -0.666667 0
M  V30 30392 C 2926.92 3.10472 -1.40783 0
M  V30 30393 H 2928.12 1.66124 -2.49686 0
M  V30 30394 H 2925.67 0.834315 -1.3217 0
M  V30 30395 H 2926.4 3.21229 -0.445212 0
M  V30 30396 H 2926.19 3.23233 -2.21952 0
M  V30 30397 H 2927.68 3.90132 -1.48952 0
M  V30 30398 N 2928.12 1.31997 0.861075 0
M  V30 30399 C 2929.08 1.20342 1.95065 0
M  V30 30400 C 2930.08 0.128143 1.60289 0
M  V30 30401 O 2931.27 0.378074 1.70048 0
M  V30 30402 C 2928.4 0.849263 3.30152 0
M  V30 30403 H 2929.59 2.17167 2.06829 0
M  V30 30404 H 2927.15 1.15736 1.05047 0
M  V30 30405 H 2927.88 -0.117451 3.24087 0
M  V30 30406 H 2927.67 1.62662 3.56768 0
M  V30 30407 H 2929.16 0.791854 4.10024 0
M  V30 30408 N 2929.59 -1.07653 1.15103 0
M  V30 30409 C 2930.56 -2.12949 0.847662 0
M  V30 30410 C 2931.56 -1.60088 -0.151199 0
M  V30 30411 O 2932.75 -1.74025 0.0780705 0
M  V30 30412 C 2929.88 -3.39868 0.26506 0
M  V30 30413 H 2931.07 -2.41293 1.78095 0
M  V30 30414 H 2928.63 -1.23492 0.958094 0
M  V30 30415 H 2929.36 -3.17164 -0.67657 0
M  V30 30416 H 2929.15 -3.79536 0.98462 0
M  V30 30417 H 2930.64 -4.17541 0.0702855 0
M  V30 30418 N 2931.07 -0.947348 -1.25949 0
M  V30 30419 C 2932.01 -0.406048 -2.24558 0
M  V30 30420 C 2932.98 0.50857 -1.54442 0
M  V30 30421 O 2934.17 0.444612 -1.83181 0
M  V30 30422 C 2931.29 0.415928 -3.36136 0
M  V30 30423 C 2930.34 -0.438043 -4.24245 0
M  V30 30424 S 2931.17 -1.8658 -5.01944 0
M  V30 30425 C 2932.33 -1.05205 -6.16995 0
M  V30 30426 H 2932.56 -1.24176 -2.70125 0
M  V30 30427 H 2930.1 -0.750898 -1.34911 0
M  V30 30428 H 2932.05 0.88426 -4.00863 0
M  V30 30429 H 2930.71 1.22638 -2.89169 0
M  V30 30430 H 2929.91 0.192038 -5.03634 0
M  V30 30431 H 2929.51 -0.841299 -3.64415 0
M  V30 30432 H 2931.8 -0.297245 -6.76848 0
M  V30 30433 H 2932.74 -1.81962 -6.84321 0
M  V30 30434 H 2933.15 -0.585393 -5.61456 0
M  V30 30435 N 2932.55 1.40444 -0.715075 0
M  V30 30436 C 2933.51 2.2909 -0.0709129 0
M  V30 30437 C 2934.51 1.45343 0.6879 0
M  V30 30438 O 2935.7 1.66262 0.519879 0
M  V30 30439 C 2932.84 3.28544 0.909471 0
M  V30 30440 H 2934.03 2.87553 -0.851661 0
M  V30 30441 H 2931.58 1.48757 -0.4797 0
M  V30 30442 H 2932.32 2.75099 1.71729 0
M  V30 30443 H 2932.1 3.90367 0.368249 0
M  V30 30444 H 2933.59 3.94924 1.35737 0
M  V30 30445 N 2934.03 0.461222 1.507 0
M  V30 30446 C 2935.44 0.114814 1.59186 0
M  V30 30447 C 2935.64 -1.37792 1.47023 0
M  V30 30448 O 2934.7 -2.15025 1.32365 0
M  V30 30449 C 2936.01 0.656218 2.93452 0
M  V30 30450 C 2937.56 0.618769 3.06823 0
M  V30 30451 C 2938.04 1.13755 4.43648 0
M  V30 30452 N 2939.53 1.09654 4.50034 0
M  V30 30453 C 2940.26 1.46856 5.54275 0
M  V30 30454 N 2939.76 1.9146 6.65819 0
M  V30 30455 N 2941.55 1.38521 5.44764 0
M  V30 30456 H 2933.7 1.43219 1.56851 0
M  V30 30457 H 2935.97 0.591663 0.740702 0
M  V30 30458 H 2935.67 1.70155 3.07799 0
M  V30 30459 H 2935.55 0.0942924 3.77082 0
M  V30 30460 H 2937.93 -0.417633 2.9213 0
M  V30 30461 H 2938.01 1.21738 2.24974 0
M  V30 30462 H 2937.66 2.17254 4.5909 0
M  V30 30463 H 2937.59 0.515245 5.24073 0
M  V30 30464 H 2940.08 0.769282 3.69987 0
M  V30 30465 H 2940.39 2.1802 7.41409 0
M  V30 30466 H 2938.74 1.95405 6.66965 0
M  V30 30467 H 2941.93 1.03524 4.56509 0
M  V30 30468 H 2942.1 1.67841 6.25886 0
M  V30 30469 N 2935.51 -1.56408 0.193449 0
M  V30 30470 C 2936.44 -2.22015 -0.723295 0
M  V30 30471 C 2937.42 -1.18272 -1.22252 0
M  V30 30472 O 2938.6 -1.46774 -1.27166 0
M  V30 30473 C 2935.73 -2.87822 -1.94361 0
M  V30 30474 C 2934.69 -3.97794 -1.57936 0
M  V30 30475 C 2934.01 -4.50757 -2.87615 0
M  V30 30476 C 2935.31 -5.16282 -0.790549 0
M  V30 30477 H 2937.01 -2.9888 -0.176373 0
M  V30 30478 H 2934.55 -1.43758 -0.0833914 0
M  V30 30479 H 2936.51 -3.324 -2.59014 0
M  V30 30480 H 2935.23 -2.08359 -2.51503 0
M  V30 30481 H 2933.89 -3.53904 -0.956419 0
M  V30 30482 H 2933.54 -3.68059 -3.42843 0
M  V30 30483 H 2933.24 -5.24961 -2.63988 0
M  V30 30484 H 2934.76 -4.98036 -3.53259 0
M  V30 30485 H 2936.17 -5.57416 -1.34015 0
M  V30 30486 H 2934.57 -5.96542 -0.652475 0
M  V30 30487 H 2935.64 -4.84451 0.208718 0
M  V30 30488 N 2936.98 0.0801629 -1.57396 0
M  V30 30489 C 2938.23 0.779351 -1.86469 0
M  V30 30490 C 2938.55 1.78533 -0.784274 0
M  V30 30491 O 2937.82 1.94996 0.187952 0
M  V30 30492 H 2936.4 0.290818 -0.688065 0
M  V30 30493 H 2939.07 0.0582406 -1.94813 0
M  V30 30494 H 2938.16 1.30073 -2.83703 0
M  V30 30495 N 2938.46 1.53634 0.351355 0
M  V30 30496 C 2939.71 1.70167 1.09031 0
M  V30 30497 C 2940.03 0.463456 1.89412 0
M  V30 30498 O 2939.3 -0.522591 1.88801 0
M  V30 30499 H 2937.88 0.627351 0.405511 0
M  V30 30500 H 2940.54 1.90865 0.39452 0
M  V30 30501 H 2939.64 2.5691 1.7721 0
M  V30 30502 N 2939.94 -0.611943 1.45234 0
M  V30 30503 C 2940.9 -1.70485 1.53192 0
M  V30 30504 C 2941.9 -1.55436 0.411866 0
M  V30 30505 O 2943.09 -1.60583 0.675192 0
M  V30 30506 C 2940.23 -3.09721 1.42428 0
M  V30 30507 H 2941.42 -1.64797 2.50563 0
M  V30 30508 H 2938.97 -0.827294 1.3261 0
M  V30 30509 H 2939.71 -3.20989 0.462241 0
M  V30 30510 H 2939.49 -3.22051 2.23663 0
M  V30 30511 H 2940.98 -3.89337 1.51019 0
M  V30 30512 N 2941.42 -1.32452 -0.854063 0
M  V30 30513 C 2942.66 -1.23228 -1.61067 0
M  V30 30514 C 2943 0.205315 -1.93112 0
M  V30 30515 O 2942.27 1.14262 -1.57399 0
M  V30 30516 C 2942.56 -2.09254 -2.93061 0
M  V30 30517 C 2942.41 -3.61395 -2.67794 0
M  V30 30518 C 2943.73 -1.95413 -3.94337 0
M  V30 30519 H 2940.85 -0.448996 -0.584441 0
M  V30 30520 H 2943.49 -1.62403 -0.98616 0
M  V30 30521 H 2941.64 -1.75974 -3.4636 0
M  V30 30522 H 2943.31 -4.04891 -2.21045 0
M  V30 30523 H 2941.55 -3.84031 -2.01749 0
M  V30 30524 H 2942.22 -4.16914 -3.61783 0
M  V30 30525 H 2944.7 -2.24568 -3.50297 0
M  V30 30526 H 2943.58 -2.5788 -4.8455 0
M  V30 30527 H 2943.84 -0.921941 -4.3238 0
M  V30 30528 N 2942.9 1.07041 -1.15672 0
M  V30 30529 C 2943.83 2.16308 -0.879386 0
M  V30 30530 C 2944.81 1.69235 0.171281 0
M  V30 30531 O 2945.99 1.94184 0.0249834 0
M  V30 30532 C 2943.12 3.45309 -0.371368 0
M  V30 30533 C 2942.08 4.05849 -1.35907 0
M  V30 30534 C 2941.4 5.29968 -0.709771 0
M  V30 30535 C 2942.7 4.4551 -2.72614 0
M  V30 30536 H 2944.4 2.39765 -1.79313 0
M  V30 30537 H 2941.94 1.15232 -0.863578 0
M  V30 30538 H 2943.9 4.21077 -0.164872 0
M  V30 30539 H 2942.62 3.21447 0.577849 0
M  V30 30540 H 2941.28 3.32128 -1.55198 0
M  V30 30541 H 2940.93 5.024 0.245694 0
M  V30 30542 H 2940.63 5.71431 -1.36896 0
M  V30 30543 H 2942.15 6.0844 -0.513122 0
M  V30 30544 H 2943.57 5.12393 -2.5715 0
M  V30 30545 H 2941.96 4.97934 -3.34936 0
M  V30 30546 H 2943.03 3.56728 -3.2844 0
M  V30 30547 N 2944.38 0.954014 1.25445 0
M  V30 30548 C 2945.6 0.625164 1.97754 0
M  V30 30549 C 2946.03 -0.795757 1.70439 0
M  V30 30550 O 2945.38 -1.53801 0.959947 0
M  V30 30551 C 2945.43 0.889313 3.49462 0
M  V30 30552 O 2944.54 -0.0322032 4.12387 0
M  V30 30553 H 2943.88 0.237753 0.619975 0
M  V30 30554 H 2946.41 1.28044 1.5958 0
M  V30 30555 H 2946.42 0.815333 3.9977 0
M  V30 30556 H 2945.09 1.92493 3.68672 0
M  V30 30557 H 2943.67 0.093928 3.72782 0
M  V30 30558 N 2945.85 -1.40063 0.722513 0
M  V30 30559 C 2947.1 -2.00758 0.265014 0
M  V30 30560 C 2947.43 -1.57304 -1.14393 0
M  V30 30561 O 2946.68 -0.78733 -1.79164 0
M  V30 30562 C 2946.98 -3.56132 0.300745 0
M  V30 30563 C 2946.65 -4.19194 1.66095 0
M  V30 30564 C 2945.31 -4.36133 2.03327 0
M  V30 30565 C 2947.66 -4.54301 2.5546 0
M  V30 30566 C 2944.99 -4.85464 3.29456 0
M  V30 30567 C 2947.34 -5.05036 3.80948 0
M  V30 30568 C 2946.01 -5.20183 4.18289 0
M  V30 30569 H 2945.28 -0.734627 0.0969754 0
M  V30 30570 H 2947.92 -1.67573 0.926906 0
M  V30 30571 H 2946.23 -3.89268 -0.444722 0
M  V30 30572 H 2947.93 -4.00937 -0.0711837 0
M  V30 30573 H 2944.52 -4.06402 1.36144 0
M  V30 30574 H 2948.7 -4.40845 2.27968 0
M  V30 30575 H 2943.96 -4.95376 3.58347 0
M  V30 30576 H 2948.13 -5.31176 4.50361 0
M  V30 30577 H 2945.76 -5.5817 5.16091 0
M  V30 30578 N 2947.33 -0.469207 -1.50453 0
M  V30 30579 C 2948.56 0.0864528 -2.0722 0
M  V30 30580 C 2948.98 1.32913 -1.331 0
M  V30 30581 O 2948.34 1.77313 -0.378115 0
M  V30 30582 C 2948.39 0.355321 -3.58845 0
M  V30 30583 O 2947.49 1.43615 -3.86586 0
M  V30 30584 H 2946.83 -0.0121531 -0.663889 0
M  V30 30585 H 2949.36 -0.659708 -1.93672 0
M  V30 30586 H 2949.37 0.596376 -4.03618 0
M  V30 30587 H 2948.05 -0.55277 -4.1221 0
M  V30 30588 H 2946.62 1.18256 -3.53652 0
M  V30 30589 N 2948.81 1.56303 -0.201741 0
M  V30 30590 C 2949.72 2.2301 0.728256 0
M  V30 30591 C 2950.74 1.2313 1.22943 0
M  V30 30592 O 2951.91 1.55886 1.2752 0
M  V30 30593 C 2948.98 2.88157 1.92787 0
M  V30 30594 C 2948.04 4.03326 1.47061 0
M  V30 30595 C 2947.27 4.65356 2.61304 0
M  V30 30596 O 2947.49 4.26323 3.78952 0
M  V30 30597 O 2946.43 5.54705 2.33637 0
M  V30 30598 H 2950.25 3.03104 0.190113 0
M  V30 30599 H 2947.84 1.49374 0.0278463 0
M  V30 30600 H 2949.72 3.29348 2.62884 0
M  V30 30601 H 2948.4 2.11037 2.45449 0
M  V30 30602 H 2947.3 3.66744 0.738234 0
M  V30 30603 H 2948.64 4.82129 0.990581 0
M  V30 30604 N 2950.29 -0.0718147 1.57436 0
M  V30 30605 C 2951.25 -1.06973 2.02705 0
M  V30 30606 C 2952.25 -1.31595 0.924085 0
M  V30 30607 O 2953.44 -1.27316 1.18896 0
M  V30 30608 C 2950.57 -2.41338 2.40767 0
M  V30 30609 H 2951.77 -0.679568 2.92099 0
M  V30 30610 H 2949.32 -0.317538 1.5304 0
M  V30 30611 H 2950.05 -2.85187 1.54399 0
M  V30 30612 H 2949.84 -2.24809 3.21253 0
M  V30 30613 H 2951.33 -3.13068 2.76366 0
M  V30 30614 N 2951.77 -1.53818 -0.343203 0
M  V30 30615 C 2952.99 -1.75019 -1.10345 0
M  V30 30616 C 2953.41 -0.489507 -1.82344 0
M  V30 30617 O 2952.77 0.538855 -1.74363 0
M  V30 30618 C 2952.82 -2.93052 -2.11667 0
M  V30 30619 O 2952.54 -4.14244 -1.42596 0
M  V30 30620 C 2954.04 -3.26307 -3.00065 0
M  V30 30621 H 2951.26 -0.584782 -0.329046 0
M  V30 30622 H 2953.8 -2.00643 -0.395304 0
M  V30 30623 H 2951.96 -2.69758 -2.78046 0
M  V30 30624 H 2952.37 -4.805 -2.10286 0
M  V30 30625 H 2953.85 -4.12245 -3.67094 0
M  V30 30626 H 2954.32 -2.42625 -3.66101 0
M  V30 30627 H 2954.93 -3.51608 -2.39274 0
M  V30 30628 N 2953.24 0.604233 -1.45557 0
M  V30 30629 C 2954.47 1.3946 -1.53512 0
M  V30 30630 C 2954.89 1.87333 -0.169671 0
M  V30 30631 O 2954.25 1.60335 0.846317 0
M  V30 30632 C 2954.3 2.57286 -2.52659 0
M  V30 30633 O 2953.4 3.58027 -2.04672 0
M  V30 30634 H 2952.74 0.416211 -0.517363 0
M  V30 30635 H 2955.27 0.735038 -1.90941 0
M  V30 30636 H 2955.28 3.04486 -2.71573 0
M  V30 30637 H 2953.96 2.2179 -3.51826 0
M  V30 30638 H 2952.54 3.17452 -1.95649 0
M  V30 30639 N 2954.72 1.32903 0.847027 0
M  V30 30640 C 2955.95 1.27059 1.63923 0
M  V30 30641 C 2956.37 -0.157103 1.87443 0
M  V30 30642 O 2955.73 -1.11103 1.43268 0
M  V30 30643 C 2955.78 2.04318 2.9713 0
M  V30 30644 O 2954.88 1.3962 3.88046 0
M  V30 30645 H 2954.22 0.437523 0.49947 0
M  V30 30646 H 2956.75 1.75338 1.0544 0
M  V30 30647 H 2956.76 2.14778 3.46892 0
M  V30 30648 H 2955.44 3.08133 2.79333 0
M  V30 30649 H 2954.01 1.37756 3.46522 0
M  V30 30650 N 2956.2 -1.06426 1.16238 0
M  V30 30651 C 2957.45 -1.79465 0.944462 0
M  V30 30652 C 2957.78 -1.86926 -0.526525 0
M  V30 30653 O 2957.05 -1.35988 -1.39059 0
M  V30 30654 C 2957.34 -3.24025 1.57097 0
M  V30 30655 C 2957.19 -3.24653 3.11321 0
M  V30 30656 C 2958.51 -4.21542 1.26454 0
M  V30 30657 H 2955.63 -0.651511 0.344533 0
M  V30 30658 H 2958.27 -1.24475 1.43548 0
M  V30 30659 H 2956.42 -3.70983 1.15343 0
M  V30 30660 H 2958.09 -2.85867 3.62047 0
M  V30 30661 H 2956.33 -2.63344 3.44721 0
M  V30 30662 H 2957.01 -4.26627 3.50277 0
M  V30 30663 H 2959.48 -3.8302 1.62588 0
M  V30 30664 H 2958.36 -5.2096 1.72894 0
M  V30 30665 H 2958.62 -4.4172 0.183146 0
M  V30 30666 N 2957.68 -0.960653 -1.24937 0
M  V30 30667 C 2958.61 -0.442976 -2.24879 0
M  V30 30668 C 2959.62 0.444437 -1.56616 0
M  V30 30669 O 2960.81 0.251745 -1.76716 0
M  V30 30670 C 2957.91 0.380477 -3.36757 0
M  V30 30671 C 2957.09 -0.49536 -4.34586 0
M  V30 30672 C 2956.14 0.270902 -5.25502 0
M  V30 30673 O 2955.17 -0.332761 -5.68226 0
M  V30 30674 N 2956.37 1.56239 -5.59079 0
M  V30 30675 H 2959.14 -1.30223 -2.6993 0
M  V30 30676 H 2956.7 -0.831684 -1.38905 0
M  V30 30677 H 2958.69 0.900961 -3.94544 0
M  V30 30678 H 2957.26 1.14062 -2.91047 0
M  V30 30679 H 2956.48 -1.19689 -3.75591 0
M  V30 30680 H 2957.77 -1.09294 -4.96923 0
M  V30 30681 H 2957.17 2.07466 -5.26283 0
M  V30 30682 H 2955.72 2.02871 -6.19424 0
M  V30 30683 N 2959.16 1.39677 -0.729931 0
M  V30 30684 C 2960.1 2.30637 -0.0866469 0
M  V30 30685 C 2961.07 1.48948 0.735089 0
M  V30 30686 O 2962.26 1.77649 0.696094 0
M  V30 30687 C 2959.4 3.35254 0.818465 0
M  V30 30688 C 2958.51 4.31997 -0.0153394 0
M  V30 30689 C 2957.65 5.23681 0.890577 0
M  V30 30690 C 2956.69 6.12078 0.051717 0
M  V30 30691 N 2955.82 6.96135 0.913289 0
M  V30 30692 H 2960.66 2.85079 -0.867975 0
M  V30 30693 H 2958.2 1.40375 -0.439697 0
M  V30 30694 H 2960.16 3.94493 1.35763 0
M  V30 30695 H 2958.79 2.8228 1.56582 0
M  V30 30696 H 2957.84 3.7442 -0.67186 0
M  V30 30697 H 2959.15 4.94358 -0.664173 0
M  V30 30698 H 2958.31 5.87922 1.49776 0
M  V30 30699 H 2957.04 4.61629 1.5732 0
M  V30 30700 H 2956.05 5.46855 -0.568305 0
M  V30 30701 H 2957.27 6.76194 -0.627616 0
M  V30 30702 H 2955.22 6.36656 1.5813 0
M  V30 30703 H 2955.14 7.55319 0.32082 0
M  V30 30704 H 2956.41 7.6481 1.5062 0
M  V30 30705 N 2960.63 0.47718 1.50202 0
M  V30 30706 C 2961.88 -0.0755534 2.01959 0
M  V30 30707 C 2962.2 -1.39666 1.36082 0
M  V30 30708 O 2961.47 -1.89194 0.508169 0
M  V30 30709 H 2960.05 -0.0309117 0.74636 0
M  V30 30710 H 2962.72 0.628991 1.84471 0
M  V30 30711 H 2961.81 -0.222628 3.11305 0
M  V30 30712 N 2962.11 -1.56194 0.210027 0
M  V30 30713 C 2963.02 -2.23393 -0.716419 0
M  V30 30714 C 2964.04 -1.2378 -1.22289 0
M  V30 30715 O 2965.21 -1.56561 -1.26692 0
M  V30 30716 C 2962.28 -2.89175 -1.91256 0
M  V30 30717 C 2961.34 -4.041 -1.4492 0
M  V30 30718 C 2960.57 -4.66735 -2.58832 0
M  V30 30719 O 2960.8 -4.28327 -3.76686 0
M  V30 30720 O 2959.73 -5.55936 -2.30692 0
M  V30 30721 H 2963.56 -3.03201 -0.174036 0
M  V30 30722 H 2961.14 -1.49387 -0.0199242 0
M  V30 30723 H 2963.02 -3.30737 -2.61134 0
M  V30 30724 H 2961.7 -2.12336 -2.44326 0
M  V30 30725 H 2960.61 -3.6713 -0.718775 0
M  V30 30726 H 2961.94 -4.82648 -0.964999 0
M  V30 30727 N 2963.59 0.0634645 -1.57472 0
M  V30 30728 C 2964.82 0.777526 -1.92274 0
M  V30 30729 C 2965.24 1.69901 -0.807171 0
M  V30 30730 O 2964.6 1.79711 0.239491 0
M  V30 30731 C 2964.65 1.54011 -3.26057 0
M  V30 30732 O 2963.75 2.65133 -3.15877 0
M  V30 30733 H 2963.09 0.211568 -0.629393 0
M  V30 30734 H 2965.62 0.0292164 -2.04579 0
M  V30 30735 H 2965.63 1.91756 -3.6013 0
M  V30 30736 H 2964.31 0.864057 -4.06825 0
M  V30 30737 H 2962.88 2.30184 -2.93377 0
M  V30 30738 N 2965.07 1.53998 0.33504 0
M  V30 30739 C 2966 1.85571 1.41724 0
M  V30 30740 C 2966.98 0.711528 1.54503 0
M  V30 30741 O 2968.16 0.964221 1.68572 0
M  V30 30742 C 2965.29 2.07287 2.78657 0
M  V30 30743 C 2964.25 3.23117 2.80677 0
M  V30 30744 C 2963.57 3.30182 4.20575 0
M  V30 30745 C 2964.87 4.61033 2.4545 0
M  V30 30746 H 2966.57 2.76204 1.1555 0
M  V30 30747 H 2964.11 1.32899 0.554421 0
M  V30 30748 H 2966.07 2.27959 3.54419 0
M  V30 30749 H 2964.79 1.13392 3.06284 0
M  V30 30750 H 2963.45 3.02314 2.07368 0
M  V30 30751 H 2963.1 2.33867 4.45326 0
M  V30 30752 H 2962.8 4.08024 4.22836 0
M  V30 30753 H 2964.32 3.53075 4.98167 0
M  V30 30754 H 2965.74 4.81662 3.10925 0
M  V30 30755 H 2964.13 5.4134 2.58981 0
M  V30 30756 H 2965.2 4.64063 1.4062 0
M  V30 30757 N 2966.55 -0.596505 1.45875 0
M  V30 30758 C 2967.51 -1.6885 1.54991 0
M  V30 30759 C 2968.51 -1.5499 0.428329 0
M  V30 30760 O 2969.7 -1.59858 0.692186 0
M  V30 30761 C 2966.83 -3.08193 1.45705 0
M  V30 30762 H 2968.02 -1.6213 2.52297 0
M  V30 30763 H 2965.58 -0.813183 1.3348 0
M  V30 30764 H 2966.31 -3.2048 0.496261 0
M  V30 30765 H 2966.1 -3.19661 2.27067 0
M  V30 30766 H 2967.59 -3.87713 1.5514 0
M  V30 30767 N 2968.02 -1.3335 -0.839967 0
M  V30 30768 C 2969.3 -1.15345 -1.57971 0
M  V30 30769 C 2969.68 0.280595 -2.09227 0
M  V30 30770 O 2969.03 1.27947 -1.8932 0
M  V30 30771 C 2969.24 -2.19363 -2.71442 0
M  V30 30772 C 2970.59 -2.53462 -3.4065 0
M  V30 30773 O 2971.61 -2.18022 -2.81682 0
M  V30 30774 O 2970.47 -3.14274 -4.47095 0
M  V30 30775 H 2967.56 -0.446056 -0.696393 0
M  V30 30776 H 2970.11 -1.44929 -0.882817 0
M  V30 30777 H 2968.88 -3.15694 -2.31199 0
M  V30 30778 H 2968.51 -1.90859 -3.48796 0
M  V30 30779 N 2969.5 1.05808 -1.16801 0
M  V30 30780 C 2970.73 1.82923 -0.977435 0
M  V30 30781 C 2971.15 1.82147 0.469482 0
M  V30 30782 O 2970.51 1.22588 1.33574 0
M  V30 30783 C 2970.56 3.27208 -1.51549 0
M  V30 30784 O 2969.66 4.05976 -0.725093 0
M  V30 30785 H 2969 0.565819 -0.347484 0
M  V30 30786 H 2971.53 1.33374 -1.55154 0
M  V30 30787 H 2971.54 3.7802 -1.53508 0
M  V30 30788 H 2970.22 3.27088 -2.56877 0
M  V30 30789 H 2968.8 3.64728 -0.776404 0
M  V30 30790 N 2970.98 0.967265 1.24426 0
M  V30 30791 C 2972.23 0.629846 1.92771 0
M  V30 30792 C 2972.56 -0.832797 1.75437 0
M  V30 30793 O 2971.83 -1.59911 1.10719 0
M  V30 30794 C 2972.12 1.00484 3.45796 0
M  V30 30795 C 2971.97 2.52414 3.723 0
M  V30 30796 C 2973.29 0.539076 4.36786 0
M  V30 30797 H 2970.41 0.230294 0.700095 0
M  V30 30798 H 2973.05 1.20619 1.46803 0
M  V30 30799 H 2971.2 0.514404 3.85079 0
M  V30 30800 H 2972.87 3.0893 3.42578 0
M  V30 30801 H 2971.12 2.95631 3.17466 0
M  V30 30802 H 2971.79 2.73702 4.79366 0
M  V30 30803 H 2974.26 0.959946 4.04876 0
M  V30 30804 H 2973.14 0.830022 5.42588 0
M  V30 30805 H 2973.4 -0.560846 4.38528 0
M  V30 30806 N 2972.46 -1.39288 0.737328 0
M  V30 30807 C 2973.39 -2.29123 0.0592509 0
M  V30 30808 C 2974.4 -1.46935 -0.701 0
M  V30 30809 O 2975.59 -1.69984 -0.544778 0
M  V30 30810 C 2972.69 -3.25594 -0.940301 0
M  V30 30811 C 2971.87 -4.36735 -0.241086 0
M  V30 30812 C 2970.93 -5.135 -1.14907 0
M  V30 30813 O 2969.95 -5.65751 -0.625684 0
M  V30 30814 N 2971.15 -5.24925 -2.4786 0
M  V30 30815 H 2973.92 -2.87957 0.830698 0
M  V30 30816 H 2971.48 -1.50894 0.586744 0
M  V30 30817 H 2973.47 -3.73825 -1.55039 0
M  V30 30818 H 2972.04 -2.67774 -1.61294 0
M  V30 30819 H 2971.26 -3.90351 0.549509 0
M  V30 30820 H 2972.55 -5.08218 0.243389 0
M  V30 30821 H 2971.95 -4.83996 -2.92856 0
M  V30 30822 H 2970.5 -5.76587 -3.03959 0
M  V30 30823 N 2973.94 -0.485139 -1.49947 0
M  V30 30824 C 2975.17 0.062246 -2.06806 0
M  V30 30825 C 2975.58 1.32253 -1.34739 0
M  V30 30826 O 2974.94 1.77581 -0.420867 0
M  V30 30827 C 2974.99 0.336033 -3.59935 0
M  V30 30828 O 2974.71 -0.874279 -4.29288 0
M  V30 30829 C 2976.21 0.928826 -4.3346 0
M  V30 30830 H 2973.43 -0.013359 -0.670867 0
M  V30 30831 H 2975.97 -0.677951 -1.92935 0
M  V30 30832 H 2974.13 1.02618 -3.73562 0
M  V30 30833 H 2974.54 -0.627424 -5.20734 0
M  V30 30834 H 2976.02 1.07008 -5.41529 0
M  V30 30835 H 2976.49 1.92258 -3.94884 0
M  V30 30836 H 2977.1 0.276631 -4.24399 0
M  V30 30837 N 2975.42 1.56081 -0.218307 0
M  V30 30838 C 2976.35 2.16105 0.733058 0
M  V30 30839 C 2977.33 1.10449 1.19331 0
M  V30 30840 O 2978.51 1.38688 1.27664 0
M  V30 30841 C 2975.64 2.73872 1.99279 0
M  V30 30842 C 2974.68 3.92327 1.67278 0
M  V30 30843 S 2975.52 5.29484 0.800417 0
M  V30 30844 C 2976.67 5.90687 2.06978 0
M  V30 30845 H 2976.91 2.96463 0.222865 0
M  V30 30846 H 2974.44 1.544 -0.0030366 0
M  V30 30847 H 2976.4 3.07794 2.71612 0
M  V30 30848 H 2975.06 1.93512 2.4741 0
M  V30 30849 H 2974.25 4.31237 2.60866 0
M  V30 30850 H 2973.85 3.59534 1.03009 0
M  V30 30851 H 2976.14 6.06463 3.02009 0
M  V30 30852 H 2977.09 6.86776 1.72464 0
M  V30 30853 H 2977.5 5.19491 2.20883 0
M  V30 30854 N 2976.89 -0.0551124 1.57504 0
M  V30 30855 C 2978.12 -0.767318 1.92684 0
M  V30 30856 C 2978.54 -1.69471 0.81617 0
M  V30 30857 O 2977.9 -1.79836 -0.229957 0
M  V30 30858 C 2977.95 -1.5228 3.26869 0
M  V30 30859 O 2977.05 -2.63454 3.17279 0
M  V30 30860 H 2976.39 -0.208227 0.630506 0
M  V30 30861 H 2978.92 -0.0183666 2.04592 0
M  V30 30862 H 2978.93 -1.89844 3.61142 0
M  V30 30863 H 2977.61 -0.84247 4.07278 0
M  V30 30864 H 2976.19 -2.28624 2.94593 0
M  V30 30865 N 2978.37 -1.54173 -0.326869 0
M  V30 30866 C 2979.61 -1.73943 -1.07346 0
M  V30 30867 C 2979.98 -0.500782 -1.85354 0
M  V30 30868 O 2981.18 -0.575777 -2.62561 0
M  V30 30869 C 2979.45 -2.97787 -1.9763 0
M  V30 30870 S 2981.01 -3.38445 -2.79286 0
M  V30 30871 H 2977.82 -0.61168 -0.362448 0
M  V30 30872 H 2980.43 -1.92344 -0.34985 0
M  V30 30873 H 2979.13 -3.86089 -1.39151 0
M  V30 30874 H 2978.66 -2.819 -2.74402 0
M  V30 30875 H 2980.68 -2.93485 -4.00101 0
M  V30 30876 N 2979.85 0.58876 -1.4619 0
M  V30 30877 C 2981.08 1.37137 -1.54522 0
M  V30 30878 C 2981.49 1.88312 -0.183108 0
M  V30 30879 O 2980.83 1.63942 0.828786 0
M  V30 30880 C 2980.89 2.59851 -2.4843 0
M  V30 30881 C 2980.56 2.30186 -3.94795 0
M  V30 30882 C 2981.55 1.89391 -4.84176 0
M  V30 30883 C 2979.24 2.42517 -4.39876 0
M  V30 30884 C 2981.23 1.61314 -6.16649 0
M  V30 30885 C 2978.92 2.14053 -5.72385 0
M  V30 30886 C 2979.92 1.73515 -6.60592 0
M  V30 30887 O 2979.61 1.45396 -7.90642 0
M  V30 30888 H 2979.34 0.425518 -0.525272 0
M  V30 30889 H 2981.89 0.72331 -1.92243 0
M  V30 30890 H 2980.12 3.27442 -2.05715 0
M  V30 30891 H 2981.81 3.21915 -2.47236 0
M  V30 30892 H 2982.58 1.79385 -4.50606 0
M  V30 30893 H 2978.46 2.73033 -3.71448 0
M  V30 30894 H 2982 1.29599 -6.85456 0
M  V30 30895 H 2977.9 2.23682 -6.05505 0
M  V30 30896 H 2978.66 1.59292 -8.0285 0
M  V30 30897 N 2981.33 1.33794 0.832883 0
M  V30 30898 C 2982.29 1.24452 1.92469 0
M  V30 30899 C 2983.29 0.162113 1.59981 0
M  V30 30900 O 2984.48 0.414058 1.69208 0
M  V30 30901 C 2981.61 0.919102 3.28276 0
M  V30 30902 H 2982.81 2.21506 2.02176 0
M  V30 30903 H 2980.36 1.17938 1.02568 0
M  V30 30904 H 2981.09 -0.048681 3.24263 0
M  V30 30905 H 2980.88 1.70193 3.53238 0
M  V30 30906 H 2982.37 0.878648 4.08252 0
M  V30 30907 N 2982.81 -1.05187 1.1736 0
M  V30 30908 C 2984.08 -1.7509 0.871944 0
M  V30 30909 C 2984.46 -2.01549 -0.627785 0
M  V30 30910 O 2983.81 -1.65159 -1.57907 0
M  V30 30911 C 2984.02 -3.0441 1.70692 0
M  V30 30912 C 2985.37 -3.78359 1.92691 0
M  V30 30913 O 2986.39 -3.14279 1.67651 0
M  V30 30914 O 2985.25 -4.93501 2.34774 0
M  V30 30915 H 2982.35 -0.761381 0.322845 0
M  V30 30916 H 2984.89 -1.11355 1.28056 0
M  V30 30917 H 2983.66 -2.80906 2.7241 0
M  V30 30918 H 2983.29 -3.75882 1.29608 0
M  V30 30919 N 2984.28 -0.97385 -1.23911 0
M  V30 30920 C 2985.53 -0.64006 -1.92435 0
M  V30 30921 C 2985.86 0.823481 -1.75876 0
M  V30 30922 O 2985.14 1.59321 -1.11566 0
M  V30 30923 C 2985.42 -1.02316 -3.45259 0
M  V30 30924 C 2985.27 -2.54385 -3.70956 0
M  V30 30925 C 2986.59 -0.562232 -4.36494 0
M  V30 30926 H 2983.71 -0.234004 -0.698864 0
M  V30 30927 H 2986.35 -1.21396 -1.46161 0
M  V30 30928 H 2984.5 -0.534819 -3.84801 0
M  V30 30929 H 2986.18 -3.10743 -3.40935 0
M  V30 30930 H 2984.42 -2.9731 -3.15894 0
M  V30 30931 H 2985.09 -2.7624 -4.77907 0
M  V30 30932 H 2987.57 -0.981404 -4.04361 0
M  V30 30933 H 2986.44 -0.858785 -5.4214 0
M  V30 30934 H 2986.7 0.537582 -4.38819 0
M  V30 30935 N 2985.76 1.38895 -0.744705 0
M  V30 30936 C 2987.01 2.00608 -0.297359 0
M  V30 30937 C 2987.34 1.5897 1.11544 0
M  V30 30938 O 2986.62 0.823088 1.76226 0
M  V30 30939 C 2986.9 3.57756 -0.410188 0
M  V30 30940 C 2986.75 4.09384 -1.86345 0
M  V30 30941 C 2988.07 4.39638 0.201683 0
M  V30 30942 H 2985.19 0.728817 -0.109522 0
M  V30 30943 H 2987.83 1.64965 -0.942682 0
M  V30 30944 H 2985.98 3.8825 0.139219 0
M  V30 30945 H 2987.65 3.8957 -2.47049 0
M  V30 30946 H 2985.9 3.62582 -2.38153 0
M  V30 30947 H 2986.57 5.18504 -1.89361 0
M  V30 30948 H 2989.04 4.15244 -0.266776 0
M  V30 30949 H 2987.92 5.48822 0.0924451 0
M  V30 30950 H 2988.18 4.22894 1.28892 0
M  V30 30951 N 2987.24 0.493084 1.49688 0
M  V30 30952 C 2988.49 -0.0543162 2.02727 0
M  V30 30953 C 2988.82 -1.37373 1.37267 0
M  V30 30954 O 2988.09 -1.87811 0.505677 0
M  V30 30955 C 2988.38 -0.215162 3.59457 0
M  V30 30956 C 2988.23 1.12682 4.35457 0
M  V30 30957 C 2989.55 -0.959511 4.29513 0
M  V30 30958 H 2986.67 -0.0182657 0.736774 0
M  V30 30959 H 2989.31 0.642956 1.78791 0
M  V30 30960 H 2987.46 -0.809055 3.79982 0
M  V30 30961 H 2989.13 1.75899 4.26447 0
M  V30 30962 H 2987.38 1.71808 3.98327 0
M  V30 30963 H 2988.05 0.967673 5.43452 0
M  V30 30964 H 2990.52 -0.455904 4.13595 0
M  V30 30965 H 2989.4 -1.04088 5.3894 0
M  V30 30966 H 2989.66 -2.00137 3.94205 0
M  V30 30967 N 2988.72 -1.55963 0.226582 0
M  V30 30968 C 2989.65 -2.23499 -0.67604 0
M  V30 30969 C 2990.63 -1.20839 -1.19716 0
M  V30 30970 O 2991.81 -1.49438 -1.24024 0
M  V30 30971 C 2988.94 -2.91879 -1.88212 0
M  V30 30972 C 2987.9 -4.01055 -1.49463 0
M  V30 30973 C 2987.22 -4.56756 -2.77989 0
M  V30 30974 C 2988.52 -5.17843 -0.68086 0
M  V30 30975 H 2990.22 -2.99187 -0.112937 0
M  V30 30976 H 2987.76 -1.43903 -0.0528793 0
M  V30 30977 H 2989.72 -3.37819 -2.51905 0
M  V30 30978 H 2988.44 -2.13647 -2.47027 0
M  V30 30979 H 2987.1 -3.55853 -0.881136 0
M  V30 30980 H 2986.75 -3.75248 -3.34959 0
M  V30 30981 H 2986.45 -5.30442 -2.52794 0
M  V30 30982 H 2987.97 -5.05417 -3.42616 0
M  V30 30983 H 2989.39 -5.60134 -1.22161 0
M  V30 30984 H 2987.78 -5.97792 -0.525793 0
M  V30 30985 H 2988.85 -4.83899 0.311431 0
M  V30 30986 N 2990.2 0.0467589 -1.57531 0
M  V30 30987 C 2991.61 0.40208 -1.54452 0
M  V30 30988 C 2991.81 1.77683 -0.950306 0
M  V30 30989 O 2990.87 2.46129 -0.563645 0
M  V30 30990 C 2992.18 0.32016 -2.98991 0
M  V30 30991 C 2993.73 0.398534 -3.10452 0
M  V30 30992 C 2994.2 0.346255 -4.56689 0
M  V30 30993 N 2995.7 0.405584 -4.61421 0
M  V30 30994 C 2996.43 0.387745 -5.72087 0
M  V30 30995 N 2995.93 0.323238 -6.92046 0
M  V30 30996 N 2997.72 0.436165 -5.60405 0
M  V30 30997 H 2989.87 -0.853121 -1.94514 0
M  V30 30998 H 2992.13 -0.322685 -0.891391 0
M  V30 30999 H 2991.84 -0.623855 -3.46123 0
M  V30 31000 H 2991.71 1.12073 -3.60166 0
M  V30 31001 H 2994.1 1.33298 -2.63279 0
M  V30 31002 H 2994.18 -0.43107 -2.52142 0
M  V30 31003 H 2993.83 -0.584445 -5.04526 0
M  V30 31004 H 2993.76 1.19373 -5.12891 0
M  V30 31005 H 2996.25 0.458671 -3.75106 0
M  V30 31006 H 2996.56 0.31424 -7.72161 0
M  V30 31007 H 2994.9 0.289548 -6.94397 0
M  V30 31008 H 2998.1 0.484428 -4.65587 0
M  V30 31009 H 2998.27 0.418793 -6.46645 0
M  V30 31010 N 2991.67 1.54344 0.318688 0
M  V30 31011 C 2992.62 1.80451 1.39361 0
M  V30 31012 C 2993.61 0.660754 1.46707 0
M  V30 31013 O 2994.8 0.920896 1.51157 0
M  V30 31014 C 2991.93 2.03964 2.76141 0
M  V30 31015 C 2991.02 3.24474 2.73089 0
M  V30 31016 N 2991.41 4.4542 2.39655 0
M  V30 31017 C 2989.7 3.26145 3.04212 0
M  V30 31018 C 2990.41 5.27375 2.4546 0
M  V30 31019 N 2989.38 4.64673 2.82099 0
M  V30 31020 H 2993.18 2.71537 1.12448 0
M  V30 31021 H 2990.7 1.53605 0.527194 0
M  V30 31022 H 2992.69 2.20808 3.53623 0
M  V30 31023 H 2991.35 1.14134 3.0398 0
M  V30 31024 H 2992.37 4.72334 2.12416 0
M  V30 31025 H 2989.04 2.46365 3.37061 0
M  V30 31026 H 2990.43 6.33969 2.2256 0
M  V30 31027 N 2993.15 -0.580999 1.465 0
M  V30 31028 C 2994.56 -1.16312 1.46042 0
M  V30 31029 C 2994.91 -1.95155 0.202188 0
M  V30 31030 O 2994.04 -2.04949 -0.694602 0
M  V30 31031 C 2994.63 -2.11599 2.64596 0
M  V30 31032 C 2993.19 -2.65132 2.67174 0
M  V30 31033 C 2992.34 -1.41036 2.38756 0
M  V30 31034 H 2995.29 -0.368844 1.54354 0
M  V30 31035 H 2995.31 -2.95091 2.40212 0
M  V30 31036 H 2994.82 -1.54188 3.56157 0
M  V30 31037 H 2992.93 -3.26408 1.79691 0
M  V30 31038 H 2993.04 -3.0775 3.67188 0
M  V30 31039 H 2991.4 -1.70905 1.88848 0
M  V30 31040 H 2992.19 -0.854529 3.32495 0
M  V30 31041 N 2994.63 -1.34234 -0.825776 0
M  V30 31042 C 2995.56 -1.21416 -1.94399 0
M  V30 31043 C 2996.58 -0.14193 -1.6218 0
M  V30 31044 O 2997.76 -0.393531 -1.74108 0
M  V30 31045 C 2994.86 -0.842693 -3.28256 0
M  V30 31046 C 2994.04 -2.00931 -3.88517 0
M  V30 31047 C 2993.1 -1.6167 -5.00749 0
M  V30 31048 O 2992.12 -2.33288 -5.19197 0
M  V30 31049 N 2993.32 -0.529212 -5.78083 0
M  V30 31050 H 2996.09 -2.17748 -2.05927 0
M  V30 31051 H 2993.65 -1.27151 -1.00221 0
M  V30 31052 H 2995.64 -0.561892 -4.0078 0
M  V30 31053 H 2994.21 0.0303479 -3.12585 0
M  V30 31054 H 2993.43 -2.455 -3.08421 0
M  V30 31055 H 2994.72 -2.78959 -4.25511 0
M  V30 31056 H 2994.12 0.0662328 -5.65661 0
M  V30 31057 H 2992.68 -0.308132 -6.51071 0
M  V30 31058 N 2996.11 1.04563 -1.17917 0
M  V30 31059 C 2997.52 1.59132 -0.976411 0
M  V30 31060 C 2997.87 1.90357 0.475233 0
M  V30 31061 O 2997 1.68992 1.35169 0
M  V30 31062 C 2997.59 2.89127 -1.76609 0
M  V30 31063 C 2996.15 3.40332 -1.60783 0
M  V30 31064 C 2995.3 2.13982 -1.76372 0
M  V30 31065 H 2998.25 0.872962 -1.32533 0
M  V30 31066 H 2998.27 3.59305 -1.25222 0
M  V30 31067 H 2997.78 2.6637 -2.82257 0
M  V30 31068 H 2995.88 3.68113 -0.576501 0
M  V30 31069 H 2995.99 4.14493 -2.40275 0
M  V30 31070 H 2994.36 2.25047 -1.19272 0
M  V30 31071 H 2995.14 1.93685 -2.83445 0
M  V30 31072 N 2997.59 0.980408 1.23393 0
M  V30 31073 C 2998.83 0.648012 1.91429 0
M  V30 31074 C 2999.16 -0.821035 1.76873 0
M  V30 31075 O 2998.43 -1.5873 1.14811 0
M  V30 31076 H 2997.01 0.236685 0.708512 0
M  V30 31077 H 2999.67 1.24422 1.50017 0
M  V30 31078 H 2998.76 0.899645 2.98852 0
M  V30 31079 N 2999.06 -1.38498 0.75206 0
M  V30 31080 C 3000.03 -2.28822 0.131627 0
M  V30 31081 C 3001.03 -1.47116 -0.649123 0
M  V30 31082 O 3002.22 -1.67581 -0.475615 0
M  V30 31083 C 2999.35 -3.3084 -0.822043 0
M  V30 31084 H 3000.54 -2.85194 0.927601 0
M  V30 31085 H 2998.1 -1.47433 0.518971 0
M  V30 31086 H 2998.83 -2.79556 -1.64375 0
M  V30 31087 H 2998.62 -3.91206 -0.264621 0
M  V30 31088 H 3000.11 -3.98384 -1.25219 0
M  V30 31089 N 3000.54 -0.501015 -1.49424 0
M  V30 31090 C 3001.79 0.0435643 -2.02753 0
M  V30 31091 C 3002.12 1.36644 -1.37993 0
M  V30 31092 O 3001.4 1.87541 -0.51563 0
M  V30 31093 C 3001.68 0.196097 -3.59566 0
M  V30 31094 C 3001.53 -1.1499 -4.34853 0
M  V30 31095 C 3002.85 0.936719 -4.30016 0
M  V30 31096 H 2999.97 0.0143581 -0.73686 0
M  V30 31097 H 3002.61 -0.652428 -1.78447 0
M  V30 31098 H 3000.76 0.788892 -3.80406 0
M  V30 31099 H 3002.43 -1.78158 -4.25509 0
M  V30 31100 H 3000.68 -1.73918 -3.97411 0
M  V30 31101 H 3001.35 -0.99648 -5.42931 0
M  V30 31102 H 3003.82 0.433964 -4.13831 0
M  V30 31103 H 3002.7 1.01229 -5.39485 0
M  V30 31104 H 3002.96 1.98043 -3.95261 0
M  V30 31105 N 3002.02 1.5584 -0.234849 0
M  V30 31106 C 3002.93 2.24505 0.680789 0
M  V30 31107 C 3003.95 1.2571 1.20304 0
M  V30 31108 O 3005.12 1.58556 1.24185 0
M  V30 31109 C 3002.19 2.92181 1.86631 0
M  V30 31110 C 3001.25 4.06354 1.38473 0
M  V30 31111 C 3000.48 4.70794 2.51374 0
M  V30 31112 O 3000.71 4.34265 3.69824 0
M  V30 31113 O 2999.64 5.59536 2.21818 0
M  V30 31114 H 3003.47 3.03439 0.125777 0
M  V30 31115 H 3001.05 1.494 -0.00384443 0
M  V30 31116 H 3002.93 3.3485 2.55839 0
M  V30 31117 H 3001.61 2.16196 2.40917 0
M  V30 31118 H 3000.51 3.68227 0.660276 0
M  V30 31119 H 3001.85 4.84122 0.888092 0
M  V30 31120 N 3003.5 -0.038404 1.57553 0
M  V30 31121 C 3004.43 -1.04158 2.08982 0
M  V30 31122 C 3005.41 -1.383 0.990314 0
M  V30 31123 O 3006.6 -1.47347 1.26502 0
M  V30 31124 C 3003.73 -2.34531 2.56149 0
M  V30 31125 C 3002.68 -2.14656 3.70279 0
M  V30 31126 C 3002.01 -3.50708 4.03618 0
M  V30 31127 C 3003.31 -1.54036 4.99069 0
M  V30 31128 H 3005 -0.613497 2.93047 0
M  V30 31129 H 3002.55 -0.293659 1.40974 0
M  V30 31130 H 3004.5 -3.05032 2.90747 0
M  V30 31131 H 3003.22 -2.79382 1.69155 0
M  V30 31132 H 3001.88 -1.46591 3.36016 0
M  V30 31133 H 3001.53 -3.9319 3.13705 0
M  V30 31134 H 3001.23 -3.38238 4.80488 0
M  V30 31135 H 3002.75 -4.22586 4.40742 0
M  V30 31136 H 3004.17 -2.14442 5.31684 0
M  V30 31137 H 3002.56 -1.52168 5.80487 0
M  V30 31138 H 3003.63 -0.505174 4.82261 0
M  V30 31139 N 3004.98 -1.54511 -0.310498 0
M  V30 31140 C 3005.94 -1.84071 -1.36567 0
M  V30 31141 C 3006.94 -0.713122 -1.44122 0
M  V30 31142 O 3008.13 -0.981424 -1.43923 0
M  V30 31143 C 3005.26 -2.01248 -2.75159 0
M  V30 31144 H 3006.46 -2.7836 -1.11605 0
M  V30 31145 H 3004.01 -1.46428 -0.546674 0
M  V30 31146 H 3004.74 -1.09214 -3.05357 0
M  V30 31147 H 3004.53 -2.83311 -2.71067 0
M  V30 31148 H 3006.02 -2.2552 -3.51469 0
M  V30 31149 N 3006.46 0.573222 -1.46806 0
M  V30 31150 C 3007.42 1.66363 -1.57658 0
M  V30 31151 C 3008.42 1.54289 -0.452932 0
M  V30 31152 O 3009.61 1.58736 -0.71753 0
M  V30 31153 C 3006.74 3.05836 -1.5059 0
M  V30 31154 H 3007.93 1.58096 -2.54844 0
M  V30 31155 H 3005.49 0.791844 -1.34757 0
M  V30 31156 H 3006.22 3.1965 -0.547183 0
M  V30 31157 H 3006.01 3.16008 -2.32123 0
M  V30 31158 H 3007.5 3.85196 -1.61289 0
M  V30 31159 N 3007.93 1.3467 0.818645 0
M  V30 31160 C 3008.88 1.26599 1.9298 0
M  V30 31161 C 3009.85 0.140345 1.65506 0
M  V30 31162 O 3011.04 0.322038 1.88063 0
M  V30 31163 C 3008.18 1.03169 3.29318 0
M  V30 31164 C 3007.29 2.24546 3.69057 0
M  V30 31165 C 3006.42 1.94364 4.94364 0
M  V30 31166 C 3005.46 3.1186 5.26697 0
M  V30 31167 N 3004.6 2.81534 6.43182 0
M  V30 31168 H 3009.44 2.21624 1.99216 0
M  V30 31169 H 3006.98 1.10182 0.974593 0
M  V30 31170 H 3008.93 0.876201 4.07895 0
M  V30 31171 H 3007.56 0.118102 3.22584 0
M  V30 31172 H 3006.62 2.51 2.85838 0
M  V30 31173 H 3007.93 3.12319 3.88919 0
M  V30 31174 H 3007.08 1.75576 5.80739 0
M  V30 31175 H 3005.82 1.03857 4.76514 0
M  V30 31176 H 3004.83 3.31239 4.38817 0
M  V30 31177 H 3006.05 4.03152 5.46484 0
M  V30 31178 H 3004 1.93607 6.26779 0
M  V30 31179 H 3003.91 3.6284 6.63237 0
M  V30 31180 H 3005.18 2.6626 7.32616 0
M  V30 31181 N 3009.41 -1.03936 1.1847 0
M  V30 31182 C 3010.36 -2.10298 0.880836 0
M  V30 31183 C 3011.35 -1.60199 -0.14998 0
M  V30 31184 O 3012.54 -1.76917 0.0542441 0
M  V30 31185 C 3009.67 -3.40846 0.409783 0
M  V30 31186 C 3008.75 -3.97707 1.47274 0
M  V30 31187 N 3009.14 -4.28367 2.68953 0
M  V30 31188 C 3007.44 -4.25596 1.33357 0
M  V30 31189 C 3008.14 -4.73889 3.37349 0
M  V30 31190 N 3007.12 -4.74781 2.64733 0
M  V30 31191 H 3010.92 -2.31881 1.80578 0
M  V30 31192 H 3008.43 -1.21701 1.07529 0
M  V30 31193 H 3010.43 -4.16538 0.173594 0
M  V30 31194 H 3009.09 -3.20689 -0.508806 0
M  V30 31195 H 3010.1 -4.17973 3.05809 0
M  V30 31196 H 3006.78 -4.14759 0.477621 0
M  V30 31197 H 3008.17 -5.06619 4.41346 0
M  V30 31198 N 3010.89 -0.986938 -1.22871 0
M  V30 31199 C 3012.13 -0.667577 -1.93191 0
M  V30 31200 C 3012.49 0.785165 -1.75212 0
M  V30 31201 O 3013.69 1.21566 -2.3974 0
M  V30 31202 C 3011.97 -1.05519 -3.41468 0
M  V30 31203 S 3013.52 -0.853293 -4.30423 0
M  V30 31204 H 3010.34 -0.244273 -0.667721 0
M  V30 31205 H 3012.94 -1.26796 -1.48805 0
M  V30 31206 H 3011.65 -2.10898 -3.52065 0
M  V30 31207 H 3011.18 -0.446362 -3.9086 0
M  V30 31208 H 3013.19 0.259357 -4.95522 0
M  V30 31209 N 3012.37 1.38098 -0.759394 0
M  V30 31210 C 3013.78 1.53483 -0.437633 0
M  V30 31211 C 3013.98 1.72074 1.04846 0
M  V30 31212 O 3013.04 1.73506 1.83445 0
M  V30 31213 C 3014.35 2.73855 -1.24194 0
M  V30 31214 C 3015.9 2.87708 -1.2326 0
M  V30 31215 C 3016.38 4.11048 -2.01999 0
M  V30 31216 N 3017.87 4.18136 -1.99289 0
M  V30 31217 C 3018.6 5.12578 -2.57005 0
M  V30 31218 N 3018.1 6.12656 -3.23457 0
M  V30 31219 N 3019.89 5.04971 -2.46903 0
M  V30 31220 H 3012.04 1.2428 -1.72245 0
M  V30 31221 H 3014.3 0.604192 -0.730518 0
M  V30 31222 H 3014.01 2.66541 -2.29454 0
M  V30 31223 H 3013.88 3.67201 -0.862736 0
M  V30 31224 H 3016.27 2.945 -0.18804 0
M  V30 31225 H 3016.35 1.95356 -1.65136 0
M  V30 31226 H 3016 4.05017 -3.06469 0
M  V30 31227 H 3015.93 5.02491 -1.57513 0
M  V30 31228 H 3018.42 3.46465 -1.50899 0
M  V30 31229 H 3018.73 6.81224 -3.64902 0
M  V30 31230 H 3017.08 6.12971 -3.27553 0
M  V30 31231 H 3020.27 4.25728 -1.94611 0
M  V30 31232 H 3020.44 5.78391 -2.92178 0
M  V30 31233 N 3013.85 0.508932 1.49156 0
M  V30 31234 C 3015.26 0.1654 1.58741 0
M  V30 31235 C 3015.46 -1.33045 1.51332 0
M  V30 31236 O 3014.52 -2.10705 1.39139 0
M  V30 31237 C 3015.83 0.749246 2.91216 0
M  V30 31238 C 3017.38 0.716069 3.04699 0
M  V30 31239 C 3017.85 1.27812 4.39805 0
M  V30 31240 N 3019.34 1.23916 4.46317 0
M  V30 31241 C 3020.08 1.64416 5.49322 0
M  V30 31242 N 3019.58 2.12545 6.59391 0
M  V30 31243 N 3021.37 1.55783 5.40082 0
M  V30 31244 H 3013.52 1.48136 1.52215 0
M  V30 31245 H 3015.78 0.614928 0.721504 0
M  V30 31246 H 3015.49 1.79862 3.0223 0
M  V30 31247 H 3015.36 0.21421 3.76591 0
M  V30 31248 H 3017.75 -0.324483 2.93311 0
M  V30 31249 H 3017.83 1.28834 2.20987 0
M  V30 31250 H 3017.47 2.31749 4.51946 0
M  V30 31251 H 3017.4 0.681714 5.22169 0
M  V30 31252 H 3019.9 0.886602 3.67352 0
M  V30 31253 H 3020.21 2.41497 7.34097 0
M  V30 31254 H 3018.55 2.16525 6.6041 0
M  V30 31255 H 3021.74 1.17995 4.52984 0
M  V30 31256 H 3021.92 1.87668 6.2023 0
M  V30 31257 N 3015.32 -1.55714 0.243111 0
M  V30 31258 C 3016.73 -1.8487 -0.260755 0
M  V30 31259 C 3017.09 -1.16488 -1.57877 0
M  V30 31260 O 3016.21 -0.441945 -2.11839 0
M  V30 31261 C 3016.81 -3.35384 -0.479895 0
M  V30 31262 C 3015.36 -3.6478 -0.928031 0
M  V30 31263 C 3014.51 -2.773 -0.00311542 0
M  V30 31264 H 3017.46 -1.51711 0.46577 0
M  V30 31265 H 3017.48 -3.56758 -1.32302 0
M  V30 31266 H 3017 -3.85126 0.479536 0
M  V30 31267 H 3015.1 -3.20513 -1.90006 0
M  V30 31268 H 3015.21 -4.72583 -0.787516 0
M  V30 31269 H 3013.57 -2.49464 -0.513805 0
M  V30 31270 H 3014.36 -3.29847 0.95162 0
M  V30 31271 N 3016.8 0.030048 -1.57571 0
M  V30 31272 C 3018.05 0.722126 -1.89508 0
M  V30 31273 C 3018.38 1.75058 -0.84073 0
M  V30 31274 O 3017.66 1.93964 0.144324 0
M  V30 31275 C 3017.94 1.39256 -3.32084 0
M  V30 31276 C 3017.79 0.377689 -4.48212 0
M  V30 31277 C 3019.11 2.3268 -3.73561 0
M  V30 31278 H 3016.23 0.261051 -0.689218 0
M  V30 31279 H 3018.87 -0.0150722 -1.89994 0
M  V30 31280 H 3017.02 2.02092 -3.318 0
M  V30 31281 H 3018.69 -0.248672 -4.60629 0
M  V30 31282 H 3016.94 -0.303121 -4.3274 0
M  V30 31283 H 3017.61 0.885251 -5.44855 0
M  V30 31284 H 3020.08 1.7989 -3.75205 0
M  V30 31285 H 3018.96 2.76571 -4.7413 0
M  V30 31286 H 3019.22 3.19312 -3.05765 0
M  V30 31287 N 3018.28 1.54674 0.3023 0
M  V30 31288 C 3019.53 1.73102 1.0353 0
M  V30 31289 C 3019.84 0.523207 1.88473 0
M  V30 31290 O 3021.05 0.589275 2.65028 0
M  V30 31291 C 3019.5 3.06256 1.89038 0
M  V30 31292 C 3019.11 4.34511 1.09105 0
M  V30 31293 C 3020.86 3.34043 2.61945 0
M  V30 31294 C 3018.76 5.58716 1.93882 0
M  V30 31295 H 3017.69 0.645152 0.390249 0
M  V30 31296 H 3020.34 1.81156 0.292369 0
M  V30 31297 H 3018.73 2.92163 2.67313 0
M  V30 31298 H 3019.9 4.59434 0.354515 0
M  V30 31299 H 3018.22 4.13649 0.47785 0
M  V30 31300 H 3020.81 4.24039 3.25722 0
M  V30 31301 H 3021.16 2.52861 3.30707 0
M  V30 31302 H 3021.69 3.491 1.90719 0
M  V30 31303 H 3018.43 6.42562 1.29592 0
M  V30 31304 H 3017.95 5.37981 2.6521 0
M  V30 31305 H 3019.63 5.95924 2.5196 0
M  V30 31306 N 3019.76 -0.565428 1.47108 0
M  V30 31307 C 3020.71 -1.69421 1.59371 0
M  V30 31308 C 3021.7 -1.62996 0.461373 0
M  V30 31309 O 3022.91 -1.68281 0.638878 0
M  V30 31310 H 3019.28 -0.56045 0.501397 0
M  V30 31311 H 3021.25 -1.56213 2.54244 0
M  V30 31312 C 3020 -3.07789 1.61744 0
M  V30 31313 H 3019.32 -3.13411 2.48221 0
M  V30 31314 H 3020.76 -3.86483 1.74377 0
M  V30 31315 C 3019.22 -3.35085 0.349215 0
M  V30 31316 O 3019.75 -3.97872 -0.553218 0
M  V30 31317 N 3017.96 -2.89674 0.231774 0
M  V30 31318 H 3017.51 -2.38759 0.967063 0
M  V30 31319 H 3017.46 -3.08309 -0.615857 0
M  V30 31320 N 3021.24 -1.35102 -0.811492 0
M  V30 31321 C 3022.2 -1.27499 -1.90465 0
M  V30 31322 C 3023.2 -0.187544 -1.59703 0
M  V30 31323 O 3024.39 -0.440925 -1.68527 0
M  V30 31324 C 3021.52 -0.971211 -3.26773 0
M  V30 31325 H 3022.71 -2.24694 -1.98627 0
M  V30 31326 H 3020.27 -1.19555 -1.00679 0
M  V30 31327 H 3021 -0.0029127 -3.243 0
M  V30 31328 H 3020.79 -1.75791 -3.50485 0
M  V30 31329 H 3022.28 -0.943486 -4.06802 0
M  V30 31330 N 3022.71 1.03306 -1.19019 0
M  V30 31331 C 3023.96 1.76287 -0.988289 0
M  V30 31332 C 3024.28 1.88936 0.482524 0
M  V30 31333 O 3023.55 1.41989 1.34966 0
M  V30 31334 H 3022.13 0.653048 -0.362681 0
M  V30 31335 H 3024.8 1.24638 -1.49838 0
M  V30 31336 H 3023.89 2.77269 -1.43278 0
M  V30 31337 N 3024.19 0.99344 1.22346 0
M  V30 31338 C 3025.47 0.585528 1.8663 0
M  V30 31339 C 3025.85 -0.937154 1.89158 0
M  V30 31340 O 3025.2 -1.81932 1.3825 0
M  V30 31341 C 3025.41 1.20658 3.27479 0
M  V30 31342 C 3026.76 1.30745 4.03969 0
M  V30 31343 O 3027.78 1.16101 3.36748 0
M  V30 31344 O 3026.64 1.54183 5.243 0
M  V30 31345 H 3023.73 0.198998 0.802701 0
M  V30 31346 H 3026.28 1.08935 1.3012 0
M  V30 31347 H 3025.05 2.24808 3.20277 0
M  V30 31348 H 3024.67 0.688381 3.91596 0
M  V30 31349 N 3025.67 -1.37693 0.766707 0
M  V30 31350 C 3026.92 -1.99419 0.3281 0
M  V30 31351 C 3027.24 -1.61168 -1.09772 0
M  V30 31352 O 3026.51 -0.874717 -1.75287 0
M  V30 31353 H 3025.09 -0.737569 0.118323 0
M  V30 31354 H 3027.75 -1.68253 0.983715 0
M  V30 31355 H 3026.85 -3.09504 0.401701 0
M  V30 31356 N 3027.15 -0.516835 -1.48884 0
M  V30 31357 C 3028.39 0.0220572 -2.02788 0
M  V30 31358 C 3028.73 1.35172 -1.39435 0
M  V30 31359 O 3028 1.86983 -0.535492 0
M  V30 31360 C 3028.29 0.157949 -3.59753 0
M  V30 31361 C 3028.14 -1.19596 -4.33609 0
M  V30 31362 C 3029.46 0.891058 -4.30985 0
M  V30 31363 H 3026.58 0.00654193 -0.736971 0
M  V30 31364 H 3029.22 -0.671318 -1.77745 0
M  V30 31365 H 3027.37 0.748501 -3.81221 0
M  V30 31366 H 3029.04 -1.82661 -4.23595 0
M  V30 31367 H 3027.28 -1.78123 -3.95544 0
M  V30 31368 H 3027.95 -1.05401 -5.41844 0
M  V30 31369 H 3030.43 0.390047 -4.14268 0
M  V30 31370 H 3029.31 0.955012 -5.40528 0
M  V30 31371 H 3029.57 1.9384 -3.97339 0
M  V30 31372 N 3028.63 1.55583 -0.251365 0
M  V30 31373 C 3029.87 1.98658 0.371399 0
M  V30 31374 C 3030.2 1.1409 1.58141 0
M  V30 31375 O 3029.47 0.224742 1.94607 0
M  V30 31376 H 3028.05 0.733723 0.140212 0
M  V30 31377 H 3030.71 1.9171 -0.351191 0
M  V30 31378 H 3029.8 3.04658 0.677501 0
M  V30 31379 N 3030.1 -0.0216912 1.57585 0
M  V30 31380 C 3031.01 -1.0368 2.10446 0
M  V30 31381 C 3032.03 -1.39145 1.04474 0
M  V30 31382 O 3033.21 -1.48315 1.36252 0
M  V30 31383 C 3030.27 -2.31659 2.57944 0
M  V30 31384 C 3029.33 -2.02708 3.78429 0
M  V30 31385 C 3028.57 -3.24585 4.23651 0
M  V30 31386 O 3028.79 -4.35518 3.68348 0
M  V30 31387 O 3027.72 -3.09853 5.16018 0
M  V30 31388 H 3031.55 -0.617531 2.97355 0
M  V30 31389 H 3029.13 -0.239148 1.47474 0
M  V30 31390 H 3031.02 -3.06884 2.88791 0
M  V30 31391 H 3029.69 -2.72867 1.74142 0
M  V30 31392 H 3028.6 -1.25027 3.52589 0
M  V30 31393 H 3029.93 -1.66351 4.63237 0
M  V30 31394 N 3031.58 -1.54832 -0.294093 0
M  V30 31395 C 3032.53 -1.82645 -1.36473 0
M  V30 31396 C 3033.52 -0.68401 -1.45637 0
M  V30 31397 O 3034.71 -0.944827 -1.49673 0
M  V30 31398 C 3031.84 -2.08331 -2.72861 0
M  V30 31399 C 3030.92 -3.28778 -2.67892 0
M  V30 31400 N 3031.32 -4.49176 -2.32539 0
M  V30 31401 C 3029.61 -3.30944 -2.98985 0
M  V30 31402 C 3030.31 -5.31213 -2.37039 0
M  V30 31403 N 3029.29 -4.69102 -2.74671 0
M  V30 31404 H 3033.09 -2.73292 -1.08114 0
M  V30 31405 H 3030.61 -1.54424 -0.50269 0
M  V30 31406 H 3032.6 -2.26406 -3.50066 0
M  V30 31407 H 3031.26 -1.18956 -3.02125 0
M  V30 31408 H 3032.27 -4.75654 -2.04875 0
M  V30 31409 H 3028.95 -2.51697 -3.33099 0
M  V30 31410 H 3030.34 -6.37429 -2.12446 0
M  V30 31411 N 3033.06 0.557619 -1.47405 0
M  V30 31412 C 3034.47 1.13974 -1.47874 0
M  V30 31413 C 3034.82 1.94809 -0.23321 0
M  V30 31414 O 3033.95 2.06028 0.661908 0
M  V30 31415 C 3034.54 2.07363 -2.67929 0
M  V30 31416 C 3033.1 2.60848 -2.71359 0
M  V30 31417 C 3032.25 1.37219 -2.40969 0
M  V30 31418 H 3035.2 0.344241 -1.54921 0
M  V30 31419 H 3035.22 2.91232 -2.44876 0
M  V30 31420 H 3034.73 1.48502 -3.58565 0
M  V30 31421 H 3032.83 3.23508 -1.84861 0
M  V30 31422 H 3032.95 3.01869 -3.72037 0
M  V30 31423 H 3031.31 1.67878 -1.91543 0
M  V30 31424 H 3032.09 0.801524 -3.33812 0
M  V30 31425 N 3034.54 1.35531 0.804316 0
M  V30 31426 C 3035.77 1.32051 1.5928 0
M  V30 31427 C 3036.18 -0.101523 1.88527 0
M  V30 31428 O 3035.54 -1.05414 1.48977 0
M  V30 31429 C 3035.59 2.12742 2.92272 0
M  V30 31430 O 3035.31 3.49401 2.64293 0
M  V30 31431 C 3036.81 2.16874 3.86627 0
M  V30 31432 H 3034.03 0.453537 0.494515 0
M  V30 31433 H 3036.58 1.78417 0.999384 0
M  V30 31434 H 3034.73 1.6997 3.48122 0
M  V30 31435 H 3035.15 3.91335 3.49224 0
M  V30 31436 H 3036.62 2.7772 4.77049 0
M  V30 31437 H 3037.1 1.1681 4.23382 0
M  V30 31438 H 3037.7 2.59817 3.36712 0
M  V30 31439 N 3036.02 -1.02674 1.19565 0
M  V30 31440 C 3036.95 -2.11084 0.893091 0
M  V30 31441 C 3037.96 -1.62393 -0.115072 0
M  V30 31442 O 3039.15 -1.78132 0.114621 0
M  V30 31443 C 3036.25 -3.37427 0.315593 0
M  V30 31444 C 3035.42 -4.15298 1.37283 0
M  V30 31445 C 3034.48 -5.19952 0.808489 0
M  V30 31446 O 3033.51 -5.49441 1.48671 0
M  V30 31447 N 3034.71 -5.79208 -0.387151 0
M  V30 31448 H 3037.48 -2.37629 1.82626 0
M  V30 31449 H 3035.04 -1.18982 1.09794 0
M  V30 31450 H 3037.03 -4.04629 -0.0758455 0
M  V30 31451 H 3035.6 -3.08212 -0.521907 0
M  V30 31452 H 3034.82 -3.43213 1.93903 0
M  V30 31453 H 3036.11 -4.6411 2.08517 0
M  V30 31454 H 3035.51 -5.5757 -0.955627 0
M  V30 31455 H 3034.06 -6.47807 -0.720344 0
M  V30 31456 N 3037.5 -0.999914 -1.21817 0
M  V30 31457 C 3038.46 -0.561083 -2.22226 0
M  V30 31458 C 3039.46 0.35983 -1.56722 0
M  V30 31459 O 3040.65 0.150818 -1.73546 0
M  V30 31460 C 3037.78 0.182927 -3.40409 0
M  V30 31461 H 3038.97 -1.44914 -2.62564 0
M  V30 31462 H 3036.53 -0.787874 -1.3499 0
M  V30 31463 H 3037.26 1.08665 -3.05553 0
M  V30 31464 H 3037.05 -0.478399 -3.89171 0
M  V30 31465 H 3038.54 0.477879 -4.14857 0
M  V30 31466 N 3038.97 1.37284 -0.773999 0
M  V30 31467 C 3039.9 2.32837 -0.175823 0
M  V30 31468 C 3040.88 1.55892 0.680576 0
M  V30 31469 O 3042.07 1.84119 0.617575 0
M  V30 31470 C 3039.2 3.40124 0.702328 0
M  V30 31471 C 3038.15 4.27967 -0.052944 0
M  V30 31472 C 3037.48 5.26287 0.944799 0
M  V30 31473 C 3038.78 5.07531 -1.23325 0
M  V30 31474 H 3040.47 2.83112 -0.974066 0
M  V30 31475 H 3038.02 1.36119 -0.46985 0
M  V30 31476 H 3039.97 4.05949 1.13062 0
M  V30 31477 H 3038.7 2.8838 1.53311 0
M  V30 31478 H 3037.36 3.63677 -0.462042 0
M  V30 31479 H 3037 4.70822 1.7702 0
M  V30 31480 H 3036.7 5.8592 0.443976 0
M  V30 31481 H 3038.23 5.94986 1.37199 0
M  V30 31482 H 3039.64 5.66483 -0.881495 0
M  V30 31483 H 3038.04 5.76502 -1.66631 0
M  V30 31484 H 3039.11 4.40074 -2.03625 0
M  V30 31485 N 3040.45 0.524724 1.48608 0
M  V30 31486 C 3041.38 -0.229796 2.32366 0
M  V30 31487 C 3042.36 -0.940104 1.41761 0
M  V30 31488 O 3043.55 -0.926906 1.70652 0
M  V30 31489 C 3040.68 -1.28038 3.22837 0
M  V30 31490 C 3039.63 -0.688529 4.22425 0
M  V30 31491 C 3038.96 -1.84137 5.01994 0
M  V30 31492 C 3040.26 0.336268 5.21216 0
M  V30 31493 H 3041.95 0.469391 2.95698 0
M  V30 31494 H 3039.5 0.227181 1.42197 0
M  V30 31495 H 3041.45 -1.81613 3.80256 0
M  V30 31496 H 3040.17 -2.00907 2.57495 0
M  V30 31497 H 3038.83 -0.174338 3.66185 0
M  V30 31498 H 3038.48 -2.55832 4.33081 0
M  V30 31499 H 3038.18 -1.45132 5.69395 0
M  V30 31500 H 3039.71 -2.38101 5.62263 0
M  V30 31501 H 3041.12 -0.112206 5.7319 0
M  V30 31502 H 3039.52 0.643429 5.96641 0
M  V30 31503 H 3040.59 1.2439 4.68674 0
M  V30 31504 N 3041.93 -1.55447 0.259613 0
M  V30 31505 C 3043.21 -1.912 -0.412561 0
M  V30 31506 C 3043.59 -1.18197 -1.74907 0
M  V30 31507 O 3042.93 -0.303643 -2.26474 0
M  V30 31508 C 3043.14 -3.44345 -0.568134 0
M  V30 31509 C 3044.49 -4.15837 -0.85818 0
M  V30 31510 O 3045.52 -3.50154 -0.653526 0
M  V30 31511 O 3044.38 -5.32044 -1.24865 0
M  V30 31512 H 3041.47 -0.796258 -0.223389 0
M  V30 31513 H 3044.02 -1.66944 0.30462 0
M  V30 31514 H 3042.79 -3.89518 0.373058 0
M  V30 31515 H 3042.41 -3.74504 -1.33537 0
M  V30 31516 N 3043.41 0.0133338 -1.57594 0
M  V30 31517 C 3044.66 0.70007 -1.89161 0
M  V30 31518 C 3044.97 1.75671 -0.860178 0
M  V30 31519 O 3046.18 2.49714 -1.06561 0
M  V30 31520 C 3044.63 1.29629 -3.35745 0
M  V30 31521 C 3044.24 0.27517 -4.47154 0
M  V30 31522 C 3045.98 1.96199 -3.76439 0
M  V30 31523 C 3043.89 0.880623 -5.84807 0
M  V30 31524 H 3042.82 0.265234 -0.705809 0
M  V30 31525 H 3045.47 -0.0450252 -1.83445 0
M  V30 31526 H 3043.85 2.09161 -3.36255 0
M  V30 31527 H 3045.03 -0.494587 -4.58138 0
M  V30 31528 H 3043.34 -0.289329 -4.15394 0
M  V30 31529 H 3045.94 2.42378 -4.7661 0
M  V30 31530 H 3046.28 2.7869 -3.09254 0
M  V30 31531 H 3046.82 1.23419 -3.7817 0
M  V30 31532 H 3043.55 0.0947861 -6.55431 0
M  V30 31533 H 3043.07 1.61985 -5.77513 0
M  V30 31534 H 3044.75 1.38327 -6.3204 0
M  V30 31535 N 3044.89 1.54985 0.285878 0
M  V30 31536 C 3046.13 1.74984 1.01917 0
M  V30 31537 C 3046.46 0.543849 1.86742 0
M  V30 31538 O 3045.72 -0.473938 1.89874 0
M  V30 31539 C 3046.01 3.00043 1.94188 0
M  V30 31540 C 3045.68 4.33164 1.25217 0
M  V30 31541 C 3044.34 4.69348 1.06141 0
M  V30 31542 C 3046.69 5.15624 0.760336 0
M  V30 31543 C 3044.02 5.85558 0.365888 0
M  V30 31544 C 3046.37 6.32551 0.0784675 0
M  V30 31545 C 3045.04 6.67385 -0.124119 0
M  V30 31546 H 3044.31 0.64031 0.372939 0
M  V30 31547 H 3046.96 1.89251 0.292618 0
M  V30 31548 H 3045.26 2.80621 2.73421 0
M  V30 31549 H 3046.96 3.12711 2.51023 0
M  V30 31550 H 3043.55 4.04717 1.41074 0
M  V30 31551 H 3047.73 4.88156 0.89538 0
M  V30 31552 H 3042.99 6.11079 0.198085 0
M  V30 31553 H 3047.16 6.95708 -0.310462 0
M  V30 31554 H 3044.79 7.57285 -0.665051 0
M  V30 31555 N 3046.36 -0.549794 1.47699 0
M  V30 31556 C 3047.59 -1.33185 1.58333 0
M  V30 31557 C 3048.01 -1.87316 0.236226 0
M  V30 31558 O 3047.36 -1.65384 -0.771641 0
M  V30 31559 C 3047.42 -2.4966 2.61443 0
M  V30 31560 O 3047.14 -1.97764 3.90923 0
M  V30 31561 C 3048.64 -3.41767 2.8233 0
M  V30 31562 H 3045.86 -0.405732 0.534437 0
M  V30 31563 H 3048.4 -0.665275 1.93376 0
M  V30 31564 H 3046.56 -3.12241 2.29313 0
M  V30 31565 H 3046.97 -2.73858 4.47328 0
M  V30 31566 H 3048.44 -4.19891 3.58323 0
M  V30 31567 H 3048.92 -3.95772 1.90423 0
M  V30 31568 H 3049.53 -2.84995 3.15687 0
M  V30 31569 N 3047.84 -1.35955 -0.797117 0
M  V30 31570 C 3049.09 -1.29089 -1.5498 0
M  V30 31571 C 3049.4 0.129969 -1.95168 0
M  V30 31572 O 3050.61 0.320962 -2.69596 0
M  V30 31573 C 3049.07 -2.26444 -2.79734 0
M  V30 31574 C 3048.67 -3.73925 -2.46747 0
M  V30 31575 C 3050.42 -2.28539 -3.57729 0
M  V30 31576 C 3048.33 -4.63077 -3.6785 0
M  V30 31577 H 3047.26 -0.479661 -0.581757 0
M  V30 31578 H 3049.91 -1.61274 -0.875381 0
M  V30 31579 H 3048.29 -1.87242 -3.48936 0
M  V30 31580 H 3049.46 -4.21817 -1.85491 0
M  V30 31581 H 3047.78 -3.7453 -1.81978 0
M  V30 31582 H 3050.37 -2.92359 -4.47694 0
M  V30 31583 H 3050.72 -1.29176 -3.95751 0
M  V30 31584 H 3051.25 -2.66318 -2.95499 0
M  V30 31585 H 3047.99 -5.63474 -3.34929 0
M  V30 31586 H 3047.51 -4.19906 -4.28298 0
M  V30 31587 H 3049.19 -4.78969 -4.34969 0
M  V30 31588 N 3049.32 1.02038 -1.20108 0
M  V30 31589 C 3050.74 1.27866 -0.955121 0
M  V30 31590 C 3050.94 1.98119 0.36756 0
M  V30 31591 O 3049.99 2.27424 1.09701 0
M  V30 31592 C 3051.31 2.1174 -2.1351 0
M  V30 31593 C 3052.85 2.25019 -2.17567 0
M  V30 31594 C 3053.33 3.12269 -3.3504 0
M  V30 31595 N 3054.82 3.19858 -3.3503 0
M  V30 31596 C 3055.55 3.87582 -4.22573 0
M  V30 31597 N 3055.05 4.57465 -5.20286 0
M  V30 31598 N 3056.84 3.84068 -4.10425 0
M  V30 31599 H 3048.99 0.548574 -2.05194 0
M  V30 31600 H 3051.26 0.304712 -0.897694 0
M  V30 31601 H 3050.96 1.67451 -3.09278 0
M  V30 31602 H 3050.84 3.1247 -2.11287 0
M  V30 31603 H 3053.22 2.68535 -1.22364 0
M  V30 31604 H 3053.31 1.23811 -2.23841 0
M  V30 31605 H 3052.95 2.6946 -4.30527 0
M  V30 31606 H 3052.88 4.13557 -3.26004 0
M  V30 31607 H 3055.37 2.70096 -2.64304 0
M  V30 31608 H 3055.68 5.06798 -5.83417 0
M  V30 31609 H 3054.03 4.56302 -5.24227 0
M  V30 31610 H 3057.22 3.28617 -3.33359 0
M  V30 31611 H 3057.39 4.36573 -4.78862 0
M  V30 31612 N 3050.8 1.00636 1.21285 0
M  V30 31613 C 3051.71 0.577266 2.27387 0
M  V30 31614 C 3052.72 -0.380369 1.69792 0
M  V30 31615 O 3053.9 -0.243865 1.99918 0
M  V30 31616 C 3050.97 -0.0879922 3.46588 0
M  V30 31617 C 3050.03 0.914296 4.19451 0
M  V30 31618 C 3049.26 0.280689 5.32961 0
M  V30 31619 O 3049.48 -0.922166 5.62896 0
M  V30 31620 O 3048.42 0.9923 5.93664 0
M  V30 31621 H 3052.24 1.46032 2.66286 0
M  V30 31622 H 3049.83 0.775305 1.27708 0
M  V30 31623 H 3051.71 -0.46002 4.18882 0
M  V30 31624 H 3050.38 -0.945406 3.09586 0
M  V30 31625 H 3049.29 1.3375 3.49373 0
M  V30 31626 H 3050.62 1.74134 4.60367 0
M  V30 31627 N 3052.28 -1.36872 0.781268 0
M  V30 31628 C 3053.19 -2.33946 0.175022 0
M  V30 31629 C 3054.2 -1.60646 -0.668484 0
M  V30 31630 O 3055.38 -1.92681 -0.586179 0
M  V30 31631 C 3052.44 -3.39835 -0.686497 0
M  V30 31632 C 3051.5 -4.28945 0.174564 0
M  V30 31633 C 3050.74 -5.29777 -0.645931 0
M  V30 31634 O 3050.96 -5.38442 -1.88244 0
M  V30 31635 O 3049.89 -6.01879 -0.0501156 0
M  V30 31636 H 3053.72 -2.87541 0.977432 0
M  V30 31637 H 3051.31 -1.39199 0.542584 0
M  V30 31638 H 3053.19 -4.04599 -1.17803 0
M  V30 31639 H 3051.86 -2.88553 -1.46693 0
M  V30 31640 H 3050.77 -3.67249 0.712669 0
M  V30 31641 H 3052.1 -4.83557 0.918317 0
M  V30 31642 N 3053.75 -0.532597 -1.48328 0
M  V30 31643 C 3054.68 0.21747 -2.32485 0
M  V30 31644 C 3055.67 0.932573 -1.42257 0
M  V30 31645 O 3056.85 0.917843 -1.71141 0
M  V30 31646 C 3053.98 1.26324 -3.23511 0
M  V30 31647 C 3052.93 0.666117 -4.22785 0
M  V30 31648 C 3052.26 1.81473 -5.02963 0
M  V30 31649 C 3053.56 -0.363905 -5.21031 0
M  V30 31650 H 3055.25 -0.485066 -2.95445 0
M  V30 31651 H 3052.8 -0.234719 -1.42074 0
M  V30 31652 H 3054.75 1.79594 -3.81214 0
M  V30 31653 H 3053.48 1.99539 -2.58557 0
M  V30 31654 H 3052.14 0.154916 -3.66273 0
M  V30 31655 H 3051.78 2.53532 -4.34431 0
M  V30 31656 H 3051.48 1.4211 -5.70157 0
M  V30 31657 H 3053.01 2.35116 -5.63518 0
M  V30 31658 H 3054.42 0.0818072 -5.73242 0
M  V30 31659 H 3052.82 -0.675061 -5.96291 0
M  V30 31660 H 3053.89 -1.26873 -4.68008 0
M  V30 31661 N 3055.23 1.55307 -0.267853 0
M  V30 31662 C 3056.48 1.99041 0.350308 0
M  V30 31663 C 3056.8 1.15761 1.56922 0
M  V30 31664 O 3056.07 0.24537 1.94357 0
M  V30 31665 H 3054.65 0.735169 0.132422 0
M  V30 31666 H 3057.31 1.91327 -0.371504 0
M  V30 31667 H 3056.41 3.05359 0.64515 0
M  V30 31668 N 3056.71 -0.00497598 1.57599 0
M  V30 31669 C 3057.94 -0.701982 1.94627 0
M  V30 31670 C 3058.35 -1.67583 0.869559 0
M  V30 31671 O 3057.71 -1.81866 -0.151958 0
M  V30 31672 C 3057.76 -1.43818 3.3166 0
M  V30 31673 O 3057.48 -0.50339 4.35198 0
M  V30 31674 C 3058.98 -2.23015 3.83118 0
M  V30 31675 H 3056.2 -0.195829 0.641788 0
M  V30 31676 H 3058.75 0.0446647 2.04451 0
M  V30 31677 H 3056.9 -2.1365 3.2316 0
M  V30 31678 H 3057.32 -1.02226 5.14442 0
M  V30 31679 H 3058.79 -2.70031 4.81443 0
M  V30 31680 H 3059.27 -3.05477 3.15564 0
M  V30 31681 H 3059.87 -1.58209 3.94778 0
M  V30 31682 N 3058.19 -1.55135 -0.277654 0
M  V30 31683 C 3059.43 -1.75782 -1.01137 0
M  V30 31684 C 3059.77 -0.554752 -1.86108 0
M  V30 31685 O 3059.04 0.44778 -1.89275 0
M  V30 31686 C 3059.33 -3.0603 -1.89783 0
M  V30 31687 C 3059.18 -4.36682 -1.07836 0
M  V30 31688 C 3060.5 -3.32287 -2.88571 0
M  V30 31689 H 3057.62 -0.639546 -0.366265 0
M  V30 31690 H 3060.26 -1.87864 -0.284122 0
M  V30 31691 H 3058.41 -2.95861 -2.51791 0
M  V30 31692 H 3060.08 -4.58803 -0.479351 0
M  V30 31693 H 3058.32 -4.32118 -0.381688 0
M  V30 31694 H 3058.99 -5.24134 -1.7317 0
M  V30 31695 H 3061.47 -3.42219 -2.36696 0
M  V30 31696 H 3060.35 -4.24696 -3.47742 0
M  V30 31697 H 3060.61 -2.51702 -3.63453 0
M  V30 31698 N 3059.67 0.541953 -1.47989 0
M  V30 31699 C 3060.61 1.66864 -1.62047 0
M  V30 31700 C 3061.61 1.62241 -0.487246 0
M  V30 31701 O 3062.81 1.67243 -0.66557 0
M  V30 31702 H 3059.19 0.552403 -0.51025 0
M  V30 31703 H 3061.16 1.52148 -2.56697 0
M  V30 31704 C 3059.91 3.05177 -1.6662 0
M  V30 31705 H 3059.23 3.09423 -2.53175 0
M  V30 31706 H 3060.67 3.8366 -1.80503 0
M  V30 31707 C 3059.13 3.34487 -0.40248 0
M  V30 31708 O 3059.66 3.98702 0.489849 0
M  V30 31709 N 3057.87 2.89269 -0.277829 0
M  V30 31710 H 3057.41 2.3719 -1.00492 0
M  V30 31711 H 3057.37 3.0925 0.56673 0
M  V30 31712 N 3061.15 1.36376 0.789896 0
M  V30 31713 C 3062.39 1.30321 1.54469 0
M  V30 31714 C 3062.71 -0.117304 1.94647 0
M  V30 31715 O 3061.98 -1.05746 1.64908 0
M  V30 31716 H 3060.56 0.479404 0.57287 0
M  V30 31717 H 3063.23 1.70667 0.941215 0
M  V30 31718 H 3062.32 1.93028 2.45248 0
M  V30 31719 N 3062.62 -1.014 1.20647 0
M  V30 31720 C 3063.56 -2.09661 0.900963 0
M  V30 31721 C 3064.53 -1.61925 -0.147982 0
M  V30 31722 O 3065.72 -1.88488 -0.0209904 0
M  V30 31723 C 3062.85 -3.36875 0.351156 0
M  V30 31724 C 3061.89 -4.03506 1.3815 0
M  V30 31725 S 3062.72 -4.47083 2.94749 0
M  V30 31726 C 3063.88 -5.77495 2.41351 0
M  V30 31727 H 3064.11 -2.35253 1.81778 0
M  V30 31728 H 3061.65 -1.14553 1.03523 0
M  V30 31729 H 3063.6 -4.1048 0.0404922 0
M  V30 31730 H 3062.27 -3.0935 -0.5442 0
M  V30 31731 H 3061.46 -4.95038 0.946227 0
M  V30 31732 H 3061.06 -3.36136 1.63977 0
M  V30 31733 H 3063.35 -6.52798 1.81275 0
M  V30 31734 H 3064.3 -6.25822 3.31289 0
M  V30 31735 H 3064.7 -5.33883 1.83384 0
M  V30 31736 N 3064.1 -1.01278 -1.2075 0
M  V30 31737 C 3065.33 -0.71901 -1.94005 0
M  V30 31738 C 3065.74 0.71968 -1.74545 0
M  V30 31739 O 3065.1 1.48775 -1.057 0
M  V30 31740 C 3065.15 -1.04037 -3.46206 0
M  V30 31741 O 3064.87 -2.42255 -3.65026 0
M  V30 31742 C 3066.37 -0.767109 -4.36612 0
M  V30 31743 H 3063.59 -0.264338 -0.616739 0
M  V30 31744 H 3066.14 -1.35293 -1.5335 0
M  V30 31745 H 3064.29 -0.451919 -3.84755 0
M  V30 31746 H 3064.71 -2.53721 -4.59049 0
M  V30 31747 H 3066.18 -1.04207 -5.42075 0
M  V30 31748 H 3066.66 0.298774 -4.38183 0
M  V30 31749 H 3067.26 -1.33753 -4.0372 0
M  V30 31750 N 3065.58 1.36456 -0.788516 0
M  V30 31751 C 3066.83 1.98514 -0.357087 0
M  V30 31752 C 3067.14 1.63287 1.07688 0
M  V30 31753 O 3068.35 2.18573 1.61053 0
M  V30 31754 C 3066.8 3.55072 -0.587512 0
M  V30 31755 C 3066.41 3.99224 -2.03283 0
M  V30 31756 C 3068.16 4.23927 -0.220543 0
M  V30 31757 C 3066.06 5.48557 -2.20996 0
M  V30 31758 H 3064.99 0.742748 -0.129775 0
M  V30 31759 H 3067.64 1.55765 -0.970022 0
M  V30 31760 H 3066.03 3.95886 0.0951222 0
M  V30 31761 H 3067.2 3.69612 -2.75179 0
M  V30 31762 H 3065.51 3.43204 -2.35796 0
M  V30 31763 H 3068.11 5.33673 -0.331179 0
M  V30 31764 H 3068.45 4.07917 0.831234 0
M  V30 31765 H 3068.99 3.88473 -0.856378 0
M  V30 31766 H 3065.73 5.69513 -3.24553 0
M  V30 31767 H 3065.25 5.79798 -1.53604 0
M  V30 31768 H 3066.93 6.14768 -2.01667 0
M  V30 31769 N 3067.06 0.540456 1.48043 0
M  V30 31770 C 3068.29 0.0145517 2.06895 0
M  V30 31771 C 3068.7 -1.27161 1.39554 0
M  V30 31772 O 3068.06 -1.75896 0.486485 0
M  V30 31773 C 3068.11 -0.202214 3.60934 0
M  V30 31774 O 3067.83 1.033 4.25747 0
M  V30 31775 C 3069.33 -0.76731 4.36609 0
M  V30 31776 H 3066.55 0.0382486 0.669909 0
M  V30 31777 H 3069.09 0.749091 1.90286 0
M  V30 31778 H 3067.25 -0.886831 3.77113 0
M  V30 31779 H 3067.66 0.820259 5.18046 0
M  V30 31780 H 3069.14 -0.868354 5.45127 0
M  V30 31781 H 3069.61 -1.77469 4.01748 0
M  V30 31782 H 3070.22 -0.118927 4.25134 0
M  V30 31783 N 3068.54 -1.55163 0.276085 0
M  V30 31784 C 3069.47 -2.18677 -0.652347 0
M  V30 31785 C 3070.45 -1.14802 -1.15149 0
M  V30 31786 O 3071.63 -1.4333 -1.22428 0
M  V30 31787 C 3068.76 -2.81079 -1.88977 0
M  V30 31788 C 3067.8 -3.98265 -1.52602 0
M  V30 31789 S 3068.64 -5.3209 -0.603351 0
M  V30 31790 C 3069.79 -5.97962 -1.84913 0
M  V30 31791 H 3070.03 -2.97086 -0.112681 0
M  V30 31792 H 3067.56 -1.54282 0.060339 0
M  V30 31793 H 3069.52 -3.17662 -2.60002 0
M  V30 31794 H 3068.18 -2.02562 -2.40058 0
M  V30 31795 H 3067.37 -4.40621 -2.44681 0
M  V30 31796 H 3066.97 -3.6311 -0.895946 0
M  V30 31797 H 3069.26 -6.17254 -2.79292 0
M  V30 31798 H 3070.21 -6.92704 -1.46856 0
M  V30 31799 H 3070.62 -5.27331 -2.01451 0
M  V30 31800 N 3070.01 -0.00338196 -1.576 0
M  V30 31801 C 3071.26 0.681766 -1.90997 0
M  V30 31802 C 3071.59 1.73235 -0.877673 0
M  V30 31803 O 3070.87 1.94226 0.103149 0
M  V30 31804 C 3071.15 1.32181 -3.34963 0
M  V30 31805 C 3071 0.282532 -4.48912 0
M  V30 31806 C 3072.32 2.24704 -3.78412 0
M  V30 31807 H 3069.44 0.246373 -0.6946 0
M  V30 31808 H 3072.08 -0.0553694 -1.89919 0
M  V30 31809 H 3070.23 1.95008 -3.36012 0
M  V30 31810 H 3071.91 -0.346322 -4.59998 0
M  V30 31811 H 3070.15 -0.394844 -4.31999 0
M  V30 31812 H 3070.82 0.76948 -5.4661 0
M  V30 31813 H 3073.3 1.7189 -3.78937 0
M  V30 31814 H 3072.17 2.66452 -4.7989 0
M  V30 31815 H 3072.43 3.12754 -3.12469 0
M  V30 31816 N 3071.49 1.5528 0.269423 0
M  V30 31817 C 3072.74 1.75707 0.998573 0
M  V30 31818 C 3073.06 0.563207 1.8669 0
M  V30 31819 O 3072.33 -0.421777 1.91306 0
M  V30 31820 H 3070.91 0.647965 0.371686 0
M  V30 31821 H 3073.57 1.92688 0.292792 0
M  V30 31822 H 3072.67 2.65943 1.63343 0
M  V30 31823 N 3072.97 -0.534097 1.48274 0
M  V30 31824 C 3074.25 -1.29525 1.4657 0
M  V30 31825 C 3074.63 -2.10372 0.175127 0
M  V30 31826 O 3073.97 -2.12374 -0.843191 0
M  V30 31827 C 3074.18 -2.18019 2.72523 0
M  V30 31828 C 3075.53 -2.78292 3.20685 0
M  V30 31829 O 3076.56 -2.28308 2.73412 0
M  V30 31830 O 3075.42 -3.69201 4.02931 0
M  V30 31831 H 3072.51 -0.584393 0.585161 0
M  V30 31832 H 3075.06 -0.551091 1.60503 0
M  V30 31833 H 3073.83 -1.58034 3.57968 0
M  V30 31834 H 3073.45 -2.99689 2.6129 0
M  V30 31835 N 3074.45 -1.36793 -0.782652 0
M  V30 31836 C 3075.38 -1.34359 -1.90971 0
M  V30 31837 C 3076.36 -0.213947 -1.68749 0
M  V30 31838 O 3077.54 -0.412634 -1.89766 0
M  V30 31839 C 3074.67 -1.1389 -3.28095 0
M  V30 31840 C 3073.63 -2.23751 -3.64856 0
M  V30 31841 C 3072.95 -1.88417 -5.00403 0
M  V30 31842 C 3074.25 -3.65876 -3.72736 0
M  V30 31843 H 3075.95 -2.28668 -1.93264 0
M  V30 31844 H 3073.49 -1.10074 -0.928428 0
M  V30 31845 H 3075.45 -1.1082 -4.06567 0
M  V30 31846 H 3074.17 -0.160333 -3.26206 0
M  V30 31847 H 3072.83 -2.25957 -2.88685 0
M  V30 31848 H 3072.48 -0.89117 -4.95043 0
M  V30 31849 H 3072.18 -2.61975 -5.25969 0
M  V30 31850 H 3073.7 -1.86915 -5.81288 0
M  V30 31851 H 3075.12 -3.65859 -4.41384 0
M  V30 31852 H 3073.51 -4.38397 -4.09791 0
M  V30 31853 H 3074.58 -4.00291 -2.73669 0
M  V30 31854 N 3075.93 1.00759 -1.21184 0
M  V30 31855 C 3076.87 2.09483 -0.968778 0
M  V30 31856 C 3077.84 1.65772 0.104296 0
M  V30 31857 O 3079.03 1.90753 -0.0422922 0
M  V30 31858 C 3076.17 3.409 -0.536746 0
M  V30 31859 C 3075.28 3.98038 -1.67897 0
M  V30 31860 C 3074.42 5.17553 -1.19636 0
M  V30 31861 C 3073.46 5.66794 -2.31109 0
M  V30 31862 N 3072.59 6.77561 -1.84 0
M  V30 31863 H 3077.43 2.2961 -1.89956 0
M  V30 31864 H 3074.97 1.12587 -0.946707 0
M  V30 31865 H 3076.93 4.16341 -0.267523 0
M  V30 31866 H 3075.56 3.20819 0.357035 0
M  V30 31867 H 3074.61 3.19607 -2.06289 0
M  V30 31868 H 3075.92 4.30578 -2.51802 0
M  V30 31869 H 3075.08 6.0023 -0.883644 0
M  V30 31870 H 3073.81 4.866 -0.32733 0
M  V30 31871 H 3072.82 4.82714 -2.63186 0
M  V30 31872 H 3074.04 5.99777 -3.18504 0
M  V30 31873 H 3071.99 6.4842 -0.994371 0
M  V30 31874 H 3071.91 7.09341 -2.61479 0
M  V30 31875 H 3073.18 7.63781 -1.55755 0
M  V30 31876 N 3077.4 1.01917 1.20211 0
M  V30 31877 C 3078.35 0.562366 2.20956 0
M  V30 31878 C 3079.34 -0.383676 1.56259 0
M  V30 31879 O 3080.53 -0.206224 1.75795 0
M  V30 31880 C 3077.66 -0.0953432 3.43168 0
M  V30 31881 C 3076.75 0.87256 4.15027 0
M  V30 31882 N 3077.14 2.03111 4.63227 0
M  V30 31883 C 3075.43 0.693928 4.40569 0
M  V30 31884 C 3076.14 2.64078 5.18302 0
M  V30 31885 N 3075.11 1.92119 5.08519 0
M  V30 31886 H 3078.91 1.44557 2.55891 0
M  V30 31887 H 3076.43 0.884855 1.36177 0
M  V30 31888 H 3078.42 -0.440159 4.1457 0
M  V30 31889 H 3077.08 -0.974359 3.09736 0
M  V30 31890 H 3078.1 2.41094 4.5836 0
M  V30 31891 H 3074.77 -0.136816 4.17276 0
M  V30 31892 H 3076.16 3.6214 5.65955 0
M  V30 31893 N 3078.88 -1.36036 0.795742 0
M  V30 31894 C 3080.13 -1.98678 0.370326 0
M  V30 31895 C 3080.45 -1.6346 -1.06329 0
M  V30 31896 O 3079.72 -0.911701 -1.73392 0
M  V30 31897 H 3078.3 -0.734894 0.133941 0
M  V30 31898 H 3080.96 -1.66128 1.01918 0
M  V30 31899 H 3080.06 -3.08582 0.467261 0
M  V30 31900 N 3080.36 -0.5483 -1.47755 0
M  V30 31901 C 3081.78 -0.207429 -1.58246 0
M  V30 31902 C 3081.98 1.28986 -1.54806 0
M  V30 31903 O 3081.03 2.06942 -1.44677 0
M  V30 31904 C 3082.35 -0.826193 -2.89127 0
M  V30 31905 C 3083.89 -0.796603 -3.02693 0
M  V30 31906 C 3084.37 -1.39427 -4.36261 0
M  V30 31907 N 3085.86 -1.35706 -4.42875 0
M  V30 31908 C 3086.59 -1.78922 -5.4477 0
M  V30 31909 N 3086.09 -2.29953 -6.53524 0
M  V30 31910 N 3087.88 -1.70047 -5.35762 0
M  V30 31911 H 3080.03 -1.5212 -1.48234 0
M  V30 31912 H 3082.3 -0.633841 -0.704946 0
M  V30 31913 H 3082 -1.87811 -2.97355 0
M  V30 31914 H 3081.88 -0.313982 -3.75891 0
M  V30 31915 H 3084.26 0.246603 -2.94068 0
M  V30 31916 H 3084.35 -1.34648 -2.17494 0
M  V30 31917 H 3083.99 -2.4365 -4.45642 0
M  V30 31918 H 3083.92 -0.819919 -5.20178 0
M  V30 31919 H 3086.41 -0.983687 -3.64873 0
M  V30 31920 H 3086.72 -2.60876 -7.27436 0
M  V30 31921 H 3085.07 -2.33958 -6.54438 0
M  V30 31922 H 3088.26 -1.29963 -4.49697 0
M  V30 31923 H 3088.43 -2.04046 -6.15036 0
M  V30 31924 N 3081.84 1.55014 -0.28431 0
M  V30 31925 C 3083.07 2.04204 0.332912 0
M  V30 31926 C 3083.48 1.16232 1.48781 0
M  V30 31927 O 3082.84 0.184355 1.81566 0
M  V30 31928 C 3082.89 3.5242 0.805145 0
M  V30 31929 O 3082.61 4.37046 -0.303766 0
M  V30 31930 C 3084.11 4.17536 1.48924 0
M  V30 31931 H 3081.33 0.666825 0.074733 0
M  V30 31932 H 3083.88 2.0016 -0.419083 0
M  V30 31933 H 3082.03 3.56878 1.5072 0
M  V30 31934 H 3082.44 5.24465 0.0608781 0
M  V30 31935 H 3083.92 5.22819 1.77099 0
M  V30 31936 H 3084.4 3.66262 2.42382 0
M  V30 31937 H 3085 4.17107 0.830794 0
M  V30 31938 N 3083.32 0.0117398 1.57596 0
M  V30 31939 C 3084.56 -0.671627 1.91356 0
M  V30 31940 C 3084.9 -1.72768 0.886848 0
M  V30 31941 O 3084.17 -1.94278 -0.0928472 0
M  V30 31942 C 3084.45 -1.30403 3.35659 0
M  V30 31943 C 3084.31 -0.258721 4.49055 0
M  V30 31944 C 3085.63 -2.22694 3.79599 0
M  V30 31945 H 3082.74 -0.242686 0.695897 0
M  V30 31946 H 3085.39 0.0654405 1.89887 0
M  V30 31947 H 3083.54 -1.93224 3.37041 0
M  V30 31948 H 3085.21 0.370712 4.59808 0
M  V30 31949 H 3083.45 0.417748 4.31784 0
M  V30 31950 H 3084.12 -0.740482 5.47011 0
M  V30 31951 H 3086.6 -1.69878 3.79843 0
M  V30 31952 H 3085.47 -2.63903 4.81296 0
M  V30 31953 H 3085.74 -3.11093 3.14124 0
M  V30 31954 N 3084.79 -1.55421 -0.261185 0
M  V30 31955 C 3085.74 -1.85499 -1.32568 0
M  V30 31956 C 3086.73 -0.714748 -1.44153 0
M  V30 31957 O 3087.92 -0.976362 -1.47635 0
M  V30 31958 C 3085.05 -2.14072 -2.68381 0
M  V30 31959 C 3084.14 -3.34386 -2.60858 0
M  V30 31960 N 3084.53 -4.54008 -2.22959 0
M  V30 31961 C 3082.82 -3.37211 -2.91898 0
M  V30 31962 C 3083.53 -5.36122 -2.25718 0
M  V30 31963 N 3082.5 -4.74823 -2.64659 0
M  V30 31964 H 3086.3 -2.75524 -1.02293 0
M  V30 31965 H 3083.82 -1.55456 -0.469822 0
M  V30 31966 H 3085.81 -2.3378 -3.45185 0
M  V30 31967 H 3084.47 -1.25337 -2.99534 0
M  V30 31968 H 3085.49 -4.79893 -1.94739 0
M  V30 31969 H 3082.16 -2.58706 -3.27685 0
M  V30 31970 H 3083.55 -6.41792 -1.98877 0
M  V30 31971 N 3086.27 0.526227 -1.48555 0
M  V30 31972 C 3087.5 1.31126 -1.60688 0
M  V30 31973 C 3087.92 1.8617 -0.268734 0
M  V30 31974 O 3087.28 1.64595 0.760138 0
M  V30 31975 C 3087.33 2.43531 -2.65942 0
M  V30 31976 O 3086.43 3.46674 -2.23362 0
M  V30 31977 H 3085.77 0.388202 -0.538698 0
M  V30 31978 H 3088.3 0.632791 -1.94569 0
M  V30 31979 H 3088.31 2.89663 -2.87332 0
M  V30 31980 H 3086.99 2.02829 -3.63088 0
M  V30 31981 H 3085.57 3.06635 -2.12201 0
M  V30 31982 N 3087.75 1.37206 0.775387 0
M  V30 31983 C 3088.68 1.3537 1.90255 0
M  V30 31984 C 3089.66 0.222893 1.68633 0
M  V30 31985 O 3090.85 0.422692 1.89544 0
M  V30 31986 C 3087.98 1.15628 3.27486 0
M  V30 31987 C 3086.93 2.25682 3.63664 0
M  V30 31988 C 3086.26 1.91068 4.99397 0
M  V30 31989 C 3087.56 3.67848 3.7079 0
M  V30 31990 H 3089.25 2.2969 1.92049 0
M  V30 31991 H 3086.8 1.10565 0.922577 0
M  V30 31992 H 3088.75 1.12975 4.05974 0
M  V30 31993 H 3087.47 0.17763 3.26117 0
M  V30 31994 H 3086.13 2.27485 2.87482 0
M  V30 31995 H 3085.78 0.917411 4.94563 0
M  V30 31996 H 3085.48 2.64761 5.24572 0
M  V30 31997 H 3087 1.89995 5.80288 0
M  V30 31998 H 3088.42 3.68195 4.39437 0
M  V30 31999 H 3086.82 4.40564 4.0746 0
M  V30 32000 H 3087.89 4.01737 2.71542 0
M  V30 32001 N 3089.23 -1.00115 1.21716 0
M  V30 32002 C 3090.19 -2.07127 0.981374 0
M  V30 32003 C 3091.19 -1.60725 -0.0490833 0
M  V30 32004 O 3092.38 -1.73176 0.188586 0
M  V30 32005 C 3089.51 -3.37494 0.480667 0
M  V30 32006 H 3090.71 -2.29478 1.93079 0
M  V30 32007 H 3088.26 -1.17149 1.03469 0
M  V30 32008 H 3088.99 -3.20825 -0.473495 0
M  V30 32009 H 3088.78 -3.72506 1.224 0
M  V30 32010 H 3090.27 -4.16249 0.335684 0
M  V30 32011 N 3090.71 -1.02553 -1.19669 0
M  V30 32012 C 3091.95 -0.728701 -1.90969 0
M  V30 32013 C 3092.31 0.729026 -1.77621 0
M  V30 32014 O 3093.51 1.13878 -2.43486 0
M  V30 32015 C 3091.78 -1.16329 -3.37938 0
M  V30 32016 S 3093.34 -0.989797 -4.27491 0
M  V30 32017 H 3090.16 -0.265392 -0.659612 0
M  V30 32018 H 3092.76 -1.31466 -1.44696 0
M  V30 32019 H 3091.47 -2.21992 -3.45178 0
M  V30 32020 H 3091 -0.570485 -3.89242 0
M  V30 32021 H 3093.01 0.101579 -4.96096 0
M  V30 32022 N 3092.19 1.35612 -0.802945 0
M  V30 32023 C 3093.12 2.32412 -0.225172 0
M  V30 32024 C 3094.1 1.573 0.647356 0
M  V30 32025 O 3095.28 1.85387 0.578382 0
M  V30 32026 C 3092.41 3.41538 0.630025 0
M  V30 32027 C 3091.37 4.27759 -0.14371 0
M  V30 32028 C 3090.69 5.28172 0.832953 0
M  V30 32029 C 3091.99 5.04801 -1.34063 0
M  V30 32030 H 3093.69 2.80982 -1.0339 0
M  V30 32031 H 3091.23 1.35092 -0.498617 0
M  V30 32032 H 3093.18 4.08256 1.04426 0
M  V30 32033 H 3091.91 2.91567 1.4716 0
M  V30 32034 H 3090.57 3.62615 -0.539079 0
M  V30 32035 H 3090.22 4.74471 1.66993 0
M  V30 32036 H 3089.92 5.8673 0.319594 0
M  V30 32037 H 3091.44 5.97763 1.24547 0
M  V30 32038 H 3092.85 5.64485 -1.00146 0
M  V30 32039 H 3091.25 5.72837 -1.78822 0
M  V30 32040 H 3092.32 4.35655 -2.12914 0
M  V30 32041 N 3093.66 0.556128 1.47462 0
M  V30 32042 C 3094.59 -0.180456 2.32802 0
M  V30 32043 C 3095.57 -0.909823 1.43723 0
M  V30 32044 O 3096.76 -0.8905 1.7258 0
M  V30 32045 C 3093.89 -1.21161 3.2548 0
M  V30 32046 C 3092.84 -0.598771 4.23791 0
M  V30 32047 C 3092.17 -1.73448 5.05786 0
M  V30 32048 C 3093.47 0.44675 5.20386 0
M  V30 32049 H 3095.16 0.532007 2.94635 0
M  V30 32050 H 3092.71 0.257292 1.41683 0
M  V30 32051 H 3094.66 -1.73506 3.84023 0
M  V30 32052 H 3093.39 -1.954 2.61699 0
M  V30 32053 H 3092.05 -0.0966253 3.66473 0
M  V30 32054 H 3091.69 -2.46589 4.3841 0
M  V30 32055 H 3091.39 -1.33021 5.72345 0
M  V30 32056 H 3092.92 -2.26121 5.67187 0
M  V30 32057 H 3094.33 0.00940096 5.73299 0
M  V30 32058 H 3092.73 0.76984 5.95142 0
M  V30 32059 H 3093.8 1.34303 4.6593 0
M  V30 32060 N 3095.14 -1.54861 0.292527 0
M  V30 32061 C 3096.37 -2.04378 -0.322078 0
M  V30 32062 C 3096.78 -1.17019 -1.48162 0
M  V30 32063 O 3096.14 -0.193982 -1.81466 0
M  V30 32064 C 3096.19 -3.52842 -0.786444 0
M  V30 32065 O 3095.91 -4.36878 0.326939 0
M  V30 32066 C 3097.41 -4.1832 -1.46708 0
M  V30 32067 H 3094.63 -0.667212 -0.0711956 0
M  V30 32068 H 3097.18 -1.99935 0.429692 0
M  V30 32069 H 3095.33 -3.57673 -1.48826 0
M  V30 32070 H 3095.75 -5.2449 -0.0330636 0
M  V30 32071 H 3097.22 -5.23751 -1.74324 0
M  V30 32072 H 3097.7 -3.67542 -2.40436 0
M  V30 32073 H 3098.3 -4.17541 -0.808662 0
M  V30 32074 N 3096.62 -0.0200973 -1.57587 0
M  V30 32075 C 3097.55 0.993323 -2.06557 0
M  V30 32076 C 3098.56 1.2945 -0.98725 0
M  V30 32077 O 3099.75 1.26073 -1.26364 0
M  V30 32078 C 3096.85 2.32305 -2.46754 0
M  V30 32079 C 3096.03 2.20836 -3.77558 0
M  V30 32080 C 3095.09 3.36667 -4.04403 0
M  V30 32081 O 3094.11 3.13955 -4.74785 0
M  V30 32082 N 3095.31 4.6017 -3.5387 0
M  V30 32083 H 3098.08 0.575565 -2.94121 0
M  V30 32084 H 3095.64 0.166861 -1.61038 0
M  V30 32085 H 3097.63 3.08604 -2.61812 0
M  V30 32086 H 3096.2 2.65753 -1.64603 0
M  V30 32087 H 3095.42 1.29321 -3.72384 0
M  V30 32088 H 3096.71 2.10367 -4.63274 0
M  V30 32089 H 3096.11 4.81518 -2.96912 0
M  V30 32090 H 3094.66 5.33668 -3.74222 0
M  V30 32091 N 3098.1 1.55557 0.252939 0
M  V30 32092 C 3099.33 1.80892 0.998083 0
M  V30 32093 C 3099.74 0.592654 1.79678 0
M  V30 32094 O 3099.08 -0.448061 1.78152 0
M  V30 32095 C 3099.14 2.99483 1.98873 0
M  V30 32096 C 3098.8 4.35744 1.37753 0
M  V30 32097 C 3099.8 5.13969 0.783052 0
M  V30 32098 C 3097.49 4.82433 1.39871 0
M  V30 32099 C 3099.48 6.37027 0.217892 0
M  V30 32100 C 3097.17 6.05441 0.829694 0
M  V30 32101 C 3098.17 6.82577 0.240306 0
M  V30 32102 O 3097.85 8.03263 -0.319938 0
M  V30 32103 H 3097.59 0.605974 0.299619 0
M  V30 32104 H 3100.14 2.03442 0.282942 0
M  V30 32105 H 3098.37 2.72673 2.74201 0
M  V30 32106 H 3100.06 3.11963 2.5968 0
M  V30 32107 H 3100.82 4.7902 0.759242 0
M  V30 32108 H 3096.7 4.22389 1.84685 0
M  V30 32109 H 3100.25 6.97177 -0.242777 0
M  V30 32110 H 3096.14 6.39868 0.850811 0
M  V30 32111 H 3096.91 8.18227 -0.211221 0
M  V30 32112 N 3099.58 -0.518341 1.48832 0
M  V30 32113 C 3100.99 -0.847956 1.3521 0
M  V30 32114 C 3101.19 -1.98037 0.371962 0
M  V30 32115 O 3100.25 -2.51686 -0.202637 0
M  V30 32116 C 3101.56 -1.2045 2.75522 0
M  V30 32117 C 3103.11 -1.31372 2.84096 0
M  V30 32118 C 3103.58 -1.70364 4.25135 0
M  V30 32119 N 3105.07 -1.77445 4.27864 0
M  V30 32120 C 3105.81 -2.09025 5.33944 0
M  V30 32121 N 3105.31 -2.38948 6.50289 0
M  V30 32122 N 3107.1 -2.1013 5.21346 0
M  V30 32123 H 3099.25 0.228661 2.11166 0
M  V30 32124 H 3101.51 0.0396765 0.947169 0
M  V30 32125 H 3101.22 -0.44593 3.48862 0
M  V30 32126 H 3101.09 -2.15199 3.09789 0
M  V30 32127 H 3103.48 -2.06304 2.11004 0
M  V30 32128 H 3103.56 -0.347158 2.53433 0
M  V30 32129 H 3103.2 -0.959887 4.98747 0
M  V30 32130 H 3103.13 -2.6809 4.5325 0
M  V30 32131 H 3105.63 -1.56551 3.43948 0
M  V30 32132 H 3105.94 -2.62184 7.26966 0
M  V30 32133 H 3104.28 -2.36442 6.53544 0
M  V30 32134 H 3107.47 -1.86218 4.29466 0
M  V30 32135 H 3107.65 -2.34408 6.04117 0
M  V30 32136 N 3101.05 -1.37615 -0.7681 0
M  V30 32137 C 3102.3 -1.33222 -1.52904 0
M  V30 32138 C 3102.63 0.0820876 -1.94026 0
M  V30 32139 O 3101.91 1.0402 -1.64347 0
M  V30 32140 C 3102.19 -2.27468 -2.7916 0
M  V30 32141 C 3102.04 -3.77694 -2.44269 0
M  V30 32142 C 3103.36 -2.20095 -3.81112 0
M  V30 32143 H 3100.48 -0.485256 -0.554703 0
M  V30 32144 H 3103.12 -1.68346 -0.880882 0
M  V30 32145 H 3101.27 -1.97645 -3.34468 0
M  V30 32146 H 3102.95 -4.18129 -1.94848 0
M  V30 32147 H 3101.19 -3.96084 -1.76918 0
M  V30 32148 H 3101.86 -4.39078 -3.34537 0
M  V30 32149 H 3104.34 -2.46391 -3.35307 0
M  V30 32150 H 3103.21 -2.88174 -4.67169 0
M  V30 32151 H 3103.47 -1.19505 -4.25642 0
M  V30 32152 N 3102.53 0.994677 -1.22245 0
M  V30 32153 C 3103.76 1.77485 -1.07302 0
M  V30 32154 C 3104.18 1.84379 0.37227 0
M  V30 32155 O 3103.54 1.29496 1.26888 0
M  V30 32156 C 3103.59 3.18715 -1.6868 0
M  V30 32157 O 3102.69 4.01561 -0.939272 0
M  V30 32158 H 3102.03 0.546604 -0.376988 0
M  V30 32159 H 3104.56 1.24962 -1.62005 0
M  V30 32160 H 3104.57 3.69351 -1.73331 0
M  V30 32161 H 3103.25 3.13012 -2.73855 0
M  V30 32162 H 3101.82 3.60099 -0.968647 0
M  V30 32163 N 3104.01 1.03186 1.19123 0
M  V30 32164 C 3104.94 0.635928 2.24674 0
M  V30 32165 C 3105.92 -0.356536 1.66321 0
M  V30 32166 O 3107.11 -0.238591 1.92729 0
M  V30 32167 C 3104.24 -0.011008 3.47298 0
M  V30 32168 C 3103.19 0.904053 4.18343 0
M  V30 32169 C 3102.52 0.122064 5.34561 0
M  V30 32170 C 3103.82 2.21915 4.72812 0
M  V30 32171 H 3105.51 1.51829 2.58047 0
M  V30 32172 H 3103.06 0.731482 1.24038 0
M  V30 32173 H 3105.01 -0.299656 4.20333 0
M  V30 32174 H 3103.73 -0.92819 3.13133 0
M  V30 32175 H 3102.39 1.17694 3.47194 0
M  V30 32176 H 3102.04 -0.797247 4.96642 0
M  V30 32177 H 3101.74 0.7316 5.83028 0
M  V30 32178 H 3103.26 -0.159773 6.10391 0
M  V30 32179 H 3104.68 1.99182 5.37587 0
M  V30 32180 H 3103.07 2.78088 5.31778 0
M  V30 32181 H 3104.14 2.87175 3.90715 0
M  V30 32182 N 3105.49 -1.35184 0.810125 0
M  V30 32183 C 3106.9 -1.51753 0.494295 0
M  V30 32184 C 3107.1 -1.75847 -0.983876 0
M  V30 32185 O 3106.16 -1.80195 -1.76879 0
M  V30 32186 C 3107.47 -2.69056 1.34272 0
M  V30 32187 C 3109.02 -2.82935 1.33853 0
M  V30 32188 C 3109.5 -4.03268 2.17116 0
M  V30 32189 N 3110.99 -4.10452 2.14671 0
M  V30 32190 C 3111.72 -5.02686 2.75852 0
M  V30 32191 N 3111.22 -6.00229 3.45973 0
M  V30 32192 N 3113.01 -4.95459 2.65474 0
M  V30 32193 H 3105.16 -1.17802 1.76738 0
M  V30 32194 H 3107.43 -0.576663 0.752439 0
M  V30 32195 H 3107.13 -2.57841 2.39188 0
M  V30 32196 H 3107.01 -3.63746 0.998426 0
M  V30 32197 H 3109.39 -2.93599 0.297212 0
M  V30 32198 H 3109.47 -1.89092 1.72272 0
M  V30 32199 H 3109.12 -3.93364 3.2129 0
M  V30 32200 H 3109.05 -4.96299 1.76054 0
M  V30 32201 H 3111.54 -3.40626 1.63654 0
M  V30 32202 H 3111.85 -6.67212 3.89934 0
M  V30 32203 H 3110.2 -6.00392 3.50078 0
M  V30 32204 H 3113.39 -4.18212 2.10278 0
M  V30 32205 H 3113.56 -5.67149 3.13443 0
M  V30 32206 N 3106.97 -0.56394 -1.47165 0
M  V30 32207 C 3108.2 -0.0473962 -2.06546 0
M  V30 32208 C 3108.6 1.25473 -1.41609 0
M  V30 32209 O 3107.95 1.76508 -0.508971 0
M  V30 32210 C 3108.01 0.212186 -3.58873 0
M  V30 32211 C 3107.67 -1.00151 -4.45891 0
M  V30 32212 C 3108.67 -1.90881 -4.83591 0
M  V30 32213 C 3106.36 -1.21808 -4.87307 0
M  V30 32214 C 3108.35 -3.01631 -5.61514 0
M  V30 32215 C 3106.04 -2.32866 -5.64993 0
M  V30 32216 C 3107.03 -3.22608 -6.02008 0
M  V30 32217 O 3106.72 -4.31739 -6.78127 0
M  V30 32218 H 3106.45 -0.0458942 -0.67444 0
M  V30 32219 H 3109.01 -0.778899 -1.90059 0
M  V30 32220 H 3107.24 0.99808 -3.73598 0
M  V30 32221 H 3108.93 0.674934 -4.00249 0
M  V30 32222 H 3109.69 -1.75358 -4.52189 0
M  V30 32223 H 3105.57 -0.528722 -4.57958 0
M  V30 32224 H 3109.12 -3.71703 -5.90324 0
M  V30 32225 H 3105.01 -2.4836 -5.95808 0
M  V30 32226 H 3105.78 -4.29871 -6.96529 0
M  V30 32227 N 3108.44 1.54704 -0.300735 0
M  V30 32228 C 3109.69 2.00431 0.309076 0
M  V30 32229 C 3110.02 1.18882 1.5356 0
M  V30 32230 O 3109.3 0.265239 1.92683 0
M  V30 32231 C 3109.58 3.53889 0.665933 0
M  V30 32232 C 3109.43 4.46177 -0.569709 0
M  V30 32233 C 3110.75 4.14018 1.49255 0
M  V30 32234 H 3107.87 0.728614 0.110865 0
M  V30 32235 H 3110.51 1.85462 -0.412781 0
M  V30 32236 H 3108.66 3.66775 1.28094 0
M  V30 32237 H 3110.34 4.45197 -1.20818 0
M  V30 32238 H 3108.58 4.16786 -1.203 0
M  V30 32239 H 3109.25 5.5131 -0.275882 0
M  V30 32240 H 3111.73 4.04566 0.972908 0
M  V30 32241 H 3110.6 5.21551 1.71102 0
M  V30 32242 H 3110.86 3.65876 2.48167 0
M  V30 32243 N 3109.92 0.0284543 1.57574 0
M  V30 32244 C 3110.89 -0.938654 2.09098 0
M  V30 32245 C 3111.89 -1.25452 1.0059 0
M  V30 32246 O 3113.08 -1.19497 1.26752 0
M  V30 32247 C 3110.21 -2.25538 2.55628 0
M  V30 32248 H 3111.4 -0.492428 2.9583 0
M  V30 32249 H 3108.95 -0.219567 1.5475 0
M  V30 32250 H 3109.69 -2.7479 1.72223 0
M  V30 32251 H 3109.47 -2.03923 3.349 0
M  V30 32252 H 3110.96 -2.94858 2.95717 0
M  V30 32253 N 3111.4 -1.55689 -0.244686 0
M  V30 32254 C 3112.81 -1.68041 -0.813573 0
M  V30 32255 C 3113.16 -0.626313 -1.85935 0
M  V30 32256 O 3112.29 0.227 -2.15206 0
M  V30 32257 C 3112.88 -3.04645 -1.48247 0
M  V30 32258 C 3111.44 -3.18929 -1.99903 0
M  V30 32259 C 3110.59 -2.63922 -0.850912 0
M  V30 32260 H 3113.54 -1.58687 -0.0204526 0
M  V30 32261 H 3113.56 -2.99213 -2.35057 0
M  V30 32262 H 3113.07 -3.81342 -0.721097 0
M  V30 32263 H 3111.17 -2.47059 -2.78914 0
M  V30 32264 H 3111.29 -4.25865 -2.19489 0
M  V30 32265 H 3109.65 -2.21803 -1.25202 0
M  V30 32266 H 3110.43 -3.43147 -0.10259 0
M  V30 32267 N 3112.88 0.510441 -1.49105 0
M  V30 32268 C 3114.29 1.09212 -1.51425 0
M  V30 32269 C 3114.64 1.93969 -0.295069 0
M  V30 32270 O 3113.77 2.0803 0.596027 0
M  V30 32271 C 3114.36 1.98734 -2.74391 0
M  V30 32272 C 3112.92 2.52083 -2.7952 0
M  V30 32273 C 3112.07 1.29484 -2.45213 0
M  V30 32274 H 3115.02 0.29478 -1.55938 0
M  V30 32275 H 3115.04 2.83294 -2.54017 0
M  V30 32276 H 3114.55 1.3702 -3.63108 0
M  V30 32277 H 3112.65 3.17463 -1.9506 0
M  V30 32278 H 3112.76 2.89881 -3.81453 0
M  V30 32279 H 3111.13 1.617 -1.96787 0
M  V30 32280 H 3111.91 0.694919 -3.36193 0
M  V30 32281 N 3114.36 1.38021 0.760791 0
M  V30 32282 C 3115.58 1.37227 1.55511 0
M  V30 32283 C 3116.01 -0.0375779 1.88062 0
M  V30 32284 O 3115.36 -1.01767 1.50044 0
M  V30 32285 C 3115.41 2.22801 2.83535 0
M  V30 32286 O 3114.52 1.64016 3.78381 0
M  V30 32287 H 3113.86 0.468401 0.470634 0
M  V30 32288 H 3116.39 1.81689 0.94076 0
M  V30 32289 H 3116.4 2.36405 3.32531 0
M  V30 32290 H 3115.07 3.25273 2.59172 0
M  V30 32291 H 3113.65 1.59514 3.3706 0
M  V30 32292 N 3115.83 -0.98818 1.22771 0
M  V30 32293 C 3116.76 -2.09736 1.02631 0
M  V30 32294 C 3117.75 -1.70013 -0.0542912 0
M  V30 32295 O 3118.93 -1.93895 0.108845 0
M  V30 32296 C 3116.06 -3.4193 0.608362 0
M  V30 32297 C 3115.01 -3.95522 1.63543 0
M  V30 32298 C 3114.34 -5.2382 1.07317 0
M  V30 32299 C 3115.64 -4.25671 3.02657 0
M  V30 32300 H 3117.33 -2.26843 1.95404 0
M  V30 32301 H 3114.88 -1.09009 0.940907 0
M  V30 32302 H 3116.83 -4.18941 0.454552 0
M  V30 32303 H 3115.56 -3.24665 -0.355038 0
M  V30 32304 H 3114.22 -3.20648 1.77709 0
M  V30 32305 H 3113.86 -5.02899 0.100982 0
M  V30 32306 H 3113.56 -5.60643 1.75935 0
M  V30 32307 H 3115.09 -6.0346 0.931044 0
M  V30 32308 H 3116.5 -4.93461 2.91837 0
M  V30 32309 H 3114.9 -4.73678 3.68442 0
M  V30 32310 H 3115.97 -3.33255 3.52234 0
M  V30 32311 N 3117.31 -1.03816 -1.18575 0
M  V30 32312 C 3118.73 -0.756934 -1.40509 0
M  V30 32313 C 3118.93 0.654598 -1.90571 0
M  V30 32314 O 3117.98 1.41918 -2.08843 0
M  V30 32315 C 3119.3 -1.80091 -2.40806 0
M  V30 32316 C 3120.85 -1.82153 -2.54538 0
M  V30 32317 C 3121.32 -2.85535 -3.58097 0
M  V30 32318 N 3122.81 -2.8441 -3.65602 0
M  V30 32319 C 3123.55 -3.61055 -4.45451 0
M  V30 32320 N 3123.04 -4.47444 -5.28929 0
M  V30 32321 N 3124.84 -3.49555 -4.4019 0
M  V30 32322 H 3116.99 -1.9491 -0.84404 0
M  V30 32323 H 3119.25 -0.843196 -0.433272 0
M  V30 32324 H 3118.96 -2.81326 -2.11065 0
M  V30 32325 H 3118.83 -1.63095 -3.40118 0
M  V30 32326 H 3121.22 -0.815905 -2.83597 0
M  V30 32327 H 3121.3 -2.03225 -1.55348 0
M  V30 32328 H 3120.94 -3.86275 -3.29779 0
M  V30 32329 H 3120.87 -2.61718 -4.56959 0
M  V30 32330 H 3123.36 -2.21762 -3.0599 0
M  V30 32331 H 3123.68 -5.02642 -5.87001 0
M  V30 32332 H 3122.02 -4.51512 -5.28358 0
M  V30 32333 H 3125.21 -2.81471 -3.74021 0
M  V30 32334 H 3125.38 -4.09537 -5.02179 0
M  V30 32335 N 3118.79 1.34753 -0.817283 0
M  V30 32336 C 3119.72 2.27485 -0.180523 0
M  V30 32337 C 3120.7 1.48613 0.659765 0
M  V30 32338 O 3121.89 1.77846 0.62473 0
M  V30 32339 C 3119.01 3.30327 0.748429 0
M  V30 32340 C 3118.06 4.26498 -0.0136054 0
M  V30 32341 S 3118.89 5.18023 -1.35694 0
M  V30 32342 C 3120.05 6.24402 -0.432715 0
M  V30 32343 H 3120.28 2.81144 -0.966726 0
M  V30 32344 H 3117.81 1.41715 -0.612889 0
M  V30 32345 H 3119.77 3.90071 1.27886 0
M  V30 32346 H 3118.43 2.75527 1.50811 0
M  V30 32347 H 3117.63 4.99222 0.692366 0
M  V30 32348 H 3117.23 3.70979 -0.474409 0
M  V30 32349 H 3119.52 6.76445 0.377916 0
M  V30 32350 H 3120.46 6.99034 -1.12946 0
M  V30 32351 H 3120.87 5.64495 -0.0236525 0
M  V30 32352 N 3120.27 0.571737 1.46864 0
M  V30 32353 C 3121.68 0.142214 1.86158 0
M  V30 32354 C 3122.03 -1.29187 1.47665 0
M  V30 32355 O 3121.16 -1.97412 0.886428 0
M  V30 32356 C 3121.75 0.251316 3.37867 0
M  V30 32357 C 3120.31 -0.123263 3.76198 0
M  V30 32358 C 3119.46 0.59228 2.70901 0
M  V30 32359 H 3122.41 0.780612 1.38174 0
M  V30 32360 H 3122.43 -0.526265 3.76843 0
M  V30 32361 H 3121.94 1.29516 3.65851 0
M  V30 32362 H 3120.04 -1.16767 3.53831 0
M  V30 32363 H 3120.16 0.245414 4.78471 0
M  V30 32364 H 3118.52 0.0337374 2.54678 0
M  V30 32365 H 3119.3 1.63757 3.01726 0
M  V30 32366 N 3121.75 -1.54542 0.308935 0
M  V30 32367 C 3123.16 -1.8581 -0.182111 0
M  V30 32368 C 3123.51 -1.23079 -1.52794 0
M  V30 32369 O 3122.63 -0.531395 -2.09774 0
M  V30 32370 C 3123.23 -3.37118 -0.337215 0
M  V30 32371 C 3121.79 -3.68388 -0.772481 0
M  V30 32372 C 3120.94 -2.77064 0.1145 0
M  V30 32373 H 3123.89 -1.49599 0.529697 0
M  V30 32374 H 3123.91 -3.62049 -1.17052 0
M  V30 32375 H 3123.42 -3.82746 0.64245 0
M  V30 32376 H 3121.52 -3.28283 -1.76241 0
M  V30 32377 H 3121.63 -4.75498 -0.586369 0
M  V30 32378 H 3120 -2.51418 -0.407537 0
M  V30 32379 H 3120.78 -3.25514 1.09066 0
M  V30 32380 N 3123.23 -0.0368104 -1.57557 0
M  V30 32381 C 3124.45 0.650133 -1.9642 0
M  V30 32382 C 3124.87 1.65219 -0.913685 0
M  V30 32383 O 3124.23 1.82205 0.103686 0
M  V30 32384 C 3124.28 1.34974 -3.35357 0
M  V30 32385 O 3124 0.387828 -4.3638 0
M  V30 32386 C 3125.5 2.12779 -3.88896 0
M  V30 32387 H 3122.72 0.178745 -0.646754 0
M  V30 32388 H 3125.26 -0.0988556 -2.04261 0
M  V30 32389 H 3123.42 2.05007 -3.28711 0
M  V30 32390 H 3123.83 0.885506 -5.16971 0
M  V30 32391 H 3125.31 2.57172 -4.88433 0
M  V30 32392 H 3125.78 2.97003 -3.23552 0
M  V30 32393 H 3126.39 1.47687 -3.98834 0
M  V30 32394 N 3124.7 1.55817 0.236426 0
M  V30 32395 C 3125.95 1.78401 0.964407 0
M  V30 32396 C 3126.28 0.6039 1.84572 0
M  V30 32397 O 3125.56 -0.397439 1.90396 0
M  V30 32398 C 3125.84 3.10954 1.81603 0
M  V30 32399 C 3125.69 4.39388 0.962206 0
M  V30 32400 C 3127.01 3.39822 2.79659 0
M  V30 32401 H 3124.13 0.649032 0.34918 0
M  V30 32402 H 3126.77 1.88551 0.234214 0
M  V30 32403 H 3124.92 3.02432 2.43858 0
M  V30 32404 H 3126.6 4.59912 0.357539 0
M  V30 32405 H 3124.84 4.32978 0.266986 0
M  V30 32406 H 3125.51 5.28541 1.59212 0
M  V30 32407 H 3127.99 3.48374 2.2754 0
M  V30 32408 H 3126.86 4.33766 3.3636 0
M  V30 32409 H 3127.12 2.6125 3.56652 0
M  V30 32410 N 3126.18 -0.502526 1.49373 0
M  V30 32411 C 3127.6 -0.833567 1.36102 0
M  V30 32412 C 3127.8 -1.97631 0.392946 0
M  V30 32413 O 3126.85 -2.51886 -0.175931 0
M  V30 32414 C 3128.17 -1.17521 2.76784 0
M  V30 32415 C 3129.71 -1.28351 2.85473 0
M  V30 32416 C 3130.19 -1.65845 4.26918 0
M  V30 32417 N 3131.68 -1.72897 4.29722 0
M  V30 32418 C 3132.42 -2.0335 5.36131 0
M  V30 32419 N 3131.91 -2.32038 6.52787 0
M  V30 32420 N 3133.7 -2.04588 5.23546 0
M  V30 32421 H 3125.86 0.251046 2.10911 0
M  V30 32422 H 3128.12 0.0497203 0.946695 0
M  V30 32423 H 3127.82 -0.408903 3.49315 0
M  V30 32424 H 3127.7 -2.11901 3.12054 0
M  V30 32425 H 3130.09 -2.04054 2.1318 0
M  V30 32426 H 3130.17 -0.320259 2.53787 0
M  V30 32427 H 3129.81 -0.906934 4.99737 0
M  V30 32428 H 3129.74 -2.63268 4.56068 0
M  V30 32429 H 3132.23 -1.52894 3.45589 0
M  V30 32430 H 3132.54 -2.54458 7.29706 0
M  V30 32431 H 3130.89 -2.29497 6.56015 0
M  V30 32432 H 3134.08 -1.81652 4.31416 0
M  V30 32433 H 3134.25 -2.27988 6.06569 0
M  V30 32434 N 3127.66 -1.38422 -0.75346 0
M  V30 32435 C 3128.62 -1.35462 -1.84886 0
M  V30 32436 C 3129.62 -0.255111 -1.58763 0
M  V30 32437 O 3130.81 -0.512007 -1.66506 0
M  V30 32438 C 3127.94 -1.10893 -3.22359 0
M  V30 32439 H 3129.14 -2.32916 -1.88918 0
M  V30 32440 H 3126.69 -1.23718 -0.955177 0
M  V30 32441 H 3127.43 -0.140457 -3.23996 0
M  V30 32442 H 3127.21 -1.90498 -3.42714 0
M  V30 32443 H 3128.7 -1.11518 -4.02435 0
M  V30 32444 N 3129.14 0.981655 -1.23294 0
M  V30 32445 C 3130.38 1.72277 -1.06427 0
M  V30 32446 C 3130.71 1.90363 0.399021 0
M  V30 32447 O 3129.97 1.45226 1.31179 0
M  V30 32448 C 3130.27 3.12548 -1.73344 0
M  V30 32449 C 3129.93 3.14345 -3.23261 0
M  V30 32450 C 3128.59 3.14543 -3.64165 0
M  V30 32451 C 3130.95 3.09758 -4.19165 0
M  V30 32452 C 3128.27 3.07868 -4.99434 0
M  V30 32453 C 3130.63 3.04625 -5.54424 0
M  V30 32454 C 3129.29 3.03144 -5.94693 0
M  V30 32455 H 3128.56 0.630408 -0.389445 0
M  V30 32456 H 3131.21 1.14887 -1.5321 0
M  V30 32457 H 3129.51 3.73317 -1.18918 0
M  V30 32458 H 3131.21 3.68658 -1.57773 0
M  V30 32459 H 3127.8 3.14948 -2.90699 0
M  V30 32460 H 3131.98 3.08746 -3.88574 0
M  V30 32461 H 3127.24 3.05073 -5.29849 0
M  V30 32462 H 3131.41 3.00032 -6.28453 0
M  V30 32463 H 3129.04 2.97726 -6.99473 0
M  V30 32464 N 3130.62 1.04444 1.18022 0
M  V30 32465 C 3131.86 0.751166 1.88376 0
M  V30 32466 C 3132.19 -0.719539 1.80378 0
M  V30 32467 O 3131.47 -1.52546 1.20665 0
M  V30 32468 C 3131.75 1.22271 3.38706 0
M  V30 32469 C 3131.61 2.7558 3.55494 0
M  V30 32470 C 3132.92 0.815764 4.32473 0
M  V30 32471 H 3130.04 0.274352 0.684032 0
M  V30 32472 H 3132.69 1.29711 1.38835 0
M  V30 32473 H 3130.84 0.758259 3.81028 0
M  V30 32474 H 3132.51 3.30092 3.22238 0
M  V30 32475 H 3130.75 3.15222 2.98023 0
M  V30 32476 H 3131.42 3.03634 4.60989 0
M  V30 32477 H 3133.9 1.21549 3.97951 0
M  V30 32478 H 3132.77 1.17341 5.36211 0
M  V30 32479 H 3133.03 -0.280823 4.41207 0
M  V30 32480 N 3132.09 -1.34317 0.824418 0
M  V30 32481 C 3133.06 -2.27802 0.252736 0
M  V30 32482 C 3134.06 -1.5035 -0.570228 0
M  V30 32483 O 3135.25 -1.69867 -0.386115 0
M  V30 32484 C 3132.38 -3.34733 -0.645516 0
M  V30 32485 H 3133.57 -2.79876 1.07747 0
M  V30 32486 H 3131.12 -1.44474 0.596393 0
M  V30 32487 H 3131.86 -2.87876 -1.49325 0
M  V30 32488 H 3131.64 -3.92059 -0.0568789 0
M  V30 32489 H 3133.13 -4.04462 -1.03925 0
M  V30 32490 N 3133.57 -0.579517 -1.46558 0
M  V30 32491 C 3134.8 -0.067496 -2.0729 0
M  V30 32492 C 3135.22 1.22674 -1.42593 0
M  V30 32493 O 3134.58 1.7402 -0.5086 0
M  V30 32494 C 3134.63 0.0881594 -3.60492 0
M  V30 32495 O 3133.73 1.14544 -3.96174 0
M  V30 32496 H 3133.07 -0.0613652 -0.661158 0
M  V30 32497 H 3135.6 -0.801552 -1.88245 0
M  V30 32498 H 3135.61 0.295339 -4.0693 0
M  V30 32499 H 3134.29 -0.857015 -4.06974 0
M  V30 32500 H 3132.86 0.916969 -3.6145 0
M  V30 32501 N 3135.05 1.54376 -0.317127 0
M  V30 32502 C 3136.47 1.5956 0.035738 0
M  V30 32503 C 3136.67 1.33381 1.51036 0
M  V30 32504 O 3135.72 1.11509 2.26544 0
M  V30 32505 C 3137.04 2.98331 -0.376705 0
M  V30 32506 C 3138.58 3.11289 -0.32682 0
M  V30 32507 C 3139.06 4.52395 -0.714327 0
M  V30 32508 N 3140.55 4.58365 -0.667483 0
M  V30 32509 C 3141.28 5.65649 -0.939594 0
M  V30 32510 N 3140.78 6.80901 -1.27851 0
M  V30 32511 N 3142.57 5.55395 -0.865582 0
M  V30 32512 H 3134.72 1.69651 -1.27797 0
M  V30 32513 H 3136.99 0.793171 -0.519214 0
M  V30 32514 H 3136.69 3.22466 -1.40386 0
M  V30 32515 H 3136.57 3.76292 0.261544 0
M  V30 32516 H 3138.95 2.86893 0.69112 0
M  V30 32517 H 3139.04 2.35447 -0.999915 0
M  V30 32518 H 3138.68 4.77523 -1.73015 0
M  V30 32519 H 3138.61 5.26597 -0.0189888 0
M  V30 32520 H 3141.1 3.75591 -0.417128 0
M  V30 32521 H 3141.41 7.58658 -1.47169 0
M  V30 32522 H 3139.76 6.82413 -1.3167 0
M  V30 32523 H 3142.95 4.64234 -0.600346 0
M  V30 32524 H 3143.12 6.3892 -1.08101 0
M  V30 32525 N 3136.53 0.0451655 1.57535 0
M  V30 32526 C 3137.78 -0.628709 1.92072 0
M  V30 32527 C 3138.1 -1.71736 0.923666 0
M  V30 32528 O 3137.37 -1.95873 -0.0324032 0
M  V30 32529 H 3135.95 -0.235221 0.708999 0
M  V30 32530 H 3138.61 0.096752 1.9466 0
M  V30 32531 H 3137.71 -1.07117 2.93142 0
M  V30 32532 N 3138.01 -1.5594 -0.228159 0
M  V30 32533 C 3139.23 -1.82722 -0.970586 0
M  V30 32534 C 3139.65 -0.623417 -1.7821 0
M  V30 32535 O 3139.01 0.408032 -1.7788 0
M  V30 32536 C 3139.06 -3.07945 -1.89346 0
M  V30 32537 O 3138.78 -4.2368 -1.11476 0
M  V30 32538 C 3140.28 -3.47666 -2.75033 0
M  V30 32539 H 3137.5 -0.607579 -0.284762 0
M  V30 32540 H 3140.04 -2.03022 -0.245383 0
M  V30 32541 H 3138.2 -2.89639 -2.5727 0
M  V30 32542 H 3138.61 -4.94775 -1.74064 0
M  V30 32543 H 3140.09 -4.3834 -3.35503 0
M  V30 32544 H 3140.56 -2.69113 -3.47095 0
M  V30 32545 H 3141.17 -3.68388 -2.12533 0
M  V30 32546 N 3139.48 0.494597 -1.49638 0
M  V30 32547 C 3140.43 1.59542 -1.66778 0
M  V30 32548 C 3141.4 1.58103 -0.509187 0
M  V30 32549 O 3142.59 1.75992 -0.73698 0
M  V30 32550 C 3139.73 2.97655 -1.7463 0
M  V30 32551 C 3138.84 3.09061 -3.01836 0
M  V30 32552 C 3137.97 4.37946 -3.00627 0
M  V30 32553 C 3137.01 4.43009 -4.22385 0
M  V30 32554 N 3136.15 5.63331 -4.19049 0
M  V30 32555 H 3140.99 1.44233 -2.6077 0
M  V30 32556 H 3138.53 0.70165 -1.29288 0
M  V30 32557 H 3140.49 3.77716 -1.77162 0
M  V30 32558 H 3139.12 3.11652 -0.840991 0
M  V30 32559 H 3138.17 2.22023 -3.08885 0
M  V30 32560 H 3139.48 3.08662 -3.91828 0
M  V30 32561 H 3138.63 5.26334 -3.01758 0
M  V30 32562 H 3137.37 4.4092 -2.08424 0
M  V30 32563 H 3136.38 3.53023 -4.21491 0
M  V30 32564 H 3137.6 4.41746 -5.15788 0
M  V30 32565 H 3135.55 5.67135 -3.29687 0
M  V30 32566 H 3135.47 5.64575 -5.02784 0
M  V30 32567 H 3136.73 6.53908 -4.24293 0
M  V30 32568 N 3140.96 1.3882 0.746109 0
M  V30 32569 C 3141.89 1.32543 1.86989 0
M  V30 32570 C 3142.91 0.236245 1.61077 0
M  V30 32571 O 3144.1 0.494371 1.71517 0
M  V30 32572 C 3141.2 1.03264 3.22784 0
M  V30 32573 C 3140.37 2.23241 3.76141 0
M  V30 32574 C 3139.43 1.9059 4.90471 0
M  V30 32575 O 3138.45 2.63161 5.04712 0
M  V30 32576 N 3139.66 0.865351 5.74014 0
M  V30 32577 H 3142.42 2.29384 1.92881 0
M  V30 32578 H 3139.98 1.32778 0.926369 0
M  V30 32579 H 3141.97 0.794603 3.96823 0
M  V30 32580 H 3140.54 0.15195 3.1223 0
M  V30 32581 H 3139.76 2.63064 2.93583 0
M  V30 32582 H 3141.05 3.03293 4.08523 0
M  V30 32583 H 3140.45 0.263677 5.65085 0
M  V30 32584 H 3139.01 0.687201 6.48167 0
M  V30 32585 N 3142.44 -0.975103 1.23812 0
M  V30 32586 C 3143.35 -2.10247 1.04084 0
M  V30 32587 C 3144.37 -1.73992 -0.0162098 0
M  V30 32588 O 3145.54 -2.00591 0.180381 0
M  V30 32589 C 3142.61 -3.4074 0.640073 0
M  V30 32590 C 3141.67 -3.90988 1.77277 0
M  V30 32591 C 3140.9 -5.15253 1.39103 0
M  V30 32592 O 3141.12 -5.69724 0.277583 0
M  V30 32593 O 3140.06 -5.59701 2.21402 0
M  V30 32594 H 3143.88 -2.29782 1.98579 0
M  V30 32595 H 3141.47 -1.08631 1.02565 0
M  V30 32596 H 3143.35 -4.19223 0.427758 0
M  V30 32597 H 3142.03 -3.22523 -0.275833 0
M  V30 32598 H 3140.93 -3.13599 2.03977 0
M  V30 32599 H 3142.27 -4.13669 2.66718 0
M  V30 32600 N 3143.92 -1.05068 -1.17467 0
M  V30 32601 C 3144.83 -0.661262 -2.25088 0
M  V30 32602 C 3145.84 0.31709 -1.71086 0
M  V30 32603 O 3147.02 0.169498 -2.00685 0
M  V30 32604 C 3144.09 -0.0407024 -3.46676 0
M  V30 32605 C 3143.15 -1.06934 -4.15769 0
M  V30 32606 C 3142.38 -0.478301 -5.31552 0
M  V30 32607 O 3142.6 0.712615 -5.65931 0
M  V30 32608 O 3141.54 -1.21195 -5.89572 0
M  V30 32609 H 3145.36 -1.55815 -2.60683 0
M  V30 32610 H 3142.95 -0.822169 -1.24743 0
M  V30 32611 H 3144.83 0.304238 -4.203 0
M  V30 32612 H 3143.5 0.829854 -3.12882 0
M  V30 32613 H 3142.41 -1.46625 -3.44168 0
M  V30 32614 H 3143.74 -1.911 -4.53587 0
M  V30 32615 N 3145.4 1.33878 -0.831529 0
M  V30 32616 C 3146.64 1.98018 -0.423709 0
M  V30 32617 C 3146.97 1.65897 1.01531 0
M  V30 32618 O 3146.23 0.927213 1.72341 0
M  V30 32619 C 3146.53 3.52616 -0.582795 0
M  V30 32620 C 3146.19 4.04669 -1.98881 0
M  V30 32621 C 3144.85 4.18596 -2.37341 0
M  V30 32622 C 3147.21 4.32565 -2.90753 0
M  V30 32623 C 3144.53 4.57749 -3.66992 0
M  V30 32624 C 3146.89 4.73166 -4.19877 0
M  V30 32625 C 3145.55 4.85299 -4.58303 0
M  V30 32626 H 3144.82 0.724598 -0.155046 0
M  V30 32627 H 3147.47 1.59677 -1.05714 0
M  V30 32628 H 3145.77 3.91571 0.133983 0
M  V30 32629 H 3147.47 4.00235 -0.247646 0
M  V30 32630 H 3144.06 3.94298 -1.68008 0
M  V30 32631 H 3148.24 4.21335 -2.62279 0
M  V30 32632 H 3143.5 4.65334 -3.96579 0
M  V30 32633 H 3147.67 4.93709 -4.91146 0
M  V30 32634 H 3145.3 5.15394 -5.58814 0
M  V30 32635 N 3146.87 0.587281 1.46249 0
M  V30 32636 C 3147.78 -0.145703 2.34147 0
M  V30 32637 C 3148.8 -0.88135 1.50027 0
M  V30 32638 O 3149.98 -0.843507 1.82885 0
M  V30 32639 C 3147.04 -1.1436 3.27296 0
M  V30 32640 C 3146.1 -0.412124 4.27317 0
M  V30 32641 C 3145.34 -1.36248 5.16016 0
M  V30 32642 O 3145.56 -2.59926 5.07735 0
M  V30 32643 O 3144.49 -0.870576 5.95571 0
M  V30 32644 H 3148.32 0.576108 2.98186 0
M  V30 32645 H 3145.9 0.347654 1.45299 0
M  V30 32646 H 3147.79 -1.71887 3.8475 0
M  V30 32647 H 3146.46 -1.8468 2.65848 0
M  V30 32648 H 3145.37 0.205102 3.73537 0
M  V30 32649 H 3146.7 0.25019 4.91564 0
M  V30 32650 N 3148.35 -1.54206 0.325309 0
M  V30 32651 C 3149.58 -2.05482 -0.281382 0
M  V30 32652 C 3150 -1.1998 -1.44867 0
M  V30 32653 O 3149.36 -0.209306 -1.80088 0
M  V30 32654 C 3149.41 -3.53899 -0.691967 0
M  V30 32655 O 3148.51 -3.71328 -1.79414 0
M  V30 32656 H 3147.85 -0.662079 -0.0504756 0
M  V30 32657 H 3150.38 -1.99028 0.474226 0
M  V30 32658 H 3150.39 -3.962 -0.974149 0
M  V30 32659 H 3149.07 -4.15585 0.161783 0
M  V30 32660 H 3147.65 -3.40932 -1.51063 0
M  V30 32661 N 3149.83 -0.0535194 -1.57509 0
M  V30 32662 C 3151.08 0.61921 -1.9196 0
M  V30 32663 C 3151.39 1.71865 -0.933912 0
M  V30 32664 O 3152.6 2.4497 -1.17056 0
M  V30 32665 C 3151.06 1.15272 -3.4094 0
M  V30 32666 C 3150.66 0.0852693 -4.47919 0
M  V30 32667 C 3152.41 1.80056 -3.84422 0
M  V30 32668 C 3150.31 0.631794 -5.88016 0
M  V30 32669 H 3149.24 0.23506 -0.716424 0
M  V30 32670 H 3151.9 -0.12279 -1.83089 0
M  V30 32671 H 3150.28 1.94711 -3.44824 0
M  V30 32672 H 3151.45 -0.688454 -4.55628 0
M  V30 32673 H 3149.77 -0.465251 -4.13793 0
M  V30 32674 H 3152.36 2.21945 -4.86461 0
M  V30 32675 H 3152.71 2.65322 -3.20795 0
M  V30 32676 H 3153.24 1.07269 -3.83064 0
M  V30 32677 H 3149.98 -0.18329 -6.55244 0
M  V30 32678 H 3149.5 1.37345 -5.83863 0
M  V30 32679 H 3151.18 1.11395 -6.37338 0
M  V30 32680 N 3151.31 1.56059 0.219886 0
M  V30 32681 C 3152.22 1.95721 1.29346 0
M  V30 32682 C 3153.24 0.861275 1.51189 0
M  V30 32683 O 3154.41 1.16498 1.64287 0
M  V30 32684 C 3151.48 2.26731 2.62286 0
M  V30 32685 C 3150.54 3.49902 2.48731 0
M  V30 32686 C 3149.77 3.79423 3.75332 0
M  V30 32687 O 3149.99 3.10595 4.78421 0
M  V30 32688 O 3148.93 4.7291 3.72344 0
M  V30 32689 H 3152.75 2.87217 0.986929 0
M  V30 32690 H 3150.34 1.4329 0.422885 0
M  V30 32691 H 3152.22 2.47863 3.40796 0
M  V30 32692 H 3150.9 1.38409 2.92617 0
M  V30 32693 H 3149.8 3.34046 1.68416 0
M  V30 32694 H 3151.14 4.38612 2.2334 0
M  V30 32695 N 3152.79 -0.486655 1.49898 0
M  V30 32696 C 3153.7 -1.61267 1.70382 0
M  V30 32697 C 3154.71 -1.63813 0.586619 0
M  V30 32698 O 3155.89 -1.8197 0.863076 0
M  V30 32699 C 3152.95 -2.97568 1.77916 0
M  V30 32700 C 3152.02 -3.05535 3.01574 0
M  V30 32701 C 3151.25 -4.35334 3.08739 0
M  V30 32702 O 3151.47 -5.24956 2.23109 0
M  V30 32703 O 3150.41 -4.48571 4.01333 0
M  V30 32704 H 3154.23 -1.46912 2.65802 0
M  V30 32705 H 3151.82 -0.664492 1.33809 0
M  V30 32706 H 3153.7 -3.7855 1.85142 0
M  V30 32707 H 3152.37 -3.12155 0.856777 0
M  V30 32708 H 3151.28 -2.23687 2.99858 0
M  V30 32709 H 3152.61 -2.95879 3.9334 0
M  V30 32710 N 3154.27 -1.39214 -0.738737 0
M  V30 32711 C 3155.23 -1.37415 -1.83438 0
M  V30 32712 C 3156.23 -0.271936 -1.58484 0
M  V30 32713 O 3157.42 -0.529638 -1.65953 0
M  V30 32714 C 3154.55 -1.14306 -3.21165 0
M  V30 32715 H 3155.74 -2.34907 -1.86437 0
M  V30 32716 H 3153.3 -1.24724 -0.942002 0
M  V30 32717 H 3154.03 -0.174813 -3.23828 0
M  V30 32718 H 3153.82 -1.94122 -3.40674 0
M  V30 32719 H 3155.31 -1.1578 -4.01229 0
M  V30 32720 N 3155.74 0.968523 -1.24328 0
M  V30 32721 C 3156.67 2.08077 -1.05954 0
M  V30 32722 C 3157.65 1.70078 0.0272367 0
M  V30 32723 O 3158.84 1.93697 -0.139678 0
M  V30 32724 C 3155.97 3.40919 -0.662683 0
M  V30 32725 C 3154.92 3.9287 -1.69814 0
M  V30 32726 C 3154.25 5.22046 -1.15637 0
M  V30 32727 C 3155.55 4.20803 -3.09391 0
M  V30 32728 H 3157.24 2.23706 -1.98988 0
M  V30 32729 H 3154.79 1.07498 -0.95813 0
M  V30 32730 H 3156.74 4.18165 -0.521144 0
M  V30 32731 H 3155.47 3.25188 0.303342 0
M  V30 32732 H 3154.13 3.1778 -1.82788 0
M  V30 32733 H 3153.77 5.02674 -0.180976 0
M  V30 32734 H 3153.47 5.57773 -1.84832 0
M  V30 32735 H 3155 6.01902 -1.02693 0
M  V30 32736 H 3156.41 4.88756 -2.9965 0
M  V30 32737 H 3154.81 4.67756 -3.75931 0
M  V30 32738 H 3155.88 3.2761 -3.57491 0
M  V30 32739 N 3157.22 1.0569 1.16908 0
M  V30 32740 C 3158.63 0.795302 1.68914 0
M  V30 32741 C 3158.98 -0.681892 1.83969 0
M  V30 32742 O 3158.11 -1.5295 1.53085 0
M  V30 32743 C 3158.7 1.43708 3.06812 0
M  V30 32744 C 3157.26 1.22341 3.55963 0
M  V30 32745 C 3156.41 1.51745 2.32096 0
M  V30 32746 H 3159.36 1.22118 1.01355 0
M  V30 32747 H 3159.38 0.849081 3.70905 0
M  V30 32748 H 3158.89 2.51219 2.95822 0
M  V30 32749 H 3156.99 0.167775 3.72222 0
M  V30 32750 H 3157.11 1.93187 4.38424 0
M  V30 32751 H 3155.47 0.937737 2.36809 0
M  V30 32752 H 3156.25 2.60401 2.2371 0
M  V30 32753 N 3158.7 -1.33435 0.838617 0
M  V30 32754 C 3159.98 -1.9233 0.356145 0
M  V30 32755 C 3160.36 -1.76473 -1.15847 0
M  V30 32756 O 3159.7 -1.15297 -1.97279 0
M  V30 32757 C 3159.91 -3.39642 0.802775 0
M  V30 32758 C 3161.26 -4.1679 0.810648 0
M  V30 32759 O 3162.29 -3.48293 0.746365 0
M  V30 32760 O 3161.15 -5.39069 0.898177 0
M  V30 32761 H 3158.24 -0.820843 0.100726 0
M  V30 32762 H 3160.79 -1.42309 0.924453 0
M  V30 32763 H 3159.56 -3.45054 1.84536 0
M  V30 32764 H 3159.18 -3.9704 0.211026 0
M  V30 32765 N 3160.18 -0.595029 -1.45935 0
M  V30 32766 C 3161.41 -0.0913294 -2.06698 0
M  V30 32767 C 3161.82 1.21894 -1.44178 0
M  V30 32768 O 3161.18 1.7397 -0.551433 0
M  V30 32769 C 3161.23 0.0681165 -3.61436 0
M  V30 32770 O 3160.95 -1.19031 -4.2162 0
M  V30 32771 C 3162.45 0.604737 -4.39156 0
M  V30 32772 H 3159.67 -0.0630855 -0.668028 0
M  V30 32773 H 3162.21 -0.819198 -1.87375 0
M  V30 32774 H 3160.37 0.746257 -3.80144 0
M  V30 32775 H 3160.78 -1.01196 -5.14645 0
M  V30 32776 H 3162.26 0.665436 -5.47974 0
M  V30 32777 H 3162.73 1.62437 -4.08058 0
M  V30 32778 H 3163.34 -0.0389405 -4.25282 0
M  V30 32779 N 3161.66 1.54031 -0.333483 0
M  V30 32780 C 3162.93 1.9295 0.320868 0
M  V30 32781 C 3163.31 1.26408 1.69069 0
M  V30 32782 O 3162.66 0.41135 2.24767 0
M  V30 32783 C 3162.87 3.46663 0.403196 0
M  V30 32784 C 3164.22 4.19458 0.658801 0
M  V30 32785 O 3165.24 3.52873 0.485719 0
M  V30 32786 O 3164.1 5.37396 0.993381 0
M  V30 32787 H 3161.2 0.806009 0.185144 0
M  V30 32788 H 3163.74 1.653 -0.383924 0
M  V30 32789 H 3162.51 3.87294 -0.558477 0
M  V30 32790 H 3162.14 3.80449 1.15517 0
M  V30 32791 N 3163.13 0.0618717 1.57479 0
M  V30 32792 C 3164.38 -0.610409 1.93396 0
M  V30 32793 C 3164.71 -1.69859 0.941364 0
M  V30 32794 O 3163.99 -1.94475 -0.030992 0
M  V30 32795 C 3164.27 -1.19658 3.39638 0
M  V30 32796 C 3164.12 -0.115726 4.49651 0
M  V30 32797 C 3165.44 -2.10505 3.86491 0
M  V30 32798 H 3162.56 -0.220424 0.703265 0
M  V30 32799 H 3165.2 0.125819 1.89583 0
M  V30 32800 H 3163.35 -1.82403 3.43018 0
M  V30 32801 H 3165.03 0.516809 4.58396 0
M  V30 32802 H 3163.27 0.554905 4.30236 0
M  V30 32803 H 3163.94 -0.566079 5.4909 0
M  V30 32804 H 3166.42 -1.57708 3.85055 0
M  V30 32805 H 3165.29 -2.48458 4.89449 0
M  V30 32806 H 3165.55 -3.00942 3.23862 0
M  V30 32807 N 3164.61 -1.56173 -0.211607 0
M  V30 32808 C 3165.54 -1.96246 -1.26529 0
M  V30 32809 C 3166.52 -0.832054 -1.48361 0
M  V30 32810 O 3167.71 -1.09513 -1.60376 0
M  V30 32811 C 3164.84 -2.28775 -2.61303 0
M  V30 32812 C 3163.79 -3.44399 -2.54112 0
M  V30 32813 C 3163.12 -3.62559 -3.93007 0
M  V30 32814 C 3164.42 -4.7908 -2.08038 0
M  V30 32815 H 3166.11 -2.84513 -0.932357 0
M  V30 32816 H 3163.66 -1.36885 -0.44706 0
M  V30 32817 H 3165.61 -2.55402 -3.35184 0
M  V30 32818 H 3164.34 -1.37372 -2.96305 0
M  V30 32819 H 3162.99 -3.17837 -1.82689 0
M  V30 32820 H 3162.64 -2.68516 -4.25333 0
M  V30 32821 H 3162.34 -4.40334 -3.89075 0
M  V30 32822 H 3163.87 -3.91545 -4.68535 0
M  V30 32823 H 3165.28 -5.04846 -2.71667 0
M  V30 32824 H 3163.68 -5.60208 -2.15144 0
M  V30 32825 H 3164.75 -4.73769 -1.03298 0
M  V30 32826 N 3166.09 0.478699 -1.50154 0
M  V30 32827 C 3167.32 1.25298 -1.64268 0
M  V30 32828 C 3167.73 1.86435 -0.322289 0
M  V30 32829 O 3167.07 1.69638 0.704895 0
M  V30 32830 C 3167.13 2.40707 -2.67021 0
M  V30 32831 C 3166.8 2.00267 -4.10782 0
M  V30 32832 C 3167.79 1.52955 -4.96891 0
M  V30 32833 C 3165.48 2.0922 -4.56653 0
M  V30 32834 C 3167.47 1.15128 -6.26916 0
M  V30 32835 C 3165.16 1.71005 -5.86686 0
M  V30 32836 C 3166.16 1.24036 -6.71643 0
M  V30 32837 O 3165.85 0.863477 -7.99249 0
M  V30 32838 H 3165.58 0.385383 -0.555388 0
M  V30 32839 H 3168.13 0.578717 -1.97079 0
M  V30 32840 H 3166.36 3.1128 -2.29437 0
M  V30 32841 H 3168.05 3.02689 -2.70434 0
M  V30 32842 H 3168.82 1.45466 -4.62671 0
M  V30 32843 H 3164.7 2.44728 -3.90678 0
M  V30 32844 H 3168.24 0.783967 -6.93181 0
M  V30 32845 H 3164.14 1.78151 -6.20429 0
M  V30 32846 H 3164.91 0.992996 -8.12454 0
M  V30 32847 N 3167.57 1.39603 0.731343 0
M  V30 32848 C 3168.5 1.33007 1.8543 0
M  V30 32849 C 3169.48 0.203099 1.61327 0
M  V30 32850 O 3170.66 0.384156 1.84544 0
M  V30 32851 C 3167.79 1.06619 3.21481 0
M  V30 32852 C 3166.84 2.21555 3.64439 0
M  V30 32853 S 3167.67 3.83858 3.73381 0
M  V30 32854 C 3168.83 3.59703 5.12215 0
M  V30 32855 H 3169.06 2.28045 1.90743 0
M  V30 32856 H 3166.59 1.25702 0.896568 0
M  V30 32857 H 3168.55 0.920789 4.0004 0
M  V30 32858 H 3167.21 0.132618 3.1382 0
M  V30 32859 H 3166.4 1.98694 4.63181 0
M  V30 32860 H 3166.01 2.32317 2.93095 0
M  V30 32861 H 3168.3 3.17194 5.9866 0
M  V30 32862 H 3169.24 4.5792 5.40107 0
M  V30 32863 H 3169.65 2.93725 4.82064 0
M  V30 32864 N 3169.05 -0.961916 1.2484 0
M  V30 32865 C 3170.27 -1.74045 1.11875 0
M  V30 32866 C 3170.69 -1.85926 -0.328176 0
M  V30 32867 O 3170.05 -1.35175 -1.22613 0
M  V30 32868 C 3170.1 -3.15798 1.75936 0
M  V30 32869 O 3169.82 -3.04507 3.14972 0
M  V30 32870 C 3171.32 -4.09963 1.68657 0
M  V30 32871 H 3168.54 -0.545609 0.390579 0
M  V30 32872 H 3171.08 -1.20729 1.6506 0
M  V30 32873 H 3169.24 -3.66082 1.2674 0
M  V30 32874 H 3169.65 -3.93875 3.46356 0
M  V30 32875 H 3171.13 -5.07063 2.18153 0
M  V30 32876 H 3171.6 -4.3438 0.648907 0
M  V30 32877 H 3172.21 -3.65592 2.17307 0
M  V30 32878 N 3170.52 -1.06308 -1.16346 0
M  V30 32879 C 3171.94 -0.786567 -1.38871 0
M  V30 32880 C 3172.14 0.614028 -1.91917 0
M  V30 32881 O 3171.2 1.37457 -2.11806 0
M  V30 32882 C 3172.51 -1.85158 -2.36932 0
M  V30 32883 C 3174.06 -1.87511 -2.50617 0
M  V30 32884 C 3174.53 -2.93067 -3.5196 0
M  V30 32885 N 3176.02 -2.92101 -3.59487 0
M  V30 32886 C 3176.76 -3.70423 -4.37692 0
M  V30 32887 N 3176.25 -4.58562 -5.19319 0
M  V30 32888 N 3178.05 -3.58814 -4.32677 0
M  V30 32889 H 3170.2 -1.96656 -0.802507 0
M  V30 32890 H 3172.46 -0.852196 -0.41529 0
M  V30 32891 H 3172.17 -2.8574 -2.05051 0
M  V30 32892 H 3172.04 -1.70272 -3.36582 0
M  V30 32893 H 3174.43 -0.875876 -2.81802 0
M  V30 32894 H 3174.51 -2.06475 -1.51003 0
M  V30 32895 H 3174.15 -3.93183 -3.21511 0
M  V30 32896 H 3174.08 -2.71352 -4.51304 0
M  V30 32897 H 3176.57 -2.28202 -3.01218 0
M  V30 32898 H 3176.89 -5.14981 -5.76207 0
M  V30 32899 H 3175.23 -4.62618 -5.18662 0
M  V30 32900 H 3178.42 -2.89341 -3.67966 0
M  V30 32901 H 3178.6 -4.20097 -4.93379 0
M  V30 32902 N 3172 1.32989 -0.845682 0
M  V30 32903 C 3173.25 1.96821 -0.440963 0
M  V30 32904 C 3173.56 1.67708 1.00665 0
M  V30 32905 O 3174.77 2.25207 1.51637 0
M  V30 32906 C 3173.23 3.52261 -0.737581 0
M  V30 32907 C 3172.83 3.90243 -2.20033 0
M  V30 32908 C 3174.58 4.2261 -0.400146 0
M  V30 32909 C 3172.49 5.3869 -2.44064 0
M  V30 32910 H 3171.42 0.736575 -0.161161 0
M  V30 32911 H 3174.07 1.51511 -1.03521 0
M  V30 32912 H 3172.45 3.95933 -0.0728721 0
M  V30 32913 H 3173.62 3.57608 -2.90608 0
M  V30 32914 H 3171.94 3.32895 -2.5014 0
M  V30 32915 H 3174.53 5.31789 -0.55723 0
M  V30 32916 H 3174.88 4.11075 0.657475 0
M  V30 32917 H 3175.41 3.84491 -1.02037 0
M  V30 32918 H 3172.15 5.55235 -3.48416 0
M  V30 32919 H 3171.67 5.72762 -1.78057 0
M  V30 32920 H 3173.35 6.05661 -2.2756 0
M  V30 32921 N 3173.48 0.60276 1.45618 0
M  V30 32922 C 3174.41 -0.156972 2.28662 0
M  V30 32923 C 3175.43 -0.836372 1.39673 0
M  V30 32924 O 3176.61 -0.70257 1.64092 0
M  V30 32925 C 3173.71 -1.243 3.15282 0
M  V30 32926 C 3172.89 -0.651655 4.32518 0
M  V30 32927 C 3171.95 -1.62796 5.00384 0
M  V30 32928 O 3170.97 -1.15614 5.57335 0
M  V30 32929 N 3172.17 -2.96233 4.99226 0
M  V30 32930 H 3174.94 0.555586 2.94505 0
M  V30 32931 H 3172.5 0.441908 1.55752 0
M  V30 32932 H 3174.49 -1.89584 3.57547 0
M  V30 32933 H 3173.06 -1.85815 2.51379 0
M  V30 32934 H 3172.28 0.179139 3.93793 0
M  V30 32935 H 3173.57 -0.236713 5.08249 0
M  V30 32936 H 3172.97 -3.37171 4.54238 0
M  V30 32937 H 3171.53 -3.56951 5.4537 0
M  V30 32938 N 3174.96 -1.53852 0.341647 0
M  V30 32939 C 3175.91 -2.24958 -0.516019 0
M  V30 32940 C 3176.88 -1.24712 -1.09709 0
M  V30 32941 O 3178.06 -1.5344 -1.13406 0
M  V30 32942 C 3175.2 -3.02442 -1.66202 0
M  V30 32943 C 3174.31 -4.17538 -1.10843 0
M  V30 32944 C 3173.45 -4.82513 -2.22158 0
M  V30 32945 C 3172.49 -5.89681 -1.64142 0
M  V30 32946 N 3171.62 -6.48445 -2.69191 0
M  V30 32947 H 3176.46 -2.97842 0.0968798 0
M  V30 32948 H 3174 -1.46979 0.0595823 0
M  V30 32949 H 3175.96 -3.45624 -2.33666 0
M  V30 32950 H 3174.59 -2.31857 -2.24593 0
M  V30 32951 H 3173.64 -3.79011 -0.324786 0
M  V30 32952 H 3174.95 -4.94624 -0.644064 0
M  V30 32953 H 3174.11 -5.28757 -2.97492 0
M  V30 32954 H 3172.85 -4.04847 -2.71938 0
M  V30 32955 H 3171.85 -5.42823 -0.873132 0
M  V30 32956 H 3173.08 -6.69255 -1.15216 0
M  V30 32957 H 3171.02 -5.73643 -3.18229 0
M  V30 32958 H 3170.94 -7.20998 -2.27371 0
M  V30 32959 H 3172.21 -6.99341 -3.44299 0
M  V30 32960 N 3176.44 -0.0702223 -1.57443 0
M  V30 32961 C 3177.35 0.912339 -2.16133 0
M  V30 32962 C 3178.36 1.32817 -1.12409 0
M  V30 32963 O 3179.54 1.40119 -1.44667 0
M  V30 32964 C 3176.6 2.16226 -2.71011 0
M  V30 32965 C 3175.66 1.80299 -3.89603 0
M  V30 32966 C 3174.9 2.99333 -4.41855 0
M  V30 32967 O 3175.12 4.13302 -3.93113 0
M  V30 32968 O 3174.05 2.7924 -5.33206 0
M  V30 32969 H 3177.88 0.443114 -3.0045 0
M  V30 32970 H 3175.47 0.15276 -1.48617 0
M  V30 32971 H 3177.35 2.89525 -3.06192 0
M  V30 32972 H 3176.02 2.62249 -1.89755 0
M  V30 32973 H 3174.93 1.04257 -3.59279 0
M  V30 32974 H 3176.26 1.3906 -4.72147 0
M  V30 32975 N 3177.91 1.56283 0.203321 0
M  V30 32976 C 3179.33 1.49683 0.553814 0
M  V30 32977 C 3179.53 0.768734 1.8626 0
M  V30 32978 O 3178.59 0.315868 2.50517 0
M  V30 32979 C 3179.9 2.94319 0.616164 0
M  V30 32980 C 3181.45 3.04944 0.705557 0
M  V30 32981 C 3181.92 4.50975 0.799091 0
M  V30 32982 N 3183.41 4.55093 0.862836 0
M  V30 32983 C 3184.15 5.65387 0.955234 0
M  V30 32984 N 3183.64 6.85392 1.01045 0
M  V30 32985 N 3185.44 5.53281 0.991786 0
M  V30 32986 H 3177.59 2.02039 -0.65528 0
M  V30 32987 H 3179.85 0.919083 -0.23236 0
M  V30 32988 H 3179.56 3.50613 -0.276251 0
M  V30 32989 H 3179.43 3.47222 1.47365 0
M  V30 32990 H 3181.82 2.48704 1.58841 0
M  V30 32991 H 3181.9 2.5518 -0.177966 0
M  V30 32992 H 3181.54 5.07838 -0.0793733 0
M  V30 32993 H 3181.47 4.98463 1.6983 0
M  V30 32994 H 3183.96 3.68678 0.829747 0
M  V30 32995 H 3184.28 7.65199 1.08123 0
M  V30 32996 H 3182.62 6.88066 0.979263 0
M  V30 32997 H 3185.81 4.58453 0.945434 0
M  V30 32998 H 3185.99 6.39266 1.06034 0
M  V30 32999 N 3179.39 -0.470729 1.50406 0
M  V30 33000 C 3180.64 -1.22278 1.61413 0
M  V30 33001 C 3180.97 -1.91938 0.314637 0
M  V30 33002 O 3180.22 -1.82772 -0.699498 0
M  V30 33003 C 3180.52 -2.2896 2.7443 0
M  V30 33004 C 3180.19 -1.7655 4.14899 0
M  V30 33005 C 3178.85 -1.61977 4.53119 0
M  V30 33006 C 3181.2 -1.37671 5.02689 0
M  V30 33007 C 3178.53 -1.0695 5.7687 0
M  V30 33008 C 3180.88 -0.840857 6.26987 0
M  V30 33009 C 3179.55 -0.681764 6.64009 0
M  V30 33010 H 3178.82 -0.447449 0.590653 0
M  V30 33011 H 3181.46 -0.51875 1.8434 0
M  V30 33012 H 3179.77 -3.05273 2.45593 0
M  V30 33013 H 3181.47 -2.86909 2.80151 0
M  V30 33014 H 3178.06 -1.8886 3.84747 0
M  V30 33015 H 3182.24 -1.47764 4.73793 0
M  V30 33016 H 3177.5 -0.933702 6.04228 0
M  V30 33017 H 3181.67 -0.530944 6.94373 0
M  V30 33018 H 3179.3 -0.253216 7.59778 0
M  V30 33019 N 3180.87 -1.39989 -0.72393 0
M  V30 33020 C 3182.12 -1.37543 -1.48076 0
M  V30 33021 C 3182.44 0.0243015 -1.94985 0
M  V30 33022 O 3181.71 0.977572 -1.69766 0
M  V30 33023 H 3180.29 -0.506191 -0.549345 0
M  V30 33024 H 3182.95 -1.74963 -0.858715 0
M  V30 33025 H 3182.05 -2.04509 -2.35759 0
M  V30 33026 N 3182.35 0.955282 -1.25348 0
M  V30 33027 C 3183.57 1.73981 -1.12895 0
M  V30 33028 C 3184 1.8547 0.313423 0
M  V30 33029 O 3183.36 1.33467 1.22704 0
M  V30 33030 C 3183.41 3.13187 -1.78735 0
M  V30 33031 O 3182.51 3.9837 -1.06655 0
M  V30 33032 H 3181.85 0.534334 -0.394187 0
M  V30 33033 H 3184.38 1.19745 -1.65899 0
M  V30 33034 H 3184.39 3.6365 -1.84994 0
M  V30 33035 H 3183.07 3.04141 -2.83674 0
M  V30 33036 H 3181.64 3.56836 -1.08272 0
M  V30 33037 N 3183.83 1.06924 1.1578 0
M  V30 33038 C 3185.06 0.810754 1.90353 0
M  V30 33039 C 3185.47 -0.635583 1.7778 0
M  V30 33040 O 3184.83 -1.43562 1.12677 0
M  V30 33041 C 3184.88 1.20436 3.40848 0
M  V30 33042 O 3184.6 2.59395 3.53052 0
M  V30 33043 C 3186.1 0.974549 4.32455 0
M  V30 33044 H 3183.32 0.293462 0.603424 0
M  V30 33045 H 3185.86 1.42455 1.4672 0
M  V30 33046 H 3184.02 0.634976 3.82161 0
M  V30 33047 H 3184.43 2.75333 4.46421 0
M  V30 33048 H 3185.91 1.29951 5.36485 0
M  V30 33049 H 3186.38 -0.0893709 4.39109 0
M  V30 33050 H 3186.99 1.52863 3.96879 0
M  V30 33051 N 3185.31 -1.32538 0.852723 0
M  V30 33052 C 3186.24 -2.27797 0.253221 0
M  V30 33053 C 3187.25 -1.52347 -0.57395 0
M  V30 33054 O 3188.44 -1.73989 -0.398756 0
M  V30 33055 C 3185.54 -3.32392 -0.660975 0
M  V30 33056 C 3184.71 -4.37207 0.129916 0
M  V30 33057 C 3183.77 -5.21391 -0.709745 0
M  V30 33058 O 3182.8 -5.69018 -0.143956 0
M  V30 33059 N 3184 -5.44042 -2.0248 0
M  V30 33060 H 3186.76 -2.79881 1.07175 0
M  V30 33061 H 3184.33 -1.45378 0.712517 0
M  V30 33062 H 3186.32 -3.85619 -1.22799 0
M  V30 33063 H 3184.89 -2.80481 -1.3802 0
M  V30 33064 H 3184.11 -3.8429 0.878357 0
M  V30 33065 H 3185.4 -5.04326 0.67323 0
M  V30 33066 H 3184.79 -5.07074 -2.50783 0
M  V30 33067 H 3183.35 -6.00273 -2.53999 0
M  V30 33068 N 3186.78 -0.610474 -1.45296 0
M  V30 33069 C 3187.69 0.108434 -2.34349 0
M  V30 33070 C 3188.71 0.85737 -1.51411 0
M  V30 33071 O 3189.89 0.814304 -1.84204 0
M  V30 33072 C 3186.95 1.09138 -3.29074 0
M  V30 33073 C 3186.01 0.344089 -4.27919 0
M  V30 33074 C 3185.24 1.28021 -5.18118 0
M  V30 33075 O 3185.47 2.51815 -5.11806 0
M  V30 33076 O 3184.4 0.775716 -5.9688 0
M  V30 33077 H 3188.23 -0.623474 -2.97231 0
M  V30 33078 H 3185.81 -0.370725 -1.44727 0
M  V30 33079 H 3187.69 1.65744 -3.87436 0
M  V30 33080 H 3186.37 1.80427 -2.68752 0
M  V30 33081 H 3185.28 -0.264502 -3.73164 0
M  V30 33082 H 3186.61 -0.328362 -4.91103 0
M  V30 33083 N 3188.26 1.53669 -0.349801 0
M  V30 33084 C 3189.49 2.05134 0.245645 0
M  V30 33085 C 3189.9 1.22408 1.44267 0
M  V30 33086 O 3189.24 0.253822 1.81938 0
M  V30 33087 C 3189.3 3.52249 0.718377 0
M  V30 33088 C 3188.97 4.55581 -0.35983 0
M  V30 33089 C 3189.97 5.05753 -1.20458 0
M  V30 33090 C 3187.65 4.99647 -0.51555 0
M  V30 33091 C 3189.64 5.98577 -2.19053 0
M  V30 33092 C 3187.33 5.92281 -1.50489 0
M  V30 33093 C 3188.33 6.41634 -2.34083 0
M  V30 33094 O 3188.02 7.32444 -3.31332 0
M  V30 33095 H 3187.75 0.674141 0.0501004 0
M  V30 33096 H 3190.3 1.99175 -0.501835 0
M  V30 33097 H 3188.53 3.55693 1.5172 0
M  V30 33098 H 3190.22 3.86653 1.23507 0
M  V30 33099 H 3190.99 4.72468 -1.09539 0
M  V30 33100 H 3186.87 4.6083 0.125289 0
M  V30 33101 H 3190.41 6.37022 -2.84338 0
M  V30 33102 H 3186.31 6.2498 -1.61462 0
M  V30 33103 H 3187.08 7.50396 -3.26876 0
M  V30 33104 N 3189.74 0.0785709 1.57404 0
M  V30 33105 C 3190.65 -0.900864 2.16614 0
M  V30 33106 C 3191.67 -1.32219 1.13112 0
M  V30 33107 O 3192.84 -1.3935 1.45408 0
M  V30 33108 C 3189.91 -2.14786 2.72154 0
M  V30 33109 C 3188.97 -1.78231 3.90554 0
M  V30 33110 C 3188.2 -2.96985 4.43436 0
M  V30 33111 O 3188.42 -4.11211 3.95299 0
M  V30 33112 O 3187.36 -2.76409 5.34679 0
M  V30 33113 H 3191.18 -0.427174 3.00681 0
M  V30 33114 H 3188.77 -0.144876 1.48696 0
M  V30 33115 H 3190.65 -2.87897 3.07723 0
M  V30 33116 H 3189.33 -2.61239 1.91143 0
M  V30 33117 H 3188.23 -1.0235 3.59827 0
M  V30 33118 H 3189.57 -1.36554 4.72878 0
M  V30 33119 N 3191.22 -1.56389 -0.19503 0
M  V30 33120 C 3192.18 -1.93694 -1.22537 0
M  V30 33121 C 3193.18 -0.818064 -1.38435 0
M  V30 33122 O 3194.37 -1.08548 -1.36246 0
M  V30 33123 C 3191.5 -2.21104 -2.59472 0
M  V30 33124 H 3192.7 -2.85872 -0.906494 0
M  V30 33125 H 3190.25 -1.5008 -0.436551 0
M  V30 33126 H 3190.98 -1.31564 -2.96414 0
M  V30 33127 H 3190.77 -3.02638 -2.49304 0
M  V30 33128 H 3192.26 -2.5097 -3.33772 0
M  V30 33129 N 3192.7 0.462746 -1.50653 0
M  V30 33130 C 3193.94 1.22396 -1.63702 0
M  V30 33131 C 3194.3 1.89075 -0.33388 0
M  V30 33132 O 3195.5 2.66643 -0.339884 0
M  V30 33133 C 3193.77 2.23342 -2.79022 0
M  V30 33134 S 3195.33 3.08291 -3.12254 0
M  V30 33135 H 3192.15 0.415434 -0.577006 0
M  V30 33136 H 3194.75 0.519598 -1.88469 0
M  V30 33137 H 3193.45 1.72951 -3.72177 0
M  V30 33138 H 3192.99 2.98395 -2.56367 0
M  V30 33139 H 3195 4.24627 -2.56723 0
M  V30 33140 N 3194.17 1.40371 0.716495 0
M  V30 33141 C 3195.42 1.386 1.47636 0
M  V30 33142 C 3195.75 -0.0119799 1.94496 0
M  V30 33143 O 3195 -0.996343 1.68438 0
M  V30 33144 C 3195.3 2.32108 2.71773 0
M  V30 33145 C 3194.97 3.7938 2.43683 0
M  V30 33146 C 3193.63 4.19504 2.35732 0
M  V30 33147 C 3195.98 4.72451 2.20091 0
M  V30 33148 C 3193.31 5.50735 2.02256 0
M  V30 33149 C 3195.66 6.03979 1.88128 0
M  V30 33150 C 3194.33 6.43147 1.78658 0
M  V30 33151 H 3193.6 0.507173 0.540238 0
M  V30 33152 H 3196.24 1.73018 0.820792 0
M  V30 33153 H 3194.55 1.90871 3.42163 0
M  V30 33154 H 3196.25 2.28021 3.2986 0
M  V30 33155 H 3192.84 3.4759 2.50757 0
M  V30 33156 H 3197.02 4.4227 2.2519 0
M  V30 33157 H 3192.28 5.79985 1.93461 0
M  V30 33158 H 3196.45 6.75611 1.68886 0
M  V30 33159 H 3194.08 7.4475 1.52485 0
M  V30 33160 N 3195.65 -0.948621 1.25853 0
M  V30 33161 C 3196.9 -1.69061 1.10738 0
M  V30 33162 C 3197.22 -1.91811 -0.351224 0
M  V30 33163 O 3196.49 -1.50949 -1.24864 0
M  V30 33164 H 3195.07 -0.626512 0.406807 0
M  V30 33165 H 3197.73 -1.1402 1.58068 0
M  V30 33166 H 3196.83 -2.6674 1.62038 0
M  V30 33167 N 3197.13 -1.07536 -1.15212 0
M  V30 33168 C 3198.06 -0.6553 -2.19633 0
M  V30 33169 C 3199.08 0.293137 -1.60139 0
M  V30 33170 O 3200.26 0.0821643 -1.78311 0
M  V30 33171 C 3197.36 0.0577685 -3.38851 0
M  V30 33172 C 3196.54 -0.907325 -4.27886 0
M  V30 33173 C 3195.6 -0.231208 -5.25692 0
M  V30 33174 O 3194.62 -0.872845 -5.62468 0
M  V30 33175 N 3195.82 1.0224 -5.71426 0
M  V30 33176 H 3198.59 -1.55358 -2.56289 0
M  V30 33177 H 3196.15 -0.960294 -1.30346 0
M  V30 33178 H 3198.14 0.520804 -4.01335 0
M  V30 33179 H 3196.71 0.858018 -3.00594 0
M  V30 33180 H 3195.93 -1.54943 -3.62473 0
M  V30 33181 H 3197.22 -1.5616 -4.84243 0
M  V30 33182 H 3196.62 1.5636 -5.43662 0
M  V30 33183 H 3195.18 1.42908 -6.35941 0
M  V30 33184 N 3198.61 1.32084 -0.85974 0
M  V30 33185 C 3199.86 1.97074 -0.465616 0
M  V30 33186 C 3200.18 1.68013 0.979888 0
M  V30 33187 O 3199.44 0.96356 1.70335 0
M  V30 33188 C 3199.74 3.51301 -0.657459 0
M  V30 33189 C 3199.4 4.0036 -2.0742 0
M  V30 33190 C 3198.07 4.13467 -2.46167 0
M  V30 33191 C 3200.42 4.263 -2.99863 0
M  V30 33192 C 3197.75 4.49861 -3.76619 0
M  V30 33193 C 3200.1 4.64154 -4.29819 0
M  V30 33194 C 3198.76 4.75468 -4.68494 0
M  V30 33195 H 3198.03 0.721146 -0.170381 0
M  V30 33196 H 3200.68 1.57399 -1.09077 0
M  V30 33197 H 3198.98 3.91767 0.0508949 0
M  V30 33198 H 3200.68 3.99619 -0.332486 0
M  V30 33199 H 3197.27 3.90646 -1.76334 0
M  V30 33200 H 3201.45 4.15677 -2.71157 0
M  V30 33201 H 3196.71 4.56817 -4.0636 0
M  V30 33202 H 3200.88 4.8318 -5.01508 0
M  V30 33203 H 3198.51 5.03425 -5.6962 0
M  V30 33204 N 3200.09 0.618171 1.4497 0
M  V30 33205 C 3201.34 0.11504 2.01372 0
M  V30 33206 C 3201.65 -1.26597 1.49106 0
M  V30 33207 O 3202.85 -1.8624 1.97552 0
M  V30 33208 C 3201.31 0.154946 3.59566 0
M  V30 33209 C 3200.92 1.53646 4.20829 0
M  V30 33210 C 3202.66 -0.292393 4.23492 0
M  V30 33211 C 3200.57 1.53218 5.71208 0
M  V30 33212 H 3199.5 0.03924 0.752978 0
M  V30 33213 H 3202.15 0.775061 1.66328 0
M  V30 33214 H 3200.53 -0.571932 3.91848 0
M  V30 33215 H 3201.71 2.28589 4.00105 0
M  V30 33216 H 3200.02 1.92678 3.6914 0
M  V30 33217 H 3202.62 -0.314938 5.33772 0
M  V30 33218 H 3202.96 -1.31718 3.94913 0
M  V30 33219 H 3203.49 0.381563 3.95966 0
M  V30 33220 H 3200.23 2.53491 6.04502 0
M  V30 33221 H 3199.75 0.825491 5.94092 0
M  V30 33222 H 3201.43 1.26043 6.34604 0
M  V30 33223 N 3201.56 -1.53481 0.357946 0
M  V30 33224 C 3202.49 -2.28425 -0.484191 0
M  V30 33225 C 3203.48 -1.3055 -1.09044 0
M  V30 33226 O 3204.66 -1.59411 -1.10913 0
M  V30 33227 C 3201.79 -3.0678 -1.62798 0
M  V30 33228 C 3200.74 -4.12279 -1.14935 0
M  V30 33229 C 3200.07 -4.78673 -2.38278 0
M  V30 33230 C 3201.37 -5.2175 -0.239535 0
M  V30 33231 H 3203.06 -2.99068 0.141032 0
M  V30 33232 H 3200.61 -1.43833 0.0692693 0
M  V30 33233 H 3202.56 -3.57953 -2.22368 0
M  V30 33234 H 3201.29 -2.33814 -2.28032 0
M  V30 33235 H 3199.95 -3.62041 -0.576378 0
M  V30 33236 H 3199.59 -4.02286 -3.01952 0
M  V30 33237 H 3199.29 -5.49958 -2.06929 0
M  V30 33238 H 3200.82 -5.32636 -2.98549 0
M  V30 33239 H 3202.23 -5.68472 -0.742497 0
M  V30 33240 H 3200.63 -6.00098 -0.0172692 0
M  V30 33241 H 3201.7 -4.79519 0.720417 0
M  V30 33242 N 3203.04 -0.0869173 -1.5736 0
M  V30 33243 C 3204.27 0.587314 -1.98389 0
M  V30 33244 C 3204.69 1.62228 -0.965786 0
M  V30 33245 O 3204.04 1.82443 0.045666 0
M  V30 33246 C 3204.09 1.24236 -3.39481 0
M  V30 33247 O 3203.81 0.248801 -4.37393 0
M  V30 33248 C 3205.32 2.00299 -3.95469 0
M  V30 33249 H 3202.54 0.158078 -0.652114 0
M  V30 33250 H 3205.08 -0.16379 -2.03843 0
M  V30 33251 H 3203.23 1.94445 -3.35067 0
M  V30 33252 H 3203.65 0.720587 -5.19527 0
M  V30 33253 H 3205.12 2.41502 -4.96367 0
M  V30 33254 H 3205.6 2.86559 -3.32837 0
M  V30 33255 H 3206.21 1.34924 -4.03331 0
M  V30 33256 N 3204.52 1.5649 0.186734 0
M  V30 33257 C 3205.93 1.70945 0.750645 0
M  V30 33258 C 3206.28 0.69489 1.83482 0
M  V30 33259 O 3205.41 -0.146971 2.159 0
M  V30 33260 C 3206 3.09937 1.36838 0
M  V30 33261 C 3204.56 3.26129 1.87928 0
M  V30 33262 C 3203.71 2.66898 0.752373 0
M  V30 33263 H 3206.66 1.58653 -0.0384571 0
M  V30 33264 H 3206.68 3.07731 2.2379 0
M  V30 33265 H 3206.19 3.83756 0.579068 0
M  V30 33266 H 3204.29 2.5724 2.69552 0
M  V30 33267 H 3204.41 4.33718 2.03532 0
M  V30 33268 H 3202.77 2.26297 1.16884 0
M  V30 33269 H 3203.55 3.43291 -0.0248373 0
M  V30 33270 N 3206 -0.45475 1.50897 0
M  V30 33271 C 3206.95 -1.54864 1.67336 0
M  V30 33272 C 3207.93 -1.52004 0.527603 0
M  V30 33273 O 3209.12 -1.58751 0.782754 0
M  V30 33274 C 3206.25 -2.93193 1.78585 0
M  V30 33275 C 3205.34 -3.00875 2.9889 0
M  V30 33276 N 3205.73 -2.78336 4.2233 0
M  V30 33277 C 3204.03 -3.32024 2.97785 0
M  V30 33278 C 3204.73 -2.91409 5.03444 0
M  V30 33279 N 3203.71 -3.22324 4.37731 0
M  V30 33280 H 3207.51 -1.36162 2.60456 0
M  V30 33281 H 3205.02 -0.661771 1.48305 0
M  V30 33282 H 3207.02 -3.71867 1.88469 0
M  V30 33283 H 3205.68 -3.12929 0.866351 0
M  V30 33284 H 3206.69 -2.53599 4.51562 0
M  V30 33285 H 3203.37 -3.57644 2.15399 0
M  V30 33286 H 3204.76 -2.78084 6.11653 0
M  V30 33287 N 3207.48 -1.40749 -0.709041 0
M  V30 33288 C 3208.73 -1.38684 -1.46457 0
M  V30 33289 C 3209.04 0.00558652 -1.95599 0
M  V30 33290 O 3210.24 0.14886 -2.71092 0
M  V30 33291 C 3208.7 -2.43775 -2.64767 0
M  V30 33292 C 3208.31 -3.8886 -2.22467 0
M  V30 33293 C 3210.05 -2.50827 -3.42471 0
M  V30 33294 C 3207.96 -4.85534 -3.37655 0
M  V30 33295 H 3206.89 -0.515688 -0.550075 0
M  V30 33296 H 3209.54 -1.66515 -0.771045 0
M  V30 33297 H 3207.92 -2.09054 -3.36322 0
M  V30 33298 H 3209.1 -4.3276 -1.5829 0
M  V30 33299 H 3207.41 -3.85345 -1.57791 0
M  V30 33300 H 3210.01 -3.20239 -4.28195 0
M  V30 33301 H 3210.35 -1.54083 -3.86735 0
M  V30 33302 H 3210.88 -2.84572 -2.77964 0
M  V30 33303 H 3207.62 -5.83634 -2.98416 0
M  V30 33304 H 3207.14 -4.46294 -4.00726 0
M  V30 33305 H 3208.82 -5.05662 -4.03628 0
M  V30 33306 N 3208.96 0.941933 -1.26354 0
M  V30 33307 C 3209.89 2.04052 -1.02167 0
M  V30 33308 C 3210.87 1.62513 0.0533229 0
M  V30 33309 O 3212.05 1.8829 -0.0889394 0
M  V30 33310 C 3209.18 3.34254 -0.546966 0
M  V30 33311 C 3208.22 3.94765 -1.6144 0
M  V30 33312 S 3209.06 4.29138 -3.20313 0
M  V30 33313 C 3210.21 5.62441 -2.7461 0
M  V30 33314 H 3210.45 2.24255 -1.95184 0
M  V30 33315 H 3207.98 1.08322 -1.10026 0
M  V30 33316 H 3209.94 4.09546 -0.279745 0
M  V30 33317 H 3208.6 3.11996 0.362915 0
M  V30 33318 H 3207.79 4.88679 -1.23324 0
M  V30 33319 H 3207.39 3.26004 -1.83296 0
M  V30 33320 H 3209.68 6.41119 -2.19026 0
M  V30 33321 H 3210.63 6.05442 -3.67213 0
M  V30 33322 H 3211.04 5.22283 -2.14199 0
M  V30 33323 N 3210.43 1.08146 1.1464 0
M  V30 33324 C 3211.66 0.830898 1.89483 0
M  V30 33325 C 3212.08 -0.616691 1.78444 0
M  V30 33326 O 3211.43 -1.42359 1.14194 0
M  V30 33327 C 3211.48 1.24045 3.39551 0
M  V30 33328 O 3211.21 2.63125 3.50281 0
M  V30 33329 C 3212.71 1.02036 4.31397 0
M  V30 33330 H 3209.93 0.299846 0.600278 0
M  V30 33331 H 3212.47 1.44003 1.45201 0
M  V30 33332 H 3210.63 0.675474 3.81466 0
M  V30 33333 H 3211.04 2.80053 4.43476 0
M  V30 33334 H 3212.51 1.35634 5.35077 0
M  V30 33335 H 3212.99 -0.0427925 4.39179 0
M  V30 33336 H 3213.6 1.57064 3.95236 0
M  V30 33337 N 3211.91 -1.31626 0.866732 0
M  V30 33338 C 3213.33 -1.4952 0.558214 0
M  V30 33339 C 3213.53 -1.79862 -0.908408 0
M  V30 33340 O 3212.58 -1.87534 -1.69077 0
M  V30 33341 C 3213.9 -2.63119 1.45563 0
M  V30 33342 C 3215.44 -2.77003 1.45733 0
M  V30 33343 C 3215.92 -3.93696 2.34024 0
M  V30 33344 N 3217.41 -4.00977 2.31886 0
M  V30 33345 C 3218.15 -4.90534 2.96924 0
M  V30 33346 N 3217.64 -5.85015 3.71119 0
M  V30 33347 N 3219.43 -4.83754 2.86249 0
M  V30 33348 H 3211.59 -1.102 1.81576 0
M  V30 33349 H 3213.85 -0.54423 0.77622 0
M  V30 33350 H 3213.55 -2.47464 2.49909 0
M  V30 33351 H 3213.43 -3.59184 1.15181 0
M  V30 33352 H 3215.82 -2.92075 0.42147 0
M  V30 33353 H 3215.9 -1.81615 1.80137 0
M  V30 33354 H 3215.54 -3.79383 3.37685 0
M  V30 33355 H 3215.47 -4.88385 1.96946 0
M  V30 33356 H 3217.96 -3.33378 1.77954 0
M  V30 33357 H 3218.27 -6.50073 4.17881 0
M  V30 33358 H 3216.62 -5.85004 3.75227 0
M  V30 33359 H 3219.81 -4.08917 2.27826 0
M  V30 33360 H 3219.98 -5.53344 3.37216 0
M  V30 33361 N 3213.39 -0.62585 -1.4464 0
M  V30 33362 C 3214.35 0.0724857 -2.29085 0
M  V30 33363 C 3215.35 0.777443 -1.40757 0
M  V30 33364 O 3216.54 0.622832 -1.62685 0
M  V30 33365 C 3213.67 1.11314 -3.22214 0
M  V30 33366 H 3214.87 -0.670175 -2.92316 0
M  V30 33367 H 3212.42 -0.385737 -1.51465 0
M  V30 33368 H 3213.16 1.88596 -2.63822 0
M  V30 33369 H 3212.94 0.611641 -3.873 0
M  V30 33370 H 3214.43 1.60168 -3.85663 0
M  V30 33371 N 3214.87 1.53289 -0.36608 0
M  V30 33372 C 3215.81 2.2575 0.480165 0
M  V30 33373 C 3216.78 1.26442 1.07711 0
M  V30 33374 O 3217.97 1.55224 1.10951 0
M  V30 33375 C 3215.11 3.05048 1.61369 0
M  V30 33376 C 3214.22 4.19248 1.04187 0
M  V30 33377 C 3213.36 4.85987 2.14454 0
M  V30 33378 C 3212.4 5.92218 1.5474 0
M  V30 33379 N 3211.53 6.52645 2.58841 0
M  V30 33380 H 3216.37 2.97651 -0.144252 0
M  V30 33381 H 3213.91 1.46866 -0.0829579 0
M  V30 33382 H 3215.87 3.49298 2.28138 0
M  V30 33383 H 3214.5 2.35401 2.20876 0
M  V30 33384 H 3213.55 3.7948 0.264448 0
M  V30 33385 H 3214.86 4.95586 0.565292 0
M  V30 33386 H 3214.02 5.33423 2.89042 0
M  V30 33387 H 3212.76 4.09122 2.65463 0
M  V30 33388 H 3211.76 5.44143 0.786663 0
M  V30 33389 H 3212.99 6.71003 1.04554 0
M  V30 33390 H 3210.93 5.78633 3.09063 0
M  V30 33391 H 3210.85 7.24524 2.15872 0
M  V30 33392 H 3212.12 7.0473 3.3313 0
M  V30 33393 N 3216.35 0.0952613 1.57312 0
M  V30 33394 C 3217.29 -0.86362 2.14033 0
M  V30 33395 C 3218.26 -1.27969 1.05892 0
M  V30 33396 O 3219.45 -1.36141 1.3368 0
M  V30 33397 C 3216.59 -2.11728 2.72517 0
M  V30 33398 C 3215.7 -1.75173 3.9489 0
M  V30 33399 C 3214.84 -2.95326 4.41538 0
M  V30 33400 C 3213.87 -2.54898 5.56501 0
M  V30 33401 N 3213.01 -3.67887 5.98 0
M  V30 33402 H 3217.85 -0.373063 2.95656 0
M  V30 33403 H 3215.39 -0.172472 1.46085 0
M  V30 33404 H 3217.35 -2.85147 3.04544 0
M  V30 33405 H 3215.98 -2.58283 1.93622 0
M  V30 33406 H 3215.03 -0.917215 3.69177 0
M  V30 33407 H 3216.34 -1.41446 4.78325 0
M  V30 33408 H 3215.49 -3.76999 4.75349 0
M  V30 33409 H 3214.23 -3.32263 3.57005 0
M  V30 33410 H 3213.24 -1.71653 5.22317 0
M  V30 33411 H 3214.46 -2.19105 6.42783 0
M  V30 33412 H 3212.41 -4.04542 5.16412 0
M  V30 33413 H 3212.33 -3.38006 6.76231 0
M  V30 33414 H 3213.59 -4.50069 6.36442 0
M  V30 33415 N 3217.82 -1.56587 -0.178432 0
M  V30 33416 C 3218.77 -1.95857 -1.22101 0
M  V30 33417 C 3219.74 -0.821473 -1.44364 0
M  V30 33418 O 3220.93 -1.08101 -1.57222 0
M  V30 33419 C 3218.07 -2.31761 -2.55697 0
M  V30 33420 C 3217.18 -3.58615 -2.40872 0
M  V30 33421 C 3216.31 -3.83764 -3.67286 0
M  V30 33422 C 3215.35 -5.03988 -3.47364 0
M  V30 33423 N 3214.49 -5.25306 -4.6583 0
M  V30 33424 H 3219.33 -2.84738 -0.879118 0
M  V30 33425 H 3216.87 -1.40896 -0.422696 0
M  V30 33426 H 3218.82 -2.50598 -3.33551 0
M  V30 33427 H 3217.45 -1.46 -2.87895 0
M  V30 33428 H 3216.51 -3.47732 -1.5423 0
M  V30 33429 H 3217.82 -4.46627 -2.22094 0
M  V30 33430 H 3216.97 -4.0293 -4.53577 0
M  V30 33431 H 3215.71 -2.94113 -3.89035 0
M  V30 33432 H 3214.72 -4.84728 -2.59459 0
M  V30 33433 H 3215.94 -5.95163 -3.27044 0
M  V30 33434 H 3213.89 -4.38606 -4.87812 0
M  V30 33435 H 3213.8 -6.07528 -4.49939 0
M  V30 33436 H 3215.07 -5.48945 -5.53425 0
M  V30 33437 N 3219.3 0.446741 -1.51136 0
M  V30 33438 C 3220.23 1.56118 -1.66441 0
M  V30 33439 C 3221.21 1.54326 -0.512088 0
M  V30 33440 O 3222.4 1.73591 -0.734732 0
M  V30 33441 C 3219.52 2.94703 -1.66937 0
M  V30 33442 C 3218.57 3.14557 -2.88022 0
M  V30 33443 S 3219.4 2.91855 -4.48978 0
M  V30 33444 C 3220.56 4.32738 -4.52204 0
M  V30 33445 H 3220.79 1.429 -2.60705 0
M  V30 33446 H 3218.32 0.635787 -1.40702 0
M  V30 33447 H 3220.28 3.7459 -1.67907 0
M  V30 33448 H 3218.94 3.05291 -0.738661 0
M  V30 33449 H 3218.14 4.15858 -2.84742 0
M  V30 33450 H 3217.74 2.4248 -2.84744 0
M  V30 33451 H 3220.03 5.25785 -4.27266 0
M  V30 33452 H 3220.97 4.41054 -5.53965 0
M  V30 33453 H 3221.38 4.15954 -3.81631 0
M  V30 33454 N 3220.78 1.41123 0.701567 0
M  V30 33455 C 3222.03 1.40366 1.46374 0
M  V30 33456 C 3222.36 0.0105784 1.94197 0
M  V30 33457 O 3221.63 -0.960608 1.69123 0
M  V30 33458 C 3221.92 2.40528 2.67989 0
M  V30 33459 C 3221.77 3.88918 2.25971 0
M  V30 33460 C 3223.09 2.38028 3.70177 0
M  V30 33461 H 3220.21 0.511169 0.53092 0
M  V30 33462 H 3222.85 1.72357 0.799558 0
M  V30 33463 H 3221 2.13377 3.24657 0
M  V30 33464 H 3222.67 4.26949 1.74676 0
M  V30 33465 H 3220.91 4.04074 1.57818 0
M  V30 33466 H 3221.59 4.54539 3.13207 0
M  V30 33467 H 3224.06 2.62109 3.23169 0
M  V30 33468 H 3222.94 3.10135 4.52888 0
M  V30 33469 H 3223.2 1.39677 4.19455 0
M  V30 33470 N 3222.26 -0.935219 1.26852 0
M  V30 33471 C 3223.5 -1.68458 1.12915 0
M  V30 33472 C 3223.84 -1.9145 -0.325674 0
M  V30 33473 O 3223.11 -1.49946 -1.23881 0
M  V30 33474 C 3223.39 -3.05573 1.90518 0
M  V30 33475 C 3223.25 -2.8987 3.43941 0
M  V30 33476 C 3224.57 -4.05786 1.7037 0
M  V30 33477 H 3221.69 -0.611375 0.41157 0
M  V30 33478 H 3224.33 -1.08579 1.55919 0
M  V30 33479 H 3222.48 -3.56687 1.5397 0
M  V30 33480 H 3224.15 -2.45932 3.90276 0
M  V30 33481 H 3222.39 -2.25369 3.70663 0
M  V30 33482 H 3223.06 -3.87146 3.93474 0
M  V30 33483 H 3225.54 -3.63655 2.02223 0
M  V30 33484 H 3224.42 -4.99728 2.27074 0
M  V30 33485 H 3224.68 -4.37299 0.649751 0
M  V30 33486 N 3223.74 -1.08752 -1.14065 0
M  V30 33487 C 3224.67 -0.664691 -2.18305 0
M  V30 33488 C 3225.65 0.325331 -1.59312 0
M  V30 33489 O 3226.83 0.228352 -1.87112 0
M  V30 33490 C 3223.96 0.0218127 -3.38693 0
M  V30 33491 C 3223 -0.928917 -4.16261 0
M  V30 33492 S 3223.84 -2.43742 -4.76812 0
M  V30 33493 C 3224.99 -1.76313 -6.00554 0
M  V30 33494 H 3225.23 -1.54776 -2.53834 0
M  V30 33495 H 3222.76 -0.902839 -1.25252 0
M  V30 33496 H 3224.72 0.411614 -4.08431 0
M  V30 33497 H 3223.38 0.881428 -3.01479 0
M  V30 33498 H 3222.57 -0.395534 -5.02446 0
M  V30 33499 H 3222.17 -1.25979 -3.52144 0
M  V30 33500 H 3224.47 -1.08313 -6.68786 0
M  V30 33501 H 3225.41 -2.60385 -6.58487 0
M  V30 33502 H 3225.82 -1.23499 -5.50825 0
M  V30 33503 N 3225.21 1.31165 -0.873701 0
M  V30 33504 C 3226.16 2.25968 -0.303739 0
M  V30 33505 C 3227.15 1.5079 0.56136 0
M  V30 33506 O 3228.34 1.72242 0.407627 0
M  V30 33507 C 3225.47 3.39777 0.490552 0
M  V30 33508 C 3224.56 4.22321 -0.388001 0
M  V30 33509 N 3224.95 4.83564 -1.48322 0
M  V30 33510 C 3223.24 4.45632 -0.181098 0
M  V30 33511 C 3223.95 5.45304 -2.02529 0
M  V30 33512 N 3222.92 5.27285 -1.32179 0
M  V30 33513 H 3226.72 2.70858 -1.14075 0
M  V30 33514 H 3224.24 1.45474 -0.721868 0
M  V30 33515 H 3226.23 4.06725 0.915429 0
M  V30 33516 H 3224.89 2.96429 1.32514 0
M  V30 33517 H 3225.91 4.83111 -1.86612 0
M  V30 33518 H 3222.58 4.12912 0.617232 0
M  V30 33519 H 3223.97 6.0395 -2.94439 0
M  V30 33520 N 3226.69 0.633512 1.44307 0
M  V30 33521 C 3228.1 0.221042 1.85387 0
M  V30 33522 C 3228.45 -1.22808 1.53012 0
M  V30 33523 O 3227.58 -1.93475 0.969359 0
M  V30 33524 C 3228.17 0.39439 3.36497 0
M  V30 33525 C 3226.73 0.0364066 3.76382 0
M  V30 33526 C 3225.88 0.706645 2.68145 0
M  V30 33527 H 3228.83 0.838514 1.34739 0
M  V30 33528 H 3228.85 -0.36596 3.78736 0
M  V30 33529 H 3228.36 1.44917 3.60029 0
M  V30 33530 H 3226.47 -1.01654 3.58465 0
M  V30 33531 H 3226.58 0.448129 4.77 0
M  V30 33532 H 3224.94 0.141725 2.54305 0
M  V30 33533 H 3225.73 1.76406 2.94509 0
M  V30 33534 N 3228.17 -1.53093 0.374204 0
M  V30 33535 C 3229.1 -2.22383 -0.511956 0
M  V30 33536 C 3230.08 -1.21892 -1.07615 0
M  V30 33537 O 3231.27 -1.50826 -1.13065 0
M  V30 33538 C 3228.39 -2.92528 -1.70719 0
M  V30 33539 C 3227.44 -4.07164 -1.26964 0
M  V30 33540 S 3228.27 -5.3485 -0.263741 0
M  V30 33541 C 3229.43 -6.08511 -1.4651 0
M  V30 33542 H 3229.66 -2.97202 0.0764833 0
M  V30 33543 H 3227.19 -1.53586 0.158334 0
M  V30 33544 H 3229.15 -3.33555 -2.39273 0
M  V30 33545 H 3227.81 -2.17418 -2.26689 0
M  V30 33546 H 3227.01 -4.5529 -2.16164 0
M  V30 33547 H 3226.61 -3.68073 -0.663208 0
M  V30 33548 H 3228.9 -6.33766 -2.39472 0
M  V30 33549 H 3229.84 -7.00641 -1.02505 0
M  V30 33550 H 3230.25 -5.39075 -1.67507 0
M  V30 33551 N 3229.65 -0.103603 -1.57259 0
M  V30 33552 C 3231.06 0.424207 -1.81817 0
M  V30 33553 C 3231.41 1.67615 -1.01979 0
M  V30 33554 O 3230.54 2.14931 -0.251711 0
M  V30 33555 C 3231.13 0.776395 -3.29784 0
M  V30 33556 C 3229.69 1.24891 -3.55076 0
M  V30 33557 C 3228.84 0.249827 -2.76172 0
M  V30 33558 H 3231.79 -0.32894 -1.55254 0
M  V30 33559 H 3231.81 1.6352 -3.43572 0
M  V30 33560 H 3231.32 -0.134974 -3.87865 0
M  V30 33561 H 3229.42 2.1777 -3.02336 0
M  V30 33562 H 3229.53 1.20487 -4.63702 0
M  V30 33563 H 3227.9 0.733724 -2.43903 0
M  V30 33564 H 3228.68 -0.65437 -3.37006 0
M  V30 33565 N 3231.13 1.56679 0.170126 0
M  V30 33566 C 3232.54 1.50824 0.521939 0
M  V30 33567 C 3232.74 0.80807 1.84587 0
M  V30 33568 O 3231.8 0.368935 2.4979 0
M  V30 33569 C 3233.11 2.9556 0.553596 0
M  V30 33570 C 3234.66 3.06372 0.640715 0
M  V30 33571 C 3235.13 4.52569 0.703253 0
M  V30 33572 N 3236.63 4.56821 0.76611 0
M  V30 33573 C 3237.36 5.67286 0.835092 0
M  V30 33574 N 3236.86 6.87381 0.864836 0
M  V30 33575 N 3238.65 5.5526 0.874204 0
M  V30 33576 H 3230.8 2.00604 -0.697988 0
M  V30 33577 H 3233.06 0.913947 -0.251803 0
M  V30 33578 H 3232.77 3.49949 -0.350559 0
M  V30 33579 H 3232.64 3.5027 1.39967 0
M  V30 33580 H 3235.03 2.52017 1.5353 0
M  V30 33581 H 3235.11 2.54745 -0.232053 0
M  V30 33582 H 3234.76 5.07555 -0.187075 0
M  V30 33583 H 3234.69 5.01953 1.59218 0
M  V30 33584 H 3237.18 3.70355 0.751359 0
M  V30 33585 H 3237.49 7.6732 0.91868 0
M  V30 33586 H 3235.83 6.89989 0.833094 0
M  V30 33587 H 3239.03 4.60355 0.847976 0
M  V30 33588 H 3239.2 6.41371 0.924502 0
M  V30 33589 N 3232.6 -0.43872 1.5137 0
M  V30 33590 C 3233.85 -1.19003 1.64214 0
M  V30 33591 C 3234.18 -1.90897 0.35664 0
M  V30 33592 O 3233.46 -1.8354 -0.64369 0
M  V30 33593 C 3233.74 -2.20812 2.84454 0
M  V30 33594 C 3233.59 -1.5301 4.22975 0
M  V30 33595 C 3234.91 -3.21808 3.00213 0
M  V30 33596 H 3232.03 -0.431278 0.597636 0
M  V30 33597 H 3234.67 -0.479454 1.83851 0
M  V30 33598 H 3232.82 -2.81413 2.67841 0
M  V30 33599 H 3234.5 -0.957575 4.51252 0
M  V30 33600 H 3232.74 -0.832481 4.25737 0
M  V30 33601 H 3233.41 -2.27149 5.03098 0
M  V30 33602 H 3235.89 -2.7126 3.15527 0
M  V30 33603 H 3234.76 -3.90339 3.85911 0
M  V30 33604 H 3235.02 -3.87832 2.12223 0
M  V30 33605 N 3234.08 -1.41493 -0.694073 0
M  V30 33606 C 3235.03 -1.43665 -1.82929 0
M  V30 33607 C 3236.02 -0.31452 -1.66455 0
M  V30 33608 O 3237.23 -0.486619 -1.73297 0
M  V30 33609 H 3233.61 -0.449543 -0.602839 0
M  V30 33610 H 3235.58 -2.39337 -1.78214 0
M  V30 33611 C 3234.33 -1.33718 -3.20959 0
M  V30 33612 H 3233.65 -2.19351 -3.34253 0
M  V30 33613 H 3235.09 -1.39298 -4.00465 0
M  V30 33614 C 3233.55 -0.0496924 -3.36863 0
M  V30 33615 O 3234.08 0.905025 -3.91372 0
M  V30 33616 N 3232.28 0.0268788 -2.90588 0
M  V30 33617 H 3231.83 -0.750795 -2.46416 0
M  V30 33618 H 3231.79 0.887728 -3.01607 0
M  V30 33619 N 3235.56 0.928479 -1.27346 0
M  V30 33620 C 3236.47 2.06239 -1.11815 0
M  V30 33621 C 3237.49 1.73933 -0.0483775 0
M  V30 33622 O 3238.66 1.99783 -0.254705 0
M  V30 33623 C 3235.73 3.3813 -0.766096 0
M  V30 33624 C 3234.79 3.84139 -1.91666 0
M  V30 33625 C 3234.02 5.09736 -1.5813 0
M  V30 33626 O 3234.24 5.68301 -0.488841 0
M  V30 33627 O 3233.18 5.51098 -2.42023 0
M  V30 33628 H 3237 2.22254 -2.06971 0
M  V30 33629 H 3234.59 1.0475 -1.06526 0
M  V30 33630 H 3236.47 4.17347 -0.583055 0
M  V30 33631 H 3235.15 3.23324 0.155941 0
M  V30 33632 H 3234.05 3.05812 -2.15475 0
M  V30 33633 H 3235.39 4.03485 -2.81887 0
M  V30 33634 N 3237.04 1.09355 1.13486 0
M  V30 33635 C 3238.29 0.824042 1.84099 0
M  V30 33636 C 3238.6 -0.652553 1.84394 0
M  V30 33637 O 3239.81 -1.03758 2.50892 0
M  V30 33638 C 3238.26 1.42423 3.3052 0
M  V30 33639 C 3237.87 2.93332 3.38615 0
M  V30 33640 C 3239.61 1.23363 4.06179 0
M  V30 33641 C 3237.52 3.4644 4.79305 0
M  V30 33642 H 3236.45 0.304601 0.689735 0
M  V30 33643 H 3239.1 1.31617 1.27864 0
M  V30 33644 H 3237.48 0.859795 3.86553 0
M  V30 33645 H 3238.66 3.55996 2.92581 0
M  V30 33646 H 3236.97 3.11417 2.7642 0
M  V30 33647 H 3239.57 1.60497 5.10044 0
M  V30 33648 H 3239.91 0.174225 4.15935 0
M  V30 33649 H 3240.45 1.76554 3.56474 0
M  V30 33650 H 3237.19 4.51998 4.7474 0
M  V30 33651 H 3236.71 2.8854 5.25837 0
M  V30 33652 H 3238.38 3.43602 5.48221 0
M  V30 33653 N 3238.52 -1.307 0.880644 0
M  V30 33654 C 3239.74 -2.01008 0.510944 0
M  V30 33655 C 3240.17 -1.65604 -0.892012 0
M  V30 33656 O 3239.53 -0.870337 -1.59043 0
M  V30 33657 C 3239.57 -3.53979 0.687821 0
M  V30 33658 O 3238.68 -4.11527 -0.268203 0
M  V30 33659 H 3238.02 -0.632568 0.201876 0
M  V30 33660 H 3240.55 -1.66648 1.187 0
M  V30 33661 H 3240.56 -4.03782 0.585166 0
M  V30 33662 H 3239.23 -3.79086 1.71075 0
M  V30 33663 H 3237.81 -3.72708 -0.119608 0
M  V30 33664 N 3240 -0.641156 -1.43969 0
M  V30 33665 C 3241.24 -0.149886 -2.02245 0
M  V30 33666 C 3241.57 1.22869 -1.50389 0
M  V30 33667 O 3240.85 1.81772 -0.692035 0
M  V30 33668 C 3241.13 -0.147512 -3.59798 0
M  V30 33669 C 3240.99 -1.55914 -4.21913 0
M  V30 33670 C 3242.3 0.52259 -4.36986 0
M  V30 33671 H 3239.42 -0.0559403 -0.734874 0
M  V30 33672 H 3242.07 -0.819543 -1.71416 0
M  V30 33673 H 3240.22 0.422721 -3.86193 0
M  V30 33674 H 3241.89 -2.17903 -4.0659 0
M  V30 33675 H 3240.13 -2.11004 -3.79024 0
M  V30 33676 H 3240.8 -1.50943 -5.30962 0
M  V30 33677 H 3243.28 0.0375494 -4.16083 0
M  V30 33678 H 3242.15 0.493476 -5.46677 0
M  V30 33679 H 3242.41 1.59468 -4.12338 0
M  V30 33680 N 3241.47 1.52892 -0.382318 0
M  V30 33681 C 3242.38 2.29972 0.463705 0
M  V30 33682 C 3243.4 1.36604 1.07774 0
M  V30 33683 O 3244.58 1.69671 1.08507 0
M  V30 33684 C 3241.64 3.08639 1.57932 0
M  V30 33685 C 3240.7 4.17703 0.991109 0
M  V30 33686 C 3239.93 4.9261 2.05356 0
M  V30 33687 O 3240.16 4.67538 3.26749 0
M  V30 33688 O 3239.09 5.78131 1.67477 0
M  V30 33689 H 3242.92 3.03257 -0.164016 0
M  V30 33690 H 3240.5 1.48683 -0.146225 0
M  V30 33691 H 3242.38 3.5771 2.22758 0
M  V30 33692 H 3241.06 2.38174 2.19214 0
M  V30 33693 H 3239.97 3.72844 0.306299 0
M  V30 33694 H 3241.3 4.90382 0.422613 0
M  V30 33695 N 3242.95 0.111941 1.57202 0
M  V30 33696 C 3244.2 -0.548573 1.9524 0
M  V30 33697 C 3244.53 -1.66778 0.994927 0
M  V30 33698 O 3243.81 -1.94475 0.0308945 0
M  V30 33699 C 3244.09 -1.08792 3.43273 0
M  V30 33700 C 3243.94 0.0273854 4.49792 0
M  V30 33701 C 3245.26 -1.98102 3.92993 0
M  V30 33702 H 3242.38 -0.197939 0.709922 0
M  V30 33703 H 3245.02 0.186069 1.89087 0
M  V30 33704 H 3243.17 -1.71398 3.48647 0
M  V30 33705 H 3244.84 0.662382 4.5652 0
M  V30 33706 H 3243.09 0.691501 4.28253 0
M  V30 33707 H 3243.76 -0.391104 5.50613 0
M  V30 33708 H 3246.23 -1.45378 3.89878 0
M  V30 33709 H 3245.11 -2.32761 4.97105 0
M  V30 33710 H 3245.37 -2.90486 3.33272 0
M  V30 33711 N 3244.43 -1.56767 -0.161814 0
M  V30 33712 C 3245.71 -1.73419 -0.904724 0
M  V30 33713 C 3246.09 -0.675943 -1.99986 0
M  V30 33714 O 3245.43 0.307672 -2.26419 0
M  V30 33715 C 3245.64 -3.16959 -1.46076 0
M  V30 33716 C 3246.99 -3.78202 -1.92998 0
M  V30 33717 O 3248.02 -3.20296 -1.5585 0
M  V30 33718 O 3246.88 -4.79898 -2.61457 0
M  V30 33719 H 3243.97 -0.708535 -0.426506 0
M  V30 33720 H 3246.52 -1.69046 -0.148899 0
M  V30 33721 H 3245.29 -3.85469 -0.673019 0
M  V30 33722 H 3244.91 -3.25697 -2.28051 0
M  V30 33723 N 3245.91 0.430686 -1.51601 0
M  V30 33724 C 3247.13 1.20642 -1.68702 0
M  V30 33725 C 3247.56 1.84085 -0.386587 0
M  V30 33726 O 3246.92 1.69096 0.653923 0
M  V30 33727 C 3246.96 2.26125 -2.80891 0
M  V30 33728 O 3246.07 3.31767 -2.44957 0
M  V30 33729 H 3245.41 0.353157 -0.562295 0
M  V30 33730 H 3247.94 0.507772 -1.98199 0
M  V30 33731 H 3247.95 2.70803 -3.05172 0
M  V30 33732 H 3246.62 1.79327 -3.75253 0
M  V30 33733 H 3245.2 2.92519 -2.31273 0
M  V30 33734 N 3247.39 1.4186 0.686559 0
M  V30 33735 C 3248.66 1.32187 1.44173 0
M  V30 33736 C 3249.04 -0.0463249 2.11049 0
M  V30 33737 O 3248.39 -1.06113 2.02367 0
M  V30 33738 C 3248.6 2.48172 2.45381 0
M  V30 33739 C 3249.95 2.89751 3.1037 0
M  V30 33740 O 3250.97 2.47977 2.55706 0
M  V30 33741 O 3249.83 3.62016 4.09398 0
M  V30 33742 H 3246.93 0.520689 0.642504 0
M  V30 33743 H 3249.47 1.53843 0.716276 0
M  V30 33744 H 3248.24 3.39433 1.94681 0
M  V30 33745 H 3247.87 2.28441 3.25424 0
M  V30 33746 N 3248.86 -0.921712 1.27837 0
M  V30 33747 C 3250.27 -1.48503 1.13153 0
M  V30 33748 C 3250.63 -1.94172 -0.281339 0
M  V30 33749 O 3249.75 -1.81732 -1.17484 0
M  V30 33750 C 3250.35 -2.69896 2.04797 0
M  V30 33751 C 3248.9 -3.22432 1.94202 0
M  V30 33752 C 3248.05 -1.95155 1.97002 0
M  V30 33753 H 3251 -0.735216 1.40642 0
M  V30 33754 H 3251.02 -3.44886 1.6073 0
M  V30 33755 H 3250.54 -2.36626 3.0762 0
M  V30 33756 H 3248.64 -3.60447 0.943868 0
M  V30 33757 H 3248.75 -3.88221 2.80751 0
M  V30 33758 H 3247.11 -2.11908 1.41305 0
M  V30 33759 H 3247.9 -1.64191 3.0149 0
M  V30 33760 N 3250.34 -1.09956 -1.12905 0
M  V30 33761 C 3251.76 -0.83035 -1.36299 0
M  V30 33762 C 3251.96 0.55266 -1.93773 0
M  V30 33763 O 3251.01 1.30649 -2.16072 0
M  V30 33764 C 3252.33 -1.92602 -2.30922 0
M  V30 33765 C 3253.87 -1.95389 -2.44524 0
M  V30 33766 C 3254.35 -3.04116 -3.42458 0
M  V30 33767 N 3255.84 -3.0339 -3.50012 0
M  V30 33768 C 3256.58 -3.8416 -4.25686 0
M  V30 33769 N 3256.07 -4.74852 -5.04468 0
M  V30 33770 N 3257.86 -3.72398 -4.21042 0
M  V30 33771 H 3250.02 -1.9911 -0.739536 0
M  V30 33772 H 3252.28 -0.864977 -0.387967 0
M  V30 33773 H 3251.98 -2.92119 -1.95856 0
M  V30 33774 H 3251.86 -1.80894 -3.30994 0
M  V30 33775 H 3254.25 -0.965086 -2.78873 0
M  V30 33776 H 3254.33 -2.11174 -1.44357 0
M  V30 33777 H 3253.97 -4.03213 -3.0884 0
M  V30 33778 H 3253.9 -2.85573 -4.42443 0
M  V30 33779 H 3256.39 -2.3767 -2.93805 0
M  V30 33780 H 3256.7 -5.33051 -5.59532 0
M  V30 33781 H 3255.05 -4.78884 -5.03681 0
M  V30 33782 H 3258.24 -3.00901 -3.58575 0
M  V30 33783 H 3258.41 -4.35581 -4.79764 0
M  V30 33784 N 3251.82 1.30231 -0.887563 0
M  V30 33785 C 3252.78 2.26337 -0.361135 0
M  V30 33786 C 3253.78 1.52899 0.497844 0
M  V30 33787 O 3254.97 1.71516 0.30463 0
M  V30 33788 C 3252.1 3.37431 0.485076 0
M  V30 33789 H 3253.3 2.74416 -1.20978 0
M  V30 33790 H 3250.85 1.41464 -0.664644 0
M  V30 33791 H 3251.59 2.94672 1.3542 0
M  V30 33792 H 3251.37 3.91884 -0.130242 0
M  V30 33793 H 3252.86 4.0896 0.845097 0
M  V30 33794 N 3253.3 0.648782 1.43627 0
M  V30 33795 C 3254.26 -0.036031 2.29172 0
M  V30 33796 C 3255.26 -0.754951 1.41976 0
M  V30 33797 O 3256.45 -0.596871 1.63655 0
M  V30 33798 C 3253.58 -1.06174 3.23944 0
M  V30 33799 H 3254.78 0.716595 2.91213 0
M  V30 33800 H 3252.33 0.409785 1.50833 0
M  V30 33801 H 3253.06 -1.84375 2.66789 0
M  V30 33802 H 3252.85 -0.549948 3.88224 0
M  V30 33803 H 3254.34 -1.54012 3.88162 0
M  V30 33804 N 3254.78 -1.52688 0.390421 0
M  V30 33805 C 3256.01 -2.05714 -0.191171 0
M  V30 33806 C 3256.41 -1.2619 -1.4097 0
M  V30 33807 O 3255.76 -0.30197 -1.81201 0
M  V30 33808 C 3255.82 -3.5403 -0.624732 0
M  V30 33809 C 3255.48 -4.54467 0.480493 0
M  V30 33810 C 3256.48 -5.02381 1.33825 0
M  V30 33811 C 3254.17 -4.98105 0.647842 0
M  V30 33812 C 3256.16 -5.92559 2.34847 0
M  V30 33813 C 3253.85 -5.88082 1.6614 0
M  V30 33814 C 3254.84 -6.35202 2.51013 0
M  V30 33815 O 3254.53 -7.23402 3.50635 0
M  V30 33816 H 3254.26 -0.675232 -0.0322091 0
M  V30 33817 H 3256.82 -1.97775 0.554466 0
M  V30 33818 H 3255.05 -3.59591 -1.42236 0
M  V30 33819 H 3256.74 -3.89792 -1.13212 0
M  V30 33820 H 3257.5 -4.69398 1.22027 0
M  V30 33821 H 3253.38 -4.61 -0.00306408 0
M  V30 33822 H 3256.93 -6.2926 3.01128 0
M  V30 33823 H 3252.82 -6.2048 1.77975 0
M  V30 33824 H 3253.59 -7.41466 3.46657 0
M  V30 33825 N 3256.25 -0.120276 -1.5714 0
M  V30 33826 C 3257.5 0.537415 -1.95239 0
M  V30 33827 C 3257.83 1.66605 -1.00364 0
M  V30 33828 O 3257.08 1.9568 -0.027765 0
M  V30 33829 C 3257.38 1.10935 -3.39747 0
M  V30 33830 C 3257.05 0.101932 -4.50785 0
M  V30 33831 C 3255.71 -0.175078 -4.80881 0
M  V30 33832 C 3258.06 -0.584553 -5.17912 0
M  V30 33833 C 3255.39 -1.14484 -5.75422 0
M  V30 33834 C 3257.74 -1.54295 -6.13495 0
M  V30 33835 C 3256.41 -1.82794 -6.41983 0
M  V30 33836 H 3255.68 0.196654 -0.714429 0
M  V30 33837 H 3258.32 -0.201452 -1.90437 0
M  V30 33838 H 3256.63 1.925 -3.41249 0
M  V30 33839 H 3258.33 1.62636 -3.66539 0
M  V30 33840 H 3254.92 0.328022 -4.27343 0
M  V30 33841 H 3259.1 -0.383712 -4.94814 0
M  V30 33842 H 3254.36 -1.37237 -5.95799 0
M  V30 33843 H 3258.53 -2.08056 -6.64594 0
M  V30 33844 H 3256.16 -2.58092 -7.15047 0
M  V30 33845 N 3257.73 1.56851 0.153498 0
M  V30 33846 C 3259.15 1.51369 0.505913 0
M  V30 33847 C 3259.35 0.827602 1.8372 0
M  V30 33848 O 3258.4 0.395408 2.49385 0
M  V30 33849 C 3259.72 2.96131 0.522217 0
M  V30 33850 C 3261.27 3.07034 0.608184 0
M  V30 33851 C 3261.74 4.53289 0.655212 0
M  V30 33852 N 3263.23 4.57607 0.717615 0
M  V30 33853 C 3263.97 5.6814 0.774877 0
M  V30 33854 N 3263.46 6.88259 0.791882 0
M  V30 33855 N 3265.26 5.56156 0.815262 0
M  V30 33856 H 3257.41 1.99852 -0.719225 0
M  V30 33857 H 3259.67 0.911225 -0.261482 0
M  V30 33858 H 3259.38 3.49557 -0.387656 0
M  V30 33859 H 3259.25 3.51735 1.36244 0
M  V30 33860 H 3261.64 2.53631 1.50848 0
M  V30 33861 H 3261.72 2.54485 -0.259059 0
M  V30 33862 H 3261.36 5.07328 -0.240898 0
M  V30 33863 H 3261.29 5.03614 1.53885 0
M  V30 33864 H 3263.78 3.71131 0.712035 0
M  V30 33865 H 3264.1 7.68251 0.837243 0
M  V30 33866 H 3262.44 6.90834 0.759864 0
M  V30 33867 H 3265.63 4.61229 0.799102 0
M  V30 33868 H 3265.8 6.42316 0.856424 0
M  V30 33869 N 3259.21 -0.42264 1.51827 0
M  V30 33870 C 3260.14 -1.53272 1.70412 0
M  V30 33871 C 3261.16 -1.51941 0.584611 0
M  V30 33872 O 3262.34 -1.56451 0.859376 0
M  V30 33873 C 3259.44 -2.92182 1.71705 0
M  V30 33874 C 3258.62 -3.17856 3.00477 0
M  V30 33875 C 3257.68 -4.36566 2.93762 0
M  V30 33876 O 3256.7 -4.34503 3.67689 0
M  V30 33877 N 3257.9 -5.40943 2.10622 0
M  V30 33878 H 3260.67 -1.37729 2.66178 0
M  V30 33879 H 3258.23 -0.611773 1.49896 0
M  V30 33880 H 3260.22 -3.69642 1.64762 0
M  V30 33881 H 3258.79 -3.0125 0.834708 0
M  V30 33882 H 3258.01 -2.28561 3.21175 0
M  V30 33883 H 3259.3 -3.31844 3.8569 0
M  V30 33884 H 3258.7 -5.45461 1.49963 0
M  V30 33885 H 3257.26 -6.17198 2.09546 0
M  V30 33886 N 3260.69 -1.42222 -0.679027 0
M  V30 33887 C 3261.65 -1.45072 -1.77445 0
M  V30 33888 C 3262.65 -0.338909 -1.57188 0
M  V30 33889 O 3263.84 -0.599548 -1.63558 0
M  V30 33890 C 3260.97 -1.27825 -3.16028 0
M  V30 33891 H 3262.17 -2.42603 -1.76306 0
M  V30 33892 H 3259.72 -1.28607 -0.888254 0
M  V30 33893 H 3260.45 -0.312002 -3.22796 0
M  V30 33894 H 3260.24 -2.08397 -3.32134 0
M  V30 33895 H 3261.73 -1.32693 -3.95957 0
M  V30 33896 N 3262.17 0.91492 -1.28324 0
M  V30 33897 C 3263.08 2.05041 -1.13996 0
M  V30 33898 C 3264.09 1.73872 -0.0668227 0
M  V30 33899 O 3265.27 1.99502 -0.27588 0
M  V30 33900 C 3262.33 3.37298 -0.801916 0
M  V30 33901 C 3261.39 3.82084 -1.95729 0
M  V30 33902 C 3260.63 5.0803 -1.63528 0
M  V30 33903 O 3260.85 5.67751 -0.54909 0
M  V30 33904 O 3259.78 5.485 -2.47854 0
M  V30 33905 H 3263.61 2.20046 -2.09316 0
M  V30 33906 H 3261.2 1.03614 -1.07631 0
M  V30 33907 H 3263.08 4.16705 -0.627288 0
M  V30 33908 H 3261.75 3.23471 0.121639 0
M  V30 33909 H 3260.66 3.0351 -2.18707 0
M  V30 33910 H 3261.99 4.00473 -2.86151 0
M  V30 33911 N 3263.64 1.10553 1.1232 0
M  V30 33912 C 3264.59 0.750356 2.20165 0
M  V30 33913 C 3265.59 -0.254037 1.67484 0
M  V30 33914 O 3266.79 -0.114278 1.79637 0
M  V30 33915 H 3263.17 0.224722 0.717638 0
M  V30 33916 H 3265.14 1.66877 2.47375 0
M  V30 33917 C 3263.89 0.199712 3.47126 0
M  V30 33918 H 3263.21 0.963803 3.88009 0
M  V30 33919 H 3264.65 -0.0107288 4.23999 0
M  V30 33920 C 3263.11 -1.06786 3.19528 0
M  V30 33921 O 3263.64 -2.14917 3.39372 0
M  V30 33922 N 3261.85 -0.986984 2.73326 0
M  V30 33923 H 3261.39 -0.106951 2.57378 0
M  V30 33924 H 3261.35 -1.8358 2.55237 0
M  V30 33925 N 3265.12 -1.29758 0.894457 0
M  V30 33926 C 3266.37 -1.95384 0.51668 0
M  V30 33927 C 3266.69 -1.70897 -0.939111 0
M  V30 33928 O 3265.96 -1.03781 -1.66152 0
M  V30 33929 H 3264.54 -0.722934 0.188085 0
M  V30 33930 H 3267.2 -1.58111 1.13961 0
M  V30 33931 H 3266.3 -3.04266 0.694873 0
M  V30 33932 N 3266.6 -0.65639 -1.4328 0
M  V30 33933 C 3267.53 0.0830869 -2.28049 0
M  V30 33934 C 3268.51 0.826787 -1.40011 0
M  V30 33935 O 3269.7 0.825706 -1.69453 0
M  V30 33936 C 3266.82 1.12447 -3.19489 0
M  V30 33937 C 3265.87 0.478452 -4.23808 0
M  V30 33938 S 3266.7 -0.750341 -5.30217 0
M  V30 33939 C 3267.86 0.290424 -6.25226 0
M  V30 33940 H 3268.09 -0.635973 -2.90418 0
M  V30 33941 H 3265.62 -0.445329 -1.47838 0
M  V30 33942 H 3267.58 1.72027 -3.72716 0
M  V30 33943 H 3266.24 1.81586 -2.56291 0
M  V30 33944 H 3265.44 1.2636 -4.87903 0
M  V30 33945 H 3265.04 -0.0433168 -3.73975 0
M  V30 33946 H 3267.33 1.15568 -6.67571 0
M  V30 33947 H 3268.27 -0.315583 -7.07396 0
M  V30 33948 H 3268.68 0.627653 -5.61 0
M  V30 33949 N 3268.08 1.52478 -0.398513 0
M  V30 33950 C 3269.31 2.05812 0.180259 0
M  V30 33951 C 3269.72 1.26936 1.40299 0
M  V30 33952 O 3269.06 0.311575 1.81038 0
M  V30 33953 C 3269.12 3.54356 0.605948 0
M  V30 33954 C 3268.79 4.54206 -0.504588 0
M  V30 33955 C 3269.78 5.01665 -1.36487 0
M  V30 33956 C 3267.47 4.97754 -0.674248 0
M  V30 33957 C 3269.46 5.91305 -2.37986 0
M  V30 33958 C 3267.15 5.87193 -1.69256 0
M  V30 33959 C 3268.15 6.33862 -2.54378 0
M  V30 33960 O 3267.84 7.21532 -3.54467 0
M  V30 33961 H 3267.57 0.675394 0.0286277 0
M  V30 33962 H 3270.12 1.97478 -0.564947 0
M  V30 33963 H 3268.35 3.6034 1.40327 0
M  V30 33964 H 3270.04 3.90387 1.11143 0
M  V30 33965 H 3270.81 4.68744 -1.24515 0
M  V30 33966 H 3266.69 4.60995 -0.0213839 0
M  V30 33967 H 3270.23 6.27654 -3.04461 0
M  V30 33968 H 3266.13 6.19527 -1.81263 0
M  V30 33969 H 3266.89 7.39617 -3.50584 0
M  V30 33970 N 3269.56 0.128608 1.57074 0
M  V30 33971 C 3270.81 -0.526918 1.94696 0
M  V30 33972 C 3271.12 -1.67213 1.01485 0
M  V30 33973 O 3272.33 -2.39106 1.2861 0
M  V30 33974 C 3270.78 -0.98874 3.46052 0
M  V30 33975 C 3270.39 0.128536 4.47816 0
M  V30 33976 C 3272.13 -1.6151 3.92575 0
M  V30 33977 C 3270.04 -0.350525 5.9036 0
M  V30 33978 H 3268.97 -0.20061 0.726823 0
M  V30 33979 H 3271.62 0.210004 1.82294 0
M  V30 33980 H 3270 -1.78037 3.53721 0
M  V30 33981 H 3271.18 0.905056 4.51825 0
M  V30 33982 H 3269.49 0.662147 4.11102 0
M  V30 33983 H 3272.09 -1.98483 4.96496 0
M  V30 33984 H 3272.43 -2.49715 3.33089 0
M  V30 33985 H 3272.97 -0.8887 3.87746 0
M  V30 33986 H 3269.7 0.495707 6.53623 0
M  V30 33987 H 3269.22 -1.09332 5.89751 0
M  V30 33988 H 3270.9 -0.808604 6.41927 0
M  V30 33989 N 3271.04 -1.5693 -0.145178 0
M  V30 33990 C 3272.45 -1.51636 -0.497878 0
M  V30 33991 C 3272.65 -0.837334 -1.83278 0
M  V30 33992 O 3271.71 -0.408628 -2.49172 0
M  V30 33993 C 3273.02 -2.96403 -0.506505 0
M  V30 33994 C 3274.57 -3.07353 -0.591893 0
M  V30 33995 C 3275.04 -4.5363 -0.631164 0
M  V30 33996 N 3276.53 -4.57982 -0.693337 0
M  V30 33997 C 3277.27 -5.68543 -0.744736 0
M  V30 33998 N 3276.77 -6.8867 -0.755371 0
M  V30 33999 N 3278.56 -5.56581 -0.785756 0
M  V30 34000 H 3270.71 -1.99468 0.729814 0
M  V30 34001 H 3272.97 -0.909826 0.266311 0
M  V30 34002 H 3272.68 -3.49347 0.406189 0
M  V30 34003 H 3272.55 -3.52453 -1.34377 0
M  V30 34004 H 3274.94 -2.54428 -1.49501 0
M  V30 34005 H 3275.02 -2.54344 0.272551 0
M  V30 34006 H 3274.66 -5.07193 0.267799 0
M  V30 34007 H 3274.59 -5.04423 -1.51212 0
M  V30 34008 H 3277.09 -3.71504 -0.692343 0
M  V30 34009 H 3277.4 -7.68685 -0.796489 0
M  V30 34010 H 3275.74 -6.91227 -0.723217 0
M  V30 34011 H 3278.93 -4.61646 -0.774631 0
M  V30 34012 H 3279.11 -6.42761 -0.822348 0
M  V30 34013 N 3272.51 0.414582 -1.52049 0
M  V30 34014 C 3273.45 1.52552 -1.69715 0
M  V30 34015 C 3274.42 1.53205 -0.544708 0
M  V30 34016 O 3275.61 1.71994 -0.771388 0
M  V30 34017 C 3272.74 2.91096 -1.7315 0
M  V30 34018 C 3271.78 3.08376 -2.94629 0
M  V30 34019 S 3272.61 2.82266 -4.55067 0
M  V30 34020 C 3273.77 4.23049 -4.61281 0
M  V30 34021 H 3274 1.37338 -2.63677 0
M  V30 34022 H 3271.54 0.605799 -1.42019 0
M  V30 34023 H 3273.49 3.70944 -1.75815 0
M  V30 34024 H 3272.16 3.03656 -0.803252 0
M  V30 34025 H 3271.35 4.09725 -2.93499 0
M  V30 34026 H 3270.95 2.36386 -2.89824 0
M  V30 34027 H 3273.24 5.16604 -4.38322 0
M  V30 34028 H 3274.19 4.29204 -5.63196 0
M  V30 34029 H 3274.59 4.07766 -3.90368 0
M  V30 34030 N 3273.99 1.4258 0.671475 0
M  V30 34031 C 3274.95 1.46011 1.76673 0
M  V30 34032 C 3275.95 0.347241 1.57006 0
M  V30 34033 O 3277.14 0.608213 1.63237 0
M  V30 34034 C 3274.28 1.29499 3.15346 0
M  V30 34035 H 3275.47 2.43534 1.75017 0
M  V30 34036 H 3273.02 1.29076 0.881421 0
M  V30 34037 H 3273.76 0.329117 3.22626 0
M  V30 34038 H 3273.54 2.10155 3.31025 0
M  V30 34039 H 3275.03 1.34791 3.95248 0
M  V30 34040 N 3275.47 -0.908102 1.28807 0
M  V30 34041 C 3276.4 -2.02785 1.15761 0
M  V30 34042 C 3277.38 -1.70014 0.0539408 0
M  V30 34043 O 3278.57 -1.9281 0.231935 0
M  V30 34044 C 3275.7 -3.37369 0.824585 0
M  V30 34045 C 3274.65 -3.84321 1.88365 0
M  V30 34046 C 3273.98 -5.15934 1.40413 0
M  V30 34047 C 3275.28 -4.05562 3.29115 0
M  V30 34048 H 3276.97 -2.13957 2.09434 0
M  V30 34049 H 3274.52 -1.02804 1.00833 0
M  V30 34050 H 3276.47 -4.15202 0.720063 0
M  V30 34051 H 3275.19 -3.26265 -0.147845 0
M  V30 34052 H 3273.85 -3.08697 1.97742 0
M  V30 34053 H 3273.5 -5.01238 0.420603 0
M  V30 34054 H 3273.2 -5.48319 2.11234 0
M  V30 34055 H 3274.72 -5.96317 1.31294 0
M  V30 34056 H 3276.14 -4.73903 3.22628 0
M  V30 34057 H 3274.53 -4.49287 3.9782 0
M  V30 34058 H 3275.6 -3.1018 3.72715 0
M  V30 34059 N 3276.95 -1.11147 -1.11732 0
M  V30 34060 C 3277.88 -0.78919 -2.19759 0
M  V30 34061 C 3278.86 0.241113 -1.68382 0
M  V30 34062 O 3280.04 0.105257 -1.93915 0
M  V30 34063 C 3277.17 -0.228265 -3.46549 0
M  V30 34064 C 3276.13 -1.19009 -4.11121 0
M  V30 34065 C 3275.45 -0.490021 -5.3245 0
M  V30 34066 C 3276.75 -2.53959 -4.56401 0
M  V30 34067 H 3278.45 -1.69245 -2.46975 0
M  V30 34068 H 3275.99 -0.815191 -1.18704 0
M  V30 34069 H 3277.95 0.00938501 -4.21399 0
M  V30 34070 H 3276.67 0.710274 -3.18783 0
M  V30 34071 H 3275.33 -1.41332 -3.38261 0
M  V30 34072 H 3274.98 0.453227 -5.00954 0
M  V30 34073 H 3274.68 -1.1315 -5.76603 0
M  V30 34074 H 3276.2 -0.261092 -6.10042 0
M  V30 34075 H 3277.62 -2.35742 -5.22588 0
M  V30 34076 H 3276.01 -3.1406 -5.11357 0
M  V30 34077 H 3277.08 -3.13408 -3.70004 0
M  V30 34078 N 3278.43 1.29282 -0.901326 0
M  V30 34079 C 3279.39 2.25941 -0.385121 0
M  V30 34080 C 3280.39 1.53419 0.481599 0
M  V30 34081 O 3281.58 1.71829 0.286421 0
M  V30 34082 C 3278.71 3.37927 0.449259 0
M  V30 34083 H 3279.9 2.73118 -1.23882 0
M  V30 34084 H 3277.46 1.40751 -0.679611 0
M  V30 34085 H 3278.19 2.96092 1.32287 0
M  V30 34086 H 3277.98 3.91723 -0.171799 0
M  V30 34087 H 3279.47 4.09833 0.801674 0
M  V30 34088 N 3279.9 0.663979 1.4293 0
M  V30 34089 C 3281.13 0.189844 2.06027 0
M  V30 34090 C 3281.55 -1.14877 1.49829 0
M  V30 34091 O 3280.9 -1.71141 0.633808 0
M  V30 34092 C 3280.95 0.104407 3.61349 0
M  V30 34093 O 3280.68 1.39011 4.15461 0
M  V30 34094 C 3282.18 -0.394522 4.41541 0
M  V30 34095 H 3279.4 0.0948861 0.664257 0
M  V30 34096 H 3281.94 0.907664 1.83253 0
M  V30 34097 H 3280.1 -0.564035 3.83272 0
M  V30 34098 H 3280.51 1.25635 5.09231 0
M  V30 34099 H 3281.98 -0.403232 5.50525 0
M  V30 34100 H 3282.46 -1.42783 4.15343 0
M  V30 34101 H 3283.07 0.241804 4.24612 0
M  V30 34102 N 3281.38 -1.52265 0.406593 0
M  V30 34103 C 3282.63 -2.02084 -0.170269 0
M  V30 34104 C 3282.96 -1.29178 -1.45005 0
M  V30 34105 O 3282.24 -0.397344 -1.90398 0
M  V30 34106 C 3282.52 -3.57636 -0.420564 0
M  V30 34107 C 3282.37 -4.41193 0.875718 0
M  V30 34108 C 3283.69 -4.23316 -1.20379 0
M  V30 34109 H 3280.81 -0.73452 -0.060409 0
M  V30 34110 H 3283.45 -1.82178 0.539561 0
M  V30 34111 H 3281.6 -3.74728 -1.02523 0
M  V30 34112 H 3283.27 -4.35817 1.512 0
M  V30 34113 H 3281.52 -4.07509 1.48725 0
M  V30 34114 H 3282.19 -5.481 0.655012 0
M  V30 34115 H 3284.66 -4.10307 -0.6919 0
M  V30 34116 H 3283.54 -5.32099 -1.34767 0
M  V30 34117 H 3283.8 -3.82103 -2.22373 0
M  V30 34118 N 3282.86 -0.136936 -1.57004 0
M  V30 34119 C 3283.79 0.802863 -2.19263 0
M  V30 34120 C 3284.77 1.26437 -1.13788 0
M  V30 34121 O 3285.96 1.32375 -1.42094 0
M  V30 34122 C 3283.09 2.0461 -2.80628 0
M  V30 34123 C 3282.04 1.72174 -3.91842 0
M  V30 34124 C 3281.37 3.03678 -4.40095 0
M  V30 34125 C 3282.67 0.976159 -5.13097 0
M  V30 34126 H 3284.36 0.284008 -2.9805 0
M  V30 34127 H 3281.91 0.135163 -1.43364 0
M  V30 34128 H 3283.86 2.70829 -3.22846 0
M  V30 34129 H 3282.58 2.58851 -1.99157 0
M  V30 34130 H 3281.24 1.08338 -3.50226 0
M  V30 34131 H 3280.89 3.55889 -3.5546 0
M  V30 34132 H 3280.59 2.82742 -5.15103 0
M  V30 34133 H 3282.11 3.70984 -4.84977 0
M  V30 34134 H 3283.53 1.54023 -5.52223 0
M  V30 34135 H 3281.93 0.86711 -5.93802 0
M  V30 34136 H 3283 -0.033934 -4.84888 0
M  V30 34137 N 3284.34 1.57005 0.136853 0
M  V30 34138 C 3285.59 1.83538 0.846068 0
M  V30 34139 C 3285.91 0.719401 1.81245 0
M  V30 34140 O 3285.18 -0.258127 1.94192 0
M  V30 34141 H 3283.76 0.677134 0.315434 0
M  V30 34142 H 3286.42 1.94476 0.128435 0
M  V30 34143 H 3285.52 2.78829 1.40216 0
M  V30 34144 N 3285.82 -0.406513 1.52267 0
M  V30 34145 C 3287.23 -0.745324 1.41128 0
M  V30 34146 C 3287.43 -1.94732 0.517837 0
M  V30 34147 O 3286.49 -2.52495 -0.0153843 0
M  V30 34148 C 3287.8 -0.996809 2.83697 0
M  V30 34149 C 3289.35 -1.09936 2.93058 0
M  V30 34150 C 3289.82 -1.38359 4.36601 0
M  V30 34151 N 3291.32 -1.45219 4.39847 0
M  V30 34152 C 3292.05 -1.68843 5.47978 0
M  V30 34153 N 3291.55 -1.90053 6.66222 0
M  V30 34154 N 3293.34 -1.70879 5.35497 0
M  V30 34155 H 3285.49 0.384669 2.08888 0
M  V30 34156 H 3287.75 0.109826 0.941617 0
M  V30 34157 H 3287.46 -0.185924 3.51208 0
M  V30 34158 H 3287.33 -1.91627 3.24899 0
M  V30 34159 H 3289.72 -1.90084 2.25726 0
M  V30 34160 H 3289.8 -0.158211 2.5531 0
M  V30 34161 H 3289.45 -0.587284 5.04493 0
M  V30 34162 H 3289.38 -2.33731 4.71887 0
M  V30 34163 H 3291.87 -1.30606 3.54613 0
M  V30 34164 H 3292.18 -2.07537 7.44411 0
M  V30 34165 H 3290.52 -1.87313 6.69282 0
M  V30 34166 H 3293.72 -1.53848 4.42096 0
M  V30 34167 H 3293.89 -1.88951 6.1984 0
M  V30 34168 N 3287.29 -1.42934 -0.663904 0
M  V30 34169 C 3288.54 -1.43984 -1.4239 0
M  V30 34170 C 3288.87 -0.0602144 -1.94407 0
M  V30 34171 O 3288.12 0.933142 -1.7202 0
M  V30 34172 C 3288.42 -2.42035 -2.62971 0
M  V30 34173 C 3288.09 -3.88163 -2.29434 0
M  V30 34174 C 3286.75 -4.27964 -2.2 0
M  V30 34175 C 3289.1 -4.80294 -2.02404 0
M  V30 34176 C 3286.43 -5.57863 -1.81676 0
M  V30 34177 C 3288.78 -6.10545 -1.65582 0
M  V30 34178 C 3287.45 -6.49334 -1.54665 0
M  V30 34179 H 3286.72 -0.526874 -0.521042 0
M  V30 34180 H 3289.36 -1.75945 -0.756011 0
M  V30 34181 H 3287.67 -2.03439 -3.34843 0
M  V30 34182 H 3289.37 -2.40106 -3.2117 0
M  V30 34183 H 3285.96 -3.56657 -2.37684 0
M  V30 34184 H 3290.14 -4.50323 -2.08621 0
M  V30 34185 H 3285.4 -5.86766 -1.71802 0
M  V30 34186 H 3289.57 -6.81414 -1.43695 0
M  V30 34187 H 3287.2 -7.49896 -1.24739 0
M  V30 34188 O 3288.81 0.806713 -1.39908 0
M  V30 34189 H 3289.5 1.45144 -1.28269 0
M  V30 END ATOM
M  V30 BEGIN BOND
M  V30 END BOND
M  V30 END CTAB
M  END
$$$$
