drugbank_target|O00469 Procollagen-lysine,2-oxoglutarate 5-dioxygenase 2 (DB00126)
 OpenBabel12092120073D

  0  0  0     0  0            999 V3000
M  V30 BEGIN CTAB
M  V30 COUNTS 11827 11989 0 0 0
M  V30 BEGIN ATOM
M  V30 1 H -0.908 1.98254 -0.117106 0
M  V30 2 N 0 1.576 0 0
M  V30 3 C 0.933 2.03868 1.02534 0
M  V30 4 C 1.911 0.928543 1.3348 0
M  V30 5 O 3.095 1.19667 1.45644 0
M  V30 6 C 0.222 2.43627 2.35294 0
M  V30 7 C -0.732 3.65373 2.2001 0
M  V30 8 S 0.101 5.13292 1.52614 0
M  V30 9 C 1.257 5.56322 2.86805 0
M  V30 10 H 1.49 2.90518 0.631377 0
M  V30 11 H -0.977 1.52953 0.210867 0
M  V30 12 H 0.981 2.67203 3.11629 0
M  V30 13 H -0.358 1.57376 2.7183 0
M  V30 14 H -1.165 3.90944 3.18086 0
M  V30 15 H -1.563 3.418 1.51819 0
M  V30 16 H 0.729 5.58782 3.83104 0
M  V30 17 H 1.672 6.56266 2.65933 0
M  V30 18 H 2.08 4.83886 2.90714 0
M  V30 19 N 1.4781 -0.272755 1.55222 0
M  V30 20 C 2.7261 -1.00234 1.75492 0
M  V30 21 C 3.0471 -1.8681 0.5592 0
M  V30 22 O 2.3171 -1.91215 -0.425882 0
M  V30 23 H 0.8971 -0.373076 0.647166 0
M  V30 24 H 3.5591 -0.296926 1.92625 0
M  V30 25 H 2.6551 -1.63913 2.65592 0
M  V30 26 N 2.9562 -1.48159 -0.537278 0
M  V30 27 C 4.2042 -1.55497 -1.29094 0
M  V30 28 C 4.5252 -0.227454 -1.93669 0
M  V30 29 O 3.7952 0.750386 -1.80959 0
M  V30 30 H 2.3752 -0.572832 -0.47945 0
M  V30 31 H 5.0372 -1.84579 -0.625818 0
M  V30 32 H 4.1332 -2.33216 -2.07405 0
M  V30 33 N 4.4343 0.785586 -1.36625 0
M  V30 34 C 5.6743 1.55678 -1.32453 0
M  V30 35 C 6.0383 1.91769 0.0941089 0
M  V30 36 O 7.2393 2.67536 0.26042 0
M  V30 37 C 5.5103 2.79701 -2.22491 0
M  V30 38 S 7.0693 3.69907 -2.36038 0
M  V30 39 H 3.8873 0.533141 -0.470405 0
M  V30 40 H 6.4893 0.924953 -1.72235 0
M  V30 41 H 5.1933 2.51244 -3.24507 0
M  V30 42 H 4.7243 3.47854 -1.83742 0
M  V30 43 H 6.7393 4.71016 -1.56072 0
M  V30 44 N 5.9124 1.20967 1.01018 0
M  V30 45 C 7.1404 1.04956 1.78303 0
M  V30 46 C 7.5554 -0.400915 1.84494 0
M  V30 47 O 6.9124 -1.27826 1.30257 0
M  V30 48 C 6.9634 1.63403 3.22462 0
M  V30 49 O 6.6844 3.02775 3.16637 0
M  V30 50 C 8.1854 1.52432 4.16268 0
M  V30 51 H 5.4054 0.368858 0.560522 0
M  V30 52 H 7.9494 1.60193 1.27116 0
M  V30 53 H 6.1044 1.1227 3.70775 0
M  V30 54 H 6.5184 3.30626 4.07169 0
M  V30 55 H 7.9924 1.98078 5.15237 0
M  V30 56 H 8.4694 0.477875 4.36592 0
M  V30 57 H 9.0754 2.02787 3.73841 0
M  V30 58 N 7.3905 -1.2043 1.01659 0
M  V30 59 C 8.6365 -1.90079 0.706963 0
M  V30 60 C 8.9695 -1.78648 -0.761474 0
M  V30 61 O 8.2445 -1.17069 -1.55323 0
M  V30 62 C 8.5275 -3.41469 1.14327 0
M  V30 63 C 8.3805 -3.61833 2.67201 0
M  V30 64 C 9.6995 -4.34261 0.714529 0
M  V30 65 H 6.8185 -0.690254 0.2583 0
M  V30 66 H 9.4605 -1.41826 1.26433 0
M  V30 67 H 7.6105 -3.82696 0.669056 0
M  V30 68 H 9.2825 -3.2986 3.22475 0
M  V30 69 H 7.5255 -3.05304 3.08175 0
M  V30 70 H 8.1965 -4.67955 2.92783 0
M  V30 71 H 10.6725 -4.00682 1.12221 0
M  V30 72 H 9.5485 -5.38806 1.04784 0
M  V30 73 H 9.8095 -4.40431 -0.383799 0
M  V30 74 N 8.8686 -0.792821 -1.36206 0
M  V30 75 C 9.8156 -0.191653 -2.30003 0
M  V30 76 C 10.7856 0.666453 -1.52143 0
M  V30 77 O 11.9706 0.61442 -1.80636 0
M  V30 78 C 9.1106 0.664848 -3.38635 0
M  V30 79 C 8.2236 -0.212175 -4.31479 0
M  V30 80 C 7.3586 0.651022 -5.27196 0
M  V30 81 C 6.3976 -0.227247 -6.11678 0
M  V30 82 N 5.5346 0.595127 -6.99573 0
M  V30 83 H 10.3746 -0.996978 -2.80828 0
M  V30 84 H 7.9116 -0.503206 -1.38225 0
M  V30 85 H 9.8696 1.17645 -4.00269 0
M  V30 86 H 8.4996 1.43557 -2.89122 0
M  V30 87 H 7.5516 -0.841777 -3.70969 0
M  V30 88 H 8.8636 -0.888751 -4.90818 0
M  V30 89 H 8.0176 1.2283 -5.94136 0
M  V30 90 H 6.7566 1.36121 -4.68319 0
M  V30 91 H 5.7616 -0.816904 -5.43697 0
M  V30 92 H 6.9866 -0.93509 -6.72631 0
M  V30 93 H 4.9326 1.28955 -6.432 0
M  V30 94 H 4.8496 -0.0236952 -7.55996 0
M  V30 95 H 6.1176 1.15613 -7.70879 0
M  V30 96 N 10.3467 1.47872 -0.545128 0
M  V30 97 C 11.7577 1.86384 -0.108581 0
M  V30 98 C 12.1087 1.45309 1.31832 0
M  V30 99 O 11.2337 0.850641 1.9898 0
M  V30 100 C 11.8287 3.38265 -0.190274 0
M  V30 101 C 10.3877 3.75914 0.191164 0
M  V30 102 C 9.5347 2.71926 -0.543273 0
M  V30 103 H 12.4857 1.39561 -0.755537 0
M  V30 104 H 12.5067 3.75831 0.594217 0
M  V30 105 H 12.0187 3.6813 -1.2289 0
M  V30 106 H 10.1197 3.51665 1.23136 0
M  V30 107 H 10.2327 4.78836 -0.158987 0
M  V30 108 H 8.5967 2.54697 0.0122495 0
M  V30 109 H 9.3797 3.04634 -1.58282 0
M  V30 110 N 11.8248 0.280983 1.55075 0
M  V30 111 C 12.7568 -0.637268 2.20163 0
M  V30 112 C 13.7698 -1.11298 1.18813 0
M  V30 113 O 14.9588 -1.03388 1.4551 0
M  V30 114 C 12.0588 -1.88199 2.81841 0
M  V30 115 C 11.2318 -1.55211 4.08936 0
M  V30 116 C 10.2908 -2.64991 4.54606 0
M  V30 117 O 9.3168 -2.30929 5.2025 0
M  V30 118 N 10.5188 -3.95161 4.25238 0
M  V30 119 H 13.2838 -0.0801694 2.99593 0
M  V30 120 H 10.8448 0.102329 1.61576 0
M  V30 121 H 12.8368 -2.60948 3.09335 0
M  V30 122 H 11.4068 -2.34799 2.06369 0
M  V30 123 H 10.6268 -0.658185 3.88666 0
M  V30 124 H 11.9148 -1.30681 4.91732 0
M  V30 125 H 11.3128 -4.25653 3.72607 0
M  V30 126 H 9.8698 -4.6427 4.5749 0
M  V30 127 N 13.3029 -1.57598 0.00835791 0
M  V30 128 C 14.2329 -2.1198 -0.979113 0
M  V30 129 C 15.2139 -1.03091 -1.35301 0
M  V30 130 O 16.3989 -1.30818 -1.43528 0
M  V30 131 C 13.5289 -2.62995 -2.26828 0
M  V30 132 C 12.4829 -3.76485 -2.03576 0
M  V30 133 C 11.8089 -4.13846 -3.38579 0
M  V30 134 C 13.1089 -5.0342 -1.39161 0
M  V30 135 H 14.8029 -2.94738 -0.526281 0
M  V30 136 H 12.3489 -1.41783 -0.251704 0
M  V30 137 H 14.3019 -2.99669 -2.96271 0
M  V30 138 H 13.0259 -1.7737 -2.7424 0
M  V30 139 H 11.6849 -3.40217 -1.36557 0
M  V30 140 H 11.3329 -3.25232 -3.83709 0
M  V30 141 H 11.0329 -4.90312 -3.23834 0
M  V30 142 H 12.5569 -4.53086 -4.09323 0
M  V30 143 H 13.9709 -5.37812 -1.98573 0
M  V30 144 H 12.3679 -5.84746 -1.34878 0
M  V30 145 H 13.4379 -4.83548 -0.361868 0
M  V30 146 N 14.781 0.264519 -1.55364 0
M  V30 147 C 15.711 1.33121 -1.91836 0
M  V30 148 C 16.692 1.51101 -0.781192 0
M  V30 149 O 17.877 1.64003 -1.04003 0
M  V30 150 C 15.007 2.68921 -2.19769 0
M  V30 151 C 13.961 2.65661 -3.35571 0
M  V30 152 C 13.287 4.05093 -3.49004 0
M  V30 153 C 14.587 2.24187 -4.71739 0
M  V30 154 H 16.281 1.02844 -2.81182 0
M  V30 155 H 13.827 0.493286 -1.35287 0
M  V30 156 H 15.78 3.43663 -2.43872 0
M  V30 157 H 14.504 3.00799 -1.27231 0
M  V30 158 H 13.163 1.93377 -3.1145 0
M  V30 159 H 12.811 4.34206 -2.53917 0
M  V30 160 H 12.511 4.03804 -4.26868 0
M  V30 161 H 14.035 4.81561 -3.75408 0
M  V30 162 H 15.449 2.88654 -4.9533 0
M  V30 163 H 13.846 2.34044 -5.52579 0
M  V30 164 H 14.916 1.19327 -4.69988 0
M  V30 165 N 16.2591 1.48442 0.529413 0
M  V30 166 C 17.1891 1.65902 1.64313 0
M  V30 167 C 18.1701 0.507897 1.6234 0
M  V30 168 O 19.3551 0.740503 1.79528 0
M  V30 169 C 16.4851 1.69911 3.02898 0
M  V30 170 C 15.4391 2.8453 3.19729 0
M  V30 171 C 14.7651 2.73629 4.59381 0
M  V30 172 C 16.0651 4.25821 3.02447 0
M  V30 173 H 17.7591 2.5914 1.49955 0
M  V30 174 H 15.3051 1.24709 0.719982 0
M  V30 175 H 17.2581 1.80715 3.80684 0
M  V30 176 H 15.9821 0.732524 3.18279 0
M  V30 177 H 14.6411 2.73283 2.44361 0
M  V30 178 H 14.2891 1.74938 4.71599 0
M  V30 179 H 13.9891 3.50541 4.71588 0
M  V30 180 H 15.5131 2.86401 5.39265 0
M  V30 181 H 16.9271 4.37898 3.70024 0
M  V30 182 H 15.3241 5.03735 3.26146 0
M  V30 183 H 16.3941 4.42244 1.98867 0
M  V30 184 N 17.7372 -0.778329 1.37039 0
M  V30 185 C 18.6672 -1.90546 1.34962 0
M  V30 186 C 19.6482 -1.68681 0.219274 0
M  V30 187 O 20.8332 -1.89634 0.418624 0
M  V30 188 C 17.9632 -3.27734 1.14925 0
M  V30 189 C 16.9172 -3.64147 2.24902 0
M  V30 190 C 16.2432 -4.99806 1.89996 0
M  V30 191 C 17.5432 -3.71579 3.67051 0
M  V30 192 H 19.2372 -1.92541 2.29277 0
M  V30 193 H 16.7832 -0.924948 1.10366 0
M  V30 194 H 18.7362 -4.06215 1.12104 0
M  V30 195 H 17.4602 -3.26154 0.170631 0
M  V30 196 H 16.1192 -2.8797 2.26868 0
M  V30 197 H 15.7672 -4.94759 0.906796 0
M  V30 198 H 15.4672 -5.25139 2.63634 0
M  V30 199 H 16.9912 -5.80694 1.88749 0
M  V30 200 H 18.4052 -4.40227 3.67251 0
M  V30 201 H 16.8022 -4.08405 4.39688 0
M  V30 202 H 17.8722 -2.72404 4.01154 0
M  V30 203 N 19.2153 -1.21501 -1.00376 0
M  V30 204 C 20.1783 -0.976927 -2.07337 0
M  V30 205 C 21.1783 0.0525322 -1.60714 0
M  V30 206 O 22.3683 -0.184869 -1.73216 0
M  V30 207 C 19.5003 -0.473423 -3.37597 0
M  V30 208 H 20.6933 -1.92587 -2.29892 0
M  V30 209 H 18.2463 -1.03217 -1.17371 0
M  V30 210 H 18.9813 0.480379 -3.20722 0
M  V30 211 H 18.7663 -1.216 -3.72768 0
M  V30 212 H 20.2563 -0.32675 -4.1632 0
M  V30 213 N 20.6934 1.19889 -1.02296 0
M  V30 214 C 21.6234 2.25141 -0.619174 0
M  V30 215 C 22.6044 1.66051 0.368915 0
M  V30 216 O 23.7894 1.92546 0.252941 0
M  V30 217 C 20.9194 3.4728 0.0368783 0
M  V30 218 C 19.8734 4.19005 -0.872865 0
M  V30 219 C 19.1994 5.34637 -0.0822402 0
M  V30 220 C 20.4994 4.74452 -2.18387 0
M  V30 221 H 22.1934 2.59171 -1.49903 0
M  V30 222 H 19.7394 1.24579 -0.722222 0
M  V30 223 H 21.6924 4.20098 0.330958 0
M  V30 224 H 20.4164 3.12433 0.95149 0
M  V30 225 H 19.0754 3.48061 -1.15105 0
M  V30 226 H 18.7234 4.96034 0.83422 0
M  V30 227 H 18.4234 5.83557 -0.688149 0
M  V30 228 H 19.9474 6.10255 0.205238 0
M  V30 229 H 21.3614 5.39055 -1.95172 0
M  V30 230 H 19.7584 5.33834 -2.74119 0
M  V30 231 H 20.8284 3.92844 -2.84257 0
M  V30 232 N 22.1715 0.800033 1.35784 0
M  V30 233 C 23.4175 0.377901 1.99248 0
M  V30 234 C 23.7505 -1.05052 1.63333 0
M  V30 235 O 23.0255 -1.72768 0.893385 0
M  V30 236 C 23.3085 0.553922 3.55814 0
M  V30 237 C 23.1615 2.0268 4.01548 0
M  V30 238 C 24.4805 -0.0244802 4.40093 0
M  V30 239 H 21.5995 0.138782 0.723815 0
M  V30 240 H 24.2415 1.00835 1.61035 0
M  V30 241 H 22.3915 0.0172398 3.88496 0
M  V30 242 H 24.0635 2.62536 3.79305 0
M  V30 243 H 22.3065 2.5256 3.52698 0
M  V30 244 H 22.9775 2.10087 5.10458 0
M  V30 245 H 25.4535 0.433775 4.13833 0
M  V30 246 H 24.3295 0.128637 5.48749 0
M  V30 247 H 24.5905 -1.11758 4.27741 0
M  V30 248 N 23.6496 -1.47581 0.552962 0
M  V30 249 C 24.5796 -2.32762 -0.185451 0
M  V30 250 C 25.5606 -1.43527 -0.912905 0
M  V30 251 O 26.7456 -1.72388 -0.894201 0
M  V30 252 C 23.8756 -3.25219 -1.21859 0
M  V30 253 C 22.8296 -4.23661 -0.607864 0
M  V30 254 C 22.1556 -5.05413 -1.74533 0
M  V30 255 C 23.4556 -5.20481 0.435582 0
M  V30 256 H 25.1496 -2.94749 0.525684 0
M  V30 257 H 22.6956 -1.41738 0.254251 0
M  V30 258 H 24.6486 -3.8365 -1.7433 0
M  V30 259 H 23.3726 -2.61279 -1.95961 0
M  V30 260 H 22.0316 -3.66451 -0.104489 0
M  V30 261 H 21.6796 -4.3788 -2.47529 0
M  V30 262 H 21.3796 -5.72059 -1.34249 0
M  V30 263 H 22.9036 -5.66701 -2.27338 0
M  V30 264 H 24.3176 -5.733 -0.00290157 0
M  V30 265 H 22.7146 -5.95305 0.757067 0
M  V30 266 H 23.7846 -4.66217 1.33303 0
M  V30 267 N 25.1277 -0.289203 -1.54924 0
M  V30 268 C 26.0777 0.606939 -2.19773 0
M  V30 269 C 27.0617 1.10783 -1.16687 0
M  V30 270 O 28.2537 1.05057 -1.4245 0
M  V30 271 C 25.3827 1.78398 -2.93307 0
M  V30 272 C 24.4687 1.29961 -4.03697 0
M  V30 273 N 24.8597 0.532377 -5.0299 0
M  V30 274 C 23.1577 1.58136 -4.17024 0
M  V30 275 C 23.8587 0.275912 -5.81045 0
M  V30 276 N 22.8347 0.852365 -5.36876 0
M  V30 277 H 26.6367 0.0130779 -2.93897 0
M  V30 278 H 24.1507 -0.09341 -1.62131 0
M  V30 279 H 26.1477 2.43741 -3.38225 0
M  V30 280 H 24.8077 2.38166 -2.20697 0
M  V30 281 H 25.8187 0.17838 -5.17593 0
M  V30 282 H 22.4957 2.18738 -3.55612 0
M  V30 283 H 23.8857 -0.339502 -6.71042 0
M  V30 284 N 26.6058 1.57591 -0.0167156 0
M  V30 285 C 28.0168 1.79201 0.523834 0
M  V30 286 C 28.3678 0.925796 1.72984 0
M  V30 287 O 27.4928 0.132792 2.15992 0
M  V30 288 C 28.0878 3.25 0.957091 0
M  V30 289 C 26.6468 3.47648 1.44283 0
M  V30 290 C 25.7938 2.74374 0.401757 0
M  V30 291 H 28.7448 1.56831 -0.242816 0
M  V30 292 H 28.7658 3.34031 1.82219 0
M  V30 293 H 28.2778 3.88019 0.0791415 0
M  V30 294 H 26.3788 2.89866 2.34113 0
M  V30 295 H 26.4918 4.56352 1.45877 0
M  V30 296 H 24.8558 2.39485 0.867121 0
M  V30 297 H 25.6388 3.40102 -0.467513 0
M  V30 298 N 28.0839 -0.256276 1.55502 0
M  V30 299 C 29.3299 -0.982884 1.78076 0
M  V30 300 C 29.6849 -1.83319 0.584109 0
M  V30 301 O 28.9779 -1.86875 -0.422877 0
M  V30 302 C 29.1719 -1.88432 3.03691 0
M  V30 303 C 29.0009 -1.12276 4.35459 0
M  V30 304 C 27.7709 -0.831647 4.98409 0
M  V30 305 C 29.9689 -0.504933 5.11815 0
M  V30 306 N 27.9509 -0.0450423 6.13883 0
M  V30 307 C 29.3219 0.146696 6.19826 0
M  V30 308 C 31.3769 -0.414455 4.96172 0
M  V30 309 C 30.0799 0.880103 7.13895 0
M  V30 310 C 32.1059 0.305398 5.90611 0
M  V30 311 C 31.4679 0.945701 6.98023 0
M  V30 312 H 27.5669 -0.341084 0.703694 0
M  V30 313 H 30.1509 -0.256909 1.92998 0
M  V30 314 H 28.3219 -2.58241 2.90114 0
M  V30 315 H 30.0539 -2.54579 3.14598 0
M  V30 316 H 26.8089 -1.14111 4.59647 0
M  V30 317 H 27.2329 0.336079 6.76165 0
M  V30 318 H 31.8749 -0.895163 4.13215 0
M  V30 319 H 29.5929 1.37244 7.9636 0
M  V30 320 H 33.1789 0.375946 5.80584 0
M  V30 321 H 32.0589 1.49383 7.6984 0
M  V30 322 N 29.562 -1.4872 -0.521534 0
M  V30 323 C 30.51 -1.64328 -1.64618 0
M  V30 324 C 31.504 -0.50953 -1.61555 0
M  V30 325 O 32.71 -0.688525 -1.66311 0
M  V30 326 H 29.085 -0.517805 -0.545328 0
M  V30 327 H 31.056 -2.58767 -1.48601 0
M  V30 328 C 29.805 -1.70805 -3.02855 0
M  V30 329 H 29.128 -2.5741 -3.05909 0
M  V30 330 H 30.568 -1.85766 -3.81139 0
M  V30 331 C 29.027 -0.448479 -3.33902 0
M  V30 332 O 29.557 0.434928 -3.99339 0
M  V30 333 N 27.763 -0.317616 -2.88859 0
M  V30 334 H 27.31 -1.03748 -2.35784 0
M  V30 335 H 27.268 0.524113 -3.10001 0
M  V30 336 N 31.0401 0.771051 -1.3745 0
M  V30 337 C 32.4511 1.34737 -1.29239 0
M  V30 338 C 32.8021 1.96109 0.0596908 0
M  V30 339 O 31.9271 1.93865 0.961534 0
M  V30 340 C 32.5221 2.44973 -2.34037 0
M  V30 341 C 31.0811 2.98372 -2.29458 0
M  V30 342 C 30.2281 1.71595 -2.17831 0
M  V30 343 H 33.1791 0.571256 -1.48062 0
M  V30 344 H 33.2001 3.24471 -1.98744 0
M  V30 345 H 32.7121 2.00276 -3.32432 0
M  V30 346 H 30.8131 3.47443 -1.34589 0
M  V30 347 H 30.9261 3.53939 -3.229 0
M  V30 348 H 29.2901 1.94547 -1.64388 0
M  V30 349 H 30.0731 1.29001 -3.18141 0
M  V30 350 N 32.5182 1.22032 0.997298 0
M  V30 351 C 33.7582 1.05375 1.75144 0
M  V30 352 C 34.1222 -0.404696 1.87686 0
M  V30 353 O 35.3232 -0.691998 2.5974 0
M  V30 354 C 33.5942 1.74046 3.12158 0
M  V30 355 S 35.1532 1.72745 4.03366 0
M  V30 356 H 31.9712 0.377449 0.602539 0
M  V30 357 H 34.5732 1.54902 1.19272 0
M  V30 358 H 33.2772 2.79332 3.00669 0
M  V30 359 H 32.8082 1.24731 3.73103 0
M  V30 360 H 34.8232 0.774015 4.90126 0
M  V30 361 N 33.9963 -1.19345 1.0293 0
M  V30 362 C 34.9263 -2.2481 0.631105 0
M  V30 363 C 35.9073 -1.66245 -0.360104 0
M  V30 364 O 37.0923 -1.92677 -0.242726 0
M  V30 365 C 34.2223 -3.47295 -0.0184607 0
M  V30 366 C 33.1763 -4.18536 0.895073 0
M  V30 367 C 32.5023 -5.34586 0.110592 0
M  V30 368 C 33.8023 -4.73287 2.209 0
M  V30 369 H 35.4963 -2.58372 1.51275 0
M  V30 370 H 33.0423 -1.24194 0.728818 0
M  V30 371 H 34.9953 -4.20268 -0.308675 0
M  V30 372 H 33.7193 -3.12933 -0.934907 0
M  V30 373 H 32.3783 -3.47446 1.16949 0
M  V30 374 H 32.0263 -4.96469 -0.807902 0
M  V30 375 H 31.7263 -5.83183 0.719087 0
M  V30 376 H 33.2503 -6.10355 -0.172871 0
M  V30 377 H 34.6643 -5.38013 1.98028 0
M  V30 378 H 33.0613 -5.32373 2.76946 0
M  V30 379 H 34.1313 -3.91331 2.86336 0
M  V30 380 N 35.4744 -0.807222 -1.35358 0
M  V30 381 C 36.7224 -0.387122 -1.98358 0
M  V30 382 C 37.0434 1.04942 -1.64354 0
M  V30 383 O 36.3134 1.72615 -0.926339 0
M  V30 384 H 34.8934 -0.140154 -0.733734 0
M  V30 385 H 37.5554 -1.0332 -1.6526 0
M  V30 386 H 36.6514 -0.493352 -3.08176 0
M  V30 387 N 36.9525 1.47285 -0.560781 0
M  V30 388 C 37.9155 2.28535 0.174488 0
M  V30 389 C 38.9155 1.37153 0.839388 0
M  V30 390 O 40.1055 1.59748 0.694702 0
M  V30 391 C 37.2375 3.16934 1.25561 0
M  V30 392 H 38.4305 2.95012 -0.539262 0
M  V30 393 H 35.9835 1.53034 -0.317865 0
M  V30 394 H 36.7185 2.55157 2.00164 0
M  V30 395 H 36.5035 3.8419 0.783604 0
M  V30 396 H 37.9935 3.78143 1.77193 0
M  V30 397 N 38.4306 0.297415 1.54768 0
M  V30 398 C 39.7076 -0.365847 1.92148 0
M  V30 399 C 40.0876 -1.71975 1.22424 0
M  V30 400 O 39.4356 -2.25666 0.358739 0
M  V30 401 C 39.6456 -0.484056 3.45627 0
M  V30 402 C 40.9936 -0.756594 4.17805 0
M  V30 403 O 42.0176 -0.568007 3.51642 0
M  V30 404 O 40.8766 -1.11863 5.34929 0
M  V30 405 H 37.9706 -0.203919 0.801465 0
M  V30 406 H 40.5166 0.34521 1.66152 0
M  V30 407 H 39.2886 0.467865 3.88493 0
M  V30 408 H 38.9116 -1.24372 3.77647 0
M  V30 409 N 39.9087 -1.5758 0.0250728 0
M  V30 410 C 41.1337 -1.96337 -0.668317 0
M  V30 411 C 41.5587 -0.901314 -1.651 0
M  V30 412 O 40.9167 0.138187 -1.80773 0
M  V30 413 C 40.9647 -3.34191 -1.35457 0
M  V30 414 O 40.0687 -3.30269 -2.46974 0
M  V30 415 H 39.4097 -0.640281 -0.175887 0
M  V30 416 H 41.9397 -2.0442 0.0857224 0
M  V30 417 H 41.9497 -3.70331 -1.71228 0
M  V30 418 H 40.6247 -4.11036 -0.634218 0
M  V30 419 H 39.2017 -3.05841 -2.13344 0
M  V30 420 N 41.3868 0.248026 -1.55636 0
M  V30 421 C 42.2968 1.32859 -1.93354 0
M  V30 422 C 43.3128 1.52719 -0.833838 0
M  V30 423 O 44.4888 1.66363 -1.13513 0
M  V30 424 C 41.5538 2.66337 -2.21958 0
M  V30 425 C 40.6148 2.55008 -3.45354 0
M  V30 426 C 39.8478 3.82121 -3.72584 0
M  V30 427 O 40.0708 4.83951 -3.01907 0
M  V30 428 O 39.0048 3.80822 -4.6611 0
M  V30 429 H 42.8308 1.03862 -2.85388 0
M  V30 430 H 40.4158 0.448686 -1.42503 0
M  V30 431 H 42.2978 3.45216 -2.4167 0
M  V30 432 H 40.9728 2.95068 -1.33103 0
M  V30 433 H 39.8798 1.7442 -3.30951 0
M  V30 434 H 41.2128 2.31222 -4.34508 0
M  V30 435 N 42.8649 1.48995 0.513639 0
M  V30 436 C 43.8119 1.6473 1.61656 0
M  V30 437 C 44.7819 0.488984 1.58739 0
M  V30 438 O 45.9669 0.714478 1.76918 0
M  V30 439 C 43.1069 1.7082 2.99858 0
M  V30 440 C 42.2199 2.9787 3.12885 0
M  V30 441 C 41.3549 2.95017 4.41744 0
M  V30 442 C 40.3939 4.16702 4.48359 0
M  V30 443 N 39.5309 4.11832 5.68629 0
M  V30 444 H 44.3709 2.58909 1.47547 0
M  V30 445 H 41.9079 1.28382 0.71808 0
M  V30 446 H 43.8659 1.72331 3.79944 0
M  V30 447 H 42.4959 0.801181 3.12699 0
M  V30 448 H 41.5479 3.06029 2.25944 0
M  V30 449 H 42.8599 3.8786 3.13633 0
M  V30 450 H 42.0139 2.95021 5.30139 0
M  V30 451 H 40.7529 2.02784 4.43542 0
M  V30 452 H 39.7579 4.16955 3.58369 0
M  V30 453 H 40.9829 5.10113 4.48287 0
M  V30 454 H 38.9289 3.22428 5.71293 0
M  V30 455 H 38.8459 4.95543 5.7094 0
M  V30 456 H 40.1139 4.1592 6.59266 0
M  V30 457 N 44.343 -0.763751 1.37857 0
M  V30 458 C 45.754 -1.3405 1.29952 0
M  V30 459 C 46.105 -1.96138 -0.0492898 0
M  V30 460 O 45.23 -1.94372 -0.951239 0
M  V30 461 C 45.825 -2.43729 2.35333 0
M  V30 462 C 44.384 -2.97151 2.31037 0
M  V30 463 C 43.531 -1.70438 2.18738 0
M  V30 464 H 46.482 -0.563396 1.48363 0
M  V30 465 H 46.503 -3.23412 2.00462 0
M  V30 466 H 46.015 -1.9851 3.33489 0
M  V30 467 H 44.116 -3.46724 1.3643 0
M  V30 468 H 44.229 -3.52221 3.24772 0
M  V30 469 H 42.593 -1.93673 1.65418 0
M  V30 470 H 43.376 -1.27312 3.18821 0
M  V30 471 N 45.8211 -1.22559 -0.990812 0
M  V30 472 C 47.0461 -1.07862 -1.77145 0
M  V30 473 C 47.4711 0.366447 -1.84496 0
M  V30 474 O 46.8291 1.26478 -1.29896 0
M  V30 475 C 46.8771 -1.69686 -3.18181 0
M  V30 476 O 45.9811 -0.951946 -4.01263 0
M  V30 477 H 45.3221 -0.378712 -0.545411 0
M  V30 478 H 47.8521 -1.62399 -1.2445 0
M  V30 479 H 47.8621 -1.74496 -3.68802 0
M  V30 480 H 46.5371 -2.74841 -3.12146 0
M  V30 481 H 45.1141 -0.980011 -3.59792 0
M  V30 482 N 47.2992 1.18797 -1.03562 0
M  V30 483 C 48.5242 1.9314 -0.755764 0
M  V30 484 C 48.9492 1.7537 0.68022 0
M  V30 485 O 48.3072 1.06046 1.47051 0
M  V30 486 C 48.3552 3.42747 -1.12058 0
M  V30 487 O 47.4592 4.11683 -0.243124 0
M  V30 488 H 46.8002 0.602724 -0.278604 0
M  V30 489 H 49.3302 1.50678 -1.3841 0
M  V30 490 H 49.3402 3.93437 -1.08035 0
M  V30 491 H 48.0152 3.55002 -2.16672 0
M  V30 492 H 46.5922 3.71323 -0.342539 0
M  V30 493 N 48.7773 0.814389 1.34928 0
M  V30 494 C 50.0263 0.394871 1.97797 0
M  V30 495 C 50.3393 -1.04555 1.65311 0
M  V30 496 O 51.5453 -1.56856 2.21604 0
M  V30 497 C 50.0013 0.655103 3.53888 0
M  V30 498 C 49.6093 2.10858 3.95276 0
M  V30 499 C 51.3533 0.301329 4.23429 0
M  V30 500 C 49.2603 2.31415 5.44244 0
M  V30 501 H 48.1903 0.143913 0.740139 0
M  V30 502 H 50.8413 0.999544 1.53888 0
M  V30 503 H 49.2233 -0.0196253 3.95995 0
M  V30 504 H 50.3973 2.82176 3.64298 0
M  V30 505 H 48.7123 2.42297 3.38646 0
M  V30 506 H 51.3093 0.432869 5.32945 0
M  V30 507 H 51.6523 -0.75331 4.09428 0
M  V30 508 H 52.1853 0.930288 3.86769 0
M  V30 509 H 48.9243 3.35353 5.63222 0
M  V30 510 H 48.4443 1.6463 5.76764 0
M  V30 511 H 50.1233 2.13352 6.10811 0
M  V30 512 N 50.2554 -1.46986 0.568584 0
M  V30 513 C 51.6664 -1.86188 0.138219 0
M  V30 514 C 52.0174 -1.47388 -1.29504 0
M  V30 515 O 51.1424 -0.88219 -1.97602 0
M  V30 516 C 51.7374 -3.3792 0.244065 0
M  V30 517 C 50.2964 -3.76171 -0.131335 0
M  V30 518 C 49.4434 -2.71027 0.586465 0
M  V30 519 H 52.3944 -1.38342 0.777645 0
M  V30 520 H 52.4154 -3.76729 -0.534351 0
M  V30 521 H 51.9274 -3.66128 1.28731 0
M  V30 522 H 50.0284 -3.5358 -1.17526 0
M  V30 523 H 50.1414 -4.78523 0.235146 0
M  V30 524 H 48.5054 -2.54684 0.0282722 0
M  V30 525 H 49.2884 -3.02077 1.63109 0
M  V30 526 N 51.7335 -0.305618 -1.54608 0
M  V30 527 C 52.9615 0.304775 -2.04643 0
M  V30 528 C 53.3765 1.47167 -1.18268 0
M  V30 529 O 52.7335 1.81296 -0.209328 0
M  V30 530 C 52.7845 0.756564 -3.53495 0
M  V30 531 O 52.5055 -0.36389 -4.36586 0
M  V30 532 C 54.0065 1.43163 -4.19546 0
M  V30 533 H 51.2265 0.0655481 -0.667791 0
M  V30 534 H 53.7705 -0.446592 -1.99564 0
M  V30 535 H 51.9255 1.45794 -3.58919 0
M  V30 536 H 52.3395 -0.0113121 -5.24499 0
M  V30 537 H 53.8135 1.69886 -5.25207 0
M  V30 538 H 54.2905 2.37318 -3.69563 0
M  V30 539 H 54.8965 0.773307 -4.18211 0
M  V30 540 N 53.2116 1.57565 -0.0334293 0
M  V30 541 C 54.4886 1.83282 0.683163 0
M  V30 542 C 54.8686 0.91823 1.90084 0
M  V30 543 O 54.2166 -0.025113 2.28486 0
M  V30 544 C 54.4266 3.32599 1.0573 0
M  V30 545 C 55.7746 3.99179 1.44711 0
M  V30 546 O 56.7986 3.3712 1.15015 0
M  V30 547 O 55.6576 5.08565 2.0006 0
M  V30 548 H 52.7516 0.755869 0.335546 0
M  V30 549 H 55.2976 1.69589 -0.0614402 0
M  V30 550 H 54.0696 3.90834 0.190828 0
M  V30 551 H 53.6926 3.51415 1.85993 0
M  V30 552 N 54.6897 -0.239769 1.55765 0
M  V30 553 C 55.6367 -1.29696 1.90913 0
M  V30 554 C 56.6067 -1.47478 0.764164 0
M  V30 555 O 57.7917 -1.61345 1.01845 0
M  V30 556 C 54.9317 -2.64598 2.21544 0
M  V30 557 C 54.0447 -2.54765 3.48882 0
M  V30 558 C 53.1797 -3.82069 3.69049 0
M  V30 559 C 52.2187 -3.66883 4.89963 0
M  V30 560 N 51.3557 -4.86094 5.06614 0
M  V30 561 H 56.1957 -0.990224 2.81067 0
M  V30 562 H 53.7327 -0.477684 1.39128 0
M  V30 563 H 55.6907 -3.43132 2.3731 0
M  V30 564 H 54.3207 -2.93405 1.34585 0
M  V30 565 H 53.3727 -1.67763 3.41409 0
M  V30 566 H 54.6847 -2.39457 4.37563 0
M  V30 567 H 53.8387 -4.69046 3.84812 0
M  V30 568 H 52.5777 -4.00282 2.78614 0
M  V30 569 H 51.5827 -2.78289 4.74168 0
M  V30 570 H 52.8077 -3.50157 5.81865 0
M  V30 571 H 50.7537 -5.04655 4.19117 0
M  V30 572 H 50.6707 -4.73443 5.89396 0
M  V30 573 H 51.9387 -5.74549 5.26795 0
M  V30 574 N 56.1678 -1.49265 -0.50573 0
M  V30 575 C 57.0978 -1.68495 -1.61653 0
M  V30 576 C 58.0788 -0.53366 -1.61512 0
M  V30 577 O 59.2638 -0.76897 -1.78327 0
M  V30 578 C 56.3938 -1.74709 -3.00157 0
M  V30 579 C 55.3478 -2.89581 -3.15162 0
M  V30 580 C 54.6738 -2.80903 -4.5497 0
M  V30 581 C 55.9738 -4.30578 -2.95634 0
M  V30 582 H 57.6678 -2.61493 -1.45814 0
M  V30 583 H 55.2138 -1.25838 -0.70005 0
M  V30 584 H 57.1668 -1.86748 -3.77761 0
M  V30 585 H 55.8908 -0.783067 -3.17074 0
M  V30 586 H 54.5498 -2.77136 -2.39982 0
M  V30 587 H 54.1978 -1.82419 -4.68756 0
M  V30 588 H 53.8978 -3.57999 -4.65951 0
M  V30 589 H 55.4218 -2.94944 -5.34641 0
M  V30 590 H 56.8358 -4.4373 -3.63011 0
M  V30 591 H 55.2328 -5.0886 -3.18091 0
M  V30 592 H 56.3028 -4.45352 -1.91806 0
M  V30 593 N 57.6459 0.756429 -1.3826 0
M  V30 594 C 58.5759 1.88374 -1.37976 0
M  V30 595 C 59.5569 1.68311 -0.246082 0
M  V30 596 O 60.7419 1.88944 -0.44874 0
M  V30 597 C 57.8719 3.25864 -1.20125 0
M  V30 598 C 56.8259 3.60523 -2.30666 0
M  V30 599 C 56.1519 4.9672 -1.97923 0
M  V30 600 C 57.4519 3.65692 -3.72916 0
M  V30 601 H 59.1459 1.88869 -2.32312 0
M  V30 602 H 56.6919 0.907272 -1.11824 0
M  V30 603 H 58.6449 4.0438 -1.18552 0
M  V30 604 H 57.3689 3.25841 -0.222498 0
M  V30 605 H 56.0279 2.84324 -2.3142 0
M  V30 606 H 55.6759 4.93253 -0.985393 0
M  V30 607 H 55.3759 5.20878 -2.71955 0
M  V30 608 H 56.8999 5.77618 -1.97964 0
M  V30 609 H 58.3139 4.34328 -3.74208 0
M  V30 610 H 56.7109 4.01358 -4.4613 0
M  V30 611 H 57.7809 2.65987 -4.05436 0
M  V30 612 N 59.124 1.23083 0.984299 0
M  V30 613 C 60.37 1.06214 1.72761 0
M  V30 614 C 60.703 -0.400584 1.90024 0
M  V30 615 O 59.978 -1.29672 1.44967 0
M  V30 616 C 60.261 1.78375 3.12817 0
M  V30 617 C 60.114 3.32296 3.03149 0
M  V30 618 C 61.433 1.54309 4.12161 0
M  V30 619 H 58.552 0.387251 0.627061 0
M  V30 620 H 61.194 1.51536 1.14616 0
M  V30 621 H 59.344 1.39848 3.62457 0
M  V30 622 H 61.016 3.8032 2.61064 0
M  V30 623 H 59.259 3.6153 2.39747 0
M  V30 624 H 59.93 3.77972 4.02295 0
M  V30 625 H 62.406 1.87791 3.71314 0
M  V30 626 H 61.282 2.07281 5.08258 0
M  V30 627 H 61.543 0.477572 4.39513 0
M  V30 628 N 60.6021 -1.18246 1.0419 0
M  V30 629 C 61.8511 -1.87588 0.741194 0
M  V30 630 C 62.1641 -1.81303 -0.734066 0
M  V30 631 O 63.3701 -2.46019 -1.14834 0
M  V30 632 C 61.8261 -3.36538 1.27555 0
M  V30 633 C 61.4341 -3.51349 2.77953 0
M  V30 634 C 63.1781 -4.11273 1.05143 0
M  V30 635 C 61.0851 -4.94265 3.2474 0
M  V30 636 H 60.0151 -0.702622 0.273565 0
M  V30 637 H 62.6661 -1.33601 1.25789 0
M  V30 638 H 61.0481 -3.9 0.686703 0
M  V30 639 H 62.2221 -3.08153 3.42605 0
M  V30 640 H 60.5371 -2.90022 2.98791 0
M  V30 641 H 63.1341 -5.16689 1.37611 0
M  V30 642 H 63.4771 -4.16298 -0.0112774 0
M  V30 643 H 64.0101 -3.63987 1.60495 0
M  V30 644 H 60.7491 -4.94408 4.30396 0
M  V30 645 H 60.2691 -5.38172 2.64823 0
M  V30 646 H 61.9481 -5.62987 3.18834 0
M  V30 647 N 62.0802 -0.821533 -1.34494 0
M  V30 648 C 63.3082 -0.421884 -2.02553 0
M  V30 649 C 63.7232 0.971745 -1.61872 0
M  V30 650 O 63.0802 1.62864 -0.823496 0
M  V30 651 C 63.1312 -0.51285 -3.57844 0
M  V30 652 O 62.8522 -1.85155 -3.97051 0
M  V30 653 C 64.3532 -0.107921 -4.43169 0
M  V30 654 H 61.5732 -0.169482 -0.649243 0
M  V30 655 H 64.1172 -1.1093 -1.71798 0
M  V30 656 H 62.2722 0.126474 -3.87193 0
M  V30 657 H 62.6862 -1.82482 -4.91732 0
M  V30 658 H 64.1602 -0.222657 -5.51551 0
M  V30 659 H 64.6372 0.948401 -4.28838 0
M  V30 660 H 65.2432 -0.720989 -4.19144 0
M  V30 661 N 63.5583 1.46682 -0.576371 0
M  V30 662 C 64.8043 2.02712 -0.0596221 0
M  V30 663 C 65.1373 1.44765 1.29448 0
M  V30 664 O 64.4123 0.610355 1.84675 0
M  V30 665 C 64.6953 3.60098 0.0129503 0
M  V30 666 C 64.5483 4.28441 -1.3696 0
M  V30 667 C 65.8673 4.34224 0.71678 0
M  V30 668 H 62.9863 0.736637 -0.0231407 0
M  V30 669 H 65.6283 1.74898 -0.742351 0
M  V30 670 H 63.7783 3.83926 0.594378 0
M  V30 671 H 65.4503 4.15896 -1.9957 0
M  V30 672 H 63.6933 3.8805 -1.93907 0
M  V30 673 H 64.3643 5.3716 -1.27135 0
M  V30 674 H 66.8403 4.15503 0.222908 0
M  V30 675 H 65.7163 5.43936 0.73657 0
M  V30 676 H 65.9773 4.04823 1.77682 0
M  V30 677 N 65.0364 0.313813 1.54444 0
M  V30 678 C 65.9994 -0.54379 2.22656 0
M  V30 679 C 66.9994 -1.05124 1.21678 0
M  V30 680 O 68.1894 -0.945225 1.46325 0
M  V30 681 C 65.3214 -1.75427 2.92298 0
M  V30 682 H 66.5144 0.0523599 2.99854 0
M  V30 683 H 64.0674 0.0647834 1.56166 0
M  V30 684 H 64.8024 -2.38991 2.19211 0
M  V30 685 H 64.5874 -1.39791 3.66334 0
M  V30 686 H 66.0774 -2.36325 3.44297 0
M  V30 687 N 66.5145 -1.57545 0.0417849 0
M  V30 688 C 67.7425 -1.96624 -0.643928 0
M  V30 689 C 68.1575 -0.918897 -1.64929 0
M  V30 690 O 67.5145 0.0979323 -1.82237 0
M  V30 691 C 67.5655 -3.35781 -1.33914 0
M  V30 692 O 67.2865 -4.365 -0.374048 0
M  V30 693 C 68.7875 -3.89566 -2.1155 0
M  V30 694 H 66.0075 -0.647316 -0.176702 0
M  V30 695 H 68.5515 -2.04229 0.105304 0
M  V30 696 H 66.7065 -3.29357 -2.03968 0
M  V30 697 H 67.1205 -5.17248 -0.869179 0
M  V30 698 H 68.5945 -4.89242 -2.55628 0
M  V30 699 H 69.0715 -3.24488 -2.9598 0
M  V30 700 H 69.6775 -3.99298 -1.46427 0
M  V30 701 N 67.9926 0.231505 -1.5589 0
M  V30 702 C 68.9396 1.28682 -1.91598 0
M  V30 703 C 69.9096 1.47071 -0.771974 0
M  V30 704 O 71.0946 1.60802 -1.027 0
M  V30 705 C 68.2346 2.6342 -2.22944 0
M  V30 706 C 67.3476 2.52912 -3.50228 0
M  V30 707 C 66.4826 3.80106 -3.7107 0
M  V30 708 C 65.5216 3.64279 -4.91902 0
M  V30 709 N 64.6586 4.834 -5.09184 0
M  V30 710 H 69.4986 0.975305 -2.81588 0
M  V30 711 H 67.0356 0.470299 -1.39379 0
M  V30 712 H 68.9936 3.41869 -2.39126 0
M  V30 713 H 67.6236 2.92687 -1.36139 0
M  V30 714 H 66.6756 1.6595 -3.42294 0
M  V30 715 H 67.9876 2.37133 -4.38827 0
M  V30 716 H 67.1416 4.66999 -3.87295 0
M  V30 717 H 65.8806 3.98799 -2.80733 0
M  V30 718 H 64.8856 2.7577 -4.75637 0
M  V30 719 H 66.1106 3.47067 -5.83714 0
M  V30 720 H 64.0566 5.02425 -4.21788 0
M  V30 721 H 63.9736 4.70311 -5.91898 0
M  V30 722 H 65.2416 5.71747 -5.29835 0
M  V30 723 N 69.4707 1.49531 0.497807 0
M  V30 724 C 70.3807 1.69176 1.62532 0
M  V30 725 C 71.3967 0.5744 1.64246 0
M  V30 726 O 72.5727 0.849497 1.82608 0
M  V30 727 C 69.6377 1.75695 2.98885 0
M  V30 728 C 68.6987 2.9929 3.07773 0
M  V30 729 C 67.9317 3.05488 4.37622 0
M  V30 730 O 68.1547 2.19192 5.26603 0
M  V30 731 O 67.0887 3.9798 4.51548 0
M  V30 732 H 70.9147 2.647 1.48887 0
M  V30 733 H 68.4997 1.3331 0.674441 0
M  V30 734 H 70.3817 1.82317 3.79919 0
M  V30 735 H 69.0567 0.8335 3.12785 0
M  V30 736 H 67.9637 2.98183 2.25915 0
M  V30 737 H 69.2967 3.91125 2.98801 0
M  V30 738 N 70.9488 -0.749086 1.3866 0
M  V30 739 C 72.1738 -1.54344 1.38538 0
M  V30 740 C 72.5988 -1.88088 -0.0216655 0
M  V30 741 O 71.9568 -1.50899 -1.00494 0
M  V30 742 C 72.0048 -2.8164 2.25192 0
M  V30 743 O 71.1088 -3.7698 1.67212 0
M  V30 744 H 70.4498 -0.466654 0.472367 0
M  V30 745 H 72.9798 -0.925355 1.82478 0
M  V30 746 H 72.9898 -3.30519 2.3921 0
M  V30 747 H 71.6648 -2.56411 3.27454 0
M  V30 748 H 70.2418 -3.35699 1.6236 0
M  V30 749 N 72.4269 -1.23603 -0.977757 0
M  V30 750 C 73.7039 -0.977897 -1.69401 0
M  V30 751 C 74.0839 0.502738 -2.05026 0
M  V30 752 O 73.4319 1.47459 -1.74551 0
M  V30 753 C 73.6419 -1.89077 -2.93345 0
M  V30 754 C 74.9899 -2.15579 -3.65802 0
M  V30 755 O 76.0139 -1.86648 -3.03383 0
M  V30 756 O 74.8729 -2.64658 -4.78141 0
M  V30 757 H 71.9669 -0.369025 -0.740101 0
M  V30 758 H 74.5129 -1.34657 -1.03274 0
M  V30 759 H 73.2849 -2.89158 -2.63634 0
M  V30 760 H 72.9079 -1.52463 -3.67207 0
M  V30 761 N 73.905 1.17692 -1.04816 0
M  V30 762 C 75.153 1.87488 -0.754497 0
M  V30 763 C 75.474 1.81205 0.720407 0
M  V30 764 O 74.744 1.23544 1.52032 0
M  V30 765 H 73.324 0.694101 -0.276102 0
M  V30 766 H 75.986 1.42793 -1.32651 0
M  V30 767 H 75.082 2.93328 -1.06606 0
M  V30 768 N 75.3831 0.828654 1.34056 0
M  V30 769 C 76.6301 0.419458 1.98108 0
M  V30 770 C 76.9581 -1.01886 1.65679 0
M  V30 771 O 76.2131 -1.72539 0.923512 0
M  V30 772 C 76.5121 0.575226 3.52741 0
M  V30 773 C 76.1781 1.98012 4.05095 0
M  V30 774 C 74.8401 2.36442 4.19104 0
M  V30 775 C 77.1921 2.89824 4.33188 0
M  V30 776 C 74.5201 3.66009 4.58535 0
M  V30 777 C 76.8721 4.1886 4.74066 0
M  V30 778 C 75.5361 4.5726 4.86281 0
M  V30 779 H 74.8061 0.153491 0.724929 0
M  V30 780 H 77.4531 1.05371 1.59904 0
M  V30 781 H 75.7581 -0.142385 3.91541 0
M  V30 782 H 77.4551 0.239057 4.00287 0
M  V30 783 H 74.0451 1.67162 3.94658 0
M  V30 784 H 78.2291 2.61375 4.21897 0
M  V30 785 H 73.4851 3.95579 4.66184 0
M  V30 786 H 77.6591 4.90086 4.94761 0
M  V30 787 H 75.2861 5.57707 5.16592 0
M  V30 788 N 76.8612 -1.46375 0.584142 0
M  V30 789 C 77.8112 -2.27371 -0.169232 0
M  V30 790 C 78.7952 -1.35955 -0.860523 0
M  V30 791 O 79.9872 -1.60119 -0.754382 0
M  V30 792 C 77.1162 -3.22334 -1.18134 0
M  V30 793 C 76.2022 -4.21235 -0.492088 0
M  V30 794 N 76.5932 -5.03766 0.453129 0
M  V30 795 C 74.8912 -4.39773 -0.742652 0
M  V30 796 C 75.5922 -5.75366 0.85609 0
M  V30 797 N 74.5682 -5.43214 0.204926 0
M  V30 798 H 78.3702 -2.88572 0.557097 0
M  V30 799 H 75.8842 -1.57242 0.406042 0
M  V30 800 H 77.8812 -3.79071 -1.73525 0
M  V30 801 H 76.5412 -2.62693 -1.90847 0
M  V30 802 H 77.5522 -5.11227 0.828723 0
M  V30 803 H 74.2292 -3.91279 -1.45625 0
M  V30 804 H 75.6192 -6.5172 1.63434 0
M  V30 805 N 78.3393 -0.321999 -1.54275 0
M  V30 806 C 79.7553 0.0306999 -1.5957 0
M  V30 807 C 79.9553 1.50614 -1.33857 0
M  V30 808 O 79.0113 2.2619 -1.12223 0
M  V30 809 C 80.3243 -0.386122 -2.98211 0
M  V30 810 C 81.8723 -0.336647 -3.11184 0
M  V30 811 C 82.3473 -0.728607 -4.52167 0
M  V30 812 N 83.8383 -0.681952 -4.58152 0
M  V30 813 C 84.5733 -0.957449 -5.6535 0
M  V30 814 N 84.0693 -1.3 -6.80494 0
M  V30 815 N 85.8623 -0.883113 -5.55119 0
M  V30 816 H 78.0133 -1.28332 -1.69247 0
M  V30 817 H 80.2763 -0.521716 -0.791528 0
M  V30 818 H 79.9823 -1.41404 -3.22022 0
M  V30 819 H 79.8563 0.249662 -3.76373 0
M  V30 820 H 82.2433 0.682058 -2.8711 0
M  V30 821 H 82.3243 -1.00734 -2.3513 0
M  V30 822 H 81.9683 -1.74522 -4.76974 0
M  V30 823 H 81.8983 -0.0356152 -5.26588 0
M  V30 824 H 84.3893 -0.428985 -3.75457 0
M  V30 825 H 84.7023 -1.49563 -7.58189 0
M  V30 826 H 83.0473 -1.33824 -6.81994 0
M  V30 827 H 86.2383 -0.615001 -4.64042 0
M  V30 828 H 86.4113 -1.10118 -6.38575 0
M  V30 829 N 79.8174 1.5752 -0.0501392 0
M  V30 830 C 81.0644 1.9265 0.623874 0
M  V30 831 C 81.3924 0.928411 1.70912 0
M  V30 832 O 80.6474 -0.0594525 1.9561 0
M  V30 833 C 80.9464 3.34467 1.25963 0
M  V30 834 C 80.6124 4.49883 0.302689 0
M  V30 835 C 79.2744 4.81184 0.0393636 0
M  V30 836 C 81.6264 5.20002 -0.353205 0
M  V30 837 C 78.9544 5.79951 -0.887308 0
M  V30 838 C 81.3064 6.1976 -1.26806 0
M  V30 839 C 79.9704 6.49491 -1.54007 0
M  V30 840 H 79.2404 0.704957 0.228292 0
M  V30 841 H 81.8874 1.91146 -0.116398 0
M  V30 842 H 80.1924 3.32333 2.07514 0
M  V30 843 H 81.8894 3.58928 1.78806 0
M  V30 844 H 78.4794 4.25457 0.518109 0
M  V30 845 H 82.6634 4.96033 -0.162854 0
M  V30 846 H 77.9194 6.01322 -1.10553 0
M  V30 847 H 82.0934 6.73205 -1.78236 0
M  V30 848 H 79.7204 7.25837 -2.25976 0
M  V30 849 N 81.2955 -0.223234 1.56011 0
M  V30 850 C 82.2285 -1.30377 1.87289 0
M  V30 851 C 83.2065 -1.45286 0.730112 0
M  V30 852 O 84.3905 -1.61126 0.978302 0
M  V30 853 C 81.5175 -2.67431 2.07843 0
M  V30 854 C 80.5635 -2.69546 3.30526 0
M  V30 855 S 81.3965 -2.23781 4.865 0
M  V30 856 C 82.5525 -3.62714 5.10088 0
M  V30 857 H 82.7855 -1.03652 2.78646 0
M  V30 858 H 80.3185 -0.425393 1.48424 0
M  V30 859 H 82.2765 -3.46336 2.20368 0
M  V30 860 H 80.9375 -2.91381 1.17285 0
M  V30 861 H 80.1305 -3.70255 3.41947 0
M  V30 862 H 79.7325 -1.98703 3.16849 0
M  V30 863 H 82.0245 -4.58391 4.98883 0
M  V30 864 H 82.9675 -3.5621 6.11981 0
M  V30 865 H 83.3755 -3.56323 4.37829 0
M  V30 866 N 82.7736 -1.49793 -0.48987 0
M  V30 867 C 83.7056 -1.63413 -1.60713 0
M  V30 868 C 84.7186 -0.516329 -1.54395 0
M  V30 869 O 85.9076 -0.788812 -1.60125 0
M  V30 870 C 83.0076 -1.58516 -2.99543 0
M  V30 871 C 82.1806 -2.86016 -3.30928 0
M  V30 872 C 81.2396 -2.74018 -4.49222 0
M  V30 873 O 80.2656 -3.47964 -4.50455 0
M  V30 874 N 81.4676 -1.86309 -5.4979 0
M  V30 875 H 84.2326 -2.59777 -1.49452 0
M  V30 876 H 81.7936 -1.47022 -0.677955 0
M  V30 877 H 83.7856 -1.48128 -3.76617 0
M  V30 878 H 82.3556 -0.69965 -3.0467 0
M  V30 879 H 81.5756 -3.10672 -2.42645 0
M  V30 880 H 82.8636 -3.70521 -3.487 0
M  V30 881 H 82.2616 -1.2551 -5.51601 0
M  V30 882 H 80.8186 -1.81837 -6.25922 0
M  V30 883 N 84.2517 0.741722 -1.39055 0
M  V30 884 C 85.4767 1.53607 -1.39354 0
M  V30 885 C 85.9017 1.88096 0.0116905 0
M  V30 886 O 85.2597 1.5143 0.996924 0
M  V30 887 C 85.3077 2.80441 -2.26682 0
M  V30 888 O 84.4117 3.76088 -1.69208 0
M  V30 889 H 83.7527 0.464142 -0.474835 0
M  V30 890 H 86.2827 0.915665 -1.82967 0
M  V30 891 H 86.2927 3.29246 -2.40959 0
M  V30 892 H 84.9677 2.5467 -3.2881 0
M  V30 893 H 83.5447 3.34833 -1.64138 0
M  V30 894 N 85.7298 1.2412 0.971189 0
M  V30 895 C 86.6928 1.03156 2.04674 0
M  V30 896 C 87.6928 -0.00990322 1.60797 0
M  V30 897 O 88.8828 0.230729 1.72665 0
M  V30 898 C 86.0148 0.562765 3.36223 0
M  V30 899 H 87.2078 1.98614 2.24705 0
M  V30 900 H 84.7608 1.06293 1.14593 0
M  V30 901 H 85.4958 -0.395176 3.21883 0
M  V30 902 H 85.2808 1.31441 3.69413 0
M  V30 903 H 86.7708 0.437015 4.15307 0
M  V30 904 N 87.2079 -1.17134 1.05439 0
M  V30 905 C 88.1549 -2.21235 0.657539 0
M  V30 906 C 89.1249 -1.62551 -0.341543 0
M  V30 907 O 90.3099 -1.89379 -0.232393 0
M  V30 908 C 87.4499 -3.45076 0.0410575 0
M  V30 909 C 86.5629 -4.18042 1.08927 0
M  V30 910 C 85.6979 -5.29376 0.439848 0
M  V30 911 C 84.7369 -5.94132 1.4722 0
M  V30 912 N 83.8739 -6.96975 0.846756 0
M  V30 913 H 88.7139 -2.54534 1.54972 0
M  V30 914 H 86.2509 -1.25028 0.775006 0
M  V30 915 H 88.2089 -4.15862 -0.33383 0
M  V30 916 H 86.8389 -3.12353 -0.814568 0
M  V30 917 H 85.8909 -3.45945 1.58196 0
M  V30 918 H 87.2029 -4.62306 1.87282 0
M  V30 919 H 86.3569 -6.06699 0.0115125 0
M  V30 920 H 85.0959 -4.86251 -0.375656 0
M  V30 921 H 84.1009 -5.15538 1.91052 0
M  V30 922 H 85.3259 -6.39337 2.28965 0
M  V30 923 H 83.2719 -6.5598 0.0518075 0
M  V30 924 H 83.1889 -7.39565 1.5678 0
M  V30 925 H 84.4569 -7.78239 0.443277 0
M  V30 926 N 88.686 -0.835752 -1.33615 0
M  V30 927 C 89.916 -0.442701 -2.01801 0
M  V30 928 C 90.324 0.959807 -1.63047 0
M  V30 929 O 89.667 1.63468 -0.838088 0
M  V30 930 C 89.729 -0.480125 -3.56279 0
M  V30 931 C 89.393 -1.8382 -4.18401 0
M  V30 932 C 90.39 -2.80097 -4.37998 0
M  V30 933 C 88.075 -2.13019 -4.54894 0
M  V30 934 C 90.069 -4.03736 -4.9323 0
M  V30 935 C 87.756 -3.36916 -5.09834 0
M  V30 936 C 88.754 -4.32091 -5.28948 0
M  V30 937 O 88.442 -5.53797 -5.82721 0
M  V30 938 H 88.174 -0.17441 -0.653114 0
M  V30 939 H 90.728 -1.129 -1.71589 0
M  V30 940 H 88.958 0.262931 -3.85805 0
M  V30 941 H 90.647 -0.105335 -4.05763 0
M  V30 942 H 91.413 -2.58838 -4.10156 0
M  V30 943 H 87.292 -1.39733 -4.39313 0
M  V30 944 H 90.836 -4.78034 -5.08064 0
M  V30 945 H 86.733 -3.58033 -5.37106 0
M  V30 946 H 87.501 -5.55494 -6.0114 0
M  V30 947 N 90.1641 1.46063 -0.591896 0
M  V30 948 C 91.4111 2.02338 -0.0809991 0
M  V30 949 C 91.7391 1.46228 1.28249 0
M  V30 950 O 90.9941 0.620818 1.85592 0
M  V30 951 C 91.2931 3.57391 0.0249813 0
M  V30 952 C 90.9591 4.32583 -1.27211 0
M  V30 953 C 89.6211 4.52844 -1.62745 0
M  V30 954 C 91.9731 4.75687 -2.13005 0
M  V30 955 C 89.3011 5.13462 -2.83855 0
M  V30 956 C 91.6531 5.37644 -3.3335 0
M  V30 957 C 90.3171 5.5613 -3.69155 0
M  V30 958 H 89.5871 0.740407 -0.0296397 0
M  V30 959 H 92.2341 1.75321 -0.770374 0
M  V30 960 H 90.5391 3.83597 0.797537 0
M  V30 961 H 92.2361 3.98621 0.436184 0
M  V30 962 H 88.8261 4.17116 -0.985499 0
M  V30 963 H 93.0101 4.59782 -1.86855 0
M  V30 964 H 88.2661 5.25965 -3.11722 0
M  V30 965 H 92.4401 5.7 -4.00092 0
M  V30 966 H 90.0671 6.0287 -4.63089 0
M  V30 967 N 91.6422 0.330177 1.54103 0
M  V30 968 C 92.5902 -0.548226 2.26047 0
M  V30 969 C 93.5842 -1.11309 1.27698 0
M  V30 970 O 94.7902 -1.06036 1.45452 0
M  V30 971 H 91.1652 -0.195456 0.726155 0
M  V30 972 H 93.1362 0.0807567 2.98291 0
M  V30 973 C 91.8852 -1.69415 3.03634 0
M  V30 974 H 91.2082 -1.26876 3.79134 0
M  V30 975 H 92.6482 -2.28423 3.5721 0
M  V30 976 C 91.1072 -2.61569 2.12328 0
M  V30 977 O 91.6372 -3.63462 1.7105 0
M  V30 978 N 89.8432 -2.29952 1.77681 0
M  V30 979 H 89.3902 -1.47134 2.11446 0
M  V30 980 H 89.3482 -2.91871 1.16869 0
M  V30 981 N 93.1203 -1.57491 0.0584922 0
M  V30 982 C 94.3503 -1.9701 -0.622134 0
M  V30 983 C 94.7583 -0.935034 -1.6448 0
M  V30 984 O 94.1013 0.0882904 -1.83488 0
M  V30 985 C 94.1633 -3.32794 -1.35972 0
M  V30 986 C 93.8273 -4.54343 -0.492043 0
M  V30 987 C 94.8243 -5.19323 0.244901 0
M  V30 988 C 92.5093 -5.00534 -0.420821 0
M  V30 989 C 94.5033 -6.28835 1.04143 0
M  V30 990 C 92.1903 -6.09921 0.379389 0
M  V30 991 C 93.1883 -6.73933 1.10919 0
M  V30 992 O 92.8763 -7.81216 1.89623 0
M  V30 993 H 92.6083 -0.653127 -0.174359 0
M  V30 994 H 95.1623 -2.05029 0.123418 0
M  V30 995 H 93.3923 -3.21351 -2.15105 0
M  V30 996 H 95.0813 -3.5701 -1.93129 0
M  V30 997 H 95.8473 -4.8459 0.19939 0
M  V30 998 H 91.7263 -4.50496 -0.978474 0
M  V30 999 H 95.2703 -6.7873 1.61157 0
M  V30 1000 H 91.1673 -6.44089 0.426512 0
M  V30 1001 H 91.9353 -7.98029 1.81913 0
M  V30 1002 N 94.5984 0.214957 -1.56127 0
M  V30 1003 C 95.8264 0.955092 -1.83536 0
M  V30 1004 C 96.2414 1.77677 -0.638472 0
M  V30 1005 O 95.5984 1.78219 0.392968 0
M  V30 1006 C 95.6494 1.86734 -3.09536 0
M  V30 1007 O 95.3704 1.07887 -4.24608 0
M  V30 1008 C 96.8714 2.72082 -3.4998 0
M  V30 1009 H 94.0914 0.279611 -0.609966 0
M  V30 1010 H 96.6354 0.228197 -2.03223 0
M  V30 1011 H 94.7904 2.5481 -2.91806 0
M  V30 1012 H 95.2044 1.69872 -4.9623 0
M  V30 1013 H 96.6784 3.31782 -4.41163 0
M  V30 1014 H 97.1554 3.44806 -2.7204 0
M  V30 1015 H 97.7614 2.09409 -3.70173 0
M  V30 1016 N 96.0765 1.50051 0.48192 0
M  V30 1017 C 97.3225 1.60736 1.2366 0
M  V30 1018 C 97.6555 0.301786 1.91841 0
M  V30 1019 O 96.9305 -0.696025 1.8162 0
M  V30 1020 C 97.2135 2.78009 2.28874 0
M  V30 1021 C 97.0665 4.18416 1.65069 0
M  V30 1022 C 98.3855 2.90867 3.30279 0
M  V30 1023 H 95.5045 0.585031 0.448228 0
M  V30 1024 H 98.1465 1.82402 0.531946 0
M  V30 1025 H 96.2965 2.59667 2.88973 0
M  V30 1026 H 97.9685 4.48322 1.0865 0
M  V30 1027 H 96.2115 4.23177 0.954148 0
M  V30 1028 H 96.8825 4.96381 2.41474 0
M  V30 1029 H 99.3585 3.07623 2.80191 0
M  V30 1030 H 98.2345 3.74566 4.01238 0
M  V30 1031 H 98.4955 2.01021 3.93755 0
M  V30 1032 N 97.5546 -0.734337 1.39446 0
M  V30 1033 C 98.5016 -1.84835 1.38219 0
M  V30 1034 C 99.4716 -1.64331 0.24179 0
M  V30 1035 O 100.657 -1.85728 0.437002 0
M  V30 1036 C 97.7966 -3.22355 1.23212 0
M  V30 1037 C 96.9096 -3.5456 2.46801 0
M  V30 1038 C 96.0446 -4.81485 2.24377 0
M  V30 1039 C 95.0836 -5.06536 3.43639 0
M  V30 1040 N 94.2206 -6.24665 3.20528 0
M  V30 1041 H 99.0606 -1.85219 2.33448 0
M  V30 1042 H 96.5976 -0.905039 1.15963 0
M  V30 1043 H 98.5556 -4.0174 1.12522 0
M  V30 1044 H 97.1856 -3.21248 0.316121 0
M  V30 1045 H 96.2376 -2.69872 2.68092 0
M  V30 1046 H 97.5496 -3.6899 3.3563 0
M  V30 1047 H 96.7036 -5.68852 2.10933 0
M  V30 1048 H 95.4426 -4.6923 1.32944 0
M  V30 1049 H 94.4476 -4.17632 3.5758 0
M  V30 1050 H 95.6726 -5.20676 4.35974 0
M  V30 1051 H 93.6186 -6.13696 2.3176 0
M  V30 1052 H 93.5356 -6.39685 4.02913 0
M  V30 1053 H 94.8036 -7.14868 3.10779 0
M  V30 1054 N 99.0327 -1.24633 -0.964593 0
M  V30 1055 C 100.279 -1.08949 -1.71049 0
M  V30 1056 C 100.612 0.370302 -1.90637 0
M  V30 1057 O 99.8867 1.27349 -1.47011 0
M  V30 1058 C 100.17 -1.83329 -3.0994 0
M  V30 1059 C 100.023 -3.37077 -2.97824 0
M  V30 1060 C 101.342 -1.60846 -4.09654 0
M  V30 1061 H 98.4607 -0.397178 -0.620821 0
M  V30 1062 H 101.103 -1.5334 -1.12191 0
M  V30 1063 H 99.2527 -1.45597 -3.60186 0
M  V30 1064 H 100.925 -3.84425 -2.5498 0
M  V30 1065 H 99.1677 -3.65298 -2.33965 0
M  V30 1066 H 99.8387 -3.84324 -3.96231 0
M  V30 1067 H 102.315 -1.93674 -3.68279 0
M  V30 1068 H 101.191 -2.1534 -5.04896 0
M  V30 1069 H 101.452 -0.547434 -4.38698 0
M  V30 1070 N 100.511 1.16574 -1.06058 0
M  V30 1071 C 101.441 2.23057 -0.690488 0
M  V30 1072 C 102.422 1.67141 0.315901 0
M  V30 1073 O 103.607 1.93253 0.191556 0
M  V30 1074 C 100.737 3.47222 -0.073625 0
M  V30 1075 C 99.6908 4.16016 -1.00573 0
M  V30 1076 C 99.0168 5.34104 -0.252289 0
M  V30 1077 C 100.317 4.67264 -2.33371 0
M  V30 1078 H 102.011 2.54271 -1.58072 0
M  V30 1079 H 99.5568 1.22218 -0.76149 0
M  V30 1080 H 101.51 4.20939 0.19714 0
M  V30 1081 H 100.234 3.15302 0.85161 0
M  V30 1082 H 98.8928 3.44223 -1.2612 0
M  V30 1083 H 98.5408 4.98437 0.675988 0
M  V30 1084 H 98.2408 5.81072 -0.873455 0
M  V30 1085 H 99.7648 6.10599 0.0109857 0
M  V30 1086 H 101.179 5.32573 -2.12223 0
M  V30 1087 H 99.5758 5.24843 -2.90963 0
M  V30 1088 H 100.646 3.83602 -2.96611 0
M  V30 1089 N 101.989 0.842826 1.3317 0
M  V30 1090 C 103.237 0.439577 1.97262 0
M  V30 1091 C 103.558 -1.00548 1.67078 0
M  V30 1092 O 102.828 -1.70098 0.971779 0
M  V30 1093 H 101.408 0.159558 0.72976 0
M  V30 1094 H 104.07 1.07665 1.62463 0
M  V30 1095 H 103.166 0.574886 3.0676 0
M  V30 1096 N 103.467 -1.45747 0.599634 0
M  V30 1097 C 104.399 -2.28628 -0.161879 0
M  V30 1098 C 105.412 -1.39494 -0.839367 0
M  V30 1099 O 106.601 -1.63941 -0.706089 0
M  V30 1100 C 103.701 -3.15014 -1.24976 0
M  V30 1101 C 102.874 -4.32378 -0.660935 0
M  V30 1102 C 101.933 -5.00033 -1.63869 0
M  V30 1103 O 100.959 -5.57085 -1.1681 0
M  V30 1104 N 102.161 -4.98589 -2.97303 0
M  V30 1105 H 104.926 -2.94624 0.549265 0
M  V30 1106 H 102.487 -1.55847 0.438565 0
M  V30 1107 H 104.479 -3.5714 -1.9035 0
M  V30 1108 H 103.049 -2.5098 -1.86354 0
M  V30 1109 H 102.269 -3.9383 0.170688 0
M  V30 1110 H 103.557 -5.08197 -0.247619 0
M  V30 1111 H 102.955 -4.53514 -3.38145 0
M  V30 1112 H 101.512 -5.44603 -3.58121 0
M  V30 1113 N 104.945 -0.338344 -1.53925 0
M  V30 1114 C 106.193 0.259245 -2.0043 0
M  V30 1115 C 106.514 1.51484 -1.22791 0
M  V30 1116 O 105.784 1.93037 -0.33368 0
M  V30 1117 H 104.364 0.0987845 -0.740439 0
M  V30 1118 H 107.026 -0.458302 -1.89435 0
M  V30 1119 H 106.122 0.505334 -3.07982 0
M  V30 1120 N 106.423 1.57458 -0.0668435 0
M  V30 1121 C 107.333 2.15937 0.916975 0
M  V30 1122 C 108.349 1.12123 1.33058 0
M  V30 1123 O 109.525 1.44366 1.40429 0
M  V30 1124 C 106.59 2.70547 2.16807 0
M  V30 1125 C 105.651 3.89215 1.81135 0
M  V30 1126 C 104.884 4.41211 3.0028 0
M  V30 1127 O 105.107 3.92225 4.14144 0
M  V30 1128 O 104.041 5.32605 2.80384 0
M  V30 1129 H 107.867 3.00354 0.449561 0
M  V30 1130 H 105.452 1.48584 0.155949 0
M  V30 1131 H 107.334 3.0557 2.90181 0
M  V30 1132 H 106.009 1.89192 2.62656 0
M  V30 1133 H 104.916 3.59054 1.05028 0
M  V30 1134 H 106.249 4.71848 1.40073 0
M  V30 1135 N 107.901 -0.206675 1.56239 0
M  V30 1136 C 108.811 -1.27686 1.96808 0
M  V30 1137 C 109.827 -1.50455 0.874035 0
M  V30 1138 O 111.003 -1.63295 1.17884 0
M  V30 1139 C 108.068 -2.60358 2.28942 0
M  V30 1140 C 107.129 -2.45762 3.51994 0
M  V30 1141 C 106.362 -3.72108 3.82585 0
M  V30 1142 O 106.585 -4.75776 3.14631 0
M  V30 1143 O 105.519 -3.6833 4.76043 0
M  V30 1144 H 109.345 -0.962593 2.88041 0
M  V30 1145 H 106.93 -0.410746 1.43643 0
M  V30 1146 H 108.812 -3.38687 2.50737 0
M  V30 1147 H 107.487 -2.91435 1.4088 0
M  V30 1148 H 106.394 -1.65584 3.35459 0
M  V30 1149 H 107.727 -2.19621 4.40486 0
M  V30 1150 N 109.379 -1.50304 -0.473955 0
M  V30 1151 C 110.625 -1.62358 -1.22521 0
M  V30 1152 C 110.98 -0.318555 -1.89745 0
M  V30 1153 O 110.273 0.683315 -1.79001 0
M  V30 1154 C 110.467 -2.73938 -2.29549 0
M  V30 1155 C 110.296 -4.15165 -1.72825 0
M  V30 1156 C 109.066 -4.81604 -1.52924 0
M  V30 1157 C 111.264 -4.99503 -1.22481 0
M  V30 1158 N 109.246 -6.07056 -0.91413 0
M  V30 1159 C 110.617 -6.15655 -0.732743 0
M  V30 1160 C 112.672 -4.85299 -1.11308 0
M  V30 1161 C 111.375 -7.19164 -0.139976 0
M  V30 1162 C 113.401 -5.88982 -0.534258 0
M  V30 1163 C 112.763 -7.0438 -0.0525562 0
M  V30 1164 H 108.862 -0.648286 -0.437321 0
M  V30 1165 H 111.446 -1.87413 -0.527692 0
M  V30 1166 H 109.617 -2.50611 -2.9673 0
M  V30 1167 H 111.349 -2.75366 -2.96573 0
M  V30 1168 H 108.104 -4.3885 -1.78067 0
M  V30 1169 H 108.528 -6.74108 -0.625071 0
M  V30 1170 H 113.17 -3.96369 -1.47144 0
M  V30 1171 H 110.888 -8.07771 0.230591 0
M  V30 1172 H 114.474 -5.80055 -0.450219 0
M  V30 1173 H 113.354 -7.83238 0.388324 0
M  V30 1174 N 110.857 0.726932 -1.39834 0
M  V30 1175 C 112.273 1.03354 -1.21615 0
M  V30 1176 C 112.473 2.01327 -0.08338 0
M  V30 1177 O 111.529 2.46158 0.56238 0
M  V30 1178 C 112.842 1.58811 -2.55342 0
M  V30 1179 C 114.39 1.70851 -2.62257 0
M  V30 1180 C 114.865 2.29716 -3.96225 0
M  V30 1181 N 116.356 2.37116 -3.97907 0
M  V30 1182 C 117.091 2.83619 -4.98345 0
M  V30 1183 N 116.587 3.29958 -6.09179 0
M  V30 1184 N 118.38 2.82901 -4.8572 0
M  V30 1185 H 110.531 0.0773069 -2.12259 0
M  V30 1186 H 112.794 0.0969102 -0.943034 0
M  V30 1187 H 112.5 0.942855 -3.38826 0
M  V30 1188 H 112.374 2.57502 -2.75632 0
M  V30 1189 H 114.761 2.34497 -1.79152 0
M  V30 1190 H 114.842 0.707913 -2.45809 0
M  V30 1191 H 114.486 1.66696 -4.79765 0
M  V30 1192 H 114.416 3.30469 -4.09997 0
M  V30 1193 H 116.907 2.04374 -3.17868 0
M  V30 1194 H 117.22 3.63976 -6.8172 0
M  V30 1195 H 115.565 3.27946 -6.12761 0
M  V30 1196 H 118.756 2.46027 -3.98231 0
M  V30 1197 H 118.929 3.18827 -5.6414 0
M  V30 1198 N 112.336 1.25143 0.95797 0
M  V30 1199 C 113.584 1.09476 1.69881 0
M  V30 1200 C 113.905 -0.365502 1.91544 0
M  V30 1201 O 113.175 -1.25985 1.50015 0
M  V30 1202 H 111.755 0.402128 0.629525 0
M  V30 1203 H 114.417 1.57214 1.15194 0
M  V30 1204 H 113.513 1.60046 2.6794 0
M  V30 1205 N 113.814 -1.1601 1.06675 0
M  V30 1206 C 115.062 -1.86264 0.784229 0
M  V30 1207 C 115.383 -1.82328 -0.691488 0
M  V30 1208 O 114.653 -1.25947 -1.50047 0
M  V30 1209 H 113.233 -0.689621 0.28711 0
M  V30 1210 H 115.895 -1.40664 1.34906 0
M  V30 1211 H 114.991 -2.91595 1.11259 0
M  V30 1212 N 115.292 -0.849877 -1.32721 0
M  V30 1213 C 116.569 -0.372405 -1.92022 0
M  V30 1214 C 116.949 1.1435 -1.77447 0
M  V30 1215 O 116.297 1.96296 -1.16962 0
M  V30 1216 C 116.507 -0.831482 -3.3895 0
M  V30 1217 C 117.855 -0.845882 -4.16089 0
M  V30 1218 O 118.879 -0.775806 -3.47649 0
M  V30 1219 O 117.738 -0.943753 -5.38289 0
M  V30 1220 H 114.832 -0.107667 -0.819961 0
M  V30 1221 H 117.378 -0.93646 -1.41522 0
M  V30 1222 H 116.15 -1.87448 -3.4348 0
M  V30 1223 H 115.773 -0.24461 -3.96847 0
M  V30 1224 N 116.77 1.45427 -0.607355 0
M  V30 1225 C 118.018 2.01841 -0.102253 0
M  V30 1226 C 118.339 1.47832 1.27164 0
M  V30 1227 O 117.609 0.672497 1.83995 0
M  V30 1228 H 116.189 0.746188 -0.0348101 0
M  V30 1229 H 118.851 1.78229 -0.7887 0
M  V30 1230 H 117.947 3.12057 -0.0518585 0
M  V30 1231 N 118.248 0.346503 1.53744 0
M  V30 1232 C 119.497 -0.250122 2.00143 0
M  V30 1233 C 119.81 -1.51418 1.23822 0
M  V30 1234 O 121.016 -2.18823 1.60713 0
M  V30 1235 C 119.472 -0.496252 3.56462 0
M  V30 1236 C 119.08 0.752077 4.41642 0
M  V30 1237 C 120.824 -1.05157 4.11269 0
M  V30 1238 C 118.731 0.476583 5.89477 0
M  V30 1239 H 117.661 -0.0972409 0.747703 0
M  V30 1240 H 120.312 0.46229 1.77581 0
M  V30 1241 H 118.694 -1.26944 3.75102 0
M  V30 1242 H 119.868 1.5266 4.34778 0
M  V30 1243 H 118.183 1.22925 3.97842 0
M  V30 1244 H 120.78 -1.27269 5.19333 0
M  V30 1245 H 121.123 -2.00799 3.64672 0
M  V30 1246 H 121.656 -0.339019 3.96353 0
M  V30 1247 H 118.395 1.4028 6.40314 0
M  V30 1248 H 117.915 -0.259794 5.99237 0
M  V30 1249 H 119.594 0.0949315 6.4693 0
M  V30 1250 N 119.726 -1.57421 0.075193 0
M  V30 1251 C 120.674 -2.14124 -0.908508 0
M  V30 1252 C 121.668 -1.07898 -1.30592 0
M  V30 1253 O 122.874 -1.26273 -1.28277 0
M  V30 1254 H 119.249 -0.684707 -0.310935 0
M  V30 1255 H 121.22 -2.95634 -0.405374 0
M  V30 1256 C 119.969 -2.72044 -2.16535 0
M  V30 1257 H 119.292 -3.53456 -1.86839 0
M  V30 1258 H 120.732 -3.15311 -2.83469 0
M  V30 1259 C 119.191 -1.66968 -2.92615 0
M  V30 1260 O 119.721 -1.0967 -3.86439 0
M  V30 1261 N 117.927 -1.37923 -2.55784 0
M  V30 1262 H 117.474 -1.84706 -1.79559 0
M  V30 1263 H 117.432 -0.67852 -3.06991 0
M  V30 1264 N 121.204 0.198386 -1.56346 0
M  V30 1265 C 122.429 0.939682 -1.84891 0
M  V30 1266 C 122.854 1.76202 -0.658369 0
M  V30 1267 O 122.212 1.76993 0.392851 0
M  V30 1268 C 122.26 1.81428 -3.11635 0
M  V30 1269 O 121.364 2.91265 -2.91956 0
M  V30 1270 H 120.705 0.264807 -0.608912 0
M  V30 1271 H 123.235 0.204695 -2.03573 0
M  V30 1272 H 123.245 2.21958 -3.42343 0
M  V30 1273 H 121.92 1.21004 -3.97908 0
M  V30 1274 H 120.497 2.54514 -2.72538 0
M  V30 1275 N 122.682 1.50554 0.465978 0
M  V30 1276 C 123.931 1.61038 1.21448 0
M  V30 1277 C 124.244 0.31865 1.92987 0
M  V30 1278 O 125.45 0.302469 2.6981 0
M  V30 1279 C 123.906 2.84283 2.20706 0
M  V30 1280 C 123.514 4.20352 1.54946 0
M  V30 1281 C 125.258 3.04115 2.96166 0
M  V30 1282 C 123.165 5.34778 2.5252 0
M  V30 1283 H 122.095 0.599718 0.457005 0
M  V30 1284 H 124.746 1.7699 0.484424 0
M  V30 1285 H 123.128 2.61901 2.97025 0
M  V30 1286 H 124.302 4.53008 0.843811 0
M  V30 1287 H 122.617 4.06167 0.917475 0
M  V30 1288 H 125.214 3.86774 3.69202 0
M  V30 1289 H 125.557 2.16045 3.55852 0
M  V30 1290 H 126.09 3.26702 2.26959 0
M  V30 1291 H 122.829 6.25018 1.97566 0
M  V30 1292 H 122.349 5.06534 3.21222 0
M  V30 1293 H 124.028 5.65561 3.14245 0
M  V30 1294 N 124.16 -0.719506 1.40217 0
M  V30 1295 C 125.408 -1.47641 1.3801 0
M  V30 1296 C 125.729 -1.94992 -0.018145 0
M  V30 1297 O 124.999 -1.70073 -0.972207 0
M  V30 1298 H 123.579 -0.547744 0.507923 0
M  V30 1299 H 126.241 -0.853187 1.75233 0
M  V30 1300 H 125.337 -2.35112 2.05253 0
M  V30 1301 N 125.638 -1.25649 -0.95132 0
M  V30 1302 C 126.886 -1.10375 -1.69298 0
M  V30 1303 C 127.207 0.355339 -1.91735 0
M  V30 1304 O 126.477 1.25188 -1.50681 0
M  V30 1305 H 125.057 -0.405461 -0.627384 0
M  V30 1306 H 127.719 -1.57823 -1.14358 0
M  V30 1307 H 126.815 -1.61465 -2.67087 0
M  V30 1308 N 127.117 1.15442 -1.07289 0
M  V30 1309 C 128.365 1.85845 -0.794096 0
M  V30 1310 C 128.686 1.82692 0.681809 0
M  V30 1311 O 127.956 1.26741 1.49377 0
M  V30 1312 H 126.536 0.688089 -0.290763 0
M  V30 1313 H 129.198 1.39947 -1.3565 0
M  V30 1314 H 128.294 2.91001 -1.12804 0
M  V30 1315 N 128.595 0.856903 1.32268 0
M  V30 1316 C 129.527 0.260412 2.27716 0
M  V30 1317 C 130.54 -0.569137 1.52528 0
M  V30 1318 O 131.729 -0.39326 1.74114 0
M  V30 1319 C 128.829 -0.650477 3.32599 0
M  V30 1320 C 128.002 0.14372 4.37164 0
M  V30 1321 C 127.061 -0.69328 5.21613 0
M  V30 1322 O 126.087 -0.12599 5.69061 0
M  V30 1323 N 127.289 -2.00761 5.44679 0
M  V30 1324 H 130.054 1.08059 2.79541 0
M  V30 1325 H 127.615 0.717103 1.45152 0
M  V30 1326 H 129.607 -1.21581 3.86005 0
M  V30 1327 H 128.177 -1.37133 2.80915 0
M  V30 1328 H 127.397 0.890486 3.8401 0
M  V30 1329 H 128.685 0.68915 5.04111 0
M  V30 1330 H 128.083 -2.49181 5.07863 0
M  V30 1331 H 126.64 -2.52103 6.01072 0
M  V30 1332 N 130.073 -1.45103 0.615059 0
M  V30 1333 C 131.02 -2.30586 -0.0993978 0
M  V30 1334 C 131.99 -1.42544 -0.852669 0
M  V30 1335 O 133.175 -1.71465 -0.836917 0
M  V30 1336 C 130.315 -3.27572 -1.08583 0
M  V30 1337 C 129.428 -4.30717 -0.332656 0
M  V30 1338 C 128.563 -5.14807 -1.30947 0
M  V30 1339 C 127.602 -6.09673 -0.544538 0
M  V30 1340 N 126.739 -6.86517 -1.47101 0
M  V30 1341 H 131.579 -2.91144 0.635542 0
M  V30 1342 H 129.116 -1.4346 0.325206 0
M  V30 1343 H 131.074 -3.82276 -1.67095 0
M  V30 1344 H 129.704 -2.68751 -1.78809 0
M  V30 1345 H 128.756 -3.78615 0.368107 0
M  V30 1346 H 130.068 -4.98102 0.263842 0
M  V30 1347 H 129.222 -5.73948 -1.96643 0
M  V30 1348 H 127.961 -4.47458 -1.9399 0
M  V30 1349 H 126.966 -5.49656 0.126003 0
M  V30 1350 H 128.191 -6.79052 0.080947 0
M  V30 1351 H 126.137 -6.21851 -2.08895 0
M  V30 1352 H 126.054 -7.50281 -0.928137 0
M  V30 1353 H 127.322 -7.50194 -2.11731 0
M  V30 1354 N 131.551 -0.354651 -1.53558 0
M  V30 1355 C 132.797 0.238797 -2.01389 0
M  V30 1356 C 133.13 1.49309 -1.2418 0
M  V30 1357 O 132.405 1.91638 -0.332457 0
M  V30 1358 C 132.688 0.541771 -3.56001 0
M  V30 1359 C 132.541 -0.725388 -4.43912 0
M  V30 1360 C 133.86 1.34685 -4.18984 0
M  V30 1361 H 130.979 0.0853177 -0.732045 0
M  V30 1362 H 133.621 -0.477384 -1.83905 0
M  V30 1363 H 131.771 1.15189 -3.71031 0
M  V30 1364 H 133.443 -1.36313 -4.407 0
M  V30 1365 H 131.686 -1.34801 -4.12324 0
M  V30 1366 H 132.357 -0.468505 -5.50008 0
M  V30 1367 H 134.833 0.830837 -4.07721 0
M  V30 1368 H 133.709 1.52759 -5.27215 0
M  V30 1369 H 133.97 2.35221 -3.74331 0
M  V30 1370 N 133.029 1.57378 -0.0835403 0
M  V30 1371 C 134.445 1.57246 0.273109 0
M  V30 1372 C 134.645 1.09385 1.69225 0
M  V30 1373 O 133.701 0.765051 2.40631 0
M  V30 1374 C 135.014 3.00614 0.0720628 0
M  V30 1375 C 136.562 3.12684 0.1407 0
M  V30 1376 C 137.037 4.57989 -0.0322094 0
M  V30 1377 N 138.528 4.63194 0.0230085 0
M  V30 1378 C 139.263 5.73335 -0.0861941 0
M  V30 1379 N 138.759 6.9235 -0.24958 0
M  V30 1380 N 140.552 5.62093 -0.0282886 0
M  V30 1381 H 132.703 1.86801 -1.0109 0
M  V30 1382 H 134.966 0.861687 -0.395222 0
M  V30 1383 H 134.672 3.39786 -0.907662 0
M  V30 1384 H 134.546 3.68193 0.81936 0
M  V30 1385 H 136.933 2.73391 1.11092 0
M  V30 1386 H 137.014 2.47719 -0.637896 0
M  V30 1387 H 136.658 4.97973 -0.999247 0
M  V30 1388 H 136.588 5.21 0.765937 0
M  V30 1389 H 139.079 3.77613 0.14722 0
M  V30 1390 H 139.392 7.72117 -0.324733 0
M  V30 1391 H 137.737 6.94415 -0.285097 0
M  V30 1392 H 140.928 4.67997 0.0981408 0
M  V30 1393 H 141.101 6.47895 -0.116845 0
M  V30 1394 N 134.507 -0.190092 1.56449 0
M  V30 1395 C 135.437 -1.23816 1.97969 0
M  V30 1396 C 136.418 -1.47201 0.852395 0
M  V30 1397 O 137.603 -1.58854 1.1171 0
M  V30 1398 C 134.733 -2.5813 2.3235 0
M  V30 1399 C 133.687 -2.49348 3.47864 0
M  V30 1400 C 133.013 -3.8798 3.67934 0
M  V30 1401 C 134.313 -2.01424 4.81898 0
M  V30 1402 H 136.007 -0.89311 2.85769 0
M  V30 1403 H 133.553 -0.428177 1.37487 0
M  V30 1404 H 135.506 -3.31637 2.59991 0
M  V30 1405 H 134.23 -2.94386 1.41438 0
M  V30 1406 H 132.889 -1.78297 3.20321 0
M  V30 1407 H 132.537 -4.21597 2.74344 0
M  V30 1408 H 132.237 -3.82978 4.45648 0
M  V30 1409 H 133.761 -4.63101 3.97957 0
M  V30 1410 H 135.175 -2.64693 5.08538 0
M  V30 1411 H 133.572 -2.07413 5.63116 0
M  V30 1412 H 134.642 -0.967677 4.75146 0
M  V30 1413 N 135.985 -1.50799 -0.457987 0
M  V30 1414 C 136.918 -1.65273 -1.57353 0
M  V30 1415 C 137.896 -0.500578 -1.54703 0
M  V30 1416 O 139.08 -0.721781 -1.74134 0
M  V30 1417 C 136.207 -1.64737 -2.95938 0
M  V30 1418 C 135.253 -2.8567 -3.16693 0
M  V30 1419 S 136.086 -4.46791 -2.95191 0
M  V30 1420 C 137.242 -4.48968 -4.36095 0
M  V30 1421 H 137.475 -2.59633 -1.44838 0
M  V30 1422 H 135.008 -1.40225 -0.64625 0
M  V30 1423 H 136.966 -1.65112 -3.7583 0
M  V30 1424 H 135.627 -0.715899 -3.05833 0
M  V30 1425 H 134.82 -2.81637 -4.17967 0
M  V30 1426 H 134.422 -2.8293 -2.44594 0
M  V30 1427 H 136.714 -4.23337 -5.28954 0
M  V30 1428 H 137.657 -5.50664 -4.45168 0
M  V30 1429 H 138.065 -3.78522 -4.18786 0
M  V30 1430 N 137.463 0.71206 -1.40597 0
M  V30 1431 C 138.41 1.82613 -1.41142 0
M  V30 1432 C 139.38 1.63925 -0.267903 0
M  V30 1433 O 140.565 1.85009 -0.466495 0
M  V30 1434 C 137.705 3.20354 -1.28324 0
M  V30 1435 C 136.818 3.50589 -2.52411 0
M  V30 1436 C 135.953 4.77855 -2.32009 0
M  V30 1437 C 134.992 5.01005 -3.51654 0
M  V30 1438 N 134.129 6.19487 -3.30425 0
M  V30 1439 H 138.969 1.81482 -2.36365 0
M  V30 1440 H 136.506 0.886475 -1.17388 0
M  V30 1441 H 138.464 3.99899 -1.18899 0
M  V30 1442 H 137.094 3.20705 -0.367189 0
M  V30 1443 H 136.146 2.65573 -2.72351 0
M  V30 1444 H 137.458 3.63604 -3.41458 0
M  V30 1445 H 136.612 5.65424 -2.19956 0
M  V30 1446 H 135.351 4.67056 -1.40392 0
M  V30 1447 H 134.356 4.1189 -3.64179 0
M  V30 1448 H 135.581 5.13674 -4.44202 0
M  V30 1449 H 133.527 6.09932 -2.41494 0
M  V30 1450 H 133.444 6.33194 -4.13039 0
M  V30 1451 H 134.712 7.09834 -3.22113 0
M  V30 1452 N 138.941 1.26152 0.944643 0
M  V30 1453 C 139.851 1.09176 2.07648 0
M  V30 1454 C 140.867 0.0261935 1.7398 0
M  V30 1455 O 142.043 0.229208 2.00091 0
M  V30 1456 C 139.108 0.722915 3.39079 0
M  V30 1457 C 138.169 1.86752 3.86552 0
M  V30 1458 C 137.402 1.51617 5.11711 0
M  V30 1459 O 137.625 0.416331 5.68879 0
M  V30 1460 O 136.559 2.34975 5.54139 0
M  V30 1461 H 140.385 2.0412 2.24875 0
M  V30 1462 H 137.97 1.05182 1.061 0
M  V30 1463 H 139.852 0.529787 4.18056 0
M  V30 1464 H 138.527 -0.197159 3.23099 0
M  V30 1465 H 137.434 2.11558 3.08535 0
M  V30 1466 H 138.767 2.76719 4.07047 0
M  V30 1467 N 140.419 -1.14872 1.07899 0
M  V30 1468 C 141.665 -1.86064 0.806725 0
M  V30 1469 C 141.998 -1.82434 -0.665706 0
M  V30 1470 O 141.273 -1.25138 -1.48899 0
M  V30 1471 C 141.556 -3.34929 1.32267 0
M  V30 1472 C 141.409 -3.47161 2.86006 0
M  V30 1473 C 142.728 -4.29863 0.943717 0
M  V30 1474 H 139.847 -0.675591 0.294526 0
M  V30 1475 H 142.489 -1.34925 1.33773 0
M  V30 1476 H 140.639 -3.78611 0.870974 0
M  V30 1477 H 142.311 -3.12302 3.39507 0
M  V30 1478 H 140.554 -2.88539 3.23925 0
M  V30 1479 H 141.225 -4.51777 3.17177 0
M  V30 1480 H 143.701 -3.9417 1.33302 0
M  V30 1481 H 142.577 -5.32494 1.33198 0
M  V30 1482 H 142.838 -4.41846 -0.149796 0
M  V30 1483 N 141.898 -0.863906 -1.31812 0
M  V30 1484 C 142.831 -0.259963 -2.26714 0
M  V30 1485 C 143.809 0.607392 -1.50829 0
M  V30 1486 O 144.993 0.562155 -1.79922 0
M  V30 1487 C 142.12 0.632456 -3.32743 0
M  V30 1488 C 141.166 -0.162743 -4.26189 0
M  V30 1489 S 141.999 -1.53726 -5.12961 0
M  V30 1490 C 143.155 -0.650803 -6.22507 0
M  V30 1491 H 143.388 -1.06445 -2.77591 0
M  V30 1492 H 140.921 -0.662071 -1.39485 0
M  V30 1493 H 142.879 1.14167 -3.94305 0
M  V30 1494 H 141.54 1.41083 -2.80632 0
M  V30 1495 H 140.733 0.517366 -5.01338 0
M  V30 1496 H 140.335 -0.60385 -3.69093 0
M  V30 1497 H 142.627 0.141134 -6.77353 0
M  V30 1498 H 143.57 -1.37322 -6.94657 0
M  V30 1499 H 143.978 -0.221041 -5.64067 0
M  V30 1500 N 143.376 1.44774 -0.622745 0
M  V30 1501 C 144.286 2.34433 0.0886031 0
M  V30 1502 C 145.302 1.52131 0.844529 0
M  V30 1503 O 146.478 1.84886 0.798691 0
M  V30 1504 C 143.543 3.29986 1.0635 0
M  V30 1505 C 142.604 4.28195 0.307873 0
M  V30 1506 C 141.837 5.19183 1.23633 0
M  V30 1507 O 142.06 5.13918 2.47476 0
M  V30 1508 O 140.994 5.97515 0.725189 0
M  V30 1509 H 144.82 2.96693 -0.648599 0
M  V30 1510 H 142.405 1.44408 -0.382957 0
M  V30 1511 H 144.287 3.88825 1.6246 0
M  V30 1512 H 142.962 2.70269 1.78146 0
M  V30 1513 H 141.869 3.72927 -0.296064 0
M  V30 1514 H 143.202 4.90808 -0.3699 0
M  V30 1515 N 144.854 0.36279 1.53368 0
M  V30 1516 C 145.804 -0.501391 2.22419 0
M  V30 1517 C 146.788 -1.0509 1.2184 0
M  V30 1518 O 147.98 -0.981404 1.47301 0
M  V30 1519 C 145.109 -1.64201 3.01484 0
M  V30 1520 C 144.195 -1.10552 4.09438 0
M  V30 1521 N 144.586 -0.291788 5.04958 0
M  V30 1522 C 142.884 -1.3806 4.24094 0
M  V30 1523 C 143.585 0.00162655 5.817 0
M  V30 1524 N 142.561 -0.595244 5.40331 0
M  V30 1525 H 146.363 0.127159 2.93625 0
M  V30 1526 H 143.877 0.170658 1.61501 0
M  V30 1527 H 145.874 -2.27326 3.49469 0
M  V30 1528 H 144.534 -2.27365 2.31809 0
M  V30 1529 H 145.545 0.0687731 5.17854 0
M  V30 1530 H 142.222 -2.01522 3.65644 0
M  V30 1531 H 143.612 0.659278 6.68658 0
M  V30 1532 N 146.332 -1.57332 0.0918853 0
M  V30 1533 C 147.562 -1.98286 -0.580205 0
M  V30 1534 C 147.97 -0.969713 -1.6246 0
M  V30 1535 O 147.313 0.0493501 -1.83634 0
M  V30 1536 C 147.375 -3.35603 -1.28882 0
M  V30 1537 C 147.039 -4.55285 -0.395559 0
M  V30 1538 C 148.036 -5.18687 0.355002 0
M  V30 1539 C 145.721 -5.01314 -0.314556 0
M  V30 1540 C 147.715 -6.26484 1.17458 0
M  V30 1541 C 145.402 -6.08979 0.508677 0
M  V30 1542 C 146.4 -6.71429 1.2519 0
M  V30 1543 O 146.088 -7.77018 2.06151 0
M  V30 1544 H 145.82 -0.656678 -0.160466 0
M  V30 1545 H 148.374 -2.04721 0.16688 0
M  V30 1546 H 146.604 -3.25842 -2.08241 0
M  V30 1547 H 148.293 -3.61026 -1.85512 0
M  V30 1548 H 149.059 -4.84058 0.302134 0
M  V30 1549 H 144.938 -4.5247 -0.882697 0
M  V30 1550 H 148.482 -6.75159 1.75518 0
M  V30 1551 H 144.379 -6.4304 0.563037 0
M  V30 1552 H 145.147 -7.93991 1.98799 0
M  V30 1553 N 147.81 0.181792 -1.56548 0
M  V30 1554 C 148.773 1.20894 -1.94724 0
M  V30 1555 C 149.773 1.37738 -0.829747 0
M  V30 1556 O 150.963 1.35323 -1.09697 0
M  V30 1557 C 148.095 2.57593 -2.23291 0
M  V30 1558 H 149.288 0.882275 -2.86629 0
M  V30 1559 H 146.841 0.423838 -1.50444 0
M  V30 1560 H 147.576 2.95291 -1.34067 0
M  V30 1561 H 147.361 2.46735 -3.04736 0
M  V30 1562 H 148.851 3.31637 -2.53785 0
M  V30 1563 N 149.288 1.51039 0.449983 0
M  V30 1564 C 150.565 1.53612 1.21089 0
M  V30 1565 C 150.945 0.292997 2.09057 0
M  V30 1566 O 150.293 -0.72259 2.16774 0
M  V30 1567 C 150.503 2.84337 2.0237 0
M  V30 1568 C 151.851 3.35807 2.59843 0
M  V30 1569 O 152.875 2.85802 2.12593 0
M  V30 1570 O 151.734 4.23029 3.45989 0
M  V30 1571 H 148.828 0.617057 0.550608 0
M  V30 1572 H 151.374 1.63344 0.460082 0
M  V30 1573 H 150.146 3.66278 1.37681 0
M  V30 1574 H 149.769 2.77708 2.84542 0
M  V30 1575 N 150.766 -0.704594 1.40972 0
M  V30 1576 C 151.698 -1.82974 1.38033 0
M  V30 1577 C 152.711 -1.60305 0.283931 0
M  V30 1578 O 153.9 -1.69975 0.545042 0
M  V30 1579 C 151 -3.19578 1.12795 0
M  V30 1580 C 150.173 -3.69352 2.34302 0
M  V30 1581 C 149.232 -4.84601 2.05058 0
M  V30 1582 O 148.258 -4.96682 2.7802 0
M  V30 1583 N 149.46 -5.71194 1.03528 0
M  V30 1584 H 152.225 -1.85991 2.35005 0
M  V30 1585 H 149.786 -0.886567 1.35468 0
M  V30 1586 H 151.778 -3.9429 0.911987 0
M  V30 1587 H 150.348 -3.11642 0.24452 0
M  V30 1588 H 149.568 -2.85649 2.71659 0
M  V30 1589 H 150.856 -3.99345 3.1528 0
M  V30 1590 H 150.254 -5.64054 0.431217 0
M  V30 1591 H 148.811 -6.45843 0.879205 0
M  V30 1592 N 152.244 -1.26651 -0.937939 0
M  V30 1593 C 153.521 -1.0313 -1.66204 0
M  V30 1594 C 153.901 0.437256 -2.06522 0
M  V30 1595 O 153.249 1.41831 -1.79154 0
M  V30 1596 C 153.459 -1.98314 -2.87181 0
M  V30 1597 C 154.807 -2.27107 -3.58758 0
M  V30 1598 O 155.831 -1.96205 -2.97291 0
M  V30 1599 O 154.69 -2.79736 -4.69479 0
M  V30 1600 H 151.784 -0.392384 -0.727986 0
M  V30 1601 H 154.33 -1.37874 -0.989382 0
M  V30 1602 H 153.102 -2.97399 -2.54302 0
M  V30 1603 H 152.725 -1.64068 -3.6217 0
M  V30 1604 N 153.722 1.14298 -1.08507 0
M  V30 1605 C 154.999 1.81544 -0.728088 0
M  V30 1606 C 155.379 1.95838 0.78808 0
M  V30 1607 O 154.727 1.51904 1.70697 0
M  V30 1608 C 154.937 3.17169 -1.45619 0
M  V30 1609 C 156.285 3.9265 -1.61591 0
M  V30 1610 O 157.309 3.26762 -1.41793 0
M  V30 1611 O 156.168 5.10807 -1.94263 0
M  V30 1612 H 153.262 0.78491 -0.260471 0
M  V30 1613 H 155.808 1.21307 -1.18671 0
M  V30 1614 H 154.58 3.01934 -2.489 0
M  V30 1615 H 154.203 3.851 -0.989124 0
M  V30 1616 N 155.201 0.870884 1.31352 0
M  V30 1617 C 156.131 0.343096 2.30966 0
M  V30 1618 C 157.112 -0.566507 1.60389 0
M  V30 1619 O 158.297 -0.483336 1.88089 0
M  V30 1620 C 155.427 -0.455487 3.443 0
M  V30 1621 C 154.381 0.361103 4.26474 0
M  V30 1622 C 153.707 -0.563221 5.31725 0
M  V30 1623 C 155.007 1.59566 4.97329 0
M  V30 1624 H 156.701 1.17548 2.75359 0
M  V30 1625 H 154.247 0.566686 1.32381 0
M  V30 1626 H 156.2 -0.83525 4.13039 0
M  V30 1627 H 154.924 -1.32139 2.98675 0
M  V30 1628 H 153.583 0.722825 3.59403 0
M  V30 1629 H 153.231 -1.42643 4.82351 0
M  V30 1630 H 152.931 -0.0207409 5.87596 0
M  V30 1631 H 154.455 -0.939808 6.03324 0
M  V30 1632 H 155.869 1.28728 5.58661 0
M  V30 1633 H 154.266 2.07728 5.63 0
M  V30 1634 H 155.336 2.34798 4.24262 0
M  V30 1635 N 156.679 -1.44442 0.630414 0
M  V30 1636 C 157.925 -2.02351 0.134816 0
M  V30 1637 C 158.258 -1.4947 -1.23986 0
M  V30 1638 O 157.533 -0.678475 -1.82283 0
M  V30 1639 C 157.816 -3.59898 0.120707 0
M  V30 1640 C 157.669 -4.23063 1.52767 0
M  V30 1641 C 158.988 -4.36585 -0.555127 0
M  V30 1642 H 156.107 -0.73527 0.0504646 0
M  V30 1643 H 158.749 -1.72022 0.806751 0
M  V30 1644 H 156.899 -3.85868 -0.451477 0
M  V30 1645 H 158.571 -4.08202 2.14869 0
M  V30 1646 H 156.814 -3.80586 2.08175 0
M  V30 1647 H 157.485 -5.32071 1.46984 0
M  V30 1648 H 159.961 -4.16044 -0.0685429 0
M  V30 1649 H 158.837 -5.46294 -0.534185 0
M  V30 1650 H 159.098 -4.11138 -1.62535 0
M  V30 1651 N 158.157 -0.370918 -1.53173 0
M  V30 1652 C 159.403 0.217423 -2.01631 0
M  V30 1653 C 159.736 1.47983 -1.25756 0
M  V30 1654 O 159.011 1.91274 -0.352764 0
M  V30 1655 C 159.294 0.503982 -3.56556 0
M  V30 1656 C 159.147 -0.77243 -4.43118 0
M  V30 1657 C 160.466 1.30234 -4.20389 0
M  V30 1658 H 157.585 0.0775486 -0.732909 0
M  V30 1659 H 160.227 -0.496863 -1.83388 0
M  V30 1660 H 158.377 1.11248 -3.72231 0
M  V30 1661 H 160.049 -1.4098 -4.39229 0
M  V30 1662 H 158.292 -1.39167 -4.10871 0
M  V30 1663 H 158.963 -0.526815 -5.4948 0
M  V30 1664 H 161.439 0.787546 -4.08579 0
M  V30 1665 H 160.315 1.47158 -5.28806 0
M  V30 1666 H 160.576 2.31237 -3.76805 0
M  V30 1667 N 159.635 1.57281 -0.100228 0
M  V30 1668 C 160.568 2.09976 0.893612 0
M  V30 1669 C 161.546 1.01155 1.27304 0
M  V30 1670 O 162.73 1.28687 1.37739 0
M  V30 1671 C 159.857 2.58098 2.19324 0
M  V30 1672 C 158.903 3.78626 1.96328 0
M  V30 1673 S 159.736 5.21959 1.19662 0
M  V30 1674 C 160.892 5.73435 2.50844 0
M  V30 1675 H 161.125 2.93946 0.44534 0
M  V30 1676 H 158.658 1.53985 0.113167 0
M  V30 1677 H 160.616 2.8648 2.94005 0
M  V30 1678 H 159.277 1.74344 2.61272 0
M  V30 1679 H 158.47 4.10382 2.92579 0
M  V30 1680 H 158.072 3.50763 1.29775 0
M  V30 1681 H 160.364 5.82015 3.46792 0
M  V30 1682 H 161.307 6.7185 2.23659 0
M  V30 1683 H 161.715 5.01395 2.59352 0
M  V30 1684 N 161.113 -0.173488 1.56642 0
M  V30 1685 C 162.36 -0.890465 1.81871 0
M  V30 1686 C 162.688 -1.82339 0.67696 0
M  V30 1687 O 161.943 -1.92795 -0.335926 0
M  V30 1688 C 162.242 -1.72069 3.13252 0
M  V30 1689 C 161.908 -0.936878 4.41059 0
M  V30 1690 C 160.57 -0.720545 4.75775 0
M  V30 1691 C 162.922 -0.386919 5.19762 0
M  V30 1692 C 160.25 0.0568829 5.86672 0
M  V30 1693 C 162.602 0.37741 6.31473 0
M  V30 1694 C 161.266 0.604563 6.64757 0
M  V30 1695 H 160.536 -0.325844 0.665512 0
M  V30 1696 H 163.183 -0.155527 1.90867 0
M  V30 1697 H 161.488 -2.52496 2.99588 0
M  V30 1698 H 163.185 -2.27844 3.29982 0
M  V30 1699 H 159.775 -1.11553 4.13828 0
M  V30 1700 H 163.959 -0.541398 4.93338 0
M  V30 1701 H 159.215 0.242635 6.10918 0
M  V30 1702 H 163.389 0.810825 6.91664 0
M  V30 1703 H 161.016 1.20885 7.50527 0
M  V30 1704 N 162.591 -1.51276 -0.441967 0
M  V30 1705 C 163.819 -1.67516 -1.21434 0
M  V30 1706 C 164.234 -0.37055 -1.85128 0
M  V30 1707 O 163.591 0.650498 -1.70513 0
M  V30 1708 C 163.642 -2.78748 -2.30177 0
M  V30 1709 O 163.363 -4.04154 -1.69089 0
M  V30 1710 C 164.864 -3.06217 -3.20541 0
M  V30 1711 H 162.084 -0.562276 -0.366178 0
M  V30 1712 H 164.628 -1.97666 -0.524244 0
M  V30 1713 H 162.783 -2.5121 -2.94911 0
M  V30 1714 H 163.197 -4.65894 -2.40922 0
M  V30 1715 H 164.671 -3.8764 -3.92987 0
M  V30 1716 H 165.148 -2.18439 -3.81026 0
M  V30 1717 H 165.754 -3.35397 -2.61513 0
M  V30 1718 N 164.069 0.697108 -1.41344 0
M  V30 1719 C 164.979 1.84088 -1.45427 0
M  V30 1720 C 165.995 1.70545 -0.34501 0
M  V30 1721 O 167.171 1.92488 -0.592492 0
M  V30 1722 C 164.236 3.20056 -1.33286 0
M  V30 1723 C 163.297 3.45718 -2.54514 0
M  V30 1724 C 162.53 4.75199 -2.42944 0
M  V30 1725 O 162.753 5.51579 -1.45318 0
M  V30 1726 O 161.687 5.0161 -3.32672 0
M  V30 1727 H 165.513 1.836 -2.41919 0
M  V30 1728 H 163.098 0.849966 -1.22866 0
M  V30 1729 H 164.98 4.01236 -1.28794 0
M  V30 1730 H 163.655 3.2123 -0.39909 0
M  V30 1731 H 162.562 2.64474 -2.64583 0
M  V30 1732 H 163.895 3.49356 -3.46715 0
M  V30 1733 N 165.547 1.27147 0.931209 0
M  V30 1734 C 166.787 1.14511 1.69312 0
M  V30 1735 C 167.151 -0.304638 1.89568 0
M  V30 1736 O 168.352 -0.553343 2.63043 0
M  V30 1737 C 166.623 1.90349 3.02493 0
M  V30 1738 S 168.182 1.93884 3.93642 0
M  V30 1739 H 165 0.408858 0.581684 0
M  V30 1740 H 167.602 1.61006 1.10893 0
M  V30 1741 H 166.306 2.94877 2.85439 0
M  V30 1742 H 165.837 1.44333 3.65966 0
M  V30 1743 H 167.852 1.03273 4.85334 0
M  V30 1744 N 167.025 -1.13721 1.09112 0
M  V30 1745 C 168.272 -1.84924 0.825192 0
M  V30 1746 C 168.6 -1.83347 -0.649151 0
M  V30 1747 O 167.855 -1.26449 -1.49362 0
M  V30 1748 C 168.154 -3.32861 1.30146 0
M  V30 1749 C 167.82 -3.54621 2.78486 0
M  V30 1750 C 166.482 -3.60268 3.18999 0
M  V30 1751 C 168.834 -3.62855 3.74146 0
M  V30 1752 C 166.162 -3.71679 4.53951 0
M  V30 1753 C 168.514 -3.75793 5.08883 0
M  V30 1754 C 167.178 -3.79692 5.4899 0
M  V30 1755 H 166.448 -0.676684 0.301959 0
M  V30 1756 H 169.095 -1.3428 1.36533 0
M  V30 1757 H 167.4 -3.85835 0.681064 0
M  V30 1758 H 169.097 -3.86395 1.07236 0
M  V30 1759 H 165.687 -3.50879 2.46134 0
M  V30 1760 H 169.871 -3.57775 3.43963 0
M  V30 1761 H 165.127 -3.72963 4.84467 0
M  V30 1762 H 169.301 -3.81107 5.82864 0
M  V30 1763 H 166.928 -3.88287 6.53558 0
M  V30 1764 N 168.503 -0.877838 -1.30888 0
M  V30 1765 C 169.78 -0.413052 -1.91189 0
M  V30 1766 C 170.16 1.1056 -1.79832 0
M  V30 1767 O 169.508 1.93771 -1.21099 0
M  V30 1768 C 169.718 -0.903191 -3.3711 0
M  V30 1769 C 171.066 -0.93395 -4.14201 0
M  V30 1770 O 172.09 -0.849373 -3.45925 0
M  V30 1771 O 170.949 -1.05772 -5.36167 0
M  V30 1772 H 168.043 -0.125035 -0.817493 0
M  V30 1773 H 170.589 -0.966269 -1.39504 0
M  V30 1774 H 169.361 -1.94692 -3.39427 0
M  V30 1775 H 168.984 -0.328732 -3.96239 0
M  V30 1776 N 169.982 1.44106 -0.638065 0
M  V30 1777 C 171.228 2.02277 -0.145546 0
M  V30 1778 C 171.561 1.50125 1.23191 0
M  V30 1779 O 170.836 0.688133 1.8192 0
M  V30 1780 C 171.119 3.59829 -0.139791 0
M  V30 1781 C 170.972 4.22247 -1.55008 0
M  V30 1782 C 172.291 4.36873 0.531966 0
M  V30 1783 H 169.41 0.734992 -0.0543632 0
M  V30 1784 H 172.052 1.71592 -0.815863 0
M  V30 1785 H 170.202 3.86102 0.431007 0
M  V30 1786 H 171.874 4.07057 -2.1703 0
M  V30 1787 H 170.117 3.79476 -2.10191 0
M  V30 1788 H 170.788 5.31284 -1.49804 0
M  V30 1789 H 173.264 4.16074 0.0464781 0
M  V30 1790 H 172.14 5.4657 0.505206 0
M  V30 1791 H 172.401 4.11995 1.60352 0
M  V30 1792 N 171.46 0.379036 1.52974 0
M  V30 1793 C 172.709 -0.207612 2.00629 0
M  V30 1794 C 173.022 -1.48758 1.27006 0
M  V30 1795 O 174.228 -2.15365 1.65318 0
M  V30 1796 C 172.684 -0.42053 3.57435 0
M  V30 1797 C 172.292 0.845587 4.39948 0
M  V30 1798 C 174.036 -0.964102 4.13407 0
M  V30 1799 C 171.943 0.601513 5.88333 0
M  V30 1800 H 170.873 -0.0813591 0.749598 0
M  V30 1801 H 173.524 0.499853 1.76561 0
M  V30 1802 H 171.906 -1.18959 3.7771 0
M  V30 1803 H 173.08 1.61848 4.31442 0
M  V30 1804 H 171.395 1.31336 3.95145 0
M  V30 1805 H 173.992 -1.16225 5.21916 0
M  V30 1806 H 174.335 -1.93019 3.68849 0
M  V30 1807 H 174.868 -0.25487 3.96983 0
M  V30 1808 H 171.607 1.53831 6.37194 0
M  V30 1809 H 171.127 -0.132628 5.99653 0
M  V30 1810 H 172.806 0.232134 6.46583 0
M  V30 1811 N 172.938 -1.57226 0.108567 0
M  V30 1812 C 174.185 -1.94833 -0.551943 0
M  V30 1813 C 174.513 -0.991204 -1.67348 0
M  V30 1814 O 173.768 -0.0131878 -1.95696 0
M  V30 1815 C 174.067 -3.38911 -1.13463 0
M  V30 1816 C 173.733 -4.50696 -0.135509 0
M  V30 1817 C 172.395 -4.80998 0.139252 0
M  V30 1818 C 174.747 -5.18333 0.545957 0
M  V30 1819 C 172.075 -5.76259 1.10194 0
M  V30 1820 C 174.427 -6.14627 1.49721 0
M  V30 1821 C 173.091 -6.43327 1.78006 0
M  V30 1822 H 172.361 -0.712944 -0.20197 0
M  V30 1823 H 175.008 -1.90582 0.18726 0
M  V30 1824 H 173.313 -3.39805 -1.95037 0
M  V30 1825 H 175.01 -3.65317 -1.65362 0
M  V30 1826 H 171.6 -4.27087 -0.359846 0
M  V30 1827 H 175.784 -4.95087 0.346842 0
M  V30 1828 H 171.04 -5.96804 1.32795 0
M  V30 1829 H 175.214 -6.66126 2.03099 0
M  V30 1830 H 172.841 -7.1695 2.52759 0
M  V30 1831 N 174.416 0.165178 -1.56732 0
M  V30 1832 C 175.379 1.18822 -1.95995 0
M  V30 1833 C 176.379 1.3685 -0.84431 0
M  V30 1834 O 177.569 1.34152 -1.11126 0
M  V30 1835 C 174.701 2.5521 -2.26011 0
M  V30 1836 H 175.894 0.851825 -2.87548 0
M  V30 1837 H 173.447 0.407857 -1.50885 0
M  V30 1838 H 174.182 2.93852 -1.37191 0
M  V30 1839 H 173.967 2.43489 -3.07336 0
M  V30 1840 H 175.457 3.28927 -2.57288 0
M  V30 1841 N 175.894 1.51508 0.433938 0
M  V30 1842 C 177.142 1.6402 1.18075 0
M  V30 1843 C 177.463 0.360328 1.91642 0
M  V30 1844 O 176.733 -0.623945 1.85698 0
M  V30 1845 H 175.313 0.6045 0.43885 0
M  V30 1846 H 177.975 1.88452 0.497178 0
M  V30 1847 H 177.071 2.46949 1.90847 0
M  V30 1848 N 177.372 -0.689602 1.41712 0
M  V30 1849 C 178.62 -1.4468 1.4111 0
M  V30 1850 C 178.941 -1.94986 0.0232196 0
M  V30 1851 O 178.211 -1.72097 -0.935913 0
M  V30 1852 H 176.791 -0.536847 0.519427 0
M  V30 1853 H 179.453 -0.815825 1.77004 0
M  V30 1854 H 178.549 -2.30706 2.10193 0
M  V30 1855 N 178.85 -1.27639 -0.924453 0
M  V30 1856 C 180.261 -1.12834 -1.48746 0
M  V30 1857 C 180.612 0.285505 -1.94112 0
M  V30 1858 O 179.737 1.17874 -1.81479 0
M  V30 1859 C 180.332 -2.04217 -2.70334 0
M  V30 1860 C 178.891 -1.93509 -3.22848 0
M  V30 1861 C 178.038 -1.96583 -1.95577 0
M  V30 1862 H 180.989 -1.40484 -0.738233 0
M  V30 1863 H 181.01 -1.59989 -3.4523 0
M  V30 1864 H 180.522 -3.07111 -2.37285 0
M  V30 1865 H 178.623 -0.936131 -3.60649 0
M  V30 1866 H 178.736 -2.79917 -3.88823 0
M  V30 1867 H 177.1 -1.4085 -2.12211 0
M  V30 1868 H 177.883 -3.01137 -1.64837 0
M  V30 1869 N 180.328 1.1314 -1.09713 0
M  V30 1870 C 181.238 2.22242 -0.751367 0
M  V30 1871 C 182.254 1.72224 0.247938 0
M  V30 1872 O 183.43 2.01205 0.0885463 0
M  V30 1873 C 180.495 3.46231 -0.180274 0
M  V30 1874 C 179.556 4.11125 -1.2359 0
M  V30 1875 C 178.789 5.29195 -0.691966 0
M  V30 1876 O 179.012 5.68342 0.48414 0
M  V30 1877 O 177.946 5.84214 -1.44838 0
M  V30 1878 H 181.772 2.54197 -1.66186 0
M  V30 1879 H 179.357 1.21331 -0.871735 0
M  V30 1880 H 181.239 4.21185 0.134739 0
M  V30 1881 H 179.914 3.1597 0.703185 0
M  V30 1882 H 178.821 3.37985 -1.60366 0
M  V30 1883 H 180.154 4.45524 -2.09211 0
M  V30 1884 N 181.806 0.884767 1.30421 0
M  V30 1885 C 182.716 0.355398 2.31892 0
M  V30 1886 C 183.732 -0.542261 1.65335 0
M  V30 1887 O 184.908 -0.435432 1.96637 0
M  V30 1888 C 181.973 -0.421661 3.44126 0
M  V30 1889 C 181.034 0.505727 4.26311 0
M  V30 1890 C 180.267 -0.234343 5.33185 0
M  V30 1891 O 180.49 -1.46045 5.51386 0
M  V30 1892 O 179.424 0.415443 6.00465 0
M  V30 1893 H 183.25 1.19685 2.79122 0
M  V30 1894 H 180.835 0.648596 1.34587 0
M  V30 1895 H 182.717 -0.861641 4.12497 0
M  V30 1896 H 181.392 -1.23942 2.99032 0
M  V30 1897 H 180.299 0.994513 3.60639 0
M  V30 1898 H 181.632 1.28948 4.75009 0
M  V30 1899 N 183.284 -1.43765 0.645699 0
M  V30 1900 C 184.53 -2.02197 0.156271 0
M  V30 1901 C 184.863 -1.50776 -1.22393 0
M  V30 1902 O 184.138 -0.697771 -1.81553 0
M  V30 1903 C 184.421 -3.59749 0.158872 0
M  V30 1904 C 184.274 -4.21419 1.57245 0
M  V30 1905 C 185.593 -4.37149 -0.50879 0
M  V30 1906 H 182.712 -0.734694 0.0582602 0
M  V30 1907 H 185.354 -1.71157 0.824951 0
M  V30 1908 H 183.504 -3.86325 -0.410525 0
M  V30 1909 H 185.176 -4.059 2.19186 0
M  V30 1910 H 183.419 -3.78356 2.122 0
M  V30 1911 H 184.09 -5.30482 1.52619 0
M  V30 1912 H 186.566 -4.16093 -0.024412 0
M  V30 1913 H 185.442 -5.4683 -0.476213 0
M  V30 1914 H 185.703 -4.12839 -1.58165 0
M  V30 1915 N 184.763 -0.387143 -1.52771 0
M  V30 1916 C 185.693 0.440551 -2.29306 0
M  V30 1917 C 186.674 1.06535 -1.32606 0
M  V30 1918 O 187.859 1.07853 -1.61497 0
M  V30 1919 C 184.989 1.56919 -3.09829 0
M  V30 1920 C 183.943 1.07054 -4.14395 0
M  V30 1921 C 183.269 2.29109 -4.83129 0
M  V30 1922 C 184.569 0.140015 -5.22112 0
M  V30 1923 H 186.263 -0.198026 -2.98744 0
M  V30 1924 H 183.809 -0.09668 -1.43675 0
M  V30 1925 H 185.762 2.15503 -3.62128 0
M  V30 1926 H 184.486 2.23532 -2.3812 0
M  V30 1927 H 183.145 0.507247 -3.63074 0
M  V30 1928 H 182.793 2.94227 -4.0797 0
M  V30 1929 H 182.493 1.96406 -5.53804 0
M  V30 1930 H 184.017 2.88339 -5.38231 0
M  V30 1931 H 185.431 0.633978 -5.69784 0
M  V30 1932 H 183.828 -0.0971485 -6.00021 0
M  V30 1933 H 184.898 -0.811711 -4.78058 0
M  V30 1934 N 186.241 1.57166 -0.116904 0
M  V30 1935 C 187.188 2.15202 0.83408 0
M  V30 1936 C 188.158 1.07644 1.26499 0
M  V30 1937 O 189.343 1.35541 1.34288 0
M  V30 1938 C 186.483 2.75405 2.07957 0
M  V30 1939 C 185.596 3.97264 1.69721 0
M  V30 1940 C 184.731 4.45561 2.89221 0
M  V30 1941 C 183.77 5.59956 2.47215 0
M  V30 1942 N 182.907 6.03006 3.59622 0
M  V30 1943 H 187.747 2.96141 0.332335 0
M  V30 1944 H 185.284 1.46309 0.152349 0
M  V30 1945 H 187.242 3.08439 2.80929 0
M  V30 1946 H 185.872 1.97159 2.55594 0
M  V30 1947 H 184.924 3.70404 0.866316 0
M  V30 1948 H 186.236 4.80226 1.34849 0
M  V30 1949 H 185.39 4.80493 3.7042 0
M  V30 1950 H 184.129 3.61544 3.27318 0
M  V30 1951 H 183.134 5.2463 1.64448 0
M  V30 1952 H 184.359 6.45738 2.10238 0
M  V30 1953 H 182.305 5.21931 3.97396 0
M  V30 1954 H 182.222 6.80819 3.28667 0
M  V30 1955 H 183.49 6.42576 4.41267 0
M  V30 1956 N 187.719 -0.156864 1.56817 0
M  V30 1957 C 188.666 -1.19394 1.97519 0
M  V30 1958 C 189.636 -1.4322 0.841265 0
M  V30 1959 O 190.821 -1.55719 1.10255 0
M  V30 1960 C 187.961 -2.52483 2.35258 0
M  V30 1961 C 187.074 -2.35914 3.61896 0
M  V30 1962 C 186.209 -3.61969 3.88782 0
M  V30 1963 C 185.248 -3.40395 5.08722 0
M  V30 1964 N 184.385 -4.58556 5.31668 0
M  V30 1965 H 189.225 -0.839845 2.85921 0
M  V30 1966 H 186.762 -0.403264 1.41464 0
M  V30 1967 H 188.72 -3.30071 2.55165 0
M  V30 1968 H 187.35 -2.85859 1.49949 0
M  V30 1969 H 186.402 -1.49429 3.49821 0
M  V30 1970 H 187.714 -2.15926 4.49641 0
M  V30 1971 H 186.868 -4.47989 4.09135 0
M  V30 1972 H 185.607 -3.84951 2.9944 0
M  V30 1973 H 184.612 -2.52763 4.88253 0
M  V30 1974 H 185.837 -3.18822 5.99608 0
M  V30 1975 H 183.783 -4.81729 4.45279 0
M  V30 1976 H 183.7 -4.41535 6.13664 0
M  V30 1977 H 184.968 -5.45817 5.5651 0
M  V30 1978 N 189.197 -1.51736 -0.425897 0
M  V30 1979 C 190.444 -1.6497 -1.17436 0
M  V30 1980 C 190.772 -0.371445 -1.9092 0
M  V30 1981 O 190.027 0.644963 -1.84767 0
M  V30 1982 C 190.326 -2.81103 -2.20717 0
M  V30 1983 C 189.992 -4.19954 -1.64162 0
M  V30 1984 C 188.654 -4.57725 -1.48462 0
M  V30 1985 C 191.006 -5.06552 -1.22696 0
M  V30 1986 C 188.334 -5.79789 -0.897873 0
M  V30 1987 C 190.686 -6.29205 -0.654464 0
M  V30 1988 C 189.35 -6.6574 -0.484456 0
M  V30 1989 H 188.62 -0.603668 -0.429727 0
M  V30 1990 H 191.267 -1.85798 -0.463829 0
M  V30 1991 H 189.572 -2.54542 -2.97852 0
M  V30 1992 H 191.269 -2.8854 -2.78471 0
M  V30 1993 H 187.859 -3.90181 -1.77361 0
M  V30 1994 H 192.043 -4.77968 -1.33642 0
M  V30 1995 H 187.299 -6.06733 -0.75402 0
M  V30 1996 H 191.473 -6.95643 -0.324694 0
M  V30 1997 H 189.1 -7.60195 -0.0276833 0
M  V30 1998 N 190.675 0.682077 -1.42076 0
M  V30 1999 C 191.607 1.80755 -1.40926 0
M  V30 2000 C 192.62 1.59833 -0.309398 0
M  V30 2001 O 193.809 1.69087 -0.572014 0
M  V30 2002 C 190.909 3.17744 -1.17865 0
M  V30 2003 C 190.082 3.65578 -2.40149 0
M  V30 2004 C 189.141 4.81277 -2.12742 0
M  V30 2005 O 188.167 4.92197 -2.85887 0
M  V30 2006 N 189.369 5.69474 -1.12602 0
M  V30 2007 H 192.134 1.82229 -2.37935 0
M  V30 2008 H 189.695 0.864903 -1.36861 0
M  V30 2009 H 191.687 3.9279 -0.9746 0
M  V30 2010 H 190.257 3.11214 -0.294068 0
M  V30 2011 H 189.477 2.81291 -2.76169 0
M  V30 2012 H 190.765 3.94278 -3.21593 0
M  V30 2013 H 190.163 5.63297 -0.520899 0
M  V30 2014 H 188.72 6.44363 -0.981842 0
M  V30 2015 N 192.153 1.28127 0.917671 0
M  V30 2016 C 193.1 1.11717 2.0196 0
M  V30 2017 C 194.07 0.0153929 1.66093 0
M  V30 2018 O 195.255 0.179596 1.89953 0
M  V30 2019 C 192.395 0.780927 3.36148 0
M  V30 2020 C 191.508 1.96135 3.84909 0
M  V30 2021 C 190.643 1.56609 5.0759 0
M  V30 2022 C 189.682 2.71339 5.48673 0
M  V30 2023 N 188.819 2.32332 6.62545 0
M  V30 2024 H 193.659 2.06003 2.15329 0
M  V30 2025 H 191.196 1.02535 1.05475 0
M  V30 2026 H 193.154 0.56675 4.13333 0
M  V30 2027 H 191.784 -0.124998 3.22558 0
M  V30 2028 H 190.836 2.28777 3.03916 0
M  V30 2029 H 192.148 2.82165 4.1132 0
M  V30 2030 H 191.302 1.31374 5.92305 0
M  V30 2031 H 190.041 0.677014 4.82978 0
M  V30 2032 H 189.046 2.97276 4.62501 0
M  V30 2033 H 190.271 3.60882 5.75274 0
M  V30 2034 H 188.217 1.45889 6.39572 0
M  V30 2035 H 188.134 3.11899 6.88662 0
M  V30 2036 H 189.402 2.10371 7.50576 0
M  V30 2037 N 193.631 -1.12557 1.10312 0
M  V30 2038 C 194.594 -2.16434 0.75424 0
M  V30 2039 C 195.594 -1.59278 -0.220685 0
M  V30 2040 O 196.784 -1.742 0.00230591 0
M  V30 2041 C 193.916 -3.40699 0.116987 0
M  V30 2042 H 195.109 -2.48811 1.67431 0
M  V30 2043 H 192.662 -1.27542 0.903475 0
M  V30 2044 H 193.397 -3.13921 -0.813877 0
M  V30 2045 H 193.182 -3.83459 0.818613 0
M  V30 2046 H 194.672 -4.17451 -0.111387 0
M  V30 2047 N 195.109 -0.891671 -1.2995 0
M  V30 2048 C 196.057 -0.353066 -2.29905 0
M  V30 2049 C 197.051 0.543509 -1.60444 0
M  V30 2050 O 198.257 0.4272 -1.74857 0
M  V30 2051 H 194.632 -0.095531 -0.745907 0
M  V30 2052 H 196.603 -1.20961 -2.72784 0
M  V30 2053 C 195.352 0.411475 -3.45257 0
M  V30 2054 H 194.675 -0.269182 -3.98893 0
M  V30 2055 H 196.115 0.753328 -4.17254 0
M  V30 2056 C 194.574 1.6111 -2.9588 0
M  V30 2057 O 195.104 2.71045 -2.96475 0
M  V30 2058 N 193.31 1.45054 -2.51809 0
M  V30 2059 H 192.857 0.556175 -2.51524 0
M  V30 2060 H 192.815 2.25453 -2.1913 0
M  V30 2061 N 196.587 1.43421 -0.653314 0
M  V30 2062 C 197.537 2.2792 0.060558 0
M  V30 2063 C 198.521 1.39906 0.794677 0
M  V30 2064 O 199.713 1.63536 0.677128 0
M  V30 2065 C 196.842 3.27603 1.0262 0
M  V30 2066 C 195.928 4.23104 0.290551 0
M  V30 2067 N 196.319 5.01031 -0.692967 0
M  V30 2068 C 194.617 4.42816 0.531984 0
M  V30 2069 C 195.318 5.70626 -1.12963 0
M  V30 2070 N 194.294 5.41617 -0.463867 0
M  V30 2071 H 198.096 2.85585 -0.694143 0
M  V30 2072 H 195.61 1.55126 -0.480602 0
M  V30 2073 H 197.607 3.86918 1.55242 0
M  V30 2074 H 196.267 2.71499 1.78096 0
M  V30 2075 H 197.278 5.0669 -1.07169 0
M  V30 2076 H 193.955 3.97782 1.26791 0
M  V30 2077 H 195.345 6.4318 -1.94343 0
M  V30 2078 N 198.065 0.39524 1.52563 0
M  V30 2079 C 199.012 -0.437036 2.26624 0
M  V30 2080 C 199.982 -1.05281 1.28472 0
M  V30 2081 O 201.167 -1.07971 1.57311 0
M  V30 2082 C 198.307 -1.55524 3.08069 0
M  V30 2083 C 197.42 -0.961745 4.21158 0
M  V30 2084 C 196.555 -2.05149 4.89987 0
M  V30 2085 C 195.594 -1.4342 5.95061 0
M  V30 2086 N 194.731 -2.46351 6.57462 0
M  V30 2087 H 199.571 0.200976 2.97322 0
M  V30 2088 H 197.108 0.110944 1.46681 0
M  V30 2089 H 199.066 -2.21437 3.53584 0
M  V30 2090 H 197.696 -2.16348 2.3957 0
M  V30 2091 H 196.748 -0.192048 3.79915 0
M  V30 2092 H 198.06 -0.470701 4.96574 0
M  V30 2093 H 197.214 -2.78819 5.38837 0
M  V30 2094 H 195.953 -2.57615 4.14109 0
M  V30 2095 H 194.958 -0.682774 5.45544 0
M  V30 2096 H 196.183 -0.917416 6.72875 0
M  V30 2097 H 194.129 -2.97975 5.8442 0
M  V30 2098 H 194.046 -2.02019 7.28508 0
M  V30 2099 H 195.314 -3.19633 7.10954 0
M  V30 2100 N 199.544 -1.57102 0.125237 0
M  V30 2101 C 200.79 -1.95697 -0.532035 0
M  V30 2102 C 201.123 -1.009 -1.6593 0
M  V30 2103 O 200.398 -0.047347 -1.94442 0
M  V30 2104 C 200.681 -3.44181 -1.05884 0
M  V30 2105 C 200.534 -4.49752 0.0654392 0
M  V30 2106 C 201.853 -3.94655 -1.9477 0
M  V30 2107 H 198.972 -0.711571 -0.191925 0
M  V30 2108 H 201.614 -1.88923 0.20206 0
M  V30 2109 H 199.764 -3.50085 -1.68442 0
M  V30 2110 H 201.436 -4.55943 0.700982 0
M  V30 2111 H 199.679 -4.27653 0.727709 0
M  V30 2112 H 200.35 -5.50924 -0.344505 0
M  V30 2113 H 202.826 -3.91094 -1.42074 0
M  V30 2114 H 201.702 -4.99057 -2.28546 0
M  V30 2115 H 201.963 -3.35718 -2.87656 0
M  V30 2116 N 201.022 0.148545 -1.56898 0
M  V30 2117 C 202.268 0.862694 -1.83536 0
M  V30 2118 C 202.601 1.80889 -0.706604 0
M  V30 2119 O 201.876 1.92328 0.289885 0
M  V30 2120 C 202.159 1.63853 -3.20662 0
M  V30 2121 C 202.012 0.713925 -4.44098 0
M  V30 2122 C 203.331 2.60133 -3.54991 0
M  V30 2123 H 200.45 0.312179 -0.667618 0
M  V30 2124 H 203.092 0.127953 -1.89569 0
M  V30 2125 H 201.242 2.26489 -3.1565 0
M  V30 2126 H 202.914 0.098686 -4.61194 0
M  V30 2127 H 201.157 0.0234019 -4.33794 0
M  V30 2128 H 201.828 1.29278 -5.36648 0
M  V30 2129 H 204.304 2.07616 -3.60603 0
M  V30 2130 H 203.18 3.11468 -4.51972 0
M  V30 2131 H 203.441 3.41417 -2.80868 0
M  V30 2132 N 202.5 1.5196 0.417844 0
M  V30 2133 C 203.747 1.65591 1.16559 0
M  V30 2134 C 204.075 0.381565 1.90721 0
M  V30 2135 O 203.33 -0.635156 1.85106 0
M  V30 2136 C 203.629 2.82269 2.19223 0
M  V30 2137 C 203.295 4.20819 1.61933 0
M  V30 2138 C 201.957 4.58506 1.46033 0
M  V30 2139 C 204.309 5.07196 1.20008 0
M  V30 2140 C 201.637 5.80257 0.867113 0
M  V30 2141 C 203.989 6.29544 0.621086 0
M  V30 2142 C 202.653 6.65987 0.449144 0
M  V30 2143 H 201.923 0.605939 0.42652 0
M  V30 2144 H 204.57 1.86041 0.45397 0
M  V30 2145 H 202.875 2.56118 2.96498 0
M  V30 2146 H 204.572 2.90012 2.76936 0
M  V30 2147 H 201.162 3.91116 1.7529 0
M  V30 2148 H 205.346 4.7867 1.31105 0
M  V30 2149 H 200.602 6.07124 0.721833 0
M  V30 2150 H 204.776 6.95805 0.287798 0
M  V30 2151 H 202.403 7.60199 -0.012632 0
M  V30 2152 N 203.978 -0.674533 1.42435 0
M  V30 2153 C 204.941 -1.76986 1.45632 0
M  V30 2154 C 205.941 -1.5708 0.343871 0
M  V30 2155 O 207.131 -1.63367 0.604709 0
M  V30 2156 C 204.263 -3.15623 1.28822 0
M  V30 2157 H 205.456 -1.75539 2.43158 0
M  V30 2158 H 203.009 -0.884189 1.28887 0
M  V30 2159 H 203.744 -3.22696 0.322193 0
M  V30 2160 H 203.529 -3.31475 2.09444 0
M  V30 2161 H 205.019 -3.95537 1.33942 0
M  V30 2162 N 205.456 -1.28612 -0.910864 0
M  V30 2163 C 206.419 -1.12803 -1.9952 0
M  V30 2164 C 207.419 -0.0668264 -1.60661 0
M  V30 2165 O 208.609 -0.312847 -1.71368 0
M  V30 2166 C 205.741 -0.72254 -3.33155 0
M  V30 2167 H 206.934 -2.09109 -2.14973 0
M  V30 2168 H 204.487 -1.11639 -1.09391 0
M  V30 2169 H 205.222 0.241152 -3.23402 0
M  V30 2170 H 205.007 -1.48916 -3.62721 0
M  V30 2171 H 206.497 -0.634666 -4.12749 0
M  V30 2172 N 206.934 1.1197 -1.10907 0
M  V30 2173 C 208.211 1.79959 -0.766432 0
M  V30 2174 C 208.591 1.97466 0.746363 0
M  V30 2175 O 207.939 1.55491 1.67436 0
M  V30 2176 C 208.149 3.14009 -1.52314 0
M  V30 2177 C 209.497 3.89134 -1.69883 0
M  V30 2178 O 210.521 3.2368 -1.48692 0
M  V30 2179 O 209.38 5.06572 -2.05054 0
M  V30 2180 H 206.474 0.779208 -0.277062 0
M  V30 2181 H 209.02 1.18762 -1.21217 0
M  V30 2182 H 207.792 2.96587 -2.55249 0
M  V30 2183 H 207.415 3.82915 -1.07059 0
M  V30 2184 N 208.412 0.89855 1.29475 0
M  V30 2185 C 209.66 0.522847 1.9522 0
M  V30 2186 C 209.981 -0.93371 1.71192 0
M  V30 2187 O 209.251 -1.65823 1.04305 0
M  V30 2188 H 207.831 0.190366 0.722336 0
M  V30 2189 H 210.493 1.14459 1.5775 0
M  V30 2190 H 209.589 0.704476 3.04045 0
M  V30 2191 N 209.89 -1.43072 0.660911 0
M  V30 2192 C 211.139 -2.00942 0.174735 0
M  V30 2193 C 211.452 -1.52797 -1.22117 0
M  V30 2194 O 212.658 -2.02991 -1.80297 0
M  V30 2195 C 211.114 -3.58948 0.261559 0
M  V30 2196 C 210.722 -4.16085 1.66064 0
M  V30 2197 C 212.466 -4.24173 -0.166617 0
M  V30 2198 C 210.373 -5.6641 1.70098 0
M  V30 2199 H 209.303 -0.751483 0.0615631 0
M  V30 2200 H 211.954 -1.63955 0.824069 0
M  V30 2201 H 210.336 -3.93372 -0.455421 0
M  V30 2202 H 211.51 -3.93147 2.40359 0
M  V30 2203 H 209.825 -3.6326 2.03546 0
M  V30 2204 H 212.422 -5.34471 -0.156433 0
M  V30 2205 H 212.765 -3.98647 -1.19943 0
M  V30 2206 H 213.298 -3.94659 0.498875 0
M  V30 2207 H 210.037 -5.96715 2.71315 0
M  V30 2208 H 209.557 -5.91382 1.00139 0
M  V30 2209 H 211.236 -6.30585 1.44816 0
M  V30 2210 N 211.368 -0.403325 -1.52352 0
M  V30 2211 C 212.298 0.416205 -2.29761 0
M  V30 2212 C 213.279 1.05123 -1.33728 0
M  V30 2213 O 214.464 1.06134 -1.62632 0
M  V30 2214 C 211.594 1.53624 -3.11475 0
M  V30 2215 C 210.548 1.02653 -4.15507 0
M  V30 2216 C 209.874 2.23971 -4.85532 0
M  V30 2217 C 211.174 0.08463 -5.22231 0
M  V30 2218 H 212.868 -0.229701 -2.98518 0
M  V30 2219 H 210.414 -0.111913 -1.43564 0
M  V30 2220 H 212.367 2.1165 -3.64393 0
M  V30 2221 H 211.091 2.20994 -2.40477 0
M  V30 2222 H 209.75 0.46871 -3.63591 0
M  V30 2223 H 209.398 2.89883 -4.11068 0
M  V30 2224 H 209.098 1.90521 -5.55856 0
M  V30 2225 H 210.622 2.82614 -5.41259 0
M  V30 2226 H 212.036 0.573509 -5.70424 0
M  V30 2227 H 210.433 -0.160783 -5.99885 0
M  V30 2228 H 211.503 -0.86237 -4.7717 0
M  V30 2229 N 212.846 1.57033 -0.133567 0
M  V30 2230 C 214.092 1.96764 0.515326 0
M  V30 2231 C 214.447 1.01653 1.63353 0
M  V30 2232 O 213.74 0.0491374 1.91537 0
M  V30 2233 C 213.934 3.40674 1.08057 0
M  V30 2234 C 213.763 4.49696 0.0186522 0
M  V30 2235 C 212.533 5.03567 -0.418174 0
M  V30 2236 C 214.731 5.08536 -0.767809 0
M  V30 2237 N 212.713 5.9618 -1.46434 0
M  V30 2238 C 214.084 5.97231 -1.6648 0
M  V30 2239 C 216.139 4.9115 -0.817087 0
M  V30 2240 C 214.842 6.70401 -2.60681 0
M  V30 2241 C 216.868 5.65012 -1.74687 0
M  V30 2242 C 216.23 6.53403 -2.63141 0
M  V30 2243 H 212.329 0.765919 0.157771 0
M  V30 2244 H 214.913 1.93395 -0.22506 0
M  V30 2245 H 213.084 3.44662 1.79061 0
M  V30 2246 H 214.816 3.67495 1.69497 0
M  V30 2247 H 211.571 4.73594 -0.0229803 0
M  V30 2248 H 211.995 6.47191 -1.98678 0
M  V30 2249 H 216.637 4.22543 -0.147326 0
M  V30 2250 H 214.355 7.38245 -3.28664 0
M  V30 2251 H 217.941 5.53559 -1.79063 0
M  V30 2252 H 216.821 7.09556 -3.33917 0
M  V30 2253 N 214.325 -0.140222 1.56975 0
M  V30 2254 C 215.736 -0.699596 1.73097 0
M  V30 2255 C 216.087 -1.8134 0.749022 0
M  V30 2256 O 215.212 -2.16241 -0.0828503 0
M  V30 2257 C 215.807 -1.27582 3.1386 0
M  V30 2258 C 214.366 -1.78169 3.31561 0
M  V30 2259 C 213.513 -0.672855 2.69013 0
M  V30 2260 H 216.464 0.0855115 1.58469 0
M  V30 2261 H 216.485 -2.14561 3.14235 0
M  V30 2262 H 215.997 -0.464955 3.85305 0
M  V30 2263 H 214.098 -2.61801 2.65124 0
M  V30 2264 H 214.211 -1.90574 4.39566 0
M  V30 2265 H 212.575 -1.10118 2.29665 0
M  V30 2266 H 213.358 0.126679 3.43066 0
M  V30 2267 N 215.803 -1.52179 -0.40978 0
M  V30 2268 C 217.08 -1.56769 -1.16974 0
M  V30 2269 C 217.46 -0.348322 -2.08206 0
M  V30 2270 O 216.808 0.664862 -2.18613 0
M  V30 2271 C 217.018 -2.89603 -1.9476 0
M  V30 2272 C 218.366 -3.42579 -2.50849 0
M  V30 2273 O 219.39 -2.91338 -2.04941 0
M  V30 2274 O 218.249 -4.32054 -3.34652 0
M  V30 2275 H 215.343 -0.631439 -0.534054 0
M  V30 2276 H 217.889 -1.64507 -0.416613 0
M  V30 2277 H 216.661 -3.698 -1.27921 0
M  V30 2278 H 216.284 -2.85155 -2.77079 0
M  V30 2279 N 217.281 0.66697 -1.42791 0
M  V30 2280 C 218.228 1.7803 -1.4688 0
M  V30 2281 C 219.198 1.6299 -0.319919 0
M  V30 2282 O 220.383 1.83432 -0.525118 0
M  V30 2283 C 217.523 3.1611 -1.38451 0
M  V30 2284 C 216.636 3.42381 -2.63437 0
M  V30 2285 C 215.771 4.70232 -2.47094 0
M  V30 2286 C 214.81 4.89564 -3.67415 0
M  V30 2287 N 213.947 6.08661 -3.49966 0
M  V30 2288 H 218.787 1.7387 -2.42019 0
M  V30 2289 H 216.324 0.84868 -1.20149 0
M  V30 2290 H 218.282 3.95914 -1.31561 0
M  V30 2291 H 216.912 3.19374 -0.469033 0
M  V30 2292 H 215.964 2.56774 -2.80662 0
M  V30 2293 H 217.276 3.52557 -3.52853 0
M  V30 2294 H 216.43 5.5814 -2.37834 0
M  V30 2295 H 215.169 4.62353 -1.5518 0
M  V30 2296 H 214.174 4.00096 -3.77099 0
M  V30 2297 H 215.399 4.99282 -4.6032 0
M  V30 2298 H 213.345 6.0194 -2.60776 0
M  V30 2299 H 213.262 6.19733 -4.32975 0
M  V30 2300 H 214.53 6.99226 -3.44532 0
M  V30 2301 N 218.759 1.29093 0.90403 0
M  V30 2302 C 220.175 1.07011 1.1841 0
M  V30 2303 C 220.375 -0.181358 2.00682 0
M  V30 2304 O 219.431 -0.880331 2.36657 0
M  V30 2305 C 220.744 2.32311 1.90924 0
M  V30 2306 C 222.292 2.37587 2.03768 0
M  V30 2307 C 222.767 3.62679 2.79693 0
M  V30 2308 N 224.258 3.63376 2.87249 0
M  V30 2309 C 224.993 4.56848 3.46522 0
M  V30 2310 N 224.489 5.60648 4.06996 0
M  V30 2311 N 226.282 4.44426 3.44154 0
M  V30 2312 H 218.433 2.09412 0.354993 0
M  V30 2313 H 220.696 0.922181 0.219742 0
M  V30 2314 H 220.402 3.23536 1.37905 0
M  V30 2315 H 220.276 2.39483 2.91424 0
M  V30 2316 H 222.663 1.46853 2.55965 0
M  V30 2317 H 222.744 2.34403 1.02415 0
M  V30 2318 H 222.388 4.53762 2.28173 0
M  V30 2319 H 222.318 3.63119 3.81381 0
M  V30 2320 H 224.809 2.88321 2.44293 0
M  V30 2321 H 225.122 6.28101 4.50232 0
M  V30 2322 H 223.467 5.64463 4.05471 0
M  V30 2323 H 226.658 3.62529 2.96126 0
M  V30 2324 H 226.831 5.17457 3.90054 0
M  V30 2325 N 220.237 -1.11381 1.11499 0
M  V30 2326 C 221.167 -2.19509 0.796125 0
M  V30 2327 C 222.148 -1.68458 -0.235796 0
M  V30 2328 O 223.333 -1.93947 -0.0991344 0
M  V30 2329 C 220.463 -3.46475 0.239205 0
M  V30 2330 C 219.417 -4.10744 1.20307 0
M  V30 2331 C 218.743 -5.32293 0.50683 0
M  V30 2332 C 220.043 -4.55597 2.55399 0
M  V30 2333 H 221.737 -2.46439 1.70024 0
M  V30 2334 H 219.283 -1.18446 0.818935 0
M  V30 2335 H 221.236 -4.214 0.00392006 0
M  V30 2336 H 219.96 -3.19006 -0.700206 0
M  V30 2337 H 218.619 -3.37813 1.42399 0
M  V30 2338 H 218.267 -5.01095 -0.437408 0
M  V30 2339 H 217.967 -5.76243 1.1497 0
M  V30 2340 H 219.491 -6.09956 0.280351 0
M  V30 2341 H 220.905 -5.21841 2.37391 0
M  V30 2342 H 219.302 -5.10363 3.15673 0
M  V30 2343 H 220.372 -3.69013 3.14575 0
M  V30 2344 N 221.715 -0.905404 -1.28997 0
M  V30 2345 C 222.678 -0.392253 -2.25819 0
M  V30 2346 C 223.678 0.476753 -1.5357 0
M  V30 2347 O 224.868 0.280994 -1.71919 0
M  V30 2348 C 222 0.438588 -3.38067 0
M  V30 2349 H 223.193 -1.24743 -2.72725 0
M  V30 2350 H 220.746 -0.684051 -1.40536 0
M  V30 2351 H 221.481 1.31352 -2.96508 0
M  V30 2352 H 221.266 -0.184167 -3.91667 0
M  V30 2353 H 222.756 0.78873 -4.10084 0
M  V30 2354 N 223.193 1.4272 -0.668489 0
M  V30 2355 C 224.47 1.95248 -0.117373 0
M  V30 2356 C 224.85 1.60919 1.36632 0
M  V30 2357 O 224.198 0.902095 2.09939 0
M  V30 2358 C 224.408 3.46927 -0.379806 0
M  V30 2359 C 225.756 4.23588 -0.292923 0
M  V30 2360 O 226.78 3.5482 -0.313204 0
M  V30 2361 O 225.639 5.46017 -0.229697 0
M  V30 2362 H 222.733 0.827 0.00079152 0
M  V30 2363 H 225.279 1.52581 -0.742783 0
M  V30 2364 H 224.051 3.65096 -1.40786 0
M  V30 2365 H 223.674 3.96627 0.277923 0
M  V30 2366 N 224.671 0.411399 1.52136 0
M  V30 2367 C 225.618 -0.412975 2.27075 0
M  V30 2368 C 226.588 -1.03912 1.29582 0
M  V30 2369 O 227.773 -1.06296 1.58448 0
M  V30 2370 C 224.913 -1.52247 3.09701 0
M  V30 2371 C 224.026 -0.917021 4.22155 0
M  V30 2372 C 223.161 -1.9994 4.92135 0
M  V30 2373 C 222.2 -1.37101 5.96548 0
M  V30 2374 N 221.337 -2.39364 6.60038 0
M  V30 2375 H 226.177 0.232499 2.97092 0
M  V30 2376 H 223.714 0.126496 1.46555 0
M  V30 2377 H 225.672 -2.17674 3.55913 0
M  V30 2378 H 224.302 -2.13794 2.41851 0
M  V30 2379 H 223.354 -0.151742 3.80097 0
M  V30 2380 H 224.666 -0.418006 4.97045 0
M  V30 2381 H 223.82 -2.73088 5.41763 0
M  V30 2382 H 222.559 -2.53208 4.16818 0
M  V30 2383 H 221.564 -0.624873 5.46237 0
M  V30 2384 H 222.789 -0.845998 6.7381 0
M  V30 2385 H 220.735 -2.91759 5.87548 0
M  V30 2386 H 220.652 -1.9428 7.3061 0
M  V30 2387 H 221.92 -3.12074 7.14304 0
M  V30 2388 N 226.149 -1.5696 0.141893 0
M  V30 2389 C 227.379 -2.00031 -0.516828 0
M  V30 2390 C 227.787 -1.02091 -1.59293 0
M  V30 2391 O 227.13 -0.00909657 -1.83698 0
M  V30 2392 C 227.192 -3.39534 -1.1814 0
M  V30 2393 C 226.856 -4.56313 -0.250513 0
M  V30 2394 C 227.853 -5.17295 0.519839 0
M  V30 2395 C 225.538 -5.02061 -0.154907 0
M  V30 2396 C 227.532 -6.2243 1.3733 0
M  V30 2397 C 225.219 -6.07053 0.702161 0
M  V30 2398 C 226.217 -6.67106 1.46487 0
M  V30 2399 O 225.905 -7.70066 2.30767 0
M  V30 2400 H 225.637 -0.661451 -0.139493 0
M  V30 2401 H 228.191 -2.04086 0.231926 0
M  V30 2402 H 226.421 -3.32302 -1.97769 0
M  V30 2403 H 228.11 -3.66745 -1.73933 0
M  V30 2404 H 228.876 -4.82852 0.45598 0
M  V30 2405 H 224.755 -4.5505 -0.7383 0
M  V30 2406 H 228.299 -6.69233 1.96909 0
M  V30 2407 H 224.196 -6.40923 0.76733 0
M  V30 2408 H 224.964 -7.87264 2.23959 0
M  V30 2409 N 227.627 0.131896 -1.57047 0
M  V30 2410 C 229.038 0.690407 -1.73465 0
M  V30 2411 C 229.389 1.8094 -0.758629 0
M  V30 2412 O 228.514 2.16282 0.0713813 0
M  V30 2413 C 229.109 1.25916 -3.14532 0
M  V30 2414 C 227.668 1.76409 -3.32501 0
M  V30 2415 C 226.815 0.658579 -2.69366 0
M  V30 2416 H 229.766 -0.0939144 -1.58422 0
M  V30 2417 H 229.787 2.12892 -3.15369 0
M  V30 2418 H 229.299 0.444515 -3.85546 0
M  V30 2419 H 227.4 2.60391 -2.66509 0
M  V30 2420 H 227.513 1.88241 -4.4057 0
M  V30 2421 H 225.877 1.08899 -2.30246 0
M  V30 2422 H 226.66 -0.14487 -3.42994 0
M  V30 2423 N 229.106 1.52395 0.401703 0
M  V30 2424 C 230.352 1.67065 1.14966 0
M  V30 2425 C 230.685 0.403052 1.89971 0
M  V30 2426 O 229.96 -0.598774 1.85054 0
M  V30 2427 C 230.243 2.8975 2.13815 0
M  V30 2428 C 230.096 4.26578 1.42658 0
M  V30 2429 C 231.415 3.07965 3.14397 0
M  V30 2430 H 228.534 0.607968 0.416587 0
M  V30 2431 H 231.176 1.84965 0.434511 0
M  V30 2432 H 229.326 2.74619 2.74803 0
M  V30 2433 H 230.998 4.53451 0.847329 0
M  V30 2434 H 229.241 4.27639 0.72849 0
M  V30 2435 H 229.912 5.08483 2.14823 0
M  V30 2436 H 232.388 3.22043 2.63491 0
M  V30 2437 H 231.264 3.95308 3.80819 0
M  V30 2438 H 231.525 2.21611 3.82545 0
M  V30 2439 N 230.584 -0.659388 1.43143 0
M  V30 2440 C 231.83 -1.42145 1.44647 0
M  V30 2441 C 232.163 -1.9408 0.0681907 0
M  V30 2442 O 231.438 -1.71899 -0.910007 0
M  V30 2443 C 231.721 -2.60735 2.48373 0
M  V30 2444 C 231.574 -2.14332 3.95451 0
M  V30 2445 C 232.893 -3.62951 2.48906 0
M  V30 2446 H 230.012 -0.51552 0.526696 0
M  V30 2447 H 232.654 -0.748069 1.74654 0
M  V30 2448 H 230.804 -3.18184 2.22916 0
M  V30 2449 H 232.476 -1.61932 4.31944 0
M  V30 2450 H 230.719 -1.4576 4.08578 0
M  V30 2451 H 231.39 -2.99583 4.63631 0
M  V30 2452 H 233.866 -3.1525 2.71582 0
M  V30 2453 H 232.742 -4.43487 3.23435 0
M  V30 2454 H 233.003 -4.15126 1.52061 0
M  V30 2455 N 232.062 -1.29571 -0.897171 0
M  V30 2456 C 233.012 -1.11539 -1.98855 0
M  V30 2457 C 233.996 -0.0340716 -1.60864 0
M  V30 2458 O 235.188 -0.256062 -1.75138 0
M  V30 2459 C 232.317 -0.796603 -3.3393 0
M  V30 2460 C 231.403 -1.91758 -3.78272 0
M  V30 2461 N 231.794 -3.16143 -3.94826 0
M  V30 2462 C 230.092 -1.81119 -4.07568 0
M  V30 2463 C 230.793 -3.89293 -4.32233 0
M  V30 2464 N 229.769 -3.17255 -4.41419 0
M  V30 2465 H 233.571 -2.05894 -2.09726 0
M  V30 2466 H 231.085 -1.20732 -1.08616 0
M  V30 2467 H 233.082 -0.648459 -4.11826 0
M  V30 2468 H 231.742 0.139003 -3.24402 0
M  V30 2469 H 232.753 -3.5157 -3.80288 0
M  V30 2470 H 229.43 -0.948461 -4.06584 0
M  V30 2471 H 230.82 -4.9635 -4.52865 0
M  V30 2472 N 233.54 1.10788 -1.12088 0
M  V30 2473 C 234.789 1.82036 -0.868659 0
M  V30 2474 C 235.102 1.85929 0.607426 0
M  V30 2475 O 236.308 2.53346 0.97613 0
M  V30 2476 C 234.764 3.26951 -1.50435 0
M  V30 2477 C 234.372 3.31367 -3.01496 0
M  V30 2478 C 236.116 4.03053 -1.33225 0
M  V30 2479 C 234.023 4.7072 -3.58017 0
M  V30 2480 H 232.953 0.682108 -0.321318 0
M  V30 2481 H 235.604 1.24618 -1.34694 0
M  V30 2482 H 233.986 3.84343 -0.953735 0
M  V30 2483 H 235.16 2.83819 -3.6302 0
M  V30 2484 H 233.475 2.6875 -3.18061 0
M  V30 2485 H 236.072 5.05981 -1.72878 0
M  V30 2486 H 236.415 4.15387 -0.275529 0
M  V30 2487 H 236.948 3.52066 -1.85188 0
M  V30 2488 H 233.687 4.63585 -4.63432 0
M  V30 2489 H 233.207 5.1865 -3.01268 0
M  V30 2490 H 234.886 5.39685 -3.56859 0
M  V30 2491 N 235.018 0.912232 1.28515 0
M  V30 2492 C 236.266 0.543523 1.94654 0
M  V30 2493 C 236.587 -0.9155 1.72173 0
M  V30 2494 O 235.857 -1.64708 1.06058 0
M  V30 2495 H 234.437 0.198017 0.720277 0
M  V30 2496 H 237.099 1.16126 1.56527 0
M  V30 2497 H 236.195 0.736684 3.03281 0
M  V30 2498 N 236.496 -1.42363 0.676048 0
M  V30 2499 C 237.443 -2.308 -0.00150904 0
M  V30 2500 C 238.413 -1.46032 -0.791444 0
M  V30 2501 O 239.598 -1.74861 -0.76344 0
M  V30 2502 C 236.738 -3.31883 -0.945919 0
M  V30 2503 C 235.851 -4.31741 -0.149675 0
M  V30 2504 C 234.986 -5.19898 -1.08995 0
M  V30 2505 C 234.025 -6.11434 -0.285465 0
M  V30 2506 N 233.162 -6.92138 -1.17851 0
M  V30 2507 H 238.002 -2.88187 0.758455 0
M  V30 2508 H 235.539 -1.41952 0.38576 0
M  V30 2509 H 237.497 -3.89019 -1.50731 0
M  V30 2510 H 236.127 -2.76093 -1.6725 0
M  V30 2511 H 235.179 -3.76713 0.528359 0
M  V30 2512 H 236.491 -4.96534 0.474866 0
M  V30 2513 H 235.645 -5.81772 -1.72123 0
M  V30 2514 H 234.384 -4.55284 -1.74837 0
M  V30 2515 H 233.389 -5.48627 0.359018 0
M  V30 2516 H 234.614 -6.78097 0.368883 0
M  V30 2517 H 232.56 -6.30152 -1.82332 0
M  V30 2518 H 232.477 -7.53542 -0.609082 0
M  V30 2519 H 233.745 -7.58499 -1.79722 0
M  V30 2520 N 237.974 -0.419461 -1.51915 0
M  V30 2521 C 239.39 -0.0708431 -1.59443 0
M  V30 2522 C 239.59 1.41796 -1.43164 0
M  V30 2523 O 238.646 2.18596 -1.26381 0
M  V30 2524 C 239.959 -0.574991 -2.95151 0
M  V30 2525 C 241.507 -0.533867 -3.08413 0
M  V30 2526 C 241.982 -1.01469 -4.46618 0
M  V30 2527 N 243.473 -0.971939 -4.52888 0
M  V30 2528 C 244.208 -1.31505 -5.58116 0
M  V30 2529 N 243.704 -1.73014 -6.70849 0
M  V30 2530 N 245.497 -1.23436 -5.48379 0
M  V30 2531 H 237.648 -1.38836 -1.60743 0
M  V30 2532 H 239.911 -0.570998 -0.756747 0
M  V30 2533 H 239.617 -1.61597 -3.12377 0
M  V30 2534 H 239.491 0.00979777 -3.77199 0
M  V30 2535 H 241.878 0.498086 -2.90866 0
M  V30 2536 H 241.959 -1.15484 -2.28248 0
M  V30 2537 H 241.603 -2.04502 -4.6491 0
M  V30 2538 H 241.533 -0.370433 -5.25295 0
M  V30 2539 H 244.024 -0.666893 -3.71969 0
M  V30 2540 H 244.337 -1.97479 -7.47143 0
M  V30 2541 H 242.682 -1.76926 -6.72103 0
M  V30 2542 H 245.873 -0.908869 -4.59192 0
M  V30 2543 H 246.046 -1.50506 -6.30279 0
M  V30 2544 N 239.452 1.56882 -0.150215 0
M  V30 2545 C 240.682 2.00302 0.506213 0
M  V30 2546 C 241.09 1.02934 1.58749 0
M  V30 2547 O 240.433 0.0188384 1.8369 0
M  V30 2548 C 240.495 3.40156 1.16337 0
M  V30 2549 C 240.159 4.56439 0.226311 0
M  V30 2550 C 241.156 5.17012 -0.547265 0
M  V30 2551 C 238.841 5.02136 0.128279 0
M  V30 2552 C 240.835 6.21693 -1.40629 0
M  V30 2553 C 238.522 6.06672 -0.734345 0
M  V30 2554 C 239.52 6.6632 -1.50023 0
M  V30 2555 O 239.208 7.68831 -2.34848 0
M  V30 2556 H 238.94 0.662182 0.135984 0
M  V30 2557 H 241.494 2.03961 -0.242746 0
M  V30 2558 H 239.724 3.33346 1.96004 0
M  V30 2559 H 241.413 3.67663 1.71985 0
M  V30 2560 H 242.179 4.82603 -0.48158 0
M  V30 2561 H 238.058 4.55435 0.714157 0
M  V30 2562 H 241.602 6.68179 -2.00455 0
M  V30 2563 H 237.499 6.40507 -0.801309 0
M  V30 2564 H 238.267 7.86065 -2.28131 0
M  V30 2565 N 240.93 -0.123565 1.57115 0
M  V30 2566 C 241.86 -1.15309 2.03042 0
M  V30 2567 C 242.841 -1.43454 0.914061 0
M  V30 2568 O 244.026 -1.53973 1.18347 0
M  V30 2569 C 241.156 -2.48043 2.43089 0
M  V30 2570 C 240.11 -2.3437 3.58127 0
M  V30 2571 C 239.436 -3.72026 3.84059 0
M  V30 2572 C 240.736 -1.80804 4.90007 0
M  V30 2573 H 242.43 -0.771102 2.893 0
M  V30 2574 H 239.976 -0.369479 1.39179 0
M  V30 2575 H 241.929 -3.20311 2.73823 0
M  V30 2576 H 240.653 -2.88122 1.53796 0
M  V30 2577 H 239.312 -1.64551 3.27595 0
M  V30 2578 H 238.96 -4.09582 2.91979 0
M  V30 2579 H 238.66 -3.63732 4.6149 0
M  V30 2580 H 240.184 -4.45806 4.1724 0
M  V30 2581 H 241.598 -2.42886 5.19307 0
M  V30 2582 H 239.995 -1.83343 5.71407 0
M  V30 2583 H 241.065 -0.76528 4.78823 0
M  V30 2584 N 242.408 -1.52605 -0.393616 0
M  V30 2585 C 243.356 -1.77688 -1.50099 0
M  V30 2586 C 244.35 -0.644615 -1.56656 0
M  V30 2587 O 245.556 -0.826997 -1.59877 0
M  V30 2588 H 241.931 -0.562159 -0.499481 0
M  V30 2589 H 243.902 -2.7043 -1.26135 0
M  V30 2590 C 242.651 -1.95858 -2.87289 0
M  V30 2591 H 241.974 -2.8241 -2.82992 0
M  V30 2592 H 243.414 -2.174 -3.64024 0
M  V30 2593 C 241.873 -0.729848 -3.28899 0
M  V30 2594 O 242.403 0.0949217 -4.01588 0
M  V30 2595 N 240.609 -0.561283 -2.85128 0
M  V30 2596 H 240.156 -1.23357 -2.26143 0
M  V30 2597 H 240.114 0.2595 -3.13327 0
M  V30 2598 N 243.887 0.651787 -1.4349 0
M  V30 2599 C 245.112 1.44434 -1.48841 0
M  V30 2600 C 245.537 1.8779 -0.107955 0
M  V30 2601 O 244.895 1.57464 0.898602 0
M  V30 2602 C 244.943 2.65458 -2.44059 0
M  V30 2603 O 244.047 3.64566 -1.92784 0
M  V30 2604 H 243.388 0.433005 -0.503391 0
M  V30 2605 H 245.918 0.797451 -1.88419 0
M  V30 2606 H 245.928 3.13255 -2.6141 0
M  V30 2607 H 244.603 2.33244 -3.4434 0
M  V30 2608 H 243.18 3.23716 -1.851 0
M  V30 2609 N 245.365 1.30045 0.890287 0
M  V30 2610 C 246.613 1.18327 1.63839 0
M  V30 2611 C 246.934 -0.263455 1.93212 0
M  V30 2612 O 246.204 -1.17856 1.56482 0
M  V30 2613 H 244.784 0.434933 0.607324 0
M  V30 2614 H 247.446 1.631 1.06698 0
M  V30 2615 H 246.542 1.74024 2.59079 0
M  V30 2616 N 246.843 -1.10192 1.12674 0
M  V30 2617 C 248.091 -1.81845 0.881861 0
M  V30 2618 C 248.412 -1.85737 -0.593867 0
M  V30 2619 O 247.682 -1.33724 -1.4316 0
M  V30 2620 H 246.262 -0.673432 0.323261 0
M  V30 2621 H 248.924 -1.33316 1.42172 0
M  V30 2622 H 248.02 -2.85288 1.2656 0
M  V30 2623 N 248.321 -0.919034 -1.28029 0
M  V30 2624 C 249.568 -0.554934 -1.94748 0
M  V30 2625 C 249.896 0.90231 -1.72304 0
M  V30 2626 O 249.151 1.65767 -1.04018 0
M  V30 2627 C 249.45 -0.816855 -3.4794 0
M  V30 2628 C 249.116 -2.25448 -3.90492 0
M  V30 2629 C 247.778 -2.64752 -4.01821 0
M  V30 2630 C 250.13 -3.18977 -4.12193 0
M  V30 2631 C 247.458 -3.96727 -4.32232 0
M  V30 2632 C 249.81 -4.50523 -4.44086 0
M  V30 2633 C 248.474 -4.89673 -4.53626 0
M  V30 2634 H 247.744 -0.203065 -0.712633 0
M  V30 2635 H 250.391 -1.16136 -1.52265 0
M  V30 2636 H 248.696 -0.127677 -3.91592 0
M  V30 2637 H 250.393 -0.514238 -3.97689 0
M  V30 2638 H 246.983 -1.93952 -3.82205 0
M  V30 2639 H 251.167 -2.89817 -4.02889 0
M  V30 2640 H 246.423 -4.26754 -4.37825 0
M  V30 2641 H 250.597 -5.23005 -4.59825 0
M  V30 2642 H 248.224 -5.91969 -4.76946 0
M  V30 2643 N 249.799 1.42003 -0.683588 0
M  V30 2644 C 251.048 2.00638 -0.206681 0
M  V30 2645 C 251.361 1.5472 1.19671 0
M  V30 2646 O 252.567 2.05833 1.77045 0
M  V30 2647 C 251.023 3.58487 -0.318632 0
M  V30 2648 C 250.631 4.1339 -1.72663 0
M  V30 2649 C 252.375 4.24384 0.0991141 0
M  V30 2650 C 250.282 5.63633 -1.79087 0
M  V30 2651 H 249.212 0.750408 -0.0735107 0
M  V30 2652 H 251.863 1.62624 -0.850048 0
M  V30 2653 H 250.245 3.94047 0.392781 0
M  V30 2654 H 251.419 3.89273 -2.46583 0
M  V30 2655 H 249.734 3.59976 -2.09299 0
M  V30 2656 H 252.331 5.34652 0.0713833 0
M  V30 2657 H 252.674 4.00505 1.13586 0
M  V30 2658 H 253.207 3.93816 -0.561599 0
M  V30 2659 H 249.946 5.92323 -2.80774 0
M  V30 2660 H 249.466 5.89714 -1.09535 0
M  V30 2661 H 251.145 6.28201 -1.5483 0
M  V30 2662 N 251.277 0.427512 1.51691 0
M  V30 2663 C 252.525 -0.141948 2.01601 0
M  V30 2664 C 252.846 -1.44067 1.31414 0
M  V30 2665 O 252.116 -1.90763 0.445658 0
M  V30 2666 H 250.696 -0.0554468 0.744939 0
M  V30 2667 H 253.358 0.567968 1.86441 0
M  V30 2668 H 252.454 -0.324913 3.10404 0
M  V30 2669 N 252.755 -1.56801 0.158532 0
M  V30 2670 C 253.985 -2.00568 -0.495583 0
M  V30 2671 C 254.393 -1.03774 -1.58201 0
M  V30 2672 O 253.736 -0.0285797 -1.83678 0
M  V30 2673 C 253.798 -3.40768 -1.14532 0
M  V30 2674 C 253.462 -4.56553 -0.202101 0
M  V30 2675 C 254.459 -5.16714 0.574675 0
M  V30 2676 C 252.144 -5.02197 -0.101648 0
M  V30 2677 C 254.138 -6.20939 1.43924 0
M  V30 2678 C 251.825 -6.06274 0.766508 0
M  V30 2679 C 252.823 -6.65515 1.53555 0
M  V30 2680 O 252.511 -7.67575 2.38922 0
M  V30 2681 H 252.243 -0.662893 -0.13247 0
M  V30 2682 H 254.797 -2.03829 0.253559 0
M  V30 2683 H 253.027 -3.34381 -1.94233 0
M  V30 2684 H 254.716 -3.6857 -1.70033 0
M  V30 2685 H 255.482 -4.82341 0.507167 0
M  V30 2686 H 251.361 -4.55807 -0.689994 0
M  V30 2687 H 254.905 -6.67107 2.03996 0
M  V30 2688 H 250.802 -6.40073 0.835266 0
M  V30 2689 H 251.57 -7.84844 2.32296 0
M  V30 2690 N 254.233 0.115231 -1.57178 0
M  V30 2691 C 255.196 1.12526 -1.99676 0
M  V30 2692 C 256.196 1.34095 -0.88742 0
M  V30 2693 O 257.386 1.30548 -1.15337 0
M  V30 2694 C 254.518 2.4789 -2.34015 0
M  V30 2695 H 255.711 0.759912 -2.90113 0
M  V30 2696 H 253.264 0.359648 -1.52106 0
M  V30 2697 H 253.999 2.89339 -1.4647 0
M  V30 2698 H 253.784 2.33588 -3.14927 0
M  V30 2699 H 255.274 3.20575 -2.67622 0
M  V30 2700 N 255.711 1.52812 0.385517 0
M  V30 2701 C 257.122 1.5993 0.963293 0
M  V30 2702 C 257.473 0.454302 1.90868 0
M  V30 2703 O 256.598 -0.422132 2.12243 0
M  V30 2704 C 257.193 2.89871 1.75387 0
M  V30 2705 C 255.752 2.99389 2.28129 0
M  V30 2706 C 254.899 2.55071 1.08783 0
M  V30 2707 H 257.85 1.5784 0.164948 0
M  V30 2708 H 257.871 2.76553 2.61341 0
M  V30 2709 H 257.383 3.73186 1.06554 0
M  V30 2710 H 255.484 2.20619 3.00263 0
M  V30 2711 H 255.597 4.04096 2.57377 0
M  V30 2712 H 253.961 2.09473 1.4489 0
M  V30 2713 H 254.744 3.40785 0.414807 0
M  V30 2714 N 257.189 -0.644168 1.43834 0
M  V30 2715 C 258.419 -1.42939 1.49171 0
M  V30 2716 C 258.827 -1.88874 0.111048 0
M  V30 2717 O 258.17 -1.60656 -0.8908 0
M  V30 2718 C 258.232 -2.69151 2.38324 0
M  V30 2719 C 257.896 -2.45097 3.85715 0
M  V30 2720 C 258.893 -2.07747 4.76589 0
M  V30 2721 C 256.578 -2.59141 4.30292 0
M  V30 2722 C 258.572 -1.8475 6.10038 0
M  V30 2723 C 256.259 -2.35759 5.63792 0
M  V30 2724 C 257.257 -1.9862 6.53482 0
M  V30 2725 O 256.945 -1.75489 7.84512 0
M  V30 2726 H 256.677 -0.445271 0.508635 0
M  V30 2727 H 259.231 -0.79621 1.8934 0
M  V30 2728 H 257.461 -3.3506 1.93058 0
M  V30 2729 H 259.15 -3.31123 2.3476 0
M  V30 2730 H 259.916 -1.96465 4.43426 0
M  V30 2731 H 255.795 -2.87022 3.60749 0
M  V30 2732 H 259.339 -1.55686 6.80006 0
M  V30 2733 H 255.236 -2.46646 5.9652 0
M  V30 2734 H 256.004 -1.89841 7.9618 0
M  V30 2735 N 258.668 -1.30515 -0.883378 0
M  V30 2736 C 259.914 -1.19607 -1.63774 0
M  V30 2737 C 260.247 0.248314 -1.92606 0
M  V30 2738 O 259.522 1.17742 -1.54813 0
M  V30 2739 C 259.805 -2.02669 -2.97653 0
M  V30 2740 C 259.658 -3.55335 -2.75784 0
M  V30 2741 C 260.977 -1.86573 -3.98596 0
M  V30 2742 H 258.096 -0.435856 -0.594305 0
M  V30 2743 H 260.738 -1.60165 -1.02212 0
M  V30 2744 H 258.888 -1.68208 -3.50197 0
M  V30 2745 H 260.56 -3.99863 -2.30016 0
M  V30 2746 H 258.803 -3.79438 -2.1026 0
M  V30 2747 H 259.474 -4.08745 -3.70988 0
M  V30 2748 H 261.95 -2.16703 -3.55217 0
M  V30 2749 H 260.826 -2.47014 -4.90179 0
M  V30 2750 H 261.087 -0.825321 -4.34328 0
M  V30 2751 N 260.146 1.09593 -1.13257 0
M  V30 2752 C 261.094 2.18271 -0.803783 0
M  V30 2753 C 262.088 1.68054 0.213148 0
M  V30 2754 O 263.294 1.79862 0.0704699 0
M  V30 2755 H 259.669 0.711949 -0.242143 0
M  V30 2756 H 261.64 2.43235 -1.72856 0
M  V30 2757 C 260.389 3.46536 -0.28424 0
M  V30 2758 H 259.712 3.85545 -1.05807 0
M  V30 2759 H 261.152 4.23899 -0.0925945 0
M  V30 2760 C 259.611 3.22036 0.989684 0
M  V30 2761 O 260.141 3.44509 2.06584 0
M  V30 2762 N 258.347 2.7565 0.920086 0
M  V30 2763 H 257.894 2.57562 0.0442019 0
M  V30 2764 H 257.852 2.59635 1.77306 0
M  V30 2765 N 261.624 0.925811 1.2754 0
M  V30 2766 C 263.04 0.625767 1.46821 0
M  V30 2767 C 263.24 -0.825506 1.83814 0
M  V30 2768 O 262.296 -1.60356 1.95044 0
M  V30 2769 C 263.609 1.57402 2.56213 0
M  V30 2770 C 265.157 1.58204 2.70075 0
M  V30 2771 C 265.632 2.51721 3.82623 0
M  V30 2772 N 267.123 2.49917 3.89994 0
M  V30 2773 C 267.858 3.18968 4.76494 0
M  V30 2774 N 267.354 3.97391 5.67496 0
M  V30 2775 N 269.147 3.07996 4.70208 0
M  V30 2776 H 261.298 1.86409 1.01811 0
M  V30 2777 H 263.561 0.800213 0.508295 0
M  V30 2778 H 263.267 2.60925 2.35819 0
M  V30 2779 H 263.141 1.31428 3.53563 0
M  V30 2780 H 265.528 0.554124 2.89851 0
M  V30 2781 H 265.609 1.88226 1.73218 0
M  V30 2782 H 265.253 3.54622 3.63601 0
M  V30 2783 H 265.183 2.18996 4.78903 0
M  V30 2784 H 267.674 1.9296 3.24923 0
M  V30 2785 H 267.987 4.4707 6.30356 0
M  V30 2786 H 266.332 4.01495 5.67298 0
M  V30 2787 H 269.523 2.46223 3.9811 0
M  V30 2788 H 269.696 3.6208 5.37403 0
M  V30 2789 N 263.102 -1.41638 0.69111 0
M  V30 2790 C 264.351 -2.00526 0.217318 0
M  V30 2791 C 264.664 -1.55353 -1.18848 0
M  V30 2792 O 265.87 -2.06769 -1.75951 0
M  V30 2793 C 264.326 -3.58313 0.337639 0
M  V30 2794 C 263.934 -4.12469 1.74852 0
M  V30 2795 C 265.678 -4.24431 -0.0766066 0
M  V30 2796 C 263.585 -5.62675 1.82074 0
M  V30 2797 H 262.515 -0.750008 0.0774893 0
M  V30 2798 H 265.166 -1.6217 0.858661 0
M  V30 2799 H 263.548 -3.9425 -0.371879 0
M  V30 2800 H 264.722 -3.8796 2.48644 0
M  V30 2801 H 263.037 -3.58861 2.11205 0
M  V30 2802 H 265.634 -5.34683 -0.0430284 0
M  V30 2803 H 265.977 -4.01101 -1.1146 0
M  V30 2804 H 266.51 -3.93512 0.582476 0
M  V30 2805 H 263.249 -5.90826 2.83911 0
M  V30 2806 H 262.769 -5.89124 1.12661 0
M  V30 2807 H 264.448 -6.27371 1.58159 0
M  V30 2808 N 264.58 -0.43555 -1.51462 0
M  V30 2809 C 265.826 0.131709 -2.02372 0
M  V30 2810 C 266.159 1.42516 -1.3192 0
M  V30 2811 O 265.434 1.89606 -0.433573 0
M  V30 2812 C 265.717 0.352301 -3.58373 0
M  V30 2813 C 265.57 -0.959676 -4.39443 0
M  V30 2814 C 266.889 1.12286 -4.25535 0
M  V30 2815 H 264.008 0.0463936 -0.735538 0
M  V30 2816 H 266.65 -0.574197 -1.81116 0
M  V30 2817 H 264.8 0.9536 -3.76615 0
M  V30 2818 H 266.472 -1.59482 -4.32855 0
M  V30 2819 H 264.715 -1.56468 -4.04599 0
M  V30 2820 H 265.386 -0.759394 -5.46752 0
M  V30 2821 H 267.862 0.613545 -4.11552 0
M  V30 2822 H 266.738 1.24598 -5.34571 0
M  V30 2823 H 266.999 2.15048 -3.86273 0
M  V30 2824 N 266.058 1.56714 -0.166846 0
M  V30 2825 C 266.99 2.14914 0.796537 0
M  V30 2826 C 268.003 1.10357 1.19688 0
M  V30 2827 O 269.192 1.37561 1.13751 0
M  V30 2828 C 266.292 2.67326 2.08303 0
M  V30 2829 C 265.465 3.96493 1.84696 0
M  V30 2830 C 264.524 4.34014 2.97521 0
M  V30 2831 O 263.55 5.01973 2.6835 0
M  V30 2832 N 264.752 3.95208 4.25196 0
M  V30 2833 H 267.517 2.98205 0.299006 0
M  V30 2834 H 265.078 1.61892 0.0160839 0
M  V30 2835 H 267.07 2.89428 2.82867 0
M  V30 2836 H 265.64 1.88649 2.4926 0
M  V30 2837 H 264.86 3.82814 0.940602 0
M  V30 2838 H 266.148 4.8086 1.66285 0
M  V30 2839 H 265.546 3.40487 4.51758 0
M  V30 2840 H 264.103 4.2232 4.96477 0
M  V30 2841 N 267.536 -0.106894 1.57237 0
M  V30 2842 C 268.468 -1.15646 1.97885 0
M  V30 2843 C 269.481 -1.36981 0.879779 0
M  V30 2844 O 270.67 -1.35841 1.15799 0
M  V30 2845 C 267.77 -2.51425 2.27241 0
M  V30 2846 C 266.943 -2.50529 3.58545 0
M  V30 2847 C 266.002 -3.68145 3.75973 0
M  V30 2848 O 265.028 -3.51176 4.47956 0
M  V30 2849 N 266.23 -4.87177 3.15656 0
M  V30 2850 H 268.995 -0.81059 2.8853 0
M  V30 2851 H 266.556 -0.296024 1.59171 0
M  V30 2852 H 268.548 -3.28689 2.36105 0
M  V30 2853 H 267.118 -2.78147 1.42663 0
M  V30 2854 H 266.338 -1.58894 3.60758 0
M  V30 2855 H 267.626 -2.46997 4.44826 0
M  V30 2856 H 267.024 -5.03868 2.57165 0
M  V30 2857 H 265.581 -5.62075 3.30023 0
M  V30 2858 N 269.014 -1.53014 -0.377408 0
M  V30 2859 C 270.26 -1.69821 -1.11948 0
M  V30 2860 C 270.615 -0.438581 -1.87335 0
M  V30 2861 O 269.908 0.568094 -1.82984 0
M  V30 2862 C 270.102 -2.87982 -2.11663 0
M  V30 2863 C 269.931 -4.25315 -1.46072 0
M  V30 2864 C 268.701 -4.90354 -1.21986 0
M  V30 2865 C 270.899 -5.06281 -0.904664 0
M  V30 2866 N 268.881 -6.11641 -0.526215 0
M  V30 2867 C 270.252 -6.19069 -0.339726 0
M  V30 2868 C 272.307 -4.91395 -0.8022 0
M  V30 2869 C 271.01 -7.18598 0.317669 0
M  V30 2870 C 273.036 -5.91187 -0.158606 0
M  V30 2871 C 272.398 -7.03289 0.39551 0
M  V30 2872 H 268.497 -0.674785 -0.395207 0
M  V30 2873 H 271.081 -1.90389 -0.407437 0
M  V30 2874 H 269.252 -2.68974 -2.80192 0
M  V30 2875 H 270.984 -2.93669 -2.78461 0
M  V30 2876 H 267.739 -4.49286 -1.49798 0
M  V30 2877 H 268.163 -6.76719 -0.195098 0
M  V30 2878 H 272.805 -4.04925 -1.21639 0
M  V30 2879 H 270.523 -8.04669 0.743836 0
M  V30 2880 H 274.109 -5.81744 -0.0804138 0
M  V30 2881 H 272.989 -7.79183 0.885648 0
M  V30 2882 N 270.492 0.636531 -1.44174 0
M  V30 2883 C 271.44 1.76995 -1.50915 0
M  V30 2884 C 272.434 1.65053 -0.381295 0
M  V30 2885 O 273.64 1.71197 -0.55601 0
M  V30 2886 H 270.015 0.584247 -0.473455 0
M  V30 2887 H 271.986 1.68432 -2.4632 0
M  V30 2888 C 270.735 3.15314 -1.46534 0
M  V30 2889 H 270.058 3.25149 -2.32633 0
M  V30 2890 H 271.498 3.9453 -1.55312 0
M  V30 2891 C 269.957 3.3639 -0.185305 0
M  V30 2892 O 270.487 3.94699 0.746688 0
M  V30 2893 N 268.693 2.9046 -0.0901606 0
M  V30 2894 H 268.24 2.43193 -0.849416 0
M  V30 2895 H 268.198 3.04937 0.765553 0
M  V30 2896 N 271.97 1.30982 0.876444 0
M  V30 2897 C 272.9 1.20668 1.99903 0
M  V30 2898 C 273.881 0.095354 1.69833 0
M  V30 2899 O 275.066 0.27885 1.92188 0
M  V30 2900 C 272.196 0.90655 3.3526 0
M  V30 2901 C 271.15 1.97675 3.79617 0
M  V30 2902 C 270.476 1.52943 5.1236 0
M  V30 2903 C 271.776 3.389 3.97422 0
M  V30 2904 H 273.47 2.14586 2.0879 0
M  V30 2905 H 271.016 1.03308 1.00317 0
M  V30 2906 H 272.969 0.821025 4.13324 0
M  V30 2907 H 271.693 -0.0682969 3.26529 0
M  V30 2908 H 270.352 2.05205 3.03787 0
M  V30 2909 H 270 0.54262 5.00065 0
M  V30 2910 H 269.7 2.24532 5.43009 0
M  V30 2911 H 271.224 1.45786 5.92941 0
M  V30 2912 H 272.638 3.34081 4.659 0
M  V30 2913 H 271.035 4.0865 4.3946 0
M  V30 2914 H 272.105 3.80163 3.01006 0
M  V30 2915 N 273.449 -1.08991 1.13837 0
M  V30 2916 C 274.381 -2.15606 0.777612 0
M  V30 2917 C 275.394 -1.61533 -0.202739 0
M  V30 2918 O 276.583 -1.78491 0.0181055 0
M  V30 2919 C 273.683 -3.3864 0.132623 0
M  V30 2920 C 272.856 -4.22115 1.1462 0
M  V30 2921 C 271.915 -5.23564 0.526074 0
M  V30 2922 O 270.941 -5.56678 1.18735 0
M  V30 2923 N 272.143 -5.76266 -0.699866 0
M  V30 2924 H 274.908 -2.47159 1.69506 0
M  V30 2925 H 272.469 -1.24747 1.03198 0
M  V30 2926 H 274.461 -4.03626 -0.29459 0
M  V30 2927 H 273.031 -3.04938 -0.687849 0
M  V30 2928 H 272.251 -3.53199 1.75055 0
M  V30 2929 H 273.539 -4.74709 1.83109 0
M  V30 2930 H 272.937 -5.51585 -1.25581 0
M  V30 2931 H 271.494 -6.42963 -1.06968 0
M  V30 2932 N 274.927 -0.932562 -1.27047 0
M  V30 2933 C 276.204 -0.49377 -1.89265 0
M  V30 2934 C 276.584 1.02833 -1.8436 0
M  V30 2935 O 275.932 1.88461 -1.29209 0
M  V30 2936 C 276.142 -1.04536 -3.32976 0
M  V30 2937 C 277.49 -1.10879 -4.09867 0
M  V30 2938 O 278.514 -0.995327 -3.42011 0
M  V30 2939 O 277.373 -1.28417 -5.31198 0
M  V30 2940 H 274.467 -0.159596 -0.811454 0
M  V30 2941 H 277.013 -1.02457 -1.3528 0
M  V30 2942 H 275.785 -2.08913 -3.30864 0
M  V30 2943 H 275.408 -0.496494 -3.94488 0
M  V30 2944 N 276.405 1.4127 -0.698611 0
M  V30 2945 C 277.353 2.32588 -0.023855 0
M  V30 2946 C 278.347 1.51128 0.765292 0
M  V30 2947 O 279.553 1.67043 0.670571 0
M  V30 2948 H 275.928 0.751918 0.0110871 0
M  V30 2949 H 277.899 2.87167 -0.811031 0
M  V30 2950 C 276.648 3.35947 0.896369 0
M  V30 2951 H 275.971 3.98684 0.298548 0
M  V30 2952 H 277.411 4.02376 1.33676 0
M  V30 2953 C 275.87 2.70076 2.01396 0
M  V30 2954 O 276.4 2.55093 3.10307 0
M  V30 2955 N 274.606 2.28724 1.79259 0
M  V30 2956 H 274.153 2.4111 0.906841 0
M  V30 2957 H 274.111 1.84986 2.54219 0
M  V30 2958 N 277.883 0.443576 1.51229 0
M  V30 2959 C 279.16 -0.181038 1.9476 0
M  V30 2960 C 279.54 -1.59523 1.38259 0
M  V30 2961 O 278.888 -2.2122 0.572198 0
M  V30 2962 C 279.098 -0.152422 3.48667 0
M  V30 2963 C 280.446 -0.354923 4.23114 0
M  V30 2964 O 281.47 -0.230257 3.55455 0
M  V30 2965 O 280.329 -0.603674 5.43156 0
M  V30 2966 H 277.423 -0.1266 0.817252 0
M  V30 2967 H 279.969 0.502004 1.62105 0
M  V30 2968 H 278.741 0.836022 3.82265 0
M  V30 2969 H 278.364 -0.878107 3.87782 0
M  V30 2970 N 279.361 -1.56624 0.175154 0
M  V30 2971 C 280.638 -1.88688 -0.515373 0
M  V30 2972 C 281.018 -1.08564 -1.81044 0
M  V30 2973 O 280.366 -0.180703 -2.27784 0
M  V30 2974 C 280.576 -3.40768 -0.753552 0
M  V30 2975 C 281.924 -4.10587 -1.08184 0
M  V30 2976 O 282.948 -3.46106 -0.841961 0
M  V30 2977 O 281.807 -5.24512 -1.53459 0
M  V30 2978 H 278.901 -0.78301 -0.26613 0
M  V30 2979 H 281.447 -1.68347 0.213877 0
M  V30 2980 H 280.219 -3.90965 0.161829 0
M  V30 2981 H 279.842 -3.66733 -1.53598 0
M  V30 2982 N 280.839 0.0985539 -1.57292 0
M  V30 2983 C 282.116 0.834155 -1.76921 0
M  V30 2984 C 282.496 1.97101 -0.755928 0
M  V30 2985 O 281.844 2.27474 0.216245 0
M  V30 2986 C 282.054 1.33194 -3.22584 0
M  V30 2987 C 283.402 1.77611 -3.85668 0
M  V30 2988 O 284.426 1.42825 -3.26312 0
M  V30 2989 O 283.285 2.4192 -4.90038 0
M  V30 2990 H 280.379 0.397628 -0.725135 0
M  V30 2991 H 282.925 0.0807044 -1.69508 0
M  V30 2992 H 281.697 0.517248 -3.87866 0
M  V30 2993 H 281.32 2.1475 -3.34616 0
M  V30 2994 N 282.317 1.53212 0.369288 0
M  V30 2995 C 283.249 1.75668 1.47219 0
M  V30 2996 C 284.262 0.637387 1.49804 0
M  V30 2997 O 285.451 0.913561 1.5335 0
M  V30 2998 C 282.551 1.81818 2.85999 0
M  V30 2999 C 281.724 3.11409 3.07153 0
M  V30 3000 C 280.783 3.08849 4.26026 0
M  V30 3001 O 279.809 3.82659 4.2138 0
M  V30 3002 N 281.011 2.29409 5.33246 0
M  V30 3003 H 283.776 2.70832 1.28337 0
M  V30 3004 H 281.337 1.51944 0.55898 0
M  V30 3005 H 283.329 1.77588 3.63655 0
M  V30 3006 H 281.899 0.939544 2.98146 0
M  V30 3007 H 281.119 3.28971 2.1719 0
M  V30 3008 H 282.407 3.97059 3.18154 0
M  V30 3009 H 281.805 1.68946 5.39883 0
M  V30 3010 H 280.362 2.31001 6.09493 0
M  V30 3011 N 283.795 -0.628877 1.44509 0
M  V30 3012 C 284.725 -1.75187 1.54376 0
M  V30 3013 C 285.706 -1.65411 0.396618 0
M  V30 3014 O 286.891 -1.84137 0.617031 0
M  V30 3015 C 284.021 -3.13725 1.48976 0
M  V30 3016 C 282.975 -3.38291 2.62189 0
M  V30 3017 C 282.301 -4.76883 2.41841 0
M  V30 3018 C 283.601 -3.30632 4.04326 0
M  V30 3019 H 285.295 -1.67187 2.48373 0
M  V30 3020 H 282.841 -0.802909 1.19538 0
M  V30 3021 H 284.794 -3.92064 1.54478 0
M  V30 3022 H 283.518 -3.22515 0.514961 0
M  V30 3023 H 282.177 -2.62334 2.56079 0
M  V30 3024 H 281.825 -4.82378 1.42548 0
M  V30 3025 H 281.525 -4.94278 3.17747 0
M  V30 3026 H 283.049 -5.57449 2.49165 0
M  V30 3027 H 284.463 -3.98873 4.11793 0
M  V30 3028 H 282.86 -3.59561 4.80454 0
M  V30 3029 H 283.93 -2.28404 4.27738 0
M  V30 3030 N 285.273 -1.31445 -0.869486 0
M  V30 3031 C 286.52 -1.21158 -1.62256 0
M  V30 3032 C 286.848 0.230155 -1.93133 0
M  V30 3033 O 286.103 1.17906 -1.56194 0
M  V30 3034 C 286.402 -2.00145 -2.96102 0
M  V30 3035 C 286.068 -3.4964 -2.84715 0
M  V30 3036 C 284.73 -3.90403 -2.81317 0
M  V30 3037 C 287.082 -4.44769 -2.71716 0
M  V30 3038 C 284.41 -5.24561 -2.62778 0
M  V30 3039 C 286.762 -5.79054 -2.54714 0
M  V30 3040 C 285.426 -6.19037 -2.49699 0
M  V30 3041 H 284.696 -0.443348 -0.593737 0
M  V30 3042 H 287.343 -1.62715 -1.00976 0
M  V30 3043 H 285.648 -1.5127 -3.6142 0
M  V30 3044 H 287.345 -1.89566 -3.53363 0
M  V30 3045 H 283.935 -3.17256 -2.88178 0
M  V30 3046 H 288.119 -4.14208 -2.73397 0
M  V30 3047 H 283.375 -5.54613 -2.57321 0
M  V30 3048 H 287.549 -6.52393 -2.43632 0
M  V30 3049 H 285.176 -7.22935 -2.35093 0
M  V30 3050 N 286.751 1.08385 -1.14413 0
M  V30 3051 C 287.981 1.8425 -0.934644 0
M  V30 3052 C 288.389 1.81907 0.520234 0
M  V30 3053 O 287.732 1.22126 1.37226 0
M  V30 3054 C 287.794 3.32853 -1.35828 0
M  V30 3055 C 287.458 3.5893 -2.82875 0
M  V30 3056 C 288.455 3.53756 -3.80989 0
M  V30 3057 C 286.14 3.86934 -3.20293 0
M  V30 3058 C 288.134 3.76216 -5.14529 0
M  V30 3059 C 285.821 4.09047 -4.54008 0
M  V30 3060 C 286.819 4.03682 -5.50936 0
M  V30 3061 O 286.507 4.25214 -6.82238 0
M  V30 3062 H 286.239 0.588502 -0.332628 0
M  V30 3063 H 288.793 1.37792 -1.52324 0
M  V30 3064 H 287.023 3.8007 -0.713019 0
M  V30 3065 H 288.712 3.90154 -1.11957 0
M  V30 3066 H 289.478 3.32135 -3.53428 0
M  V30 3067 H 285.357 3.9023 -2.45442 0
M  V30 3068 H 288.901 3.71943 -5.90173 0
M  V30 3069 H 284.798 4.30151 -4.8129 0
M  V30 3070 H 285.566 4.42619 -6.88499 0
M  V30 3071 N 288.23 0.939286 1.26551 0
M  V30 3072 C 289.458 0.602536 1.97932 0
M  V30 3073 C 289.873 -0.82206 1.69964 0
M  V30 3074 O 289.23 -1.54789 0.966784 0
M  V30 3075 C 289.281 0.832946 3.51773 0
M  V30 3076 O 289.002 2.20151 3.78768 0
M  V30 3077 C 290.503 0.506483 4.40397 0
M  V30 3078 H 287.723 0.227248 0.631347 0
M  V30 3079 H 290.267 1.25948 1.61113 0
M  V30 3080 H 288.422 0.222644 3.8676 0
M  V30 3081 H 288.836 2.26013 4.73306 0
M  V30 3082 H 290.31 0.718333 5.47306 0
M  V30 3083 H 290.787 -0.558451 4.35635 0
M  V30 3084 H 291.393 1.09543 4.10951 0
M  V30 3085 N 289.708 -1.40897 0.706093 0
M  V30 3086 C 290.655 -2.30751 0.0474474 0
M  V30 3087 C 291.625 -1.47678 -0.76029 0
M  V30 3088 O 292.81 -1.76441 -0.726177 0
M  V30 3089 C 289.95 -3.33815 -0.875309 0
M  V30 3090 C 289.063 -4.31961 -0.0580623 0
M  V30 3091 C 288.198 -5.22093 -0.979425 0
M  V30 3092 C 287.237 -6.11902 -0.155706 0
M  V30 3093 N 286.374 -6.94482 -1.03144 0
M  V30 3094 H 291.214 -2.86513 0.819413 0
M  V30 3095 H 288.751 -1.41102 0.415783 0
M  V30 3096 H 290.709 -3.92129 -1.42446 0
M  V30 3097 H 289.339 -2.79579 -1.61356 0
M  V30 3098 H 288.391 -3.75507 0.608147 0
M  V30 3099 H 289.703 -4.95415 0.580082 0
M  V30 3100 H 288.857 -5.85292 -1.59744 0
M  V30 3101 H 287.596 -4.5889 -1.65141 0
M  V30 3102 H 286.601 -5.47742 0.475309 0
M  V30 3103 H 287.826 -6.77162 0.512635 0
M  V30 3104 H 285.772 -6.33877 -1.68924 0
M  V30 3105 H 285.689 -7.54665 -0.449108 0
M  V30 3106 H 286.957 -7.6214 -1.63593 0
M  V30 3107 N 291.186 -0.45159 -1.50991 0
M  V30 3108 C 292.432 0.110237 -2.025 0
M  V30 3109 C 292.765 1.41109 -1.33424 0
M  V30 3110 O 292.04 1.89135 -0.453659 0
M  V30 3111 C 292.323 0.314271 -3.58726 0
M  V30 3112 C 292.176 -1.00623 -4.38401 0
M  V30 3113 C 293.495 1.07767 -4.26702 0
M  V30 3114 H 290.614 0.0385897 -0.735989 0
M  V30 3115 H 293.256 -0.593374 -1.80497 0
M  V30 3116 H 291.406 0.913601 -3.77605 0
M  V30 3117 H 293.078 -1.64064 -4.31139 0
M  V30 3118 H 291.321 -1.6075 -4.02917 0
M  V30 3119 H 291.992 -0.817341 -5.45915 0
M  V30 3120 H 294.468 0.56986 -4.12179 0
M  V30 3121 H 293.344 1.18921 -5.35863 0
M  V30 3122 H 293.605 2.10939 -3.88532 0
M  V30 3123 N 292.664 1.56529 -0.183458 0
M  V30 3124 C 293.894 2.01331 0.463612 0
M  V30 3125 C 294.302 1.06278 1.5653 0
M  V30 3126 O 293.645 0.0577976 1.83609 0
M  V30 3127 C 293.707 3.42547 1.09096 0
M  V30 3128 C 293.371 4.56817 0.129442 0
M  V30 3129 C 294.368 5.15734 -0.656807 0
M  V30 3130 C 292.053 5.02295 0.02174 0
M  V30 3131 C 294.047 6.1857 -1.53784 0
M  V30 3132 C 291.734 6.04978 -0.862864 0
M  V30 3133 C 292.732 6.62988 -1.64123 0
M  V30 3134 O 292.42 7.63677 -2.51103 0
M  V30 3135 H 292.152 0.664917 0.121907 0
M  V30 3136 H 294.706 2.034 -0.285954 0
M  V30 3137 H 292.936 3.37428 1.88889 0
M  V30 3138 H 294.625 3.71228 1.64148 0
M  V30 3139 H 295.391 4.81473 -0.583839 0
M  V30 3140 H 291.27 4.56847 0.617392 0
M  V30 3141 H 294.814 6.63777 -2.14583 0
M  V30 3142 H 290.711 6.38663 -0.93699 0
M  V30 3143 H 291.479 7.81049 -2.44753 0
M  V30 3144 N 294.142 -0.090211 1.57342 0
M  V30 3145 C 295.391 -0.791531 1.8552 0
M  V30 3146 C 295.704 -1.79659 0.773441 0
M  V30 3147 O 296.91 -2.54616 0.942497 0
M  V30 3148 C 295.366 -1.45856 3.2902 0
M  V30 3149 C 294.974 -0.493017 4.45279 0
M  V30 3150 C 296.718 -2.14332 3.66418 0
M  V30 3151 C 294.625 -1.16491 5.79814 0
M  V30 3152 H 293.555 -0.299356 0.692027 0
M  V30 3153 H 296.206 -0.0445343 1.83446 0
M  V30 3154 H 294.588 -2.25318 3.2565 0
M  V30 3155 H 295.762 0.270464 4.60006 0
M  V30 3156 H 294.077 0.0863061 4.16311 0
M  V30 3157 H 296.674 -2.65344 4.64216 0
M  V30 3158 H 297.017 -2.93447 2.95287 0
M  V30 3159 H 297.55 -1.41724 3.71698 0
M  V30 3160 H 294.289 -0.41447 6.54188 0
M  V30 3161 H 293.809 -1.8997 5.68921 0
M  V30 3162 H 295.488 -1.69001 6.24538 0
M  V30 3163 N 295.62 -1.53406 -0.361157 0
M  V30 3164 C 296.897 -1.60411 -1.11927 0
M  V30 3165 C 297.277 -0.414385 -2.06993 0
M  V30 3166 O 296.625 0.594976 -2.20618 0
M  V30 3167 C 296.835 -2.95652 -1.85448 0
M  V30 3168 C 298.183 -3.50386 -2.39823 0
M  V30 3169 O 299.207 -2.97711 -1.95568 0
M  V30 3170 O 298.066 -4.42482 -3.20737 0
M  V30 3171 H 295.16 -0.64811 -0.513695 0
M  V30 3172 H 297.706 -1.65749 -0.364065 0
M  V30 3173 H 296.478 -3.73682 -1.16091 0
M  V30 3174 H 296.101 -2.93825 -2.67866 0
M  V30 3175 N 297.098 0.621204 -1.44841 0
M  V30 3176 C 298.509 1.20298 -1.42777 0
M  V30 3177 C 298.86 1.95639 -0.148259 0
M  V30 3178 O 297.985 2.02955 0.750892 0
M  V30 3179 C 298.58 2.1882 -2.58657 0
M  V30 3180 C 297.139 2.72403 -2.59756 0
M  V30 3181 C 296.286 1.4757 -2.34773 0
M  V30 3182 H 299.237 0.411297 -1.53278 0
M  V30 3183 H 299.258 3.01607 -2.31977 0
M  V30 3184 H 298.77 1.63957 -3.51766 0
M  V30 3185 H 296.871 3.31242 -1.70615 0
M  V30 3186 H 296.984 3.17765 -3.58556 0
M  V30 3187 H 295.348 1.76051 -1.8406 0
M  V30 3188 H 296.131 0.945954 -3.3001 0
M  V30 3189 N 298.576 1.31904 0.862503 0
M  V30 3190 C 299.506 1.22782 1.98612 0
M  V30 3191 C 300.487 0.113362 1.69722 0
M  V30 3192 O 301.672 0.299218 1.91881 0
M  V30 3193 C 298.802 0.942058 3.34279 0
M  V30 3194 C 297.756 2.0169 3.77499 0
M  V30 3195 C 297.082 1.58369 5.10709 0
M  V30 3196 C 298.382 3.43096 3.93805 0
M  V30 3197 H 300.076 2.16788 2.06502 0
M  V30 3198 H 297.622 1.04366 0.992154 0
M  V30 3199 H 299.575 0.864818 4.1243 0
M  V30 3200 H 298.299 -0.0336603 3.26583 0
M  V30 3201 H 296.958 2.08416 3.01593 0
M  V30 3202 H 296.606 0.595628 4.99461 0
M  V30 3203 H 296.306 2.30279 5.40597 0
M  V30 3204 H 297.83 1.52067 5.91361 0
M  V30 3205 H 299.244 3.39003 4.62331 0
M  V30 3206 H 297.641 4.13288 4.35101 0
M  V30 3207 H 298.711 3.83334 2.96957 0
M  V30 3208 N 300.054 -1.07777 1.14986 0
M  V30 3209 C 301.001 -2.14867 0.842672 0
M  V30 3210 C 301.971 -1.6486 -0.202552 0
M  V30 3211 O 303.156 -1.90668 -0.0710568 0
M  V30 3212 C 300.296 -3.43486 0.333363 0
M  V30 3213 C 299.409 -4.07306 1.43965 0
M  V30 3214 C 298.544 -5.23744 0.886914 0
M  V30 3215 C 297.583 -5.79517 1.97043 0
M  V30 3216 N 296.72 -6.87291 1.4344 0
M  V30 3217 H 301.56 -2.40485 1.75986 0
M  V30 3218 H 299.097 -1.1801 0.878179 0
M  V30 3219 H 301.055 -4.17195 0.0198163 0
M  V30 3220 H 299.685 -3.18133 -0.546916 0
M  V30 3221 H 298.737 -3.31293 1.86946 0
M  V30 3222 H 300.049 -4.44771 2.25788 0
M  V30 3223 H 299.203 -6.04419 0.525651 0
M  V30 3224 H 297.942 -4.87685 0.0377957 0
M  V30 3225 H 296.947 -4.97491 2.34057 0
M  V30 3226 H 298.172 -6.17632 2.82325 0
M  V30 3227 H 296.118 -6.5318 0.607567 0
M  V30 3228 H 296.035 -7.23617 2.18895 0
M  V30 3229 H 297.303 -7.71682 1.10124 0
M  V30 3230 N 301.532 -0.945985 -1.26051 0
M  V30 3231 C 302.948 -0.649045 -1.45807 0
M  V30 3232 C 303.148 0.796158 -1.85104 0
M  V30 3233 O 302.204 1.57233 -1.97571 0
M  V30 3234 C 303.517 -1.61458 -2.53677 0
M  V30 3235 C 305.065 -1.62481 -2.67524 0
M  V30 3236 C 305.54 -2.57776 -3.7857 0
M  V30 3237 N 307.031 -2.5609 -3.85969 0
M  V30 3238 C 307.766 -3.26508 -4.7136 0
M  V30 3239 N 307.262 -4.0637 -5.61102 0
M  V30 3240 N 309.055 -3.15437 -4.65248 0
M  V30 3241 H 301.206 -1.88005 -0.988328 0
M  V30 3242 H 303.469 -0.808198 -0.4955 0
M  V30 3243 H 303.175 -2.64644 -2.31638 0
M  V30 3244 H 303.049 -1.37036 -3.51427 0
M  V30 3245 H 305.436 -0.600167 -2.88933 0
M  V30 3246 H 305.517 -1.90958 -1.70202 0
M  V30 3247 H 305.161 -3.60361 -3.57913 0
M  V30 3248 H 305.091 -2.26587 -4.75359 0
M  V30 3249 H 307.582 -1.98105 -3.21812 0
M  V30 3250 H 307.895 -4.57042 -6.23164 0
M  V30 3251 H 306.24 -4.10469 -5.60839 0
M  V30 3252 H 309.431 -2.52525 -3.94143 0
M  V30 3253 H 309.604 -3.70584 -5.31575 0
M  V30 3254 N 303.011 1.40521 -0.713556 0
M  V30 3255 C 303.921 2.34522 -0.0606667 0
M  V30 3256 C 304.937 1.57193 0.74607 0
M  V30 3257 O 306.113 1.89591 0.679493 0
M  V30 3258 C 303.178 3.36081 0.851491 0
M  V30 3259 C 302.239 4.29286 0.0349339 0
M  V30 3260 C 301.472 5.25994 0.903649 0
M  V30 3261 O 301.695 5.28616 2.14292 0
M  V30 3262 O 300.629 6.00918 0.343723 0
M  V30 3263 H 304.455 2.91968 -0.835972 0
M  V30 3264 H 302.04 1.41681 -0.47402 0
M  V30 3265 H 303.922 3.98369 1.37404 0
M  V30 3266 H 302.597 2.81052 1.60598 0
M  V30 3267 H 301.504 3.70289 -0.532633 0
M  V30 3268 H 302.837 4.87462 -0.681287 0
M  V30 3269 N 304.489 0.459591 1.5075 0
M  V30 3270 C 305.452 -0.329093 2.26825 0
M  V30 3271 C 306.452 -0.930481 1.31144 0
M  V30 3272 O 307.642 -0.801453 1.54669 0
M  V30 3273 C 304.774 -1.46768 3.07688 0
M  V30 3274 H 305.967 0.337924 2.9799 0
M  V30 3275 H 303.52 0.213336 1.54837 0
M  V30 3276 H 304.255 -2.17009 2.40993 0
M  V30 3277 H 304.04 -1.04238 3.77991 0
M  V30 3278 H 305.53 -2.02433 3.65254 0
M  V30 3279 N 305.967 -1.56429 0.191757 0
M  V30 3280 C 307.216 -1.9666 -0.448088 0
M  V30 3281 C 307.529 -1.08136 -1.62991 0
M  V30 3282 O 308.735 -1.38135 -2.33733 0
M  V30 3283 C 307.191 -3.49753 -0.848585 0
M  V30 3284 C 306.799 -4.46935 0.308764 0
M  V30 3285 C 308.543 -3.9876 -1.4557 0
M  V30 3286 C 306.45 -5.91293 -0.112506 0
M  V30 3287 H 305.38 -0.734312 -0.171179 0
M  V30 3288 H 308.031 -1.81301 0.283242 0
M  V30 3289 H 306.413 -3.60604 -1.63649 0
M  V30 3290 H 307.587 -4.47813 1.08627 0
M  V30 3291 H 305.902 -4.08102 0.827158 0
M  V30 3292 H 308.499 -5.04086 -1.78328 0
M  V30 3293 H 308.842 -3.42875 -2.36099 0
M  V30 3294 H 309.375 -3.9101 -0.731836 0
M  V30 3295 H 306.114 -6.51097 0.758514 0
M  V30 3296 H 305.634 -5.93676 -0.854941 0
M  V30 3297 H 307.313 -6.44663 -0.549448 0
M  V30 3298 N 307.445 0.0818655 -1.57387 0
M  V30 3299 C 308.393 1.11712 -2.04018 0
M  V30 3300 C 309.387 1.40683 -0.94364 0
M  V30 3301 O 310.593 1.40209 -1.12878 0
M  V30 3302 H 306.968 0.377542 -0.650358 0
M  V30 3303 H 308.939 0.697614 -2.90131 0
M  V30 3304 C 307.688 2.42537 -2.49141 0
M  V30 3305 H 307.011 2.21092 -3.33104 0
M  V30 3306 H 308.451 3.13446 -2.85531 0
M  V30 3307 C 306.91 3.0778 -1.37014 0
M  V30 3308 O 307.44 3.95436 -0.706621 0
M  V30 3309 N 305.646 2.68242 -1.11779 0
M  V30 3310 H 305.193 1.97052 -1.65917 0
M  V30 3311 H 305.151 3.1222 -0.369594 0
M  V30 3312 N 308.923 1.53595 0.353017 0
M  V30 3313 C 310.172 1.69603 1.09168 0
M  V30 3314 C 310.485 0.460925 1.90092 0
M  V30 3315 O 311.691 0.501774 2.66823 0
M  V30 3316 C 310.147 2.99872 1.9901 0
M  V30 3317 C 309.755 4.30687 1.23339 0
M  V30 3318 C 311.499 3.25246 2.72792 0
M  V30 3319 C 309.406 5.52036 2.12156 0
M  V30 3320 H 308.336 0.631966 0.411261 0
M  V30 3321 H 310.987 1.80096 0.351802 0
M  V30 3322 H 309.369 2.83212 2.7678 0
M  V30 3323 H 310.543 4.58019 0.505456 0
M  V30 3324 H 308.858 4.11853 0.613663 0
M  V30 3325 H 311.455 4.13095 3.39495 0
M  V30 3326 H 311.798 2.41846 3.38846 0
M  V30 3327 H 312.331 3.42638 2.021 0
M  V30 3328 H 309.07 6.37951 1.50659 0
M  V30 3329 H 308.59 5.28966 2.82764 0
M  V30 3330 H 310.269 5.87313 2.71427 0
M  V30 3331 N 310.401 -0.613514 1.45168 0
M  V30 3332 C 311.629 -1.39946 1.5239 0
M  V30 3333 C 312.044 -1.88167 0.154531 0
M  V30 3334 O 311.401 -1.61872 -0.842843 0
M  V30 3335 C 311.452 -2.60795 2.50337 0
M  V30 3336 O 311.173 -2.1458 3.81952 0
M  V30 3337 C 312.674 -3.53723 2.67198 0
M  V30 3338 H 309.894 -0.428593 0.516284 0
M  V30 3339 H 312.438 -0.748753 1.903 0
M  V30 3340 H 310.593 -3.21919 2.15515 0
M  V30 3341 H 311.007 -2.93055 4.34993 0
M  V30 3342 H 312.481 -4.35079 3.39721 0
M  V30 3343 H 312.958 -4.0368 1.73029 0
M  V30 3344 H 313.564 -2.98456 3.02992 0
M  V30 3345 N 311.879 -1.3236 -0.855495 0
M  V30 3346 C 312.809 -1.23833 -1.97958 0
M  V30 3347 C 313.79 -0.122361 -1.69659 0
M  V30 3348 O 314.975 -0.30939 -1.9172 0
M  V30 3349 C 312.105 -0.959772 -3.33775 0
M  V30 3350 C 311.059 -2.03689 -3.76424 0
M  V30 3351 C 310.385 -1.61075 -5.09862 0
M  V30 3352 C 311.685 -3.4518 -3.9198 0
M  V30 3353 H 313.379 -2.1788 -2.0535 0
M  V30 3354 H 310.925 -1.04891 -0.986605 0
M  V30 3355 H 312.878 -0.886678 -4.11966 0
M  V30 3356 H 311.602 0.0163404 -3.26596 0
M  V30 3357 H 310.261 -2.10012 -3.00484 0
M  V30 3358 H 309.909 -0.622107 -4.99138 0
M  V30 3359 H 309.609 -2.33143 -5.39368 0
M  V30 3360 H 311.133 -1.55201 -5.90546 0
M  V30 3361 H 312.547 -3.4145 -4.60526 0
M  V30 3362 H 310.944 -4.1559 -4.32903 0
M  V30 3363 H 312.014 -3.84903 -2.94919 0
M  V30 3364 N 313.357 1.07166 -1.15556 0
M  V30 3365 C 314.634 1.76546 -0.842069 0
M  V30 3366 C 315.014 2.00453 0.661939 0
M  V30 3367 O 314.362 1.62452 1.60691 0
M  V30 3368 C 314.572 3.07266 -1.65495 0
M  V30 3369 C 315.92 3.81578 -1.86234 0
M  V30 3370 O 316.944 3.17083 -1.62287 0
M  V30 3371 O 315.803 4.97419 -2.26355 0
M  V30 3372 H 312.897 0.766756 -0.309862 0
M  V30 3373 H 315.443 1.13514 -1.26145 0
M  V30 3374 H 314.215 2.85494 -2.67598 0
M  V30 3375 H 313.838 3.7803 -1.23203 0
M  V30 3376 N 314.835 0.952656 1.25548 0
M  V30 3377 C 315.785 0.442033 2.23674 0
M  V30 3378 C 316.769 -0.467632 1.53955 0
M  V30 3379 O 317.961 -0.301006 1.74422 0
M  V30 3380 C 315.09 -0.280816 3.4215 0
M  V30 3381 C 314.176 0.646803 4.19139 0
M  V30 3382 N 314.567 1.77759 4.73535 0
M  V30 3383 C 312.865 0.454617 4.43677 0
M  V30 3384 C 313.566 2.35658 5.31827 0
M  V30 3385 N 312.542 1.64333 5.18166 0
M  V30 3386 H 316.344 1.30505 2.63336 0
M  V30 3387 H 313.858 0.809904 1.40763 0
M  V30 3388 H 315.855 -0.663747 4.11582 0
M  V30 3389 H 314.515 -1.14046 3.04012 0
M  V30 3390 H 315.526 2.15949 4.7073 0
M  V30 3391 H 312.203 -0.362312 4.15925 0
M  V30 3392 H 313.593 3.30998 5.84713 0
M  V30 3393 N 316.313 -1.40141 0.720998 0
M  V30 3394 C 317.26 -2.30688 0.071919 0
M  V30 3395 C 318.23 -1.48476 -0.744584 0
M  V30 3396 O 319.415 -1.77201 -0.707423 0
M  V30 3397 C 316.555 -3.34724 -0.839855 0
M  V30 3398 C 315.668 -4.31998 -0.0122438 0
M  V30 3399 C 314.803 -5.23102 -0.923995 0
M  V30 3400 C 313.842 -6.12033 -0.0907969 0
M  V30 3401 N 312.979 -6.95537 -0.957718 0
M  V30 3402 H 317.819 -2.85628 0.849755 0
M  V30 3403 H 315.356 -1.40653 0.430726 0
M  V30 3404 H 317.314 -3.93618 -1.38279 0
M  V30 3405 H 315.944 -2.81274 -1.58381 0
M  V30 3406 H 314.996 -3.74841 0.64794 0
M  V30 3407 H 316.308 -4.94772 0.632595 0
M  V30 3408 H 315.462 -5.86953 -1.53527 0
M  V30 3409 H 314.201 -4.60615 -1.60264 0
M  V30 3410 H 313.206 -5.47207 0.533377 0
M  V30 3411 H 314.431 -6.76581 0.584428 0
M  V30 3412 H 312.377 -6.35633 -1.62192 0
M  V30 3413 H 312.294 -7.55099 -0.36904 0
M  V30 3414 H 313.562 -7.63832 -1.555 0
M  V30 3415 N 317.792 -0.46758 -1.50504 0
M  V30 3416 C 319.032 0.0874114 -2.04213 0
M  V30 3417 C 319.396 1.37301 -1.34211 0
M  V30 3418 O 320.597 2.01015 -1.78456 0
M  V30 3419 C 318.868 0.270571 -3.56374 0
M  V30 3420 S 320.427 0.784623 -4.31728 0
M  V30 3421 H 317.245 0.0176153 -0.710782 0
M  V30 3422 H 319.847 -0.633915 -1.84937 0
M  V30 3423 H 318.551 -0.670942 -4.04878 0
M  V30 3424 H 318.082 1.01811 -3.79997 0
M  V30 3425 H 320.097 2.05849 -4.51487 0
M  V30 3426 N 319.27 1.56325 -0.20005 0
M  V30 3427 C 320.217 2.1932 0.718833 0
M  V30 3428 C 321.187 1.14198 1.20615 0
M  V30 3429 O 322.372 1.42469 1.26914 0
M  V30 3430 C 319.512 2.86041 1.93066 0
M  V30 3431 C 318.625 4.05702 1.48425 0
M  V30 3432 C 317.76 4.60266 2.65196 0
M  V30 3433 C 316.799 5.72273 2.17185 0
M  V30 3434 N 315.936 6.21221 3.27152 0
M  V30 3435 H 320.776 2.97486 0.17489 0
M  V30 3436 H 318.313 1.46911 0.0745794 0
M  V30 3437 H 320.271 3.22897 2.64184 0
M  V30 3438 H 318.901 2.1043 2.44783 0
M  V30 3439 H 317.953 3.74475 0.668755 0
M  V30 3440 H 319.265 4.86699 1.09204 0
M  V30 3441 H 318.419 4.99453 3.4443 0
M  V30 3442 H 317.158 3.78386 3.07693 0
M  V30 3443 H 316.163 5.3261 1.36407 0
M  V30 3444 H 317.388 6.55974 1.75713 0
M  V30 3445 H 315.334 5.42263 3.69171 0
M  V30 3446 H 315.251 6.97284 2.92116 0
M  V30 3447 H 316.519 6.65063 4.06585 0
M  V30 3448 N 320.748 -0.0735177 1.57428 0
M  V30 3449 C 321.997 -0.771809 1.86349 0
M  V30 3450 C 322.31 -1.78828 0.792452 0
M  V30 3451 O 323.516 -2.53602 0.96945 0
M  V30 3452 C 321.972 -1.42358 3.30548 0
M  V30 3453 C 321.58 -0.445761 4.45777 0
M  V30 3454 C 323.324 -2.10434 3.6867 0
M  V30 3455 C 321.231 -1.10335 5.81016 0
M  V30 3456 H 320.161 -0.291999 0.695164 0
M  V30 3457 H 322.812 -0.0250749 1.83483 0
M  V30 3458 H 321.194 -2.21852 3.28021 0
M  V30 3459 H 322.368 0.319239 4.59693 0
M  V30 3460 H 320.683 0.130457 4.16196 0
M  V30 3461 H 323.28 -2.60405 4.67004 0
M  V30 3462 H 323.623 -2.90298 2.98383 0
M  V30 3463 H 324.156 -1.37773 3.7318 0
M  V30 3464 H 320.895 -0.345061 6.54591 0
M  V30 3465 H 320.415 -1.83925 5.70904 0
M  V30 3466 H 322.094 -1.62367 6.26295 0
M  V30 3467 N 322.226 -1.5378 -0.344866 0
M  V30 3468 C 323.473 -1.70963 -1.08526 0
M  V30 3469 C 323.801 -0.472126 -1.88683 0
M  V30 3470 O 323.056 0.546116 -1.87926 0
M  V30 3471 C 323.355 -2.92407 -2.05506 0
M  V30 3472 C 323.021 -4.28066 -1.41671 0
M  V30 3473 C 321.683 -4.64951 -1.2399 0
M  V30 3474 C 324.035 -5.12344 -0.956726 0
M  V30 3475 C 321.363 -5.83733 -0.589277 0
M  V30 3476 C 323.715 -6.3179 -0.320015 0
M  V30 3477 C 322.379 -6.67372 -0.130881 0
M  V30 3478 H 321.649 -0.625598 -0.397124 0
M  V30 3479 H 324.296 -1.87995 -0.36469 0
M  V30 3480 H 322.601 -2.69973 -2.8394 0
M  V30 3481 H 324.298 -3.02895 -2.62784 0
M  V30 3482 H 320.888 -3.99034 -1.56429 0
M  V30 3483 H 325.072 -4.8438 -1.08118 0
M  V30 3484 H 320.328 -6.09877 -0.431344 0
M  V30 3485 H 324.502 -6.96386 0.0445072 0
M  V30 3486 H 322.129 -7.59273 0.375318 0
M  V30 3487 N 323.704 0.605807 -1.45491 0
M  V30 3488 C 324.636 1.73031 -1.5031 0
M  V30 3489 C 325.649 1.57968 -0.393687 0
M  V30 3490 O 326.838 1.65817 -0.660839 0
M  V30 3491 C 323.938 3.11049 -1.34543 0
M  V30 3492 C 323.111 3.52334 -2.59189 0
M  V30 3493 C 322.17 4.69323 -2.37954 0
M  V30 3494 O 321.196 4.7635 -3.11575 0
M  V30 3495 N 322.398 5.62705 -1.4263 0
M  V30 3496 H 325.163 1.6936 -2.4726 0
M  V30 3497 H 322.724 0.79114 -1.41254 0
M  V30 3498 H 324.716 3.87071 -1.18144 0
M  V30 3499 H 323.286 3.09217 -0.458623 0
M  V30 3500 H 322.506 2.66256 -2.90691 0
M  V30 3501 H 323.794 3.76677 -3.42041 0
M  V30 3502 H 323.192 5.59744 -0.818758 0
M  V30 3503 H 321.749 6.38252 -1.32202 0
M  V30 3504 N 325.182 1.32811 0.848464 0
M  V30 3505 C 326.41 1.26739 1.63538 0
M  V30 3506 C 326.825 -0.163484 1.88091 0
M  V30 3507 O 326.182 -1.10258 1.45429 0
M  V30 3508 C 326.233 2.03013 2.99112 0
M  V30 3509 O 325.954 3.40518 2.75643 0
M  V30 3510 C 327.455 2.04038 3.93552 0
M  V30 3511 H 324.675 0.437024 0.509167 0
M  V30 3512 H 327.219 1.75033 1.05753 0
M  V30 3513 H 325.374 1.58426 3.53525 0
M  V30 3514 H 325.788 3.79635 3.61908 0
M  V30 3515 H 327.262 2.61877 4.85926 0
M  V30 3516 H 327.739 1.0282 4.26995 0
M  V30 3517 H 328.345 2.486 3.45077 0
M  V30 3518 N 326.66 -1.06551 1.16123 0
M  V30 3519 C 327.59 -2.15935 0.88851 0
M  V30 3520 C 328.571 -1.69306 -0.164135 0
M  V30 3521 O 329.756 -1.94193 -0.0167857 0
M  V30 3522 C 326.886 -3.45149 0.385942 0
M  V30 3523 C 325.84 -4.05271 1.3762 0
M  V30 3524 C 325.166 -5.29664 0.732137 0
M  V30 3525 C 326.466 -4.44355 2.74493 0
M  V30 3526 H 328.16 -2.39006 1.80323 0
M  V30 3527 H 325.706 -1.14866 0.868435 0
M  V30 3528 H 327.659 -4.21004 0.182647 0
M  V30 3529 H 326.383 -3.21689 -0.564274 0
M  V30 3530 H 325.042 -3.3147 1.56599 0
M  V30 3531 H 324.69 -5.02499 -0.224483 0
M  V30 3532 H 324.39 -5.70848 1.39307 0
M  V30 3533 H 325.914 -6.08218 0.538802 0
M  V30 3534 H 327.328 -5.11303 2.59311 0
M  V30 3535 H 325.725 -4.96515 3.37035 0
M  V30 3536 H 326.795 -3.55339 3.29943 0
M  V30 3537 N 328.138 -0.959301 -1.25041 0
M  V30 3538 C 329.086 -0.474437 -2.2771 0
M  V30 3539 C 330.08 0.457697 -1.631 0
M  V30 3540 O 331.286 0.333912 -1.76876 0
M  V30 3541 H 327.661 -0.134936 -0.739795 0
M  V30 3542 H 329.632 -1.35251 -2.65988 0
M  V30 3543 C 328.381 0.227884 -3.46952 0
M  V30 3544 H 327.704 -0.480248 -3.96905 0
M  V30 3545 H 329.144 0.531091 -4.20661 0
M  V30 3546 C 327.603 1.452 -3.04004 0
M  V30 3547 O 328.133 2.54949 -3.10426 0
M  V30 3548 N 326.339 1.31502 -2.59144 0
M  V30 3549 H 325.886 0.422065 -2.54119 0
M  V30 3550 H 325.844 2.13521 -2.30773 0
M  V30 3551 N 329.616 1.39756 -0.72842 0
M  V30 3552 C 330.864 2.00248 -0.272946 0
M  V30 3553 C 331.185 1.58077 1.14178 0
M  V30 3554 O 330.455 0.826014 1.77634 0
M  V30 3555 H 329.035 0.740554 -0.0979247 0
M  V30 3556 H 331.697 1.70903 -0.936912 0
M  V30 3557 H 330.793 3.10495 -0.316142 0
M  V30 3558 N 331.094 0.475555 1.50254 0
M  V30 3559 C 332.057 -0.305016 2.27161 0
M  V30 3560 C 333.057 -0.916519 1.32123 0
M  V30 3561 O 334.247 -0.785003 1.5551 0
M  V30 3562 C 331.379 -1.43496 3.09227 0
M  V30 3563 H 332.572 0.369511 2.97615 0
M  V30 3564 H 330.125 0.229747 1.54602 0
M  V30 3565 H 330.86 -2.14441 2.43281 0
M  V30 3566 H 330.645 -1.00223 3.79075 0
M  V30 3567 H 332.135 -1.98548 3.67381 0
M  V30 3568 N 332.573 -1.56217 0.208337 0
M  V30 3569 C 333.819 -1.98242 -0.427552 0
M  V30 3570 C 334.152 -1.09554 -1.60348 0
M  V30 3571 O 333.427 -0.15035 -1.93918 0
M  V30 3572 C 333.71 -3.4931 -0.874907 0
M  V30 3573 C 333.563 -4.48773 0.303751 0
M  V30 3574 C 334.882 -4.04424 -1.73577 0
M  V30 3575 H 332.001 -0.720744 -0.153936 0
M  V30 3576 H 334.643 -1.87586 0.30192 0
M  V30 3577 H 332.793 -3.58522 -1.49648 0
M  V30 3578 H 334.465 -4.51586 0.941682 0
M  V30 3579 H 332.708 -4.23194 0.953375 0
M  V30 3580 H 333.379 -5.51976 -0.0519883 0
M  V30 3581 H 335.855 -3.98075 -1.21143 0
M  V30 3582 H 334.731 -5.1047 -2.01771 0
M  V30 3583 H 334.992 -3.50494 -2.69456 0
M  V30 3584 N 334.051 0.0651679 -1.57465 0
M  V30 3585 C 335.328 0.79644 -1.78651 0
M  V30 3586 C 335.708 1.95454 -0.797566 0
M  V30 3587 O 335.056 2.27882 0.167946 0
M  V30 3588 C 335.266 1.26322 -3.25337 0
M  V30 3589 C 336.614 1.6939 -3.89348 0
M  V30 3590 O 337.638 1.35872 -3.29268 0
M  V30 3591 O 336.497 2.31471 -4.95059 0
M  V30 3592 H 333.591 0.382157 -0.733407 0
M  V30 3593 H 336.137 0.0447311 -1.69641 0
M  V30 3594 H 334.909 0.434859 -3.88876 0
M  V30 3595 H 334.532 2.07604 -3.39096 0
M  V30 3596 N 335.529 1.53961 0.336706 0
M  V30 3597 C 336.439 1.85432 1.43708 0
M  V30 3598 C 337.455 0.745053 1.57242 0
M  V30 3599 O 338.631 1.03804 1.72588 0
M  V30 3600 C 335.696 2.06349 2.78605 0
M  V30 3601 C 334.757 3.30191 2.74358 0
M  V30 3602 C 333.99 3.50101 4.02822 0
M  V30 3603 O 334.213 2.7371 5.00439 0
M  V30 3604 O 333.147 4.43547 4.06878 0
M  V30 3605 H 336.973 2.78975 1.20028 0
M  V30 3606 H 334.558 1.39701 0.52952 0
M  V30 3607 H 336.44 2.21513 3.58483 0
M  V30 3608 H 335.115 1.15995 3.02203 0
M  V30 3609 H 334.022 3.20425 1.93078 0
M  V30 3610 H 335.355 4.2056 2.55715 0
M  V30 3611 N 337.007 -0.598083 1.45811 0
M  V30 3612 C 338.253 -1.35882 1.50545 0
M  V30 3613 C 338.586 -1.93616 0.150445 0
M  V30 3614 O 337.861 -1.75604 -0.83628 0
M  V30 3615 C 338.144 -2.49966 2.59208 0
M  V30 3616 C 337.997 -1.97367 4.04186 0
M  V30 3617 C 339.316 -3.52068 2.64076 0
M  V30 3618 H 336.435 -0.492717 0.548087 0
M  V30 3619 H 339.077 -0.673319 1.77669 0
M  V30 3620 H 337.227 -3.08443 2.3621 0
M  V30 3621 H 338.899 -1.43466 4.38423 0
M  V30 3622 H 337.142 -1.283 4.14393 0
M  V30 3623 H 337.813 -2.79649 4.75921 0
M  V30 3624 H 340.289 -3.03448 2.84708 0
M  V30 3625 H 339.165 -4.2937 3.41954 0
M  V30 3626 H 339.426 -4.08304 1.69531 0
M  V30 3627 N 338.485 -1.33259 -0.841409 0
M  V30 3628 C 339.731 -1.24757 -1.59886 0
M  V30 3629 C 340.064 0.186913 -1.93298 0
M  V30 3630 O 339.339 1.12757 -1.5848 0
M  V30 3631 C 339.622 -2.12036 -2.91055 0
M  V30 3632 C 339.475 -3.63929 -2.6434 0
M  V30 3633 C 340.794 -1.9916 -3.92458 0
M  V30 3634 H 337.913 -0.454542 -0.580138 0
M  V30 3635 H 340.555 -1.63335 -0.970647 0
M  V30 3636 H 338.705 -1.79265 -3.44669 0
M  V30 3637 H 340.377 -4.06978 -2.17178 0
M  V30 3638 H 338.62 -3.85935 -1.98082 0
M  V30 3639 H 339.291 -4.20341 -3.57796 0
M  V30 3640 H 341.767 -2.27895 -3.48143 0
M  V30 3641 H 340.643 -2.62484 -4.82072 0
M  V30 3642 H 340.904 -0.963082 -4.31482 0
M  V30 3643 N 339.963 1.05934 -1.16686 0
M  V30 3644 C 340.893 2.1546 -0.899949 0
M  V30 3645 C 341.874 1.69391 0.155154 0
M  V30 3646 O 343.059 1.94199 0.00648693 0
M  V30 3647 C 340.189 3.44939 -0.404241 0
M  V30 3648 C 339.143 4.04536 -1.39767 0
M  V30 3649 C 338.469 5.29268 -0.760216 0
M  V30 3650 C 339.769 4.42893 -2.76845 0
M  V30 3651 H 341.463 2.38046 -1.81588 0
M  V30 3652 H 339.009 1.14404 -0.874514 0
M  V30 3653 H 340.962 4.20901 -0.204971 0
M  V30 3654 H 339.686 3.21983 0.547206 0
M  V30 3655 H 338.345 3.30635 -1.58355 0
M  V30 3656 H 337.993 5.02611 0.197831 0
M  V30 3657 H 337.693 5.70101 -1.42332 0
M  V30 3658 H 339.217 6.07924 -0.57105 0
M  V30 3659 H 340.631 5.09921 -2.62019 0
M  V30 3660 H 339.028 4.94721 -3.39663 0
M  V30 3661 H 340.098 3.53584 -3.31823 0
M  V30 3662 N 341.441 0.965919 1.2453 0
M  V30 3663 C 342.388 0.49402 2.25451 0
M  V30 3664 C 343.358 -0.45948 1.59618 0
M  V30 3665 O 344.543 -0.370238 1.87173 0
M  V30 3666 C 341.683 -0.211359 3.44452 0
M  V30 3667 C 340.796 0.7807 4.24887 0
M  V30 3668 C 339.931 0.0516105 5.31175 0
M  V30 3669 C 338.97 1.03385 6.03306 0
M  V30 3670 N 338.107 0.334887 7.01301 0
M  V30 3671 H 342.947 1.35946 2.65184 0
M  V30 3672 H 340.484 0.681515 1.3036 0
M  V30 3673 H 342.442 -0.637 4.12308 0
M  V30 3674 H 341.072 -1.04077 3.05562 0
M  V30 3675 H 340.124 1.32479 3.56586 0
M  V30 3676 H 341.436 1.52978 4.74762 0
M  V30 3677 H 340.59 -0.432114 6.05159 0
M  V30 3678 H 339.329 -0.730179 4.82203 0
M  V30 3679 H 338.334 1.52847 5.28127 0
M  V30 3680 H 339.559 1.81606 6.54367 0
M  V30 3681 H 337.505 -0.427959 6.54603 0
M  V30 3682 H 337.422 1.02287 7.49048 0
M  V30 3683 H 338.69 -0.126928 7.79397 0
M  V30 3684 N 342.919 -1.39368 0.735821 0
M  V30 3685 C 344.166 -2.00497 0.284123 0
M  V30 3686 C 344.494 -1.58387 -1.12889 0
M  V30 3687 O 343.749 -0.804359 -1.78406 0
M  V30 3688 C 344.048 -3.5583 0.334651 0
M  V30 3689 C 343.714 -4.17593 1.7008 0
M  V30 3690 C 342.376 -4.34176 2.07472 0
M  V30 3691 C 344.728 -4.51848 2.59775 0
M  V30 3692 C 342.056 -4.82304 3.34065 0
M  V30 3693 C 344.408 -5.01384 3.85741 0
M  V30 3694 C 343.072 -5.16175 4.23225 0
M  V30 3695 H 342.342 -0.73367 0.103968 0
M  V30 3696 H 344.989 -1.66683 0.942825 0
M  V30 3697 H 343.294 -3.89674 -0.407625 0
M  V30 3698 H 344.991 -4.00986 -0.0329927 0
M  V30 3699 H 341.581 -4.05087 1.40008 0
M  V30 3700 H 345.765 -4.38653 2.32157 0
M  V30 3701 H 341.021 -4.91941 3.63049 0
M  V30 3702 H 345.195 -5.26863 4.55399 0
M  V30 3703 H 342.822 -5.5323 5.21384 0
M  V30 3704 N 344.397 -0.483516 -1.5 0
M  V30 3705 C 345.307 0.309172 -2.32554 0
M  V30 3706 C 346.323 0.984159 -1.43493 0
M  V30 3707 O 347.499 0.969399 -1.76535 0
M  V30 3708 C 344.564 1.36979 -3.18493 0
M  V30 3709 C 343.625 0.710095 -4.23387 0
M  V30 3710 C 342.858 1.72018 -5.05218 0
M  V30 3711 O 343.081 2.94813 -4.88305 0
M  V30 3712 O 342.015 1.28515 -5.8802 0
M  V30 3713 H 345.841 -0.366064 -3.01486 0
M  V30 3714 H 343.426 -0.24514 -1.47375 0
M  V30 3715 H 345.308 1.98385 -3.71781 0
M  V30 3716 H 343.983 2.02828 -2.52275 0
M  V30 3717 H 342.89 0.0567539 -3.74057 0
M  V30 3718 H 344.223 0.0943557 -4.9211 0
M  V30 3719 N 345.875 1.56104 -0.216619 0
M  V30 3720 C 346.823 2.21434 0.712036 0
M  V30 3721 C 347.817 1.19218 1.20348 0
M  V30 3722 O 349.023 1.3731 1.16387 0
M  V30 3723 H 345.398 0.70992 0.248026 0
M  V30 3724 H 347.369 2.98083 0.137558 0
M  V30 3725 C 346.118 2.90434 1.91163 0
M  V30 3726 H 345.441 3.68842 1.54258 0
M  V30 3727 H 346.881 3.39552 2.5393 0
M  V30 3728 C 345.34 1.92635 2.76394 0
M  V30 3729 O 345.87 1.44017 3.74996 0
M  V30 3730 N 344.076 1.60392 2.42328 0
M  V30 3731 H 343.623 2.00122 1.622 0
M  V30 3732 H 343.581 0.952159 2.99635 0
M  V30 3733 N 347.353 -0.0568162 1.57498 0
M  V30 3734 C 348.601 -0.751617 1.87604 0
M  V30 3735 C 348.922 -1.77351 0.81066 0
M  V30 3736 O 348.192 -1.95254 -0.159018 0
M  V30 3737 H 346.772 -0.280583 0.692302 0
M  V30 3738 H 349.434 -0.0293483 1.94878 0
M  V30 3739 H 348.53 -1.25852 2.856 0
M  V30 3740 N 348.832 -1.54138 -0.328536 0
M  V30 3741 C 349.779 -1.83176 -1.40411 0
M  V30 3742 C 350.749 -0.678494 -1.5161 0
M  V30 3743 O 351.934 -0.92443 -1.6691 0
M  V30 3744 C 349.074 -2.06035 -2.76846 0
M  V30 3745 C 348.187 -3.33727 -2.74318 0
M  V30 3746 C 347.322 -3.46574 -4.02567 0
M  V30 3747 C 346.361 -4.68159 -3.94327 0
M  V30 3748 N 345.498 -4.77959 -5.14296 0
M  V30 3749 H 350.338 -2.74938 -1.14948 0
M  V30 3750 H 347.875 -1.36166 -0.556538 0
M  V30 3751 H 349.833 -2.1728 -3.56153 0
M  V30 3752 H 348.463 -1.1757 -3.00628 0
M  V30 3753 H 347.515 -3.31246 -1.8703 0
M  V30 3754 H 348.827 -4.23139 -2.64111 0
M  V30 3755 H 347.981 -3.57333 -4.90304 0
M  V30 3756 H 346.72 -2.55245 -4.15574 0
M  V30 3757 H 345.725 -4.57461 -3.04974 0
M  V30 3758 H 346.95 -5.60868 -3.82889 0
M  V30 3759 H 344.896 -3.89544 -5.27818 0
M  V30 3760 H 344.813 -5.6133 -5.06404 0
M  V30 3761 H 346.081 -4.93044 -6.03761 0
M  V30 3762 N 350.31 0.590341 -1.46126 0
M  V30 3763 C 351.273 1.68194 -1.55703 0
M  V30 3764 C 352.273 1.54808 -0.434868 0
M  V30 3765 O 353.463 1.59564 -0.698928 0
M  V30 3766 C 350.595 3.07575 -1.47005 0
M  V30 3767 H 351.788 1.61064 -2.52979 0
M  V30 3768 H 349.341 0.807541 -1.33823 0
M  V30 3769 H 350.076 3.20268 -0.509785 0
M  V30 3770 H 349.861 3.187 -2.28414 0
M  V30 3771 H 351.351 3.87055 -1.56776 0
M  V30 3772 N 351.788 1.33704 0.83433 0
M  V30 3773 C 353.204 1.13137 1.12571 0
M  V30 3774 C 353.404 -0.0747261 2.01361 0
M  V30 3775 O 352.46 -0.753647 2.4099 0
M  V30 3776 C 353.773 2.42105 1.78342 0
M  V30 3777 C 355.321 2.48054 1.90888 0
M  V30 3778 C 355.796 3.76995 2.60075 0
M  V30 3779 N 357.287 3.78092 2.67584 0
M  V30 3780 C 358.022 4.74574 3.21818 0
M  V30 3781 N 357.518 5.81434 3.76705 0
M  V30 3782 N 359.311 4.62044 3.20112 0
M  V30 3783 H 351.462 2.11 0.243489 0
M  V30 3784 H 353.725 0.932532 0.17055 0
M  V30 3785 H 353.431 3.30391 1.20561 0
M  V30 3786 H 353.305 2.54594 2.7832 0
M  V30 3787 H 355.692 1.60215 2.47821 0
M  V30 3788 H 355.773 2.39502 0.898459 0
M  V30 3789 H 355.417 4.65219 2.03799 0
M  V30 3790 H 355.347 3.82825 3.61597 0
M  V30 3791 H 357.838 3.00865 2.28667 0
M  V30 3792 H 358.151 6.51084 4.16305 0
M  V30 3793 H 356.496 5.85163 3.7498 0
M  V30 3794 H 359.687 3.77716 2.76493 0
M  V30 3795 H 359.86 5.37406 3.62076 0
M  V30 3796 N 353.266 -1.05314 1.17247 0
M  V30 3797 C 354.229 -2.112 0.890357 0
M  V30 3798 C 355.229 -1.60359 -0.118943 0
M  V30 3799 O 356.419 -1.73833 0.113086 0
M  V30 3800 C 353.551 -3.39266 0.333422 0
M  V30 3801 H 354.744 -2.37659 1.82916 0
M  V30 3802 H 352.297 -1.21538 0.982758 0
M  V30 3803 H 353.032 -3.18462 -0.612587 0
M  V30 3804 H 352.817 -3.77477 1.06082 0
M  V30 3805 H 354.307 -4.17315 0.154322 0
M  V30 3806 N 354.744 -0.972509 -1.24016 0
M  V30 3807 C 355.691 -0.505969 -2.25186 0
M  V30 3808 C 356.661 0.451009 -1.5986 0
M  V30 3809 O 357.846 0.360307 -1.87367 0
M  V30 3810 C 354.986 0.193089 -3.44559 0
M  V30 3811 C 354.099 -0.803222 -4.24467 0
M  V30 3812 C 353.234 -0.0797793 -5.3114 0
M  V30 3813 C 352.273 -1.06583 -6.02749 0
M  V30 3814 N 351.41 -0.372074 -7.01113 0
M  V30 3815 H 356.25 -1.37351 -2.64459 0
M  V30 3816 H 353.787 -0.688419 -1.29997 0
M  V30 3817 H 355.745 0.615125 -4.1264 0
M  V30 3818 H 354.375 1.02455 -3.06109 0
M  V30 3819 H 353.427 -1.34368 -3.55878 0
M  V30 3820 H 354.739 -1.55494 -4.73944 0
M  V30 3821 H 353.893 0.400015 -6.0538 0
M  V30 3822 H 352.632 0.704597 -4.82583 0
M  V30 3823 H 351.637 -1.55645 -5.27309 0
M  V30 3824 H 352.862 -1.85074 -6.53395 0
M  V30 3825 H 350.808 0.393238 -6.5482 0
M  V30 3826 H 350.725 -1.06258 -7.48495 0
M  V30 3827 H 351.993 0.0855932 -7.79453 0
M  V30 3828 N 356.222 1.38976 -0.743202 0
M  V30 3829 C 357.17 2.32394 -0.0978389 0
M  V30 3830 C 358.164 1.53486 0.716824 0
M  V30 3831 O 359.37 1.69092 0.617088 0
M  V30 3832 H 355.745 0.75189 -0.0128402 0
M  V30 3833 H 357.716 2.84441 -0.901981 0
M  V30 3834 C 356.465 3.38629 0.789036 0
M  V30 3835 H 355.788 3.99432 0.171559 0
M  V30 3836 H 357.228 4.06426 1.20807 0
M  V30 3837 C 355.687 2.76347 1.92702 0
M  V30 3838 O 356.217 2.64836 3.02034 0
M  V30 3839 N 354.423 2.34311 1.71891 0
M  V30 3840 H 353.97 2.43873 0.829675 0
M  V30 3841 H 353.928 1.9298 2.48205 0
M  V30 3842 N 357.7 0.491464 1.49741 0
M  V30 3843 C 358.928 -0.0535151 2.06831 0
M  V30 3844 C 359.343 -1.31683 1.35296 0
M  V30 3845 O 358.7 -1.77402 0.42836 0
M  V30 3846 C 358.751 -0.320835 3.60073 0
M  V30 3847 O 358.472 0.892394 4.28915 0
M  V30 3848 C 359.973 -0.910519 4.33848 0
M  V30 3849 H 357.193 0.0161909 0.670805 0
M  V30 3850 H 359.737 0.68609 1.92647 0
M  V30 3851 H 357.892 -1.0104 3.73991 0
M  V30 3852 H 358.306 0.649401 5.20464 0
M  V30 3853 H 359.78 -1.04721 5.41976 0
M  V30 3854 H 360.257 -1.90589 3.95692 0
M  V30 3855 H 360.863 -0.258712 4.24512 0
M  V30 3856 N 359.178 -1.55987 0.224894 0
M  V30 3857 C 360.425 -1.9839 -0.4059 0
M  V30 3858 C 360.753 -1.11261 -1.59535 0
M  V30 3859 O 360.008 -0.158314 -1.95059 0
M  V30 3860 C 360.307 -3.46394 -0.880106 0
M  V30 3861 C 359.973 -4.5046 0.19918 0
M  V30 3862 C 358.635 -4.7864 0.495661 0
M  V30 3863 C 360.987 -5.12855 0.928939 0
M  V30 3864 C 358.315 -5.66497 1.52636 0
M  V30 3865 C 360.667 -6.01828 1.949 0
M  V30 3866 C 359.331 -6.28351 2.25236 0
M  V30 3867 H 358.601 -0.725961 -0.148529 0
M  V30 3868 H 361.248 -1.88668 0.328113 0
M  V30 3869 H 359.553 -3.53337 -1.69294 0
M  V30 3870 H 361.25 -3.76577 -1.37808 0
M  V30 3871 H 357.84 -4.28579 -0.0420526 0
M  V30 3872 H 362.024 -4.9115 0.713129 0
M  V30 3873 H 357.28 -5.8531 1.76698 0
M  V30 3874 H 361.454 -6.49225 2.51951 0
M  V30 3875 H 359.081 -6.96226 3.05244 0
M  V30 3876 N 360.656 0.0484629 -1.57525 0
M  V30 3877 C 361.886 0.754326 -1.92337 0
M  V30 3878 C 362.294 1.70443 -0.82132 0
M  V30 3879 O 361.637 1.82466 0.21254 0
M  V30 3880 C 361.699 1.58231 -3.22805 0
M  V30 3881 C 361.363 0.799074 -4.4996 0
M  V30 3882 C 362.36 0.1079 -5.19788 0
M  V30 3883 C 360.045 0.759345 -4.96527 0
M  V30 3884 C 362.039 -0.612516 -6.3445 0
M  V30 3885 C 359.726 0.0351713 -6.1109 0
M  V30 3886 C 360.724 -0.649537 -6.79904 0
M  V30 3887 O 360.412 -1.36199 -7.92278 0
M  V30 3888 H 360.144 0.218257 -0.639797 0
M  V30 3889 H 362.698 0.0159295 -2.05394 0
M  V30 3890 H 360.928 2.36406 -3.06021 0
M  V30 3891 H 362.617 2.16898 -3.43089 0
M  V30 3892 H 363.383 0.129748 -4.84826 0
M  V30 3893 H 359.262 1.28177 -4.42822 0
M  V30 3894 H 362.806 -1.14751 -6.88097 0
M  V30 3895 H 358.703 0.0113314 -6.45499 0
M  V30 3896 H 359.471 -1.27366 -8.0853 0
M  V30 3897 N 362.134 1.5431 0.320358 0
M  V30 3898 C 363.044 1.86946 1.41734 0
M  V30 3899 C 364.06 0.761689 1.56443 0
M  V30 3900 O 365.236 1.05629 1.71477 0
M  V30 3901 C 362.301 2.09293 2.76401 0
M  V30 3902 C 361.362 3.33082 2.70841 0
M  V30 3903 C 360.595 3.54353 3.99086 0
M  V30 3904 O 360.818 2.79002 4.97508 0
M  V30 3905 O 359.752 4.47838 4.0215 0
M  V30 3906 H 363.578 2.80232 1.17062 0
M  V30 3907 H 361.163 1.40255 0.514673 0
M  V30 3908 H 363.045 2.25303 3.56113 0
M  V30 3909 H 361.72 1.19194 3.00956 0
M  V30 3910 H 360.627 3.22454 1.89668 0
M  V30 3911 H 361.96 4.23249 2.5124 0
M  V30 3912 N 363.613 -0.582584 1.46437 0
M  V30 3913 C 364.841 -1.36682 1.55324 0
M  V30 3914 C 365.256 -1.87796 0.194409 0
M  V30 3915 O 364.613 -1.63623 -0.808318 0
M  V30 3916 C 364.664 -2.55426 2.55812 0
M  V30 3917 O 364.385 -2.0643 3.86417 0
M  V30 3918 C 365.886 -3.47976 2.74641 0
M  V30 3919 H 363.106 -0.417545 0.525259 0
M  V30 3920 H 365.65 -0.708219 1.91845 0
M  V30 3921 H 363.805 -3.17275 2.22295 0
M  V30 3922 H 364.219 -2.83762 4.41111 0
M  V30 3923 H 365.693 -4.27775 3.48874 0
M  V30 3924 H 366.17 -3.99919 1.81553 0
M  V30 3925 H 366.776 -2.91962 3.09255 0
M  V30 3926 N 365.091 -1.34144 -0.827227 0
M  V30 3927 C 366.021 -1.28005 -1.95287 0
M  V30 3928 C 367.002 -0.158321 -1.69362 0
M  V30 3929 O 368.187 -0.349987 -1.9102 0
M  V30 3930 C 365.317 -1.03036 -3.31664 0
M  V30 3931 C 364.271 -2.11628 -3.72019 0
M  V30 3932 C 363.597 -1.71854 -5.0633 0
M  V30 3933 C 364.897 -3.53417 -3.8457 0
M  V30 3934 H 366.591 -2.22187 -2.00682 0
M  V30 3935 H 364.137 -1.0696 -0.964135 0
M  V30 3936 H 366.09 -0.973863 -4.09993 0
M  V30 3937 H 364.814 -0.0529391 -3.26557 0
M  V30 3938 H 363.473 -2.16339 -2.95961 0
M  V30 3939 H 363.121 -0.727841 -4.97706 0
M  V30 3940 H 362.821 -2.44531 -5.34302 0
M  V30 3941 H 364.345 -1.67692 -5.87122 0
M  V30 3942 H 365.759 -3.51142 -4.5318 0
M  V30 3943 H 364.156 -4.24679 -4.2399 0
M  V30 3944 H 365.226 -3.91072 -2.86689 0
M  V30 3945 N 366.569 1.04691 -1.17803 0
M  V30 3946 C 367.98 1.59238 -0.974689 0
M  V30 3947 C 368.331 1.90306 0.477292 0
M  V30 3948 O 367.456 1.68846 1.35352 0
M  V30 3949 C 368.051 2.89318 -1.76296 0
M  V30 3950 C 366.61 3.40506 -1.60414 0
M  V30 3951 C 365.757 2.14172 -1.76141 0
M  V30 3952 H 368.708 0.874395 -1.32439 0
M  V30 3953 H 368.729 3.5944 -1.24833 0
M  V30 3954 H 368.241 2.66675 -2.81968 0
M  V30 3955 H 366.342 3.68175 -0.572519 0
M  V30 3956 H 366.455 4.14753 -2.39827 0
M  V30 3957 H 364.819 2.25176 -1.19028 0
M  V30 3958 H 365.602 1.93992 -2.83235 0
M  V30 3959 N 368.047 0.979072 1.23499 0
M  V30 3960 C 369.293 0.648178 1.92163 0
M  V30 3961 C 369.626 -0.816049 1.76222 0
M  V30 3962 O 368.901 -1.58849 1.12237 0
M  V30 3963 C 369.184 1.03773 3.44824 0
M  V30 3964 C 369.037 2.55948 3.69879 0
M  V30 3965 C 370.356 0.580653 4.36253 0
M  V30 3966 H 367.475 0.236952 0.69787 0
M  V30 3967 H 370.117 1.22012 1.45647 0
M  V30 3968 H 368.267 0.551058 3.84572 0
M  V30 3969 H 369.939 3.12179 3.3962 0
M  V30 3970 H 368.182 2.98641 3.14636 0
M  V30 3971 H 368.853 2.78255 4.76737 0
M  V30 3972 H 371.329 0.998465 4.03943 0
M  V30 3973 H 370.205 0.881663 5.41773 0
M  V30 3974 H 370.466 -0.519052 4.39042 0
M  V30 3975 N 369.525 -1.3858 0.750561 0
M  V30 3976 C 370.488 -2.28836 0.129152 0
M  V30 3977 C 371.488 -1.47045 -0.650714 0
M  V30 3978 O 372.678 -1.6753 -0.477428 0
M  V30 3979 C 369.81 -3.30751 -0.825622 0
M  V30 3980 H 371.003 -2.85294 0.924516 0
M  V30 3981 H 368.556 -1.47489 0.517376 0
M  V30 3982 H 369.291 -2.79378 -1.64677 0
M  V30 3983 H 369.076 -3.91177 -0.268852 0
M  V30 3984 H 370.566 -3.98249 -1.2565 0
M  V30 3985 N 371.003 -0.499398 -1.49478 0
M  V30 3986 C 372.252 0.0475259 -2.01644 0
M  V30 3987 C 372.565 1.38195 -1.38425 0
M  V30 3988 O 373.771 2.01547 -1.8191 0
M  V30 3989 C 372.227 0.135164 -3.59646 0
M  V30 3990 C 371.835 -1.19252 -4.31837 0
M  V30 3991 C 373.579 0.632538 -4.19761 0
M  V30 3992 C 371.486 -1.06713 -5.81693 0
M  V30 3993 H 370.416 0.0215349 -0.753692 0
M  V30 3994 H 373.067 -0.638577 -1.7203 0
M  V30 3995 H 371.449 0.885681 -3.85969 0
M  V30 3996 H 372.623 -1.9562 -4.17216 0
M  V30 3997 H 370.938 -1.62321 -3.83459 0
M  V30 3998 H 373.535 0.743833 -5.29501 0
M  V30 3999 H 373.878 1.63098 -3.83021 0
M  V30 4000 H 374.411 -0.0613987 -3.97753 0
M  V30 4001 H 371.15 -2.03979 -6.22955 0
M  V30 4002 H 370.67 -0.344307 -5.98811 0
M  V30 4003 H 372.349 -0.745208 -6.42694 0
M  V30 4004 N 372.481 1.55866 -0.233164 0
M  V30 4005 C 373.429 2.22176 0.68851 0
M  V30 4006 C 374.423 1.20487 1.19076 0
M  V30 4007 O 375.629 1.38536 1.14925 0
M  V30 4008 H 372.004 0.712511 0.240483 0
M  V30 4009 H 373.975 2.98212 0.105935 0
M  V30 4010 C 372.724 2.92446 1.88071 0
M  V30 4011 H 372.047 3.70458 1.50337 0
M  V30 4012 H 373.487 3.42226 2.50314 0
M  V30 4013 C 371.946 1.95555 2.74335 0
M  V30 4014 O 372.476 1.47986 3.73447 0
M  V30 4015 N 370.682 1.62953 2.40613 0
M  V30 4016 H 370.229 2.01831 1.60069 0
M  V30 4017 H 370.187 0.983886 2.98609 0
M  V30 4018 N 373.959 -0.0401083 1.57549 0
M  V30 4019 C 375.207 -0.731677 1.8839 0
M  V30 4020 C 375.528 -1.76481 0.829425 0
M  V30 4021 O 374.798 -1.95411 -0.1383 0
M  V30 4022 H 373.378 -0.273225 0.695239 0
M  V30 4023 H 376.04 -0.00867725 1.94898 0
M  V30 4024 H 375.136 -1.22816 2.86919 0
M  V30 4025 N 375.437 -1.54477 -0.31217 0
M  V30 4026 C 376.385 -1.85395 -1.40469 0
M  V30 4027 C 377.379 -0.726749 -1.53019 0
M  V30 4028 O 378.585 -0.910582 -1.55269 0
M  V30 4029 H 374.96 -0.587845 -0.46898 0
M  V30 4030 H 376.931 -2.76736 -1.11623 0
M  V30 4031 C 375.68 -2.10811 -2.76503 0
M  V30 4032 H 375.003 -2.97014 -2.67625 0
M  V30 4033 H 376.443 -2.3639 -3.51988 0
M  V30 4034 C 374.902 -0.903165 -3.24568 0
M  V30 4035 O 375.432 -0.118085 -4.01526 0
M  V30 4036 N 373.638 -0.711634 -2.81752 0
M  V30 4037 H 373.185 -1.35171 -2.19286 0
M  V30 4038 H 373.143 0.0930473 -3.14262 0
M  V30 4039 N 376.915 0.57481 -1.46744 0
M  V30 4040 C 378.163 1.33009 -1.52161 0
M  V30 4041 C 378.484 1.94185 -0.178092 0
M  V30 4042 O 377.754 1.7899 0.796196 0
M  V30 4043 H 376.334 0.493873 -0.560445 0
M  V30 4044 H 378.996 0.672589 -1.82927 0
M  V30 4045 H 378.092 2.13273 -2.27862 0
M  V30 4046 N 378.394 1.34581 0.820102 0
M  V30 4047 C 379.805 1.24298 1.39309 0
M  V30 4048 C 380.156 -0.130351 1.95767 0
M  V30 4049 O 379.281 -1.0308 1.90272 0
M  V30 4050 C 379.876 2.25054 2.53251 0
M  V30 4051 C 378.435 2.18552 3.0645 0
M  V30 4052 C 377.582 2.11503 1.79337 0
M  V30 4053 H 380.533 1.45906 0.624262 0
M  V30 4054 H 380.554 1.86917 3.31425 0
M  V30 4055 H 380.066 3.24996 2.1213 0
M  V30 4056 H 378.167 1.21976 3.52069 0
M  V30 4057 H 378.28 3.0993 3.65349 0
M  V30 4058 H 376.644 1.57268 2.00347 0
M  V30 4059 H 377.427 3.13284 1.40386 0
M  V30 4060 N 379.872 -1.04064 1.18357 0
M  V30 4061 C 381.1 -1.80916 1.00384 0
M  V30 4062 C 381.515 -1.83414 -0.447738 0
M  V30 4063 O 380.872 -1.26962 -1.31099 0
M  V30 4064 C 380.923 -3.26516 1.55144 0
M  V30 4065 O 380.644 -3.2424 2.94618 0
M  V30 4066 C 382.145 -4.20013 1.41789 0
M  V30 4067 H 379.365 -0.569728 0.354474 0
M  V30 4068 H 381.909 -1.31151 1.56906 0
M  V30 4069 H 380.064 -3.73512 1.02798 0
M  V30 4070 H 380.478 -4.15452 3.20156 0
M  V30 4071 H 381.952 -5.20111 1.84901 0
M  V30 4072 H 382.429 -4.37667 0.36661 0
M  V30 4073 H 383.035 -3.78881 1.93207 0
M  V30 4074 N 381.35 -0.985608 -1.22978 0
M  V30 4075 C 382.297 -0.529825 -2.24636 0
M  V30 4076 C 383.267 0.434028 -1.60329 0
M  V30 4077 O 384.452 0.340414 -1.87739 0
M  V30 4078 C 381.592 0.156533 -3.44745 0
M  V30 4079 C 380.705 -0.848197 -4.23591 0
M  V30 4080 C 379.84 -0.136109 -5.31026 0
M  V30 4081 C 378.879 -1.1297 -6.01585 0
M  V30 4082 N 378.016 -0.446415 -7.00679 0
M  V30 4083 H 382.856 -1.40148 -2.62988 0
M  V30 4084 H 380.393 -0.702168 -1.29259 0
M  V30 4085 H 382.351 0.571324 -4.1327 0
M  V30 4086 H 380.981 0.992025 -3.07179 0
M  V30 4087 H 380.033 -1.38135 -3.54433 0
M  V30 4088 H 381.345 -1.60512 -4.72268 0
M  V30 4089 H 380.499 0.335784 -6.0577 0
M  V30 4090 H 379.238 0.653373 -4.83304 0
M  V30 4091 H 378.243 -1.6123 -5.25628 0
M  V30 4092 H 379.468 -1.91993 -6.51395 0
M  V30 4093 H 377.414 0.323763 -6.55201 0
M  V30 4094 H 377.331 -1.1419 -7.47326 0
M  V30 4095 H 378.599 0.00291697 -7.795 0
M  V30 4096 N 382.828 1.3818 -0.7579 0
M  V30 4097 C 384.077 1.99261 -0.312744 0
M  V30 4098 C 384.39 1.60846 1.11301 0
M  V30 4099 O 385.596 2.14929 1.65885 0
M  V30 4100 C 384.052 3.56294 -0.50821 0
M  V30 4101 C 383.66 4.03657 -1.94333 0
M  V30 4102 C 385.404 4.24313 -0.125982 0
M  V30 4103 C 383.311 5.53347 -2.08712 0
M  V30 4104 H 382.241 0.745456 -0.113185 0
M  V30 4105 H 384.892 1.57889 -0.935056 0
M  V30 4106 H 383.274 3.95575 0.183353 0
M  V30 4107 H 384.448 3.75655 -2.66871 0
M  V30 4108 H 382.763 3.48376 -2.28086 0
M  V30 4109 H 385.36 5.34279 -0.212125 0
M  V30 4110 H 385.703 4.05962 0.921964 0
M  V30 4111 H 386.236 3.90285 -0.769563 0
M  V30 4112 H 382.975 5.76607 -3.11777 0
M  V30 4113 H 382.495 5.83078 -1.4064 0
M  V30 4114 H 384.174 6.19111 -1.87912 0
M  V30 4115 N 384.306 0.507319 1.49211 0
M  V30 4116 C 385.236 -0.256939 2.32082 0
M  V30 4117 C 386.217 -0.956609 1.40652 0
M  V30 4118 O 387.402 -0.946788 1.69557 0
M  V30 4119 C 384.532 -1.31802 3.21318 0
M  V30 4120 C 383.486 -0.737855 4.21592 0
M  V30 4121 C 382.812 -1.89992 4.99807 0
M  V30 4122 C 384.112 0.275325 5.21574 0
M  V30 4123 H 385.806 0.434798 2.96226 0
M  V30 4124 H 383.352 0.210546 1.42452 0
M  V30 4125 H 385.305 -1.86045 3.78107 0
M  V30 4126 H 384.029 -2.03903 2.5513 0
M  V30 4127 H 382.688 -0.217126 3.65956 0
M  V30 4128 H 382.336 -2.60877 4.30061 0
M  V30 4129 H 382.036 -1.51777 5.6766 0
M  V30 4130 H 383.56 -2.44657 5.59442 0
M  V30 4131 H 384.974 -0.179193 5.7302 0
M  V30 4132 H 383.371 0.573649 5.97352 0
M  V30 4133 H 384.441 1.18903 4.70096 0
M  V30 4134 N 385.784 -1.5574 0.241426 0
M  V30 4135 C 386.714 -2.24133 -0.654722 0
M  V30 4136 C 387.695 -1.21974 -1.1856 0
M  V30 4137 O 388.88 -1.50612 -1.22595 0
M  V30 4138 C 386.01 -2.93659 -1.85423 0
M  V30 4139 C 384.964 -4.0246 -1.45636 0
M  V30 4140 C 384.29 -4.59383 -2.73626 0
M  V30 4141 C 385.59 -5.18468 -0.631506 0
M  V30 4142 H 387.284 -2.99281 -0.0844353 0
M  V30 4143 H 384.83 -1.43947 -0.0391707 0
M  V30 4144 H 386.783 -3.40203 -2.48676 0
M  V30 4145 H 385.507 -2.15991 -2.44981 0
M  V30 4146 H 384.166 -3.56676 -0.847202 0
M  V30 4147 H 383.814 -3.78422 -3.3137 0
M  V30 4148 H 383.514 -5.32826 -2.4773 0
M  V30 4149 H 385.038 -5.08658 -3.37786 0
M  V30 4150 H 386.452 -5.61272 -1.1682 0
M  V30 4151 H 384.849 -5.98266 -0.468831 0
M  V30 4152 H 385.919 -4.8358 0.357506 0
M  V30 4153 N 387.262 0.0317525 -1.57568 0
M  V30 4154 C 388.21 1.05165 -2.07468 0
M  V30 4155 C 389.204 1.3761 -0.98792 0
M  V30 4156 O 390.41 1.36546 -1.17282 0
M  V30 4157 H 386.785 0.35666 -0.66204 0
M  V30 4158 H 388.756 0.604958 -2.92203 0
M  V30 4159 C 387.505 2.34488 -2.56731 0
M  V30 4160 H 386.828 2.10383 -3.39969 0
M  V30 4161 H 388.268 3.04203 -2.95358 0
M  V30 4162 C 386.727 3.03266 -1.46736 0
M  V30 4163 O 387.257 3.92988 -0.832069 0
M  V30 4164 N 385.463 2.6455 -1.20256 0
M  V30 4165 H 385.01 1.91674 -1.72102 0
M  V30 4166 H 384.968 3.10886 -0.468737 0
M  V30 4167 N 388.74 1.54641 0.303973 0
M  V30 4168 C 389.97 1.77511 1.05705 0
M  V30 4169 C 390.378 0.533228 1.81531 0
M  V30 4170 O 389.721 -0.506423 1.76582 0
M  V30 4171 C 389.783 2.92779 2.08617 0
M  V30 4172 C 389.447 4.30977 1.52013 0
M  V30 4173 C 390.444 5.11115 0.9517 0
M  V30 4174 C 388.129 4.77571 1.55665 0
M  V30 4175 C 390.123 6.35966 0.427327 0
M  V30 4176 C 387.81 6.02384 1.02841 0
M  V30 4177 C 388.808 6.81417 0.464713 0
M  V30 4178 O 388.496 8.03881 -0.0555283 0
M  V30 4179 H 388.228 0.59579 0.319391 0
M  V30 4180 H 390.782 2.02401 0.349712 0
M  V30 4181 H 389.012 2.63506 2.83022 0
M  V30 4182 H 390.701 3.03252 2.69802 0
M  V30 4183 H 391.467 4.76264 0.916407 0
M  V30 4184 H 387.346 4.16085 1.9848 0
M  V30 4185 H 390.89 6.97599 -0.0133062 0
M  V30 4186 H 386.787 6.36723 1.06084 0
M  V30 4187 H 387.555 8.18479 0.0580522 0
M  V30 4188 N 390.218 -0.567019 1.47046 0
M  V30 4189 C 391.465 -1.32462 1.53167 0
M  V30 4190 C 391.793 -1.93571 0.189841 0
M  V30 4191 O 391.048 -1.77865 -0.816243 0
M  V30 4192 C 391.347 -2.4623 2.59047 0
M  V30 4193 C 391.013 -2.03014 4.02612 0
M  V30 4194 C 389.675 -1.90944 4.41694 0
M  V30 4195 C 392.027 -1.69895 4.92732 0
M  V30 4196 C 389.355 -1.44035 5.68745 0
M  V30 4197 C 391.707 -1.2446 6.20236 0
M  V30 4198 C 390.371 -1.10979 6.5821 0
M  V30 4199 H 389.641 -0.484713 0.560477 0
M  V30 4200 H 392.288 -0.636888 1.80599 0
M  V30 4201 H 390.593 -3.20517 2.25335 0
M  V30 4202 H 392.29 -3.04427 2.61008 0
M  V30 4203 H 388.88 -2.13348 3.71726 0
M  V30 4204 H 393.064 -1.78098 4.63244 0
M  V30 4205 H 388.32 -1.32254 5.96925 0
M  V30 4206 H 392.494 -0.978924 6.89485 0
M  V30 4207 H 390.121 -0.744078 7.5655 0
M  V30 4208 N 391.696 -1.35014 -0.812953 0
M  V30 4209 C 392.944 -1.27678 -1.56661 0
M  V30 4210 C 393.265 0.150359 -1.94419 0
M  V30 4211 O 392.535 1.08532 -1.63088 0
M  V30 4212 H 391.115 -0.469602 -0.580933 0
M  V30 4213 H 393.777 -1.69043 -0.970076 0
M  V30 4214 H 392.873 -1.88833 -2.48492 0
M  V30 4215 N 393.175 1.03435 -1.18907 0
M  V30 4216 C 394.123 2.13703 -0.918353 0
M  V30 4217 C 395.117 1.68947 0.123767 0
M  V30 4218 O 396.323 1.79983 -0.0249701 0
M  V30 4219 H 392.698 0.698112 -0.279542 0
M  V30 4220 H 394.669 2.33731 -1.85506 0
M  V30 4221 C 393.418 3.44542 -0.467532 0
M  V30 4222 H 392.741 3.79394 -1.26095 0
M  V30 4223 H 394.181 4.22812 -0.317164 0
M  V30 4224 C 392.64 3.26829 0.817588 0
M  V30 4225 O 393.17 3.54975 1.88031 0
M  V30 4226 N 391.376 2.80139 0.772677 0
M  V30 4227 H 390.923 2.57434 -0.0923883 0
M  V30 4228 H 390.881 2.68668 1.63294 0
M  V30 4229 N 394.653 0.992116 1.22453 0
M  V30 4230 C 395.883 0.684949 1.94915 0
M  V30 4231 C 396.291 -0.754292 1.73514 0
M  V30 4232 O 395.634 -1.52056 1.03076 0
M  V30 4233 C 395.696 0.910054 3.47791 0
M  V30 4234 C 395.36 2.33363 3.92926 0
M  V30 4235 C 396.357 3.31308 4.00663 0
M  V30 4236 C 394.042 2.66785 4.25595 0
M  V30 4237 C 396.036 4.6075 4.40441 0
M  V30 4238 C 393.723 3.96446 4.65053 0
M  V30 4239 C 394.721 4.9324 4.72444 0
M  V30 4240 O 394.409 6.20584 5.1101 0
M  V30 4241 H 394.141 0.25258 0.62704 0
M  V30 4242 H 396.695 1.32939 1.56577 0
M  V30 4243 H 394.925 0.208443 3.86138 0
M  V30 4244 H 396.614 0.598257 4.01467 0
M  V30 4245 H 397.38 3.0682 3.75615 0
M  V30 4246 H 393.259 1.92148 4.19047 0
M  V30 4247 H 396.803 5.363 4.46126 0
M  V30 4248 H 392.7 4.20724 4.89552 0
M  V30 4249 H 393.468 6.24509 5.29085 0
M  V30 4250 N 396.131 -1.37776 0.765217 0
M  V30 4251 C 397.377 -2.00145 0.327072 0
M  V30 4252 C 397.71 -1.60607 -1.09175 0
M  V30 4253 O 396.985 -0.849127 -1.74986 0
M  V30 4254 C 397.268 -3.57109 0.46319 0
M  V30 4255 C 397.121 -4.06576 1.92395 0
M  V30 4256 C 398.44 -4.39888 -0.136473 0
M  V30 4257 H 395.559 -0.727113 0.120316 0
M  V30 4258 H 398.201 -1.63549 0.967039 0
M  V30 4259 H 396.351 -3.88414 -0.0816358 0
M  V30 4260 H 398.023 -3.85864 2.52798 0
M  V30 4261 H 396.266 -3.59011 2.43503 0
M  V30 4262 H 396.937 -5.15639 1.97028 0
M  V30 4263 H 399.413 -4.14803 0.328317 0
M  V30 4264 H 398.289 -5.48899 -0.0110582 0
M  V30 4265 H 398.55 -4.24758 -1.22608 0
M  V30 4266 N 397.609 -0.515225 -1.4894 0
M  V30 4267 C 399.02 -0.0710067 -1.86565 0
M  V30 4268 C 399.371 1.34733 -1.42623 0
M  V30 4269 O 398.496 2.00653 -0.810379 0
M  V30 4270 C 399.091 -0.122083 -3.3858 0
M  V30 4271 C 397.65 0.266863 -3.75453 0
M  V30 4272 C 396.797 -0.488376 -2.72966 0
M  V30 4273 H 399.748 -0.727266 -1.41055 0
M  V30 4274 H 399.769 0.669818 -3.74558 0
M  V30 4275 H 399.281 -1.15448 -3.70531 0
M  V30 4276 H 397.382 1.30196 -3.49113 0
M  V30 4277 H 397.495 -0.0624811 -4.79059 0
M  V30 4278 H 395.859 0.0635622 -2.54621 0
M  V30 4279 H 396.642 -1.52113 -3.07761 0
M  V30 4280 N 399.087 1.5561 -0.249682 0
M  V30 4281 C 400.035 2.22894 0.664906 0
M  V30 4282 C 401.029 1.21743 1.17792 0
M  V30 4283 O 402.235 1.39748 1.13449 0
M  V30 4284 H 398.61 0.715022 0.232912 0
M  V30 4285 H 400.581 2.98307 0.0742998 0
M  V30 4286 C 399.33 2.94424 1.84959 0
M  V30 4287 H 398.653 3.72031 1.46399 0
M  V30 4288 H 400.093 3.44862 2.4667 0
M  V30 4289 C 398.552 1.98454 2.72245 0
M  V30 4290 O 399.082 1.51939 3.71857 0
M  V30 4291 N 397.288 1.65496 2.38871 0
M  V30 4292 H 396.835 2.03517 1.57919 0
M  V30 4293 H 396.793 1.0155 2.97548 0
M  V30 4294 N 400.565 -0.0233959 1.57583 0
M  V30 4295 C 401.79 -0.728376 1.94189 0
M  V30 4296 C 402.215 -1.67793 0.850119 0
M  V30 4297 O 401.573 -1.80262 -0.19371 0
M  V30 4298 C 401.621 -1.45669 3.29868 0
M  V30 4299 O 400.725 -2.57013 3.22518 0
M  V30 4300 H 400.066 -0.195493 0.63457 0
M  V30 4301 H 402.596 0.0228214 2.04587 0
M  V30 4302 H 402.606 -1.82535 3.6489 0
M  V30 4303 H 401.281 -0.760314 4.08891 0
M  V30 4304 H 399.858 -2.22648 2.99136 0
M  V30 4305 N 402.043 -1.548 -0.295768 0
M  V30 4306 C 403.289 -1.75517 -1.02789 0
M  V30 4307 C 403.644 -0.537266 -1.84746 0
M  V30 4308 O 402.937 0.470299 -1.85738 0
M  V30 4309 C 403.131 -2.98797 -1.961 0
M  V30 4310 C 402.96 -4.3246 -1.23321 0
M  V30 4311 C 401.73 -4.96131 -0.95822 0
M  V30 4312 C 403.928 -5.10365 -0.635024 0
M  V30 4313 N 401.91 -6.1357 -0.201257 0
M  V30 4314 C 403.281 -6.19999 -0.0110937 0
M  V30 4315 C 405.336 -4.94957 -0.540594 0
M  V30 4316 C 404.039 -7.15904 0.698136 0
M  V30 4317 C 406.065 -5.91197 0.154992 0
M  V30 4318 C 405.427 -7.00203 0.767752 0
M  V30 4319 H 401.526 -0.694786 -0.358882 0
M  V30 4320 H 404.11 -1.92281 -0.305943 0
M  V30 4321 H 402.281 -2.83448 -2.6554 0
M  V30 4322 H 404.013 -3.08017 -2.62502 0
M  V30 4323 H 400.768 -4.56595 -1.25771 0
M  V30 4324 H 401.192 -6.76802 0.16389 0
M  V30 4325 H 405.834 -4.10803 -1.00003 0
M  V30 4326 H 403.552 -7.99595 1.16933 0
M  V30 4327 H 407.138 -5.81353 0.228069 0
M  V30 4328 H 406.018 -7.73393 1.29743 0
M  V30 4329 N 403.521 0.559213 -1.47345 0
M  V30 4330 C 404.749 1.34194 -1.57479 0
M  V30 4331 C 405.164 1.87463 -0.224261 0
M  V30 4332 O 404.521 1.64888 0.782185 0
M  V30 4333 C 404.572 2.51324 -2.59843 0
M  V30 4334 O 404.293 2.00256 -3.89653 0
M  V30 4335 C 405.794 3.43563 -2.80142 0
M  V30 4336 H 403.014 0.409136 -0.531835 0
M  V30 4337 H 405.558 0.677609 -1.92947 0
M  V30 4338 H 403.713 3.13699 -2.27314 0
M  V30 4339 H 404.127 2.76708 -4.4557 0
M  V30 4340 H 405.601 4.2217 -3.55635 0
M  V30 4341 H 406.078 3.9698 -1.87892 0
M  V30 4342 H 406.684 2.87005 -3.1386 0
M  V30 4343 N 404.999 1.35443 0.805782 0
M  V30 4344 C 405.931 1.24285 1.92577 0
M  V30 4345 C 406.944 0.165962 1.61952 0
M  V30 4346 O 408.133 0.419303 1.73505 0
M  V30 4347 C 405.233 0.891272 3.2697 0
M  V30 4348 C 404.406 2.06669 3.85495 0
M  V30 4349 C 403.465 1.69077 4.98297 0
M  V30 4350 O 402.491 2.4096 5.15681 0
M  V30 4351 N 403.693 0.614869 5.77234 0
M  V30 4352 H 406.458 2.20777 2.02676 0
M  V30 4353 H 404.019 1.28623 0.983243 0
M  V30 4354 H 406.011 0.621256 3.99903 0
M  V30 4355 H 404.581 0.016004 3.12596 0
M  V30 4356 H 403.801 2.50046 3.04747 0
M  V30 4357 H 405.089 2.85237 4.21328 0
M  V30 4358 H 404.487 0.017648 5.65697 0
M  V30 4359 H 403.044 0.404636 6.50543 0
M  V30 4360 N 406.477 -1.02803 1.19454 0
M  V30 4361 C 407.754 -1.73299 0.907013 0
M  V30 4362 C 408.134 -2.02772 -0.587086 0
M  V30 4363 O 407.482 -1.68304 -1.54551 0
M  V30 4364 C 407.692 -3.00912 1.76785 0
M  V30 4365 C 409.04 -3.74403 2.00268 0
M  V30 4366 O 410.064 -3.10841 1.73943 0
M  V30 4367 O 408.923 -4.88675 2.4466 0
M  V30 4368 H 406.017 -0.754727 0.338106 0
M  V30 4369 H 408.563 -1.08754 1.30271 0
M  V30 4370 H 407.335 -2.75366 2.7801 0
M  V30 4371 H 406.958 -3.73197 1.37149 0
M  V30 4372 N 407.956 -0.998596 -1.21925 0
M  V30 4373 C 408.904 -0.546641 -2.26085 0
M  V30 4374 C 409.898 0.405576 -1.64473 0
M  V30 4375 O 411.104 0.277471 -1.77849 0
M  V30 4376 H 407.479 -0.158403 -0.735127 0
M  V30 4377 H 409.45 -1.43645 -2.61551 0
M  V30 4378 C 408.199 0.117388 -3.47502 0
M  V30 4379 H 407.522 -0.606277 -3.95176 0
M  V30 4380 H 408.962 0.396993 -4.22137 0
M  V30 4381 C 407.421 1.35455 -3.0847 0
M  V30 4382 O 407.951 2.44944 -3.18379 0
M  V30 4383 N 406.157 1.23191 -2.63196 0
M  V30 4384 H 405.704 0.341006 -2.55333 0
M  V30 4385 H 405.662 2.06071 -2.37449 0
M  V30 4386 N 409.434 1.37368 -0.772513 0
M  V30 4387 C 410.682 1.99279 -0.336516 0
M  V30 4388 C 411.003 1.6163 1.09091 0
M  V30 4389 O 410.273 0.882109 1.74916 0
M  V30 4390 H 408.853 0.737063 -0.121435 0
M  V30 4391 H 411.515 1.67836 -0.990809 0
M  V30 4392 H 410.611 3.09332 -0.414763 0
M  V30 4393 N 410.912 0.523116 1.48665 0
M  V30 4394 C 412.152 -0.0115588 2.04397 0
M  V30 4395 C 412.516 -1.32225 1.39214 0
M  V30 4396 O 413.717 -1.94253 1.85793 0
M  V30 4397 C 411.988 -0.138119 3.57133 0
M  V30 4398 S 413.547 -0.623849 4.34343 0
M  V30 4399 H 410.365 0.00877706 0.710946 0
M  V30 4400 H 412.967 0.702116 1.82457 0
M  V30 4401 H 411.671 0.820748 4.02109 0
M  V30 4402 H 411.202 -0.876377 3.83514 0
M  V30 4403 H 413.217 -1.8895 4.58816 0
M  V30 4404 N 412.39 -1.55475 0.257931 0
M  V30 4405 C 413.618 -2.03609 -0.367559 0
M  V30 4406 C 414.033 -1.13687 -1.50734 0
M  V30 4407 O 413.39 -0.153479 -1.81853 0
M  V30 4408 C 413.441 -3.51001 -0.864908 0
M  V30 4409 O 413.162 -4.37499 0.229465 0
M  V30 4410 C 414.663 -4.14946 -1.55997 0
M  V30 4411 H 411.883 -0.665459 -0.0860521 0
M  V30 4412 H 414.427 -2.00843 0.385014 0
M  V30 4413 H 412.582 -3.54266 -1.56762 0
M  V30 4414 H 412.996 -5.24286 -0.14998 0
M  V30 4415 H 414.47 -5.19735 -1.85956 0
M  V30 4416 H 414.947 -3.6209 -2.4857 0
M  V30 4417 H 415.553 -4.15635 -0.901543 0
M  V30 4418 N 413.868 0.0150385 -1.57593 0
M  V30 4419 C 414.798 1.01047 -2.10503 0
M  V30 4420 C 415.779 1.36816 -1.01071 0
M  V30 4421 O 416.964 1.45455 -1.28672 0
M  V30 4422 C 414.094 2.30708 -2.59598 0
M  V30 4423 C 413.048 2.09142 -3.73421 0
M  V30 4424 C 412.374 3.44685 -4.08774 0
M  V30 4425 C 413.674 1.46619 -5.01298 0
M  V30 4426 H 415.368 0.569978 -2.93925 0
M  V30 4427 H 412.914 0.272724 -1.41394 0
M  V30 4428 H 414.867 3.00687 -2.95238 0
M  V30 4429 H 413.591 2.76843 -1.73279 0
M  V30 4430 H 412.25 1.41592 -3.38153 0
M  V30 4431 H 411.898 3.88495 -3.195 0
M  V30 4432 H 411.598 3.31077 -4.8545 0
M  V30 4433 H 413.122 4.16004 -4.4696 0
M  V30 4434 H 414.536 2.06535 -5.34805 0
M  V30 4435 H 412.933 1.43544 -5.82679 0
M  V30 4436 H 414.003 0.433611 -4.82957 0
M  V30 4437 N 415.346 1.54954 0.287554 0
M  V30 4438 C 416.586 1.76617 1.02887 0
M  V30 4439 C 416.95 0.547759 1.84021 0
M  V30 4440 O 418.151 0.642365 2.61012 0
M  V30 4441 C 416.422 3.02717 1.89993 0
M  V30 4442 S 417.981 3.45438 2.70588 0
M  V30 4443 H 414.799 0.6207 0.346775 0
M  V30 4444 H 417.401 1.93172 0.30082 0
M  V30 4445 H 416.105 3.89503 1.29287 0
M  V30 4446 H 415.636 2.88787 2.67144 0
M  V30 4447 H 417.651 3.03566 3.92508 0
M  V30 4448 N 416.824 -0.551391 1.4764 0
M  V30 4449 C 417.734 -1.68525 1.63207 0
M  V30 4450 C 418.75 -1.6621 0.514815 0
M  V30 4451 O 419.926 -1.85551 0.783113 0
M  V30 4452 C 416.991 -3.05025 1.64805 0
M  V30 4453 C 416.052 -3.18362 2.88 0
M  V30 4454 C 415.285 -4.4835 2.89513 0
M  V30 4455 O 415.508 -5.34163 2.00065 0
M  V30 4456 O 414.442 -4.65602 3.81443 0
M  V30 4457 H 418.268 -1.58333 2.59161 0
M  V30 4458 H 415.853 -0.722063 1.30792 0
M  V30 4459 H 417.735 -3.86245 1.68502 0
M  V30 4460 H 416.41 -3.15587 0.720197 0
M  V30 4461 H 415.317 -2.36518 2.89845 0
M  V30 4462 H 416.65 -3.12707 3.80099 0
M  V30 4463 N 418.302 -1.35869 -0.798587 0
M  V30 4464 C 419.549 -1.29588 -1.55606 0
M  V30 4465 C 419.877 0.127456 -1.94082 0
M  V30 4466 O 419.132 1.09461 -1.62225 0
M  V30 4467 C 419.431 -2.1556 -2.85077 0
M  V30 4468 C 419.097 -3.6424 -2.65781 0
M  V30 4469 C 417.759 -4.04766 -2.60227 0
M  V30 4470 C 420.111 -4.58547 -2.47758 0
M  V30 4471 C 417.439 -5.37753 -2.34603 0
M  V30 4472 C 419.791 -5.91742 -2.23662 0
M  V30 4473 C 418.455 -6.31402 -2.16534 0
M  V30 4474 H 417.725 -0.474197 -0.569402 0
M  V30 4475 H 420.372 -1.67839 -0.922086 0
M  V30 4476 H 418.677 -1.70216 -3.52893 0
M  V30 4477 H 420.374 -2.08031 -3.42818 0
M  V30 4478 H 416.964 -3.32086 -2.70956 0
M  V30 4479 H 421.148 -4.28117 -2.51056 0
M  V30 4480 H 416.404 -5.67474 -2.2756 0
M  V30 4481 H 420.578 -6.6439 -2.08708 0
M  V30 4482 H 418.205 -7.34381 -1.96441 0
M  V30 4483 N 419.78 1.02168 -1.19998 0
M  V30 4484 C 421.057 1.72816 -0.916191 0
M  V30 4485 C 421.437 2.03081 0.576325 0
M  V30 4486 O 420.785 1.69122 1.53656 0
M  V30 4487 C 420.995 2.9997 -1.78378 0
M  V30 4488 C 422.343 3.73336 -2.02251 0
M  V30 4489 O 423.367 3.09914 -1.75589 0
M  V30 4490 O 422.226 4.87371 -2.47249 0
M  V30 4491 H 419.32 0.752924 -0.342103 0
M  V30 4492 H 421.866 1.08062 -1.30846 0
M  V30 4493 H 420.638 2.73888 -2.79466 0
M  V30 4494 H 420.261 3.72464 -1.39126 0
M  V30 4495 N 421.258 1.00505 1.21394 0
M  V30 4496 C 422.486 0.706609 1.9446 0
M  V30 4497 C 422.901 -0.73081 1.74082 0
M  V30 4498 O 422.258 -1.49446 1.04747 0
M  V30 4499 C 422.309 1.01824 3.46863 0
M  V30 4500 O 422.03 2.39919 3.66566 0
M  V30 4501 C 423.531 0.739216 4.37093 0
M  V30 4502 H 420.751 0.260394 0.618414 0
M  V30 4503 H 423.295 1.34311 1.54211 0
M  V30 4504 H 421.45 0.427343 3.85036 0
M  V30 4505 H 421.864 2.50784 4.6066 0
M  V30 4506 H 423.338 1.00744 5.42729 0
M  V30 4507 H 423.815 -0.326746 4.37983 0
M  V30 4508 H 424.421 1.31173 4.04566 0
M  V30 4509 N 422.737 -1.36956 0.779787 0
M  V30 4510 C 423.983 -1.99787 0.348281 0
M  V30 4511 C 424.316 -1.61756 -1.07465 0
M  V30 4512 O 423.591 -0.867639 -1.74075 0
M  V30 4513 C 423.874 -3.56597 0.50104 0
M  V30 4514 C 423.727 -4.04513 1.96697 0
M  V30 4515 C 425.046 -4.40008 -0.0898097 0
M  V30 4516 H 422.165 -0.725796 0.128022 0
M  V30 4517 H 424.807 -1.62514 0.984331 0
M  V30 4518 H 422.957 -3.88479 -0.0404347 0
M  V30 4519 H 424.629 -3.83161 2.56876 0
M  V30 4520 H 422.872 -3.56408 2.47297 0
M  V30 4521 H 423.543 -5.1352 2.02486 0
M  V30 4522 H 426.019 -4.14431 0.372293 0
M  V30 4523 H 424.895 -5.4888 0.0471605 0
M  V30 4524 H 425.156 -4.26035 -1.18096 0
M  V30 4525 N 424.215 -0.530993 -1.48385 0
M  V30 4526 C 425.492 0.0671788 -1.95485 0
M  V30 4527 C 425.872 1.51191 -1.47324 0
M  V30 4528 O 425.22 2.17507 -0.700202 0
M  V30 4529 C 425.43 -0.0511206 -3.48963 0
M  V30 4530 C 426.778 0.107632 -4.24464 0
M  V30 4531 O 427.802 0.0226248 -3.56193 0
M  V30 4532 O 426.661 0.285972 -5.45751 0
M  V30 4533 H 423.755 0.0787365 -0.823243 0
M  V30 4534 H 426.301 -0.595662 -1.58902 0
M  V30 4535 H 425.073 -1.05747 -3.7674 0
M  V30 4536 H 424.696 0.650525 -3.92242 0
M  V30 4537 N 425.693 1.55336 -0.266172 0
M  V30 4538 C 426.623 2.25146 0.618981 0
M  V30 4539 C 427.604 1.23845 1.16604 0
M  V30 4540 O 428.789 1.52544 1.20183 0
M  V30 4541 C 425.919 2.96572 1.80728 0
M  V30 4542 C 424.873 4.04726 1.39215 0
M  V30 4543 C 424.199 4.63678 2.66283 0
M  V30 4544 C 425.499 5.19407 0.548942 0
M  V30 4545 H 427.193 2.99377 0.0368116 0
M  V30 4546 H 424.739 1.43991 0.0162651 0
M  V30 4547 H 426.692 3.44116 2.43232 0
M  V30 4548 H 425.416 2.19861 2.41514 0
M  V30 4549 H 424.075 3.57979 0.790351 0
M  V30 4550 H 423.723 3.83646 3.25308 0
M  V30 4551 H 423.423 5.367 2.39222 0
M  V30 4552 H 424.947 5.13967 3.29651 0
M  V30 4553 H 426.361 5.63059 1.07876 0
M  V30 4554 H 424.758 5.98936 0.373593 0
M  V30 4555 H 425.828 4.8295 -0.434394 0
M  V30 4556 N 427.171 -0.0066808 1.57599 0
M  V30 4557 C 428.396 -0.707738 1.94951 0
M  V30 4558 C 428.821 -1.66882 0.867868 0
M  V30 4559 O 428.179 -1.80457 -0.17458 0
M  V30 4560 C 428.227 -1.42162 3.31394 0
M  V30 4561 O 427.331 -2.53578 3.25226 0
M  V30 4562 H 426.672 -0.188752 0.636607 0
M  V30 4563 H 429.202 0.0445193 2.04552 0
M  V30 4564 H 429.212 -1.78655 3.66806 0
M  V30 4565 H 427.887 -0.716903 4.09675 0
M  V30 4566 H 426.464 -2.19463 3.01481 0
M  V30 4567 N 428.649 -1.55105 -0.279332 0
M  V30 4568 C 429.612 -1.86783 -1.32834 0
M  V30 4569 C 430.612 -0.74199 -1.42657 0
M  V30 4570 O 431.802 -1.0102 -1.41918 0
M  V30 4571 C 428.934 -2.06746 -2.71052 0
M  V30 4572 H 430.127 -2.8055 -1.05979 0
M  V30 4573 H 427.68 -1.47499 -0.517087 0
M  V30 4574 H 428.415 -1.15339 -3.03097 0
M  V30 4575 H 428.2 -2.88711 -2.65309 0
M  V30 4576 H 429.69 -2.32549 -3.46858 0
M  V30 4577 N 430.127 0.543554 -1.4793 0
M  V30 4578 C 431.373 1.30201 -1.55485 0
M  V30 4579 C 431.706 1.92925 -0.222201 0
M  V30 4580 O 430.981 1.78586 0.77053 0
M  V30 4581 C 431.264 2.40174 -2.68307 0
M  V30 4582 C 431.117 1.8223 -4.11233 0
M  V30 4583 C 432.436 3.42024 -2.76961 0
M  V30 4584 H 429.555 0.472036 -0.565996 0
M  V30 4585 H 432.197 0.606914 -1.80046 0
M  V30 4586 H 430.347 2.99463 -2.47495 0
M  V30 4587 H 432.019 1.27096 -4.43446 0
M  V30 4588 H 430.262 1.12832 -4.18869 0
M  V30 4589 H 430.933 2.61793 -4.85972 0
M  V30 4590 H 433.409 2.92672 -2.95774 0
M  V30 4591 H 432.285 4.16383 -3.57654 0
M  V30 4592 H 432.546 4.0173 -1.84568 0
M  V30 4593 N 431.605 1.3629 0.791371 0
M  V30 4594 C 432.882 1.20962 1.53712 0
M  V30 4595 C 433.262 -0.205021 2.10102 0
M  V30 4596 O 432.61 -1.21042 1.93807 0
M  V30 4597 C 432.82 2.29002 2.63361 0
M  V30 4598 C 434.168 2.65572 3.31295 0
M  V30 4599 O 435.192 2.2803 2.73643 0
M  V30 4600 O 434.051 3.3018 4.35481 0
M  V30 4601 H 431.145 0.47086 0.679867 0
M  V30 4602 H 433.691 1.48016 0.830021 0
M  V30 4603 H 432.463 3.2382 2.19674 0
M  V30 4604 H 432.086 2.03303 3.41692 0
M  V30 4605 N 433.083 -1.0153 1.20538 0
M  V30 4606 C 434.329 -1.75408 1.01783 0
M  V30 4607 C 434.662 -1.88943 -0.448814 0
M  V30 4608 O 433.937 -1.4162 -1.33319 0
M  V30 4609 C 434.22 -3.17255 1.70356 0
M  V30 4610 C 434.073 -3.11508 3.24473 0
M  V30 4611 C 435.392 -4.15955 1.43769 0
M  V30 4612 H 432.511 -0.636713 0.371167 0
M  V30 4613 H 435.153 -1.18436 1.4857 0
M  V30 4614 H 433.303 -3.65898 1.30578 0
M  V30 4615 H 434.975 -2.70658 3.73553 0
M  V30 4616 H 433.218 -2.4887 3.55311 0
M  V30 4617 H 433.889 -4.11784 3.67611 0
M  V30 4618 H 436.365 -3.75973 1.7828 0
M  V30 4619 H 435.241 -5.13368 1.94279 0
M  V30 4620 H 435.502 -4.40586 0.365564 0
M  V30 4621 N 434.561 -1.01147 -1.20859 0
M  V30 4622 C 435.511 -0.548247 -2.2131 0
M  V30 4623 C 436.495 0.393646 -1.5601 0
M  V30 4624 O 437.687 0.217445 -1.75659 0
M  V30 4625 C 434.816 0.117252 -3.431 0
M  V30 4626 C 433.902 -0.846043 -4.15575 0
M  V30 4627 N 434.293 -2.00149 -4.64515 0
M  V30 4628 C 432.591 -0.665783 -4.41003 0
M  V30 4629 C 433.292 -2.60764 -5.19978 0
M  V30 4630 N 432.268 -1.88868 -5.09735 0
M  V30 4631 H 436.07 -1.42921 -2.56809 0
M  V30 4632 H 433.584 -0.876142 -1.36739 0
M  V30 4633 H 435.581 0.46662 -4.1428 0
M  V30 4634 H 434.241 0.994115 -3.09107 0
M  V30 4635 H 435.252 -2.38162 -4.5989 0
M  V30 4636 H 431.929 0.163456 -4.1718 0
M  V30 4637 H 433.319 -3.58519 -5.68255 0
M  V30 4638 N 436.039 1.36541 -0.78704 0
M  V30 4639 C 437.45 1.81873 -0.421807 0
M  V30 4640 C 437.801 1.65487 1.05397 0
M  V30 4641 O 436.926 1.17448 1.81755 0
M  V30 4642 C 437.521 3.30192 -0.758841 0
M  V30 4643 C 436.08 3.73743 -0.446468 0
M  V30 4644 C 435.227 2.58844 -0.994728 0
M  V30 4645 H 438.178 1.24796 -0.98039 0
M  V30 4646 H 438.199 3.80468 -0.0490648 0
M  V30 4647 H 437.711 3.42087 -1.83299 0
M  V30 4648 H 435.812 3.6741 0.619739 0
M  V30 4649 H 435.925 4.69272 -0.965415 0
M  V30 4650 H 434.289 2.51245 -0.418087 0
M  V30 4651 H 435.072 2.73525 -2.07458 0
M  V30 4652 N 437.518 0.538854 1.48102 0
M  V30 4653 C 438.466 -0.232325 2.31437 0
M  V30 4654 C 439.46 -0.927004 1.41785 0
M  V30 4655 O 440.666 -0.850378 1.58646 0
M  V30 4656 H 437.041 -0.0937916 0.746128 0
M  V30 4657 H 439.012 0.489986 2.9435 0
M  V30 4658 C 437.761 -1.26074 3.24038 0
M  V30 4659 H 437.084 -0.735609 3.92974 0
M  V30 4660 H 438.524 -1.77157 3.85216 0
M  V30 4661 C 436.983 -2.29902 2.46265 0
M  V30 4662 O 437.513 -3.36502 2.19384 0
M  V30 4663 N 435.719 -2.03348 2.07601 0
M  V30 4664 H 435.266 -1.16675 2.29662 0
M  V30 4665 H 435.224 -2.73038 1.55877 0
M  V30 4666 N 438.996 -1.55193 0.274407 0
M  V30 4667 C 440.242 -1.99877 -0.343086 0
M  V30 4668 C 440.575 -1.16256 -1.55558 0
M  V30 4669 O 439.85 -0.232462 -1.93106 0
M  V30 4670 C 440.133 -3.52706 -0.725965 0
M  V30 4671 C 439.986 -4.47081 0.493818 0
M  V30 4672 C 441.305 -4.11422 -1.56268 0
M  V30 4673 H 438.424 -0.726625 -0.123229 0
M  V30 4674 H 441.066 -1.86136 0.38121 0
M  V30 4675 H 439.216 -3.64546 -1.34307 0
M  V30 4676 H 440.888 -4.47186 1.13237 0
M  V30 4677 H 439.131 -4.1877 1.13201 0
M  V30 4678 H 439.802 -5.51699 0.18217 0
M  V30 4679 H 442.278 -4.02855 -1.04151 0
M  V30 4680 H 441.154 -5.18568 -1.79939 0
M  V30 4681 H 441.415 -3.61607 -2.54348 0
M  V30 4682 N 440.474 -0.00167713 -1.576 0
M  V30 4683 C 441.699 0.69739 -1.95323 0
M  V30 4684 C 442.124 1.6642 -0.876706 0
M  V30 4685 O 441.482 1.80548 0.165007 0
M  V30 4686 C 441.53 1.40403 -3.32144 0
M  V30 4687 O 440.634 2.5185 -3.26566 0
M  V30 4688 H 439.975 0.185373 -0.637599 0
M  V30 4689 H 442.505 -0.0553665 -2.04525 0
M  V30 4690 H 442.515 1.76707 -3.67748 0
M  V30 4691 H 441.19 0.695167 -4.10049 0
M  V30 4692 H 439.767 2.17861 -3.0264 0
M  V30 4693 N 441.952 1.55251 0.271103 0
M  V30 4694 C 443.201 1.75151 1.00025 0
M  V30 4695 C 443.514 0.561041 1.87381 0
M  V30 4696 O 444.72 0.642506 2.63788 0
M  V30 4697 C 443.176 3.09999 1.82835 0
M  V30 4698 C 442.784 4.3662 1.00336 0
M  V30 4699 C 444.528 3.39249 2.55168 0
M  V30 4700 C 442.435 5.62506 1.82595 0
M  V30 4701 H 441.365 0.652877 0.377183 0
M  V30 4702 H 444.016 1.81708 0.255843 0
M  V30 4703 H 442.398 2.97485 2.61378 0
M  V30 4704 H 443.572 4.60055 0.261959 0
M  V30 4705 H 441.887 4.14527 0.394486 0
M  V30 4706 H 444.484 4.3051 3.1712 0
M  V30 4707 H 444.827 2.59467 3.2555 0
M  V30 4708 H 445.36 3.52869 1.83653 0
M  V30 4709 H 442.099 6.45041 1.16631 0
M  V30 4710 H 441.619 5.43211 2.54327 0
M  V30 4711 H 443.298 6.00875 2.39913 0
M  V30 4712 N 443.43 -0.535701 1.48216 0
M  V30 4713 C 444.678 -1.28928 1.55634 0
M  V30 4714 C 444.999 -1.93645 0.229514 0
M  V30 4715 O 444.269 -1.81038 -0.74846 0
M  V30 4716 H 442.849 -0.47884 0.573342 0
M  V30 4717 H 445.511 -0.623853 1.84646 0
M  V30 4718 H 444.607 -2.07157 2.33436 0
M  V30 4719 N 444.908 -1.36708 -0.784132 0
M  V30 4720 C 446.154 -1.31426 -1.54451 0
M  V30 4721 C 446.487 0.10476 -1.93917 0
M  V30 4722 O 445.762 1.05934 -1.6312 0
M  V30 4723 C 446.045 -2.24189 -2.818 0
M  V30 4724 C 445.898 -3.74813 -2.48667 0
M  V30 4725 C 447.217 -2.15626 -3.83658 0
M  V30 4726 H 444.336 -0.478739 -0.560337 0
M  V30 4727 H 446.978 -1.67305 -0.900498 0
M  V30 4728 H 445.128 -1.93722 -3.36755 0
M  V30 4729 H 446.8 -4.15823 -1.99722 0
M  V30 4730 H 445.043 -3.93989 -1.81535 0
M  V30 4731 H 445.714 -4.35138 -3.39646 0
M  V30 4732 H 448.19 -2.42456 -3.38163 0
M  V30 4733 H 447.066 -2.82694 -4.70506 0
M  V30 4734 H 447.327 -1.14522 -4.27009 0
M  V30 4735 N 446.386 1.0089 -1.21074 0
M  V30 4736 C 447.633 1.74607 -1.0256 0
M  V30 4737 C 447.961 1.89426 0.44136 0
M  V30 4738 O 447.216 1.42266 1.34384 0
M  V30 4739 C 447.515 3.16335 -1.66334 0
M  V30 4740 C 447.181 3.21474 -3.16173 0
M  V30 4741 C 445.843 3.22583 -3.57062 0
M  V30 4742 C 448.195 3.19025 -4.12156 0
M  V30 4743 C 445.523 3.18925 -4.92446 0
M  V30 4744 C 447.875 3.16909 -5.47496 0
M  V30 4745 C 446.539 3.16326 -5.87787 0
M  V30 4746 H 445.809 0.638933 -0.375294 0
M  V30 4747 H 448.456 1.18274 -1.50611 0
M  V30 4748 H 446.761 3.75876 -1.10566 0
M  V30 4749 H 448.458 3.72083 -1.49516 0
M  V30 4750 H 445.048 3.2135 -2.83605 0
M  V30 4751 H 449.232 3.17332 -3.81595 0
M  V30 4752 H 444.488 3.16809 -5.22917 0
M  V30 4753 H 448.662 3.13968 -6.21609 0
M  V30 4754 H 446.289 3.13246 -6.92662 0
M  V30 4755 N 447.864 1.01787 1.20321 0
M  V30 4756 C 449.113 0.703249 1.89043 0
M  V30 4757 C 449.426 -0.770445 1.79787 0
M  V30 4758 O 450.632 -1.19767 2.43656 0
M  V30 4759 C 449.088 1.20749 3.3904 0
M  V30 4760 C 448.696 2.70817 3.56878 0
M  V30 4761 C 450.44 0.968352 4.13308 0
M  V30 4762 C 448.347 3.14716 5.00708 0
M  V30 4763 H 447.277 0.259354 0.707991 0
M  V30 4764 H 449.928 1.23072 1.36108 0
M  V30 4765 H 448.31 0.607989 3.91305 0
M  V30 4766 H 449.484 3.36327 3.14993 0
M  V30 4767 H 447.799 2.92888 2.95983 0
M  V30 4768 H 450.396 1.27173 5.19356 0
M  V30 4769 H 450.739 -0.095149 4.16191 0
M  V30 4770 H 451.272 1.53129 3.67146 0
M  V30 4771 H 448.011 4.20347 5.02979 0
M  V30 4772 H 447.531 2.53927 5.43398 0
M  V30 4773 H 449.21 3.07426 5.69296 0
M  V30 4774 N 449.342 -1.36122 0.79427 0
M  V30 4775 C 450.252 -2.33769 0.197296 0
M  V30 4776 C 451.268 -1.61276 -0.653153 0
M  V30 4777 O 452.444 -1.9323 -0.5678 0
M  V30 4778 C 449.509 -3.40474 -0.654098 0
M  V30 4779 C 448.57 -4.28759 0.215411 0
M  V30 4780 C 447.803 -5.30368 -0.595443 0
M  V30 4781 O 448.026 -5.40211 -1.83107 0
M  V30 4782 O 446.96 -6.019 0.00721351 0
M  V30 4783 H 450.786 -2.86597 1.00478 0
M  V30 4784 H 448.371 -1.38676 0.555818 0
M  V30 4785 H 450.253 -4.05703 -1.13944 0
M  V30 4786 H 448.928 -2.89937 -1.43938 0
M  V30 4787 H 447.835 -3.66554 0.747615 0
M  V30 4788 H 449.168 -4.82661 0.964332 0
M  V30 4789 N 450.82 -0.546701 -1.47814 0
M  V30 4790 C 451.752 0.244196 -2.27895 0
M  V30 4791 C 452.765 0.88911 -1.36377 0
M  V30 4792 O 453.954 0.764733 -1.61289 0
M  V30 4793 C 451.054 1.36252 -3.10304 0
M  V30 4794 C 450.227 0.816382 -4.29714 0
M  V30 4795 C 449.286 1.81789 -4.93801 0
M  V30 4796 O 448.312 1.36818 -5.52512 0
M  V30 4797 N 449.514 3.15085 -4.87547 0
M  V30 4798 H 452.279 -0.442694 -2.96412 0
M  V30 4799 H 449.84 -0.382095 -1.57327 0
M  V30 4800 H 451.832 2.03102 -3.50045 0
M  V30 4801 H 450.402 1.95281 -2.44099 0
M  V30 4802 H 449.622 -0.0285981 -3.9419 0
M  V30 4803 H 450.91 0.430668 -5.06974 0
M  V30 4804 H 450.308 3.54275 -4.41028 0
M  V30 4805 H 448.865 3.77522 -5.31339 0
M  V30 4806 N 452.299 1.55045 -0.282633 0
M  V30 4807 C 453.71 1.85473 0.213655 0
M  V30 4808 C 454.061 1.20465 1.54863 0
M  V30 4809 O 453.186 0.495676 2.10647 0
M  V30 4810 C 453.781 3.36496 0.394445 0
M  V30 4811 C 452.34 3.67022 0.834961 0
M  V30 4812 C 451.487 2.77218 -0.0674081 0
M  V30 4813 H 454.438 1.50478 -0.504202 0
M  V30 4814 H 454.459 3.60007 1.23186 0
M  V30 4815 H 453.971 3.83782 -0.577326 0
M  V30 4816 H 452.072 3.25241 1.81794 0
M  V30 4817 H 452.185 4.74433 0.667075 0
M  V30 4818 H 450.549 2.5069 0.450196 0
M  V30 4819 H 451.332 3.2732 -1.0352 0
M  V30 4820 N 453.777 0.010035 1.57597 0
M  V30 4821 C 455.005 -0.683413 1.95287 0
M  V30 4822 C 455.42 -1.66747 0.885481 0
M  V30 4823 O 454.777 -1.82003 -0.134629 0
M  V30 4824 C 454.828 -1.40652 3.33015 0
M  V30 4825 O 454.549 -0.461916 4.35658 0
M  V30 4826 C 456.05 -2.19356 3.85225 0
M  V30 4827 H 453.27 -0.189708 0.643624 0
M  V30 4828 H 455.814 0.0641359 2.04399 0
M  V30 4829 H 453.969 -2.10562 3.2518 0
M  V30 4830 H 454.383 -0.973215 5.15392 0
M  V30 4831 H 455.857 -2.65433 4.83993 0
M  V30 4832 H 456.334 -3.02457 3.18459 0
M  V30 4833 H 456.94 -1.54442 3.96267 0
M  V30 4834 N 455.255 -1.55392 -0.262866 0
M  V30 4835 C 456.666 -1.67079 -0.833158 0
M  V30 4836 C 457.017 -0.604539 -1.86654 0
M  V30 4837 O 456.142 0.252138 -2.14926 0
M  V30 4838 C 456.737 -3.02891 -1.51797 0
M  V30 4839 C 455.296 -3.16571 -2.03617 0
M  V30 4840 C 454.443 -2.62909 -0.881701 0
M  V30 4841 H 457.394 -1.58652 -0.0389986 0
M  V30 4842 H 457.415 -2.96445 -2.38538 0
M  V30 4843 H 456.927 -3.80473 -0.765619 0
M  V30 4844 H 455.028 -2.43782 -2.81782 0
M  V30 4845 H 455.141 -4.23271 -2.24452 0
M  V30 4846 H 453.505 -2.20324 -1.27786 0
M  V30 4847 H 454.288 -3.43003 -0.14269 0
M  V30 4848 N 456.733 0.527833 -1.48498 0
M  V30 4849 C 457.98 1.28354 -1.56625 0
M  V30 4850 C 458.308 1.93 -0.241096 0
M  V30 4851 O 457.563 1.79967 0.768798 0
M  V30 4852 C 457.862 2.39275 -2.65485 0
M  V30 4853 C 457.528 1.92268 -4.07853 0
M  V30 4854 C 456.19 1.79166 -4.46602 0
M  V30 4855 C 458.542 1.56771 -4.97064 0
M  V30 4856 C 455.87 1.28905 -5.72364 0
M  V30 4857 C 458.222 1.07972 -6.23318 0
M  V30 4858 C 456.886 0.934887 -6.60921 0
M  V30 4859 H 456.156 0.469682 -0.573131 0
M  V30 4860 H 458.803 0.588781 -1.82224 0
M  V30 4861 H 457.108 3.1443 -2.33754 0
M  V30 4862 H 458.805 2.974 -2.68988 0
M  V30 4863 H 455.395 2.03417 -3.77252 0
M  V30 4864 H 459.579 1.65753 -4.67803 0
M  V30 4865 H 454.835 1.16381 -6.00221 0
M  V30 4866 H 459.009 0.795775 -6.91838 0
M  V30 4867 H 456.636 0.543231 -7.58257 0
M  V30 4868 N 458.211 1.37122 0.776871 0
M  V30 4869 C 459.141 1.35164 1.90402 0
M  V30 4870 C 460.122 0.221069 1.68657 0
M  V30 4871 O 461.307 0.420642 1.8959 0
M  V30 4872 C 458.437 1.15274 3.27611 0
M  V30 4873 C 457.391 2.25289 3.63908 0
M  V30 4874 C 456.717 1.90527 4.99603 0
M  V30 4875 C 458.017 3.67446 3.71188 0
M  V30 4876 H 459.711 2.29482 1.92297 0
M  V30 4877 H 457.257 1.10465 0.923773 0
M  V30 4878 H 459.21 1.12536 4.06096 0
M  V30 4879 H 457.934 0.174102 3.26136 0
M  V30 4880 H 456.593 2.27174 2.87728 0
M  V30 4881 H 456.241 0.91206 4.94662 0
M  V30 4882 H 455.941 2.64193 5.24858 0
M  V30 4883 H 457.465 1.89367 5.80493 0
M  V30 4884 H 458.879 3.67719 4.39836 0
M  V30 4885 H 457.276 4.40123 4.07936 0
M  V30 4886 H 458.346 4.01443 2.71977 0
M  V30 4887 N 459.689 -1.00246 1.21608 0
M  V30 4888 C 461.1 -1.55511 1.03312 0
M  V30 4889 C 461.451 -1.91946 -0.406332 0
M  V30 4890 O 460.576 -1.73753 -1.28992 0
M  V30 4891 C 461.171 -2.82576 1.86913 0
M  V30 4892 C 459.73 -3.34318 1.72941 0
M  V30 4893 C 458.877 -2.07487 1.83968 0
M  V30 4894 H 461.828 -0.824638 1.35593 0
M  V30 4895 H 461.849 -3.54559 1.38087 0
M  V30 4896 H 461.361 -2.56026 2.91672 0
M  V30 4897 H 459.462 -3.65797 0.70877 0
M  V30 4898 H 459.575 -4.05566 2.55055 0
M  V30 4899 H 457.939 -2.20603 1.27304 0
M  V30 4900 H 458.722 -1.83346 2.9024 0
M  V30 4901 N 461.167 -1.02423 -1.1978 0
M  V30 4902 C 462.583 -0.740459 -1.41384 0
M  V30 4903 C 462.783 0.676827 -1.89793 0
M  V30 4904 O 461.839 1.4435 -2.0717 0
M  V30 4905 C 463.152 -1.77264 -2.42895 0
M  V30 4906 C 464.7 -1.79165 -2.56649 0
M  V30 4907 C 465.175 -2.8133 -3.6141 0
M  V30 4908 N 466.666 -2.80118 -3.68901 0
M  V30 4909 C 467.401 -3.55824 -4.49641 0
M  V30 4910 N 466.897 -4.41231 -5.34123 0
M  V30 4911 N 468.69 -3.44387 -4.44246 0
M  V30 4912 H 460.841 -1.9391 -0.866764 0
M  V30 4913 H 463.104 -0.838074 -0.443098 0
M  V30 4914 H 462.81 -2.7884 -2.14339 0
M  V30 4915 H 462.684 -1.59108 -3.42001 0
M  V30 4916 H 465.071 -0.782702 -2.84531 0
M  V30 4917 H 465.152 -2.01396 -1.57713 0
M  V30 4918 H 464.796 -3.82394 -3.34271 0
M  V30 4919 H 464.726 -2.56359 -4.59986 0
M  V30 4920 H 467.217 -2.1817 -3.08562 0
M  V30 4921 H 467.53 -4.95747 -5.92836 0
M  V30 4922 H 465.875 -4.45306 -5.33599 0
M  V30 4923 H 469.066 -2.7708 -3.77285 0
M  V30 4924 H 469.239 -4.0364 -5.06931 0
M  V30 4925 N 462.645 1.35699 -0.801477 0
M  V30 4926 C 463.892 1.98913 -0.379459 0
M  V30 4927 C 464.22 1.63592 1.05204 0
M  V30 4928 O 463.475 0.888563 1.74365 0
M  V30 4929 C 463.774 3.53828 -0.504041 0
M  V30 4930 C 463.44 4.09002 -1.8981 0
M  V30 4931 C 462.102 4.23783 -2.27951 0
M  V30 4932 C 464.454 4.38939 -2.81038 0
M  V30 4933 C 461.782 4.65816 -3.56696 0
M  V30 4934 C 464.134 4.82409 -4.09224 0
M  V30 4935 C 462.798 4.95395 -4.4737 0
M  V30 4936 H 462.068 0.727874 -0.138854 0
M  V30 4937 H 464.715 1.61994 -1.02128 0
M  V30 4938 H 463.02 3.91175 0.221242 0
M  V30 4939 H 464.717 4.00687 -0.158361 0
M  V30 4940 H 461.307 3.97946 -1.59176 0
M  V30 4941 H 465.491 4.27077 -2.52821 0
M  V30 4942 H 460.747 4.74059 -3.86106 0
M  V30 4943 H 464.921 5.04535 -4.80018 0
M  V30 4944 H 462.548 5.27724 -5.47185 0
M  V30 4945 N 464.123 0.554532 1.47522 0
M  V30 4946 C 465.053 -0.182974 2.32782 0
M  V30 4947 C 466.034 -0.911377 1.43624 0
M  V30 4948 O 467.219 -0.892366 1.72483 0
M  V30 4949 C 464.349 -1.21513 3.25349 0
M  V30 4950 C 463.303 -0.603355 4.23726 0
M  V30 4951 C 462.629 -1.73995 5.05598 0
M  V30 4952 C 463.929 0.441121 5.20434 0
M  V30 4953 H 465.623 0.52882 2.94693 0
M  V30 4954 H 463.169 0.255759 1.41711 0
M  V30 4955 H 465.122 -1.73922 3.83835 0
M  V30 4956 H 463.846 -1.95683 2.61487 0
M  V30 4957 H 462.505 -0.10059 3.66462 0
M  V30 4958 H 462.153 -2.47063 4.38143 0
M  V30 4959 H 461.853 -1.3364 5.72201 0
M  V30 4960 H 463.377 -2.26735 5.66942 0
M  V30 4961 H 464.791 0.00319931 5.733 0
M  V30 4962 H 463.188 0.763402 5.95224 0
M  V30 4963 H 464.258 1.33799 4.66075 0
M  V30 4964 N 465.601 -1.54893 0.290851 0
M  V30 4965 C 466.878 -1.91991 -0.373989 0
M  V30 4966 C 467.258 -1.21694 -1.72493 0
M  V30 4967 O 466.606 -0.34917 -2.25816 0
M  V30 4968 C 466.816 -3.45419 -0.498703 0
M  V30 4969 C 468.164 -4.1748 -0.774298 0
M  V30 4970 O 469.188 -3.51398 -0.582908 0
M  V30 4971 O 468.047 -5.3445 -1.14129 0
M  V30 4972 H 465.141 -0.800593 -0.207315 0
M  V30 4973 H 467.687 -1.66297 0.338164 0
M  V30 4974 H 466.459 -3.88688 0.451392 0
M  V30 4975 H 466.082 -3.77117 -1.25972 0
M  V30 4976 N 467.08 -0.0183926 -1.57589 0
M  V30 4977 C 468.329 0.66185 -1.90532 0
M  V30 4978 C 468.642 1.73904 -0.895366 0
M  V30 4979 O 469.848 2.47518 -1.11566 0
M  V30 4980 C 468.304 1.22844 -3.38286 0
M  V30 4981 C 467.912 0.185103 -4.47617 0
M  V30 4982 C 469.656 1.88581 -3.80312 0
M  V30 4983 C 467.563 0.762723 -5.86461 0
M  V30 4984 H 466.493 0.250972 -0.711006 0
M  V30 4985 H 469.144 -0.0819435 -1.83317 0
M  V30 4986 H 467.526 2.0235 -3.40398 0
M  V30 4987 H 468.7 -0.58671 -4.5705 0
M  V30 4988 H 467.015 -0.372889 -4.14727 0
M  V30 4989 H 469.612 2.32735 -4.81392 0
M  V30 4990 H 469.955 2.72408 -3.14801 0
M  V30 4991 H 470.488 1.15782 -3.80578 0
M  V30 4992 H 467.227 -0.0371713 -6.55489 0
M  V30 4993 H 466.747 1.50327 -5.80656 0
M  V30 4994 H 468.426 1.25576 -6.34697 0
M  V30 4995 N 468.558 1.5553 0.254621 0
M  V30 4996 C 469.488 1.9268 1.31897 0
M  V30 4997 C 470.469 0.790797 1.506 0
M  V30 4998 O 471.654 1.05045 1.63337 0
M  V30 4999 C 468.784 2.21477 2.67517 0
M  V30 5000 C 467.738 3.37256 2.63519 0
M  V30 5001 C 467.064 3.51576 4.02862 0
M  V30 5002 C 468.364 4.73157 2.21179 0
M  V30 5003 H 470.058 2.81832 1.01051 0
M  V30 5004 H 467.604 1.35599 0.484662 0
M  V30 5005 H 469.557 2.46055 3.42104 0
M  V30 5006 H 468.281 1.29144 2.99982 0
M  V30 5007 H 466.94 3.12675 1.9139 0
M  V30 5008 H 466.588 2.56676 4.32581 0
M  V30 5009 H 466.288 4.2943 4.01078 0
M  V30 5010 H 467.812 3.78467 4.79161 0
M  V30 5011 H 469.226 4.97158 2.85494 0
M  V30 5012 H 467.623 5.54058 2.30521 0
M  V30 5013 H 468.693 4.70739 1.16332 0
M  V30 5014 N 470.036 -0.519951 1.48776 0
M  V30 5015 C 470.966 -1.63253 1.66945 0
M  V30 5016 C 471.947 -1.62014 0.518224 0
M  V30 5017 O 473.132 -1.79053 0.751919 0
M  V30 5018 C 470.262 -3.0181 1.71836 0
M  V30 5019 C 469.216 -3.17911 2.8656 0
M  V30 5020 C 468.542 -4.5763 2.76548 0
M  V30 5021 C 469.842 -2.99729 4.27738 0
M  V30 5022 H 471.536 -1.48302 2.6009 0
M  V30 5023 H 469.082 -0.712026 1.25165 0
M  V30 5024 H 471.035 -3.79525 1.83135 0
M  V30 5025 H 469.759 -3.17806 0.752775 0
M  V30 5026 H 468.418 -2.42616 2.74833 0
M  V30 5027 H 468.066 -4.70476 1.77937 0
M  V30 5028 H 467.766 -4.69346 3.53536 0
M  V30 5029 H 469.29 -5.37431 2.89828 0
M  V30 5030 H 470.704 -3.67228 4.40246 0
M  V30 5031 H 469.101 -3.22932 5.05801 0
M  V30 5032 H 470.171 -1.96047 4.43502 0
M  V30 5033 N 471.514 -1.37532 -0.769588 0
M  V30 5034 C 472.742 -1.36059 -1.55871 0
M  V30 5035 C 473.157 0.053544 -1.88724 0
M  V30 5036 O 472.514 1.01591 -1.5161 0
M  V30 5037 C 472.565 -2.20107 -2.86767 0
M  V30 5038 O 472.286 -3.56009 -2.55321 0
M  V30 5039 C 473.787 -2.26636 -3.80987 0
M  V30 5040 H 471.007 -0.465967 -0.482821 0
M  V30 5041 H 473.551 -1.80901 -0.953686 0
M  V30 5042 H 471.706 -1.78768 -3.43687 0
M  V30 5043 H 472.12 -4.0009 -3.39158 0
M  V30 5044 H 473.594 -2.89763 -4.69831 0
M  V30 5045 H 474.071 -1.2754 -4.20274 0
M  V30 5046 H 474.677 -2.68296 -3.29996 0
M  V30 5047 N 472.992 0.995999 -1.22138 0
M  V30 5048 C 473.922 2.10387 -1.01289 0
M  V30 5049 C 474.903 1.69975 0.0651454 0
M  V30 5050 O 476.088 1.9396 -0.0964628 0
M  V30 5051 C 473.218 3.42312 -0.586517 0
M  V30 5052 C 472.172 3.96558 -1.61014 0
M  V30 5053 C 471.498 5.24494 -1.0397 0
M  V30 5054 C 472.798 4.27595 -2.99933 0
M  V30 5055 H 474.492 2.28086 -1.93951 0
M  V30 5056 H 472.038 1.09607 -0.933928 0
M  V30 5057 H 473.991 4.19223 -0.427793 0
M  V30 5058 H 472.715 3.24431 0.375761 0
M  V30 5059 H 471.374 3.21776 -1.75658 0
M  V30 5060 H 471.022 5.02953 -0.0688703 0
M  V30 5061 H 470.722 5.61755 -1.72352 0
M  V30 5062 H 472.246 6.04042 -0.892494 0
M  V30 5063 H 473.66 4.95315 -2.8868 0
M  V30 5064 H 472.057 4.76021 -3.6541 0
M  V30 5065 H 473.127 3.35498 -3.50099 0
M  V30 5066 N 474.47 1.03057 1.19235 0
M  V30 5067 C 475.747 0.642608 1.84743 0
M  V30 5068 C 476.127 -0.878577 1.91948 0
M  V30 5069 O 475.475 -1.77597 1.43776 0
M  V30 5070 C 475.685 1.30665 3.23616 0
M  V30 5071 C 477.033 1.43098 3.9976 0
M  V30 5072 O 478.057 1.26396 3.3302 0
M  V30 5073 O 476.916 1.70223 5.19313 0
M  V30 5074 H 474.01 0.223573 0.796206 0
M  V30 5075 H 476.556 1.12883 1.26711 0
M  V30 5076 H 475.328 2.34544 3.13217 0
M  V30 5077 H 474.951 0.808405 3.89295 0
M  V30 5078 N 475.948 -1.35272 0.808662 0
M  V30 5079 C 477.178 -2.02652 0.401953 0
M  V30 5080 C 477.586 -1.6108 -0.992462 0
M  V30 5081 O 476.929 -0.804984 -1.65123 0
M  V30 5082 C 476.991 -3.57174 0.408246 0
M  V30 5083 C 476.655 -4.22019 1.75353 0
M  V30 5084 C 477.652 -4.43552 2.71215 0
M  V30 5085 C 475.337 -4.59093 2.03811 0
M  V30 5086 C 477.331 -5.01264 3.93717 0
M  V30 5087 C 475.018 -5.16519 3.26576 0
M  V30 5088 C 476.016 -5.37546 4.21347 0
M  V30 5089 O 475.704 -5.93761 5.41944 0
M  V30 5090 H 475.436 -0.656495 0.161216 0
M  V30 5091 H 477.99 -1.73829 1.0942 0
M  V30 5092 H 476.22 -3.85197 -0.340608 0
M  V30 5093 H 477.909 -4.05893 0.0235623 0
M  V30 5094 H 478.675 -4.15288 2.50522 0
M  V30 5095 H 474.554 -4.42039 1.30854 0
M  V30 5096 H 478.098 -5.17592 4.67701 0
M  V30 5097 H 473.995 -5.4421 3.47139 0
M  V30 5098 H 474.763 -6.1221 5.43269 0
M  V30 5099 N 477.426 -0.562348 -1.47226 0
M  V30 5100 C 478.837 -0.130325 -1.86245 0
M  V30 5101 C 479.188 1.30128 -1.46838 0
M  V30 5102 O 478.313 1.97974 -0.873805 0
M  V30 5103 C 478.908 -0.229738 -3.3802 0
M  V30 5104 C 477.467 0.14728 -3.76112 0
M  V30 5105 C 476.614 -0.574971 -2.71274 0
M  V30 5106 H 479.565 -0.771773 -1.3867 0
M  V30 5107 H 479.586 0.550316 -3.76499 0
M  V30 5108 H 479.098 -1.27178 -3.66671 0
M  V30 5109 H 477.199 1.19023 -3.53078 0
M  V30 5110 H 477.312 -0.214858 -4.78618 0
M  V30 5111 H 475.676 -0.0174756 -2.54694 0
M  V30 5112 H 476.459 -1.61827 -3.02766 0
M  V30 5113 N 478.904 1.54736 -0.299062 0
M  V30 5114 C 479.851 2.23448 0.577899 0
M  V30 5115 C 480.821 1.21637 1.13109 0
M  V30 5116 O 482.006 1.50252 1.17597 0
M  V30 5117 C 479.146 2.9774 1.74484 0
M  V30 5118 C 478.259 4.1432 1.22323 0
M  V30 5119 C 477.394 4.76199 2.35388 0
M  V30 5120 C 476.433 5.84927 1.80351 0
M  V30 5121 N 475.57 6.4077 2.86982 0
M  V30 5122 H 480.41 2.97996 -0.0146545 0
M  V30 5123 H 477.947 1.47088 -0.0190013 0
M  V30 5124 H 479.905 3.39045 2.43114 0
M  V30 5125 H 478.535 2.25572 2.30905 0
M  V30 5126 H 477.587 3.7797 0.429249 0
M  V30 5127 H 478.899 4.92659 0.780309 0
M  V30 5128 H 478.053 5.20346 3.11969 0
M  V30 5129 H 476.792 3.97188 2.83006 0
M  V30 5130 H 475.797 5.40207 1.02259 0
M  V30 5131 H 477.022 6.65821 1.3364 0
M  V30 5132 H 474.968 5.64643 3.33938 0
M  V30 5133 H 474.885 7.1445 2.4718 0
M  V30 5134 H 476.153 6.89574 3.63466 0
M  V30 5135 N 480.382 0.0267497 1.57577 0
M  V30 5136 C 481.292 -0.971633 2.13533 0
M  V30 5137 C 482.308 -1.35868 1.08701 0
M  V30 5138 O 483.484 -1.44058 1.40746 0
M  V30 5139 C 480.549 -2.23622 2.64941 0
M  V30 5140 C 479.61 -1.90982 3.8448 0
M  V30 5141 C 478.843 -3.11411 4.33427 0
M  V30 5142 O 479.066 -4.23992 3.81558 0
M  V30 5143 O 478 -2.93848 5.25297 0
M  V30 5144 H 481.826 -0.525853 2.99113 0
M  V30 5145 H 479.411 -0.193712 1.48139 0
M  V30 5146 H 481.293 -2.97864 2.98086 0
M  V30 5147 H 479.968 -2.67386 1.82446 0
M  V30 5148 H 478.875 -1.14132 3.56265 0
M  V30 5149 H 480.208 -1.52036 4.6813 0
M  V30 5150 N 481.861 -1.55662 -0.24637 0
M  V30 5151 C 482.824 -1.89558 -1.28842 0
M  V30 5152 C 483.824 -0.772082 -1.41052 0
M  V30 5153 O 485.014 -1.04007 -1.39743 0
M  V30 5154 C 482.146 -2.12449 -2.66605 0
M  V30 5155 H 483.339 -2.82735 -1.00004 0
M  V30 5156 H 480.892 -1.48562 -0.485684 0
M  V30 5157 H 481.627 -1.21742 -3.00582 0
M  V30 5158 H 481.412 -2.94273 -2.59125 0
M  V30 5159 H 482.902 -2.39854 -3.41847 0
M  V30 5160 N 483.339 0.512053 -1.4905 0
M  V30 5161 C 484.269 1.62365 -1.67809 0
M  V30 5162 C 485.25 1.61737 -0.526809 0
M  V30 5163 O 486.435 1.78651 -0.761404 0
M  V30 5164 C 483.565 3.00895 -1.73435 0
M  V30 5165 C 482.519 3.16387 -2.88242 0
M  V30 5166 C 481.845 4.56157 -2.78971 0
M  V30 5167 C 483.145 2.97457 -4.29321 0
M  V30 5168 H 484.839 1.46921 -2.60873 0
M  V30 5169 H 482.385 0.705379 -1.2554 0
M  V30 5170 H 484.338 3.78549 -1.85145 0
M  V30 5171 H 483.062 3.17403 -0.769619 0
M  V30 5172 H 481.721 2.41155 -2.76116 0
M  V30 5173 H 481.369 4.69525 -1.8043 0
M  V30 5174 H 481.069 4.67465 -3.5602 0
M  V30 5175 H 482.593 5.35886 -2.92675 0
M  V30 5176 H 484.007 3.64888 -4.42187 0
M  V30 5177 H 482.404 3.20245 -5.07507 0
M  V30 5178 H 483.474 1.93692 -4.44535 0
M  V30 5179 N 484.817 1.37938 0.762283 0
M  V30 5180 C 485.764 1.34467 1.87583 0
M  V30 5181 C 486.734 0.208633 1.64785 0
M  V30 5182 O 487.919 0.399494 1.86571 0
M  V30 5183 C 485.059 1.16692 3.24772 0
M  V30 5184 C 484.172 2.39608 3.59461 0
M  V30 5185 C 483.307 2.14631 4.85908 0
M  V30 5186 C 482.346 3.33364 5.13357 0
M  V30 5187 N 481.483 3.07877 6.30996 0
M  V30 5188 H 486.323 2.29669 1.89885 0
M  V30 5189 H 483.86 1.14116 0.928219 0
M  V30 5190 H 485.818 1.04405 4.03925 0
M  V30 5191 H 484.448 0.251333 3.2182 0
M  V30 5192 H 483.5 2.626 2.75219 0
M  V30 5193 H 484.812 3.28128 3.75678 0
M  V30 5194 H 483.966 1.99429 5.72986 0
M  V30 5195 H 482.705 1.23463 4.71814 0
M  V30 5196 H 481.71 3.49094 4.24751 0
M  V30 5197 H 482.935 4.25395 5.29354 0
M  V30 5198 H 480.881 2.19348 6.18241 0
M  V30 5199 H 480.798 3.89944 6.47673 0
M  V30 5200 H 482.066 2.96313 7.20985 0
M  V30 5201 N 486.295 -0.989507 1.22664 0
M  V30 5202 C 487.225 -2.09847 1.02404 0
M  V30 5203 C 488.206 -1.70007 -0.0561303 0
M  V30 5204 O 489.391 -1.93906 0.106748 0
M  V30 5205 C 486.521 -3.41996 0.604663 0
M  V30 5206 C 485.475 -3.95699 1.63115 0
M  V30 5207 C 484.801 -5.23936 1.0675 0
M  V30 5208 C 486.101 -4.25999 3.02196 0
M  V30 5209 H 487.795 -2.27054 1.95158 0
M  V30 5210 H 485.341 -1.09111 0.939727 0
M  V30 5211 H 487.294 -4.1899 0.45002 0
M  V30 5212 H 486.018 -3.24626 -0.35855 0
M  V30 5213 H 484.677 -3.2084 1.77362 0
M  V30 5214 H 484.325 -5.02909 0.0955422 0
M  V30 5215 H 484.025 -5.60833 1.75328 0
M  V30 5216 H 485.549 -6.0356 0.924516 0
M  V30 5217 H 486.963 -4.93777 2.91303 0
M  V30 5218 H 485.36 -4.74076 3.67929 0
M  V30 5219 H 486.43 -3.33636 3.51873 0
M  V30 5220 N 487.773 -1.03688 -1.18687 0
M  V30 5221 C 489.02 -0.73803 -1.88572 0
M  V30 5222 C 489.348 0.733973 -1.8012 0
M  V30 5223 O 488.603 1.55098 -1.19344 0
M  V30 5224 C 488.902 -1.14477 -3.3857 0
M  V30 5225 C 488.568 -2.61641 -3.67226 0
M  V30 5226 C 487.23 -3.01846 -3.74757 0
M  V30 5227 C 489.582 -3.56812 -3.79914 0
M  V30 5228 C 486.91 -4.36118 -3.92451 0
M  V30 5229 C 489.262 -4.90799 -3.99123 0
M  V30 5230 C 487.926 -5.3068 -4.04888 0
M  V30 5231 H 487.196 -0.270064 -0.690034 0
M  V30 5232 H 489.843 -1.3012 -1.40503 0
M  V30 5233 H 488.148 -0.500337 -3.88592 0
M  V30 5234 H 489.845 -0.89095 -3.90977 0
M  V30 5235 H 486.435 -2.29498 -3.61979 0
M  V30 5236 H 490.619 -3.26899 -3.73431 0
M  V30 5237 H 485.875 -4.66542 -3.95157 0
M  V30 5238 H 490.049 -5.64451 -4.07882 0
M  V30 5239 H 487.676 -6.34733 -4.18351 0
M  V30 5240 N 489.251 1.34841 -0.815825 0
M  V30 5241 C 490.5 1.97755 -0.396976 0
M  V30 5242 C 490.813 1.65422 1.04379 0
M  V30 5243 O 492.019 2.21771 1.5662 0
M  V30 5244 C 490.475 3.53818 -0.658869 0
M  V30 5245 C 490.083 3.95051 -2.11278 0
M  V30 5246 C 491.827 4.23397 -0.305834 0
M  V30 5247 C 489.734 5.43997 -2.31994 0
M  V30 5248 H 488.664 0.739985 -0.1447 0
M  V30 5249 H 491.315 1.53781 -1.00118 0
M  V30 5250 H 489.697 3.95997 0.0154112 0
M  V30 5251 H 490.871 3.63998 -2.82564 0
M  V30 5252 H 489.186 3.38388 -2.42657 0
M  V30 5253 H 491.783 5.32899 -0.43854 0
M  V30 5254 H 492.126 4.09508 0.748952 0
M  V30 5255 H 492.659 3.8667 -0.934403 0
M  V30 5256 H 489.398 5.62865 -3.35952 0
M  V30 5257 H 488.918 5.76589 -1.65244 0
M  V30 5258 H 490.597 6.10584 -2.14001 0
M  V30 5259 N 490.729 0.570148 1.46925 0
M  V30 5260 C 491.679 -0.190921 2.27199 0
M  V30 5261 C 492.663 -0.873457 1.35128 0
M  V30 5262 O 493.855 -0.769627 1.59392 0
M  V30 5263 C 490.984 -1.21204 3.21192 0
M  V30 5264 C 490.07 -0.532261 4.20747 0
M  V30 5265 N 490.461 0.405038 5.04176 0
M  V30 5266 C 488.759 -0.784582 4.39045 0
M  V30 5267 C 489.46 0.801149 5.76157 0
M  V30 5268 N 488.436 0.153082 5.43384 0
M  V30 5269 H 492.238 0.529535 2.8909 0
M  V30 5270 H 489.752 0.391019 1.57622 0
M  V30 5271 H 491.749 -1.77135 3.77398 0
M  V30 5272 H 490.409 -1.93345 2.6086 0
M  V30 5273 H 491.42 0.779903 5.11994 0
M  V30 5274 H 488.097 -1.49352 3.89872 0
M  V30 5275 H 489.487 1.57208 6.5325 0
M  V30 5276 N 492.207 -1.54576 0.307264 0
M  V30 5277 C 493.155 -2.25208 -0.581723 0
M  V30 5278 C 494.149 -1.26031 -1.13192 0
M  V30 5279 O 495.355 -1.43862 -1.08184 0
M  V30 5280 H 491.73 -0.723173 -0.206214 0
M  V30 5281 H 493.701 -2.98378 0.0364663 0
M  V30 5282 C 492.45 -3.01086 -1.73904 0
M  V30 5283 H 491.773 -3.77208 -1.32491 0
M  V30 5284 H 493.213 -3.5378 -2.33701 0
M  V30 5285 C 491.672 -2.08422 -2.64692 0
M  V30 5286 O 492.202 -1.65636 -3.65961 0
M  V30 5287 N 490.408 -1.74247 -2.32564 0
M  V30 5288 H 489.955 -2.09238 -1.50257 0
M  V30 5289 H 489.913 -1.12524 -2.93574 0
M  V30 5290 N 493.685 -0.035106 -1.57561 0
M  V30 5291 C 494.632 0.94474 -2.10578 0
M  V30 5292 C 495.602 1.3192 -1.00927 0
M  V30 5293 O 496.787 1.41147 -1.28382 0
M  V30 5294 C 493.927 2.21982 -2.64231 0
M  V30 5295 C 493.04 1.90128 -3.87911 0
M  V30 5296 C 492.175 3.11975 -4.29936 0
M  V30 5297 C 491.214 2.75968 -5.46359 0
M  V30 5298 N 490.351 3.90459 -5.83512 0
M  V30 5299 H 495.191 0.485717 -2.94015 0
M  V30 5300 H 492.728 0.228143 -1.4532 0
M  V30 5301 H 494.686 2.96572 -2.9343 0
M  V30 5302 H 493.316 2.6549 -1.83616 0
M  V30 5303 H 492.368 1.05755 -3.65404 0
M  V30 5304 H 493.68 1.59613 -4.72573 0
M  V30 5305 H 492.834 3.9488 -4.60603 0
M  V30 5306 H 491.573 3.45657 -3.44053 0
M  V30 5307 H 490.578 1.91478 -5.1538 0
M  V30 5308 H 491.803 2.43497 -6.33945 0
M  V30 5309 H 489.749 4.23971 -5.00584 0
M  V30 5310 H 489.666 3.63588 -6.62827 0
M  V30 5311 H 490.934 4.7405 -6.18787 0
M  V30 5312 N 495.163 1.55791 0.238111 0
M  V30 5313 C 496.073 1.94196 1.31625 0
M  V30 5314 C 497.089 0.843545 1.52185 0
M  V30 5315 O 498.265 1.1457 1.65637 0
M  V30 5316 C 495.33 2.2365 2.64918 0
M  V30 5317 C 494.391 3.46971 2.52804 0
M  V30 5318 C 493.624 3.7501 3.79741 0
M  V30 5319 O 493.847 3.04982 4.82019 0
M  V30 5320 O 492.781 4.68525 3.77846 0
M  V30 5321 H 496.607 2.86044 1.02043 0
M  V30 5322 H 494.192 1.42786 0.439603 0
M  V30 5323 H 496.074 2.43863 3.4367 0
M  V30 5324 H 494.749 1.34979 2.94215 0
M  V30 5325 H 493.656 3.32055 1.72309 0
M  V30 5326 H 494.989 4.35971 2.28451 0
M  V30 5327 N 496.642 -0.504142 1.49319 0
M  V30 5328 C 497.888 -1.26033 1.58882 0
M  V30 5329 C 498.221 -1.92268 0.273274 0
M  V30 5330 O 497.496 -1.80567 -0.72291 0
M  V30 5331 C 497.779 -2.32976 2.7458 0
M  V30 5332 C 497.632 -1.71263 4.1592 0
M  V30 5333 C 498.951 -3.34561 2.85932 0
M  V30 5334 H 496.07 -0.456863 0.578312 0
M  V30 5335 H 498.712 -0.558965 1.81592 0
M  V30 5336 H 496.862 -2.92796 2.55348 0
M  V30 5337 H 498.534 -1.15294 4.4666 0
M  V30 5338 H 496.777 -1.01686 4.21714 0
M  V30 5339 H 497.448 -2.48816 4.92742 0
M  V30 5340 H 499.924 -2.84727 3.0343 0
M  V30 5341 H 498.8 -4.06754 3.68568 0
M  V30 5342 H 499.061 -3.96695 1.95154 0
M  V30 5343 N 498.12 -1.38341 -0.754957 0
M  V30 5344 C 499.35 -1.37504 -1.54195 0
M  V30 5345 C 499.758 0.0373787 -1.89163 0
M  V30 5346 O 499.101 1.01402 -1.53178 0
M  V30 5347 C 499.163 -2.16488 -2.87008 0
M  V30 5348 C 498.827 -3.65311 -2.74585 0
M  V30 5349 C 499.824 -4.58834 -2.44474 0
M  V30 5350 C 497.509 -4.08649 -2.9208 0
M  V30 5351 C 499.503 -5.93675 -2.32011 0
M  V30 5352 C 497.19 -5.43571 -2.79237 0
M  V30 5353 C 498.188 -6.35898 -2.49245 0
M  V30 5354 O 497.876 -7.68338 -2.36458 0
M  V30 5355 H 497.608 -0.472159 -0.483779 0
M  V30 5356 H 500.162 -1.82515 -0.94221 0
M  V30 5357 H 498.392 -1.66194 -3.49166 0
M  V30 5358 H 500.081 -2.08076 -3.4851 0
M  V30 5359 H 500.847 -4.26657 -2.30627 0
M  V30 5360 H 496.726 -3.37134 -3.14422 0
M  V30 5361 H 500.27 -6.65706 -2.08522 0
M  V30 5362 H 496.167 -5.75345 -2.92657 0
M  V30 5363 H 496.935 -7.78845 -2.5168 0
M  V30 5364 N 499.598 0.982988 -1.23187 0
M  V30 5365 C 500.548 2.05962 -0.977942 0
M  V30 5366 C 501.532 1.60725 0.0751148 0
M  V30 5367 O 502.724 1.76471 -0.136683 0
M  V30 5368 C 499.853 3.38564 -0.568276 0
M  V30 5369 C 498.939 3.90407 -1.6566 0
M  V30 5370 N 499.33 4.15359 -2.88635 0
M  V30 5371 C 497.628 4.18915 -1.53058 0
M  V30 5372 C 498.329 4.57642 -3.5908 0
M  V30 5373 N 497.305 4.6192 -2.86584 0
M  V30 5374 H 501.107 2.23208 -1.91195 0
M  V30 5375 H 498.621 1.16555 -1.13087 0
M  V30 5376 H 500.618 4.15276 -0.36764 0
M  V30 5377 H 499.278 3.22712 0.358713 0
M  V30 5378 H 500.289 4.03258 -3.24966 0
M  V30 5379 H 496.966 4.12081 -0.670506 0
M  V30 5380 H 498.356 4.85488 -4.6449 0
M  V30 5381 N 501.076 1.04316 1.18135 0
M  V30 5382 C 501.986 0.646876 2.25505 0
M  V30 5383 C 503.002 -0.328008 1.7088 0
M  V30 5384 O 504.178 -0.182309 2.00573 0
M  V30 5385 C 501.243 0.0185664 3.46695 0
M  V30 5386 C 500.304 1.04277 4.16443 0
M  V30 5387 C 499.537 0.444352 5.31847 0
M  V30 5388 O 499.76 -0.748735 5.65465 0
M  V30 5389 O 498.694 1.17428 5.90334 0
M  V30 5390 H 502.52 1.54147 2.61672 0
M  V30 5391 H 500.105 0.814188 1.25265 0
M  V30 5392 H 501.987 -0.331068 4.20097 0
M  V30 5393 H 500.662 -0.849814 3.12346 0
M  V30 5394 H 499.569 1.44425 3.45098 0
M  V30 5395 H 500.902 1.882 4.54798 0
M  V30 5396 N 502.554 -1.34406 0.822964 0
M  V30 5397 C 503.501 -2.29519 0.24284 0
M  V30 5398 C 504.471 -1.5359 -0.632397 0
M  V30 5399 O 505.656 -1.8196 -0.57403 0
M  V30 5400 C 502.796 -3.40032 -0.58925 0
M  V30 5401 C 501.909 -4.30899 0.308236 0
M  V30 5402 C 501.044 -5.28515 -0.533425 0
M  V30 5403 C 500.083 -6.1102 0.363444 0
M  V30 5404 N 499.22 -7.00725 -0.439147 0
M  V30 5405 H 504.06 -2.78537 1.05929 0
M  V30 5406 H 501.597 -1.3707 0.533872 0
M  V30 5407 H 503.555 -4.0279 -1.087 0
M  V30 5408 H 502.185 -2.92248 -1.37081 0
M  V30 5409 H 501.237 -3.69002 0.924203 0
M  V30 5410 H 502.549 -4.88717 0.997862 0
M  V30 5411 H 501.703 -5.96725 -1.09565 0
M  V30 5412 H 500.442 -4.71235 -1.25656 0
M  V30 5413 H 499.447 -5.41743 0.937812 0
M  V30 5414 H 500.672 -6.70381 1.08469 0
M  V30 5415 H 498.618 -6.45913 -1.14595 0
M  V30 5416 H 498.535 -7.55756 0.19209 0
M  V30 5417 H 499.803 -7.73263 -0.984124 0
M  V30 5418 N 504.032 -0.577932 -1.46621 0
M  V30 5419 C 505.309 0.00495287 -1.95599 0
M  V30 5420 C 505.689 1.46428 -1.5206 0
M  V30 5421 O 505.037 2.1517 -0.769046 0
M  V30 5422 C 505.247 -0.162114 -3.48623 0
M  V30 5423 C 506.595 -0.0274623 -4.24591 0
M  V30 5424 O 507.619 -0.0907067 -3.56084 0
M  V30 5425 O 506.478 0.1122 -5.46385 0
M  V30 5426 H 503.572 0.0525057 -0.825332 0
M  V30 5427 H 506.118 -0.645914 -1.56927 0
M  V30 5428 H 504.89 -1.17679 -3.73185 0
M  V30 5429 H 504.513 0.525407 -3.94113 0
M  V30 5430 N 505.51 1.54411 -0.315457 0
M  V30 5431 C 506.759 1.99599 0.290395 0
M  V30 5432 C 507.072 1.20746 1.53882 0
M  V30 5433 O 508.278 1.56272 2.22017 0
M  V30 5434 C 506.734 3.5539 0.56797 0
M  V30 5435 C 506.342 4.43068 -0.662945 0
M  V30 5436 C 508.086 4.09067 1.13422 0
M  V30 5437 C 505.993 5.90317 -0.357722 0
M  V30 5438 H 504.923 0.745592 0.112286 0
M  V30 5439 H 507.574 1.78477 -0.426418 0
M  V30 5440 H 505.956 3.72468 1.34476 0
M  V30 5441 H 507.13 4.37765 -1.43869 0
M  V30 5442 H 505.445 4.00238 -1.14884 0
M  V30 5443 H 508.042 5.16663 1.37707 0
M  V30 5444 H 508.385 3.60552 2.08106 0
M  V30 5445 H 508.918 3.95589 0.418805 0
M  V30 5446 H 505.657 6.4301 -1.27351 0
M  V30 5447 H 505.177 5.98592 0.380472 0
M  V30 5448 H 506.856 6.4699 0.0354284 0
M  V30 5449 N 506.988 0.0434614 1.5754 0
M  V30 5450 C 507.935 -0.93356 2.11077 0
M  V30 5451 C 508.905 -1.31383 1.01626 0
M  V30 5452 O 510.09 -1.40465 1.29129 0
M  V30 5453 C 507.23 -2.20578 2.65404 0
M  V30 5454 C 506.343 -1.88068 3.88914 0
M  V30 5455 C 505.478 -3.09691 4.31584 0
M  V30 5456 C 504.517 -2.73067 5.47815 0
M  V30 5457 N 503.654 -3.87359 5.85574 0
M  V30 5458 H 508.494 -0.470118 2.94268 0
M  V30 5459 H 506.031 -0.220434 1.45439 0
M  V30 5460 H 507.989 -2.95011 2.94999 0
M  V30 5461 H 506.619 -2.64513 1.85021 0
M  V30 5462 H 505.671 -1.03816 3.6596 0
M  V30 5463 H 506.983 -1.57104 4.73413 0
M  V30 5464 H 506.137 -3.92431 4.62691 0
M  V30 5465 H 504.876 -3.43827 3.45882 0
M  V30 5466 H 503.881 -1.88742 5.16388 0
M  V30 5467 H 505.106 -2.40131 6.35227 0
M  V30 5468 H 503.052 -4.21311 5.02825 0
M  V30 5469 H 502.969 -3.60068 6.64746 0
M  V30 5470 H 504.237 -4.70761 6.21292 0
M  V30 5471 N 508.466 -1.55915 -0.229846 0
M  V30 5472 C 509.712 -1.78807 -0.956868 0
M  V30 5473 C 510.045 -0.611687 -1.84315 0
M  V30 5474 O 509.32 0.389398 -1.90562 0
M  V30 5475 C 509.603 -3.11718 -1.80288 0
M  V30 5476 C 509.456 -4.3979 -0.943649 0
M  V30 5477 C 510.775 -3.40999 -2.78222 0
M  V30 5478 H 507.894 -0.6505 -0.346437 0
M  V30 5479 H 510.536 -1.88648 -0.226252 0
M  V30 5480 H 508.686 -3.03459 -2.42579 0
M  V30 5481 H 510.358 -4.60059 -0.338121 0
M  V30 5482 H 508.601 -4.33086 -0.248705 0
M  V30 5483 H 509.272 -5.29208 -1.5698 0
M  V30 5484 H 511.748 -3.49332 -2.26067 0
M  V30 5485 H 510.624 -4.35183 -3.34526 0
M  V30 5486 H 510.885 -2.62754 -3.55546 0
M  V30 5487 N 509.944 0.496216 -1.49584 0
M  V30 5488 C 511.191 1.25003 -1.59312 0
M  V30 5489 C 511.519 1.92445 -0.28198 0
M  V30 5490 O 510.774 1.81557 0.730452 0
M  V30 5491 C 511.073 2.3359 -2.705 0
M  V30 5492 C 510.739 1.83574 -4.11839 0
M  V30 5493 C 509.401 1.69653 -4.50302 0
M  V30 5494 C 511.753 1.46193 -5.00277 0
M  V30 5495 C 509.081 1.16736 -5.74969 0
M  V30 5496 C 511.433 0.947265 -6.25468 0
M  V30 5497 C 510.097 0.794485 -6.62755 0
M  V30 5498 H 509.367 0.45742 -0.582965 0
M  V30 5499 H 512.014 0.549996 -1.83432 0
M  V30 5500 H 510.319 3.09401 -2.40371 0
M  V30 5501 H 512.016 2.91627 -2.75235 0
M  V30 5502 H 508.606 1.9537 -3.81482 0
M  V30 5503 H 512.79 1.55793 -4.71214 0
M  V30 5504 H 508.046 1.03623 -6.02555 0
M  V30 5505 H 512.22 0.648846 -6.93371 0
M  V30 5506 H 509.847 0.382271 -7.59238 0
M  V30 5507 N 511.423 1.38739 0.74761 0
M  V30 5508 C 512.67 1.35274 1.50689 0
M  V30 5509 C 512.998 -0.0553359 1.94421 0
M  V30 5510 O 512.253 -1.03365 1.66175 0
M  V30 5511 C 512.552 2.25992 2.7688 0
M  V30 5512 C 512.218 3.73854 2.5208 0
M  V30 5513 C 510.88 4.14145 2.45025 0
M  V30 5514 C 513.232 4.67427 2.30568 0
M  V30 5515 C 510.56 5.4609 2.14483 0
M  V30 5516 C 512.912 5.99635 2.01545 0
M  V30 5517 C 511.576 6.39004 1.92951 0
M  V30 5518 H 510.846 0.495003 0.55141 0
M  V30 5519 H 513.493 1.71145 0.859158 0
M  V30 5520 H 511.798 1.83196 3.46333 0
M  V30 5521 H 513.495 2.20611 3.34861 0
M  V30 5522 H 510.085 3.41913 2.58444 0
M  V30 5523 H 514.269 4.3714 2.34994 0
M  V30 5524 H 509.525 5.75528 2.06342 0
M  V30 5525 H 513.699 6.71678 1.83906 0
M  V30 5526 H 511.326 7.41165 1.6905 0
M  V30 5527 N 512.901 -0.976442 1.23707 0
M  V30 5528 C 514.178 -1.69296 0.979699 0
M  V30 5529 C 514.558 -2.0508 -0.500555 0
M  V30 5530 O 513.906 -1.74708 -1.47273 0
M  V30 5531 C 514.116 -2.93143 1.89389 0
M  V30 5532 C 515.464 -3.65572 2.15968 0
M  V30 5533 O 516.488 -3.03184 1.86971 0
M  V30 5534 O 515.347 -4.77859 2.65167 0
M  V30 5535 H 512.441 -0.739708 0.369812 0
M  V30 5536 H 514.987 -1.03131 1.34767 0
M  V30 5537 H 513.759 -2.63327 2.89439 0
M  V30 5538 H 513.382 -3.67044 1.52854 0
M  V30 5539 N 514.379 -1.04941 -1.1758 0
M  V30 5540 C 515.326 -0.648155 -2.21512 0
M  V30 5541 C 516.296 0.348431 -1.62404 0
M  V30 5542 O 517.481 0.240419 -1.89279 0
M  V30 5543 C 514.621 -0.0264291 -3.4509 0
M  V30 5544 C 513.734 -1.07154 -4.185 0
M  V30 5545 C 512.869 -0.417403 -5.29558 0
M  V30 5546 C 511.908 -1.447 -5.94751 0
M  V30 5547 N 511.045 -0.817203 -6.97328 0
M  V30 5548 H 515.885 -1.53891 -2.55189 0
M  V30 5549 H 513.422 -0.769699 -1.25356 0
M  V30 5550 H 515.38 0.351456 -4.15717 0
M  V30 5551 H 514.01 0.827802 -3.12005 0
M  V30 5552 H 513.062 -1.56728 -3.46613 0
M  V30 5553 H 514.374 -1.8532 -4.63096 0
M  V30 5554 H 513.528 0.0142061 -6.06698 0
M  V30 5555 H 512.267 0.396265 -4.86087 0
M  V30 5556 H 511.272 -1.88865 -5.16343 0
M  V30 5557 H 512.497 -2.26252 -6.40302 0
M  V30 5558 H 510.443 -0.0239995 -6.55996 0
M  V30 5559 H 510.36 -1.53644 -7.40223 0
M  V30 5560 H 511.628 -0.410283 -7.7842 0
M  V30 5561 N 515.857 1.33968 -0.830081 0
M  V30 5562 C 516.82 2.27694 -0.26235 0
M  V30 5563 C 517.82 1.50589 0.563876 0
M  V30 5564 O 519.01 1.70028 0.378941 0
M  V30 5565 C 516.142 3.35002 0.63138 0
M  V30 5566 H 517.335 2.79419 -1.08928 0
M  V30 5567 H 514.888 1.44221 -0.602486 0
M  V30 5568 H 515.623 2.88504 1.48109 0
M  V30 5569 H 515.408 3.92079 0.0403276 0
M  V30 5570 H 516.898 4.04897 1.02217 0
M  V30 5571 N 517.335 0.585699 1.46312 0
M  V30 5572 C 518.282 -0.145835 2.30339 0
M  V30 5573 C 519.252 -0.881215 1.40797 0
M  V30 5574 O 520.437 -0.871293 1.69744 0
M  V30 5575 C 517.577 -1.15161 3.25318 0
M  V30 5576 C 516.69 -0.419367 4.2996 0
M  V30 5577 C 515.825 -1.41293 5.12064 0
M  V30 5578 C 514.864 -0.667261 6.08452 0
M  V30 5579 N 514.001 -1.60903 6.83414 0
M  V30 5580 H 518.841 0.576755 2.92365 0
M  V30 5581 H 516.378 0.296237 1.44086 0
M  V30 5582 H 518.336 -1.74763 3.78832 0
M  V30 5583 H 516.966 -1.84188 2.65094 0
M  V30 5584 H 516.018 0.291751 3.7928 0
M  V30 5585 H 517.33 0.163433 4.98532 0
M  V30 5586 H 516.484 -2.08167 5.6987 0
M  V30 5587 H 515.223 -2.02966 4.43459 0
M  V30 5588 H 514.228 0.0152356 5.49798 0
M  V30 5589 H 515.453 -0.0558817 6.79077 0
M  V30 5590 H 513.399 -2.21381 6.17516 0
M  V30 5591 H 513.316 -1.07911 7.48259 0
M  V30 5592 H 514.584 -2.26802 7.45775 0
M  V30 5593 N 518.813 -1.54241 0.323641 0
M  V30 5594 C 519.763 -2.21071 -0.557833 0
M  V30 5595 C 520.747 -1.19126 -1.08157 0
M  V30 5596 O 521.939 -1.44755 -1.01857 0
M  V30 5597 C 519.068 -2.97208 -1.71821 0
M  V30 5598 C 518.154 -4.06491 -1.20936 0
M  V30 5599 N 518.545 -5.04052 -0.420202 0
M  V30 5600 C 516.843 -4.20443 -1.48808 0
M  V30 5601 C 517.544 -5.81516 -0.146413 0
M  V30 5602 N 516.52 -5.38641 -0.732562 0
M  V30 5603 H 520.322 -2.93853 0.0523921 0
M  V30 5604 H 517.836 -1.61883 0.129502 0
M  V30 5605 H 519.833 -3.4357 -2.36146 0
M  V30 5606 H 518.493 -2.25947 -2.33191 0
M  V30 5607 H 519.504 -5.17862 -0.0630401 0
M  V30 5608 H 516.181 -3.60396 -2.10762 0
M  V30 5609 H 517.571 -6.70119 0.488895 0
M  V30 5610 N 520.291 -0.0518155 -1.57515 0
M  V30 5611 C 521.201 0.937539 -2.15052 0
M  V30 5612 C 522.217 1.34121 -1.10849 0
M  V30 5613 O 523.393 1.418 -1.4302 0
M  V30 5614 C 520.458 2.19379 -2.68466 0
M  V30 5615 C 519.519 1.84841 -3.87469 0
M  V30 5616 C 518.752 3.04477 -4.38326 0
M  V30 5617 O 518.975 4.17868 -3.88256 0
M  V30 5618 O 517.909 2.85453 -5.29906 0
M  V30 5619 H 521.735 0.478201 -2.99912 0
M  V30 5620 H 519.32 0.17012 -1.48428 0
M  V30 5621 H 521.202 2.93084 -3.02787 0
M  V30 5622 H 519.877 2.64449 -1.86677 0
M  V30 5623 H 518.784 1.08449 -3.58036 0
M  V30 5624 H 520.117 1.44569 -4.7049 0
M  V30 5625 N 521.769 1.56035 0.221574 0
M  V30 5626 C 523.018 1.78245 0.944016 0
M  V30 5627 C 523.331 0.620371 1.85501 0
M  V30 5628 O 524.537 0.726103 2.6161 0
M  V30 5629 C 522.993 3.15659 1.7288 0
M  V30 5630 C 522.601 4.39591 0.863942 0
M  V30 5631 C 524.345 3.47195 2.44246 0
M  V30 5632 C 522.252 5.6803 1.64607 0
M  V30 5633 H 521.182 0.664547 0.356222 0
M  V30 5634 H 523.833 1.8243 0.197904 0
M  V30 5635 H 522.215 3.0565 2.51781 0
M  V30 5636 H 523.389 4.60655 0.115464 0
M  V30 5637 H 521.704 4.15572 0.262407 0
M  V30 5638 H 524.301 4.40381 3.03263 0
M  V30 5639 H 524.644 2.69693 3.1713 0
M  V30 5640 H 525.177 3.58533 1.72334 0
M  V30 5641 H 521.916 6.48425 0.960507 0
M  V30 5642 H 521.436 5.51027 2.36917 0
M  V30 5643 H 523.115 6.08203 2.20675 0
M  V30 5644 N 523.247 -0.488276 1.49845 0
M  V30 5645 C 524.194 -1.58836 1.67451 0
M  V30 5646 C 525.164 -1.57886 0.515857 0
M  V30 5647 O 526.349 -1.75679 0.744403 0
M  V30 5648 C 523.489 -2.96915 1.75885 0
M  V30 5649 C 522.602 -3.07784 3.03138 0
M  V30 5650 C 521.737 -4.36673 3.02473 0
M  V30 5651 C 520.776 -4.41222 4.24252 0
M  V30 5652 N 519.913 -5.61557 4.21424 0
M  V30 5653 H 524.753 -1.43131 2.61376 0
M  V30 5654 H 522.29 -0.696186 1.29583 0
M  V30 5655 H 524.248 -3.76965 1.78755 0
M  V30 5656 H 522.878 -3.11295 0.85414 0
M  V30 5657 H 521.93 -2.20717 3.09819 0
M  V30 5658 H 523.242 -3.07005 3.93128 0
M  V30 5659 H 522.396 -5.25055 3.03977 0
M  V30 5660 H 521.135 -4.40037 2.10283 0
M  V30 5661 H 520.14 -3.5124 4.22978 0
M  V30 5662 H 521.365 -4.39564 5.17649 0
M  V30 5663 H 519.311 -5.65738 3.32078 0
M  V30 5664 H 519.228 -5.62447 5.05163 0
M  V30 5665 H 520.496 -6.52111 4.2705 0
M  V30 5666 N 524.725 -1.39134 -0.740242 0
M  V30 5667 C 525.953 -1.39334 -1.5295 0
M  V30 5668 C 526.368 0.0135008 -1.88795 0
M  V30 5669 O 525.725 0.983524 -1.5373 0
M  V30 5670 C 525.776 -2.2614 -2.82034 0
M  V30 5671 O 525.497 -3.61345 -2.47712 0
M  V30 5672 C 526.998 -2.34666 -3.76094 0
M  V30 5673 H 524.218 -0.476103 -0.472828 0
M  V30 5674 H 526.762 -1.82883 -0.9151 0
M  V30 5675 H 524.917 -1.86018 -3.39818 0
M  V30 5676 H 525.331 -4.07194 -3.30595 0
M  V30 5677 H 526.805 -2.99663 -4.63579 0
M  V30 5678 H 527.282 -1.36426 -4.17474 0
M  V30 5679 H 527.888 -2.75236 -3.2423 0
M  V30 5680 N 526.204 0.969867 -1.24223 0
M  V30 5681 C 527.453 1.70687 -1.07466 0
M  V30 5682 C 527.766 1.91736 0.386861 0
M  V30 5683 O 528.972 2.62986 0.674581 0
M  V30 5684 C 527.428 3.07217 -1.87472 0
M  V30 5685 C 527.036 2.94018 -3.3802 0
M  V30 5686 C 528.78 3.84804 -1.79237 0
M  V30 5687 C 526.687 4.25844 -4.10379 0
M  V30 5688 H 525.617 0.640067 -0.398536 0
M  V30 5689 H 528.268 1.08092 -1.48285 0
M  V30 5690 H 526.65 3.70628 -1.39466 0
M  V30 5691 H 527.824 2.39632 -3.9359 0
M  V30 5692 H 526.139 2.29898 -3.47183 0
M  V30 5693 H 528.736 4.82417 -2.30603 0
M  V30 5694 H 529.079 4.09356 -0.757197 0
M  V30 5695 H 529.612 3.28115 -2.24912 0
M  V30 5696 H 526.351 4.06486 -5.14246 0
M  V30 5697 H 525.871 4.80054 -3.59594 0
M  V30 5698 H 527.55 4.94475 -4.17257 0
M  V30 5699 N 527.682 1.05563 1.17022 0
M  V30 5700 C 528.629 0.659893 2.21165 0
M  V30 5701 C 529.599 -0.339813 1.62587 0
M  V30 5702 O 530.784 -0.230378 1.89404 0
M  V30 5703 C 527.924 0.0447297 3.45071 0
M  V30 5704 C 527.037 1.09372 4.17926 0
M  V30 5705 C 526.172 0.445481 5.29329 0
M  V30 5706 C 525.211 1.47852 5.93975 0
M  V30 5707 N 524.348 0.854172 6.96885 0
M  V30 5708 H 529.188 1.55243 2.54369 0
M  V30 5709 H 526.725 0.776336 1.24946 0
M  V30 5710 H 528.683 -0.329404 4.15898 0
M  V30 5711 H 527.313 -0.811244 3.1244 0
M  V30 5712 H 526.365 1.58564 3.45777 0
M  V30 5713 H 527.677 1.87773 4.62107 0
M  V30 5714 H 526.831 0.0179688 6.06697 0
M  V30 5715 H 525.57 -0.370481 4.86291 0
M  V30 5716 H 524.575 1.91601 5.15334 0
M  V30 5717 H 525.8 2.29645 6.39093 0
M  V30 5718 H 523.746 0.0587882 6.55974 0
M  V30 5719 H 523.663 1.57567 7.39397 0
M  V30 5720 H 524.931 0.451559 7.78191 0
M  V30 5721 N 529.16 -1.33526 0.837174 0
M  V30 5722 C 530.409 -1.97098 0.428387 0
M  V30 5723 C 530.722 -1.67062 -1.01734 0
M  V30 5724 O 531.928 -2.24235 -1.53072 0
M  V30 5725 C 530.384 -3.52725 0.715075 0
M  V30 5726 C 529.992 -3.9164 2.17537 0
M  V30 5727 C 531.736 -4.22857 0.373154 0
M  V30 5728 C 529.643 -5.40237 2.40619 0
M  V30 5729 H 528.573 -0.737589 0.156455 0
M  V30 5730 H 531.224 -1.52169 1.02552 0
M  V30 5731 H 529.606 -3.95971 0.0475904 0
M  V30 5732 H 530.78 -3.59456 2.88319 0
M  V30 5733 H 529.095 -3.34485 2.4801 0
M  V30 5734 H 531.692 -5.32133 0.523264 0
M  V30 5735 H 532.035 -4.10647 -0.683708 0
M  V30 5736 H 532.568 -3.85135 0.995801 0
M  V30 5737 H 529.307 -5.57449 3.44864 0
M  V30 5738 H 528.827 -5.73887 1.74396 0
M  V30 5739 H 530.506 -6.07102 2.23688 0
M  V30 5740 N 530.638 -0.59345 -1.46 0
M  V30 5741 C 531.884 -0.0832754 -2.02629 0
M  V30 5742 C 532.217 1.27749 -1.46266 0
M  V30 5743 O 531.492 1.8395 -0.631866 0
M  V30 5744 C 531.775 -0.0290756 -3.60088 0
M  V30 5745 C 531.628 -1.41951 -4.26814 0
M  V30 5746 C 532.947 0.666055 -4.35031 0
M  V30 5747 H 530.066 -0.031736 -0.736316 0
M  V30 5748 H 532.708 -0.762711 -1.74019 0
M  V30 5749 H 530.858 0.549532 -3.84594 0
M  V30 5750 H 532.53 -2.04411 -4.13538 0
M  V30 5751 H 530.773 -1.98422 -3.8576 0
M  V30 5752 H 531.444 -1.33395 -5.3564 0
M  V30 5753 H 533.92 0.174401 -4.15734 0
M  V30 5754 H 532.796 0.673041 -5.44758 0
M  V30 5755 H 533.057 1.72946 -4.06869 0
M  V30 5756 N 532.116 1.54067 -0.331816 0
M  V30 5757 C 533.364 2.00319 0.267739 0
M  V30 5758 C 533.685 1.22148 1.52003 0
M  V30 5759 O 532.955 0.325494 1.93177 0
M  V30 5760 H 531.535 0.740014 0.101922 0
M  V30 5761 H 534.197 1.89628 -0.450267 0
M  V30 5762 H 533.293 3.07765 0.518385 0
M  V30 5763 N 533.594 0.0601682 1.57485 0
M  V30 5764 C 535.005 -0.474217 1.80577 0
M  V30 5765 C 535.356 -1.70365 0.973147 0
M  V30 5766 O 534.481 -2.15544 0.192306 0
M  V30 5767 C 535.076 -0.867102 3.27516 0
M  V30 5768 C 533.635 -1.34642 3.51495 0
M  V30 5769 C 532.782 -0.32594 2.75378 0
M  V30 5770 H 535.733 0.285973 1.56102 0
M  V30 5771 H 535.754 -1.72938 3.38929 0
M  V30 5772 H 535.266 0.0278927 3.8809 0
M  V30 5773 H 533.367 -2.2603 2.96212 0
M  V30 5774 H 533.48 -1.33237 4.60201 0
M  V30 5775 H 531.844 -0.800749 2.41785 0
M  V30 5776 H 532.627 0.561125 3.38683 0
M  V30 5777 N 535.072 -1.5615 -0.213296 0
M  V30 5778 C 535.982 -1.96265 -1.28519 0
M  V30 5779 C 536.998 -0.86765 -1.50824 0
M  V30 5780 O 538.174 -1.17191 -1.63793 0
M  V30 5781 C 535.239 -2.27836 -2.61327 0
M  V30 5782 C 534.3 -3.50949 -2.47252 0
M  V30 5783 C 533.533 -3.81004 -3.73727 0
M  V30 5784 O 533.756 -3.12612 -4.77106 0
M  V30 5785 O 532.69 -4.74477 -3.70344 0
M  V30 5786 H 536.516 -2.87631 -0.974795 0
M  V30 5787 H 534.101 -1.43467 -0.416832 0
M  V30 5788 H 535.983 -2.49299 -3.39747 0
M  V30 5789 H 534.658 -1.39643 -2.9203 0
M  V30 5790 H 533.565 -3.34754 -1.67004 0
M  V30 5791 H 534.898 -4.39551 -2.21486 0
M  V30 5792 N 536.55 0.480323 -1.50102 0
M  V30 5793 C 537.46 1.60547 -1.71061 0
M  V30 5794 C 538.476 1.63564 -0.593529 0
M  V30 5795 O 539.652 1.81604 -0.870751 0
M  V30 5796 C 536.717 2.96814 -1.79171 0
M  V30 5797 C 535.778 3.04259 -3.02861 0
M  V30 5798 C 535.011 4.34027 -3.10574 0
M  V30 5799 O 535.234 5.24009 -2.25323 0
M  V30 5800 O 534.168 4.46873 -4.03223 0
M  V30 5801 H 537.994 1.45788 -2.6642 0
M  V30 5802 H 535.579 0.658838 -1.34088 0
M  V30 5803 H 537.461 3.77765 -1.86738 0
M  V30 5804 H 536.136 3.11791 -0.869947 0
M  V30 5805 H 535.043 2.22419 -3.008 0
M  V30 5806 H 536.376 2.94216 -3.94586 0
M  V30 5807 N 538.028 1.39524 0.732853 0
M  V30 5808 C 538.976 1.38563 1.86824 0
M  V30 5809 C 539.97 0.268467 1.67259 0
M  V30 5810 O 541.176 0.438613 1.74574 0
M  V30 5811 H 537.551 0.432737 0.615014 0
M  V30 5812 H 539.522 2.34328 1.84751 0
M  V30 5813 C 538.271 1.2481 3.24527 0
M  V30 5814 H 537.594 2.10044 3.40179 0
M  V30 5815 H 539.034 1.28194 4.04156 0
M  V30 5816 C 537.493 -0.0432825 3.36872 0
M  V30 5817 O 538.023 -1.01268 3.88726 0
M  V30 5818 N 536.229 -0.107055 2.90403 0
M  V30 5819 H 535.776 0.682512 2.48394 0
M  V30 5820 H 535.734 -0.970618 2.99042 0
M  V30 5821 N 539.506 -0.963266 1.24736 0
M  V30 5822 C 540.436 -2.07628 1.06832 0
M  V30 5823 C 541.417 -1.70088 -0.0200566 0
M  V30 5824 O 542.602 -1.93636 0.147854 0
M  V30 5825 C 539.732 -3.40636 0.677069 0
M  V30 5826 C 538.686 -3.9215 1.71471 0
M  V30 5827 C 538.012 -5.21553 1.1784 0
M  V30 5828 C 539.312 -4.19493 3.11164 0
M  V30 5829 H 541.006 -2.22864 1.9993 0
M  V30 5830 H 538.552 -1.07093 0.96266 0
M  V30 5831 H 540.505 -4.17941 0.538792 0
M  V30 5832 H 539.229 -3.25313 -0.289612 0
M  V30 5833 H 537.888 -3.17005 1.84128 0
M  V30 5834 H 537.536 -5.02593 0.202195 0
M  V30 5835 H 537.236 -5.56988 1.87185 0
M  V30 5836 H 538.76 -6.01463 1.05233 0
M  V30 5837 H 540.174 -4.87487 3.01711 0
M  V30 5838 H 538.571 -4.66165 3.77902 0
M  V30 5839 H 539.641 -3.26097 3.58871 0
M  V30 5840 N 540.985 -1.06182 -1.16461 0
M  V30 5841 C 542.21 -0.798599 -1.91408 0
M  V30 5842 C 542.635 0.640987 -1.76842 0
M  V30 5843 O 541.993 1.44652 -1.09296 0
M  V30 5844 C 542.041 -1.19665 -3.40165 0
M  V30 5845 O 541.145 -0.334768 -4.11039 0
M  V30 5846 H 540.486 -0.291961 -0.596368 0
M  V30 5847 H 543.016 -1.41732 -1.47557 0
M  V30 5848 H 543.026 -1.16772 -3.90933 0
M  V30 5849 H 541.701 -2.24526 -3.50087 0
M  V30 5850 H 540.278 -0.425168 -3.70468 0
M  V30 5851 N 542.463 1.3308 -0.844243 0
M  V30 5852 C 543.395 2.27954 -0.238671 0
M  V30 5853 C 544.408 1.51978 0.583665 0
M  V30 5854 O 545.597 1.73731 0.409857 0
M  V30 5855 C 542.697 3.31963 0.682185 0
M  V30 5856 C 541.87 4.37281 -0.101998 0
M  V30 5857 C 540.929 5.20928 0.743022 0
M  V30 5858 O 539.955 5.68914 0.180285 0
M  V30 5859 N 541.157 5.42738 2.0595 0
M  V30 5860 H 543.922 2.8056 -1.05386 0
M  V30 5861 H 541.483 1.4583 -0.70322 0
M  V30 5862 H 543.475 3.84828 1.25259 0
M  V30 5863 H 542.045 2.79594 1.39808 0
M  V30 5864 H 541.265 3.84843 -0.853802 0
M  V30 5865 H 542.553 5.04746 -0.641015 0
M  V30 5866 H 541.951 5.05463 2.54016 0
M  V30 5867 H 540.508 5.98639 2.57827 0
M  V30 5868 N 543.941 0.601185 1.45683 0
M  V30 5869 C 544.904 -0.111398 2.28929 0
M  V30 5870 C 545.904 -0.801246 1.39416 0
M  V30 5871 O 547.094 -0.650383 1.61603 0
M  V30 5872 C 544.226 -1.16773 3.20276 0
M  V30 5873 H 545.419 0.620412 2.93413 0
M  V30 5874 H 542.972 0.359946 1.52099 0
M  V30 5875 H 543.707 -1.93051 2.60579 0
M  V30 5876 H 543.492 -0.677358 3.86205 0
M  V30 5877 H 544.982 -1.66698 3.82886 0
M  V30 5878 N 545.419 -1.53889 0.339982 0
M  V30 5879 C 546.329 -2.28604 -0.526988 0
M  V30 5880 C 547.345 -1.33578 -1.11503 0
M  V30 5881 O 548.521 -1.66612 -1.13148 0
M  V30 5882 C 545.586 -3.04164 -1.66389 0
M  V30 5883 C 544.647 -4.14809 -1.10599 0
M  V30 5884 C 543.88 -4.86756 -2.18871 0
M  V30 5885 O 544.103 -4.58343 -3.39526 0
M  V30 5886 O 543.037 -5.73289 -1.83366 0
M  V30 5887 H 546.863 -3.03594 0.0802707 0
M  V30 5888 H 544.448 -1.4903 0.105141 0
M  V30 5889 H 546.33 -3.51427 -2.32544 0
M  V30 5890 H 545.005 -2.32035 -2.25703 0
M  V30 5891 H 543.912 -3.71857 -0.409067 0
M  V30 5892 H 545.245 -4.89029 -0.557771 0
M  V30 5893 N 546.897 -0.0685191 -1.57451 0
M  V30 5894 C 547.86 0.885173 -2.11417 0
M  V30 5895 C 548.86 1.22853 -1.03748 0
M  V30 5896 O 550.05 1.16235 -1.2975 0
M  V30 5897 C 547.182 2.18964 -2.61281 0
M  V30 5898 H 548.375 0.417034 -2.96986 0
M  V30 5899 H 545.928 0.18014 -1.55258 0
M  V30 5900 H 546.663 2.70321 -1.79156 0
M  V30 5901 H 546.448 1.9534 -3.39977 0
M  V30 5902 H 547.938 2.87242 -3.0312 0
M  V30 5903 N 548.375 1.56261 0.205012 0
M  V30 5904 C 549.791 1.49623 0.555433 0
M  V30 5905 C 549.991 0.766719 1.86343 0
M  V30 5906 O 549.047 0.313158 2.50551 0
M  V30 5907 C 550.36 2.94253 0.619347 0
M  V30 5908 C 551.908 3.04868 0.708855 0
M  V30 5909 C 552.383 4.50888 0.803969 0
M  V30 5910 N 553.874 4.54999 0.867758 0
M  V30 5911 C 554.609 5.65284 0.96135 0
M  V30 5912 N 554.105 6.85282 1.01786 0
M  V30 5913 N 555.898 5.53174 0.997771 0
M  V30 5914 H 548.049 2.0211 -0.653094 0
M  V30 5915 H 550.312 0.919333 -0.231366 0
M  V30 5916 H 550.018 3.50643 -0.272458 0
M  V30 5917 H 549.892 3.47063 1.47741 0
M  V30 5918 H 552.279 2.48532 1.5911 0
M  V30 5919 H 552.36 2.55199 -0.175205 0
M  V30 5920 H 552.004 5.07846 -0.0738798 0
M  V30 5921 H 551.934 4.98279 1.70369 0
M  V30 5922 H 554.425 3.68588 0.833735 0
M  V30 5923 H 554.738 7.65081 1.08951 0
M  V30 5924 H 553.083 6.8796 0.986706 0
M  V30 5925 H 556.274 4.5835 0.950392 0
M  V30 5926 H 556.447 6.39151 1.06725 0
M  V30 5927 N 549.853 -0.472356 1.50355 0
M  V30 5928 C 550.801 -1.59126 1.69651 0
M  V30 5929 C 551.795 -1.59793 0.56237 0
M  V30 5930 O 553.001 -1.63957 0.742832 0
M  V30 5931 H 549.376 -0.528008 0.535454 0
M  V30 5932 H 551.347 -1.40013 2.63513 0
M  V30 5933 C 550.096 -2.97075 1.8067 0
M  V30 5934 H 549.419 -2.9728 2.67329 0
M  V30 5935 H 550.859 -3.74825 1.98197 0
M  V30 5936 C 549.318 -3.32247 0.558016 0
M  V30 5937 O 549.848 -4.00553 -0.303399 0
M  V30 5938 N 548.054 -2.87659 0.412415 0
M  V30 5939 H 547.601 -2.32246 1.11443 0
M  V30 5940 H 547.559 -3.11556 -0.421908 0
M  V30 5941 N 551.331 -1.39911 -0.725443 0
M  V30 5942 C 552.264 -1.33788 -1.84867 0
M  V30 5943 C 553.242 -0.209907 -1.61239 0
M  V30 5944 O 554.426 -0.391943 -1.8438 0
M  V30 5945 C 551.553 -1.07975 -3.21028 0
M  V30 5946 C 550.599 -2.23092 -3.635 0
M  V30 5947 S 551.432 -3.85431 -3.71757 0
M  V30 5948 C 552.588 -3.61862 -5.10692 0
M  V30 5949 H 552.821 -2.28848 -1.89779 0
M  V30 5950 H 550.354 -1.26079 -0.891254 0
M  V30 5951 H 552.312 -0.937669 -3.99647 0
M  V30 5952 H 550.973 -0.145865 -3.13761 0
M  V30 5953 H 550.166 -2.00647 -4.62338 0
M  V30 5954 H 549.768 -2.33553 -2.92112 0
M  V30 5955 H 552.06 -3.19719 -5.97316 0
M  V30 5956 H 553.003 -4.60196 -5.38169 0
M  V30 5957 H 553.411 -2.95757 -4.8082 0
M  V30 5958 N 552.809 0.956637 -1.25245 0
M  V30 5959 C 554.057 1.69764 -1.09657 0
M  V30 5960 C 554.378 1.91583 0.363464 0
M  V30 5961 O 553.648 1.50149 1.25825 0
M  V30 5962 H 552.228 0.629097 -0.402798 0
M  V30 5963 H 554.89 1.15026 -1.57337 0
M  V30 5964 H 553.986 2.67769 -1.60331 0
M  V30 5965 N 554.287 1.06798 1.15896 0
M  V30 5966 C 555.22 0.627503 2.19403 0
M  V30 5967 C 556.198 -0.352352 1.58736 0
M  V30 5968 O 557.382 -0.260111 1.86697 0
M  V30 5969 C 554.509 -0.079356 3.38607 0
M  V30 5970 C 553.555 0.858057 4.17779 0
M  V30 5971 S 554.388 2.35605 4.80885 0
M  V30 5972 C 555.544 1.66083 6.03463 0
M  V30 5973 H 555.777 1.50441 2.56427 0
M  V30 5974 H 553.31 0.881427 1.26768 0
M  V30 5975 H 555.268 -0.48095 4.07673 0
M  V30 5976 H 553.929 -0.932524 2.99938 0
M  V30 5977 H 553.122 0.310108 5.03045 0
M  V30 5978 H 552.724 1.19977 3.54234 0
M  V30 5979 H 555.016 0.969337 6.7053 0
M  V30 5980 H 555.959 2.49159 6.62816 0
M  V30 5981 H 556.367 1.14122 5.52844 0
M  V30 5982 N 555.766 -1.3263 0.851289 0
M  V30 5983 C 557.043 -1.91982 0.374448 0
M  V30 5984 C 557.423 -1.77568 -1.14161 0
M  V30 5985 O 556.771 -1.1717 -1.96172 0
M  V30 5986 C 556.981 -3.38862 0.835088 0
M  V30 5987 C 558.329 -4.15999 0.850309 0
M  V30 5988 O 559.353 -3.47566 0.779505 0
M  V30 5989 O 558.212 -5.38189 0.949481 0
M  V30 5990 H 555.306 -0.819846 0.10854 0
M  V30 5991 H 557.852 -1.41422 0.937966 0
M  V30 5992 H 556.624 -3.43281 1.87814 0
M  V30 5993 H 556.247 -3.96821 0.248833 0
M  V30 5994 N 557.244 -0.608902 -1.45362 0
M  V30 5995 C 558.491 -0.104607 -2.0223 0
M  V30 5996 C 558.819 1.26534 -1.47714 0
M  V30 5997 O 558.074 1.84855 -0.642435 0
M  V30 5998 C 558.373 -0.0167296 -3.57396 0
M  V30 5999 C 558.039 -1.32251 -4.31069 0
M  V30 6000 C 556.701 -1.68019 -4.50914 0
M  V30 6001 C 559.053 -2.18542 -4.73169 0
M  V30 6002 C 556.381 -2.89828 -5.10114 0
M  V30 6003 C 558.733 -3.39602 -5.33717 0
M  V30 6004 C 557.397 -3.7562 -5.51784 0
M  V30 6005 H 556.667 -0.0382785 -0.740011 0
M  V30 6006 H 559.314 -0.790782 -1.7441 0
M  V30 6007 H 557.619 0.752715 -3.84502 0
M  V30 6008 H 559.316 0.389634 -3.99103 0
M  V30 6009 H 555.906 -1.03411 -4.15938 0
M  V30 6010 H 560.09 -1.92208 -4.5757 0
M  V30 6011 H 555.346 -3.17839 -5.22291 0
M  V30 6012 H 559.52 -4.06716 -5.65292 0
M  V30 6013 H 557.147 -4.70093 -5.97425 0
M  V30 6014 N 558.722 1.53707 -0.348139 0
M  V30 6015 C 559.962 2.02899 0.247254 0
M  V30 6016 C 560.326 1.23033 1.47401 0
M  V30 6017 O 561.527 1.62146 2.14388 0
M  V30 6018 C 559.798 3.53156 0.549151 0
M  V30 6019 S 561.357 4.24247 1.1207 0
M  V30 6020 H 558.175 0.707213 0.0732894 0
M  V30 6021 H 560.777 1.89338 -0.486965 0
M  V30 6022 H 559.481 4.08893 -0.351435 0
M  V30 6023 H 559.012 3.70845 1.31291 0
M  V30 6024 H 561.027 4.33958 2.40613 0
M  V30 6025 N 560.2 0.0768682 1.57412 0
M  V30 6026 C 561.616 -0.279772 1.57129 0
M  V30 6027 C 561.816 -1.69688 1.08666 0
M  V30 6028 O 560.872 -2.40953 0.754843 0
M  V30 6029 C 562.185 -0.0848055 3.0058 0
M  V30 6030 C 563.733 -0.153954 3.12621 0
M  V30 6031 C 564.208 0.0127946 4.57998 0
M  V30 6032 N 565.699 -0.0426435 4.6318 0
M  V30 6033 C 566.434 0.0618892 5.73367 0
M  V30 6034 N 565.93 0.220229 6.9245 0
M  V30 6035 N 567.723 0.00446072 5.621 0
M  V30 6036 H 559.874 1.00297 1.87228 0
M  V30 6037 H 562.137 0.391565 0.863354 0
M  V30 6038 H 561.843 0.89325 3.40168 0
M  V30 6039 H 561.717 -0.834961 3.67843 0
M  V30 6040 H 564.104 -1.1225 2.72917 0
M  V30 6041 H 564.185 0.627389 2.47987 0
M  V30 6042 H 563.829 0.978128 4.98392 0
M  V30 6043 H 563.759 -0.788016 5.20671 0
M  V30 6044 H 566.25 -0.163226 3.77547 0
M  V30 6045 H 566.563 0.291999 7.72248 0
M  V30 6046 H 564.908 0.255658 6.9453 0
M  V30 6047 H 568.099 -0.117979 4.67951 0
M  V30 6048 H 568.272 0.0893796 6.47938 0
M  V30 6049 N 561.678 -1.56367 -0.196722 0
M  V30 6050 C 562.61 -1.90941 -1.26784 0
M  V30 6051 C 563.623 -0.799928 -1.41792 0
M  V30 6052 O 564.812 -1.07833 -1.42247 0
M  V30 6053 C 561.912 -2.12477 -2.6402 0
M  V30 6054 C 561.085 -3.43616 -2.70641 0
M  V30 6055 C 560.144 -3.54284 -3.89062 0
M  V30 6056 O 559.17 -4.2712 -3.76241 0
M  V30 6057 N 560.372 -2.87252 -5.04447 0
M  V30 6058 H 563.137 -2.83417 -0.974417 0
M  V30 6059 H 560.698 -1.57215 -0.386649 0
M  V30 6060 H 562.69 -2.16904 -3.41665 0
M  V30 6061 H 561.26 -1.26508 -2.85857 0
M  V30 6062 H 560.48 -3.51072 -1.79283 0
M  V30 6063 H 561.768 -4.29958 -2.72054 0
M  V30 6064 H 561.166 -2.27901 -5.17762 0
M  V30 6065 H 559.723 -2.97308 -5.80044 0
M  V30 6066 N 563.156 0.464375 -1.50603 0
M  V30 6067 C 564.433 1.22549 -1.5245 0
M  V30 6068 C 564.813 2.09327 -0.273035 0
M  V30 6069 O 564.161 2.16074 0.743242 0
M  V30 6070 C 564.371 2.05074 -2.82393 0
M  V30 6071 C 565.719 2.63036 -3.33313 0
M  V30 6072 O 566.743 2.1531 -2.8376 0
M  V30 6073 O 565.602 3.5001 -4.19709 0
M  V30 6074 H 562.696 0.556471 -0.611775 0
M  V30 6075 H 565.242 0.475648 -1.62898 0
M  V30 6076 H 564.014 1.41169 -3.64948 0
M  V30 6077 H 563.637 2.87179 -2.7498 0
M  V30 6078 N 564.634 1.40294 0.718013 0
M  V30 6079 C 565.544 1.42678 1.86226 0
M  V30 6080 C 566.56 0.319655 1.71039 0
M  V30 6081 O 567.736 0.563852 1.93346 0
M  V30 6082 C 564.801 1.2852 3.21999 0
M  V30 6083 C 563.862 2.49354 3.49458 0
M  V30 6084 C 563.095 2.35863 4.78753 0
M  V30 6085 O 563.318 1.37114 5.53675 0
M  V30 6086 O 562.252 3.25189 5.06494 0
M  V30 6087 H 566.078 2.39167 1.87171 0
M  V30 6088 H 563.663 1.2159 0.868112 0
M  V30 6089 H 565.545 1.22824 4.03103 0
M  V30 6090 H 564.22 0.351359 3.21787 0
M  V30 6091 H 563.127 2.60628 2.68373 0
M  V30 6092 H 564.46 3.41491 3.54464 0
M  V30 6093 N 566.112 -0.949982 1.2575 0
M  V30 6094 C 567.059 -2.04738 1.06541 0
M  V30 6095 C 568.029 -1.66078 -0.0268818 0
M  V30 6096 O 569.214 -1.90348 0.131196 0
M  V30 6097 C 566.354 -3.38027 0.695127 0
M  V30 6098 C 565.467 -3.89776 1.86276 0
M  V30 6099 C 564.602 -5.11411 1.4364 0
M  V30 6100 C 563.641 -5.554 2.57287 0
M  V30 6101 N 562.778 -6.68244 2.15395 0
M  V30 6102 H 567.618 -2.20502 2.00457 0
M  V30 6103 H 565.155 -1.0805 0.998178 0
M  V30 6104 H 567.113 -4.14641 0.461375 0
M  V30 6105 H 565.743 -3.22135 -0.207046 0
M  V30 6106 H 564.795 -3.0964 2.20969 0
M  V30 6107 H 566.107 -4.18368 2.71606 0
M  V30 6108 H 565.261 -5.95457 1.16257 0
M  V30 6109 H 564 -4.84545 0.553879 0
M  V30 6110 H 563.005 -4.69916 2.85409 0
M  V30 6111 H 564.23 -5.84272 3.46125 0
M  V30 6112 H 562.176 -6.43078 1.29565 0
M  V30 6113 H 562.093 -6.96377 2.94272 0
M  V30 6114 H 563.361 -7.55687 1.91201 0
M  V30 6115 N 567.59 -1.07411 -1.15328 0
M  V30 6116 C 568.83 -0.807011 -1.87794 0
M  V30 6117 C 569.194 0.654987 -1.80482 0
M  V30 6118 O 570.395 1.03716 -2.47985 0
M  V30 6119 C 568.666 -1.30198 -3.32841 0
M  V30 6120 S 570.225 -1.16564 -4.23034 0
M  V30 6121 H 567.043 -0.292429 -0.648079 0
M  V30 6122 H 569.645 -1.37334 -1.39139 0
M  V30 6123 H 568.349 -2.3607 -3.35707 0
M  V30 6124 H 567.88 -0.730881 -3.86551 0
M  V30 6125 H 569.895 -0.103557 -4.96092 0
M  V30 6126 N 569.068 1.32177 -0.85831 0
M  V30 6127 C 570.345 1.91781 -0.384624 0
M  V30 6128 C 570.725 1.78171 1.13217 0
M  V30 6129 O 570.073 1.18209 1.95548 0
M  V30 6130 C 570.283 3.38414 -0.853047 0
M  V30 6131 C 571.631 4.15542 -0.872359 0
M  V30 6132 O 572.655 3.47148 -0.797926 0
M  V30 6133 O 571.514 5.37678 -0.978009 0
M  V30 6134 H 568.608 0.819259 -0.112886 0
M  V30 6135 H 571.154 1.40923 -0.945453 0
M  V30 6136 H 569.926 3.4228 -1.89632 0
M  V30 6137 H 569.549 3.96683 -0.269874 0
M  V30 6138 N 570.547 0.616602 1.45037 0
M  V30 6139 C 571.777 0.121791 2.06241 0
M  V30 6140 C 572.185 -1.20289 1.46038 0
M  V30 6141 O 571.528 -1.7456 0.572242 0
M  V30 6142 C 571.59 -0.0827345 3.59405 0
M  V30 6143 C 571.254 1.16153 4.41993 0
M  V30 6144 C 572.251 2.08183 4.76399 0
M  V30 6145 C 569.936 1.39288 4.82601 0
M  V30 6146 C 571.93 3.21668 5.5028 0
M  V30 6147 C 569.617 2.53073 5.56235 0
M  V30 6148 C 570.615 3.44091 5.89992 0
M  V30 6149 O 570.303 4.55894 6.6213 0
M  V30 6150 H 570.035 0.0701667 0.672349 0
M  V30 6151 H 572.589 0.846877 1.87129 0
M  V30 6152 H 570.819 -0.862812 3.76952 0
M  V30 6153 H 572.508 -0.530273 4.02421 0
M  V30 6154 H 573.274 1.91538 4.45576 0
M  V30 6155 H 569.153 0.693396 4.55755 0
M  V30 6156 H 572.697 3.92733 5.76547 0
M  V30 6157 H 568.594 2.69667 5.86472 0
M  V30 6158 H 569.362 4.5469 6.80587 0
M  V30 6159 N 572.025 -1.5352 0.356285 0
M  V30 6160 C 573.255 -2.05236 -0.236983 0
M  V30 6161 C 573.663 -1.23016 -1.43749 0
M  V30 6162 O 573.006 -0.2615 -1.81829 0
M  V30 6163 C 573.068 -3.52549 -0.7035 0
M  V30 6164 C 572.732 -4.55425 0.379059 0
M  V30 6165 C 573.729 -5.0524 1.22592 0
M  V30 6166 C 571.414 -4.99425 0.536638 0
M  V30 6167 C 573.408 -5.97647 2.21578 0
M  V30 6168 C 571.095 -5.9164 1.52988 0
M  V30 6169 C 572.093 -6.4064 2.3679 0
M  V30 6170 O 571.781 -7.31039 3.34421 0
M  V30 6171 H 571.513 -0.674346 -0.047254 0
M  V30 6172 H 574.067 -1.98962 0.510238 0
M  V30 6173 H 572.297 -3.56331 -1.50217 0
M  V30 6174 H 573.986 -3.87171 -1.21873 0
M  V30 6175 H 574.752 -4.72002 1.11532 0
M  V30 6176 H 570.631 -4.60879 -0.105834 0
M  V30 6177 H 574.175 -6.35816 2.87025 0
M  V30 6178 H 570.072 -6.24293 1.64099 0
M  V30 6179 H 570.84 -7.49009 3.30041 0
M  V30 6180 N 573.503 -0.0852151 -1.57369 0
M  V30 6181 C 574.75 0.580806 -1.93992 0
M  V30 6182 C 575.078 1.68801 -0.966252 0
M  V30 6183 O 574.333 1.95694 0.0158649 0
M  V30 6184 C 574.632 1.18482 -3.3719 0
M  V30 6185 C 574.298 0.2024 -4.50446 0
M  V30 6186 C 572.96 -0.0678318 -4.81152 0
M  V30 6187 C 575.312 -0.46895 -5.19086 0
M  V30 6188 C 572.64 -1.01627 -5.77831 0
M  V30 6189 C 574.992 -1.4058 -6.16782 0
M  V30 6190 C 573.656 -1.68436 -6.45899 0
M  V30 6191 H 572.926 0.212532 -0.709867 0
M  V30 6192 H 575.573 -0.158947 -1.90839 0
M  V30 6193 H 573.878 2.0006 -3.36873 0
M  V30 6194 H 575.575 1.70767 -3.62822 0
M  V30 6195 H 572.165 0.423208 -4.26505 0
M  V30 6196 H 576.349 -0.273307 -4.95547 0
M  V30 6197 H 571.605 -1.2392 -5.9871 0
M  V30 6198 H 575.779 -1.93188 -6.69068 0
M  V30 6199 H 573.406 -2.42088 -7.20623 0
M  V30 6200 N 574.981 1.5647 0.188427 0
M  V30 6201 C 576.206 1.85486 0.927891 0
M  V30 6202 C 576.631 0.669575 1.75779 0
M  V30 6203 O 575.989 -0.381573 1.77239 0
M  V30 6204 C 576.037 3.12784 1.7944 0
M  V30 6205 O 575.141 2.93805 2.894 0
M  V30 6206 H 574.482 0.610585 0.260925 0
M  V30 6207 H 577.012 2.037 0.191729 0
M  V30 6208 H 577.022 3.43749 2.19774 0
M  V30 6209 H 575.697 3.98671 1.18468 0
M  V30 6210 H 574.274 2.74153 2.52774 0
M  V30 6211 N 576.459 -0.456382 1.50847 0
M  V30 6212 C 577.705 -1.20914 1.62811 0
M  V30 6213 C 578.038 -1.91301 0.334304 0
M  V30 6214 O 577.313 -1.82775 -0.665098 0
M  V30 6215 C 577.596 -2.24122 2.81853 0
M  V30 6216 C 577.449 -1.57944 4.21158 0
M  V30 6217 C 578.768 -3.25295 2.96431 0
M  V30 6218 H 575.887 -0.438233 0.592554 0
M  V30 6219 H 578.529 -0.50091 1.83278 0
M  V30 6220 H 576.679 -2.84524 2.64534 0
M  V30 6221 H 578.351 -1.01025 4.50102 0
M  V30 6222 H 576.594 -0.882185 4.24735 0
M  V30 6223 H 577.265 -2.33014 5.00408 0
M  V30 6224 H 579.741 -2.7493 3.12335 0
M  V30 6225 H 578.617 -3.94822 3.81322 0
M  V30 6226 H 578.878 -3.90286 2.07676 0
M  V30 6227 N 577.937 -1.40673 -0.710563 0
M  V30 6228 C 579.214 -1.29718 -1.46398 0
M  V30 6229 C 579.594 0.082177 -2.1094 0
M  V30 6230 O 578.942 1.09536 -2.00534 0
M  V30 6231 C 579.152 -2.43967 -2.49562 0
M  V30 6232 C 580.5 -2.84436 -3.15248 0
M  V30 6233 O 581.524 -2.43597 -2.59883 0
M  V30 6234 O 580.383 -3.55008 -4.1549 0
M  V30 6235 H 577.477 -0.509697 -0.651258 0
M  V30 6236 H 580.023 -1.52603 -0.742312 0
M  V30 6237 H 578.795 -3.36076 -2.0042 0
M  V30 6238 H 578.418 -2.22879 -3.29258 0
M  V30 6239 N 579.415 0.9433 -1.26252 0
M  V30 6240 C 580.378 2.02326 -1.07689 0
M  V30 6241 C 581.378 1.60779 -0.0259174 0
M  V30 6242 O 582.568 1.72108 -0.269134 0
M  V30 6243 C 579.7 3.34886 -0.63752 0
M  V30 6244 H 580.893 2.20225 -2.0357 0
M  V30 6245 H 578.446 1.12197 -1.08819 0
M  V30 6246 H 579.181 3.22684 0.323377 0
M  V30 6247 H 578.966 3.66393 -1.39637 0
M  V30 6248 H 580.456 4.14231 -0.529418 0
M  V30 6249 N 580.893 1.08022 1.14757 0
M  V30 6250 C 582.17 0.720386 1.81851 0
M  V30 6251 C 582.55 -0.796375 1.95502 0
M  V30 6252 O 581.898 -1.71339 1.51179 0
M  V30 6253 C 582.108 1.44273 3.17783 0
M  V30 6254 C 583.456 1.59925 3.93331 0
M  V30 6255 O 584.48 1.40407 3.2736 0
M  V30 6256 O 583.339 1.92096 5.11626 0
M  V30 6257 H 580.433 0.257142 0.786007 0
M  V30 6258 H 582.979 1.18155 1.21809 0
M  V30 6259 H 581.751 2.47618 3.02987 0
M  V30 6260 H 581.374 0.97279 3.85516 0
M  V30 6261 N 582.371 -1.3172 0.865308 0
M  V30 6262 C 583.617 -1.97168 0.474633 0
M  V30 6263 C 583.95 -1.68263 -0.969604 0
M  V30 6264 O 583.225 -0.976588 -1.68205 0
M  V30 6265 C 583.508 -3.52689 0.726808 0
M  V30 6266 C 583.361 -3.91185 2.22024 0
M  V30 6267 C 584.68 -4.39689 0.190201 0
M  V30 6268 H 581.799 -0.716185 0.17392 0
M  V30 6269 H 584.441 -1.55925 1.08569 0
M  V30 6270 H 582.591 -3.8795 0.206705 0
M  V30 6271 H 584.263 -3.66049 2.80724 0
M  V30 6272 H 582.506 -3.3996 2.69462 0
M  V30 6273 H 583.177 -4.99604 2.34735 0
M  V30 6274 H 585.653 -4.11225 0.635103 0
M  V30 6275 H 584.529 -5.47469 0.396132 0
M  V30 6276 H 584.79 -4.32683 -0.907625 0
M  V30 6277 N 583.85 -0.624285 -1.44708 0
M  V30 6278 C 585.096 -0.126237 -2.02407 0
M  V30 6279 C 585.428 1.24618 -1.48943 0
M  V30 6280 O 584.704 1.82569 -0.670742 0
M  V30 6281 C 584.986 -0.105449 -3.59946 0
M  V30 6282 C 584.84 -1.50972 -4.23707 0
M  V30 6283 C 586.159 0.573629 -4.36346 0
M  V30 6284 H 583.278 -0.0473472 -0.735478 0
M  V30 6285 H 585.92 -0.799452 -1.72362 0
M  V30 6286 H 584.07 0.46783 -3.85673 0
M  V30 6287 H 585.742 -2.13136 -4.0911 0
M  V30 6288 H 583.985 -2.0656 -3.81465 0
M  V30 6289 H 584.656 -1.44727 -5.32689 0
M  V30 6290 H 587.132 0.0861787 -4.16011 0
M  V30 6291 H 586.008 0.557338 -5.46063 0
M  V30 6292 H 586.269 1.64276 -4.10446 0
M  V30 6293 N 585.328 1.53329 -0.364422 0
M  V30 6294 C 586.258 2.28627 0.474543 0
M  V30 6295 C 587.239 1.31009 1.08492 0
M  V30 6296 O 588.424 1.59878 1.10239 0
M  V30 6297 C 585.554 3.07465 1.61501 0
M  V30 6298 C 584.508 4.1276 1.13194 0
M  V30 6299 C 583.834 4.79674 2.36255 0
M  V30 6300 C 585.134 5.21847 0.217507 0
M  V30 6301 H 586.828 2.99005 -0.153656 0
M  V30 6302 H 584.374 1.43803 -0.0753406 0
M  V30 6303 H 586.327 3.58889 2.20855 0
M  V30 6304 H 585.051 2.34775 2.27042 0
M  V30 6305 H 583.71 3.62281 0.56109 0
M  V30 6306 H 583.358 4.03557 3.00251 0
M  V30 6307 H 583.058 5.50827 2.04606 0
M  V30 6308 H 584.582 5.33892 2.96297 0
M  V30 6309 H 585.996 5.6878 0.718493 0
M  V30 6310 H 584.393 6.00099 -0.00806408 0
M  V30 6311 H 585.463 4.7921 -0.740653 0
M  V30 6312 N 586.806 0.0935595 1.57322 0
M  V30 6313 C 588.034 -0.578934 1.98635 0
M  V30 6314 C 588.449 -1.61819 0.972626 0
M  V30 6315 O 587.806 -1.82461 -0.0379638 0
M  V30 6316 C 587.857 -1.22802 3.40003 0
M  V30 6317 O 587.578 -0.230334 4.37494 0
M  V30 6318 C 589.079 -1.98627 3.96311 0
M  V30 6319 H 586.299 -0.155324 0.652775 0
M  V30 6320 H 588.843 0.172393 2.03772 0
M  V30 6321 H 586.998 -1.93029 3.35885 0
M  V30 6322 H 587.412 -0.698649 5.19826 0
M  V30 6323 H 588.886 -2.39405 4.97382 0
M  V30 6324 H 589.363 -2.85151 3.34044 0
M  V30 6325 H 589.969 -1.3322 4.03897 0
M  V30 6326 N 588.284 -1.56567 -0.180126 0
M  V30 6327 C 589.232 -1.96632 -1.24251 0
M  V30 6328 C 590.226 -0.853818 -1.46309 0
M  V30 6329 O 591.432 -1.0389 -1.46993 0
M  V30 6330 H 587.807 -0.625476 -0.417473 0
M  V30 6331 H 589.778 -2.85201 -0.877679 0
M  V30 6332 C 588.527 -2.33486 -2.57642 0
M  V30 6333 H 587.85 -3.18626 -2.4149 0
M  V30 6334 H 589.29 -2.65371 -3.30688 0
M  V30 6335 C 587.749 -1.17499 -3.15746 0
M  V30 6336 O 588.279 -0.457956 -3.99081 0
M  V30 6337 N 586.485 -0.94786 -2.74707 0
M  V30 6338 H 586.032 -1.53269 -2.07042 0
M  V30 6339 H 585.99 -0.173626 -3.1392 0
M  V30 6340 N 589.762 0.448376 -1.51087 0
M  V30 6341 C 591.173 1.0286 -1.5581 0
M  V30 6342 C 591.524 1.92583 -0.374989 0
M  V30 6343 O 590.649 2.10316 0.509533 0
M  V30 6344 C 591.244 1.87223 -2.8237 0
M  V30 6345 C 589.803 2.40314 -2.897 0
M  V30 6346 C 588.95 1.19238 -2.50355 0
M  V30 6347 H 591.901 0.230075 -1.57023 0
M  V30 6348 H 591.922 2.72553 -2.6551 0
M  V30 6349 H 591.434 1.21894 -3.68461 0
M  V30 6350 H 589.535 3.09129 -2.08014 0
M  V30 6351 H 589.648 2.73866 -3.93108 0
M  V30 6352 H 588.012 1.53428 -2.03303 0
M  V30 6353 H 588.795 0.555367 -3.38778 0
M  V30 6354 N 591.24 1.41047 0.703093 0
M  V30 6355 C 592.656 1.23351 1.01275 0
M  V30 6356 C 592.856 0.11754 2.01157 0
M  V30 6357 O 591.912 -0.520518 2.47077 0
M  V30 6358 C 593.225 2.58001 1.54454 0
M  V30 6359 C 594.773 2.65119 1.66376 0
M  V30 6360 C 595.248 4.00067 2.22958 0
M  V30 6361 N 596.739 4.01875 2.30328 0
M  V30 6362 C 597.474 5.03087 2.75119 0
M  V30 6363 N 596.97 6.14692 3.19571 0
M  V30 6364 N 598.763 4.90451 2.74616 0
M  V30 6365 H 590.914 2.1236 0.0412686 0
M  V30 6366 H 593.177 0.944543 0.08089 0
M  V30 6367 H 592.883 3.40378 0.88521 0
M  V30 6368 H 592.757 2.79962 2.52786 0
M  V30 6369 H 595.144 1.83106 2.31422 0
M  V30 6370 H 595.225 2.46975 0.666089 0
M  V30 6371 H 594.869 4.82526 1.58529 0
M  V30 6372 H 594.799 4.15547 3.23462 0
M  V30 6373 H 597.29 3.21291 1.98949 0
M  V30 6374 H 597.603 6.87799 3.52352 0
M  V30 6375 H 595.948 6.18239 3.17498 0
M  V30 6376 H 599.139 4.0235 2.39233 0
M  V30 6377 H 599.312 5.6947 3.09206 0
M  V30 6378 N 592.718 -0.936591 1.26751 0
M  V30 6379 C 593.946 -1.71758 1.15355 0
M  V30 6380 C 594.361 -1.86549 -0.290683 0
M  V30 6381 O 593.718 -1.37616 -1.19868 0
M  V30 6382 C 593.769 -3.12193 1.82258 0
M  V30 6383 O 593.49 -2.98105 3.21038 0
M  V30 6384 C 594.991 -4.06485 1.76875 0
M  V30 6385 H 592.211 -0.537636 0.401483 0
M  V30 6386 H 594.755 -1.17382 1.67457 0
M  V30 6387 H 592.91 -3.63456 1.34083 0
M  V30 6388 H 593.324 -3.86824 3.54214 0
M  V30 6389 H 594.798 -5.02569 2.28316 0
M  V30 6390 H 595.275 -4.32986 0.736216 0
M  V30 6391 H 595.881 -3.61144 2.24623 0
M  V30 6392 N 594.196 -1.08629 -1.14182 0
M  V30 6393 C 595.126 -0.740003 -2.21464 0
M  V30 6394 C 596.107 0.278591 -1.67803 0
M  V30 6395 O 597.292 0.148461 -1.93632 0
M  V30 6396 C 594.422 -0.150952 -3.46972 0
M  V30 6397 C 593.376 -1.09815 -4.13672 0
M  V30 6398 C 592.702 -0.3712 -5.3341 0
M  V30 6399 C 594.002 -2.43722 -4.61949 0
M  V30 6400 H 595.696 -1.63697 -2.50686 0
M  V30 6401 H 593.242 -0.788526 -1.20492 0
M  V30 6402 H 595.195 0.103325 -4.21273 0
M  V30 6403 H 593.919 0.781164 -3.1712 0
M  V30 6404 H 592.578 -1.33756 -3.41328 0
M  V30 6405 H 592.226 0.564792 -4.99819 0
M  V30 6406 H 591.926 -1.00267 -5.78982 0
M  V30 6407 H 593.45 -0.12503 -6.10472 0
M  V30 6408 H 594.864 -2.24034 -5.27714 0
M  V30 6409 H 593.261 -3.02582 -5.18232 0
M  V30 6410 H 594.331 -3.05082 -3.76899 0
M  V30 6411 N 595.674 1.31259 -0.872281 0
M  V30 6412 C 596.621 2.28459 -0.327857 0
M  V30 6413 C 597.591 1.55831 0.574957 0
M  V30 6414 O 598.776 1.83965 0.506101 0
M  V30 6415 C 595.916 3.41985 0.462644 0
M  V30 6416 C 595.029 4.29458 -0.467949 0
M  V30 6417 C 594.164 5.30131 0.336903 0
M  V30 6418 C 593.203 6.0925 -0.58997 0
M  V30 6419 N 592.34 7.01872 0.178775 0
M  V30 6420 H 597.18 2.74414 -1.16193 0
M  V30 6421 H 594.717 1.34994 -0.584376 0
M  V30 6422 H 596.675 4.06547 0.936759 0
M  V30 6423 H 595.305 2.97134 1.2614 0
M  V30 6424 H 594.357 3.65318 -1.06052 0
M  V30 6425 H 595.669 4.84677 -1.17856 0
M  V30 6426 H 594.823 6.0038 0.873427 0
M  V30 6427 H 593.562 4.75573 1.08079 0
M  V30 6428 H 592.567 5.37889 -1.13823 0
M  V30 6429 H 593.792 6.65894 -1.33275 0
M  V30 6430 H 591.738 6.49721 0.905435 0
M  V30 6431 H 591.655 7.54522 -0.472452 0
M  V30 6432 H 592.923 7.76382 0.696454 0
M  V30 6433 N 597.152 0.631951 1.44375 0
M  V30 6434 C 598.401 0.134214 2.01253 0
M  V30 6435 C 598.714 -1.25171 1.50305 0
M  V30 6436 O 599.92 -1.8435 1.99317 0
M  V30 6437 C 598.376 0.189187 3.59402 0
M  V30 6438 C 597.984 1.57647 4.19346 0
M  V30 6439 C 599.728 -0.252044 4.23751 0
M  V30 6440 C 597.635 1.58651 5.69722 0
M  V30 6441 H 596.565 0.0464101 0.75257 0
M  V30 6442 H 599.216 0.790868 1.65582 0
M  V30 6443 H 597.598 -0.534584 3.92375 0
M  V30 6444 H 598.772 2.32389 3.97909 0
M  V30 6445 H 597.087 1.96186 3.67288 0
M  V30 6446 H 599.684 -0.264084 5.34047 0
M  V30 6447 H 600.027 -1.27951 3.96149 0
M  V30 6448 H 600.56 0.41926 3.95584 0
M  V30 6449 H 597.299 2.59237 6.0206 0
M  V30 6450 H 596.819 0.882039 5.93279 0
M  V30 6451 H 598.498 1.32082 6.33375 0
M  V30 6452 N 598.631 -1.53133 0.372548 0
M  V30 6453 C 599.561 -2.28876 -0.462412 0
M  V30 6454 C 600.542 -1.31583 -1.07796 0
M  V30 6455 O 601.727 -1.60461 -1.09389 0
M  V30 6456 C 598.857 -3.08317 -1.59868 0
M  V30 6457 C 597.811 -4.13355 -1.11003 0
M  V30 6458 C 597.137 -4.8092 -2.33708 0
M  V30 6459 C 598.437 -5.21955 -0.18983 0
M  V30 6460 H 600.131 -2.9892 0.169511 0
M  V30 6461 H 597.677 -1.43761 0.0829658 0
M  V30 6462 H 599.63 -3.60055 -2.18949 0
M  V30 6463 H 598.354 -2.35976 -2.25794 0
M  V30 6464 H 597.013 -3.62573 -0.541869 0
M  V30 6465 H 596.661 -4.05144 -2.98106 0
M  V30 6466 H 596.361 -5.51904 -2.01682 0
M  V30 6467 H 597.885 -5.35455 -2.93462 0
M  V30 6468 H 599.299 -5.69153 -0.688319 0
M  V30 6469 H 597.696 -6.00087 0.0398887 0
M  V30 6470 H 598.766 -4.78811 0.766057 0
M  V30 6471 N 600.109 -0.101901 -1.5727 0
M  V30 6472 C 601.358 0.559922 -1.93772 0
M  V30 6473 C 601.671 1.68913 -0.98629 0
M  V30 6474 O 602.877 2.41256 -1.24529 0
M  V30 6475 C 601.333 1.04739 -3.44322 0
M  V30 6476 C 600.941 -0.05243 -4.47969 0
M  V30 6477 C 602.685 1.68157 -3.89774 0
M  V30 6478 C 600.592 0.450781 -5.8968 0
M  V30 6479 H 599.522 0.212931 -0.723309 0
M  V30 6480 H 602.173 -0.179001 -1.82625 0
M  V30 6481 H 600.555 1.84021 -3.50645 0
M  V30 6482 H 601.729 -0.828157 -4.53297 0
M  V30 6483 H 600.044 -0.592202 -4.12167 0
M  V30 6484 H 602.641 2.0689 -4.93052 0
M  V30 6485 H 602.984 2.55338 -3.28798 0
M  V30 6486 H 603.517 0.954453 -3.8618 0
M  V30 6487 H 600.256 -0.38458 -6.54371 0
M  V30 6488 H 599.776 1.19336 -5.87809 0
M  V30 6489 H 601.455 0.917555 -6.40461 0
M  V30 6490 N 601.587 1.56661 0.17182 0
M  V30 6491 C 602.497 1.99604 1.2327 0
M  V30 6492 C 603.513 0.907333 1.4847 0
M  V30 6493 O 604.689 1.21492 1.60629 0
M  V30 6494 C 601.754 2.34685 2.55194 0
M  V30 6495 C 600.815 3.57381 2.3786 0
M  V30 6496 C 600.048 3.90779 3.63494 0
M  V30 6497 O 600.271 3.25152 4.6865 0
M  V30 6498 O 599.205 4.84129 3.57634 0
M  V30 6499 H 603.031 2.90114 0.898192 0
M  V30 6500 H 600.616 1.44522 0.378647 0
M  V30 6501 H 602.498 2.5822 3.33017 0
M  V30 6502 H 601.173 1.47336 2.88225 0
M  V30 6503 H 600.08 3.39064 1.5807 0
M  V30 6504 H 601.413 4.45268 2.09754 0
M  V30 6505 N 603.065 -0.440357 1.51323 0
M  V30 6506 C 603.997 -1.55254 1.68609 0
M  V30 6507 C 605.01 -1.52614 0.566812 0
M  V30 6508 O 606.199 -1.57445 0.841032 0
M  V30 6509 C 603.299 -2.94169 1.68279 0
M  V30 6510 C 602.472 -3.21346 2.96742 0
M  V30 6511 C 601.531 -4.3997 2.8864 0
M  V30 6512 O 600.557 -4.38771 3.62586 0
M  V30 6513 N 601.759 -5.43367 2.04285 0
M  V30 6514 H 604.524 -1.40831 2.6455 0
M  V30 6515 H 602.085 -0.629251 1.49171 0
M  V30 6516 H 604.077 -3.71543 1.60431 0
M  V30 6517 H 602.647 -3.02205 0.799441 0
M  V30 6518 H 601.867 -2.32299 3.18482 0
M  V30 6519 H 603.155 -3.3633 3.81785 0
M  V30 6520 H 602.553 -5.47176 1.43578 0
M  V30 6521 H 601.11 -6.19605 2.02318 0
M  V30 6522 N 604.543 -1.41418 -0.695603 0
M  V30 6523 C 605.491 -1.43467 -1.83084 0
M  V30 6524 C 606.485 -0.312719 -1.66489 0
M  V30 6525 O 607.691 -0.484744 -1.7335 0
M  V30 6526 H 604.066 -0.448891 -0.603325 0
M  V30 6527 H 606.037 -2.39144 -1.78473 0
M  V30 6528 C 604.786 -1.3337 -3.21104 0
M  V30 6529 H 604.109 -2.18989 -3.3449 0
M  V30 6530 H 605.549 -1.38865 -4.00615 0
M  V30 6531 C 604.008 -0.0460484 -3.36869 0
M  V30 6532 O 604.538 0.909258 -3.91274 0
M  V30 6533 N 602.744 0.0300222 -2.90584 0
M  V30 6534 H 602.291 -0.748129 -2.46497 0
M  V30 6535 H 602.249 0.890991 -3.01511 0
M  V30 6536 N 606.021 0.929856 -1.27246 0
M  V30 6537 C 607.437 1.20542 -1.04603 0
M  V30 6538 C 607.637 2.00276 0.221754 0
M  V30 6539 O 606.693 2.34835 0.927833 0
M  V30 6540 C 608.006 1.95566 -2.28417 0
M  V30 6541 C 609.554 2.08513 -2.33433 0
M  V30 6542 C 610.029 2.86943 -3.5697 0
M  V30 6543 N 611.52 2.94512 -3.57515 0
M  V30 6544 C 612.255 3.55656 -4.49774 0
M  V30 6545 N 611.751 4.18209 -5.52334 0
M  V30 6546 N 613.544 3.53038 -4.37402 0
M  V30 6547 H 605.695 0.397113 -2.08655 0
M  V30 6548 H 607.958 0.238277 -0.917566 0
M  V30 6549 H 607.664 1.44395 -3.20691 0
M  V30 6550 H 607.538 2.9619 -2.33563 0
M  V30 6551 H 609.925 2.58872 -1.41666 0
M  V30 6552 H 610.006 1.07117 -2.32292 0
M  V30 6553 H 609.65 2.37268 -4.49072 0
M  V30 6554 H 609.58 3.8862 -3.55362 0
M  V30 6555 H 612.071 2.50053 -2.83341 0
M  V30 6556 H 612.384 4.62796 -6.18902 0
M  V30 6557 H 610.729 4.16761 -5.56179 0
M  V30 6558 H 613.92 3.0337 -3.56489 0
M  V30 6559 H 614.093 4.004 -5.09493 0
M  V30 6560 N 607.499 1.09233 1.13605 0
M  V30 6561 C 608.446 0.729921 2.18954 0
M  V30 6562 C 609.416 -0.287916 1.63586 0
M  V30 6563 O 610.601 -0.170003 1.90041 0
M  V30 6564 C 607.741 0.154489 3.44754 0
M  V30 6565 C 606.854 1.22613 4.14234 0
M  V30 6566 C 605.989 0.613657 5.27644 0
M  V30 6567 C 605.028 1.66674 5.8897 0
M  V30 6568 N 604.165 1.07545 6.93814 0
M  V30 6569 H 609.005 1.63257 2.49302 0
M  V30 6570 H 606.542 0.815693 1.22413 0
M  V30 6571 H 608.5 -0.196923 4.16735 0
M  V30 6572 H 607.13 -0.711433 3.14863 0
M  V30 6573 H 606.182 1.69485 3.40557 0
M  V30 6574 H 607.494 2.0238 4.55899 0
M  V30 6575 H 606.648 0.210976 6.06333 0
M  V30 6576 H 605.387 -0.215584 4.87223 0
M  V30 6577 H 604.392 2.07899 5.08978 0
M  V30 6578 H 605.617 2.49861 6.31464 0
M  V30 6579 H 603.563 0.267451 6.55455 0
M  V30 6580 H 603.48 1.81011 7.3401 0
M  V30 6581 H 604.748 0.698906 7.7636 0
M  V30 6582 N 608.977 -1.30795 0.87923 0
M  V30 6583 C 610.226 -1.95636 0.490875 0
M  V30 6584 C 610.539 -1.70214 -0.963674 0
M  V30 6585 O 611.745 -2.28991 -1.45861 0
M  V30 6586 C 610.201 -3.50271 0.826929 0
M  V30 6587 C 609.809 -3.84521 2.29886 0
M  V30 6588 C 611.553 -4.21456 0.507494 0
M  V30 6589 C 609.46 -5.32309 2.57685 0
M  V30 6590 H 608.39 -0.732238 0.179841 0
M  V30 6591 H 611.041 -1.48829 1.07341 0
M  V30 6592 H 609.423 -3.9562 0.173542 0
M  V30 6593 H 610.597 -3.50102 2.99609 0
M  V30 6594 H 608.912 -3.26425 2.58526 0
M  V30 6595 H 611.509 -5.30199 0.692293 0
M  V30 6596 H 611.852 -4.12614 -0.552718 0
M  V30 6597 H 612.385 -3.81772 1.11782 0
M  V30 6598 H 609.124 -5.46195 3.62424 0
M  V30 6599 H 608.644 -5.68048 1.92566 0
M  V30 6600 H 610.323 -5.99678 2.42889 0
M  V30 6601 N 610.455 -0.639598 -1.44038 0
M  V30 6602 C 611.704 -0.144885 -2.01179 0
M  V30 6603 C 612.017 1.24372 -1.50967 0
M  V30 6604 O 613.223 1.83291 -2.00292 0
M  V30 6605 C 611.679 -0.208244 -3.59297 0
M  V30 6606 C 611.287 -1.59869 -4.18504 0
M  V30 6607 C 613.031 0.229568 -4.23879 0
M  V30 6608 C 610.938 -1.61671 -5.68873 0
M  V30 6609 H 609.868 -0.0504005 -0.752314 0
M  V30 6610 H 612.519 -0.799639 -1.65161 0
M  V30 6611 H 610.901 0.513767 -3.92653 0
M  V30 6612 H 612.075 -2.34496 -3.96671 0
M  V30 6613 H 610.39 -1.98131 -3.66242 0
M  V30 6614 H 612.987 0.235758 -5.3418 0
M  V30 6615 H 613.33 1.25848 -3.96822 0
M  V30 6616 H 613.863 -0.440233 -3.95357 0
M  V30 6617 H 610.602 -2.62427 -6.00677 0
M  V30 6618 H 610.122 -0.913489 -5.92803 0
M  V30 6619 H 611.801 -1.35439 -6.32665 0
M  V30 6620 N 611.933 1.52934 -0.380664 0
M  V30 6621 C 612.896 2.24809 0.446473 0
M  V30 6622 C 613.896 1.26133 0.997347 0
M  V30 6623 O 615.086 1.50297 0.880714 0
M  V30 6624 C 612.218 2.99649 1.62553 0
M  V30 6625 H 613.411 2.99343 -0.182677 0
M  V30 6626 H 610.964 1.55736 -0.132618 0
M  V30 6627 H 611.699 2.29395 2.29235 0
M  V30 6628 H 611.484 3.72066 1.23732 0
M  V30 6629 H 612.974 3.54246 2.21133 0
M  V30 6630 N 613.412 0.11024 1.57214 0
M  V30 6631 C 614.823 -0.416527 1.81994 0
M  V30 6632 C 615.174 -1.67183 1.02686 0
M  V30 6633 O 614.299 -2.14823 0.260782 0
M  V30 6634 C 614.894 -0.762466 3.30109 0
M  V30 6635 C 613.453 -1.23391 3.556 0
M  V30 6636 C 612.6 -0.238166 2.76275 0
M  V30 6637 H 615.551 0.335491 1.55113 0
M  V30 6638 H 615.572 -1.62068 3.44259 0
M  V30 6639 H 615.084 0.151346 3.87805 0
M  V30 6640 H 613.185 -2.16492 3.03253 0
M  V30 6641 H 613.298 -1.18528 4.64207 0
M  V30 6642 H 611.662 -0.723421 2.4421 0
M  V30 6643 H 612.445 0.668591 3.36727 0
M  V30 6644 N 614.89 -1.56749 -0.16351 0
M  V30 6645 C 615.82 -2.00042 -1.20438 0
M  V30 6646 C 616.801 -0.877256 -1.45733 0
M  V30 6647 O 617.986 -1.1439 -1.56935 0
M  V30 6648 C 615.116 -2.36697 -2.54149 0
M  V30 6649 C 614.07 -3.52046 -2.43408 0
M  V30 6650 C 613.396 -3.74466 -3.81679 0
M  V30 6651 C 614.696 -4.85247 -1.93216 0
M  V30 6652 H 616.39 -2.87244 -0.844477 0
M  V30 6653 H 613.936 -1.38194 -0.40478 0
M  V30 6654 H 615.889 -2.65582 -3.27176 0
M  V30 6655 H 614.613 -1.46414 -2.91943 0
M  V30 6656 H 613.272 -3.23301 -1.72834 0
M  V30 6657 H 612.92 -2.81461 -4.1688 0
M  V30 6658 H 612.62 -4.52084 -3.75359 0
M  V30 6659 H 614.144 -4.0576 -4.5628 0
M  V30 6660 H 615.558 -5.12957 -2.56023 0
M  V30 6661 H 613.955 -5.66556 -1.97825 0
M  V30 6662 H 615.025 -4.7672 -0.88689 0
M  V30 6663 N 616.368 0.432326 -1.51554 0
M  V30 6664 C 617.614 1.18309 -1.64714 0
M  V30 6665 C 617.947 1.90745 -0.364696 0
M  V30 6666 O 617.222 1.8381 0.635936 0
M  V30 6667 C 617.505 2.1961 -2.85383 0
M  V30 6668 C 617.358 1.51223 -4.23617 0
M  V30 6669 C 618.677 3.20538 -3.01569 0
M  V30 6670 H 615.796 0.428751 -0.599451 0
M  V30 6671 H 618.438 0.471689 -1.84052 0
M  V30 6672 H 616.588 2.8028 -2.69027 0
M  V30 6673 H 618.26 0.938516 -4.51652 0
M  V30 6674 H 616.503 0.814501 -4.26085 0
M  V30 6675 H 617.174 2.25024 -5.04052 0
M  V30 6676 H 619.65 2.69926 -3.16669 0
M  V30 6677 H 618.526 3.88706 -3.87555 0
M  V30 6678 H 618.787 3.86933 -2.13859 0
M  V30 6679 N 617.846 1.41785 0.688094 0
M  V30 6680 C 619.074 1.44915 1.47673 0
M  V30 6681 C 619.489 0.0565786 1.88715 0
M  V30 6682 O 618.846 -0.92579 1.57275 0
M  V30 6683 C 618.897 2.36452 2.73446 0
M  V30 6684 O 618.618 3.7029 2.34131 0
M  V30 6685 C 620.119 2.48463 3.67125 0
M  V30 6686 H 617.339 0.493324 0.454832 0
M  V30 6687 H 619.883 1.86153 0.846594 0
M  V30 6688 H 618.038 1.98502 3.3268 0
M  V30 6689 H 618.452 4.19183 3.15255 0
M  V30 6690 H 619.926 3.16662 4.52138 0
M  V30 6691 H 620.403 1.51826 4.12123 0
M  V30 6692 H 621.009 2.8708 3.13792 0
M  V30 6693 N 619.324 -0.923095 1.27737 0
M  V30 6694 C 620.74 -1.19985 1.05241 0
M  V30 6695 C 620.94 -2.00391 -0.21113 0
M  V30 6696 O 619.996 -2.35324 -0.915366 0
M  V30 6697 C 621.309 -1.94352 2.29451 0
M  V30 6698 C 622.857 -2.07273 2.34536 0
M  V30 6699 C 623.332 -2.85046 3.58487 0
M  V30 6700 N 624.823 -2.92612 3.59072 0
M  V30 6701 C 625.558 -3.53266 4.51654 0
M  V30 6702 N 625.054 -4.15274 5.54545 0
M  V30 6703 N 626.847 -3.50714 4.39268 0
M  V30 6704 H 618.998 -0.386042 2.08862 0
M  V30 6705 H 621.261 -0.233407 0.918817 0
M  V30 6706 H 620.967 -1.42692 3.21453 0
M  V30 6707 H 620.841 -2.94947 2.3513 0
M  V30 6708 H 623.228 -2.58117 1.43037 0
M  V30 6709 H 623.309 -1.05884 2.32857 0
M  V30 6710 H 622.953 -2.34884 4.50324 0
M  V30 6711 H 622.883 -3.8673 3.57418 0
M  V30 6712 H 625.374 -2.48547 2.84663 0
M  V30 6713 H 625.687 -4.59507 6.21348 0
M  V30 6714 H 624.032 -4.13806 5.58382 0
M  V30 6715 H 627.223 -3.01475 3.58093 0
M  V30 6716 H 627.396 -3.97693 5.1161 0
M  V30 6717 N 620.802 -1.09834 -1.13024 0
M  V30 6718 C 621.752 -0.710899 -2.16634 0
M  V30 6719 C 622.736 0.276836 -1.58501 0
M  V30 6720 O 623.928 0.0865457 -1.76788 0
M  V30 6721 C 621.057 -0.137574 -3.43024 0
M  V30 6722 C 620.143 -1.15198 -4.08155 0
M  V30 6723 N 620.534 -2.34054 -4.48388 0
M  V30 6724 C 618.832 -0.991074 -4.34849 0
M  V30 6725 C 619.533 -2.98616 -4.99203 0
M  V30 6726 N 618.509 -2.26159 -4.94321 0
M  V30 6727 H 622.311 -1.61576 -2.455 0
M  V30 6728 H 619.825 -0.975158 -1.29863 0
M  V30 6729 H 621.822 0.158031 -4.166 0
M  V30 6730 H 620.482 0.762088 -3.1563 0
M  V30 6731 H 621.493 -2.7162 -4.40957 0
M  V30 6732 H 618.17 -0.146448 -4.17243 0
M  V30 6733 H 619.56 -3.99683 -5.40096 0
M  V30 6734 N 622.28 1.30327 -0.886154 0
M  V30 6735 C 623.528 1.9571 -0.504195 0
M  V30 6736 C 623.849 1.70294 0.950003 0
M  V30 6737 O 623.119 1.02718 1.66811 0
M  V30 6738 H 621.699 0.72412 -0.183465 0
M  V30 6739 H 624.361 1.58835 -1.12949 0
M  V30 6740 H 623.457 3.04704 -0.675431 0
M  V30 6741 N 623.758 0.647228 1.43697 0
M  V30 6742 C 624.705 -0.0480092 2.3075 0
M  V30 6743 C 625.675 -0.820705 1.44408 0
M  V30 6744 O 626.86 -0.798515 1.73287 0
M  V30 6745 C 624 -1.01259 3.2991 0
M  V30 6746 C 623.113 -0.236629 4.31351 0
M  V30 6747 C 622.248 -1.19447 5.17596 0
M  V30 6748 C 621.287 -0.408595 6.10735 0
M  V30 6749 N 620.424 -1.31772 6.89623 0
M  V30 6750 H 625.264 0.700238 2.89656 0
M  V30 6751 H 622.801 0.357082 1.427 0
M  V30 6752 H 624.759 -1.58538 3.85903 0
M  V30 6753 H 623.389 -1.72778 2.72667 0
M  V30 6754 H 622.441 0.452353 3.77701 0
M  V30 6755 H 623.753 0.374731 4.9739 0
M  V30 6756 H 622.907 -1.83809 5.78186 0
M  V30 6757 H 621.646 -1.83975 4.51669 0
M  V30 6758 H 620.651 0.24841 5.49239 0
M  V30 6759 H 621.876 0.232188 6.78703 0
M  V30 6760 H 619.822 -1.94991 6.2635 0
M  V30 6761 H 619.739 -0.760779 7.52162 0
M  V30 6762 H 621.007 -1.94967 7.54724 0
M  V30 6763 N 625.236 -1.5273 0.388769 0
M  V30 6764 C 626.166 -2.29353 -0.438111 0
M  V30 6765 C 627.147 -1.32719 -1.06394 0
M  V30 6766 O 628.332 -1.61612 -1.07681 0
M  V30 6767 C 625.462 -3.09995 -1.56589 0
M  V30 6768 C 624.416 -4.14509 -1.06613 0
M  V30 6769 C 623.742 -4.83372 -2.28594 0
M  V30 6770 C 625.042 -5.22127 -0.134459 0
M  V30 6771 H 626.736 -2.98723 0.201206 0
M  V30 6772 H 624.282 -1.43665 0.0982089 0
M  V30 6773 H 626.235 -3.62357 -2.15118 0
M  V30 6774 H 624.959 -2.38357 -2.23279 0
M  V30 6775 H 623.618 -3.63128 -0.503383 0
M  V30 6776 H 623.266 -4.08283 -2.93792 0
M  V30 6777 H 622.966 -5.54012 -1.95817 0
M  V30 6778 H 624.49 -5.38538 -2.87766 0
M  V30 6779 H 625.904 -5.69851 -0.627914 0
M  V30 6780 H 624.301 -6.00011 0.103534 0
M  V30 6781 H 625.371 -4.77971 0.816798 0
M  V30 6782 N 626.714 -0.118576 -1.57153 0
M  V30 6783 C 627.96 0.534078 -1.96263 0
M  V30 6784 C 628.315 1.64316 -1.0009 0
M  V30 6785 O 627.608 1.91575 -0.0308582 0
M  V30 6786 C 627.802 1.11303 -3.39627 0
M  V30 6787 C 627.631 0.0615624 -4.49658 0
M  V30 6788 C 626.401 -0.370103 -5.03943 0
M  V30 6789 C 628.599 -0.719249 -5.09246 0
M  V30 6790 N 626.581 -1.40738 -5.9755 0
M  V30 6791 C 627.952 -1.60774 -5.98792 0
M  V30 6792 C 630.007 -0.770183 -4.91907 0
M  V30 6793 C 628.71 -2.54272 -6.72858 0
M  V30 6794 C 630.736 -1.69288 -5.66653 0
M  V30 6795 C 630.098 -2.56894 -6.55885 0
M  V30 6796 H 626.197 0.165072 -0.764379 0
M  V30 6797 H 628.781 -0.206596 -1.93601 0
M  V30 6798 H 626.952 1.82342 -3.42937 0
M  V30 6799 H 628.684 1.72996 -3.65861 0
M  V30 6800 H 625.439 0.0222121 -4.73595 0
M  V30 6801 H 625.863 -1.92493 -6.49057 0
M  V30 6802 H 630.505 -0.106999 -4.22665 0
M  V30 6803 H 628.223 -3.21605 -7.41347 0
M  V30 6804 H 631.809 -1.73772 -5.55243 0
M  V30 6805 H 630.689 -3.27131 -7.1271 0
M  V30 6806 N 628.193 1.56834 0.155195 0
M  V30 6807 C 629.418 1.87412 0.888337 0
M  V30 6808 C 629.843 0.70671 1.74319 0
M  V30 6809 O 629.201 -0.343892 1.78009 0
M  V30 6810 C 629.249 3.1652 1.72765 0
M  V30 6811 O 628.353 2.99877 2.83103 0
M  V30 6812 H 627.694 0.615983 0.247914 0
M  V30 6813 H 630.224 2.04061 0.148478 0
M  V30 6814 H 630.234 3.48334 2.12433 0
M  V30 6815 H 628.909 4.01094 1.09985 0
M  V30 6816 H 627.486 2.79453 2.46902 0
M  V30 6817 N 629.671 -0.424282 1.51781 0
M  V30 6818 C 630.619 -1.53649 1.74628 0
M  V30 6819 C 631.613 -1.57923 0.612922 0
M  V30 6820 O 632.819 -1.61511 0.794618 0
M  V30 6821 H 629.194 -0.510706 0.551981 0
M  V30 6822 H 631.165 -1.31558 2.67834 0
M  V30 6823 C 629.914 -2.91177 1.9003 0
M  V30 6824 H 629.237 -2.88625 2.76651 0
M  V30 6825 H 630.677 -3.6833 2.10021 0
M  V30 6826 C 629.136 -3.30303 0.663435 0
M  V30 6827 O 629.666 -4.01315 -0.175812 0
M  V30 6828 N 627.872 -2.86201 0.503723 0
M  V30 6829 H 627.419 -2.28583 1.18776 0
M  V30 6830 H 627.377 -3.12741 -0.322575 0
M  V30 6831 N 631.149 -1.42148 -0.680565 0
M  V30 6832 C 632.396 -1.4231 -1.44063 0
M  V30 6833 C 632.724 -0.037488 -1.94464 0
M  V30 6834 O 631.979 0.953184 -1.70918 0
M  V30 6835 C 632.278 -2.38945 -2.65782 0
M  V30 6836 C 631.944 -3.85455 -2.33956 0
M  V30 6837 C 630.606 -4.25364 -2.24987 0
M  V30 6838 C 632.958 -4.77895 -2.08004 0
M  V30 6839 C 630.286 -5.55701 -1.88184 0
M  V30 6840 C 632.638 -6.08568 -1.72706 0
M  V30 6841 C 631.302 -6.47482 -1.62244 0
M  V30 6842 H 630.572 -0.520748 -0.527164 0
M  V30 6843 H 633.219 -1.7505 -0.776524 0
M  V30 6844 H 631.524 -1.99511 -3.37198 0
M  V30 6845 H 633.221 -2.36336 -3.23954 0
M  V30 6846 H 629.811 -3.53855 -2.41836 0
M  V30 6847 H 633.995 -4.47854 -2.1387 0
M  V30 6848 H 629.251 -5.84718 -1.78648 0
M  V30 6849 H 633.425 -6.79688 -1.5165 0
M  V30 6850 H 631.052 -7.48387 -1.33496 0
M  V30 6851 N 632.627 0.916307 -1.28225 0
M  V30 6852 C 633.873 1.66794 -1.1641 0
M  V30 6853 C 634.228 1.90278 0.284986 0
M  V30 6854 O 633.521 1.49023 1.20427 0
M  V30 6855 C 633.715 3.03125 -1.8934 0
M  V30 6856 C 633.544 2.92947 -3.41192 0
M  V30 6857 C 632.314 2.9461 -4.10528 0
M  V30 6858 C 634.512 2.7121 -4.36978 0
M  V30 6859 N 632.494 2.74993 -5.48864 0
M  V30 6860 C 633.865 2.60411 -5.6266 0
M  V30 6861 C 635.92 2.56187 -4.26934 0
M  V30 6862 C 634.623 2.3612 -6.79441 0
M  V30 6863 C 636.649 2.33275 -5.43449 0
M  V30 6864 C 636.011 2.23228 -6.68093 0
M  V30 6865 H 632.11 0.616654 -0.480896 0
M  V30 6866 H 634.694 1.08237 -1.61842 0
M  V30 6867 H 632.865 3.59774 -1.46346 0
M  V30 6868 H 634.597 3.67294 -1.69932 0
M  V30 6869 H 631.352 3.0527 -3.62087 0
M  V30 6870 H 631.776 2.68284 -6.21573 0
M  V30 6871 H 636.418 2.62707 -3.31278 0
M  V30 6872 H 634.136 2.28339 -7.75169 0
M  V30 6873 H 637.722 2.22519 -5.37565 0
M  V30 6874 H 636.602 2.05741 -7.5673 0
M  V30 6875 N 634.105 1.10431 1.1244 0
M  V30 6876 C 635.353 0.845045 1.83585 0
M  V30 6877 C 635.674 -0.631168 1.84503 0
M  V30 6878 O 634.944 -1.45825 1.30813 0
M  V30 6879 H 633.524 0.309628 0.679809 0
M  V30 6880 H 636.186 1.39458 1.36153 0
M  V30 6881 H 635.282 1.20786 2.8778 0
M  V30 6882 N 635.583 -1.29855 0.893053 0
M  V30 6883 C 636.546 -2.26183 0.370687 0
M  V30 6884 C 637.546 -1.53108 -0.491385 0
M  V30 6885 O 638.736 -1.71643 -0.297386 0
M  V30 6886 C 635.868 -3.37633 -0.470827 0
M  V30 6887 H 637.061 -2.73903 1.22135 0
M  V30 6888 H 634.614 -1.41183 0.67061 0
M  V30 6889 H 635.349 -2.95241 -1.34175 0
M  V30 6890 H 635.134 -3.91825 0.146784 0
M  V30 6891 H 636.624 -4.09313 -0.827825 0
M  V30 6892 N 637.061 -0.65484 -1.43351 0
M  V30 6893 C 637.991 0.0221809 -2.33489 0
M  V30 6894 C 638.972 0.810272 -1.49561 0
M  V30 6895 O 640.157 0.771426 -1.78221 0
M  V30 6896 C 637.287 0.988117 -3.32947 0
M  V30 6897 C 636.241 0.310026 -4.26876 0
M  V30 6898 C 635.567 1.38752 -5.16384 0
M  V30 6899 C 636.867 -0.798589 -5.16159 0
M  V30 6900 H 638.561 -0.730571 -2.9035 0
M  V30 6901 H 636.107 -0.352773 -1.39612 0
M  V30 6902 H 638.06 1.47067 -3.94904 0
M  V30 6903 H 636.784 1.77205 -2.74346 0
M  V30 6904 H 635.443 -0.152097 -3.66284 0
M  V30 6905 H 635.091 2.16293 -4.54121 0
M  V30 6906 H 634.791 0.939051 -5.80048 0
M  V30 6907 H 636.315 1.87141 -5.81215 0
M  V30 6908 H 637.729 -0.398126 -5.71916 0
M  V30 6909 H 636.126 -1.17163 -5.88552 0
M  V30 6910 H 637.196 -1.65588 -4.55751 0
M  V30 6911 N 638.539 1.52521 -0.396863 0
M  V30 6912 C 639.764 2.06571 0.185258 0
M  V30 6913 C 640.189 1.26605 1.39115 0
M  V30 6914 O 639.547 0.293055 1.78916 0
M  V30 6915 C 639.595 3.5674 0.526189 0
M  V30 6916 O 638.699 3.7929 1.61903 0
M  V30 6917 H 638.04 0.663712 0.0195474 0
M  V30 6918 H 640.57 1.966 -0.566519 0
M  V30 6919 H 640.58 4.00311 0.788338 0
M  V30 6920 H 639.255 4.14379 -0.355397 0
M  V30 6921 H 637.832 3.47605 1.35 0
M  V30 6922 N 640.017 0.126909 1.57088 0
M  V30 6923 C 641.428 -0.397201 1.82426 0
M  V30 6924 C 641.779 -1.66084 1.04453 0
M  V30 6925 O 640.904 -2.14534 0.283552 0
M  V30 6926 C 641.499 -0.727411 3.30899 0
M  V30 6927 C 640.058 -1.19612 3.56889 0
M  V30 6928 C 639.205 -0.20885 2.76512 0
M  V30 6929 H 642.156 0.351924 1.54749 0
M  V30 6930 H 642.177 -1.58407 3.45959 0
M  V30 6931 H 641.689 0.19247 3.87622 0
M  V30 6932 H 639.79 -2.13263 3.05532 0
M  V30 6933 H 639.903 -1.13598 4.65438 0
M  V30 6934 H 638.267 -0.697479 2.44964 0
M  V30 6935 H 639.05 0.704267 3.35998 0
M  V30 6936 N 641.495 -1.56914 -0.146875 0
M  V30 6937 C 642.772 -1.74273 -0.888165 0
M  V30 6938 C 643.152 -0.69496 -1.99333 0
M  V30 6939 O 642.5 0.286093 -2.26702 0
M  V30 6940 C 642.71 -3.18336 -1.43051 0
M  V30 6941 C 644.058 -3.80024 -1.89387 0
M  V30 6942 O 645.082 -3.21765 -1.52792 0
M  V30 6943 O 643.941 -4.82367 -2.56874 0
M  V30 6944 H 641.035 -0.712565 -0.419738 0
M  V30 6945 H 643.581 -1.6918 -0.132791 0
M  V30 6946 H 642.353 -3.86092 -0.636274 0
M  V30 6947 H 641.976 -3.27854 -2.24938 0
M  V30 6948 N 642.974 0.416227 -1.52004 0
M  V30 6949 C 644.222 1.16153 -1.65387 0
M  V30 6950 C 644.543 1.91208 -0.382669 0
M  V30 6951 O 643.813 1.86413 0.602231 0
M  V30 6952 H 642.393 0.431765 -0.60958 0
M  V30 6953 H 645.055 0.475151 -1.89019 0
M  V30 6954 H 644.151 1.87952 -2.4916 0
M  V30 6955 N 644.452 1.42507 0.673017 0
M  V30 6956 C 645.682 1.46261 1.45916 0
M  V30 6957 C 646.09 0.0729724 1.89059 0
M  V30 6958 O 645.433 -0.922987 1.58829 0
M  V30 6959 C 645.495 2.32853 2.73898 0
M  V30 6960 C 645.159 3.80699 2.52819 0
M  V30 6961 C 646.156 4.72307 2.17306 0
M  V30 6962 C 643.841 4.24983 2.67758 0
M  V30 6963 C 645.835 6.06192 1.97003 0
M  V30 6964 C 643.522 5.58927 2.4707 0
M  V30 6965 C 644.52 6.49348 2.11746 0
M  V30 6966 O 644.208 7.80817 1.91259 0
M  V30 6967 H 643.94 0.499561 0.455428 0
M  V30 6968 H 646.494 1.87697 0.834196 0
M  V30 6969 H 644.724 1.86268 3.38882 0
M  V30 6970 H 646.413 2.28041 3.35786 0
M  V30 6971 H 647.179 4.39378 2.05359 0
M  V30 6972 H 643.058 3.54893 2.94231 0
M  V30 6973 H 646.602 6.76731 1.69355 0
M  V30 6974 H 642.499 5.91429 2.58615 0
M  V30 6975 H 643.267 7.92194 2.05843 0
M  V30 6976 N 645.93 -0.909495 1.28709 0
M  V30 6977 C 647.16 -1.69027 1.188 0
M  V30 6978 C 647.568 -1.87469 -0.255329 0
M  V30 6979 O 646.911 -1.40458 -1.18394 0
M  V30 6980 C 646.973 -3.10064 1.81936 0
M  V30 6981 C 646.637 -3.14891 3.31199 0
M  V30 6982 C 647.634 -2.95768 4.27571 0
M  V30 6983 C 645.319 -3.37269 3.7223 0
M  V30 6984 C 647.313 -2.98942 5.6295 0
M  V30 6985 C 645 -3.40074 5.07733 0
M  V30 6986 C 645.998 -3.20932 6.02903 0
M  V30 6987 O 645.686 -3.23507 7.35934 0
M  V30 6988 H 645.418 -0.535014 0.413203 0
M  V30 6989 H 647.972 -1.14645 1.70428 0
M  V30 6990 H 646.202 -3.66005 1.24808 0
M  V30 6991 H 647.891 -3.70185 1.66486 0
M  V30 6992 H 648.657 -2.78302 3.97206 0
M  V30 6993 H 644.536 -3.51212 2.98615 0
M  V30 6994 H 648.08 -2.83919 6.37209 0
M  V30 6995 H 643.977 -3.5707 5.37747 0
M  V30 6996 H 644.745 -3.3984 7.44615 0
M  V30 6997 N 647.408 -1.11026 -1.11852 0
M  V30 6998 C 648.371 -0.768006 -2.1595 0
M  V30 6999 C 649.371 0.210538 -1.59416 0
M  V30 7000 O 650.561 -0.0133978 -1.74195 0
M  V30 7001 C 647.693 -0.138678 -3.40618 0
M  V30 7002 H 648.886 -1.69012 -2.4774 0
M  V30 7003 H 646.439 -0.911578 -1.26964 0
M  V30 7004 H 647.174 0.793872 -3.14433 0
M  V30 7005 H 646.959 -0.843012 -3.8293 0
M  V30 7006 H 648.449 0.0848039 -4.17514 0
M  V30 7007 N 648.886 1.2938 -0.899927 0
M  V30 7008 C 650.302 1.48052 -0.596059 0
M  V30 7009 C 650.502 1.82114 0.862372 0
M  V30 7010 O 649.558 1.91774 1.64253 0
M  V30 7011 C 650.871 2.59332 -1.52208 0
M  V30 7012 C 652.419 2.73208 -1.5273 0
M  V30 7013 C 652.894 3.87617 -2.43961 0
M  V30 7014 N 654.385 3.9495 -2.42009 0
M  V30 7015 C 655.12 4.82824 -3.09303 0
M  V30 7016 N 654.616 5.75387 -3.85877 0
M  V30 7017 N 656.409 4.76317 -2.98459 0
M  V30 7018 H 648.56 1.05546 -1.8432 0
M  V30 7019 H 650.823 0.524314 -0.78981 0
M  V30 7020 H 650.529 2.41029 -2.56121 0
M  V30 7021 H 650.403 3.56139 -1.24278 0
M  V30 7022 H 652.79 2.90908 -0.495614 0
M  V30 7023 H 652.871 1.76975 -1.84698 0
M  V30 7024 H 652.515 3.70672 -3.47224 0
M  V30 7025 H 652.445 4.83218 -2.09303 0
M  V30 7026 H 654.936 3.28744 -1.86375 0
M  V30 7027 H 655.249 6.39235 -4.34279 0
M  V30 7028 H 653.594 5.75272 -3.89984 0
M  V30 7029 H 656.785 4.0299 -2.38152 0
M  V30 7030 H 656.958 5.44589 -3.51179 0
M  V30 7031 N 650.364 0.662433 1.43002 0
M  V30 7032 C 651.589 0.186003 2.06564 0
M  V30 7033 C 652.014 -1.14314 1.49379 0
M  V30 7034 O 651.372 -1.70824 0.607346 0
M  V30 7035 C 651.42 0.118269 3.60406 0
M  V30 7036 O 650.524 -0.916859 4.02079 0
M  V30 7037 H 649.865 0.0990981 0.656563 0
M  V30 7038 H 652.395 0.907958 1.8335 0
M  V30 7039 H 652.405 -0.0619981 4.07953 0
M  V30 7040 H 651.08 1.08849 4.01403 0
M  V30 7041 H 649.657 -0.708635 3.66105 0
M  V30 7042 N 651.842 -1.52309 0.404946 0
M  V30 7043 C 652.752 -2.30634 -0.429555 0
M  V30 7044 C 653.768 -1.38187 -1.05737 0
M  V30 7045 O 654.944 -1.71261 -1.05979 0
M  V30 7046 C 652.009 -3.10947 -1.53339 0
M  V30 7047 C 651.07 -4.19126 -0.929065 0
M  V30 7048 C 650.303 -4.95601 -1.9803 0
M  V30 7049 O 650.526 -4.72331 -3.1978 0
M  V30 7050 O 649.46 -5.80551 -1.58886 0
M  V30 7051 H 653.286 -3.0298 0.208963 0
M  V30 7052 H 650.871 -1.4845 0.168255 0
M  V30 7053 H 652.753 -3.60974 -2.1743 0
M  V30 7054 H 651.428 -2.41399 -2.15658 0
M  V30 7055 H 650.335 -3.73257 -0.250982 0
M  V30 7056 H 651.668 -4.90955 -0.349855 0
M  V30 7057 N 653.32 -0.135238 -1.57019 0
M  V30 7058 C 654.597 0.563227 -1.87316 0
M  V30 7059 C 654.977 1.83749 -1.03921 0
M  V30 7060 O 654.325 2.2817 -0.122675 0
M  V30 7061 C 654.535 0.840031 -3.3874 0
M  V30 7062 C 655.883 1.18598 -4.077 0
M  V30 7063 O 656.907 0.92977 -3.43851 0
M  V30 7064 O 655.766 1.66758 -5.20436 0
M  V30 7065 H 652.86 0.285971 -0.775983 0
M  V30 7066 H 655.406 -0.170965 -1.68837 0
M  V30 7067 H 654.178 -0.0622785 -3.9125 0
M  V30 7068 H 653.801 1.62882 -3.62706 0
M  V30 7069 N 654.798 1.5699 0.138552 0
M  V30 7070 C 656.028 1.87704 0.863184 0
M  V30 7071 C 656.436 0.722411 1.74865 0
M  V30 7072 O 655.779 -0.316636 1.80951 0
M  V30 7073 C 655.841 3.13219 1.76449 0
M  V30 7074 C 655.505 4.44648 1.05532 0
M  V30 7075 C 656.502 5.18318 0.405252 0
M  V30 7076 C 654.187 4.91367 1.04231 0
M  V30 7077 C 656.181 6.36916 -0.24835 0
M  V30 7078 C 653.868 6.09887 0.384904 0
M  V30 7079 C 654.866 6.82508 -0.259292 0
M  V30 7080 O 654.554 7.98775 -0.906258 0
M  V30 7081 H 654.286 0.626255 0.254521 0
M  V30 7082 H 656.84 2.04966 0.133472 0
M  V30 7083 H 655.07 2.91988 2.53535 0
M  V30 7084 H 656.759 3.30111 2.36181 0
M  V30 7085 H 657.525 4.83289 0.407053 0
M  V30 7086 H 653.404 4.34759 1.53315 0
M  V30 7087 H 656.948 6.93538 -0.751755 0
M  V30 7088 H 652.845 6.44376 0.380799 0
M  V30 7089 H 653.613 8.14494 -0.80877 0
M  V30 7090 N 656.276 -0.40816 1.52223 0
M  V30 7091 C 657.522 -1.15673 1.66576 0
M  V30 7092 C 657.855 -1.90141 0.394996 0
M  V30 7093 O 657.13 -1.84798 -0.606613 0
M  V30 7094 C 657.413 -2.15042 2.88841 0
M  V30 7095 C 657.266 -1.44465 4.25969 0
M  V30 7096 C 658.585 -3.15699 3.0663 0
M  V30 7097 H 655.704 -0.41916 0.606196 0
M  V30 7098 H 658.346 -0.442348 1.84779 0
M  V30 7099 H 656.496 -2.75964 2.73452 0
M  V30 7100 H 658.168 -0.866544 4.53088 0
M  V30 7101 H 656.411 -0.746612 4.27327 0
M  V30 7102 H 657.082 -2.16976 5.07568 0
M  V30 7103 H 659.558 -2.64854 3.20923 0
M  V30 7104 H 658.434 -3.82491 3.9369 0
M  V30 7105 H 658.695 -3.83481 2.19987 0
M  V30 7106 N 657.755 -1.42862 -0.66545 0
M  V30 7107 C 659.032 -1.3431 -1.42197 0
M  V30 7108 C 659.412 0.0150265 -2.11095 0
M  V30 7109 O 658.76 1.03101 -2.03918 0
M  V30 7110 C 658.97 -2.51783 -2.41674 0
M  V30 7111 C 660.318 -2.94321 -3.0604 0
M  V30 7112 O 661.342 -2.51741 -2.52001 0
M  V30 7113 O 660.201 -3.68047 -4.03985 0
M  V30 7114 H 657.295 -0.530159 -0.634713 0
M  V30 7115 H 659.841 -1.54888 -0.693386 0
M  V30 7116 H 658.613 -3.42282 -1.89627 0
M  V30 7117 H 658.236 -2.33241 -3.22001 0
M  V30 7118 N 659.233 0.902656 -1.29189 0
M  V30 7119 C 660.482 1.6475 -1.16362 0
M  V30 7120 C 660.795 1.93517 0.284682 0
M  V30 7121 O 662.001 2.66192 0.534229 0
M  V30 7122 C 660.457 2.96848 -2.03493 0
M  V30 7123 C 660.065 2.75687 -3.5313 0
M  V30 7124 C 661.809 3.74762 -1.99383 0
M  V30 7125 C 659.716 4.03492 -4.32375 0
M  V30 7126 H 658.646 0.618041 -0.431904 0
M  V30 7127 H 661.297 1.0008 -1.53806 0
M  V30 7128 H 659.679 3.62715 -1.58916 0
M  V30 7129 H 660.853 2.18431 -4.05739 0
M  V30 7130 H 659.168 2.11171 -3.58881 0
M  V30 7131 H 661.765 4.69515 -2.5585 0
M  V30 7132 H 662.108 4.04767 -0.973123 0
M  V30 7133 H 662.641 3.15732 -2.41988 0
M  V30 7134 H 659.38 3.78656 -5.3507 0
M  V30 7135 H 658.9 4.60318 -3.84535 0
M  V30 7136 H 660.579 4.71662 -4.42881 0
M  V30 7137 N 660.711 1.11618 1.11262 0
M  V30 7138 C 661.957 0.867463 1.83311 0
M  V30 7139 C 662.29 -0.605366 1.84524 0
M  V30 7140 O 661.565 -1.44704 1.29965 0
M  V30 7141 C 661.848 1.43207 3.30399 0
M  V30 7142 C 661.701 2.97265 3.3757 0
M  V30 7143 C 663.02 1.08454 4.26528 0
M  V30 7144 H 660.139 0.316578 0.665543 0
M  V30 7145 H 662.781 1.38137 1.30454 0
M  V30 7146 H 660.931 0.994982 3.75543 0
M  V30 7147 H 662.603 3.49591 3.00971 0
M  V30 7148 H 660.846 3.33237 2.77733 0
M  V30 7149 H 661.517 3.31859 4.41105 0
M  V30 7150 H 663.993 1.4619 3.89574 0
M  V30 7151 H 662.869 1.50633 5.27826 0
M  V30 7152 H 663.13 -0.00444568 4.421 0
M  V30 7153 N 662.189 -1.289 0.906776 0
M  V30 7154 C 663.121 -2.26556 0.347159 0
M  V30 7155 C 664.134 -1.54589 -0.51049 0
M  V30 7156 O 665.323 -1.75489 -0.326501 0
M  V30 7157 C 662.423 -3.3484 -0.523024 0
M  V30 7158 C 661.596 -4.36296 0.310515 0
M  V30 7159 C 660.655 -5.23879 -0.493634 0
M  V30 7160 O 659.681 -5.69127 0.0913569 0
M  V30 7161 N 660.883 -5.51946 -1.7982 0
M  V30 7162 H 663.648 -2.75212 1.18652 0
M  V30 7163 H 661.209 -1.42309 0.771996 0
M  V30 7164 H 663.201 -3.90366 -1.06756 0
M  V30 7165 H 661.771 -2.85946 -1.26309 0
M  V30 7166 H 660.991 -3.80331 1.03644 0
M  V30 7167 H 662.279 -5.01113 0.881106 0
M  V30 7168 H 661.677 -5.17006 -2.2961 0
M  V30 7169 H 660.234 -6.10258 -2.28971 0
M  V30 7170 N 663.667 -0.670007 -1.42649 0
M  V30 7171 C 664.915 -0.18991 -2.01206 0
M  V30 7172 C 665.236 1.20617 -1.53221 0
M  V30 7173 O 664.506 1.80898 -0.751856 0
M  V30 7174 H 663.086 -0.0672189 -0.743969 0
M  V30 7175 H 665.748 -0.865442 -1.74631 0
M  V30 7176 H 664.844 -0.187481 -3.11536 0
M  V30 7177 N 665.145 1.52092 -0.413018 0
M  V30 7178 C 666.093 2.28681 0.425199 0
M  V30 7179 C 667.087 1.3353 1.04241 0
M  V30 7180 O 668.293 1.50973 0.980166 0
M  V30 7181 H 664.668 0.735661 0.155906 0
M  V30 7182 H 666.639 2.97418 -0.241926 0
M  V30 7183 C 665.388 3.1235 1.5275 0
M  V30 7184 H 664.711 3.85439 1.06191 0
M  V30 7185 H 666.151 3.69038 2.08774 0
M  V30 7186 C 664.61 2.26161 2.49706 0
M  V30 7187 O 665.14 1.90452 3.53682 0
M  V30 7188 N 663.346 1.89854 2.20008 0
M  V30 7189 H 662.893 2.19092 1.35486 0
M  V30 7190 H 662.851 1.3248 2.85125 0
M  V30 7191 N 666.623 0.143563 1.56945 0
M  V30 7192 C 668.039 -0.212877 1.58174 0
M  V30 7193 C 668.239 -1.64926 1.15766 0
M  V30 7194 O 667.295 -2.37535 0.856361 0
M  V30 7195 C 668.608 0.0427573 3.0067 0
M  V30 7196 C 670.156 -0.0212221 3.12993 0
M  V30 7197 C 670.631 0.207036 4.57532 0
M  V30 7198 N 672.122 0.153845 4.62944 0
M  V30 7199 C 672.857 0.305018 5.72588 0
M  V30 7200 N 672.353 0.513722 6.90893 0
M  V30 7201 N 674.146 0.242862 5.61575 0
M  V30 7202 H 666.297 1.08148 1.82805 0
M  V30 7203 H 668.56 0.427831 0.84597 0
M  V30 7204 H 668.266 1.03672 3.36073 0
M  V30 7205 H 668.14 -0.678195 3.71053 0
M  V30 7206 H 670.527 -1.00574 2.77433 0
M  V30 7207 H 670.608 0.732004 2.45103 0
M  V30 7208 H 670.252 1.18863 4.93795 0
M  V30 7209 H 670.182 -0.566473 5.23544 0
M  V30 7210 H 672.673 -0.00294866 3.779 0
M  V30 7211 H 672.986 0.619273 7.70315 0
M  V30 7212 H 671.331 0.550001 6.9282 0
M  V30 7213 H 674.522 0.0806015 4.68031 0
M  V30 7214 H 674.695 0.364112 6.46976 0
M  V30 7215 N 668.101 -1.57061 -0.130224 0
M  V30 7216 C 669.347 -1.8453 -0.841216 0
M  V30 7217 C 669.68 -0.727666 -1.80052 0
M  V30 7218 O 668.955 0.267419 -1.92653 0
M  V30 7219 C 669.238 -3.22553 -1.60099 0
M  V30 7220 C 669.091 -4.44901 -0.662048 0
M  V30 7221 C 670.41 -3.58003 -2.55973 0
M  V30 7222 H 667.529 -0.671215 -0.304366 0
M  V30 7223 H 670.171 -1.89705 -0.105821 0
M  V30 7224 H 668.321 -3.18272 -2.22789 0
M  V30 7225 H 669.993 -4.61278 -0.0448559 0
M  V30 7226 H 668.236 -4.33791 0.0272253 0
M  V30 7227 H 668.907 -5.3812 -1.23006 0
M  V30 7228 H 671.383 -3.63002 -2.03393 0
M  V30 7229 H 670.259 -4.55576 -3.06172 0
M  V30 7230 H 670.52 -2.84833 -3.38116 0
M  V30 7231 N 669.579 0.400081 -1.52437 0
M  V30 7232 C 670.827 1.14392 -1.6661 0
M  V30 7233 C 671.148 1.90792 -0.402927 0
M  V30 7234 O 670.418 1.87042 0.582425 0
M  V30 7235 H 668.998 0.425275 -0.614125 0
M  V30 7236 H 671.66 0.455076 -1.89513 0
M  V30 7237 H 670.756 1.85298 -2.51139 0
M  V30 7238 N 671.057 1.43213 0.657864 0
M  V30 7239 C 672.303 1.44798 1.41991 0
M  V30 7240 C 672.636 0.070256 1.94073 0
M  V30 7241 O 671.911 -0.908177 1.71995 0
M  V30 7242 C 672.194 2.4865 2.60471 0
M  V30 7243 C 672.047 3.95679 2.13911 0
M  V30 7244 C 673.366 2.49292 3.62686 0
M  V30 7245 H 670.485 0.527244 0.514959 0
M  V30 7246 H 673.127 1.74733 0.74621 0
M  V30 7247 H 671.277 2.23254 3.17946 0
M  V30 7248 H 672.949 4.32116 1.61472 0
M  V30 7249 H 671.192 4.08733 1.45325 0
M  V30 7250 H 671.863 4.6395 2.99089 0
M  V30 7251 H 674.339 2.71917 3.14961 0
M  V30 7252 H 673.215 3.23907 4.43143 0
M  V30 7253 H 673.476 1.52502 4.14964 0
M  V30 7254 N 672.536 -0.895792 1.29666 0
M  V30 7255 C 673.782 -1.64921 1.19049 0
M  V30 7256 C 674.137 -1.90707 -0.254678 0
M  V30 7257 O 673.43 -1.5092 -1.18041 0
M  V30 7258 C 673.624 -3.00075 1.94139 0
M  V30 7259 C 673.453 -2.87482 3.4581 0
M  V30 7260 C 672.223 -2.88041 4.15163 0
M  V30 7261 C 674.421 -2.64224 4.41237 0
M  V30 7262 N 672.403 -2.66226 5.5317 0
M  V30 7263 C 673.774 -2.51427 5.66732 0
M  V30 7264 C 675.829 -2.49362 4.30956 0
M  V30 7265 C 674.532 -2.25281 6.83111 0
M  V30 7266 C 676.558 -2.246 5.47091 0
M  V30 7267 C 675.92 -2.12571 6.7156 0
M  V30 7268 H 672.019 -0.608926 0.490646 0
M  V30 7269 H 674.603 -1.05648 1.63544 0
M  V30 7270 H 672.774 -3.574 1.52052 0
M  V30 7271 H 674.506 -3.64544 1.75754 0
M  V30 7272 H 671.261 -2.99471 3.66898 0
M  V30 7273 H 671.685 -2.58361 6.25762 0
M  V30 7274 H 676.327 -2.57403 3.35415 0
M  V30 7275 H 674.045 -2.15978 7.78704 0
M  V30 7276 H 677.631 -2.13939 5.41037 0
M  V30 7277 H 676.511 -1.93676 7.59907 0
M  V30 7278 N 674.014 -1.12206 -1.10668 0
M  V30 7279 C 674.962 -0.782918 -2.19028 0
M  V30 7280 C 675.956 0.229175 -1.67843 0
M  V30 7281 O 677.162 0.0876295 -1.79787 0
M  V30 7282 H 673.537 -0.235339 -0.714227 0
M  V30 7283 H 675.508 -1.70527 -2.44874 0
M  V30 7284 C 674.257 -0.25116 -3.46792 0
M  V30 7285 H 673.58 -1.02123 -3.86537 0
M  V30 7286 H 675.02 -0.0521409 -4.23968 0
M  V30 7287 C 673.479 1.02037 -3.21076 0
M  V30 7288 O 674.009 2.09862 -3.42522 0
M  V30 7289 N 672.215 0.946348 -2.74759 0
M  V30 7290 H 671.762 0.068777 -2.57508 0
M  V30 7291 H 671.72 1.79775 -2.57931 0
M  V30 7292 N 675.492 1.28418 -0.913599 0
M  V30 7293 C 676.738 1.9527 -0.547484 0
M  V30 7294 C 677.071 1.71745 0.906486 0
M  V30 7295 O 676.346 1.03834 1.64465 0
M  V30 7296 C 676.629 3.49748 -0.857205 0
M  V30 7297 C 676.482 3.82675 -2.3639 0
M  V30 7298 C 677.801 4.3868 -0.353258 0
M  V30 7299 H 674.92 0.709236 -0.200381 0
M  V30 7300 H 677.562 1.51789 -1.14281 0
M  V30 7301 H 675.712 3.86915 -0.350548 0
M  V30 7302 H 677.384 3.55378 -2.94116 0
M  V30 7303 H 675.627 3.29724 -2.81894 0
M  V30 7304 H 676.298 4.90547 -2.53115 0
M  V30 7305 H 678.774 4.08584 -0.787288 0
M  V30 7306 H 677.65 5.45621 -0.599049 0
M  V30 7307 H 677.911 4.35753 0.746413 0
M  V30 7308 N 676.97 0.677563 1.42291 0
M  V30 7309 C 678.381 0.277912 1.8462 0
M  V30 7310 C 678.732 -1.18048 1.56714 0
M  V30 7311 O 677.857 -1.90404 1.02836 0
M  V30 7312 C 678.452 0.497619 3.35126 0
M  V30 7313 C 677.011 0.152063 3.76093 0
M  V30 7314 C 676.158 0.78872 2.65847 0
M  V30 7315 H 679.109 0.879527 1.32098 0
M  V30 7316 H 679.13 -0.24939 3.79682 0
M  V30 7317 H 678.642 1.55913 3.55405 0
M  V30 7318 H 676.743 -0.905896 3.6142 0
M  V30 7319 H 676.856 0.594514 4.75397 0
M  V30 7320 H 675.22 0.219813 2.5375 0
M  V30 7321 H 676.003 1.85374 2.88949 0
M  V30 7322 N 678.448 -1.51871 0.421078 0
M  V30 7323 C 679.678 -2.06057 -0.149723 0
M  V30 7324 C 680.086 -1.29002 -1.38402 0
M  V30 7325 O 679.429 -0.338385 -1.80556 0
M  V30 7326 C 679.491 -3.55216 -0.553339 0
M  V30 7327 C 679.155 -4.53408 0.571879 0
M  V30 7328 C 680.152 -4.99586 1.4391 0
M  V30 7329 C 677.837 -4.967 0.747979 0
M  V30 7330 C 679.831 -5.87711 2.46727 0
M  V30 7331 C 677.518 -5.84619 1.77944 0
M  V30 7332 C 678.516 -6.30021 2.63748 0
M  V30 7333 O 678.204 -7.16197 3.65126 0
M  V30 7334 H 677.936 -0.675744 -0.0186102 0
M  V30 7335 H 680.49 -1.96618 0.594166 0
M  V30 7336 H 678.72 -3.62381 -1.34969 0
M  V30 7337 H 680.409 -3.91992 -1.05342 0
M  V30 7338 H 681.175 -4.66846 1.31451 0
M  V30 7339 H 677.054 -4.60913 0.0897357 0
M  V30 7340 H 680.598 -6.2307 3.13734 0
M  V30 7341 H 676.495 -6.16771 1.90429 0
M  V30 7342 H 677.263 -7.34337 3.61512 0
M  V30 7343 N 679.926 -0.151884 -1.56866 0
M  V30 7344 C 680.859 0.824094 -2.128 0
M  V30 7345 C 681.837 1.2391 -1.05286 0
M  V30 7346 O 683.021 1.33433 -1.33146 0
M  V30 7347 C 680.148 2.1072 -2.65169 0
M  V30 7348 C 679.194 1.83774 -3.84876 0
M  V30 7349 S 680.027 1.02436 -5.25611 0
M  V30 7350 C 681.183 2.31855 -5.81373 0
M  V30 7351 H 681.416 0.348456 -2.95251 0
M  V30 7352 H 678.949 0.0624794 -1.54274 0
M  V30 7353 H 680.907 2.84428 -2.95992 0
M  V30 7354 H 679.568 2.55398 -1.8284 0
M  V30 7355 H 678.761 2.78929 -4.19779 0
M  V30 7356 H 678.363 1.18172 -3.5484 0
M  V30 7357 H 680.655 3.27469 -5.93102 0
M  V30 7358 H 681.598 2.01449 -6.7884 0
M  V30 7359 H 682.006 2.42727 -5.09651 0
M  V30 7360 N 681.404 1.57128 0.121893 0
M  V30 7361 C 682.367 1.99197 1.13372 0
M  V30 7362 C 683.367 0.881728 1.3447 0
M  V30 7363 O 684.557 1.14783 1.31036 0
M  V30 7364 C 681.689 2.32963 2.4888 0
M  V30 7365 H 682.882 2.89788 0.772204 0
M  V30 7366 H 680.435 1.51952 0.366093 0
M  V30 7367 H 681.17 1.45243 2.89957 0
M  V30 7368 H 680.955 3.13934 2.34921 0
M  V30 7369 H 682.445 2.66261 3.21706 0
M  V30 7370 N 682.882 -0.391992 1.52647 0
M  V30 7371 C 683.83 -1.4991 1.77848 0
M  V30 7372 C 684.824 -1.56587 0.646282 0
M  V30 7373 O 686.03 -1.59789 0.828698 0
M  V30 7374 H 682.405 -0.498883 0.56269 0
M  V30 7375 H 684.376 -1.25847 2.70564 0
M  V30 7376 C 683.125 -2.87081 1.96163 0
M  V30 7377 H 682.448 -2.82692 2.82711 0
M  V30 7378 H 683.888 -3.63792 2.17787 0
M  V30 7379 C 682.347 -3.28822 0.733348 0
M  V30 7380 O 682.877 -4.01598 -0.0906481 0
M  V30 7381 N 681.083 -2.85068 0.564317 0
M  V30 7382 H 680.63 -2.26012 1.23598 0
M  V30 7383 H 680.588 -3.13355 -0.256166 0
M  V30 7384 N 684.36 -1.4356 -0.65026 0
M  V30 7385 C 685.606 -1.45549 -1.41221 0
M  V30 7386 C 685.939 -0.0805472 -1.94033 0
M  V30 7387 O 685.214 0.899043 -1.72475 0
M  V30 7388 C 685.497 -2.50028 -2.59148 0
M  V30 7389 C 685.35 -3.96808 -2.1181 0
M  V30 7390 C 686.669 -2.51212 -3.61359 0
M  V30 7391 H 683.788 -0.529967 -0.512156 0
M  V30 7392 H 686.43 -1.75127 -0.736933 0
M  V30 7393 H 684.58 -2.24937 -3.16758 0
M  V30 7394 H 686.252 -4.32966 -1.59178 0
M  V30 7395 H 684.495 -4.09498 -1.43156 0
M  V30 7396 H 685.166 -4.6553 -2.96625 0
M  V30 7397 H 687.642 -2.73583 -3.13515 0
M  V30 7398 H 686.518 -3.26252 -4.41419 0
M  V30 7399 H 686.779 -1.54701 -4.1415 0
M  V30 7400 N 685.838 0.888903 -1.30139 0
M  V30 7401 C 687.068 1.67115 -1.21474 0
M  V30 7402 C 687.476 1.87852 0.225472 0
M  V30 7403 O 686.819 1.42324 1.16145 0
M  V30 7404 C 686.881 3.0713 -1.86846 0
M  V30 7405 C 686.545 3.09582 -3.36167 0
M  V30 7406 C 687.542 2.88929 -4.32222 0
M  V30 7407 C 685.227 3.31304 -3.77549 0
M  V30 7408 C 687.221 2.89949 -5.67634 0
M  V30 7409 C 684.908 3.31954 -5.13079 0
M  V30 7410 C 685.906 3.113 -6.07932 0
M  V30 7411 O 685.594 3.11758 -7.40987 0
M  V30 7412 H 685.326 0.528372 -0.421662 0
M  V30 7413 H 687.88 1.11919 -1.7223 0
M  V30 7414 H 686.11 3.63973 -1.30615 0
M  V30 7415 H 687.799 3.6749 -1.72354 0
M  V30 7416 H 688.565 2.71948 -4.01584 0
M  V30 7417 H 684.444 3.46417 -3.04165 0
M  V30 7418 H 687.988 2.73746 -6.41645 0
M  V30 7419 H 683.885 3.48469 -5.43359 0
M  V30 7420 H 684.653 3.27951 -7.49927 0
M  V30 7421 N 687.317 1.12792 1.10072 0
M  V30 7422 C 688.247 0.821688 2.18565 0
M  V30 7423 C 689.228 -0.21612 1.68721 0
M  V30 7424 O 690.413 -0.0764932 1.94049 0
M  V30 7425 C 687.543 0.279624 3.46172 0
M  V30 7426 C 686.497 1.25092 4.09312 0
M  V30 7427 C 685.823 0.568916 5.31665 0
M  V30 7428 C 687.123 2.60699 4.52585 0
M  V30 7429 H 688.817 1.72888 2.44438 0
M  V30 7430 H 686.363 0.832702 1.17482 0
M  V30 7431 H 688.316 0.053099 4.21367 0
M  V30 7432 H 687.04 -0.662929 3.19801 0
M  V30 7433 H 685.699 1.46332 3.36129 0
M  V30 7434 H 685.347 -0.378898 5.01571 0
M  V30 7435 H 685.047 1.21687 5.74862 0
M  V30 7436 H 686.571 0.351517 6.09587 0
M  V30 7437 H 687.985 2.43465 5.19035 0
M  V30 7438 H 686.382 3.21608 5.06644 0
M  V30 7439 H 687.452 3.1886 3.65317 0
M  V30 7440 N 688.795 -1.27931 0.920396 0
M  V30 7441 C 690.044 -1.93975 0.552867 0
M  V30 7442 C 690.357 -1.73193 -0.909035 0
M  V30 7443 O 691.563 -2.33515 -1.38502 0
M  V30 7444 C 690.019 -3.47463 0.937947 0
M  V30 7445 C 689.627 -3.77013 2.42003 0
M  V30 7446 C 691.371 -4.19628 0.64132 0
M  V30 7447 C 689.278 -5.23841 2.74489 0
M  V30 7448 H 688.208 -0.726146 0.203046 0
M  V30 7449 H 690.859 -1.45339 1.12022 0
M  V30 7450 H 689.241 -3.94867 0.299317 0
M  V30 7451 H 690.415 -3.40393 3.10595 0
M  V30 7452 H 688.73 -3.18035 2.6878 0
M  V30 7453 H 691.327 -5.27729 0.860622 0
M  V30 7454 H 691.67 -4.14164 -0.421168 0
M  V30 7455 H 692.203 -3.78022 1.23872 0
M  V30 7456 H 688.942 -5.34388 3.79618 0
M  V30 7457 H 688.462 -5.61634 2.1054 0
M  V30 7458 H 690.141 -5.91647 2.61845 0
M  V30 7459 N 690.273 -0.685099 -1.4193 0
M  V30 7460 C 691.22 -0.0131869 -2.30796 0
M  V30 7461 C 692.19 0.782129 -1.46533 0
M  V30 7462 O 693.375 0.75229 -1.75343 0
M  V30 7463 C 690.515 0.924768 -3.32479 0
M  V30 7464 C 689.628 0.122181 -4.31827 0
M  V30 7465 C 688.763 1.05682 -5.20581 0
M  V30 7466 C 687.802 0.246526 -6.11603 0
M  V30 7467 N 686.939 1.13442 -6.92875 0
M  V30 7468 H 691.779 -0.776789 -2.87698 0
M  V30 7469 H 689.316 -0.394791 -1.41703 0
M  V30 7470 H 691.274 1.48251 -3.89971 0
M  V30 7471 H 689.904 1.65488 -2.77152 0
M  V30 7472 H 688.956 -0.552335 -3.76369 0
M  V30 7473 H 690.268 -0.506473 -4.96222 0
M  V30 7474 H 689.422 1.68415 -5.82856 0
M  V30 7475 H 688.161 1.71935 -4.56388 0
M  V30 7476 H 687.166 -0.393944 -5.48387 0
M  V30 7477 H 688.391 -0.412053 -6.77849 0
M  V30 7478 H 686.337 1.78316 -6.313 0
M  V30 7479 H 686.254 0.561089 -7.53915 0
M  V30 7480 H 687.522 1.74889 -7.59628 0
M  V30 7481 N 691.751 1.51645 -0.429126 0
M  V30 7482 C 692.999 2.01616 0.139802 0
M  V30 7483 C 693.32 1.31568 1.43927 0
M  V30 7484 O 692.59 0.447688 1.90716 0
M  V30 7485 H 691.17 0.744998 0.054654 0
M  V30 7486 H 693.832 1.8638 -0.569952 0
M  V30 7487 H 692.928 3.10439 0.321609 0
M  V30 7488 N 693.229 0.160201 1.56784 0
M  V30 7489 C 694.176 -0.774416 2.1742 0
M  V30 7490 C 695.146 -1.23483 1.11091 0
M  V30 7491 O 696.331 -1.30499 1.39193 0
M  V30 7492 C 693.471 -2.00283 2.81035 0
M  V30 7493 C 692.584 -1.58701 4.01793 0
M  V30 7494 C 691.719 -2.76824 4.53367 0
M  V30 7495 C 690.758 -2.31679 5.66561 0
M  V30 7496 N 689.895 -3.42856 6.12694 0
M  V30 7497 H 694.735 -0.250542 2.96945 0
M  V30 7498 H 692.272 -0.111943 1.46673 0
M  V30 7499 H 694.23 -2.72316 3.16069 0
M  V30 7500 H 692.86 -2.5006 2.04132 0
M  V30 7501 H 691.912 -0.76384 3.72652 0
M  V30 7502 H 693.224 -1.21555 4.83762 0
M  V30 7503 H 692.378 -3.57029 4.90525 0
M  V30 7504 H 691.117 -3.17223 3.70433 0
M  V30 7505 H 690.122 -1.49917 5.28966 0
M  V30 7506 H 691.347 -1.9235 6.5129 0
M  V30 7507 H 689.293 -3.82852 5.32692 0
M  V30 7508 H 689.21 -3.09767 6.89624 0
M  V30 7509 H 690.478 -4.23379 6.545 0
M  V30 7510 N 694.707 -1.5719 -0.113559 0
M  V30 7511 C 695.935 -1.89328 -0.834422 0
M  V30 7512 C 696.35 -0.752018 -1.73177 0
M  V30 7513 O 695.707 0.276912 -1.80387 0
M  V30 7514 C 695.758 -3.20962 -1.66329 0
M  V30 7515 O 695.479 -4.30695 -0.802069 0
M  V30 7516 C 696.98 -3.6684 -2.48884 0
M  V30 7517 H 694.2 -0.626769 -0.239587 0
M  V30 7518 H 696.744 -2.04273 -0.0963195 0
M  V30 7519 H 694.899 -3.0767 -2.35409 0
M  V30 7520 H 695.313 -5.06175 -1.37431 0
M  V30 7521 H 696.787 -4.61692 -3.02563 0
M  V30 7522 H 697.264 -2.93765 -3.26495 0
M  V30 7523 H 697.87 -3.82938 -1.85036 0
M  V30 7524 N 696.185 0.383891 -1.52853 0
M  V30 7525 C 697.115 1.47559 -1.80965 0
M  V30 7526 C 698.096 1.5669 -0.661986 0
M  V30 7527 O 699.281 1.71556 -0.910072 0
M  V30 7528 C 696.411 2.85114 -1.98312 0
M  V30 7529 C 695.365 2.9082 -3.14019 0
M  V30 7530 C 694.691 4.30873 -3.16627 0
M  V30 7531 C 695.991 2.60001 -4.52986 0
M  V30 7532 H 697.685 1.24283 -2.72386 0
M  V30 7533 H 695.231 0.596445 -1.31067 0
M  V30 7534 H 697.184 3.61496 -2.16561 0
M  V30 7535 H 695.908 3.09738 -1.03585 0
M  V30 7536 H 694.567 2.16886 -2.9556 0
M  V30 7537 H 694.215 4.52545 -2.19573 0
M  V30 7538 H 693.915 4.3561 -3.94357 0
M  V30 7539 H 695.439 5.09154 -3.37038 0
M  V30 7540 H 696.853 3.261 -4.71521 0
M  V30 7541 H 695.25 2.76081 -5.32822 0
M  V30 7542 H 696.32 1.5532 -4.59351 0
M  V30 7543 N 697.663 1.43903 0.642637 0
M  V30 7544 C 699.079 1.27536 0.959519 0
M  V30 7545 C 699.279 0.202751 2.00477 0
M  V30 7546 O 698.335 -0.415256 2.49062 0
M  V30 7547 C 699.648 2.6432 1.43372 0
M  V30 7548 C 701.196 2.71937 1.54981 0
M  V30 7549 C 701.671 4.09164 2.05789 0
M  V30 7550 N 703.162 4.11282 2.13076 0
M  V30 7551 C 703.897 5.14303 2.53534 0
M  V30 7552 N 703.393 6.27693 2.93212 0
M  V30 7553 N 705.186 5.01657 2.53567 0
M  V30 7554 H 697.337 2.12344 -0.0488376 0
M  V30 7555 H 699.6 0.947124 0.0407559 0
M  V30 7556 H 699.306 3.43826 0.740048 0
M  V30 7557 H 699.18 2.90432 2.40685 0
M  V30 7558 H 701.567 1.92757 2.23448 0
M  V30 7559 H 701.648 2.49578 0.560739 0
M  V30 7560 H 701.292 4.88815 1.37921 0
M  V30 7561 H 701.222 4.28893 3.05546 0
M  V30 7562 H 703.713 3.2944 1.85143 0
M  V30 7563 H 704.026 7.02125 3.22863 0
M  V30 7564 H 702.371 6.31149 2.90991 0
M  V30 7565 H 705.562 4.12134 2.21952 0
M  V30 7566 H 705.735 5.82072 2.84774 0
M  V30 7567 N 699.141 -0.881989 1.30609 0
M  V30 7568 C 700.366 -1.67236 1.22665 0
M  V30 7569 C 700.791 -1.8696 -0.206777 0
M  V30 7570 O 700.149 -1.4027 -1.14865 0
M  V30 7571 C 700.197 -3.02446 1.96363 0
M  V30 7572 O 699.301 -3.91614 1.29276 0
M  V30 7573 H 698.642 -0.510902 0.424117 0
M  V30 7574 H 701.172 -1.10055 1.72479 0
M  V30 7575 H 701.182 -3.52468 2.055 0
M  V30 7576 H 699.857 -2.8741 3.00613 0
M  V30 7577 H 698.434 -3.50055 1.28514 0
M  V30 7578 N 700.619 -1.13374 -1.09472 0
M  V30 7579 C 701.529 -0.824029 -2.19652 0
M  V30 7580 C 702.545 0.19118 -1.72947 0
M  V30 7581 O 703.721 0.0223464 -2.01388 0
M  V30 7582 C 700.786 -0.294009 -3.45451 0
M  V30 7583 C 699.847 -1.3704 -4.0684 0
M  V30 7584 C 699.08 -0.86558 -5.26634 0
M  V30 7585 O 699.303 0.29702 -5.69626 0
M  V30 7586 O 698.237 -1.63968 -5.79136 0
M  V30 7587 H 702.063 -1.74454 -2.48595 0
M  V30 7588 H 699.648 -0.911155 -1.18399 0
M  V30 7589 H 701.53 -0.00381039 -4.214 0
M  V30 7590 H 700.205 0.598921 -3.18111 0
M  V30 7591 H 699.112 -1.71391 -3.3253 0
M  V30 7592 H 700.445 -2.23746 -4.38405 0
M  V30 7593 N 702.098 1.27442 -0.927168 0
M  V30 7594 C 703.031 2.25177 -0.370232 0
M  V30 7595 C 704.009 1.53612 0.533103 0
M  V30 7596 O 705.193 1.8245 0.47373 0
M  V30 7597 C 702.32 3.35431 0.469411 0
M  V30 7598 C 701.366 4.24888 -0.370419 0
M  V30 7599 S 702.199 5.04852 -1.78562 0
M  V30 7600 C 703.355 6.18592 -0.953651 0
M  V30 7601 H 703.588 2.72069 -1.19858 0
M  V30 7602 H 701.121 1.36089 -0.729316 0
M  V30 7603 H 703.079 3.99404 0.947992 0
M  V30 7604 H 701.74 2.87179 1.27228 0
M  V30 7605 H 700.933 5.03264 0.272226 0
M  V30 7606 H 700.535 3.65709 -0.783153 0
M  V30 7607 H 702.827 6.77235 -0.189408 0
M  V30 7608 H 703.77 6.87132 -1.7104 0
M  V30 7609 H 704.178 5.62318 -0.495897 0
M  V30 7610 N 703.576 0.692616 1.41565 0
M  V30 7611 C 704.524 0.0139952 2.32596 0
M  V30 7612 C 705.518 -0.771691 1.50802 0
M  V30 7613 O 706.724 -0.677646 1.66757 0
M  V30 7614 H 703.099 -0.0142745 0.751865 0
M  V30 7615 H 705.07 0.798851 2.87508 0
M  V30 7616 C 703.819 -0.910602 3.35564 0
M  V30 7617 H 703.142 -0.315446 3.98554 0
M  V30 7618 H 704.582 -1.3538 4.01806 0
M  V30 7619 C 703.041 -2.02539 2.6922 0
M  V30 7620 O 703.571 -3.11386 2.53775 0
M  V30 7621 N 701.777 -1.80227 2.27962 0
M  V30 7622 H 701.324 -0.917054 2.40724 0
M  V30 7623 H 701.282 -2.55001 1.83907 0
M  V30 7624 N 705.054 -1.51416 0.437162 0
M  V30 7625 C 705.964 -2.31493 -0.380537 0
M  V30 7626 C 706.98 -1.40399 -1.02782 0
M  V30 7627 O 708.156 -1.73471 -1.02323 0
M  V30 7628 C 705.221 -3.1413 -1.46709 0
M  V30 7629 C 704.282 -4.21003 -0.839953 0
M  V30 7630 C 703.515 -4.9969 -1.87473 0
M  V30 7631 O 703.738 -4.79008 -3.09689 0
M  V30 7632 O 702.672 -5.8379 -1.46536 0
M  V30 7633 H 706.498 -3.02469 0.273183 0
M  V30 7634 H 704.083 -1.48059 0.199706 0
M  V30 7635 H 705.965 -3.65505 -2.09724 0
M  V30 7636 H 704.64 -2.45919 -2.10489 0
M  V30 7637 H 703.547 -3.73706 -0.171752 0
M  V30 7638 H 704.88 -4.91587 -0.245638 0
M  V30 7639 N 706.532 -0.168513 -1.56696 0
M  V30 7640 C 707.948 0.187686 -1.58493 0
M  V30 7641 C 708.148 1.63063 -1.18375 0
M  V30 7642 O 707.204 2.36142 -0.894042 0
M  V30 7643 C 708.517 -0.0905858 -3.00564 0
M  V30 7644 C 710.065 -0.028575 -3.12987 0
M  V30 7645 C 710.54 -0.279799 -4.57145 0
M  V30 7646 N 712.031 -0.227476 -4.62641 0
M  V30 7647 C 712.766 -0.396073 -5.7203 0
M  V30 7648 N 712.262 -0.623572 -6.89988 0
M  V30 7649 N 714.055 -0.332173 -5.61118 0
M  V30 7650 H 706.206 -1.11042 -1.81062 0
M  V30 7651 H 708.469 -0.441235 -0.839056 0
M  V30 7652 H 708.175 -1.09006 -3.34381 0
M  V30 7653 H 708.049 0.619078 -3.72085 0
M  V30 7654 H 710.436 0.961471 -2.78998 0
M  V30 7655 H 710.517 -0.770905 -2.43907 0
M  V30 7656 H 710.161 -1.26704 -4.91842 0
M  V30 7657 H 710.091 0.48311 -5.24379 0
M  V30 7658 H 712.582 -0.0571723 -3.77857 0
M  V30 7659 H 712.895 -0.741745 -7.69232 0
M  V30 7660 H 711.24 -0.660153 -6.91858 0
M  V30 7661 H 714.431 -0.155051 -4.67843 0
M  V30 7662 H 714.604 -0.466994 -6.46315 0
M  V30 7663 N 708.01 1.57248 0.105221 0
M  V30 7664 C 708.958 2.02337 1.14728 0
M  V30 7665 C 709.952 0.922652 1.42069 0
M  V30 7666 O 711.158 1.10785 1.41869 0
M  V30 7667 H 707.533 0.644682 0.387155 0
M  V30 7668 H 709.504 2.89063 0.740607 0
M  V30 7669 C 708.253 2.45513 2.46209 0
M  V30 7670 H 707.576 3.29785 2.26013 0
M  V30 7671 H 709.016 2.80846 3.1765 0
M  V30 7672 C 707.475 1.3243 3.09781 0
M  V30 7673 O 708.005 0.647841 3.96442 0
M  V30 7674 N 706.211 1.07785 2.69872 0
M  V30 7675 H 705.758 1.62973 1.99493 0
M  V30 7676 H 705.716 0.323204 3.12734 0
M  V30 7677 N 709.488 -0.375779 1.53054 0
M  V30 7678 C 710.718 -1.1387 1.72386 0
M  V30 7679 C 711.126 -1.8382 0.447966 0
M  V30 7680 O 710.469 -1.74027 -0.588244 0
M  V30 7681 C 710.531 -2.22047 2.82728 0
M  V30 7682 C 710.195 -1.71951 4.23417 0
M  V30 7683 C 711.192 -1.18909 5.06119 0
M  V30 7684 C 708.877 -1.77773 4.69789 0
M  V30 7685 C 710.871 -0.723529 6.3328 0
M  V30 7686 C 708.558 -1.30829 5.96931 0
M  V30 7687 C 709.556 -0.782077 6.78508 0
M  V30 7688 O 709.244 -0.319529 8.03265 0
M  V30 7689 H 708.976 -0.346835 0.580242 0
M  V30 7690 H 711.53 -0.443748 2.00549 0
M  V30 7691 H 709.76 -2.95006 2.50017 0
M  V30 7692 H 711.449 -2.83654 2.90336 0
M  V30 7693 H 712.215 -1.13758 4.7147 0
M  V30 7694 H 708.094 -2.17673 4.06373 0
M  V30 7695 H 711.638 -0.312126 6.96901 0
M  V30 7696 H 707.535 -1.3567 6.31081 0
M  V30 7697 H 708.303 -0.439796 8.17318 0
M  V30 7698 N 710.966 -1.44241 -0.634997 0
M  V30 7699 C 712.213 -1.46821 -1.39463 0
M  V30 7700 C 712.541 -0.0993362 -1.94246 0
M  V30 7701 O 711.796 0.898325 -1.73864 0
M  V30 7702 C 712.095 -2.47279 -2.58046 0
M  V30 7703 C 711.761 -3.92703 -2.21574 0
M  V30 7704 C 710.423 -4.32306 -2.1134 0
M  V30 7705 C 712.775 -4.84271 -1.92695 0
M  V30 7706 C 710.103 -5.61407 -1.70409 0
M  V30 7707 C 712.455 -6.13755 -1.53258 0
M  V30 7708 C 711.119 -6.52316 -1.41562 0
M  V30 7709 H 710.389 -0.537256 -0.51033 0
M  V30 7710 H 713.036 -1.77431 -0.720441 0
M  V30 7711 H 711.341 -2.10138 -3.3068 0
M  V30 7712 H 713.038 -2.46523 -3.16271 0
M  V30 7713 H 709.628 -3.61369 -2.30456 0
M  V30 7714 H 713.812 -4.54432 -1.99513 0
M  V30 7715 H 709.068 -5.90105 -1.59955 0
M  V30 7716 H 713.242 -6.84168 -1.29949 0
M  V30 7717 H 710.869 -7.52255 -1.09619 0
M  V30 7718 N 712.444 0.87505 -1.31075 0
M  V30 7719 C 713.69 1.63009 -1.20647 0
M  V30 7720 C 714.023 1.9276 0.236045 0
M  V30 7721 O 713.298 1.55559 1.16754 0
M  V30 7722 C 713.581 2.96357 -2.0456 0
M  V30 7723 C 713.434 2.73516 -3.57084 0
M  V30 7724 C 714.753 3.974 -1.89107 0
M  V30 7725 H 711.872 0.591518 -0.439631 0
M  V30 7726 H 714.514 1.0119 -1.60812 0
M  V30 7727 H 712.664 3.49119 -1.70435 0
M  V30 7728 H 714.336 2.27465 -4.01319 0
M  V30 7729 H 712.579 2.0784 -3.80769 0
M  V30 7730 H 713.25 3.68377 -4.11099 0
M  V30 7731 H 715.726 3.5383 -2.18961 0
M  V30 7732 H 714.602 4.88596 -2.5013 0
M  V30 7733 H 714.863 4.33794 -0.85296 0
M  V30 7734 N 713.922 1.13953 1.08869 0
M  V30 7735 C 715.338 0.878924 1.33218 0
M  V30 7736 C 715.538 -0.482478 1.95638 0
M  V30 7737 O 714.594 -1.22778 2.2064 0
M  V30 7738 C 715.907 2.00798 2.23832 0
M  V30 7739 C 717.455 2.04073 2.37325 0
M  V30 7740 C 717.93 3.16258 3.31278 0
M  V30 7741 N 719.421 3.15805 3.38853 0
M  V30 7742 C 720.156 3.99249 4.11567 0
M  V30 7743 N 719.652 4.92721 4.87029 0
M  V30 7744 N 721.445 3.87327 4.0735 0
M  V30 7745 H 713.596 2.01645 0.66731 0
M  V30 7746 H 715.859 0.878395 0.356547 0
M  V30 7747 H 715.565 2.98986 1.85203 0
M  V30 7748 H 715.439 1.92704 3.24261 0
M  V30 7749 H 717.826 1.06495 2.75214 0
M  V30 7750 H 717.907 2.16239 1.36654 0
M  V30 7751 H 717.551 4.14079 2.9411 0
M  V30 7752 H 717.481 3.0133 4.31866 0
M  V30 7753 H 719.972 2.48102 2.8505 0
M  V30 7754 H 720.285 5.52867 5.39961 0
M  V30 7755 H 718.63 4.96723 4.86098 0
M  V30 7756 H 721.821 3.13627 3.475 0
M  V30 7757 H 721.994 4.52585 4.63757 0
M  V30 7758 N 715.4 -1.26948 0.933913 0
M  V30 7759 C 716.677 -1.89212 0.495784 0
M  V30 7760 C 717.057 -1.84469 -1.02637 0
M  V30 7761 O 716.405 -1.29409 -1.88323 0
M  V30 7762 C 716.615 -3.32865 1.0489 0
M  V30 7763 C 717.963 -4.09749 1.11315 0
M  V30 7764 O 718.987 -3.41905 0.998966 0
M  V30 7765 O 717.846 -5.31061 1.28983 0
M  V30 7766 H 714.94 -0.811284 0.160459 0
M  V30 7767 H 717.486 -1.35171 1.02601 0
M  V30 7768 H 716.258 -3.30642 2.09265 0
M  V30 7769 H 715.881 -3.94435 0.500692 0
M  V30 7770 N 716.879 -0.700114 -1.41195 0
M  V30 7771 C 717.826 -0.0376652 -2.30769 0
M  V30 7772 C 718.796 0.766544 -1.47354 0
M  V30 7773 O 719.981 0.73365 -1.76131 0
M  V30 7774 C 717.121 0.889452 -3.33441 0
M  V30 7775 C 716.234 0.076373 -4.31932 0
M  V30 7776 C 715.369 1.00155 -5.21673 0
M  V30 7777 C 714.408 0.181644 -6.1183 0
M  V30 7778 N 713.545 1.06087 -6.94039 0
M  V30 7779 H 718.385 -0.80726 -2.86858 0
M  V30 7780 H 715.922 -0.409798 -1.41277 0
M  V30 7781 H 717.88 1.44107 -3.91522 0
M  V30 7782 H 716.51 1.6254 -2.78892 0
M  V30 7783 H 715.562 -0.592223 -3.75762 0
M  V30 7784 H 716.874 -0.559076 -4.95657 0
M  V30 7785 H 716.028 1.62223 -5.8461 0
M  V30 7786 H 714.767 1.67085 -4.58186 0
M  V30 7787 H 713.772 -0.452085 -5.47938 0
M  V30 7788 H 714.997 -0.483925 -6.77374 0
M  V30 7789 H 712.943 1.7161 -6.33156 0
M  V30 7790 H 712.86 0.481094 -7.54468 0
M  V30 7791 H 714.128 1.66822 -7.6144 0
M  V30 7792 N 718.357 1.51182 -0.445186 0
M  V30 7793 C 719.287 2.30821 0.352686 0
M  V30 7794 C 720.268 1.36576 1.01395 0
M  V30 7795 O 721.453 1.65497 1.01609 0
M  V30 7796 C 718.583 3.15593 1.44976 0
M  V30 7797 C 717.537 4.1818 0.911553 0
M  V30 7798 C 716.863 4.91523 2.10497 0
M  V30 7799 C 718.163 5.22266 -0.059418 0
M  V30 7800 H 719.857 2.97771 -0.311936 0
M  V30 7801 H 717.403 1.43201 -0.151461 0
M  V30 7802 H 719.356 3.70091 2.01521 0
M  V30 7803 H 718.08 2.4648 2.14278 0
M  V30 7804 H 716.739 3.64746 0.368264 0
M  V30 7805 H 716.387 4.18906 2.78437 0
M  V30 7806 H 716.087 5.60898 1.7512 0
M  V30 7807 H 717.611 5.48847 2.6758 0
M  V30 7808 H 719.025 5.71789 0.415985 0
M  V30 7809 H 717.422 5.99213 -0.326152 0
M  V30 7810 H 718.492 4.7461 -0.993631 0
M  V30 7811 N 719.835 0.176821 1.56605 0
M  V30 7812 C 721.112 -0.513365 1.88743 0
M  V30 7813 C 721.492 -1.80929 1.08757 0
M  V30 7814 O 720.84 -2.27765 0.183127 0
M  V30 7815 C 721.05 -0.749925 3.40848 0
M  V30 7816 C 722.398 -1.07747 4.10701 0
M  V30 7817 O 723.422 -0.838277 3.46196 0
M  V30 7818 O 722.281 -1.52901 5.24675 0
M  V30 7819 H 719.375 -0.265296 0.783292 0
M  V30 7820 H 721.921 0.215669 1.68324 0
M  V30 7821 H 720.693 0.16599 3.90948 0
M  V30 7822 H 720.316 -1.53208 3.66897 0
M  V30 7823 N 721.313 -1.57302 -0.09688 0
M  V30 7824 C 722.724 -1.7496 -0.651595 0
M  V30 7825 C 723.075 -0.798746 -1.79205 0
M  V30 7826 O 722.2 0.0231858 -2.16388 0
M  V30 7827 C 722.795 -3.17259 -1.18878 0
M  V30 7828 C 721.354 -3.36348 -1.68958 0
M  V30 7829 C 720.501 -2.70766 -0.598413 0
M  V30 7830 H 723.452 -1.58173 0.12918 0
M  V30 7831 H 723.473 -3.20033 -2.05814 0
M  V30 7832 H 722.985 -3.8644 -0.358523 0
M  V30 7833 H 721.086 -2.72243 -2.5439 0
M  V30 7834 H 721.199 -4.44654 -1.7838 0
M  V30 7835 H 719.563 -2.32615 -1.03743 0
M  V30 7836 H 720.346 -3.42586 0.221238 0
M  V30 7837 N 722.791 0.367657 -1.53252 0
M  V30 7838 C 724.068 1.12606 -1.59935 0
M  V30 7839 C 724.448 2.07167 -0.405606 0
M  V30 7840 O 723.796 2.20364 0.604323 0
M  V30 7841 C 724.006 1.86699 -2.94863 0
M  V30 7842 C 725.354 2.41306 -3.49366 0
M  V30 7843 O 726.378 1.96828 -2.96879 0
M  V30 7844 O 725.237 3.2261 -4.41118 0
M  V30 7845 H 722.331 0.516438 -0.645926 0
M  V30 7846 H 724.877 0.371088 -1.65593 0
M  V30 7847 H 723.649 1.17674 -3.73187 0
M  V30 7848 H 723.272 2.6911 -2.92687 0
M  V30 7849 N 724.269 1.44576 0.627338 0
M  V30 7850 C 725.202 1.46206 1.75212 0
M  V30 7851 C 726.18 0.320483 1.5941 0
M  V30 7852 O 727.364 0.518028 1.81242 0
M  V30 7853 C 724.491 1.29834 3.12827 0
M  V30 7854 C 723.537 2.47603 3.47268 0
M  V30 7855 S 724.37 4.10125 3.44322 0
M  V30 7856 C 725.526 3.96183 4.84551 0
M  V30 7857 H 725.759 2.41378 1.73563 0
M  V30 7858 H 723.292 1.3192 0.802283 0
M  V30 7859 H 725.25 1.21075 3.92239 0
M  V30 7860 H 723.911 0.361662 3.12011 0
M  V30 7861 H 723.104 2.3202 4.47418 0
M  V30 7862 H 722.706 2.53121 2.75329 0
M  V30 7863 H 724.998 3.60107 5.73872 0
M  V30 7864 H 725.941 4.96176 5.05188 0
M  V30 7865 H 726.349 3.28177 4.59304 0
M  V30 7866 N 725.747 -0.868086 1.31537 0
M  V30 7867 C 726.71 -1.95703 1.19302 0
M  V30 7868 C 727.71 -1.60355 0.119612 0
M  V30 7869 O 728.9 -1.70247 0.36902 0
M  V30 7870 C 726.032 -3.30599 0.831684 0
M  V30 7871 H 727.225 -2.07982 2.16064 0
M  V30 7872 H 724.778 -1.05661 1.15176 0
M  V30 7873 H 725.513 -3.2402 -0.134694 0
M  V30 7874 H 725.298 -3.57629 1.60761 0
M  V30 7875 H 726.788 -4.10439 0.770026 0
M  V30 7876 N 727.225 -1.14528 -1.08264 0
M  V30 7877 C 728.155 -0.856356 -2.1723 0
M  V30 7878 C 729.136 0.189251 -1.69044 0
M  V30 7879 O 730.321 0.0456119 -1.94146 0
M  V30 7880 C 727.451 -0.334662 -3.45684 0
M  V30 7881 C 726.405 -1.31588 -4.0727 0
M  V30 7882 C 725.731 -0.653428 -5.30692 0
M  V30 7883 C 727.031 -2.67866 -4.48381 0
M  V30 7884 H 728.725 -1.76755 -2.41657 0
M  V30 7885 H 726.271 -0.851287 -1.16143 0
M  V30 7886 H 728.224 -0.120128 -4.21229 0
M  V30 7887 H 726.948 0.611967 -3.20815 0
M  V30 7888 H 725.607 -1.51661 -3.33758 0
M  V30 7889 H 725.255 0.299054 -5.0211 0
M  V30 7890 H 724.955 -1.30817 -5.72853 0
M  V30 7891 H 726.479 -0.448453 -6.08951 0
M  V30 7892 H 727.893 -2.51692 -5.15096 0
M  V30 7893 H 726.29 -3.29627 -5.01464 0
M  V30 7894 H 727.36 -3.24632 -3.60198 0
M  V30 7895 N 728.703 1.26451 -0.940633 0
M  V30 7896 C 729.943 1.95537 -0.595381 0
M  V30 7897 C 730.307 1.72175 0.849683 0
M  V30 7898 O 731.508 2.3506 1.30384 0
M  V30 7899 C 729.779 3.45151 -0.927669 0
M  V30 7900 S 731.338 4.33295 -0.69288 0
M  V30 7901 H 728.156 0.676331 -0.219311 0
M  V30 7902 H 730.758 1.53411 -1.21183 0
M  V30 7903 H 729.462 3.59654 -1.9768 0
M  V30 7904 H 728.993 3.92247 -0.300921 0
M  V30 7905 H 731.008 4.94217 0.443175 0
M  V30 7906 N 730.181 0.707592 1.40822 0
M  V30 7907 C 731.597 0.38034 1.55002 0
M  V30 7908 C 731.797 -1.11163 1.68062 0
M  V30 7909 O 730.853 -1.89761 1.66574 0
M  V30 7910 C 732.166 1.1394 2.78277 0
M  V30 7911 C 733.714 1.12492 2.92087 0
M  V30 7912 C 734.189 1.86597 4.18265 0
M  V30 7913 N 735.68 1.83626 4.25248 0
M  V30 7914 C 736.415 2.37794 5.21768 0
M  V30 7915 N 735.911 3.00485 6.24244 0
M  V30 7916 N 737.704 2.27982 5.13791 0
M  V30 7917 H 729.855 1.67511 1.3059 0
M  V30 7918 H 732.118 0.707579 0.630901 0
M  V30 7919 H 731.824 2.19398 2.74877 0
M  V30 7920 H 731.698 0.725793 3.70151 0
M  V30 7921 H 734.085 0.0785564 2.94995 0
M  V30 7922 H 734.166 1.57768 2.01353 0
M  V30 7923 H 733.81 2.91219 4.16118 0
M  V30 7924 H 733.74 1.38746 5.07993 0
M  V30 7925 H 736.231 1.3793 3.51829 0
M  V30 7926 H 736.544 3.39355 6.94304 0
M  V30 7927 H 734.889 3.04567 6.24711 0
M  V30 7928 H 738.08 1.78669 4.3266 0
M  V30 7929 H 738.253 2.70499 5.88841 0
M  V30 7930 N 731.66 -1.50943 0.453197 0
M  V30 7931 C 732.608 -2.29728 -0.364419 0
M  V30 7932 C 733.602 -1.36246 -1.00664 0
M  V30 7933 O 734.808 -1.53518 -0.939794 0
M  V30 7934 H 731.183 -0.739536 -0.136347 0
M  V30 7935 H 733.154 -2.96672 0.320696 0
M  V30 7936 C 731.903 -3.1629 -1.44415 0
M  V30 7937 H 731.226 -3.88119 -0.959343 0
M  V30 7938 H 732.666 -3.74444 -1.98917 0
M  V30 7939 C 731.125 -2.32702 -2.43622 0
M  V30 7940 O 731.655 -1.99763 -3.48508 0
M  V30 7941 N 729.861 -1.95621 -2.14897 0
M  V30 7942 H 729.408 -2.22607 -1.29629 0
M  V30 7943 H 729.366 -1.39993 -2.81513 0
M  V30 7944 N 733.138 -0.185124 -1.56509 0
M  V30 7945 C 734.101 0.72591 -2.17401 0
M  V30 7946 C 735.101 1.14819 -1.12575 0
M  V30 7947 O 736.291 1.0629 -1.38015 0
M  V30 7948 C 733.423 1.98979 -2.76803 0
M  V30 7949 H 734.616 0.195588 -2.99262 0
M  V30 7950 H 732.169 0.0644772 -1.56167 0
M  V30 7951 H 732.904 2.56287 -1.98714 0
M  V30 7952 H 732.689 1.69583 -3.53531 0
M  V30 7953 H 734.179 2.63966 -3.23592 0
M  V30 7954 N 734.616 1.57351 0.0885366 0
M  V30 7955 C 736.032 1.53331 0.442916 0
M  V30 7956 C 736.232 0.902831 1.80142 0
M  V30 7957 O 735.288 0.498147 2.47537 0
M  V30 7958 C 736.601 2.98036 0.399372 0
M  V30 7959 C 738.149 3.09286 0.480759 0
M  V30 7960 C 738.624 4.5561 0.467296 0
M  V30 7961 N 740.115 4.60182 0.52786 0
M  V30 7962 C 740.85 5.70857 0.539388 0
M  V30 7963 N 740.346 6.90944 0.506729 0
M  V30 7964 N 742.139 5.59051 0.584691 0
M  V30 7965 H 734.29 1.96709 -0.801215 0
M  V30 7966 H 736.553 0.899639 -0.298922 0
M  V30 7967 H 736.259 3.47656 -0.531806 0
M  V30 7968 H 736.133 3.57066 1.21589 0
M  V30 7969 H 738.52 2.5965 1.40236 0
M  V30 7970 H 738.601 2.53197 -0.364023 0
M  V30 7971 H 738.245 5.05899 -0.450384 0
M  V30 7972 H 738.175 5.09544 1.32938 0
M  V30 7973 H 740.666 3.73757 0.558028 0
M  V30 7974 H 740.979 7.71055 0.518989 0
M  V30 7975 H 739.324 6.93384 0.473675 0
M  V30 7976 H 742.515 4.64138 0.607781 0
M  V30 7977 H 742.688 6.45307 0.590206 0
M  V30 7978 N 736.094 -0.359525 1.53444 0
M  V30 7979 C 737.004 -1.46445 1.83278 0
M  V30 7980 C 738.02 -1.5833 0.721629 0
M  V30 7981 O 739.196 -1.7411 1.01231 0
M  V30 7982 C 736.261 -2.81638 2.02191 0
M  V30 7983 C 735.322 -2.7923 3.26082 0
M  V30 7984 C 734.555 -4.07974 3.44082 0
M  V30 7985 O 734.778 -5.04447 2.66251 0
M  V30 7986 O 733.712 -4.13417 4.37458 0
M  V30 7987 H 737.538 -1.24156 2.77162 0
M  V30 7988 H 735.123 -0.550201 1.389 0
M  V30 7989 H 737.005 -3.61732 2.16167 0
M  V30 7990 H 735.68 -3.03892 1.11496 0
M  V30 7991 H 734.587 -1.97813 3.17523 0
M  V30 7992 H 735.92 -2.6193 4.16718 0
M  V30 7993 N 737.572 -1.44907 -0.619662 0
M  V30 7994 C 738.505 -1.47133 -1.74434 0
M  V30 7995 C 739.483 -0.328933 -1.59238 0
M  V30 7996 O 740.667 -0.527632 -1.80965 0
M  V30 7997 C 737.794 -1.31491 -3.12134 0
M  V30 7998 C 736.84 -2.49441 -3.4595 0
M  V30 7999 S 737.673 -4.11945 -3.42142 0
M  V30 8000 C 738.829 -3.98747 -4.82443 0
M  V30 8001 H 739.062 -2.42295 -1.7228 0
M  V30 8002 H 736.595 -1.32343 -0.795276 0
M  V30 8003 H 738.553 -1.23153 -3.91591 0
M  V30 8004 H 737.214 -0.378203 -3.11815 0
M  V30 8005 H 736.407 -2.3439 -4.46181 0
M  V30 8006 H 736.009 -2.54577 -2.73982 0
M  V30 8007 H 738.301 -3.63145 -5.71954 0
M  V30 8008 H 739.244 -4.98848 -5.0255 0
M  V30 8009 H 739.652 -3.30608 -4.57557 0
M  V30 8010 N 739.05 0.861098 -1.31996 0
M  V30 8011 C 740.298 1.61162 -1.21947 0
M  V30 8012 C 740.619 1.93751 0.220351 0
M  V30 8013 O 739.889 1.59069 1.14341 0
M  V30 8014 H 738.469 0.597485 -0.448353 0
M  V30 8015 H 741.131 1.03039 -1.65436 0
M  V30 8016 H 740.227 2.55138 -1.79752 0
M  V30 8017 N 740.528 1.15101 1.07655 0
M  V30 8018 C 741.774 0.925343 1.80458 0
M  V30 8019 C 742.107 -0.546354 1.86356 0
M  V30 8020 O 741.382 -1.40496 1.34503 0
M  V30 8021 C 741.665 1.53646 3.25676 0
M  V30 8022 C 741.518 3.07854 3.27942 0
M  V30 8023 C 742.837 1.21968 4.22861 0
M  V30 8024 H 739.956 0.337592 0.655134 0
M  V30 8025 H 742.598 1.42217 1.25993 0
M  V30 8026 H 740.748 1.11395 3.72187 0
M  V30 8027 H 742.42 3.58989 2.89697 0
M  V30 8028 H 740.663 3.41904 2.66991 0
M  V30 8029 H 741.334 3.45725 4.30324 0
M  V30 8030 H 743.81 1.5851 3.84726 0
M  V30 8031 H 742.686 1.67349 5.22767 0
M  V30 8032 H 742.947 0.136207 4.4189 0
M  V30 8033 N 742.006 -1.2595 0.947325 0
M  V30 8034 C 743.253 -1.93463 0.598178 0
M  V30 8035 C 743.581 -1.74271 -0.863705 0
M  V30 8036 O 742.836 -1.07684 -1.63409 0
M  V30 8037 C 743.135 -3.46034 0.894158 0
M  V30 8038 C 742.801 -3.85373 2.3409 0
M  V30 8039 C 741.463 -3.95823 2.73637 0
M  V30 8040 C 743.815 -4.04986 3.2808 0
M  V30 8041 C 741.143 -4.23288 4.06257 0
M  V30 8042 C 743.495 -4.3394 4.60303 0
M  V30 8043 C 742.159 -4.42606 4.99656 0
M  V30 8044 H 741.429 -0.707933 0.218889 0
M  V30 8045 H 744.076 -1.4964 1.19499 0
M  V30 8046 H 742.381 -3.9121 0.214874 0
M  V30 8047 H 744.078 -3.96445 0.602698 0
M  V30 8048 H 740.668 -3.7779 2.02417 0
M  V30 8049 H 744.852 -3.96333 2.9872 0
M  V30 8050 H 740.108 -4.28211 4.36401 0
M  V30 8051 H 744.282 -4.48061 5.33118 0
M  V30 8052 H 741.909 -4.63641 6.02446 0
M  V30 8053 N 743.484 -0.715051 -1.40445 0
M  V30 8054 C 744.417 -0.0112426 -2.28197 0
M  V30 8055 C 745.395 0.768211 -1.43308 0
M  V30 8056 O 746.579 0.754961 -1.72721 0
M  V30 8057 C 743.706 0.991453 -3.23864 0
M  V30 8058 C 742.752 0.302873 -4.25423 0
M  V30 8059 S 743.585 -0.968852 -5.26663 0
M  V30 8060 C 744.741 0.0317538 -6.25892 0
M  V30 8061 H 744.974 -0.755467 -2.87541 0
M  V30 8062 H 742.507 -0.506054 -1.45871 0
M  V30 8063 H 744.465 1.56475 -3.79507 0
M  V30 8064 H 743.126 1.70838 -2.63578 0
M  V30 8065 H 742.319 1.06086 -4.92709 0
M  V30 8066 H 741.921 -0.197853 -3.73476 0
M  V30 8067 H 744.213 0.878764 -6.71777 0
M  V30 8068 H 745.156 -0.607698 -7.05488 0
M  V30 8069 H 745.564 0.39524 -5.63115 0
M  V30 8070 N 744.962 1.50701 -0.461195 0
M  V30 8071 C 746.192 2.06381 0.0950376 0
M  V30 8072 C 746.6 1.32627 1.34933 0
M  V30 8073 O 745.943 0.386137 1.79596 0
M  V30 8074 C 746.005 3.56558 0.458965 0
M  V30 8075 C 745.669 4.51732 -0.691891 0
M  V30 8076 C 746.666 4.95594 -1.57105 0
M  V30 8077 C 744.351 4.94542 -0.879407 0
M  V30 8078 C 746.345 5.80963 -2.62223 0
M  V30 8079 C 744.032 5.79695 -1.93382 0
M  V30 8080 C 745.03 6.22806 -2.80359 0
M  V30 8081 O 744.718 7.06265 -3.83986 0
M  V30 8082 H 744.45 0.676 0.000687488 0
M  V30 8083 H 747.004 1.94974 -0.646087 0
M  V30 8084 H 745.234 3.65832 1.25314 0
M  V30 8085 H 746.923 3.94647 0.949124 0
M  V30 8086 H 747.689 4.63197 -1.43783 0
M  V30 8087 H 743.568 4.60513 -0.211907 0
M  V30 8088 H 747.112 6.14533 -3.30143 0
M  V30 8089 H 743.009 6.11506 -2.06715 0
M  V30 8090 H 743.777 7.24494 -3.80855 0
M  V30 8091 N 746.441 0.193421 1.56409 0
M  V30 8092 C 747.69 -0.445995 1.96707 0
M  V30 8093 C 748.003 -1.62876 1.08309 0
M  V30 8094 O 749.209 -2.33586 1.38383 0
M  V30 8095 C 747.665 -0.844863 3.49843 0
M  V30 8096 C 747.273 0.31352 4.46902 0
M  V30 8097 C 749.017 -1.45146 3.98915 0
M  V30 8098 C 746.924 -0.106214 5.91305 0
M  V30 8099 H 745.854 -0.170398 0.734493 0
M  V30 8100 H 748.505 0.285172 1.81271 0
M  V30 8101 H 746.887 -1.63265 3.60778 0
M  V30 8102 H 748.061 1.09103 4.47698 0
M  V30 8103 H 746.376 0.8315 4.08014 0
M  V30 8104 H 748.973 -1.77792 5.04276 0
M  V30 8105 H 749.316 -2.35734 3.43126 0
M  V30 8106 H 749.849 -0.727675 3.91088 0
M  V30 8107 H 746.588 0.765442 6.51016 0
M  V30 8108 H 746.108 -0.848623 5.93766 0
M  V30 8109 H 747.787 -0.542588 6.44721 0
M  V30 8110 N 747.919 -1.57396 -0.0801906 0
M  V30 8111 C 749.144 -1.91437 -0.797909 0
M  V30 8112 C 749.569 -0.789075 -1.70749 0
M  V30 8113 O 748.927 0.25857 -1.79447 0
M  V30 8114 C 748.975 -3.24402 -1.57467 0
M  V30 8115 O 748.079 -3.13043 -2.68473 0
M  V30 8116 H 747.42 -0.627109 -0.218243 0
M  V30 8117 H 749.95 -2.04537 -0.050949 0
M  V30 8118 H 749.96 -3.58072 -1.95571 0
M  V30 8119 H 748.635 -4.05884 -0.907229 0
M  V30 8120 H 747.212 -2.90915 -2.33287 0
M  V30 8121 N 749.397 0.351382 -1.53633 0
M  V30 8122 C 750.345 1.45142 -1.8176 0
M  V30 8123 C 751.339 1.54819 -0.687571 0
M  V30 8124 O 752.545 1.57536 -0.870772 0
M  V30 8125 H 748.92 0.483789 -0.575719 0
M  V30 8126 H 750.891 1.1863 -2.73806 0
M  V30 8127 C 749.64 2.81779 -2.03706 0
M  V30 8128 H 748.963 2.75097 -2.90107 0
M  V30 8129 H 750.403 3.5789 -2.27356 0
M  V30 8130 C 748.862 3.26762 -0.820271 0
M  V30 8131 O 749.392 4.01697 -0.0158603 0
M  V30 8132 N 747.598 2.83472 -0.639699 0
M  V30 8133 H 747.145 2.22655 -1.29547 0
M  V30 8134 H 747.103 3.13924 0.172995 0
M  V30 8135 N 750.875 1.45233 0.611969 0
M  V30 8136 C 752.291 1.29542 0.932251 0
M  V30 8137 C 752.491 0.24523 2.00002 0
M  V30 8138 O 751.547 -0.362333 2.49887 0
M  V30 8139 C 752.86 2.67301 1.37733 0
M  V30 8140 C 754.408 2.75163 1.49178 0
M  V30 8141 C 754.883 4.13437 1.97064 0
M  V30 8142 N 756.374 4.15709 2.04304 0
M  V30 8143 C 757.109 5.19566 2.42568 0
M  V30 8144 N 756.605 6.33771 2.79832 0
M  V30 8145 N 758.398 5.06923 2.42869 0
M  V30 8146 H 750.549 2.12192 -0.0938679 0
M  V30 8147 H 752.812 0.947775 0.0206569 0
M  V30 8148 H 752.518 3.45318 0.666951 0
M  V30 8149 H 752.392 2.95472 2.3447 0
M  V30 8150 H 754.779 1.97453 2.19309 0
M  V30 8151 H 754.86 2.50712 0.507674 0
M  V30 8152 H 754.504 4.91631 1.27521 0
M  V30 8153 H 754.434 4.35277 2.9638 0
M  V30 8154 H 756.925 3.33293 1.78113 0
M  V30 8155 H 757.238 7.08815 3.07898 0
M  V30 8156 H 755.583 6.37179 2.77538 0
M  V30 8157 H 758.774 4.1675 2.1316 0
M  V30 8158 H 758.947 5.87981 2.72364 0
M  V30 8159 N 752.353 -0.854086 1.3245 0
M  V30 8160 C 753.303 -1.9508 1.18016 0
M  V30 8161 C 754.287 -1.60665 0.0869417 0
M  V30 8162 O 755.479 -1.74201 0.313505 0
M  V30 8163 C 752.608 -3.3113 0.905961 0
M  V30 8164 C 751.694 -3.71763 2.04091 0
M  V30 8165 N 752.085 -3.84218 3.28953 0
M  V30 8166 C 750.383 -4.01393 1.94421 0
M  V30 8167 C 751.084 -4.192 4.03294 0
M  V30 8168 N 750.06 -4.30749 3.31596 0
M  V30 8169 H 753.862 -2.02843 2.12678 0
M  V30 8170 H 751.376 -1.04588 1.24238 0
M  V30 8171 H 753.373 -4.09471 0.783508 0
M  V30 8172 H 752.033 -3.24684 -0.0322715 0
M  V30 8173 H 753.044 -3.68524 3.63883 0
M  V30 8174 H 749.721 -4.03246 1.08162 0
M  V30 8175 H 751.111 -4.36301 5.1097 0
M  V30 8176 N 753.831 -1.1567 -1.07043 0
M  V30 8177 C 754.741 -0.870435 -2.17855 0
M  V30 8178 C 755.757 0.154452 -1.73313 0
M  V30 8179 O 756.933 -0.0203759 -2.0139 0
M  V30 8180 C 753.998 -0.367219 -3.4475 0
M  V30 8181 C 753.059 -1.45639 -4.03841 0
M  V30 8182 C 752.292 -0.977092 -5.2468 0
M  V30 8183 O 752.515 0.176127 -5.70128 0
M  V30 8184 O 751.449 -1.76215 -5.75527 0
M  V30 8185 H 755.275 -1.79687 -2.44839 0
M  V30 8186 H 752.86 -0.936064 -1.1644 0
M  V30 8187 H 754.742 -0.0931947 -4.21297 0
M  V30 8188 H 753.417 0.53131 -3.1931 0
M  V30 8189 H 752.324 -1.78406 -3.28819 0
M  V30 8190 H 753.657 -2.32995 -4.3356 0
M  V30 8191 N 755.309 1.25446 -0.953992 0
M  V30 8192 C 756.556 1.93143 -0.608429 0
M  V30 8193 C 756.884 1.74727 0.854451 0
M  V30 8194 O 756.139 1.0855 1.62836 0
M  V30 8195 C 756.438 3.45555 -0.912496 0
M  V30 8196 C 756.104 3.84126 -2.36131 0
M  V30 8197 C 754.766 3.94367 -2.75732 0
M  V30 8198 C 757.118 4.0324 -3.30223 0
M  V30 8199 C 754.446 4.21127 -4.08496 0
M  V30 8200 C 756.798 4.31493 -4.62598 0
M  V30 8201 C 755.462 4.3995 -5.01996 0
M  V30 8202 H 754.732 0.706762 -0.22264 0
M  V30 8203 H 757.379 1.49005 -1.20291 0
M  V30 8204 H 755.684 3.91091 -0.235618 0
M  V30 8205 H 757.381 3.9612 -0.623714 0
M  V30 8206 H 753.971 3.76711 -2.04418 0
M  V30 8207 H 758.155 3.94744 -3.00817 0
M  V30 8208 H 753.411 4.2589 -4.38665 0
M  V30 8209 H 757.585 4.45227 -5.35486 0
M  V30 8210 H 755.212 4.60439 -6.04896 0
M  V30 8211 N 756.787 0.722489 1.40064 0
M  V30 8212 C 758.035 0.264455 2.00362 0
M  V30 8213 C 758.356 -1.14847 1.57592 0
M  V30 8214 O 757.626 -1.77982 0.818477 0
M  V30 8215 H 756.206 0.0947846 0.740962 0
M  V30 8216 H 758.868 0.929659 1.71299 0
M  V30 8217 H 757.964 0.302977 3.10626 0
M  V30 8218 N 758.265 -1.50454 0.469181 0
M  V30 8219 C 759.681 -1.59124 0.123226 0
M  V30 8220 C 759.881 -1.47749 -1.37013 0
M  V30 8221 O 758.937 -1.335 -2.14322 0
M  V30 8222 C 760.25 -2.93101 0.67172 0
M  V30 8223 C 761.798 -3.06491 0.634978 0
M  V30 8224 C 762.273 -4.43041 1.16098 0
M  V30 8225 N 763.764 -4.49448 1.12031 0
M  V30 8226 C 764.499 -5.53491 1.49784 0
M  V30 8227 N 763.995 -6.64798 1.94976 0
M  V30 8228 N 765.788 -5.44025 1.41399 0
M  V30 8229 H 757.939 -1.56091 1.44046 0
M  V30 8230 H 760.202 -0.737564 0.59557 0
M  V30 8231 H 759.908 -3.06895 1.7178 0
M  V30 8232 H 759.782 -3.77027 0.114222 0
M  V30 8233 H 762.169 -2.92346 -0.402187 0
M  V30 8234 H 762.25 -2.24328 1.22926 0
M  V30 8235 H 761.894 -4.57935 2.19677 0
M  V30 8236 H 761.824 -5.23794 0.542939 0
M  V30 8237 H 764.315 -3.69575 0.788828 0
M  V30 8238 H 764.628 -7.40246 2.21936 0
M  V30 8239 H 762.973 -6.65923 1.98927 0
M  V30 8240 H 766.164 -4.55955 1.05935 0
M  V30 8241 H 766.337 -6.2499 1.71147 0
M  V30 8242 N 759.743 -0.201713 -1.56304 0
M  V30 8243 C 760.673 0.71155 -2.22394 0
M  V30 8244 C 761.654 1.21625 -1.18917 0
M  V30 8245 O 762.839 1.26388 -1.47444 0
M  V30 8246 C 759.969 1.92837 -2.88845 0
M  V30 8247 C 758.923 1.55831 -3.98623 0
M  V30 8248 C 758.249 2.85228 -4.52271 0
M  V30 8249 C 759.549 0.763249 -5.16693 0
M  V30 8250 H 761.243 0.160573 -2.98969 0
M  V30 8251 H 758.789 0.0757916 -1.438 0
M  V30 8252 H 760.742 2.57253 -3.33764 0
M  V30 8253 H 759.466 2.50398 -2.09686 0
M  V30 8254 H 758.125 0.9377 -3.54405 0
M  V30 8255 H 757.773 3.40893 -3.69866 0
M  V30 8256 H 757.473 2.6121 -5.26349 0
M  V30 8257 H 758.997 3.50622 -4.99897 0
M  V30 8258 H 760.411 1.31066 -5.58117 0
M  V30 8259 H 758.808 0.620935 -5.96879 0
M  V30 8260 H 759.878 -0.234322 -4.84334 0
M  V30 8261 N 761.222 1.57436 0.0718424 0
M  V30 8262 C 762.152 2.06724 1.08571 0
M  V30 8263 C 763.133 0.960731 1.40371 0
M  V30 8264 O 764.318 1.23345 1.49999 0
M  V30 8265 C 761.448 2.51112 2.39916 0
M  V30 8266 C 760.402 3.65639 2.22469 0
M  V30 8267 C 759.728 3.96082 3.59198 0
M  V30 8268 C 761.028 4.95687 1.64596 0
M  V30 8269 H 762.722 2.91679 0.675569 0
M  V30 8270 H 760.268 1.40319 0.32352 0
M  V30 8271 H 762.221 2.84206 3.11135 0
M  V30 8272 H 760.945 1.63186 2.8291 0
M  V30 8273 H 759.604 3.32828 1.53691 0
M  V30 8274 H 759.252 3.05287 3.99761 0
M  V30 8275 H 758.952 4.73199 3.48362 0
M  V30 8276 H 760.476 4.31672 4.31847 0
M  V30 8277 H 761.89 5.27011 2.25681 0
M  V30 8278 H 760.287 5.77126 1.64457 0
M  V30 8279 H 761.357 4.8108 0.60744 0
M  V30 8280 N 762.7 -0.34323 1.53817 0
M  V30 8281 C 763.925 -1.1079 1.75329 0
M  V30 8282 C 764.35 -1.81571 0.491293 0
M  V30 8283 O 763.708 -1.72561 -0.556089 0
M  V30 8284 C 763.756 -2.09681 2.9337 0
M  V30 8285 O 762.86 -3.17207 2.63541 0
M  V30 8286 H 762.201 -0.320402 0.581583 0
M  V30 8287 H 764.731 -0.393525 2.0078 0
M  V30 8288 H 764.741 -2.52897 3.20168 0
M  V30 8289 H 763.416 -1.5756 3.84899 0
M  V30 8290 H 761.993 -2.78806 2.47632 0
M  V30 8291 N 764.178 -1.45556 -0.604258 0
M  V30 8292 C 765.406 -1.53278 -1.38973 0
M  V30 8293 C 765.821 -0.166509 -1.88064 0
M  V30 8294 O 765.178 0.832519 -1.62405 0
M  V30 8295 C 765.229 -2.51992 -2.59195 0
M  V30 8296 O 764.95 -3.8331 -2.12143 0
M  V30 8297 C 766.451 -2.69445 -3.52015 0
M  V30 8298 H 763.671 -0.519003 -0.425297 0
M  V30 8299 H 766.215 -1.90773 -0.736621 0
M  V30 8300 H 764.37 -2.17561 -3.2054 0
M  V30 8301 H 764.784 -4.3685 -2.90279 0
M  V30 8302 H 766.258 -3.42485 -4.32907 0
M  V30 8303 H 766.735 -1.75596 -4.0257 0
M  V30 8304 H 767.341 -3.04886 -2.9652 0
M  V30 8305 N 765.656 0.84705 -1.32902 0
M  V30 8306 C 766.619 1.9378 -1.224 0
M  V30 8307 C 767.619 1.60144 -0.145108 0
M  V30 8308 O 768.809 1.69638 -0.396058 0
M  V30 8309 C 765.941 3.29234 -0.884174 0
M  V30 8310 H 767.134 2.04518 -2.19345 0
M  V30 8311 H 764.687 1.03816 -1.16842 0
M  V30 8312 H 765.422 3.24193 0.0831277 0
M  V30 8313 H 765.207 3.55026 -1.6643 0
M  V30 8314 H 766.697 4.09162 -0.835226 0
M  V30 8315 N 767.134 1.16236 1.06428 0
M  V30 8316 C 768.082 0.863669 2.15971 0
M  V30 8317 C 769.076 -0.166723 1.68578 0
M  V30 8318 O 770.282 -0.0208425 1.79988 0
M  V30 8319 H 766.657 0.261684 0.705 0
M  V30 8320 H 768.628 1.79498 2.38376 0
M  V30 8321 C 767.377 0.379697 3.45621 0
M  V30 8322 H 766.7 1.16399 3.82481 0
M  V30 8323 H 768.14 0.209458 4.23482 0
M  V30 8324 C 766.599 -0.900499 3.24642 0
M  V30 8325 O 767.129 -1.97004 3.50074 0
M  V30 8326 N 765.335 -0.843721 2.78082 0
M  V30 8327 H 764.882 0.0268429 2.57586 0
M  V30 8328 H 764.84 -1.70078 2.64425 0
M  V30 8329 N 768.612 -1.24939 0.960631 0
M  V30 8330 C 769.842 -1.96595 0.635123 0
M  V30 8331 C 770.25 -1.71538 -0.798206 0
M  V30 8332 O 769.593 -0.991727 -1.5463 0
M  V30 8333 C 769.655 -3.49994 0.821248 0
M  V30 8334 C 769.319 -3.98738 2.23287 0
M  V30 8335 C 770.316 -4.08965 3.21004 0
M  V30 8336 C 768.001 -4.32247 2.55867 0
M  V30 8337 C 769.995 -4.52025 4.49391 0
M  V30 8338 C 767.682 -4.74991 3.84482 0
M  V30 8339 C 768.68 -4.84844 4.81056 0
M  V30 8340 O 768.368 -5.26638 6.07378 0
M  V30 8341 H 768.1 -0.633265 0.23654 0
M  V30 8342 H 770.654 -1.5991 1.28911 0
M  V30 8343 H 768.884 -3.86543 0.110105 0
M  V30 8344 H 770.573 -4.02859 0.495892 0
M  V30 8345 H 771.339 -3.83302 2.97161 0
M  V30 8346 H 767.218 -4.23801 1.81421 0
M  V30 8347 H 770.762 -4.5963 5.24773 0
M  V30 8348 H 766.659 -5.00101 4.08129 0
M  V30 8349 H 767.427 -5.44807 6.10842 0
M  V30 8350 N 770.09 -0.729906 -1.39679 0
M  V30 8351 C 771.038 -0.0756589 -2.32477 0
M  V30 8352 C 772.032 0.731438 -1.52795 0
M  V30 8353 O 773.238 0.633195 -1.68495 0
M  V30 8354 H 769.613 -0.00566492 -0.751979 0
M  V30 8355 H 771.584 -0.874797 -2.85289 0
M  V30 8356 C 770.333 0.821313 -3.37861 0
M  V30 8357 H 769.656 0.209666 -3.9925 0
M  V30 8358 H 771.096 1.24679 -4.05254 0
M  V30 8359 C 769.555 1.9533 -2.74495 0
M  V30 8360 O 770.085 3.04548 -2.61942 0
M  V30 8361 N 768.291 1.74119 -2.3266 0
M  V30 8362 H 767.838 0.852908 -2.4307 0
M  V30 8363 H 767.796 2.50036 -1.90603 0
M  V30 8364 N 771.568 1.50203 -0.477153 0
M  V30 8365 C 772.796 2.0677 0.0732489 0
M  V30 8366 C 773.211 1.34033 1.32968 0
M  V30 8367 O 772.568 0.411412 1.77802 0
M  V30 8368 C 772.619 3.59751 0.35518 0
M  V30 8369 O 772.34 4.29747 -0.851425 0
M  V30 8370 C 773.841 4.3296 0.951877 0
M  V30 8371 H 771.061 0.670929 -0.00978923 0
M  V30 8372 H 773.605 1.93293 -0.667676 0
M  V30 8373 H 771.76 3.7301 1.04605 0
M  V30 8374 H 772.174 5.2106 -0.599708 0
M  V30 8375 H 773.648 5.40952 1.09888 0
M  V30 8376 H 774.125 3.93856 1.94356 0
M  V30 8377 H 774.731 4.24246 0.299208 0
M  V30 8378 N 773.046 0.209999 1.56195 0
M  V30 8379 C 774.271 -0.433064 2.02828 0
M  V30 8380 C 774.696 -1.5337 1.08901 0
M  V30 8381 O 774.054 -1.81144 0.0751132 0
M  V30 8382 C 774.102 -0.952635 3.47789 0
M  V30 8383 O 773.206 -2.0647 3.56993 0
M  V30 8384 H 772.547 -0.0994594 0.656509 0
M  V30 8385 H 775.077 0.32525 2.01998 0
M  V30 8386 H 775.087 -1.26542 3.8788 0
M  V30 8387 H 773.762 -0.147007 4.1564 0
M  V30 8388 H 772.339 -1.75942 3.28784 0
M  V30 8389 N 774.524 -1.57472 -0.0634922 0
M  V30 8390 C 775.474 -2.00709 -1.08166 0
M  V30 8391 C 776.458 -0.890498 -1.34011 0
M  V30 8392 O 777.65 -1.15441 -1.34173 0
M  V30 8393 C 774.779 -2.46148 -2.39303 0
M  V30 8394 C 773.865 -3.64559 -2.16697 0
M  V30 8395 N 774.256 -4.78459 -1.64043 0
M  V30 8396 C 772.554 -3.71269 -2.47135 0
M  V30 8397 C 773.255 -5.60268 -1.56445 0
M  V30 8398 N 772.231 -5.04357 -2.02792 0
M  V30 8399 H 776.033 -2.86208 -0.668016 0
M  V30 8400 H 773.547 -1.60133 -0.270426 0
M  V30 8401 H 775.544 -2.75367 -3.13016 0
M  V30 8402 H 774.204 -1.62041 -2.81377 0
M  V30 8403 H 775.215 -5.00587 -1.32791 0
M  V30 8404 H 771.892 -2.97891 -2.92518 0
M  V30 8405 H 773.282 -6.6172 -1.16519 0
M  V30 8406 N 776.003 0.335068 -1.53997 0
M  V30 8407 C 777.233 1.0926 -1.75345 0
M  V30 8408 C 777.641 1.82568 -0.496545 0
M  V30 8409 O 776.984 1.75525 0.541897 0
M  V30 8410 C 777.046 2.14473 -2.88516 0
M  V30 8411 C 776.71 1.60665 -4.27827 0
M  V30 8412 C 777.707 1.05448 -5.09094 0
M  V30 8413 C 775.392 1.65255 -4.74337 0
M  V30 8414 C 777.386 0.555372 -6.34976 0
M  V30 8415 C 775.073 1.14956 -6.0019 0
M  V30 8416 C 776.071 0.601907 -6.80343 0
M  V30 8417 O 775.759 0.106445 -8.0383 0
M  V30 8418 H 775.491 0.331329 -0.589234 0
M  V30 8419 H 778.045 0.39042 -2.01655 0
M  V30 8420 H 776.275 2.88274 -2.5775 0
M  V30 8421 H 777.964 2.75857 -2.97755 0
M  V30 8422 H 778.73 1.01218 -4.74321 0
M  V30 8423 H 774.609 2.06822 -4.12002 0
M  V30 8424 H 778.153 0.127245 -6.97484 0
M  V30 8425 H 774.05 1.18891 -6.34457 0
M  V30 8426 H 774.818 0.222944 -8.18196 0
M  V30 8427 N 777.481 1.45874 0.596531 0
M  V30 8428 C 778.429 1.55739 1.72766 0
M  V30 8429 C 779.423 0.426666 1.63939 0
M  V30 8430 O 780.629 0.60301 1.69599 0
M  V30 8431 H 777.004 0.489386 0.570968 0
M  V30 8432 H 778.975 2.50871 1.61575 0
M  V30 8433 C 777.724 1.55174 3.11153 0
M  V30 8434 H 777.047 2.41511 3.1861 0
M  V30 8435 H 778.487 1.66133 3.90097 0
M  V30 8436 C 776.946 0.278001 3.35751 0
M  V30 8437 O 777.476 -0.637557 3.96608 0
M  V30 8438 N 775.682 0.170227 2.90101 0
M  V30 8439 H 775.229 0.916159 2.40758 0
M  V30 8440 H 775.187 -0.68117 3.06932 0
M  V30 8441 N 778.959 -0.83999 1.33349 0
M  V30 8442 C 779.907 -1.97113 1.23488 0
M  V30 8443 C 780.901 -1.68849 0.136503 0
M  V30 8444 O 782.107 -1.77476 0.300389 0
M  V30 8445 H 778.482 -0.647049 0.383185 0
M  V30 8446 H 780.453 -2.02554 2.19122 0
M  V30 8447 C 779.202 -3.33314 0.989815 0
M  V30 8448 H 778.525 -3.556 1.82726 0
M  V30 8449 H 779.965 -4.12963 0.961123 0
M  V30 8450 C 778.424 -3.35496 -0.307272 0
M  V30 8451 O 778.954 -3.79589 -1.31434 0
M  V30 8452 N 777.16 -2.88669 -0.334414 0
M  V30 8453 H 776.707 -2.5298 0.485659 0
M  V30 8454 H 776.665 -2.90512 -1.20209 0
M  V30 8455 N 780.437 -1.16799 -1.0581 0
M  V30 8456 C 781.714 -0.862616 -1.75551 0
M  V30 8457 C 782.094 0.6385 -2.01212 0
M  V30 8458 O 781.442 1.58784 -1.64317 0
M  V30 8459 C 781.652 -1.6907 -3.05314 0
M  V30 8460 C 783 -1.90675 -3.79379 0
M  V30 8461 O 784.024 -1.65976 -3.15167 0
M  V30 8462 O 782.883 -2.32145 -4.94743 0
M  V30 8463 H 779.977 -0.318789 -0.763088 0
M  V30 8464 H 782.523 -1.27461 -1.12034 0
M  V30 8465 H 781.295 -2.70912 -2.82352 0
M  V30 8466 H 780.918 -1.27606 -3.76567 0
M  V30 8467 N 781.915 1.24427 -0.967243 0
M  V30 8468 C 782.845 2.2773 -0.515899 0
M  V30 8469 C 783.826 1.64197 0.444227 0
M  V30 8470 O 785.011 1.91193 0.340451 0
M  V30 8471 C 782.141 3.46751 0.195149 0
M  V30 8472 C 781.095 4.22548 -0.680953 0
M  V30 8473 C 780.421 5.34456 0.161561 0
M  V30 8474 C 781.721 4.83914 -1.96532 0
M  V30 8475 H 783.415 2.65735 -1.37933 0
M  V30 8476 H 780.961 1.27742 -0.664681 0
M  V30 8477 H 782.914 4.18153 0.522117 0
M  V30 8478 H 781.638 3.07771 1.09292 0
M  V30 8479 H 780.297 3.52946 -0.991186 0
M  V30 8480 H 779.945 4.91716 1.05947 0
M  V30 8481 H 779.645 5.86087 -0.421418 0
M  V30 8482 H 781.169 6.08685 0.483211 0
M  V30 8483 H 782.583 5.47392 -1.70396 0
M  V30 8484 H 780.98 5.45775 -2.49499 0
M  V30 8485 H 782.05 4.05393 -2.66053 0
M  V30 8486 N 783.393 0.737304 1.3929 0
M  V30 8487 C 784.639 0.295581 2.01241 0
M  V30 8488 C 784.994 -1.10561 1.57461 0
M  V30 8489 O 784.287 -1.74346 0.7946 0
M  V30 8490 C 784.481 0.338438 3.55794 0
M  V30 8491 C 784.31 1.74225 4.14579 0
M  V30 8492 C 783.08 2.35502 4.47065 0
M  V30 8493 C 785.278 2.69623 4.37959 0
M  V30 8494 N 783.26 3.68014 4.91365 0
M  V30 8495 C 784.631 3.86873 4.84489 0
M  V30 8496 C 786.686 2.67355 4.2003 0
M  V30 8497 C 785.389 5.02193 5.14971 0
M  V30 8498 C 787.415 3.8182 4.51627 0
M  V30 8499 C 786.777 4.97806 4.98366 0
M  V30 8500 H 782.876 0.154468 0.766592 0
M  V30 8501 H 785.46 0.963768 1.69173 0
M  V30 8502 H 783.631 -0.299406 3.87244 0
M  V30 8503 H 785.363 -0.122053 4.04516 0
M  V30 8504 H 782.118 1.87406 4.34943 0
M  V30 8505 H 782.542 4.36051 5.17869 0
M  V30 8506 H 787.184 1.78876 3.83097 0
M  V30 8507 H 784.902 5.913 5.50809 0
M  V30 8508 H 788.488 3.81366 4.39376 0
M  V30 8509 H 787.368 5.84909 5.22351 0
M  V30 8510 N 784.871 -1.49948 0.485112 0
M  V30 8511 C 785.803 -2.26691 -0.338222 0
M  V30 8512 C 786.816 -1.32584 -0.944742 0
M  V30 8513 O 788.005 -1.57989 -0.830772 0
M  V30 8514 C 785.105 -3.04405 -1.48966 0
M  V30 8515 C 784.278 -4.25971 -0.993371 0
M  V30 8516 C 783.337 -4.85861 -2.02052 0
M  V30 8517 O 782.363 -5.46382 -1.59547 0
M  V30 8518 N 783.565 -4.74101 -3.34975 0
M  V30 8519 H 786.33 -2.97989 0.319748 0
M  V30 8520 H 783.891 -1.58772 0.316714 0
M  V30 8521 H 785.883 -3.41348 -2.17403 0
M  V30 8522 H 784.453 -2.35815 -2.05207 0
M  V30 8523 H 783.673 -3.93971 -0.134424 0
M  V30 8524 H 784.961 -5.0476 -0.639934 0
M  V30 8525 H 784.359 -4.26002 -3.72208 0
M  V30 8526 H 782.916 -5.15274 -3.9917 0
M  V30 8527 N 786.349 -0.21828 -1.56081 0
M  V30 8528 C 787.598 0.414644 -1.97392 0
M  V30 8529 C 787.911 1.61132 -1.10887 0
M  V30 8530 O 789.117 2.31355 -1.42082 0
M  V30 8531 C 787.573 0.789099 -3.51143 0
M  V30 8532 C 787.181 -0.384578 -4.46346 0
M  V30 8533 C 788.925 1.38781 -4.01173 0
M  V30 8534 C 786.832 0.0121288 -5.91399 0
M  V30 8535 H 785.762 0.158691 -0.737111 0
M  V30 8536 H 788.413 -0.313974 -1.80794 0
M  V30 8537 H 786.795 1.57505 -3.6333 0
M  V30 8538 H 787.969 -1.16212 -4.45905 0
M  V30 8539 H 786.284 -0.896306 -4.06639 0
M  V30 8540 H 788.881 1.69746 -5.07041 0
M  V30 8541 H 789.224 2.30245 -3.46833 0
M  V30 8542 H 789.757 0.665364 -3.92196 0
M  V30 8543 H 786.496 -0.868917 -6.49715 0
M  V30 8544 H 786.016 0.754053 -5.95041 0
M  V30 8545 H 787.695 0.439949 -6.45502 0
M  V30 8546 N 787.827 1.57504 0.0551401 0
M  V30 8547 C 789.074 1.88055 0.751104 0
M  V30 8548 C 789.402 0.812231 1.76729 0
M  V30 8549 O 788.657 -0.189918 1.94776 0
M  V30 8550 C 788.956 3.25311 1.48013 0
M  V30 8551 C 788.622 4.46858 0.602375 0
M  V30 8552 C 787.284 4.79847 0.360536 0
M  V30 8553 C 789.636 5.212 -0.00524047 0
M  V30 8554 C 786.964 5.84582 -0.498127 0
M  V30 8555 C 789.316 6.26844 -0.851453 0
M  V30 8556 C 787.98 6.58324 -1.103 0
M  V30 8557 H 787.25 0.688142 0.274848 0
M  V30 8558 H 789.897 1.91497 0.0114795 0
M  V30 8559 H 788.202 3.17737 2.29239 0
M  V30 8560 H 789.899 3.46189 2.02371 0
M  V30 8561 H 786.489 4.21049 0.801007 0
M  V30 8562 H 790.673 4.96013 0.168682 0
M  V30 8563 H 785.929 6.07361 -0.701594 0
M  V30 8564 H 790.103 6.83603 -1.32893 0
M  V30 8565 H 787.73 7.39304 -1.77011 0
M  V30 8566 N 789.305 -0.326896 1.54172 0
M  V30 8567 C 790.215 -1.42525 1.86343 0
M  V30 8568 C 791.231 -1.56764 0.75505 0
M  V30 8569 O 792.407 -1.71924 1.04901 0
M  V30 8570 C 789.472 -2.77286 2.08119 0
M  V30 8571 C 788.533 -2.7225 3.31931 0
M  V30 8572 C 787.766 -4.00584 3.52659 0
M  V30 8573 O 787.989 -4.98686 2.76891 0
M  V30 8574 O 786.923 -4.04045 4.46129 0
M  V30 8575 H 790.749 -1.18249 2.79734 0
M  V30 8576 H 788.334 -0.520614 1.40036 0
M  V30 8577 H 790.216 -3.57065 2.23791 0
M  V30 8578 H 788.891 -3.01459 1.17917 0
M  V30 8579 H 787.798 -1.91033 3.21647 0
M  V30 8580 H 789.131 -2.53032 4.2218 0
M  V30 8581 N 790.784 -1.46188 -0.588786 0
M  V30 8582 C 791.732 -1.56653 -1.71938 0
M  V30 8583 C 792.726 -0.435354 -1.6371 0
M  V30 8584 O 793.932 -0.611996 -1.69277 0
M  V30 8585 H 790.307 -0.492408 -0.568365 0
M  V30 8586 H 792.278 -2.51724 -1.60242 0
M  V30 8587 C 791.027 -1.56822 -3.10326 0
M  V30 8588 H 790.35 -2.43198 -3.17325 0
M  V30 8589 H 791.79 -1.68199 -3.89211 0
M  V30 8590 C 790.249 -0.295802 -3.35599 0
M  V30 8591 O 790.779 0.616515 -3.96941 0
M  V30 8592 N 788.985 -0.185609 -2.90007 0
M  V30 8593 H 788.532 -0.928914 -2.40269 0
M  V30 8594 H 788.49 0.664883 -3.07289 0
M  V30 8595 N 792.262 0.832906 -1.33792 0
M  V30 8596 C 793.673 1.40489 -1.22963 0
M  V30 8597 C 794.024 1.95633 0.149026 0
M  V30 8598 O 793.149 1.8928 1.04891 0
M  V30 8599 C 793.744 2.55387 -2.22627 0
M  V30 8600 C 792.303 3.08522 -2.15618 0
M  V30 8601 C 791.45 1.81347 -2.09782 0
M  V30 8602 H 794.401 0.638156 -1.45304 0
M  V30 8603 H 794.422 3.33193 -1.83746 0
M  V30 8604 H 793.934 2.15222 -3.22957 0
M  V30 8605 H 792.035 3.53217 -1.18611 0
M  V30 8606 H 792.148 3.6829 -3.0643 0
M  V30 8607 H 790.512 2.01839 -1.55349 0
M  V30 8608 H 791.295 1.43369 -3.1193 0
M  V30 8609 N 793.74 1.17359 1.05189 0
M  V30 8610 C 794.986 0.963413 1.78455 0
M  V30 8611 C 795.319 -0.506703 1.87473 0
M  V30 8612 O 794.594 -1.37611 1.37453 0
M  V30 8613 C 794.877 1.60519 3.22344 0
M  V30 8614 C 794.73 3.14741 3.21338 0
M  V30 8615 C 796.049 1.3091 4.20179 0
M  V30 8616 H 793.168 0.351412 0.647826 0
M  V30 8617 H 795.81 1.44858 1.22948 0
M  V30 8618 H 793.96 1.19265 3.69741 0
M  V30 8619 H 795.632 3.65053 2.82017 0
M  V30 8620 H 793.875 3.4749 2.59679 0
M  V30 8621 H 794.546 3.54775 4.22894 0
M  V30 8622 H 797.022 1.66635 3.81277 0
M  V30 8623 H 795.898 1.784 5.191 0
M  V30 8624 H 796.159 0.229908 4.41502 0
M  V30 8625 N 795.218 -1.23913 0.973828 0
M  V30 8626 C 796.495 -1.87539 0.555729 0
M  V30 8627 C 796.875 -1.87641 -0.967162 0
M  V30 8628 O 796.223 -1.35335 -1.84111 0
M  V30 8629 C 796.433 -3.29359 1.15427 0
M  V30 8630 C 797.781 -4.06 1.24294 0
M  V30 8631 O 798.805 -3.38554 1.10723 0
M  V30 8632 O 797.664 -5.26689 1.45813 0
M  V30 8633 H 794.758 -0.805769 0.186188 0
M  V30 8634 H 797.304 -1.31838 1.06849 0
M  V30 8635 H 796.076 -3.23817 2.19678 0
M  V30 8636 H 795.699 -3.92642 0.625925 0
M  V30 8637 N 796.696 -0.74468 -1.38897 0
M  V30 8638 C 797.942 -0.306249 -2.01081 0
M  V30 8639 C 798.297 1.09724 -1.58046 0
M  V30 8640 O 797.59 1.73923 -0.803834 0
M  V30 8641 C 797.784 -0.357302 -3.55609 0
M  V30 8642 C 797.613 -1.76421 -4.13649 0
M  V30 8643 C 796.383 -2.3787 -4.4581 0
M  V30 8644 C 798.581 -2.71942 -4.36523 0
M  V30 8645 N 796.563 -3.70614 -4.89406 0
M  V30 8646 C 797.934 -3.89437 -4.8243 0
M  V30 8647 C 799.989 -2.69579 -4.18607 0
M  V30 8648 C 798.692 -5.04917 -5.123 0
M  V30 8649 C 800.718 -3.8421 -4.49596 0
M  V30 8650 C 800.08 -5.00442 -4.95719 0
M  V30 8651 H 796.179 -0.158531 -0.765762 0
M  V30 8652 H 798.763 -0.972726 -1.6866 0
M  V30 8653 H 796.934 0.278865 -3.87398 0
M  V30 8654 H 798.666 0.100599 -4.04575 0
M  V30 8655 H 795.421 -1.8971 -4.33943 0
M  V30 8656 H 795.845 -4.38791 -5.1555 0
M  V30 8657 H 800.487 -1.80905 -3.82143 0
M  V30 8658 H 798.205 -5.94213 -5.47665 0
M  V30 8659 H 801.791 -3.83691 -4.37347 0
M  V30 8660 H 800.671 -5.87671 -5.19242 0
M  V30 8661 N 798.174 1.49689 -0.493057 0
M  V30 8662 C 799.121 2.28976 0.28959 0
M  V30 8663 C 800.091 1.35011 0.967536 0
M  V30 8664 O 801.276 1.63964 0.975736 0
M  V30 8665 C 798.416 3.1748 1.35279 0
M  V30 8666 C 797.529 4.26496 0.687418 0
M  V30 8667 C 796.664 5.02226 1.73038 0
M  V30 8668 C 795.703 6.03089 1.04645 0
M  V30 8669 N 794.84 6.72014 2.03325 0
M  V30 8670 H 799.68 2.954 -0.392798 0
M  V30 8671 H 797.217 1.45657 -0.205554 0
M  V30 8672 H 799.175 3.67162 1.98111 0
M  V30 8673 H 797.805 2.53057 2.00405 0
M  V30 8674 H 796.857 3.80362 -0.0540001 0
M  V30 8675 H 798.169 4.98578 0.14864 0
M  V30 8676 H 797.323 5.55737 2.43395 0
M  V30 8677 H 796.062 4.29899 2.303 0
M  V30 8678 H 795.067 5.48817 0.328606 0
M  V30 8679 H 796.292 6.77398 0.480428 0
M  V30 8680 H 794.238 6.02464 2.59564 0
M  V30 8681 H 794.155 7.40046 1.54492 0
M  V30 8682 H 795.423 7.30133 2.72995 0
M  V30 8683 N 799.652 0.226554 1.55963 0
M  V30 8684 C 800.562 -0.692725 2.24139 0
M  V30 8685 C 801.578 -1.20971 1.25068 0
M  V30 8686 O 802.754 -1.25027 1.57893 0
M  V30 8687 C 799.819 -1.88183 2.91184 0
M  V30 8688 C 798.88 -1.40633 4.05612 0
M  V30 8689 C 798.113 -2.53875 4.6945 0
M  V30 8690 O 798.336 -3.72129 4.32292 0
M  V30 8691 O 797.27 -2.24792 5.58348 0
M  V30 8692 H 801.096 -0.141921 3.03368 0
M  V30 8693 H 798.681 -0.0041049 1.49399 0
M  V30 8694 H 800.563 -2.57617 3.33484 0
M  V30 8695 H 799.238 -2.42064 2.14911 0
M  V30 8696 H 798.145 -0.67986 3.67871 0
M  V30 8697 H 799.478 -0.913838 4.83642 0
M  V30 8698 N 801.13 -1.57531 -0.0467866 0
M  V30 8699 C 802.077 -2.05387 -1.05285 0
M  V30 8700 C 803.047 -0.939385 -1.36985 0
M  V30 8701 O 804.232 -1.20877 -1.47626 0
M  V30 8702 C 801.372 -2.52343 -2.35408 0
M  V30 8703 C 800.485 -3.77512 -2.10022 0
M  V30 8704 C 799.62 -4.1315 -3.33887 0
M  V30 8705 C 798.659 -5.31286 -3.03976 0
M  V30 8706 N 797.796 -5.62441 -4.20243 0
M  V30 8707 H 802.636 -2.91095 -0.637788 0
M  V30 8708 H 800.173 -1.43939 -0.303322 0
M  V30 8709 H 802.131 -2.77628 -3.11413 0
M  V30 8710 H 800.761 -1.69577 -2.7467 0
M  V30 8711 H 799.813 -3.59417 -1.24594 0
M  V30 8712 H 801.125 -4.63644 -1.83945 0
M  V30 8713 H 800.279 -4.39469 -4.18273 0
M  V30 8714 H 799.018 -3.25634 -3.63062 0
M  V30 8715 H 798.023 -5.04738 -2.17991 0
M  V30 8716 H 799.248 -6.20441 -2.76098 0
M  V30 8717 H 797.194 -4.77885 -4.49402 0
M  V30 8718 H 797.111 -6.43046 -3.97528 0
M  V30 8719 H 798.379 -5.93327 -5.05553 0
M  V30 8720 N 802.608 0.318715 -1.54344 0
M  V30 8721 C 803.838 1.07394 -1.76494 0
M  V30 8722 C 804.246 1.82031 -0.515881 0
M  V30 8723 O 803.589 1.7609 0.52325 0
M  V30 8724 C 803.651 2.11401 -2.90775 0
M  V30 8725 C 803.315 1.56118 -4.29507 0
M  V30 8726 C 804.312 1.00043 -5.10184 0
M  V30 8727 C 801.997 1.60215 -4.76063 0
M  V30 8728 C 803.991 0.487993 -6.35529 0
M  V30 8729 C 801.678 1.08584 -6.01376 0
M  V30 8730 C 802.676 0.529714 -6.80943 0
M  V30 8731 O 802.364 0.0211823 -8.03897 0
M  V30 8732 H 802.096 0.325061 -0.592715 0
M  V30 8733 H 804.65 0.36901 -2.02058 0
M  V30 8734 H 802.88 2.85524 -2.60793 0
M  V30 8735 H 804.569 2.72683 -3.00664 0
M  V30 8736 H 805.335 0.961811 -4.75367 0
M  V30 8737 H 801.214 2.02441 -4.14172 0
M  V30 8738 H 804.758 0.0532608 -6.9758 0
M  V30 8739 H 800.655 1.12155 -6.35682 0
M  V30 8740 H 801.423 0.136151 -8.18387 0
M  V30 8741 N 804.086 1.46499 0.581025 0
M  V30 8742 C 805.335 1.51162 1.3354 0
M  V30 8743 C 805.648 0.168433 1.94873 0
M  V30 8744 O 806.854 0.092883 2.71341 0
M  V30 8745 C 805.31 2.66362 2.42032 0
M  V30 8746 C 804.918 4.07109 1.86994 0
M  V30 8747 C 806.662 2.80297 3.188 0
M  V30 8748 C 804.569 5.13645 2.93125 0
M  V30 8749 H 803.499 0.562576 0.502021 0
M  V30 8750 H 806.15 1.72713 0.619863 0
M  V30 8751 H 804.532 2.38143 3.16392 0
M  V30 8752 H 805.706 4.45125 1.19166 0
M  V30 8753 H 804.021 3.97854 1.22887 0
M  V30 8754 H 806.618 3.5706 3.9801 0
M  V30 8755 H 806.961 1.87875 3.71495 0
M  V30 8756 H 807.494 3.0817 2.51547 0
M  V30 8757 H 804.233 6.07866 2.45315 0
M  V30 8758 H 803.753 4.80172 3.59437 0
M  V30 8759 H 805.432 5.39562 3.57046 0
M  V30 8760 N 805.565 -0.825799 1.34232 0
M  V30 8761 C 806.513 -1.95792 1.25572 0
M  V30 8762 C 807.507 -1.68695 0.154404 0
M  V30 8763 O 808.713 -1.77147 0.319196 0
M  V30 8764 H 805.088 -0.642949 0.390027 0
M  V30 8765 H 807.059 -2.00219 2.21258 0
M  V30 8766 C 805.808 -3.32245 1.02511 0
M  V30 8767 H 805.131 -3.53642 1.86487 0
M  V30 8768 H 806.571 -4.1192 1.00487 0
M  V30 8769 C 805.03 -3.35803 -0.27167 0
M  V30 8770 O 805.56 -3.80962 -1.274 0
M  V30 8771 N 803.766 -2.89008 -0.303778 0
M  V30 8772 H 803.313 -2.52451 0.512464 0
M  V30 8773 H 803.271 -2.9177 -1.17121 0
M  V30 8774 N 807.043 -1.17915 -1.04565 0
M  V30 8775 C 808.459 -0.927761 -1.29864 0
M  V30 8776 C 808.659 0.409536 -1.97294 0
M  V30 8777 O 807.715 1.14505 -2.25044 0
M  V30 8778 C 809.028 -2.08967 -2.16225 0
M  V30 8779 C 810.576 -2.12741 -2.29587 0
M  V30 8780 C 811.051 -3.28335 -3.19312 0
M  V30 8781 N 812.542 -3.28164 -3.26898 0
M  V30 8782 C 813.277 -4.14249 -3.96466 0
M  V30 8783 N 812.773 -5.10457 -4.68407 0
M  V30 8784 N 814.566 -4.02179 -3.92694 0
M  V30 8785 H 806.717 -2.03983 -0.592011 0
M  V30 8786 H 808.98 -0.891023 -0.323701 0
M  V30 8787 H 808.686 -3.05654 -1.73979 0
M  V30 8788 H 808.56 -2.04606 -3.16885 0
M  V30 8789 H 810.947 -1.16636 -2.71072 0
M  V30 8790 H 811.028 -2.21162 -1.28535 0
M  V30 8791 H 810.672 -4.2471 -2.78539 0
M  V30 8792 H 810.602 -3.17151 -4.20384 0
M  V30 8793 H 813.093 -2.58511 -2.75646 0
M  V30 8794 H 813.406 -5.72526 -5.1907 0
M  V30 8795 H 811.751 -5.14422 -4.67328 0
M  V30 8796 H 814.942 -3.26308 -3.3562 0
M  V30 8797 H 815.115 -4.69486 -4.4664 0
M  V30 8798 N 808.521 1.23394 -0.980386 0
M  V30 8799 C 809.798 1.87242 -0.565667 0
M  V30 8800 C 810.178 1.88151 0.957197 0
M  V30 8801 O 809.526 1.36309 1.8339 0
M  V30 8802 C 809.736 3.28743 -1.17172 0
M  V30 8803 C 811.084 4.05335 -1.26446 0
M  V30 8804 O 812.108 3.37962 -1.12517 0
M  V30 8805 O 810.967 5.25908 -1.48604 0
M  V30 8806 H 808.061 0.80477 -0.190459 0
M  V30 8807 H 810.607 1.3127 -1.07547 0
M  V30 8808 H 809.379 3.22647 -2.21392 0
M  V30 8809 H 809.002 3.92305 -0.646739 0
M  V30 8810 N 809.999 0.752036 1.385 0
M  V30 8811 C 811.229 0.317812 2.04141 0
M  V30 8812 C 811.637 -1.05822 1.56839 0
M  V30 8813 O 810.98 -1.68311 0.736016 0
M  V30 8814 C 811.042 0.260205 3.58557 0
M  V30 8815 C 810.706 1.57753 4.28909 0
M  V30 8816 C 811.703 2.52642 4.54387 0
M  V30 8817 C 809.388 1.84653 4.67128 0
M  V30 8818 C 811.382 3.72653 5.17116 0
M  V30 8819 C 809.069 3.04938 5.29581 0
M  V30 8820 C 810.067 3.98759 5.54509 0
M  V30 8821 O 809.755 5.16929 6.15662 0
M  V30 8822 H 809.487 0.133931 0.6626 0
M  V30 8823 H 812.041 1.02138 1.78205 0
M  V30 8824 H 810.271 -0.499596 3.83459 0
M  V30 8825 H 811.96 -0.144295 4.05643 0
M  V30 8826 H 812.726 2.33135 4.25292 0
M  V30 8827 H 808.605 1.12464 4.47071 0
M  V30 8828 H 812.149 4.45898 5.36489 0
M  V30 8829 H 808.046 3.24339 5.58099 0
M  V30 8830 H 808.814 5.1749 6.3415 0
M  V30 8831 N 811.477 -1.49425 0.500989 0
M  V30 8832 C 812.702 -2.07356 -0.0425154 0
M  V30 8833 C 813.127 -1.35887 -1.30063 0
M  V30 8834 O 812.485 -0.41561 -1.76472 0
M  V30 8835 C 812.533 -3.59518 -0.279188 0
M  V30 8836 O 811.637 -3.89542 -1.3539 0
M  V30 8837 H 810.978 -0.663482 0.0262207 0
M  V30 8838 H 813.508 -1.92231 0.700607 0
M  V30 8839 H 813.518 -4.04791 -0.5107 0
M  V30 8840 H 812.193 -4.10946 0.640009 0
M  V30 8841 H 810.77 -3.56079 -1.10734 0
M  V30 8842 N 812.955 -0.234822 -1.55841 0
M  V30 8843 C 813.902 0.6698 -2.20867 0
M  V30 8844 C 814.872 1.18042 -1.16856 0
M  V30 8845 O 816.057 1.23709 -1.45261 0
M  V30 8846 C 813.197 1.86646 -2.90271 0
M  V30 8847 C 812.31 1.39351 -4.08908 0
M  V30 8848 C 811.445 2.54878 -4.66059 0
M  V30 8849 C 810.484 2.04384 -5.76969 0
M  V30 8850 N 809.621 3.13233 -6.28355 0
M  V30 8851 H 814.461 0.10858 -2.97802 0
M  V30 8852 H 811.998 0.041836 -1.4704 0
M  V30 8853 H 813.956 2.56926 -3.28702 0
M  V30 8854 H 812.586 2.40035 -2.15831 0
M  V30 8855 H 811.638 0.585173 -3.75872 0
M  V30 8856 H 812.95 0.983356 -4.89011 0
M  V30 8857 H 812.104 3.33219 -5.07001 0
M  V30 8858 H 810.843 2.99188 -3.85146 0
M  V30 8859 H 809.848 1.24509 -5.35516 0
M  V30 8860 H 811.073 1.61057 -6.59725 0
M  V30 8861 H 809.019 3.57 -5.50352 0
M  V30 8862 H 808.936 2.76511 -7.03618 0
M  V30 8863 H 810.204 3.91669 -6.73955 0
M  V30 8864 N 814.433 1.57553 0.0384317 0
M  V30 8865 C 815.682 1.88022 0.730108 0
M  V30 8866 C 815.995 0.83209 1.77019 0
M  V30 8867 O 817.201 1.0257 2.51379 0
M  V30 8868 C 815.657 3.33637 1.3496 0
M  V30 8869 C 815.265 4.46659 0.346352 0
M  V30 8870 C 817.009 3.73266 2.02169 0
M  V30 8871 C 814.916 5.8333 0.973652 0
M  V30 8872 H 813.846 0.701496 0.276442 0
M  V30 8873 H 816.497 1.83493 -0.0158028 0
M  V30 8874 H 814.879 3.32882 2.1449 0
M  V30 8875 H 816.053 4.58868 -0.421558 0
M  V30 8876 H 814.368 4.15802 -0.223133 0
M  V30 8877 H 816.965 4.72689 2.49938 0
M  V30 8878 H 817.308 3.04776 2.8358 0
M  V30 8879 H 817.841 3.76156 1.29427 0
M  V30 8880 H 814.58 6.55197 0.199163 0
M  V30 8881 H 814.1 5.7486 1.71162 0
M  V30 8882 H 815.779 6.29757 1.48376 0
M  V30 8883 N 815.911 -0.310526 1.54511 0
M  V30 8884 C 817.158 -1.04691 1.73338 0
M  V30 8885 C 817.486 -1.87584 0.514038 0
M  V30 8886 O 816.741 -1.89096 -0.504119 0
M  V30 8887 C 817.04 -1.98942 2.96912 0
M  V30 8888 C 816.706 -1.321 4.31115 0
M  V30 8889 C 815.368 -1.13603 4.67598 0
M  V30 8890 C 817.72 -0.842362 5.14348 0
M  V30 8891 C 815.048 -0.459102 5.84901 0
M  V30 8892 C 817.4 -0.179202 6.32346 0
M  V30 8893 C 816.064 0.0178111 6.67498 0
M  V30 8894 H 815.334 -0.38309 0.634289 0
M  V30 8895 H 817.981 -0.322723 1.88761 0
M  V30 8896 H 816.286 -2.77856 2.76231 0
M  V30 8897 H 817.983 -2.55972 3.08674 0
M  V30 8898 H 814.573 -1.47502 4.02419 0
M  V30 8899 H 818.757 -0.973013 4.86668 0
M  V30 8900 H 814.013 -0.295385 6.10686 0
M  V30 8901 H 818.187 0.199619 6.96114 0
M  V30 8902 H 815.814 0.544356 7.58249 0
M  V30 8903 N 817.389 -1.46805 -0.573248 0
M  V30 8904 C 818.617 -1.56191 -1.3569 0
M  V30 8905 C 819.032 -0.206362 -1.87669 0
M  V30 8906 O 818.389 0.797883 -1.64134 0
M  V30 8907 C 818.44 -2.57433 -2.53792 0
M  V30 8908 O 818.161 -3.87724 -2.03965 0
M  V30 8909 C 819.662 -2.76851 -3.4622 0
M  V30 8910 H 816.882 -0.527907 -0.414192 0
M  V30 8911 H 819.426 -1.92292 -0.695989 0
M  V30 8912 H 817.581 -2.24311 -3.15854 0
M  V30 8913 H 817.995 -4.42909 -2.80948 0
M  V30 8914 H 819.469 -3.5159 -4.25545 0
M  V30 8915 H 819.946 -1.84095 -3.98755 0
M  V30 8916 H 820.552 -3.11107 -2.89987 0
M  V30 8917 N 818.867 0.818669 -1.34668 0
M  V30 8918 C 819.777 1.9616 -1.2868 0
M  V30 8919 C 820.793 1.72918 -0.193742 0
M  V30 8920 O 821.969 1.96951 -0.420975 0
M  V30 8921 C 819.034 3.30534 -1.04633 0
M  V30 8922 C 818.095 3.66755 -2.23136 0
M  V30 8923 C 817.328 4.94717 -2.00227 0
M  V30 8924 O 817.551 5.62218 -0.96264 0
M  V30 8925 O 816.485 5.28915 -2.87286 0
M  V30 8926 H 820.311 2.04157 -2.24842 0
M  V30 8927 H 817.896 0.954691 -1.14917 0
M  V30 8928 H 819.778 4.11005 -0.930216 0
M  V30 8929 H 818.453 3.23495 -0.115139 0
M  V30 8930 H 817.36 2.8671 -2.40308 0
M  V30 8931 H 818.693 3.78484 -3.1466 0
M  V30 8932 N 820.346 1.18468 1.03938 0
M  V30 8933 C 821.294 0.909286 2.14091 0
M  V30 8934 C 822.288 -0.130928 1.68893 0
M  V30 8935 O 823.494 0.0173403 1.79992 0
M  V30 8936 H 819.869 0.27658 0.699291 0
M  V30 8937 H 821.84 1.84514 2.34515 0
M  V30 8938 C 820.589 0.452922 3.44737 0
M  V30 8939 H 819.912 1.24485 3.79926 0
M  V30 8940 H 821.352 0.299238 4.22943 0
M  V30 8941 C 819.811 -0.831435 3.26479 0
M  V30 8942 O 820.341 -1.89535 3.54174 0
M  V30 8943 N 818.547 -0.784545 2.79809 0
M  V30 8944 H 818.094 0.0814746 2.57471 0
M  V30 8945 H 818.052 -1.64431 2.67973 0
M  V30 8946 N 821.824 -1.22873 0.986916 0
M  V30 8947 C 823.073 -1.90772 0.654911 0
M  V30 8948 C 823.386 -1.77768 -0.81595 0
M  V30 8949 O 824.592 -2.40529 -1.25929 0
M  V30 8950 C 823.048 -3.42003 1.12081 0
M  V30 8951 C 822.656 -3.63655 2.61647 0
M  V30 8952 C 824.4 -4.15638 0.862854 0
M  V30 8953 C 822.307 -5.08555 3.01871 0
M  V30 8954 H 821.237 -0.714362 0.241252 0
M  V30 8955 H 823.888 -1.39196 1.19568 0
M  V30 8956 H 822.27 -3.92725 0.508207 0
M  V30 8957 H 823.444 -3.2345 3.28202 0
M  V30 8958 H 821.759 -3.03341 2.8526 0
M  V30 8959 H 824.356 -5.22425 1.13915 0
M  V30 8960 H 824.699 -4.15814 -0.201036 0
M  V30 8961 H 825.232 -3.70924 1.43736 0
M  V30 8962 H 821.971 -5.13514 4.07411 0
M  V30 8963 H 821.491 -5.49684 2.40015 0
M  V30 8964 H 823.17 -5.76936 2.92839 0
M  V30 8965 N 823.302 -0.75937 -1.38099 0
M  V30 8966 C 824.548 -0.318584 -2.00282 0
M  V30 8967 C 824.881 1.09854 -1.60143 0
M  V30 8968 O 824.156 1.75344 -0.841702 0
M  V30 8969 C 824.439 -0.448047 -3.57302 0
M  V30 8970 C 824.292 -1.9067 -4.07388 0
M  V30 8971 C 825.611 0.155119 -4.39827 0
M  V30 8972 H 822.73 -0.117233 -0.727616 0
M  V30 8973 H 825.372 -0.960097 -1.63958 0
M  V30 8974 H 823.522 0.0981003 -3.88376 0
M  V30 8975 H 825.194 -2.5116 -3.86932 0
M  V30 8976 H 823.437 -2.41979 -3.6004 0
M  V30 8977 H 824.108 -1.94841 -5.1647 0
M  V30 8978 H 826.584 -0.31073 -4.14938 0
M  V30 8979 H 825.46 0.0343264 -5.48889 0
M  V30 8980 H 825.721 1.24407 -4.24235 0
M  V30 8981 N 824.78 1.49157 -0.508906 0
M  V30 8982 C 825.69 2.33045 0.269656 0
M  V30 8983 C 826.706 1.45143 0.959662 0
M  V30 8984 O 827.882 1.78155 0.939295 0
M  V30 8985 C 824.947 3.20772 1.31554 0
M  V30 8986 C 824.008 4.24531 0.638131 0
M  V30 8987 C 823.241 5.08065 1.63418 0
M  V30 8988 O 823.464 4.93238 2.86483 0
M  V30 8989 O 822.398 5.90117 1.18516 0
M  V30 8990 H 826.224 3.00821 -0.417183 0
M  V30 8991 H 823.809 1.46938 -0.270119 0
M  V30 8992 H 825.691 3.75095 1.92047 0
M  V30 8993 H 824.366 2.55681 1.98516 0
M  V30 8994 H 823.273 3.74099 -0.00674357 0
M  V30 8995 H 824.606 4.92199 0.0108155 0
M  V30 8996 N 826.258 0.243083 1.55714 0
M  V30 8997 C 827.19 -0.690766 2.18543 0
M  V30 8998 C 828.203 -1.14163 1.16064 0
M  V30 8999 O 829.392 -1.06906 1.42946 0
M  V30 9000 C 826.492 -1.95016 2.77168 0
M  V30 9001 C 825.665 -1.65137 4.05029 0
M  V30 9002 C 824.724 -2.75998 4.48009 0
M  V30 9003 O 823.75 -2.43547 5.14464 0
M  V30 9004 N 824.952 -4.05414 4.15476 0
M  V30 9005 H 827.717 -0.153203 2.99308 0
M  V30 9006 H 825.278 0.0628968 1.61778 0
M  V30 9007 H 827.27 -2.68414 3.0288 0
M  V30 9008 H 825.84 -2.39762 2.00582 0
M  V30 9009 H 825.06 -0.752768 3.86946 0
M  V30 9010 H 826.348 -1.42633 4.88399 0
M  V30 9011 H 825.746 -4.34613 3.62116 0
M  V30 9012 H 824.303 -4.75288 4.46032 0
M  V30 9013 N 827.736 -1.57571 -0.0300757 0
M  V30 9014 C 829.147 -1.77567 -0.576802 0
M  V30 9015 C 829.498 -0.874034 -1.75656 0
M  V30 9016 O 828.623 -0.0686124 -2.16291 0
M  V30 9017 C 829.218 -3.22016 -1.05315 0
M  V30 9018 C 827.777 -3.43212 -1.5454 0
M  V30 9019 C 826.924 -2.73061 -0.483033 0
M  V30 9020 H 829.875 -1.57483 0.196151 0
M  V30 9021 H 829.896 -3.28474 -1.92055 0
M  V30 9022 H 829.408 -3.87613 -0.194298 0
M  V30 9023 H 827.509 -2.82788 -2.42615 0
M  V30 9024 H 827.622 -4.5182 -1.5936 0
M  V30 9025 H 825.986 -2.36805 -0.937835 0
M  V30 9026 H 826.769 -3.4134 0.366341 0
M  V30 9027 N 829.214 0.302327 -1.54673 0
M  V30 9028 C 830.454 1.04568 -1.75627 0
M  V30 9029 C 830.818 1.84535 -0.530175 0
M  V30 9030 O 832.019 2.61613 -0.61743 0
M  V30 9031 C 830.29 1.92873 -3.0089 0
M  V30 9032 S 831.849 2.73872 -3.4284 0
M  V30 9033 H 828.667 0.352682 -0.617362 0
M  V30 9034 H 831.269 0.319239 -1.92876 0
M  V30 9035 H 829.973 1.32998 -3.88252 0
M  V30 9036 H 829.504 2.69887 -2.86225 0
M  V30 9037 H 831.519 3.95386 -2.99807 0
M  V30 9038 N 830.692 1.47107 0.565454 0
M  V30 9039 C 832.103 1.47266 1.1476 0
M  V30 9040 C 832.454 0.222841 1.9493 0
M  V30 9041 O 831.579 -0.672862 2.05673 0
M  V30 9042 C 832.174 2.66822 2.08785 0
M  V30 9043 C 830.733 2.69967 2.62288 0
M  V30 9044 C 829.88 2.40236 1.38499 0
M  V30 9045 H 832.831 1.54736 0.352479 0
M  V30 9046 H 832.852 2.43323 2.92531 0
M  V30 9047 H 832.364 3.5777 1.50408 0
M  V30 9048 H 830.465 1.83137 3.24487 0
M  V30 9049 H 830.578 3.70426 3.03845 0
M  V30 9050 H 828.942 1.90648 1.68895 0
M  V30 9051 H 829.725 3.33381 0.819274 0
M  V30 9052 N 832.17 -0.811516 1.35101 0
M  V30 9053 C 833.447 -1.55491 1.18667 0
M  V30 9054 C 833.827 -2.09775 -0.236189 0
M  V30 9055 O 833.175 -1.91989 -1.23905 0
M  V30 9056 C 833.385 -2.66732 2.25067 0
M  V30 9057 C 834.733 -3.35201 2.60625 0
M  V30 9058 O 835.757 -2.76998 2.23943 0
M  V30 9059 O 834.616 -4.40334 3.23679 0
M  V30 9060 H 831.71 -0.686783 0.460716 0
M  V30 9061 H 834.256 -0.851903 1.46768 0
M  V30 9062 H 833.028 -2.24457 3.20523 0
M  V30 9063 H 832.651 -3.44673 1.98208 0
M  V30 9064 N 833.648 -1.19017 -1.03309 0
M  V30 9065 C 834.894 -0.991681 -1.769 0
M  V30 9066 C 835.227 0.476813 -1.88255 0
M  V30 9067 O 834.502 1.35407 -1.39625 0
M  V30 9068 C 834.785 -1.65627 -3.19749 0
M  V30 9069 C 834.638 -3.19813 -3.1629 0
M  V30 9070 C 835.957 -1.37579 -4.18043 0
M  V30 9071 H 833.076 -0.361674 -0.642153 0
M  V30 9072 H 835.718 -1.46795 -1.20628 0
M  V30 9073 H 833.868 -1.25132 -3.67796 0
M  V30 9074 H 835.54 -3.69494 -2.76174 0
M  V30 9075 H 833.783 -3.51578 -2.54117 0
M  V30 9076 H 834.454 -3.61457 -4.17196 0
M  V30 9077 H 836.93 -1.72679 -3.78578 0
M  V30 9078 H 835.806 -1.86636 -5.16196 0
M  V30 9079 H 836.067 -0.300118 -4.4108 0
M  V30 9080 N 835.127 1.22348 -0.993418 0
M  V30 9081 C 836.374 1.9111 -0.669568 0
M  V30 9082 C 836.702 1.77357 0.79843 0
M  V30 9083 O 835.957 1.13675 1.593 0
M  V30 9084 C 836.256 3.42477 -1.02197 0
M  V30 9085 C 835.922 3.7642 -2.48232 0
M  V30 9086 C 834.584 3.85395 -2.88139 0
M  V30 9087 C 836.936 3.9253 -3.42884 0
M  V30 9088 C 834.264 4.07918 -4.21687 0
M  V30 9089 C 836.616 4.16557 -4.76091 0
M  V30 9090 C 835.28 4.23757 -5.15739 0
M  V30 9091 H 834.55 0.699321 -0.245012 0
M  V30 9092 H 837.197 1.45102 -1.2497 0
M  V30 9093 H 835.502 3.90143 -0.359921 0
M  V30 9094 H 837.199 3.93935 -0.74942 0
M  V30 9095 H 833.789 3.70017 -2.16299 0
M  V30 9096 H 837.973 3.84974 -3.13224 0
M  V30 9097 H 833.229 4.11719 -4.51993 0
M  V30 9098 H 837.403 4.27966 -5.4938 0
M  V30 9099 H 835.03 4.40962 -6.19239 0
M  V30 9100 N 836.605 0.766683 1.37694 0
M  V30 9101 C 837.851 0.338201 2.00569 0
M  V30 9102 C 838.206 -1.07196 1.59771 0
M  V30 9103 O 837.499 -1.72622 0.831402 0
M  V30 9104 C 837.693 0.413831 3.54996 0
M  V30 9105 C 837.522 1.8298 4.1079 0
M  V30 9106 C 836.292 2.44932 4.41969 0
M  V30 9107 C 838.49 2.78852 4.32141 0
M  V30 9108 N 836.472 3.78353 4.83448 0
M  V30 9109 C 837.843 3.97063 4.76174 0
M  V30 9110 C 839.898 2.76205 4.14265 0
M  V30 9111 C 838.601 5.13003 5.04203 0
M  V30 9112 C 840.627 3.91314 4.43427 0
M  V30 9113 C 839.989 5.08265 4.87694 0
M  V30 9114 H 836.088 0.170693 0.763143 0
M  V30 9115 H 838.672 0.999435 1.67091 0
M  V30 9116 H 836.843 -0.217198 3.87792 0
M  V30 9117 H 838.575 -0.036222 4.04684 0
M  V30 9118 H 835.33 1.9659 4.3087 0
M  V30 9119 H 835.754 4.46937 5.08504 0
M  V30 9120 H 840.396 1.86962 3.79216 0
M  V30 9121 H 838.114 6.0285 5.38142 0
M  V30 9122 H 841.7 3.906 4.31187 0
M  V30 9123 H 840.58 5.95858 5.09827 0
M  V30 9124 N 838.083 -1.48885 0.516809 0
M  V30 9125 C 839.33 -2.02488 -0.0220602 0
M  V30 9126 C 839.658 -1.39513 -1.35523 0
M  V30 9127 O 838.913 -0.52558 -1.8851 0
M  V30 9128 C 839.212 -3.56801 -0.206798 0
M  V30 9129 C 838.878 -4.38496 1.05035 0
M  V30 9130 C 837.54 -4.60538 1.39492 0
M  V30 9131 C 839.892 -4.85909 1.88525 0
M  V30 9132 C 837.22 -5.2724 2.57361 0
M  V30 9133 C 839.572 -5.53909 3.05561 0
M  V30 9134 C 838.236 -5.74193 3.4038 0
M  V30 9135 H 837.506 -0.740956 -0.00807238 0
M  V30 9136 H 840.153 -1.79014 0.680168 0
M  V30 9137 H 838.458 -3.79042 -0.991687 0
M  V30 9138 H 840.155 -3.95885 -0.638447 0
M  V30 9139 H 836.745 -4.2159 0.771984 0
M  V30 9140 H 840.929 -4.68694 1.63218 0
M  V30 9141 H 836.185 -5.41145 2.84556 0
M  V30 9142 H 840.359 -5.89619 3.7057 0
M  V30 9143 H 837.986 -6.25652 4.31814 0
M  V30 9144 N 839.561 -0.251338 -1.55583 0
M  V30 9145 C 840.972 0.25098 -1.85005 0
M  V30 9146 C 841.323 1.57259 -1.17321 0
M  V30 9147 O 840.448 2.11603 -0.453136 0
M  V30 9148 C 841.043 0.462161 -3.35633 0
M  V30 9149 C 839.602 0.908737 -3.65266 0
M  V30 9150 C 838.749 -0.0115418 -2.77298 0
M  V30 9151 H 841.7 -0.473782 -1.51463 0
M  V30 9152 H 841.721 1.30415 -3.57452 0
M  V30 9153 H 841.233 -0.499886 -3.84867 0
M  V30 9154 H 839.334 1.8831 -3.21512 0
M  V30 9155 H 839.447 0.762526 -4.72993 0
M  V30 9156 H 837.811 0.500612 -2.49732 0
M  V30 9157 H 838.594 -0.969042 -3.29339 0
M  V30 9158 N 841.039 1.57585 0.0217189 0
M  V30 9159 C 842.288 1.88786 0.710125 0
M  V30 9160 C 842.601 0.850819 1.76126 0
M  V30 9161 O 843.807 1.0523 2.50277 0
M  V30 9162 C 842.263 3.3505 1.31413 0
M  V30 9163 C 841.871 4.47001 0.298959 0
M  V30 9164 C 843.615 3.7539 1.98199 0
M  V30 9165 C 841.522 5.8433 0.911727 0
M  V30 9166 H 840.452 0.704388 0.268986 0
M  V30 9167 H 843.103 1.83466 -0.0352638 0
M  V30 9168 H 841.485 3.35138 2.10947 0
M  V30 9169 H 842.659 4.58395 -0.470203 0
M  V30 9170 H 840.974 4.15542 -0.267222 0
M  V30 9171 H 843.571 4.75314 2.4491 0
M  V30 9172 H 843.914 3.07766 2.80331 0
M  V30 9173 H 844.447 3.77508 1.2543 0
M  V30 9174 H 841.186 6.55372 0.129659 0
M  V30 9175 H 840.706 5.76643 1.65056 0
M  V30 9176 H 842.385 6.31295 1.41688 0
M  V30 9177 N 842.517 -0.29412 1.54831 0
M  V30 9178 C 843.764 -1.02846 1.74439 0
M  V30 9179 C 844.092 -1.87029 0.533905 0
M  V30 9180 O 843.347 -1.8962 -0.484035 0
M  V30 9181 C 843.646 -1.95782 2.99006 0
M  V30 9182 C 843.312 -1.2752 4.32492 0
M  V30 9183 C 841.974 -1.08637 4.68777 0
M  V30 9184 C 844.326 -0.787761 5.15212 0
M  V30 9185 C 841.654 -0.39704 5.85355 0
M  V30 9186 C 844.006 -0.112123 6.32501 0
M  V30 9187 C 842.67 0.0886071 6.67441 0
M  V30 9188 H 841.94 -0.376341 0.638317 0
M  V30 9189 H 844.587 -0.302684 1.89093 0
M  V30 9190 H 842.892 -2.74911 2.79162 0
M  V30 9191 H 844.589 -2.52684 3.11371 0
M  V30 9192 H 841.179 -1.43226 4.03961 0
M  V30 9193 H 845.363 -0.921341 4.87673 0
M  V30 9194 H 840.619 -0.230597 6.10965 0
M  V30 9195 H 844.793 0.27344 6.95863 0
M  V30 9196 H 842.42 0.624748 7.57628 0
M  V30 9197 N 843.995 -1.47404 -0.557645 0
M  V30 9198 C 845.22 -1.57868 -1.34508 0
M  V30 9199 C 845.645 -0.229151 -1.86699 0
M  V30 9200 O 845.003 0.794908 -1.62944 0
M  V30 9201 C 845.051 -2.60712 -2.49122 0
M  V30 9202 O 844.155 -2.15952 -3.51338 0
M  V30 9203 H 843.496 -0.530335 -0.399551 0
M  V30 9204 H 846.026 -1.93181 -0.673954 0
M  V30 9205 H 846.036 -2.81118 -2.95697 0
M  V30 9206 H 844.711 -3.58701 -2.10491 0
M  V30 9207 H 843.288 -2.05644 -3.11071 0
M  V30 9208 N 845.473 0.80434 -1.35529 0
M  V30 9209 C 846.383 1.94784 -1.30753 0
M  V30 9210 C 847.399 1.72703 -0.212071 0
M  V30 9211 O 848.575 1.96494 -0.441841 0
M  V30 9212 C 845.64 3.29406 -1.08133 0
M  V30 9213 C 844.701 3.64367 -2.27013 0
M  V30 9214 C 843.934 4.92566 -2.05463 0
M  V30 9215 O 844.157 5.61166 -1.02222 0
M  V30 9216 O 843.091 5.25838 -2.92879 0
M  V30 9217 H 846.917 2.01761 -2.26994 0
M  V30 9218 H 844.502 0.942448 -1.15924 0
M  V30 9219 H 846.384 4.09995 -0.973756 0
M  V30 9220 H 845.059 3.23355 -0.149444 0
M  V30 9221 H 843.966 2.84146 -2.43335 0
M  V30 9222 H 845.299 3.75125 -3.18656 0
M  V30 9223 N 846.951 1.19563 1.02676 0
M  V30 9224 C 847.898 0.935291 2.11 0
M  V30 9225 C 848.868 -0.130685 1.65585 0
M  V30 9226 O 850.053 0.0119062 1.90796 0
M  V30 9227 C 847.193 0.482384 3.41712 0
M  V30 9228 C 846.306 1.61537 4.00662 0
M  V30 9229 C 845.441 1.11378 5.19392 0
M  V30 9230 C 844.48 2.22052 5.70403 0
M  V30 9231 N 843.617 1.73185 6.80405 0
M  V30 9232 H 848.457 1.86275 2.32606 0
M  V30 9233 H 845.994 0.928656 1.14081 0
M  V30 9234 H 847.952 0.20118 4.16715 0
M  V30 9235 H 846.582 -0.408086 3.2021 0
M  V30 9236 H 845.634 2.01173 3.22852 0
M  V30 9237 H 846.946 2.44912 4.34534 0
M  V30 9238 H 846.1 0.787935 6.01562 0
M  V30 9239 H 844.839 0.249789 4.8706 0
M  V30 9240 H 843.844 2.55465 4.86845 0
M  V30 9241 H 845.069 3.08911 6.04774 0
M  V30 9242 H 843.015 0.890973 6.49921 0
M  V30 9243 H 842.932 2.50148 7.13416 0
M  V30 9244 H 844.2 1.4357 7.66164 0
M  V30 9245 N 848.429 -1.21819 0.999893 0
M  V30 9246 C 849.392 -2.22227 0.561044 0
M  V30 9247 C 850.392 -1.56722 -0.359858 0
M  V30 9248 O 851.582 -1.73546 -0.150848 0
M  V30 9249 C 848.714 -3.40409 -0.182987 0
M  V30 9250 H 849.907 -2.62567 1.44909 0
M  V30 9251 H 847.46 -1.34991 0.78785 0
M  V30 9252 H 848.195 -3.05551 -1.08671 0
M  V30 9253 H 847.98 -3.89171 0.47833 0
M  V30 9254 H 849.47 -4.14856 -0.477952 0
M  V30 9255 N 849.908 -0.773975 -1.37286 0
M  V30 9256 C 851.148 -0.344505 -2.01476 0
M  V30 9257 C 851.512 1.05966 -1.6011 0
M  V30 9258 O 852.713 1.58937 -2.16778 0
M  V30 9259 C 850.984 -0.485816 -3.54083 0
M  V30 9260 S 852.543 -0.141939 -4.3857 0
M  V30 9261 H 849.361 -0.13243 -0.698558 0
M  V30 9262 H 851.963 -1.00908 -1.67445 0
M  V30 9263 H 850.667 -1.50835 -3.81677 0
M  V30 9264 H 850.198 0.195232 -3.92915 0
M  V30 9265 H 852.213 1.06177 -4.84707 0
M  V30 9266 N 851.386 1.48609 -0.524698 0
M  V30 9267 C 852.663 1.95454 0.075465 0
M  V30 9268 C 853.043 1.46682 1.51814 0
M  V30 9269 O 852.391 0.690975 2.17802 0
M  V30 9270 C 852.601 3.48981 -0.0363273 0
M  V30 9271 C 853.949 4.24414 0.125624 0
M  V30 9272 O 854.973 3.5618 0.0377239 0
M  V30 9273 O 853.832 5.45625 0.309104 0
M  V30 9274 H 850.926 0.822902 0.0822256 0
M  V30 9275 H 853.472 1.59153 -0.588921 0
M  V30 9276 H 852.244 3.77185 -1.04149 0
M  V30 9277 H 851.867 3.91963 0.667146 0
M  V30 9278 N 852.864 0.259585 1.55447 0
M  V30 9279 C 853.774 -0.645026 2.25558 0
M  V30 9280 C 854.79 -1.18291 1.27606 0
M  V30 9281 O 855.966 -1.21649 1.6051 0
M  V30 9282 C 853.031 -1.81964 2.9511 0
M  V30 9283 C 852.092 -1.31997 4.08504 0
M  V30 9284 C 851.325 -2.43861 4.74729 0
M  V30 9285 O 851.548 -3.62876 4.40088 0
M  V30 9286 O 850.482 -2.12898 5.6299 0
M  V30 9287 H 854.308 -0.0775399 3.03601 0
M  V30 9288 H 851.893 0.0275859 1.49375 0
M  V30 9289 H 853.775 -2.50485 3.38873 0
M  V30 9290 H 852.45 -2.37451 2.19997 0
M  V30 9291 H 851.357 -0.601676 3.6923 0
M  V30 9292 H 852.69 -0.811045 4.85472 0
M  V30 9293 N 854.342 -1.57594 -0.0133615 0
M  V30 9294 C 855.272 -2.10611 -1.00823 0
M  V30 9295 C 856.253 -1.01217 -1.36708 0
M  V30 9296 O 857.438 -1.28827 -1.45318 0
M  V30 9297 C 854.568 -2.59844 -2.30431 0
M  V30 9298 C 853.522 -3.73644 -2.08745 0
M  V30 9299 C 852.848 -4.09141 -3.4425 0
M  V30 9300 C 854.148 -5.01454 -1.46086 0
M  V30 9301 H 855.842 -2.93985 -0.566849 0
M  V30 9302 H 853.388 -1.41423 -0.271219 0
M  V30 9303 H 855.341 -2.95557 -3.00373 0
M  V30 9304 H 854.065 -1.73573 -2.76658 0
M  V30 9305 H 852.724 -3.38303 -1.41232 0
M  V30 9306 H 852.372 -3.19914 -3.88155 0
M  V30 9307 H 852.072 -4.85802 -3.3056 0
M  V30 9308 H 853.596 -4.47402 -4.15528 0
M  V30 9309 H 855.01 -5.35024 -2.05966 0
M  V30 9310 H 853.407 -5.82832 -1.42924 0
M  V30 9311 H 854.477 -4.83003 -0.428471 0
M  V30 9312 N 855.82 0.285905 -1.54985 0
M  V30 9313 C 857.066 1.02071 -1.75241 0
M  V30 9314 C 857.399 1.864 -0.544842 0
M  V30 9315 O 856.674 1.89034 0.457844 0
M  V30 9316 C 856.957 1.91409 -3.05016 0
M  V30 9317 C 856.81 1.10158 -4.36102 0
M  V30 9318 C 858.129 2.90335 -3.30747 0
M  V30 9319 H 855.248 0.369663 -0.637588 0
M  V30 9320 H 857.89 0.294114 -1.8771 0
M  V30 9321 H 856.04 2.53362 -2.94517 0
M  V30 9322 H 857.712 0.503756 -4.58541 0
M  V30 9323 H 855.955 0.404675 -4.31908 0
M  V30 9324 H 856.626 1.75956 -5.23205 0
M  V30 9325 H 859.102 2.38514 -3.40955 0
M  V30 9326 H 857.978 3.49997 -4.2284 0
M  V30 9327 H 858.239 3.64787 -2.49765 0
M  V30 9328 N 857.298 1.47698 0.54982 0
M  V30 9329 C 858.208 1.63386 1.68351 0
M  V30 9330 C 859.224 0.516583 1.66155 0
M  V30 9331 O 860.4 0.785088 1.85468 0
M  V30 9332 C 857.465 1.6513 3.04849 0
M  V30 9333 C 856.526 2.88338 3.18056 0
M  V30 9334 C 855.759 2.8999 4.48042 0
M  V30 9335 O 855.982 2.00633 5.3395 0
M  V30 9336 O 854.916 3.81938 4.65196 0
M  V30 9337 H 858.742 2.59329 1.58057 0
M  V30 9338 H 856.327 1.30869 0.72067 0
M  V30 9339 H 858.209 1.68913 3.86065 0
M  V30 9340 H 856.884 0.723555 3.1551 0
M  V30 9341 H 855.791 2.90097 2.36209 0
M  V30 9342 H 857.124 3.80431 3.12302 0
M  V30 9343 N 858.776 -0.797141 1.35954 0
M  V30 9344 C 859.686 -1.94088 1.31784 0
M  V30 9345 C 860.702 -1.72588 0.221227 0
M  V30 9346 O 861.878 -1.96256 0.452255 0
M  V30 9347 C 858.943 -3.28828 1.09878 0
M  V30 9348 C 858.004 -3.63158 2.28942 0
M  V30 9349 C 857.237 -4.91469 2.08072 0
M  V30 9350 O 857.46 -5.60616 1.05196 0
M  V30 9351 O 856.394 -5.24277 2.95664 0
M  V30 9352 H 860.22 -2.00554 2.28061 0
M  V30 9353 H 857.805 -0.936288 1.16422 0
M  V30 9354 H 859.687 -4.09473 0.995485 0
M  V30 9355 H 858.362 -3.23271 0.16659 0
M  V30 9356 H 857.269 -2.82851 2.44839 0
M  V30 9357 H 858.602 -3.7343 3.20641 0
M  V30 9358 N 860.254 -1.20106 -1.0204 0
M  V30 9359 C 861.187 -0.889795 -2.10138 0
M  V30 9360 C 862.165 0.156595 -1.61844 0
M  V30 9361 O 863.349 0.0310192 -1.88474 0
M  V30 9362 C 860.476 -0.333227 -3.37057 0
M  V30 9363 C 859.522 -1.36001 -4.04235 0
M  V30 9364 S 860.355 -2.92366 -4.48645 0
M  V30 9365 C 861.511 -2.38274 -5.78771 0
M  V30 9366 H 861.744 -1.80523 -2.36217 0
M  V30 9367 H 859.277 -1.02912 -1.15102 0
M  V30 9368 H 861.235 -0.0186507 -4.10496 0
M  V30 9369 H 859.896 0.560652 -3.09056 0
M  V30 9370 H 859.089 -0.919874 -4.95534 0
M  V30 9371 H 858.691 -1.62186 -3.37004 0
M  V30 9372 H 860.983 -1.77799 -6.53754 0
M  V30 9373 H 861.926 -3.27955 -6.27576 0
M  V30 9374 H 862.334 -1.8054 -5.34851 0
M  V30 9375 N 861.732 1.21287 -1.00634 0
M  V30 9376 C 862.642 2.27388 -0.577226 0
M  V30 9377 C 863.658 1.69791 0.380399 0
M  V30 9378 O 864.834 1.99918 0.2439 0
M  V30 9379 C 861.899 3.46588 0.0880532 0
M  V30 9380 C 860.96 4.19453 -0.914222 0
M  V30 9381 C 860.193 5.32962 -0.280596 0
M  V30 9382 O 860.416 5.62895 0.922265 0
M  V30 9383 O 859.35 5.93666 -0.992196 0
M  V30 9384 H 863.176 2.66289 -1.46028 0
M  V30 9385 H 860.761 1.2771 -0.775283 0
M  V30 9386 H 862.643 4.18881 0.460094 0
M  V30 9387 H 861.318 3.09585 0.945461 0
M  V30 9388 H 860.225 3.49376 -1.33744 0
M  V30 9389 H 861.558 4.6037 -1.74126 0
M  V30 9390 N 863.21 0.781244 1.36873 0
M  V30 9391 C 864.16 0.147313 2.27524 0
M  V30 9392 C 865.144 -0.663928 1.46563 0
M  V30 9393 O 866.336 -0.525343 1.69024 0
M  V30 9394 C 863.465 -0.723511 3.35589 0
M  V30 9395 C 862.551 0.0960763 4.23991 0
M  V30 9396 N 862.942 1.14649 4.92635 0
M  V30 9397 C 861.24 -0.126397 4.45821 0
M  V30 9398 C 861.941 1.64474 5.57964 0
M  V30 9399 N 860.917 0.955316 5.3514 0
M  V30 9400 H 864.719 0.951406 2.78075 0
M  V30 9401 H 862.233 0.619913 1.50103 0
M  V30 9402 H 864.23 -1.19351 3.99451 0
M  V30 9403 H 862.89 -1.52624 2.86594 0
M  V30 9404 H 863.901 1.5288 4.94821 0
M  V30 9405 H 860.578 -0.900284 4.07678 0
M  V30 9406 H 861.968 2.52124 6.22803 0
M  V30 9407 N 864.689 -1.48329 0.532571 0
M  V30 9408 C 865.919 -2.066 0.00353785 0
M  V30 9409 C 866.327 -1.38913 -1.28451 0
M  V30 9410 O 865.67 -0.471385 -1.77549 0
M  V30 9411 C 865.732 -3.58342 -0.288324 0
M  V30 9412 C 865.396 -4.47917 0.906631 0
M  V30 9413 C 866.393 -4.87534 1.80572 0
M  V30 9414 C 864.078 -4.89783 1.11436 0
M  V30 9415 C 866.072 -5.6779 2.89642 0
M  V30 9416 C 863.759 -5.69809 2.20819 0
M  V30 9417 C 864.757 -6.08721 3.09755 0
M  V30 9418 O 864.445 -6.8714 4.17246 0
M  V30 9419 H 864.177 -0.675263 0.0315661 0
M  V30 9420 H 866.731 -1.91669 0.738375 0
M  V30 9421 H 864.961 -3.71395 -1.07717 0
M  V30 9422 H 866.65 -3.98726 -0.759752 0
M  V30 9423 H 867.416 -4.5581 1.65719 0
M  V30 9424 H 863.295 -4.58977 0.431382 0
M  V30 9425 H 866.839 -5.98082 3.59087 0
M  V30 9426 H 862.736 -6.00947 2.35655 0
M  V30 9427 H 863.504 -7.05498 4.14988 0
M  V30 9428 N 866.167 -0.267825 -1.55308 0
M  V30 9429 C 867.415 0.350343 -1.9904 0
M  V30 9430 C 867.736 1.56924 -1.15758 0
M  V30 9431 O 867.006 1.94358 -0.245336 0
M  V30 9432 H 865.586 0.132435 -0.735167 0
M  V30 9433 H 868.248 -0.371471 -1.91327 0
M  V30 9434 H 867.344 0.645203 -3.05358 0
M  V30 9435 N 867.645 1.57599 0.00500368 0
M  V30 9436 C 868.592 2.08106 0.998025 0
M  V30 9437 C 869.562 0.975374 1.34446 0
M  V30 9438 O 870.747 1.24749 1.44369 0
M  V30 9439 C 867.887 2.58496 2.28635 0
M  V30 9440 C 867 3.82947 1.99939 0
M  V30 9441 C 866.135 4.21857 3.22816 0
M  V30 9442 C 865.174 5.39159 2.89783 0
M  V30 9443 N 864.311 5.73386 4.05183 0
M  V30 9444 H 869.151 2.92684 0.560385 0
M  V30 9445 H 866.688 1.44692 0.265053 0
M  V30 9446 H 868.646 2.85787 3.03943 0
M  V30 9447 H 867.276 1.768 2.70077 0
M  V30 9448 H 866.328 3.62594 1.1502 0
M  V30 9449 H 867.64 4.68358 1.71588 0
M  V30 9450 H 866.794 4.50404 4.06474 0
M  V30 9451 H 865.533 3.35145 3.54301 0
M  V30 9452 H 864.538 5.1034 2.04532 0
M  V30 9453 H 865.763 6.27543 2.59551 0
M  V30 9454 H 863.709 4.89632 4.36574 0
M  V30 9455 H 863.626 6.53359 3.80339 0
M  V30 9456 H 864.894 6.06522 4.89644 0
M  V30 9457 N 869.123 -0.277682 1.55134 0
M  V30 9458 C 870.369 -1.00733 1.76704 0
M  V30 9459 C 870.724 -1.84107 0.55879 0
M  V30 9460 O 870.017 -1.86275 -0.448591 0
M  V30 9461 C 870.211 -1.92599 3.01065 0
M  V30 9462 C 870.04 -1.18266 4.3387 0
M  V30 9463 C 868.81 -0.900254 4.97216 0
M  V30 9464 C 871.008 -0.575419 5.11071 0
M  V30 9465 N 868.99 -0.129637 6.13763 0
M  V30 9466 C 870.361 0.0612637 6.1997 0
M  V30 9467 C 872.416 -0.482794 4.95554 0
M  V30 9468 C 871.119 0.781637 7.15041 0
M  V30 9469 C 873.145 0.223977 5.90976 0
M  V30 9470 C 872.507 0.849416 6.9926 0
M  V30 9471 H 868.606 -0.35075 0.698927 0
M  V30 9472 H 871.19 -0.283482 1.92625 0
M  V30 9473 H 869.361 -2.62214 2.86528 0
M  V30 9474 H 871.093 -2.5889 3.1106 0
M  V30 9475 H 867.848 -1.20434 4.58031 0
M  V30 9476 H 868.272 0.242865 6.76564 0
M  V30 9477 H 872.914 -0.952023 4.11942 0
M  V30 9478 H 870.632 1.26256 7.98176 0
M  V30 9479 H 874.218 0.2959 5.81047 0
M  V30 9480 H 873.098 1.3876 7.71826 0
M  V30 9481 N 870.601 -1.47988 -0.541979 0
M  V30 9482 C 871.826 -1.59286 -1.32826 0
M  V30 9483 C 872.251 -0.24894 -1.86445 0
M  V30 9484 O 871.609 0.777581 -1.63778 0
M  V30 9485 C 871.657 -2.6334 -2.46343 0
M  V30 9486 O 870.761 -2.19667 -3.49028 0
M  V30 9487 H 870.102 -0.534543 -0.393903 0
M  V30 9488 H 872.632 -1.93885 -0.653427 0
M  V30 9489 H 872.642 -2.84238 -2.92699 0
M  V30 9490 H 871.317 -3.60913 -2.06675 0
M  V30 9491 H 869.894 -2.08932 -3.08872 0
M  V30 9492 N 872.079 0.78992 -1.36375 0
M  V30 9493 C 873.327 1.54472 -1.30319 0
M  V30 9494 C 873.648 1.94647 0.117338 0
M  V30 9495 O 872.918 1.64906 1.05748 0
M  V30 9496 H 871.498 0.572879 -0.479394 0
M  V30 9497 H 874.16 0.941245 -1.70665 0
M  V30 9498 H 873.256 2.45252 -1.93024 0
M  V30 9499 N 873.557 1.20646 1.01402 0
M  V30 9500 C 874.805 1.01618 1.74695 0
M  V30 9501 C 875.126 -0.452438 1.89679 0
M  V30 9502 O 874.396 -1.32693 1.44116 0
M  V30 9503 H 872.976 0.373013 0.647202 0
M  V30 9504 H 875.638 1.518 1.22241 0
M  V30 9505 H 874.734 1.47666 2.74957 0
M  V30 9506 N 875.035 -1.20752 1.01276 0
M  V30 9507 C 875.982 -2.234 0.579732 0
M  V30 9508 C 876.952 -1.61256 -0.398206 0
M  V30 9509 O 878.137 -1.8845 -0.29851 0
M  V30 9510 C 875.277 -3.45008 -0.0797006 0
M  V30 9511 C 874.39 -4.21597 0.942343 0
M  V30 9512 C 873.525 -5.30591 0.254364 0
M  V30 9513 C 872.564 -5.98919 1.26343 0
M  V30 9514 N 871.701 -6.99511 0.602384 0
M  V30 9515 H 876.541 -2.59801 1.45971 0
M  V30 9516 H 874.078 -1.27663 0.730787 0
M  V30 9517 H 876.036 -4.1444 -0.479125 0
M  V30 9518 H 874.666 -3.09312 -0.923354 0
M  V30 9519 H 873.718 -3.51268 1.45996 0
M  V30 9520 H 875.03 -4.68576 1.70992 0
M  V30 9521 H 874.184 -6.06368 -0.200763 0
M  V30 9522 H 872.923 -4.84639 -0.545553 0
M  V30 9523 H 871.928 -5.21906 1.72898 0
M  V30 9524 H 873.153 -6.46957 2.06456 0
M  V30 9525 H 871.099 -6.55759 -0.177734 0
M  V30 9526 H 871.016 -7.44597 1.30809 0
M  V30 9527 H 872.284 -7.79313 0.17072 0
M  V30 9528 N 876.513 -0.788492 -1.36457 0
M  V30 9529 C 877.463 -0.159377 -2.27442 0
M  V30 9530 C 878.447 0.656146 -1.46913 0
M  V30 9531 O 879.639 0.516372 -1.693 0
M  V30 9532 C 876.768 0.705703 -3.35968 0
M  V30 9533 C 875.854 -0.11856 -4.23934 0
M  V30 9534 N 876.245 -1.1726 -4.9202 0
M  V30 9535 C 874.543 0.102752 -4.45882 0
M  V30 9536 C 875.244 -1.6743 -5.57083 0
M  V30 9537 N 874.22 -0.983682 -5.34626 0
M  V30 9538 H 878.022 -0.96614 -2.77566 0
M  V30 9539 H 875.536 -0.627864 -1.49772 0
M  V30 9540 H 877.533 1.17231 -4.00078 0
M  V30 9541 H 876.193 1.51102 -2.87399 0
M  V30 9542 H 877.204 -1.55502 -4.94004 0
M  V30 9543 H 873.881 0.878651 -4.08149 0
M  V30 9544 H 875.271 -2.55423 -6.21457 0
M  V30 9545 N 877.991 1.48044 -0.54043 0
M  V30 9546 C 878.941 2.26768 0.236657 0
M  V30 9547 C 879.925 1.33341 0.900505 0
M  V30 9548 O 881.117 1.57809 0.801584 0
M  V30 9549 C 878.246 3.18685 1.27651 0
M  V30 9550 C 877.332 4.19589 0.616923 0
M  V30 9551 N 877.723 5.04889 -0.303377 0
M  V30 9552 C 876.021 4.37375 0.872879 0
M  V30 9553 C 876.722 5.77654 -0.684905 0
M  V30 9554 N 875.698 5.43583 -0.0435728 0
M  V30 9555 H 879.5 2.90098 -0.471183 0
M  V30 9556 H 877.014 1.58378 -0.359183 0
M  V30 9557 H 879.011 3.73752 1.84702 0
M  V30 9558 H 877.671 2.56911 1.98562 0
M  V30 9559 H 878.682 5.13461 -0.676591 0
M  V30 9560 H 875.359 3.86784 1.57177 0
M  V30 9561 H 876.749 6.56285 -1.44015 0
M  V30 9562 N 879.47 0.276058 1.55163 0
M  V30 9563 C 880.747 -0.392292 1.91626 0
M  V30 9564 C 881.127 -1.73646 1.20043 0
M  V30 9565 O 880.475 -2.26139 0.327606 0
M  V30 9566 C 880.685 -0.531641 3.44927 0
M  V30 9567 C 882.033 -0.8141 4.16722 0
M  V30 9568 O 883.057 -0.616413 3.50826 0
M  V30 9569 O 881.916 -1.19224 5.33337 0
M  V30 9570 H 879.01 -0.214945 0.798579 0
M  V30 9571 H 881.556 0.32228 1.66612 0
M  V30 9572 H 880.328 0.414282 3.89101 0
M  V30 9573 H 879.951 -1.29564 3.75897 0
M  V30 9574 N 880.948 -1.576 0.00335426 0
M  V30 9575 C 882.173 -1.95398 -0.695311 0
M  V30 9576 C 882.598 -0.878476 -1.66326 0
M  V30 9577 O 881.956 0.163086 -1.80565 0
M  V30 9578 C 882.004 -3.32293 -1.40049 0
M  V30 9579 O 881.108 -3.26834 -2.51502 0
M  V30 9580 H 880.449 -0.637796 -0.184694 0
M  V30 9581 H 882.979 -2.04519 0.057543 0
M  V30 9582 H 882.989 -3.67936 -1.76316 0
M  V30 9583 H 881.664 -4.10123 -0.690803 0
M  V30 9584 H 880.241 -3.02872 -2.17539 0
M  V30 9585 N 882.426 0.269451 -1.5528 0
M  V30 9586 C 883.842 0.616827 -1.47199 0
M  V30 9587 C 884.042 1.89354 -0.68901 0
M  V30 9588 O 883.098 2.51631 -0.209287 0
M  V30 9589 C 884.411 0.740492 -2.9144 0
M  V30 9590 C 885.959 0.834312 -3.01676 0
M  V30 9591 C 886.434 0.989725 -4.47178 0
M  V30 9592 N 887.925 1.05516 -4.51022 0
M  V30 9593 C 888.66 1.19427 -5.60825 0
M  V30 9594 N 888.156 1.30035 -6.80487 0
M  V30 9595 N 889.949 1.22566 -5.48575 0
M  V30 9596 H 882.1 -0.568962 -2.04638 0
M  V30 9597 H 884.363 -0.193153 -0.928114 0
M  V30 9598 H 884.069 -0.127234 -3.5147 0
M  V30 9599 H 883.943 1.61965 -3.40657 0
M  V30 9600 H 886.33 1.6925 -2.4174 0
M  V30 9601 H 886.411 -0.0695298 -2.55705 0
M  V30 9602 H 886.055 0.136179 -5.07717 0
M  V30 9603 H 885.985 1.90827 -4.90808 0
M  V30 9604 H 888.476 0.985434 -3.64825 0
M  V30 9605 H 888.789 1.40494 -7.59922 0
M  V30 9606 H 887.134 1.27033 -6.83292 0
M  V30 9607 H 890.325 1.13911 -4.54029 0
M  V30 9608 H 890.498 1.33063 -6.34191 0
M  V30 9609 N 883.904 1.48273 0.534124 0
M  V30 9610 C 885.153 1.55334 1.28663 0
M  V30 9611 C 885.466 0.230345 1.94239 0
M  V30 9612 O 886.672 0.179161 2.70908 0
M  V30 9613 C 885.128 2.73927 2.33435 0
M  V30 9614 C 884.736 4.12852 1.73947 0
M  V30 9615 C 886.48 2.90298 3.09722 0
M  V30 9616 C 884.387 5.22711 2.76636 0
M  V30 9617 H 883.317 0.578262 0.483869 0
M  V30 9618 H 885.968 1.74598 0.564602 0
M  V30 9619 H 884.35 2.48089 3.08655 0
M  V30 9620 H 885.524 4.48691 1.04944 0
M  V30 9621 H 883.839 4.01562 1.10167 0
M  V30 9622 H 886.436 3.69542 3.86449 0
M  V30 9623 H 886.779 1.99598 3.6533 0
M  V30 9624 H 887.312 3.16017 2.41616 0
M  V30 9625 H 884.051 6.15362 2.25852 0
M  V30 9626 H 883.571 4.91364 3.43979 0
M  V30 9627 H 885.25 5.50648 3.39699 0
M  V30 9628 N 885.382 -0.782676 1.36792 0
M  V30 9629 C 886.607 -1.57676 1.34733 0
M  V30 9630 C 887.032 -1.87979 -0.0675253 0
M  V30 9631 O 886.39 -1.48404 -1.04144 0
M  V30 9632 C 886.438 -2.87047 2.18257 0
M  V30 9633 O 885.542 -3.80946 1.57969 0
M  V30 9634 H 884.883 -0.478034 0.460846 0
M  V30 9635 H 887.413 -0.969578 1.80168 0
M  V30 9636 H 887.423 -3.36254 2.31079 0
M  V30 9637 H 886.098 -2.64319 3.21104 0
M  V30 9638 H 884.675 -3.39558 1.54126 0
M  V30 9639 N 886.86 -1.21182 -1.00761 0
M  V30 9640 C 888.108 -1.02543 -1.74153 0
M  V30 9641 C 888.429 0.442372 -1.89916 0
M  V30 9642 O 887.699 1.31927 -1.44818 0
M  V30 9643 H 886.279 -0.37644 -0.645214 0
M  V30 9644 H 888.941 -1.52446 -1.21434 0
M  V30 9645 H 888.037 -1.49122 -2.7417 0
M  V30 9646 N 888.338 1.20213 -1.01915 0
M  V30 9647 C 889.586 1.89272 -0.708552 0
M  V30 9648 C 889.907 1.79394 0.76438 0
M  V30 9649 O 889.177 1.198 1.54999 0
M  V30 9650 H 887.757 0.700628 -0.259094 0
M  V30 9651 H 890.419 1.45985 -1.29129 0
M  V30 9652 H 889.515 2.95841 -0.994215 0
M  V30 9653 N 889.816 0.795718 1.36037 0
M  V30 9654 C 891.046 0.382597 2.03026 0
M  V30 9655 C 891.454 -1.00779 1.60126 0
M  V30 9656 O 890.797 -1.65884 0.78919 0
M  V30 9657 C 890.859 0.374145 3.57548 0
M  V30 9658 C 890.523 1.71318 4.23673 0
M  V30 9659 C 891.52 2.6697 4.4612 0
M  V30 9660 C 889.205 1.99421 4.61017 0
M  V30 9661 C 891.199 3.88916 5.04998 0
M  V30 9662 C 888.886 3.21632 5.19611 0
M  V30 9663 C 889.884 4.16198 5.41542 0
M  V30 9664 O 889.572 5.36254 5.98905 0
M  V30 9665 H 889.304 0.154944 0.658003 0
M  V30 9666 H 891.858 1.07756 1.74865 0
M  V30 9667 H 890.088 -0.377349 3.84854 0
M  V30 9668 H 891.777 -0.01517 4.05897 0
M  V30 9669 H 892.543 2.46548 4.17659 0
M  V30 9670 H 888.422 1.2663 4.43267 0
M  V30 9671 H 891.966 4.6274 5.22032 0
M  V30 9672 H 887.863 3.4193 5.47498 0
M  V30 9673 H 888.631 5.37403 6.17366 0
M  V30 9674 N 891.294 -1.47756 0.548274 0
M  V30 9675 C 892.204 -2.33678 -0.207773 0
M  V30 9676 C 893.22 -1.47636 -0.920843 0
M  V30 9677 O 894.396 -1.80583 -0.89173 0
M  V30 9678 C 891.461 -3.24147 -1.23003 0
M  V30 9679 C 890.522 -4.26073 -0.52535 0
M  V30 9680 C 889.755 -5.12219 -1.4989 0
M  V30 9681 O 889.978 -5.0066 -2.73305 0
M  V30 9682 O 888.912 -5.93051 -1.02828 0
M  V30 9683 H 892.738 -2.99609 0.496794 0
M  V30 9684 H 890.323 -1.4617 0.308982 0
M  V30 9685 H 892.205 -3.80055 -1.82034 0
M  V30 9686 H 890.88 -2.60855 -1.91668 0
M  V30 9687 H 889.787 -3.7395 0.105927 0
M  V30 9688 H 891.12 -4.92054 0.119686 0
M  V30 9689 N 892.772 -0.284283 -1.55015 0
M  V30 9690 C 893.72 0.615091 -2.2432 0
M  V30 9691 C 894.714 1.15051 -1.24337 0
M  V30 9692 O 895.92 1.10308 -1.4224 0
M  V30 9693 H 892.295 0.216927 -0.720033 0
M  V30 9694 H 894.266 0.00783216 -2.98399 0
M  V30 9695 C 893.015 1.78355 -2.98471 0
M  V30 9696 H 892.338 1.38076 -3.752 0
M  V30 9697 H 893.778 2.38927 -3.50271 0
M  V30 9698 C 892.237 2.67757 -2.04469 0
M  V30 9699 O 892.767 3.6838 -1.60185 0
M  V30 9700 N 890.973 2.35125 -1.70776 0
M  V30 9701 H 890.52 1.53346 -2.06985 0
M  V30 9702 H 890.478 2.95212 -1.08153 0
M  V30 9703 N 894.251 1.57596 -0.0117121 0
M  V30 9704 C 895.497 1.91355 0.671661 0
M  V30 9705 C 895.83 0.886818 1.72769 0
M  V30 9706 O 895.105 -0.0928813 1.94278 0
M  V30 9707 C 895.388 3.35657 1.30409 0
M  V30 9708 C 895.241 4.49055 0.2588 0
M  V30 9709 C 896.56 3.79595 2.22701 0
M  V30 9710 H 893.679 0.695893 0.242698 0
M  V30 9711 H 896.321 1.89887 -0.0654071 0
M  V30 9712 H 894.471 3.37038 1.9323 0
M  V30 9713 H 896.143 4.59809 -0.370631 0
M  V30 9714 H 894.386 4.31785 -0.417672 0
M  V30 9715 H 895.057 5.4701 0.740578 0
M  V30 9716 H 897.533 3.7984 1.69885 0
M  V30 9717 H 896.409 4.81292 2.63912 0
M  V30 9718 H 896.67 3.14118 3.11098 0
M  V30 9719 N 895.729 -0.261212 1.5542 0
M  V30 9720 C 897.14 -0.83138 1.67167 0
M  V30 9721 C 897.491 -1.8659 0.606525 0
M  V30 9722 O 896.616 -2.14953 -0.24985 0
M  V30 9723 C 897.211 -1.51475 3.03052 0
M  V30 9724 C 895.77 -2.0328 3.16787 0
M  V30 9725 C 894.917 -0.878903 2.63003 0
M  V30 9726 H 897.868 -0.0373102 1.58656 0
M  V30 9727 H 897.889 -2.38222 2.96699 0
M  V30 9728 H 897.401 -0.76157 3.80554 0
M  V30 9729 H 895.502 -2.81523 2.44082 0
M  V30 9730 H 895.615 -2.24001 4.2351 0
M  V30 9731 H 893.979 -1.27551 2.2046 0
M  V30 9732 H 894.762 -0.13904 3.43018 0
M  V30 9733 N 897.207 -1.48554 -0.526253 0
M  V30 9734 C 898.435 -1.60429 -1.30652 0
M  V30 9735 C 898.85 -0.265963 -1.86917 0
M  V30 9736 O 898.207 0.745262 -1.6659 0
M  V30 9737 C 898.258 -2.65377 -2.45473 0
M  V30 9738 O 897.979 -3.94017 -1.91527 0
M  V30 9739 C 899.48 -2.87726 -3.37237 0
M  V30 9740 H 896.7 -0.540817 -0.397187 0
M  V30 9741 H 899.244 -1.94409 -0.634461 0
M  V30 9742 H 897.399 -2.34246 -3.08557 0
M  V30 9743 H 897.813 -4.51623 -2.66715 0
M  V30 9744 H 899.287 -3.64951 -4.14144 0
M  V30 9745 H 899.764 -1.96688 -3.92696 0
M  V30 9746 H 900.37 -3.20176 -2.79942 0
M  V30 9747 N 898.685 0.775411 -1.37205 0
M  V30 9748 C 899.962 1.5229 -1.22748 0
M  V30 9749 C 900.342 2.10327 0.180487 0
M  V30 9750 O 899.69 1.95206 1.18772 0
M  V30 9751 C 899.9 2.60671 -2.3206 0
M  V30 9752 C 901.248 3.28173 -2.6942 0
M  V30 9753 O 902.272 2.70963 -2.31208 0
M  V30 9754 O 901.131 4.31598 -3.3524 0
M  V30 9755 H 898.225 0.674326 -0.478762 0
M  V30 9756 H 900.771 0.812691 -1.48975 0
M  V30 9757 H 899.543 2.1588 -3.26361 0
M  V30 9758 H 899.166 3.39296 -2.07277 0
M  V30 9759 N 900.163 1.21714 1.00117 0
M  V30 9760 C 901.44 0.945391 1.71236 0
M  V30 9761 C 901.82 -0.541772 2.0403 0
M  V30 9762 O 901.168 -1.50763 1.71705 0
M  V30 9763 C 901.378 1.83444 2.96899 0
M  V30 9764 C 902.726 2.08558 3.69849 0
M  V30 9765 O 903.75 1.80824 3.06889 0
M  V30 9766 O 902.609 2.55485 4.83104 0
M  V30 9767 H 899.703 0.354834 0.747009 0
M  V30 9768 H 902.249 1.32661 1.05825 0
M  V30 9769 H 901.021 2.84075 2.69105 0
M  V30 9770 H 900.644 1.45428 3.70049 0
M  V30 9771 N 901.641 -1.19671 1.02551 0
M  V30 9772 C 902.89 -1.88591 0.715272 0
M  V30 9773 C 903.203 -1.80274 -0.758982 0
M  V30 9774 O 904.409 -2.44413 -1.18213 0
M  V30 9775 C 902.865 -3.38264 1.22905 0
M  V30 9776 C 902.473 -3.55146 2.73084 0
M  V30 9777 C 904.217 -4.12683 0.994649 0
M  V30 9778 C 902.124 -4.98693 3.17897 0
M  V30 9779 H 901.054 -0.706326 0.263857 0
M  V30 9780 H 903.705 -1.35322 1.23936 0
M  V30 9781 H 902.087 -3.9091 0.632892 0
M  V30 9782 H 903.261 -3.12845 3.38326 0
M  V30 9783 H 901.576 -2.94112 2.94766 0
M  V30 9784 H 904.173 -5.18536 1.30478 0
M  V30 9785 H 904.516 -4.16243 -0.0686466 0
M  V30 9786 H 905.049 -3.66164 1.55464 0
M  V30 9787 H 901.788 -5.00293 4.23542 0
M  V30 9788 H 901.308 -5.4177 2.57381 0
M  V30 9789 H 902.987 -5.67327 3.11045 0
M  V30 9790 N 903.119 -0.802921 -1.35613 0
M  V30 9791 C 904.069 -0.183492 -2.2726 0
M  V30 9792 C 905.053 0.640527 -1.47601 0
M  V30 9793 O 906.245 0.498386 -1.69838 0
M  V30 9794 C 903.374 0.67003 -3.36698 0
M  V30 9795 C 902.46 -0.163517 -4.23785 0
M  V30 9796 N 902.851 -1.22472 -4.90749 0
M  V30 9797 C 901.149 0.0554547 -4.45966 0
M  V30 9798 C 901.85 -1.73329 -5.55276 0
M  V30 9799 N 900.826 -1.04033 -5.33552 0
M  V30 9800 H 904.628 -0.995525 -2.76526 0
M  V30 9801 H 902.142 -0.643714 -1.49098 0
M  V30 9802 H 904.139 1.12981 -4.01299 0
M  V30 9803 H 902.799 1.48045 -2.88986 0
M  V30 9804 H 903.81 -1.60733 -4.92327 0
M  V30 9805 H 900.487 0.835312 -4.09058 0
M  V30 9806 H 901.877 -2.62 -6.18713 0
M  V30 9807 N 904.597 1.47463 -0.556102 0
M  V30 9808 C 905.53 2.26934 0.240027 0
M  V30 9809 C 906.508 1.33981 0.921297 0
M  V30 9810 O 907.692 1.63361 0.940506 0
M  V30 9811 C 904.819 3.10982 1.34194 0
M  V30 9812 C 903.865 4.19504 0.769342 0
M  V30 9813 S 904.698 5.34127 -0.383209 0
M  V30 9814 C 905.854 6.21739 0.720548 0
M  V30 9815 H 906.087 2.9411 -0.434348 0
M  V30 9816 H 903.62 1.50556 -0.342402 0
M  V30 9817 H 905.578 3.59976 1.973 0
M  V30 9818 H 904.239 2.4317 1.98814 0
M  V30 9819 H 903.432 4.78036 1.59679 0
M  V30 9820 H 903.034 3.73385 0.214475 0
M  V30 9821 H 905.326 6.58021 1.61292 0
M  V30 9822 H 906.269 7.0789 0.172602 0
M  V30 9823 H 906.677 5.55342 1.01272 0
M  V30 9824 N 906.075 0.2925 1.54862 0
M  V30 9825 C 907.022 -0.587365 2.23201 0
M  V30 9826 C 907.992 -1.13623 1.21157 0
M  V30 9827 O 909.177 -1.18233 1.49752 0
M  V30 9828 C 906.317 -1.75745 2.96998 0
M  V30 9829 C 905.43 -1.24078 4.13798 0
M  V30 9830 C 904.565 -2.37405 4.75197 0
M  V30 9831 C 903.604 -1.82829 5.84157 0
M  V30 9832 N 902.741 -2.89696 6.39547 0
M  V30 9833 H 907.581 0.00202207 2.98 0
M  V30 9834 H 905.118 0.012766 1.47094 0
M  V30 9835 H 907.076 -2.44549 3.38011 0
M  V30 9836 H 905.706 -2.3186 2.24591 0
M  V30 9837 H 904.758 -0.445268 3.77785 0
M  V30 9838 H 906.07 -0.801186 4.92324 0
M  V30 9839 H 905.224 -3.14172 5.19019 0
M  V30 9840 H 903.963 -2.84688 3.95985 0
M  V30 9841 H 902.968 -1.04548 5.39768 0
M  V30 9842 H 904.193 -1.36461 6.65248 0
M  V30 9843 H 902.139 -3.36328 5.63222 0
M  V30 9844 H 902.056 -2.50206 7.13395 0
M  V30 9845 H 903.324 -3.66386 6.88027 0
M  V30 9846 N 907.553 -1.57587 0.0200696 0
M  V30 9847 C 908.485 -2.06555 -0.993359 0
M  V30 9848 C 909.498 -0.987227 -1.29451 0
M  V30 9849 O 910.687 -1.26361 -1.26075 0
M  V30 9850 C 907.787 -2.4675 -2.3231 0
M  V30 9851 C 906.96 -3.77554 -2.20843 0
M  V30 9852 C 906.019 -4.04397 -3.36674 0
M  V30 9853 O 905.045 -4.7478 -3.13963 0
M  V30 9854 N 906.247 -3.53861 -4.60176 0
M  V30 9855 H 909.012 -2.9412 -0.575617 0
M  V30 9856 H 906.573 -1.61038 -0.166889 0
M  V30 9857 H 908.565 -2.61806 -3.08609 0
M  V30 9858 H 907.135 -1.64598 -2.65756 0
M  V30 9859 H 906.355 -3.72382 -1.29327 0
M  V30 9860 H 907.643 -4.63271 -2.10375 0
M  V30 9861 H 907.041 -2.96904 -4.81523 0
M  V30 9862 H 905.598 -3.74213 -5.33674 0
M  V30 9863 N 909.032 0.252966 -1.55557 0
M  V30 9864 C 910.278 0.983306 -1.77367 0
M  V30 9865 C 910.611 1.85203 -0.584258 0
M  V30 9866 O 909.886 1.89963 0.417644 0
M  V30 9867 C 910.169 1.84896 -3.09007 0
M  V30 9868 C 910.022 1.00883 -4.38341 0
M  V30 9869 C 911.341 2.83254 -3.36831 0
M  V30 9870 H 908.46 0.356056 -0.645286 0
M  V30 9871 H 911.102 0.254232 -1.88291 0
M  V30 9872 H 909.252 2.47058 -2.99825 0
M  V30 9873 H 910.924 0.40638 -4.59507 0
M  V30 9874 H 909.167 0.31297 -4.3267 0
M  V30 9875 H 909.838 1.64818 -5.2682 0
M  V30 9876 H 912.314 2.31228 -3.45937 0
M  V30 9877 H 911.19 3.40949 -4.30169 0
M  V30 9878 H 911.451 3.59407 -2.57447 0
M  V30 9879 N 910.51 1.48831 0.518367 0
M  V30 9880 C 911.787 1.47933 1.27966 0
M  V30 9881 C 912.167 0.197393 2.10175 0
M  V30 9882 O 911.515 -0.820656 2.13255 0
M  V30 9883 C 911.725 2.74816 2.15121 0
M  V30 9884 C 913.073 3.23613 2.74881 0
M  V30 9885 O 914.097 2.75814 2.254 0
M  V30 9886 O 912.956 4.06818 3.64913 0
M  V30 9887 H 910.05 0.591316 0.578164 0
M  V30 9888 H 912.596 1.61077 0.534065 0
M  V30 9889 H 911.368 3.59621 1.54234 0
M  V30 9890 H 910.991 2.64449 2.96905 0
M  V30 9891 N 911.988 -0.768124 1.37614 0
M  V30 9892 C 912.918 -1.89537 1.36374 0
M  V30 9893 C 913.899 -1.68513 0.231803 0
M  V30 9894 O 915.084 -1.89318 0.432705 0
M  V30 9895 C 912.214 -3.26871 1.17358 0
M  V30 9896 C 911.168 -3.62466 2.27602 0
M  V30 9897 C 910.494 -4.9838 1.93705 0
M  V30 9898 C 911.794 -3.68841 3.69802 0
M  V30 9899 H 913.488 -1.90832 2.30702 0
M  V30 9900 H 911.034 -0.91672 1.11051 0
M  V30 9901 H 912.987 -4.05371 1.15119 0
M  V30 9902 H 911.711 -3.26018 0.194865 0
M  V30 9903 H 910.37 -2.86276 2.29002 0
M  V30 9904 H 910.018 -4.94071 0.943539 0
M  V30 9905 H 909.718 -5.23165 2.6753 0
M  V30 9906 H 911.242 -5.79276 1.93059 0
M  V30 9907 H 912.656 -4.37485 3.70513 0
M  V30 9908 H 911.053 -4.05126 4.42711 0
M  V30 9909 H 912.123 -2.69415 4.03167 0
M  V30 9910 N 913.466 -1.22244 -0.994698 0
M  V30 9911 C 914.376 -1.00722 -2.11878 0
M  V30 9912 C 915.392 0.043919 -1.73945 0
M  V30 9913 O 916.568 -0.148411 -2.00852 0
M  V30 9914 C 913.633 -0.585723 -3.41717 0
M  V30 9915 C 912.694 -1.71027 -3.93762 0
M  V30 9916 C 911.927 -1.30879 -5.17403 0
M  V30 9917 O 912.15 -0.18681 -5.70094 0
M  V30 9918 O 911.084 -2.1246 -5.63156 0
M  V30 9919 H 914.91 -1.94894 -2.32916 0
M  V30 9920 H 912.495 -1.00822 -1.10251 0
M  V30 9921 H 914.377 -0.360935 -4.19851 0
M  V30 9922 H 913.052 0.327166 -3.22042 0
M  V30 9923 H 911.959 -1.98956 -3.16808 0
M  V30 9924 H 913.292 -2.60096 -4.17865 0
M  V30 9925 N 914.944 1.19125 -1.03184 0
M  V30 9926 C 915.892 2.24492 -0.608781 0
M  V30 9927 C 916.886 1.65529 0.360065 0
M  V30 9928 O 918.092 1.78546 0.22832 0
M  V30 9929 H 914.467 0.73048 -0.178616 0
M  V30 9930 H 916.438 2.5749 -1.50803 0
M  V30 9931 C 915.187 3.47693 0.0215126 0
M  V30 9932 H 914.51 3.93354 -0.715024 0
M  V30 9933 H 915.95 4.23072 0.280429 0
M  V30 9934 C 914.409 3.12088 1.26896 0
M  V30 9935 O 914.939 3.25013 2.36071 0
M  V30 9936 N 913.145 2.66494 1.15886 0
M  V30 9937 H 912.692 2.56176 0.270463 0
M  V30 9938 H 912.65 2.43042 1.99444 0
M  V30 9939 N 916.422 0.810101 1.35185 0
M  V30 9940 C 917.668 0.392698 1.98962 0
M  V30 9941 C 918.001 -1.03835 1.64109 0
M  V30 9942 O 917.276 -1.721 0.9062 0
M  V30 9943 C 917.559 0.580349 3.55393 0
M  V30 9944 C 917.412 2.05658 4.00031 0
M  V30 9945 C 918.731 0.00822618 4.40099 0
M  V30 9946 H 915.85 0.144157 0.722764 0
M  V30 9947 H 918.492 1.02029 1.60281 0
M  V30 9948 H 916.642 0.0461106 3.88473 0
M  V30 9949 H 918.314 2.65348 3.77344 0
M  V30 9950 H 916.557 2.55174 3.50811 0
M  V30 9951 H 917.228 2.13875 5.08883 0
M  V30 9952 H 919.704 0.464517 4.13499 0
M  V30 9953 H 918.58 0.169414 5.48638 0
M  V30 9954 H 918.841 -1.08576 4.2856 0
M  V30 9955 N 917.9 -1.47166 0.563914 0
M  V30 9956 C 919.146 -2.03337 0.0506932 0
M  V30 9957 C 919.501 -1.42976 -1.28746 0
M  V30 9958 O 918.794 -0.578508 -1.82658 0
M  V30 9959 C 918.988 -3.57279 -0.0931797 0
M  V30 9960 C 918.817 -4.32567 1.22948 0
M  V30 9961 C 917.587 -4.72206 1.79859 0
M  V30 9962 C 919.785 -4.67282 2.14829 0
M  V30 9963 N 917.767 -5.32166 3.0606 0
M  V30 9964 C 919.138 -5.27615 3.25611 0
M  V30 9965 C 921.193 -4.49211 2.14741 0
M  V30 9966 C 919.896 -5.71784 4.36412 0
M  V30 9967 C 921.922 -4.94384 3.24559 0
M  V30 9968 C 921.284 -5.54771 4.34061 0
M  V30 9969 H 917.383 -0.779627 0.0608761 0
M  V30 9970 H 919.967 -1.79563 0.75268 0
M  V30 9971 H 918.138 -3.80806 -0.764301 0
M  V30 9972 H 919.87 -4.0009 -0.609075 0
M  V30 9973 H 916.625 -4.54372 1.33577 0
M  V30 9974 H 917.049 -5.66684 3.70404 0
M  V30 9975 H 921.691 -4.01875 1.31362 0
M  V30 9976 H 919.409 -6.18108 5.20546 0
M  V30 9977 H 922.995 -4.82167 3.25586 0
M  V30 9978 H 921.875 -5.89087 5.17635 0
M  V30 9979 N 919.378 -0.300708 -1.54705 0
M  V30 9980 C 920.308 0.568675 -2.26469 0
M  V30 9981 C 921.289 1.13817 -1.26411 0
M  V30 9982 O 922.474 1.16756 -1.55183 0
M  V30 9983 C 919.604 1.74077 -3.00524 0
M  V30 9984 C 918.558 1.30165 -4.07727 0
M  V30 9985 C 917.884 2.55888 -4.69495 0
M  V30 9986 C 919.184 0.433106 -5.20501 0
M  V30 9987 H 920.878 -0.0298851 -2.99385 0
M  V30 9988 H 918.424 -0.0158135 -1.43991 0
M  V30 9989 H 920.377 2.35506 -3.49449 0
M  V30 9990 H 919.101 2.36556 -2.25186 0
M  V30 9991 H 917.76 0.710414 -3.59651 0
M  V30 9992 H 917.408 3.16681 -3.90797 0
M  V30 9993 H 917.108 2.27207 -5.41895 0
M  V30 9994 H 918.632 3.18121 -5.21183 0
M  V30 9995 H 920.046 0.95307 -5.65322 0
M  V30 9996 H 918.443 0.240085 -5.9962 0
M  V30 9997 H 919.513 -0.541866 -4.81863 0
M  V30 9998 N 920.856 1.57574 -0.0284266 0
M  V30 9999 C 921.806 2.06674 0.962804 0
M  V30 10000 C 922.79 0.967115 1.28591 0
M  V30 10001 O 923.982 1.23068 1.27214 0
M  V30 10002 C 921.111 2.59682 2.24545 0
M  V30 10003 C 920.197 3.76573 1.95073 0
M  V30 10004 N 920.588 4.8721 1.35869 0
M  V30 10005 C 918.886 3.85046 2.25068 0
M  V30 10006 C 919.587 5.68436 1.23514 0
M  V30 10007 N 918.563 5.15323 1.73041 0
M  V30 10008 H 922.365 2.89615 0.500013 0
M  V30 10009 H 919.879 1.61437 0.176604 0
M  V30 10010 H 921.876 2.93148 2.96428 0
M  V30 10011 H 920.536 1.7817 2.71451 0
M  V30 10012 H 921.547 5.07477 1.03379 0
M  V30 10013 H 918.224 3.14439 2.74653 0
M  V30 10014 H 919.614 6.67387 0.777403 0
M  V30 10015 N 922.334 -0.244713 1.55689 0
M  V30 10016 C 923.581 -0.972446 1.77622 0
M  V30 10017 C 923.909 -1.85235 0.593137 0
M  V30 10018 O 923.164 -1.91064 -0.423464 0
M  V30 10019 C 923.463 -1.8617 3.05083 0
M  V30 10020 C 923.129 -1.13696 4.3633 0
M  V30 10021 C 921.791 -0.936679 4.71996 0
M  V30 10022 C 924.143 -0.623451 5.17458 0
M  V30 10023 C 921.471 -0.210612 5.86322 0
M  V30 10024 C 923.823 0.0891587 6.32537 0
M  V30 10025 C 922.487 0.300904 6.66821 0
M  V30 10026 H 921.757 -0.355843 0.649967 0
M  V30 10027 H 924.404 -0.242372 1.8996 0
M  V30 10028 H 922.709 -2.6589 2.87767 0
M  V30 10029 H 924.406 -2.4265 3.19253 0
M  V30 10030 H 920.996 -1.30301 4.08313 0
M  V30 10031 H 925.18 -0.765725 4.90357 0
M  V30 10032 H 920.436 -0.0361062 6.11389 0
M  V30 10033 H 924.61 0.494685 6.94641 0
M  V30 10034 H 922.237 0.865466 7.55257 0
M  V30 10035 N 923.813 -1.49104 -0.510467 0
M  V30 10036 C 925.062 -1.57362 -1.26175 0
M  V30 10037 C 925.375 -0.261218 -1.93848 0
M  V30 10038 O 926.581 -0.222238 -2.70589 0
M  V30 10039 C 925.037 -2.77606 -2.29048 0
M  V30 10040 C 924.645 -4.15567 -1.67357 0
M  V30 10041 C 926.389 -2.95188 -3.05064 0
M  V30 10042 C 924.296 -5.27046 -2.68285 0
M  V30 10043 H 923.226 -0.585887 -0.474608 0
M  V30 10044 H 925.877 -1.75474 -0.536753 0
M  V30 10045 H 924.259 -2.52968 -3.04669 0
M  V30 10046 H 925.433 -4.50304 -0.977924 0
M  V30 10047 H 923.748 -4.03264 -1.03765 0
M  V30 10048 H 926.345 -3.75643 -3.80521 0
M  V30 10049 H 926.688 -2.05385 -3.62108 0
M  V30 10050 H 927.221 -3.19821 -2.36558 0
M  V30 10051 H 923.96 -6.18878 -2.16034 0
M  V30 10052 H 923.48 -4.96774 -3.36118 0
M  V30 10053 H 925.159 -5.55983 -3.30896 0
M  V30 10054 N 925.291 0.760815 -1.38019 0
M  V30 10055 C 926.707 1.06289 -1.19058 0
M  V30 10056 C 926.907 2.01471 -0.0342603 0
M  V30 10057 O 925.963 2.44713 0.62224 0
M  V30 10058 C 927.276 1.6499 -2.51394 0
M  V30 10059 C 928.824 1.77196 -2.58013 0
M  V30 10060 C 929.299 2.3931 -3.90506 0
M  V30 10061 N 930.79 2.46749 -3.92007 0
M  V30 10062 C 931.525 2.95687 -4.91281 0
M  V30 10063 N 931.021 3.44715 -6.00952 0
M  V30 10064 N 932.814 2.94661 -4.78677 0
M  V30 10065 H 924.965 0.129045 -2.12008 0
M  V30 10066 H 927.228 0.119878 -0.94039 0
M  V30 10067 H 926.934 1.0252 -3.36426 0
M  V30 10068 H 926.808 2.64146 -2.6927 0
M  V30 10069 H 929.195 2.38796 -1.7338 0
M  V30 10070 H 929.276 0.767645 -2.4401 0
M  V30 10071 H 928.92 1.78346 -4.75558 0
M  V30 10072 H 928.85 3.40369 -4.01817 0
M  V30 10073 H 931.341 2.12064 -3.12789 0
M  V30 10074 H 931.654 3.80492 -6.72641 0
M  V30 10075 H 929.999 3.42791 -6.04582 0
M  V30 10076 H 933.19 2.55665 -3.92113 0
M  V30 10077 H 933.363 3.32489 -5.56197 0
M  V30 10078 N 926.769 1.22769 0.988202 0
M  V30 10079 C 927.679 1.01844 2.11341 0
M  V30 10080 C 928.695 -0.0346937 1.73965 0
M  V30 10081 O 929.871 0.159061 2.00771 0
M  V30 10082 C 926.936 0.603837 3.41401 0
M  V30 10083 C 925.997 1.73113 3.92849 0
M  V30 10084 C 925.23 1.33621 5.16702 0
M  V30 10085 O 925.453 0.217041 5.69987 0
M  V30 10086 O 924.387 2.15444 5.62021 0
M  V30 10087 H 928.213 1.96127 2.31879 0
M  V30 10088 H 925.798 1.01405 1.09715 0
M  V30 10089 H 927.68 0.383196 4.19654 0
M  V30 10090 H 926.355 -0.310082 3.22211 0
M  V30 10091 H 925.262 2.00634 3.15748 0
M  V30 10092 H 926.595 2.62308 4.1648 0
M  V30 10093 N 928.247 -1.18576 1.03814 0
M  V30 10094 C 929.494 -1.88493 0.740036 0
M  V30 10095 C 929.822 -1.80198 -0.732056 0
M  V30 10096 O 929.077 -1.19509 -1.54971 0
M  V30 10097 C 929.376 -3.38448 1.14837 0
M  V30 10098 C 929.042 -3.66947 2.62031 0
M  V30 10099 C 927.704 -3.74435 3.02244 0
M  V30 10100 C 930.056 -3.79534 3.57217 0
M  V30 10101 C 927.384 -3.91986 4.36536 0
M  V30 10102 C 929.736 -3.986 4.91223 0
M  V30 10103 C 928.4 -4.04323 5.31111 0
M  V30 10104 H 927.67 -0.689746 0.270798 0
M  V30 10105 H 930.317 -1.40364 1.3027 0
M  V30 10106 H 928.622 -3.88539 0.504472 0
M  V30 10107 H 930.319 -3.90882 0.89511 0
M  V30 10108 H 926.909 -3.61734 2.29883 0
M  V30 10109 H 931.093 -3.73083 3.27296 0
M  V30 10110 H 926.349 -3.9466 4.66962 0
M  V30 10111 H 930.523 -4.07281 5.64885 0
M  V30 10112 H 928.15 -4.17676 6.35178 0
M  V30 10113 N 929.725 -0.817259 -1.34754 0
M  V30 10114 C 930.974 -0.39908 -1.97713 0
M  V30 10115 C 931.287 1.04203 -1.65533 0
M  V30 10116 O 932.493 1.56384 -2.21937 0
M  V30 10117 C 930.949 -0.662634 -3.53747 0
M  V30 10118 C 930.557 -2.11699 -3.94826 0
M  V30 10119 C 932.301 -0.31034 -4.23364 0
M  V30 10120 C 930.208 -2.32573 -5.4375 0
M  V30 10121 H 929.138 -0.145488 -0.739831 0
M  V30 10122 H 931.789 -1.00282 -1.53674 0
M  V30 10123 H 930.171 0.0111972 -3.95998 0
M  V30 10124 H 931.345 -2.82951 -3.63697 0
M  V30 10125 H 929.66 -2.43017 -3.3813 0
M  V30 10126 H 932.257 -0.44421 -5.32852 0
M  V30 10127 H 932.6 0.744594 -4.09587 0
M  V30 10128 H 933.133 -0.938518 -3.8657 0
M  V30 10129 H 929.872 -3.36551 -5.62507 0
M  V30 10130 H 929.392 -1.65858 -5.76412 0
M  V30 10131 H 931.071 -2.14651 -6.10356 0
M  V30 10132 N 931.203 1.46865 -0.571711 0
M  V30 10133 C 932.166 2.28658 0.157499 0
M  V30 10134 C 933.166 1.37773 0.829172 0
M  V30 10135 O 934.356 1.6026 0.682811 0
M  V30 10136 C 931.488 3.17859 1.23202 0
M  V30 10137 H 932.681 2.94603 -0.561171 0
M  V30 10138 H 930.234 1.52793 -0.329229 0
M  V30 10139 H 930.969 2.56637 1.98262 0
M  V30 10140 H 930.754 3.84762 0.755031 0
M  V30 10141 H 932.244 3.7945 1.74378 0
M  V30 10142 N 932.681 0.308908 1.54543 0
M  V30 10143 C 934.092 -0.182144 1.85809 0
M  V30 10144 C 934.443 -1.52796 1.23076 0
M  V30 10145 O 933.568 -2.09775 0.531358 0
M  V30 10146 C 934.163 -0.337275 3.37117 0
M  V30 10147 C 932.722 -0.772545 3.68387 0
M  V30 10148 C 931.869 0.114451 2.77064 0
M  V30 10149 H 934.82 0.529671 1.496 0
M  V30 10150 H 934.841 -1.17058 3.62046 0
M  V30 10151 H 934.353 0.642382 3.82747 0
M  V30 10152 H 932.454 -1.76247 3.2828 0
M  V30 10153 H 932.567 -0.586453 4.75497 0
M  V30 10154 H 930.931 -0.407581 2.51418 0
M  V30 10155 H 931.714 1.09061 3.25516 0
M  V30 10156 N 934.159 -1.57557 0.0367827 0
M  V30 10157 C 935.405 -1.92399 -0.641133 0
M  V30 10158 C 935.738 -0.914191 -1.71336 0
M  V30 10159 O 935.013 0.0619616 -1.94401 0
M  V30 10160 C 935.296 -3.37689 -1.25052 0
M  V30 10161 C 935.149 -4.4941 -0.187326 0
M  V30 10162 C 936.468 -3.8309 -2.16634 0
M  V30 10163 H 933.587 -0.699666 -0.231597 0
M  V30 10164 H 936.229 -1.89759 0.0956083 0
M  V30 10165 H 934.379 -3.40069 -1.87843 0
M  V30 10166 H 936.051 -4.59161 0.443736 0
M  V30 10167 H 934.294 -4.31065 0.486313 0
M  V30 10168 H 934.965 -5.48119 -0.653459 0
M  V30 10169 H 937.441 -3.82494 -1.63821 0
M  V30 10170 H 936.317 -4.85429 -2.56222 0
M  V30 10171 H 936.578 -3.19028 -3.06062 0
M  V30 10172 N 935.637 0.236453 -1.55816 0
M  V30 10173 C 936.865 0.980295 -1.82203 0
M  V30 10174 C 937.28 1.7854 -0.613926 0
M  V30 10175 O 936.637 1.77661 0.417491 0
M  V30 10176 C 936.688 1.90982 -3.06933 0
M  V30 10177 O 936.409 1.13728 -4.23081 0
M  V30 10178 C 937.91 2.76879 -3.46198 0
M  V30 10179 H 935.13 0.28799 -0.606055 0
M  V30 10180 H 937.674 0.256182 -2.02889 0
M  V30 10181 H 935.829 2.58808 -2.88266 0
M  V30 10182 H 936.243 1.76694 -4.93842 0
M  V30 10183 H 937.717 3.37831 -4.36548 0
M  V30 10184 H 938.194 3.48522 -2.67262 0
M  V30 10185 H 938.8 2.1449 -3.67252 0
M  V30 10186 N 937.115 1.49373 0.502552 0
M  V30 10187 C 938.045 1.68839 1.61294 0
M  V30 10188 C 939.026 0.537096 1.61398 0
M  V30 10189 O 940.211 0.772764 1.78163 0
M  V30 10190 C 937.341 1.75347 2.99784 0
M  V30 10191 C 936.295 2.90251 3.14545 0
M  V30 10192 C 935.621 2.8187 4.54371 0
M  V30 10193 C 936.921 4.31207 2.94717 0
M  V30 10194 H 938.615 2.61803 1.45257 0
M  V30 10195 H 936.161 1.25987 0.697371 0
M  V30 10196 H 938.114 1.87552 3.77362 0
M  V30 10197 H 936.838 0.789814 3.16906 0
M  V30 10198 H 935.497 2.77646 2.39392 0
M  V30 10199 H 935.145 1.83416 4.68367 0
M  V30 10200 H 934.845 3.5899 4.65188 0
M  V30 10201 H 936.369 2.96081 5.34012 0
M  V30 10202 H 937.783 4.44501 3.62065 0
M  V30 10203 H 936.18 5.09536 3.17007 0
M  V30 10204 H 937.25 4.45759 1.90857 0
M  V30 10205 N 938.594 -0.753485 1.38421 0
M  V30 10206 C 939.541 -1.86723 1.35659 0
M  V30 10207 C 940.511 -1.64648 0.219121 0
M  V30 10208 O 941.696 -1.86313 0.411366 0
M  V30 10209 C 938.836 -3.24023 1.18758 0
M  V30 10210 C 937.949 -3.57928 2.41892 0
M  V30 10211 C 937.084 -4.84532 2.17721 0
M  V30 10212 C 936.123 -5.11224 3.36626 0
M  V30 10213 N 935.26 -6.29023 3.11889 0
M  V30 10214 H 940.1 -1.88419 2.30873 0
M  V30 10215 H 937.637 -0.920934 1.14705 0
M  V30 10216 H 939.595 -4.03252 1.06974 0
M  V30 10217 H 938.225 -3.21654 0.27182 0
M  V30 10218 H 937.277 -2.73541 2.64347 0
M  V30 10219 H 938.589 -3.73581 3.30513 0
M  V30 10220 H 937.743 -5.71704 2.03074 0
M  V30 10221 H 936.482 -4.71018 1.26465 0
M  V30 10222 H 935.487 -4.2252 3.51791 0
M  V30 10223 H 936.712 -5.26635 4.28757 0
M  V30 10224 H 934.658 -6.16832 2.2328 0
M  V30 10225 H 934.575 -6.45177 3.9406 0
M  V30 10226 H 935.843 -7.19083 3.00898 0
M  V30 10227 N 940.072 -1.23292 -0.981677 0
M  V30 10228 C 941.318 -1.06582 -1.72535 0
M  V30 10229 C 941.651 0.396538 -1.90108 0
M  V30 10230 O 940.926 1.29363 -1.45243 0
M  V30 10231 C 941.209 -1.7904 -3.12437 0
M  V30 10232 C 941.062 -3.32941 -3.02441 0
M  V30 10233 C 942.381 -1.55185 -4.11832 0
M  V30 10234 H 939.5 -0.388585 -0.626236 0
M  V30 10235 H 942.142 -1.51779 -1.14293 0
M  V30 10236 H 940.292 -1.40619 -3.62158 0
M  V30 10237 H 941.964 -3.80875 -2.60254 0
M  V30 10238 H 940.207 -3.62039 -2.38977 0
M  V30 10239 H 940.878 -3.78827 -4.0149 0
M  V30 10240 H 943.354 -1.88581 -3.70913 0
M  V30 10241 H 942.23 -2.08362 -5.07815 0
M  V30 10242 H 942.491 -0.486925 -4.3941 0
M  V30 10243 N 941.55 1.18024 -1.04442 0
M  V30 10244 C 942.797 1.88098 -0.750022 0
M  V30 10245 C 943.125 1.80583 0.722489 0
M  V30 10246 O 942.38 1.20329 1.54335 0
M  V30 10247 C 942.679 3.37834 -1.16631 0
M  V30 10248 C 942.345 3.65553 -2.63974 0
M  V30 10249 C 941.007 3.72827 -3.04226 0
M  V30 10250 C 943.359 3.77634 -3.59224 0
M  V30 10251 C 940.687 3.89666 -4.38608 0
M  V30 10252 C 943.039 3.9599 -4.9333 0
M  V30 10253 C 941.703 4.01501 -5.33248 0
M  V30 10254 H 940.973 0.6883 -0.274452 0
M  V30 10255 H 943.62 1.39671 -1.31012 0
M  V30 10256 H 941.925 3.88266 -0.525071 0
M  V30 10257 H 943.622 3.90402 -0.915827 0
M  V30 10258 H 940.212 3.6051 -2.31798 0
M  V30 10259 H 944.396 3.71342 -3.2927 0
M  V30 10260 H 939.652 3.92178 -4.69048 0
M  V30 10261 H 943.826 4.0428 -5.67037 0
M  V30 10262 H 941.453 4.14301 -6.37384 0
M  V30 10263 N 943.028 0.824394 1.34319 0
M  V30 10264 C 943.991 0.252696 2.27803 0
M  V30 10265 C 944.991 -0.570254 1.50349 0
M  V30 10266 O 946.181 -0.386145 1.69866 0
M  V30 10267 C 943.313 -0.645575 3.34731 0
M  V30 10268 H 944.506 1.07742 2.79878 0
M  V30 10269 H 942.059 0.596367 1.44475 0
M  V30 10270 H 942.794 -1.4933 2.87873 0
M  V30 10271 H 942.579 -0.0569478 3.92059 0
M  V30 10272 H 944.069 -1.03933 4.0446 0
M  V30 10273 N 944.506 -1.46559 0.579492 0
M  V30 10274 C 945.754 -2.02 0.0637157 0
M  V30 10275 C 946.075 -1.45378 -1.29962 0
M  V30 10276 O 945.345 -0.637262 -1.85245 0
M  V30 10277 H 943.925 -0.746717 0.0205638 0
M  V30 10278 H 946.587 -1.79702 0.754544 0
M  V30 10279 H 945.683 -3.12099 -0.00770254 0
M  V30 10280 N 945.984 -0.3171 -1.54377 0
M  V30 10281 C 947.214 0.289138 -2.04567 0
M  V30 10282 C 947.622 1.46833 -1.19318 0
M  V30 10283 O 946.965 1.82436 -0.215141 0
M  V30 10284 C 947.027 0.792994 -3.50645 0
M  V30 10285 C 946.691 -0.263033 -4.56242 0
M  V30 10286 C 947.688 -1.09694 -5.08196 0
M  V30 10287 C 945.373 -0.409364 -5.00629 0
M  V30 10288 C 947.367 -2.06297 -6.03092 0
M  V30 10289 C 945.054 -1.37882 -5.95342 0
M  V30 10290 C 946.052 -2.20409 -6.46459 0
M  V30 10291 O 945.74 -3.15708 -7.39313 0
M  V30 10292 H 945.472 0.0644005 -0.672925 0
M  V30 10293 H 948.026 -0.459438 -2.00196 0
M  V30 10294 H 946.256 1.59237 -3.52392 0
M  V30 10295 H 947.945 1.31687 -3.83944 0
M  V30 10296 H 948.711 -0.994842 -4.74687 0
M  V30 10297 H 944.59 0.223091 -4.6046 0
M  V30 10298 H 948.134 -2.70751 -6.42915 0
M  V30 10299 H 944.031 -1.48158 -6.28267 0
M  V30 10300 H 944.799 -3.10873 -7.57166 0
M  V30 10301 N 947.462 1.57535 -0.0451378 0
M  V30 10302 C 948.692 1.96476 0.638814 0
M  V30 10303 C 949.1 0.921056 1.65267 0
M  V30 10304 O 948.443 -0.103843 1.83406 0
M  V30 10305 C 948.505 3.31629 1.38788 0
M  V30 10306 C 948.169 4.5391 0.530545 0
M  V30 10307 C 949.166 5.19512 -0.200864 0
M  V30 10308 C 946.851 5.00159 0.463242 0
M  V30 10309 C 948.845 6.29695 -0.988078 0
M  V30 10310 C 946.532 6.10221 -0.327665 0
M  V30 10311 C 947.53 6.74849 -1.05202 0
M  V30 10312 O 947.218 7.82795 -1.82993 0
M  V30 10313 H 946.95 0.651625 0.17989 0
M  V30 10314 H 949.504 2.05126 -0.106031 0
M  V30 10315 H 947.734 3.19516 2.17822 0
M  V30 10316 H 949.423 3.5536 1.96148 0
M  V30 10317 H 950.189 4.84742 -0.158299 0
M  V30 10318 H 946.068 4.49651 1.01663 0
M  V30 10319 H 949.612 6.80072 -1.55397 0
M  V30 10320 H 945.509 6.44428 -0.37189 0
M  V30 10321 H 946.277 7.99542 -1.7514 0
M  V30 10322 N 948.94 -0.228186 1.55939 0
M  V30 10323 C 950.168 -0.970618 1.8272 0
M  V30 10324 C 950.583 -1.78212 0.623385 0
M  V30 10325 O 949.94 -1.77879 -0.408063 0
M  V30 10326 C 949.991 -1.89352 3.07942 0
M  V30 10327 O 949.712 -1.11483 4.23678 0
M  V30 10328 C 951.213 -2.75039 3.47661 0
M  V30 10329 H 948.433 -0.284772 0.607574 0
M  V30 10330 H 950.977 -0.245419 2.03022 0
M  V30 10331 H 949.132 -2.57275 2.89635 0
M  V30 10332 H 949.546 -1.74073 4.94772 0
M  V30 10333 H 951.02 -3.35511 4.38334 0
M  V30 10334 H 951.497 -3.471 2.69106 0
M  V30 10335 H 952.103 -2.1254 3.68384 0
M  V30 10336 N 950.418 -1.49637 -0.494624 0
M  V30 10337 C 951.365 -1.66776 -1.59545 0
M  V30 10338 C 952.335 -0.509159 -1.58104 0
M  V30 10339 O 953.52 -0.736949 -1.75993 0
M  V30 10340 C 950.66 -1.74624 -2.97658 0
M  V30 10341 C 949.773 -3.01831 -3.09067 0
M  V30 10342 C 948.908 -3.00619 -4.37952 0
M  V30 10343 C 947.947 -4.22378 -4.43016 0
M  V30 10344 N 947.084 -4.1904 -5.63339 0
M  V30 10345 H 951.924 -2.60767 -1.44238 0
M  V30 10346 H 949.461 -1.29286 -0.701673 0
M  V30 10347 H 951.419 -1.77156 -3.77719 0
M  V30 10348 H 950.049 -0.840936 -3.11654 0
M  V30 10349 H 949.101 -3.08881 -2.22029 0
M  V30 10350 H 950.413 -3.91823 -3.08669 0
M  V30 10351 H 949.567 -3.01749 -5.26339 0
M  V30 10352 H 948.306 -2.08416 -4.40924 0
M  V30 10353 H 947.311 -4.21485 -3.5303 0
M  V30 10354 H 948.536 -5.15781 -4.41755 0
M  V30 10355 H 946.482 -3.29677 -5.67141 0
M  V30 10356 H 946.399 -5.02774 -5.64583 0
M  V30 10357 H 947.667 -4.24281 -6.53916 0
M  V30 10358 N 951.896 0.746133 -1.38819 0
M  V30 10359 C 953.144 1.50247 -1.35167 0
M  V30 10360 C 953.465 1.94921 0.0553531 0
M  V30 10361 O 952.735 1.68187 1.00449 0
M  V30 10362 H 951.315 0.557337 -0.497377 0
M  V30 10363 H 953.977 0.886472 -1.73573 0
M  V30 10364 H 953.073 2.38986 -2.00728 0
M  V30 10365 N 953.375 1.23811 0.975125 0
M  V30 10366 C 954.622 1.07336 1.71712 0
M  V30 10367 C 954.95 -0.388954 1.90571 0
M  V30 10368 O 954.205 -1.30409 1.45918 0
M  V30 10369 C 954.504 1.74994 3.11628 0
M  V30 10370 C 954.17 3.24918 3.12632 0
M  V30 10371 C 952.832 3.65822 3.12614 0
M  V30 10372 C 955.184 4.20797 3.07538 0
M  V30 10373 C 952.512 5.01054 3.05224 0
M  V30 10374 C 954.864 5.56027 3.0169 0
M  V30 10375 C 953.528 5.96287 2.99996 0
M  V30 10376 H 952.798 0.392771 0.62834 0
M  V30 10377 H 955.445 1.53815 1.14075 0
M  V30 10378 H 953.75 1.20889 3.72684 0
M  V30 10379 H 955.447 1.5972 3.67819 0
M  V30 10380 H 952.037 2.92359 3.13407 0
M  V30 10381 H 956.221 3.902 3.06688 0
M  V30 10382 H 951.477 5.31454 3.02268 0
M  V30 10383 H 955.651 6.3003 2.96706 0
M  V30 10384 H 953.278 7.01037 2.94025 0
M  V30 10385 N 954.853 -1.17469 1.05066 0
M  V30 10386 C 955.816 -2.19648 0.654793 0
M  V30 10387 C 956.816 -1.58107 -0.293063 0
M  V30 10388 O 958.006 -1.74029 -0.077106 0
M  V30 10389 C 955.138 -3.40878 -0.0384437 0
M  V30 10390 H 956.331 -2.56184 1.55915 0
M  V30 10391 H 953.884 -1.31528 0.844396 0
M  V30 10392 H 954.619 -3.09885 -0.956133 0
M  V30 10393 H 954.404 -3.86792 0.642961 0
M  V30 10394 H 955.894 -4.1651 -0.301568 0
M  V30 10395 N 956.331 -0.831506 -1.3388 0
M  V30 10396 C 957.261 -0.274378 -2.31882 0
M  V30 10397 C 958.242 0.613872 -1.58637 0
M  V30 10398 O 959.427 0.538961 -1.86571 0
M  V30 10399 C 956.557 0.557498 -3.42796 0
M  V30 10400 C 955.511 -0.234337 -4.27358 0
M  V30 10401 C 954.837 0.720825 -5.29819 0
M  V30 10402 C 956.137 -1.44732 -5.01847 0
M  V30 10403 H 957.831 -1.09322 -2.78728 0
M  V30 10404 H 955.377 -0.527136 -1.34005 0
M  V30 10405 H 957.33 0.957501 -4.10378 0
M  V30 10406 H 956.054 1.40947 -2.94621 0
M  V30 10407 H 954.713 -0.61581 -3.61391 0
M  V30 10408 H 954.361 1.569 -4.77903 0
M  V30 10409 H 954.061 0.195171 -5.87276 0
M  V30 10410 H 955.585 1.1185 -6.00268 0
M  V30 10411 H 956.999 -1.12087 -5.62236 0
M  V30 10412 H 955.396 -1.90923 -5.68919 0
M  V30 10413 H 956.466 -2.22099 -4.31045 0
M  V30 10414 N 957.809 1.4625 -0.587256 0
M  V30 10415 C 958.739 2.33132 0.131076 0
M  V30 10416 C 959.72 1.45619 0.879158 0
M  V30 10417 O 960.905 1.74428 0.853723 0
M  V30 10418 C 958.035 3.27975 1.14236 0
M  V30 10419 C 956.989 4.24965 0.508819 0
M  V30 10420 C 956.315 5.09349 1.62689 0
M  V30 10421 C 957.615 5.19322 -0.55694 0
M  V30 10422 H 959.309 2.93442 -0.594333 0
M  V30 10423 H 956.855 1.41106 -0.287263 0
M  V30 10424 H 958.808 3.87614 1.65328 0
M  V30 10425 H 957.532 2.65781 1.8981 0
M  V30 10426 H 956.191 3.66595 0.0189337 0
M  V30 10427 H 955.839 4.43537 2.37242 0
M  V30 10428 H 955.539 5.75036 1.20861 0
M  V30 10429 H 957.063 5.71852 2.14049 0
M  V30 10430 H 958.477 5.73151 -0.130903 0
M  V30 10431 H 956.874 5.93376 -0.895801 0
M  V30 10432 H 957.944 4.62979 -1.44148 0
M  V30 10433 N 959.287 0.325282 1.54207 0
M  V30 10434 C 960.235 -0.5554 2.25872 0
M  V30 10435 C 961.229 -1.11714 1.27344 0
M  V30 10436 O 962.435 -1.06498 1.45115 0
M  V30 10437 H 958.81 -0.19776 0.725531 0
M  V30 10438 H 960.781 0.0712858 2.98315 0
M  V30 10439 C 959.53 -1.70379 3.03095 0
M  V30 10440 H 958.853 -1.2808 3.78729 0
M  V30 10441 H 960.293 -2.29556 3.56483 0
M  V30 10442 C 958.752 -2.62242 2.11496 0
M  V30 10443 O 959.282 -3.64003 1.69895 0
M  V30 10444 N 957.488 -2.30515 1.7695 0
M  V30 10445 H 957.035 -1.47805 2.10978 0
M  V30 10446 H 956.993 -2.92241 1.15942 0
M  V30 10447 N 960.765 -1.57509 0.0534917 0
M  V30 10448 C 962.012 -1.92782 -0.619772 0
M  V30 10449 C 962.34 -0.932046 -1.70714 0
M  V30 10450 O 961.595 0.0552891 -1.95622 0
M  V30 10451 C 961.894 -3.34734 -1.25251 0
M  V30 10452 C 961.56 -4.49946 -0.293113 0
M  V30 10453 C 960.222 -4.81191 -0.0291223 0
M  V30 10454 C 962.574 -5.19925 0.364271 0
M  V30 10455 C 959.902 -5.79761 0.899649 0
M  V30 10456 C 962.254 -6.19489 1.28125 0
M  V30 10457 C 960.918 -6.49161 1.55389 0
M  V30 10458 H 960.188 -0.705441 -0.226791 0
M  V30 10459 H 962.835 -1.91121 0.120466 0
M  V30 10460 H 961.14 -3.32774 -2.06807 0
M  V30 10461 H 962.837 -3.59308 -1.78042 0
M  V30 10462 H 959.427 -4.25566 -0.509053 0
M  V30 10463 H 963.611 -4.95997 0.173411 0
M  V30 10464 H 958.867 -6.01085 1.11833 0
M  V30 10465 H 963.041 -6.72824 1.79669 0
M  V30 10466 H 960.668 -7.25354 2.2752 0
M  V30 10467 N 962.243 0.219913 -1.56058 0
M  V30 10468 C 963.489 0.945463 -1.79412 0
M  V30 10469 C 963.822 1.83922 -0.62341 0
M  V30 10470 O 963.097 1.90806 0.377256 0
M  V30 10471 C 963.38 1.783 -3.1286 0
M  V30 10472 C 963.233 0.915626 -4.40382 0
M  V30 10473 C 964.552 2.76045 -3.42764 0
M  V30 10474 H 961.671 0.342288 -0.652693 0
M  V30 10475 H 964.313 0.214235 -1.88788 0
M  V30 10476 H 962.463 2.40642 -3.04998 0
M  V30 10477 H 964.135 0.30882 -4.60265 0
M  V30 10478 H 962.378 0.221124 -4.33236 0
M  V30 10479 H 963.049 1.53607 -5.30197 0
M  V30 10480 H 965.525 2.23838 -3.50764 0
M  V30 10481 H 964.401 3.31748 -4.37304 0
M  V30 10482 H 964.662 3.53866 -2.65012 0
M  V30 10483 N 963.721 1.49897 0.486681 0
M  V30 10484 C 964.967 1.60342 1.2417 0
M  V30 10485 C 965.3 0.295694 1.91936 0
M  V30 10486 O 964.575 -0.701788 1.81398 0
M  V30 10487 C 964.858 2.77281 2.29755 0
M  V30 10488 C 964.711 4.1789 1.66397 0
M  V30 10489 C 966.03 2.89817 3.31201 0
M  V30 10490 H 963.149 0.583605 0.450083 0
M  V30 10491 H 965.791 1.82232 0.537734 0
M  V30 10492 H 963.941 2.58748 2.89796 0
M  V30 10493 H 965.613 4.47975 1.10073 0
M  V30 10494 H 963.856 4.22872 0.967579 0
M  V30 10495 H 964.527 4.95612 2.43049 0
M  V30 10496 H 967.003 3.06732 2.81167 0
M  V30 10497 H 965.879 3.7329 4.02425 0
M  V30 10498 H 966.14 1.9977 3.94391 0
M  V30 10499 N 965.199 -0.738761 1.39212 0
M  V30 10500 C 966.146 -1.85273 1.37631 0
M  V30 10501 C 967.116 -1.64407 0.236572 0
M  V30 10502 O 968.301 -1.85866 0.431104 0
M  V30 10503 C 965.441 -3.22745 1.22188 0
M  V30 10504 C 964.554 -3.55342 2.45674 0
M  V30 10505 C 963.689 -4.82195 2.22847 0
M  V30 10506 C 962.728 -5.07625 3.42029 0
M  V30 10507 N 961.865 -6.25679 3.18543 0
M  V30 10508 H 966.705 -1.85959 2.32859 0
M  V30 10509 H 964.242 -0.908716 1.15675 0
M  V30 10510 H 966.2 -4.02095 1.11245 0
M  V30 10511 H 964.83 -3.21347 0.30592 0
M  V30 10512 H 963.882 -2.70722 2.67233 0
M  V30 10513 H 965.194 -3.70054 3.34457 0
M  V30 10514 H 964.348 -5.69518 2.09126 0
M  V30 10515 H 963.087 -4.6965 1.31454 0
M  V30 10516 H 962.092 -4.18765 3.56253 0
M  V30 10517 H 963.317 -5.22058 4.34319 0
M  V30 10518 H 961.263 -6.14429 2.2981 0
M  V30 10519 H 961.18 -6.40961 4.0088 0
M  V30 10520 H 962.448 -7.15851 3.08508 0
M  V30 10521 N 966.677 -1.24326 -0.968545 0
M  V30 10522 C 967.907 -1.10786 -1.74385 0
M  V30 10523 C 968.315 0.342503 -1.86074 0
M  V30 10524 O 967.658 1.24817 -1.34782 0
M  V30 10525 C 967.72 -1.67274 -3.18213 0
M  V30 10526 C 967.384 -3.1615 -3.29998 0
M  V30 10527 C 968.381 -4.13309 -3.15392 0
M  V30 10528 C 966.066 -3.56092 -3.54265 0
M  V30 10529 C 968.06 -5.48392 -3.24878 0
M  V30 10530 C 965.747 -4.91316 -3.63389 0
M  V30 10531 C 966.745 -5.87275 -3.48707 0
M  V30 10532 O 966.433 -7.20041 -3.57485 0
M  V30 10533 H 966.165 -0.387795 -0.553706 0
M  V30 10534 H 968.719 -1.64894 -1.22471 0
M  V30 10535 H 966.949 -1.07598 -3.71429 0
M  V30 10536 H 968.638 -1.49036 -3.77549 0
M  V30 10537 H 969.404 -3.83792 -2.96528 0
M  V30 10538 H 965.283 -2.81907 -3.6476 0
M  V30 10539 H 968.827 -6.23271 -3.13335 0
M  V30 10540 H 964.724 -5.20505 -3.81766 0
M  V30 10541 H 965.492 -7.27951 -3.74205 0
M  V30 10542 N 968.156 1.1691 -1.05688 0
M  V30 10543 C 969.381 1.91745 -0.790478 0
M  V30 10544 C 969.806 1.76568 0.648478 0
M  V30 10545 O 969.164 1.08682 1.45114 0
M  V30 10546 C 969.212 3.4067 -1.18222 0
M  V30 10547 O 968.316 4.11177 -0.317341 0
M  V30 10548 H 967.657 0.5976 -0.28943 0
M  V30 10549 H 970.187 1.48157 -1.41105 0
M  V30 10550 H 970.197 3.91424 -1.15114 0
M  V30 10551 H 968.872 3.51036 -2.2304 0
M  V30 10552 H 967.449 3.70645 -0.409459 0
M  V30 10553 N 969.634 0.838594 1.33437 0
M  V30 10554 C 971.045 0.490934 1.8013 0
M  V30 10555 C 971.396 -0.990024 1.6939 0
M  V30 10556 O 970.521 -1.77139 1.24302 0
M  V30 10557 C 971.116 0.884347 3.27055 0
M  V30 10558 C 969.675 0.588829 3.71766 0
M  V30 10559 C 968.822 1.09282 2.54858 0
M  V30 10560 H 971.773 1.02732 1.20962 0
M  V30 10561 H 971.794 0.194283 3.80004 0
M  V30 10562 H 971.306 1.96225 3.34839 0
M  V30 10563 H 969.407 -0.479018 3.69508 0
M  V30 10564 H 969.52 1.14387 4.65245 0
M  V30 10565 H 967.884 0.513702 2.49466 0
M  V30 10566 H 968.667 2.1775 2.65405 0
M  V30 10567 N 971.112 -1.45937 0.595003 0
M  V30 10568 C 972.022 -2.34221 -0.133325 0
M  V30 10569 C 973.038 -1.50491 -0.873407 0
M  V30 10570 O 974.214 -1.83328 -0.833828 0
M  V30 10571 C 971.279 -3.27896 -1.12628 0
M  V30 10572 C 970.34 -4.27529 -0.389532 0
M  V30 10573 C 969.573 -5.16729 -1.33519 0
M  V30 10574 O 969.796 -5.09102 -2.57238 0
M  V30 10575 O 968.73 -5.96023 -0.839084 0
M  V30 10576 H 972.556 -2.97877 0.591861 0
M  V30 10577 H 970.141 -1.45113 0.355329 0
M  V30 10578 H 972.023 -3.85654 -1.69851 0
M  V30 10579 H 970.698 -2.6682 -1.83272 0
M  V30 10580 H 969.605 -3.73424 0.224843 0
M  V30 10581 H 970.938 -4.91425 0.276169 0
M  V30 10582 N 972.59 -0.333456 -1.54032 0
M  V30 10583 C 974.006 0.0188405 -1.59589 0
M  V30 10584 C 974.206 1.49615 -1.34972 0
M  V30 10585 O 973.262 2.2535 -1.13901 0
M  V30 10586 C 974.575 -0.408273 -2.97915 0
M  V30 10587 C 976.123 -0.359763 -3.10926 0
M  V30 10588 C 976.598 -0.76219 -4.51613 0
M  V30 10589 N 978.089 -0.715981 -4.57633 0
M  V30 10590 C 978.824 -0.999436 -5.64623 0
M  V30 10591 N 978.32 -1.35053 -6.79509 0
M  V30 10592 N 980.113 -0.924343 -5.54448 0
M  V30 10593 H 972.264 -1.29587 -1.68289 0
M  V30 10594 H 974.527 -0.527584 -0.787629 0
M  V30 10595 H 974.233 -1.43793 -3.20962 0
M  V30 10596 H 974.107 0.221685 -3.76548 0
M  V30 10597 H 976.494 0.660703 -2.87609 0
M  V30 10598 H 976.575 -1.02479 -2.34375 0
M  V30 10599 H 976.219 -1.78062 -4.75664 0
M  V30 10600 H 976.149 -0.0747478 -5.26547 0
M  V30 10601 H 978.64 -0.456875 -3.75128 0
M  V30 10602 H 978.953 -1.55194 -7.57057 0
M  V30 10603 H 977.298 -1.38889 -6.80981 0
M  V30 10604 H 980.489 -0.649469 -4.63573 0
M  V30 10605 H 980.662 -1.1486 -6.37739 0
M  V30 10606 N 974.068 1.57479 -0.061844 0
M  V30 10607 C 975 2.09116 0.938245 0
M  V30 10608 C 976.013 1.0212 1.26788 0
M  V30 10609 O 977.202 1.2966 1.22681 0
M  V30 10610 C 974.302 2.52822 2.25686 0
M  V30 10611 C 973.475 3.83277 2.10755 0
M  V30 10612 C 972.534 4.13182 3.25833 0
M  V30 10613 O 971.56 4.82937 3.01265 0
M  V30 10614 N 972.762 3.65938 4.50633 0
M  V30 10615 H 975.527 2.95543 0.497433 0
M  V30 10616 H 973.088 1.61423 0.124134 0
M  V30 10617 H 975.08 2.69896 3.01559 0
M  V30 10618 H 973.65 1.71586 2.61299 0
M  V30 10619 H 972.87 3.7568 1.19409 0
M  V30 10620 H 974.158 4.68686 1.98018 0
M  V30 10621 H 973.556 3.09566 4.73482 0
M  V30 10622 H 972.113 3.8823 5.23565 0
M  V30 10623 N 975.546 -0.211634 1.56173 0
M  V30 10624 C 976.962 -0.56177 1.49386 0
M  V30 10625 C 977.162 -1.86666 0.758813 0
M  V30 10626 O 976.218 -2.50681 0.302534 0
M  V30 10627 C 977.531 -0.631815 2.93987 0
M  V30 10628 C 979.079 -0.721773 3.04564 0
M  V30 10629 C 979.554 -0.823075 4.50544 0
M  V30 10630 N 981.045 -0.887038 4.54627 0
M  V30 10631 C 981.78 -0.985304 5.64871 0
M  V30 10632 N 981.276 -1.0469 6.84844 0
M  V30 10633 N 983.069 -1.02121 5.52746 0
M  V30 10634 H 975.22 0.64452 2.02385 0
M  V30 10635 H 977.483 0.227466 0.920306 0
M  V30 10636 H 977.189 0.257592 3.50755 0
M  V30 10637 H 977.063 -1.4921 3.46433 0
M  V30 10638 H 979.45 -1.60162 2.47855 0
M  V30 10639 H 979.531 0.164385 2.55271 0
M  V30 10640 H 979.175 0.0523511 5.07873 0
M  V30 10641 H 979.105 -1.72479 4.97552 0
M  V30 10642 H 981.596 -0.849352 3.68231 0
M  V30 10643 H 981.909 -1.12193 7.64613 0
M  V30 10644 H 980.254 -1.01586 6.87536 0
M  V30 10645 H 983.445 -0.969814 4.57943 0
M  V30 10646 H 983.618 -1.09434 6.38693 0
M  V30 10647 N 977.024 -1.50153 -0.478725 0
M  V30 10648 C 978.249 -1.64776 -1.2595 0
M  V30 10649 C 978.674 -0.327794 -1.85222 0
M  V30 10650 O 978.032 0.707418 -1.66929 0
M  V30 10651 C 978.08 -2.73551 -2.34952 0
M  V30 10652 O 977.184 -2.34273 -3.39397 0
M  V30 10653 H 976.525 -0.550769 -0.370877 0
M  V30 10654 H 979.055 -1.96482 -0.570605 0
M  V30 10655 H 979.065 -2.96397 -2.8038 0
M  V30 10656 H 977.74 -3.69354 -1.91181 0
M  V30 10657 H 976.317 -2.21844 -2.99733 0
M  V30 10658 N 978.502 0.731368 -1.39602 0
M  V30 10659 C 979.432 1.85855 -1.41351 0
M  V30 10660 C 980.413 1.67839 -0.2764 0
M  V30 10661 O 981.598 1.88104 -0.482747 0
M  V30 10662 C 978.728 3.23644 -1.25983 0
M  V30 10663 C 977.682 3.56304 -2.37132 0
M  V30 10664 C 977.008 4.93069 -2.0685 0
M  V30 10665 C 978.308 3.58906 -3.79452 0
M  V30 10666 H 980.002 1.84648 -2.3568 0
M  V30 10667 H 977.548 0.886955 -1.13442 0
M  V30 10668 H 979.501 4.02176 -1.25826 0
M  V30 10669 H 978.225 3.25387 -0.281234 0
M  V30 10670 H 976.884 2.80104 -2.36511 0
M  V30 10671 H 976.532 4.91396 -1.0742 0
M  V30 10672 H 976.232 5.15888 -2.81306 0
M  V30 10673 H 977.756 5.73953 -2.0835 0
M  V30 10674 H 979.17 4.27508 -3.81982 0
M  V30 10675 H 977.567 3.93246 -4.53297 0
M  V30 10676 H 978.637 2.58631 -4.10168 0
M  V30 10677 N 979.98 1.24838 0.961938 0
M  V30 10678 C 981.396 1.01502 1.23165 0
M  V30 10679 C 981.596 -0.272651 1.99647 0
M  V30 10680 O 980.652 -0.987297 2.32398 0
M  V30 10681 C 981.965 2.23366 2.01316 0
M  V30 10682 C 983.513 2.28051 2.14387 0
M  V30 10683 C 983.988 3.49552 2.95935 0
M  V30 10684 N 985.479 3.49904 3.03515 0
M  V30 10685 C 986.214 4.40577 3.66987 0
M  V30 10686 N 985.71 5.41512 4.3213 0
M  V30 10687 N 987.503 4.28275 3.64056 0
M  V30 10688 H 979.654 2.07576 0.450086 0
M  V30 10689 H 981.917 0.911205 0.261551 0
M  V30 10690 H 981.623 3.16913 1.5251 0
M  V30 10691 H 981.497 2.25949 3.02038 0
M  V30 10692 H 983.884 1.35032 2.62393 0
M  V30 10693 H 983.965 2.29491 1.12994 0
M  V30 10694 H 983.609 4.42889 2.4862 0
M  V30 10695 H 983.539 3.45357 3.97538 0
M  V30 10696 H 986.03 2.76885 2.57183 0
M  V30 10697 H 986.343 6.06924 4.78396 0
M  V30 10698 H 984.688 5.45393 4.3078 0
M  V30 10699 H 987.879 3.48653 3.12344 0
M  V30 10700 H 988.052 4.99138 4.13237 0
M  V30 10701 N 981.458 -1.16348 1.06306 0
M  V30 10702 C 982.869 -1.68491 0.80422 0
M  V30 10703 C 983.22 -1.84327 -0.672159 0
M  V30 10704 O 982.345 -1.53892 -1.52139 0
M  V30 10705 C 982.94 -3.06048 1.45328 0
M  V30 10706 C 981.499 -3.55311 1.24221 0
M  V30 10707 C 980.646 -2.31291 1.5297 0
M  V30 10708 H 983.597 -1.00708 1.22652 0
M  V30 10709 H 983.618 -3.70451 0.868674 0
M  V30 10710 H 983.13 -2.9449 2.52779 0
M  V30 10711 H 981.231 -3.72128 0.187447 0
M  V30 10712 H 981.344 -4.37397 1.95502 0
M  V30 10713 H 979.708 -2.3631 0.950241 0
M  V30 10714 H 980.491 -2.22331 2.6158 0
M  V30 10715 N 982.937 -0.845659 -1.3299 0
M  V30 10716 C 983.887 -0.2557 -2.26562 0
M  V30 10717 C 984.871 0.593245 -1.49564 0
M  V30 10718 O 986.063 0.444101 -1.71338 0
M  V30 10719 C 983.192 0.562573 -3.38659 0
M  V30 10720 C 982.278 -0.298259 -4.2305 0
M  V30 10721 N 982.669 -1.38023 -4.86604 0
M  V30 10722 C 980.967 -0.0864539 -4.45916 0
M  V30 10723 C 981.668 -1.90907 -5.49481 0
M  V30 10724 N 980.644 -1.20955 -5.29973 0
M  V30 10725 H 984.446 -1.083 -2.73219 0
M  V30 10726 H 981.96 -0.690823 -1.46974 0
M  V30 10727 H 983.957 1.00157 -4.0469 0
M  V30 10728 H 982.617 1.38777 -2.93549 0
M  V30 10729 H 983.628 -1.76314 -4.86964 0
M  V30 10730 H 980.305 0.70475 -4.11509 0
M  V30 10731 H 981.695 -2.81552 -6.10064 0
M  V30 10732 N 984.415 1.45619 -0.602734 0
M  V30 10733 C 985.365 2.27568 0.140264 0
M  V30 10734 C 986.349 1.3704 0.84314 0
M  V30 10735 O 987.541 1.61067 0.733931 0
M  V30 10736 C 984.67 3.23812 1.14019 0
M  V30 10737 C 983.756 4.21828 0.438406 0
M  V30 10738 N 984.147 5.03148 -0.517245 0
M  V30 10739 C 982.445 4.40684 0.686588 0
M  V30 10740 C 983.146 5.74229 -0.929291 0
M  V30 10741 N 982.122 5.42909 -0.274086 0
M  V30 10742 H 985.924 2.87839 -0.5938 0
M  V30 10743 H 983.438 1.56712 -0.426033 0
M  V30 10744 H 985.435 3.8125 1.68684 0
M  V30 10745 H 984.095 2.65102 1.87486 0
M  V30 10746 H 985.106 5.1013 -0.893758 0
M  V30 10747 H 981.783 3.93102 1.4063 0
M  V30 10748 H 983.173 6.49586 -1.7172 0
M  V30 10749 N 985.893 0.34162 1.53853 0
M  V30 10750 C 987.17 -0.310664 1.93117 0
M  V30 10751 C 987.55 -1.68398 1.273 0
M  V30 10752 O 986.898 -2.24546 0.423225 0
M  V30 10753 C 987.108 -0.384867 3.46871 0
M  V30 10754 C 988.456 -0.636621 4.198 0
M  V30 10755 O 989.48 -0.467061 3.53125 0
M  V30 10756 O 988.339 -0.964962 5.37913 0
M  V30 10757 H 985.433 -0.180881 0.806977 0
M  V30 10758 H 987.979 0.392656 1.65095 0
M  V30 10759 H 986.751 0.57894 3.86994 0
M  V30 10760 H 986.374 -1.13505 3.81054 0
M  V30 10761 N 987.371 -1.57444 0.0701946 0
M  V30 10762 C 988.334 -2.11511 -0.882923 0
M  V30 10763 C 989.334 -1.03879 -1.22743 0
M  V30 10764 O 990.524 -1.29874 -1.16097 0
M  V30 10765 C 987.656 -2.61514 -2.18686 0
M  V30 10766 H 988.849 -2.9703 -0.413873 0
M  V30 10767 H 986.402 -1.55278 -0.178488 0
M  V30 10768 H 987.137 -1.79443 -2.70131 0
M  V30 10769 H 986.922 -3.40185 -1.94978 0
M  V30 10770 H 988.412 -3.03425 -2.86919 0
M  V30 10771 N 988.849 0.203349 -1.56283 0
M  V30 10772 C 990.074 0.945548 -1.84592 0
M  V30 10773 C 990.499 1.7641 -0.652772 0
M  V30 10774 O 989.857 1.76867 0.398468 0
M  V30 10775 C 989.905 1.82416 -3.11057 0
M  V30 10776 O 989.009 2.92191 -2.9103 0
M  V30 10777 H 988.35 0.266739 -0.608068 0
M  V30 10778 H 990.88 0.211158 -2.03507 0
M  V30 10779 H 990.89 2.23044 -3.41636 0
M  V30 10780 H 989.565 1.22267 -3.97522 0
M  V30 10781 H 988.142 2.55378 -2.71728 0
M  V30 10782 N 990.327 1.50405 0.470755 0
M  V30 10783 C 991.555 1.65168 1.24608 0
M  V30 10784 C 991.97 0.335153 1.85801 0
M  V30 10785 O 991.327 -0.682919 1.69241 0
M  V30 10786 C 991.378 2.74305 2.35455 0
M  V30 10787 O 991.099 4.00854 1.76771 0
M  V30 10788 C 992.6 3.00044 3.26326 0
M  V30 10789 H 989.82 0.555186 0.376842 0
M  V30 10790 H 992.364 1.9663 0.56187 0
M  V30 10791 H 990.519 2.45536 2.99651 0
M  V30 10792 H 990.933 4.61211 2.49769 0
M  V30 10793 H 992.407 3.8007 4.00313 0
M  V30 10794 H 992.884 2.11128 3.85126 0
M  V30 10795 H 993.49 3.30345 2.67866 0
M  V30 10796 N 991.805 -0.723954 1.39988 0
M  V30 10797 C 993.052 -1.48371 1.37812 0
M  V30 10798 C 993.38 -1.94487 -0.0223285 0
M  V30 10799 O 992.635 -1.67906 -1.00529 0
M  V30 10800 C 992.934 -2.73004 2.30659 0
M  V30 10801 C 992.6 -2.45698 3.78078 0
M  V30 10802 C 991.262 -2.37961 4.18244 0
M  V30 10803 C 993.614 -2.22601 4.71273 0
M  V30 10804 C 990.942 -2.05183 5.49652 0
M  V30 10805 C 993.294 -1.91339 6.0297 0
M  V30 10806 C 991.958 -1.82078 6.42187 0
M  V30 10807 H 991.228 -0.542929 0.504291 0
M  V30 10808 H 993.875 -0.829986 1.72579 0
M  V30 10809 H 992.18 -3.43174 1.89048 0
M  V30 10810 H 993.877 -3.31068 2.26263 0
M  V30 10811 H 990.467 -2.52603 3.46251 0
M  V30 10812 H 994.651 -2.2754 4.41066 0
M  V30 10813 H 989.907 -1.96544 5.78948 0
M  V30 10814 H 994.081 -1.72479 6.74703 0
M  V30 10815 H 991.708 -1.56446 7.43928 0
M  V30 10816 N 993.283 -1.25346 -0.955304 0
M  V30 10817 C 994.511 -1.12793 -1.73451 0
M  V30 10818 C 994.926 0.318344 -1.86097 0
M  V30 10819 O 994.283 1.21897 -1.35821 0
M  V30 10820 C 994.334 -1.77603 -3.14864 0
M  V30 10821 O 994.055 -3.16577 -3.02837 0
M  V30 10822 C 995.556 -1.70821 -4.09066 0
M  V30 10823 H 992.776 -0.393457 -0.543537 0
M  V30 10824 H 995.32 -1.65696 -1.19855 0
M  V30 10825 H 993.475 -1.28673 -3.65407 0
M  V30 10826 H 993.889 -3.48433 -3.92039 0
M  V30 10827 H 995.363 -2.2083 -5.05903 0
M  V30 10828 H 995.84 -0.671858 -4.34031 0
M  V30 10829 H 996.446 -2.19237 -3.64438 0
M  V30 10830 N 994.761 1.15782 -1.06922 0
M  V30 10831 C 996.01 1.85807 -0.784774 0
M  V30 10832 C 996.323 1.82967 0.691551 0
M  V30 10833 O 997.529 2.48632 1.0906 0
M  V30 10834 C 995.985 3.33469 -1.35375 0
M  V30 10835 C 995.593 3.44766 -2.86077 0
M  V30 10836 C 997.337 4.08707 -1.14713 0
M  V30 10837 C 995.244 4.86551 -3.36187 0
M  V30 10838 H 994.174 0.696046 -0.28989 0
M  V30 10839 H 996.825 1.30629 -1.28873 0
M  V30 10840 H 995.207 3.88292 -0.77754 0
M  V30 10841 H 996.381 3.00073 -3.49704 0
M  V30 10842 H 994.696 2.82969 -3.05479 0
M  V30 10843 H 997.293 5.13336 -1.49633 0
M  V30 10844 H 997.636 4.16211 -0.0858868 0
M  V30 10845 H 998.169 3.60142 -1.68946 0
M  V30 10846 H 994.908 4.84229 -4.41818 0
M  V30 10847 H 994.428 5.31844 -2.77312 0
M  V30 10848 H 996.107 5.55392 -3.31887 0
M  V30 10849 N 996.239 0.8527 1.3254 0
M  V30 10850 C 997.187 0.284659 2.30852 0
M  V30 10851 C 998.181 -0.5909 1.5876 0
M  V30 10852 O 999.387 -0.478922 1.73512 0
M  V30 10853 H 995.762 0.0733452 0.748415 0
M  V30 10854 H 997.733 1.1281 2.76254 0
M  V30 10855 C 996.482 -0.51379 3.43883 0
M  V30 10856 H 995.805 0.150644 3.99516 0
M  V30 10857 H 997.245 -0.876866 4.14834 0
M  V30 10858 C 995.704 -1.69823 2.90967 0
M  V30 10859 O 996.234 -2.79727 2.88298 0
M  V30 10860 N 994.44 -1.52465 2.47392 0
M  V30 10861 H 993.987 -0.630599 2.49762 0
M  V30 10862 H 993.945 -2.31859 2.12341 0
M  V30 10863 N 997.718 -1.45297 0.610449 0
M  V30 10864 C 998.967 -2.0143 0.104323 0
M  V30 10865 C 999.28 -1.48431 -1.27388 0
M  V30 10866 O 1000.49 -1.96558 -1.87289 0
M  V30 10867 C 998.942 -3.59644 0.135812 0
M  V30 10868 C 998.55 -4.2164 1.51405 0
M  V30 10869 C 1000.29 -4.2333 -0.314922 0
M  V30 10870 C 998.201 -5.72015 1.50176 0
M  V30 10871 H 997.131 -0.753176 0.035233 0
M  V30 10872 H 999.782 -1.66738 0.7662 0
M  V30 10873 H 998.164 -3.91538 -0.592773 0
M  V30 10874 H 999.338 -4.01315 2.26457 0
M  V30 10875 H 997.653 -3.70159 1.90712 0
M  V30 10876 H 1000.25 -5.33597 -0.343335 0
M  V30 10877 H 1000.59 -3.94206 -1.33817 0
M  V30 10878 H 1001.13 -3.96163 0.360489 0
M  V30 10879 H 997.865 -6.05842 2.50271 0
M  V30 10880 H 997.385 -5.94523 0.793869 0
M  V30 10881 H 999.064 -6.35266 1.22665 0
M  V30 10882 N 999.196 -0.349774 -1.5367 0
M  V30 10883 C 1000.16 0.491676 -2.23864 0
M  V30 10884 C 1001.16 1.02256 -1.24098 0
M  V30 10885 O 1002.35 0.910816 -1.48492 0
M  V30 10886 C 999.481 1.68557 -2.96313 0
M  V30 10887 H 1000.67 -0.12233 -2.9965 0
M  V30 10888 H 998.227 -0.101214 -1.55972 0
M  V30 10889 H 998.962 2.3381 -2.2473 0
M  V30 10890 H 998.747 1.31203 -3.69497 0
M  V30 10891 H 1000.24 2.28225 -3.49718 0
M  V30 10892 N 1000.67 1.57404 -0.0785433 0
M  V30 10893 C 1001.6 2.16131 0.883726 0
M  V30 10894 C 1002.58 1.09015 1.30575 0
M  V30 10895 O 1003.77 1.3708 1.37559 0
M  V30 10896 C 1000.9 2.72836 2.1489 0
M  V30 10897 C 999.854 3.85178 1.86605 0
M  V30 10898 C 999.18 4.28516 3.1981 0
M  V30 10899 C 1000.48 5.09118 1.16601 0
M  V30 10900 H 1002.17 2.9679 0.394484 0
M  V30 10901 H 999.72 1.42763 0.188304 0
M  V30 10902 H 1001.67 3.12567 2.8263 0
M  V30 10903 H 1000.4 1.89408 2.66068 0
M  V30 10904 H 999.056 3.45962 1.21268 0
M  V30 10905 H 998.704 3.42 3.68843 0
M  V30 10906 H 998.404 5.04249 3.01674 0
M  V30 10907 H 999.928 4.70868 3.88737 0
M  V30 10908 H 1001.34 5.46123 1.74422 0
M  V30 10909 H 999.739 5.90173 1.087 0
M  V30 10910 H 1000.81 4.8468 0.146138 0
M  V30 10911 N 1002.15 -0.195058 1.56388 0
M  V30 10912 C 1003.1 -1.26122 1.95438 0
M  V30 10913 C 1004.09 -1.47117 0.839818 0
M  V30 10914 O 1005.3 -1.47978 1.02482 0
M  V30 10915 H 1001.67 -0.423422 0.621464 0
M  V30 10916 H 1003.65 -0.904854 2.8435 0
M  V30 10917 C 1002.39 -2.59858 2.31017 0
M  V30 10918 H 1001.72 -2.44519 3.16308 0
M  V30 10919 H 1003.16 -3.33205 2.62203 0
M  V30 10920 C 1001.62 -3.16853 1.14481 0
M  V30 10921 O 1002.15 -3.995 0.419853 0
M  V30 10922 N 1000.35 -2.75599 0.921604 0
M  V30 10923 H 999.9 -2.08495 1.51287 0
M  V30 10924 H 999.858 -3.14072 0.143663 0
M  V30 10925 N 1003.63 -1.50653 -0.462772 0
M  V30 10926 C 1004.58 -1.70661 -1.58043 0
M  V30 10927 C 1005.57 -0.572533 -1.59432 0
M  V30 10928 O 1006.78 -0.753257 -1.63481 0
M  V30 10929 H 1003.15 -0.538805 -0.524588 0
M  V30 10930 H 1005.12 -2.64399 -1.38332 0
M  V30 10931 C 1003.87 -1.82558 -2.95919 0
M  V30 10932 H 1003.2 -2.69216 -2.95572 0
M  V30 10933 H 1004.64 -2.0058 -3.73556 0
M  V30 10934 C 1003.09 -0.57916 -3.31885 0
M  V30 10935 O 1003.62 0.277888 -4.00738 0
M  V30 10936 N 1001.83 -0.430723 -2.8739 0
M  V30 10937 H 1001.38 -1.1292 -2.31531 0
M  V30 10938 H 1001.34 0.402061 -3.11819 0
M  V30 10939 N 1005.11 0.71652 -1.4037 0
M  V30 10940 C 1006.35 1.47857 -1.38803 0
M  V30 10941 C 1006.69 1.94197 0.0100536 0
M  V30 10942 O 1005.96 1.68093 0.978521 0
M  V30 10943 C 1006.25 2.7053 -2.37667 0
M  V30 10944 C 1006.1 2.3009 -3.86496 0
M  V30 10945 C 1007.42 3.72684 -2.34082 0
M  V30 10946 H 1004.54 0.53632 -0.505499 0
M  V30 10947 H 1007.18 0.817824 -1.71498 0
M  V30 10948 H 1005.33 3.26906 -2.09916 0
M  V30 10949 H 1007 1.79202 -4.2507 0
M  V30 10950 H 1005.24 1.62102 -4.02375 0
M  V30 10951 H 1005.91 3.18018 -4.51186 0
M  V30 10952 H 1008.39 3.25935 -2.58661 0
M  V30 10953 H 1007.27 4.56157 -3.05306 0
M  V30 10954 H 1007.53 4.20916 -1.35213 0
M  V30 10955 N 1006.59 1.25851 0.948643 0
M  V30 10956 C 1007.83 1.10735 1.69062 0
M  V30 10957 C 1008.16 -0.351257 1.9181 0
M  V30 10958 O 1007.43 -1.24867 1.50947 0
M  V30 10959 H 1006.01 0.406796 0.626519 0
M  V30 10960 H 1008.67 1.58066 1.14022 0
M  V30 10961 H 1007.76 1.62033 2.66743 0
M  V30 10962 N 1008.06 -1.15214 1.07534 0
M  V30 10963 C 1008.97 -2.23636 0.708818 0
M  V30 10964 C 1009.99 -1.7172 -0.280759 0
M  V30 10965 O 1011.17 -2.01 -0.126927 0
M  V30 10966 C 1008.23 -3.46512 0.114167 0
M  V30 10967 C 1007.29 -4.13409 1.15722 0
M  V30 10968 C 1006.53 -5.30419 0.59085 0
M  V30 10969 O 1006.75 -5.67314 -0.592512 0
M  V30 10970 O 1005.68 -5.86871 1.33663 0
M  V30 10971 H 1009.51 -2.57322 1.61305 0
M  V30 10972 H 1007.09 -1.22972 0.848422 0
M  V30 10973 H 1008.98 -4.20851 -0.215091 0
M  V30 10974 H 1007.65 -3.1457 -0.763356 0
M  V30 10975 H 1006.56 -3.40984 1.53886 0
M  V30 10976 H 1007.89 -4.49435 2.00671 0
M  V30 10977 N 1009.54 -0.859717 -1.32086 0
M  V30 10978 C 1010.82 -0.386665 -1.9174 0
M  V30 10979 C 1011.2 1.13028 -1.78292 0
M  V30 10980 O 1010.55 1.95422 -1.18417 0
M  V30 10981 C 1010.76 -0.856648 -3.38323 0
M  V30 10982 C 1012.11 -0.87678 -4.15449 0
M  V30 10983 O 1013.13 -0.80162 -3.47063 0
M  V30 10984 O 1011.99 -0.98373 -5.37573 0
M  V30 10985 H 1009.08 -0.113758 -0.819139 0
M  V30 10986 H 1011.63 -0.946952 -1.40822 0
M  V30 10987 H 1010.4 -1.89996 -3.42078 0
M  V30 10988 H 1010.02 -0.274095 -3.96654 0
M  V30 10989 N 1011.02 1.44971 -0.618145 0
M  V30 10990 C 1012.27 2.02159 -0.117482 0
M  V30 10991 C 1012.6 1.48517 1.2559 0
M  V30 10992 O 1011.85 0.654192 1.84442 0
M  V30 10993 C 1012.15 3.57378 -0.0394861 0
M  V30 10994 C 1011.82 4.30218 -1.34993 0
M  V30 10995 C 1010.48 4.49835 -1.70886 0
M  V30 10996 C 1012.83 4.71768 -2.21551 0
M  V30 10997 C 1010.16 5.08258 -2.9307 0
M  V30 10998 C 1012.51 5.31543 -3.42993 0
M  V30 10999 C 1011.17 5.49381 -3.79126 0
M  V30 11000 H 1010.44 0.739752 -0.0429897 0
M  V30 11001 H 1013.09 1.73903 -0.801871 0
M  V30 11002 H 1011.4 3.84973 0.728217 0
M  V30 11003 H 1013.09 3.99343 0.364213 0
M  V30 11004 H 1009.68 4.15271 -1.06057 0
M  V30 11005 H 1013.87 4.56336 -1.95117 0
M  V30 11006 H 1009.12 5.20257 -3.21158 0
M  V30 11007 H 1013.3 5.62691 -4.10308 0
M  V30 11008 H 1010.92 5.94419 -4.73888 0
M  V30 11009 N 1012.5 0.357919 1.53482 0
M  V30 11010 C 1013.43 -0.526753 2.23065 0
M  V30 11011 C 1014.44 -1.05239 1.24212 0
M  V30 11012 O 1015.63 -0.960078 1.50482 0
M  V30 11013 C 1012.73 -1.73919 2.9087 0
M  V30 11014 C 1011.91 -1.34638 4.16163 0
M  V30 11015 C 1010.96 -2.42005 4.67247 0
M  V30 11016 O 1009.99 -2.04714 5.31113 0
M  V30 11017 N 1011.19 -3.73478 4.44404 0
M  V30 11018 H 1013.96 0.0692386 2.9962 0
M  V30 11019 H 1011.52 0.182726 1.60866 0
M  V30 11020 H 1013.51 -2.45207 3.21956 0
M  V30 11021 H 1012.08 -2.24223 2.17814 0
M  V30 11022 H 1011.3 -0.463667 3.91464 0
M  V30 11023 H 1012.59 -1.06012 4.97633 0
M  V30 11024 H 1011.99 -4.06555 3.93357 0
M  V30 11025 H 1010.54 -4.40893 4.80059 0
M  V30 11026 N 1013.98 -1.5736 0.0868897 0
M  V30 11027 C 1015.22 -1.9367 -0.577598 0
M  V30 11028 C 1015.55 -0.968844 -1.69229 0
M  V30 11029 O 1014.82 -0.0195061 -1.9589 0
M  V30 11030 H 1013.4 -0.714983 -0.216353 0
M  V30 11031 H 1016.06 -1.94335 0.148294 0
M  V30 11032 H 1015.15 -2.95877 -0.993128 0
M  V30 11033 N 1015.45 0.186762 -1.56489 0
M  V30 11034 C 1016.7 0.904063 -1.80752 0
M  V30 11035 C 1017.02 1.83443 -0.661343 0
M  V30 11036 O 1016.29 1.93272 0.319811 0
M  V30 11037 H 1014.87 0.336828 -0.66675 0
M  V30 11038 H 1017.54 0.190275 -1.93969 0
M  V30 11039 H 1016.63 1.49021 -2.74225 0
M  V30 11040 N 1016.93 1.50896 0.454776 0
M  V30 11041 C 1018.18 1.62378 1.20324 0
M  V30 11042 C 1018.5 0.333883 1.9212 0
M  V30 11043 O 1017.77 -0.649477 1.8482 0
M  V30 11044 H 1016.35 0.598395 0.447139 0
M  V30 11045 H 1019.01 1.87749 0.523102 0
M  V30 11046 H 1018.11 2.44296 1.94232 0
M  V30 11047 N 1018.41 -0.709066 1.40748 0
M  V30 11048 C 1019.65 -1.48139 1.40834 0
M  V30 11049 C 1020.01 -1.91996 0.0117625 0
M  V30 11050 O 1021.22 -2.68564 -0.112524 0
M  V30 11051 C 1019.49 -2.67009 2.37573 0
M  V30 11052 S 1021.05 -3.56331 2.56073 0
M  V30 11053 H 1017.86 -0.506396 0.499084 0
M  V30 11054 H 1020.47 -0.828588 1.77072 0
M  V30 11055 H 1019.17 -2.32971 3.37865 0
M  V30 11056 H 1018.7 -3.37195 2.02641 0
M  V30 11057 H 1020.72 -4.61695 1.81803 0
M  V30 11058 N 1019.89 -1.26353 -0.941956 0
M  V30 11059 C 1020.84 -1.07842 -2.04056 0
M  V30 11060 C 1021.81 0.0163064 -1.66092 0
M  V30 11061 O 1022.99 -0.143313 -1.90261 0
M  V30 11062 C 1020.13 -0.716636 -3.37577 0
M  V30 11063 C 1019.24 -1.88754 -3.88582 0
M  V30 11064 C 1018.38 -1.46893 -5.10486 0
M  V30 11065 C 1017.42 -2.60819 -5.53751 0
M  V30 11066 N 1016.56 -2.19646 -6.66858 0
M  V30 11067 H 1021.4 -2.01856 -2.19221 0
M  V30 11068 H 1018.93 -1.00504 -1.07412 0
M  V30 11069 H 1020.89 -0.487768 -4.14339 0
M  V30 11070 H 1019.52 0.18653 -3.22261 0
M  V30 11071 H 1018.57 -2.22936 -3.08227 0
M  V30 11072 H 1019.88 -2.74264 -4.1663 0
M  V30 11073 H 1019.04 -1.20047 -5.94705 0
M  V30 11074 H 1017.78 -0.584721 -4.84182 0
M  V30 11075 H 1016.78 -2.88396 -4.6809 0
M  V30 11076 H 1018.01 -3.49838 -5.82057 0
M  V30 11077 H 1015.95 -1.33657 -6.4224 0
M  V30 11078 H 1015.87 -2.987 -6.94489 0
M  V30 11079 H 1017.14 -1.96009 -7.54454 0
M  V30 11080 N 1021.37 1.14642 -1.08144 0
M  V30 11081 C 1022.61 1.85617 -0.809484 0
M  V30 11082 C 1022.94 1.8279 0.664672 0
M  V30 11083 O 1022.2 1.25178 1.50429 0
M  V30 11084 C 1022.5 3.33953 -1.2732 0
M  V30 11085 C 1022.16 3.56969 -2.7547 0
M  V30 11086 C 1020.82 3.6296 -3.15933 0
M  V30 11087 C 1023.18 3.66014 -3.71057 0
M  V30 11088 C 1020.5 3.75515 -4.50783 0
M  V30 11089 C 1022.86 3.80094 -5.05679 0
M  V30 11090 C 1021.52 3.84333 -5.45751 0
M  V30 11091 H 1020.79 0.67922 -0.296211 0
M  V30 11092 H 1023.44 1.35433 -1.35389 0
M  V30 11093 H 1021.74 3.86399 -0.648329 0
M  V30 11094 H 1023.44 3.87291 -1.03957 0
M  V30 11095 H 1020.03 3.52953 -2.4315 0
M  V30 11096 H 1024.21 3.60679 -3.40917 0
M  V30 11097 H 1019.47 3.77057 -4.81288 0
M  V30 11098 H 1023.64 3.86035 -5.79612 0
M  V30 11099 H 1021.27 3.93814 -6.50242 0
M  V30 11100 N 1022.85 0.866709 1.31628 0
M  V30 11101 C 1023.78 0.335762 2.31073 0
M  V30 11102 C 1024.76 -0.571597 1.60209 0
M  V30 11103 O 1025.94 -0.489306 1.87935 0
M  V30 11104 C 1023.07 -0.466416 3.44154 0
M  V30 11105 C 1022.03 0.347561 4.26586 0
M  V30 11106 C 1021.35 -0.5801 5.31544 0
M  V30 11107 C 1022.65 1.57986 4.97833 0
M  V30 11108 H 1024.35 1.16673 2.75731 0
M  V30 11109 H 1021.89 0.56248 1.3256 0
M  V30 11110 H 1023.84 -0.84836 4.12772 0
M  V30 11111 H 1022.57 -1.33086 2.98254 0
M  V30 11112 H 1021.23 0.71141 3.59631 0
M  V30 11113 H 1020.88 -1.44174 4.81895 0
M  V30 11114 H 1020.58 -0.0393965 5.87587 0
M  V30 11115 H 1022.1 -0.958958 6.03023 0
M  V30 11116 H 1023.51 1.26954 5.59067 0
M  V30 11117 H 1021.91 2.05939 5.63657 0
M  V30 11118 H 1022.98 2.3345 4.25005 0
M  V30 11119 N 1024.32 -1.44642 0.625825 0
M  V30 11120 C 1025.74 -1.56925 0.290992 0
M  V30 11121 C 1025.94 -1.61424 -1.20601 0
M  V30 11122 O 1025 -1.55439 -1.98985 0
M  V30 11123 C 1026.31 -2.84343 0.978242 0
M  V30 11124 C 1027.86 -2.98047 0.955882 0
M  V30 11125 C 1028.33 -4.2826 1.62349 0
M  V30 11126 N 1029.82 -4.35062 1.58983 0
M  V30 11127 C 1030.56 -5.34524 2.07538 0
M  V30 11128 N 1030.05 -6.4042 2.6426 0
M  V30 11129 N 1031.85 -5.25998 1.98198 0
M  V30 11130 H 1024 -1.39965 1.59761 0
M  V30 11131 H 1026.26 -0.670368 0.670306 0
M  V30 11132 H 1025.97 -2.86985 2.03304 0
M  V30 11133 H 1025.84 -3.73699 0.512726 0
M  V30 11134 H 1028.23 -2.94961 -0.0904292 0
M  V30 11135 H 1028.31 -2.10053 1.45984 0
M  V30 11136 H 1027.95 -4.32105 2.66923 0
M  V30 11137 H 1027.88 -5.15102 1.09441 0
M  V30 11138 H 1030.37 -3.59147 1.17565 0
M  V30 11139 H 1030.69 -7.1259 2.99056 0
M  V30 11140 H 1029.03 -6.41121 2.68308 0
M  V30 11141 H 1032.22 -4.42178 1.5361 0
M  V30 11142 H 1032.4 -6.03359 2.3635 0
M  V30 11143 N 1025.8 -0.366053 -1.5329 0
M  V30 11144 C 1027.03 0.22391 -2.05383 0
M  V30 11145 C 1027.44 1.42962 -1.23929 0
M  V30 11146 O 1026.78 1.81659 -0.273072 0
M  V30 11147 C 1026.84 0.681038 -3.5299 0
M  V30 11148 C 1026.51 -0.40805 -4.55175 0
M  V30 11149 C 1027.51 -1.25806 -5.04449 0
M  V30 11150 C 1025.19 -0.568428 -4.99073 0
M  V30 11151 C 1027.18 -2.25379 -5.96224 0
M  V30 11152 C 1024.87 -1.56752 -5.90654 0
M  V30 11153 C 1025.87 -2.40864 -6.39119 0
M  V30 11154 O 1025.56 -3.39069 -7.28895 0
M  V30 11155 H 1025.29 0.0429593 -0.674634 0
M  V30 11156 H 1027.84 -0.522897 -1.98633 0
M  V30 11157 H 1026.07 1.47945 -3.5728 0
M  V30 11158 H 1027.76 1.19406 -3.8794 0
M  V30 11159 H 1028.53 -1.14536 -4.71282 0
M  V30 11160 H 1024.41 0.0764858 -4.60937 0
M  V30 11161 H 1027.95 -2.91068 -6.33976 0
M  V30 11162 H 1023.85 -1.6807 -6.23236 0
M  V30 11163 H 1024.62 -3.34804 -7.46893 0
M  V30 11164 N 1027.28 1.57312 -0.0952337 0
M  V30 11165 C 1028.23 2.15263 0.881167 0
M  V30 11166 C 1029.22 1.09552 1.29208 0
M  V30 11167 O 1030.43 1.27897 1.26659 0
M  V30 11168 H 1026.8 0.688611 0.302191 0
M  V30 11169 H 1028.77 2.96126 0.367694 0
M  V30 11170 C 1027.52 2.74779 2.13053 0
M  V30 11171 H 1026.85 3.55807 1.82323 0
M  V30 11172 H 1028.29 3.18895 2.79431 0
M  V30 11173 C 1026.74 1.7068 2.90465 0
M  V30 11174 O 1027.27 1.14582 3.85011 0
M  V30 11175 N 1025.48 1.41169 2.54007 0
M  V30 11176 H 1025.03 1.86977 1.77193 0
M  V30 11177 H 1024.99 0.717559 3.06102 0
M  V30 11178 N 1028.76 -0.17846 1.56586 0
M  V30 11179 C 1030 -0.90281 1.83381 0
M  V30 11180 C 1030.36 -1.79738 0.675139 0
M  V30 11181 O 1031.56 -2.55879 0.823368 0
M  V30 11182 C 1029.83 -1.68353 3.15265 0
M  V30 11183 S 1031.39 -2.45762 3.6352 0
M  V30 11184 H 1028.21 -0.302508 0.643436 0
M  V30 11185 H 1030.81 -0.164961 1.94803 0
M  V30 11186 H 1029.52 -1.01725 3.97593 0
M  V30 11187 H 1029.05 -2.46289 3.06766 0
M  V30 11188 H 1031.06 -3.70312 3.30278 0
M  V30 11189 N 1030.24 -1.51135 -0.446768 0
M  V30 11190 C 1031.46 -1.67411 -1.22427 0
M  V30 11191 C 1031.89 -0.367009 -1.84485 0
M  V30 11192 O 1031.24 0.67185 -1.68392 0
M  V30 11193 C 1031.29 -2.78473 -2.29096 0
M  V30 11194 O 1030.4 -2.41419 -3.34351 0
M  V30 11195 H 1029.74 -0.558512 -0.359111 0
M  V30 11196 H 1032.27 -1.97648 -0.5288 0
M  V30 11197 H 1032.28 -3.02277 -2.7403 0
M  V30 11198 H 1030.95 -3.73326 -1.83304 0
M  V30 11199 H 1029.53 -2.28152 -2.9496 0
M  V30 11200 N 1031.71 0.701592 -1.41122 0
M  V30 11201 C 1032.96 1.45722 -1.39456 0
M  V30 11202 C 1033.28 1.95599 -0.00475228 0
M  V30 11203 O 1034.48 2.71166 0.134529 0
M  V30 11204 C 1032.94 2.63475 -2.45172 0
M  V30 11205 C 1032.55 2.20409 -3.90031 0
M  V30 11206 C 1034.29 3.4114 -2.52633 0
M  V30 11207 C 1032.2 3.35084 -4.87312 0
M  V30 11208 H 1031.13 0.547341 -0.518588 0
M  V30 11209 H 1033.78 0.762233 -1.6692 0
M  V30 11210 H 1032.16 3.35212 -2.10829 0
M  V30 11211 H 1033.33 1.56 -4.3359 0
M  V30 11212 H 1031.65 1.55752 -3.86174 0
M  V30 11213 H 1034.25 4.26496 -3.22498 0
M  V30 11214 H 1034.59 3.85915 -1.56125 0
M  V30 11215 H 1035.12 2.76456 -2.86037 0
M  V30 11216 H 1031.86 2.95327 -5.85203 0
M  V30 11217 H 1031.38 3.98362 -4.48406 0
M  V30 11218 H 1033.06 4.00949 -5.07788 0
M  V30 11219 N 1033.19 1.2685 0.935242 0
M  V30 11220 C 1034.1 1.10716 2.06831 0
M  V30 11221 C 1035.12 0.0391222 1.73956 0
M  V30 11222 O 1036.29 0.244071 1.99916 0
M  V30 11223 C 1033.36 0.748093 3.38533 0
M  V30 11224 C 1032.42 1.89619 3.85153 0
M  V30 11225 C 1031.65 1.55416 5.1057 0
M  V30 11226 O 1031.88 0.458596 5.68553 0
M  V30 11227 O 1030.81 2.39087 5.52378 0
M  V30 11228 H 1034.64 2.05785 2.23352 0
M  V30 11229 H 1032.22 1.05967 1.05315 0
M  V30 11230 H 1034.1 0.560841 4.17651 0
M  V30 11231 H 1032.78 -0.173142 3.23237 0
M  V30 11232 H 1031.68 2.13845 3.06954 0
M  V30 11233 H 1033.02 2.79737 4.04979 0
M  V30 11234 N 1034.67 -1.14067 1.0875 0
M  V30 11235 C 1035.9 -1.89582 0.841038 0
M  V30 11236 C 1036.32 -1.78226 -0.601436 0
M  V30 11237 O 1035.68 -1.12491 -1.42181 0
M  V30 11238 C 1035.73 -3.37415 1.27213 0
M  V30 11239 O 1034.83 -4.10191 0.426246 0
M  V30 11240 H 1034.17 -0.589716 0.305173 0
M  V30 11241 H 1036.7 -1.44364 1.44984 0
M  V30 11242 H 1036.71 -3.88234 1.25451 0
M  V30 11243 H 1035.39 -3.44999 2.32268 0
M  V30 11244 H 1033.96 -3.69429 0.507585 0
M  V30 11245 N 1036.15 -0.873678 -1.31166 0
M  V30 11246 C 1037.56 -0.53852 -1.78765 0
M  V30 11247 C 1037.91 0.944765 -1.71955 0
M  V30 11248 O 1037.04 1.73781 -1.28954 0
M  V30 11249 C 1037.63 -0.970749 -3.24595 0
M  V30 11250 C 1036.19 -0.687189 -3.70074 0
M  V30 11251 C 1035.34 -1.16001 -2.51871 0
M  V30 11252 H 1038.29 -1.05903 -1.18196 0
M  V30 11253 H 1038.31 -0.294966 -3.79355 0
M  V30 11254 H 1037.82 -2.05034 -3.29519 0
M  V30 11255 H 1035.92 0.380881 -3.70648 0
M  V30 11256 H 1036.03 -1.26682 -4.62048 0
M  V30 11257 H 1034.4 -0.579663 -2.48016 0
M  V30 11258 H 1035.18 -2.2471 -2.59539 0
M  V30 11259 N 1037.63 1.44308 -0.633487 0
M  V30 11260 C 1039.04 1.56768 -0.29931 0
M  V30 11261 C 1039.24 1.62061 1.19743 0
M  V30 11262 O 1038.3 1.56492 1.98158 0
M  V30 11263 C 1039.61 2.8382 -0.993307 0
M  V30 11264 C 1041.16 2.97536 -0.971674 0
M  V30 11265 C 1041.63 4.27393 -1.64618 0
M  V30 11266 N 1043.13 4.34212 -1.61288 0
M  V30 11267 C 1043.86 5.33415 -2.1037 0
M  V30 11268 N 1043.36 6.3901 -2.67653 0
M  V30 11269 N 1045.15 5.24939 -2.00985 0
M  V30 11270 H 1037.3 1.39115 -1.60501 0
M  V30 11271 H 1039.56 0.666804 -0.673852 0
M  V30 11272 H 1039.27 2.85902 -2.04823 0
M  V30 11273 H 1039.14 3.73422 -0.532537 0
M  V30 11274 H 1041.53 2.95005 0.0747854 0
M  V30 11275 H 1041.61 2.09276 -1.47096 0
M  V30 11276 H 1041.26 4.30683 -2.6921 0
M  V30 11277 H 1041.19 5.14515 -1.12171 0
M  V30 11278 H 1043.68 3.58519 -1.19468 0
M  V30 11279 H 1043.99 7.10994 -3.02831 0
M  V30 11280 H 1042.33 6.39689 -2.71705 0
M  V30 11281 H 1045.53 4.41357 -1.55953 0
M  V30 11282 H 1045.7 6.02097 -2.39547 0
M  V30 11283 N 1039.1 0.374177 1.53094 0
M  V30 11284 C 1040.05 -0.468226 2.26001 0
M  V30 11285 C 1041.02 -1.07041 1.27009 0
M  V30 11286 O 1042.21 -1.10129 1.55809 0
M  V30 11287 C 1039.35 -1.59754 3.05896 0
M  V30 11288 C 1038.46 -1.01969 4.19793 0
M  V30 11289 C 1037.59 -2.11882 4.87113 0
M  V30 11290 C 1036.63 -1.51607 5.93028 0
M  V30 11291 N 1035.77 -2.55388 6.54004 0
M  V30 11292 H 1040.61 0.159983 2.9757 0
M  V30 11293 H 1038.15 0.0907196 1.4682 0
M  V30 11294 H 1040.11 -2.26288 3.50499 0
M  V30 11295 H 1038.74 -2.19628 2.36565 0
M  V30 11296 H 1037.79 -0.244386 3.79614 0
M  V30 11297 H 1039.1 -0.539089 4.95878 0
M  V30 11298 H 1038.25 -2.86218 5.34943 0
M  V30 11299 H 1036.99 -2.63297 4.10519 0
M  V30 11300 H 1036 -0.757891 5.44551 0
M  V30 11301 H 1037.22 -1.01006 6.71546 0
M  V30 11302 H 1035.17 -3.06 5.80258 0
M  V30 11303 H 1035.09 -2.12039 7.25655 0
M  V30 11304 H 1036.35 -3.294 7.06481 0
M  V30 11305 N 1040.58 -1.57259 0.103575 0
M  V30 11306 C 1041.83 -1.94272 -0.557024 0
M  V30 11307 C 1042.15 -0.986739 -1.68192 0
M  V30 11308 O 1041.42 -0.0402818 -1.95859 0
M  V30 11309 H 1040 -0.717237 -0.208757 0
M  V30 11310 H 1042.66 -1.94167 0.168898 0
M  V30 11311 H 1041.76 -2.96914 -0.961691 0
M  V30 11312 N 1042.06 0.170153 -1.56679 0
M  V30 11313 C 1043.31 0.883211 -1.83224 0
M  V30 11314 C 1043.66 1.7982 -0.68429 0
M  V30 11315 O 1042.95 1.88922 0.319204 0
M  V30 11316 C 1043.15 1.71402 -3.13618 0
M  V30 11317 C 1042.98 0.880967 -4.40986 0
M  V30 11318 C 1041.75 0.555594 -5.02236 0
M  V30 11319 C 1043.95 0.221986 -5.13821 0
M  V30 11320 N 1041.93 -0.293479 -6.13198 0
M  V30 11321 C 1043.3 -0.488202 -6.18075 0
M  V30 11322 C 1045.35 0.14027 -4.97702 0
M  V30 11323 C 1044.06 -1.27236 -7.07957 0
M  V30 11324 C 1046.08 -0.630556 -5.88029 0
M  V30 11325 C 1045.44 -1.3291 -6.91747 0
M  V30 11326 H 1041.54 0.301769 -0.721429 0
M  V30 11327 H 1044.13 0.150113 -1.9412 0
M  V30 11328 H 1042.3 2.41853 -3.03911 0
M  V30 11329 H 1044.03 2.36847 -3.28155 0
M  V30 11330 H 1040.79 0.885952 -4.6524 0
M  V30 11331 H 1041.21 -0.708359 -6.73284 0
M  V30 11332 H 1045.85 0.665983 -4.17522 0
M  V30 11333 H 1043.57 -1.80941 -7.87582 0
M  V30 11334 H 1047.16 -0.695468 -5.77628 0
M  V30 11335 H 1046.04 -1.916 -7.60433 0
M  V30 11336 N 1043.54 1.5137 0.438746 0
M  V30 11337 C 1044.76 1.68058 1.21537 0
M  V30 11338 C 1045.19 0.376787 1.84288 0
M  V30 11339 O 1044.55 -0.662911 1.68746 0
M  V30 11340 C 1044.59 2.79684 2.27616 0
M  V30 11341 O 1043.7 2.43189 3.33066 0
M  V30 11342 H 1043.04 0.560408 0.356144 0
M  V30 11343 H 1045.57 1.97926 0.518311 0
M  V30 11344 H 1045.58 3.03726 2.72423 0
M  V30 11345 H 1044.25 3.74293 1.81321 0
M  V30 11346 H 1042.83 2.29713 2.93746 0
M  V30 11347 N 1045.02 -0.694098 1.41492 0
M  V30 11348 C 1046.26 -1.45415 1.40929 0
M  V30 11349 C 1046.59 -1.94491 0.0189301 0
M  V30 11350 O 1045.85 -1.7 -0.96945 0
M  V30 11351 C 1046.15 -2.6805 2.36398 0
M  V30 11352 C 1045.81 -2.37623 3.83205 0
M  V30 11353 C 1044.47 -2.29035 4.23198 0
M  V30 11354 C 1046.83 -2.12555 4.75888 0
M  V30 11355 C 1044.15 -1.93478 5.5388 0
M  V30 11356 C 1046.51 -1.78506 6.06892 0
M  V30 11357 C 1045.17 -1.68415 6.45905 0
M  V30 11358 H 1044.44 -0.53211 0.515694 0
M  V30 11359 H 1047.09 -0.793193 1.74301 0
M  V30 11360 H 1045.39 -3.39086 1.96285 0
M  V30 11361 H 1047.09 -3.26194 2.33234 0
M  V30 11362 H 1043.68 -2.45202 3.51531 0
M  V30 11363 H 1047.86 -2.18133 4.45793 0
M  V30 11364 H 1043.12 -1.84219 5.82986 0
M  V30 11365 H 1047.29 -1.58128 6.7821 0
M  V30 11366 H 1044.92 -1.40631 7.47079 0
M  V30 11367 N 1046.49 -1.27344 -0.928501 0
M  V30 11368 C 1047.43 -1.04322 -2.02959 0
M  V30 11369 C 1048.41 0.0361118 -1.6256 0
M  V30 11370 O 1049.59 -0.108872 -1.88185 0
M  V30 11371 C 1046.72 -0.582329 -3.33656 0
M  V30 11372 C 1045.76 -1.65611 -3.93033 0
M  V30 11373 S 1046.6 -3.2484 -4.25722 0
M  V30 11374 C 1047.75 -2.8055 -5.59502 0
M  V30 11375 H 1047.98 -1.97548 -2.22176 0
M  V30 11376 H 1045.52 -1.11167 -1.07151 0
M  V30 11377 H 1047.48 -0.323095 -4.09227 0
M  V30 11378 H 1046.14 0.329858 -3.12363 0
M  V30 11379 H 1045.33 -1.28491 -4.87346 0
M  V30 11380 H 1044.93 -1.86738 -3.24045 0
M  V30 11381 H 1047.22 -2.25803 -6.38764 0
M  V30 11382 H 1048.17 -3.73603 -6.0152 0
M  V30 11383 H 1048.57 -2.19717 -5.19985 0
M  V30 11384 N 1047.97 1.13488 -1.09353 0
M  V30 11385 C 1048.92 2.16933 -0.701709 0
M  V30 11386 C 1049.91 1.58382 0.283553 0
M  V30 11387 O 1051.1 1.7675 0.0940391 0
M  V30 11388 C 1048.23 3.43079 -0.123031 0
M  V30 11389 C 1047.31 4.08639 -1.13466 0
M  V30 11390 N 1047.7 4.49377 -2.32152 0
M  V30 11391 C 1046 4.35265 -0.972632 0
M  V30 11392 C 1046.7 5.00464 -2.96497 0
M  V30 11393 N 1045.68 4.95275 -2.24061 0
M  V30 11394 H 1049.48 2.46183 -1.60534 0
M  V30 11395 H 1047 1.30275 -0.969644 0
M  V30 11396 H 1048.99 4.1653 0.17569 0
M  V30 11397 H 1047.65 3.15304 0.775461 0
M  V30 11398 H 1048.66 4.42105 -2.69748 0
M  V30 11399 H 1045.34 4.17301 -0.12876 0
M  V30 11400 H 1046.73 5.41785 -3.9739 0
M  V30 11401 N 1049.45 0.880621 1.30701 0
M  V30 11402 C 1050.86 0.547993 1.78477 0
M  V30 11403 C 1051.21 -0.935633 1.72454 0
M  V30 11404 O 1050.34 -1.73094 1.29874 0
M  V30 11405 C 1050.93 0.98795 3.24076 0
M  V30 11406 C 1049.49 0.706805 3.69704 0
M  V30 11407 C 1048.64 1.17335 2.51252 0
M  V30 11408 H 1051.59 1.06528 1.17633 0
M  V30 11409 H 1051.61 0.31508 3.79193 0
M  V30 11410 H 1051.12 2.06778 3.28427 0
M  V30 11411 H 1049.22 -0.36122 3.70845 0
M  V30 11412 H 1049.34 1.2913 4.6137 0
M  V30 11413 H 1047.7 0.592808 2.47705 0
M  V30 11414 H 1048.48 2.26083 2.58343 0
M  V30 11415 N 1050.93 -1.4397 0.641131 0
M  V30 11416 C 1052.18 -2.01548 0.149333 0
M  V30 11417 C 1052.5 -1.50759 -1.23679 0
M  V30 11418 O 1051.77 -0.715257 -1.82376 0
M  V30 11419 H 1050.35 -0.745173 0.0522161 0
M  V30 11420 H 1053.01 -1.7634 0.830082 0
M  V30 11421 H 1052.11 -3.11851 0.124676 0
M  V30 11422 N 1052.41 -0.382291 -1.52893 0
M  V30 11423 C 1053.82 -0.031941 -1.59568 0
M  V30 11424 C 1054.02 1.45245 -1.39664 0
M  V30 11425 O 1053.08 2.21612 -1.21013 0
M  V30 11426 C 1054.39 -0.502846 -2.96466 0
M  V30 11427 C 1055.94 -0.4585 -3.09624 0
M  V30 11428 C 1056.42 -0.905481 -4.4896 0
M  V30 11429 N 1057.91 -0.861211 -4.55124 0
M  V30 11430 C 1058.64 -1.17856 -5.61157 0
M  V30 11431 N 1058.14 -1.56603 -6.74868 0
M  V30 11432 N 1059.93 -1.10027 -5.51226 0
M  V30 11433 H 1052.08 -1.34875 -1.64081 0
M  V30 11434 H 1054.34 -0.552375 -0.770446 0
M  V30 11435 H 1054.05 -1.53931 -3.16225 0
M  V30 11436 H 1053.92 0.101777 -3.77063 0
M  V30 11437 H 1056.31 0.568868 -2.89565 0
M  V30 11438 H 1056.39 -1.09884 -2.30996 0
M  V30 11439 H 1056.04 -1.93105 -4.69759 0
M  V30 11440 H 1055.97 -0.242227 -5.26043 0
M  V30 11441 H 1058.46 -0.575988 -3.73485 0
M  V30 11442 H 1058.77 -1.792 -7.51736 0
M  V30 11443 H 1057.12 -1.60484 -6.76217 0
M  V30 11444 H 1060.31 -0.796623 -4.61272 0
M  V30 11445 H 1060.48 -1.35091 -6.33762 0
M  V30 11446 N 1053.89 1.57202 -0.111913 0
M  V30 11447 C 1054.82 2.17957 0.837683 0
M  V30 11448 C 1055.8 1.1176 1.28233 0
M  V30 11449 O 1056.98 1.39967 1.34621 0
M  V30 11450 C 1054.11 2.77333 2.09054 0
M  V30 11451 C 1053.07 3.8905 1.78393 0
M  V30 11452 C 1052.39 4.35203 3.10649 0
M  V30 11453 C 1053.69 5.11477 1.05775 0
M  V30 11454 H 1055.39 2.9756 0.331441 0
M  V30 11455 H 1052.93 1.43131 0.157979 0
M  V30 11456 H 1054.88 3.18492 2.75936 0
M  V30 11457 H 1053.61 1.95009 2.6199 0
M  V30 11458 H 1052.27 3.48456 1.13903 0
M  V30 11459 H 1051.92 3.49747 3.61506 0
M  V30 11460 H 1051.62 5.10534 2.9091 0
M  V30 11461 H 1053.14 4.79007 3.78661 0
M  V30 11462 H 1054.55 5.497 1.62798 0
M  V30 11463 H 1052.95 5.92346 0.961573 0
M  V30 11464 H 1054.02 4.84881 0.043297 0
M  V30 11465 N 1055.36 -0.161842 1.56767 0
M  V30 11466 C 1056.59 -0.892247 1.86672 0
M  V30 11467 C 1057.01 -1.75407 0.69841 0
M  V30 11468 O 1056.36 -1.7945 -0.332251 0
M  V30 11469 C 1056.41 -1.7612 3.15696 0
M  V30 11470 O 1056.14 -0.934131 4.28025 0
M  V30 11471 C 1057.64 -2.60046 3.59014 0
M  V30 11472 H 1054.86 -0.258747 0.619105 0
M  V30 11473 H 1057.4 -0.159089 2.0388 0
M  V30 11474 H 1055.56 -2.44759 3.00286 0
M  V30 11475 H 1055.97 -1.52931 5.01709 0
M  V30 11476 H 1057.44 -3.16618 4.5217 0
M  V30 11477 H 1057.92 -3.35374 2.83586 0
M  V30 11478 H 1058.53 -1.96724 3.77067 0
M  V30 11479 N 1056.84 -1.516 -0.430713 0
M  V30 11480 C 1057.79 -1.69776 -1.52185 0
M  V30 11481 C 1058.78 -0.551692 -1.51146 0
M  V30 11482 O 1059.97 -0.807883 -1.57487 0
M  V30 11483 C 1057.1 -1.83222 -2.90318 0
M  V30 11484 C 1056.18 -3.03633 -2.96087 0
M  V30 11485 N 1056.57 -4.267 -2.71589 0
M  V30 11486 C 1054.87 -3.03024 -3.2725 0
M  V30 11487 C 1055.57 -5.08011 -2.83372 0
M  V30 11488 N 1054.55 -4.42798 -3.15327 0
M  V30 11489 H 1058.35 -2.62586 -1.32006 0
M  V30 11490 H 1055.86 -1.49338 -0.63812 0
M  V30 11491 H 1057.86 -1.94355 -3.68825 0
M  V30 11492 H 1056.52 -0.915971 -3.11513 0
M  V30 11493 H 1057.53 -4.55535 -2.46391 0
M  V30 11494 H 1054.21 -2.21055 -3.54176 0
M  V30 11495 H 1055.6 -6.15995 -2.68329 0
M  V30 11496 N 1058.32 0.686584 -1.41858 0
M  V30 11497 C 1059.25 1.81264 -1.47193 0
M  V30 11498 C 1060.23 1.66875 -0.329657 0
M  V30 11499 O 1061.42 1.86473 -0.542347 0
M  V30 11500 C 1058.55 3.19472 -1.36216 0
M  V30 11501 C 1057.5 3.4858 -2.48347 0
M  V30 11502 C 1056.83 4.86239 -2.22432 0
M  V30 11503 C 1058.13 3.46653 -3.90678 0
M  V30 11504 H 1059.82 1.77057 -2.41436 0
M  V30 11505 H 1057.37 0.850415 -1.16206 0
M  V30 11506 H 1059.32 3.97969 -1.38558 0
M  V30 11507 H 1058.04 3.24327 -0.384611 0
M  V30 11508 H 1056.7 2.72437 -2.45303 0
M  V30 11509 H 1056.35 4.8773 -1.22999 0
M  V30 11510 H 1056.05 5.06677 -2.97577 0
M  V30 11511 H 1057.57 5.67034 -2.26505 0
M  V30 11512 H 1058.99 4.15139 -3.95389 0
M  V30 11513 H 1057.38 3.78625 -4.65578 0
M  V30 11514 H 1058.45 2.45451 -4.18189 0
M  V30 11515 N 1059.8 1.27835 0.921735 0
M  V30 11516 C 1060.75 1.07723 2.00947 0
M  V30 11517 C 1061.73 0.00336676 1.609 0
M  V30 11518 O 1062.92 0.222593 1.75595 0
M  V30 11519 C 1060.05 0.732732 3.35389 0
M  V30 11520 C 1059.14 1.84504 3.81863 0
M  V30 11521 N 1059.53 3.08551 4.00787 0
M  V30 11522 C 1057.83 1.73308 4.10951 0
M  V30 11523 C 1058.53 3.80974 4.39584 0
M  V30 11524 N 1057.5 3.08773 4.47393 0
M  V30 11525 H 1061.31 2.01854 2.13617 0
M  V30 11526 H 1058.82 1.18637 1.109 0
M  V30 11527 H 1060.82 0.56975 4.12988 0
M  V30 11528 H 1059.48 -0.200885 3.24078 0
M  V30 11529 H 1060.49 3.44248 3.86928 0
M  V30 11530 H 1057.17 0.870698 4.0832 0
M  V30 11531 H 1058.56 4.87617 4.62255 0
M  V30 11532 N 1061.28 -1.12907 1.09954 0
M  V30 11533 C 1062.19 -2.22082 0.756095 0
M  V30 11534 C 1063.2 -1.72277 -0.244272 0
M  V30 11535 O 1064.38 -2.01224 -0.0842637 0
M  V30 11536 C 1061.44 -3.46192 0.187642 0
M  V30 11537 C 1060.5 -4.10861 1.24465 0
M  V30 11538 C 1059.74 -5.29047 0.703227 0
M  V30 11539 O 1059.96 -5.68443 -0.472043 0
M  V30 11540 O 1058.89 -5.83904 1.46082 0
M  V30 11541 H 1062.72 -2.53842 1.66727 0
M  V30 11542 H 1060.3 -1.21145 0.874316 0
M  V30 11543 H 1062.19 -4.21212 -0.125774 0
M  V30 11544 H 1060.86 -3.16119 -0.696459 0
M  V30 11545 H 1059.77 -3.37643 1.61085 0
M  V30 11546 H 1061.1 -4.45078 2.10159 0
M  V30 11547 N 1062.75 -0.88754 -1.30232 0
M  V30 11548 C 1064 -0.506277 -1.95656 0
M  V30 11549 C 1064.32 0.948191 -1.70395 0
M  V30 11550 O 1063.59 1.66701 -1.02895 0
M  V30 11551 H 1062.17 -0.184235 -0.723924 0
M  V30 11552 H 1064.83 -1.13118 -1.58715 0
M  V30 11553 H 1063.93 -0.678673 -3.04632 0
M  V30 11554 N 1064.23 1.43628 -0.648757 0
M  V30 11555 C 1065.16 2.33478 0.0320785 0
M  V30 11556 C 1066.14 1.49217 0.816605 0
M  V30 11557 O 1067.33 1.77892 0.778974 0
M  V30 11558 C 1064.46 3.32525 1.00222 0
M  V30 11559 C 1063.41 4.2674 0.328119 0
M  V30 11560 C 1062.74 5.15791 1.4094 0
M  V30 11561 C 1064.04 5.16493 -0.776701 0
M  V30 11562 H 1065.73 2.90657 -0.718257 0
M  V30 11563 H 1063.28 1.3976 -0.346852 0
M  V30 11564 H 1065.23 3.94277 1.4874 0
M  V30 11565 H 1063.96 2.73593 1.78366 0
M  V30 11566 H 1062.61 3.66346 -0.136569 0
M  V30 11567 H 1062.26 4.53201 2.18216 0
M  V30 11568 H 1061.96 5.79645 0.963631 0
M  V30 11569 H 1063.49 5.80416 1.89603 0
M  V30 11570 H 1064.9 5.7208 -0.373878 0
M  V30 11571 H 1063.3 5.89043 -1.14667 0
M  V30 11572 H 1064.37 4.56448 -1.63654 0
M  V30 11573 N 1065.71 0.390394 1.52688 0
M  V30 11574 C 1067.12 -0.083394 1.86514 0
M  V30 11575 C 1067.47 -1.46057 1.31003 0
M  V30 11576 O 1066.6 -2.06663 0.641809 0
M  V30 11577 C 1067.19 -0.158102 3.38431 0
M  V30 11578 C 1065.75 -0.576186 3.71964 0
M  V30 11579 C 1064.9 0.261156 2.76068 0
M  V30 11580 H 1067.85 0.608226 1.46582 0
M  V30 11581 H 1067.87 -0.977023 3.67742 0
M  V30 11582 H 1067.38 0.844365 3.78803 0
M  V30 11583 H 1065.48 -1.58598 3.37161 0
M  V30 11584 H 1065.6 -0.333577 4.77937 0
M  V30 11585 H 1063.96 -0.273737 2.53225 0
M  V30 11586 H 1064.74 1.26162 3.19277 0
M  V30 11587 N 1067.19 -1.57141 0.120249 0
M  V30 11588 C 1068.43 -1.95527 -0.538245 0
M  V30 11589 C 1068.77 -1.00373 -1.6625 0
M  V30 11590 O 1068.04 -0.0411734 -1.94456 0
M  V30 11591 C 1068.33 -3.43843 -1.06976 0
M  V30 11592 C 1068.18 -4.49771 0.0511596 0
M  V30 11593 C 1069.5 -3.94035 -1.96022 0
M  V30 11594 H 1066.62 -0.710958 -0.194183 0
M  V30 11595 H 1069.26 -1.88986 0.196061 0
M  V30 11596 H 1067.41 -3.49548 -1.69553 0
M  V30 11597 H 1069.08 -4.56163 0.686503 0
M  V30 11598 H 1067.32 -4.27882 0.714127 0
M  V30 11599 H 1067.99 -5.50812 -0.361995 0
M  V30 11600 H 1070.47 -3.9064 -1.43315 0
M  V30 11601 H 1069.35 -4.98329 -2.3013 0
M  V30 11602 H 1069.61 -3.34803 -2.8872 0
M  V30 11603 N 1068.67 0.153526 -1.5685 0
M  V30 11604 C 1069.61 1.18973 -1.97773 0
M  V30 11605 C 1070.58 1.43041 -0.844311 0
M  V30 11606 O 1071.77 1.55484 -1.10586 0
M  V30 11607 C 1068.91 2.51981 -2.35795 0
M  V30 11608 C 1068.02 2.35143 -3.62397 0
M  V30 11609 C 1067.16 3.61141 -3.89552 0
M  V30 11610 C 1066.2 3.39311 -5.09445 0
M  V30 11611 N 1065.33 4.57423 -5.32643 0
M  V30 11612 H 1070.17 0.833758 -2.86099 0
M  V30 11613 H 1067.71 0.400252 -1.4155 0
M  V30 11614 H 1069.67 3.29527 -2.55867 0
M  V30 11615 H 1068.3 2.85539 -1.50557 0
M  V30 11616 H 1067.35 1.48684 -3.50139 0
M  V30 11617 H 1068.66 2.14969 -4.501 0
M  V30 11618 H 1067.82 4.47117 -4.10087 0
M  V30 11619 H 1066.55 3.84312 -3.00259 0
M  V30 11620 H 1065.56 2.51723 -4.8879 0
M  V30 11621 H 1066.78 3.17545 -6.00285 0
M  V30 11622 H 1064.73 4.8078 -4.46303 0
M  V30 11623 H 1064.65 4.40228 -6.14602 0
M  V30 11624 H 1065.92 5.44632 -5.57671 0
M  V30 11625 N 1070.14 1.51827 0.422667 0
M  V30 11626 C 1071.09 1.74791 1.53463 0
M  V30 11627 C 1072.09 0.614602 1.57858 0
M  V30 11628 O 1073.29 0.796336 1.61426 0
M  V30 11629 H 1069.67 0.552524 0.510118 0
M  V30 11630 H 1071.64 2.67974 1.31273 0
M  V30 11631 C 1070.39 1.90339 2.90975 0
M  V30 11632 H 1069.71 2.76958 2.8833 0
M  V30 11633 H 1071.15 2.10413 3.68106 0
M  V30 11634 C 1069.61 0.66695 3.30232 0
M  V30 11635 O 1070.14 -0.171542 4.01334 0
M  V30 11636 N 1068.35 0.506768 2.86147 0
M  V30 11637 H 1067.89 1.19019 2.28456 0
M  V30 11638 H 1067.85 -0.319247 3.12775 0
M  V30 11639 N 1071.62 -0.679052 1.4222 0
M  V30 11640 C 1072.87 -1.43627 1.42182 0
M  V30 11641 C 1073.19 -1.94964 0.0377095 0
M  V30 11642 O 1072.46 -1.72788 -0.923098 0
M  V30 11643 H 1071.04 -0.532972 0.523402 0
M  V30 11644 H 1073.7 -0.802649 1.77605 0
M  V30 11645 H 1072.8 -2.29137 2.11902 0
M  V30 11646 N 1073.1 -1.28322 -0.914942 0
M  V30 11647 C 1074.33 -1.18254 -1.69775 0
M  V30 11648 C 1074.74 0.258978 -1.87015 0
M  V30 11649 O 1074.1 1.17514 -1.3963 0
M  V30 11650 C 1074.15 -1.8753 -3.09054 0
M  V30 11651 O 1073.87 -3.26051 -2.92613 0
M  V30 11652 C 1075.37 -1.83749 -4.03424 0
M  V30 11653 H 1072.59 -0.41055 -0.530744 0
M  V30 11654 H 1075.14 -1.69425 -1.14523 0
M  V30 11655 H 1073.29 -1.40233 -3.61128 0
M  V30 11656 H 1073.71 -3.60729 -3.80756 0
M  V30 11657 H 1075.18 -2.36813 -4.98622 0
M  V30 11658 H 1075.66 -0.809601 -4.31674 0
M  V30 11659 H 1076.26 -2.3072 -3.57279 0
M  V30 11660 N 1074.58 1.12322 -1.10551 0
M  V30 11661 C 1075.99 1.35858 -0.837543 0
M  V30 11662 C 1076.19 1.94062 0.54241 0
M  V30 11663 O 1075.25 2.1676 1.29505 0
M  V30 11664 C 1076.56 2.299 -1.9382 0
M  V30 11665 C 1078.11 2.43488 -1.96679 0
M  V30 11666 C 1078.59 3.40846 -3.05922 0
M  V30 11667 N 1080.08 3.48404 -3.05236 0
M  V30 11668 C 1080.81 4.2365 -3.86405 0
M  V30 11669 N 1080.31 5.01951 -4.77512 0
M  V30 11670 N 1082.1 4.19068 -3.74618 0
M  V30 11671 H 1074.25 0.729002 -1.99498 0
M  V30 11672 H 1076.52 0.38339 -0.867016 0
M  V30 11673 H 1076.22 1.94309 -2.9315 0
M  V30 11674 H 1076.1 3.30033 -1.82641 0
M  V30 11675 H 1078.48 2.78359 -0.979813 0
M  V30 11676 H 1078.56 1.43239 -2.11934 0
M  V30 11677 H 1078.21 3.06704 -4.04839 0
M  V30 11678 H 1078.14 4.40927 -2.87907 0
M  V30 11679 H 1080.63 2.92545 -2.39219 0
M  V30 11680 H 1080.94 5.56707 -5.36002 0
M  V30 11681 H 1079.29 5.01143 -4.8154 0
M  V30 11682 H 1082.48 3.5698 -3.02792 0
M  V30 11683 H 1082.65 4.77455 -4.38111 0
M  V30 11684 N 1076.06 0.894434 1.2976 0
M  V30 11685 C 1077.29 0.532143 1.99629 0
M  V30 11686 C 1077.69 -0.886234 1.6716 0
M  V30 11687 O 1077.04 -1.59573 0.910065 0
M  V30 11688 C 1077.1 0.638335 3.53787 0
M  V30 11689 C 1076.76 2.02273 4.09798 0
M  V30 11690 C 1077.76 2.99327 4.25087 0
M  V30 11691 C 1075.45 2.33069 4.44954 0
M  V30 11692 C 1077.44 4.25304 4.74758 0
M  V30 11693 C 1075.13 3.59289 4.94322 0
M  V30 11694 C 1076.12 4.55222 5.09178 0
M  V30 11695 O 1075.81 5.79202 5.57477 0
M  V30 11696 H 1075.54 0.203326 0.644697 0
M  V30 11697 H 1078.1 1.2043 1.6639 0
M  V30 11698 H 1076.33 -0.0908338 3.86593 0
M  V30 11699 H 1078.02 0.285956 4.04891 0
M  V30 11700 H 1078.78 2.76849 3.9822 0
M  V30 11701 H 1074.66 1.59162 4.32653 0
M  V30 11702 H 1078.21 5.00189 4.86269 0
M  V30 11703 H 1074.1 3.816 5.20626 0
M  V30 11704 H 1074.87 5.81717 5.75802 0
M  V30 11705 N 1077.53 -1.43282 0.656365 0
M  V30 11706 C 1078.78 -2.00996 0.168354 0
M  V30 11707 C 1079.1 -1.52408 -1.22601 0
M  V30 11708 O 1080.3 -2.02417 -1.80941 0
M  V30 11709 C 1078.76 -3.5903 0.250161 0
M  V30 11710 C 1078.37 -4.1661 1.64742 0
M  V30 11711 C 1080.11 -4.24118 -0.180084 0
M  V30 11712 C 1078.02 -5.66948 1.68299 0
M  V30 11713 H 1076.95 -0.751674 0.0591769 0
M  V30 11714 H 1079.6 -1.64216 0.818859 0
M  V30 11715 H 1077.98 -3.93226 -0.467908 0
M  V30 11716 H 1079.15 -3.93908 2.3911 0
M  V30 11717 H 1077.47 -3.63905 2.02391 0
M  V30 11718 H 1080.07 -5.34419 -0.173401 0
M  V30 11719 H 1080.41 -3.98264 -1.21208 0
M  V30 11720 H 1080.94 -3.94816 0.486343 0
M  V30 11721 H 1077.68 -5.97573 2.69419 0
M  V30 11722 H 1077.2 -5.91697 0.98261 0
M  V30 11723 H 1078.88 -6.31041 1.42813 0
M  V30 11724 N 1079.01 -0.398486 -1.52479 0
M  V30 11725 C 1079.98 0.420206 -2.25315 0
M  V30 11726 C 1080.98 0.982559 -1.27289 0
M  V30 11727 O 1082.17 0.863113 -1.51314 0
M  V30 11728 C 1079.3 1.59045 -3.01525 0
M  V30 11729 H 1080.49 -0.217599 -2.9911 0
M  V30 11730 H 1078.04 -0.150784 -1.55571 0
M  V30 11731 H 1078.78 2.26542 -2.32054 0
M  V30 11732 H 1078.56 1.19382 -3.73484 0
M  V30 11733 H 1080.05 2.16984 -3.56802 0
M  V30 11734 N 1080.49 1.57075 -0.12858 0
M  V30 11735 C 1081.74 1.9581 0.527868 0
M  V30 11736 C 1082.07 1.01253 1.65715 0
M  V30 11737 O 1081.35 0.0514853 1.94432 0
M  V30 11738 C 1081.63 3.44406 1.05151 0
M  V30 11739 C 1081.48 4.49737 -0.0750113 0
M  V30 11740 C 1082.8 3.95069 1.9393 0
M  V30 11741 H 1079.92 0.711978 0.19041 0
M  V30 11742 H 1082.56 1.88879 -0.206081 0
M  V30 11743 H 1080.71 3.50443 1.67697 0
M  V30 11744 H 1082.38 4.55793 -0.710685 0
M  V30 11745 H 1080.63 4.27497 -0.736809 0
M  V30 11746 H 1081.3 5.50996 0.332779 0
M  V30 11747 H 1083.77 3.91395 1.41241 0
M  V30 11748 H 1082.65 4.99542 2.27484 0
M  V30 11749 H 1082.91 3.36329 2.86941 0
M  V30 11750 N 1081.97 -0.145205 1.5693 0
M  V30 11751 C 1083.19 -0.876386 1.87974 0
M  V30 11752 C 1083.62 -1.73866 0.717795 0
M  V30 11753 O 1082.98 -1.78224 -0.332551 0
M  V30 11754 C 1083.03 -1.70746 3.17613 0
M  V30 11755 O 1082.13 -2.81188 3.01674 0
M  V30 11756 H 1081.47 -0.243987 0.617549 0
M  V30 11757 H 1084 -0.135482 2.04151 0
M  V30 11758 H 1084.01 -2.1021 3.49679 0
M  V30 11759 H 1082.69 -1.07429 4.01786 0
M  V30 11760 H 1081.26 -2.45117 2.81019 0
M  V30 11761 N 1083.45 -1.52049 -0.414609 0
M  V30 11762 C 1084.69 -1.65838 -1.16206 0
M  V30 11763 C 1085.02 -0.385623 -1.90639 0
M  V30 11764 O 1084.28 0.631214 -1.85241 0
M  V30 11765 C 1084.58 -2.82735 -2.18622 0
M  V30 11766 C 1084.24 -4.21163 -1.61037 0
M  V30 11767 C 1082.9 -4.58816 -1.45056 0
M  V30 11768 C 1085.26 -5.0745 -1.18928 0
M  V30 11769 C 1082.58 -5.8044 -0.854761 0
M  V30 11770 C 1084.94 -6.29674 -0.607686 0
M  V30 11771 C 1083.6 -6.66081 -0.434968 0
M  V30 11772 H 1082.87 -0.606845 -0.425229 0
M  V30 11773 H 1085.52 -1.86137 -0.450009 0
M  V30 11774 H 1083.82 -2.56749 -2.95952 0
M  V30 11775 H 1085.52 -2.90601 -2.76319 0
M  V30 11776 H 1082.11 -3.91488 -1.74457 0
M  V30 11777 H 1086.29 -4.78948 -1.30086 0
M  V30 11778 H 1081.55 -6.07276 -0.70891 0
M  V30 11779 H 1085.72 -6.95865 -0.272988 0
M  V30 11780 H 1083.35 -7.60195 0.0288116 0
M  V30 11781 N 1084.93 0.6715 -1.42579 0
M  V30 11782 C 1086.17 1.42731 -1.42516 0
M  V30 11783 C 1086.49 1.95545 -0.0462407 0
M  V30 11784 O 1087.69 2.71391 0.0769798 0
M  V30 11785 C 1086.15 2.58215 -2.50705 0
M  V30 11786 C 1085.76 2.12086 -3.94618 0
M  V30 11787 C 1087.5 3.35705 -2.59813 0
M  V30 11788 C 1085.41 3.24672 -4.9431 0
M  V30 11789 H 1084.34 0.536218 -0.530081 0
M  V30 11790 H 1086.99 0.726655 -1.68499 0
M  V30 11791 H 1085.37 3.30665 -2.17892 0
M  V30 11792 H 1086.55 1.46768 -4.36802 0
M  V30 11793 H 1084.86 1.47526 -3.89391 0
M  V30 11794 H 1087.46 4.1956 -3.31472 0
M  V30 11795 H 1087.8 3.82517 -1.64276 0
M  V30 11796 H 1088.33 2.70326 -2.91836 0
M  V30 11797 H 1085.07 2.82848 -5.91335 0
M  V30 11798 H 1084.59 3.88761 -4.56755 0
M  V30 11799 H 1086.27 3.90088 -5.16179 0
M  V30 11800 N 1086.4 1.28806 0.908124 0
M  V30 11801 C 1087.68 1.06981 1.63751 0
M  V30 11802 C 1088.06 -0.388936 2.07486 0
M  V30 11803 O 1087.41 -1.37611 1.82415 0
M  V30 11804 C 1087.62 2.04962 2.82474 0
M  V30 11805 C 1088.97 2.35418 3.5336 0
M  V30 11806 O 1089.99 2.03091 2.92631 0
M  V30 11807 O 1088.85 2.90617 4.62822 0
M  V30 11808 H 1085.94 0.409267 0.71863 0
M  V30 11809 H 1088.49 1.40146 0.956934 0
M  V30 11810 H 1087.26 3.03254 2.47291 0
M  V30 11811 H 1086.88 1.72476 3.58242 0
M  V30 11812 N 1087.88 -1.11734 1.11145 0
M  V30 11813 C 1089.29 -1.64928 0.874959 0
M  V30 11814 C 1089.64 -1.87012 -0.593375 0
M  V30 11815 O 1088.77 -1.60206 -1.45475 0
M  V30 11816 C 1089.36 -2.99608 1.58178 0
M  V30 11817 C 1087.92 -3.49723 1.39179 0
M  V30 11818 C 1087.07 -2.24595 1.62642 0
M  V30 11819 H 1090.02 -0.954154 1.26813 0
M  V30 11820 H 1090.04 -3.66434 1.02501 0
M  V30 11821 H 1089.55 -2.83504 2.65042 0
M  V30 11822 H 1087.65 -3.70998 0.345111 0
M  V30 11823 H 1087.77 -4.28711 2.13878 0
M  V30 11824 H 1086.13 -2.32067 1.04961 0
M  V30 11825 H 1086.91 -2.11036 2.70774 0
M  V30 11826 O 1089.4 -1.03367 -1.24087 0
M  V30 11827 H 1090.09 -0.701445 -1.80553 0
M  V30 END ATOM
M  V30 BEGIN BOND
M  V30 END BOND
M  V30 END CTAB
M  END
$$$$
