drugbank_target|P04150 Glucocorticoid receptor (DB00180; DB00223; DB00240; DB00253; DB00288; DB00324; DB00351; DB00367; DB00394; DB00396; DB00421; DB00443; DB00547; DB00588; DB00591; DB00596; DB00620; DB00635; DB00663; DB00687; DB00717; DB00741; DB00764; DB00769; DB00834; DB00838; DB00846; DB00860; DB00896; DB00959; DB01013; DB01047; DB01130; DB01185; DB01222; DB01234; DB01260; DB01380; DB01384; DB01395; DB01410; DB02210; DB04630; DB05423; DB06781; DB08867; DB08906; DB09091; DB09095; DB11619; DB11921; DB12637; DB13003; DB13158; DB13867; DB14512; DB14538; DB14539; DB14540; DB14541; DB14542; DB14543; DB14544; DB14583; DB14596; DB14631; DB14649; DB14669; DB15566)
 OpenBabel12092119403D

  0  0  0     0  0            999 V3000
M  V30 BEGIN CTAB
M  V30 COUNTS 11955 12070 0 0 0
M  V30 BEGIN ATOM
M  V30 1 H -0.908 1.98254 -0.117106 0
M  V30 2 N 0 1.576 0 0
M  V30 3 C 0.933 2.03868 1.02534 0
M  V30 4 C 1.911 0.928543 1.3348 0
M  V30 5 O 3.095 1.19667 1.45644 0
M  V30 6 C 0.222 2.43627 2.35294 0
M  V30 7 C -0.732 3.65373 2.2001 0
M  V30 8 S 0.101 5.13292 1.52614 0
M  V30 9 C 1.257 5.56322 2.86805 0
M  V30 10 H 1.49 2.90518 0.631377 0
M  V30 11 H -0.977 1.52953 0.210867 0
M  V30 12 H 0.981 2.67203 3.11629 0
M  V30 13 H -0.358 1.57376 2.7183 0
M  V30 14 H -1.165 3.90944 3.18086 0
M  V30 15 H -1.563 3.418 1.51819 0
M  V30 16 H 0.729 5.58782 3.83104 0
M  V30 17 H 1.672 6.56266 2.65933 0
M  V30 18 H 2.08 4.83886 2.90714 0
M  V30 19 N 1.4781 -0.272755 1.55222 0
M  V30 20 C 2.7551 -1.02562 1.66555 0
M  V30 21 C 3.1351 -2.04282 0.532189 0
M  V30 22 O 2.4831 -2.23662 -0.467717 0
M  V30 23 C 2.6931 -1.6822 3.05782 0
M  V30 24 C 4.0411 -2.19373 3.63539 0
M  V30 25 O 5.0651 -1.78206 3.08417 0
M  V30 26 O 3.9241 -2.94883 4.60115 0
M  V30 27 H 1.0181 -0.475755 0.676451 0
M  V30 28 H 3.5641 -0.268593 1.67561 0
M  V30 29 H 2.3361 -0.945112 3.79715 0
M  V30 30 H 1.9591 -2.50609 3.08676 0
M  V30 31 N 2.9562 -1.48159 -0.537278 0
M  V30 32 C 4.1812 -1.59707 -1.32319 0
M  V30 33 C 4.6062 -0.254859 -1.86365 0
M  V30 34 O 3.9642 0.772378 -1.64024 0
M  V30 35 C 4.0122 -2.6412 -2.45505 0
M  V30 36 O 3.1162 -2.20774 -3.48328 0
M  V30 37 H 2.4572 -0.535791 -0.392204 0
M  V30 38 H 4.9872 -1.94092 -0.647268 0
M  V30 39 H 4.9972 -2.85166 -2.91795 0
M  V30 40 H 3.6722 -3.61567 -2.05528 0
M  V30 41 H 2.2492 -2.09911 -3.08207 0
M  V30 42 N 4.4343 0.785586 -1.36625 0
M  V30 43 C 5.3813 1.89838 -1.31264 0
M  V30 44 C 6.3513 1.65115 -0.180633 0
M  V30 45 O 7.5363 1.87222 -0.36777 0
M  V30 46 C 4.6763 3.26706 -1.11163 0
M  V30 47 C 3.7893 3.63476 -2.33472 0
M  V30 48 C 2.9243 4.89481 -2.06353 0
M  V30 49 C 1.9633 5.18941 -3.24602 0
M  V30 50 N 1.1003 6.36131 -2.97123 0
M  V30 51 H 5.9403 1.93756 -2.26413 0
M  V30 52 H 3.4773 0.947454 -1.12524 0
M  V30 53 H 5.4353 4.05639 -0.975337 0
M  V30 54 H 4.0653 3.222 -0.196674 0
M  V30 55 H 3.1173 2.79636 -2.57891 0
M  V30 56 H 4.4293 3.81193 -3.21704 0
M  V30 57 H 3.5833 5.76288 -1.89675 0
M  V30 58 H 2.3223 4.73841 -1.15437 0
M  V30 59 H 1.3273 4.30615 -3.41834 0
M  V30 60 H 2.5523 5.36498 -4.16349 0
M  V30 61 H 0.4983 6.21875 -2.08823 0
M  V30 62 H 0.4153 6.54198 -3.78894 0
M  V30 63 H 1.6833 7.2591 -2.84033 0
M  V30 64 N 5.9124 1.20967 1.01018 0
M  V30 65 C 6.8224 0.980157 2.13143 0
M  V30 66 C 7.8384 -0.0660665 1.73875 0
M  V30 67 O 9.0144 0.122821 2.01025 0
M  V30 68 C 6.0794 0.54216 3.42435 0
M  V30 69 C 5.1404 1.65999 3.95908 0
M  V30 70 C 4.3734 1.2428 5.19028 0
M  V30 71 O 4.5964 0.114196 5.70286 0
M  V30 72 O 3.5304 2.05271 5.65816 0
M  V30 73 H 7.3564 1.91913 2.35379 0
M  V30 74 H 4.9414 0.994099 1.11526 0
M  V30 75 H 6.8234 0.30744 4.20277 0
M  V30 76 H 5.4984 -0.36815 3.216 0
M  V30 77 H 4.4054 1.94906 3.19316 0
M  V30 78 H 5.7384 2.54753 4.21143 0
M  V30 79 N 7.3905 -1.2043 1.01659 0
M  V30 80 C 8.6155 -1.94318 0.724942 0
M  V30 81 C 9.0405 -1.74266 -0.708034 0
M  V30 82 O 8.3985 -1.03694 -1.48719 0
M  V30 83 C 8.4465 -3.44486 1.06591 0
M  V30 84 O 7.5505 -4.12017 0.177599 0
M  V30 85 H 6.8915 -0.60708 0.26898 0
M  V30 86 H 9.4215 -1.52861 1.35995 0
M  V30 87 H 9.4315 -3.95106 1.01762 0
M  V30 88 H 8.1065 -3.58404 2.10997 0
M  V30 89 H 6.6835 -3.71821 0.283421 0
M  V30 90 N 8.8686 -0.792821 -1.36206 0
M  V30 91 C 9.7986 -0.207853 -2.32573 0
M  V30 92 C 10.7796 0.659055 -1.56813 0
M  V30 93 O 11.9646 0.592176 -1.84951 0
M  V30 94 C 9.0946 0.655449 -3.41059 0
M  V30 95 C 8.0486 -0.111842 -4.27854 0
M  V30 96 C 7.3746 0.872274 -5.27537 0
M  V30 97 C 8.6746 -1.30299 -5.05786 0
M  V30 98 H 10.3686 -1.01294 -2.81744 0
M  V30 99 H 7.9146 -0.48854 -1.3546 0
M  V30 100 H 9.8676 1.07464 -4.07467 0
M  V30 101 H 8.5916 1.49328 -2.90463 0
M  V30 102 H 7.2506 -0.512053 -3.63006 0
M  V30 103 H 6.8986 1.70523 -4.73214 0
M  V30 104 H 6.5986 0.363291 -5.86476 0
M  V30 105 H 8.1226 1.28996 -5.96818 0
M  V30 106 H 9.5366 -0.959379 -5.65216 0
M  V30 107 H 7.9336 -1.7455 -5.74154 0
M  V30 108 H 9.0036 -2.09663 -4.37229 0
M  V30 109 N 10.3467 1.47872 -0.545128 0
M  V30 110 C 11.5747 2.06889 -0.021084 0
M  V30 111 C 11.9897 1.39955 1.2672 0
M  V30 112 O 11.3467 0.492036 1.75742 0
M  V30 113 C 11.3977 3.60996 0.190817 0
M  V30 114 O 11.1187 4.25419 -1.04644 0
M  V30 115 C 12.6197 4.36849 0.753521 0
M  V30 116 H 9.8397 0.669785 -0.0403635 0
M  V30 117 H 12.3837 1.90049 -0.755095 0
M  V30 118 H 10.5387 3.77391 0.87492 0
M  V30 119 H 10.9527 5.17785 -0.836611 0
M  V30 120 H 12.4267 5.45399 0.851139 0
M  V30 121 H 12.9037 4.02306 1.762 0
M  V30 122 H 13.5097 4.25169 0.105503 0
M  V30 123 N 11.8248 0.280983 1.55075 0
M  V30 124 C 13.2358 -0.215629 1.85451 0
M  V30 125 C 13.5868 -1.54991 1.203 0
M  V30 126 O 12.7118 -2.10699 0.493435 0
M  V30 127 C 13.3068 -0.398026 3.36454 0
M  V30 128 C 11.8658 -0.838866 3.66933 0
M  V30 129 C 11.0128 0.064458 2.77225 0
M  V30 130 H 13.9638 0.502601 1.50531 0
M  V30 131 H 13.9848 -1.23569 3.59876 0
M  V30 132 H 13.4968 0.573241 3.83843 0
M  V30 133 H 11.5978 -1.8214 3.25048 0
M  V30 134 H 11.7108 -0.672123 4.74362 0
M  V30 135 H 10.0748 -0.452863 2.50642 0
M  V30 136 H 10.8578 1.03172 3.2743 0
M  V30 137 N 13.3029 -1.57598 0.00835791 0
M  V30 138 C 14.5509 -1.90551 -0.6734 0
M  V30 139 C 14.8719 -0.883301 -1.73847 0
M  V30 140 O 14.1419 0.0781442 -1.95744 0
M  V30 141 H 12.7219 -0.703312 -0.251717 0
M  V30 142 H 15.3839 -1.94833 0.0512592 0
M  V30 143 H 14.4799 -2.9056 -1.13935 0
M  V30 144 N 14.781 0.264519 -1.55364 0
M  V30 145 C 16.197 0.61215 -1.47394 0
M  V30 146 C 16.397 1.89134 -0.695018 0
M  V30 147 O 15.453 2.51563 -0.217275 0
M  V30 148 C 16.766 0.731235 -2.91674 0
M  V30 149 C 18.314 0.82473 -3.01939 0
M  V30 150 C 18.789 0.975522 -4.4749 0
M  V30 151 N 20.28 1.04083 -4.51354 0
M  V30 152 C 21.015 1.17646 -5.61201 0
M  V30 153 N 20.511 1.27874 -6.80896 0
M  V30 154 N 22.304 1.20823 -5.48961 0
M  V30 155 H 14.455 -0.575456 -2.04456 0
M  V30 156 H 16.718 -0.196099 -0.927496 0
M  V30 157 H 16.424 -0.138392 -3.51428 0
M  V30 158 H 16.298 1.60883 -3.41169 0
M  V30 159 H 18.685 1.68482 -2.42276 0
M  V30 160 H 18.766 -0.0776479 -2.55682 0
M  V30 161 H 18.41 0.120058 -5.07758 0
M  V30 162 H 18.34 1.89268 -4.91412 0
M  V30 163 H 20.831 0.973846 -3.65136 0
M  V30 164 H 21.144 1.38081 -7.60364 0
M  V30 165 H 19.489 1.24863 -6.83692 0
M  V30 166 H 22.68 1.12469 -4.54388 0
M  V30 167 H 22.853 1.31049 -6.3461 0
M  V30 168 N 16.2591 1.48442 0.529413 0
M  V30 169 C 17.1691 1.6569 1.66084 0
M  V30 170 C 18.1851 0.539432 1.65427 0
M  V30 171 O 19.3611 0.810572 1.84368 0
M  V30 172 C 16.4261 1.69315 3.02545 0
M  V30 173 C 15.4871 2.92694 3.14052 0
M  V30 174 C 14.7201 2.96137 4.44003 0
M  V30 175 O 14.9431 2.07973 5.31134 0
M  V30 176 O 13.8771 3.88312 4.59888 0
M  V30 177 H 17.7031 2.61483 1.54469 0
M  V30 178 H 15.2881 1.3185 0.702567 0
M  V30 179 H 17.1701 1.74217 3.83701 0
M  V30 180 H 15.8451 0.766966 3.14483 0
M  V30 181 H 14.7521 2.93324 2.32189 0
M  V30 182 H 16.0851 3.84699 3.0703 0
M  V30 183 N 17.7372 -0.778329 1.37039 0
M  V30 184 C 18.6472 -1.92253 1.34446 0
M  V30 185 C 19.6632 -1.72267 0.244991 0
M  V30 186 O 20.8392 -1.95615 0.479258 0
M  V30 187 C 17.9042 -3.27282 1.144 0
M  V30 188 C 16.9652 -3.59969 2.33925 0
M  V30 189 C 16.1982 -4.88555 2.14825 0
M  V30 190 O 16.4212 -5.59113 1.12912 0
M  V30 191 O 15.3552 -5.20153 3.02861 0
M  V30 192 H 19.1812 -1.97392 2.30803 0
M  V30 193 H 16.7662 -0.920154 1.17701 0
M  V30 194 H 18.6482 -4.08062 1.05182 0
M  V30 195 H 17.3232 -3.23011 0.211124 0
M  V30 196 H 16.2302 -2.7945 2.48714 0
M  V30 197 H 17.5632 -3.68976 3.25757 0
M  V30 198 N 19.2153 -1.21501 -1.00376 0
M  V30 199 C 20.1633 -0.972442 -2.11297 0
M  V30 200 C 21.1573 0.080731 -1.69208 0
M  V30 201 O 22.3633 -0.0707666 -1.79861 0
M  V30 202 H 18.7383 -0.297218 -0.690772 0
M  V30 203 H 20.7093 -1.91394 -2.28934 0
M  V30 204 C 19.4583 -0.555065 -3.43241 0
M  V30 205 H 18.7813 -1.35709 -3.76062 0
M  V30 206 H 20.2213 -0.424664 -4.21868 0
M  V30 207 C 18.6803 0.734147 -3.28804 0
M  V30 208 O 19.2103 1.78937 -3.59645 0
M  V30 209 N 17.4163 0.701133 -2.82015 0
M  V30 210 H 16.9633 -0.157874 -2.57116 0
M  V30 211 H 16.9213 1.56403 -2.72737 0
M  V30 212 N 20.6934 1.19889 -1.02296 0
M  V30 213 C 22.1044 1.71124 -0.746568 0
M  V30 214 C 22.4554 1.81939 0.734335 0
M  V30 215 O 21.5804 1.48639 1.57275 0
M  V30 216 C 22.1754 3.10804 -1.34857 0
M  V30 217 C 20.7344 3.59323 -1.1209 0
M  V30 218 C 19.8814 2.3635 -1.45031 0
M  V30 219 H 22.8324 1.04813 -1.19163 0
M  V30 220 H 22.8534 3.73186 -0.742437 0
M  V30 221 H 22.3654 3.029 -2.42638 0
M  V30 222 H 20.4664 3.7255 -0.0610337 0
M  V30 223 H 20.5794 4.4378 -1.80544 0
M  V30 224 H 18.9434 2.39399 -0.869487 0
M  V30 225 H 19.7264 2.31081 -2.53883 0
M  V30 226 N 22.1715 0.800033 1.35784 0
M  V30 227 C 23.3965 0.388511 2.03729 0
M  V30 228 C 23.8215 -0.990481 1.5991 0
M  V30 229 O 23.1795 -1.64013 0.772612 0
M  V30 230 C 23.2275 0.4726 3.5749 0
M  V30 231 O 22.3315 -0.51646 4.09153 0
M  V30 232 H 21.6725 0.163271 0.643614 0
M  V30 233 H 24.2025 1.0841 1.73518 0
M  V30 234 H 24.2125 0.34003 4.06581 0
M  V30 235 H 22.8875 1.47848 3.88734 0
M  V30 236 H 21.4645 -0.344673 3.71304 0
M  V30 237 N 23.6496 -1.47581 0.552962 0
M  V30 238 C 24.8746 -2.07378 0.0300593 0
M  V30 239 C 25.2996 -1.40355 -1.25229 0
M  V30 240 O 24.6576 -0.477099 -1.7491 0
M  V30 241 C 24.7056 -3.60274 -0.153231 0
M  V30 242 O 23.8096 -3.94041 -1.21678 0
M  V30 243 H 23.1506 -0.662158 0.0494182 0
M  V30 244 H 25.6806 -1.89662 0.767434 0
M  V30 245 H 25.6906 -4.0633 -0.368761 0
M  V30 246 H 24.3656 -4.08455 0.783397 0
M  V30 247 H 22.9426 -3.59735 -0.982079 0
M  V30 248 N 25.1277 -0.289203 -1.54924 0
M  V30 249 C 26.3737 0.323998 -2.00195 0
M  V30 250 C 26.7067 1.54441 -1.17735 0
M  V30 251 O 25.9817 1.92875 -0.250878 0
M  V30 252 C 26.2647 0.692276 -3.53383 0
M  V30 253 C 26.1177 -0.536457 -4.46589 0
M  V30 254 C 27.4367 1.52335 -4.12895 0
M  V30 255 H 24.5557 0.116289 -0.727768 0
M  V30 256 H 27.1977 -0.398954 -1.85764 0
M  V30 257 H 25.3477 1.30822 -3.65811 0
M  V30 258 H 27.0197 -1.17499 -4.46085 0
M  V30 259 H 25.2627 -1.17192 -4.1767 0
M  V30 260 H 25.9337 -0.234806 -5.515 0
M  V30 261 H 28.4097 1.00302 -4.0383 0
M  V30 262 H 27.2857 1.74982 -5.20262 0
M  V30 263 H 27.5467 2.50886 -3.64018 0
M  V30 264 N 26.6058 1.57591 -0.0167156 0
M  V30 265 C 27.5358 2.12496 0.967858 0
M  V30 266 C 28.5168 1.03807 1.34752 0
M  V30 267 O 29.7018 1.31577 1.42833 0
M  V30 268 C 26.8318 2.64194 2.25431 0
M  V30 269 C 25.7858 3.77559 2.01576 0
M  V30 270 C 25.1118 4.15636 3.36379 0
M  V30 271 C 26.4118 5.04151 1.36489 0
M  V30 272 H 28.1058 2.95013 0.510643 0
M  V30 273 H 25.6518 1.41915 0.244181 0
M  V30 274 H 27.6048 3.01236 2.94678 0
M  V30 275 H 26.3288 1.78821 2.73296 0
M  V30 276 H 24.9878 3.40937 1.34751 0
M  V30 277 H 24.6358 3.27263 3.81979 0
M  V30 278 H 24.3358 4.92022 3.21229 0
M  V30 279 H 25.8598 4.5525 4.06915 0
M  V30 280 H 27.2738 5.38857 1.95718 0
M  V30 281 H 25.6708 5.85453 1.31776 0
M  V30 282 H 26.7408 4.83733 0.336219 0
M  V30 283 N 28.0839 -0.256276 1.55502 0
M  V30 284 C 29.0469 -1.30047 1.88734 0
M  V30 285 C 30.0469 -1.4154 0.763086 0
M  V30 286 O 31.2369 -1.40403 1.03115 0
M  V30 287 C 28.3689 -2.67953 2.10747 0
M  V30 288 H 29.5619 -1.01802 2.82093 0
M  V30 289 H 27.1149 -0.495134 1.4825 0
M  V30 290 H 27.8499 -3.01351 1.19825 0
M  V30 291 H 27.6349 -2.60993 2.92617 0
M  V30 292 H 29.1249 -3.43368 2.37673 0
M  V30 293 N 29.562 -1.4872 -0.521534 0
M  V30 294 C 30.494 -1.59968 -1.64143 0
M  V30 295 C 31.507 -0.483463 -1.55456 0
M  V30 296 O 32.696 -0.75467 -1.61762 0
M  V30 297 C 29.796 -1.52127 -3.02838 0
M  V30 298 C 28.969 -2.78932 -3.36921 0
M  V30 299 C 28.028 -2.64428 -4.54933 0
M  V30 300 O 27.054 -3.38331 -4.57735 0
M  V30 301 N 28.256 -1.74606 -5.53618 0
M  V30 302 H 31.021 -2.56548 -1.54929 0
M  V30 303 H 28.582 -1.45551 -0.708988 0
M  V30 304 H 30.574 -1.40106 -3.79674 0
M  V30 305 H 29.144 -0.634868 -3.06085 0
M  V30 306 H 28.364 -3.05455 -2.4918 0
M  V30 307 H 29.652 -3.63041 -3.56481 0
M  V30 308 H 29.05 -1.13782 -5.54139 0
M  V30 309 H 27.607 -1.6852 -6.29638 0
M  V30 310 N 31.0401 0.771051 -1.3745 0
M  V30 311 C 31.9501 1.91538 -1.35464 0
M  V30 312 C 32.9661 1.72134 -0.254123 0
M  V30 313 O 34.1421 1.95358 -0.489626 0
M  V30 314 C 31.2071 3.26671 -1.16134 0
M  V30 315 C 30.2681 3.58723 -2.35831 0
M  V30 316 C 29.5011 4.87409 -2.17413 0
M  V30 317 O 29.7241 5.58506 -1.15876 0
M  V30 318 O 28.6581 5.18539 -3.05615 0
M  V30 319 H 32.4841 1.96165 -2.31847 0
M  V30 320 H 30.0691 0.9139 -1.18187 0
M  V30 321 H 31.9511 4.07499 -1.07345 0
M  V30 322 H 30.6261 3.22894 -0.228251 0
M  V30 323 H 29.5331 2.78127 -2.50192 0
M  V30 324 H 30.8661 3.67243 -3.27709 0
M  V30 325 N 32.5182 1.22032 0.997298 0
M  V30 326 C 33.9342 0.979326 1.26021 0
M  V30 327 C 34.1342 -0.32972 1.98784 0
M  V30 328 O 33.1902 -1.05345 2.29475 0
M  V30 329 C 34.5032 2.17509 2.07631 0
M  V30 330 C 36.0512 2.21817 2.2083 0
M  V30 331 C 36.5262 3.40933 3.05825 0
M  V30 332 N 38.0172 3.41067 3.13412 0
M  V30 333 C 38.7522 4.29885 3.79455 0
M  V30 334 N 38.2482 5.28914 4.47462 0
M  V30 335 N 40.0412 4.17673 3.76173 0
M  V30 336 H 32.1922 2.06202 0.509352 0
M  V30 337 H 34.4552 0.90334 0.287541 0
M  V30 338 H 34.1612 3.12415 1.61524 0
M  V30 339 H 34.0352 2.17206 3.08385 0
M  V30 340 H 36.4222 1.27462 2.66153 0
M  V30 341 H 36.5032 2.2616 1.1952 0
M  V30 342 H 36.1472 4.35586 2.61203 0
M  V30 343 H 36.0772 3.33829 4.07266 0
M  V30 344 H 38.5682 2.69406 2.65007 0
M  V30 345 H 38.8812 5.92973 4.95583 0
M  V30 346 H 37.2262 5.32831 4.46224 0
M  V30 347 H 40.4172 3.39564 3.22202 0
M  V30 348 H 40.5902 4.87098 4.27363 0
M  V30 349 N 33.9963 -1.19345 1.0293 0
M  V30 350 C 35.2443 -1.88665 0.724574 0
M  V30 351 C 35.5653 -1.80036 -0.749144 0
M  V30 352 O 34.8353 -1.2111 -1.53978 0
M  V30 353 H 33.4153 -0.698406 0.265025 0
M  V30 354 H 36.0773 -1.44885 1.30362 0
M  V30 355 H 35.1733 -2.94987 1.01926 0
M  V30 356 N 35.4744 -0.807222 -1.35358 0
M  V30 357 C 36.7514 -0.311126 -1.9311 0
M  V30 358 C 37.1314 1.19937 -1.73719 0
M  V30 359 O 36.4794 1.99918 -1.10657 0
M  V30 360 C 36.6894 -0.723226 -3.41424 0
M  V30 361 C 38.0374 -0.713078 -4.18569 0
M  V30 362 O 39.0614 -0.664811 -3.49941 0
M  V30 363 O 37.9204 -0.772022 -5.41019 0
M  V30 364 H 35.0144 -0.081526 -0.822972 0
M  V30 365 H 37.5604 -0.890962 -1.4443 0
M  V30 366 H 36.3324 -1.76426 -3.4927 0
M  V30 367 H 35.9554 -0.118232 -3.97424 0
M  V30 368 N 36.9525 1.47285 -0.560781 0
M  V30 369 C 38.1985 2.02764 -0.0381184 0
M  V30 370 C 38.5315 1.43384 1.30976 0
M  V30 371 O 37.8065 0.590733 1.85312 0
M  V30 372 C 38.0895 3.60064 0.0511427 0
M  V30 373 C 37.9425 4.2987 -1.32408 0
M  V30 374 C 39.2615 4.33439 0.762795 0
M  V30 375 H 36.3805 0.736841 -0.0153264 0
M  V30 376 H 39.0225 1.75675 -0.723759 0
M  V30 377 H 37.1725 3.83274 0.635065 0
M  V30 378 H 38.8445 4.17989 -1.95148 0
M  V30 379 H 37.0875 3.90085 -1.8978 0
M  V30 380 H 37.7585 5.38478 -1.21431 0
M  V30 381 H 40.2345 4.15243 0.266965 0
M  V30 382 H 39.1105 5.43124 0.794221 0
M  V30 383 H 39.3715 4.02915 1.81966 0
M  V30 384 N 38.4306 0.297415 1.54768 0
M  V30 385 C 39.3636 -0.622188 2.19554 0
M  V30 386 C 40.3416 -1.13558 1.16376 0
M  V30 387 O 41.5256 -1.20444 1.45002 0
M  V30 388 C 38.6526 -1.8509 2.83653 0
M  V30 389 C 37.6986 -1.47106 4.00328 0
M  V30 390 S 38.5316 -0.53006 5.3287 0
M  V30 391 C 39.6876 -1.76665 6.0045 0
M  V30 392 H 39.9206 -0.0717806 2.97213 0
M  V30 393 H 37.4536 0.0815678 1.54184 0
M  V30 394 H 39.4116 -2.55605 3.21211 0
M  V30 395 H 38.0726 -2.37247 2.05846 0
M  V30 396 H 37.2656 -2.38594 4.43947 0
M  V30 397 H 36.8676 -0.845885 3.64309 0
M  V30 398 H 39.1596 -2.7077 6.21039 0
M  V30 399 H 40.1026 -1.37308 6.9466 0
M  V30 400 H 40.5106 -1.94174 5.30054 0
M  V30 401 N 39.9087 -1.5758 0.0250728 0
M  V30 402 C 41.1857 -1.82917 -0.692873 0
M  V30 403 C 41.5657 -0.908137 -1.90568 0
M  V30 404 O 40.9137 0.0372298 -2.2847 0
M  V30 405 C 41.1237 -3.32034 -1.07492 0
M  V30 406 C 42.4717 -3.98406 -1.46826 0
M  V30 407 O 43.4957 -3.36505 -1.16801 0
M  V30 408 O 42.3547 -5.07497 -2.02754 0
M  V30 409 H 39.4487 -0.754079 -0.33955 0
M  V30 410 H 41.9947 -1.69619 0.0524456 0
M  V30 411 H 40.7667 -3.90728 -0.211552 0
M  V30 412 H 40.3897 -3.50424 -1.87854 0
M  V30 413 N 41.3868 0.248026 -1.55636 0
M  V30 414 C 42.6338 0.976224 -1.77415 0
M  V30 415 C 42.9618 1.85361 -0.589193 0
M  V30 416 O 42.2168 1.90973 0.427529 0
M  V30 417 C 42.5158 1.86819 -3.04686 0
M  V30 418 C 42.1818 1.14625 -4.36087 0
M  V30 419 C 40.8438 0.946723 -4.71795 0
M  V30 420 C 43.1958 0.634463 -5.17324 0
M  V30 421 C 40.5238 0.223091 -5.86276 0
M  V30 422 C 42.8758 -0.0756959 -6.32555 0
M  V30 423 C 41.5398 -0.286711 -6.66884 0
M  V30 424 H 40.8098 0.357226 -0.649208 0
M  V30 425 H 43.4568 0.246415 -1.89908 0
M  V30 426 H 41.7618 2.66502 -2.872 0
M  V30 427 H 43.4588 2.43329 -3.18735 0
M  V30 428 H 40.0488 1.3117 -4.08035 0
M  V30 429 H 44.2328 0.77616 -4.90193 0
M  V30 430 H 39.4888 0.0491185 -6.1138 0
M  V30 431 H 43.6628 -0.479899 -6.94745 0
M  V30 432 H 41.2898 -0.849389 -7.5544 0
M  V30 433 N 42.8649 1.48995 0.513639 0
M  V30 434 C 44.0949 1.61297 1.291 0
M  V30 435 C 44.5029 0.278656 1.87137 0
M  V30 436 O 43.8459 -0.744325 1.67945 0
M  V30 437 C 43.9079 2.61326 2.46879 0
M  V30 438 C 43.5719 4.05993 2.09807 0
M  V30 439 C 44.5689 4.93183 1.64519 0
M  V30 440 C 42.2539 4.51642 2.19829 0
M  V30 441 C 44.2479 6.24056 1.2974 0
M  V30 442 C 41.9349 5.82532 1.84662 0
M  V30 443 C 42.9329 6.68562 1.3969 0
M  V30 444 O 42.6209 7.97014 1.04992 0
M  V30 445 H 42.3529 0.546236 0.39825 0
M  V30 446 H 44.9069 1.95673 0.62459 0
M  V30 447 H 43.1369 2.22104 3.16554 0
M  V30 448 H 44.8259 2.6329 3.08923 0
M  V30 449 H 45.5919 4.59147 1.56233 0
M  V30 450 H 41.4709 3.84855 2.53786 0
M  V30 451 H 45.0149 6.91161 0.945659 0
M  V30 452 H 40.9119 6.16099 1.92594 0
M  V30 453 H 41.6799 8.09913 1.18249 0
M  V30 454 N 44.343 -0.763751 1.37857 0
M  V30 455 C 45.29 -1.87726 1.34267 0
M  V30 456 C 46.26 -1.64807 0.206879 0
M  V30 457 O 47.445 -1.86613 0.397508 0
M  V30 458 C 44.585 -3.24896 1.16346 0
M  V30 459 C 43.698 -3.59716 2.39225 0
M  V30 460 C 42.833 -4.86137 2.14114 0
M  V30 461 C 41.872 -5.13711 3.32817 0
M  V30 462 N 41.009 -6.31323 3.07206 0
M  V30 463 H 45.849 -1.90129 2.29466 0
M  V30 464 H 43.386 -0.929433 1.14017 0
M  V30 465 H 45.344 -4.04036 1.03975 0
M  V30 466 H 43.974 -3.21847 0.247909 0
M  V30 467 H 43.026 -2.75498 2.62307 0
M  V30 468 H 44.338 -3.76027 3.27728 0
M  V30 469 H 43.492 -5.73198 1.9882 0
M  V30 470 H 42.231 -4.71945 1.22961 0
M  V30 471 H 41.236 -4.25123 3.48641 0
M  V30 472 H 42.461 -5.29807 4.24832 0
M  V30 473 H 40.407 -6.18474 2.1869 0
M  V30 474 H 40.324 -6.48087 3.89254 0
M  V30 475 H 41.592 -7.213 2.95546 0
M  V30 476 N 45.8211 -1.22559 -0.990812 0
M  V30 477 C 47.0491 -1.07779 -1.76611 0
M  V30 478 C 47.4641 0.371513 -1.85109 0
M  V30 479 O 46.8211 1.25737 -1.32274 0
M  V30 480 C 46.8721 -1.68512 -3.19822 0
M  V30 481 O 46.5931 -3.07774 -3.1178 0
M  V30 482 C 48.0941 -1.59035 -4.13791 0
M  V30 483 H 45.3141 -0.377729 -0.554583 0
M  V30 484 H 47.8581 -1.62195 -1.24551 0
M  V30 485 H 46.0131 -1.18154 -3.68942 0
M  V30 486 H 46.4271 -3.37062 -4.01858 0
M  V30 487 H 47.9011 -2.0625 -5.1202 0
M  V30 488 H 48.3781 -0.547273 -4.35777 0
M  V30 489 H 48.9841 -2.08709 -3.70568 0
M  V30 490 N 47.2992 1.18797 -1.03562 0
M  V30 491 C 48.2292 2.24472 -0.643019 0
M  V30 492 C 49.2102 1.66433 0.351283 0
M  V30 493 O 50.3952 1.92803 0.232505 0
M  V30 494 C 47.5252 3.473 4.24935e-05 0
M  V30 495 C 46.4792 4.18055 -0.917257 0
M  V30 496 C 45.8052 5.34519 -0.138941 0
M  V30 497 C 47.1052 4.72109 -2.23407 0
M  V30 498 H 48.7992 2.57566 -1.52643 0
M  V30 499 H 46.3452 1.23806 -0.735394 0
M  V30 500 H 48.2982 4.20426 0.286383 0
M  V30 501 H 47.0222 3.13424 0.918299 0
M  V30 502 H 45.6812 3.46821 -1.1879 0
M  V30 503 H 45.3292 4.96891 0.781562 0
M  V30 504 H 45.0292 5.82794 -0.750005 0
M  V30 505 H 46.5532 6.10438 0.1405 0
M  V30 506 H 47.9672 5.36955 -2.00879 0
M  V30 507 H 46.3642 5.30897 -2.79765 0
M  V30 508 H 47.4342 3.89807 -2.88407 0
M  V30 509 N 48.7773 0.814389 1.34928 0
M  V30 510 C 50.1933 0.499084 1.51596 0
M  V30 511 C 50.3933 -0.978319 1.76157 0
M  V30 512 O 49.4493 -1.76309 1.80752 0
M  V30 513 C 50.7623 1.35121 2.68631 0
M  V30 514 C 52.3103 1.34746 2.82511 0
M  V30 515 C 52.7853 2.18388 4.0258 0
M  V30 516 N 54.2763 2.15966 4.09772 0
M  V30 517 C 55.0113 2.77437 5.01813 0
M  V30 518 N 54.5073 3.47866 5.99134 0
M  V30 519 N 56.3003 2.67037 4.94619 0
M  V30 520 H 48.4513 1.7711 1.17243 0
M  V30 521 H 50.7143 0.754256 0.574284 0
M  V30 522 H 50.4203 2.40001 2.57085 0
M  V30 523 H 50.2943 1.00991 3.63429 0
M  V30 524 H 52.6813 0.30648 2.93504 0
M  V30 525 H 52.7623 1.72869 1.88547 0
M  V30 526 H 52.4063 3.2253 3.92347 0
M  V30 527 H 52.3363 1.77621 4.9574 0
M  V30 528 H 54.8273 1.64729 3.40107 0
M  V30 529 H 55.1403 3.92038 6.65977 0
M  V30 530 H 53.4853 3.51972 5.99284 0
M  V30 531 H 56.6763 2.11597 4.17546 0
M  V30 532 H 56.8493 3.15232 5.66156 0
M  V30 533 N 50.2554 -1.46986 0.568584 0
M  V30 534 C 51.5034 -2.02041 0.0487022 0
M  V30 535 C 51.8244 -1.44408 -1.31039 0
M  V30 536 O 51.0944 -0.623477 -1.85714 0
M  V30 537 H 49.6744 -0.746849 0.015014 0
M  V30 538 H 52.3364 -1.80257 0.741168 0
M  V30 539 H 51.4324 -3.12085 -0.0308961 0
M  V30 540 N 51.7335 -0.305618 -1.54608 0
M  V30 541 C 52.9815 0.301701 -1.99835 0
M  V30 542 C 53.3025 1.54054 -1.19551 0
M  V30 543 O 52.5725 1.93702 -0.292658 0
M  V30 544 H 51.1525 0.114468 -0.738178 0
M  V30 545 H 53.8145 -0.418016 -1.90364 0
M  V30 546 H 52.9105 0.570548 -3.06841 0
M  V30 547 N 53.2116 1.57565 -0.0334293 0
M  V30 548 C 54.1746 2.09393 0.932048 0
M  V30 549 C 55.1746 1.00986 1.25134 0
M  V30 550 O 56.3646 1.27129 1.19096 0
M  V30 551 C 53.4966 2.56338 2.2473 0
M  V30 552 H 54.6896 2.95984 0.483085 0
M  V30 553 H 52.2426 1.54819 0.21468 0
M  V30 554 H 52.9776 1.7309 2.74245 0
M  V30 555 H 52.7626 3.35542 2.02865 0
M  V30 556 H 54.2526 2.96646 2.93923 0
M  V30 557 N 54.6897 -0.239769 1.55765 0
M  V30 558 C 55.9177 -0.98417 1.81994 0
M  V30 559 C 56.3327 -1.7867 0.610124 0
M  V30 560 O 55.6897 -1.77571 -0.421271 0
M  V30 561 C 55.7407 -1.91635 3.06526 0
M  V30 562 O 55.4617 -1.14629 4.22838 0
M  V30 563 C 56.9627 -2.77616 3.45607 0
M  V30 564 H 54.1827 -0.28928 0.605441 0
M  V30 565 H 56.7267 -0.260499 2.02834 0
M  V30 566 H 54.8817 -2.5942 2.87715 0
M  V30 567 H 55.2957 -1.77745 4.93464 0
M  V30 568 H 56.7697 -3.38759 4.35828 0
M  V30 569 H 57.2467 -3.4909 2.6652 0
M  V30 570 H 57.8527 -2.15271 3.66795 0
M  V30 571 N 56.1678 -1.49265 -0.50573 0
M  V30 572 C 57.4138 -1.58748 -1.26202 0
M  V30 573 C 57.7468 -0.271227 -1.92297 0
M  V30 574 O 57.0218 0.724831 -1.80489 0
M  V30 575 C 57.3048 -2.74332 -2.33268 0
M  V30 576 C 57.1578 -4.15737 -1.71705 0
M  V30 577 C 58.4768 -2.85576 -3.34865 0
M  V30 578 H 55.5958 -0.577826 -0.457478 0
M  V30 579 H 58.2378 -1.81532 -0.560897 0
M  V30 580 H 56.3878 -2.55036 -2.93068 0
M  V30 581 H 58.0598 -4.46537 -1.15769 0
M  V30 582 H 56.3028 -4.21605 -1.02135 0
M  V30 583 H 56.9738 -4.92477 -2.49341 0
M  V30 584 H 59.4498 -3.03127 -2.8505 0
M  V30 585 H 58.3258 -3.68135 -4.07146 0
M  V30 586 H 58.5868 -1.94732 -3.96903 0
M  V30 587 N 57.6459 0.756429 -1.3826 0
M  V30 588 C 58.5929 1.87011 -1.35261 0
M  V30 589 C 59.5629 1.64695 -0.215616 0
M  V30 590 O 60.7479 1.864 -0.407399 0
M  V30 591 C 57.8879 3.24275 -1.18068 0
M  V30 592 C 57.0009 3.58442 -2.41129 0
M  V30 593 C 56.1359 4.84994 -2.16689 0
M  V30 594 C 55.1749 5.11939 -3.35537 0
M  V30 595 N 54.3119 6.29685 -3.10549 0
M  V30 596 H 59.1519 1.8891 -2.30472 0
M  V30 597 H 56.6889 0.923373 -1.14509 0
M  V30 598 H 58.6469 4.03479 -1.06116 0
M  V30 599 H 57.2769 3.21711 -0.264973 0
M  V30 600 H 56.3289 2.74103 -2.63764 0
M  V30 601 H 57.6409 3.74283 -3.29717 0
M  V30 602 H 56.7949 5.72135 -2.01857 0
M  V30 603 H 55.5339 4.71286 -1.25462 0
M  V30 604 H 54.5389 4.23268 -3.50891 0
M  V30 605 H 55.7639 5.27546 -4.27635 0
M  V30 606 H 53.7099 6.17306 -2.21967 0
M  V30 607 H 53.6269 6.46014 -3.92686 0
M  V30 608 H 54.8949 7.19722 -2.99367 0
M  V30 609 N 59.124 1.23083 0.984299 0
M  V30 610 C 60.37 1.06214 1.72761 0
M  V30 611 C 60.703 -0.400584 1.90024 0
M  V30 612 O 59.978 -1.29672 1.44967 0
M  V30 613 C 60.261 1.78375 3.12817 0
M  V30 614 C 60.114 3.32296 3.03149 0
M  V30 615 C 61.433 1.54309 4.12161 0
M  V30 616 H 58.552 0.387251 0.627061 0
M  V30 617 H 61.194 1.51536 1.14616 0
M  V30 618 H 59.344 1.39848 3.62457 0
M  V30 619 H 61.016 3.8032 2.61064 0
M  V30 620 H 59.259 3.6153 2.39747 0
M  V30 621 H 59.93 3.77972 4.02295 0
M  V30 622 H 62.406 1.87791 3.71314 0
M  V30 623 H 61.282 2.07281 5.08258 0
M  V30 624 H 61.543 0.477572 4.39513 0
M  V30 625 N 60.6021 -1.18246 1.0419 0
M  V30 626 C 61.8271 -1.92736 0.765996 0
M  V30 627 C 62.2521 -1.75728 -0.67091 0
M  V30 628 O 61.6101 -1.06825 -1.46486 0
M  V30 629 C 61.6581 -3.42148 1.13875 0
M  V30 630 O 60.7621 -4.11548 0.264954 0
M  V30 631 H 60.1031 -0.601238 0.281797 0
M  V30 632 H 62.6331 -1.49942 1.39207 0
M  V30 633 H 62.6431 -3.92858 1.1012 0
M  V30 634 H 61.3181 -3.53848 2.18551 0
M  V30 635 H 59.8951 -3.71137 0.362226 0
M  V30 636 N 62.0802 -0.821533 -1.34494 0
M  V30 637 C 63.0432 -0.247847 -2.27856 0
M  V30 638 C 64.0432 0.573453 -1.50227 0
M  V30 639 O 65.2332 0.389759 -1.69784 0
M  V30 640 C 62.3652 0.652698 -3.34593 0
M  V30 641 H 63.5582 -1.07146 -2.80107 0
M  V30 642 H 61.1112 -0.593291 -1.44602 0
M  V30 643 H 61.8462 1.49943 -2.87555 0
M  V30 644 H 61.6312 0.065292 -3.92046 0
M  V30 645 H 63.1212 1.04793 -4.04238 0
M  V30 646 N 63.5583 1.46682 -0.576371 0
M  V30 647 C 64.7833 2.07304 -0.0630475 0
M  V30 648 C 65.2083 1.42329 1.2298 0
M  V30 649 O 64.5663 0.504865 1.74129 0
M  V30 650 C 64.6143 3.60472 0.095895 0
M  V30 651 O 63.7183 3.95927 1.15394 0
M  V30 652 H 63.0593 0.661288 -0.0599463 0
M  V30 653 H 65.5893 1.88417 -0.797511 0
M  V30 654 H 65.5993 4.06865 0.304071 0
M  V30 655 H 64.2743 4.07157 -0.84828 0
M  V30 656 H 62.8513 3.61252 0.924724 0
M  V30 657 N 65.0364 0.313813 1.54444 0
M  V30 658 C 66.2614 -0.296681 2.05267 0
M  V30 659 C 66.6864 -1.45757 1.18897 0
M  V30 660 O 66.0444 -1.80239 0.195886 0
M  V30 661 C 66.0924 -0.71831 3.53373 0
M  V30 662 O 65.1964 -1.82175 3.69981 0
M  V30 663 H 64.5374 -0.0554061 0.661684 0
M  V30 664 H 67.0674 0.459387 1.99376 0
M  V30 665 H 67.0774 -1.00364 3.95463 0
M  V30 666 H 65.7524 0.130821 4.15694 0
M  V30 667 H 64.3294 -1.53598 3.39797 0
M  V30 668 N 66.5145 -1.57545 0.0417849 0
M  V30 669 C 67.9255 -1.80011 -0.495259 0
M  V30 670 C 68.2765 -0.953199 -1.71489 0
M  V30 671 O 67.4015 -0.167138 -2.15754 0
M  V30 672 C 67.9965 -3.26482 -0.905265 0
M  V30 673 C 66.5555 -3.499 -1.38734 0
M  V30 674 C 65.7025 -2.74979 -0.358056 0
M  V30 675 H 68.6535 -1.56425 0.267736 0
M  V30 676 H 68.6745 -3.36887 -1.76882 0
M  V30 677 H 68.1865 -3.88096 -0.017401 0
M  V30 678 H 66.2875 -2.93553 -2.29471 0
M  V30 679 H 66.4005 -4.58615 -1.38598 0
M  V30 680 H 64.7645 -2.40834 -0.828912 0
M  V30 681 H 65.5475 -3.39315 0.521561 0
M  V30 682 N 67.9926 0.231505 -1.5589 0
M  V30 683 C 69.2176 0.978689 -1.82856 0
M  V30 684 C 69.6426 1.77559 -0.620846 0
M  V30 685 O 69.0006 1.76119 0.430305 0
M  V30 686 C 69.0486 1.87997 -3.07716 0
M  V30 687 O 68.1526 2.97393 -2.85712 0
M  V30 688 H 67.4936 0.277663 -0.603158 0
M  V30 689 H 70.0236 0.24783 -2.03093 0
M  V30 690 H 70.0336 2.2917 -3.37558 0
M  V30 691 H 68.7086 1.29417 -3.95252 0
M  V30 692 H 67.2856 2.60238 -2.67078 0
M  V30 693 N 69.4707 1.49531 0.497807 0
M  V30 694 C 70.4007 1.6935 1.60757 0
M  V30 695 C 71.3817 0.542218 1.61227 0
M  V30 696 O 72.5667 0.778417 1.77917 0
M  V30 697 C 69.6967 1.76298 2.99226 0
M  V30 698 C 68.6507 2.91248 3.13622 0
M  V30 699 C 67.9767 2.83312 4.53474 0
M  V30 700 C 69.2767 4.3214 2.93346 0
M  V30 701 H 70.9707 2.62263 1.44425 0
M  V30 702 H 68.5167 1.26208 0.693367 0
M  V30 703 H 70.4697 1.88749 3.76765 0
M  V30 704 H 69.1937 0.799871 3.16654 0
M  V30 705 H 67.8527 2.78404 2.38509 0
M  V30 706 H 67.5007 1.84902 4.67782 0
M  V30 707 H 67.2007 3.60465 4.64046 0
M  V30 708 H 68.7247 2.97775 5.33069 0
M  V30 709 H 70.1387 4.45649 3.60652 0
M  V30 710 H 68.5357 5.1054 3.15387 0
M  V30 711 H 69.6057 4.46363 1.89441 0
M  V30 712 N 70.9488 -0.749086 1.3866 0
M  V30 713 C 71.9118 -1.84457 1.36045 0
M  V30 714 C 72.9118 -1.58682 0.260122 0
M  V30 715 O 74.1018 -1.66343 0.517261 0
M  V30 716 C 71.2338 -3.22008 1.11911 0
M  V30 717 H 72.4268 -1.88182 2.33512 0
M  V30 718 H 69.9798 -0.951266 1.24019 0
M  V30 719 H 70.7148 -3.2395 0.150686 0
M  V30 720 H 70.4998 -3.42111 1.91579 0
M  V30 721 H 71.9898 -4.0208 1.12788 0
M  V30 722 N 72.4269 -1.23603 -0.977757 0
M  V30 723 C 73.6729 -1.07129 -1.72195 0
M  V30 724 C 74.0059 0.390501 -1.90233 0
M  V30 725 O 73.2809 1.28902 -1.45653 0
M  V30 726 C 73.5639 -1.80031 -3.11867 0
M  V30 727 C 73.4169 -3.33899 -3.01383 0
M  V30 728 C 74.7359 -1.56492 -4.11337 0
M  V30 729 H 71.8549 -0.390571 -0.624999 0
M  V30 730 H 74.4969 -1.52142 -1.13811 0
M  V30 731 H 72.6469 -1.41768 -3.6171 0
M  V30 732 H 74.3189 -3.81699 -2.59043 0
M  V30 733 H 72.5619 -3.62796 -2.37827 0
M  V30 734 H 73.2329 -3.801 -4.00285 0
M  V30 735 H 75.7089 -1.89757 -3.70313 0
M  V30 736 H 74.5849 -2.09973 -5.07151 0
M  V30 737 H 74.8459 -0.500874 -4.39254 0
M  V30 738 N 73.905 1.17692 -1.04816 0
M  V30 739 C 74.868 2.19787 -0.650117 0
M  V30 740 C 75.868 1.58044 0.296427 0
M  V30 741 O 77.058 1.74012 0.0808097 0
M  V30 742 C 74.19 3.40869 0.0456987 0
M  V30 743 H 75.383 2.56516 -1.5537 0
M  V30 744 H 72.936 1.31708 -0.841594 0
M  V30 745 H 73.671 3.09681 0.962726 0
M  V30 746 H 73.456 3.86928 -0.634727 0
M  V30 747 H 74.946 4.16445 0.310432 0
M  V30 748 N 75.3831 0.828654 1.34056 0
M  V30 749 C 76.6081 0.431637 2.02859 0
M  V30 750 C 77.0331 -0.956339 1.61975 0
M  V30 751 O 76.3911 -1.62338 0.807228 0
M  V30 752 C 76.4391 0.548323 3.56407 0
M  V30 753 O 75.5431 -0.429556 4.10157 0
M  V30 754 H 74.8841 0.176886 0.640006 0
M  V30 755 H 77.4141 1.12066 1.71179 0
M  V30 756 H 77.4241 0.426196 4.05768 0
M  V30 757 H 76.0991 1.5606 3.8551 0
M  V30 758 H 74.6761 -0.265836 3.71951 0
M  V30 759 N 76.8612 -1.46375 0.584142 0
M  V30 760 C 77.7932 -2.28443 -0.186119 0
M  V30 761 C 78.8062 -1.38596 -0.854115 0
M  V30 762 O 79.9952 -1.63183 -0.723438 0
M  V30 763 C 77.0952 -3.13671 -1.28311 0
M  V30 764 C 76.2682 -4.31652 -0.706758 0
M  V30 765 C 75.3272 -4.98267 -1.69163 0
M  V30 766 O 74.3532 -5.55815 -1.22712 0
M  V30 767 N 75.5552 -4.95408 -3.02575 0
M  V30 768 H 78.3202 -2.9519 0.517986 0
M  V30 769 H 75.8812 -1.56303 0.42201 0
M  V30 770 H 77.8732 -3.55101 -1.94128 0
M  V30 771 H 76.4432 -2.48989 -1.89005 0
M  V30 772 H 75.6632 -3.93989 0.128908 0
M  V30 773 H 76.9512 -5.07906 -0.301506 0
M  V30 774 H 76.3492 -4.49902 -3.42936 0
M  V30 775 H 74.9062 -5.40774 -3.63877 0
M  V30 776 N 78.3393 -0.321999 -1.54275 0
M  V30 777 C 79.5643 0.285791 -2.05422 0
M  V30 778 C 79.9893 1.45124 -1.19669 0
M  V30 779 O 79.3473 1.80132 -0.205441 0
M  V30 780 C 79.3953 0.69956 -3.53749 0
M  V30 781 O 78.4993 1.8021 -3.70942 0
M  V30 782 H 77.8403 0.0518962 -0.661969 0
M  V30 783 H 80.3703 -0.469954 -1.9913 0
M  V30 784 H 80.3803 0.982649 -3.9599 0
M  V30 785 H 79.0553 -0.152864 -4.15619 0
M  V30 786 H 77.6323 1.51794 -3.40607 0
M  V30 787 N 79.8174 1.5752 -0.0501392 0
M  V30 788 C 81.0944 1.83996 0.663685 0
M  V30 789 C 81.4744 0.938339 1.89099 0
M  V30 790 O 80.8224 -0.00087759 2.285 0
M  V30 791 C 81.0324 3.33702 1.02196 0
M  V30 792 C 82.3804 4.00691 1.40469 0
M  V30 793 O 83.4044 3.38321 1.11433 0
M  V30 794 O 82.2634 5.10658 1.94654 0
M  V30 795 H 79.3574 0.759385 0.32751 0
M  V30 796 H 81.9034 1.69514 -0.0794238 0
M  V30 797 H 80.6754 3.91015 0.149364 0
M  V30 798 H 80.2984 3.53368 1.82255 0
M  V30 799 N 81.2955 -0.223234 1.56011 0
M  V30 800 C 82.5205 -0.968978 1.83373 0
M  V30 801 C 82.9455 -1.77227 0.630254 0
M  V30 802 O 82.3035 -1.76345 -0.420959 0
M  V30 803 C 82.3515 -1.86363 3.08709 0
M  V30 804 O 81.4555 -2.95873 2.87285 0
M  V30 805 H 80.7965 -0.274461 0.604622 0
M  V30 806 H 83.3265 -0.237056 2.03222 0
M  V30 807 H 83.3365 -2.27376 3.38768 0
M  V30 808 H 82.0115 -1.27319 3.95933 0
M  V30 809 H 80.5885 -2.58818 2.68454 0
M  V30 810 N 82.7736 -1.49793 -0.48987 0
M  V30 811 C 83.7206 -1.67281 -1.59014 0
M  V30 812 C 84.6906 -0.514177 -1.57941 0
M  V30 813 O 85.8756 -0.742533 -1.75759 0
M  V30 814 C 83.0156 -1.75569 -2.97102 0
M  V30 815 C 82.1286 -3.0281 -3.08107 0
M  V30 816 C 81.2636 -3.02008 -4.36995 0
M  V30 817 C 80.3026 -4.23782 -4.41673 0
M  V30 818 N 79.4396 -4.20826 -5.62005 0
M  V30 819 H 84.2796 -2.61224 -1.43409 0
M  V30 820 H 81.8166 -1.29508 -0.697565 0
M  V30 821 H 83.7746 -1.78354 -3.77155 0
M  V30 822 H 82.4046 -0.850827 -3.11385 0
M  V30 823 H 81.4566 -3.09584 -2.21047 0
M  V30 824 H 82.7686 -3.92801 -3.07423 0
M  V30 825 H 81.9226 -3.03418 -5.25378 0
M  V30 826 H 80.6616 -2.09815 -4.4026 0
M  V30 827 H 79.6666 -4.22604 -3.5169 0
M  V30 828 H 80.8916 -5.17181 -4.40115 0
M  V30 829 H 78.8376 -3.31476 -5.66091 0
M  V30 830 H 78.7546 -5.04564 -5.62984 0
M  V30 831 H 80.0226 -4.26355 -6.52565 0
M  V30 832 N 84.2517 0.741722 -1.39055 0
M  V30 833 C 85.1837 1.8657 -1.33133 0
M  V30 834 C 86.1967 1.61001 -0.241329 0
M  V30 835 O 87.3857 1.7136 -0.499784 0
M  V30 836 C 84.4857 3.22457 -1.04283 0
M  V30 837 C 83.6587 3.75435 -2.24427 0
M  V30 838 C 82.7177 4.89867 -1.92138 0
M  V30 839 O 81.7437 5.03879 -2.64754 0
M  V30 840 N 82.9457 5.73738 -0.88347 0
M  V30 841 H 85.7107 1.92156 -2.29991 0
M  V30 842 H 83.2717 0.922172 -1.3307 0
M  V30 843 H 85.2637 3.9657 -0.807128 0
M  V30 844 H 83.8337 3.12181 -0.161807 0
M  V30 845 H 83.0537 2.92751 -2.6399 0
M  V30 846 H 84.3417 4.07563 -3.04581 0
M  V30 847 H 83.7397 5.64999 -0.281517 0
M  V30 848 H 82.2967 6.47947 -0.707662 0
M  V30 849 N 85.7298 1.2412 0.971189 0
M  V30 850 C 87.1458 1.00584 1.23916 0
M  V30 851 C 87.3458 -0.287481 1.99439 0
M  V30 852 O 86.4018 -1.00454 2.31658 0
M  V30 853 C 87.7148 2.21864 2.0297 0
M  V30 854 C 89.2628 2.26452 2.16076 0
M  V30 855 C 89.7378 3.47343 2.98524 0
M  V30 856 N 91.2288 3.47639 3.06107 0
M  V30 857 C 91.9638 4.37837 3.70251 0
M  V30 858 N 91.4598 5.38286 4.36142 0
M  V30 859 N 93.2528 4.25558 3.67228 0
M  V30 860 H 85.4038 2.07236 0.465499 0
M  V30 861 H 87.6668 0.909236 0.268315 0
M  V30 862 H 87.3728 3.15771 1.54861 0
M  V30 863 H 87.2468 2.23698 3.03709 0
M  V30 864 H 89.6338 1.33078 2.6339 0
M  V30 865 H 89.7148 2.28645 1.14696 0
M  V30 866 H 89.3588 4.41029 2.51905 0
M  V30 867 H 89.2888 3.42393 4.00093 0
M  V30 868 H 91.7798 2.74966 2.59233 0
M  V30 869 H 92.0928 6.03352 4.82894 0
M  V30 870 H 90.4378 5.42176 4.34822 0
M  V30 871 H 93.6288 3.46322 3.14927 0
M  V30 872 H 93.8018 4.96054 4.16935 0
M  V30 873 N 87.2079 -1.17134 1.05439 0
M  V30 874 C 88.6239 -1.39454 0.776201 0
M  V30 875 C 88.8239 -1.91454 -0.628307 0
M  V30 876 O 87.8799 -2.10777 -1.39031 0
M  V30 877 C 89.1929 -2.38305 1.83388 0
M  V30 878 C 90.7409 -2.52006 1.85639 0
M  V30 879 C 91.2159 -3.54133 2.90437 0
M  V30 880 N 92.7069 -3.61653 2.89415 0
M  V30 881 C 93.4419 -4.4044 3.67152 0
M  V30 882 N 92.9379 -5.22721 4.54681 0
M  V30 883 N 94.7309 -4.35337 3.55581 0
M  V30 884 H 86.8819 -0.817134 1.96053 0
M  V30 885 H 89.1449 -0.421626 0.849079 0
M  V30 886 H 88.8509 -2.07173 2.84204 0
M  V30 887 H 88.7249 -3.37841 1.67761 0
M  V30 888 H 91.1119 -2.82447 0.85486 0
M  V30 889 H 91.1929 -1.52537 2.05344 0
M  V30 890 H 90.8369 -3.24431 3.90777 0
M  V30 891 H 90.7669 -4.53313 2.67983 0
M  V30 892 H 93.2579 -3.02909 2.25952 0
M  V30 893 H 93.5709 -5.80027 5.10674 0
M  V30 894 H 91.9159 -5.22093 4.58741 0
M  V30 895 H 95.1069 -3.70112 2.86592 0
M  V30 896 H 95.2799 -4.96494 4.1641 0
M  V30 897 N 88.686 -0.835752 -1.33615 0
M  V30 898 C 89.616 -0.281739 -2.31794 0
M  V30 899 C 90.597 0.608833 -1.58831 0
M  V30 900 O 91.782 0.533035 -1.86741 0
M  V30 901 C 88.912 0.546612 -3.42971 0
M  V30 902 C 87.866 -0.247904 -4.27281 0
M  V30 903 C 87.192 0.704001 -5.30045 0
M  V30 904 C 88.492 -1.46324 -5.01385 0
M  V30 905 H 90.186 -1.10206 -2.78379 0
M  V30 906 H 87.732 -0.531388 -1.33837 0
M  V30 907 H 89.685 0.944467 -4.1068 0
M  V30 908 H 88.409 1.40011 -2.95067 0
M  V30 909 H 87.068 -0.627281 -3.61194 0
M  V30 910 H 86.716 1.55381 -4.78399 0
M  V30 911 H 86.416 0.176524 -5.87335 0
M  V30 912 H 87.94 1.09944 -6.0062 0
M  V30 913 H 89.354 -1.13871 -5.61877 0
M  V30 914 H 87.751 -1.92728 -5.6831 0
M  V30 915 H 88.821 -2.23467 -4.30338 0
M  V30 916 N 90.1641 1.46063 -0.591896 0
M  V30 917 C 91.0941 2.33172 0.123673 0
M  V30 918 C 92.0751 1.45897 0.87453 0
M  V30 919 O 93.2601 1.74698 0.848181 0
M  V30 920 C 90.3901 3.28336 1.13194 0
M  V30 921 C 89.3441 4.25124 0.495324 0
M  V30 922 C 88.6701 5.09863 1.61071 0
M  V30 923 C 89.9701 5.19143 -0.573425 0
M  V30 924 H 91.6641 2.93252 -0.603646 0
M  V30 925 H 89.2101 1.41014 -0.291741 0
M  V30 926 H 91.1631 3.88137 1.64097 0
M  V30 927 H 89.8871 2.66383 1.88965 0
M  V30 928 H 88.5461 3.66599 0.00729452 0
M  V30 929 H 88.1941 4.44288 2.35832 0
M  V30 930 H 87.8941 5.75417 1.19035 0
M  V30 931 H 89.4181 5.72529 2.12233 0
M  V30 932 H 90.8321 5.73106 -0.1491 0
M  V30 933 H 89.2291 5.93089 -0.914636 0
M  V30 934 H 90.2991 4.62519 -1.45617 0
M  V30 935 N 91.6422 0.330177 1.54103 0
M  V30 936 C 92.8882 -0.270806 2.00984 0
M  V30 937 C 93.2212 -1.51265 1.21789 0
M  V30 938 O 92.4962 -1.92142 0.301927 0
M  V30 939 C 92.7792 -0.598339 3.55094 0
M  V30 940 C 92.6322 0.654674 4.4501 0
M  V30 941 C 93.9512 -1.41334 4.16789 0
M  V30 942 H 91.0702 -0.0969531 0.730595 0
M  V30 943 H 93.7122 0.448066 1.84641 0
M  V30 944 H 91.8622 -1.21078 3.69151 0
M  V30 945 H 93.5342 1.29285 4.42813 0
M  V30 946 H 91.7772 1.28224 4.14416 0
M  V30 947 H 92.4482 0.380944 5.50684 0
M  V30 948 H 94.9242 -0.895597 4.06347 0
M  V30 949 H 93.8002 -1.61127 5.24718 0
M  V30 950 H 94.0612 -2.41146 3.70541 0
M  V30 951 N 93.1203 -1.57491 0.0584922 0
M  V30 952 C 94.3973 -1.84346 -0.653918 0
M  V30 953 C 94.7773 -0.948355 -1.88599 0
M  V30 954 O 94.1253 -0.0112403 -2.28497 0
M  V30 955 C 94.3353 -3.34239 -1.00425 0
M  V30 956 C 95.6833 -4.01431 -1.38342 0
M  V30 957 O 96.7073 -3.38907 -1.09637 0
M  V30 958 O 95.5663 -5.11683 -1.91943 0
M  V30 959 H 92.6603 -0.761112 -0.323478 0
M  V30 960 H 95.2063 -1.6947 0.0884125 0
M  V30 961 H 93.9783 -3.91089 -0.128625 0
M  V30 962 H 93.6013 -3.54329 -1.80378 0
M  V30 963 N 94.5984 0.214957 -1.56127 0
M  V30 964 C 95.8454 0.938372 -1.79446 0
M  V30 965 C 96.1734 1.8407 -0.628378 0
M  V30 966 O 95.4284 1.91837 0.386925 0
M  V30 967 C 95.7274 1.80314 -3.0858 0
M  V30 968 C 95.3934 1.05349 -4.3842 0
M  V30 969 C 94.0554 0.846435 -4.73697 0
M  V30 970 C 96.4074 0.524588 -5.18553 0
M  V30 971 C 93.7354 0.098683 -5.86617 0
M  V30 972 C 96.0874 -0.209853 -6.32252 0
M  V30 973 C 94.7514 -0.428102 -6.66126 0
M  V30 974 H 94.0214 0.343375 -0.656639 0
M  V30 975 H 96.6684 0.206077 -1.90388 0
M  V30 976 H 94.9734 2.6035 -2.92789 0
M  V30 977 H 96.6704 2.36513 -3.23825 0
M  V30 978 H 93.2604 1.22486 -4.10725 0
M  V30 979 H 97.4444 0.672008 -4.91729 0
M  V30 980 H 92.7004 -0.0805753 -6.11347 0
M  V30 981 H 96.8744 -0.627157 -6.9357 0
M  V30 982 H 94.5014 -1.00944 -7.53468 0
M  V30 983 N 96.0765 1.50051 0.48192 0
M  V30 984 C 97.4875 1.5348 1.06305 0
M  V30 985 C 97.8385 0.331997 1.93371 0
M  V30 986 O 96.9635 -0.556256 2.09129 0
M  V30 987 C 97.5585 2.7813 1.93466 0
M  V30 988 C 96.1175 2.84275 2.46707 0
M  V30 989 C 95.2645 2.47637 1.24785 0
M  V30 990 H 98.2155 1.56472 0.264995 0
M  V30 991 H 98.2365 2.59372 2.78399 0
M  V30 992 H 97.7485 3.65654 1.30072 0
M  V30 993 H 95.8495 2.01077 3.13686 0
M  V30 994 H 95.9625 3.8691 2.82555 0
M  V30 995 H 94.3265 1.99835 1.57918 0
M  V30 996 H 95.1095 3.37457 0.630694 0
M  V30 997 N 97.5546 -0.734337 1.39446 0
M  V30 998 C 98.5016 -1.84835 1.38219 0
M  V30 999 C 99.4716 -1.64331 0.24179 0
M  V30 1000 O 100.657 -1.85728 0.437002 0
M  V30 1001 C 97.7966 -3.22355 1.23212 0
M  V30 1002 C 96.9096 -3.5456 2.46801 0
M  V30 1003 C 96.0446 -4.81485 2.24377 0
M  V30 1004 C 95.0836 -5.06536 3.43639 0
M  V30 1005 N 94.2206 -6.24665 3.20528 0
M  V30 1006 H 99.0606 -1.85219 2.33448 0
M  V30 1007 H 96.5976 -0.905039 1.15963 0
M  V30 1008 H 98.5556 -4.0174 1.12522 0
M  V30 1009 H 97.1856 -3.21248 0.316121 0
M  V30 1010 H 96.2376 -2.69872 2.68092 0
M  V30 1011 H 97.5496 -3.6899 3.3563 0
M  V30 1012 H 96.7036 -5.68852 2.10933 0
M  V30 1013 H 95.4426 -4.6923 1.32944 0
M  V30 1014 H 94.4476 -4.17632 3.5758 0
M  V30 1015 H 95.6726 -5.20676 4.35974 0
M  V30 1016 H 93.6186 -6.13696 2.3176 0
M  V30 1017 H 93.5356 -6.39685 4.02913 0
M  V30 1018 H 94.8036 -7.14868 3.10779 0
M  V30 1019 N 99.0327 -1.24633 -0.964593 0
M  V30 1020 C 100.281 -1.08573 -1.70459 0
M  V30 1021 C 100.602 0.375655 -1.91347 0
M  V30 1022 O 99.8717 1.26779 -1.49345 0
M  V30 1023 H 98.4517 -0.398784 -0.631649 0
M  V30 1024 H 101.114 -1.56601 -1.16026 0
M  V30 1025 H 100.21 -1.58623 -2.68785 0
M  V30 1026 N 100.511 1.16574 -1.06058 0
M  V30 1027 C 101.736 1.91493 -0.796562 0
M  V30 1028 C 102.161 1.76773 0.642868 0
M  V30 1029 O 101.519 1.09142 1.44768 0
M  V30 1030 C 101.567 3.40293 -1.19303 0
M  V30 1031 O 100.671 4.11074 -0.330394 0
M  V30 1032 H 100.012 0.596678 -0.291326 0
M  V30 1033 H 102.542 1.47708 -1.41575 0
M  V30 1034 H 102.552 3.91057 -1.16356 0
M  V30 1035 H 101.227 3.50326 -2.24153 0
M  V30 1036 H 99.8038 3.70513 -0.421225 0
M  V30 1037 N 101.989 0.842826 1.3317 0
M  V30 1038 C 103.235 0.441099 1.97945 0
M  V30 1039 C 103.568 -0.998024 1.66593 0
M  V30 1040 O 102.843 -1.69839 0.947898 0
M  V30 1041 C 103.126 0.666841 3.53872 0
M  V30 1042 C 102.979 2.15352 3.94897 0
M  V30 1043 C 104.298 0.115544 4.39948 0
M  V30 1044 H 101.417 0.161739 0.719034 0
M  V30 1045 H 104.059 1.05907 1.57746 0
M  V30 1046 H 102.209 0.140828 3.88245 0
M  V30 1047 H 103.881 2.7447 3.70761 0
M  V30 1048 H 102.124 2.63653 3.44484 0
M  V30 1049 H 102.795 2.26221 5.03516 0
M  V30 1050 H 105.271 0.565213 4.12243 0
M  V30 1051 H 104.147 0.303152 5.48062 0
M  V30 1052 H 104.408 -0.980935 4.3108 0
M  V30 1053 N 103.467 -1.45747 0.599634 0
M  V30 1054 C 104.692 -2.07178 0.0960198 0
M  V30 1055 C 105.117 -1.44268 -1.207 0
M  V30 1056 O 104.475 -0.532503 -1.73303 0
M  V30 1057 C 104.523 -3.60579 -0.0385348 0
M  V30 1058 O 103.627 -3.97713 -1.0908 0
M  V30 1059 H 102.968 -0.660251 0.0704593 0
M  V30 1060 H 105.498 -1.87124 0.827385 0
M  V30 1061 H 105.508 -4.07298 -0.239304 0
M  V30 1062 H 104.183 -4.05756 0.912947 0
M  V30 1063 H 102.76 -3.62678 -0.867135 0
M  V30 1064 N 104.945 -0.338344 -1.53925 0
M  V30 1065 C 105.893 0.536231 -2.26335 0
M  V30 1066 C 106.887 1.1063 -1.28286 0
M  V30 1067 O 108.093 1.05264 -1.46012 0
M  V30 1068 H 104.468 0.191602 -0.727181 0
M  V30 1069 H 106.439 -0.0965747 -2.98244 0
M  V30 1070 C 105.188 1.67803 -3.04528 0
M  V30 1071 H 104.511 1.24864 -3.79801 0
M  V30 1072 H 105.951 2.26526 -3.58416 0
M  V30 1073 C 104.41 2.60439 -2.13712 0
M  V30 1074 O 104.94 3.6255 -1.72975 0
M  V30 1075 N 103.146 2.29006 -1.78898 0
M  V30 1076 H 102.693 1.46011 -2.12223 0
M  V30 1077 H 102.651 2.91248 -1.18416 0
M  V30 1078 N 106.423 1.57458 -0.0668435 0
M  V30 1079 C 107.386 2.11323 0.887422 0
M  V30 1080 C 108.386 1.03618 1.22964 0
M  V30 1081 O 109.576 1.29626 1.16373 0
M  V30 1082 C 106.708 2.61048 2.19242 0
M  V30 1083 H 107.901 2.96942 0.420194 0
M  V30 1084 H 105.454 1.55239 0.181793 0
M  V30 1085 H 106.189 1.78868 2.70512 0
M  V30 1086 H 105.974 3.39769 1.95702 0
M  V30 1087 H 107.464 3.02814 2.87565 0
M  V30 1088 N 107.901 -0.206675 1.56239 0
M  V30 1089 C 108.833 -1.27997 1.9013 0
M  V30 1090 C 109.846 -1.42299 0.790883 0
M  V30 1091 O 111.035 -1.42931 1.06925 0
M  V30 1092 C 108.135 -2.65368 2.10792 0
M  V30 1093 C 107.308 -2.72824 3.41886 0
M  V30 1094 C 106.367 -3.9131 3.51799 0
M  V30 1095 O 105.393 -3.78953 4.24716 0
M  V30 1096 N 106.595 -5.06265 2.84035 0
M  V30 1097 H 109.36 -0.992444 2.82791 0
M  V30 1098 H 106.921 -0.396652 1.56966 0
M  V30 1099 H 108.913 -3.43039 2.14724 0
M  V30 1100 H 107.483 -2.86657 1.24685 0
M  V30 1101 H 106.703 -1.81515 3.49923 0
M  V30 1102 H 107.991 -2.74786 4.28217 0
M  V30 1103 H 107.389 -5.19203 2.246 0
M  V30 1104 H 105.946 -5.81925 2.93609 0
M  V30 1105 N 109.379 -1.50304 -0.473955 0
M  V30 1106 C 110.311 -1.65109 -1.58971 0
M  V30 1107 C 111.324 -0.532676 -1.53839 0
M  V30 1108 O 112.513 -0.805751 -1.59279 0
M  V30 1109 C 109.613 -1.61684 -2.97845 0
M  V30 1110 C 108.786 -2.8951 -3.27876 0
M  V30 1111 C 107.845 -2.78768 -4.4629 0
M  V30 1112 O 106.871 -3.52722 -4.46739 0
M  V30 1113 N 108.073 -1.9213 -5.47783 0
M  V30 1114 H 110.838 -2.61347 -1.46689 0
M  V30 1115 H 108.399 -1.47732 -0.662324 0
M  V30 1116 H 110.391 -1.52114 -3.75024 0
M  V30 1117 H 108.961 -0.731925 -3.03911 0
M  V30 1118 H 108.181 -3.13228 -2.39336 0
M  V30 1119 H 109.469 -3.74199 -3.4475 0
M  V30 1120 H 108.867 -1.31353 -5.50239 0
M  V30 1121 H 107.424 -1.88466 -6.23958 0
M  V30 1122 N 110.857 0.726932 -1.39834 0
M  V30 1123 C 112.268 1.30558 -1.3346 0
M  V30 1124 C 112.619 1.962 -0.00273003 0
M  V30 1125 O 111.744 1.96826 0.899371 0
M  V30 1126 C 112.339 2.37404 -2.41713 0
M  V30 1127 C 110.898 2.90921 -2.38835 0
M  V30 1128 C 110.045 1.64578 -2.2318 0
M  V30 1129 H 112.996 0.523862 -1.49804 0
M  V30 1130 H 113.017 3.17984 -2.08966 0
M  V30 1131 H 112.529 1.89599 -3.38635 0
M  V30 1132 H 110.63 3.42985 -1.45575 0
M  V30 1133 H 110.743 3.43487 -3.33997 0
M  V30 1134 H 109.107 1.89219 -1.70494 0
M  V30 1135 H 109.89 1.18814 -3.22084 0
M  V30 1136 N 112.336 1.25143 0.95797 0
M  V30 1137 C 113.613 1.00472 1.67823 0
M  V30 1138 C 113.993 -0.470056 2.058 0
M  V30 1139 O 113.341 -1.44663 1.76875 0
M  V30 1140 C 113.551 1.9372 2.90299 0
M  V30 1141 C 114.899 2.21371 3.62326 0
M  V30 1142 O 115.923 1.91451 3.00375 0
M  V30 1143 O 114.782 2.72231 4.7387 0
M  V30 1144 H 111.876 0.380752 0.734137 0
M  V30 1145 H 114.422 1.36283 1.01119 0
M  V30 1146 H 113.194 2.93316 2.59001 0
M  V30 1147 H 112.817 1.58286 3.64735 0
M  V30 1148 N 113.814 -1.1601 1.06675 0
M  V30 1149 C 114.744 -2.22688 0.702307 0
M  V30 1150 C 115.725 -1.67306 -0.307032 0
M  V30 1151 O 116.91 -1.93352 -0.181305 0
M  V30 1152 C 114.04 -3.47178 0.092038 0
M  V30 1153 C 112.994 -4.15477 1.02777 0
M  V30 1154 C 112.32 -5.33963 0.28061 0
M  V30 1155 C 113.62 -4.66019 2.35846 0
M  V30 1156 H 115.314 -2.53429 1.59419 0
M  V30 1157 H 112.86 -1.21813 0.767961 0
M  V30 1158 H 114.813 -4.21037 -0.174814 0
M  V30 1159 H 113.537 -3.15749 -0.834877 0
M  V30 1160 H 112.196 -3.43549 1.27944 0
M  V30 1161 H 111.844 -4.98788 -0.649545 0
M  V30 1162 H 111.544 -5.806 0.904258 0
M  V30 1163 H 113.068 -6.10596 0.021396 0
M  V30 1164 H 114.482 -5.3144 2.15045 0
M  V30 1165 H 112.879 -5.23293 2.93743 0
M  V30 1166 H 113.949 -3.82023 2.98641 0
M  V30 1167 N 115.292 -0.849877 -1.32721 0
M  V30 1168 C 116.517 -0.463856 -2.02146 0
M  V30 1169 C 116.942 0.930449 -1.63476 0
M  V30 1170 O 116.3 1.61033 -0.832952 0
M  V30 1171 C 116.348 -0.604955 -3.55489 0
M  V30 1172 O 115.452 0.36425 -4.10788 0
M  V30 1173 H 114.793 -0.187046 -0.637111 0
M  V30 1174 H 117.323 -1.14775 -1.69375 0
M  V30 1175 H 117.333 -0.490696 -4.05038 0
M  V30 1176 H 116.008 -1.62174 -3.82978 0
M  V30 1177 H 114.585 0.206628 -3.72327 0
M  V30 1178 N 116.77 1.45427 -0.607355 0
M  V30 1179 C 117.717 2.3053 0.111625 0
M  V30 1180 C 118.687 1.4209 0.860216 0
M  V30 1181 O 119.872 1.71019 0.845998 0
M  V30 1182 C 117.012 3.26992 1.10319 0
M  V30 1183 C 116.125 4.30535 0.355493 0
M  V30 1184 C 115.26 5.14105 1.33676 0
M  V30 1185 C 114.299 6.09376 0.576862 0
M  V30 1186 N 113.436 6.85727 1.5074 0
M  V30 1187 H 118.276 2.91477 -0.620093 0
M  V30 1188 H 115.813 1.43631 -0.317594 0
M  V30 1189 H 117.771 3.81385 1.6912 0
M  V30 1190 H 116.401 2.67799 1.80232 0
M  V30 1191 H 115.453 3.78805 -0.348023 0
M  V30 1192 H 116.765 4.98235 -0.237423 0
M  V30 1193 H 115.919 5.72897 1.99684 0
M  V30 1194 H 114.658 4.46423 1.9636 0
M  V30 1195 H 113.663 5.49715 -0.0968519 0
M  V30 1196 H 114.888 6.79085 -0.0449341 0
M  V30 1197 H 112.834 6.20735 2.12189 0
M  V30 1198 H 112.751 7.49778 0.967913 0
M  V30 1199 H 114.019 7.4906 2.15706 0
M  V30 1200 N 118.248 0.346503 1.53744 0
M  V30 1201 C 119.211 -0.496439 2.23759 0
M  V30 1202 C 120.211 -1.0252 1.2388 0
M  V30 1203 O 121.401 -0.913974 1.48297 0
M  V30 1204 C 118.533 -1.69187 2.95954 0
M  V30 1205 H 119.726 0.115952 2.99676 0
M  V30 1206 H 117.279 0.0978939 1.55993 0
M  V30 1207 H 118.014 -2.34288 2.24231 0
M  V30 1208 H 117.799 -1.31989 3.69217 0
M  V30 1209 H 119.289 -2.28969 3.49232 0
M  V30 1210 N 119.726 -1.57421 0.075193 0
M  V30 1211 C 120.972 -1.93905 -0.594025 0
M  V30 1212 C 121.305 -0.955701 -1.69056 0
M  V30 1213 O 120.58 0.0145373 -1.94495 0
M  V30 1214 C 120.863 -3.40638 -1.1678 0
M  V30 1215 C 120.716 -4.49733 -0.0776792 0
M  V30 1216 C 122.035 -3.88259 -2.07228 0
M  V30 1217 H 119.154 -0.705105 -0.214466 0
M  V30 1218 H 121.796 -1.8947 0.141854 0
M  V30 1219 H 119.946 -3.44549 -1.79494 0
M  V30 1220 H 121.618 -4.57942 0.555573 0
M  V30 1221 H 119.861 -4.29751 0.591286 0
M  V30 1222 H 120.532 -5.49549 -0.519603 0
M  V30 1223 H 123.008 -3.86376 -1.54445 0
M  V30 1224 H 121.884 -4.91533 -2.44308 0
M  V30 1225 H 122.145 -3.26396 -2.98191 0
M  V30 1226 N 121.204 0.198386 -1.56346 0
M  V30 1227 C 122.429 0.939682 -1.84891 0
M  V30 1228 C 122.854 1.76202 -0.658369 0
M  V30 1229 O 122.212 1.76993 0.392851 0
M  V30 1230 C 122.26 1.81428 -3.11635 0
M  V30 1231 O 121.364 2.91265 -2.91956 0
M  V30 1232 H 120.705 0.264807 -0.608912 0
M  V30 1233 H 123.235 0.204695 -2.03573 0
M  V30 1234 H 123.245 2.21958 -3.42343 0
M  V30 1235 H 121.92 1.21004 -3.97908 0
M  V30 1236 H 120.497 2.54514 -2.72538 0
M  V30 1237 N 122.682 1.50554 0.465978 0
M  V30 1238 C 123.612 1.72722 1.57128 0
M  V30 1239 C 124.593 0.576294 1.6004 0
M  V30 1240 O 125.778 0.81598 1.76225 0
M  V30 1241 C 122.908 1.82605 2.95419 0
M  V30 1242 C 121.862 2.97835 3.07373 0
M  V30 1243 C 121.188 2.92867 4.47363 0
M  V30 1244 C 122.488 4.38265 2.84114 0
M  V30 1245 H 124.182 2.65267 1.38829 0
M  V30 1246 H 121.728 1.2765 0.666441 0
M  V30 1247 H 123.681 1.96698 3.72677 0
M  V30 1248 H 122.405 0.866858 3.14886 0
M  V30 1249 H 121.064 2.83401 2.3255 0
M  V30 1250 H 120.712 1.94783 4.63755 0
M  V30 1251 H 120.412 3.70227 4.56296 0
M  V30 1252 H 121.936 3.09015 5.26633 0
M  V30 1253 H 123.35 4.53198 3.51118 0
M  V30 1254 H 121.747 5.17115 3.04487 0
M  V30 1255 H 122.817 4.50281 1.7993 0
M  V30 1256 N 124.16 -0.719506 1.40217 0
M  V30 1257 C 125.385 -1.51371 1.4178 0
M  V30 1258 C 125.81 -1.88091 0.0182355 0
M  V30 1259 O 125.168 -1.52997 -0.972707 0
M  V30 1260 C 125.216 -2.768 2.31115 0
M  V30 1261 O 124.32 -3.73349 1.7517 0
M  V30 1262 H 123.661 -0.456529 0.482159 0
M  V30 1263 H 126.191 -0.88644 1.844 0
M  V30 1264 H 126.201 -3.25371 2.46167 0
M  V30 1265 H 124.876 -2.49407 3.3282 0
M  V30 1266 H 123.453 -3.32179 1.69444 0
M  V30 1267 N 125.638 -1.25649 -0.95132 0
M  V30 1268 C 126.571 -1.00644 -2.04807 0
M  V30 1269 C 127.549 0.0654271 -1.62468 0
M  V30 1270 O 128.733 -0.074911 -1.88351 0
M  V30 1271 C 125.86 -0.522052 -3.34653 0
M  V30 1272 C 124.906 -1.58495 -3.95957 0
M  V30 1273 S 125.739 -3.17108 -4.31512 0
M  V30 1274 C 126.895 -2.70412 -5.64471 0
M  V30 1275 H 127.128 -1.93508 -2.25703 0
M  V30 1276 H 124.661 -1.09216 -1.09139 0
M  V30 1277 H 126.619 -0.24923 -4.09743 0
M  V30 1278 H 125.28 0.386146 -3.11717 0
M  V30 1279 H 124.473 -1.1968 -4.89584 0
M  V30 1280 H 124.075 -1.80862 -3.2736 0
M  V30 1281 H 126.367 -2.14245 -6.42733 0
M  V30 1282 H 127.31 -3.62693 -6.08161 0
M  V30 1283 H 127.718 -2.10302 -5.23864 0
M  V30 1284 N 127.117 1.15442 -1.07289 0
M  V30 1285 C 128.365 1.85845 -0.794096 0
M  V30 1286 C 128.686 1.82692 0.681809 0
M  V30 1287 O 127.956 1.26741 1.49377 0
M  V30 1288 H 126.536 0.688089 -0.290763 0
M  V30 1289 H 129.198 1.39947 -1.3565 0
M  V30 1290 H 128.294 2.91001 -1.12804 0
M  V30 1291 N 128.595 0.856903 1.32268 0
M  V30 1292 C 129.525 0.31858 2.31316 0
M  V30 1293 C 130.506 -0.583487 1.59779 0
M  V30 1294 O 131.691 -0.503259 1.87566 0
M  V30 1295 C 128.821 -0.491979 3.43798 0
M  V30 1296 C 127.775 0.315849 4.26833 0
M  V30 1297 C 127.101 -0.619586 5.31098 0
M  V30 1298 C 128.401 1.54282 4.98993 0
M  V30 1299 H 130.095 1.14621 2.76591 0
M  V30 1300 H 127.641 0.552613 1.32974 0
M  V30 1301 H 129.594 -0.879012 4.1213 0
M  V30 1302 H 128.318 -1.35299 2.97257 0
M  V30 1303 H 126.977 0.684664 3.6015 0
M  V30 1304 H 126.625 -1.47751 4.8081 0
M  V30 1305 H 126.325 -0.0830621 5.87541 0
M  V30 1306 H 127.849 -1.00375 6.02293 0
M  V30 1307 H 129.263 1.22796 5.59995 0
M  V30 1308 H 127.66 2.01745 5.65172 0
M  V30 1309 H 128.73 2.30285 4.26728 0
M  V30 1310 N 130.073 -1.45103 0.615059 0
M  V30 1311 C 131.303 -2.06254 0.119596 0
M  V30 1312 C 131.711 -1.4591 -1.20445 0
M  V30 1313 O 131.054 -0.570384 -1.7462 0
M  V30 1314 C 131.116 -3.59396 -0.0865591 0
M  V30 1315 C 130.78 -4.42116 1.15683 0
M  V30 1316 C 131.777 -4.7662 2.07676 0
M  V30 1317 C 129.462 -4.82749 1.38775 0
M  V30 1318 C 131.456 -5.50622 3.21082 0
M  V30 1319 C 129.143 -5.56504 2.52481 0
M  V30 1320 C 130.141 -5.90358 3.43463 0
M  V30 1321 O 129.829 -6.62615 4.55189 0
M  V30 1322 H 129.561 -0.672423 0.0694512 0
M  V30 1323 H 132.115 -1.87219 0.844885 0
M  V30 1324 H 130.345 -3.76859 -0.866823 0
M  V30 1325 H 132.034 -4.02365 -0.534555 0
M  V30 1326 H 132.8 -4.4578 1.91063 0
M  V30 1327 H 128.679 -4.55829 0.688545 0
M  V30 1328 H 132.223 -5.76965 3.92119 0
M  V30 1329 H 128.12 -5.86759 2.69043 0
M  V30 1330 H 128.888 -6.81071 4.53966 0
M  V30 1331 N 131.551 -0.354651 -1.53558 0
M  V30 1332 C 132.484 0.540273 -2.21712 0
M  V30 1333 C 133.462 1.09161 -1.2051 0
M  V30 1334 O 134.646 1.14979 -1.49372 0
M  V30 1335 C 131.773 1.74435 -2.90328 0
M  V30 1336 C 130.819 1.32146 -4.05512 0
M  V30 1337 S 131.652 0.331924 -5.3447 0
M  V30 1338 C 132.808 1.54258 -6.06593 0
M  V30 1339 H 133.041 -0.0385776 -2.97275 0
M  V30 1340 H 130.574 -0.138736 -1.53775 0
M  V30 1341 H 132.532 2.43507 -3.30476 0
M  V30 1342 H 131.193 2.29444 -2.1451 0
M  V30 1343 H 130.386 2.21952 -4.52497 0
M  V30 1344 H 129.988 0.710091 -3.67197 0
M  V30 1345 H 132.28 2.47534 -6.30661 0
M  V30 1346 H 133.223 1.11431 -6.99277 0
M  V30 1347 H 133.631 1.74367 -5.36895 0
M  V30 1348 N 133.029 1.57378 -0.0835403 0
M  V30 1349 C 134.277 1.93547 0.581718 0
M  V30 1350 C 134.598 0.96524 1.69435 0
M  V30 1351 O 133.868 0.0153369 1.95894 0
M  V30 1352 H 132.448 0.714521 0.217874 0
M  V30 1353 H 135.11 1.94366 -0.144158 0
M  V30 1354 H 134.206 2.95665 0.999423 0
M  V30 1355 N 134.507 -0.190092 1.56449 0
M  V30 1356 C 135.417 -1.25591 1.98152 0
M  V30 1357 C 136.433 -1.49519 0.889944 0
M  V30 1358 O 137.609 -1.62036 1.19609 0
M  V30 1359 C 134.674 -2.57916 2.3169 0
M  V30 1360 C 133.735 -2.42015 3.5458 0
M  V30 1361 C 132.968 -3.6803 3.8651 0
M  V30 1362 O 133.191 -4.72413 3.1966 0
M  V30 1363 O 132.125 -3.6326 4.79923 0
M  V30 1364 H 135.951 -0.931988 2.89046 0
M  V30 1365 H 133.536 -0.395488 1.4407 0
M  V30 1366 H 135.418 -3.36008 2.54316 0
M  V30 1367 H 134.093 -2.89925 1.43963 0
M  V30 1368 H 133 -1.62017 3.37196 0
M  V30 1369 H 134.333 -2.14937 4.4279 0
M  V30 1370 N 135.985 -1.50799 -0.457987 0
M  V30 1371 C 137.213 -1.66218 -1.23203 0
M  V30 1372 C 137.628 -0.350894 -1.85511 0
M  V30 1373 O 136.985 0.668546 -1.69814 0
M  V30 1374 C 137.036 -2.76291 -2.33121 0
M  V30 1375 O 136.757 -4.02338 -1.73366 0
M  V30 1376 C 138.258 -3.028 -3.2377 0
M  V30 1377 H 135.478 -0.558361 -0.372121 0
M  V30 1378 H 138.022 -1.97099 -0.545179 0
M  V30 1379 H 136.177 -2.48068 -2.97558 0
M  V30 1380 H 136.591 -4.63312 -2.4585 0
M  V30 1381 H 138.065 -3.8345 -3.97077 0
M  V30 1382 H 138.542 -2.14385 -3.83322 0
M  V30 1383 H 139.148 -3.32604 -2.65056 0
M  V30 1384 N 137.463 0.71206 -1.40597 0
M  V30 1385 C 138.373 1.8562 -1.43466 0
M  V30 1386 C 139.389 1.70902 -0.326902 0
M  V30 1387 O 140.565 1.93105 -0.572043 0
M  V30 1388 C 137.63 3.21451 -1.29884 0
M  V30 1389 C 136.691 3.48398 -2.50833 0
M  V30 1390 C 135.924 4.77749 -2.3789 0
M  V30 1391 O 136.147 5.53089 -1.39459 0
M  V30 1392 O 135.081 5.05111 -3.27333 0
M  V30 1393 H 138.907 1.86155 -2.39958 0
M  V30 1394 H 136.492 0.86295 -1.21957 0
M  V30 1395 H 138.374 4.02579 -1.24531 0
M  V30 1396 H 137.049 3.21636 -0.364997 0
M  V30 1397 H 135.956 2.67265 -2.61763 0
M  V30 1398 H 137.289 3.53014 -3.4299 0
M  V30 1399 N 138.941 1.26152 0.944643 0
M  V30 1400 C 140.169 1.14259 1.72489 0
M  V30 1401 C 140.584 -0.302555 1.8636 0
M  V30 1402 O 139.941 -1.20741 1.36849 0
M  V30 1403 C 139.992 1.80266 3.13347 0
M  V30 1404 O 139.713 3.19133 3.00143 0
M  V30 1405 C 141.214 1.74283 4.07603 0
M  V30 1406 H 138.434 0.398051 0.540181 0
M  V30 1407 H 140.978 1.66706 1.18446 0
M  V30 1408 H 139.133 1.31766 3.64303 0
M  V30 1409 H 139.547 3.51744 3.89071 0
M  V30 1410 H 141.021 2.25111 5.04013 0
M  V30 1411 H 141.498 0.708631 4.33446 0
M  V30 1412 H 142.104 2.22319 3.62567 0
M  V30 1413 N 140.419 -1.14872 1.07899 0
M  V30 1414 C 141.366 -2.19791 0.704319 0
M  V30 1415 C 142.336 -1.63238 -0.306987 0
M  V30 1416 O 143.521 -1.8983 -0.192171 0
M  V30 1417 C 140.661 -3.44911 0.114244 0
M  V30 1418 C 139.774 -4.15637 1.1777 0
M  V30 1419 C 138.909 -5.28324 0.552037 0
M  V30 1420 C 137.948 -5.90875 1.59789 0
M  V30 1421 N 137.085 -6.95022 0.994404 0
M  V30 1422 H 141.925 -2.5119 1.60336 0
M  V30 1423 H 139.462 -1.23356 0.801352 0
M  V30 1424 H 141.42 -4.16477 -0.245544 0
M  V30 1425 H 140.05 -3.14011 -0.74813 0
M  V30 1426 H 139.102 -3.42512 1.65499 0
M  V30 1427 H 140.414 -4.5823 1.97046 0
M  V30 1428 H 139.568 -6.06538 0.1402 0
M  V30 1429 H 138.307 -4.86939 -0.272431 0
M  V30 1430 H 137.312 -5.11369 2.01945 0
M  V30 1431 H 138.537 -6.34337 2.42474 0
M  V30 1432 H 136.483 -6.55722 0.190939 0
M  V30 1433 H 136.4 -7.36073 1.72432 0
M  V30 1434 H 137.668 -7.77123 0.608253 0
M  V30 1435 N 141.898 -0.863906 -1.31812 0
M  V30 1436 C 143.144 -0.472535 -1.97218 0
M  V30 1437 C 143.477 0.971394 -1.68159 0
M  V30 1438 O 142.752 1.68309 -0.974798 0
M  V30 1439 C 143.035 -0.723054 -3.52766 0
M  V30 1440 C 142.888 -2.21608 -3.91421 0
M  V30 1441 C 144.207 -0.185522 -4.39709 0
M  V30 1442 H 141.326 -0.173158 -0.71637 0
M  V30 1443 H 143.968 -1.08403 -1.56041 0
M  V30 1444 H 142.118 -0.202577 -3.87971 0
M  V30 1445 H 143.79 -2.80334 -3.66347 0
M  V30 1446 H 142.033 -2.691 -3.40246 0
M  V30 1447 H 142.704 -2.34203 -4.99853 0
M  V30 1448 H 145.18 -0.630726 -4.11292 0
M  V30 1449 H 144.056 -0.390306 -5.47511 0
M  V30 1450 H 144.317 0.912229 -4.32586 0
M  V30 1451 N 143.376 1.44774 -0.622745 0
M  V30 1452 C 144.309 2.27792 0.136329 0
M  V30 1453 C 145.287 1.38041 0.859264 0
M  V30 1454 O 146.471 1.67478 0.86506 0
M  V30 1455 C 143.598 3.16776 1.19878 0
M  V30 1456 C 142.644 4.22575 0.57731 0
M  V30 1457 S 143.477 5.31825 -0.626294 0
M  V30 1458 C 144.633 6.24377 0.436378 0
M  V30 1459 H 144.866 2.91824 -0.567967 0
M  V30 1460 H 142.399 1.48838 -0.410677 0
M  V30 1461 H 144.357 3.68596 1.80686 0
M  V30 1462 H 143.018 2.5198 1.87523 0
M  V30 1463 H 142.211 4.84818 1.37721 0
M  V30 1464 H 141.813 3.73974 0.0440439 0
M  V30 1465 H 144.105 6.64689 1.31128 0
M  V30 1466 H 145.048 7.07941 -0.150271 0
M  V30 1467 H 145.456 5.59381 0.758513 0
M  V30 1468 N 144.854 0.36279 1.53368 0
M  V30 1469 C 146.102 -0.227326 2.00817 0
M  V30 1470 C 146.423 -1.49511 1.25186 0
M  V30 1471 O 145.693 -1.92482 0.364348 0
M  V30 1472 H 144.273 -0.0869923 0.741917 0
M  V30 1473 H 146.935 0.488381 1.88682 0
M  V30 1474 H 146.031 -0.456273 3.08747 0
M  V30 1475 N 146.332 -1.57332 0.0918853 0
M  V30 1476 C 147.28 -2.15075 -0.885747 0
M  V30 1477 C 148.274 -1.09277 -1.29441 0
M  V30 1478 O 149.48 -1.27627 -1.26931 0
M  V30 1479 H 145.855 -0.687966 -0.303656 0
M  V30 1480 H 147.826 -2.96047 -0.373995 0
M  V30 1481 C 146.575 -2.74325 -2.13638 0
M  V30 1482 H 145.898 -3.55418 -1.8308 0
M  V30 1483 H 147.338 -3.183 -2.80109 0
M  V30 1484 C 145.797 -1.70062 -2.90827 0
M  V30 1485 O 146.327 -1.13763 -3.85254 0
M  V30 1486 N 144.533 -1.40628 -2.54307 0
M  V30 1487 H 144.08 -1.866 -1.7759 0
M  V30 1488 H 144.038 -0.711043 -3.06254 0
M  V30 1489 N 147.81 0.181792 -1.56548 0
M  V30 1490 C 149.087 0.926765 -1.72251 0
M  V30 1491 C 149.467 2.00831 -0.650386 0
M  V30 1492 O 148.815 2.26008 0.336521 0
M  V30 1493 C 149.025 1.50106 -3.1507 0
M  V30 1494 C 150.373 1.97805 -3.75711 0
M  V30 1495 O 151.397 1.59922 -3.18282 0
M  V30 1496 O 150.256 2.67555 -4.76525 0
M  V30 1497 H 147.35 0.435506 -0.703039 0
M  V30 1498 H 149.896 0.170443 -1.68842 0
M  V30 1499 H 148.668 0.72212 -3.84579 0
M  V30 1500 H 148.291 2.32186 -3.22763 0
M  V30 1501 N 149.288 1.51039 0.449983 0
M  V30 1502 C 150.218 1.74379 1.55288 0
M  V30 1503 C 151.199 0.593236 1.5942 0
M  V30 1504 O 152.384 0.834625 1.7535 0
M  V30 1505 C 149.514 1.85728 2.93466 0
M  V30 1506 C 148.468 3.01078 3.04197 0
M  V30 1507 C 147.794 2.97595 4.44231 0
M  V30 1508 C 149.094 4.41254 2.7945 0
M  V30 1509 H 150.788 2.66725 1.36008 0
M  V30 1510 H 148.334 1.2835 0.652864 0
M  V30 1511 H 150.287 2.0064 3.70569 0
M  V30 1512 H 149.011 0.900207 3.13949 0
M  V30 1513 H 147.67 2.85851 2.29531 0
M  V30 1514 H 147.318 1.99691 4.61663 0
M  V30 1515 H 147.018 3.75046 4.52343 0
M  V30 1516 H 148.542 3.14583 5.23326 0
M  V30 1517 H 149.956 4.56897 3.46292 0
M  V30 1518 H 148.353 5.20315 2.98985 0
M  V30 1519 H 149.423 4.52164 1.75144 0
M  V30 1520 N 150.766 -0.704594 1.40972 0
M  V30 1521 C 152.014 -1.46169 1.39568 0
M  V30 1522 C 152.335 -1.95 0.00253745 0
M  V30 1523 O 151.605 -1.71095 -0.954114 0
M  V30 1524 H 150.185 -0.542326 0.513704 0
M  V30 1525 H 152.847 -0.834553 1.76128 0
M  V30 1526 H 151.943 -2.32922 2.07735 0
M  V30 1527 N 152.244 -1.26651 -0.937939 0
M  V30 1528 C 153.491 -1.12387 -1.6845 0
M  V30 1529 C 153.819 0.332208 -1.91642 0
M  V30 1530 O 153.074 1.2602 -1.49725 0
M  V30 1531 C 153.373 -1.84168 -3.06295 0
M  V30 1532 C 153.039 -3.34056 -3.02849 0
M  V30 1533 C 151.701 -3.74942 -3.01616 0
M  V30 1534 C 154.053 -4.29741 -2.9491 0
M  V30 1535 C 151.381 -5.09894 -2.90215 0
M  V30 1536 C 153.733 -5.64738 -2.8505 0
M  V30 1537 C 152.397 -6.0493 -2.82162 0
M  V30 1538 H 151.667 -0.411252 -0.616403 0
M  V30 1539 H 154.314 -1.57134 -1.09459 0
M  V30 1540 H 152.619 -1.319 -3.6893 0
M  V30 1541 H 154.316 -1.70569 -3.62915 0
M  V30 1542 H 150.906 -3.01534 -3.0459 0
M  V30 1543 H 155.09 -3.99133 -2.94969 0
M  V30 1544 H 150.346 -5.40194 -2.86358 0
M  V30 1545 H 154.52 -6.38561 -2.77872 0
M  V30 1546 H 152.147 -7.09457 -2.73084 0
M  V30 1547 N 153.722 1.14298 -1.08507 0
M  V30 1548 C 155.133 1.66926 -0.836227 0
M  V30 1549 C 155.484 1.85576 0.63686 0
M  V30 1550 O 154.609 1.56767 1.49175 0
M  V30 1551 C 155.204 3.03219 -1.51142 0
M  V30 1552 C 153.763 3.52876 -1.30979 0
M  V30 1553 C 152.91 2.2833 -1.57356 0
M  V30 1554 H 155.861 0.983491 -1.24552 0
M  V30 1555 H 155.882 3.68726 -0.939211 0
M  V30 1556 H 155.394 2.89612 -2.58353 0
M  V30 1557 H 153.495 3.71703 -0.258429 0
M  V30 1558 H 153.608 4.33586 -2.03814 0
M  V30 1559 H 151.972 2.34454 -0.995164 0
M  V30 1560 H 152.755 2.17298 -2.65775 0
M  V30 1561 N 155.201 0.870884 1.31352 0
M  V30 1562 C 156.133 0.28455 2.27427 0
M  V30 1563 C 157.146 -0.552927 1.53123 0
M  V30 1564 O 158.335 -0.374771 1.74521 0
M  V30 1565 C 155.435 -0.615164 3.3327 0
M  V30 1566 C 154.608 0.190079 4.36987 0
M  V30 1567 C 153.667 -0.637917 5.22319 0
M  V30 1568 O 152.693 -0.065626 5.69162 0
M  V30 1569 N 153.895 -1.94973 5.46778 0
M  V30 1570 H 156.66 1.11017 2.7838 0
M  V30 1571 H 154.221 0.732458 1.44384 0
M  V30 1572 H 156.213 -1.1748 3.87273 0
M  V30 1573 H 154.783 -1.34146 2.82354 0
M  V30 1574 H 154.003 0.931165 3.83044 0
M  V30 1575 H 155.291 0.742579 5.03352 0
M  V30 1576 H 154.689 -2.4378 5.10478 0
M  V30 1577 H 153.246 -2.45713 6.03712 0
M  V30 1578 N 156.679 -1.44442 0.630414 0
M  V30 1579 C 157.611 -2.2892 -0.113347 0
M  V30 1580 C 158.624 -1.41243 -0.80959 0
M  V30 1581 O 159.813 -1.65402 -0.671156 0
M  V30 1582 C 156.913 -3.17594 -1.18266 0
M  V30 1583 C 156.086 -4.33682 -0.569073 0
M  V30 1584 C 155.145 -5.03397 -1.53226 0
M  V30 1585 O 154.171 -5.59438 -1.04967 0
M  V30 1586 N 155.373 -5.04783 -2.86661 0
M  V30 1587 H 158.138 -2.93392 0.611636 0
M  V30 1588 H 155.699 -1.54881 0.471523 0
M  V30 1589 H 157.691 -3.61097 -1.82732 0
M  V30 1590 H 156.261 -2.54876 -1.80988 0
M  V30 1591 H 155.481 -3.9338 0.254187 0
M  V30 1592 H 156.769 -5.08608 -0.139767 0
M  V30 1593 H 156.167 -4.60584 -3.28449 0
M  V30 1594 H 154.724 -5.52077 -3.46489 0
M  V30 1595 N 158.157 -0.370918 -1.53173 0
M  V30 1596 C 159.405 0.216673 -2.00935 0
M  V30 1597 C 159.726 1.48845 -1.25977 0
M  V30 1598 O 158.996 1.92286 -0.374551 0
M  V30 1599 H 157.576 0.0830565 -0.742368 0
M  V30 1600 H 160.238 -0.49838 -1.8842 0
M  V30 1601 H 159.334 0.439893 -3.08984 0
M  V30 1602 N 159.635 1.57281 -0.100228 0
M  V30 1603 C 160.567 2.11342 0.886972 0
M  V30 1604 C 161.58 1.05182 1.24261 0
M  V30 1605 O 162.769 1.32613 1.19483 0
M  V30 1606 C 159.869 2.5825 2.19454 0
M  V30 1607 C 159.042 3.88302 2.01346 0
M  V30 1608 C 158.101 4.21004 3.15661 0
M  V30 1609 O 157.127 4.9014 2.89398 0
M  V30 1610 N 158.329 3.76818 4.41575 0
M  V30 1611 H 161.094 2.96668 0.425216 0
M  V30 1612 H 158.655 1.61678 0.0847334 0
M  V30 1613 H 160.647 2.7717 2.94888 0
M  V30 1614 H 159.217 1.77907 2.57037 0
M  V30 1615 H 158.437 3.7848 1.10212 0
M  V30 1616 H 159.725 4.73375 1.8653 0
M  V30 1617 H 159.123 3.2102 4.65792 0
M  V30 1618 H 157.68 4.00882 5.13942 0
M  V30 1619 N 161.113 -0.173488 1.56642 0
M  V30 1620 C 162.362 -0.888758 1.81063 0
M  V30 1621 C 162.675 -1.83506 0.67712 0
M  V30 1622 O 163.881 -2.59254 0.806206 0
M  V30 1623 C 162.337 -1.63091 3.20826 0
M  V30 1624 C 161.945 -0.728357 4.4204 0
M  V30 1625 C 163.689 -2.33454 3.54541 0
M  V30 1626 C 161.596 -1.47062 5.72823 0
M  V30 1627 H 160.526 -0.335618 0.675186 0
M  V30 1628 H 163.177 -0.141712 1.82952 0
M  V30 1629 H 161.559 -2.42263 3.13248 0
M  V30 1630 H 162.733 0.0262449 4.60793 0
M  V30 1631 H 161.048 -0.134492 4.16183 0
M  V30 1632 H 163.645 -2.89578 4.49498 0
M  V30 1633 H 163.988 -3.08687 2.79317 0
M  V30 1634 H 164.521 -1.61227 3.63663 0
M  V30 1635 H 161.26 -0.760658 6.51072 0
M  V30 1636 H 160.78 -2.1986 5.58052 0
M  V30 1637 H 162.459 -2.01868 6.14702 0
M  V30 1638 N 162.591 -1.51276 -0.441967 0
M  V30 1639 C 163.816 -1.67799 -1.21895 0
M  V30 1640 C 164.241 -0.372864 -1.84367 0
M  V30 1641 O 163.599 0.666501 -1.68604 0
M  V30 1642 C 163.647 -2.79199 -2.28211 0
M  V30 1643 O 162.751 -2.42479 -3.33583 0
M  V30 1644 H 162.092 -0.559649 -0.357336 0
M  V30 1645 H 164.622 -1.97815 -0.522522 0
M  V30 1646 H 164.632 -3.03146 -2.73069 0
M  V30 1647 H 163.307 -3.73906 -1.82118 0
M  V30 1648 H 161.884 -2.29087 -2.94234 0
M  V30 1649 N 164.069 0.697108 -1.41344 0
M  V30 1650 C 164.999 1.82353 -1.45841 0
M  V30 1651 C 165.98 1.67115 -0.317247 0
M  V30 1652 O 167.165 1.86871 -0.528474 0
M  V30 1653 C 164.295 3.20476 -1.33838 0
M  V30 1654 C 163.249 3.50415 -2.4575 0
M  V30 1655 C 162.575 4.87878 -2.18813 0
M  V30 1656 C 163.875 3.49546 -3.88091 0
M  V30 1657 H 165.569 1.78846 -2.40113 0
M  V30 1658 H 163.115 0.859028 -1.15571 0
M  V30 1659 H 165.068 3.98988 -1.35596 0
M  V30 1660 H 163.792 3.24604 -0.360498 0
M  V30 1661 H 162.451 2.74253 -2.43271 0
M  V30 1662 H 162.099 4.8863 -1.19371 0
M  V30 1663 H 161.799 5.08875 -2.93803 0
M  V30 1664 H 163.323 5.68702 -2.22284 0
M  V30 1665 H 164.737 4.18066 -3.92293 0
M  V30 1666 H 163.134 3.82075 -4.62751 0
M  V30 1667 H 164.204 2.48552 -4.16353 0
M  V30 1668 N 165.547 1.27147 0.931209 0
M  V30 1669 C 166.772 1.16191 1.71797 0
M  V30 1670 C 167.197 -0.278004 1.86034 0
M  V30 1671 O 166.555 -1.20137 1.35782 0
M  V30 1672 C 166.603 1.84673 3.09723 0
M  V30 1673 O 165.707 1.14231 3.96264 0
M  V30 1674 H 165.048 0.404303 0.526721 0
M  V30 1675 H 167.578 1.68152 1.1656 0
M  V30 1676 H 167.588 1.91893 3.60057 0
M  V30 1677 H 166.263 2.89421 2.98677 0
M  V30 1678 H 164.84 1.15056 3.54706 0
M  V30 1679 N 167.025 -1.13721 1.09112 0
M  V30 1680 C 168.25 -1.89314 0.847053 0
M  V30 1681 C 168.675 -1.78416 -0.595774 0
M  V30 1682 O 168.033 -1.12942 -1.41823 0
M  V30 1683 C 168.081 -3.3701 1.28284 0
M  V30 1684 O 167.185 -4.10054 0.439267 0
M  V30 1685 H 166.526 -0.588745 0.307044 0
M  V30 1686 H 169.056 -1.43902 1.45442 0
M  V30 1687 H 169.066 -3.87834 1.26683 0
M  V30 1688 H 167.741 -3.4426 2.33363 0
M  V30 1689 H 166.318 -3.69266 0.519312 0
M  V30 1690 N 168.503 -0.877838 -1.30888 0
M  V30 1691 C 169.751 -0.491723 -1.96027 0
M  V30 1692 C 170.072 0.960827 -1.69685 0
M  V30 1693 O 169.342 1.67462 -1.01654 0
M  V30 1694 H 167.922 -0.17885 -0.725273 0
M  V30 1695 H 170.584 -1.11935 -1.59551 0
M  V30 1696 H 169.68 -0.656016 -3.05128 0
M  V30 1697 N 169.982 1.44106 -0.638065 0
M  V30 1698 C 170.892 2.34513 0.0637334 0
M  V30 1699 C 171.908 1.53018 0.828346 0
M  V30 1700 O 173.084 1.85723 0.779036 0
M  V30 1701 C 170.149 3.31095 1.02844 0
M  V30 1702 C 169.21 4.28497 0.26244 0
M  V30 1703 C 168.443 5.20465 1.1812 0
M  V30 1704 O 168.666 5.16514 2.42011 0
M  V30 1705 O 167.6 5.98251 0.661774 0
M  V30 1706 H 171.426 2.95989 -0.68003 0
M  V30 1707 H 169.011 1.43994 -0.398252 0
M  V30 1708 H 170.893 3.90526 1.58327 0
M  V30 1709 H 169.568 2.72144 1.7527 0
M  V30 1710 H 168.475 3.72592 -0.335602 0
M  V30 1711 H 169.808 4.90388 -0.421936 0
M  V30 1712 N 171.46 0.379036 1.52974 0
M  V30 1713 C 172.688 -0.20679 2.05864 0
M  V30 1714 C 173.103 -1.41356 1.25155 0
M  V30 1715 O 172.46 -1.8009 0.295588 0
M  V30 1716 C 172.511 -0.587045 3.56702 0
M  V30 1717 O 172.232 0.571776 4.34353 0
M  V30 1718 C 173.733 -1.22983 4.25899 0
M  V30 1719 H 170.953 -0.0336123 0.670158 0
M  V30 1720 H 173.497 0.541298 1.97206 0
M  V30 1721 H 171.652 -1.28504 3.65466 0
M  V30 1722 H 172.066 0.261544 5.23847 0
M  V30 1723 H 173.54 -1.44635 5.32715 0
M  V30 1724 H 174.017 -2.19416 3.80465 0
M  V30 1725 H 174.623 -0.572892 4.21424 0
M  V30 1726 N 172.938 -1.57226 0.108567 0
M  V30 1727 C 174.215 -1.86333 -0.594939 0
M  V30 1728 C 174.595 -1.00788 -1.85486 0
M  V30 1729 O 173.943 -0.0839293 -2.28346 0
M  V30 1730 C 174.153 -3.37265 -0.897405 0
M  V30 1731 C 175.501 -4.05629 -1.25501 0
M  V30 1732 O 176.525 -3.42224 -0.987998 0
M  V30 1733 O 175.384 -5.17531 -1.75567 0
M  V30 1734 H 172.478 -0.771018 -0.2991 0
M  V30 1735 H 175.024 -1.69102 0.142283 0
M  V30 1736 H 173.796 -3.913 -0.00413806 0
M  V30 1737 H 173.419 -3.59889 -1.69014 0
M  V30 1738 N 174.416 0.165178 -1.56732 0
M  V30 1739 C 175.346 1.20651 -1.99914 0
M  V30 1740 C 176.327 1.45827 -0.875705 0
M  V30 1741 O 177.512 1.57057 -1.14223 0
M  V30 1742 C 174.642 2.54401 -2.36427 0
M  V30 1743 C 173.596 2.43782 -3.51787 0
M  V30 1744 C 172.922 3.82078 -3.7406 0
M  V30 1745 C 174.222 1.93732 -4.85041 0
M  V30 1746 H 175.916 0.847534 -2.87154 0
M  V30 1747 H 173.462 0.40625 -1.38151 0
M  V30 1748 H 175.415 3.27458 -2.65234 0
M  V30 1749 H 174.139 2.92098 -1.46103 0
M  V30 1750 H 172.798 1.73178 -3.23117 0
M  V30 1751 H 172.446 4.17179 -2.81017 0
M  V30 1752 H 172.146 3.7584 -4.51684 0
M  V30 1753 H 173.67 4.56712 -4.05274 0
M  V30 1754 H 175.084 2.56569 -5.12684 0
M  V30 1755 H 173.481 1.98428 -5.66345 0
M  V30 1756 H 174.551 0.891962 -4.76626 0
M  V30 1757 N 175.894 1.51508 0.433938 0
M  V30 1758 C 176.841 1.73068 1.52696 0
M  V30 1759 C 177.811 0.572441 1.55924 0
M  V30 1760 O 178.996 0.807253 1.72882 0
M  V30 1761 C 176.136 1.86474 2.90381 0
M  V30 1762 C 175.249 3.14037 2.96656 0
M  V30 1763 C 174.384 3.18019 4.25485 0
M  V30 1764 C 173.423 4.39882 4.2564 0
M  V30 1765 N 172.56 4.41394 5.45999 0
M  V30 1766 H 177.4 2.66366 1.33615 0
M  V30 1767 H 174.937 1.32008 0.649018 0
M  V30 1768 H 176.895 1.92229 3.70275 0
M  V30 1769 H 175.525 0.965809 3.08013 0
M  V30 1770 H 174.577 3.17575 2.09404 0
M  V30 1771 H 175.889 4.0394 2.92633 0
M  V30 1772 H 175.043 3.22708 5.13755 0
M  V30 1773 H 173.782 2.2601 4.3217 0
M  V30 1774 H 172.787 4.35366 3.35763 0
M  V30 1775 H 174.012 5.33159 4.20617 0
M  V30 1776 H 171.958 3.52258 5.53399 0
M  V30 1777 H 171.875 5.25111 5.4387 0
M  V30 1778 H 173.143 4.50281 6.36292 0
M  V30 1779 N 177.372 -0.689602 1.41712 0
M  V30 1780 C 178.302 -1.81577 1.46806 0
M  V30 1781 C 179.283 -1.66945 0.326105 0
M  V30 1782 O 180.468 -1.86588 0.538377 0
M  V30 1783 C 177.598 -3.19762 1.35535 0
M  V30 1784 C 176.552 -3.49107 2.47605 0
M  V30 1785 C 175.878 -4.86711 2.21397 0
M  V30 1786 C 177.178 -3.47483 3.89939 0
M  V30 1787 H 178.872 -1.7757 2.41058 0
M  V30 1788 H 176.418 -0.852887 1.16025 0
M  V30 1789 H 178.371 -3.98263 1.3771 0
M  V30 1790 H 177.095 -3.24409 0.377708 0
M  V30 1791 H 175.754 -2.72959 2.44722 0
M  V30 1792 H 175.402 -4.8799 1.21961 0
M  V30 1793 H 175.102 -5.0731 2.96497 0
M  V30 1794 H 176.626 -5.67515 2.25297 0
M  V30 1795 H 178.04 -4.1598 3.94505 0
M  V30 1796 H 176.437 -3.79615 4.64771 0
M  V30 1797 H 177.507 -2.46341 4.17665 0
M  V30 1798 N 178.85 -1.27639 -0.924453 0
M  V30 1799 C 179.78 -1.13166 -2.04244 0
M  V30 1800 C 180.761 -0.032256 -1.70069 0
M  V30 1801 O 181.946 -0.207328 -1.9309 0
M  V30 1802 C 179.076 -0.781496 -3.38393 0
M  V30 1803 C 178.03 -1.83449 -3.86692 0
M  V30 1804 C 177.356 -1.33822 -5.17683 0
M  V30 1805 C 178.656 -3.23917 -4.09726 0
M  V30 1806 H 180.35 -2.06689 -2.1661 0
M  V30 1807 H 177.896 -0.995136 -1.04082 0
M  V30 1808 H 179.849 -0.667057 -4.16087 0
M  V30 1809 H 178.573 0.189439 -3.2605 0
M  V30 1810 H 177.232 -1.93789 -3.11193 0
M  V30 1811 H 176.88 -0.35665 -5.01734 0
M  V30 1812 H 176.58 -2.04224 -5.50968 0
M  V30 1813 H 178.104 -1.23679 -5.97943 0
M  V30 1814 H 179.518 -3.16559 -4.77978 0
M  V30 1815 H 177.915 -3.92059 -4.54324 0
M  V30 1816 H 178.985 -3.68729 -3.14908 0
M  V30 1817 N 180.328 1.1314 -1.09713 0
M  V30 1818 C 181.238 2.22242 -0.751367 0
M  V30 1819 C 182.254 1.72224 0.247938 0
M  V30 1820 O 183.43 2.01205 0.0885463 0
M  V30 1821 C 180.495 3.46231 -0.180274 0
M  V30 1822 C 179.556 4.11125 -1.2359 0
M  V30 1823 C 178.789 5.29195 -0.691966 0
M  V30 1824 O 179.012 5.68342 0.48414 0
M  V30 1825 O 177.946 5.84214 -1.44838 0
M  V30 1826 H 181.772 2.54197 -1.66186 0
M  V30 1827 H 179.357 1.21331 -0.871735 0
M  V30 1828 H 181.239 4.21185 0.134739 0
M  V30 1829 H 179.914 3.1597 0.703185 0
M  V30 1830 H 178.821 3.37985 -1.60366 0
M  V30 1831 H 180.154 4.45524 -2.09211 0
M  V30 1832 N 181.806 0.884767 1.30421 0
M  V30 1833 C 182.716 0.355398 2.31892 0
M  V30 1834 C 183.732 -0.542261 1.65335 0
M  V30 1835 O 184.908 -0.435432 1.96637 0
M  V30 1836 C 181.973 -0.421661 3.44126 0
M  V30 1837 C 181.034 0.505727 4.26311 0
M  V30 1838 C 180.267 -0.234343 5.33185 0
M  V30 1839 O 180.49 -1.46045 5.51386 0
M  V30 1840 O 179.424 0.415443 6.00465 0
M  V30 1841 H 183.25 1.19685 2.79122 0
M  V30 1842 H 180.835 0.648596 1.34587 0
M  V30 1843 H 182.717 -0.861641 4.12497 0
M  V30 1844 H 181.392 -1.23942 2.99032 0
M  V30 1845 H 180.299 0.994513 3.60639 0
M  V30 1846 H 181.632 1.28948 4.75009 0
M  V30 1847 N 183.284 -1.43765 0.645699 0
M  V30 1848 C 184.509 -2.06767 0.161883 0
M  V30 1849 C 184.934 -1.48034 -1.16049 0
M  V30 1850 O 184.292 -0.587369 -1.71522 0
M  V30 1851 C 184.34 -3.60519 0.0762003 0
M  V30 1852 O 183.444 -4.00982 -0.963721 0
M  V30 1853 H 182.785 -0.657675 0.091429 0
M  V30 1854 H 185.315 -1.84397 0.886499 0
M  V30 1855 H 185.325 -4.07853 -0.109604 0
M  V30 1856 H 184 -4.02646 1.04157 0
M  V30 1857 H 182.577 -3.65253 -0.751312 0
M  V30 1858 N 184.763 -0.387143 -1.52771 0
M  V30 1859 C 186.012 0.19697 -2.00736 0
M  V30 1860 C 186.325 1.48082 -1.27793 0
M  V30 1861 O 187.531 2.14485 -1.66458 0
M  V30 1862 C 185.987 0.401568 -3.57653 0
M  V30 1863 C 185.595 -0.868907 -4.39493 0
M  V30 1864 C 187.339 0.942164 -4.13912 0
M  V30 1865 C 185.246 -0.632705 -5.88006 0
M  V30 1866 H 184.176 0.0773827 -0.750019 0
M  V30 1867 H 186.827 -0.50921 -1.76293 0
M  V30 1868 H 185.209 1.16954 -3.78335 0
M  V30 1869 H 186.383 -1.64133 -4.30577 0
M  V30 1870 H 184.698 -1.33429 -3.94443 0
M  V30 1871 H 187.295 1.13455 -5.22525 0
M  V30 1872 H 187.638 1.9106 -3.69867 0
M  V30 1873 H 188.171 0.233814 -3.97112 0
M  V30 1874 H 184.91 -1.57208 -6.36369 0
M  V30 1875 H 184.43 0.100825 -5.99715 0
M  V30 1876 H 186.109 -0.26642 -6.46451 0
M  V30 1877 N 186.241 1.57166 -0.116904 0
M  V30 1878 C 187.204 2.14039 0.819742 0
M  V30 1879 C 188.204 1.07477 1.19605 0
M  V30 1880 O 189.394 1.33263 1.1219 0
M  V30 1881 C 186.526 2.67891 2.10826 0
M  V30 1882 H 187.719 2.98128 0.325511 0
M  V30 1883 H 185.272 1.55739 0.132312 0
M  V30 1884 H 186.007 1.87384 2.64685 0
M  V30 1885 H 185.792 3.45823 1.84793 0
M  V30 1886 H 187.282 3.11809 2.77785 0
M  V30 1887 N 187.719 -0.156864 1.56817 0
M  V30 1888 C 188.667 -1.21319 1.98455 0
M  V30 1889 C 189.661 -1.45025 0.875444 0
M  V30 1890 O 190.867 -1.45435 1.0606 0
M  V30 1891 H 187.242 -0.408142 0.631605 0
M  V30 1892 H 189.213 -0.835244 2.86472 0
M  V30 1893 C 187.962 -2.54148 2.37285 0
M  V30 1894 H 187.285 -2.36733 3.22176 0
M  V30 1895 H 188.725 -3.26712 2.70251 0
M  V30 1896 C 187.184 -3.13967 1.22173 0
M  V30 1897 O 187.714 -3.98357 0.517149 0
M  V30 1898 N 185.92 -2.7327 0.988536 0
M  V30 1899 H 185.467 -2.04744 1.56326 0
M  V30 1900 H 185.425 -3.13628 0.220209 0
M  V30 1901 N 189.197 -1.51736 -0.425897 0
M  V30 1902 C 190.127 -1.76827 -1.52494 0
M  V30 1903 C 191.108 -0.618524 -1.58456 0
M  V30 1904 O 192.293 -0.862416 -1.74 0
M  V30 1905 C 189.423 -1.90374 -2.90474 0
M  V30 1906 C 188.377 -3.0588 -2.99369 0
M  V30 1907 C 187.703 -3.04625 -4.3944 0
M  V30 1908 C 189.003 -4.45644 -2.72394 0
M  V30 1909 H 190.697 -2.68855 -1.31748 0
M  V30 1910 H 188.243 -1.29372 -0.632362 0
M  V30 1911 H 190.196 -2.0651 -3.6733 0
M  V30 1912 H 188.92 -0.95004 -3.12477 0
M  V30 1913 H 187.579 -2.89467 -2.24954 0
M  V30 1914 H 187.227 -2.0701 -4.58428 0
M  V30 1915 H 186.927 -3.82195 -4.46319 0
M  V30 1916 H 188.451 -3.22869 -5.18255 0
M  V30 1917 H 189.865 -4.62348 -3.38979 0
M  V30 1918 H 188.262 -5.25006 -2.9067 0
M  V30 1919 H 189.332 -4.54893 -1.67929 0
M  V30 1920 N 190.675 0.682077 -1.42076 0
M  V30 1921 C 191.623 1.81707 -1.45208 0
M  V30 1922 C 192.617 1.66183 -0.328591 0
M  V30 1923 O 193.823 1.7288 -0.501264 0
M  V30 1924 H 190.198 0.599014 -0.454628 0
M  V30 1925 H 192.169 1.76183 -2.40836 0
M  V30 1926 C 190.918 3.19816 -1.36428 0
M  V30 1927 H 190.241 3.32385 -2.22171 0
M  V30 1928 H 191.681 3.99272 -1.42681 0
M  V30 1929 C 190.14 3.36809 -0.078191 0
M  V30 1930 O 190.67 3.92124 0.87188 0
M  V30 1931 N 188.876 2.906 0.00229266 0
M  V30 1932 H 188.423 2.45772 -0.771616 0
M  V30 1933 H 188.381 3.02347 0.862179 0
M  V30 1934 N 192.153 1.28127 0.917671 0
M  V30 1935 C 193.569 1.05749 1.19538 0
M  V30 1936 C 193.769 -0.202633 2.00479 0
M  V30 1937 O 192.825 -0.905382 2.3571 0
M  V30 1938 C 194.138 2.30273 1.93378 0
M  V30 1939 C 195.686 2.35412 2.06277 0
M  V30 1940 C 196.161 3.59692 2.83524 0
M  V30 1941 N 197.652 3.60309 2.91087 0
M  V30 1942 C 198.387 4.53147 3.51348 0
M  V30 1943 N 197.883 5.563 4.12919 0
M  V30 1944 N 199.676 4.40751 3.48849 0
M  V30 1945 H 191.827 2.09024 0.377184 0
M  V30 1946 H 194.09 0.919798 0.22951 0
M  V30 1947 H 193.796 3.22055 1.41328 0
M  V30 1948 H 193.67 2.36378 2.93947 0
M  V30 1949 H 196.057 1.4413 2.57508 0
M  V30 1950 H 196.138 2.33304 1.04895 0
M  V30 1951 H 195.782 4.51316 2.32973 0
M  V30 1952 H 195.712 3.59054 3.85211 0
M  V30 1953 H 198.203 2.85714 2.47338 0
M  V30 1954 H 198.516 6.2329 4.56869 0
M  V30 1955 H 196.861 5.60131 4.11435 0
M  V30 1956 H 200.052 3.59367 2.99955 0
M  V30 1957 H 200.225 5.13291 3.9552 0
M  V30 1958 N 193.631 -1.12557 1.10312 0
M  V30 1959 C 194.856 -1.88405 0.867085 0
M  V30 1960 C 195.281 -1.79038 -0.576817 0
M  V30 1961 O 194.639 -1.14439 -1.40618 0
M  V30 1962 C 194.687 -3.3563 1.31851 0
M  V30 1963 O 193.791 -4.09565 0.482734 0
M  V30 1964 H 193.132 -0.585455 0.313271 0
M  V30 1965 H 195.662 -1.42352 1.4696 0
M  V30 1966 H 195.672 -3.86469 1.3079 0
M  V30 1967 H 194.347 -3.41765 2.37001 0
M  V30 1968 H 192.924 -3.68695 0.558448 0
M  V30 1969 N 195.109 -0.891671 -1.2995 0
M  V30 1970 C 196.337 -0.52866 -2.00032 0
M  V30 1971 C 196.752 0.884574 -1.66795 0
M  V30 1972 O 196.109 1.5827 -0.908669 0
M  V30 1973 C 196.16 -0.701814 -3.54622 0
M  V30 1974 O 195.881 -2.05942 -3.86678 0
M  V30 1975 C 197.382 -0.342683 -4.41973 0
M  V30 1976 H 194.602 -0.203659 -0.639347 0
M  V30 1977 H 197.146 -1.19881 -1.65677 0
M  V30 1978 H 195.301 -0.0789468 -3.8732 0
M  V30 1979 H 195.715 -2.08291 -4.81368 0
M  V30 1980 H 197.189 -0.514709 -5.49595 0
M  V30 1981 H 197.666 0.71975 -4.33262 0
M  V30 1982 H 198.272 -0.942154 -4.14733 0
M  V30 1983 N 196.587 1.43421 -0.653314 0
M  V30 1984 C 197.812 2.06678 -0.172846 0
M  V30 1985 C 198.237 1.48648 1.15262 0
M  V30 1986 O 197.595 0.596457 1.71208 0
M  V30 1987 C 197.643 3.60474 -0.0953184 0
M  V30 1988 O 196.747 4.01487 0.942442 0
M  V30 1989 H 196.088 0.657181 -0.0949155 0
M  V30 1990 H 198.618 1.83925 -0.896265 0
M  V30 1991 H 198.628 4.07905 0.0879728 0
M  V30 1992 H 197.303 4.02088 -1.06291 0
M  V30 1993 H 195.88 3.65646 0.731932 0
M  V30 1994 N 198.065 0.39524 1.52563 0
M  V30 1995 C 199.311 -0.185318 2.01952 0
M  V30 1996 C 199.644 -1.45964 1.28095 0
M  V30 1997 O 198.919 -1.90689 0.38315 0
M  V30 1998 C 199.202 -0.447193 3.57312 0
M  V30 1999 C 199.055 0.842828 4.41833 0
M  V30 2000 C 200.374 -1.23529 4.22408 0
M  V30 2001 H 197.493 -0.0658788 0.73405 0
M  V30 2002 H 200.135 0.525975 1.82575 0
M  V30 2003 H 198.285 -1.05312 3.73954 0
M  V30 2004 H 199.957 1.4795 4.36931 0
M  V30 2005 H 198.2 1.45686 4.08605 0
M  V30 2006 H 198.871 0.614165 5.48573 0
M  V30 2007 H 201.347 -0.722445 4.0978 0
M  V30 2008 H 200.223 -1.38727 5.3108 0
M  V30 2009 H 200.484 -2.25213 3.80436 0
M  V30 2010 N 199.544 -1.57102 0.125237 0
M  V30 2011 C 200.955 -1.82384 -0.399142 0
M  V30 2012 C 201.306 -1.04276 -1.66195 0
M  V30 2013 O 200.431 -0.281269 -2.14564 0
M  V30 2014 C 201.026 -3.30821 -0.730932 0
M  V30 2015 C 199.585 -3.56762 -1.19992 0
M  V30 2016 C 198.732 -2.7649 -0.211792 0
M  V30 2017 H 201.683 -1.54786 0.350277 0
M  V30 2018 H 201.704 -3.4579 -1.58775 0
M  V30 2019 H 201.216 -3.87643 0.188345 0
M  V30 2020 H 199.317 -3.05305 -2.13588 0
M  V30 2021 H 199.43 -4.65317 -1.14093 0
M  V30 2022 H 197.794 -2.4489 -0.700085 0
M  V30 2023 H 198.577 -3.36073 0.700691 0
M  V30 2024 N 201.022 0.148545 -1.56898 0
M  V30 2025 C 201.932 1.20293 -2.01412 0
M  V30 2026 C 202.948 1.47107 -0.929273 0
M  V30 2027 O 204.124 1.58807 -1.23863 0
M  V30 2028 C 201.189 2.51682 -2.38447 0
M  V30 2029 C 200.25 2.32529 -3.60872 0
M  V30 2030 C 199.483 3.57653 -3.96132 0
M  V30 2031 O 199.706 4.63771 -3.32073 0
M  V30 2032 O 198.64 3.50408 -4.89385 0
M  V30 2033 H 202.466 0.855025 -2.91416 0
M  V30 2034 H 200.051 0.357151 -1.45068 0
M  V30 2035 H 201.933 3.29147 -2.63135 0
M  V30 2036 H 200.608 2.86006 -1.51599 0
M  V30 2037 H 199.515 1.53019 -3.41373 0
M  V30 2038 H 200.848 2.03121 -4.48333 0
M  V30 2039 N 202.5 1.5196 0.417844 0
M  V30 2040 C 203.448 1.75278 1.52907 0
M  V30 2041 C 204.442 0.619611 1.57662 0
M  V30 2042 O 205.648 0.801457 1.61173 0
M  V30 2043 H 202.023 0.554141 0.508362 0
M  V30 2044 H 203.994 2.68389 1.30422 0
M  V30 2045 C 202.743 1.91262 2.90369 0
M  V30 2046 H 202.066 2.77872 2.8745 0
M  V30 2047 H 203.506 2.11581 3.67436 0
M  V30 2048 C 201.965 0.677431 3.30019 0
M  V30 2049 O 202.495 -0.158799 4.01386 0
M  V30 2050 N 200.701 0.515851 2.85985 0
M  V30 2051 H 200.248 1.19744 2.28077 0
M  V30 2052 H 200.206 -0.309315 3.12875 0
M  V30 2053 N 203.978 -0.674533 1.42435 0
M  V30 2054 C 205.389 -1.25514 1.38214 0
M  V30 2055 C 205.74 -1.96055 0.0755464 0
M  V30 2056 O 204.865 -2.00028 -0.8257 0
M  V30 2057 C 205.46 -2.28269 2.50357 0
M  V30 2058 C 204.019 -2.81856 2.49467 0
M  V30 2059 C 203.166 -1.56182 2.29134 0
M  V30 2060 H 206.117 -0.467902 1.51646 0
M  V30 2061 H 206.138 -3.10009 2.20624 0
M  V30 2062 H 205.65 -1.769 3.45439 0
M  V30 2063 H 203.751 -3.37346 1.58204 0
M  V30 2064 H 203.864 -3.30854 3.46515 0
M  V30 2065 H 202.228 -1.82761 1.774 0
M  V30 2066 H 203.011 -1.06778 3.26272 0
M  V30 2067 N 205.456 -1.28612 -0.910864 0
M  V30 2068 C 206.403 -1.12786 -2.01365 0
M  V30 2069 C 207.373 -0.024201 -1.66082 0
M  V30 2070 O 208.558 -0.189667 -1.89855 0
M  V30 2071 C 205.698 -0.798743 -3.35729 0
M  V30 2072 C 204.811 -1.98173 -3.83864 0
M  V30 2073 C 203.946 -1.59298 -5.06752 0
M  V30 2074 C 202.985 -2.74245 -5.47226 0
M  V30 2075 N 202.122 -2.35842 -6.61304 0
M  V30 2076 H 206.962 -2.07142 -2.14234 0
M  V30 2077 H 204.499 -1.03093 -1.0493 0
M  V30 2078 H 206.457 -0.588662 -4.13026 0
M  V30 2079 H 205.087 0.10789 -3.2262 0
M  V30 2080 H 204.139 -2.30386 -3.02699 0
M  V30 2081 H 205.451 -2.84343 -4.09818 0
M  V30 2082 H 204.605 -1.34513 -5.916 0
M  V30 2083 H 203.344 -0.702618 -4.82612 0
M  V30 2084 H 202.349 -2.99725 -4.60918 0
M  V30 2085 H 203.574 -3.63928 -5.73353 0
M  V30 2086 H 201.52 -1.49279 -6.38789 0
M  V30 2087 H 201.437 -3.15546 -6.86998 0
M  V30 2088 H 202.705 -2.14348 -7.4945 0
M  V30 2089 N 206.934 1.1197 -1.10907 0
M  V30 2090 C 208.159 1.87942 -0.877064 0
M  V30 2091 C 208.584 1.79341 0.567314 0
M  V30 2092 O 207.942 1.15184 1.40009 0
M  V30 2093 C 207.99 3.34926 -1.33629 0
M  V30 2094 O 207.094 4.09303 -0.504447 0
M  V30 2095 H 206.435 0.583785 -0.316371 0
M  V30 2096 H 208.965 1.4157 -1.47712 0
M  V30 2097 H 208.975 3.8577 -1.32837 0
M  V30 2098 H 207.65 3.40504 -2.3881 0
M  V30 2099 H 206.227 3.68393 -0.577993 0
M  V30 2100 N 208.412 0.89855 1.29475 0
M  V30 2101 C 209.637 0.538561 2.00285 0
M  V30 2102 C 210.062 -0.869135 1.66816 0
M  V30 2103 O 209.42 -1.57831 0.892145 0
M  V30 2104 C 209.468 0.736475 3.52999 0
M  V30 2105 O 208.572 -0.211537 4.11857 0
M  V30 2106 H 207.913 0.210563 0.62973 0
M  V30 2107 H 210.443 1.20982 1.64998 0
M  V30 2108 H 210.453 0.640685 4.02938 0
M  V30 2109 H 209.128 1.76276 3.76696 0
M  V30 2110 H 207.705 -0.0682991 3.72837 0
M  V30 2111 N 209.89 -1.43072 0.660911 0
M  V30 2112 C 210.853 -2.29194 -0.0166406 0
M  V30 2113 C 211.853 -1.42609 -0.742912 0
M  V30 2114 O 213.043 -1.64155 -0.583004 0
M  V30 2115 C 210.175 -3.24831 -1.0343 0
M  V30 2116 H 211.368 -2.90596 0.741208 0
M  V30 2117 H 208.921 -1.5048 0.422532 0
M  V30 2118 H 209.656 -2.68339 -1.82111 0
M  V30 2119 H 209.441 -3.88676 -0.517082 0
M  V30 2120 H 210.931 -3.89451 -1.50723 0
M  V30 2121 N 211.368 -0.403325 -1.52352 0
M  V30 2122 C 212.593 0.176499 -2.06648 0
M  V30 2123 C 213.018 1.38577 -1.27193 0
M  V30 2124 O 212.376 1.7879 -0.300637 0
M  V30 2125 C 212.424 0.511061 -3.5696 0
M  V30 2126 O 211.528 1.60294 -3.79973 0
M  V30 2127 H 210.869 0.0167337 -0.663789 0
M  V30 2128 H 213.399 -0.574848 -1.96359 0
M  V30 2129 H 213.409 0.771362 -4.00642 0
M  V30 2130 H 212.084 -0.37296 -4.14224 0
M  V30 2131 H 210.661 1.33526 -3.48174 0
M  V30 2132 N 212.846 1.57033 -0.133567 0
M  V30 2133 C 214.074 2.00044 0.528195 0
M  V30 2134 C 214.489 1.01349 1.59291 0
M  V30 2135 O 213.846 0.00848369 1.82498 0
M  V30 2136 C 213.897 3.43018 1.1411 0
M  V30 2137 O 213.618 4.37939 0.11892 0
M  V30 2138 C 215.119 4.01237 1.88477 0
M  V30 2139 H 212.339 0.656517 0.138661 0
M  V30 2140 H 214.883 2.03267 -0.224196 0
M  V30 2141 H 213.038 3.40688 1.84418 0
M  V30 2142 H 213.452 5.21436 0.56613 0
M  V30 2143 H 214.926 5.03314 2.26669 0
M  V30 2144 H 215.403 3.41193 2.76558 0
M  V30 2145 H 216.009 4.07156 1.22898 0
M  V30 2146 N 214.325 -0.140222 1.56975 0
M  V30 2147 C 215.288 -1.15689 1.97861 0
M  V30 2148 C 216.288 -1.3549 0.865974 0
M  V30 2149 O 217.478 -1.32367 1.13246 0
M  V30 2150 C 214.61 -2.51582 2.30042 0
M  V30 2151 H 215.803 -0.805971 2.88867 0
M  V30 2152 H 213.356 -0.383801 1.51515 0
M  V30 2153 H 214.091 -2.91632 1.41849 0
M  V30 2154 H 213.876 -2.38569 3.11171 0
M  V30 2155 H 215.366 -3.24792 2.62488 0
M  V30 2156 N 215.803 -1.52179 -0.40978 0
M  V30 2157 C 217.049 -1.66453 -1.15851 0
M  V30 2158 C 217.382 -0.392972 -1.90182 0
M  V30 2159 O 216.657 0.608579 -1.84734 0
M  V30 2160 C 216.94 -2.88612 -2.15349 0
M  V30 2161 C 216.793 -4.25815 -1.44918 0
M  V30 2162 C 218.112 -3.06294 -3.16026 0
M  V30 2163 H 215.231 -0.60575 -0.419805 0
M  V30 2164 H 217.873 -1.84732 -0.444314 0
M  V30 2165 H 216.023 -2.73158 -2.76255 0
M  V30 2166 H 217.695 -4.52995 -0.871365 0
M  V30 2167 H 215.938 -4.27247 -0.751159 0
M  V30 2168 H 216.609 -5.07337 -2.17516 0
M  V30 2169 H 219.085 -3.20641 -2.65195 0
M  V30 2170 H 217.961 -3.93283 -3.8291 0
M  V30 2171 H 218.222 -2.19579 -3.83715 0
M  V30 2172 N 217.281 0.66697 -1.42791 0
M  V30 2173 C 218.506 1.46004 -1.47301 0
M  V30 2174 C 218.931 1.87894 -0.0880317 0
M  V30 2175 O 218.289 1.56502 0.915253 0
M  V30 2176 C 218.337 2.68031 -2.41229 0
M  V30 2177 O 217.441 3.6659 -1.88906 0
M  V30 2178 H 216.782 0.43832 -0.49877 0
M  V30 2179 H 219.312 0.817391 -1.87563 0
M  V30 2180 H 219.322 3.1601 -2.58073 0
M  V30 2181 H 217.997 2.36883 -3.41847 0
M  V30 2182 H 216.574 3.25661 -1.81656 0
M  V30 2183 N 218.759 1.29093 0.90403 0
M  V30 2184 C 219.722 1.1386 1.98919 0
M  V30 2185 C 220.722 0.0753457 1.60623 0
M  V30 2186 O 221.912 0.321931 1.71199 0
M  V30 2187 C 219.044 0.740198 3.32767 0
M  V30 2188 H 220.237 2.10246 2.13861 0
M  V30 2189 H 217.79 1.12218 1.08797 0
M  V30 2190 H 218.525 -0.223997 3.23525 0
M  V30 2191 H 218.31 1.50838 3.61926 0
M  V30 2192 H 219.8 0.656546 4.12407 0
M  V30 2193 N 220.237 -1.11381 1.11499 0
M  V30 2194 C 221.2 -2.15622 0.777153 0
M  V30 2195 C 222.2 -1.59504 -0.203779 0
M  V30 2196 O 223.39 -1.74188 0.020782 0
M  V30 2197 C 220.522 -3.40556 0.153116 0
M  V30 2198 H 221.715 -2.47021 1.70061 0
M  V30 2199 H 219.268 -1.26577 0.916952 0
M  V30 2200 H 220.003 -3.14767 -0.780536 0
M  V30 2201 H 219.788 -3.8257 0.859238 0
M  V30 2202 H 221.278 -4.17546 -0.0671044 0
M  V30 2203 N 221.715 -0.905404 -1.28997 0
M  V30 2204 C 223.126 -0.581953 -1.77398 0
M  V30 2205 C 223.477 0.902552 -1.74208 0
M  V30 2206 O 222.602 1.70584 -1.33154 0
M  V30 2207 C 223.197 -1.04961 -3.22131 0
M  V30 2208 C 221.756 -0.777229 -3.68288 0
M  V30 2209 C 220.903 -1.22109 -2.48967 0
M  V30 2210 H 223.854 -1.08754 -1.15578 0
M  V30 2211 H 223.875 -0.387387 -3.78523 0
M  V30 2212 H 223.387 -2.13008 -3.24421 0
M  V30 2213 H 221.488 0.290383 -3.71467 0
M  V30 2214 H 221.601 -1.37911 -4.58822 0
M  V30 2215 H 219.965 -0.639971 -2.46529 0
M  V30 2216 H 220.748 -2.30972 -2.53982 0
M  V30 2217 N 223.193 1.4272 -0.668489 0
M  V30 2218 C 224.421 2.05966 -0.196348 0
M  V30 2219 C 224.836 1.50191 1.14403 0
M  V30 2220 O 224.193 0.639208 1.7094 0
M  V30 2221 C 224.244 3.61314 -0.115815 0
M  V30 2222 O 223.965 4.1502 -1.40322 0
M  V30 2223 C 225.466 4.41663 0.380579 0
M  V30 2224 H 222.686 0.663954 -0.0969829 0
M  V30 2225 H 225.23 1.82966 -0.913446 0
M  V30 2226 H 223.385 3.83448 0.551931 0
M  V30 2227 H 223.799 5.08832 -1.27243 0
M  V30 2228 H 225.273 5.5065 0.385848 0
M  V30 2229 H 225.75 4.15792 1.41471 0
M  V30 2230 H 226.356 4.24534 -0.255209 0
M  V30 2231 N 224.671 0.411399 1.52136 0
M  V30 2232 C 225.581 -0.419774 2.30814 0
M  V30 2233 C 226.597 -1.0515 1.38634 0
M  V30 2234 O 227.773 -1.05252 1.71709 0
M  V30 2235 C 224.838 -1.52019 3.11594 0
M  V30 2236 C 223.899 -0.91129 4.19516 0
M  V30 2237 C 223.132 -1.95927 4.96436 0
M  V30 2238 O 223.355 -3.17775 4.73683 0
M  V30 2239 O 222.289 -1.56423 5.81219 0
M  V30 2240 H 226.115 0.221805 3.02889 0
M  V30 2241 H 223.7 0.174547 1.48377 0
M  V30 2242 H 225.582 -2.15898 3.61892 0
M  V30 2243 H 224.257 -2.14633 2.42311 0
M  V30 2244 H 223.164 -0.235157 3.7336 0
M  V30 2245 H 224.497 -0.32904 4.91099 0
M  V30 2246 N 226.149 -1.5696 0.141893 0
M  V30 2247 C 227.096 -2.16501 -0.799737 0
M  V30 2248 C 228.066 -1.09643 -1.24771 0
M  V30 2249 O 229.251 -1.3766 -1.32115 0
M  V30 2250 C 226.391 -2.78679 -2.03549 0
M  V30 2251 C 225.504 -3.99914 -1.6338 0
M  V30 2252 C 224.639 -4.50106 -2.82096 0
M  V30 2253 C 223.678 -5.63819 -2.38275 0
M  V30 2254 N 222.815 -6.08651 -3.49983 0
M  V30 2255 H 227.655 -2.96632 -0.285179 0
M  V30 2256 H 225.192 -1.46533 -0.129053 0
M  V30 2257 H 227.15 -3.1287 -2.75986 0
M  V30 2258 H 225.78 -2.012 -2.52425 0
M  V30 2259 H 224.832 -3.71735 -0.807279 0
M  V30 2260 H 226.144 -4.82311 -1.27192 0
M  V30 2261 H 225.298 -4.86325 -3.62729 0
M  V30 2262 H 224.037 -3.66706 -3.21525 0
M  V30 2263 H 223.042 -5.2718 -1.56081 0
M  V30 2264 H 224.267 -6.49 -1.99938 0
M  V30 2265 H 222.213 -5.28188 -3.89042 0
M  V30 2266 H 222.13 -6.85961 -3.17794 0
M  V30 2267 H 223.398 -6.49515 -4.30988 0
M  V30 2268 N 227.627 0.131896 -1.57047 0
M  V30 2269 C 228.537 1.1815 -2.02676 0
M  V30 2270 C 229.553 1.46113 -0.944824 0
M  V30 2271 O 230.729 1.57485 -1.25541 0
M  V30 2272 C 227.794 2.49139 -2.41103 0
M  V30 2273 C 226.855 2.28688 -3.63318 0
M  V30 2274 C 226.088 3.53431 -3.99903 0
M  V30 2275 O 226.311 4.60223 -3.36973 0
M  V30 2276 O 225.245 3.45198 -4.93074 0
M  V30 2277 H 229.071 0.824069 -2.92306 0
M  V30 2278 H 226.656 0.341745 -1.45439 0
M  V30 2279 H 228.538 3.26338 -2.66611 0
M  V30 2280 H 227.213 2.84382 -1.54624 0
M  V30 2281 H 226.12 1.4939 -3.42977 0
M  V30 2282 H 227.453 1.98355 -4.50462 0
M  V30 2283 N 229.106 1.52395 0.401703 0
M  V30 2284 C 230.353 1.66817 1.14796 0
M  V30 2285 C 230.681 0.401772 1.90305 0
M  V30 2286 O 229.936 -0.615487 1.85769 0
M  V30 2287 C 230.235 2.84578 2.16217 0
M  V30 2288 C 229.901 4.22513 1.5746 0
M  V30 2289 C 228.563 4.60029 1.41161 0
M  V30 2290 C 230.915 5.0844 1.14622 0
M  V30 2291 C 228.243 5.81144 0.80552 0
M  V30 2292 C 230.595 6.30167 0.55428 0
M  V30 2293 C 229.259 6.66426 0.378482 0
M  V30 2294 H 228.529 0.610428 0.420069 0
M  V30 2295 H 231.176 1.86512 0.434212 0
M  V30 2296 H 229.481 2.59248 2.93764 0
M  V30 2297 H 231.178 2.92933 2.73845 0
M  V30 2298 H 227.768 3.92953 1.71132 0
M  V30 2299 H 231.952 4.80034 1.26021 0
M  V30 2300 H 227.208 6.07855 0.657399 0
M  V30 2301 H 231.382 6.96071 0.213983 0
M  V30 2302 H 229.009 7.60143 -0.0932606 0
M  V30 2303 N 230.584 -0.659388 1.43143 0
M  V30 2304 C 231.995 -1.24041 1.39537 0
M  V30 2305 C 232.346 -1.95963 0.0963364 0
M  V30 2306 O 231.471 -2.00892 -0.804438 0
M  V30 2307 C 232.066 -2.25601 2.52764 0
M  V30 2308 C 230.625 -2.79195 2.52443 0
M  V30 2309 C 229.772 -1.53743 2.30778 0
M  V30 2310 H 232.723 -0.451792 1.52133 0
M  V30 2311 H 232.744 -3.07651 2.23899 0
M  V30 2312 H 232.256 -1.73226 3.47296 0
M  V30 2313 H 230.357 -3.35649 1.61773 0
M  V30 2314 H 230.47 -3.2716 3.50004 0
M  V30 2315 H 228.834 -1.80869 1.79328 0
M  V30 2316 H 229.617 -1.03312 3.27386 0
M  V30 2317 N 232.062 -1.29571 -0.897171 0
M  V30 2318 C 233.009 -1.14916 -2.00158 0
M  V30 2319 C 233.979 -0.0418149 -1.66047 0
M  V30 2320 O 235.164 -0.209793 -1.89643 0
M  V30 2321 C 232.304 -0.834307 -3.34863 0
M  V30 2322 C 231.417 -2.02234 -3.8174 0
M  V30 2323 C 230.552 -1.64664 -5.05034 0
M  V30 2324 C 229.591 -2.80033 -5.44286 0
M  V30 2325 N 228.728 -2.42843 -6.58765 0
M  V30 2326 H 233.568 -2.09403 -2.12025 0
M  V30 2327 H 231.105 -1.042 -1.0383 0
M  V30 2328 H 233.063 -0.632436 -4.12379 0
M  V30 2329 H 231.693 0.0736656 -3.22716 0
M  V30 2330 H 230.745 -2.33583 -3.00238 0
M  V30 2331 H 232.057 -2.88673 -4.06779 0
M  V30 2332 H 231.211 -1.4078 -5.9014 0
M  V30 2333 H 229.95 -0.753766 -4.8184 0
M  V30 2334 H 228.955 -3.04596 -4.57713 0
M  V30 2335 H 230.18 -3.69989 -5.6946 0
M  V30 2336 H 228.126 -1.56046 -6.3717 0
M  V30 2337 H 228.043 -3.22815 -6.83613 0
M  V30 2338 H 229.311 -2.22285 -7.47134 0
M  V30 2339 N 233.54 1.10788 -1.12088 0
M  V30 2340 C 234.768 1.86461 -0.896651 0
M  V30 2341 C 235.183 1.80492 0.553912 0
M  V30 2342 O 234.54 1.19102 1.38278 0
M  V30 2343 C 234.591 3.35006 -1.35843 0
M  V30 2344 O 234.312 3.40866 -2.75213 0
M  V30 2345 C 235.813 4.27565 -1.1706 0
M  V30 2346 H 233.033 0.589425 -0.320654 0
M  V30 2347 H 235.577 1.40076 -1.48993 0
M  V30 2348 H 233.732 3.7887 -0.808458 0
M  V30 2349 H 234.146 4.33411 -2.9539 0
M  V30 2350 H 235.62 5.30007 -1.54263 0
M  V30 2351 H 236.097 4.3906 -0.110814 0
M  V30 2352 H 236.703 3.89501 -1.70789 0
M  V30 2353 N 235.018 0.912232 1.28515 0
M  V30 2354 C 235.968 0.370649 2.24967 0
M  V30 2355 C 236.952 -0.516375 1.52389 0
M  V30 2356 O 238.144 -0.356345 1.73376 0
M  V30 2357 C 235.273 -0.389526 3.41083 0
M  V30 2358 C 234.359 0.51313 4.20984 0
M  V30 2359 N 234.75 1.62604 4.78951 0
M  V30 2360 C 233.048 0.313235 4.44899 0
M  V30 2361 C 233.749 2.18619 5.39055 0
M  V30 2362 N 232.725 1.47765 5.23132 0
M  V30 2363 H 236.527 1.22061 2.67354 0
M  V30 2364 H 234.041 0.764712 1.43269 0
M  V30 2365 H 236.038 -0.794353 4.09262 0
M  V30 2366 H 234.698 -1.2366 3.0023 0
M  V30 2367 H 235.709 2.00864 4.77362 0
M  V30 2368 H 232.386 -0.494452 4.14562 0
M  V30 2369 H 233.776 3.12228 5.94948 0
M  V30 2370 N 236.496 -1.42363 0.676048 0
M  V30 2371 C 237.721 -2.06377 0.205705 0
M  V30 2372 C 238.146 -1.50463 -1.12883 0
M  V30 2373 O 237.504 -0.623619 -1.70237 0
M  V30 2374 C 237.552 -3.60277 0.152655 0
M  V30 2375 O 236.656 -4.02935 -0.87845 0
M  V30 2376 H 235.997 -0.655588 0.105359 0
M  V30 2377 H 238.527 -1.82475 0.925412 0
M  V30 2378 H 238.537 -4.07993 -0.0230675 0
M  V30 2379 H 237.212 -4.00346 1.12675 0
M  V30 2380 H 235.789 -3.66764 -0.673668 0
M  V30 2381 N 237.974 -0.419461 -1.51915 0
M  V30 2382 C 239.251 0.211999 -1.94448 0
M  V30 2383 C 239.631 1.61703 -1.35703 0
M  V30 2384 O 238.979 2.22102 -0.536931 0
M  V30 2385 C 239.189 0.207872 -3.4838 0
M  V30 2386 C 240.537 0.422192 -4.22496 0
M  V30 2387 O 241.561 0.286778 -3.55044 0
M  V30 2388 O 240.42 0.690009 -5.42126 0
M  V30 2389 H 237.514 0.139586 -0.815135 0
M  V30 2390 H 240.06 -0.476151 -1.62883 0
M  V30 2391 H 238.832 -0.775102 -3.83546 0
M  V30 2392 H 238.455 0.939688 -3.86336 0
M  V30 2393 N 239.452 1.56882 -0.150215 0
M  V30 2394 C 240.698 1.96518 0.500834 0
M  V30 2395 C 241.031 1.03527 1.64304 0
M  V30 2396 O 240.306 0.0782751 1.94342 0
M  V30 2397 C 240.589 3.45822 1.00395 0
M  V30 2398 C 240.442 4.49591 -0.136983 0
M  V30 2399 C 241.761 3.97704 1.88467 0
M  V30 2400 H 238.88 0.714535 0.18058 0
M  V30 2401 H 241.522 1.88577 -0.232091 0
M  V30 2402 H 239.672 3.5272 1.62851 0
M  V30 2403 H 241.344 4.5477 -0.77343 0
M  V30 2404 H 239.587 4.26441 -0.795652 0
M  V30 2405 H 240.258 5.51402 0.256815 0
M  V30 2406 H 242.734 3.93304 1.35834 0
M  V30 2407 H 241.61 5.0263 2.20578 0
M  V30 2408 H 241.871 3.40252 2.82279 0
M  V30 2409 N 240.93 -0.123565 1.57115 0
M  V30 2410 C 242.155 -0.850398 1.89164 0
M  V30 2411 C 242.58 -1.7286 0.741688 0
M  V30 2412 O 241.938 -1.78665 -0.307958 0
M  V30 2413 C 241.986 -1.66353 3.19936 0
M  V30 2414 O 241.09 -2.77004 3.0552 0
M  V30 2415 H 240.431 -0.235454 0.620852 0
M  V30 2416 H 242.961 -0.107335 2.04318 0
M  V30 2417 H 242.971 -2.05372 3.52543 0
M  V30 2418 H 241.646 -1.01881 4.03228 0
M  V30 2419 H 240.223 -2.41221 2.84371 0
M  V30 2420 N 242.408 -1.52605 -0.393616 0
M  V30 2421 C 243.633 -1.71592 -1.16495 0
M  V30 2422 C 244.058 -0.43133 -1.83088 0
M  V30 2423 O 243.416 0.612523 -1.7064 0
M  V30 2424 C 243.464 -2.86318 -2.19213 0
M  V30 2425 O 242.568 -2.52969 -3.257 0
M  V30 2426 H 241.909 -0.570734 -0.33935 0
M  V30 2427 H 244.439 -1.99377 -0.459324 0
M  V30 2428 H 244.449 -3.1168 -2.63286 0
M  V30 2429 H 243.124 -3.79511 -1.7013 0
M  V30 2430 H 241.701 -2.38332 -2.86797 0
M  V30 2431 N 243.887 0.651787 -1.4349 0
M  V30 2432 C 244.797 1.79368 -1.5121 0
M  V30 2433 C 245.813 1.69361 -0.399093 0
M  V30 2434 O 246.989 1.90505 -0.653431 0
M  V30 2435 C 244.054 3.15653 -1.43401 0
M  V30 2436 C 243.115 3.37446 -2.65384 0
M  V30 2437 C 242.348 4.67229 -2.57939 0
M  V30 2438 O 242.571 5.46676 -1.62792 0
M  V30 2439 O 241.505 4.90773 -3.48462 0
M  V30 2440 H 245.331 1.7581 -2.47638 0
M  V30 2441 H 242.916 0.810447 -1.25507 0
M  V30 2442 H 244.798 3.96935 -1.41494 0
M  V30 2443 H 243.473 3.19798 -0.501085 0
M  V30 2444 H 242.38 2.55923 -2.72863 0
M  V30 2445 H 243.713 3.38148 -3.57654 0
M  V30 2446 N 245.365 1.30045 0.890287 0
M  V30 2447 C 246.297 1.11786 2.00091 0
M  V30 2448 C 247.31 0.0626307 1.62679 0
M  V30 2449 O 248.499 0.308112 1.75821 0
M  V30 2450 C 245.599 0.681527 3.31977 0
M  V30 2451 C 244.772 1.81735 3.97858 0
M  V30 2452 C 243.831 1.37045 5.08041 0
M  V30 2453 O 242.857 2.07677 5.29961 0
M  V30 2454 N 244.059 0.246525 5.79976 0
M  V30 2455 H 246.824 2.07441 2.16306 0
M  V30 2456 H 244.385 1.2211 1.06305 0
M  V30 2457 H 246.377 0.365675 4.03045 0
M  V30 2458 H 244.947 -0.182828 3.12065 0
M  V30 2459 H 244.167 2.30159 3.20032 0
M  V30 2460 H 245.455 2.57865 4.38615 0
M  V30 2461 H 244.853 -0.34215 5.64664 0
M  V30 2462 H 243.41 -0.00990438 6.51799 0
M  V30 2463 N 246.843 -1.10192 1.12674 0
M  V30 2464 C 247.775 -2.16418 0.754701 0
M  V30 2465 C 248.788 -1.61309 -0.21986 0
M  V30 2466 O 249.977 -1.785 -0.000826841 0
M  V30 2467 C 247.077 -3.38762 0.096698 0
M  V30 2468 C 246.25 -4.23307 1.10136 0
M  V30 2469 C 245.309 -5.24092 0.470513 0
M  V30 2470 O 244.335 -5.57906 1.12824 0
M  V30 2471 N 245.537 -5.75491 -0.760948 0
M  V30 2472 H 248.302 -2.48943 1.66875 0
M  V30 2473 H 245.863 -1.25834 1.01869 0
M  V30 2474 H 247.855 -4.03291 -0.337384 0
M  V30 2475 H 246.425 -3.04192 -0.720153 0
M  V30 2476 H 245.645 -3.55036 1.71299 0
M  V30 2477 H 246.933 -4.76624 1.78064 0
M  V30 2478 H 246.331 -5.50222 -1.31424 0
M  V30 2479 H 244.888 -6.41792 -1.13781 0
M  V30 2480 N 248.321 -0.919034 -1.28029 0
M  V30 2481 C 249.271 -0.382574 -2.24767 0
M  V30 2482 C 250.255 0.508286 -1.52661 0
M  V30 2483 O 251.447 0.347145 -1.73562 0
M  V30 2484 C 248.576 0.371432 -3.41285 0
M  V30 2485 C 247.662 -0.535449 -4.20706 0
M  V30 2486 N 248.053 -1.65141 -4.78082 0
M  V30 2487 C 246.351 -0.336824 -4.44726 0
M  V30 2488 C 247.052 -2.21475 -5.37888 0
M  V30 2489 N 246.028 -1.50537 -5.22341 0
M  V30 2490 H 249.83 -1.23477 -2.66703 0
M  V30 2491 H 247.344 -0.772299 -1.42861 0
M  V30 2492 H 249.341 0.772638 -4.09678 0
M  V30 2493 H 248.001 1.22066 -3.00882 0
M  V30 2494 H 249.012 -2.03392 -4.7629 0
M  V30 2495 H 245.689 0.47246 -4.14818 0
M  V30 2496 H 247.079 -3.15379 -5.93284 0
M  V30 2497 N 249.799 1.42003 -0.683588 0
M  V30 2498 C 250.729 2.33487 -0.024866 0
M  V30 2499 C 251.71 1.51163 0.779975 0
M  V30 2500 O 252.895 1.79739 0.735362 0
M  V30 2501 C 250.025 3.3487 0.920836 0
M  V30 2502 C 248.979 4.27414 0.223958 0
M  V30 2503 C 248.305 5.19074 1.2832 0
M  V30 2504 C 249.605 5.14445 -0.90242 0
M  V30 2505 H 251.299 2.88819 -0.788921 0
M  V30 2506 H 248.845 1.38873 -0.38083 0
M  V30 2507 H 250.798 3.97787 1.39081 0
M  V30 2508 H 249.522 2.77861 1.71642 0
M  V30 2509 H 248.181 3.65904 -0.225864 0
M  V30 2510 H 247.829 4.58387 2.071 0
M  V30 2511 H 247.529 5.81822 0.821995 0
M  V30 2512 H 249.053 5.84867 1.75392 0
M  V30 2513 H 250.467 5.70998 -0.513272 0
M  V30 2514 H 248.864 5.86072 -1.28997 0
M  V30 2515 H 249.934 4.52322 -1.74737 0
M  V30 2516 N 251.277 0.427512 1.51691 0
M  V30 2517 C 252.224 -0.388867 2.275 0
M  V30 2518 C 253.194 -1.02532 1.30677 0
M  V30 2519 O 254.379 -1.0461 1.59566 0
M  V30 2520 C 251.519 -1.48954 3.11298 0
M  V30 2521 C 250.632 -0.872194 4.23104 0
M  V30 2522 C 249.767 -1.94709 4.94228 0
M  V30 2523 C 248.806 -1.30766 5.97969 0
M  V30 2524 N 247.943 -2.32349 6.62539 0
M  V30 2525 H 252.783 0.263997 2.96828 0
M  V30 2526 H 250.32 0.142033 1.46413 0
M  V30 2527 H 252.278 -2.13887 3.58201 0
M  V30 2528 H 250.908 -2.11217 2.44105 0
M  V30 2529 H 249.96 -0.111419 3.80237 0
M  V30 2530 H 251.272 -0.365264 4.97461 0
M  V30 2531 H 250.426 -2.67327 5.44629 0
M  V30 2532 H 249.165 -2.48773 4.1948 0
M  V30 2533 H 248.17 -0.566902 5.4687 0
M  V30 2534 H 249.395 -0.774483 6.74669 0
M  V30 2535 H 247.341 -2.85511 5.90609 0
M  V30 2536 H 247.258 -1.8652 7.3263 0
M  V30 2537 H 248.526 -3.04481 7.17574 0
M  V30 2538 N 252.755 -1.56801 0.158532 0
M  V30 2539 C 254.003 -1.96102 -0.488712 0
M  V30 2540 C 254.324 -1.04498 -1.64636 0
M  V30 2541 O 253.594 -0.108783 -1.95598 0
M  V30 2542 H 252.174 -0.724102 -0.183535 0
M  V30 2543 H 254.836 -1.93457 0.236728 0
M  V30 2544 H 253.932 -3.00097 -0.857219 0
M  V30 2545 N 254.233 0.115231 -1.57178 0
M  V30 2546 C 255.165 1.16694 -1.97269 0
M  V30 2547 C 256.178 1.37445 -0.872502 0
M  V30 2548 O 257.367 1.36454 -1.15077 0
M  V30 2549 C 254.467 2.52627 -2.25905 0
M  V30 2550 C 253.64 2.52427 -3.57211 0
M  V30 2551 C 252.699 3.70134 -3.74016 0
M  V30 2552 O 251.725 3.53546 -4.46087 0
M  V30 2553 N 252.927 4.88844 -3.13068 0
M  V30 2554 H 255.692 0.82588 -2.88096 0
M  V30 2555 H 253.253 0.304461 -1.59011 0
M  V30 2556 H 255.245 3.29937 -2.34359 0
M  V30 2557 H 253.815 2.789 -1.41186 0
M  V30 2558 H 253.035 1.60805 -3.5991 0
M  V30 2559 H 254.323 2.49353 -4.43509 0
M  V30 2560 H 253.721 5.05225 -2.54489 0
M  V30 2561 H 252.278 5.63817 -3.27037 0
M  V30 2562 N 255.711 1.52812 0.385517 0
M  V30 2563 C 256.939 1.71907 1.15133 0
M  V30 2564 C 257.354 0.439004 1.83625 0
M  V30 2565 O 256.711 -0.586765 1.7281 0
M  V30 2566 C 256.762 2.87099 2.19673 0
M  V30 2567 O 256.483 4.10151 1.53973 0
M  V30 2568 C 257.984 3.17902 3.08955 0
M  V30 2569 H 255.204 0.575479 0.345057 0
M  V30 2570 H 257.748 1.99476 0.45052 0
M  V30 2571 H 255.903 2.61982 2.85384 0
M  V30 2572 H 256.317 4.74514 2.23465 0
M  V30 2573 H 257.791 4.01959 3.7833 0
M  V30 2574 H 258.268 2.3243 3.72657 0
M  V30 2575 H 258.874 3.44871 2.48885 0
M  V30 2576 N 257.189 -0.644168 1.43834 0
M  V30 2577 C 258.437 -1.40117 1.45642 0
M  V30 2578 C 258.758 -1.94814 0.0852413 0
M  V30 2579 O 258.028 -1.74988 -0.880688 0
M  V30 2580 H 256.608 -0.52005 0.536243 0
M  V30 2581 H 259.27 -0.7591 1.7951 0
M  V30 2582 H 258.366 -2.23902 2.17427 0
M  V30 2583 N 258.668 -1.30515 -0.883378 0
M  V30 2584 C 259.896 -1.22359 -1.66841 0
M  V30 2585 C 260.311 0.213296 -1.87591 0
M  V30 2586 O 259.668 1.14075 -1.42454 0
M  V30 2587 C 259.719 -1.95011 -3.04389 0
M  V30 2588 O 259.44 -3.3309 -2.84575 0
M  V30 2589 C 260.941 -1.93532 -3.98824 0
M  V30 2590 H 258.161 -0.423371 -0.520575 0
M  V30 2591 H 260.705 -1.72167 -1.10357 0
M  V30 2592 H 258.86 -1.48997 -3.57601 0
M  V30 2593 H 259.274 -3.69907 -3.71846 0
M  V30 2594 H 260.748 -2.48902 -4.92699 0
M  V30 2595 H 261.225 -0.914627 -4.29571 0
M  V30 2596 H 261.831 -2.39364 -3.51547 0
M  V30 2597 N 260.146 1.09593 -1.13257 0
M  V30 2598 C 261.094 2.18271 -0.803783 0
M  V30 2599 C 262.088 1.68054 0.213148 0
M  V30 2600 O 263.294 1.79862 0.0704699 0
M  V30 2601 H 259.669 0.711949 -0.242143 0
M  V30 2602 H 261.64 2.43235 -1.72856 0
M  V30 2603 C 260.389 3.46536 -0.28424 0
M  V30 2604 H 259.712 3.85545 -1.05807 0
M  V30 2605 H 261.152 4.23899 -0.0925945 0
M  V30 2606 C 259.611 3.22036 0.989684 0
M  V30 2607 O 260.141 3.44509 2.06584 0
M  V30 2608 N 258.347 2.7565 0.920086 0
M  V30 2609 H 257.894 2.57562 0.0442019 0
M  V30 2610 H 257.852 2.59635 1.77306 0
M  V30 2611 N 261.624 0.925811 1.2754 0
M  V30 2612 C 262.872 0.564138 1.94067 0
M  V30 2613 C 263.193 -0.897188 1.73134 0
M  V30 2614 O 262.463 -1.63573 1.07799 0
M  V30 2615 H 261.043 0.205645 0.718136 0
M  V30 2616 H 263.705 1.1778 1.55287 0
M  V30 2617 H 262.801 0.76881 3.02483 0
M  V30 2618 N 263.102 -1.41638 0.69111 0
M  V30 2619 C 264.35 -2.00902 0.219758 0
M  V30 2620 C 264.671 -1.54994 -1.18329 0
M  V30 2621 O 263.941 -0.778628 -1.79762 0
M  V30 2622 H 262.521 -0.74289 0.0782558 0
M  V30 2623 H 265.183 -1.73327 0.891271 0
M  V30 2624 H 264.279 -3.11224 0.233708 0
M  V30 2625 N 264.58 -0.43555 -1.51462 0
M  V30 2626 C 265.528 0.391205 -2.29287 0
M  V30 2627 C 266.522 1.02247 -1.35062 0
M  V30 2628 O 267.728 0.957646 -1.52411 0
M  V30 2629 H 264.103 0.144968 -0.737895 0
M  V30 2630 H 266.074 -0.286051 -2.97026 0
M  V30 2631 C 264.823 1.48096 -3.14583 0
M  V30 2632 H 264.146 1.00457 -3.86973 0
M  V30 2633 H 265.586 2.03273 -3.72097 0
M  V30 2634 C 264.045 2.46321 -2.29843 0
M  V30 2635 O 264.575 3.50815 -1.95682 0
M  V30 2636 N 262.781 2.17166 -1.931 0
M  V30 2637 H 262.328 1.32218 -2.21079 0
M  V30 2638 H 262.286 2.83127 -1.36698 0
M  V30 2639 N 266.058 1.56714 -0.166846 0
M  V30 2640 C 267.304 1.97039 0.479962 0
M  V30 2641 C 267.637 1.05264 1.63197 0
M  V30 2642 O 266.912 0.0988833 1.94248 0
M  V30 2643 C 267.195 3.46867 0.967212 0
M  V30 2644 C 267.048 4.49421 -0.18466 0
M  V30 2645 C 268.367 3.9968 1.84238 0
M  V30 2646 H 265.486 0.71641 0.172992 0
M  V30 2647 H 268.128 1.8832 -0.252079 0
M  V30 2648 H 266.278 3.54428 1.59101 0
M  V30 2649 H 267.95 4.53924 -0.821621 0
M  V30 2650 H 266.193 4.25573 -0.840837 0
M  V30 2651 H 266.864 5.51644 0.198317 0
M  V30 2652 H 269.34 3.94723 1.31655 0
M  V30 2653 H 268.216 5.04941 2.15234 0
M  V30 2654 H 268.477 3.43226 2.78654 0
M  V30 2655 N 267.536 -0.106894 1.57237 0
M  V30 2656 C 268.483 -1.13049 2.01217 0
M  V30 2657 C 269.453 -1.40471 0.886403 0
M  V30 2658 O 270.638 -1.52133 1.15153 0
M  V30 2659 C 267.778 -2.4487 2.43172 0
M  V30 2660 C 266.891 -2.24281 3.69218 0
M  V30 2661 C 266.026 -3.49417 4.00101 0
M  V30 2662 C 265.065 -3.24038 5.19294 0
M  V30 2663 N 264.202 -4.41409 5.45988 0
M  V30 2664 H 269.042 -0.748456 2.88448 0
M  V30 2665 H 266.579 -0.358054 1.42676 0
M  V30 2666 H 268.537 -3.21786 2.65537 0
M  V30 2667 H 267.167 -2.80944 1.58967 0
M  V30 2668 H 266.219 -1.38224 3.54398 0
M  V30 2669 H 267.531 -2.01512 4.56283 0
M  V30 2670 H 266.685 -4.34746 4.2318 0
M  V30 2671 H 265.424 -3.75229 3.11535 0
M  V30 2672 H 264.429 -2.37102 4.96047 0
M  V30 2673 H 265.654 -2.99584 6.09447 0
M  V30 2674 H 263.6 -4.67319 4.60379 0
M  V30 2675 H 263.517 -4.21788 6.274 0
M  V30 2676 H 264.785 -5.27836 5.73593 0
M  V30 2677 N 269.014 -1.53014 -0.377408 0
M  V30 2678 C 269.944 -1.81589 -1.46791 0
M  V30 2679 C 270.925 -0.668622 -1.56408 0
M  V30 2680 O 272.11 -0.917337 -1.71168 0
M  V30 2681 C 269.24 -1.99519 -2.8427 0
M  V30 2682 C 268.194 -3.15249 -2.89486 0
M  V30 2683 C 267.52 -3.18451 -4.29527 0
M  V30 2684 C 268.82 -4.54084 -2.58079 0
M  V30 2685 H 270.514 -2.7291 -1.23127 0
M  V30 2686 H 268.06 -1.31319 -0.590883 0
M  V30 2687 H 270.013 -2.18092 -3.60575 0
M  V30 2688 H 268.737 -1.04897 -3.09296 0
M  V30 2689 H 267.396 -2.96477 -2.15631 0
M  V30 2690 H 267.044 -2.2149 -4.5161 0
M  V30 2691 H 266.744 -3.962 -4.33934 0
M  V30 2692 H 268.268 -3.39193 -5.07721 0
M  V30 2693 H 269.682 -4.72899 -3.24098 0
M  V30 2694 H 268.079 -5.33987 -2.7382 0
M  V30 2695 H 269.149 -4.60006 -1.53372 0
M  V30 2696 N 270.492 0.636531 -1.44174 0
M  V30 2697 C 271.722 1.42146 -1.49927 0
M  V30 2698 C 272.13 1.88812 -0.121063 0
M  V30 2699 O 271.473 1.61126 0.882267 0
M  V30 2700 C 271.535 2.67883 -2.39748 0
M  V30 2701 C 271.199 2.43048 -3.8701 0
M  V30 2702 C 272.196 2.05216 -4.77684 0
M  V30 2703 C 269.881 2.56856 -4.3166 0
M  V30 2704 C 271.875 1.81512 -6.11009 0
M  V30 2705 C 269.562 2.32766 -5.65034 0
M  V30 2706 C 270.56 1.95152 -6.54526 0
M  V30 2707 O 270.248 1.71326 -7.85431 0
M  V30 2708 H 269.98 0.442567 -0.51099 0
M  V30 2709 H 272.534 0.786158 -1.8976 0
M  V30 2710 H 270.764 3.34032 -1.94832 0
M  V30 2711 H 272.453 3.29874 -2.36513 0
M  V30 2712 H 273.219 1.94111 -4.44462 0
M  V30 2713 H 269.098 2.85104 -3.62266 0
M  V30 2714 H 272.642 1.52077 -6.80822 0
M  V30 2715 H 268.539 2.43479 -5.97819 0
M  V30 2716 H 269.307 1.85616 -7.97176 0
M  V30 2717 N 271.97 1.30982 0.876444 0
M  V30 2718 C 273.198 1.23242 1.6619 0
M  V30 2719 C 273.613 -0.203345 1.87702 0
M  V30 2720 O 272.97 -1.13317 1.43057 0
M  V30 2721 C 273.021 1.96623 3.03351 0
M  V30 2722 O 272.742 3.34594 2.82804 0
M  V30 2723 C 274.243 1.95644 3.97792 0
M  V30 2724 H 271.463 0.426126 0.518322 0
M  V30 2725 H 274.007 1.7275 1.09442 0
M  V30 2726 H 272.162 1.50892 3.56806 0
M  V30 2727 H 272.576 3.71873 3.69879 0
M  V30 2728 H 274.05 2.51511 4.91372 0
M  V30 2729 H 274.527 0.937395 4.2908 0
M  V30 2730 H 275.133 2.41225 3.50272 0
M  V30 2731 N 273.449 -1.08991 1.13837 0
M  V30 2732 C 274.677 -1.85011 0.926202 0
M  V30 2733 C 275.092 -1.8135 -0.525127 0
M  V30 2734 O 274.449 -1.21287 -1.36366 0
M  V30 2735 C 274.5 -3.32802 1.41155 0
M  V30 2736 O 274.221 -3.36444 2.80601 0
M  V30 2737 C 275.722 -4.25649 1.23847 0
M  V30 2738 H 272.942 -0.584249 0.32999 0
M  V30 2739 H 275.486 -1.37688 1.51202 0
M  V30 2740 H 273.641 -3.77536 0.868631 0
M  V30 2741 H 274.055 -4.28657 3.02248 0
M  V30 2742 H 275.529 -5.27485 1.62675 0
M  V30 2743 H 276.006 -4.38828 0.18065 0
M  V30 2744 H 276.612 -3.86735 1.76964 0
M  V30 2745 N 274.927 -0.932562 -1.27047 0
M  V30 2746 C 276.204 -0.49377 -1.89265 0
M  V30 2747 C 276.584 1.02833 -1.8436 0
M  V30 2748 O 275.932 1.88461 -1.29209 0
M  V30 2749 C 276.142 -1.04536 -3.32976 0
M  V30 2750 C 277.49 -1.10879 -4.09867 0
M  V30 2751 O 278.514 -0.995327 -3.42011 0
M  V30 2752 O 277.373 -1.28417 -5.31198 0
M  V30 2753 H 274.467 -0.159596 -0.811454 0
M  V30 2754 H 277.013 -1.02457 -1.3528 0
M  V30 2755 H 275.785 -2.08913 -3.30864 0
M  V30 2756 H 275.408 -0.496494 -3.94488 0
M  V30 2757 N 276.405 1.4127 -0.698611 0
M  V30 2758 C 277.337 2.292 0.00399731 0
M  V30 2759 C 278.35 1.44944 0.741279 0
M  V30 2760 O 279.539 1.68416 0.591477 0
M  V30 2761 C 276.639 3.22875 1.02979 0
M  V30 2762 C 275.812 4.35904 0.36151 0
M  V30 2763 C 274.871 5.10134 1.29033 0
M  V30 2764 O 273.897 5.63809 0.781562 0
M  V30 2765 N 275.099 5.17885 2.6225 0
M  V30 2766 H 277.864 2.9014 -0.750921 0
M  V30 2767 H 275.425 1.52455 -0.544882 0
M  V30 2768 H 277.417 3.69404 1.65296 0
M  V30 2769 H 275.987 2.63221 1.68622 0
M  V30 2770 H 275.207 3.91719 -0.441584 0
M  V30 2771 H 276.495 5.08696 -0.103055 0
M  V30 2772 H 275.893 4.7573 3.061 0
M  V30 2773 H 274.45 5.6798 3.19754 0
M  V30 2774 N 277.883 0.443576 1.51229 0
M  V30 2775 C 279.108 -0.121648 2.07043 0
M  V30 2776 C 279.533 -1.35156 1.30823 0
M  V30 2777 O 278.891 -1.7793 0.347934 0
M  V30 2778 C 278.939 -0.41624 3.5819 0
M  V30 2779 O 278.043 -1.50163 3.8409 0
M  V30 2780 H 277.384 0.000871367 0.663999 0
M  V30 2781 H 279.914 0.626706 1.94765 0
M  V30 2782 H 279.924 -0.664867 4.02546 0
M  V30 2783 H 278.599 0.482653 4.1309 0
M  V30 2784 H 277.176 -1.24248 3.51592 0
M  V30 2785 N 279.361 -1.56624 0.175154 0
M  V30 2786 C 280.589 -2.01374 -0.474971 0
M  V30 2787 C 281.004 -1.05537 -1.56548 0
M  V30 2788 O 280.361 -0.0568668 -1.82411 0
M  V30 2789 C 280.412 -3.45923 -1.04975 0
M  V30 2790 O 280.133 -4.381 -0.00276605 0
M  V30 2791 C 281.634 -4.06093 -1.77773 0
M  V30 2792 H 278.854 -0.659962 -0.121206 0
M  V30 2793 H 281.398 -2.02601 0.27801 0
M  V30 2794 H 279.553 -3.45458 -1.75321 0
M  V30 2795 H 279.967 -5.22753 -0.427681 0
M  V30 2796 H 281.441 -5.09147 -2.13245 0
M  V30 2797 H 281.918 -3.48405 -2.67414 0
M  V30 2798 H 282.524 -4.10272 -1.12059 0
M  V30 2799 N 280.839 0.0985539 -1.57292 0
M  V30 2800 C 282.086 0.802678 -1.85912 0
M  V30 2801 C 282.414 1.78901 -0.763186 0
M  V30 2802 O 281.669 1.94178 0.243559 0
M  V30 2803 C 281.968 1.56927 -3.21105 0
M  V30 2804 C 281.634 0.725376 -4.45027 0
M  V30 2805 C 280.296 0.492726 -4.78671 0
M  V30 2806 C 282.648 0.138493 -5.21016 0
M  V30 2807 C 279.976 -0.336727 -5.85733 0
M  V30 2808 C 282.328 -0.678264 -6.28953 0
M  V30 2809 C 280.992 -0.921039 -6.61115 0
M  V30 2810 H 280.262 0.293721 -0.680301 0
M  V30 2811 H 282.909 0.0642841 -1.91392 0
M  V30 2812 H 281.214 2.37914 -3.11294 0
M  V30 2813 H 282.911 2.11841 -3.40477 0
M  V30 2814 H 279.501 0.916815 -4.18679 0
M  V30 2815 H 283.685 0.305404 -4.95359 0
M  V30 2816 H 278.941 -0.533836 -6.09065 0
M  V30 2817 H 283.115 -1.1399 -6.87007 0
M  V30 2818 H 280.742 -1.56556 -7.43905 0
M  V30 2819 N 282.317 1.53212 0.369288 0
M  V30 2820 C 283.594 1.59815 1.12776 0
M  V30 2821 C 283.974 0.403402 2.0721 0
M  V30 2822 O 283.322 -0.606667 2.20299 0
M  V30 2823 C 283.532 2.94664 1.87013 0
M  V30 2824 C 284.88 3.49109 2.41677 0
M  V30 2825 O 285.904 2.96669 1.97144 0
M  V30 2826 O 284.763 4.40775 3.23079 0
M  V30 2827 H 281.857 0.645376 0.517125 0
M  V30 2828 H 284.403 1.65553 0.37285 0
M  V30 2829 H 283.175 3.73061 1.18071 0
M  V30 2830 H 282.798 2.92401 2.69421 0
M  V30 2831 N 283.795 -0.628877 1.44509 0
M  V30 2832 C 285.044 -1.38437 1.4669 0
M  V30 2833 C 285.357 -1.95322 0.104272 0
M  V30 2834 O 286.563 -2.715 0.00362163 0
M  V30 2835 C 285.019 -2.50659 2.5826 0
M  V30 2836 C 284.627 -2.00277 4.0074 0
M  V30 2837 C 286.371 -3.27844 2.69664 0
M  V30 2838 C 284.278 -3.09854 5.0373 0
M  V30 2839 H 283.208 -0.520245 0.545766 0
M  V30 2840 H 285.859 -0.676313 1.70582 0
M  V30 2841 H 284.241 -3.2405 2.27612 0
M  V30 2842 H 285.415 -1.33736 4.40966 0
M  V30 2843 H 283.73 -1.35901 3.93599 0
M  V30 2844 H 286.327 -4.09534 3.43781 0
M  V30 2845 H 286.67 -3.77471 1.75559 0
M  V30 2846 H 287.203 -2.61543 2.99733 0
M  V30 2847 H 283.942 -2.65168 5.99472 0
M  V30 2848 H 283.462 -3.7503 4.68095 0
M  V30 2849 H 285.141 -3.74592 5.27532 0
M  V30 2850 N 285.273 -1.31445 -0.869486 0
M  V30 2851 C 286.203 -1.21727 -1.99261 0
M  V30 2852 C 287.184 -0.104359 -1.6978 0
M  V30 2853 O 288.369 -0.289038 -1.92037 0
M  V30 2854 C 285.499 -0.924317 -3.34774 0
M  V30 2855 C 284.453 -1.99685 -3.78563 0
M  V30 2856 C 283.779 -1.55658 -5.11541 0
M  V30 2857 C 285.079 -3.41003 -3.95619 0
M  V30 2858 H 286.773 -2.1569 -2.07649 0
M  V30 2859 H 284.319 -1.03839 -0.997675 0
M  V30 2860 H 286.272 -0.842934 -4.12883 0
M  V30 2861 H 284.996 0.0509793 -3.2656 0
M  V30 2862 H 283.655 -2.06813 -3.02694 0
M  V30 2863 H 283.303 -0.569132 -4.9977 0
M  V30 2864 H 283.003 -2.27409 -5.41811 0
M  V30 2865 H 284.527 -1.48928 -5.92159 0
M  V30 2866 H 285.941 -3.36547 -4.64122 0
M  V30 2867 H 284.338 -4.10975 -4.37286 0
M  V30 2868 H 285.408 -3.81754 -2.98985 0
M  V30 2869 N 286.751 1.08385 -1.14413 0
M  V30 2870 C 287.683 2.1519 -0.789036 0
M  V30 2871 C 288.696 1.61638 0.19417 0
M  V30 2872 O 289.885 1.78479 -0.0275711 0
M  V30 2873 C 286.985 3.38565 -0.15058 0
M  V30 2874 C 286.158 4.21501 -1.16857 0
M  V30 2875 C 285.217 5.23277 -0.553832 0
M  V30 2876 O 284.243 5.56041 -1.21686 0
M  V30 2877 N 285.445 5.76629 0.669296 0
M  V30 2878 H 288.21 2.46257 -1.70814 0
M  V30 2879 H 285.771 1.24198 -1.03858 0
M  V30 2880 H 287.763 4.03777 0.273181 0
M  V30 2881 H 286.333 3.05299 0.671667 0
M  V30 2882 H 285.553 3.52265 -1.76926 0
M  V30 2883 H 286.841 4.73731 -1.85624 0
M  V30 2884 H 286.239 5.52243 1.22654 0
M  V30 2885 H 284.796 6.43521 1.03556 0
M  V30 2886 N 288.23 0.939286 1.26551 0
M  V30 2887 C 289.507 0.5038 1.89001 0
M  V30 2888 C 289.887 -1.01854 1.84903 0
M  V30 2889 O 289.235 -1.87773 1.30206 0
M  V30 2890 C 289.445 1.063 3.32417 0
M  V30 2891 C 290.793 1.13051 4.09273 0
M  V30 2892 O 291.817 1.01345 3.41479 0
M  V30 2893 O 290.676 1.31233 5.30509 0
M  V30 2894 H 287.77 0.163897 0.810597 0
M  V30 2895 H 290.316 1.03173 1.34735 0
M  V30 2896 H 289.088 2.10665 3.29752 0
M  V30 2897 H 288.711 0.517408 3.94219 0
M  V30 2898 N 289.708 -1.40897 0.706093 0
M  V30 2899 C 290.638 -2.33418 0.0620085 0
M  V30 2900 C 291.619 -1.52385 -0.755827 0
M  V30 2901 O 292.804 -1.80886 -0.706674 0
M  V30 2902 C 289.934 -3.36293 -0.867445 0
M  V30 2903 C 288.888 -4.27716 -0.155932 0
M  V30 2904 C 288.214 -5.2105 -1.20046 0
M  V30 2905 C 289.514 -5.12944 0.984149 0
M  V30 2906 H 291.208 -2.87527 0.83477 0
M  V30 2907 H 288.754 -1.38249 0.402875 0
M  V30 2908 H 290.707 -3.99949 -1.32735 0
M  V30 2909 H 289.431 -2.80556 -1.67199 0
M  V30 2910 H 288.09 -3.65498 0.284047 0
M  V30 2911 H 287.738 -4.61624 -1.99781 0
M  V30 2912 H 287.438 -5.83056 -0.729328 0
M  V30 2913 H 288.962 -5.87584 -1.66066 0
M  V30 2914 H 290.376 -5.70109 0.604048 0
M  V30 2915 H 288.773 -5.83945 1.38304 0
M  V30 2916 H 289.843 -4.49485 1.81911 0
M  V30 2917 N 291.186 -0.45159 -1.50991 0
M  V30 2918 C 292.096 0.358431 -2.31846 0
M  V30 2919 C 293.112 1.01438 -1.41373 0
M  V30 2920 O 294.288 1.00663 -1.74439 0
M  V30 2921 C 291.353 1.43704 -3.15515 0
M  V30 2922 C 290.414 0.799742 -4.21785 0
M  V30 2923 C 289.647 1.82696 -5.01456 0
M  V30 2924 O 289.87 3.05105 -4.81941 0
M  V30 2925 O 288.804 1.40958 -5.85162 0
M  V30 2926 H 292.63 -0.302032 -3.02194 0
M  V30 2927 H 290.215 -0.213825 -1.47862 0
M  V30 2928 H 292.097 2.06227 -3.67489 0
M  V30 2929 H 290.772 2.08133 -2.47916 0
M  V30 2930 H 289.679 0.136084 -3.73852 0
M  V30 2931 H 291.012 0.198718 -4.91799 0
M  V30 2932 N 292.664 1.56529 -0.183458 0
M  V30 2933 C 293.911 1.97244 0.458357 0
M  V30 2934 C 294.239 1.06992 1.62428 0
M  V30 2935 O 293.494 0.106542 1.9541 0
M  V30 2936 C 293.793 3.43939 0.971637 0
M  V30 2937 C 293.459 4.5083 -0.0796784 0
M  V30 2938 C 292.121 4.79786 -0.368584 0
M  V30 2939 C 294.473 5.15138 -0.792638 0
M  V30 2940 C 291.801 5.70345 -1.37563 0
M  V30 2941 C 294.153 6.06784 -1.78875 0
M  V30 2942 C 292.817 6.34102 -2.08497 0
M  V30 2943 H 292.087 0.721768 0.167725 0
M  V30 2944 H 294.734 1.89472 -0.277976 0
M  V30 2945 H 293.039 3.48724 1.78602 0
M  V30 2946 H 294.736 3.72791 1.47744 0
M  V30 2947 H 291.326 4.28317 0.155668 0
M  V30 2948 H 295.51 4.92868 -0.582659 0
M  V30 2949 H 290.766 5.89789 -1.61118 0
M  V30 2950 H 294.94 6.55677 -2.3465 0
M  V30 2951 H 292.567 7.04074 -2.86678 0
M  V30 2952 N 294.142 -0.090211 1.57342 0
M  V30 2953 C 295.367 -0.810082 1.90925 0
M  V30 2954 C 295.792 -1.71248 0.778187 0
M  V30 2955 O 295.15 -1.79278 -0.269991 0
M  V30 2956 C 295.198 -1.59529 3.23393 0
M  V30 2957 O 294.302 -2.70461 3.11327 0
M  V30 2958 H 293.643 -0.222231 0.625707 0
M  V30 2959 H 296.173 -0.0639716 2.045 0
M  V30 2960 H 296.183 -1.97847 3.5682 0
M  V30 2961 H 294.858 -0.933055 4.05299 0
M  V30 2962 H 293.435 -2.35135 2.89423 0
M  V30 2963 N 295.62 -1.53406 -0.361157 0
M  V30 2964 C 296.845 -1.74024 -1.12829 0
M  V30 2965 C 297.27 -0.470069 -1.82132 0
M  V30 2966 O 296.628 0.57619 -1.719 0
M  V30 2967 C 296.676 -2.90903 -2.13091 0
M  V30 2968 O 295.78 -2.59821 -3.20261 0
M  V30 2969 H 295.121 -0.577804 -0.327168 0
M  V30 2970 H 297.651 -2.00307 -0.41693 0
M  V30 2971 H 297.661 -3.17194 -2.56616 0
M  V30 2972 H 296.336 -3.83034 -1.62042 0
M  V30 2973 H 294.913 -2.44362 -2.81677 0
M  V30 2974 N 297.098 0.621204 -1.44841 0
M  V30 2975 C 298.346 1.37783 -1.47852 0
M  V30 2976 C 298.667 1.94653 -0.116224 0
M  V30 2977 O 297.937 1.76367 0.852737 0
M  V30 2978 H 296.517 0.511453 -0.544449 0
M  V30 2979 H 299.179 0.730446 -1.80694 0
M  V30 2980 H 298.275 2.20414 -2.20961 0
M  V30 2981 N 298.576 1.31904 0.862503 0
M  V30 2982 C 299.801 1.25135 1.65397 0
M  V30 2983 C 300.226 -0.179 1.87246 0
M  V30 2984 O 299.584 -1.1277 1.4196 0
M  V30 2985 C 299.632 2.00832 2.99498 0
M  V30 2986 O 298.736 1.35075 3.89652 0
M  V30 2987 H 298.077 0.431655 0.504549 0
M  V30 2988 H 300.607 1.74094 1.07483 0
M  V30 2989 H 300.617 2.10709 3.49379 0
M  V30 2990 H 299.292 3.04847 2.82916 0
M  V30 2991 H 297.869 1.33696 3.48109 0
M  V30 2992 N 300.054 -1.07777 1.14986 0
M  V30 2993 C 301.465 -1.61766 0.932127 0
M  V30 2994 C 301.816 -1.88974 -0.527581 0
M  V30 2995 O 300.941 -1.65198 -1.39781 0
M  V30 2996 C 301.536 -2.93891 1.68563 0
M  V30 2997 C 300.095 -3.44639 1.5133 0
M  V30 2998 C 299.242 -2.18767 1.704 0
M  V30 2999 H 302.193 -0.909201 1.30074 0
M  V30 3000 H 302.214 -3.62623 1.15259 0
M  V30 3001 H 301.726 -2.74057 2.74799 0
M  V30 3002 H 299.827 -3.69564 0.474702 0
M  V30 3003 H 299.94 -4.20966 2.28746 0
M  V30 3004 H 298.304 -2.28253 1.13016 0
M  V30 3005 H 299.087 -2.01433 2.77992 0
M  V30 3006 N 301.532 -0.945985 -1.26051 0
M  V30 3007 C 302.78 -0.594941 -1.93145 0
M  V30 3008 C 303.101 0.86953 -1.7454 0
M  V30 3009 O 302.371 1.61838 -1.10387 0
M  V30 3010 H 300.951 -0.217044 -0.714773 0
M  V30 3011 H 303.613 -1.20235 -1.53393 0
M  V30 3012 H 302.709 -0.816835 -3.01221 0
M  V30 3013 N 303.011 1.40521 -0.713556 0
M  V30 3014 C 303.958 2.30723 -0.059684 0
M  V30 3015 C 304.928 1.48079 0.752448 0
M  V30 3016 O 306.113 1.76823 0.71681 0
M  V30 3017 C 303.253 3.34274 0.857594 0
M  V30 3018 C 302.366 4.31986 0.0351536 0
M  V30 3019 C 301.501 5.22605 0.951724 0
M  V30 3020 C 300.54 6.11976 0.123253 0
M  V30 3021 N 299.677 6.9502 0.99459 0
M  V30 3022 H 304.517 2.86074 -0.834596 0
M  V30 3023 H 302.054 1.40879 -0.42326 0
M  V30 3024 H 304.012 3.92879 1.40364 0
M  V30 3025 H 302.642 2.8043 1.59871 0
M  V30 3026 H 301.694 3.7518 -0.628052 0
M  V30 3027 H 303.006 4.95101 -0.606347 0
M  V30 3028 H 302.16 5.86131 1.56638 0
M  V30 3029 H 300.899 4.59759 1.62705 0
M  V30 3030 H 299.904 5.47482 -0.50435 0
M  V30 3031 H 301.129 6.76881 -0.548539 0
M  V30 3032 H 299.075 6.34764 1.6556 0
M  V30 3033 H 298.992 7.54892 0.40908 0
M  V30 3034 H 300.26 7.62997 1.59549 0
M  V30 3035 N 304.489 0.459591 1.5075 0
M  V30 3036 C 305.399 -0.34613 2.32033 0
M  V30 3037 C 306.415 -1.00686 1.41909 0
M  V30 3038 O 307.591 -0.997361 1.7497 0
M  V30 3039 C 304.656 -1.42029 3.16273 0
M  V30 3040 C 303.717 -0.777362 4.22203 0
M  V30 3041 C 302.95 -1.80034 5.02418 0
M  V30 3042 O 303.173 -3.02544 4.83553 0
M  V30 3043 O 302.107 -1.37853 5.85901 0
M  V30 3044 H 305.933 0.318054 3.0203 0
M  V30 3045 H 303.518 0.221663 1.47746 0
M  V30 3046 H 305.4 -2.04275 3.68578 0
M  V30 3047 H 304.075 -2.06815 2.49016 0
M  V30 3048 H 302.982 -0.116256 3.73919 0
M  V30 3049 H 304.315 -0.172634 4.91897 0
M  V30 3050 N 305.967 -1.56429 0.191757 0
M  V30 3051 C 307.195 -2.01867 -0.453586 0
M  V30 3052 C 307.61 -1.07191 -1.5542 0
M  V30 3053 O 306.967 -0.0762108 -1.82341 0
M  V30 3054 C 307.018 -3.47017 -1.013 0
M  V30 3055 O 306.739 -4.38078 0.0437005 0
M  V30 3056 C 308.24 -4.07956 -1.73456 0
M  V30 3057 H 305.46 -0.661211 -0.114199 0
M  V30 3058 H 308.004 -2.02295 0.299483 0
M  V30 3059 H 306.159 -3.47298 -1.71647 0
M  V30 3060 H 306.573 -5.23178 -0.372212 0
M  V30 3061 H 308.047 -5.1138 -2.07833 0
M  V30 3062 H 308.524 -3.51222 -2.63704 0
M  V30 3063 H 309.13 -4.11437 -1.07702 0
M  V30 3064 N 307.445 0.0818655 -1.57387 0
M  V30 3065 C 308.393 1.11712 -2.04018 0
M  V30 3066 C 309.387 1.40683 -0.94364 0
M  V30 3067 O 310.593 1.40209 -1.12878 0
M  V30 3068 H 306.968 0.377542 -0.650358 0
M  V30 3069 H 308.939 0.697614 -2.90131 0
M  V30 3070 C 307.688 2.42537 -2.49141 0
M  V30 3071 H 307.011 2.21092 -3.33104 0
M  V30 3072 H 308.451 3.13446 -2.85531 0
M  V30 3073 C 306.91 3.0778 -1.37014 0
M  V30 3074 O 307.44 3.95436 -0.706621 0
M  V30 3075 N 305.646 2.68242 -1.11779 0
M  V30 3076 H 305.193 1.97052 -1.65917 0
M  V30 3077 H 305.151 3.1222 -0.369594 0
M  V30 3078 N 308.923 1.53595 0.353017 0
M  V30 3079 C 309.833 1.83897 1.45667 0
M  V30 3080 C 310.849 0.728334 1.58023 0
M  V30 3081 O 312.025 1.01968 1.73679 0
M  V30 3082 C 309.09 2.03383 2.80778 0
M  V30 3083 C 308.151 3.27262 2.77845 0
M  V30 3084 C 307.384 3.45809 4.06512 0
M  V30 3085 O 307.607 2.68387 5.03314 0
M  V30 3086 O 306.541 4.39207 4.11559 0
M  V30 3087 H 310.367 2.77686 1.2298 0
M  V30 3088 H 307.952 1.39132 0.544308 0
M  V30 3089 H 309.834 2.17698 3.60812 0
M  V30 3090 H 308.509 1.12783 3.03417 0
M  V30 3091 H 307.416 3.18359 1.96465 0
M  V30 3092 H 308.749 4.17824 2.60161 0
M  V30 3093 N 310.401 -0.613514 1.45168 0
M  V30 3094 C 311.626 -1.40437 1.52618 0
M  V30 3095 C 312.051 -1.87438 0.157707 0
M  V30 3096 O 311.409 -1.59791 -0.856537 0
M  V30 3097 C 311.457 -2.58894 2.51011 0
M  V30 3098 O 310.561 -3.59326 2.02382 0
M  V30 3099 H 309.902 -0.419506 0.514695 0
M  V30 3100 H 312.432 -0.747215 1.90467 0
M  V30 3101 H 312.442 -3.06214 2.69624 0
M  V30 3102 H 311.117 -2.24032 3.50403 0
M  V30 3103 H 309.694 -3.18695 1.93618 0
M  V30 3104 N 311.879 -1.3236 -0.855495 0
M  V30 3105 C 313.29 -1.2056 -1.42556 0
M  V30 3106 C 313.641 0.182209 -1.95352 0
M  V30 3107 O 312.766 1.08088 -1.87472 0
M  V30 3108 C 313.361 -2.1826 -2.59129 0
M  V30 3109 C 311.92 -2.10351 -3.12137 0
M  V30 3110 C 311.067 -2.06674 -1.84882 0
M  V30 3111 H 314.018 -1.442 -0.662727 0
M  V30 3112 H 314.039 -1.78064 -3.36264 0
M  V30 3113 H 313.551 -3.19257 -2.20673 0
M  V30 3114 H 311.652 -1.12599 -3.55179 0
M  V30 3115 H 311.765 -3.00135 -3.73438 0
M  V30 3116 H 310.129 -1.51901 -2.04446 0
M  V30 3117 H 310.912 -3.09451 -1.48643 0
M  V30 3118 N 313.357 1.07166 -1.15556 0
M  V30 3119 C 314.603 1.80222 -0.942961 0
M  V30 3120 C 314.958 1.85121 0.524209 0
M  V30 3121 O 314.251 1.32531 1.38369 0
M  V30 3122 C 314.445 3.24707 -1.49332 0
M  V30 3123 C 314.274 3.33887 -3.01247 0
M  V30 3124 C 313.044 3.44337 -3.69811 0
M  V30 3125 C 315.242 3.24484 -3.99017 0
M  V30 3126 N 313.224 3.42439 -5.09518 0
M  V30 3127 C 314.595 3.29726 -5.25053 0
M  V30 3128 C 316.65 3.08307 -3.90962 0
M  V30 3129 C 315.353 3.20455 -6.43973 0
M  V30 3130 C 317.379 3.00371 -5.09442 0
M  V30 3131 C 316.741 3.06227 -6.34354 0
M  V30 3132 H 312.84 0.672709 -0.398731 0
M  V30 3133 H 315.424 1.27905 -1.46794 0
M  V30 3134 H 313.595 3.7544 -0.994946 0
M  V30 3135 H 315.327 3.85894 -1.21935 0
M  V30 3136 H 312.082 3.48762 -3.20409 0
M  V30 3137 H 312.506 3.45013 -5.8249 0
M  V30 3138 H 317.148 3.02633 -2.95251 0
M  V30 3139 H 314.866 3.24888 -7.39914 0
M  V30 3140 H 318.452 2.88955 -5.04971 0
M  V30 3141 H 317.332 3.00132 -7.24493 0
M  V30 3142 N 314.835 0.952656 1.25548 0
M  V30 3143 C 316.251 0.656769 1.4546 0
M  V30 3144 C 316.451 -0.78633 1.85524 0
M  V30 3145 O 315.507 -1.56183 1.98402 0
M  V30 3146 C 316.82 1.62801 2.52817 0
M  V30 3147 C 318.368 1.63897 2.66659 0
M  V30 3148 C 318.843 2.5978 3.77198 0
M  V30 3149 N 320.334 2.58133 3.84606 0
M  V30 3150 C 321.069 3.29003 4.69621 0
M  V30 3151 N 320.565 4.09339 5.58939 0
M  V30 3152 N 322.358 3.179 4.63569 0
M  V30 3153 H 314.509 1.88526 0.978344 0
M  V30 3154 H 316.772 0.810815 0.491206 0
M  V30 3155 H 316.478 2.65869 2.30232 0
M  V30 3156 H 316.352 1.38898 3.50695 0
M  V30 3157 H 318.739 0.615481 2.8861 0
M  V30 3158 H 318.82 1.91858 1.69187 0
M  V30 3159 H 318.464 3.62254 3.55997 0
M  V30 3160 H 318.394 2.29105 4.7415 0
M  V30 3161 H 320.885 1.99809 3.20757 0
M  V30 3162 H 321.198 4.6034 6.20731 0
M  V30 3163 H 319.543 4.13438 5.58654 0
M  V30 3164 H 322.734 2.54612 3.92798 0
M  V30 3165 H 322.907 3.73398 5.29602 0
M  V30 3166 N 316.313 -1.40141 0.720998 0
M  V30 3167 C 317.538 -2.05618 0.271258 0
M  V30 3168 C 317.963 -1.53978 -1.08039 0
M  V30 3169 O 317.321 -0.677463 -1.68167 0
M  V30 3170 C 317.369 -3.59609 0.267197 0
M  V30 3171 O 316.473 -4.05526 -0.749814 0
M  V30 3172 H 315.814 -0.651904 0.126162 0
M  V30 3173 H 318.344 -1.79439 0.982997 0
M  V30 3174 H 318.354 -4.0786 0.106744 0
M  V30 3175 H 317.029 -3.96559 1.25354 0
M  V30 3176 H 315.606 -3.68722 -0.556644 0
M  V30 3177 N 317.792 -0.46758 -1.50504 0
M  V30 3178 C 319.069 0.15003 -1.95024 0
M  V30 3179 C 319.449 1.57304 -1.40779 0
M  V30 3180 O 318.797 2.20281 -0.607319 0
M  V30 3181 C 319.007 0.0969324 -3.48865 0
M  V30 3182 C 320.355 0.287565 -4.23625 0
M  V30 3183 O 321.379 0.173678 -3.55776 0
M  V30 3184 O 320.238 0.517186 -5.44047 0
M  V30 3185 H 317.332 0.113582 -0.819163 0
M  V30 3186 H 319.878 -0.52773 -1.61286 0
M  V30 3187 H 318.65 -0.896732 -3.80886 0
M  V30 3188 H 318.273 0.816303 -3.8913 0
M  V30 3189 N 319.27 1.56325 -0.20005 0
M  V30 3190 C 320.2 2.22318 0.713916 0
M  V30 3191 C 321.181 1.18788 1.21752 0
M  V30 3192 O 322.366 1.47309 1.26545 0
M  V30 3193 C 319.496 2.88639 1.93144 0
M  V30 3194 C 318.45 3.98457 1.56255 0
M  V30 3195 C 317.776 4.51967 2.85709 0
M  V30 3196 C 319.076 5.16612 0.768747 0
M  V30 3197 H 320.77 2.98952 0.163755 0
M  V30 3198 H 318.316 1.43792 0.0773219 0
M  V30 3199 H 320.269 3.33491 2.57608 0
M  V30 3200 H 318.993 2.09419 2.50621 0
M  V30 3201 H 317.652 3.54305 0.941471 0
M  V30 3202 H 317.3 3.69503 3.41287 0
M  V30 3203 H 317 5.26071 2.6177 0
M  V30 3204 H 318.524 4.99523 3.51154 0
M  V30 3205 H 319.938 5.57977 1.3166 0
M  V30 3206 H 318.335 5.96812 0.627286 0
M  V30 3207 H 319.405 4.84358 -0.229168 0
M  V30 3208 N 320.748 -0.0735177 1.57428 0
M  V30 3209 C 321.678 -1.0879 2.06608 0
M  V30 3210 C 322.659 -1.40473 0.959237 0
M  V30 3211 O 323.844 -1.5013 1.23185 0
M  V30 3212 C 320.974 -2.40183 2.50857 0
M  V30 3213 C 319.928 -2.22858 3.65402 0
M  V30 3214 C 319.254 -3.59619 3.957 0
M  V30 3215 C 320.554 -1.65123 4.95511 0
M  V30 3216 H 322.248 -0.678673 2.91607 0
M  V30 3217 H 319.794 -0.325013 1.40284 0
M  V30 3218 H 321.747 -3.11437 2.83874 0
M  V30 3219 H 320.471 -2.83083 1.62885 0
M  V30 3220 H 319.13 -1.54045 3.32664 0
M  V30 3221 H 318.778 -4.00086 3.04861 0
M  V30 3222 H 318.478 -3.48866 4.72828 0
M  V30 3223 H 320.002 -4.32306 4.31212 0
M  V30 3224 H 321.416 -2.26241 5.26771 0
M  V30 3225 H 319.813 -1.65071 5.7695 0
M  V30 3226 H 320.883 -0.612559 4.81015 0
M  V30 3227 N 322.226 -1.5378 -0.344866 0
M  V30 3228 C 323.475 -1.7018 -1.08267 0
M  V30 3229 C 323.788 -0.471 -1.89845 0
M  V30 3230 O 324.994 -0.515917 -2.66553 0
M  V30 3231 C 323.45 -3.00923 -1.97417 0
M  V30 3232 C 323.058 -4.31335 -1.21053 0
M  V30 3233 C 324.802 -3.26688 -2.71063 0
M  V30 3234 C 322.709 -5.53153 -2.09225 0
M  V30 3235 H 321.639 -0.634138 -0.407903 0
M  V30 3236 H 324.29 -1.8028 -0.342246 0
M  V30 3237 H 322.672 -2.84676 -2.75274 0
M  V30 3238 H 323.846 -4.58281 -0.481159 0
M  V30 3239 H 322.161 -4.12173 -0.591813 0
M  V30 3240 H 324.758 -4.1489 -3.37299 0
M  V30 3241 H 325.101 -2.43639 -3.37558 0
M  V30 3242 H 325.634 -3.43705 -2.0028 0
M  V30 3243 H 322.373 -6.38741 -1.47274 0
M  V30 3244 H 321.893 -5.30458 -2.79955 0
M  V30 3245 H 323.572 -5.88744 -2.68308 0
M  V30 3246 N 323.704 0.605807 -1.45491 0
M  V30 3247 C 324.981 1.36522 -1.40075 0
M  V30 3248 C 325.361 2.10976 -0.0722744 0
M  V30 3249 O 324.709 2.08007 0.945808 0
M  V30 3250 C 324.919 2.31056 -2.61561 0
M  V30 3251 C 326.267 2.93608 -3.06724 0
M  V30 3252 O 327.291 2.41376 -2.61946 0
M  V30 3253 O 326.15 3.88421 -3.84437 0
M  V30 3254 H 323.244 0.612248 -0.555951 0
M  V30 3255 H 325.79 0.628747 -1.57623 0
M  V30 3256 H 324.562 1.75311 -3.49831 0
M  V30 3257 H 324.185 3.12081 -2.46356 0
M  V30 3258 N 325.182 1.32811 0.848464 0
M  V30 3259 C 326.092 1.24278 1.98978 0
M  V30 3260 C 327.108 0.155176 1.73307 0
M  V30 3261 O 328.284 0.376999 1.9784 0
M  V30 3262 C 325.349 0.972444 3.32783 0
M  V30 3263 C 324.41 2.14911 3.71634 0
M  V30 3264 C 323.643 1.89157 4.99054 0
M  V30 3265 O 323.866 0.837165 5.64223 0
M  V30 3266 O 322.8 2.75433 5.35183 0
M  V30 3267 H 326.626 2.20238 2.09115 0
M  V30 3268 H 324.211 1.12762 0.980052 0
M  V30 3269 H 326.093 0.838432 4.12975 0
M  V30 3270 H 324.768 0.043051 3.23671 0
M  V30 3271 H 323.675 2.33862 2.91992 0
M  V30 3272 H 325.008 3.06151 3.85399 0
M  V30 3273 N 326.66 -1.06551 1.16123 0
M  V30 3274 C 327.608 -2.16063 0.861371 0
M  V30 3275 C 328.602 -1.6856 -0.168517 0
M  V30 3276 O 329.808 -1.79986 -0.0227579 0
M  V30 3277 H 326.183 -0.705278 0.260934 0
M  V30 3278 H 328.154 -2.38567 1.79244 0
M  V30 3279 C 326.903 -3.45661 0.376018 0
M  V30 3280 H 326.226 -3.82604 1.15992 0
M  V30 3281 H 327.666 -4.23504 0.204951 0
M  V30 3282 C 326.125 -3.24546 -0.903954 0
M  V30 3283 O 326.655 -3.49865 -1.97377 0
M  V30 3284 N 324.861 -2.77992 -0.846679 0
M  V30 3285 H 324.408 -2.57589 0.0241017 0
M  V30 3286 H 324.366 -2.64244 -1.70359 0
M  V30 3287 N 328.138 -0.959301 -1.25041 0
M  V30 3288 C 329.378 -0.624343 -1.94631 0
M  V30 3289 C 329.742 0.82403 -1.73418 0
M  V30 3290 O 330.943 1.26881 -2.3697 0
M  V30 3291 C 329.214 -0.978805 -3.43736 0
M  V30 3292 S 330.773 -0.757127 -4.32219 0
M  V30 3293 H 327.591 -0.229327 -0.673001 0
M  V30 3294 H 330.193 -1.23447 -1.51595 0
M  V30 3295 H 328.897 -2.02997 -3.56679 0
M  V30 3296 H 328.428 -0.359117 -3.91757 0
M  V30 3297 H 330.443 0.369759 -4.9482 0
M  V30 3298 N 329.616 1.39756 -0.72842 0
M  V30 3299 C 330.546 2.33289 -0.0991354 0
M  V30 3300 C 331.527 1.53568 0.731489 0
M  V30 3301 O 332.712 1.81987 0.677807 0
M  V30 3302 C 329.842 3.3763 0.813834 0
M  V30 3303 C 328.796 4.2791 0.0878663 0
M  V30 3304 C 328.122 5.22894 1.11741 0
M  V30 3305 C 329.422 5.11314 -1.06563 0
M  V30 3306 H 331.116 2.86163 -0.880408 0
M  V30 3307 H 328.662 1.37591 -0.424819 0
M  V30 3308 H 330.615 4.0201 1.26355 0
M  V30 3309 H 329.339 2.83181 1.62715 0
M  V30 3310 H 327.998 3.65 -0.342159 0
M  V30 3311 H 327.646 4.64744 1.92412 0
M  V30 3312 H 327.346 5.84143 0.636477 0
M  V30 3313 H 328.87 5.90151 1.56697 0
M  V30 3314 H 330.284 5.69076 -0.694671 0
M  V30 3315 H 328.681 5.81671 -1.47577 0
M  V30 3316 H 329.751 4.46534 -1.89038 0
M  V30 3317 N 331.094 0.475555 1.50254 0
M  V30 3318 C 332.024 -0.30611 2.31485 0
M  V30 3319 C 333.005 -0.986228 1.38591 0
M  V30 3320 O 334.19 -0.982541 1.67511 0
M  V30 3321 C 331.32 -1.38588 3.1845 0
M  V30 3322 C 330.274 -0.827115 4.19932 0
M  V30 3323 C 329.6 -2.00551 4.95665 0
M  V30 3324 C 330.9 0.16463 5.2204 0
M  V30 3325 H 332.594 0.371866 2.97082 0
M  V30 3326 H 330.14 0.180282 1.42867 0
M  V30 3327 H 332.093 -1.94023 3.74076 0
M  V30 3328 H 330.817 -2.09269 2.50747 0
M  V30 3329 H 329.476 -0.294702 3.65414 0
M  V30 3330 H 329.124 -2.6994 4.2443 0
M  V30 3331 H 328.824 -1.63784 5.64313 0
M  V30 3332 H 330.348 -2.56468 5.54127 0
M  V30 3333 H 331.762 -0.300699 5.72511 0
M  V30 3334 H 330.159 0.446813 5.98434 0
M  V30 3335 H 331.229 1.08905 4.72512 0
M  V30 3336 N 332.573 -1.56217 0.208337 0
M  V30 3337 C 333.798 -2.02782 -0.435222 0
M  V30 3338 C 334.223 -1.08738 -1.53485 0
M  V30 3339 O 333.581 -0.0731855 -1.81152 0
M  V30 3340 C 333.629 -3.47687 -0.956335 0
M  V30 3341 O 332.733 -3.56773 -2.06849 0
M  V30 3342 H 332.074 -0.656403 -0.100158 0
M  V30 3343 H 334.604 -2.02033 0.3231 0
M  V30 3344 H 334.614 -3.87745 -1.26955 0
M  V30 3345 H 333.289 -4.15624 -0.15143 0
M  V30 3346 H 331.866 -3.28597 -1.76292 0
M  V30 3347 N 334.051 0.0651679 -1.57465 0
M  V30 3348 C 335.462 0.616213 -1.76238 0
M  V30 3349 C 335.813 1.7756 -0.834689 0
M  V30 3350 O 334.938 2.1639 -0.0204156 0
M  V30 3351 C 335.533 1.12462 -3.1959 0
M  V30 3352 C 334.092 1.62147 -3.39684 0
M  V30 3353 C 333.239 0.543739 -2.71917 0
M  V30 3354 H 336.19 -0.161022 -1.57881 0
M  V30 3355 H 336.211 1.99324 -3.24114 0
M  V30 3356 H 335.723 0.280592 -3.87084 0
M  V30 3357 H 333.824 2.48854 -2.77313 0
M  V30 3358 H 333.937 1.69385 -4.48158 0
M  V30 3359 H 332.301 0.990352 -2.34657 0
M  V30 3360 H 333.084 -0.290216 -3.42071 0
M  V30 3361 N 335.529 1.53961 0.336706 0
M  V30 3362 C 336.459 1.85417 1.41925 0
M  V30 3363 C 337.44 0.709856 1.5458 0
M  V30 3364 O 338.625 0.962396 1.68676 0
M  V30 3365 C 335.755 2.06985 2.78881 0
M  V30 3366 C 334.709 3.22813 2.81026 0
M  V30 3367 C 334.035 3.29727 4.20932 0
M  V30 3368 C 335.335 4.60767 2.45949 0
M  V30 3369 H 337.029 2.76079 1.15848 0
M  V30 3370 H 334.575 1.32839 0.555859 0
M  V30 3371 H 336.528 2.27575 3.54665 0
M  V30 3372 H 335.252 1.13061 3.06406 0
M  V30 3373 H 333.911 3.0209 2.07695 0
M  V30 3374 H 333.559 2.33385 4.45579 0
M  V30 3375 H 333.259 4.07566 4.23277 0
M  V30 3376 H 334.783 3.52536 4.98549 0
M  V30 3377 H 336.197 4.81325 3.11446 0
M  V30 3378 H 334.594 5.4106 2.59566 0
M  V30 3379 H 335.664 4.6391 1.41122 0
M  V30 3380 N 337.007 -0.598083 1.45811 0
M  V30 3381 C 337.97 -1.69018 1.54808 0
M  V30 3382 C 338.97 -1.55037 0.426652 0
M  V30 3383 O 340.16 -1.59932 0.690456 0
M  V30 3384 C 337.292 -3.0835 1.45371 0
M  V30 3385 H 338.485 -1.62403 2.52121 0
M  V30 3386 H 336.038 -0.814626 1.33392 0
M  V30 3387 H 336.773 -3.20534 0.492793 0
M  V30 3388 H 336.558 -3.19907 2.26721 0
M  V30 3389 H 338.048 -3.8788 1.54721 0
M  V30 3390 N 338.485 -1.33259 -0.841409 0
M  V30 3391 C 339.733 -1.24326 -1.59334 0
M  V30 3392 C 340.054 0.191564 -1.94057 0
M  V30 3393 O 339.324 1.11967 -1.60749 0
M  V30 3394 H 337.904 -0.457174 -0.590763 0
M  V30 3395 H 340.566 -1.66947 -1.00571 0
M  V30 3396 H 339.662 -1.8352 -2.52442 0
M  V30 3397 N 339.963 1.05934 -1.16686 0
M  V30 3398 C 340.873 2.17014 -0.891183 0
M  V30 3399 C 341.889 1.73453 0.137907 0
M  V30 3400 O 343.065 2.01361 -0.039592 0
M  V30 3401 C 340.13 3.44384 -0.400099 0
M  V30 3402 C 339.191 4.02433 -1.49486 0
M  V30 3403 C 338.424 5.23723 -1.02711 0
M  V30 3404 O 338.647 5.7027 0.121716 0
M  V30 3405 O 337.581 5.7382 -1.81699 0
M  V30 3406 H 341.407 2.43113 -1.82015 0
M  V30 3407 H 338.992 1.15541 -0.947132 0
M  V30 3408 H 340.874 4.21189 -0.133392 0
M  V30 3409 H 339.549 3.19802 0.500817 0
M  V30 3410 H 338.456 3.27102 -1.81535 0
M  V30 3411 H 339.789 4.31317 -2.37121 0
M  V30 3412 N 341.441 0.965919 1.2453 0
M  V30 3413 C 342.718 0.543777 1.87889 0
M  V30 3414 C 343.098 -0.97909 1.87021 0
M  V30 3415 O 342.446 -1.84969 1.3416 0
M  V30 3416 C 342.656 1.13327 3.30088 0
M  V30 3417 C 344.004 1.21707 4.06783 0
M  V30 3418 O 345.028 1.08566 3.39252 0
M  V30 3419 O 343.887 1.42456 5.27606 0
M  V30 3420 H 340.981 0.181054 0.806938 0
M  V30 3421 H 343.527 1.06007 1.32516 0
M  V30 3422 H 342.299 2.17612 3.25209 0
M  V30 3423 H 341.922 0.600911 3.93033 0
M  V30 3424 N 342.919 -1.39368 0.735821 0
M  V30 3425 C 344.196 -1.94465 0.210395 0
M  V30 3426 C 344.576 -1.67254 -1.28799 0
M  V30 3427 O 343.924 -1.00123 -2.05396 0
M  V30 3428 C 344.134 -3.4472 0.544897 0
M  V30 3429 C 345.482 -4.21708 0.494689 0
M  V30 3430 O 346.506 -3.52922 0.482136 0
M  V30 3431 O 345.365 -5.44299 0.489947 0
M  V30 3432 H 342.459 -0.826096 0.0386666 0
M  V30 3433 H 345.005 -1.48863 0.814735 0
M  V30 3434 H 343.777 -3.57963 1.58045 0
M  V30 3435 H 343.4 -3.97502 -0.08837 0
M  V30 3436 N 344.397 -0.483516 -1.5 0
M  V30 3437 C 345.622 0.0667119 -2.07293 0
M  V30 3438 C 346.047 1.3164 -1.3436 0
M  V30 3439 O 345.405 1.76945 -0.394987 0
M  V30 3440 C 345.453 0.321126 -3.59167 0
M  V30 3441 O 344.557 1.39927 -3.87936 0
M  V30 3442 H 343.898 -0.0184758 -0.663743 0
M  V30 3443 H 346.428 -0.678125 -1.93035 0
M  V30 3444 H 346.438 0.557906 -4.04168 0
M  V30 3445 H 345.113 -0.592007 -4.11665 0
M  V30 3446 H 343.69 1.14882 -3.54763 0
M  V30 3447 N 345.875 1.56104 -0.216619 0
M  V30 3448 C 347.122 1.98172 0.416416 0
M  V30 3449 C 347.45 1.10413 1.60122 0
M  V30 3450 O 346.705 0.147967 1.9514 0
M  V30 3451 C 347.004 3.45923 0.898464 0
M  V30 3452 C 346.67 4.50559 -0.175288 0
M  V30 3453 C 345.332 4.78897 -0.470271 0
M  V30 3454 C 347.684 5.1334 -0.901728 0
M  V30 3455 C 345.012 5.67299 -1.4963 0
M  V30 3456 C 347.364 6.02853 -1.91705 0
M  V30 3457 C 346.028 6.29537 -2.21901 0
M  V30 3458 H 345.298 0.725164 0.152377 0
M  V30 3459 H 347.945 1.88839 -0.318103 0
M  V30 3460 H 346.25 3.52434 1.71165 0
M  V30 3461 H 347.947 3.75841 1.39803 0
M  V30 3462 H 344.537 4.28551 0.0647806 0
M  V30 3463 H 348.721 4.91521 -0.687072 0
M  V30 3464 H 343.977 5.86239 -1.73592 0
M  V30 3465 H 348.151 6.50552 -2.48505 0
M  V30 3466 H 345.778 6.97835 -3.01548 0
M  V30 3467 N 347.353 -0.0568162 1.57498 0
M  V30 3468 C 348.283 -1.06593 2.0775 0
M  V30 3469 C 349.264 -1.39448 0.974082 0
M  V30 3470 O 350.449 -1.48815 1.24771 0
M  V30 3471 C 347.579 -2.37509 2.5339 0
M  V30 3472 C 346.533 -2.1897 3.67745 0
M  V30 3473 C 345.859 -3.55402 3.99492 0
M  V30 3474 C 347.159 -1.59859 4.97235 0
M  V30 3475 H 348.853 -0.647706 2.9231 0
M  V30 3476 H 346.399 -0.310116 1.40621 0
M  V30 3477 H 348.352 -3.08409 2.87162 0
M  V30 3478 H 347.076 -2.8134 1.65878 0
M  V30 3479 H 345.735 -1.50508 3.3428 0
M  V30 3480 H 345.383 -3.9683 3.09088 0
M  V30 3481 H 345.083 -3.43831 4.76502 0
M  V30 3482 H 346.607 -4.27708 4.35773 0
M  V30 3483 H 348.021 -2.20642 5.29141 0
M  V30 3484 H 346.418 -1.58942 5.78669 0
M  V30 3485 H 347.488 -0.561506 4.81638 0
M  V30 3486 N 348.832 -1.54138 -0.328536 0
M  V30 3487 C 349.762 -1.86167 -1.40939 0
M  V30 3488 C 350.743 -0.718044 -1.54202 0
M  V30 3489 O 351.928 -0.971328 -1.68163 0
M  V30 3490 C 349.058 -2.08461 -2.77779 0
M  V30 3491 C 348.012 -3.24299 -2.7931 0
M  V30 3492 C 347.338 -3.31955 -4.19178 0
M  V30 3493 C 348.638 -4.62065 -2.43502 0
M  V30 3494 H 350.332 -2.76689 -1.14383 0
M  V30 3495 H 347.878 -1.33132 -0.548806 0
M  V30 3496 H 349.831 -2.29453 -3.53454 0
M  V30 3497 H 348.555 -1.14684 -3.05802 0
M  V30 3498 H 347.214 -3.03187 -2.0609 0
M  V30 3499 H 346.862 -2.35745 -4.44335 0
M  V30 3500 H 346.562 -4.09805 -4.2111 0
M  V30 3501 H 348.086 -3.55175 -4.96672 0
M  V30 3502 H 349.5 -4.8297 -3.08889 0
M  V30 3503 H 347.897 -5.42429 -2.56693 0
M  V30 3504 H 348.967 -4.64652 -1.38659 0
M  V30 3505 N 350.31 0.590341 -1.46126 0
M  V30 3506 C 351.22 1.72793 -1.58681 0
M  V30 3507 C 352.236 1.67516 -0.470566 0
M  V30 3508 O 353.412 1.87562 -0.733642 0
M  V30 3509 C 350.477 3.09287 -1.5666 0
M  V30 3510 C 349.538 3.25886 -2.79458 0
M  V30 3511 C 348.771 4.55869 -2.77524 0
M  V30 3512 O 348.994 5.3928 -1.85832 0
M  V30 3513 O 347.928 4.75552 -3.68964 0
M  V30 3514 H 351.754 1.65149 -2.54872 0
M  V30 3515 H 349.339 0.756486 -1.28832 0
M  V30 3516 H 351.221 3.90577 -1.58202 0
M  V30 3517 H 349.896 3.17385 -0.636271 0
M  V30 3518 H 348.803 2.44119 -2.83472 0
M  V30 3519 H 350.136 3.22675 -3.71674 0
M  V30 3520 N 351.788 1.33704 0.83433 0
M  V30 3521 C 353.036 1.25169 1.58673 0
M  V30 3522 C 353.357 -0.18127 1.94156 0
M  V30 3523 O 352.627 -1.11113 1.6134 0
M  V30 3524 H 351.207 0.4603 0.58833 0
M  V30 3525 H 353.869 1.67478 0.996847 0
M  V30 3526 H 352.965 1.84856 2.51465 0
M  V30 3527 N 353.266 -1.05314 1.17247 0
M  V30 3528 C 354.214 -2.15137 0.884238 0
M  V30 3529 C 355.208 -1.68729 -0.15063 0
M  V30 3530 O 356.414 -1.8 -0.00366673 0
M  V30 3531 H 352.789 -0.702471 0.2684 0
M  V30 3532 H 354.76 -2.36652 1.81764 0
M  V30 3533 C 353.509 -3.45243 0.412659 0
M  V30 3534 H 352.832 -3.81352 1.20043 0
M  V30 3535 H 354.272 -4.23263 0.249858 0
M  V30 3536 C 352.731 -3.25487 -0.86948 0
M  V30 3537 O 353.261 -3.51938 -1.93655 0
M  V30 3538 N 351.467 -2.78875 -0.817147 0
M  V30 3539 H 351.014 -2.57549 0.0514211 0
M  V30 3540 H 350.972 -2.66036 -1.67547 0
M  V30 3541 N 354.744 -0.972509 -1.24016 0
M  V30 3542 C 355.969 -0.654417 -1.96805 0
M  V30 3543 C 356.394 0.770398 -1.716 0
M  V30 3544 O 355.752 1.52361 -0.982647 0
M  V30 3545 C 355.8 -0.941031 -3.48105 0
M  V30 3546 O 354.904 -0.0289472 -4.1239 0
M  V30 3547 H 354.245 -0.24692 -0.616382 0
M  V30 3548 H 356.775 -1.30396 -1.57664 0
M  V30 3549 H 356.785 -0.87452 -3.98517 0
M  V30 3550 H 355.46 -1.97939 -3.65777 0
M  V30 3551 H 354.037 -0.149192 -3.72601 0
M  V30 3552 N 356.222 1.38976 -0.743202 0
M  V30 3553 C 357.17 2.32394 -0.0978389 0
M  V30 3554 C 358.164 1.53486 0.716824 0
M  V30 3555 O 359.37 1.69092 0.617088 0
M  V30 3556 H 355.745 0.75189 -0.0128402 0
M  V30 3557 H 357.716 2.84441 -0.901981 0
M  V30 3558 C 356.465 3.38629 0.789036 0
M  V30 3559 H 355.788 3.99432 0.171559 0
M  V30 3560 H 357.228 4.06426 1.20807 0
M  V30 3561 C 355.687 2.76347 1.92702 0
M  V30 3562 O 356.217 2.64836 3.02034 0
M  V30 3563 N 354.423 2.34311 1.71891 0
M  V30 3564 H 353.97 2.43873 0.829675 0
M  V30 3565 H 353.928 1.9298 2.48205 0
M  V30 3566 N 357.7 0.491464 1.49741 0
M  V30 3567 C 358.61 -0.296835 2.32715 0
M  V30 3568 C 359.626 -0.976536 1.44013 0
M  V30 3569 O 360.802 -0.960023 1.77047 0
M  V30 3570 C 357.867 -1.35288 3.19215 0
M  V30 3571 C 356.928 -0.687632 4.23757 0
M  V30 3572 C 356.161 -1.69336 5.06123 0
M  V30 3573 O 356.384 -2.92219 4.89861 0
M  V30 3574 O 355.318 -1.25394 5.88693 0
M  V30 3575 H 359.144 0.382048 3.01287 0
M  V30 3576 H 356.729 0.252953 1.47243 0
M  V30 3577 H 358.611 -1.96411 3.72828 0
M  V30 3578 H 357.286 -2.01487 2.53347 0
M  V30 3579 H 356.193 -0.0369159 3.74082 0
M  V30 3580 H 357.526 -0.0682566 4.92153 0
M  V30 3581 N 359.178 -1.55987 0.224894 0
M  V30 3582 C 360.455 -1.90232 -0.455083 0
M  V30 3583 C 360.835 -1.14269 -1.77499 0
M  V30 3584 O 360.183 -0.253079 -2.27094 0
M  V30 3585 C 360.393 -3.42993 -0.644758 0
M  V30 3586 C 361.741 -4.13821 -0.950669 0
M  V30 3587 O 362.765 -3.4861 -0.731423 0
M  V30 3588 O 361.624 -5.29128 -1.36695 0
M  V30 3589 H 358.718 -0.79108 -0.241084 0
M  V30 3590 H 361.264 -1.67581 0.267327 0
M  V30 3591 H 360.036 -3.90252 0.28613 0
M  V30 3592 H 359.659 -3.71434 -1.41853 0
M  V30 3593 N 360.656 0.0484629 -1.57525 0
M  V30 3594 C 361.896 0.748196 -1.90214 0
M  V30 3595 C 362.26 1.73545 -0.821347 0
M  V30 3596 O 363.461 2.48201 -1.03198 0
M  V30 3597 C 361.732 1.41727 -3.28098 0
M  V30 3598 S 363.291 2.14884 -3.82584 0
M  V30 3599 H 360.109 0.248307 -0.666232 0
M  V30 3600 H 362.711 0.00343188 -1.955 0
M  V30 3601 H 361.415 0.685244 -4.04639 0
M  V30 3602 H 360.946 2.20099 -3.26068 0
M  V30 3603 H 362.961 3.41755 -3.59747 0
M  V30 3604 N 362.134 1.5431 0.320358 0
M  V30 3605 C 363.081 1.83918 1.39438 0
M  V30 3606 C 364.051 0.686525 1.51248 0
M  V30 3607 O 365.236 0.933269 1.66417 0
M  V30 3608 C 362.376 2.075 2.75749 0
M  V30 3609 C 361.489 3.35177 2.72544 0
M  V30 3610 C 360.624 3.48704 4.00723 0
M  V30 3611 C 359.663 4.70244 3.91838 0
M  V30 3612 N 358.8 4.80679 5.11754 0
M  V30 3613 H 363.64 2.75544 1.13489 0
M  V30 3614 H 361.177 1.36459 0.549309 0
M  V30 3615 H 363.135 2.19166 3.54996 0
M  V30 3616 H 361.765 1.19163 3 0
M  V30 3617 H 360.817 3.32233 1.85271 0
M  V30 3618 H 362.129 4.24534 2.61863 0
M  V30 3619 H 361.283 3.59928 4.88402 0
M  V30 3620 H 360.022 2.57445 4.14214 0
M  V30 3621 H 359.027 4.59072 3.02544 0
M  V30 3622 H 360.252 5.6289 3.7991 0
M  V30 3623 H 358.198 3.92337 5.25745 0
M  V30 3624 H 358.115 5.64007 5.0342 0
M  V30 3625 H 359.383 4.96239 6.01138 0
M  V30 3626 N 363.613 -0.582584 1.46437 0
M  V30 3627 C 365.024 -1.1647 1.45916 0
M  V30 3628 C 365.375 -1.95177 0.200077 0
M  V30 3629 O 364.5 -2.04874 -0.696819 0
M  V30 3630 C 365.095 -2.11885 2.64367 0
M  V30 3631 C 363.654 -2.65421 2.66887 0
M  V30 3632 C 362.801 -1.41294 2.38603 0
M  V30 3633 H 365.752 -0.370514 1.54314 0
M  V30 3634 H 365.773 -2.9535 2.39892 0
M  V30 3635 H 365.285 -1.54573 3.5599 0
M  V30 3636 H 363.386 -3.26602 1.79338 0
M  V30 3637 H 363.499 -3.08147 3.66854 0
M  V30 3638 H 361.863 -1.71109 1.88663 0
M  V30 3639 H 362.646 -0.858125 3.32402 0
M  V30 3640 N 365.091 -1.34144 -0.827227 0
M  V30 3641 C 366.021 -1.28005 -1.95287 0
M  V30 3642 C 367.002 -0.158321 -1.69362 0
M  V30 3643 O 368.187 -0.349987 -1.9102 0
M  V30 3644 C 365.317 -1.03036 -3.31664 0
M  V30 3645 C 364.271 -2.11628 -3.72019 0
M  V30 3646 C 363.597 -1.71854 -5.0633 0
M  V30 3647 C 364.897 -3.53417 -3.8457 0
M  V30 3648 H 366.591 -2.22187 -2.00682 0
M  V30 3649 H 364.137 -1.0696 -0.964135 0
M  V30 3650 H 366.09 -0.973863 -4.09993 0
M  V30 3651 H 364.814 -0.0529391 -3.26557 0
M  V30 3652 H 363.473 -2.16339 -2.95961 0
M  V30 3653 H 363.121 -0.727841 -4.97706 0
M  V30 3654 H 362.821 -2.44531 -5.34302 0
M  V30 3655 H 364.345 -1.67692 -5.87122 0
M  V30 3656 H 365.759 -3.51142 -4.5318 0
M  V30 3657 H 364.156 -4.24679 -4.2399 0
M  V30 3658 H 365.226 -3.91072 -2.86689 0
M  V30 3659 N 366.569 1.04691 -1.17803 0
M  V30 3660 C 367.818 1.77176 -0.963931 0
M  V30 3661 C 368.131 1.88888 0.508015 0
M  V30 3662 O 369.337 2.58164 0.840465 0
M  V30 3663 C 367.793 3.18518 -1.67555 0
M  V30 3664 C 367.401 3.14919 -3.18637 0
M  V30 3665 C 369.145 3.95424 -1.54402 0
M  V30 3666 C 367.052 4.51081 -3.82466 0
M  V30 3667 H 365.982 0.664116 -0.357023 0
M  V30 3668 H 368.633 1.17303 -1.4111 0
M  V30 3669 H 367.015 3.78748 -1.15613 0
M  V30 3670 H 368.189 2.64178 -3.77554 0
M  V30 3671 H 366.504 2.51512 -3.31859 0
M  V30 3672 H 369.101 4.96106 -1.99456 0
M  V30 3673 H 369.444 4.13343 -0.495329 0
M  V30 3674 H 369.977 3.41754 -2.0359 0
M  V30 3675 H 366.716 4.38368 -4.87354 0
M  V30 3676 H 366.236 5.01951 -3.28337 0
M  V30 3677 H 367.915 5.2001 -3.84965 0
M  V30 3678 N 368.047 0.979072 1.23499 0
M  V30 3679 C 368.977 0.537606 2.27227 0
M  V30 3680 C 369.958 -0.428539 1.64613 0
M  V30 3681 O 371.143 -0.322191 1.91509 0
M  V30 3682 C 368.273 -0.162052 3.46922 0
M  V30 3683 C 367.227 0.721242 4.21879 0
M  V30 3684 C 366.553 -0.110555 5.34586 0
M  V30 3685 C 367.853 2.01141 4.82016 0
M  V30 3686 H 369.547 1.40462 2.64406 0
M  V30 3687 H 367.093 0.67684 1.27102 0
M  V30 3688 H 369.046 -0.482192 4.18632 0
M  V30 3689 H 367.77 -1.06351 3.08799 0
M  V30 3690 H 366.429 1.02482 3.51984 0
M  V30 3691 H 366.077 -1.0125 4.92704 0
M  V30 3692 H 365.777 0.477325 5.85658 0
M  V30 3693 H 367.301 -0.425107 6.09118 0
M  V30 3694 H 368.715 1.75612 5.45741 0
M  V30 3695 H 367.112 2.54695 5.43369 0
M  V30 3696 H 368.182 2.69909 4.02836 0
M  V30 3697 N 369.525 -1.3858 0.750561 0
M  V30 3698 C 370.936 -1.82927 0.373438 0
M  V30 3699 C 371.287 -1.62634 -1.09748 0
M  V30 3700 O 370.412 -1.12588 -1.84805 0
M  V30 3701 C 371.007 -3.32088 0.671029 0
M  V30 3702 C 369.566 -3.74795 0.34722 0
M  V30 3703 C 368.713 -2.61391 0.92575 0
M  V30 3704 H 371.664 -1.27351 0.946958 0
M  V30 3705 H 371.685 -3.80465 -0.0518269 0
M  V30 3706 H 371.197 -3.46826 1.74164 0
M  V30 3707 H 369.298 -3.65638 -0.716933 0
M  V30 3708 H 369.411 -4.71667 0.840656 0
M  V30 3709 H 367.775 -2.52265 0.351327 0
M  V30 3710 H 368.558 -2.78929 2.00133 0
M  V30 3711 N 371.003 -0.499398 -1.49478 0
M  V30 3712 C 372.28 0.108629 -1.95298 0
M  V30 3713 C 372.66 1.54282 -1.44084 0
M  V30 3714 O 372.008 2.18944 -0.653908 0
M  V30 3715 C 372.218 0.0229111 -3.48992 0
M  V30 3716 C 373.566 0.197643 -4.2414 0
M  V30 3717 O 374.59 0.0981735 -3.56065 0
M  V30 3718 O 373.449 0.401669 -5.45022 0
M  V30 3719 H 370.543 0.096181 -0.821388 0
M  V30 3720 H 373.089 -0.561822 -1.6013 0
M  V30 3721 H 371.861 -0.977321 -3.78899 0
M  V30 3722 H 371.484 0.733579 -3.90774 0
M  V30 3723 N 372.481 1.55866 -0.233164 0
M  V30 3724 C 373.709 2.02998 0.399905 0
M  V30 3725 C 374.124 1.11274 1.52524 0
M  V30 3726 O 373.481 0.124528 1.82075 0
M  V30 3727 C 373.532 3.4958 0.920639 0
M  V30 3728 O 373.253 4.37808 -0.159834 0
M  V30 3729 C 374.754 4.12411 1.62578 0
M  V30 3730 H 371.974 0.664006 0.0966281 0
M  V30 3731 H 374.518 2.0143 -0.353013 0
M  V30 3732 H 372.673 3.51727 1.62379 0
M  V30 3733 H 373.087 5.23981 0.23337 0
M  V30 3734 H 374.561 5.16711 1.94201 0
M  V30 3735 H 375.038 3.5809 2.54299 0
M  V30 3736 H 375.644 4.14148 0.967553 0
M  V30 3737 N 373.959 -0.0401083 1.57549 0
M  V30 3738 C 374.906 -1.04413 2.05831 0
M  V30 3739 C 375.876 -1.36585 0.945184 0
M  V30 3740 O 377.061 -1.47112 1.21502 0
M  V30 3741 C 374.201 -2.34336 2.53339 0
M  V30 3742 C 373.314 -2.08419 3.78398 0
M  V30 3743 C 372.449 -3.32133 4.14561 0
M  V30 3744 C 371.488 -3.01721 5.3257 0
M  V30 3745 N 370.625 -4.17855 5.64218 0
M  V30 3746 H 375.465 -0.625442 2.91363 0
M  V30 3747 H 373.002 -0.297218 1.44066 0
M  V30 3748 H 374.96 -3.10234 2.78946 0
M  V30 3749 H 373.59 -2.73948 1.7074 0
M  V30 3750 H 372.642 -1.23069 3.59942 0
M  V30 3751 H 373.954 -1.81978 4.64419 0
M  V30 3752 H 373.108 -4.16406 4.41238 0
M  V30 3753 H 371.847 -3.61678 3.2717 0
M  V30 3754 H 370.852 -2.15849 5.05657 0
M  V30 3755 H 372.077 -2.73466 6.21605 0
M  V30 3756 H 370.023 -4.47372 4.79786 0
M  V30 3757 H 369.94 -3.94798 6.44725 0
M  V30 3758 H 371.208 -5.03033 5.95465 0
M  V30 3759 N 375.437 -1.54477 -0.31217 0
M  V30 3760 C 376.848 -1.64344 -0.885891 0
M  V30 3761 C 377.199 -0.54485 -1.88483 0
M  V30 3762 O 376.324 0.320387 -2.14015 0
M  V30 3763 C 376.919 -2.97908 -1.61357 0
M  V30 3764 C 375.478 -3.09933 -2.13585 0
M  V30 3765 C 374.625 -2.59971 -0.964897 0
M  V30 3766 H 377.576 -1.58448 -0.0894528 0
M  V30 3767 H 377.597 -2.88706 -2.47848 0
M  V30 3768 H 377.109 -3.77845 -0.886277 0
M  V30 3769 H 375.21 -2.34694 -2.89395 0
M  V30 3770 H 375.323 -4.15916 -2.37804 0
M  V30 3771 H 373.687 -2.16147 -1.34731 0
M  V30 3772 H 374.47 -3.42376 -0.251742 0
M  V30 3773 N 376.915 0.57481 -1.46744 0
M  V30 3774 C 377.862 1.68329 -1.57905 0
M  V30 3775 C 378.832 1.60625 -0.422927 0
M  V30 3776 O 380.017 1.79721 -0.640711 0
M  V30 3777 C 377.157 3.06665 -1.58274 0
M  V30 3778 C 376.27 3.24935 -2.84678 0
M  V30 3779 C 375.405 4.53566 -2.76499 0
M  V30 3780 C 374.444 4.65207 -3.97806 0
M  V30 3781 N 373.581 5.85172 -3.87967 0
M  V30 3782 H 378.421 1.58127 -2.52587 0
M  V30 3783 H 375.958 0.770552 -1.25303 0
M  V30 3784 H 377.916 3.86745 -1.56473 0
M  V30 3785 H 376.546 3.15745 -0.671194 0
M  V30 3786 H 375.598 2.38405 -2.96424 0
M  V30 3787 H 376.91 3.29403 -3.7456 0
M  V30 3788 H 376.064 5.41885 -2.72848 0
M  V30 3789 H 374.803 4.51548 -1.8427 0
M  V30 3790 H 373.808 3.75304 -4.0178 0
M  V30 3791 H 375.033 4.68997 -4.9114 0
M  V30 3792 H 372.979 5.84137 -2.98529 0
M  V30 3793 H 372.896 5.90943 -4.71511 0
M  V30 3794 H 374.164 6.759 -3.88303 0
M  V30 3795 N 378.394 1.34581 0.820102 0
M  V30 3796 C 379.643 1.26437 1.57151 0
M  V30 3797 C 379.956 -0.163111 1.94919 0
M  V30 3798 O 381.162 -0.366722 2.69012 0
M  V30 3799 C 379.618 2.21658 2.83541 0
M  V30 3800 C 379.226 3.69679 2.53065 0
M  V30 3801 C 380.97 2.22428 3.61561 0
M  V30 3802 C 378.877 4.56761 3.75664 0
M  V30 3803 H 377.807 0.469707 0.589823 0
M  V30 3804 H 380.458 1.59763 0.902656 0
M  V30 3805 H 378.84 1.81287 3.52067 0
M  V30 3806 H 380.014 4.18605 1.92631 0
M  V30 3807 H 378.329 3.71384 1.88316 0
M  V30 3808 H 380.926 2.8471 4.52597 0
M  V30 3809 H 381.269 1.22434 3.97889 0
M  V30 3810 H 381.802 2.61259 2.99981 0
M  V30 3811 H 378.541 5.57702 3.44454 0
M  V30 3812 H 378.061 4.12568 4.35371 0
M  V30 3813 H 379.74 4.71509 4.43044 0
M  V30 3814 N 379.872 -1.04064 1.18357 0
M  V30 3815 C 380.819 -2.12077 0.910603 0
M  V30 3816 C 381.789 -1.65421 -0.15 0
M  V30 3817 O 382.974 -1.90797 -0.0103614 0
M  V30 3818 C 380.114 -3.42252 0.442472 0
M  V30 3819 C 379.227 -4.0252 1.5685 0
M  V30 3820 C 378.362 -5.20657 1.05309 0
M  V30 3821 C 377.401 -5.72955 2.1538 0
M  V30 3822 N 376.538 -6.8238 1.65233 0
M  V30 3823 H 381.378 -2.34764 1.83548 0
M  V30 3824 H 378.915 -1.15157 0.915279 0
M  V30 3825 H 380.873 -4.16921 0.152534 0
M  V30 3826 H 379.503 -3.19712 -0.445428 0
M  V30 3827 H 378.555 -3.25178 1.97391 0
M  V30 3828 H 379.867 -4.37362 2.39824 0
M  V30 3829 H 379.021 -6.0244 0.717677 0
M  V30 3830 H 377.76 -4.87318 0.19293 0
M  V30 3831 H 376.765 -4.89793 2.49766 0
M  V30 3832 H 377.99 -6.08337 3.01832 0
M  V30 3833 H 375.936 -6.50917 0.815064 0
M  V30 3834 H 375.853 -7.16286 2.41805 0
M  V30 3835 H 377.121 -7.67788 1.34619 0
M  V30 3836 N 381.35 -0.985608 -1.22978 0
M  V30 3837 C 382.627 -0.573599 -1.87001 0
M  V30 3838 C 383.007 0.949213 -1.88555 0
M  V30 3839 O 382.355 1.82811 -1.37086 0
M  V30 3840 C 382.565 -1.18564 -3.28243 0
M  V30 3841 C 383.913 -1.28163 -4.04796 0
M  V30 3842 O 384.937 -1.13949 -3.37482 0
M  V30 3843 O 383.796 -1.50832 -5.25273 0
M  V30 3844 H 380.89 -0.193868 -0.803955 0
M  V30 3845 H 383.436 -1.08102 -1.30813 0
M  V30 3846 H 382.208 -2.22758 -3.21706 0
M  V30 3847 H 381.831 -0.663363 -3.92027 0
M  V30 3848 N 382.828 1.3818 -0.7579 0
M  V30 3849 C 383.776 2.32277 -0.122482 0
M  V30 3850 C 384.77 1.54238 0.700505 0
M  V30 3851 O 385.976 1.69737 0.599119 0
M  V30 3852 H 382.351 0.751712 -0.0208143 0
M  V30 3853 H 384.322 2.83469 -0.932099 0
M  V30 3854 C 383.071 3.39447 0.753076 0
M  V30 3855 H 382.394 3.99591 0.129184 0
M  V30 3856 H 383.834 4.07684 1.16489 0
M  V30 3857 C 382.293 2.78375 1.8976 0
M  V30 3858 O 382.823 2.68025 2.99208 0
M  V30 3859 N 381.029 2.36121 1.69397 0
M  V30 3860 H 380.576 2.4474 0.803762 0
M  V30 3861 H 380.534 1.95602 2.46145 0
M  V30 3862 N 384.306 0.507319 1.49211 0
M  V30 3863 C 385.554 -0.0348839 2.0207 0
M  V30 3864 C 385.875 -1.36898 1.38866 0
M  V30 3865 O 385.145 -1.88133 0.546151 0
M  V30 3866 H 383.725 -0.0158812 0.746831 0
M  V30 3867 H 386.387 0.665998 1.83168 0
M  V30 3868 H 385.483 -0.159917 3.1169 0
M  V30 3869 N 385.784 -1.5574 0.241426 0
M  V30 3870 C 387.061 -1.90704 -0.434881 0
M  V30 3871 C 387.441 -1.16145 -1.76277 0
M  V30 3872 O 386.789 -0.277152 -2.26813 0
M  V30 3873 C 386.999 -3.43657 -0.608343 0
M  V30 3874 C 388.347 -4.14806 -0.906725 0
M  V30 3875 O 389.371 -3.49366 -0.694408 0
M  V30 3876 O 388.23 -5.30548 -1.31075 0
M  V30 3877 H 385.324 -0.793592 -0.23268 0
M  V30 3878 H 387.87 -1.67288 0.285086 0
M  V30 3879 H 386.642 -3.89927 0.327505 0
M  V30 3880 H 386.265 -3.72918 -1.37906 0
M  V30 3881 N 387.262 0.0317525 -1.57568 0
M  V30 3882 C 388.192 1.03274 -2.0942 0
M  V30 3883 C 389.173 1.3788 -0.996143 0
M  V30 3884 O 390.358 1.46811 -1.27122 0
M  V30 3885 C 387.488 2.33448 -2.57137 0
M  V30 3886 C 386.442 2.13091 -3.71182 0
M  V30 3887 C 385.768 3.49001 -4.05095 0
M  V30 3888 C 387.068 1.51928 -4.99715 0
M  V30 3889 H 388.762 0.60112 -2.93303 0
M  V30 3890 H 386.308 0.287705 -1.41097 0
M  V30 3891 H 388.261 3.03802 -2.92032 0
M  V30 3892 H 386.985 2.78665 -1.70333 0
M  V30 3893 H 385.644 1.45171 -3.36632 0
M  V30 3894 H 385.292 3.91862 -3.15362 0
M  V30 3895 H 384.992 3.36207 -4.81911 0
M  V30 3896 H 386.516 4.20721 -4.42522 0
M  V30 3897 H 387.93 2.12196 -5.32584 0
M  V30 3898 H 386.327 1.49716 -5.81124 0
M  V30 3899 H 387.397 0.484811 -4.8247 0
M  V30 3900 N 388.74 1.54641 0.303973 0
M  V30 3901 C 389.986 1.74038 1.04109 0
M  V30 3902 C 390.319 0.523051 1.87024 0
M  V30 3903 O 389.594 -0.479874 1.88487 0
M  V30 3904 C 389.877 3.02761 1.94955 0
M  V30 3905 C 389.73 4.34787 1.1524 0
M  V30 3906 C 391.049 3.27336 2.94175 0
M  V30 3907 H 388.168 0.63323 0.377079 0
M  V30 3908 H 390.81 1.87354 0.316001 0
M  V30 3909 H 388.96 2.9154 2.56782 0
M  V30 3910 H 390.632 4.57922 0.557236 0
M  V30 3911 H 388.875 4.31407 0.455053 0
M  V30 3912 H 389.546 5.21116 1.8205 0
M  V30 3913 H 392.022 3.38148 2.42477 0
M  V30 3914 H 390.898 4.18726 3.54908 0
M  V30 3915 H 391.159 2.45491 3.67677 0
M  V30 3916 N 390.218 -0.567019 1.47046 0
M  V30 3917 C 391.148 -1.68482 1.61667 0
M  V30 3918 C 392.129 -1.6358 0.466418 0
M  V30 3919 O 393.314 -1.81354 0.694574 0
M  V30 3920 C 390.444 -3.07124 1.62148 0
M  V30 3921 C 389.398 -3.26867 2.76301 0
M  V30 3922 C 388.724 -4.66196 2.61849 0
M  V30 3923 C 390.024 -3.13186 4.17986 0
M  V30 3924 H 391.718 -1.56502 2.5524 0
M  V30 3925 H 389.264 -0.751486 1.22836 0
M  V30 3926 H 391.217 -3.8516 1.70968 0
M  V30 3927 H 389.941 -3.2004 0.651287 0
M  V30 3928 H 388.6 -2.51237 2.66975 0
M  V30 3929 H 388.248 -4.75898 1.62879 0
M  V30 3930 H 387.948 -4.80356 3.38425 0
M  V30 3931 H 389.472 -5.46379 2.72584 0
M  V30 3932 H 390.886 -3.81049 4.2834 0
M  V30 3933 H 389.283 -3.3886 4.95272 0
M  V30 3934 H 390.353 -2.10057 4.3704 0
M  V30 3935 N 391.696 -1.35014 -0.812953 0
M  V30 3936 C 392.921 -1.31187 -1.60639 0
M  V30 3937 C 393.346 0.109382 -1.87782 0
M  V30 3938 O 392.704 1.07424 -1.46047 0
M  V30 3939 C 392.752 -2.11809 -2.91838 0
M  V30 3940 O 391.856 -1.49444 -3.8437 0
M  V30 3941 H 391.197 -0.450084 -0.488181 0
M  V30 3942 H 393.727 -1.77963 -1.00947 0
M  V30 3943 H 393.737 -2.23531 -3.41318 0
M  V30 3944 H 392.412 -3.15137 -2.71407 0
M  V30 3945 H 390.989 -1.46524 -3.42907 0
M  V30 3946 N 393.175 1.03435 -1.18907 0
M  V30 3947 C 394.4 1.80919 -1.01406 0
M  V30 3948 C 394.825 1.83055 0.432721 0
M  V30 3949 O 394.183 1.25252 1.31079 0
M  V30 3950 C 394.231 3.24091 -1.58105 0
M  V30 3951 O 393.335 4.04434 -0.806669 0
M  V30 3952 H 392.676 0.558709 -0.358803 0
M  V30 3953 H 395.206 1.30223 -1.57807 0
M  V30 3954 H 395.216 3.74853 -1.61087 0
M  V30 3955 H 393.891 3.21851 -2.6341 0
M  V30 3956 H 392.468 3.63091 -0.849666 0
M  V30 3957 N 394.653 0.992116 1.22453 0
M  V30 3958 C 396.064 0.702776 1.72968 0
M  V30 3959 C 396.415 -0.780399 1.80012 0
M  V30 3960 O 395.54 -1.61007 1.44589 0
M  V30 3961 C 396.135 1.26903 3.14135 0
M  V30 3962 C 394.694 1.02909 3.62059 0
M  V30 3963 C 393.841 1.38969 2.39964 0
M  V30 3964 H 396.792 1.16457 1.07812 0
M  V30 3965 H 396.813 0.647223 3.74955 0
M  V30 3966 H 396.325 2.34851 3.08977 0
M  V30 3967 H 394.426 -0.0337979 3.72585 0
M  V30 3968 H 394.539 1.69191 4.48231 0
M  V30 3969 H 392.903 0.808279 2.41535 0
M  V30 3970 H 393.686 2.4792 2.37467 0
M  V30 3971 N 396.131 -1.37776 0.765217 0
M  V30 3972 C 397.356 -2.04651 0.336537 0
M  V30 3973 C 397.781 -1.57337 -1.03086 0
M  V30 3974 O 397.139 -0.730621 -1.65927 0
M  V30 3975 C 397.187 -3.58577 0.381468 0
M  V30 3976 O 396.291 -4.07706 -0.62042 0
M  V30 3977 H 395.632 -0.64756 0.146838 0
M  V30 3978 H 398.162 -1.76221 1.03959 0
M  V30 3979 H 398.172 -4.07314 0.236448 0
M  V30 3980 H 396.847 -3.9237 1.37907 0
M  V30 3981 H 395.424 -3.70306 -0.439056 0
M  V30 3982 N 397.609 -0.515225 -1.4894 0
M  V30 3983 C 398.557 0.269115 -2.31038 0
M  V30 3984 C 399.551 0.949443 -1.40292 0
M  V30 3985 O 400.757 0.87551 -1.57273 0
M  V30 3986 H 397.132 0.10565 -0.744542 0
M  V30 3987 H 399.103 -0.443096 -2.95092 0
M  V30 3988 C 397.852 1.31213 -3.21991 0
M  V30 3989 H 397.175 0.798034 -3.91754 0
M  V30 3990 H 398.615 1.83263 -3.82349 0
M  V30 3991 C 397.074 2.33791 -2.42576 0
M  V30 3992 O 397.604 3.3995 -2.14003 0
M  V30 3993 N 395.81 2.06625 -2.0434 0
M  V30 3994 H 395.357 1.20314 -2.27777 0
M  V30 3995 H 395.315 2.75483 -1.51514 0
M  V30 3996 N 399.087 1.5561 -0.249682 0
M  V30 3997 C 400.333 1.99306 0.374841 0
M  V30 3998 C 400.666 1.13767 1.57387 0
M  V30 3999 O 399.941 0.201711 1.93451 0
M  V30 4000 C 400.224 3.51507 0.781986 0
M  V30 4001 C 400.077 4.4781 -0.422629 0
M  V30 4002 C 401.396 4.08884 1.62793 0
M  V30 4003 H 398.515 0.724572 0.134773 0
M  V30 4004 H 401.157 1.86719 -0.351549 0
M  V30 4005 H 399.307 3.62363 1.4009 0
M  V30 4006 H 400.979 4.48931 -1.06108 0
M  V30 4007 H 399.222 4.20518 -1.06524 0
M  V30 4008 H 399.893 5.51919 -0.0943766 0
M  V30 4009 H 402.369 4.01147 1.10547 0
M  V30 4010 H 401.245 5.1564 1.88166 0
M  V30 4011 H 401.506 3.57515 2.60068 0
M  V30 4012 N 400.565 -0.0233959 1.57583 0
M  V30 4013 C 401.793 -0.724682 1.93794 0
M  V30 4014 C 402.208 -1.68588 0.849912 0
M  V30 4015 O 401.565 -1.81676 -0.173204 0
M  V30 4016 C 401.616 -1.47684 3.29957 0
M  V30 4017 O 401.337 -0.554222 4.3458 0
M  V30 4018 C 402.838 -2.27477 3.80485 0
M  V30 4019 H 400.058 -0.203317 0.639455 0
M  V30 4020 H 402.602 0.0207653 2.04489 0
M  V30 4021 H 400.757 -2.17412 3.20641 0
M  V30 4022 H 401.171 -1.08232 5.13212 0
M  V30 4023 H 402.645 -2.7564 4.78254 0
M  V30 4024 H 403.122 -3.09144 3.11972 0
M  V30 4025 H 403.728 -1.62813 3.92902 0
M  V30 4026 N 402.043 -1.548 -0.295768 0
M  V30 4027 C 402.973 -1.89115 -1.36959 0
M  V30 4028 C 403.954 -0.75059 -1.52644 0
M  V30 4029 O 405.139 -1.00678 -1.66065 0
M  V30 4030 C 402.269 -2.14307 -2.73295 0
M  V30 4031 C 401.223 -3.30151 -2.72368 0
M  V30 4032 C 400.549 -3.40772 -4.12042 0
M  V30 4033 C 401.849 -4.67126 -2.33646 0
M  V30 4034 H 403.543 -2.79053 -1.08488 0
M  V30 4035 H 401.089 -1.34266 -0.520443 0
M  V30 4036 H 403.042 -2.36898 -3.48507 0
M  V30 4037 H 401.766 -1.21145 -3.03301 0
M  V30 4038 H 400.425 -3.0749 -1.99613 0
M  V30 4039 H 400.073 -2.45117 -4.39234 0
M  V30 4040 H 399.773 -4.18645 -4.12322 0
M  V30 4041 H 401.297 -3.6563 -4.89027 0
M  V30 4042 H 402.711 -4.89414 -2.98575 0
M  V30 4043 H 401.108 -5.47751 -2.45129 0
M  V30 4044 H 402.178 -4.67489 -1.28772 0
M  V30 4045 N 403.521 0.559213 -1.47345 0
M  V30 4046 C 404.932 1.14134 -1.47751 0
M  V30 4047 C 405.283 1.94834 -0.231103 0
M  V30 4048 O 404.408 2.05957 0.664137 0
M  V30 4049 C 405.003 2.07653 -2.67705 0
M  V30 4050 C 403.562 2.61141 -2.71076 0
M  V30 4051 C 402.709 1.3748 -2.40821 0
M  V30 4052 H 405.66 0.345917 -1.54884 0
M  V30 4053 H 405.681 2.91497 -2.44561 0
M  V30 4054 H 405.193 1.4889 -3.58404 0
M  V30 4055 H 403.294 3.23707 -1.84511 0
M  V30 4056 H 403.407 3.02272 -3.7171 0
M  V30 4057 H 401.771 1.68086 -1.91362 0
M  V30 4058 H 402.554 0.805135 -3.33725 0
M  V30 4059 N 404.999 1.35443 0.805782 0
M  V30 4060 C 405.931 1.24285 1.92577 0
M  V30 4061 C 406.944 0.165962 1.61952 0
M  V30 4062 O 408.133 0.419303 1.73505 0
M  V30 4063 C 405.233 0.891272 3.2697 0
M  V30 4064 C 404.406 2.06669 3.85495 0
M  V30 4065 C 403.465 1.69077 4.98297 0
M  V30 4066 O 402.491 2.4096 5.15681 0
M  V30 4067 N 403.693 0.614869 5.77234 0
M  V30 4068 H 406.458 2.20777 2.02676 0
M  V30 4069 H 404.019 1.28623 0.983243 0
M  V30 4070 H 406.011 0.621256 3.99903 0
M  V30 4071 H 404.581 0.016004 3.12596 0
M  V30 4072 H 403.801 2.50046 3.04747 0
M  V30 4073 H 405.089 2.85237 4.21328 0
M  V30 4074 H 404.487 0.017648 5.65697 0
M  V30 4075 H 403.044 0.404636 6.50543 0
M  V30 4076 N 406.477 -1.02803 1.19454 0
M  V30 4077 C 407.723 -1.76478 0.999171 0
M  V30 4078 C 408.056 -1.88456 -0.468828 0
M  V30 4079 O 407.331 -1.40198 -1.34814 0
M  V30 4080 C 407.614 -3.19044 1.66981 0
M  V30 4081 C 407.467 -3.14932 3.21151 0
M  V30 4082 C 408.786 -4.17456 1.39349 0
M  V30 4083 H 405.905 -0.640614 0.364393 0
M  V30 4084 H 408.547 -1.20005 1.47305 0
M  V30 4085 H 406.697 -3.67263 1.2669 0
M  V30 4086 H 408.369 -2.74605 3.70661 0
M  V30 4087 H 406.612 -2.52625 3.52652 0
M  V30 4088 H 407.283 -4.1566 3.63223 0
M  V30 4089 H 409.759 -3.77842 1.74283 0
M  V30 4090 H 408.635 -5.154 1.88823 0
M  V30 4091 H 408.896 -4.40949 0.318813 0
M  V30 4092 N 407.956 -0.998596 -1.21925 0
M  V30 4093 C 408.903 -0.553621 -2.24062 0
M  V30 4094 C 409.873 0.416999 -1.6078 0
M  V30 4095 O 411.058 0.320482 -1.88089 0
M  V30 4096 C 408.198 0.119959 -3.44891 0
M  V30 4097 C 407.311 -0.893077 -4.22668 0
M  V30 4098 C 406.446 -0.192424 -5.30851 0
M  V30 4099 C 405.485 -1.19344 -6.00353 0
M  V30 4100 N 404.622 -0.520707 -7.00166 0
M  V30 4101 H 409.462 -1.4293 -2.61486 0
M  V30 4102 H 406.999 -0.715838 -1.28507 0
M  V30 4103 H 408.957 0.527459 -4.13852 0
M  V30 4104 H 407.587 0.959389 -3.08214 0
M  V30 4105 H 406.639 -1.41886 -3.52948 0
M  V30 4106 H 407.951 -1.65512 -4.70539 0
M  V30 4107 H 407.105 0.271515 -6.06092 0
M  V30 4108 H 405.844 0.602075 -4.83969 0
M  V30 4109 H 404.849 -1.66795 -5.23889 0
M  V30 4110 H 406.074 -1.98891 -6.49322 0
M  V30 4111 H 404.02 0.254252 -6.55507 0
M  V30 4112 H 403.937 -1.2211 -7.46073 0
M  V30 4113 H 405.205 -0.0797596 -7.79459 0
M  V30 4114 N 409.434 1.37368 -0.772513 0
M  V30 4115 C 410.662 2.03942 -0.348588 0
M  V30 4116 C 411.077 1.58264 1.02947 0
M  V30 4117 O 410.434 0.764246 1.65727 0
M  V30 4118 C 410.485 3.5946 -0.38351 0
M  V30 4119 O 410.206 4.03468 -1.70721 0
M  V30 4120 C 411.707 4.4327 0.0519152 0
M  V30 4121 H 408.927 0.654931 -0.145966 0
M  V30 4122 H 411.471 1.75686 -1.04665 0
M  V30 4123 H 409.626 3.86486 0.265978 0
M  V30 4124 H 410.04 4.97991 -1.64636 0
M  V30 4125 H 411.514 5.51995 -0.0236733 0
M  V30 4126 H 411.991 4.2514 1.10238 0
M  V30 4127 H 412.597 4.21471 -0.569415 0
M  V30 4128 N 410.912 0.523116 1.48665 0
M  V30 4129 C 411.822 -0.247406 2.33292 0
M  V30 4130 C 412.838 -0.945769 1.46052 0
M  V30 4131 O 414.014 -0.922253 1.79043 0
M  V30 4132 C 411.079 -1.28487 3.22012 0
M  V30 4133 C 410.14 -0.597592 4.2512 0
M  V30 4134 C 409.373 -1.58563 5.09601 0
M  V30 4135 O 409.596 -2.81763 4.95949 0
M  V30 4136 O 408.53 -1.12879 5.91221 0
M  V30 4137 H 412.356 0.445869 3.00409 0
M  V30 4138 H 409.941 0.284128 1.46673 0
M  V30 4139 H 411.823 -1.88459 3.7691 0
M  V30 4140 H 410.498 -1.96068 2.57564 0
M  V30 4141 H 409.405 0.0424407 3.74076 0
M  V30 4142 H 410.738 0.0361517 4.92187 0
M  V30 4143 N 412.39 -1.55475 0.257931 0
M  V30 4144 C 413.337 -2.21837 -0.636939 0
M  V30 4145 C 414.307 -1.18596 -1.16294 0
M  V30 4146 O 415.492 -1.47081 -1.21539 0
M  V30 4147 C 412.632 -2.9301 -1.82317 0
M  V30 4148 C 411.745 -4.10931 -1.33265 0
M  V30 4149 C 410.88 -4.69791 -2.47931 0
M  V30 4150 C 409.919 -5.7994 -1.95796 0
M  V30 4151 N 409.056 -6.32935 -3.0387 0
M  V30 4152 H 413.896 -2.9793 -0.0643591 0
M  V30 4153 H 411.433 -1.47086 -0.0200031 0
M  V30 4154 H 413.391 -3.3248 -2.52018 0
M  V30 4155 H 412.021 -2.1937 -2.36805 0
M  V30 4156 H 411.073 -3.76699 -0.52931 0
M  V30 4157 H 412.385 -4.90417 -0.910654 0
M  V30 4158 H 411.539 -5.11892 -3.25656 0
M  V30 4159 H 410.278 -3.89545 -2.93438 0
M  V30 4160 H 409.283 -5.37305 -1.16546 0
M  V30 4161 H 410.508 -6.62043 -1.51246 0
M  V30 4162 H 408.454 -5.55591 -3.48791 0
M  V30 4163 H 408.371 -7.07645 -2.66035 0
M  V30 4164 H 409.639 -6.79695 -3.81621 0
M  V30 4165 N 413.868 0.0150385 -1.57593 0
M  V30 4166 C 414.778 1.02791 -2.10882 0
M  V30 4167 C 415.794 1.38702 -1.0506 0
M  V30 4168 O 416.97 1.47739 -1.36877 0
M  V30 4169 C 414.035 2.30568 -2.58919 0
M  V30 4170 C 413.096 2.01108 -3.79281 0
M  V30 4171 C 412.329 3.22794 -4.25018 0
M  V30 4172 O 412.552 4.33959 -3.70183 0
M  V30 4173 O 411.486 3.07672 -5.17322 0
M  V30 4174 H 415.312 0.604973 -2.97613 0
M  V30 4175 H 412.897 0.23292 -1.47573 0
M  V30 4176 H 414.779 3.05662 -2.90084 0
M  V30 4177 H 413.454 2.72129 -1.75293 0
M  V30 4178 H 412.361 1.23537 -3.53114 0
M  V30 4179 H 413.694 1.64394 -4.63935 0
M  V30 4180 N 415.346 1.54954 0.287554 0
M  V30 4181 C 416.623 1.65569 1.04146 0
M  V30 4182 C 417.003 0.512672 2.0478 0
M  V30 4183 O 416.351 -0.489038 2.23205 0
M  V30 4184 C 416.561 3.04163 1.71131 0
M  V30 4185 C 417.909 3.61429 2.22832 0
M  V30 4186 O 418.933 3.06702 1.81141 0
M  V30 4187 O 417.792 4.57281 2.9926 0
M  V30 4188 H 414.886 0.671881 0.482188 0
M  V30 4189 H 417.432 1.67297 0.28457 0
M  V30 4190 H 416.204 3.78796 0.981303 0
M  V30 4191 H 415.827 3.06271 2.53543 0
M  V30 4192 N 416.824 -0.551391 1.4764 0
M  V30 4193 C 418.071 -1.3083 1.54563 0
M  V30 4194 C 418.399 -1.93359 0.210361 0
M  V30 4195 O 417.654 -1.78721 -0.797332 0
M  V30 4196 C 417.953 -2.43469 2.61644 0
M  V30 4197 C 417.619 -1.98732 4.04742 0
M  V30 4198 C 416.281 -1.86248 4.43695 0
M  V30 4199 C 418.633 -1.64659 4.94507 0
M  V30 4200 C 415.961 -1.37995 5.70241 0
M  V30 4201 C 418.313 -1.17875 6.21521 0
M  V30 4202 C 416.977 -1.03992 6.5935 0
M  V30 4203 H 416.247 -0.478741 0.565587 0
M  V30 4204 H 418.894 -0.617697 1.81264 0
M  V30 4205 H 417.199 -3.18109 2.28722 0
M  V30 4206 H 418.896 -3.01642 2.64222 0
M  V30 4207 H 415.486 -2.09393 3.73968 0
M  V30 4208 H 419.67 -1.73174 4.65107 0
M  V30 4209 H 414.926 -1.25915 5.98294 0
M  V30 4210 H 419.1 -0.905739 6.90485 0
M  V30 4211 H 416.727 -0.663794 7.57296 0
M  V30 4212 N 418.302 -1.35869 -0.798587 0
M  V30 4213 C 419.551 -1.28921 -1.5512 0
M  V30 4214 C 419.864 0.13208 -1.95154 0
M  V30 4215 O 421.07 0.323879 -2.69561 0
M  V30 4216 C 419.526 -2.26141 -2.79979 0
M  V30 4217 C 419.134 -3.73658 -2.47151 0
M  V30 4218 C 420.878 -2.28152 -3.57976 0
M  V30 4219 C 418.785 -4.62679 -3.6835 0
M  V30 4220 H 417.715 -0.479031 -0.582276 0
M  V30 4221 H 420.366 -1.61179 -0.877125 0
M  V30 4222 H 418.748 -1.86865 -3.49138 0
M  V30 4223 H 419.922 -4.21616 -1.85947 0
M  V30 4224 H 418.237 -3.74333 -1.82383 0
M  V30 4225 H 420.834 -2.91875 -4.4801 0
M  V30 4226 H 421.177 -1.28748 -3.95891 0
M  V30 4227 H 421.71 -2.65998 -2.95787 0
M  V30 4228 H 418.449 -5.63111 -3.35538 0
M  V30 4229 H 417.969 -4.19442 -4.28752 0
M  V30 4230 H 419.648 -4.78498 -4.35487 0
M  V30 4231 N 419.78 1.02168 -1.19998 0
M  V30 4232 C 420.69 2.14069 -0.959774 0
M  V30 4233 C 421.706 1.73804 0.082655 0
M  V30 4234 O 422.882 2.01133 -0.103633 0
M  V30 4235 C 419.947 3.42936 -0.509459 0
M  V30 4236 C 419.008 3.97474 -1.62213 0
M  V30 4237 C 418.241 5.2019 -1.19321 0
M  V30 4238 O 418.464 5.70369 -0.0597726 0
M  V30 4239 O 417.398 5.67749 -1.99863 0
M  V30 4240 H 421.224 2.37199 -1.89658 0
M  V30 4241 H 418.809 1.12469 -0.983411 0
M  V30 4242 H 420.691 4.20551 -0.267322 0
M  V30 4243 H 419.366 3.21234 0.398821 0
M  V30 4244 H 418.273 3.21161 -1.9185 0
M  V30 4245 H 419.606 4.23555 -2.50723 0
M  V30 4246 N 421.258 1.00505 1.21394 0
M  V30 4247 C 422.188 0.585684 2.26035 0
M  V30 4248 C 423.169 -0.393525 1.65485 0
M  V30 4249 O 424.354 -0.281497 1.92149 0
M  V30 4250 C 421.484 -0.0884283 3.47187 0
M  V30 4251 C 420.438 0.810567 4.20254 0
M  V30 4252 C 419.764 0.00286382 5.347 0
M  V30 4253 C 421.064 2.1132 4.77641 0
M  V30 4254 H 422.758 1.46039 2.61368 0
M  V30 4255 H 420.304 0.703648 1.25638 0
M  V30 4256 H 422.257 -0.393286 4.19561 0
M  V30 4257 H 420.981 -0.997766 3.10986 0
M  V30 4258 H 419.64 1.09925 3.49731 0
M  V30 4259 H 419.288 -0.907765 4.94741 0
M  V30 4260 H 418.988 0.601444 5.84514 0
M  V30 4261 H 420.512 -0.295808 6.09883 0
M  V30 4262 H 421.926 1.87148 5.41893 0
M  V30 4263 H 420.323 2.66164 5.37845 0
M  V30 4264 H 421.393 2.78393 3.9702 0
M  V30 4265 N 422.737 -1.36956 0.779787 0
M  V30 4266 C 423.977 -2.01328 0.353043 0
M  V30 4267 C 424.341 -1.60558 -1.05286 0
M  V30 4268 O 425.542 -2.1745 -1.58016 0
M  V30 4269 C 423.813 -3.53874 0.500822 0
M  V30 4270 S 425.372 -4.38506 0.16053 0
M  V30 4271 H 422.19 -0.69799 0.13539 0
M  V30 4272 H 424.792 -1.67016 1.01617 0
M  V30 4273 H 423.496 -3.81034 1.52451 0
M  V30 4274 H 423.027 -3.92994 -0.178574 0
M  V30 4275 H 425.042 -4.85153 -1.04121 0
M  V30 4276 N 424.215 -0.530993 -1.48385 0
M  V30 4277 C 425.443 -0.00134122 -2.069 0
M  V30 4278 C 425.858 1.2805 -1.3874 0
M  V30 4279 O 425.215 1.76204 -0.475244 0
M  V30 4280 C 425.266 0.225256 -3.60798 0
M  V30 4281 O 424.987 -1.0058 -4.26398 0
M  V30 4282 C 426.488 0.795172 -4.3611 0
M  V30 4283 H 423.708 -0.0339704 -0.67014 0
M  V30 4284 H 426.252 -0.736926 -1.90761 0
M  V30 4285 H 424.407 0.910891 -3.76539 0
M  V30 4286 H 424.821 -0.787165 -5.1856 0
M  V30 4287 H 426.295 0.903143 -5.44562 0
M  V30 4288 H 426.772 1.80031 -4.00606 0
M  V30 4289 H 427.378 0.146069 -4.25049 0
M  V30 4290 N 425.693 1.55336 -0.266172 0
M  V30 4291 C 427.104 1.85236 0.233315 0
M  V30 4292 C 427.455 1.18816 1.56132 0
M  V30 4293 O 426.58 0.473307 2.11161 0
M  V30 4294 C 427.175 3.36059 0.430113 0
M  V30 4295 C 425.734 3.66116 0.873842 0
M  V30 4296 C 424.881 2.77274 -0.0380016 0
M  V30 4297 H 427.832 1.51004 -0.488214 0
M  V30 4298 H 427.853 3.58681 1.26998 0
M  V30 4299 H 427.365 3.84373 -0.536588 0
M  V30 4300 H 425.466 3.23295 1.85233 0
M  V30 4301 H 425.579 4.73699 0.717358 0
M  V30 4302 H 423.943 2.50198 0.476759 0
M  V30 4303 H 424.726 3.284 -1.00042 0
M  V30 4304 N 427.171 -0.0066808 1.57599 0
M  V30 4305 C 428.419 -0.691552 1.899 0
M  V30 4306 C 428.74 -1.74682 0.866672 0
M  V30 4307 O 428.01 -1.95661 -0.0968189 0
M  V30 4308 H 426.59 -0.258416 0.700878 0
M  V30 4309 H 429.252 0.0326655 1.94873 0
M  V30 4310 H 428.348 -1.16702 2.8946 0
M  V30 4311 N 428.649 -1.55105 -0.279332 0
M  V30 4312 C 429.895 -1.75672 -1.01327 0
M  V30 4313 C 430.228 -0.552739 -1.86168 0
M  V30 4314 O 429.503 0.449827 -1.89227 0
M  V30 4315 C 429.786 -3.05825 -1.90114 0
M  V30 4316 C 429.639 -4.36565 -1.08309 0
M  V30 4317 C 430.958 -3.31975 -2.8893 0
M  V30 4318 H 428.077 -0.639149 -0.366957 0
M  V30 4319 H 430.719 -1.87833 -0.286154 0
M  V30 4320 H 428.869 -2.95588 -2.52111 0
M  V30 4321 H 430.541 -4.58751 -0.484314 0
M  V30 4322 H 428.784 -4.32076 -0.386362 0
M  V30 4323 H 429.455 -5.23946 -1.73737 0
M  V30 4324 H 431.931 -3.41963 -2.37067 0
M  V30 4325 H 430.807 -4.2432 -3.48201 0
M  V30 4326 H 431.068 -2.51309 -3.63725 0
M  V30 4327 N 430.127 0.543554 -1.4793 0
M  V30 4328 C 431.376 1.29649 -1.54512 0
M  V30 4329 C 431.689 1.94382 -0.217973 0
M  V30 4330 O 432.895 2.71017 -0.161908 0
M  V30 4331 C 431.351 2.35175 -2.72435 0
M  V30 4332 C 430.959 1.76572 -4.11736 0
M  V30 4333 C 432.703 3.11564 -2.8832 0
M  V30 4334 C 430.61 2.79958 -5.20939 0
M  V30 4335 H 429.54 0.487541 -0.57517 0
M  V30 4336 H 432.191 0.575708 -1.74235 0
M  V30 4337 H 430.573 3.10229 -2.46118 0
M  V30 4338 H 431.747 1.07799 -4.48013 0
M  V30 4339 H 430.062 1.12722 -4.00852 0
M  V30 4340 H 432.659 3.88794 -3.67074 0
M  V30 4341 H 433.002 3.66594 -1.97268 0
M  V30 4342 H 433.535 2.43623 -3.14472 0
M  V30 4343 H 430.274 2.29766 -6.13912 0
M  V30 4344 H 429.794 3.47101 -4.89164 0
M  V30 4345 H 431.473 3.43198 -5.48474 0
M  V30 4346 N 431.605 1.3629 0.791371 0
M  V30 4347 C 432.552 1.30458 1.90393 0
M  V30 4348 C 433.522 0.173632 1.6519 0
M  V30 4349 O 434.707 0.35983 1.87376 0
M  V30 4350 C 431.847 1.09777 3.27174 0
M  V30 4351 C 430.96 2.31929 3.64462 0
M  V30 4352 C 430.095 2.04276 4.90352 0
M  V30 4353 C 429.134 3.224 5.20312 0
M  V30 4354 N 428.271 2.94424 6.37385 0
M  V30 4355 H 433.111 2.25589 1.94714 0
M  V30 4356 H 430.648 1.12122 0.952216 0
M  V30 4357 H 432.606 0.958133 4.06049 0
M  V30 4358 H 431.236 0.183014 3.22281 0
M  V30 4359 H 430.288 2.56703 2.80727 0
M  V30 4360 H 431.6 3.20085 3.82553 0
M  V30 4361 H 430.754 1.87231 5.77087 0
M  V30 4362 H 429.493 1.13428 4.74326 0
M  V30 4363 H 428.498 3.40005 4.32061 0
M  V30 4364 H 429.723 4.14071 5.38258 0
M  V30 4365 H 427.669 2.06185 6.22755 0
M  V30 4366 H 427.586 3.76118 6.55798 0
M  V30 4367 H 428.854 2.80953 7.27108 0
M  V30 4368 N 433.083 -1.0153 1.20538 0
M  V30 4369 C 434.015 -2.10224 0.913155 0
M  V30 4370 C 435.028 -1.62495 -0.0995998 0
M  V30 4371 O 436.217 -1.78014 0.131582 0
M  V30 4372 C 433.317 -3.37111 0.347717 0
M  V30 4373 C 432.49 -4.13971 1.41233 0
M  V30 4374 C 431.549 -5.19158 0.857976 0
M  V30 4375 O 430.575 -5.48 1.53897 0
M  V30 4376 N 431.777 -5.7955 -0.331966 0
M  V30 4377 H 434.542 -2.35879 1.84881 0
M  V30 4378 H 432.103 -1.17931 1.10923 0
M  V30 4379 H 434.095 -4.04683 -0.0373026 0
M  V30 4380 H 432.665 -3.08696 -0.492527 0
M  V30 4381 H 431.885 -3.41351 1.97163 0
M  V30 4382 H 433.173 -4.62103 2.12928 0
M  V30 4383 H 432.571 -5.58455 -0.902478 0
M  V30 4384 H 431.128 -6.48464 -0.65861 0
M  V30 4385 N 434.561 -1.01147 -1.20859 0
M  V30 4386 C 435.471 -0.58686 -2.27141 0
M  V30 4387 C 436.487 0.373198 -1.69951 0
M  V30 4388 O 437.663 0.235423 -2.00019 0
M  V30 4389 C 434.728 0.0733602 -3.46622 0
M  V30 4390 C 433.789 -0.931995 -4.19061 0
M  V30 4391 C 433.022 -0.303186 -5.32838 0
M  V30 4392 O 433.245 0.898395 -5.63281 0
M  V30 4393 O 432.179 -1.01735 -5.9324 0
M  V30 4394 H 436.005 -1.47155 -2.65667 0
M  V30 4395 H 433.59 -0.780689 -1.2738 0
M  V30 4396 H 435.472 0.442333 -4.19072 0
M  V30 4397 H 434.147 0.932329 -3.09983 0
M  V30 4398 H 433.054 -1.35224 -3.48805 0
M  V30 4399 H 434.387 -1.76076 -4.59628 0
M  V30 4400 N 436.039 1.36541 -0.78704 0
M  V30 4401 C 436.986 2.30082 -0.181901 0
M  V30 4402 C 437.956 1.5186 0.672896 0
M  V30 4403 O 439.141 1.80374 0.622072 0
M  V30 4404 C 436.281 3.3835 0.679197 0
M  V30 4405 C 435.394 4.31565 -0.193882 0
M  V30 4406 C 434.529 5.26915 0.673364 0
M  V30 4407 C 433.568 6.11769 -0.201315 0
M  V30 4408 N 432.705 6.99315 0.624777 0
M  V30 4409 H 437.545 2.81248 -0.985064 0
M  V30 4410 H 435.082 1.38437 -0.497342 0
M  V30 4411 H 437.04 3.99767 1.19341 0
M  V30 4412 H 435.67 2.8851 1.44781 0
M  V30 4413 H 434.722 3.71323 -0.826044 0
M  V30 4414 H 436.034 4.91191 -0.867937 0
M  V30 4415 H 435.188 5.9361 1.25348 0
M  V30 4416 H 433.927 4.67737 1.38105 0
M  V30 4417 H 432.932 5.44039 -0.793849 0
M  V30 4418 H 434.157 6.73022 -0.906568 0
M  V30 4419 H 432.103 6.42648 1.3168 0
M  V30 4420 H 432.02 7.56 0.00835237 0
M  V30 4421 H 433.288 7.70382 1.18879 0
M  V30 4422 N 437.518 0.538854 1.48102 0
M  V30 4423 C 438.448 -0.207654 2.32575 0
M  V30 4424 C 439.429 -0.926559 1.4265 0
M  V30 4425 O 440.614 -0.91061 1.71527 0
M  V30 4426 C 437.744 -1.24957 3.24042 0
M  V30 4427 C 436.698 -0.648263 4.23062 0
M  V30 4428 C 436.024 -1.79348 5.03725 0
M  V30 4429 C 437.324 0.385897 5.20872 0
M  V30 4430 H 439.018 0.497534 2.95237 0
M  V30 4431 H 436.564 0.240715 1.41974 0
M  V30 4432 H 438.517 -1.77983 3.81969 0
M  V30 4433 H 437.241 -1.98446 2.59397 0
M  V30 4434 H 435.9 -0.139452 3.66335 0
M  V30 4435 H 435.548 -2.51696 4.35498 0
M  V30 4436 H 435.248 -1.39702 5.70751 0
M  V30 4437 H 436.772 -2.32735 5.64506 0
M  V30 4438 H 438.186 -0.057607 5.73271 0
M  V30 4439 H 436.583 0.700227 5.96001 0
M  V30 4440 H 437.653 1.28848 4.67468 0
M  V30 4441 N 438.996 -1.55193 0.274407 0
M  V30 4442 C 440.244 -1.99187 -0.341902 0
M  V30 4443 C 440.565 -1.16422 -1.56431 0
M  V30 4444 O 439.835 -0.253573 -1.94252 0
M  V30 4445 H 438.415 -0.735721 -0.129317 0
M  V30 4446 H 441.077 -1.91168 0.379578 0
M  V30 4447 H 440.173 -3.05629 -0.632253 0
M  V30 4448 N 440.474 -0.00167713 -1.576 0
M  V30 4449 C 441.702 0.693759 -1.94922 0
M  V30 4450 C 442.117 1.67215 -0.876626 0
M  V30 4451 O 441.474 1.81929 0.144279 0
M  V30 4452 C 441.525 1.42416 -3.32265 0
M  V30 4453 O 441.246 0.485014 -4.35407 0
M  V30 4454 C 442.747 2.21395 -3.84056 0
M  V30 4455 H 439.967 0.193118 -0.642609 0
M  V30 4456 H 442.511 -0.0532952 -2.04431 0
M  V30 4457 H 440.666 2.12284 -3.24059 0
M  V30 4458 H 441.08 1.00053 -5.14868 0
M  V30 4459 H 442.554 2.67996 -4.82578 0
M  V30 4460 H 443.031 3.04142 -3.16851 0
M  V30 4461 H 443.637 1.56542 -3.95443 0
M  V30 4462 N 441.952 1.55251 0.271103 0
M  V30 4463 C 443.198 1.76207 1.00394 0
M  V30 4464 C 443.531 0.562604 1.85872 0
M  V30 4465 O 442.806 -0.439785 1.89463 0
M  V30 4466 C 443.089 3.06828 1.8849 0
M  V30 4467 C 442.942 4.37134 1.05992 0
M  V30 4468 C 444.261 3.33503 2.87165 0
M  V30 4469 H 441.38 0.641086 0.363562 0
M  V30 4470 H 444.022 1.87982 0.276189 0
M  V30 4471 H 442.172 2.96921 2.5054 0
M  V30 4472 H 443.844 4.59001 0.459978 0
M  V30 4473 H 442.087 4.32275 0.363443 0
M  V30 4474 H 442.758 5.2486 1.70955 0
M  V30 4475 H 445.234 3.43215 2.3525 0
M  V30 4476 H 444.11 4.2616 3.45946 0
M  V30 4477 H 444.371 2.53235 3.62387 0
M  V30 4478 N 443.43 -0.535701 1.48216 0
M  V30 4479 C 444.66 -1.3148 1.59363 0
M  V30 4480 C 445.068 -1.8753 0.250844 0
M  V30 4481 O 444.411 -1.66821 -0.769174 0
M  V30 4482 C 444.473 -2.50731 2.57632 0
M  V30 4483 C 444.137 -2.15811 4.02833 0
M  V30 4484 C 445.134 -1.71822 4.90686 0
M  V30 4485 C 442.819 -2.26509 4.48329 0
M  V30 4486 C 444.813 -1.3899 6.22062 0
M  V30 4487 C 442.5 -1.93289 5.79726 0
M  V30 4488 C 443.498 -1.49599 6.66415 0
M  V30 4489 O 443.186 -1.16812 7.95368 0
M  V30 4490 H 442.918 -0.406315 0.540263 0
M  V30 4491 H 445.472 -0.653569 1.94725 0
M  V30 4492 H 443.702 -3.19817 2.1738 0
M  V30 4493 H 445.391 -3.12797 2.58675 0
M  V30 4494 H 446.157 -1.63031 4.56778 0
M  V30 4495 H 442.036 -2.59471 3.81045 0
M  V30 4496 H 445.58 -1.04816 6.89681 0
M  V30 4497 H 441.477 -2.01718 6.13172 0
M  V30 4498 H 442.245 -1.30259 8.08069 0
M  V30 4499 N 444.908 -1.36708 -0.784132 0
M  V30 4500 C 446.148 -1.32618 -1.55537 0
M  V30 4501 C 446.512 0.0920681 -1.91779 0
M  V30 4502 O 447.713 0.257573 -2.67563 0
M  V30 4503 C 445.984 -2.22788 -2.79464 0
M  V30 4504 S 447.543 -2.36432 -3.69656 0
M  V30 4505 H 444.361 -0.470973 -0.53264 0
M  V30 4506 H 446.963 -1.72333 -0.92312 0
M  V30 4507 H 445.667 -3.24774 -2.50899 0
M  V30 4508 H 445.198 -1.84112 -3.47658 0
M  V30 4509 H 447.213 -1.56573 -4.7085 0
M  V30 4510 N 446.386 1.0089 -1.21074 0
M  V30 4511 C 447.318 2.09737 -0.924291 0
M  V30 4512 C 448.331 1.62546 0.0909809 0
M  V30 4513 O 449.52 1.77942 -0.141021 0
M  V30 4514 C 446.62 3.36922 -0.36559 0
M  V30 4515 C 445.793 4.13216 -1.43426 0
M  V30 4516 C 444.852 5.18696 -0.885496 0
M  V30 4517 O 443.878 5.47176 -1.56801 0
M  V30 4518 N 445.08 5.79718 0.301227 0
M  V30 4519 H 447.845 2.34895 -1.8613 0
M  V30 4520 H 445.406 1.17341 -1.11546 0
M  V30 4521 H 447.398 4.04697 0.0158407 0
M  V30 4522 H 445.968 3.08952 0.476149 0
M  V30 4523 H 445.188 3.40301 -1.9897 0
M  V30 4524 H 446.476 4.60967 -2.15376 0
M  V30 4525 H 445.874 5.58926 0.872849 0
M  V30 4526 H 444.431 6.48804 0.624211 0
M  V30 4527 N 447.864 1.01787 1.20321 0
M  V30 4528 C 448.827 0.593972 2.2137 0
M  V30 4529 C 449.827 -0.336553 1.57239 0
M  V30 4530 O 451.017 -0.125069 1.7375 0
M  V30 4531 C 448.149 -0.132433 3.40643 0
M  V30 4532 H 449.342 1.48791 2.60387 0
M  V30 4533 H 446.895 0.807803 1.33807 0
M  V30 4534 H 447.63 -1.04123 3.0713 0
M  V30 4535 H 447.415 0.53605 3.88418 0
M  V30 4536 H 448.905 -0.416314 4.1552 0
M  V30 4537 N 449.342 -1.36122 0.79427 0
M  V30 4538 C 450.567 -2.03891 0.379871 0
M  V30 4539 C 450.992 -1.59488 -0.997251 0
M  V30 4540 O 450.35 -0.765652 -1.64339 0
M  V30 4541 C 450.398 -3.57687 0.457442 0
M  V30 4542 O 449.502 -4.08931 -0.5338 0
M  V30 4543 H 448.843 -0.6443 0.160541 0
M  V30 4544 H 451.373 -1.73976 1.07673 0
M  V30 4545 H 451.383 -4.06721 0.322792 0
M  V30 4546 H 450.058 -3.89357 1.46199 0
M  V30 4547 H 448.635 -3.71154 -0.360409 0
M  V30 4548 N 450.82 -0.546701 -1.47814 0
M  V30 4549 C 452.067 -0.0187407 -2.02491 0
M  V30 4550 C 452.395 1.32685 -1.42215 0
M  V30 4551 O 451.65 1.87413 -0.563454 0
M  V30 4552 C 451.949 0.134869 -3.57145 0
M  V30 4553 C 451.615 -1.13849 -4.3629 0
M  V30 4554 C 450.277 -1.48743 -4.57634 0
M  V30 4555 C 452.629 -1.98277 -4.82012 0
M  V30 4556 C 449.957 -2.67932 -5.21948 0
M  V30 4557 C 452.309 -3.16659 -5.4764 0
M  V30 4558 C 450.973 -3.51879 -5.67219 0
M  V30 4559 H 450.243 -0.0068577 -0.740968 0
M  V30 4560 H 452.89 -0.716097 -1.77607 0
M  V30 4561 H 451.195 0.915118 -3.80963 0
M  V30 4562 H 452.892 0.558556 -3.97091 0
M  V30 4563 H 449.482 -0.856767 -4.19949 0
M  V30 4564 H 453.666 -1.72628 -4.6531 0
M  V30 4565 H 448.922 -2.95401 -5.35302 0
M  V30 4566 H 453.096 -3.82374 -5.82033 0
M  V30 4567 H 450.723 -4.44331 -6.16825 0
M  V30 4568 N 452.299 1.55045 -0.282633 0
M  V30 4569 C 453.71 1.85473 0.213655 0
M  V30 4570 C 454.061 1.20465 1.54863 0
M  V30 4571 O 453.186 0.495676 2.10647 0
M  V30 4572 C 453.781 3.36496 0.394445 0
M  V30 4573 C 452.34 3.67022 0.834961 0
M  V30 4574 C 451.487 2.77218 -0.0674081 0
M  V30 4575 H 454.438 1.50478 -0.504202 0
M  V30 4576 H 454.459 3.60007 1.23186 0
M  V30 4577 H 453.971 3.83782 -0.577326 0
M  V30 4578 H 452.072 3.25241 1.81794 0
M  V30 4579 H 452.185 4.74433 0.667075 0
M  V30 4580 H 450.549 2.5069 0.450196 0
M  V30 4581 H 451.332 3.2732 -1.0352 0
M  V30 4582 N 453.777 0.010035 1.57597 0
M  V30 4583 C 455.025 -0.671371 1.90623 0
M  V30 4584 C 455.346 -1.73753 0.885151 0
M  V30 4585 O 454.616 -1.95752 -0.0760611 0
M  V30 4586 H 453.196 -0.250968 0.703579 0
M  V30 4587 H 455.858 0.0533325 1.94827 0
M  V30 4588 H 454.954 -1.13626 2.90681 0
M  V30 4589 N 455.255 -1.55392 -0.262866 0
M  V30 4590 C 456.218 -1.88181 -1.30846 0
M  V30 4591 C 457.218 -0.757079 -1.41862 0
M  V30 4592 O 458.408 -1.02519 -1.40838 0
M  V30 4593 C 455.54 -2.09609 -2.68844 0
M  V30 4594 H 456.733 -2.81659 -1.02997 0
M  V30 4595 H 454.286 -1.48039 -0.501414 0
M  V30 4596 H 455.021 -1.18547 -3.01856 0
M  V30 4597 H 454.806 -2.91508 -2.62231 0
M  V30 4598 H 456.296 -2.36215 -3.44372 0
M  V30 4599 N 456.733 0.527833 -1.48498 0
M  V30 4600 C 457.681 1.65313 -1.63628 0
M  V30 4601 C 458.675 1.6177 -0.502676 0
M  V30 4602 O 459.881 1.66601 -0.681469 0
M  V30 4603 H 456.256 0.547518 -0.515488 0
M  V30 4604 H 458.227 1.49696 -2.58135 0
M  V30 4605 C 456.976 3.03576 -1.6952 0
M  V30 4606 H 456.299 3.06997 -2.56111 0
M  V30 4607 H 457.739 3.81923 -1.84149 0
M  V30 4608 C 456.198 3.34089 -0.43432 0
M  V30 4609 O 456.728 3.99151 0.451852 0
M  V30 4610 N 454.934 2.88991 -0.305368 0
M  V30 4611 H 454.481 2.36222 -1.02747 0
M  V30 4612 H 454.439 3.09776 0.537249 0
M  V30 4613 N 458.211 1.37122 0.776871 0
M  V30 4614 C 459.46 1.31373 1.53049 0
M  V30 4615 C 459.773 -0.101016 1.95339 0
M  V30 4616 O 460.979 -0.280953 2.70042 0
M  V30 4617 C 459.435 2.30567 2.76346 0
M  V30 4618 C 459.043 3.77543 2.41175 0
M  V30 4619 C 460.787 2.33818 3.54301 0
M  V30 4620 C 458.694 4.68481 3.60943 0
M  V30 4621 H 457.624 0.488234 0.574581 0
M  V30 4622 H 460.275 1.62554 0.851372 0
M  V30 4623 H 458.657 1.92396 3.46121 0
M  V30 4624 H 459.831 4.24521 1.79216 0
M  V30 4625 H 458.146 3.77187 1.76405 0
M  V30 4626 H 460.743 2.98965 4.4331 0
M  V30 4627 H 461.086 1.3503 3.93793 0
M  V30 4628 H 461.619 2.7067 2.91518 0
M  V30 4629 H 458.358 5.68378 3.26537 0
M  V30 4630 H 457.878 4.2621 4.22025 0
M  V30 4631 H 459.557 4.85366 4.27819 0
M  V30 4632 N 459.689 -1.00246 1.21608 0
M  V30 4633 C 460.938 -1.73476 1.02902 0
M  V30 4634 C 461.251 -1.90643 -0.437561 0
M  V30 4635 O 462.457 -2.61105 -0.74407 0
M  V30 4636 C 460.913 -3.12079 1.79261 0
M  V30 4637 C 460.521 -3.02877 3.30106 0
M  V30 4638 C 462.265 -3.89421 1.68972 0
M  V30 4639 C 460.172 -4.36575 3.98944 0
M  V30 4640 H 459.102 -0.650408 0.381425 0
M  V30 4641 H 461.753 -1.11985 1.45367 0
M  V30 4642 H 460.135 -3.74196 1.2959 0
M  V30 4643 H 461.309 -2.49983 3.87098 0
M  V30 4644 H 459.624 -2.39022 3.40965 0
M  V30 4645 H 462.221 -4.88362 2.17731 0
M  V30 4646 H 462.564 -4.1122 0.648397 0
M  V30 4647 H 463.097 -3.33963 2.16133 0
M  V30 4648 H 459.836 -4.19978 5.03288 0
M  V30 4649 H 459.356 -4.8942 3.4674 0
M  V30 4650 H 461.035 -5.05364 4.04 0
M  V30 4651 N 461.167 -1.02423 -1.1978 0
M  V30 4652 C 462.415 -0.716569 -1.8897 0
M  V30 4653 C 462.736 0.756769 -1.79716 0
M  V30 4654 O 462.006 1.5449 -1.20456 0
M  V30 4655 H 460.586 -0.262062 -0.699523 0
M  V30 4656 H 463.248 -1.29747 -1.45436 0
M  V30 4657 H 462.344 -1.00675 -2.95417 0
M  V30 4658 N 462.645 1.35699 -0.801477 0
M  V30 4659 C 463.593 2.3177 -0.196317 0
M  V30 4660 C 464.587 1.56388 0.651081 0
M  V30 4661 O 465.793 1.71557 0.544815 0
M  V30 4662 H 462.168 0.750669 -0.0447189 0
M  V30 4663 H 464.139 2.8036 -1.02181 0
M  V30 4664 C 462.888 3.41671 0.644702 0
M  V30 4665 H 462.211 3.998 0.0019921 0
M  V30 4666 H 463.651 4.11184 1.0346 0
M  V30 4667 C 462.11 2.84271 1.80808 0
M  V30 4668 O 462.64 2.77408 2.9053 0
M  V30 4669 N 460.846 2.41391 1.61799 0
M  V30 4670 H 460.393 2.47173 0.725493 0
M  V30 4671 H 460.351 2.03334 2.39797 0
M  V30 4672 N 464.123 0.554532 1.47522 0
M  V30 4673 C 465.07 -0.19466 2.29978 0
M  V30 4674 C 466.04 -0.910882 1.38896 0
M  V30 4675 O 467.225 -0.907102 1.67858 0
M  V30 4676 C 464.365 -1.22035 3.22802 0
M  V30 4677 C 463.478 -0.510474 4.28973 0
M  V30 4678 C 462.613 -1.52123 5.08952 0
M  V30 4679 C 461.652 -0.796173 6.069 0
M  V30 4680 N 460.789 -1.75363 6.79847 0
M  V30 4681 H 465.629 0.51461 2.93523 0
M  V30 4682 H 463.166 0.265607 1.44682 0
M  V30 4683 H 465.124 -1.8276 3.7504 0
M  V30 4684 H 463.754 -1.89769 2.61127 0
M  V30 4685 H 462.806 0.211234 3.79813 0
M  V30 4686 H 464.118 0.0576503 4.98767 0
M  V30 4687 H 463.272 -2.20207 5.65326 0
M  V30 4688 H 462.011 -2.12327 4.39054 0
M  V30 4689 H 461.016 -0.101388 5.49707 0
M  V30 4690 H 462.241 -0.199911 6.78806 0
M  V30 4691 H 460.187 -2.3443 6.12682 0
M  V30 4692 H 460.104 -1.23759 7.45801 0
M  V30 4693 H 461.372 -2.4257 7.40797 0
M  V30 4694 N 465.601 -1.54893 0.290851 0
M  V30 4695 C 466.534 -2.19289 -0.631489 0
M  V30 4696 C 467.512 -1.15893 -1.14051 0
M  V30 4697 O 468.696 -1.4449 -1.21058 0
M  V30 4698 C 465.823 -2.82866 -1.86291 0
M  V30 4699 C 464.869 -3.997 -1.48801 0
M  V30 4700 S 465.702 -5.32641 -0.552644 0
M  V30 4701 C 466.858 -5.99696 -1.79209 0
M  V30 4702 H 467.091 -2.9718 -0.0843791 0
M  V30 4703 H 464.624 -1.54218 0.075031 0
M  V30 4704 H 466.582 -3.20124 -2.56964 0
M  V30 4705 H 465.243 -2.04839 -2.38117 0
M  V30 4706 H 464.436 -4.42932 -2.40473 0
M  V30 4707 H 464.038 -3.63947 -0.861321 0
M  V30 4708 H 466.33 -6.19886 -2.734 0
M  V30 4709 H 467.273 -6.94071 -1.40251 0
M  V30 4710 H 467.681 -5.29226 -1.96419 0
M  V30 4711 N 467.08 -0.0183926 -1.57589 0
M  V30 4712 C 468.305 0.676634 -1.96052 0
M  V30 4713 C 468.73 1.6548 -0.894307 0
M  V30 4714 O 468.088 1.80712 0.145849 0
M  V30 4715 C 468.136 1.36872 -3.33614 0
M  V30 4716 O 467.24 2.48372 -3.29219 0
M  V30 4717 H 466.581 0.1786 -0.63953 0
M  V30 4718 H 469.111 -0.077056 -2.04455 0
M  V30 4719 H 469.121 1.72797 -3.69601 0
M  V30 4720 H 467.796 0.651636 -4.10763 0
M  V30 4721 H 466.373 2.14639 -3.04934 0
M  V30 4722 N 468.558 1.5553 0.254621 0
M  V30 4723 C 469.521 1.88872 1.29846 0
M  V30 4724 C 470.521 0.764591 1.41459 0
M  V30 4725 O 471.711 1.03265 1.40293 0
M  V30 4726 C 468.843 2.11032 2.67728 0
M  V30 4727 H 470.036 2.82201 1.01502 0
M  V30 4728 H 467.589 1.48303 0.493556 0
M  V30 4729 H 468.324 1.20146 3.01223 0
M  V30 4730 H 468.109 2.92895 2.60682 0
M  V30 4731 H 469.599 2.38038 3.43115 0
M  V30 4732 N 470.036 -0.519951 1.48776 0
M  V30 4733 C 471.285 -1.27175 1.56555 0
M  V30 4734 C 471.598 -1.9401 0.248869 0
M  V30 4735 O 472.804 -2.70725 0.205004 0
M  V30 4736 C 471.26 -2.30811 2.76142 0
M  V30 4737 C 470.868 -1.7 4.14493 0
M  V30 4738 C 472.612 -3.06937 2.9324 0
M  V30 4739 C 470.519 -2.71635 5.25327 0
M  V30 4740 H 469.449 -0.478329 0.582853 0
M  V30 4741 H 472.1 -0.547916 1.75129 0
M  V30 4742 H 470.482 -3.06274 2.51023 0
M  V30 4743 H 471.656 -1.00658 4.49672 0
M  V30 4744 H 469.971 -1.06331 4.02595 0
M  V30 4745 H 472.568 -3.82905 3.73213 0
M  V30 4746 H 472.911 -3.63409 2.03075 0
M  V30 4747 H 473.444 -2.38589 3.18308 0
M  V30 4748 H 470.183 -2.1997 6.1749 0
M  V30 4749 H 469.703 -3.39275 4.94624 0
M  V30 4750 H 471.382 -3.34429 5.53865 0
M  V30 4751 N 471.514 -1.37532 -0.769588 0
M  V30 4752 C 472.739 -1.36231 -1.56384 0
M  V30 4753 C 473.164 0.0495849 -1.88035 0
M  V30 4754 O 472.522 1.02723 -1.49391 0
M  V30 4755 C 472.57 -2.20986 -2.84952 0
M  V30 4756 O 471.674 -1.61597 -3.79421 0
M  V30 4757 H 471.015 -0.465387 -0.473615 0
M  V30 4758 H 473.545 -1.81085 -0.952342 0
M  V30 4759 H 473.555 -2.34277 -3.34034 0
M  V30 4760 H 472.23 -3.23612 -2.61243 0
M  V30 4761 H 470.807 -1.57359 -3.38072 0
M  V30 4762 N 472.992 0.995999 -1.22138 0
M  V30 4763 C 474.238 1.73767 -1.04561 0
M  V30 4764 C 474.571 1.89633 0.418698 0
M  V30 4765 O 473.846 1.43723 1.3105 0
M  V30 4766 C 474.129 3.14505 -1.75382 0
M  V30 4767 C 473.982 3.06306 -3.29388 0
M  V30 4768 C 475.301 4.13615 -1.50369 0
M  V30 4769 H 472.42 0.630728 -0.38125 0
M  V30 4770 H 475.062 1.16057 -1.50435 0
M  V30 4771 H 473.212 3.63775 -1.36383 0
M  V30 4772 H 474.884 2.64681 -3.77812 0
M  V30 4773 H 473.127 2.43186 -3.59226 0
M  V30 4774 H 473.798 4.05884 -3.74116 0
M  V30 4775 H 476.274 3.73089 -1.84239 0
M  V30 4776 H 475.15 5.10212 -2.02421 0
M  V30 4777 H 475.411 4.39949 -0.435611 0
M  V30 4778 N 474.47 1.03057 1.19235 0
M  V30 4779 C 475.42 0.583386 2.2041 0
M  V30 4780 C 476.404 -0.368776 1.56617 0
M  V30 4781 O 477.596 -0.189471 1.75983 0
M  V30 4782 C 474.725 -0.0626534 3.43243 0
M  V30 4783 C 473.811 0.91205 4.14177 0
M  V30 4784 N 474.202 2.07514 4.61272 0
M  V30 4785 C 472.5 0.735859 4.39888 0
M  V30 4786 C 473.201 2.69003 5.15764 0
M  V30 4787 N 472.177 1.96954 5.06666 0
M  V30 4788 H 475.979 1.46988 2.54503 0
M  V30 4789 H 473.493 0.897785 1.35328 0
M  V30 4790 H 475.49 -0.400653 4.1497 0
M  V30 4791 H 474.15 -0.944813 3.1065 0
M  V30 4792 H 475.161 2.45448 4.56043 0
M  V30 4793 H 471.838 -0.0970656 4.17387 0
M  V30 4794 H 473.228 3.67514 5.6248 0
M  V30 4795 N 475.948 -1.35272 0.808662 0
M  V30 4796 C 477.196 -1.98316 0.389233 0
M  V30 4797 C 477.517 -1.64465 -1.04767 0
M  V30 4798 O 476.787 -0.928175 -1.72516 0
M  V30 4799 H 475.367 -0.733585 0.140935 0
M  V30 4800 H 478.029 -1.6515 1.03496 0
M  V30 4801 H 477.125 -3.08123 0.496631 0
M  V30 4802 N 477.426 -0.562348 -1.47226 0
M  V30 4803 C 478.672 -0.0402761 -2.0276 0
M  V30 4804 C 479.005 1.30823 -1.43523 0
M  V30 4805 O 478.28 1.85249 -0.592705 0
M  V30 4806 C 478.563 0.047311 -3.60069 0
M  V30 4807 C 478.416 -1.32865 -4.29729 0
M  V30 4808 C 479.735 0.758182 -4.3352 0
M  V30 4809 H 476.854 -0.0161105 -0.736824 0
M  V30 4810 H 479.496 -0.725628 -1.75598 0
M  V30 4811 H 477.646 0.630986 -3.83342 0
M  V30 4812 H 479.318 -1.95593 -4.17781 0
M  V30 4813 H 477.561 -1.90195 -3.89882 0
M  V30 4814 H 478.232 -1.22004 -5.38349 0
M  V30 4815 H 480.708 0.262546 -4.15271 0
M  V30 4816 H 479.584 0.78844 -5.43208 0
M  V30 4817 H 479.845 1.81537 -4.03109 0
M  V30 4818 N 478.904 1.54736 -0.299062 0
M  V30 4819 C 480.129 2.04975 0.316254 0
M  V30 4820 C 480.554 1.17501 1.46885 0
M  V30 4821 O 479.912 0.178678 1.80417 0
M  V30 4822 C 479.96 3.52672 0.751997 0
M  V30 4823 O 479.064 3.68226 1.85697 0
M  V30 4824 H 478.405 0.661126 0.0617175 0
M  V30 4825 H 480.935 1.99805 -0.440341 0
M  V30 4826 H 480.945 3.94488 1.04133 0
M  V30 4827 H 479.62 4.158 -0.0911482 0
M  V30 4828 H 478.197 3.38316 1.56834 0
M  V30 4829 N 480.382 0.0267497 1.57577 0
M  V30 4830 C 481.61 -0.662661 1.96001 0
M  V30 4831 C 482.025 -1.65799 0.903117 0
M  V30 4832 O 481.382 -1.82135 -0.115317 0
M  V30 4833 C 481.433 -1.37112 3.34488 0
M  V30 4834 O 481.154 -0.415683 4.36123 0
M  V30 4835 C 482.655 -2.15257 3.8753 0
M  V30 4836 H 479.875 -0.18287 0.6456 0
M  V30 4837 H 482.419 0.0858116 2.0432 0
M  V30 4838 H 480.574 -2.07101 3.27395 0
M  V30 4839 H 480.988 -0.918496 5.16395 0
M  V30 4840 H 482.462 -2.60285 4.86781 0
M  V30 4841 H 482.939 -2.99063 3.21649 0
M  V30 4842 H 483.545 -1.50231 3.97883 0
M  V30 4843 N 481.861 -1.55662 -0.24637 0
M  V30 4844 C 483.086 -1.81914 -0.996093 0
M  V30 4845 C 483.511 -0.603875 -1.78143 0
M  V30 4846 O 482.869 0.447091 -1.75701 0
M  V30 4847 C 482.917 -3.05908 -1.90925 0
M  V30 4848 O 482.021 -2.82861 -3.00105 0
M  V30 4849 H 481.362 -0.600481 -0.283406 0
M  V30 4850 H 483.892 -2.02848 -0.267199 0
M  V30 4851 H 483.902 -3.35356 -2.3238 0
M  V30 4852 H 482.577 -3.93999 -1.33183 0
M  V30 4853 H 481.154 -2.64583 -2.62775 0
M  V30 4854 N 483.339 0.512053 -1.4905 0
M  V30 4855 C 484.587 1.26436 -1.57665 0
M  V30 4856 C 484.908 1.93255 -0.260293 0
M  V30 4857 O 484.178 1.82206 0.719564 0
M  V30 4858 H 482.758 0.469658 -0.580888 0
M  V30 4859 H 485.42 0.594398 -1.85615 0
M  V30 4860 H 484.516 2.03417 -2.36702 0
M  V30 4861 N 484.817 1.37938 0.762283 0
M  V30 4862 C 486.065 1.33404 1.51815 0
M  V30 4863 C 486.386 -0.0780975 1.94844 0
M  V30 4864 O 485.656 -1.02405 1.67003 0
M  V30 4865 H 484.236 0.490839 0.563104 0
M  V30 4866 H 486.898 1.72527 0.906669 0
M  V30 4867 H 485.994 1.97926 2.41313 0
M  V30 4868 N 486.295 -0.989507 1.22664 0
M  V30 4869 C 487.227 -2.0824 0.957542 0
M  V30 4870 C 488.24 -1.6267 -0.0651098 0
M  V30 4871 O 489.429 -1.77695 0.169312 0
M  V30 4872 C 486.529 -3.36298 0.419145 0
M  V30 4873 C 485.702 -4.10882 1.49982 0
M  V30 4874 C 484.761 -5.17221 0.967904 0
M  V30 4875 O 483.787 -5.44613 1.65487 0
M  V30 4876 N 484.989 -5.80124 -0.20896 0
M  V30 4877 H 487.754 -2.31904 1.89843 0
M  V30 4878 H 485.315 -1.15552 1.13399 0
M  V30 4879 H 487.307 -4.04671 0.0485451 0
M  V30 4880 H 485.877 -3.09671 -0.426937 0
M  V30 4881 H 485.097 -3.37092 2.04359 0
M  V30 4882 H 486.385 -4.57482 2.22682 0
M  V30 4883 H 485.783 -5.60244 -0.783818 0
M  V30 4884 H 484.34 -6.49715 -0.520913 0
M  V30 4885 N 487.773 -1.03688 -1.18687 0
M  V30 4886 C 488.706 -0.569112 -2.2099 0
M  V30 4887 C 489.684 0.394315 -1.57746 0
M  V30 4888 O 490.868 0.309519 -1.85941 0
M  V30 4889 C 487.995 0.169104 -3.38278 0
M  V30 4890 C 487.041 -0.746989 -4.19908 0
M  V30 4891 S 487.874 -2.22773 -4.86963 0
M  V30 4892 C 489.03 -1.50025 -6.07654 0
M  V30 4893 H 489.263 -1.43589 -2.60326 0
M  V30 4894 H 486.796 -0.847507 -1.29061 0
M  V30 4895 H 488.754 0.588868 -4.06254 0
M  V30 4896 H 487.415 1.01172 -2.9736 0
M  V30 4897 H 486.608 -0.176626 -5.0369 0
M  V30 4898 H 486.21 -1.10543 -3.5729 0
M  V30 4899 H 488.502 -0.791217 -6.72864 0
M  V30 4900 H 489.445 -2.31498 -6.69189 0
M  V30 4901 H 489.853 -0.994245 -5.55675 0
M  V30 4902 N 489.251 1.34841 -0.815825 0
M  V30 4903 C 490.481 2.02436 -0.412695 0
M  V30 4904 C 490.889 1.61604 0.983906 0
M  V30 4905 O 490.232 0.813729 1.64694 0
M  V30 4906 C 490.294 3.56953 -0.427182 0
M  V30 4907 C 489.958 4.21083 -1.77589 0
M  V30 4908 C 490.955 4.42107 -2.73564 0
M  V30 4909 C 488.64 4.58006 -2.06243 0
M  V30 4910 C 490.634 4.99169 -3.9637 0
M  V30 4911 C 488.321 5.1478 -3.2931 0
M  V30 4912 C 489.319 5.35304 -4.24191 0
M  V30 4913 O 489.007 5.90878 -5.45086 0
M  V30 4914 H 488.739 0.655631 -0.164695 0
M  V30 4915 H 491.293 1.73246 -1.1034 0
M  V30 4916 H 489.523 3.85372 0.320175 0
M  V30 4917 H 491.212 4.05875 -0.0450875 0
M  V30 4918 H 491.978 4.13953 -2.52721 0
M  V30 4919 H 487.857 4.41339 -1.33196 0
M  V30 4920 H 491.401 5.15105 -4.70439 0
M  V30 4921 H 487.298 5.42362 -3.5002 0
M  V30 4922 H 488.066 6.0932 -5.46508 0
M  V30 4923 N 490.729 0.570148 1.46925 0
M  V30 4924 C 491.679 -0.190921 2.27199 0
M  V30 4925 C 492.663 -0.873457 1.35128 0
M  V30 4926 O 493.855 -0.769627 1.59392 0
M  V30 4927 C 490.984 -1.21204 3.21192 0
M  V30 4928 C 490.07 -0.532261 4.20747 0
M  V30 4929 N 490.461 0.405038 5.04176 0
M  V30 4930 C 488.759 -0.784582 4.39045 0
M  V30 4931 C 489.46 0.801149 5.76157 0
M  V30 4932 N 488.436 0.153082 5.43384 0
M  V30 4933 H 492.238 0.529535 2.8909 0
M  V30 4934 H 489.752 0.391019 1.57622 0
M  V30 4935 H 491.749 -1.77135 3.77398 0
M  V30 4936 H 490.409 -1.93345 2.6086 0
M  V30 4937 H 491.42 0.779903 5.11994 0
M  V30 4938 H 488.097 -1.49352 3.89872 0
M  V30 4939 H 489.487 1.57208 6.5325 0
M  V30 4940 N 492.207 -1.54576 0.307264 0
M  V30 4941 C 493.437 -2.04378 -0.302158 0
M  V30 4942 C 493.845 -1.18381 -1.47589 0
M  V30 4943 O 493.188 -0.20352 -1.82569 0
M  V30 4944 C 493.25 -3.50133 -0.815305 0
M  V30 4945 C 492.914 -4.56401 0.233977 0
M  V30 4946 C 493.911 -5.08884 1.06456 0
M  V30 4947 C 491.596 -5.0088 0.377478 0
M  V30 4948 C 493.59 -6.04394 2.02452 0
M  V30 4949 C 491.277 -5.96208 1.34088 0
M  V30 4950 C 492.275 -6.47849 2.16288 0
M  V30 4951 O 491.963 -7.41308 3.10994 0
M  V30 4952 H 491.695 -0.672502 -0.0686839 0
M  V30 4953 H 494.249 -2.00484 0.446682 0
M  V30 4954 H 492.479 -3.51371 -1.61478 0
M  V30 4955 H 494.168 -3.83098 -1.34129 0
M  V30 4956 H 494.934 -4.75311 0.964596 0
M  V30 4957 H 490.813 -4.60309 -0.252405 0
M  V30 4958 H 494.357 -6.44626 2.66652 0
M  V30 4959 H 490.254 -6.29198 1.44154 0
M  V30 4960 H 491.022 -7.5913 3.06045 0
M  V30 4961 N 493.685 -0.035106 -1.57561 0
M  V30 4962 C 494.962 0.681212 -1.83354 0
M  V30 4963 C 495.342 1.89986 -0.920252 0
M  V30 4964 O 494.69 2.28489 0.0226815 0
M  V30 4965 C 494.9 1.05376 -3.32712 0
M  V30 4966 C 496.248 1.44286 -3.99333 0
M  V30 4967 O 497.272 1.14656 -3.37242 0
M  V30 4968 O 496.131 1.99518 -5.08778 0
M  V30 4969 H 493.225 0.334741 -0.756226 0
M  V30 4970 H 495.771 -0.0632448 -1.69582 0
M  V30 4971 H 494.543 0.186668 -3.90854 0
M  V30 4972 H 494.166 1.85619 -3.51613 0
M  V30 4973 N 495.163 1.55791 0.238111 0
M  V30 4974 C 496.096 1.86036 1.32158 0
M  V30 4975 C 497.074 0.716216 1.45976 0
M  V30 4976 O 498.258 0.962882 1.62052 0
M  V30 4977 C 495.385 2.05281 2.69402 0
M  V30 4978 C 494.431 3.27939 2.72687 0
M  V30 4979 S 495.264 4.84342 2.28413 0
M  V30 4980 C 496.42 5.06604 3.67565 0
M  V30 4981 H 496.653 2.77644 1.06306 0
M  V30 4982 H 494.186 1.48012 0.439537 0
M  V30 4983 H 496.144 2.17053 3.48423 0
M  V30 4984 H 494.805 1.14499 2.92487 0
M  V30 4985 H 493.998 3.38398 3.73501 0
M  V30 4986 H 493.6 3.14938 2.01717 0
M  V30 4987 H 495.892 4.94486 4.6313 0
M  V30 4988 H 496.835 6.08554 3.62033 0
M  V30 4989 H 497.243 4.34409 3.60485 0
M  V30 4990 N 496.642 -0.504142 1.49319 0
M  V30 4991 C 497.59 -1.62689 1.66238 0
M  V30 4992 C 498.584 -1.6095 0.528349 0
M  V30 4993 O 499.79 -1.65496 0.707887 0
M  V30 4994 H 496.165 -0.539247 0.524134 0
M  V30 4995 H 498.136 -1.45571 2.60484 0
M  V30 4996 C 496.885 -3.00841 1.74328 0
M  V30 4997 H 496.208 -3.02884 2.60963 0
M  V30 4998 H 497.648 -3.78945 1.90202 0
M  V30 4999 C 496.107 -3.33355 0.487416 0
M  V30 5000 O 496.637 -3.99819 -0.388294 0
M  V30 5001 N 494.843 -2.88469 0.351306 0
M  V30 5002 H 494.39 -2.34557 1.06492 0
M  V30 5003 H 494.348 -3.10591 -0.487899 0
M  V30 5004 N 498.12 -1.38341 -0.754957 0
M  V30 5005 C 499.348 -1.37704 -1.54419 0
M  V30 5006 C 499.763 0.0335243 -1.8877 0
M  V30 5007 O 499.12 0.999773 -1.52679 0
M  V30 5008 C 499.171 -2.23136 -2.84416 0
M  V30 5009 O 498.892 -3.58697 -2.51531 0
M  V30 5010 C 500.393 -2.30664 -3.78562 0
M  V30 5011 H 497.613 -0.471061 -0.477852 0
M  V30 5012 H 500.157 -1.81902 -0.934446 0
M  V30 5013 H 498.312 -1.82403 -3.41772 0
M  V30 5014 H 498.726 -4.03665 -3.34896 0
M  V30 5015 H 500.2 -2.9473 -4.66732 0
M  V30 5016 H 500.677 -1.3199 -4.18898 0
M  V30 5017 H 501.283 -2.71781 -3.27131 0
M  V30 5018 N 499.598 0.982988 -1.23187 0
M  V30 5019 C 500.561 2.05649 -1.01198 0
M  V30 5020 C 501.561 1.6078 0.0252464 0
M  V30 5021 O 502.751 1.72878 -0.214243 0
M  V30 5022 C 499.883 3.36744 -0.530656 0
M  V30 5023 H 501.076 2.2659 -1.96461 0
M  V30 5024 H 498.629 1.15602 -1.05195 0
M  V30 5025 H 499.364 3.21492 0.425873 0
M  V30 5026 H 499.149 3.7065 -1.2791 0
M  V30 5027 H 500.639 4.15705 -0.397366 0
M  V30 5028 N 501.076 1.04316 1.18135 0
M  V30 5029 C 502.301 0.768047 1.92655 0
M  V30 5030 C 502.726 -0.66904 1.758 0
M  V30 5031 O 502.084 -1.46372 1.06981 0
M  V30 5032 C 502.132 1.14239 3.42026 0
M  V30 5033 O 501.236 0.269333 4.1152 0
M  V30 5034 H 500.577 0.282436 0.600937 0
M  V30 5035 H 503.107 1.39367 1.49793 0
M  V30 5036 H 503.117 1.10538 3.92741 0
M  V30 5037 H 501.792 2.18928 3.53615 0
M  V30 5038 H 500.369 0.366175 3.71098 0
M  V30 5039 N 502.554 -1.34406 0.822964 0
M  V30 5040 C 503.484 -2.32052 0.259608 0
M  V30 5041 C 504.465 -1.58243 -0.623961 0
M  V30 5042 O 505.65 -1.86224 -0.55083 0
M  V30 5043 C 502.78 -3.42434 -0.579314 0
M  V30 5044 C 501.734 -4.27499 0.20712 0
M  V30 5045 C 501.06 -5.29349 -0.754547 0
M  V30 5046 C 502.36 -5.02758 1.41533 0
M  V30 5047 H 504.054 -2.79418 1.07545 0
M  V30 5048 H 501.6 -1.34338 0.518593 0
M  V30 5049 H 503.553 -4.0976 -0.983612 0
M  V30 5050 H 502.277 -2.93717 -1.4282 0
M  V30 5051 H 500.936 -3.61776 0.592787 0
M  V30 5052 H 500.584 -4.76895 -1.59939 0
M  V30 5053 H 500.284 -5.8714 -0.232561 0
M  V30 5054 H 501.808 -5.99544 -1.1567 0
M  V30 5055 H 503.222 -5.62938 1.08504 0
M  V30 5056 H 501.619 -5.70123 1.87296 0
M  V30 5057 H 502.689 -4.32451 2.1935 0
M  V30 5058 N 504.032 -0.577932 -1.46621 0
M  V30 5059 C 505.257 -0.0652536 -2.07297 0
M  V30 5060 C 505.682 1.22828 -1.4246 0
M  V30 5061 O 505.04 1.74075 -0.506718 0
M  V30 5062 C 505.088 0.0920589 -3.60482 0
M  V30 5063 O 504.192 1.14972 -3.96049 0
M  V30 5064 H 503.533 -0.06065 -0.661224 0
M  V30 5065 H 506.063 -0.799515 -1.88332 0
M  V30 5066 H 506.073 0.299741 -4.06897 0
M  V30 5067 H 504.748 -0.852612 -4.07067 0
M  V30 5068 H 503.325 0.920879 -3.61351 0
M  V30 5069 N 505.51 1.54411 -0.315457 0
M  V30 5070 C 506.442 2.21527 0.588067 0
M  V30 5071 C 507.455 1.21263 1.08624 0
M  V30 5072 O 508.644 1.47777 1.00121 0
M  V30 5073 C 505.744 2.85963 1.81875 0
M  V30 5074 C 504.917 4.12291 1.46063 0
M  V30 5075 C 503.976 4.60396 2.54799 0
M  V30 5076 O 503.002 5.25265 2.19283 0
M  V30 5077 N 504.204 4.33935 3.85591 0
M  V30 5078 H 506.969 2.99697 0.013414 0
M  V30 5079 H 504.53 1.61308 -0.138295 0
M  V30 5080 H 506.522 3.15071 2.53993 0
M  V30 5081 H 505.092 2.11548 2.30144 0
M  V30 5082 H 504.312 3.90036 0.571445 0
M  V30 5083 H 505.6 4.9452 1.19695 0
M  V30 5084 H 504.998 3.81996 4.17248 0
M  V30 5085 H 503.555 4.67718 4.53964 0
M  V30 5086 N 506.988 0.0434614 1.5754 0
M  V30 5087 C 507.92 -0.962586 2.08007 0
M  V30 5088 C 508.933 -1.27972 1.00634 0
M  V30 5089 O 510.122 -1.24186 1.28219 0
M  V30 5090 C 507.222 -2.28621 2.50171 0
M  V30 5091 C 506.395 -2.15214 3.80791 0
M  V30 5092 C 505.454 -3.30633 4.09351 0
M  V30 5093 O 504.48 -3.0688 4.79388 0
M  V30 5094 N 505.682 -4.54873 3.60654 0
M  V30 5095 H 508.447 -0.531891 2.94942 0
M  V30 5096 H 506.008 -0.142965 1.61268 0
M  V30 5097 H 508 -3.04689 2.66359 0
M  V30 5098 H 506.57 -2.63283 1.68525 0
M  V30 5099 H 505.79 -1.23785 3.74261 0
M  V30 5100 H 507.078 -2.03475 4.66343 0
M  V30 5101 H 506.476 -4.77063 3.04019 0
M  V30 5102 H 505.033 -5.2806 3.82094 0
M  V30 5103 N 508.466 -1.55915 -0.229846 0
M  V30 5104 C 509.398 -1.88209 -1.30805 0
M  V30 5105 C 510.411 -0.769672 -1.43457 0
M  V30 5106 O 511.6 -1.04792 -1.44502 0
M  V30 5107 C 508.7 -2.06829 -2.68468 0
M  V30 5108 C 507.873 -3.37798 -2.77869 0
M  V30 5109 C 506.932 -3.45952 -3.96489 0
M  V30 5110 O 505.958 -4.19043 -3.85216 0
M  V30 5111 N 507.16 -2.76488 -5.10426 0
M  V30 5112 H 509.925 -2.81286 -1.03431 0
M  V30 5113 H 507.486 -1.5636 -0.41991 0
M  V30 5114 H 509.478 -2.09608 -3.46189 0
M  V30 5115 H 508.048 -1.20416 -2.88477 0
M  V30 5116 H 507.268 -3.4719 -1.86689 0
M  V30 5117 H 508.556 -4.24091 -2.81113 0
M  V30 5118 H 507.954 -2.16868 -5.2248 0
M  V30 5119 H 506.511 -2.84938 -5.8622 0
M  V30 5120 N 509.944 0.496216 -1.49584 0
M  V30 5121 C 511.221 1.25755 -1.49816 0
M  V30 5122 C 511.601 2.09859 -0.228572 0
M  V30 5123 O 510.949 2.14449 0.788908 0
M  V30 5124 C 511.159 2.11017 -2.7798 0
M  V30 5125 C 512.507 2.70047 -3.27658 0
M  V30 5126 O 513.531 2.21281 -2.79129 0
M  V30 5127 O 512.39 3.58834 -4.1219 0
M  V30 5128 H 509.484 0.569322 -0.599834 0
M  V30 5129 H 512.03 0.510094 -1.61852 0
M  V30 5130 H 510.802 1.48879 -3.61871 0
M  V30 5131 H 510.425 2.92947 -2.68827 0
M  V30 5132 N 511.423 1.38739 0.74761 0
M  V30 5133 C 512.355 1.32341 1.87132 0
M  V30 5134 C 513.368 0.234502 1.61102 0
M  V30 5135 O 514.557 0.492516 1.71571 0
M  V30 5136 C 511.657 1.02915 3.22896 0
M  V30 5137 C 510.83 2.22834 3.76383 0
M  V30 5138 C 509.889 1.90059 4.90677 0
M  V30 5139 O 508.915 2.62615 5.04997 0
M  V30 5140 N 510.117 0.859141 5.74107 0
M  V30 5141 H 512.882 2.29175 1.93129 0
M  V30 5142 H 510.443 1.32678 0.927805 0
M  V30 5143 H 512.435 0.79031 3.96908 0
M  V30 5144 H 511.005 0.148572 3.12247 0
M  V30 5145 H 510.225 2.62747 2.93867 0
M  V30 5146 H 511.513 3.02851 4.08851 0
M  V30 5147 H 510.911 0.257564 5.65113 0
M  V30 5148 H 509.468 0.680189 6.48241 0
M  V30 5149 N 512.901 -0.976442 1.23707 0
M  V30 5150 C 513.848 -2.06952 1.02174 0
M  V30 5151 C 514.818 -1.65984 -0.0621034 0
M  V30 5152 O 516.003 -1.90584 0.0907906 0
M  V30 5153 C 513.143 -3.39425 0.62327 0
M  V30 5154 C 512.256 -3.9364 1.77966 0
M  V30 5155 C 511.391 -5.14343 1.3276 0
M  V30 5156 C 510.43 -5.60733 2.45449 0
M  V30 5157 N 509.567 -6.72662 2.01172 0
M  V30 5158 H 514.407 -2.24704 1.95734 0
M  V30 5159 H 511.944 -1.10143 0.975034 0
M  V30 5160 H 513.902 -4.15526 0.37332 0
M  V30 5161 H 512.532 -3.21624 -0.275329 0
M  V30 5162 H 511.584 -3.14258 2.14351 0
M  V30 5163 H 512.896 -4.24035 2.62671 0
M  V30 5164 H 512.05 -5.97789 1.03601 0
M  V30 5165 H 510.789 -4.8561 0.450975 0
M  V30 5166 H 509.794 -4.75865 2.75378 0
M  V30 5167 H 511.019 -5.91483 3.33654 0
M  V30 5168 H 508.965 -6.45681 1.15895 0
M  V30 5169 H 508.882 -7.02462 2.79434 0
M  V30 5170 H 510.15 -7.59572 1.75129 0
M  V30 5171 N 514.379 -1.04941 -1.1758 0
M  V30 5172 C 515.79 -0.784501 -1.69418 0
M  V30 5173 C 516.141 0.693625 -1.8353 0
M  V30 5174 O 515.266 1.53925 -1.52106 0
M  V30 5175 C 515.861 -1.41746 -3.07723 0
M  V30 5176 C 514.42 -1.20066 -3.56737 0
M  V30 5177 C 513.567 -1.5026 -2.33061 0
M  V30 5178 H 516.518 -1.21469 -1.02133 0
M  V30 5179 H 516.539 -0.825381 -3.7144 0
M  V30 5180 H 516.051 -2.49325 -2.9742 0
M  V30 5181 H 514.152 -0.144006 -3.72322 0
M  V30 5182 H 514.265 -1.90384 -4.39648 0
M  V30 5183 H 512.629 -0.922598 -2.37403 0
M  V30 5184 H 513.412 -2.58967 -2.25368 0
M  V30 5185 N 515.857 1.33968 -0.830081 0
M  V30 5186 C 517.106 1.97323 -0.417928 0
M  V30 5187 C 517.419 1.6652 1.02618 0
M  V30 5188 O 518.625 2.2342 1.54259 0
M  V30 5189 C 517.081 3.53099 -0.696359 0
M  V30 5190 C 516.689 3.92788 -2.15457 0
M  V30 5191 C 518.433 4.23049 -0.350724 0
M  V30 5192 C 516.34 5.41506 -2.37751 0
M  V30 5193 H 515.27 0.738409 -0.152541 0
M  V30 5194 H 517.921 1.52711 -1.01744 0
M  V30 5195 H 516.303 3.95991 -0.0265904 0
M  V30 5196 H 517.477 3.6098 -2.86408 0
M  V30 5197 H 515.792 3.35795 -2.46232 0
M  V30 5198 H 518.389 5.32403 -0.495036 0
M  V30 5199 H 518.732 4.10279 0.705476 0
M  V30 5200 H 519.265 3.85657 -0.975362 0
M  V30 5201 H 516.004 5.5927 -3.41903 0
M  V30 5202 H 515.524 5.74804 -1.7135 0
M  V30 5203 H 517.203 6.0828 -2.20465 0
M  V30 5204 N 517.335 0.585699 1.46312 0
M  V30 5205 C 518.582 0.0724211 2.0237 0
M  V30 5206 C 518.91 -1.28868 1.45683 0
M  V30 5207 O 518.165 -1.85853 0.612945 0
M  V30 5208 C 518.464 -0.0401312 3.57377 0
M  V30 5209 C 518.13 1.25376 4.33119 0
M  V30 5210 C 516.792 1.60824 4.5353 0
M  V30 5211 C 519.144 2.10987 4.76586 0
M  V30 5212 C 516.472 2.81676 5.14661 0
M  V30 5213 C 518.824 3.31068 5.39052 0
M  V30 5214 C 517.488 3.66794 5.5769 0
M  V30 5215 H 516.758 0.0265007 0.740526 0
M  V30 5216 H 519.405 0.762935 1.75646 0
M  V30 5217 H 517.71 -0.813791 3.83255 0
M  V30 5218 H 519.407 -0.453078 3.98432 0
M  V30 5219 H 515.997 0.967808 4.1753 0
M  V30 5220 H 520.181 1.84904 4.60569 0
M  V30 5221 H 515.437 3.0949 5.27282 0
M  V30 5222 H 519.611 3.97672 5.71691 0
M  V30 5223 H 517.238 4.60529 6.04828 0
M  V30 5224 N 518.813 -1.54241 0.323641 0
M  V30 5225 C 519.761 -2.25813 -0.557804 0
M  V30 5226 C 520.755 -1.27225 -1.11849 0
M  V30 5227 O 521.961 -1.45001 -1.06652 0
M  V30 5228 H 518.336 -0.72532 -0.198532 0
M  V30 5229 H 520.307 -2.98322 0.0681112 0
M  V30 5230 C 519.056 -3.02913 -1.70701 0
M  V30 5231 H 518.379 -3.78593 -1.28482 0
M  V30 5232 H 519.819 -3.56238 -2.29935 0
M  V30 5233 C 518.278 -2.11217 -2.62467 0
M  V30 5234 O 518.808 -1.69508 -3.64184 0
M  V30 5235 N 517.014 -1.76704 -2.30703 0
M  V30 5236 H 516.561 -2.1082 -1.48029 0
M  V30 5237 H 516.519 -1.15631 -2.92364 0
M  V30 5238 N 520.291 -0.0518155 -1.57515 0
M  V30 5239 C 521.537 0.622745 -1.93002 0
M  V30 5240 C 521.87 1.70456 -0.930499 0
M  V30 5241 O 521.145 1.94452 0.0434086 0
M  V30 5242 C 521.428 1.21824 -3.38867 0
M  V30 5243 C 521.281 0.144434 -4.49568 0
M  V30 5244 C 522.6 2.12968 -3.8514 0
M  V30 5245 H 519.719 0.22491 -0.701844 0
M  V30 5246 H 522.361 -0.113711 -1.89659 0
M  V30 5247 H 520.511 1.8459 -3.41846 0
M  V30 5248 H 522.183 -0.48753 -4.58717 0
M  V30 5249 H 520.426 -0.527424 -4.30582 0
M  V30 5250 H 521.097 0.601127 -5.48717 0
M  V30 5251 H 523.573 1.60163 -3.8404 0
M  V30 5252 H 522.449 2.51578 -4.87852 0
M  V30 5253 H 522.71 3.03004 -3.21934 0
M  V30 5254 N 521.769 1.56035 0.221574 0
M  V30 5255 C 523.018 1.78245 0.944016 0
M  V30 5256 C 523.331 0.620371 1.85501 0
M  V30 5257 O 524.537 0.726103 2.6161 0
M  V30 5258 C 522.993 3.15659 1.7288 0
M  V30 5259 C 522.601 4.39591 0.863942 0
M  V30 5260 C 524.345 3.47195 2.44246 0
M  V30 5261 C 522.252 5.6803 1.64607 0
M  V30 5262 H 521.182 0.664547 0.356222 0
M  V30 5263 H 523.833 1.8243 0.197904 0
M  V30 5264 H 522.215 3.0565 2.51781 0
M  V30 5265 H 523.389 4.60655 0.115464 0
M  V30 5266 H 521.704 4.15572 0.262407 0
M  V30 5267 H 524.301 4.40381 3.03263 0
M  V30 5268 H 524.644 2.69693 3.1713 0
M  V30 5269 H 525.177 3.58533 1.72334 0
M  V30 5270 H 521.916 6.48425 0.960507 0
M  V30 5271 H 521.436 5.51027 2.36917 0
M  V30 5272 H 523.115 6.08203 2.20675 0
M  V30 5273 N 523.247 -0.488276 1.49845 0
M  V30 5274 C 524.658 -1.06955 1.53028 0
M  V30 5275 C 525.009 -1.9351 0.323797 0
M  V30 5276 O 524.134 -2.08891 -0.565116 0
M  V30 5277 C 524.729 -1.94643 2.77307 0
M  V30 5278 C 523.288 -2.4791 2.83227 0
M  V30 5279 C 522.435 -1.25833 2.47106 0
M  V30 5280 H 525.386 -0.271626 1.56358 0
M  V30 5281 H 525.407 -2.79496 2.5819 0
M  V30 5282 H 524.919 -1.31621 3.65099 0
M  V30 5283 H 523.02 -3.14535 1.99745 0
M  V30 5284 H 523.133 -2.84193 3.85709 0
M  V30 5285 H 521.497 -1.58764 1.99163 0
M  V30 5286 H 522.28 -0.644993 3.37186 0
M  V30 5287 N 524.725 -1.39134 -0.740242 0
M  V30 5288 C 526.136 -1.32208 -1.31825 0
M  V30 5289 C 526.487 0.0159919 -1.96193 0
M  V30 5290 O 525.612 0.918111 -1.95958 0
M  V30 5291 C 526.207 -2.39436 -2.39699 0
M  V30 5292 C 524.766 -2.36048 -2.93187 0
M  V30 5293 C 523.913 -2.21599 -1.66701 0
M  V30 5294 H 526.864 -1.49298 -0.538133 0
M  V30 5295 H 526.885 -2.05922 -3.19963 0
M  V30 5296 H 526.397 -3.36811 -1.92821 0
M  V30 5297 H 524.498 -1.42295 -3.44359 0
M  V30 5298 H 524.611 -3.30704 -3.46658 0
M  V30 5299 H 522.975 -1.68681 -1.90837 0
M  V30 5300 H 523.758 -3.20936 -1.21882 0
M  V30 5301 N 526.204 0.969867 -1.24223 0
M  V30 5302 C 527.453 1.70687 -1.07466 0
M  V30 5303 C 527.766 1.91736 0.386861 0
M  V30 5304 O 528.972 2.62986 0.674581 0
M  V30 5305 C 527.428 3.07217 -1.87472 0
M  V30 5306 C 527.036 2.94018 -3.3802 0
M  V30 5307 C 528.78 3.84804 -1.79237 0
M  V30 5308 C 526.687 4.25844 -4.10379 0
M  V30 5309 H 525.617 0.640067 -0.398536 0
M  V30 5310 H 528.268 1.08092 -1.48285 0
M  V30 5311 H 526.65 3.70628 -1.39466 0
M  V30 5312 H 527.824 2.39632 -3.9359 0
M  V30 5313 H 526.139 2.29898 -3.47183 0
M  V30 5314 H 528.736 4.82417 -2.30603 0
M  V30 5315 H 529.079 4.09356 -0.757197 0
M  V30 5316 H 529.612 3.28115 -2.24912 0
M  V30 5317 H 526.351 4.06486 -5.14246 0
M  V30 5318 H 525.871 4.80054 -3.59594 0
M  V30 5319 H 527.55 4.94475 -4.17257 0
M  V30 5320 N 527.682 1.05563 1.17022 0
M  V30 5321 C 529.093 0.793475 1.69 0
M  V30 5322 C 529.444 -0.683882 1.83895 0
M  V30 5323 O 528.569 -1.53116 1.5292 0
M  V30 5324 C 529.164 1.43376 3.06967 0
M  V30 5325 C 527.723 1.21956 3.56095 0
M  V30 5326 C 526.87 1.51494 2.3226 0
M  V30 5327 H 529.821 1.22008 1.01487 0
M  V30 5328 H 529.842 0.845068 3.70997 0
M  V30 5329 H 529.354 2.50899 2.96093 0
M  V30 5330 H 527.455 0.163749 3.7224 0
M  V30 5331 H 527.568 1.92713 4.38633 0
M  V30 5332 H 525.932 0.935175 2.3691 0
M  V30 5333 H 526.715 2.60159 2.23992 0
M  V30 5334 N 529.16 -1.33526 0.837174 0
M  V30 5335 C 530.406 -1.9813 0.432704 0
M  V30 5336 C 530.739 -1.66168 -1.00508 0
M  V30 5337 O 530.014 -0.94069 -1.70239 0
M  V30 5338 C 530.297 -3.54151 0.651834 0
M  V30 5339 C 530.15 -3.95806 2.13676 0
M  V30 5340 C 531.469 -4.39993 0.0968937 0
M  V30 5341 H 528.588 -0.719713 0.15869 0
M  V30 5342 H 531.23 -1.58193 1.05237 0
M  V30 5343 H 529.38 -3.88301 0.124369 0
M  V30 5344 H 531.052 -3.71921 2.72896 0
M  V30 5345 H 529.295 -3.45599 2.62191 0
M  V30 5346 H 529.966 -5.0447 2.24084 0
M  V30 5347 H 532.442 -4.12479 0.547733 0
M  V30 5348 H 531.318 -5.48186 0.279917 0
M  V30 5349 H 531.579 -4.3066 -0.9992 0
M  V30 5350 N 530.638 -0.59345 -1.46 0
M  V30 5351 C 531.886 -0.082988 -2.0193 0
M  V30 5352 C 532.207 1.28569 -1.46612 0
M  V30 5353 O 531.477 1.84629 -0.654909 0
M  V30 5354 H 530.057 -0.0276882 -0.746487 0
M  V30 5355 H 532.719 -0.771657 -1.78973 0
M  V30 5356 H 531.815 -0.022079 -3.12092 0
M  V30 5357 N 532.116 1.54067 -0.331816 0
M  V30 5358 C 533.341 2.05599 0.272705 0
M  V30 5359 C 533.766 1.2059 1.44359 0
M  V30 5360 O 533.124 0.216907 1.79998 0
M  V30 5361 C 533.172 3.54188 0.677021 0
M  V30 5362 O 532.276 3.72082 1.77844 0
M  V30 5363 H 531.617 0.662286 0.0476801 0
M  V30 5364 H 534.147 1.98826 -0.482624 0
M  V30 5365 H 534.157 3.96608 0.957415 0
M  V30 5366 H 532.832 4.15513 -0.179325 0
M  V30 5367 H 531.409 3.41566 1.49622 0
M  V30 5368 N 533.594 0.0601682 1.57485 0
M  V30 5369 C 534.504 -0.926121 2.15546 0
M  V30 5370 C 535.52 -1.33532 1.11558 0
M  V30 5371 O 536.696 -1.4104 1.4377 0
M  V30 5372 C 533.761 -2.17952 2.69625 0
M  V30 5373 C 532.822 -1.82783 3.88444 0
M  V30 5374 C 532.055 -3.02148 4.39935 0
M  V30 5375 O 532.278 -4.15803 3.90466 0
M  V30 5376 O 531.212 -2.82639 5.31412 0
M  V30 5377 H 535.038 -0.462289 3.00161 0
M  V30 5378 H 532.623 -0.162246 1.48516 0
M  V30 5379 H 534.505 -2.91474 3.04337 0
M  V30 5380 H 533.18 -2.63456 1.88077 0
M  V30 5381 H 532.087 -1.06549 3.58606 0
M  V30 5382 H 533.42 -1.42072 4.7125 0
M  V30 5383 N 535.072 -1.5615 -0.213296 0
M  V30 5384 C 536.02 -1.93953 -1.28394 0
M  V30 5385 C 537.014 -0.822592 -1.48087 0
M  V30 5386 O 538.22 -1.00748 -1.49164 0
M  V30 5387 H 534.595 -0.61648 -0.430646 0
M  V30 5388 H 536.566 -2.83275 -0.937977 0
M  V30 5389 C 535.315 -2.27969 -2.62537 0
M  V30 5390 H 534.638 -3.13432 -2.48194 0
M  V30 5391 H 536.078 -2.58297 -3.36242 0
M  V30 5392 C 534.537 -1.10775 -3.18167 0
M  V30 5393 O 535.067 -0.373201 -3.99963 0
M  V30 5394 N 533.273 -0.889377 -2.76656 0
M  V30 5395 H 532.82 -1.48843 -2.10246 0
M  V30 5396 H 532.778 -0.107 -3.14218 0
M  V30 5397 N 536.55 0.480323 -1.50102 0
M  V30 5398 C 537.796 1.23208 -1.61837 0
M  V30 5399 C 538.151 1.89878 -0.310509 0
M  V30 5400 O 537.444 1.7871 0.690897 0
M  V30 5401 C 537.638 2.30708 -2.72963 0
M  V30 5402 C 537.467 1.74583 -4.14428 0
M  V30 5403 C 536.237 1.54964 -4.80951 0
M  V30 5404 C 538.435 1.24597 -4.98979 0
M  V30 5405 N 536.417 0.939855 -6.06663 0
M  V30 5406 C 537.788 0.758834 -6.15339 0
M  V30 5407 C 539.843 1.13365 -4.84822 0
M  V30 5408 C 538.546 0.17046 -7.19098 0
M  V30 5409 C 540.572 0.559221 -5.8875 0
M  V30 5410 C 539.934 0.082415 -7.04352 0
M  V30 5411 H 536.033 0.440065 -0.646426 0
M  V30 5412 H 538.617 0.535632 -1.87187 0
M  V30 5413 H 536.788 2.9779 -2.4935 0
M  V30 5414 H 538.52 2.97738 -2.74106 0
M  V30 5415 H 535.275 1.79926 -4.38091 0
M  V30 5416 H 535.699 0.653641 -6.73837 0
M  V30 5417 H 540.341 1.48823 -3.95742 0
M  V30 5418 H 538.059 -0.196347 -8.07861 0
M  V30 5419 H 541.645 0.474804 -5.79859 0
M  V30 5420 H 540.525 -0.355119 -7.83396 0
M  V30 5421 N 538.028 1.39524 0.732853 0
M  V30 5422 C 538.976 1.38563 1.86824 0
M  V30 5423 C 539.97 0.268467 1.67259 0
M  V30 5424 O 541.176 0.438613 1.74574 0
M  V30 5425 H 537.551 0.432737 0.615014 0
M  V30 5426 H 539.522 2.34328 1.84751 0
M  V30 5427 C 538.271 1.2481 3.24527 0
M  V30 5428 H 537.594 2.10044 3.40179 0
M  V30 5429 H 539.034 1.28194 4.04156 0
M  V30 5430 C 537.493 -0.0432825 3.36872 0
M  V30 5431 O 538.023 -1.01268 3.88726 0
M  V30 5432 N 536.229 -0.107055 2.90403 0
M  V30 5433 H 535.776 0.682512 2.48394 0
M  V30 5434 H 535.734 -0.970618 2.99042 0
M  V30 5435 N 539.506 -0.963266 1.24736 0
M  V30 5436 C 540.922 -1.23273 1.01371 0
M  V30 5437 C 541.122 -1.99618 -0.274776 0
M  V30 5438 O 540.178 -2.32293 -0.989769 0
M  V30 5439 C 541.491 -2.01554 2.23152 0
M  V30 5440 C 543.039 -2.14629 2.27823 0
M  V30 5441 C 543.514 -2.96307 3.49237 0
M  V30 5442 N 545.005 -3.03887 3.49581 0
M  V30 5443 C 545.74 -3.67456 4.40186 0
M  V30 5444 N 545.236 -4.32706 5.41052 0
M  V30 5445 N 547.029 -3.64511 4.27888 0
M  V30 5446 H 539.18 -0.452294 2.07528 0
M  V30 5447 H 541.443 -0.262521 0.910926 0
M  V30 5448 H 541.149 -1.52847 3.1675 0
M  V30 5449 H 541.023 -3.02278 2.25628 0
M  V30 5450 H 543.41 -2.62537 1.34753 0
M  V30 5451 H 543.491 -1.13238 2.2937 0
M  V30 5452 H 543.135 -2.49091 4.42624 0
M  V30 5453 H 543.065 -3.97905 3.44933 0
M  V30 5454 H 545.556 -2.57477 2.76611 0
M  V30 5455 H 545.869 -4.79042 6.06415 0
M  V30 5456 H 544.214 -4.31361 5.44934 0
M  V30 5457 H 547.405 -3.12715 3.4832 0
M  V30 5458 H 547.578 -4.13768 4.98698 0
M  V30 5459 N 540.985 -1.06182 -1.16461 0
M  V30 5460 C 542.225 -0.787048 -1.8864 0
M  V30 5461 C 542.589 0.674093 -1.79778 0
M  V30 5462 O 543.79 1.06341 -2.46871 0
M  V30 5463 C 542.061 -1.2666 -3.34203 0
M  V30 5464 S 543.62 -1.12071 -4.24247 0
M  V30 5465 H 540.438 -0.285539 -0.651144 0
M  V30 5466 H 543.04 -1.35851 -1.40587 0
M  V30 5467 H 541.744 -2.32496 -3.38192 0
M  V30 5468 H 541.275 -0.689841 -3.87304 0
M  V30 5469 H 543.29 -0.0509341 -4.96174 0
M  V30 5470 N 542.463 1.3308 -0.844243 0
M  V30 5471 C 543.395 2.27954 -0.238671 0
M  V30 5472 C 544.408 1.51978 0.583665 0
M  V30 5473 O 545.597 1.73731 0.409857 0
M  V30 5474 C 542.697 3.31963 0.682185 0
M  V30 5475 C 541.87 4.37281 -0.101998 0
M  V30 5476 C 540.929 5.20928 0.743022 0
M  V30 5477 O 539.955 5.68914 0.180285 0
M  V30 5478 N 541.157 5.42738 2.0595 0
M  V30 5479 H 543.922 2.8056 -1.05386 0
M  V30 5480 H 541.483 1.4583 -0.70322 0
M  V30 5481 H 543.475 3.84828 1.25259 0
M  V30 5482 H 542.045 2.79594 1.39808 0
M  V30 5483 H 541.265 3.84843 -0.853802 0
M  V30 5484 H 542.553 5.04746 -0.641015 0
M  V30 5485 H 541.951 5.05463 2.54016 0
M  V30 5486 H 540.508 5.98639 2.57827 0
M  V30 5487 N 543.941 0.601185 1.45683 0
M  V30 5488 C 545.189 0.0936957 2.01883 0
M  V30 5489 C 545.51 -1.2779 1.47291 0
M  V30 5490 O 544.78 -1.84279 0.664691 0
M  V30 5491 H 543.36 0.0316466 0.746329 0
M  V30 5492 H 546.022 0.781137 1.78562 0
M  V30 5493 H 545.118 0.0386297 3.12076 0
M  V30 5494 N 545.419 -1.53889 0.339982 0
M  V30 5495 C 546.644 -2.05741 -0.261798 0
M  V30 5496 C 547.069 -1.21354 -1.43718 0
M  V30 5497 O 546.427 -0.22645 -1.7988 0
M  V30 5498 C 546.475 -3.54542 -0.658228 0
M  V30 5499 O 545.579 -3.7302 -1.75869 0
M  V30 5500 H 544.92 -0.662529 -0.0441672 0
M  V30 5501 H 547.45 -1.98568 0.493161 0
M  V30 5502 H 547.46 -3.9711 -0.936368 0
M  V30 5503 H 546.135 -4.15412 0.201358 0
M  V30 5504 H 544.712 -3.42355 -1.47809 0
M  V30 5505 N 546.897 -0.0685191 -1.57451 0
M  V30 5506 C 548.145 0.60016 -1.92983 0
M  V30 5507 C 548.466 1.70348 -0.949028 0
M  V30 5508 O 547.736 1.959 0.00335647 0
M  V30 5509 H 546.316 0.224682 -0.712409 0
M  V30 5510 H 548.978 -0.125605 -1.94495 0
M  V30 5511 H 548.074 1.02759 -2.94698 0
M  V30 5512 N 548.375 1.56261 0.205012 0
M  V30 5513 C 549.652 1.70856 0.952233 0
M  V30 5514 C 550.032 0.620501 2.01775 0
M  V30 5515 O 549.38 -0.370035 2.25484 0
M  V30 5516 C 549.59 3.12807 1.54767 0
M  V30 5517 C 550.938 3.72733 2.0336 0
M  V30 5518 O 551.962 3.15873 1.64629 0
M  V30 5519 O 550.821 4.72501 2.746 0
M  V30 5520 H 547.915 0.696496 0.445895 0
M  V30 5521 H 550.461 1.6857 0.195489 0
M  V30 5522 H 549.233 3.83465 0.779132 0
M  V30 5523 H 548.856 3.1928 2.36951 0
M  V30 5524 N 549.853 -0.472356 1.50355 0
M  V30 5525 C 551.13 -1.23356 1.51798 0
M  V30 5526 C 551.51 -2.09469 0.26193 0
M  V30 5527 O 550.858 -2.15677 -0.754691 0
M  V30 5528 C 551.068 -2.06568 2.81302 0
M  V30 5529 C 552.416 -2.648 3.31913 0
M  V30 5530 O 553.44 -2.16812 2.82614 0
M  V30 5531 O 552.299 -3.52231 4.17846 0
M  V30 5532 H 549.393 -0.559707 0.608816 0
M  V30 5533 H 551.939 -0.48428 1.62643 0
M  V30 5534 H 550.711 -1.43103 3.64194 0
M  V30 5535 H 550.334 -2.88633 2.73454 0
M  V30 5536 N 551.331 -1.39911 -0.725443 0
M  V30 5537 C 552.279 -1.39552 -1.86086 0
M  V30 5538 C 553.273 -0.277334 -1.67114 0
M  V30 5539 O 554.479 -0.447865 -1.74339 0
M  V30 5540 H 550.854 -0.435993 -0.612711 0
M  V30 5541 H 552.825 -2.35305 -1.83505 0
M  V30 5542 C 551.574 -1.26529 -3.2386 0
M  V30 5543 H 550.897 -2.11845 -3.3906 0
M  V30 5544 H 552.337 -1.30336 -4.03471 0
M  V30 5545 C 550.796 0.0254168 -3.3689 0
M  V30 5546 O 551.326 0.992048 -3.89257 0
M  V30 5547 N 549.532 0.0916528 -2.90455 0
M  V30 5548 H 549.079 -0.695675 -2.48028 0
M  V30 5549 H 549.037 0.954745 -2.99553 0
M  V30 5550 N 552.809 0.956637 -1.25245 0
M  V30 5551 C 553.739 2.07058 -1.07931 0
M  V30 5552 C 554.72 1.70096 0.0110361 0
M  V30 5553 O 555.905 1.93555 -0.158121 0
M  V30 5554 C 553.035 3.40272 -0.695124 0
M  V30 5555 C 551.989 3.91235 -1.73549 0
M  V30 5556 C 551.315 5.20921 -1.20604 0
M  V30 5557 C 552.615 4.17837 -3.13385 0
M  V30 5558 H 554.309 2.218 -2.01109 0
M  V30 5559 H 551.855 1.06581 -0.968326 0
M  V30 5560 H 553.808 4.1765 -0.560949 0
M  V30 5561 H 552.532 3.25462 0.272355 0
M  V30 5562 H 551.191 3.16025 -1.85807 0
M  V30 5563 H 550.839 5.02479 -0.228846 0
M  V30 5564 H 550.539 5.55987 -1.90136 0
M  V30 5565 H 552.063 6.00897 -1.08421 0
M  V30 5566 H 553.477 4.8588 -3.04292 0
M  V30 5567 H 551.874 4.64154 -3.80369 0
M  V30 5568 H 552.944 3.2419 -3.60595 0
M  V30 5569 N 554.287 1.06798 1.15896 0
M  V30 5570 C 555.515 0.808694 1.90441 0
M  V30 5571 C 555.93 -0.637506 1.77711 0
M  V30 5572 O 555.287 -1.43684 1.12522 0
M  V30 5573 C 555.338 1.20068 3.40978 0
M  V30 5574 O 555.059 2.59013 3.53333 0
M  V30 5575 C 556.56 0.96987 4.3256 0
M  V30 5576 H 553.78 0.292809 0.603742 0
M  V30 5577 H 556.324 1.42296 1.46874 0
M  V30 5578 H 554.479 0.630842 3.82229 0
M  V30 5579 H 554.893 2.7485 4.46719 0
M  V30 5580 H 556.367 1.29371 5.36626 0
M  V30 5581 H 556.844 -0.0941209 4.39099 0
M  V30 5582 H 557.45 1.52433 3.97044 0
M  V30 5583 N 555.766 -1.3263 0.851289 0
M  V30 5584 C 556.991 -2.02097 0.466006 0
M  V30 5585 C 557.416 -1.63574 -0.928709 0
M  V30 5586 O 556.774 -0.834665 -1.60944 0
M  V30 5587 C 556.822 -3.55425 0.608737 0
M  V30 5588 O 555.926 -4.10827 -0.359878 0
M  V30 5589 H 555.267 -0.636911 0.187724 0
M  V30 5590 H 557.797 -1.69253 1.14955 0
M  V30 5591 H 557.807 -4.04986 0.495006 0
M  V30 5592 H 556.482 -3.82806 1.62581 0
M  V30 5593 H 555.059 -3.72349 -0.202666 0
M  V30 5594 N 557.244 -0.608902 -1.45362 0
M  V30 5595 C 558.174 0.0964526 -2.33301 0
M  V30 5596 C 559.155 0.857444 -1.46908 0
M  V30 5597 O 560.34 0.827735 -1.75676 0
M  V30 5598 C 557.47 1.09354 -3.29635 0
M  V30 5599 C 556.424 0.445676 -4.25673 0
M  V30 5600 C 555.75 1.5511 -5.11708 0
M  V30 5601 C 557.05 -0.633972 -5.18438 0
M  V30 5602 H 558.744 -0.637829 -2.92527 0
M  V30 5603 H 556.29 -0.308178 -1.40664 0
M  V30 5604 H 558.243 1.59556 -3.90025 0
M  V30 5605 H 556.967 1.85843 -2.6857 0
M  V30 5606 H 555.626 -0.0354897 -3.66583 0
M  V30 5607 H 555.274 2.30631 -4.4701 0
M  V30 5608 H 554.974 1.12311 -5.76767 0
M  V30 5609 H 556.498 2.05537 -5.74967 0
M  V30 5610 H 557.912 -0.215974 -5.72893 0
M  V30 5611 H 556.309 -0.983789 -5.91981 0
M  V30 5612 H 557.379 -1.51005 -4.60788 0
M  V30 5613 N 558.722 1.53707 -0.348139 0
M  V30 5614 C 559.97 2.00591 0.246478 0
M  V30 5615 C 560.291 1.23753 1.50699 0
M  V30 5616 O 559.561 0.345964 1.92821 0
M  V30 5617 H 558.141 0.741053 0.0940679 0
M  V30 5618 H 560.803 1.89139 -0.470354 0
M  V30 5619 H 559.899 3.08297 0.485714 0
M  V30 5620 N 560.2 0.0768682 1.57412 0
M  V30 5621 C 561.428 -0.59997 1.9801 0
M  V30 5622 C 561.843 -1.62842 0.955408 0
M  V30 5623 O 561.2 -1.8241 -0.057314 0
M  V30 5624 C 561.251 -1.26401 3.38681 0
M  V30 5625 O 560.972 -0.276723 4.37225 0
M  V30 5626 C 562.473 -2.0282 3.94182 0
M  V30 5627 H 559.693 -0.162239 0.651091 0
M  V30 5628 H 562.237 0.150771 2.03943 0
M  V30 5629 H 560.392 -1.96581 3.33819 0
M  V30 5630 H 560.806 -0.753744 5.19056 0
M  V30 5631 H 562.28 -2.44667 4.94815 0
M  V30 5632 H 562.757 -2.88678 3.31001 0
M  V30 5633 H 563.363 -1.37496 4.02461 0
M  V30 5634 N 561.678 -1.56367 -0.196722 0
M  V30 5635 C 562.608 -1.97442 -1.24655 0
M  V30 5636 C 563.589 -0.846147 -1.47561 0
M  V30 5637 O 564.774 -1.11035 -1.59326 0
M  V30 5638 C 561.904 -2.31253 -2.59112 0
M  V30 5639 C 560.858 -3.46804 -2.50821 0
M  V30 5640 C 560.184 -3.66286 -3.89536 0
M  V30 5641 C 561.484 -4.8104 -2.03465 0
M  V30 5642 H 563.178 -2.85388 -0.905216 0
M  V30 5643 H 560.724 -1.37304 -0.434002 0
M  V30 5644 H 562.677 -2.58583 -3.32736 0
M  V30 5645 H 561.401 -1.40188 -2.94983 0
M  V30 5646 H 560.06 -3.19563 -1.79653 0
M  V30 5647 H 559.708 -2.72555 -4.22756 0
M  V30 5648 H 559.408 -4.4402 -3.84864 0
M  V30 5649 H 560.932 -3.9599 -4.64784 0
M  V30 5650 H 562.346 -5.07411 -2.66846 0
M  V30 5651 H 560.743 -5.62232 -2.09798 0
M  V30 5652 H 561.813 -4.74732 -0.98781 0
M  V30 5653 N 563.156 0.464375 -1.50603 0
M  V30 5654 C 564.104 1.58224 -1.70493 0
M  V30 5655 C 565.098 1.59492 -0.570836 0
M  V30 5656 O 566.304 1.63561 -0.751517 0
M  V30 5657 H 562.679 0.525161 -0.538247 0
M  V30 5658 H 564.65 1.38613 -2.64252 0
M  V30 5659 C 563.399 2.96113 -1.82243 0
M  V30 5660 H 562.722 2.95858 -2.68901 0
M  V30 5661 H 564.162 3.73769 -2.00182 0
M  V30 5662 C 562.621 3.31946 -0.575628 0
M  V30 5663 O 563.151 4.00708 0.282152 0
M  V30 5664 N 561.357 2.87436 -0.427665 0
M  V30 5665 H 560.904 2.31652 -1.12674 0
M  V30 5666 H 560.862 3.11776 0.405379 0
M  V30 5667 N 564.634 1.40294 0.718013 0
M  V30 5668 C 565.881 1.3844 1.47786 0
M  V30 5669 C 566.209 -0.0140838 1.94495 0
M  V30 5670 O 565.464 -0.998165 1.68331 0
M  V30 5671 C 565.763 2.31814 2.72024 0
M  V30 5672 C 565.429 3.79117 2.44093 0
M  V30 5673 C 564.091 4.19249 2.36185 0
M  V30 5674 C 566.443 4.72212 2.20602 0
M  V30 5675 C 563.771 5.50516 2.02851 0
M  V30 5676 C 566.123 6.03775 1.88781 0
M  V30 5677 C 564.787 6.42953 1.79354 0
M  V30 5678 H 564.057 0.506588 0.540786 0
M  V30 5679 H 566.704 1.72929 0.822663 0
M  V30 5680 H 565.009 1.90501 3.42369 0
M  V30 5681 H 566.706 2.27664 3.30106 0
M  V30 5682 H 563.296 3.47318 2.51133 0
M  V30 5683 H 567.48 4.42026 2.25669 0
M  V30 5684 H 562.736 5.79776 1.94088 0
M  V30 5685 H 566.91 6.75428 1.69617 0
M  V30 5686 H 564.537 7.44584 1.53291 0
M  V30 5687 N 566.112 -0.949982 1.2575 0
M  V30 5688 C 567.523 -1.50989 1.09815 0
M  V30 5689 C 567.874 -1.93497 -0.324556 0
M  V30 5690 O 566.999 -1.79068 -1.21506 0
M  V30 5691 C 567.594 -2.74394 1.98729 0
M  V30 5692 C 566.153 -3.26682 1.86965 0
M  V30 5693 C 565.3 -1.99498 1.92603 0
M  V30 5694 H 568.251 -0.766387 1.38968 0
M  V30 5695 H 568.272 -3.48383 1.53001 0
M  V30 5696 H 567.784 -2.43425 3.02268 0
M  V30 5697 H 565.885 -3.62461 0.863279 0
M  V30 5698 H 565.998 -3.94383 2.72027 0
M  V30 5699 H 564.362 -2.15005 1.36546 0
M  V30 5700 H 565.145 -1.70871 2.97755 0
M  V30 5701 N 567.59 -1.07411 -1.15328 0
M  V30 5702 C 568.838 -0.796073 -1.85761 0
M  V30 5703 C 569.159 0.679864 -1.82764 0
M  V30 5704 O 568.429 1.49242 -1.269 0
M  V30 5705 H 567.009 -0.291495 -0.687779 0
M  V30 5706 H 569.671 -1.35799 -1.39802 0
M  V30 5707 H 568.767 -1.13114 -2.90881 0
M  V30 5708 N 569.068 1.32177 -0.85831 0
M  V30 5709 C 570.484 1.49873 -0.548656 0
M  V30 5710 C 570.684 1.79278 0.919874 0
M  V30 5711 O 569.74 1.86451 1.70271 0
M  V30 5712 C 571.053 2.64043 -1.4388 0
M  V30 5713 C 572.601 2.77928 -1.43961 0
M  V30 5714 C 573.076 3.95182 -2.31506 0
M  V30 5715 N 574.567 4.0245 -2.29321 0
M  V30 5716 C 575.302 4.9242 -2.93786 0
M  V30 5717 N 574.798 5.87373 -3.67376 0
M  V30 5718 N 576.591 4.85572 -2.83155 0
M  V30 5719 H 568.742 1.11357 -1.80868 0
M  V30 5720 H 571.005 0.549175 -0.772729 0
M  V30 5721 H 570.711 2.49055 -2.48324 0
M  V30 5722 H 570.585 3.59912 -1.12885 0
M  V30 5723 H 572.972 2.92338 -0.402813 0
M  V30 5724 H 573.053 1.82762 -1.78974 0
M  V30 5725 H 572.697 3.81531 -3.35256 0
M  V30 5726 H 572.627 4.89633 -1.93823 0
M  V30 5727 H 575.118 3.34507 -1.75822 0
M  V30 5728 H 575.431 6.52728 -4.13722 0
M  V30 5729 H 573.776 5.87388 -3.71484 0
M  V30 5730 H 576.967 4.10363 -2.25211 0
M  V30 5731 H 577.14 5.55486 -3.33676 0
M  V30 5732 N 570.547 0.616602 1.45037 0
M  V30 5733 C 571.775 0.121968 2.0654 0
M  V30 5734 C 572.19 -1.19743 1.45969 0
M  V30 5735 O 571.547 -1.73133 0.577168 0
M  V30 5736 C 571.598 -0.0145171 3.61497 0
M  V30 5737 O 571.319 1.25269 4.19809 0
M  V30 5738 C 572.82 -0.539555 4.40004 0
M  V30 5739 H 570.04 0.0729837 0.667019 0
M  V30 5740 H 572.584 0.846891 1.8614 0
M  V30 5741 H 570.739 -0.689809 3.81209 0
M  V30 5742 H 571.153 1.08816 5.13088 0
M  V30 5743 H 572.627 -0.584112 5.48901 0
M  V30 5744 H 573.104 -1.56368 4.10421 0
M  V30 5745 H 573.71 0.101995 4.25178 0
M  V30 5746 N 572.025 -1.5352 0.356285 0
M  V30 5747 C 573.271 -2.01414 -0.236653 0
M  V30 5748 C 573.604 -1.24339 -1.49176 0
M  V30 5749 O 572.879 -0.334496 -1.91602 0
M  V30 5750 C 573.162 -3.56059 -0.537982 0
M  V30 5751 C 573.015 -4.43835 0.730112 0
M  V30 5752 C 574.334 -4.19127 -1.34239 0
M  V30 5753 H 571.453 -0.732135 -0.0845386 0
M  V30 5754 H 574.095 -1.83854 0.479341 0
M  V30 5755 H 572.245 -3.71153 -1.14795 0
M  V30 5756 H 573.917 -4.40555 1.36782 0
M  V30 5757 H 572.16 -4.1218 1.3524 0
M  V30 5758 H 572.831 -5.49958 0.474358 0
M  V30 5759 H 575.307 -4.07809 -0.826498 0
M  V30 5760 H 574.183 -5.27378 -1.52198 0
M  V30 5761 H 574.444 -3.74581 -2.34822 0
M  V30 5762 N 573.503 -0.0852151 -1.57369 0
M  V30 5763 C 574.75 0.580806 -1.93992 0
M  V30 5764 C 575.078 1.68801 -0.966252 0
M  V30 5765 O 574.333 1.95694 0.0158649 0
M  V30 5766 C 574.632 1.18482 -3.3719 0
M  V30 5767 C 574.298 0.2024 -4.50446 0
M  V30 5768 C 572.96 -0.0678318 -4.81152 0
M  V30 5769 C 575.312 -0.46895 -5.19086 0
M  V30 5770 C 572.64 -1.01627 -5.77831 0
M  V30 5771 C 574.992 -1.4058 -6.16782 0
M  V30 5772 C 573.656 -1.68436 -6.45899 0
M  V30 5773 H 572.926 0.212532 -0.709867 0
M  V30 5774 H 575.573 -0.158947 -1.90839 0
M  V30 5775 H 573.878 2.0006 -3.36873 0
M  V30 5776 H 575.575 1.70767 -3.62822 0
M  V30 5777 H 572.165 0.423208 -4.26505 0
M  V30 5778 H 576.349 -0.273307 -4.95547 0
M  V30 5779 H 571.605 -1.2392 -5.9871 0
M  V30 5780 H 575.779 -1.93188 -6.69068 0
M  V30 5781 H 573.406 -2.42088 -7.20623 0
M  V30 5782 N 574.981 1.5647 0.188427 0
M  V30 5783 C 576.206 1.85486 0.927891 0
M  V30 5784 C 576.631 0.669575 1.75779 0
M  V30 5785 O 575.989 -0.381573 1.77239 0
M  V30 5786 C 576.037 3.12784 1.7944 0
M  V30 5787 O 575.141 2.93805 2.894 0
M  V30 5788 H 574.482 0.610585 0.260925 0
M  V30 5789 H 577.012 2.037 0.191729 0
M  V30 5790 H 577.022 3.43749 2.19774 0
M  V30 5791 H 575.697 3.98671 1.18468 0
M  V30 5792 H 574.274 2.74153 2.52774 0
M  V30 5793 N 576.459 -0.456382 1.50847 0
M  V30 5794 C 577.407 -1.57318 1.71329 0
M  V30 5795 C 578.401 -1.59187 0.579287 0
M  V30 5796 O 579.607 -1.6316 0.76018 0
M  V30 5797 H 575.982 -0.5223 0.541024 0
M  V30 5798 H 577.953 -1.3721 2.64983 0
M  V30 5799 C 576.702 -2.95142 1.83811 0
M  V30 5800 H 576.025 -2.94428 2.70467 0
M  V30 5801 H 577.465 -3.72702 2.02161 0
M  V30 5802 C 575.924 -3.31636 0.593224 0
M  V30 5803 O 576.454 -4.00852 -0.260898 0
M  V30 5804 N 574.66 -2.87205 0.442902 0
M  V30 5805 H 574.207 -2.31051 1.13901 0
M  V30 5806 H 574.165 -3.11986 -0.38884 0
M  V30 5807 N 577.937 -1.40673 -0.710563 0
M  V30 5808 C 579.185 -1.38947 -1.46759 0
M  V30 5809 C 579.506 0.00572879 -1.94999 0
M  V30 5810 O 578.776 0.961358 -1.70689 0
M  V30 5811 H 577.356 -0.5114 -0.544499 0
M  V30 5812 H 580.018 -1.75773 -0.842012 0
M  V30 5813 H 579.114 -2.06745 -2.33801 0
M  V30 5814 N 579.415 0.9433 -1.26252 0
M  V30 5815 C 580.645 1.72117 -1.14277 0
M  V30 5816 C 581.053 1.86726 0.304944 0
M  V30 5817 O 580.396 1.3727 1.22076 0
M  V30 5818 C 580.458 3.14778 -1.73651 0
M  V30 5819 C 580.122 3.23561 -3.22734 0
M  V30 5820 C 581.119 3.07001 -4.19579 0
M  V30 5821 C 578.804 3.47019 -3.63157 0
M  V30 5822 C 580.798 3.13763 -5.54826 0
M  V30 5823 C 578.485 3.53416 -4.98538 0
M  V30 5824 C 579.483 3.36804 -5.94182 0
M  V30 5825 O 579.171 3.42906 -7.27098 0
M  V30 5826 H 578.903 0.545781 -0.398873 0
M  V30 5827 H 581.457 1.19123 -1.67328 0
M  V30 5828 H 579.687 3.69186 -1.1506 0
M  V30 5829 H 581.376 3.74469 -1.56613 0
M  V30 5830 H 582.142 2.88736 -3.89688 0
M  V30 5831 H 578.021 3.59006 -2.89199 0
M  V30 5832 H 581.565 3.00714 -6.29458 0
M  V30 5833 H 577.462 3.71201 -5.28091 0
M  V30 5834 H 578.23 3.59463 -7.35342 0
M  V30 5835 N 580.893 1.08022 1.14757 0
M  V30 5836 C 582.118 0.82895 1.90114 0
M  V30 5837 C 582.543 -0.612772 1.77839 0
M  V30 5838 O 581.901 -1.42895 1.11583 0
M  V30 5839 C 581.949 1.25062 3.38219 0
M  V30 5840 O 581.053 0.400119 4.10454 0
M  V30 5841 H 580.394 0.301412 0.591648 0
M  V30 5842 H 582.924 1.44062 1.45284 0
M  V30 5843 H 582.934 1.22977 3.89025 0
M  V30 5844 H 581.609 2.30067 3.46471 0
M  V30 5845 H 580.186 0.484052 3.69745 0
M  V30 5846 N 582.371 -1.3172 0.865308 0
M  V30 5847 C 583.596 -2.01591 0.487415 0
M  V30 5848 C 584.021 -1.6455 -0.911307 0
M  V30 5849 O 583.379 -0.851689 -1.6005 0
M  V30 5850 C 583.427 -3.54759 0.646401 0
M  V30 5851 O 582.531 -4.11185 -0.316284 0
M  V30 5852 H 581.872 -0.634884 0.194468 0
M  V30 5853 H 584.402 -1.68024 1.16744 0
M  V30 5854 H 584.412 -4.04438 0.537932 0
M  V30 5855 H 583.087 -3.8106 1.66632 0
M  V30 5856 H 581.664 -3.72543 -0.163162 0
M  V30 5857 N 583.85 -0.624285 -1.44708 0
M  V30 5858 C 585.26 -0.2092 -1.85524 0
M  V30 5859 C 585.611 1.23783 -1.52225 0
M  V30 5860 O 584.736 1.94089 -0.956986 0
M  V30 5861 C 585.332 -0.372897 -3.36742 0
M  V30 5862 C 583.891 -0.012374 -3.76398 0
M  V30 5863 C 583.038 -0.68951 -2.68591 0
M  V30 5864 H 585.989 -0.829894 -1.35272 0
M  V30 5865 H 586.01 0.390134 -3.78495 0
M  V30 5866 H 585.522 -1.42615 -3.60947 0
M  V30 5867 H 583.623 1.03941 -3.57809 0
M  V30 5868 H 583.736 -0.417663 -4.77276 0
M  V30 5869 H 582.1 -0.125484 -2.54391 0
M  V30 5870 H 582.883 -1.74522 -2.9563 0
M  V30 5871 N 585.328 1.53329 -0.364422 0
M  V30 5872 C 586.553 2.06132 0.229033 0
M  V30 5873 C 586.978 1.23625 1.41769 0
M  V30 5874 O 586.336 0.255038 1.79497 0
M  V30 5875 C 586.384 3.55544 0.60174 0
M  V30 5876 O 585.488 3.75771 1.69912 0
M  V30 5877 H 584.829 0.663148 0.0336213 0
M  V30 5878 H 587.359 1.97758 -0.524689 0
M  V30 5879 H 587.369 3.98549 0.873073 0
M  V30 5880 H 586.044 4.15039 -0.267421 0
M  V30 5881 H 584.621 3.44663 1.42343 0
M  V30 5882 N 586.806 0.0935595 1.57322 0
M  V30 5883 C 587.739 -0.902505 2.09595 0
M  V30 5884 C 588.717 -1.27732 1.00615 0
M  V30 5885 O 589.901 -1.38283 1.28102 0
M  V30 5886 C 587.028 -2.20416 2.57166 0
M  V30 5887 C 586.074 -1.97932 3.7779 0
M  V30 5888 S 586.907 -1.21873 5.21447 0
M  V30 5889 C 588.063 -2.53273 5.72367 0
M  V30 5890 H 588.296 -0.457797 2.93754 0
M  V30 5891 H 585.829 -0.119694 1.53935 0
M  V30 5892 H 587.787 -2.95217 2.85232 0
M  V30 5893 H 586.448 -2.62008 1.73235 0
M  V30 5894 H 585.641 -2.94316 4.09138 0
M  V30 5895 H 585.243 -1.3126 3.5021 0
M  V30 5896 H 587.535 -3.49256 5.8054 0
M  V30 5897 H 588.478 -2.26505 6.70896 0
M  V30 5898 H 588.886 -2.61475 5.00291 0
M  V30 5899 N 588.284 -1.56567 -0.180126 0
M  V30 5900 C 589.7 -1.50488 -0.531559 0
M  V30 5901 C 589.9 -0.796267 -1.851 0
M  V30 5902 O 588.956 -0.352978 -2.50021 0
M  V30 5903 C 590.269 -2.95201 -0.572456 0
M  V30 5904 C 591.817 -3.05957 -0.660264 0
M  V30 5905 C 592.292 -4.5211 -0.732135 0
M  V30 5906 N 593.783 -4.56322 -0.795262 0
M  V30 5907 C 594.518 -5.66742 -0.871296 0
M  V30 5908 N 594.014 -6.86815 -0.908708 0
M  V30 5909 N 595.807 -5.54691 -0.909639 0
M  V30 5910 H 587.958 -2.01045 0.685165 0
M  V30 5911 H 590.221 -0.915536 0.245962 0
M  V30 5912 H 589.927 -3.50165 0.328208 0
M  V30 5913 H 589.801 -3.49369 -1.422 0
M  V30 5914 H 592.188 -2.51032 -1.55136 0
M  V30 5915 H 592.269 -2.54888 0.215783 0
M  V30 5916 H 591.913 -5.07664 0.154664 0
M  V30 5917 H 591.843 -5.00926 -1.6242 0
M  V30 5918 H 594.334 -3.69868 -0.77499 0
M  V30 5919 H 594.647 -7.66718 -0.967654 0
M  V30 5920 H 592.992 -6.89443 -0.877132 0
M  V30 5921 H 596.183 -4.59804 -0.877353 0
M  V30 5922 H 596.356 -6.40768 -0.965434 0
M  V30 5923 N 589.762 0.448376 -1.51087 0
M  V30 5924 C 591.173 1.0286 -1.5581 0
M  V30 5925 C 591.524 1.92583 -0.374989 0
M  V30 5926 O 590.649 2.10316 0.509533 0
M  V30 5927 C 591.244 1.87223 -2.8237 0
M  V30 5928 C 589.803 2.40314 -2.897 0
M  V30 5929 C 588.95 1.19238 -2.50355 0
M  V30 5930 H 591.901 0.230075 -1.57023 0
M  V30 5931 H 591.922 2.72553 -2.6551 0
M  V30 5932 H 591.434 1.21894 -3.68461 0
M  V30 5933 H 589.535 3.09129 -2.08014 0
M  V30 5934 H 589.648 2.73866 -3.93108 0
M  V30 5935 H 588.012 1.53428 -2.03303 0
M  V30 5936 H 588.795 0.555367 -3.38778 0
M  V30 5937 N 591.24 1.41047 0.703093 0
M  V30 5938 C 592.517 1.30493 1.45708 0
M  V30 5939 C 592.897 -0.0709892 2.10981 0
M  V30 5940 O 592.245 -1.08471 2.01113 0
M  V30 5941 C 592.455 2.45287 2.48265 0
M  V30 5942 C 593.803 2.86104 3.13735 0
M  V30 5943 O 594.827 2.44971 2.58587 0
M  V30 5944 O 593.686 3.57206 4.13601 0
M  V30 5945 H 590.78 0.513144 0.648546 0
M  V30 5946 H 593.326 1.52995 0.734208 0
M  V30 5947 H 592.098 3.37135 1.98635 0
M  V30 5948 H 591.721 2.24622 3.28071 0
M  V30 5949 N 592.718 -0.936591 1.26751 0
M  V30 5950 C 593.964 -1.6858 1.12733 0
M  V30 5951 C 594.297 -1.91414 -0.327745 0
M  V30 5952 O 593.572 -1.49812 -1.24043 0
M  V30 5953 C 593.855 -3.05779 1.90187 0
M  V30 5954 C 593.708 -2.90242 3.43627 0
M  V30 5955 C 595.027 -4.0597 1.69931 0
M  V30 5956 H 592.146 -0.61182 0.410908 0
M  V30 5957 H 594.788 -1.08747 1.55801 0
M  V30 5958 H 592.938 -3.56853 1.53584 0
M  V30 5959 H 594.61 -2.46354 3.9001 0
M  V30 5960 H 592.853 -2.2577 3.70419 0
M  V30 5961 H 593.524 -3.87572 3.93055 0
M  V30 5962 H 596 -3.63874 2.0183 0
M  V30 5963 H 594.876 -4.99974 2.26534 0
M  V30 5964 H 595.137 -4.37369 0.64502 0
M  V30 5965 N 594.196 -1.08629 -1.14182 0
M  V30 5966 C 595.421 -0.83902 -1.89671 0
M  V30 5967 C 595.846 0.603332 -1.78161 0
M  V30 5968 O 595.204 1.42301 -1.12339 0
M  V30 5969 C 595.252 -1.26854 -3.37551 0
M  V30 5970 O 594.356 -0.42188 -4.10236 0
M  V30 5971 H 593.697 -0.304545 -0.590041 0
M  V30 5972 H 596.227 -1.4483 -1.44518 0
M  V30 5973 H 596.237 -1.25038 -3.88368 0
M  V30 5974 H 594.912 -2.31901 -3.45246 0
M  V30 5975 H 593.489 -0.503654 -3.69483 0
M  V30 5976 N 595.674 1.31259 -0.872281 0
M  V30 5977 C 596.899 2.0133 -0.498099 0
M  V30 5978 C 597.324 1.65031 0.902568 0
M  V30 5979 O 596.682 0.860164 1.59596 0
M  V30 5980 C 596.73 3.54411 -0.665205 0
M  V30 5981 O 595.834 4.11347 0.294473 0
M  V30 5982 H 595.175 0.633844 -0.197832 0
M  V30 5983 H 597.705 1.67402 -1.17633 0
M  V30 5984 H 597.715 4.04147 -0.559373 0
M  V30 5985 H 596.39 3.80171 -1.68651 0
M  V30 5986 H 594.967 3.72624 0.143403 0
M  V30 5987 N 597.152 0.631951 1.44375 0
M  V30 5988 C 598.563 0.219036 1.85411 0
M  V30 5989 C 598.914 -1.22974 1.52879 0
M  V30 5990 O 598.039 -1.93579 0.967266 0
M  V30 5991 C 598.634 0.39075 3.36539 0
M  V30 5992 C 597.193 0.0323351 3.76386 0
M  V30 5993 C 596.34 0.703744 2.68221 0
M  V30 5994 H 599.291 0.837056 1.3483 0
M  V30 5995 H 599.312 -0.370056 3.78696 0
M  V30 5996 H 598.824 1.44527 3.60185 0
M  V30 5997 H 596.925 -1.02042 3.58355 0
M  V30 5998 H 597.038 0.442969 4.77048 0
M  V30 5999 H 595.402 0.138974 2.54321 0
M  V30 6000 H 596.185 1.76088 2.947 0
M  V30 6001 N 598.631 -1.53133 0.372548 0
M  V30 6002 C 600.042 -1.86404 -0.105155 0
M  V30 6003 C 600.393 -1.29289 -1.47576 0
M  V30 6004 O 599.518 -0.617646 -2.07398 0
M  V30 6005 C 600.113 -3.38223 -0.197588 0
M  V30 6006 C 598.672 -3.71266 -0.619556 0
M  V30 6007 C 597.819 -2.76353 0.228919 0
M  V30 6008 H 600.77 -1.47282 0.591077 0
M  V30 6009 H 600.791 -3.66577 -1.01987 0
M  V30 6010 H 600.303 -3.79763 0.800099 0
M  V30 6011 H 598.404 -3.35287 -1.62522 0
M  V30 6012 H 598.517 -4.77515 -0.389332 0
M  V30 6013 H 596.881 -2.52888 -0.303271 0
M  V30 6014 H 597.664 -3.20728 1.22428 0
M  V30 6015 N 600.109 -0.101901 -1.5727 0
M  V30 6016 C 601.334 0.571759 -1.99363 0
M  V30 6017 C 601.759 1.60507 -0.980768 0
M  V30 6018 O 601.117 1.81231 0.0498517 0
M  V30 6019 C 601.165 1.18996 -3.404 0
M  V30 6020 O 600.269 2.30572 -3.41922 0
M  V30 6021 H 599.61 0.144449 -0.648098 0
M  V30 6022 H 602.14 -0.185325 -2.03759 0
M  V30 6023 H 602.15 1.52962 -3.78241 0
M  V30 6024 H 600.825 0.432984 -4.1364 0
M  V30 6025 H 599.402 1.98173 -3.15883 0
M  V30 6026 N 601.587 1.56661 0.17182 0
M  V30 6027 C 602.812 1.86459 0.908165 0
M  V30 6028 C 603.237 0.688181 1.75059 0
M  V30 6029 O 602.595 -0.362753 1.77634 0
M  V30 6030 C 602.643 3.14669 1.76112 0
M  V30 6031 O 601.747 2.96858 2.86268 0
M  V30 6032 H 601.088 0.613318 0.254434 0
M  V30 6033 H 603.618 2.03892 0.170113 0
M  V30 6034 H 603.628 3.46061 2.16115 0
M  V30 6035 H 602.303 3.99905 1.14233 0
M  V30 6036 H 600.88 2.76819 2.49852 0
M  V30 6037 N 603.065 -0.440357 1.51323 0
M  V30 6038 C 604.29 -1.21716 1.67928 0
M  V30 6039 C 604.715 -1.84328 0.374826 0
M  V30 6040 O 604.073 -1.68675 -0.664706 0
M  V30 6041 C 604.121 -2.27914 2.79442 0
M  V30 6042 O 603.225 -3.33325 2.42834 0
M  V30 6043 H 602.566 -0.35674 0.560029 0
M  V30 6044 H 605.096 -0.520417 1.97871 0
M  V30 6045 H 605.106 -2.72746 3.03436 0
M  V30 6046 H 603.781 -1.8172 3.741 0
M  V30 6047 H 602.358 -2.9399 2.294 0
M  V30 6048 N 604.543 -1.41418 -0.695603 0
M  V30 6049 C 605.768 -1.44329 -1.48942 0
M  V30 6050 C 606.193 -0.0501579 -1.88033 0
M  V30 6051 O 605.551 0.946598 -1.54626 0
M  V30 6052 C 605.599 -2.3578 -2.72837 0
M  V30 6053 O 604.703 -1.81482 -3.70322 0
M  V30 6054 H 604.044 -0.489838 -0.44828 0
M  V30 6055 H 606.574 -1.85878 -0.855014 0
M  V30 6056 H 606.584 -2.51654 -3.21145 0
M  V30 6057 H 605.259 -3.37005 -2.43722 0
M  V30 6058 H 603.836 -1.75058 -3.29255 0
M  V30 6059 N 606.021 0.929856 -1.27246 0
M  V30 6060 C 607.249 1.71144 -1.16265 0
M  V30 6061 C 607.664 1.867 0.280786 0
M  V30 6062 O 607.021 1.38249 1.19136 0
M  V30 6063 C 607.072 3.11222 -1.83911 0
M  V30 6064 O 606.793 2.96398 -3.22614 0
M  V30 6065 C 608.294 4.05541 -1.79028 0
M  V30 6066 H 605.514 0.535499 -0.404328 0
M  V30 6067 H 608.058 1.16492 -1.68077 0
M  V30 6068 H 606.213 3.6274 -1.36009 0
M  V30 6069 H 606.627 3.8494 -3.56261 0
M  V30 6070 H 608.101 5.01351 -2.30978 0
M  V30 6071 H 608.578 4.32589 -0.759168 0
M  V30 6072 H 609.184 3.59947 -2.26535 0
M  V30 6073 N 607.499 1.09233 1.13605 0
M  V30 6074 C 608.462 0.733553 2.17144 0
M  V30 6075 C 609.462 -0.235873 1.59061 0
M  V30 6076 O 610.652 -0.0143167 1.74194 0
M  V30 6077 C 607.784 0.084471 3.40795 0
M  V30 6078 H 608.977 1.65049 2.50397 0
M  V30 6079 H 606.53 0.891264 1.28399 0
M  V30 6080 H 607.265 -0.843795 3.1313 0
M  V30 6081 H 607.05 0.781985 3.84223 0
M  V30 6082 H 608.54 -0.151216 4.17326 0
M  V30 6083 N 608.977 -1.30795 0.87923 0
M  V30 6084 C 610.205 -2.00527 0.509548 0
M  V30 6085 C 610.62 -1.65944 -0.90045 0
M  V30 6086 O 609.977 -0.893525 -1.5913 0
M  V30 6087 C 610.028 -3.55276 0.667943 0
M  V30 6088 O 609.749 -3.88625 2.02242 0
M  V30 6089 C 611.25 -4.4228 0.300494 0
M  V30 6090 H 608.47 -0.641261 0.197549 0
M  V30 6091 H 611.014 -1.66813 1.18295 0
M  V30 6092 H 609.169 -3.87377 0.0419843 0
M  V30 6093 H 609.583 -4.83334 2.03688 0
M  V30 6094 H 611.057 -5.50061 0.462242 0
M  V30 6095 H 611.534 -4.32556 -0.76106 0
M  V30 6096 H 612.14 -4.15613 0.902536 0
M  V30 6097 N 610.455 -0.639598 -1.44038 0
M  V30 6098 C 611.683 -0.154811 -2.0632 0
M  V30 6099 C 612.098 1.17406 -1.47856 0
M  V30 6100 O 611.455 1.72193 -0.604638 0
M  V30 6101 C 611.506 -0.0429958 -3.61474 0
M  V30 6102 O 611.227 -1.31932 -4.17763 0
M  V30 6103 C 612.728 0.469486 -4.40807 0
M  V30 6104 H 609.948 -0.0835862 -0.665773 0
M  V30 6105 H 612.492 -0.876397 -1.84769 0
M  V30 6106 H 610.647 0.629075 -3.82258 0
M  V30 6107 H 611.061 -1.16965 -5.11292 0
M  V30 6108 H 612.535 0.496712 -5.49761 0
M  V30 6109 H 613.012 1.49819 -4.12857 0
M  V30 6110 H 613.618 -0.169624 -4.24962 0
M  V30 6111 N 611.933 1.52934 -0.380664 0
M  V30 6112 C 613.181 2.01069 0.203874 0
M  V30 6113 C 613.502 1.26922 1.4804 0
M  V30 6114 O 612.772 0.386787 1.92044 0
M  V30 6115 H 611.352 0.742882 0.0783279 0
M  V30 6116 H 614.014 1.88099 -0.510368 0
M  V30 6117 H 613.11 3.09258 0.42021 0
M  V30 6118 N 613.412 0.11024 1.57214 0
M  V30 6119 C 614.823 -0.416527 1.81994 0
M  V30 6120 C 615.174 -1.67183 1.02686 0
M  V30 6121 O 614.299 -2.14823 0.260782 0
M  V30 6122 C 614.894 -0.762466 3.30109 0
M  V30 6123 C 613.453 -1.23391 3.556 0
M  V30 6124 C 612.6 -0.238166 2.76275 0
M  V30 6125 H 615.551 0.335491 1.55113 0
M  V30 6126 H 615.572 -1.62068 3.44259 0
M  V30 6127 H 615.084 0.151346 3.87805 0
M  V30 6128 H 613.185 -2.16492 3.03253 0
M  V30 6129 H 613.298 -1.18528 4.64207 0
M  V30 6130 H 611.662 -0.723421 2.4421 0
M  V30 6131 H 612.445 0.668591 3.36727 0
M  V30 6132 N 614.89 -1.56749 -0.16351 0
M  V30 6133 C 616.301 -1.72039 -0.725216 0
M  V30 6134 C 616.652 -0.72202 -1.82432 0
M  V30 6135 O 615.777 0.114942 -2.16095 0
M  V30 6136 C 616.372 -3.11932 -1.32227 0
M  V30 6137 C 614.931 -3.28879 -1.83072 0
M  V30 6138 C 614.078 -2.67984 -0.712716 0
M  V30 6139 H 617.029 -1.58579 0.0619772 0
M  V30 6140 H 617.05 -3.11015 -2.19202 0
M  V30 6141 H 616.562 -3.84572 -0.522103 0
M  V30 6142 H 614.663 -2.61209 -2.65708 0
M  V30 6143 H 614.776 -4.36688 -1.97079 0
M  V30 6144 H 613.14 -2.28005 -1.13515 0
M  V30 6145 H 613.923 -3.43216 0.0757361 0
M  V30 6146 N 616.368 0.432326 -1.51554 0
M  V30 6147 C 617.779 1.01202 -1.56892 0
M  V30 6148 C 618.13 1.92175 -0.395394 0
M  V30 6149 O 617.255 2.10844 0.487198 0
M  V30 6150 C 617.85 1.84217 -2.8434 0
M  V30 6151 C 616.409 2.37228 -2.92233 0
M  V30 6152 C 615.556 1.16576 -2.51606 0
M  V30 6153 H 618.507 0.213407 -1.57259 0
M  V30 6154 H 618.528 2.69721 -2.68385 0
M  V30 6155 H 618.04 1.17979 -3.69733 0
M  V30 6156 H 616.141 3.06905 -2.11282 0
M  V30 6157 H 616.254 2.69682 -3.95991 0
M  V30 6158 H 614.618 1.51263 -2.04919 0
M  V30 6159 H 615.401 0.519404 -3.39348 0
M  V30 6160 N 617.846 1.41785 0.688094 0
M  V30 6161 C 618.793 1.44221 1.80191 0
M  V30 6162 C 619.763 0.295688 1.63447 0
M  V30 6163 O 620.948 0.49783 1.84191 0
M  V30 6164 C 618.088 1.33743 3.1813 0
M  V30 6165 C 617.201 2.58325 3.46254 0
M  V30 6166 C 616.336 2.40086 4.73848 0
M  V30 6167 C 615.375 3.60107 4.94964 0
M  V30 6168 N 614.512 3.40892 6.13789 0
M  V30 6169 H 619.352 2.39411 1.77444 0
M  V30 6170 H 616.889 1.18876 0.866423 0
M  V30 6171 H 618.847 1.25669 3.97823 0
M  V30 6172 H 617.477 0.42157 3.20035 0
M  V30 6173 H 616.529 2.7682 2.60912 0
M  V30 6174 H 617.841 3.4758 3.57756 0
M  V30 6175 H 616.995 2.29522 5.61609 0
M  V30 6176 H 615.734 1.483 4.64606 0
M  V30 6177 H 614.739 3.71118 4.05649 0
M  V30 6178 H 615.964 4.52857 5.06061 0
M  V30 6179 H 613.91 2.51812 6.05745 0
M  V30 6180 H 613.827 4.23727 6.26092 0
M  V30 6181 H 615.095 3.34114 7.04264 0
M  V30 6182 N 619.324 -0.923095 1.27737 0
M  V30 6183 C 620.254 -2.04124 1.13383 0
M  V30 6184 C 621.235 -1.70066 0.0340658 0
M  V30 6185 O 622.42 -1.93068 0.209383 0
M  V30 6186 C 619.55 -3.3831 0.785097 0
M  V30 6187 C 618.504 -3.86496 1.8386 0
M  V30 6188 C 617.83 -5.1754 1.34373 0
M  V30 6189 C 619.13 -4.09381 3.24353 0
M  V30 6190 H 620.824 -2.1639 2.06919 0
M  V30 6191 H 618.37 -1.03976 0.996243 0
M  V30 6192 H 620.323 -4.16016 0.671485 0
M  V30 6193 H 619.047 -3.2607 -0.185969 0
M  V30 6194 H 617.706 -3.10987 1.9412 0
M  V30 6195 H 617.354 -5.01696 0.361989 0
M  V30 6196 H 617.054 -5.50751 2.04811 0
M  V30 6197 H 618.578 -5.97811 1.24315 0
M  V30 6198 H 619.992 -4.77641 3.17067 0
M  V30 6199 H 618.389 -4.53906 3.92542 0
M  V30 6200 H 619.459 -3.14515 3.69064 0
M  V30 6201 N 620.802 -1.09834 -1.13024 0
M  V30 6202 C 622.042 -0.846664 -1.8604 0
M  V30 6203 C 622.406 0.616557 -1.81831 0
M  V30 6204 O 623.607 0.984329 -2.50129 0
M  V30 6205 C 621.878 -1.37228 -3.30005 0
M  V30 6206 S 623.437 -1.25511 -4.20467 0
M  V30 6207 H 620.255 -0.30611 -0.64173 0
M  V30 6208 H 622.857 -1.40255 -1.36194 0
M  V30 6209 H 621.561 -2.43138 -3.30624 0
M  V30 6210 H 621.092 -0.81271 -3.84914 0
M  V30 6211 H 623.107 -0.208762 -4.95761 0
M  V30 6212 N 622.28 1.30327 -0.886154 0
M  V30 6213 C 623.21 2.30549 -0.370028 0
M  V30 6214 C 624.191 1.61039 0.547751 0
M  V30 6215 O 625.376 1.8864 0.461353 0
M  V30 6216 C 622.506 3.44808 0.415275 0
M  V30 6217 C 621.46 4.26024 -0.41085 0
M  V30 6218 C 620.786 5.32347 0.501128 0
M  V30 6219 C 622.086 4.95433 -1.65359 0
M  V30 6220 H 623.78 2.73969 -1.20754 0
M  V30 6221 H 621.326 1.3171 -0.582097 0
M  V30 6222 H 623.279 4.13986 0.78699 0
M  V30 6223 H 622.003 3.00197 1.28644 0
M  V30 6224 H 620.662 3.58535 -0.764719 0
M  V30 6225 H 620.31 4.83982 1.37004 0
M  V30 6226 H 620.01 5.87581 -0.0478356 0
M  V30 6227 H 621.534 6.0438 0.869333 0
M  V30 6228 H 622.948 5.5712 -1.35239 0
M  V30 6229 H 621.345 5.60537 -2.14284 0
M  V30 6230 H 622.415 4.21493 -2.39733 0
M  V30 6231 N 623.758 0.647228 1.43697 0
M  V30 6232 C 625.004 0.158422 2.0218 0
M  V30 6233 C 625.337 -1.22233 1.50907 0
M  V30 6234 O 624.612 -1.81478 0.699702 0
M  V30 6235 C 624.895 0.1627 3.59732 0
M  V30 6236 C 624.748 1.57694 4.21251 0
M  V30 6237 C 626.067 -0.504138 4.37203 0
M  V30 6238 H 623.186 0.059042 0.734631 0
M  V30 6239 H 625.828 0.826772 1.71069 0
M  V30 6240 H 623.978 -0.406414 3.86368 0
M  V30 6241 H 625.65 2.19618 4.05667 0
M  V30 6242 H 623.893 2.12603 3.7813 0
M  V30 6243 H 624.564 1.53183 5.3032 0
M  V30 6244 H 627.04 -0.0199841 4.16095 0
M  V30 6245 H 625.916 -0.470394 5.46881 0
M  V30 6246 H 626.177 -1.57726 4.13007 0
M  V30 6247 N 625.236 -1.5273 0.388769 0
M  V30 6248 C 626.476 -2.03483 -0.193372 0
M  V30 6249 C 626.84 -1.26897 -1.44087 0
M  V30 6250 O 628.041 -1.67773 -2.10014 0
M  V30 6251 C 626.312 -3.54488 -0.455325 0
M  V30 6252 S 627.871 -4.27069 -1.00783 0
M  V30 6253 H 624.689 -0.708907 -0.0545131 0
M  V30 6254 H 627.291 -1.8798 0.536993 0
M  V30 6255 H 625.995 -4.07817 0.459722 0
M  V30 6256 H 625.526 -3.74196 -1.21413 0
M  V30 6257 H 627.541 -4.40185 -2.29023 0
M  V30 6258 N 626.714 -0.118576 -1.57153 0
M  V30 6259 C 627.939 0.550582 -1.99958 0
M  V30 6260 C 628.364 1.59458 -0.997736 0
M  V30 6261 O 627.722 1.81274 0.0306269 0
M  V30 6262 C 627.77 1.15379 -3.41643 0
M  V30 6263 O 626.874 2.26932 -3.44348 0
M  V30 6264 H 626.215 0.137567 -0.649593 0
M  V30 6265 H 628.745 -0.206926 -2.03551 0
M  V30 6266 H 628.755 1.48942 -3.79843 0
M  V30 6267 H 627.43 0.389087 -4.14076 0
M  V30 6268 H 626.007 1.94812 -3.17967 0
M  V30 6269 N 628.193 1.56834 0.155195 0
M  V30 6270 C 629.47 1.73799 0.897395 0
M  V30 6271 C 629.85 0.684379 1.99698 0
M  V30 6272 O 629.198 -0.298111 2.26547 0
M  V30 6273 C 629.408 3.17572 1.44737 0
M  V30 6274 C 630.756 3.79014 1.91399 0
M  V30 6275 O 631.78 3.20951 1.54496 0
M  V30 6276 O 630.639 4.80998 2.59429 0
M  V30 6277 H 627.733 0.710329 0.423511 0
M  V30 6278 H 630.279 1.69107 0.141761 0
M  V30 6279 H 629.051 3.85749 0.656741 0
M  V30 6280 H 628.674 3.26657 2.26674 0
M  V30 6281 N 629.671 -0.424282 1.51781 0
M  V30 6282 C 630.581 -1.54087 1.76902 0
M  V30 6283 C 631.597 -1.61249 0.653826 0
M  V30 6284 O 632.773 -1.78247 0.937552 0
M  V30 6285 C 629.838 -2.8996 1.90063 0
M  V30 6286 C 628.899 -2.92809 3.13945 0
M  V30 6287 C 628.132 -4.22201 3.26469 0
M  V30 6288 O 628.355 -5.15286 2.44616 0
M  V30 6289 O 627.289 -4.31599 4.1953 0
M  V30 6290 H 631.115 -1.358 2.71647 0
M  V30 6291 H 628.7 -0.608618 1.36441 0
M  V30 6292 H 630.582 -3.70575 2.0063 0
M  V30 6293 H 629.257 -3.08347 0.985067 0
M  V30 6294 H 628.164 -2.11102 3.08847 0
M  V30 6295 H 629.497 -2.79369 4.05233 0
M  V30 6296 N 631.149 -1.42148 -0.680565 0
M  V30 6297 C 632.112 -1.4488 -1.77602 0
M  V30 6298 C 633.112 -0.337209 -1.57224 0
M  V30 6299 O 634.302 -0.597778 -1.63622 0
M  V30 6300 C 631.434 -1.27483 -3.16166 0
M  V30 6301 H 632.627 -2.42412 -1.76568 0
M  V30 6302 H 630.18 -1.28511 -0.889645 0
M  V30 6303 H 630.915 -0.30851 -3.22829 0
M  V30 6304 H 630.7 -2.08037 -3.3236 0
M  V30 6305 H 632.19 -1.32265 -3.96101 0
M  V30 6306 N 632.627 0.916307 -1.28225 0
M  V30 6307 C 633.852 1.7043 -1.18188 0
M  V30 6308 C 634.277 1.86346 0.256274 0
M  V30 6309 O 633.635 1.37175 1.18544 0
M  V30 6310 C 633.683 3.07546 -1.88275 0
M  V30 6311 O 632.787 3.94904 -1.18848 0
M  V30 6312 H 632.128 0.521967 -0.410423 0
M  V30 6313 H 634.658 1.14589 -1.69501 0
M  V30 6314 H 634.668 3.57793 -1.96082 0
M  V30 6315 H 633.343 2.95279 -2.92887 0
M  V30 6316 H 631.92 3.53339 -1.19187 0
M  V30 6317 N 634.105 1.10431 1.1244 0
M  V30 6318 C 635.353 0.845045 1.83585 0
M  V30 6319 C 635.674 -0.631168 1.84503 0
M  V30 6320 O 634.944 -1.45825 1.30813 0
M  V30 6321 H 633.524 0.309628 0.679809 0
M  V30 6322 H 636.186 1.39458 1.36153 0
M  V30 6323 H 635.282 1.20786 2.8778 0
M  V30 6324 N 635.583 -1.29855 0.893053 0
M  V30 6325 C 636.823 -1.97612 0.522399 0
M  V30 6326 C 637.187 -1.68903 -0.913 0
M  V30 6327 O 638.388 -2.30059 -1.39019 0
M  V30 6328 C 636.659 -3.48356 0.79893 0
M  V30 6329 S 638.218 -4.35568 0.531588 0
M  V30 6330 H 635.036 -0.684005 0.194058 0
M  V30 6331 H 637.638 -1.57803 1.15406 0
M  V30 6332 H 636.342 -3.66743 1.84196 0
M  V30 6333 H 635.873 -3.93094 0.155133 0
M  V30 6334 H 637.888 -4.92232 -0.626295 0
M  V30 6335 N 637.061 -0.65484 -1.43351 0
M  V30 6336 C 638.011 0.0581325 -2.27926 0
M  V30 6337 C 638.995 0.793188 -1.3999 0
M  V30 6338 O 640.187 0.675387 -1.63608 0
M  V30 6339 C 637.316 1.02272 -3.27712 0
M  V30 6340 C 636.402 0.286048 -4.23134 0
M  V30 6341 N 636.793 -0.698298 -5.00957 0
M  V30 6342 C 635.091 0.527272 -4.42872 0
M  V30 6343 C 635.792 -1.1357 -5.70506 0
M  V30 6344 N 634.768 -0.469631 -5.41568 0
M  V30 6345 H 638.57 -0.697182 -2.85511 0
M  V30 6346 H 636.084 -0.482252 -1.55074 0
M  V30 6347 H 638.081 1.5483 -3.87083 0
M  V30 6348 H 636.741 1.77807 -2.71688 0
M  V30 6349 H 637.752 -1.07708 -5.06576 0
M  V30 6350 H 634.429 1.26367 -3.97916 0
M  V30 6351 H 635.819 -1.95027 -6.42973 0
M  V30 6352 N 638.539 1.52521 -0.396863 0
M  V30 6353 C 639.769 2.05792 0.182485 0
M  V30 6354 C 640.177 1.26784 1.40436 0
M  V30 6355 O 639.52 0.309617 1.81072 0
M  V30 6356 C 639.582 3.54291 0.609781 0
M  V30 6357 C 639.246 4.5426 -0.499674 0
M  V30 6358 C 640.243 5.01812 -1.35944 0
M  V30 6359 C 637.928 4.97827 -0.668864 0
M  V30 6360 C 639.922 5.91562 -2.37346 0
M  V30 6361 C 637.609 5.87376 -1.68621 0
M  V30 6362 C 638.607 6.34137 -2.53692 0
M  V30 6363 O 638.295 7.21915 -3.53686 0
M  V30 6364 H 638.027 0.675362 0.0293583 0
M  V30 6365 H 640.581 1.97539 -0.56281 0
M  V30 6366 H 638.811 3.60188 1.40717 0
M  V30 6367 H 640.5 3.90267 1.11565 0
M  V30 6368 H 641.266 4.68879 -1.24008 0
M  V30 6369 H 637.145 4.60997 -0.0163971 0
M  V30 6370 H 640.689 6.27983 -3.03782 0
M  V30 6371 H 636.586 6.19723 -1.80593 0
M  V30 6372 H 637.354 7.39996 -3.49784 0
M  V30 6373 N 640.017 0.126909 1.57088 0
M  V30 6374 C 641.265 -0.528123 1.95078 0
M  V30 6375 C 641.586 -1.66708 1.0116 0
M  V30 6376 O 640.856 -1.95777 0.0693527 0
M  V30 6377 H 639.436 -0.198087 0.720257 0
M  V30 6378 H 642.098 0.197703 1.93895 0
M  V30 6379 H 641.194 -0.917507 2.98309 0
M  V30 6380 N 641.495 -1.56914 -0.146875 0
M  V30 6381 C 642.741 -1.83628 -0.860741 0
M  V30 6382 C 643.074 -0.708528 -1.80813 0
M  V30 6383 O 642.349 0.287838 -1.92358 0
M  V30 6384 C 642.632 -3.20836 -1.63511 0
M  V30 6385 C 642.485 -4.44174 -0.709199 0
M  V30 6386 C 643.804 -3.55268 -2.59756 0
M  V30 6387 H 640.923 -0.667949 -0.311468 0
M  V30 6388 H 643.565 -1.89582 -0.125936 0
M  V30 6389 H 641.715 -3.15891 -2.26153 0
M  V30 6390 H 643.387 -4.61205 -0.0937781 0
M  V30 6391 H 641.63 -4.33796 -0.0187856 0
M  V30 6392 H 642.301 -5.36785 -1.28707 0
M  V30 6393 H 644.777 -3.60824 -2.07232 0
M  V30 6394 H 643.653 -4.52303 -3.10987 0
M  V30 6395 H 643.914 -2.81231 -3.41118 0
M  V30 6396 N 642.974 0.416227 -1.52004 0
M  V30 6397 C 643.904 1.51365 -1.77795 0
M  V30 6398 C 644.885 1.58059 -0.628601 0
M  V30 6399 O 646.07 1.73447 -0.873478 0
M  V30 6400 C 643.2 2.89256 -1.92219 0
M  V30 6401 C 642.154 2.97415 -3.0778 0
M  V30 6402 C 641.48 4.37492 -3.07417 0
M  V30 6403 C 642.78 2.69551 -4.47369 0
M  V30 6404 H 644.474 1.30033 -2.69688 0
M  V30 6405 H 642.02 0.624112 -1.29772 0
M  V30 6406 H 643.973 3.66008 -2.08845 0
M  V30 6407 H 642.697 3.11866 -0.969917 0
M  V30 6408 H 641.356 2.23107 -2.90893 0
M  V30 6409 H 641.004 4.571 -2.09925 0
M  V30 6410 H 640.704 4.43877 -3.85029 0
M  V30 6411 H 642.228 5.16188 -3.26162 0
M  V30 6412 H 643.642 3.36028 -4.64497 0
M  V30 6413 H 642.039 2.87321 -5.26846 0
M  V30 6414 H 643.109 1.65029 -4.55953 0
M  V30 6415 N 644.452 1.42507 0.673017 0
M  V30 6416 C 645.68 1.46473 1.46128 0
M  V30 6417 C 646.095 0.0765912 1.88645 0
M  V30 6418 O 645.452 -0.909057 1.58248 0
M  V30 6419 C 645.503 2.39339 2.70923 0
M  V30 6420 O 645.224 3.72752 2.3019 0
M  V30 6421 C 646.725 2.52343 3.64469 0
M  V30 6422 H 643.945 0.49812 0.449575 0
M  V30 6423 H 646.489 1.87041 0.826802 0
M  V30 6424 H 644.644 2.02019 3.30556 0
M  V30 6425 H 645.058 4.22503 3.10791 0
M  V30 6426 H 646.532 3.2144 4.48754 0
M  V30 6427 H 647.009 1.56189 4.1049 0
M  V30 6428 H 647.615 2.90392 3.10729 0
M  V30 6429 N 645.93 -0.909495 1.28709 0
M  V30 6430 C 647.17 -1.67344 1.17368 0
M  V30 6431 C 647.534 -1.90058 -0.272419 0
M  V30 6432 O 648.735 -2.63944 -0.508617 0
M  V30 6433 C 647.006 -2.99219 1.95455 0
M  V30 6434 S 648.565 -3.90295 2.00538 0
M  V30 6435 H 645.383 -0.57466 0.418672 0
M  V30 6436 H 647.985 -1.08144 1.62865 0
M  V30 6437 H 646.689 -2.80393 2.9968 0
M  V30 6438 H 646.22 -3.63464 1.50524 0
M  V30 6439 H 648.235 -4.83511 1.11496 0
M  V30 6440 N 647.408 -1.11026 -1.11852 0
M  V30 6441 C 648.656 -0.854769 -1.83134 0
M  V30 6442 C 648.977 0.621375 -1.84835 0
M  V30 6443 O 648.247 1.45129 -1.31584 0
M  V30 6444 H 646.827 -0.313229 -0.678157 0
M  V30 6445 H 649.489 -1.40178 -1.35411 0
M  V30 6446 H 648.585 -1.22311 -2.87135 0
M  V30 6447 N 648.886 1.2938 -0.899927 0
M  V30 6448 C 650.111 2.00228 -0.540692 0
M  V30 6449 C 650.536 1.66909 0.867359 0
M  V30 6450 O 649.894 0.893824 1.57735 0
M  V30 6451 C 649.942 3.52921 -0.740232 0
M  V30 6452 O 649.046 4.11879 0.207154 0
M  V30 6453 H 648.387 0.629505 -0.211233 0
M  V30 6454 H 650.917 1.6487 -1.21158 0
M  V30 6455 H 650.927 4.0287 -0.644973 0
M  V30 6456 H 649.602 3.76508 -1.76677 0
M  V30 6457 H 648.179 3.72845 0.0643315 0
M  V30 6458 N 650.364 0.662433 1.43002 0
M  V30 6459 C 651.604 0.183312 2.03576 0
M  V30 6460 C 651.968 -1.18354 1.51183 0
M  V30 6461 O 653.169 -1.7566 2.03462 0
M  V30 6462 C 651.44 0.202908 3.56824 0
M  V30 6463 S 652.999 -0.20702 4.38311 0
M  V30 6464 H 649.817 0.0765001 0.706872 0
M  V30 6465 H 652.419 0.872827 1.74934 0
M  V30 6466 H 651.123 1.20028 3.92456 0
M  V30 6467 H 650.654 -0.506845 3.90121 0
M  V30 6468 H 652.669 -1.44358 4.74737 0
M  V30 6469 N 651.842 -1.52309 0.404946 0
M  V30 6470 C 652.789 -2.26898 -0.422597 0
M  V30 6471 C 653.759 -1.2914 -1.04461 0
M  V30 6472 O 654.944 -1.57996 -1.06967 0
M  V30 6473 C 652.084 -3.09053 -1.53559 0
M  V30 6474 C 651.197 -4.21762 -0.934908 0
M  V30 6475 C 650.332 -4.91283 -2.02025 0
M  V30 6476 C 649.371 -5.95962 -1.39628 0
M  V30 6477 N 648.508 -6.59017 -2.42159 0
M  V30 6478 H 653.348 -2.97188 0.219903 0
M  V30 6479 H 650.885 -1.46607 0.120282 0
M  V30 6480 H 652.843 -3.54987 -2.19181 0
M  V30 6481 H 651.473 -2.40942 -2.14818 0
M  V30 6482 H 650.525 -3.80029 -0.167854 0
M  V30 6483 H 651.837 -4.96864 -0.439073 0
M  V30 6484 H 650.991 -5.40601 -2.75383 0
M  V30 6485 H 649.73 -4.15741 -2.54973 0
M  V30 6486 H 648.735 -5.45968 -0.648023 0
M  V30 6487 H 649.96 -6.73445 -0.874553 0
M  V30 6488 H 647.906 -5.86306 -2.94247 0
M  V30 6489 H 647.823 -7.2978 -1.97376 0
M  V30 6490 H 649.091 -7.12974 -3.15099 0
M  V30 6491 N 653.32 -0.135238 -1.57019 0
M  V30 6492 C 654.566 0.519563 -1.96032 0
M  V30 6493 C 654.899 1.65284 -1.01955 0
M  V30 6494 O 654.174 1.94408 -0.059727 0
M  V30 6495 C 654.457 1.0369 -3.44848 0
M  V30 6496 C 654.31 -0.0940754 -4.49702 0
M  V30 6497 C 655.629 1.92254 -3.95887 0
M  V30 6498 H 652.748 0.18739 -0.712779 0
M  V30 6499 H 655.39 -0.214086 -1.8879 0
M  V30 6500 H 653.54 1.66209 -3.5115 0
M  V30 6501 H 655.212 -0.73 -4.55487 0
M  V30 6502 H 653.455 -0.754924 -4.27181 0
M  V30 6503 H 654.126 0.309419 -5.51132 0
M  V30 6504 H 656.602 1.39581 -3.9199 0
M  V30 6505 H 655.478 2.25364 -5.00502 0
M  V30 6506 H 655.739 2.85513 -3.37543 0
M  V30 6507 N 654.798 1.5699 0.138552 0
M  V30 6508 C 656.045 1.83809 0.849732 0
M  V30 6509 C 656.373 0.717409 1.80786 0
M  V30 6510 O 655.628 -0.292897 1.93496 0
M  V30 6511 C 655.927 3.17007 1.65049 0
M  V30 6512 C 655.593 4.43037 0.838398 0
M  V30 6513 C 654.255 4.77262 0.614385 0
M  V30 6514 C 656.607 5.20495 0.271044 0
M  V30 6515 C 653.935 5.864 -0.187552 0
M  V30 6516 C 656.287 6.30476 -0.517979 0
M  V30 6517 C 654.951 6.63245 -0.75249 0
M  V30 6518 H 654.221 0.672605 0.310939 0
M  V30 6519 H 656.868 1.91166 0.112971 0
M  V30 6520 H 655.173 3.05138 2.4576 0
M  V30 6521 H 656.87 3.34975 2.20437 0
M  V30 6522 H 653.46 4.16211 1.02307 0
M  V30 6523 H 657.644 4.94422 0.431371 0
M  V30 6524 H 652.9 6.10226 -0.378659 0
M  V30 6525 H 657.074 6.89686 -0.964694 0
M  V30 6526 H 654.701 7.47648 -1.37573 0
M  V30 6527 N 656.276 -0.40816 1.52223 0
M  V30 6528 C 657.523 -1.15502 1.66329 0
M  V30 6529 C 657.851 -1.90474 0.393701 0
M  V30 6530 O 657.106 -1.85507 -0.623356 0
M  V30 6531 C 657.405 -2.17422 2.83659 0
M  V30 6532 C 657.071 -1.5925 4.21841 0
M  V30 6533 C 655.733 -1.4311 4.59427 0
M  V30 6534 C 658.085 -1.16776 5.0795 0
M  V30 6535 C 655.413 -0.830148 5.80797 0
M  V30 6536 C 657.765 -0.580988 6.29926 0
M  V30 6537 C 656.429 -0.406729 6.6626 0
M  V30 6538 H 655.699 -0.422653 0.608642 0
M  V30 6539 H 658.346 -0.442114 1.86327 0
M  V30 6540 H 656.651 -2.94861 2.58001 0
M  V30 6541 H 658.348 -2.75084 2.9177 0
M  V30 6542 H 654.938 -1.72796 3.92224 0
M  V30 6543 H 659.122 -1.28055 4.79495 0
M  V30 6544 H 654.378 -0.68316 6.07571 0
M  V30 6545 H 658.552 -0.243488 6.95974 0
M  V30 6546 H 656.179 0.0610366 7.60175 0
M  V30 6547 N 657.755 -1.42862 -0.66545 0
M  V30 6548 C 658.702 -1.4707 -1.77874 0
M  V30 6549 C 659.672 -0.321654 -1.62956 0
M  V30 6550 O 660.857 -0.52707 -1.83376 0
M  V30 6551 C 657.997 -1.38788 -3.15962 0
M  V30 6552 C 657.11 -2.63801 -3.42101 0
M  V30 6553 C 656.245 -2.47594 -4.69969 0
M  V30 6554 C 655.284 -3.67936 -4.89172 0
M  V30 6555 N 654.421 -3.50614 -6.08288 0
M  V30 6556 H 659.261 -2.42204 -1.73613 0
M  V30 6557 H 656.798 -1.20239 -0.847401 0
M  V30 6558 H 658.756 -1.31982 -3.95773 0
M  V30 6559 H 657.386 -0.472431 -3.19324 0
M  V30 6560 H 656.438 -2.80935 -2.56475 0
M  V30 6561 H 657.75 -3.53228 -3.52181 0
M  V30 6562 H 656.904 -2.38427 -5.57886 0
M  V30 6563 H 655.643 -1.55672 -4.62188 0
M  V30 6564 H 654.648 -3.77525 -3.99694 0
M  V30 6565 H 655.873 -4.60851 -4.98792 0
M  V30 6566 H 653.819 -2.61417 -6.01662 0
M  V30 6567 H 653.736 -4.33634 -6.19272 0
M  V30 6568 H 655.004 -3.45276 -6.98859 0
M  V30 6569 N 659.233 0.902656 -1.29189 0
M  V30 6570 C 660.649 1.18296 -1.07137 0
M  V30 6571 C 660.849 2.00701 0.179223 0
M  V30 6572 O 659.905 2.3675 0.877812 0
M  V30 6573 C 661.218 1.90677 -2.32514 0
M  V30 6574 C 662.766 2.03515 -2.37804 0
M  V30 6575 C 663.241 2.79307 -3.62976 0
M  V30 6576 N 664.732 2.86862 -3.63681 0
M  V30 6577 C 665.467 3.46035 -4.57217 0
M  V30 6578 N 664.963 4.06399 -5.61081 0
M  V30 6579 N 666.756 3.43681 -4.44792 0
M  V30 6580 H 658.907 0.352765 -2.0945 0
M  V30 6581 H 661.17 0.21876 -0.922414 0
M  V30 6582 H 660.876 1.3756 -3.23682 0
M  V30 6583 H 660.75 2.91169 -2.39793 0
M  V30 6584 H 663.137 2.55809 -1.47125 0
M  V30 6585 H 663.218 1.02166 -2.34512 0
M  V30 6586 H 662.862 2.2769 -4.54004 0
M  V30 6587 H 662.792 3.80995 -3.63525 0
M  V30 6588 H 665.283 2.43987 -2.88581 0
M  V30 6589 H 665.596 4.49564 -6.2858 0
M  V30 6590 H 663.941 4.0487 -5.64894 0
M  V30 6591 H 667.132 2.9574 -3.62843 0
M  V30 6592 H 667.305 3.89503 -5.17872 0
M  V30 6593 N 660.711 1.11618 1.11262 0
M  V30 6594 C 661.674 0.779447 2.15539 0
M  V30 6595 C 662.674 -0.202081 1.59525 0
M  V30 6596 O 663.864 0.0226356 1.74185 0
M  V30 6597 C 660.996 0.15674 3.40539 0
M  V30 6598 H 662.189 1.70324 2.4684 0
M  V30 6599 H 659.742 0.918298 1.26479 0
M  V30 6600 H 660.477 -0.777186 3.1485 0
M  V30 6601 H 660.262 0.863308 3.82478 0
M  V30 6602 H 661.752 -0.062661 4.17553 0
M  V30 6603 N 662.189 -1.289 0.906776 0
M  V30 6604 C 663.435 -1.95558 0.53712 0
M  V30 6605 C 663.768 -1.71262 -0.915582 0
M  V30 6606 O 663.043 -1.02961 -1.65013 0
M  V30 6607 C 663.326 -3.50198 0.838645 0
M  V30 6608 C 663.179 -3.83923 2.34357 0
M  V30 6609 C 664.498 -4.38861 0.329988 0
M  V30 6610 H 661.617 -0.710289 0.196617 0
M  V30 6611 H 664.259 -1.52392 1.13475 0
M  V30 6612 H 662.409 -3.87096 0.330024 0
M  V30 6613 H 664.081 -3.56933 2.92227 0
M  V30 6614 H 662.324 -3.31215 2.80141 0
M  V30 6615 H 662.995 -4.91883 2.5051 0
M  V30 6616 H 665.471 -4.08996 0.765609 0
M  V30 6617 H 664.347 -5.45931 0.570105 0
M  V30 6618 H 664.608 -4.35352 -0.769511 0
M  V30 6619 N 663.667 -0.670007 -1.42649 0
M  V30 6620 C 664.577 0.0114788 -2.34597 0
M  V30 6621 C 665.593 0.794055 -1.54825 0
M  V30 6622 O 666.769 0.737472 -1.87412 0
M  V30 6623 C 663.834 0.954436 -3.33304 0
M  V30 6624 C 662.895 0.166925 -4.28975 0
M  V30 6625 C 662.128 1.06497 -5.22967 0
M  V30 6626 O 662.351 2.30446 -5.21777 0
M  V30 6627 O 661.285 0.528347 -5.99577 0
M  V30 6628 H 665.111 -0.745794 -2.944 0
M  V30 6629 H 662.696 -0.430228 -1.43071 0
M  V30 6630 H 664.578 1.49589 -3.93956 0
M  V30 6631 H 663.253 1.69164 -2.7598 0
M  V30 6632 H 662.16 -0.418515 -3.71752 0
M  V30 6633 H 663.493 -0.531067 -4.89327 0
M  V30 6634 N 665.145 1.52092 -0.413018 0
M  V30 6635 C 666.393 2.01456 0.161178 0
M  V30 6636 C 666.714 1.30034 1.45314 0
M  V30 6637 O 665.984 0.427435 1.9118 0
M  V30 6638 H 664.564 0.744376 0.0625526 0
M  V30 6639 H 667.226 1.86974 -0.550151 0
M  V30 6640 H 666.322 3.1008 0.354517 0
M  V30 6641 N 666.623 0.143563 1.56945 0
M  V30 6642 C 667.555 -0.828353 2.13708 0
M  V30 6643 C 668.568 -1.21313 1.08568 0
M  V30 6644 O 669.757 -1.1578 1.35857 0
M  V30 6645 C 666.857 -2.12248 2.64204 0
M  V30 6646 C 666.03 -1.90561 3.93707 0
M  V30 6647 C 665.089 -3.03931 4.29549 0
M  V30 6648 O 664.115 -2.75772 4.97934 0
M  V30 6649 N 665.317 -4.31016 3.88852 0
M  V30 6650 H 668.082 -0.343242 2.97728 0
M  V30 6651 H 665.643 -0.0401152 1.6185 0
M  V30 6652 H 667.635 -2.87132 2.85197 0
M  V30 6653 H 666.205 -2.52033 1.84928 0
M  V30 6654 H 665.425 -0.997327 3.81375 0
M  V30 6655 H 666.713 -1.73405 4.78339 0
M  V30 6656 H 666.111 -4.56762 3.33743 0
M  V30 6657 H 664.668 -5.02691 4.14903 0
M  V30 6658 N 668.101 -1.57061 -0.130224 0
M  V30 6659 C 669.051 -1.95941 -1.16582 0
M  V30 6660 C 670.035 -0.832858 -1.37667 0
M  V30 6661 O 671.227 -1.09647 -1.38948 0
M  V30 6662 C 668.356 -2.35777 -2.49528 0
M  V30 6663 C 667.442 -3.5504 -2.31964 0
M  V30 6664 N 667.833 -4.71071 -1.84189 0
M  V30 6665 C 666.131 -3.60453 -2.62659 0
M  V30 6666 C 666.832 -5.53128 -1.80068 0
M  V30 6667 N 665.808 -4.95303 -2.24001 0
M  V30 6668 H 669.61 -2.83117 -0.788806 0
M  V30 6669 H 667.124 -1.58842 -0.3381 0
M  V30 6670 H 669.121 -2.61843 -3.24413 0
M  V30 6671 H 667.781 -1.49961 -2.87996 0
M  V30 6672 H 668.792 -4.94504 -1.53903 0
M  V30 6673 H 665.469 -2.85217 -3.0489 0
M  V30 6674 H 666.859 -6.56182 -1.4448 0
M  V30 6675 N 669.579 0.400081 -1.52437 0
M  V30 6676 C 670.527 1.50851 -1.7705 0
M  V30 6677 C 671.521 1.56928 -0.637969 0
M  V30 6678 O 672.727 1.60226 -0.820212 0
M  V30 6679 H 669.102 0.50186 -0.560036 0
M  V30 6680 H 671.073 1.27281 -2.69893 0
M  V30 6681 C 669.822 2.88117 -1.94638 0
M  V30 6682 H 669.145 2.84187 -2.81208 0
M  V30 6683 H 670.585 3.64942 -2.15855 0
M  V30 6684 C 669.044 3.29206 -0.715899 0
M  V30 6685 O 669.574 4.01544 0.111944 0
M  V30 6686 N 667.78 2.85363 -0.549191 0
M  V30 6687 H 667.327 2.26664 -1.22397 0
M  V30 6688 H 667.285 3.13214 0.27278 0
M  V30 6689 N 671.057 1.43213 0.657864 0
M  V30 6690 C 672.287 1.478 1.44356 0
M  V30 6691 C 672.695 0.0930206 1.88971 0
M  V30 6692 O 672.038 -0.906089 1.59799 0
M  V30 6693 C 672.1 2.35745 2.71412 0
M  V30 6694 C 671.764 3.83359 2.48767 0
M  V30 6695 C 672.761 4.74585 2.12285 0
M  V30 6696 C 670.446 4.27799 2.63235 0
M  V30 6697 C 672.44 6.08247 1.90562 0
M  V30 6698 C 670.127 5.61516 2.41128 0
M  V30 6699 C 671.125 6.51557 2.04847 0
M  V30 6700 O 670.813 7.82802 1.82967 0
M  V30 6701 H 670.545 0.504363 0.450104 0
M  V30 6702 H 673.099 1.88572 0.814241 0
M  V30 6703 H 671.329 1.89852 3.36887 0
M  V30 6704 H 673.018 2.31589 3.33348 0
M  V30 6705 H 673.784 4.41531 2.00687 0
M  V30 6706 H 669.663 3.57993 2.90451 0
M  V30 6707 H 673.207 6.78489 1.62168 0
M  V30 6708 H 669.104 5.94139 2.52327 0
M  V30 6709 H 669.872 7.94332 1.97429 0
M  V30 6710 N 672.536 -0.895792 1.29666 0
M  V30 6711 C 673.466 -2.01673 1.17688 0
M  V30 6712 C 674.447 -1.69955 0.0701317 0
M  V30 6713 O 675.632 -1.9258 0.250289 0
M  V30 6714 C 672.762 -3.36568 0.856681 0
M  V30 6715 C 671.716 -3.82509 1.92017 0
M  V30 6716 C 671.042 -5.14574 1.4532 0
M  V30 6717 C 672.342 -4.02409 3.32963 0
M  V30 6718 H 674.036 -2.11953 2.11463 0
M  V30 6719 H 671.582 -1.01839 1.01807 0
M  V30 6720 H 673.535 -4.14498 0.759577 0
M  V30 6721 H 672.259 -3.26391 -0.116763 0
M  V30 6722 H 670.918 -3.068 2.00673 0
M  V30 6723 H 670.566 -5.00815 0.468325 0
M  V30 6724 H 670.266 -5.46283 2.16447 0
M  V30 6725 H 671.79 -5.9504 1.36968 0
M  V30 6726 H 673.204 -4.70808 3.27127 0
M  V30 6727 H 671.601 -4.45478 4.02082 0
M  V30 6728 H 672.671 -3.06616 3.75652 0
M  V30 6729 N 674.014 -1.12206 -1.10668 0
M  V30 6730 C 675.254 -0.885935 -1.84202 0
M  V30 6731 C 675.618 0.577849 -1.83098 0
M  V30 6732 O 676.819 0.931051 -2.5216 0
M  V30 6733 C 675.09 -1.44197 -3.2702 0
M  V30 6734 S 676.649 -1.34402 -4.1771 0
M  V30 6735 H 673.467 -0.319653 -0.635093 0
M  V30 6736 H 676.069 -1.43112 -1.33189 0
M  V30 6737 H 674.773 -2.50096 -3.25392 0
M  V30 6738 H 674.304 -0.894173 -3.83103 0
M  V30 6739 H 676.319 -0.313873 -4.95206 0
M  V30 6740 N 675.492 1.28418 -0.913599 0
M  V30 6741 C 676.455 2.25564 -0.406624 0
M  V30 6742 C 677.455 1.5387 0.466965 0
M  V30 6743 O 678.645 1.72094 0.270042 0
M  V30 6744 C 675.777 3.38339 0.417053 0
M  V30 6745 H 676.97 2.71926 -1.26477 0
M  V30 6746 H 674.523 1.40098 -0.692986 0
M  V30 6747 H 675.258 2.97339 1.29461 0
M  V30 6748 H 675.043 3.91542 -0.209102 0
M  V30 6749 H 676.533 4.10578 0.762602 0
M  V30 6750 N 676.97 0.677563 1.42291 0
M  V30 6751 C 678.218 0.200578 2.01102 0
M  V30 6752 C 678.539 -1.19803 1.53858 0
M  V30 6753 O 677.809 -1.80496 0.761439 0
M  V30 6754 H 676.389 0.0711634 0.743603 0
M  V30 6755 H 679.051 0.874691 1.7417 0
M  V30 6756 H 678.147 0.204 3.11433 0
M  V30 6757 N 678.448 -1.51871 0.421078 0
M  V30 6758 C 679.864 -1.59435 0.0725398 0
M  V30 6759 C 680.064 -1.43315 -1.41644 0
M  V30 6760 O 679.12 -1.26614 -2.18461 0
M  V30 6761 C 680.433 -2.9509 0.578132 0
M  V30 6762 C 681.981 -3.08356 0.537149 0
M  V30 6763 C 682.456 -4.4651 1.01945 0
M  V30 6764 N 683.947 -4.52784 0.976758 0
M  V30 6765 C 684.682 -5.57976 1.32099 0
M  V30 6766 N 684.178 -6.70664 1.73727 0
M  V30 6767 N 685.971 -5.48248 1.2402 0
M  V30 6768 H 678.122 -1.60595 1.39007 0
M  V30 6769 H 680.385 -0.756138 0.571803 0
M  V30 6770 H 680.091 -3.12205 1.61929 0
M  V30 6771 H 679.965 -3.772 -0.00578374 0
M  V30 6772 H 682.352 -2.90919 -0.494991 0
M  V30 6773 H 682.433 -2.28125 1.15727 0
M  V30 6774 H 682.077 -4.64692 2.04997 0
M  V30 6775 H 682.007 -5.25256 0.376023 0
M  V30 6776 H 684.498 -3.71898 0.670851 0
M  V30 6777 H 684.811 -7.46932 1.98274 0
M  V30 6778 H 683.156 -6.71914 1.77641 0
M  V30 6779 H 686.347 -4.59095 0.913756 0
M  V30 6780 H 686.52 -6.30119 1.51176 0
M  V30 6781 N 679.926 -0.151884 -1.56866 0
M  V30 6782 C 680.874 0.80299 -2.183 0
M  V30 6783 C 681.868 1.25174 -1.14139 0
M  V30 6784 O 683.074 1.21966 -1.3238 0
M  V30 6785 H 679.449 0.277169 -0.699057 0
M  V30 6786 H 681.42 0.260699 -2.97259 0
M  V30 6787 C 680.169 2.03009 -2.82281 0
M  V30 6788 H 679.492 1.69377 -3.62148 0
M  V30 6789 H 680.932 2.67753 -3.28762 0
M  V30 6790 C 679.391 2.84123 -1.81041 0
M  V30 6791 O 679.921 3.8063 -1.28388 0
M  V30 6792 N 678.127 2.48753 -1.50234 0
M  V30 6793 H 677.674 1.70337 -1.93244 0
M  V30 6794 H 677.632 3.03316 -0.827445 0
M  V30 6795 N 681.404 1.57128 0.121893 0
M  V30 6796 C 682.681 1.75664 0.860327 0
M  V30 6797 C 683.061 0.726585 1.98202 0
M  V30 6798 O 682.409 -0.24999 2.27128 0
M  V30 6799 C 682.619 3.20571 1.37968 0
M  V30 6800 C 683.967 3.82988 1.83317 0
M  V30 6801 O 684.991 3.24156 1.47654 0
M  V30 6802 O 683.85 4.86393 2.49168 0
M  V30 6803 H 680.944 0.719153 0.408348 0
M  V30 6804 H 683.49 1.6937 0.105859 0
M  V30 6805 H 682.262 3.87056 0.57477 0
M  V30 6806 H 681.885 3.31392 2.19694 0
M  V30 6807 N 682.882 -0.391992 1.52647 0
M  V30 6808 C 684.122 -1.1463 1.69232 0
M  V30 6809 C 684.486 -1.87312 0.421684 0
M  V30 6810 O 685.687 -2.64768 0.463852 0
M  V30 6811 C 683.958 -2.10088 2.89133 0
M  V30 6812 S 685.517 -2.93395 3.2629 0
M  V30 6813 H 682.335 -0.388076 0.59575 0
M  V30 6814 H 684.937 -0.431149 1.90687 0
M  V30 6815 H 683.641 -1.55408 3.79837 0
M  V30 6816 H 683.172 -2.86116 2.70003 0
M  V30 6817 H 685.187 -4.12193 2.76244 0
M  V30 6818 N 684.36 -1.4356 -0.65026 0
M  V30 6819 C 685.609 -1.44619 -1.406 0
M  V30 6820 C 685.922 -0.0752645 -1.95455 0
M  V30 6821 O 687.128 0.0366832 -2.71475 0
M  V30 6822 C 685.584 -2.54511 -2.54465 0
M  V30 6823 C 685.192 -3.97723 -2.06204 0
M  V30 6824 C 686.936 -2.64768 -3.31811 0
M  V30 6825 C 684.843 -4.99075 -3.17298 0
M  V30 6826 H 683.773 -0.537983 -0.52829 0
M  V30 6827 H 686.424 -1.69559 -0.701561 0
M  V30 6828 H 684.806 -2.22777 -3.27393 0
M  V30 6829 H 685.98 -4.38932 -1.40267 0
M  V30 6830 H 684.295 -3.91538 -1.41729 0
M  V30 6831 H 686.892 -3.37664 -4.14593 0
M  V30 6832 H 687.235 -1.69936 -3.80036 0
M  V30 6833 H 687.768 -2.95817 -2.65964 0
M  V30 6834 H 684.507 -5.95469 -2.74038 0
M  V30 6835 H 684.027 -4.62476 -3.81937 0
M  V30 6836 H 685.706 -5.21913 -3.82382 0
M  V30 6837 N 685.838 0.888903 -1.30139 0
M  V30 6838 C 687.087 1.63507 -1.18103 0
M  V30 6839 C 687.4 1.93808 0.264141 0
M  V30 6840 O 688.606 2.66744 0.505966 0
M  V30 6841 C 687.062 2.94673 -2.0663 0
M  V30 6842 C 686.67 2.71926 -3.56034 0
M  V30 6843 C 688.414 3.72626 -2.03346 0
M  V30 6844 C 686.321 3.98884 -4.3663 0
M  V30 6845 H 685.251 0.613426 -0.438435 0
M  V30 6846 H 687.902 0.984427 -1.54859 0
M  V30 6847 H 686.284 3.61009 -1.62754 0
M  V30 6848 H 687.458 2.14116 -4.08033 0
M  V30 6849 H 685.773 2.07353 -3.61101 0
M  V30 6850 H 688.37 4.66775 -2.60816 0
M  V30 6851 H 688.713 4.03712 -1.016 0
M  V30 6852 H 689.246 3.13147 -2.45324 0
M  V30 6853 H 685.985 3.72959 -5.39056 0
M  V30 6854 H 685.505 4.56214 -3.89396 0
M  V30 6855 H 687.184 4.66938 -4.47859 0
M  V30 6856 N 687.317 1.12792 1.10072 0
M  V30 6857 C 688.594 0.796867 1.78632 0
M  V30 6858 C 688.974 -0.712739 1.98704 0
M  V30 6859 O 688.322 -1.64773 1.5831 0
M  V30 6860 C 688.532 1.57622 3.11378 0
M  V30 6861 C 689.88 1.76463 3.86194 0
M  V30 6862 O 690.904 1.54165 3.2111 0
M  V30 6863 O 689.763 2.13623 5.03018 0
M  V30 6864 H 686.857 0.290248 0.774394 0
M  V30 6865 H 689.403 1.23215 1.16688 0
M  V30 6866 H 688.175 2.60246 2.92212 0
M  V30 6867 H 687.798 1.13543 3.81043 0
M  V30 6868 N 688.795 -1.27931 0.920396 0
M  V30 6869 C 689.742 -2.27085 0.412422 0
M  V30 6870 C 690.712 -1.57858 -0.516725 0
M  V30 6871 O 691.897 -1.85717 -0.437475 0
M  V30 6872 C 689.037 -3.43466 -0.335399 0
M  V30 6873 C 688.15 -4.27425 0.627017 0
M  V30 6874 C 687.285 -5.31016 -0.139916 0
M  V30 6875 C 686.324 -6.06641 0.815683 0
M  V30 6876 N 685.461 -7.02052 0.0818439 0
M  V30 6877 H 690.301 -2.69913 1.26298 0
M  V30 6878 H 687.838 -1.32732 0.634076 0
M  V30 6879 H 689.796 -4.09744 -0.785226 0
M  V30 6880 H 688.426 -3.01611 -1.15025 0
M  V30 6881 H 687.478 -3.6113 1.19537 0
M  V30 6882 H 688.79 -4.79969 1.35763 0
M  V30 6883 H 687.944 -6.03208 -0.649998 0
M  V30 6884 H 686.683 -4.79257 -0.903543 0
M  V30 6885 H 685.688 -5.33294 1.33708 0
M  V30 6886 H 686.913 -6.60489 1.57897 0
M  V30 6887 H 684.859 -6.52634 -0.663671 0
M  V30 6888 H 684.776 -7.52249 0.752163 0
M  V30 6889 H 686.044 -7.78432 -0.407825 0
M  V30 6890 N 690.273 -0.685099 -1.4193 0
M  V30 6891 C 691.522 -0.208816 -2.00616 0
M  V30 6892 C 691.835 1.19506 -1.54847 0
M  V30 6893 O 693.041 1.76826 -2.06021 0
M  V30 6894 C 691.497 -0.322446 -3.58453 0
M  V30 6895 C 691.105 -1.73102 -4.13206 0
M  V30 6896 C 692.849 0.0945979 -4.24395 0
M  V30 6897 C 690.756 -1.79687 -5.63442 0
M  V30 6898 H 689.686 -0.0743092 -0.750329 0
M  V30 6899 H 692.337 -0.851778 -1.62533 0
M  V30 6900 H 690.719 0.388588 -3.94089 0
M  V30 6901 H 691.893 -2.46997 -3.8901 0
M  V30 6902 H 690.208 -2.09682 -3.59753 0
M  V30 6903 H 692.805 0.0656937 -5.3466 0
M  V30 6904 H 693.148 1.1316 -4.00625 0
M  V30 6905 H 693.681 -0.56579 -3.93756 0
M  V30 6906 H 690.42 -2.81404 -5.92024 0
M  V30 6907 H 689.94 -1.10162 -5.89597 0
M  V30 6908 H 691.619 -1.55498 -6.28036 0
M  V30 6909 N 691.751 1.51645 -0.429126 0
M  V30 6910 C 693.167 1.59394 -0.080994 0
M  V30 6911 C 693.367 1.44064 1.40882 0
M  V30 6912 O 692.423 1.27771 2.17786 0
M  V30 6913 C 693.736 2.94779 -0.593773 0
M  V30 6914 C 695.284 3.08067 -0.553494 0
M  V30 6915 C 695.759 4.45963 -1.04311 0
M  V30 6916 N 697.25 4.5226 -1.00076 0
M  V30 6917 C 697.985 5.57268 -1.35056 0
M  V30 6918 N 697.481 6.69734 -1.77282 0
M  V30 6919 N 699.274 5.47582 -1.26925 0
M  V30 6920 H 691.425 1.59856 -1.39857 0
M  V30 6921 H 693.688 0.753095 -0.575805 0
M  V30 6922 H 693.394 3.11342 -1.63583 0
M  V30 6923 H 693.268 3.77197 -0.0142202 0
M  V30 6924 H 695.655 2.91177 0.479556 0
M  V30 6925 H 695.736 2.27508 -1.16935 0
M  V30 6926 H 695.38 4.63598 -2.07459 0
M  V30 6927 H 695.31 5.25049 -0.403873 0
M  V30 6928 H 697.801 3.71537 -0.690564 0
M  V30 6929 H 698.114 7.4587 -2.02232 0
M  V30 6930 H 696.459 6.70963 -1.81202 0
M  V30 6931 H 699.65 4.58604 -0.93809 0
M  V30 6932 H 699.823 6.29308 -1.54516 0
M  V30 6933 N 693.229 0.160201 1.56784 0
M  V30 6934 C 694.645 -0.196089 1.58391 0
M  V30 6935 C 694.845 -1.63689 1.17508 0
M  V30 6936 O 693.901 -2.36613 0.881506 0
M  V30 6937 C 695.214 0.0746449 3.00607 0
M  V30 6938 C 696.762 0.0119762 3.12998 0
M  V30 6939 C 697.237 0.255551 4.57286 0
M  V30 6940 N 698.728 0.202938 4.62755 0
M  V30 6941 C 699.463 0.365731 5.72232 0
M  V30 6942 N 698.959 0.586972 6.90309 0
M  V30 6943 N 700.752 0.302411 5.61286 0
M  V30 6944 H 692.903 1.1008 1.81648 0
M  V30 6945 H 695.166 0.436779 0.841384 0
M  V30 6946 H 694.872 1.07231 3.34954 0
M  V30 6947 H 694.746 -0.638802 3.71751 0
M  V30 6948 H 697.133 -0.976254 2.78484 0
M  V30 6949 H 697.214 0.75796 2.44313 0
M  V30 6950 H 696.858 1.24094 4.92507 0
M  V30 6951 H 696.788 -0.510912 5.24116 0
M  V30 6952 H 699.279 0.0371328 3.77882 0
M  V30 6953 H 699.592 0.700941 7.69615 0
M  V30 6954 H 697.937 0.623453 6.92198 0
M  V30 6955 H 701.128 0.130238 4.67919 0
M  V30 6956 H 701.301 0.432712 6.46554 0
M  V30 6957 N 694.707 -1.5719 -0.113559 0
M  V30 6958 C 695.654 -2.00736 -1.13901 0
M  V30 6959 C 696.624 -0.88044 -1.40846 0
M  V30 6960 O 697.809 -1.14507 -1.5262 0
M  V30 6961 C 694.949 -2.42132 -2.45899 0
M  V30 6962 C 694.062 -3.68264 -2.25844 0
M  V30 6963 C 693.197 -3.98617 -3.5111 0
M  V30 6964 C 692.236 -5.17915 -3.26236 0
M  V30 6965 N 691.373 -5.44111 -4.4372 0
M  V30 6966 H 696.213 -2.88128 -0.760677 0
M  V30 6967 H 693.75 -1.42523 -0.364099 0
M  V30 6968 H 695.708 -2.6417 -3.22908 0
M  V30 6969 H 694.338 -1.57775 -2.81615 0
M  V30 6970 H 693.39 -3.53809 -1.39726 0
M  V30 6971 H 694.702 -4.55425 -2.03444 0
M  V30 6972 H 693.856 -4.21333 -4.36536 0
M  V30 6973 H 692.595 -3.09942 -3.76546 0
M  V30 6974 H 691.6 -4.95038 -2.39202 0
M  V30 6975 H 692.825 -6.08172 -3.02165 0
M  V30 6976 H 690.771 -4.58394 -4.69266 0
M  V30 6977 H 690.688 -6.25606 -4.24444 0
M  V30 6978 H 691.956 -5.71351 -5.30263 0
M  V30 6979 N 696.185 0.383891 -1.52853 0
M  V30 6980 C 697.133 1.48965 -1.7864 0
M  V30 6981 C 698.127 1.56242 -0.654577 0
M  V30 6982 O 699.333 1.59347 -0.83716 0
M  V30 6983 H 695.708 0.495892 -0.565328 0
M  V30 6984 H 697.679 1.24411 -2.71228 0
M  V30 6985 C 696.428 2.86036 -1.97683 0
M  V30 6986 H 695.751 2.81188 -2.84206 0
M  V30 6987 H 697.191 3.62632 -2.19713 0
M  V30 6988 C 695.65 3.28428 -0.750776 0
M  V30 6989 O 696.18 4.0164 0.0693491 0
M  V30 6990 N 694.386 2.84765 -0.579427 0
M  V30 6991 H 693.933 2.25353 -1.24795 0
M  V30 6992 H 693.891 3.13486 0.239544 0
M  V30 6993 N 697.663 1.43903 0.642637 0
M  V30 6994 C 698.903 1.47591 1.41408 0
M  V30 6995 C 699.267 0.101313 1.91733 0
M  V30 6996 O 700.468 0.0128797 2.68797 0
M  V30 6997 C 698.739 2.4977 2.55636 0
M  V30 6998 S 700.298 2.72417 3.43998 0
M  V30 6999 H 697.116 0.522163 0.482563 0
M  V30 7000 H 699.718 1.80745 0.745085 0
M  V30 7001 H 698.422 3.48365 2.16956 0
M  V30 7002 H 697.953 2.1815 3.27375 0
M  V30 7003 H 699.968 2.03142 4.52712 0
M  V30 7004 N 699.141 -0.881989 1.30609 0
M  V30 7005 C 700.552 -1.44956 1.17664 0
M  V30 7006 C 700.903 -1.94945 -0.221531 0
M  V30 7007 O 700.028 -1.85257 -1.11844 0
M  V30 7008 C 700.623 -2.63474 2.12995 0
M  V30 7009 C 699.182 -3.16312 2.04019 0
M  V30 7010 C 698.329 -1.89008 2.02907 0
M  V30 7011 H 701.28 -0.691645 1.42835 0
M  V30 7012 H 701.301 -3.39783 1.71253 0
M  V30 7013 H 700.813 -2.2706 3.14746 0
M  V30 7014 H 698.914 -3.57376 1.0542 0
M  V30 7015 H 699.027 -3.79409 2.9255 0
M  V30 7016 H 697.391 -2.07465 1.47751 0
M  V30 7017 H 698.174 -1.54848 3.06394 0
M  V30 7018 N 700.619 -1.13374 -1.09472 0
M  V30 7019 C 701.582 -0.813639 -2.14272 0
M  V30 7020 C 702.582 0.176677 -1.59826 0
M  V30 7021 O 703.772 -0.0503441 -1.74127 0
M  V30 7022 C 700.904 -0.210897 -3.40247 0
M  V30 7023 H 702.097 -1.74229 -2.44099 0
M  V30 7024 H 699.65 -0.938304 -1.25002 0
M  V30 7025 H 700.385 0.726998 -3.16046 0
M  V30 7026 H 700.17 -0.924048 -3.81056 0
M  V30 7027 H 701.66 -0.00377603 -4.176 0
M  V30 7028 N 702.098 1.27442 -0.927168 0
M  V30 7029 C 703.338 1.96157 -0.574608 0
M  V30 7030 C 703.702 1.71265 0.867897 0
M  V30 7031 O 704.903 2.33664 1.3287 0
M  V30 7032 C 703.174 3.46115 -0.891009 0
M  V30 7033 S 704.733 4.34006 -0.646885 0
M  V30 7034 H 701.551 0.678619 -0.212125 0
M  V30 7035 H 704.153 1.54688 -1.19549 0
M  V30 7036 H 702.857 3.6173 -1.93854 0
M  V30 7037 H 702.388 3.92545 -0.259301 0
M  V30 7038 H 704.403 4.93719 0.495568 0
M  V30 7039 N 703.576 0.692616 1.41565 0
M  V30 7040 C 704.992 0.363878 1.55397 0
M  V30 7041 C 705.192 -1.1294 1.66874 0
M  V30 7042 O 704.248 -1.91517 1.64552 0
M  V30 7043 C 705.561 1.10982 2.7947 0
M  V30 7044 C 707.109 1.09387 2.93263 0
M  V30 7045 C 707.584 1.8215 4.20221 0
M  V30 7046 N 709.075 1.79105 4.27172 0
M  V30 7047 C 709.81 2.32247 5.2426 0
M  V30 7048 N 709.306 2.93847 6.27396 0
M  V30 7049 N 711.099 2.22519 5.1618 0
M  V30 7050 H 703.25 1.66116 1.3236 0
M  V30 7051 H 705.513 0.700848 0.63837 0
M  V30 7052 H 705.219 2.1647 2.77188 0
M  V30 7053 H 705.093 0.686492 3.709 0
M  V30 7054 H 707.48 0.0472638 2.95062 0
M  V30 7055 H 707.561 1.55623 2.03015 0
M  V30 7056 H 707.205 2.86789 4.19183 0
M  V30 7057 H 707.135 1.33351 5.09436 0
M  V30 7058 H 709.626 1.34191 3.53272 0
M  V30 7059 H 709.939 3.31972 6.97864 0
M  V30 7060 H 708.284 2.97924 6.27906 0
M  V30 7061 H 711.475 1.7407 4.34531 0
M  V30 7062 H 711.648 2.64239 5.91677 0
M  V30 7063 N 705.054 -1.51416 0.437162 0
M  V30 7064 C 706.284 -2.06204 -0.127859 0
M  V30 7065 C 706.692 -1.30463 -1.37026 0
M  V30 7066 O 706.035 -0.357516 -1.80187 0
M  V30 7067 C 706.097 -3.55783 -0.515632 0
M  V30 7068 C 705.761 -4.52776 0.619937 0
M  V30 7069 C 706.758 -4.98031 1.49201 0
M  V30 7070 C 704.443 -4.95878 0.800618 0
M  V30 7071 C 706.437 -5.85061 2.52947 0
M  V30 7072 C 704.124 -5.82699 1.84135 0
M  V30 7073 C 705.122 -6.27188 2.70416 0
M  V30 7074 O 704.81 -7.12284 3.72702 0
M  V30 7075 H 704.542 -0.675903 -0.011442 0
M  V30 7076 H 707.096 -1.95977 0.614986 0
M  V30 7077 H 705.326 -3.63793 -1.31118 0
M  V30 7078 H 707.015 -3.93087 -1.01179 0
M  V30 7079 H 707.781 -4.65426 1.36395 0
M  V30 7080 H 703.66 -4.60792 0.138617 0
M  V30 7081 H 707.204 -6.19708 3.20325 0
M  V30 7082 H 703.101 -6.14717 1.9696 0
M  V30 7083 H 703.869 -7.30462 3.69281 0
M  V30 7084 N 706.532 -0.168513 -1.56696 0
M  V30 7085 C 707.948 0.187686 -1.58493 0
M  V30 7086 C 708.148 1.63063 -1.18375 0
M  V30 7087 O 707.204 2.36142 -0.894042 0
M  V30 7088 C 708.517 -0.0905858 -3.00564 0
M  V30 7089 C 710.065 -0.028575 -3.12987 0
M  V30 7090 C 710.54 -0.279799 -4.57145 0
M  V30 7091 N 712.031 -0.227476 -4.62641 0
M  V30 7092 C 712.766 -0.396073 -5.7203 0
M  V30 7093 N 712.262 -0.623572 -6.89988 0
M  V30 7094 N 714.055 -0.332173 -5.61118 0
M  V30 7095 H 706.206 -1.11042 -1.81062 0
M  V30 7096 H 708.469 -0.441235 -0.839056 0
M  V30 7097 H 708.175 -1.09006 -3.34381 0
M  V30 7098 H 708.049 0.619078 -3.72085 0
M  V30 7099 H 710.436 0.961471 -2.78998 0
M  V30 7100 H 710.517 -0.770905 -2.43907 0
M  V30 7101 H 710.161 -1.26704 -4.91842 0
M  V30 7102 H 710.091 0.48311 -5.24379 0
M  V30 7103 H 712.582 -0.0571723 -3.77857 0
M  V30 7104 H 712.895 -0.741745 -7.69232 0
M  V30 7105 H 711.24 -0.660153 -6.91858 0
M  V30 7106 H 714.431 -0.155051 -4.67843 0
M  V30 7107 H 714.604 -0.466994 -6.46315 0
M  V30 7108 N 708.01 1.57248 0.105221 0
M  V30 7109 C 708.957 2.01338 1.12835 0
M  V30 7110 C 709.927 0.887897 1.40377 0
M  V30 7111 O 711.112 1.15315 1.5201 0
M  V30 7112 C 708.252 2.43432 2.44611 0
M  V30 7113 C 707.365 3.69457 2.23888 0
M  V30 7114 C 706.5 4.00473 3.48991 0
M  V30 7115 C 705.539 5.19638 3.23485 0
M  V30 7116 N 704.676 5.46457 4.40828 0
M  V30 7117 H 709.516 2.88527 0.745386 0
M  V30 7118 H 707.053 1.42714 0.356535 0
M  V30 7119 H 709.011 2.65879 3.21503 0
M  V30 7120 H 707.641 1.59266 2.80774 0
M  V30 7121 H 706.693 3.54545 1.37847 0
M  V30 7122 H 708.005 4.56497 2.01026 0
M  V30 7123 H 707.159 4.23642 4.34295 0
M  V30 7124 H 705.898 3.11935 3.74897 0
M  V30 7125 H 704.903 4.96299 2.36574 0
M  V30 7126 H 706.128 6.09766 2.98935 0
M  V30 7127 H 704.074 4.60876 4.66829 0
M  V30 7128 H 703.991 6.27849 4.2112 0
M  V30 7129 H 705.259 5.74155 5.27225 0
M  V30 7130 N 709.488 -0.375779 1.53054 0
M  V30 7131 C 710.728 -1.12828 1.70438 0
M  V30 7132 C 711.092 -1.86854 0.441527 0
M  V30 7133 O 712.293 -2.64261 0.491908 0
M  V30 7134 C 710.564 -2.07009 2.91345 0
M  V30 7135 S 712.123 -2.89917 3.29383 0
M  V30 7136 H 708.941 -0.381736 0.599832 0
M  V30 7137 H 711.543 -0.4109 1.91133 0
M  V30 7138 H 710.247 -1.51371 3.81464 0
M  V30 7139 H 709.778 -2.83236 2.73022 0
M  V30 7140 H 711.793 -4.0924 2.80601 0
M  V30 7141 N 710.966 -1.44241 -0.634997 0
M  V30 7142 C 711.896 -1.53632 -1.7584 0
M  V30 7143 C 712.877 -0.389603 -1.65578 0
M  V30 7144 O 714.062 -0.609219 -1.84397 0
M  V30 7145 C 711.192 -1.47644 -3.14354 0
M  V30 7146 C 710.146 -2.60752 -3.394 0
M  V30 7147 C 709.472 -2.39817 -4.77904 0
M  V30 7148 C 710.772 -4.02921 -3.32343 0
M  V30 7149 H 712.466 -2.47662 -1.68238 0
M  V30 7150 H 710.012 -1.19197 -0.807969 0
M  V30 7151 H 711.965 -1.52815 -3.92716 0
M  V30 7152 H 710.689 -0.501284 -3.2273 0
M  V30 7153 H 709.348 -2.54965 -2.63417 0
M  V30 7154 H 708.996 -1.40502 -4.82978 0
M  V30 7155 H 708.696 -3.15649 -4.9562 0
M  V30 7156 H 710.22 -2.46799 -5.585 0
M  V30 7157 H 711.634 -4.10098 -4.00615 0
M  V30 7158 H 710.031 -4.78925 -3.61595 0
M  V30 7159 H 711.101 -4.26766 -2.30215 0
M  V30 7160 N 712.444 0.87505 -1.31075 0
M  V30 7161 C 713.376 1.98773 -1.14114 0
M  V30 7162 C 714.389 1.62595 -0.0816119 0
M  V30 7163 O 715.578 1.75449 -0.32861 0
M  V30 7164 C 712.678 3.31159 -0.720224 0
M  V30 7165 C 711.851 3.9571 -1.86366 0
M  V30 7166 C 710.91 5.06407 -1.42965 0
M  V30 7167 O 709.936 5.27501 -2.13848 0
M  V30 7168 N 711.138 5.79649 -0.314194 0
M  V30 7169 H 713.903 2.1387 -2.09951 0
M  V30 7170 H 711.464 1.04873 -1.23342 0
M  V30 7171 H 713.456 4.0259 -0.412687 0
M  V30 7172 H 712.026 3.12257 0.146396 0
M  V30 7173 H 711.246 3.17324 -2.33879 0
M  V30 7174 H 712.534 4.35576 -2.62966 0
M  V30 7175 H 711.932 5.65025 0.276228 0
M  V30 7176 H 710.489 6.51766 -0.0661641 0
M  V30 7177 N 713.922 1.13953 1.08869 0
M  V30 7178 C 714.885 0.824991 2.13838 0
M  V30 7179 C 715.885 -0.168198 1.59918 0
M  V30 7180 O 717.075 0.0595778 1.74098 0
M  V30 7181 C 714.207 0.228938 3.4013 0
M  V30 7182 H 715.4 1.75521 2.43171 0
M  V30 7183 H 712.953 0.94492 1.24503 0
M  V30 7184 H 713.688 -0.710227 3.16427 0
M  V30 7185 H 713.473 0.944243 3.80561 0
M  V30 7186 H 714.963 0.0259223 4.17592 0
M  V30 7187 N 715.4 -1.26948 0.933913 0
M  V30 7188 C 716.648 -1.93704 0.576484 0
M  V30 7189 C 716.969 -1.73702 -0.886145 0
M  V30 7190 O 716.239 -1.08838 -1.62884 0
M  V30 7191 H 714.819 -0.716812 0.210214 0
M  V30 7192 H 717.481 -1.54534 1.18766 0
M  V30 7193 H 716.577 -3.01987 0.788055 0
M  V30 7194 N 716.879 -0.700114 -1.41195 0
M  V30 7195 C 717.812 0.0129614 -2.28196 0
M  V30 7196 C 718.79 0.783367 -1.42486 0
M  V30 7197 O 719.974 0.773238 -1.71911 0
M  V30 7198 C 717.101 1.02575 -3.22794 0
M  V30 7199 C 716.147 0.347977 -4.25078 0
M  V30 7200 S 716.98 -0.912938 -5.27661 0
M  V30 7201 C 718.136 0.0981362 -6.25823 0
M  V30 7202 H 718.369 -0.724927 -2.88326 0
M  V30 7203 H 715.902 -0.490554 -1.464 0
M  V30 7204 H 717.86 1.60491 -3.77826 0
M  V30 7205 H 716.521 1.73624 -2.61751 0
M  V30 7206 H 715.714 1.11305 -4.91556 0
M  V30 7207 H 715.316 -0.15823 -3.73665 0
M  V30 7208 H 717.608 0.949965 -6.70807 0
M  V30 7209 H 718.551 -0.532838 -7.06092 0
M  V30 7210 H 718.959 0.454944 -5.62664 0
M  V30 7211 N 718.357 1.51182 -0.445186 0
M  V30 7212 C 719.305 2.29531 0.376597 0
M  V30 7213 C 720.299 1.35711 1.01385 0
M  V30 7214 O 721.505 1.53018 0.947922 0
M  V30 7215 H 717.88 0.738803 0.140267 0
M  V30 7216 H 719.851 2.96838 -0.304958 0
M  V30 7217 C 718.6 3.1552 1.4609 0
M  V30 7218 H 717.923 3.87605 0.979912 0
M  V30 7219 H 719.363 3.73384 2.009 0
M  V30 7220 C 717.822 2.31406 2.44852 0
M  V30 7221 O 718.352 1.97912 3.49562 0
M  V30 7222 N 716.558 1.94478 2.15932 0
M  V30 7223 H 716.105 2.21917 1.30808 0
M  V30 7224 H 716.063 1.38498 2.82251 0
M  V30 7225 N 719.835 0.176821 1.56605 0
M  V30 7226 C 720.765 -0.746841 2.21234 0
M  V30 7227 C 721.746 -1.23502 1.16967 0
M  V30 7228 O 722.931 -1.28718 1.45414 0
M  V30 7229 C 720.061 -1.97407 2.8574 0
M  V30 7230 C 719.015 -1.62153 3.96094 0
M  V30 7231 C 718.341 -2.92387 4.47676 0
M  V30 7232 C 719.641 -0.845353 5.15413 0
M  V30 7233 H 721.335 -0.208116 2.98676 0
M  V30 7234 H 718.881 -0.0986594 1.43662 0
M  V30 7235 H 720.834 -2.62531 3.2963 0
M  V30 7236 H 719.558 -2.53703 2.05676 0
M  V30 7237 H 718.217 -0.993964 3.52868 0
M  V30 7238 H 717.865 -3.46734 3.64396 0
M  V30 7239 H 717.565 -2.69551 5.22127 0
M  V30 7240 H 719.089 -3.5853 4.94255 0
M  V30 7241 H 720.503 -1.39929 5.55961 0
M  V30 7242 H 718.9 -0.715814 5.95815 0
M  V30 7243 H 719.97 0.157239 4.84645 0
M  V30 7244 N 721.313 -1.57302 -0.09688 0
M  V30 7245 C 722.223 -2.05258 -1.13606 0
M  V30 7246 C 723.239 -0.977137 -1.43972 0
M  V30 7247 O 724.415 -1.29018 -1.54649 0
M  V30 7248 C 721.48 -2.46593 -2.43706 0
M  V30 7249 C 720.541 -3.68322 -2.20538 0
M  V30 7250 C 719.774 -4.07676 -3.44435 0
M  V30 7251 O 719.997 -3.47141 -4.52603 0
M  V30 7252 O 718.931 -5.00641 -3.34129 0
M  V30 7253 H 722.757 -2.94069 -0.758752 0
M  V30 7254 H 720.342 -1.46164 -0.309263 0
M  V30 7255 H 722.224 -2.73814 -3.20318 0
M  V30 7256 H 720.899 -1.6092 -2.80867 0
M  V30 7257 H 719.806 -3.4622 -1.41713 0
M  V30 7258 H 721.139 -4.54769 -1.88271 0
M  V30 7259 N 722.791 0.367657 -1.53252 0
M  V30 7260 C 723.754 1.43308 -1.78873 0
M  V30 7261 C 724.754 1.46671 -0.659115 0
M  V30 7262 O 725.944 1.47468 -0.927306 0
M  V30 7263 C 723.076 2.82442 -1.90892 0
M  V30 7264 H 724.269 1.21864 -2.74024 0
M  V30 7265 H 721.822 0.600668 -1.44297 0
M  V30 7266 H 722.557 3.09202 -0.978 0
M  V30 7267 H 722.342 2.81399 -2.73051 0
M  V30 7268 H 723.832 3.59601 -2.12314 0
M  V30 7269 N 724.269 1.44576 0.627338 0
M  V30 7270 C 725.685 1.28546 0.945938 0
M  V30 7271 C 725.885 0.224003 2.00251 0
M  V30 7272 O 724.941 -0.388817 2.49488 0
M  V30 7273 C 726.254 2.65825 1.40561 0
M  V30 7274 C 727.802 2.73566 1.52088 0
M  V30 7275 C 728.277 4.11323 2.01438 0
M  V30 7276 N 729.768 4.13519 2.08702 0
M  V30 7277 C 730.503 5.16964 2.48065 0
M  V30 7278 N 729.999 6.30768 2.86538 0
M  V30 7279 N 731.792 5.04319 2.48232 0
M  V30 7280 H 723.943 2.1228 -0.0713567 0
M  V30 7281 H 726.206 0.947503 0.0307081 0
M  V30 7282 H 725.912 3.44591 0.703539 0
M  V30 7283 H 725.786 2.92969 2.37591 0
M  V30 7284 H 728.173 1.95116 2.21391 0
M  V30 7285 H 728.254 2.50159 0.534237 0
M  V30 7286 H 727.898 4.9025 1.32729 0
M  V30 7287 H 727.828 4.32109 3.0098 0
M  V30 7288 H 730.319 3.31385 1.81638 0
M  V30 7289 H 730.632 7.0551 3.15398 0
M  V30 7290 H 728.977 6.342 2.84281 0
M  V30 7291 H 732.168 4.14465 2.17569 0
M  V30 7292 H 732.341 5.85059 2.78585 0
M  V30 7293 N 725.747 -0.868086 1.31537 0
M  V30 7294 C 726.694 -1.97548 1.19346 0
M  V30 7295 C 727.664 -1.65913 0.0787922 0
M  V30 7296 O 728.849 -1.89129 0.251985 0
M  V30 7297 C 725.989 -3.32922 0.908692 0
M  V30 7298 C 725.102 -3.77141 2.10687 0
M  V30 7299 C 724.237 -5.01241 1.75873 0
M  V30 7300 C 723.276 -5.37914 2.92088 0
M  V30 7301 N 722.413 -6.53192 2.57457 0
M  V30 7302 H 727.253 -2.07307 2.14074 0
M  V30 7303 H 724.79 -1.01483 1.06487 0
M  V30 7304 H 726.748 -4.10867 0.724138 0
M  V30 7305 H 725.378 -3.228 -0.0017611 0
M  V30 7306 H 724.43 -2.94961 2.40213 0
M  V30 7307 H 725.742 -4.00248 2.97663 0
M  V30 7308 H 724.896 -5.86858 1.53891 0
M  V30 7309 H 723.635 -4.80041 0.86091 0
M  V30 7310 H 722.64 -4.50814 3.14717 0
M  V30 7311 H 723.865 -5.61077 3.82582 0
M  V30 7312 H 721.811 -6.33536 1.702 0
M  V30 7313 H 721.728 -6.76252 3.37963 0
M  V30 7314 H 722.996 -7.41997 2.38873 0
M  V30 7315 N 727.225 -1.14528 -1.08264 0
M  V30 7316 C 728.453 -0.937964 -1.84418 0
M  V30 7317 C 728.868 0.51357 -1.81681 0
M  V30 7318 O 728.225 1.35591 -1.22153 0
M  V30 7319 C 728.276 -1.43272 -3.31897 0
M  V30 7320 O 727.997 -2.82738 -3.34651 0
M  V30 7321 C 729.498 -1.26555 -4.24851 0
M  V30 7322 H 726.718 -0.333704 -0.582136 0
M  V30 7323 H 729.262 -1.52076 -1.36723 0
M  V30 7324 H 727.417 -0.892653 -3.76975 0
M  V30 7325 H 727.831 -3.04971 -4.26724 0
M  V30 7326 H 729.305 -1.66031 -5.26439 0
M  V30 7327 H 729.782 -0.208589 -4.38704 0
M  V30 7328 H 730.388 -1.79423 -3.856 0
M  V30 7329 N 728.703 1.26451 -0.940633 0
M  V30 7330 C 729.65 2.264 -0.448497 0
M  V30 7331 C 730.62 1.5866 0.491546 0
M  V30 7332 O 731.805 1.86389 0.407874 0
M  V30 7333 C 728.945 3.43956 0.280715 0
M  V30 7334 C 728.058 4.26374 -0.694937 0
M  V30 7335 C 727.193 5.31171 0.0554186 0
M  V30 7336 C 726.232 6.05266 -0.912091 0
M  V30 7337 N 725.369 7.01833 -0.193524 0
M  V30 7338 H 730.209 2.67869 -1.30576 0
M  V30 7339 H 727.746 1.31707 -0.655112 0
M  V30 7340 H 729.704 4.10941 0.71994 0
M  V30 7341 H 728.334 3.03403 1.10212 0
M  V30 7342 H 727.386 3.59183 -1.25267 0
M  V30 7343 H 728.698 4.77748 -1.43382 0
M  V30 7344 H 727.852 6.04166 0.553951 0
M  V30 7345 H 726.591 4.80634 0.827183 0
M  V30 7346 H 725.596 5.31099 -1.42175 0
M  V30 7347 H 726.821 6.57893 -1.68385 0
M  V30 7348 H 724.767 6.53607 0.559758 0
M  V30 7349 H 724.684 7.50957 -0.871744 0
M  V30 7350 H 725.952 7.78983 0.283932 0
M  V30 7351 N 730.181 0.707592 1.40822 0
M  V30 7352 C 731.128 0.0499029 2.30746 0
M  V30 7353 C 732.098 -0.758718 1.47759 0
M  V30 7354 O 733.283 -0.724299 1.76518 0
M  V30 7355 C 730.423 -0.871756 3.33908 0
M  V30 7356 C 729.536 -0.0534655 4.31967 0
M  V30 7357 C 728.671 -0.973869 5.22197 0
M  V30 7358 C 727.71 -0.149194 6.11918 0
M  V30 7359 N 726.847 -1.02404 6.94592 0
M  V30 7360 H 731.687 0.822461 2.86426 0
M  V30 7361 H 729.224 0.417285 1.41057 0
M  V30 7362 H 731.182 -1.42028 3.9228 0
M  V30 7363 H 729.812 -1.61058 2.7975 0
M  V30 7364 H 728.864 0.612142 3.75442 0
M  V30 7365 H 730.176 0.585354 4.95353 0
M  V30 7366 H 729.33 -1.59121 5.85462 0
M  V30 7367 H 728.069 -1.64652 4.59065 0
M  V30 7368 H 727.074 0.481137 5.47691 0
M  V30 7369 H 728.299 0.519841 6.77107 0
M  V30 7370 H 726.245 -1.6825 6.34057 0
M  V30 7371 H 726.162 -0.441076 7.54712 0
M  V30 7372 H 727.43 -1.62782 7.62314 0
M  V30 7373 N 731.66 -1.50943 0.453197 0
M  V30 7374 C 732.607 -2.28128 -0.350197 0
M  V30 7375 C 733.577 -1.32398 -1.00299 0
M  V30 7376 O 734.762 -1.61319 -1.01887 0
M  V30 7377 C 731.902 -3.13782 -1.43649 0
M  V30 7378 C 731.015 -4.24523 -0.800255 0
M  V30 7379 C 730.15 -4.97462 -1.86293 0
M  V30 7380 C 729.189 -6.00102 -1.20598 0
M  V30 7381 N 728.326 -6.66387 -2.21071 0
M  V30 7382 H 733.166 -2.96337 0.31434 0
M  V30 7383 H 730.703 -1.46151 0.166863 0
M  V30 7384 H 732.661 -3.6178 -2.07776 0
M  V30 7385 H 731.291 -2.47655 -2.07044 0
M  V30 7386 H 730.343 -3.80371 -0.0468651 0
M  V30 7387 H 731.655 -4.98009 -0.280777 0
M  V30 7388 H 730.809 -5.49088 -2.58044 0
M  V30 7389 H 729.548 -4.23642 -2.41617 0
M  V30 7390 H 728.553 -5.47753 -0.474 0
M  V30 7391 H 729.778 -6.75887 -0.659859 0
M  V30 7392 H 727.724 -5.9537 -2.75446 0
M  V30 7393 H 727.641 -7.3569 -1.74058 0
M  V30 7394 H 728.909 -7.22638 -2.92257 0
M  V30 7395 N 733.138 -0.185124 -1.56509 0
M  V30 7396 C 734.387 0.456421 -1.96468 0
M  V30 7397 C 734.7 1.63448 -1.07444 0
M  V30 7398 O 735.906 2.34316 -1.37143 0
M  V30 7399 C 734.362 0.863404 -3.4939 0
M  V30 7400 C 733.97 -0.289815 -4.47062 0
M  V30 7401 C 735.714 1.47259 -3.98139 0
M  V30 7402 C 733.621 0.137571 -5.9124 0
M  V30 7403 H 732.551 0.17429 -0.733579 0
M  V30 7404 H 735.202 -0.275554 -1.81419 0
M  V30 7405 H 733.584 1.65176 -3.59907 0
M  V30 7406 H 734.758 -1.06728 -4.4827 0
M  V30 7407 H 733.073 -0.809851 -4.08449 0
M  V30 7408 H 735.67 1.80463 -5.03326 0
M  V30 7409 H 736.013 2.3755 -3.41871 0
M  V30 7410 H 736.546 0.748405 -3.90696 0
M  V30 7411 H 733.285 -0.730907 -6.51412 0
M  V30 7412 H 732.805 0.8801 -5.93308 0
M  V30 7413 H 734.484 0.576771 -6.44424 0
M  V30 7414 N 734.616 1.57351 0.0885366 0
M  V30 7415 C 735.563 2.02523 1.10693 0
M  V30 7416 C 736.533 0.902736 1.39427 0
M  V30 7417 O 737.718 1.16921 1.50779 0
M  V30 7418 C 734.858 2.46013 2.42016 0
M  V30 7419 C 733.971 3.7181 2.19957 0
M  V30 7420 C 733.106 4.04152 3.44724 0
M  V30 7421 C 732.145 5.2304 3.17956 0
M  V30 7422 N 731.282 5.51102 4.35007 0
M  V30 7423 H 736.122 2.89302 0.714742 0
M  V30 7424 H 733.659 1.43084 0.341378 0
M  V30 7425 H 735.617 2.69274 3.18665 0
M  V30 7426 H 734.247 1.62235 2.79069 0
M  V30 7427 H 733.299 3.55987 1.34079 0
M  V30 7428 H 734.611 4.58604 1.96173 0
M  V30 7429 H 733.765 4.28225 4.29777 0
M  V30 7430 H 732.504 3.15893 3.71568 0
M  V30 7431 H 731.509 4.98781 2.31296 0
M  V30 7432 H 732.734 6.12902 2.92451 0
M  V30 7433 H 730.68 4.65802 4.61914 0
M  V30 7434 H 730.597 6.3228 4.14437 0
M  V30 7435 H 731.865 5.79714 5.21106 0
M  V30 7436 N 736.094 -0.359525 1.53444 0
M  V30 7437 C 737.342 -1.09935 1.69584 0
M  V30 7438 C 737.663 -1.89656 0.453371 0
M  V30 7439 O 736.933 -1.8852 -0.53263 0
M  V30 7440 H 735.513 -0.408843 0.625185 0
M  V30 7441 H 738.175 -0.40467 1.90653 0
M  V30 7442 H 737.271 -1.78575 2.55964 0
M  V30 7443 N 737.572 -1.44907 -0.619662 0
M  V30 7444 C 738.821 -1.47569 -1.37501 0
M  V30 7445 C 739.134 -0.116707 -1.95252 0
M  V30 7446 O 740.34 -0.020909 -2.71492 0
M  V30 7447 C 738.796 -2.59851 -2.49009 0
M  V30 7448 C 738.404 -4.02008 -1.97722 0
M  V30 7449 C 740.148 -2.71746 -3.2612 0
M  V30 7450 C 738.055 -5.05693 -3.0664 0
M  V30 7451 H 736.985 -0.549068 -0.51676 0
M  V30 7452 H 739.636 -1.71009 -0.665437 0
M  V30 7453 H 738.018 -2.29671 -3.22594 0
M  V30 7454 H 739.192 -4.41809 -1.30925 0
M  V30 7455 H 737.507 -3.94456 -1.33392 0
M  V30 7456 H 740.104 -3.46382 -4.07337 0
M  V30 7457 H 740.447 -1.77959 -3.76346 0
M  V30 7458 H 740.98 -3.01392 -2.5963 0
M  V30 7459 H 737.719 -6.01148 -2.61345 0
M  V30 7460 H 737.239 -4.70473 -3.72042 0
M  V30 7461 H 738.918 -5.29906 -3.71226 0
M  V30 7462 N 739.05 0.861098 -1.31996 0
M  V30 7463 C 739.982 1.97551 -1.16216 0
M  V30 7464 C 740.995 1.625 -0.0988527 0
M  V30 7465 O 742.184 1.75091 -0.3472 0
M  V30 7466 C 739.284 3.30376 -0.755307 0
M  V30 7467 C 738.457 3.93711 -1.90552 0
M  V30 7468 C 737.516 5.04862 -1.48328 0
M  V30 7469 O 736.542 5.25204 -2.19431 0
M  V30 7470 N 737.744 5.79283 -0.375656 0
M  V30 7471 H 740.509 2.11632 -2.12208 0
M  V30 7472 H 738.07 1.03559 -1.24448 0
M  V30 7473 H 740.062 4.0213 -0.455364 0
M  V30 7474 H 738.632 3.12395 0.113269 0
M  V30 7475 H 737.852 3.14825 -2.37231 0
M  V30 7476 H 739.14 4.32762 -2.67571 0
M  V30 7477 H 738.538 5.65286 0.216284 0
M  V30 7478 H 737.095 6.5166 -0.135289 0
M  V30 7479 N 740.528 1.15101 1.07655 0
M  V30 7480 C 741.46 0.802722 2.14684 0
M  V30 7481 C 742.473 -0.183874 1.61758 0
M  V30 7482 O 743.662 0.0389349 1.78458 0
M  V30 7483 C 740.762 0.172135 3.38463 0
M  V30 7484 C 739.935 1.19538 4.20749 0
M  V30 7485 C 738.994 0.58714 5.22914 0
M  V30 7486 O 738.02 1.25224 5.55255 0
M  V30 7487 N 739.222 -0.632566 5.77043 0
M  V30 7488 H 741.987 1.72379 2.45164 0
M  V30 7489 H 739.548 1.04647 1.23534 0
M  V30 7490 H 741.54 -0.247465 4.03943 0
M  V30 7491 H 740.11 -0.652214 3.0572 0
M  V30 7492 H 739.33 1.79165 3.51132 0
M  V30 7493 H 740.618 1.88636 4.7254 0
M  V30 7494 H 740.016 -1.19135 5.53013 0
M  V30 7495 H 738.573 -0.994566 6.44167 0
M  V30 7496 N 742.006 -1.2595 0.947325 0
M  V30 7497 C 742.969 -2.24407 0.466285 0
M  V30 7498 C 743.969 -1.55054 -0.426005 0
M  V30 7499 O 745.159 -1.7275 -0.224319 0
M  V30 7500 C 742.291 -3.39326 -0.327201 0
M  V30 7501 H 743.484 -2.68477 1.33642 0
M  V30 7502 H 741.037 -1.38211 0.729887 0
M  V30 7503 H 741.772 -3.00667 -1.21532 0
M  V30 7504 H 741.557 -3.9085 0.312839 0
M  V30 7505 H 743.047 -4.12455 -0.653477 0
M  V30 7506 N 743.484 -0.715051 -1.40445 0
M  V30 7507 C 744.712 -0.263959 -2.05209 0
M  V30 7508 C 745.127 1.09403 -1.53871 0
M  V30 7509 O 744.484 1.68746 -0.695064 0
M  V30 7510 C 744.535 -0.234545 -3.60738 0
M  V30 7511 O 744.256 -1.53891 -4.10182 0
M  V30 7512 C 745.757 0.235164 -4.42676 0
M  V30 7513 H 742.977 -0.11876 -0.660407 0
M  V30 7514 H 745.521 -0.973107 -1.79864 0
M  V30 7515 H 743.676 0.425563 -3.85055 0
M  V30 7516 H 744.09 -1.43903 -5.04373 0
M  V30 7517 H 745.564 0.204598 -5.51621 0
M  V30 7518 H 746.041 1.27724 -4.20218 0
M  V30 7519 H 746.647 -0.394649 -4.23465 0
M  V30 7520 N 744.962 1.50701 -0.461195 0
M  V30 7521 C 746.19 2.06681 0.0951756 0
M  V30 7522 C 746.605 1.32615 1.34382 0
M  V30 7523 O 745.962 0.392531 1.78229 0
M  V30 7524 C 746.013 3.59354 0.393316 0
M  V30 7525 O 745.734 4.30626 -0.805797 0
M  V30 7526 C 747.235 4.31926 0.997744 0
M  V30 7527 H 744.455 0.670995 -0.00267259 0
M  V30 7528 H 746.999 1.93991 -0.647137 0
M  V30 7529 H 745.154 3.7188 1.08555 0
M  V30 7530 H 745.568 5.21667 -0.544409 0
M  V30 7531 H 747.042 5.39756 1.15619 0
M  V30 7532 H 747.519 3.91772 1.98523 0
M  V30 7533 H 748.125 4.23905 0.344188 0
M  V30 7534 N 746.441 0.193421 1.56409 0
M  V30 7535 C 747.689 -0.444908 1.97142 0
M  V30 7536 C 748.01 -1.62268 1.08139 0
M  V30 7537 O 747.28 -1.95307 0.152326 0
M  V30 7538 H 745.86 -0.16736 0.728011 0
M  V30 7539 H 748.522 0.279763 1.92882 0
M  V30 7540 H 747.618 -0.790159 3.01932 0
M  V30 7541 N 747.919 -1.57396 -0.0801906 0
M  V30 7542 C 749.165 -1.87113 -0.782083 0
M  V30 7543 C 749.498 -0.78458 -1.77646 0
M  V30 7544 O 748.773 0.205993 -1.93406 0
M  V30 7545 C 749.056 -3.27483 -1.49756 0
M  V30 7546 C 748.909 -4.46782 -0.520171 0
M  V30 7547 C 750.228 -3.65965 -2.44454 0
M  V30 7548 H 747.347 -0.680559 -0.282858 0
M  V30 7549 H 749.989 -1.89946 -0.0454139 0
M  V30 7550 H 748.139 -3.25199 -2.12551 0
M  V30 7551 H 749.811 -4.61187 0.101919 0
M  V30 7552 H 748.054 -4.33485 0.165219 0
M  V30 7553 H 748.725 -5.41761 -1.05824 0
M  V30 7554 H 751.201 -3.69289 -1.91742 0
M  V30 7555 H 750.077 -4.65086 -2.91524 0
M  V30 7556 H 750.338 -2.95446 -3.28883 0
M  V30 7557 N 749.397 0.351382 -1.53633 0
M  V30 7558 C 750.622 1.11718 -1.74739 0
M  V30 7559 C 751.047 1.81829 -0.481657 0
M  V30 7560 O 750.405 1.72264 0.565233 0
M  V30 7561 C 750.453 2.11234 -2.92254 0
M  V30 7562 O 749.557 3.186 -2.61855 0
M  V30 7563 H 748.898 0.323482 -0.579875 0
M  V30 7564 H 751.428 0.404167 -2.00568 0
M  V30 7565 H 751.438 2.54591 -3.18822 0
M  V30 7566 H 750.113 1.59599 -3.84058 0
M  V30 7567 H 748.69 2.80115 -2.4615 0
M  V30 7568 N 750.875 1.45233 0.611969 0
M  V30 7569 C 751.807 1.49575 1.73666 0
M  V30 7570 C 752.82 0.386987 1.58134 0
M  V30 7571 O 754.009 0.653804 1.66095 0
M  V30 7572 C 751.109 1.33223 3.11617 0
M  V30 7573 C 750.282 2.57694 3.5343 0
M  V30 7574 C 749.341 2.35962 4.70328 0
M  V30 7575 O 748.367 3.09553 4.77667 0
M  V30 7576 N 749.569 1.40243 5.63305 0
M  V30 7577 H 752.334 2.46539 1.70407 0
M  V30 7578 H 749.895 1.40917 0.79712 0
M  V30 7579 H 751.887 1.16502 3.87569 0
M  V30 7580 H 750.457 0.44551 3.09409 0
M  V30 7581 H 749.677 2.8956 2.67486 0
M  V30 7582 H 750.965 3.40441 3.78124 0
M  V30 7583 H 750.363 0.795023 5.60086 0
M  V30 7584 H 748.92 1.29496 6.38807 0
M  V30 7585 N 752.353 -0.854086 1.3245 0
M  V30 7586 C 753.263 -1.99503 1.23434 0
M  V30 7587 C 754.279 -1.73371 0.147828 0
M  V30 7588 O 755.455 -1.97998 0.368609 0
M  V30 7589 C 752.52 -3.33192 0.958328 0
M  V30 7590 C 751.581 -3.72542 2.13333 0
M  V30 7591 C 750.814 -4.99852 1.8704 0
M  V30 7592 O 751.037 -5.64573 0.813239 0
M  V30 7593 O 749.971 -5.36345 2.73161 0
M  V30 7594 H 753.797 -2.10046 2.1935 0
M  V30 7595 H 751.382 -0.984823 1.12346 0
M  V30 7596 H 753.264 -4.13327 0.820918 0
M  V30 7597 H 751.939 -3.23687 0.0293299 0
M  V30 7598 H 750.846 -2.92981 2.32622 0
M  V30 7599 H 752.179 -3.86694 3.04514 0
M  V30 7600 N 753.831 -1.1567 -1.07043 0
M  V30 7601 C 755.059 -0.957471 -1.83412 0
M  V30 7602 C 755.474 0.494271 -1.82215 0
M  V30 7603 O 754.831 1.34288 -1.23584 0
M  V30 7604 C 754.882 -1.46784 -3.30359 0
M  V30 7605 O 754.603 -2.86271 -3.31633 0
M  V30 7606 C 756.104 -1.31054 -4.23485 0
M  V30 7607 H 753.324 -0.33986 -0.578564 0
M  V30 7608 H 755.868 -1.53518 -1.35102 0
M  V30 7609 H 754.023 -0.932586 -3.76007 0
M  V30 7610 H 754.437 -3.0948 -4.23465 0
M  V30 7611 H 755.911 -1.71605 -5.24648 0
M  V30 7612 H 756.388 -0.255107 -4.38458 0
M  V30 7613 H 756.994 -1.83503 -3.83676 0
M  V30 7614 N 755.309 1.25446 -0.953992 0
M  V30 7615 C 756.534 1.97755 -0.625129 0
M  V30 7616 C 756.959 1.70437 0.795787 0
M  V30 7617 O 756.317 0.95992 1.53803 0
M  V30 7618 C 756.365 3.49463 -0.889251 0
M  V30 7619 O 755.469 4.12387 0.0322757 0
M  V30 7620 H 754.81 0.61998 -0.237742 0
M  V30 7621 H 757.34 1.59582 -1.28041 0
M  V30 7622 H 757.35 3.99772 -0.815263 0
M  V30 7623 H 756.025 3.68676 -1.92487 0
M  V30 7624 H 754.602 3.72782 -0.0938625 0
M  V30 7625 N 756.787 0.722489 1.40064 0
M  V30 7626 C 757.697 0.0755984 2.34478 0
M  V30 7627 C 758.713 -0.736046 1.57665 0
M  V30 7628 O 759.889 -0.667407 1.9002 0
M  V30 7629 C 756.954 -0.830075 3.36616 0
M  V30 7630 C 756.015 -0.00759884 4.29299 0
M  V30 7631 C 755.248 -0.870139 5.26559 0
M  V30 7632 O 755.471 -2.10921 5.2997 0
M  V30 7633 O 754.405 -0.305454 6.01124 0
M  V30 7634 H 758.231 0.854545 2.9143 0
M  V30 7635 H 755.816 0.483032 1.41376 0
M  V30 7636 H 757.698 -1.34864 3.99236 0
M  V30 7637 H 756.373 -1.58805 2.82069 0
M  V30 7638 H 755.28 0.556199 3.69942 0
M  V30 7639 H 756.613 0.712312 4.87018 0
M  V30 7640 N 758.265 -1.50454 0.469181 0
M  V30 7641 C 759.213 -2.30101 -0.340033 0
M  V30 7642 C 760.207 -1.37306 -0.992135 0
M  V30 7643 O 761.413 -1.54506 -0.923458 0
M  V30 7644 H 757.788 -0.740941 -0.128495 0
M  V30 7645 H 759.759 -2.96315 0.352144 0
M  V30 7646 C 758.508 -3.17804 -1.41052 0
M  V30 7647 H 757.831 -3.89115 -0.918124 0
M  V30 7648 H 759.271 -3.76533 -1.94934 0
M  V30 7649 C 757.73 -2.35272 -2.4114 0
M  V30 7650 O 758.26 -2.03448 -3.4637 0
M  V30 7651 N 756.466 -1.97889 -2.1281 0
M  V30 7652 H 756.013 -2.2397 -1.27261 0
M  V30 7653 H 755.971 -1.42971 -2.80012 0
M  V30 7654 N 759.743 -0.201713 -1.56304 0
M  V30 7655 C 761.154 0.309711 -1.84113 0
M  V30 7656 C 761.505 1.60912 -1.12258 0
M  V30 7657 O 760.63 2.12937 -0.385587 0
M  V30 7658 C 761.225 0.568706 -3.33993 0
M  V30 7659 C 759.784 1.02448 -3.6219 0
M  V30 7660 C 758.931 0.0766842 -2.77194 0
M  V30 7661 H 761.882 -0.425356 -1.52893 0
M  V30 7662 H 761.903 1.41721 -3.53122 0
M  V30 7663 H 761.415 -0.37719 -3.86263 0
M  V30 7664 H 759.516 1.98443 -3.15359 0
M  V30 7665 H 759.629 0.912619 -4.70328 0
M  V30 7666 H 757.993 0.579809 -2.48013 0
M  V30 7667 H 758.776 -0.863774 -3.32256 0
M  V30 7668 N 761.222 1.57436 0.0718424 0
M  V30 7669 C 762.47 1.86878 0.769484 0
M  V30 7670 C 762.791 0.7937 1.78116 0
M  V30 7671 O 762.061 -0.177642 1.95093 0
M  V30 7672 H 760.641 0.689593 0.287177 0
M  V30 7673 H 763.303 1.94841 0.0479427 0
M  V30 7674 H 762.399 2.84387 1.28572 0
M  V30 7675 N 762.7 -0.34323 1.53817 0
M  V30 7676 C 763.648 -1.44176 1.82527 0
M  V30 7677 C 764.642 -1.54452 0.695772 0
M  V30 7678 O 765.848 -1.57072 0.879114 0
M  V30 7679 H 762.223 -0.480729 0.578277 0
M  V30 7680 H 764.194 -1.17176 2.74431 0
M  V30 7681 C 762.943 -2.80695 2.05197 0
M  V30 7682 H 762.266 -2.73554 2.91561 0
M  V30 7683 H 763.706 -3.56679 2.29251 0
M  V30 7684 C 762.165 -3.26322 0.837589 0
M  V30 7685 O 762.695 -4.01683 0.0371631 0
M  V30 7686 N 760.901 -2.83128 0.654724 0
M  V30 7687 H 760.448 -2.21965 1.30725 0
M  V30 7688 H 760.406 -3.14011 -0.156345 0
M  V30 7689 N 764.178 -1.45556 -0.604258 0
M  V30 7690 C 765.125 -1.54482 -1.71476 0
M  V30 7691 C 766.095 -0.390479 -1.61445 0
M  V30 7692 O 767.28 -0.604371 -1.80975 0
M  V30 7693 C 764.42 -1.52064 -3.09791 0
M  V30 7694 C 763.533 -2.78073 -3.30604 0
M  V30 7695 C 762.668 -2.67304 -4.59044 0
M  V30 7696 C 761.707 -3.88352 -4.73127 0
M  V30 7697 N 760.844 -3.76098 -5.9287 0
M  V30 7698 H 765.684 -2.49349 -1.63184 0
M  V30 7699 H 763.221 -1.23725 -0.795641 0
M  V30 7700 H 765.179 -1.48649 -3.89819 0
M  V30 7701 H 763.809 -0.607442 -3.17033 0
M  V30 7702 H 762.861 -2.91561 -2.44329 0
M  V30 7703 H 764.173 -3.67847 -3.36883 0
M  V30 7704 H 763.327 -2.61875 -5.47272 0
M  V30 7705 H 762.066 -1.75135 -4.55169 0
M  V30 7706 H 761.071 -3.94137 -3.83322 0
M  V30 7707 H 762.296 -4.81591 -4.78797 0
M  V30 7708 H 760.242 -2.867 -5.90033 0
M  V30 7709 H 760.159 -4.59509 -6.00323 0
M  V30 7710 H 761.427 -3.74607 -6.83586 0
M  V30 7711 N 765.656 0.84705 -1.32902 0
M  V30 7712 C 766.884 1.63403 -1.26913 0
M  V30 7713 C 767.299 1.88108 0.161483 0
M  V30 7714 O 766.656 1.45546 1.10103 0
M  V30 7715 C 766.707 2.98896 -2.03331 0
M  V30 7716 O 766.428 2.75281 -3.40811 0
M  V30 7717 C 767.929 3.93335 -2.04457 0
M  V30 7718 H 765.149 0.508701 -0.437566 0
M  V30 7719 H 767.693 1.05567 -1.75145 0
M  V30 7720 H 765.848 3.53356 -1.58802 0
M  V30 7721 H 766.262 3.61504 -3.8002 0
M  V30 7722 H 767.736 4.85647 -2.62394 0
M  V30 7723 H 768.213 4.26885 -1.03274 0
M  V30 7724 H 768.819 3.44812 -2.48967 0
M  V30 7725 N 767.134 1.16236 1.06428 0
M  V30 7726 C 768.383 0.937523 1.78587 0
M  V30 7727 C 768.696 -0.536 1.88113 0
M  V30 7728 O 769.902 -0.878697 2.56887 0
M  V30 7729 C 768.358 1.62808 3.2097 0
M  V30 7730 C 767.966 3.13927 3.19615 0
M  V30 7731 C 769.71 1.48515 3.97673 0
M  V30 7732 C 767.617 3.75727 4.56709 0
M  V30 7733 H 766.547 0.347125 0.669343 0
M  V30 7734 H 769.198 1.39353 1.19385 0
M  V30 7735 H 767.58 1.09977 3.80422 0
M  V30 7736 H 768.754 3.7359 2.69753 0
M  V30 7737 H 767.069 3.28089 2.56411 0
M  V30 7738 H 769.666 1.92069 4.99013 0
M  V30 7739 H 770.009 0.433913 4.14032 0
M  V30 7740 H 770.542 1.98494 3.44739 0
M  V30 7741 H 767.281 4.80793 4.45554 0
M  V30 7742 H 766.801 3.20849 5.0677 0
M  V30 7743 H 768.48 3.77203 5.25668 0
M  V30 7744 N 768.612 -1.24939 0.960631 0
M  V30 7745 C 769.858 -1.93104 0.61958 0
M  V30 7746 C 770.191 -1.74991 -0.84212 0
M  V30 7747 O 769.466 -1.09867 -1.60498 0
M  V30 7748 C 769.749 -3.46326 0.986422 0
M  V30 7749 C 769.602 -3.73638 2.50429 0
M  V30 7750 C 770.921 -4.37067 0.515827 0
M  V30 7751 H 768.04 -0.701311 0.226566 0
M  V30 7752 H 770.682 -1.47442 1.19836 0
M  V30 7753 H 768.832 -3.85348 0.493907 0
M  V30 7754 H 770.504 -3.44217 3.07103 0
M  V30 7755 H 768.747 -3.19035 2.93937 0
M  V30 7756 H 769.418 -4.80815 2.71147 0
M  V30 7757 H 771.894 -4.05381 0.938389 0
M  V30 7758 H 770.77 -5.43022 0.80114 0
M  V30 7759 H 771.031 -4.38224 -0.584171 0
M  V30 7760 N 770.09 -0.729906 -1.39679 0
M  V30 7761 C 771.501 -0.346241 -1.83461 0
M  V30 7762 C 771.852 1.1215 -1.60987 0
M  V30 7763 O 770.977 1.86456 -1.09832 0
M  V30 7764 C 771.572 -0.621656 -3.33048 0
M  V30 7765 C 770.131 -0.291543 -3.75269 0
M  V30 7766 C 769.278 -0.886844 -2.62736 0
M  V30 7767 H 772.229 -0.927949 -1.28743 0
M  V30 7768 H 772.25 0.108301 -3.80346 0
M  V30 7769 H 771.762 -1.68996 -3.49373 0
M  V30 7770 H 769.863 0.771133 -3.64533 0
M  V30 7771 H 769.976 -0.770544 -4.72863 0
M  V30 7772 H 768.34 -0.313839 -2.52759 0
M  V30 7773 H 769.123 -1.95971 -2.81869 0
M  V30 7774 N 771.568 1.50203 -0.477153 0
M  V30 7775 C 772.531 2.27194 0.302599 0
M  V30 7776 C 773.531 1.32221 0.915112 0
M  V30 7777 O 774.721 1.55593 0.783348 0
M  V30 7778 C 771.853 3.0938 1.43167 0
M  V30 7779 H 773.046 2.97575 -0.372678 0
M  V30 7780 H 770.599 1.54578 -0.231392 0
M  V30 7781 H 771.334 2.43509 2.14182 0
M  V30 7782 H 771.119 3.79181 0.998197 0
M  V30 7783 H 772.609 3.67592 1.98157 0
M  V30 7784 N 773.046 0.209999 1.56195 0
M  V30 7785 C 774.274 -0.429996 2.02382 0
M  V30 7786 C 774.689 -1.54159 1.08998 0
M  V30 7787 O 774.046 -1.82239 0.0974856 0
M  V30 7788 C 774.097 -0.972433 3.48175 0
M  V30 7789 O 773.818 0.0948231 4.37997 0
M  V30 7790 C 775.319 -1.68683 4.09952 0
M  V30 7791 H 772.539 -0.106475 0.662498 0
M  V30 7792 H 775.083 0.323072 2.01932 0
M  V30 7793 H 773.238 -1.67582 3.49278 0
M  V30 7794 H 773.652 -0.31113 5.23576 0
M  V30 7795 H 775.126 -2.01851 5.13771 0
M  V30 7796 H 775.603 -2.59587 3.54276 0
M  V30 7797 H 776.209 -1.02893 4.12666 0
M  V30 7798 N 774.524 -1.57472 -0.0634922 0
M  V30 7799 C 775.454 -2.07297 -1.07473 0
M  V30 7800 C 776.435 -0.968162 -1.39859 0
M  V30 7801 O 777.62 -1.24139 -1.49343 0
M  V30 7802 C 774.75 -2.52381 -2.38581 0
M  V30 7803 C 773.704 -3.66813 -2.20526 0
M  V30 7804 C 773.03 -3.97982 -3.57092 0
M  V30 7805 C 774.33 -4.96553 -1.61965 0
M  V30 7806 H 776.024 -2.92033 -0.660092 0
M  V30 7807 H 773.57 -1.40488 -0.316074 0
M  V30 7808 H 775.523 -2.85852 -3.09624 0
M  V30 7809 H 774.247 -1.64684 -2.8204 0
M  V30 7810 H 772.906 -3.33639 -1.51924 0
M  V30 7811 H 772.554 -3.07403 -3.98136 0
M  V30 7812 H 772.254 -4.7504 -3.45848 0
M  V30 7813 H 773.778 -4.33956 -4.29552 0
M  V30 7814 H 775.192 -5.28201 -2.22883 0
M  V30 7815 H 773.589 -5.7799 -1.61394 0
M  V30 7816 H 774.659 -4.81396 -0.581918 0
M  V30 7817 N 776.003 0.335068 -1.53997 0
M  V30 7818 C 777.414 0.910191 -1.6301 0
M  V30 7819 C 777.765 1.89271 -0.516809 0
M  V30 7820 O 776.89 2.13516 0.352123 0
M  V30 7821 C 777.485 1.65761 -2.9548 0
M  V30 7822 C 776.044 2.18163 -3.06728 0
M  V30 7823 C 775.191 1.00338 -2.5851 0
M  V30 7824 H 778.142 0.112965 -1.58297 0
M  V30 7825 H 778.163 2.52107 -2.84995 0
M  V30 7826 H 777.675 0.94227 -3.76488 0
M  V30 7827 H 775.776 2.92847 -2.30372 0
M  V30 7828 H 775.889 2.43952 -4.1234 0
M  V30 7829 H 774.253 1.37925 -2.14124 0
M  V30 7830 H 775.036 0.30254 -3.41964 0
M  V30 7831 N 777.481 1.45874 0.596531 0
M  V30 7832 C 778.413 1.51408 1.7207 0
M  V30 7833 C 779.426 0.403738 1.57714 0
M  V30 7834 O 780.615 0.671384 1.65393 0
M  V30 7835 C 777.715 1.3652 3.10186 0
M  V30 7836 C 776.888 2.61428 3.50677 0
M  V30 7837 C 775.947 2.40937 4.67799 0
M  V30 7838 O 774.973 3.14602 4.74357 0
M  V30 7839 N 776.175 1.4621 5.61785 0
M  V30 7840 H 778.94 2.48333 1.67782 0
M  V30 7841 H 776.501 1.41755 0.782129 0
M  V30 7842 H 778.493 1.20606 3.86311 0
M  V30 7843 H 777.063 0.478302 3.08919 0
M  V30 7844 H 776.283 2.92381 2.644 0
M  V30 7845 H 777.571 3.44432 3.74491 0
M  V30 7846 H 776.969 0.854382 5.59211 0
M  V30 7847 H 775.526 1.36264 6.37397 0
M  V30 7848 N 778.959 -0.83999 1.33349 0
M  V30 7849 C 779.889 -1.965 1.26135 0
M  V30 7850 C 780.87 -1.69505 0.142152 0
M  V30 7851 O 782.055 -1.91346 0.331743 0
M  V30 7852 C 779.185 -3.32632 0.99866 0
M  V30 7853 C 778.139 -3.74021 2.08068 0
M  V30 7854 C 777.465 -5.07947 1.67014 0
M  V30 7855 C 778.765 -3.87925 3.49731 0
M  V30 7856 H 780.459 -2.02793 2.20262 0
M  V30 7857 H 778.005 -0.974297 1.06035 0
M  V30 7858 H 779.958 -4.10903 0.934696 0
M  V30 7859 H 778.682 -3.26593 0.0217759 0
M  V30 7860 H 777.341 -2.98012 2.13505 0
M  V30 7861 H 776.989 -4.98378 0.680316 0
M  V30 7862 H 776.689 -5.36611 2.39422 0
M  V30 7863 H 778.213 -5.88695 1.62082 0
M  V30 7864 H 779.627 -4.5651 3.46802 0
M  V30 7865 H 778.024 -4.28023 4.20614 0
M  V30 7866 H 779.094 -2.90407 3.88319 0
M  V30 7867 N 780.437 -1.16799 -1.0581 0
M  V30 7868 C 781.665 -0.97687 -1.82387 0
M  V30 7869 C 782.08 0.474917 -1.82729 0
M  V30 7870 O 781.437 1.3297 -1.25001 0
M  V30 7871 C 781.488 -1.50279 -3.28783 0
M  V30 7872 O 781.209 -2.89772 -3.28578 0
M  V30 7873 C 782.71 -1.35538 -4.22071 0
M  V30 7874 H 779.93 -0.345977 -0.574927 0
M  V30 7875 H 782.474 -1.54942 -1.33466 0
M  V30 7876 H 780.629 -0.972414 -3.74997 0
M  V30 7877 H 781.043 -3.13954 -4.20159 0
M  V30 7878 H 782.517 -1.7716 -5.22799 0
M  V30 7879 H 782.994 -0.301598 -4.38163 0
M  V30 7880 H 783.6 -1.87562 -3.81708 0
M  V30 7881 N 781.915 1.24427 -0.967243 0
M  V30 7882 C 783.326 1.74349 -0.667785 0
M  V30 7883 C 783.677 1.78403 0.816509 0
M  V30 7884 O 782.802 1.41315 1.63887 0
M  V30 7885 C 783.397 3.16628 -1.20548 0
M  V30 7886 C 781.956 3.64059 -0.955934 0
M  V30 7887 C 781.103 2.42715 -1.34106 0
M  V30 7888 H 784.054 1.10136 -1.14262 0
M  V30 7889 H 784.075 3.76183 -0.571547 0
M  V30 7890 H 783.587 3.13646 -2.28578 0
M  V30 7891 H 781.688 3.72441 0.108858 0
M  V30 7892 H 781.801 4.51549 -1.60126 0
M  V30 7893 H 780.165 2.43114 -0.759452 0
M  V30 7894 H 780.948 2.42414 -2.43085 0
M  V30 7895 N 783.393 0.737304 1.3929 0
M  V30 7896 C 784.621 0.296573 2.04763 0
M  V30 7897 C 785.036 -1.06941 1.55592 0
M  V30 7898 O 784.393 -1.67619 0.721822 0
M  V30 7899 C 784.444 0.291906 3.6032 0
M  V30 7900 O 784.165 1.60397 4.07682 0
M  V30 7901 C 785.666 -0.164708 4.42994 0
M  V30 7902 H 782.886 0.129251 0.658434 0
M  V30 7903 H 785.43 1.0016 1.78293 0
M  V30 7904 H 783.585 -0.364251 3.85684 0
M  V30 7905 H 783.999 1.51909 5.0202 0
M  V30 7906 H 785.473 -0.116814 5.51876 0
M  V30 7907 H 785.95 -1.21022 4.22197 0
M  V30 7908 H 786.556 0.461968 4.22784 0
M  V30 7909 N 784.871 -1.49948 0.485112 0
M  V30 7910 C 785.801 -2.31675 -0.291364 0
M  V30 7911 C 786.782 -1.39216 -0.977383 0
M  V30 7912 O 787.967 -1.68133 -0.971855 0
M  V30 7913 C 785.097 -3.19326 -1.36558 0
M  V30 7914 C 784.051 -4.2045 -0.800359 0
M  V30 7915 C 783.377 -4.96931 -1.97391 0
M  V30 7916 C 784.677 -5.21925 0.197867 0
M  V30 7917 H 786.371 -2.96839 0.390775 0
M  V30 7918 H 783.917 -1.42749 0.189375 0
M  V30 7919 H 785.87 -3.75304 -1.91638 0
M  V30 7920 H 784.594 -2.52074 -2.07668 0
M  V30 7921 H 783.253 -3.65594 -0.271428 0
M  V30 7922 H 782.901 -4.26141 -2.67232 0
M  V30 7923 H 782.601 -5.65344 -1.60187 0
M  V30 7924 H 784.125 -5.55749 -2.52935 0
M  V30 7925 H 785.539 -5.72691 -0.264239 0
M  V30 7926 H 783.936 -5.98138 0.484908 0
M  V30 7927 H 785.006 -4.71809 1.11912 0
M  V30 7928 N 786.349 -0.21828 -1.56081 0
M  V30 7929 C 787.595 0.414921 -1.9851 0
M  V30 7930 C 787.928 1.59648 -1.10573 0
M  V30 7931 O 787.203 1.93818 -0.162695 0
M  V30 7932 C 787.486 0.852647 -3.4986 0
M  V30 7933 C 787.339 -0.33232 -4.48571 0
M  V30 7934 C 788.658 1.70998 -4.05521 0
M  V30 7935 H 785.777 0.149344 -0.72171 0
M  V30 7936 H 788.419 -0.313858 -1.8739 0
M  V30 7937 H 786.569 1.47362 -3.59467 0
M  V30 7938 H 788.241 -0.970418 -4.50977 0
M  V30 7939 H 786.484 -0.980302 -4.22578 0
M  V30 7940 H 787.155 0.0168407 -5.51997 0
M  V30 7941 H 789.631 1.18606 -3.98838 0
M  V30 7942 H 788.507 1.98517 -5.11744 0
M  V30 7943 H 788.768 2.67219 -3.52202 0
M  V30 7944 N 787.827 1.57504 0.0551401 0
M  V30 7945 C 789.052 1.92682 0.767352 0
M  V30 7946 C 789.477 0.81614 1.69472 0
M  V30 7947 O 788.835 -0.229989 1.79835 0
M  V30 7948 C 788.883 3.26866 1.52286 0
M  V30 7949 O 787.987 3.17274 2.63459 0
M  V30 7950 H 787.328 0.630502 0.208238 0
M  V30 7951 H 789.858 2.04592 0.0184026 0
M  V30 7952 H 789.868 3.61138 1.8985 0
M  V30 7953 H 788.543 4.07276 0.842541 0
M  V30 7954 H 787.12 2.94589 2.2863 0
M  V30 7955 N 789.305 -0.326896 1.54172 0
M  V30 7956 C 790.235 -1.40741 1.86317 0
M  V30 7957 C 791.216 -1.54125 0.719684 0
M  V30 7958 O 792.401 -1.6806 0.973117 0
M  V30 7959 C 789.531 -2.77557 2.08757 0
M  V30 7960 C 788.485 -2.78965 3.24596 0
M  V30 7961 C 787.811 -4.18824 3.32401 0
M  V30 7962 C 789.111 -2.4301 4.62324 0
M  V30 7963 H 790.805 -1.14088 2.76811 0
M  V30 7964 H 788.351 -0.547389 1.3319 0
M  V30 7965 H 790.304 -3.53209 2.29829 0
M  V30 7966 H 789.028 -3.0568 1.15009 0
M  V30 7967 H 787.687 -2.05767 3.03406 0
M  V30 7968 H 787.335 -4.44083 2.36218 0
M  V30 7969 H 787.035 -4.20673 4.10253 0
M  V30 7970 H 788.559 -4.96294 3.55703 0
M  V30 7971 H 789.973 -3.08375 4.83299 0
M  V30 7972 H 788.37 -2.56116 5.42701 0
M  V30 7973 H 789.44 -1.38165 4.64799 0
M  V30 7974 N 790.784 -1.46188 -0.588786 0
M  V30 7975 C 791.714 -1.59148 -1.70863 0
M  V30 7976 C 792.695 -0.442083 -1.64255 0
M  V30 7977 O 793.88 -0.667575 -1.82365 0
M  V30 7978 C 791.01 -1.5757 -3.09498 0
M  V30 7979 C 789.964 -2.71418 -3.30932 0
M  V30 7980 C 789.29 -2.549 -4.70032 0
M  V30 7981 C 790.59 -4.1329 -3.19356 0
M  V30 7982 H 792.284 -2.52889 -1.60274 0
M  V30 7983 H 789.83 -1.21707 -0.769638 0
M  V30 7984 H 791.783 -1.65231 -3.87655 0
M  V30 7985 H 790.507 -0.603705 -3.20972 0
M  V30 7986 H 789.166 -2.63216 -2.55172 0
M  V30 7987 H 788.814 -1.55797 -4.78264 0
M  V30 7988 H 788.514 -3.31257 -4.85327 0
M  V30 7989 H 790.038 -2.64443 -5.50366 0
M  V30 7990 H 791.452 -4.22636 -3.87365 0
M  V30 7991 H 789.849 -4.90187 -3.46175 0
M  V30 7992 H 790.919 -4.33874 -2.16522 0
M  V30 7993 N 792.262 0.832906 -1.33792 0
M  V30 7994 C 793.172 1.97514 -1.26592 0
M  V30 7995 C 794.188 1.73114 -0.175391 0
M  V30 7996 O 795.364 1.97387 -0.400062 0
M  V30 7997 C 792.429 3.31625 -1.01121 0
M  V30 7998 C 791.49 3.69101 -2.19233 0
M  V30 7999 C 790.723 4.96813 -1.94968 0
M  V30 8000 O 790.946 5.63208 -0.902955 0
M  V30 8001 O 789.88 5.31932 -2.8166 0
M  V30 8002 H 793.706 2.0653 -2.22664 0
M  V30 8003 H 791.291 0.966826 -1.13898 0
M  V30 8004 H 793.173 4.11968 -0.886571 0
M  V30 8005 H 791.848 3.23599 -0.080822 0
M  V30 8006 H 790.755 2.89243 -2.37253 0
M  V30 8007 H 792.088 3.818 -3.10628 0
M  V30 8008 N 793.74 1.17359 1.05189 0
M  V30 8009 C 794.986 0.963413 1.78455 0
M  V30 8010 C 795.319 -0.506703 1.87473 0
M  V30 8011 O 794.594 -1.37611 1.37453 0
M  V30 8012 C 794.877 1.60519 3.22344 0
M  V30 8013 C 794.73 3.14741 3.21338 0
M  V30 8014 C 796.049 1.3091 4.20179 0
M  V30 8015 H 793.168 0.351412 0.647826 0
M  V30 8016 H 795.81 1.44858 1.22948 0
M  V30 8017 H 793.96 1.19265 3.69741 0
M  V30 8018 H 795.632 3.65053 2.82017 0
M  V30 8019 H 793.875 3.4749 2.59679 0
M  V30 8020 H 794.546 3.54775 4.22894 0
M  V30 8021 H 797.022 1.66635 3.81277 0
M  V30 8022 H 795.898 1.784 5.191 0
M  V30 8023 H 796.159 0.229908 4.41502 0
M  V30 8024 N 795.218 -1.23913 0.973828 0
M  V30 8025 C 796.467 -1.91455 0.63464 0
M  V30 8026 C 796.78 -1.76893 -0.834759 0
M  V30 8027 O 797.986 -2.3918 -1.28473 0
M  V30 8028 C 796.442 -3.43172 1.08447 0
M  V30 8029 C 796.05 -3.66409 2.57776 0
M  V30 8030 C 797.794 -4.1653 0.818721 0
M  V30 8031 C 795.701 -5.11728 2.9646 0
M  V30 8032 H 794.631 -0.716881 0.233661 0
M  V30 8033 H 797.282 -1.40457 1.18085 0
M  V30 8034 H 795.664 -3.93242 0.466524 0
M  V30 8035 H 796.838 -3.26913 3.24753 0
M  V30 8036 H 795.153 -3.06349 2.82027 0
M  V30 8037 H 797.75 -5.23603 1.08367 0
M  V30 8038 H 798.093 -4.15578 -0.245128 0
M  V30 8039 H 798.626 -3.72428 1.39793 0
M  V30 8040 H 795.365 -5.17806 4.01941 0
M  V30 8041 H 794.885 -5.52199 2.34172 0
M  V30 8042 H 796.564 -5.80009 2.86703 0
M  V30 8043 N 796.696 -0.74468 -1.38897 0
M  V30 8044 C 797.606 -0.112892 -2.34328 0
M  V30 8045 C 798.622 0.71087 -1.58816 0
M  V30 8046 O 799.798 0.637092 -1.91058 0
M  V30 8047 C 796.863 0.776417 -3.37894 0
M  V30 8048 C 795.924 -0.0606999 -4.29257 0
M  V30 8049 C 795.157 0.786258 -5.27877 0
M  V30 8050 O 795.38 2.02463 -5.33259 0
M  V30 8051 O 794.314 0.209781 -6.01534 0
M  V30 8052 H 798.14 -0.900801 -2.90033 0
M  V30 8053 H 795.725 -0.505462 -1.4059 0
M  V30 8054 H 797.607 1.28496 -4.01331 0
M  V30 8055 H 796.282 1.54297 -2.84559 0
M  V30 8056 H 795.189 -0.614984 -3.69011 0
M  V30 8057 H 796.522 -0.789702 -4.85824 0
M  V30 8058 N 798.174 1.49689 -0.493057 0
M  V30 8059 C 799.585 1.8665 -0.0433032 0
M  V30 8060 C 799.936 1.40607 1.36836 0
M  V30 8061 O 799.061 0.780503 2.01834 0
M  V30 8062 C 799.656 3.38724 -0.0718069 0
M  V30 8063 C 798.215 3.75015 0.32257 0
M  V30 8064 C 797.362 2.7366 -0.4478 0
M  V30 8065 H 800.313 1.42119 -0.706246 0
M  V30 8066 H 800.334 3.73522 0.725347 0
M  V30 8067 H 799.846 3.72204 -1.09935 0
M  V30 8068 H 797.947 3.47142 1.35364 0
M  V30 8069 H 798.06 4.79099 0.00864259 0
M  V30 8070 H 796.424 2.54498 0.101354 0
M  V30 8071 H 797.207 3.09985 -1.47527 0
M  V30 8072 N 799.652 0.226554 1.55963 0
M  V30 8073 C 800.562 -0.692725 2.24139 0
M  V30 8074 C 801.578 -1.20971 1.25068 0
M  V30 8075 O 802.754 -1.25027 1.57893 0
M  V30 8076 C 799.819 -1.88183 2.91184 0
M  V30 8077 C 798.88 -1.40633 4.05612 0
M  V30 8078 C 798.113 -2.53875 4.6945 0
M  V30 8079 O 798.336 -3.72129 4.32292 0
M  V30 8080 O 797.27 -2.24792 5.58348 0
M  V30 8081 H 801.096 -0.141921 3.03368 0
M  V30 8082 H 798.681 -0.0041049 1.49399 0
M  V30 8083 H 800.563 -2.57617 3.33484 0
M  V30 8084 H 799.238 -2.42064 2.14911 0
M  V30 8085 H 798.145 -0.67986 3.67871 0
M  V30 8086 H 799.478 -0.913838 4.83642 0
M  V30 8087 N 801.13 -1.57531 -0.0467866 0
M  V30 8088 C 802.376 -1.8873 -0.742218 0
M  V30 8089 C 802.709 -0.822084 -1.75941 0
M  V30 8090 O 801.984 0.164922 -1.938 0
M  V30 8091 C 802.267 -3.30586 -1.42776 0
M  V30 8092 C 802.12 -4.47785 -0.425285 0
M  V30 8093 C 803.439 -3.71068 -2.36636 0
M  V30 8094 H 800.558 -0.686406 -0.268359 0
M  V30 8095 H 803.2 -1.89999 -0.00511341 0
M  V30 8096 H 801.35 -3.29634 -2.05605 0
M  V30 8097 H 803.022 -4.60867 0.199721 0
M  V30 8098 H 801.265 -4.33037 0.25713 0
M  V30 8099 H 801.936 -5.43884 -0.943086 0
M  V30 8100 H 804.412 -3.73273 -1.83866 0
M  V30 8101 H 803.288 -4.71165 -2.81593 0
M  V30 8102 H 803.549 -3.02355 -3.22542 0
M  V30 8103 N 802.608 0.318715 -1.54344 0
M  V30 8104 C 803.538 1.39751 -1.87061 0
M  V30 8105 C 804.519 1.53741 -0.727848 0
M  V30 8106 O 805.704 1.67541 -0.982016 0
M  V30 8107 C 802.834 2.76446 -2.10226 0
M  V30 8108 C 801.788 2.77239 -3.26071 0
M  V30 8109 C 801.114 4.17056 -3.34617 0
M  V30 8110 C 802.414 2.40555 -4.63606 0
M  V30 8111 H 804.108 1.12619 -2.77412 0
M  V30 8112 H 801.654 0.540318 -1.33479 0
M  V30 8113 H 803.607 3.51985 -2.31699 0
M  V30 8114 H 802.331 3.05066 -1.16629 0
M  V30 8115 H 800.99 2.04155 -3.04493 0
M  V30 8116 H 800.638 4.42824 -2.3857 0
M  V30 8117 H 800.338 4.18492 -4.12478 0
M  V30 8118 H 801.862 4.94401 -3.5833 0
M  V30 8119 H 803.276 3.05808 -4.84927 0
M  V30 8120 H 801.673 2.53234 -5.44052 0
M  V30 8121 H 802.743 1.35698 -4.65526 0
M  V30 8122 N 804.086 1.46499 0.581025 0
M  V30 8123 C 805.316 1.55244 1.36319 0
M  V30 8124 C 805.724 0.193059 1.88212 0
M  V30 8125 O 805.067 -0.820109 1.64377 0
M  V30 8126 C 805.129 2.498 2.58535 0
M  V30 8127 C 804.793 3.96007 2.28096 0
M  V30 8128 C 805.79 4.85171 1.8683 0
M  V30 8129 C 803.475 4.41152 2.40189 0
M  V30 8130 C 805.469 6.17493 1.58053 0
M  V30 8131 C 803.156 5.73508 2.11024 0
M  V30 8132 C 804.154 6.615 1.70021 0
M  V30 8133 O 803.842 7.914 1.41215 0
M  V30 8134 H 803.574 0.527513 0.422736 0
M  V30 8135 H 806.128 1.92623 0.713139 0
M  V30 8136 H 804.358 2.07443 3.2635 0
M  V30 8137 H 806.047 2.48934 3.20604 0
M  V30 8138 H 806.813 4.51548 1.77001 0
M  V30 8139 H 802.692 3.72886 2.71066 0
M  V30 8140 H 806.236 6.86131 1.25974 0
M  V30 8141 H 802.133 6.06679 2.20478 0
M  V30 8142 H 802.901 8.03681 1.55046 0
M  V30 8143 N 805.565 -0.825799 1.34232 0
M  V30 8144 C 806.528 -1.91808 1.25468 0
M  V30 8145 C 807.528 -1.59893 0.170567 0
M  V30 8146 O 808.718 -1.68986 0.422996 0
M  V30 8147 C 805.85 -3.27786 0.93644 0
M  V30 8148 H 807.043 -2.01003 2.22571 0
M  V30 8149 H 804.596 -1.01944 1.18479 0
M  V30 8150 H 805.331 -3.24285 -0.0315408 0
M  V30 8151 H 805.116 -3.52333 1.72057 0
M  V30 8152 H 806.606 -4.07782 0.900214 0
M  V30 8153 N 807.043 -1.17915 -1.04565 0
M  V30 8154 C 808.291 -0.969505 -1.77327 0
M  V30 8155 C 808.612 0.502569 -1.88412 0
M  V30 8156 O 807.882 1.36467 -1.40547 0
M  V30 8157 H 806.462 -0.355723 -0.656864 0
M  V30 8158 H 809.124 -1.48506 -1.26223 0
M  V30 8159 H 808.22 -1.40324 -2.78775 0
M  V30 8160 N 808.521 1.23394 -0.980386 0
M  V30 8161 C 809.751 1.9556 -0.666319 0
M  V30 8162 C 810.159 1.72786 0.770815 0
M  V30 8163 O 809.502 1.0162 1.53033 0
M  V30 8164 C 809.564 3.48643 -0.876825 0
M  V30 8165 C 809.228 3.95135 -2.29602 0
M  V30 8166 C 810.225 4.03806 -3.2747 0
M  V30 8167 C 807.91 4.28122 -2.62711 0
M  V30 8168 C 809.904 4.44818 -4.56526 0
M  V30 8169 C 807.591 4.68814 -3.9199 0
M  V30 8170 C 808.589 4.77129 -4.88709 0
M  V30 8171 O 808.277 5.16908 -6.15679 0
M  V30 8172 H 808.009 0.629422 -0.246585 0
M  V30 8173 H 810.563 1.57839 -1.31438 0
M  V30 8174 H 808.793 3.86319 -0.171587 0
M  V30 8175 H 810.482 4.0202 -0.55992 0
M  V30 8176 H 811.248 3.78526 -3.03222 0
M  V30 8177 H 807.127 4.20861 -1.8814 0
M  V30 8178 H 810.671 4.51223 -5.32018 0
M  V30 8179 H 806.568 4.93545 -4.16033 0
M  V30 8180 H 807.336 5.3502 -6.19432 0
M  V30 8181 N 809.999 0.752036 1.385 0
M  V30 8182 C 811.276 0.233075 1.94206 0
M  V30 8183 C 811.656 -1.26838 1.68746 0
M  V30 8184 O 811.004 -2.04214 1.02513 0
M  V30 8185 C 811.214 0.58509 3.44061 0
M  V30 8186 C 812.562 0.543871 4.21102 0
M  V30 8187 O 813.586 0.523291 3.52335 0
M  V30 8188 O 812.445 0.553436 5.4369 0
M  V30 8189 H 809.539 0.0483049 0.825588 0
M  V30 8190 H 812.085 0.832053 1.47902 0
M  V30 8191 H 810.857 1.62212 3.56094 0
M  V30 8192 H 810.48 -0.0419738 3.97578 0
M  V30 8193 N 811.477 -1.49425 0.500989 0
M  V30 8194 C 812.702 -2.07356 -0.0425154 0
M  V30 8195 C 813.127 -1.35887 -1.30063 0
M  V30 8196 O 812.485 -0.41561 -1.76472 0
M  V30 8197 C 812.533 -3.59518 -0.279188 0
M  V30 8198 O 811.637 -3.89542 -1.3539 0
M  V30 8199 H 810.978 -0.663482 0.0262207 0
M  V30 8200 H 813.508 -1.92231 0.700607 0
M  V30 8201 H 813.518 -4.04791 -0.5107 0
M  V30 8202 H 812.193 -4.10946 0.640009 0
M  V30 8203 H 810.77 -3.56079 -1.10734 0
M  V30 8204 N 812.955 -0.234822 -1.55841 0
M  V30 8205 C 814.18 0.400741 -2.03492 0
M  V30 8206 C 814.605 1.51618 -1.11327 0
M  V30 8207 O 813.963 1.81002 -0.103922 0
M  V30 8208 C 814.011 0.897184 -3.49261 0
M  V30 8209 O 813.115 2.00764 -3.60233 0
M  V30 8210 H 812.456 0.0890023 -0.658008 0
M  V30 8211 H 814.986 -0.357345 -2.01455 0
M  V30 8212 H 814.996 1.20356 -3.89844 0
M  V30 8213 H 813.671 0.0808639 -4.15821 0
M  V30 8214 H 812.248 1.70689 -3.31541 0
M  V30 8215 N 814.433 1.57553 0.0384317 0
M  V30 8216 C 815.679 1.89121 0.732199 0
M  V30 8217 C 816.012 0.831404 1.75503 0
M  V30 8218 O 815.287 -0.154642 1.93884 0
M  V30 8219 C 815.57 3.31338 1.41021 0
M  V30 8220 C 815.423 4.48004 0.401532 0
M  V30 8221 C 816.742 3.72318 2.34665 0
M  V30 8222 H 813.861 0.687819 0.264715 0
M  V30 8223 H 816.503 1.89999 -0.00496279 0
M  V30 8224 H 814.653 3.3072 2.03854 0
M  V30 8225 H 816.325 4.60755 -0.224159 0
M  V30 8226 H 814.568 4.32895 -0.280092 0
M  V30 8227 H 815.239 5.44377 0.91423 0
M  V30 8228 H 817.715 3.74243 1.81883 0
M  V30 8229 H 816.591 4.72652 2.7909 0
M  V30 8230 H 816.852 3.04062 3.20934 0
M  V30 8231 N 815.911 -0.310526 1.54511 0
M  V30 8232 C 817.322 -0.884142 1.64438 0
M  V30 8233 C 817.673 -1.88425 0.546855 0
M  V30 8234 O 816.798 -2.14049 -0.31811 0
M  V30 8235 C 817.393 -1.6104 2.9808 0
M  V30 8236 C 815.952 -2.13255 3.1016 0
M  V30 8237 C 815.099 -0.96213 2.60074 0
M  V30 8238 H 818.05 -0.0877666 1.58457 0
M  V30 8239 H 818.071 -2.47541 2.8897 0
M  V30 8240 H 817.583 -0.882255 3.77939 0
M  V30 8241 H 815.684 -2.89145 2.35002 0
M  V30 8242 H 815.797 -2.37361 4.16169 0
M  V30 8243 H 814.161 -1.34501 2.16291 0
M  V30 8244 H 814.944 -0.248098 3.42402 0
M  V30 8245 N 817.389 -1.46805 -0.573248 0
M  V30 8246 C 818.666 -1.43082 -1.33368 0
M  V30 8247 C 819.046 -0.119252 -2.10763 0
M  V30 8248 O 818.394 0.899239 -2.10062 0
M  V30 8249 C 818.604 -2.66643 -2.25172 0
M  V30 8250 C 819.952 -3.13188 -2.86702 0
M  V30 8251 O 820.976 -2.67258 -2.35482 0
M  V30 8252 O 819.835 -3.92994 -3.79761 0
M  V30 8253 H 816.929 -0.569451 -0.599712 0
M  V30 8254 H 819.475 -1.58984 -0.59348 0
M  V30 8255 H 818.247 -3.53649 -1.67475 0
M  V30 8256 H 817.87 -2.53247 -3.06516 0
M  V30 8257 N 818.867 0.818669 -1.34668 0
M  V30 8258 C 820.092 1.61193 -1.30505 0
M  V30 8259 C 820.517 1.87734 0.117341 0
M  V30 8260 O 819.875 1.45591 1.08042 0
M  V30 8261 C 819.923 2.92733 -2.1057 0
M  V30 8262 O 819.027 3.85 -1.47813 0
M  V30 8263 H 818.368 0.490085 -0.44801 0
M  V30 8264 H 820.898 1.01701 -1.77534 0
M  V30 8265 H 820.908 3.42262 -2.22082 0
M  V30 8266 H 819.583 2.7274 -3.13984 0
M  V30 8267 H 818.16 3.43525 -1.45069 0
M  V30 8268 N 820.346 1.18468 1.03938 0
M  V30 8269 C 821.574 1.00576 1.80809 0
M  V30 8270 C 821.989 -0.445786 1.83462 0
M  V30 8271 O 821.346 -1.30964 1.27101 0
M  V30 8272 C 821.397 1.55491 3.26351 0
M  V30 8273 O 821.118 2.94963 3.23926 0
M  V30 8274 C 822.619 1.42236 4.19862 0
M  V30 8275 H 819.839 0.35508 0.56935 0
M  V30 8276 H 822.383 1.57046 1.30984 0
M  V30 8277 H 820.538 1.03195 3.73403 0
M  V30 8278 H 820.952 3.20598 4.15111 0
M  V30 8279 H 822.426 1.85455 5.19914 0
M  V30 8280 H 822.903 0.371267 4.37628 0
M  V30 8281 H 823.509 1.9361 3.78675 0
M  V30 8282 N 821.824 -1.22873 0.986916 0
M  V30 8283 C 823.07 -1.92047 0.670042 0
M  V30 8284 C 823.425 -1.75497 -0.788587 0
M  V30 8285 O 822.718 -1.10934 -1.56218 0
M  V30 8286 C 822.912 -3.43014 1.00379 0
M  V30 8287 C 822.741 -3.74251 2.49332 0
M  V30 8288 C 821.511 -3.94589 3.15638 0
M  V30 8289 C 823.709 -3.79208 3.47428 0
M  V30 8290 N 821.691 -4.13086 4.54129 0
M  V30 8291 C 823.062 -4.02775 4.71352 0
M  V30 8292 C 825.117 -3.62029 3.41818 0
M  V30 8293 C 823.82 -4.10946 5.90352 0
M  V30 8294 C 825.846 -3.71457 4.60189 0
M  V30 8295 C 825.208 -3.95468 5.82911 0
M  V30 8296 H 821.307 -0.723668 0.29636 0
M  V30 8297 H 823.891 -1.47946 1.26571 0
M  V30 8298 H 822.062 -3.85936 0.436762 0
M  V30 8299 H 823.794 -3.99551 0.643522 0
M  V30 8300 H 820.549 -3.91762 2.66119 0
M  V30 8301 H 820.973 -4.26275 5.25945 0
M  V30 8302 H 825.615 -3.42457 2.47958 0
M  V30 8303 H 823.333 -4.29324 6.84621 0
M  V30 8304 H 826.919 -3.59511 4.57431 0
M  V30 8305 H 825.799 -4.02584 6.72975 0
M  V30 8306 N 823.302 -0.75937 -1.38099 0
M  V30 8307 C 824.718 -0.437606 -1.53483 0
M  V30 8308 C 824.918 1.04849 -1.72072 0
M  V30 8309 O 823.974 1.83448 -1.73502 0
M  V30 8310 C 825.287 -1.24189 -2.73857 0
M  V30 8311 C 826.835 -1.23255 -2.8771 0
M  V30 8312 C 827.31 -2.01992 -4.11051 0
M  V30 8313 N 828.801 -1.99282 -4.1814 0
M  V30 8314 C 829.536 -2.56996 -5.12583 0
M  V30 8315 N 829.032 -3.23446 -6.12662 0
M  V30 8316 N 830.825 -2.46894 -5.04975 0
M  V30 8317 H 822.976 -1.72242 -1.24283 0
M  V30 8318 H 825.239 -0.730507 -0.604205 0
M  V30 8319 H 824.945 -2.29449 -2.66545 0
M  V30 8320 H 824.819 -0.862672 -3.67203 0
M  V30 8321 H 827.206 -0.187988 -2.94501 0
M  V30 8322 H 827.287 -1.65132 -1.95359 0
M  V30 8323 H 826.931 -3.06462 -4.05023 0
M  V30 8324 H 826.861 -1.57505 -5.02494 0
M  V30 8325 H 829.352 -1.50893 -3.46467 0
M  V30 8326 H 829.665 -3.6489 -6.81231 0
M  V30 8327 H 828.01 -3.27543 -6.12977 0
M  V30 8328 H 831.201 -1.94604 -4.25731 0
M  V30 8329 H 831.374 -2.92168 -5.78396 0
M  V30 8330 N 824.78 1.49157 -0.508906 0
M  V30 8331 C 826.029 2.0167 0.0346854 0
M  V30 8332 C 826.342 1.39302 1.37311 0
M  V30 8333 O 827.548 1.83189 2.00385 0
M  V30 8334 C 826.004 3.59725 0.112261 0
M  V30 8335 C 825.612 4.31069 -1.21999 0
M  V30 8336 C 827.356 4.20155 0.605798 0
M  V30 8337 C 825.263 5.81001 -1.10415 0
M  V30 8338 H 824.193 0.753814 0.0167355 0
M  V30 8339 H 826.844 1.7162 -0.649518 0
M  V30 8340 H 825.226 3.86525 0.861087 0
M  V30 8341 H 826.4 4.15962 -1.98273 0
M  V30 8342 H 824.715 3.82418 -1.64759 0
M  V30 8343 H 827.312 5.29964 0.710102 0
M  V30 8344 H 827.655 3.84051 1.60656 0
M  V30 8345 H 828.188 3.97705 -0.0867239 0
M  V30 8346 H 824.927 6.21643 -2.07941 0
M  V30 8347 H 824.447 5.9858 -0.382428 0
M  V30 8348 H 826.126 6.42207 -0.786116 0
M  V30 8349 N 826.258 0.243083 1.55714 0
M  V30 8350 C 827.191 -0.698623 2.17243 0
M  V30 8351 C 828.169 -1.1756 1.12331 0
M  V30 8352 O 829.353 -1.25444 1.40699 0
M  V30 8353 C 826.48 -1.94901 2.77004 0
M  V30 8354 C 825.526 -1.61022 3.94936 0
M  V30 8355 S 826.359 -0.716173 5.30689 0
M  V30 8356 C 827.515 -1.97565 5.93901 0
M  V30 8357 H 827.748 -0.175724 2.9678 0
M  V30 8358 H 825.281 0.0275727 1.54375 0
M  V30 8359 H 827.239 -2.66687 3.12071 0
M  V30 8360 H 825.9 -2.44304 1.9742 0
M  V30 8361 H 825.093 -2.5398 4.35328 0
M  V30 8362 H 824.695 -0.972829 3.61126 0
M  V30 8363 H 826.987 -2.92333 6.11186 0
M  V30 8364 H 827.93 -1.61528 6.8943 0
M  V30 8365 H 828.338 -2.126 5.22935 0
M  V30 8366 N 827.736 -1.57571 -0.0300757 0
M  V30 8367 C 828.964 -1.93485 -0.732891 0
M  V30 8368 C 829.379 -0.842758 -1.68947 0
M  V30 8369 O 828.736 0.180904 -1.81601 0
M  V30 8370 C 828.787 -3.29328 -1.49082 0
M  V30 8371 O 828.508 -4.34341 -0.572639 0
M  V30 8372 C 830.009 -3.79517 -2.29088 0
M  V30 8373 H 827.229 -0.638588 -0.206026 0
M  V30 8374 H 829.773 -2.04496 0.0120966 0
M  V30 8375 H 827.928 -3.19716 -2.1877 0
M  V30 8376 H 828.342 -5.12748 -1.10406 0
M  V30 8377 H 829.816 -4.77081 -2.77665 0
M  V30 8378 H 830.293 -3.10659 -3.10464 0
M  V30 8379 H 830.899 -3.92208 -1.64477 0
M  V30 8380 N 829.214 0.302327 -1.54673 0
M  V30 8381 C 830.442 1.05669 -1.77881 0
M  V30 8382 C 830.857 1.80983 -0.537648 0
M  V30 8383 O 830.214 1.7573 0.492467 0
M  V30 8384 C 830.265 2.03828 -2.98557 0
M  V30 8385 O 829.986 1.3157 -4.17877 0
M  V30 8386 C 831.487 2.91314 -3.34143 0
M  V30 8387 H 828.707 0.313436 -0.593295 0
M  V30 8388 H 831.251 0.342003 -2.0162 0
M  V30 8389 H 829.406 2.70801 -2.7703 0
M  V30 8390 H 829.82 1.97481 -4.85903 0
M  V30 8391 H 831.294 3.56042 -4.21827 0
M  V30 8392 H 831.771 3.59544 -2.52239 0
M  V30 8393 H 832.377 2.29874 -3.57824 0
M  V30 8394 N 830.692 1.47107 0.565454 0
M  V30 8395 C 831.622 1.61846 1.68309 0
M  V30 8396 C 832.603 0.468159 1.63531 0
M  V30 8397 O 833.788 0.696504 1.8128 0
M  V30 8398 C 830.918 1.62474 3.06952 0
M  V30 8399 C 829.872 2.76649 3.26572 0
M  V30 8400 C 829.198 2.62345 4.65917 0
M  V30 8401 C 830.498 4.18319 3.12741 0
M  V30 8402 H 832.192 2.55407 1.5623 0
M  V30 8403 H 829.738 1.22916 0.750179 0
M  V30 8404 H 831.691 1.71378 3.84977 0
M  V30 8405 H 830.415 0.654692 3.19971 0
M  V30 8406 H 829.074 2.67242 2.50952 0
M  V30 8407 H 828.722 1.63386 4.75725 0
M  V30 8408 H 828.422 3.38936 4.79996 0
M  V30 8409 H 829.946 2.73165 5.46089 0
M  V30 8410 H 831.36 4.28745 3.80593 0
M  V30 8411 H 829.757 4.95632 3.38333 0
M  V30 8412 H 830.827 4.37263 2.09592 0
M  V30 8413 N 832.17 -0.811516 1.35101 0
M  V30 8414 C 833.118 -1.94449 1.27642 0
M  V30 8415 C 834.112 -1.68522 0.172287 0
M  V30 8416 O 835.318 -1.76799 0.337967 0
M  V30 8417 H 831.693 -0.638776 0.396824 0
M  V30 8418 H 833.664 -1.97861 2.23369 0
M  V30 8419 C 832.413 -3.31139 1.06029 0
M  V30 8420 H 831.736 -3.51644 1.90227 0
M  V30 8421 H 833.176 -4.10831 1.0485 0
M  V30 8422 C 831.635 -3.36072 -0.236039 0
M  V30 8423 O 832.165 -3.82292 -1.23353 0
M  V30 8424 N 830.371 -2.89314 -0.273107 0
M  V30 8425 H 829.918 -2.51893 0.539211 0
M  V30 8426 H 829.876 -2.92996 -1.1402 0
M  V30 8427 N 833.648 -1.19017 -1.03309 0
M  V30 8428 C 834.581 -0.867457 -2.1107 0
M  V30 8429 C 835.559 0.173752 -1.61669 0
M  V30 8430 O 836.743 0.0510077 -1.88431 0
M  V30 8431 C 833.87 -0.297459 -3.37391 0
M  V30 8432 C 832.916 -1.31706 -4.05655 0
M  V30 8433 S 833.749 -2.87591 -4.51721 0
M  V30 8434 C 834.905 -2.32122 -5.81266 0
M  V30 8435 H 835.138 -1.78008 -2.38119 0
M  V30 8436 H 832.671 -1.01686 -1.16187 0
M  V30 8437 H 834.629 0.0248889 -4.10492 0
M  V30 8438 H 833.29 0.5934 -3.08444 0
M  V30 8439 H 832.483 -0.867264 -4.96482 0
M  V30 8440 H 832.085 -1.58603 -3.38705 0
M  V30 8441 H 834.377 -1.70855 -6.55603 0
M  V30 8442 H 835.32 -3.2128 -6.31019 0
M  V30 8443 H 835.728 -1.74858 -5.36736 0
M  V30 8444 N 835.127 1.22348 -0.993418 0
M  V30 8445 C 836.057 2.26584 -0.564088 0
M  V30 8446 C 837.038 1.65102 0.409298 0
M  V30 8447 O 838.223 1.91872 0.299819 0
M  V30 8448 C 835.353 3.47087 0.121554 0
M  V30 8449 C 834.307 4.21009 -0.770429 0
M  V30 8450 C 833.633 5.34678 0.0481586 0
M  V30 8451 C 834.933 4.79636 -2.06752 0
M  V30 8452 H 836.627 2.62749 -1.43538 0
M  V30 8453 H 834.173 1.26303 -0.691628 0
M  V30 8454 H 836.126 4.19166 0.433303 0
M  V30 8455 H 834.85 3.1002 1.0274 0
M  V30 8456 H 833.509 3.50764 -1.06583 0
M  V30 8457 H 833.157 4.93852 0.954933 0
M  V30 8458 H 832.857 5.85061 -0.545641 0
M  V30 8459 H 834.381 6.09573 0.353991 0
M  V30 8460 H 835.795 5.43654 -1.81969 0
M  V30 8461 H 834.192 5.4036 -2.61019 0
M  V30 8462 H 835.262 3.99659 -2.74592 0
M  V30 8463 N 836.605 0.766683 1.37694 0
M  V30 8464 C 837.853 0.328065 1.9942 0
M  V30 8465 C 838.174 -1.09775 1.61166 0
M  V30 8466 O 837.444 -1.75288 0.874686 0
M  V30 8467 H 836.024 0.11831 0.737572 0
M  V30 8468 H 838.686 0.983686 1.68255 0
M  V30 8469 H 837.782 0.401647 3.09505 0
M  V30 8470 N 838.083 -1.48885 0.516809 0
M  V30 8471 C 839.331 -2.02088 -0.0220166 0
M  V30 8472 C 839.652 -1.39735 -1.36011 0
M  V30 8473 O 838.922 -0.558119 -1.87781 0
M  V30 8474 H 837.502 -0.746917 -0.0111255 0
M  V30 8475 H 840.164 -1.8274 0.677647 0
M  V30 8476 H 839.26 -3.11786 -0.140067 0
M  V30 8477 N 839.561 -0.251338 -1.55583 0
M  V30 8478 C 840.977 0.103409 -1.59265 0
M  V30 8479 C 841.177 1.56559 -1.26852 0
M  V30 8480 O 840.233 2.31071 -1.01796 0
M  V30 8481 C 841.546 -0.249781 -2.99661 0
M  V30 8482 C 843.094 -0.194442 -3.12395 0
M  V30 8483 C 843.569 -0.521728 -4.55019 0
M  V30 8484 N 845.06 -0.472393 -4.60785 0
M  V30 8485 C 845.795 -0.698737 -5.69127 0
M  V30 8486 N 845.291 -0.988443 -6.85713 0
M  V30 8487 N 847.084 -0.629143 -5.58568 0
M  V30 8488 H 839.235 -1.20484 -1.74921 0
M  V30 8489 H 841.498 -0.485092 -0.814488 0
M  V30 8490 H 841.204 -1.26577 -3.28133 0
M  V30 8491 H 841.078 0.420973 -3.74844 0
M  V30 8492 H 843.465 0.812229 -2.83702 0
M  V30 8493 H 843.546 -0.899111 -2.39478 0
M  V30 8494 H 843.19 -1.52597 -4.84434 0
M  V30 8495 H 843.12 0.204468 -5.26203 0
M  V30 8496 H 845.611 -0.257386 -3.77022 0
M  V30 8497 H 845.924 -1.14846 -7.64219 0
M  V30 8498 H 844.269 -1.02596 -6.87386 0
M  V30 8499 H 847.46 -0.402826 -4.66364 0
M  V30 8500 H 847.633 -0.808935 -6.42931 0
M  V30 8501 N 841.039 1.57585 0.0217189 0
M  V30 8502 C 841.971 2.03849 1.04777 0
M  V30 8503 C 842.984 0.952558 1.32023 0
M  V30 8504 O 844.173 1.22974 1.29381 0
M  V30 8505 C 841.273 2.40504 2.3877 0
M  V30 8506 C 840.446 3.71566 2.30775 0
M  V30 8507 C 839.505 3.95329 3.47277 0
M  V30 8508 O 838.531 4.66289 3.26441 0
M  V30 8509 N 839.733 3.41536 4.69397 0
M  V30 8510 H 842.498 2.92491 0.653395 0
M  V30 8511 H 840.059 1.60538 0.209527 0
M  V30 8512 H 842.051 2.53532 3.15442 0
M  V30 8513 H 840.621 1.57494 2.70027 0
M  V30 8514 H 839.841 3.68822 1.39155 0
M  V30 8515 H 841.129 4.5753 2.22584 0
M  V30 8516 H 840.527 2.84033 4.89226 0
M  V30 8517 H 839.084 3.59932 5.43408 0
M  V30 8518 N 842.517 -0.29412 1.54831 0
M  V30 8519 C 843.763 -1.02999 1.74697 0
M  V30 8520 C 844.096 -1.86687 0.534949 0
M  V30 8521 O 843.371 -1.88789 -0.467863 0
M  V30 8522 C 843.654 -1.93024 3.03996 0
M  V30 8523 C 843.507 -1.1247 4.35512 0
M  V30 8524 C 844.826 -2.92085 3.29203 0
M  V30 8525 H 841.945 -0.373039 0.635618 0
M  V30 8526 H 844.587 -0.304065 1.87551 0
M  V30 8527 H 842.737 -2.5492 2.93169 0
M  V30 8528 H 844.409 -0.528067 4.58268 0
M  V30 8529 H 842.652 -0.427574 4.31688 0
M  V30 8530 H 843.323 -1.78728 5.22265 0
M  V30 8531 H 845.799 -2.40319 3.39685 0
M  V30 8532 H 844.675 -3.52234 4.20978 0
M  V30 8533 H 844.936 -3.66107 2.47827 0
M  V30 8534 N 843.995 -1.47404 -0.557645 0
M  V30 8535 C 845.244 -1.53268 -1.31118 0
M  V30 8536 C 845.557 -0.199414 -1.94581 0
M  V30 8537 O 846.763 -0.136039 -2.71159 0
M  V30 8538 C 845.219 -2.70178 -2.37764 0
M  V30 8539 C 844.827 -4.10032 -1.80493 0
M  V30 8540 C 846.571 -2.85334 -3.14301 0
M  V30 8541 C 844.478 -5.18244 -2.84916 0
M  V30 8542 H 843.408 -0.570491 -0.493007 0
M  V30 8543 H 846.059 -1.73678 -0.592308 0
M  V30 8544 H 844.441 -2.43147 -3.12563 0
M  V30 8545 H 845.615 -4.46964 -1.12069 0
M  V30 8546 H 843.93 -3.99759 -1.16542 0
M  V30 8547 H 846.527 -3.63347 -3.92279 0
M  V30 8548 H 846.87 -1.93761 -3.68459 0
M  V30 8549 H 847.403 -3.12133 -2.46613 0
M  V30 8550 H 844.142 -6.11691 -2.35614 0
M  V30 8551 H 843.662 -4.85829 -3.51753 0
M  V30 8552 H 845.341 -5.45174 -3.48417 0
M  V30 8553 N 845.473 0.80434 -1.35529 0
M  V30 8554 C 846.436 1.89788 -1.28503 0
M  V30 8555 C 847.436 1.59601 -0.195983 0
M  V30 8556 O 848.626 1.68292 -0.449827 0
M  V30 8557 C 845.758 3.26255 -0.98847 0
M  V30 8558 H 846.951 1.97436 -2.25741 0
M  V30 8559 H 844.504 1.00046 -1.20086 0
M  V30 8560 H 845.239 3.24294 -0.0200541 0
M  V30 8561 H 845.024 3.49551 -1.77641 0
M  V30 8562 H 846.514 4.06298 -0.964975 0
M  V30 8563 N 846.951 1.19563 1.02676 0
M  V30 8564 C 847.914 0.937182 2.09164 0
M  V30 8565 C 848.914 -0.0831927 1.60585 0
M  V30 8566 O 850.104 0.15178 1.73538 0
M  V30 8567 C 847.236 0.408912 3.38439 0
M  V30 8568 H 848.429 1.88164 2.33526 0
M  V30 8569 H 845.982 1.00959 1.19319 0
M  V30 8570 H 846.717 -0.541497 3.19747 0
M  V30 8571 H 846.502 1.14464 3.7502 0
M  V30 8572 H 847.992 0.247242 4.16867 0
M  V30 8573 N 848.429 -1.21819 0.999893 0
M  V30 8574 C 849.675 -1.91035 0.680701 0
M  V30 8575 C 850.008 -1.77582 -0.786021 0
M  V30 8576 O 849.283 -1.14917 -1.56921 0
M  V30 8577 C 849.566 -3.43013 1.0961 0
M  V30 8578 C 849.419 -3.65481 2.6219 0
M  V30 8579 C 850.738 -4.35204 0.654616 0
M  V30 8580 H 847.857 -0.693748 0.248763 0
M  V30 8581 H 850.499 -1.43555 1.24466 0
M  V30 8582 H 848.649 -3.83581 0.616253 0
M  V30 8583 H 850.321 -3.34273 3.17899 0
M  V30 8584 H 848.564 -3.09522 3.03938 0
M  V30 8585 H 849.235 -4.71945 2.86307 0
M  V30 8586 H 851.711 -4.0219 1.06688 0
M  V30 8587 H 850.587 -5.40198 0.973492 0
M  V30 8588 H 850.848 -4.3986 -0.444458 0
M  V30 8589 N 849.908 -0.773975 -1.37286 0
M  V30 8590 C 850.855 -0.159938 -2.30245 0
M  V30 8591 C 851.825 0.687356 -1.51211 0
M  V30 8592 O 853.01 0.639255 -1.79773 0
M  V30 8593 C 850.15 0.711452 -3.37687 0
M  V30 8594 C 849.263 -0.152692 -4.3173 0
M  V30 8595 C 848.398 0.723613 -5.26248 0
M  V30 8596 C 847.437 -0.14293 -6.11933 0
M  V30 8597 N 846.574 0.691479 -6.98687 0
M  V30 8598 H 851.414 -0.958182 -2.82175 0
M  V30 8599 H 848.951 -0.48411 -1.38906 0
M  V30 8600 H 850.909 1.2315 -3.9861 0
M  V30 8601 H 849.539 1.47528 -2.87116 0
M  V30 8602 H 848.591 -0.790574 -3.72094 0
M  V30 8603 H 849.903 -0.821027 -4.91997 0
M  V30 8604 H 849.057 1.31006 -5.92387 0
M  V30 8605 H 847.796 1.42562 -4.66398 0
M  V30 8606 H 846.801 -0.7419 -5.44771 0
M  V30 8607 H 848.026 -0.842305 -6.73856 0
M  V30 8608 H 845.972 1.37806 -6.41362 0
M  V30 8609 H 845.889 0.0804911 -7.55957 0
M  V30 8610 H 847.157 1.26225 -7.69212 0
M  V30 8611 N 851.386 1.48609 -0.524698 0
M  V30 8612 C 852.632 2.034 0.00323579 0
M  V30 8613 C 852.987 1.39513 1.32491 0
M  V30 8614 O 852.28 0.529876 1.84127 0
M  V30 8615 C 852.474 3.56906 0.187873 0
M  V30 8616 C 852.303 4.35674 -1.11436 0
M  V30 8617 C 851.073 4.76809 -1.67276 0
M  V30 8618 C 853.271 4.72814 -2.02365 0
M  V30 8619 N 851.253 5.40093 -2.91843 0
M  V30 8620 C 852.624 5.36062 -3.11508 0
M  V30 8621 C 854.679 4.54747 -2.02755 0
M  V30 8622 C 853.382 5.83154 -4.21099 0
M  V30 8623 C 855.408 5.02815 -3.11337 0
M  V30 8624 C 854.77 5.66084 -4.19199 0
M  V30 8625 H 850.869 0.780967 -0.0401842 0
M  V30 8626 H 853.453 1.81495 -0.704808 0
M  V30 8627 H 851.624 3.78645 0.864996 0
M  V30 8628 H 853.356 3.98335 0.714938 0
M  V30 8629 H 850.111 4.57754 -1.21483 0
M  V30 8630 H 850.535 5.76305 -3.55249 0
M  V30 8631 H 855.177 4.05217 -1.20661 0
M  V30 8632 H 852.895 6.31692 -5.03975 0
M  V30 8633 H 856.481 4.9063 -3.12688 0
M  V30 8634 H 855.361 6.02604 -5.01834 0
M  V30 8635 N 852.864 0.259585 1.55447 0
M  V30 8636 C 853.827 -0.621359 2.20617 0
M  V30 8637 C 854.827 -1.09317 1.17925 0
M  V30 8638 O 856.017 -0.995842 1.42929 0
M  V30 8639 C 853.149 -1.85546 2.85982 0
M  V30 8640 H 854.342 -0.0525833 2.99854 0
M  V30 8641 H 851.895 0.0101055 1.56297 0
M  V30 8642 H 852.63 -2.46515 2.10715 0
M  V30 8643 H 852.415 -1.52523 3.61219 0
M  V30 8644 H 853.905 -2.48227 3.35817 0
M  V30 8645 N 854.342 -1.57594 -0.0133615 0
M  V30 8646 C 855.289 -2.07574 -1.00905 0
M  V30 8647 C 856.259 -0.968231 -1.34961 0
M  V30 8648 O 857.444 -1.23981 -1.45028 0
M  V30 8649 C 854.584 -2.5728 -2.30002 0
M  V30 8650 C 853.697 -3.81881 -2.01967 0
M  V30 8651 C 852.832 -4.20139 -3.25049 0
M  V30 8652 C 851.871 -5.37614 -2.92639 0
M  V30 8653 N 851.008 -5.71229 -4.08218 0
M  V30 8654 H 855.848 -2.92382 -0.575899 0
M  V30 8655 H 853.385 -1.4455 -0.272722 0
M  V30 8656 H 855.343 -2.84171 -3.05454 0
M  V30 8657 H 853.973 -1.75365 -2.71011 0
M  V30 8658 H 853.025 -3.61979 -1.16942 0
M  V30 8659 H 854.337 -4.67441 -1.74069 0
M  V30 8660 H 853.491 -4.48242 -4.08857 0
M  V30 8661 H 852.23 -3.33262 -3.56073 0
M  V30 8662 H 851.235 -5.09248 -2.07235 0
M  V30 8663 H 852.46 -6.26157 -2.62876 0
M  V30 8664 H 850.406 -4.8731 -4.39164 0
M  V30 8665 H 850.323 -6.51333 -3.83799 0
M  V30 8666 H 851.591 -6.03917 -4.92854 0
M  V30 8667 N 855.82 0.285905 -1.54985 0
M  V30 8668 C 856.783 1.33625 -1.86218 0
M  V30 8669 C 857.783 1.42971 -0.735936 0
M  V30 8670 O 858.973 1.42345 -1.00417 0
M  V30 8671 C 856.105 2.71926 -2.05595 0
M  V30 8672 H 857.298 1.07167 -2.80099 0
M  V30 8673 H 854.851 0.523335 -1.47278 0
M  V30 8674 H 855.586 3.03583 -1.14053 0
M  V30 8675 H 855.371 2.6653 -2.87583 0
M  V30 8676 H 856.861 3.47841 -2.31077 0
M  V30 8677 N 857.298 1.47698 0.54982 0
M  V30 8678 C 858.547 1.53961 1.30303 0
M  V30 8679 C 858.86 0.209731 1.94472 0
M  V30 8680 O 860.066 0.150418 2.71083 0
M  V30 8681 C 858.522 2.71436 2.36328 0
M  V30 8682 C 858.13 4.10983 1.78316 0
M  V30 8683 C 859.874 2.86996 3.12783 0
M  V30 8684 C 857.781 5.19747 2.82164 0
M  V30 8685 H 856.711 0.573098 0.489975 0
M  V30 8686 H 859.362 1.73989 0.583089 0
M  V30 8687 H 857.744 2.44801 3.11269 0
M  V30 8688 H 858.918 4.47552 1.09697 0
M  V30 8689 H 857.233 4.00371 1.1442 0
M  V30 8690 H 859.83 3.65422 3.90347 0
M  V30 8691 H 860.173 1.95712 3.67427 0
M  V30 8692 H 860.706 3.13436 2.44954 0
M  V30 8693 H 857.445 6.12932 2.32366 0
M  V30 8694 H 856.965 4.87688 3.49171 0
M  V30 8695 H 858.644 5.47014 3.4552 0
M  V30 8696 N 858.776 -0.797141 1.35954 0
M  V30 8697 C 860.187 -1.37179 1.26644 0
M  V30 8698 C 860.538 -1.9596 -0.0971046 0
M  V30 8699 O 859.663 -1.91994 -0.998355 0
M  V30 8700 C 860.258 -2.49395 2.2932 0
M  V30 8701 C 858.817 -3.02697 2.23722 0
M  V30 8702 C 857.964 -1.75721 2.14517 0
M  V30 8703 H 860.915 -0.599407 1.46945 0
M  V30 8704 H 860.936 -3.28204 1.92515 0
M  V30 8705 H 860.448 -2.06584 3.2855 0
M  V30 8706 H 858.549 -3.49948 1.27934 0
M  V30 8707 H 858.662 -3.60036 3.16087 0
M  V30 8708 H 857.026 -1.97649 1.60646 0
M  V30 8709 H 857.809 -1.35049 3.15621 0
M  V30 8710 N 860.254 -1.20106 -1.0204 0
M  V30 8711 C 861.502 -1.0069 -1.75231 0
M  V30 8712 C 861.823 0.462491 -1.89436 0
M  V30 8713 O 861.093 1.33455 -1.4341 0
M  V30 8714 H 859.673 -0.369576 -0.649171 0
M  V30 8715 H 862.335 -1.51149 -1.23044 0
M  V30 8716 H 861.431 -1.46205 -2.75736 0
M  V30 8717 N 861.732 1.21287 -1.00634 0
M  V30 8718 C 862.979 1.90389 -0.6898 0
M  V30 8719 C 863.307 1.78193 0.779574 0
M  V30 8720 O 862.562 1.15358 1.58085 0
M  V30 8721 C 862.861 3.41374 -1.05824 0
M  V30 8722 C 862.527 3.73766 -2.5221 0
M  V30 8723 C 861.189 3.82317 -2.92211 0
M  V30 8724 C 863.541 3.88871 -3.47028 0
M  V30 8725 C 860.869 4.03423 -4.2599 0
M  V30 8726 C 863.221 4.11484 -4.80483 0
M  V30 8727 C 861.885 4.18263 -5.20204 0
M  V30 8728 H 861.155 0.696683 -0.252416 0
M  V30 8729 H 863.802 1.43769 -1.26502 0
M  V30 8730 H 862.107 3.8974 -0.401281 0
M  V30 8731 H 863.804 3.93118 -0.79116 0
M  V30 8732 H 860.394 3.67702 -2.20212 0
M  V30 8733 H 864.578 3.8163 -3.17289 0
M  V30 8734 H 859.834 4.06902 -4.56334 0
M  V30 8735 H 864.008 4.22115 -5.53888 0
M  V30 8736 H 861.635 4.34369 -6.23881 0
M  V30 8737 N 863.21 0.781244 1.36873 0
M  V30 8738 C 864.626 0.461968 1.52768 0
M  V30 8739 C 864.826 -1.02099 1.73719 0
M  V30 8740 O 863.882 -1.80665 1.76399 0
M  V30 8741 C 865.195 1.2853 2.71846 0
M  V30 8742 C 866.743 1.27817 2.85713 0
M  V30 8743 C 867.218 2.08506 4.07786 0
M  V30 8744 N 868.709 2.05909 4.14917 0
M  V30 8745 C 869.444 2.65118 5.08429 0
M  V30 8746 N 868.94 3.33152 6.07438 0
M  V30 8747 N 870.733 2.54896 5.00983 0
M  V30 8748 H 862.884 1.74198 1.21527 0
M  V30 8749 H 865.147 0.740027 0.592506 0
M  V30 8750 H 864.853 2.3366 2.62861 0
M  V30 8751 H 864.727 0.920981 3.65784 0
M  V30 8752 H 867.114 0.234817 2.94164 0
M  V30 8753 H 867.195 1.68219 1.92707 0
M  V30 8754 H 866.839 3.12867 4.00096 0
M  V30 8755 H 866.769 1.65479 4.99924 0
M  V30 8756 H 869.26 1.56386 3.44023 0
M  V30 8757 H 869.573 3.75681 6.75339 0
M  V30 8758 H 867.918 3.37253 6.07689 0
M  V30 8759 H 871.109 2.01352 4.22581 0
M  V30 8760 H 871.282 3.01332 5.73675 0
M  V30 8761 N 864.689 -1.48329 0.532571 0
M  V30 8762 C 865.637 -2.31336 -0.242133 0
M  V30 8763 C 866.631 -1.41391 -0.933006 0
M  V30 8764 O 867.837 -1.58284 -0.857096 0
M  V30 8765 H 864.212 -0.745724 -0.0969536 0
M  V30 8766 H 866.183 -2.94555 0.477504 0
M  V30 8767 C 864.932 -3.23501 -1.27446 0
M  V30 8768 H 864.255 -3.92659 -0.752261 0
M  V30 8769 H 865.695 -3.84461 -1.78789 0
M  V30 8770 C 864.154 -2.45288 -2.30944 0
M  V30 8771 O 864.684 -2.17955 -3.37429 0
M  V30 8772 N 862.89 -2.06737 -2.04226 0
M  V30 8773 H 862.437 -2.29166 -1.17647 0
M  V30 8774 H 862.395 -1.54719 -2.73696 0
M  V30 8775 N 866.167 -0.267825 -1.55308 0
M  V30 8776 C 867.097 0.616585 -2.25212 0
M  V30 8777 C 868.078 1.16472 -1.23969 0
M  V30 8778 O 869.263 1.20021 -1.52672 0
M  V30 8779 C 866.393 1.80412 -2.96764 0
M  V30 8780 C 865.347 1.38784 -4.04874 0
M  V30 8781 C 864.673 2.65789 -4.63961 0
M  V30 8782 C 865.973 0.543415 -5.19465 0
M  V30 8783 H 867.667 0.0336257 -2.99381 0
M  V30 8784 H 865.213 0.0147328 -1.43992 0
M  V30 8785 H 867.166 2.42866 -3.44375 0
M  V30 8786 H 865.89 2.4128 -2.20118 0
M  V30 8787 H 864.549 0.786541 -3.58063 0
M  V30 8788 H 864.197 3.24899 -3.83992 0
M  V30 8789 H 863.897 2.38651 -5.36954 0
M  V30 8790 H 865.421 3.29104 -5.14318 0
M  V30 8791 H 866.835 1.07277 -5.63174 0
M  V30 8792 H 865.232 0.367219 -5.98975 0
M  V30 8793 H 866.302 -0.439534 -4.82904 0
M  V30 8794 N 867.645 1.57599 0.00500368 0
M  V30 8795 C 868.595 2.04585 1.00643 0
M  V30 8796 C 869.579 0.939622 1.30614 0
M  V30 8797 O 870.771 1.20342 1.29796 0
M  V30 8798 C 867.9 2.5486 2.30002 0
M  V30 8799 C 866.986 3.7235 2.03017 0
M  V30 8800 N 867.377 4.84218 1.46173 0
M  V30 8801 C 865.675 3.80185 2.33185 0
M  V30 8802 C 866.376 5.65688 1.35544 0
M  V30 8803 N 865.352 5.11536 1.83933 0
M  V30 8804 H 869.154 2.8849 0.561332 0
M  V30 8805 H 866.668 1.61026 0.210808 0
M  V30 8806 H 868.665 2.86794 3.0258 0
M  V30 8807 H 867.325 1.72372 2.75169 0
M  V30 8808 H 868.336 5.0517 1.1412 0
M  V30 8809 H 865.013 3.08543 2.81261 0
M  V30 8810 H 866.403 6.65588 0.918791 0
M  V30 8811 N 869.123 -0.277682 1.55134 0
M  V30 8812 C 870.053 -1.34742 1.90701 0
M  V30 8813 C 871.034 -1.51757 0.768354 0
M  V30 8814 O 872.219 -1.64879 1.02609 0
M  V30 8815 C 869.349 -2.70775 2.17481 0
M  V30 8816 C 868.303 -2.68497 3.33307 0
M  V30 8817 C 867.629 -4.08037 3.45557 0
M  V30 8818 C 868.929 -2.28178 4.69821 0
M  V30 8819 H 870.623 -1.05224 2.803 0
M  V30 8820 H 868.169 -0.504738 1.34864 0
M  V30 8821 H 870.122 -3.45719 2.40949 0
M  V30 8822 H 868.846 -3.01867 1.24676 0
M  V30 8823 H 867.505 -1.9601 3.09799 0
M  V30 8824 H 867.153 -4.36344 2.50226 0
M  V30 8825 H 866.853 -4.07409 4.23429 0
M  V30 8826 H 868.377 -4.84726 3.71312 0
M  V30 8827 H 869.791 -2.92843 4.92865 0
M  V30 8828 H 868.188 -2.3872 5.50575 0
M  V30 8829 H 869.258 -1.23308 4.6896 0
M  V30 8830 N 870.601 -1.47988 -0.541979 0
M  V30 8831 C 871.878 -1.45878 -1.30303 0
M  V30 8832 C 872.258 -0.163931 -2.10463 0
M  V30 8833 O 871.606 0.854479 -2.11922 0
M  V30 8834 C 871.816 -2.71359 -2.19466 0
M  V30 8835 C 873.164 -3.19199 -2.79995 0
M  V30 8836 O 874.188 -2.72193 -2.2976 0
M  V30 8837 O 873.047 -4.00961 -3.71339 0
M  V30 8838 H 870.141 -0.582043 -0.587498 0
M  V30 8839 H 872.687 -1.60207 -0.559623 0
M  V30 8840 H 871.459 -3.57122 -1.59936 0
M  V30 8841 H 871.082 -2.59692 -3.01075 0
M  V30 8842 N 872.079 0.78992 -1.36375 0
M  V30 8843 C 873.356 1.53584 -1.21126 0
M  V30 8844 C 873.736 2.10124 0.202785 0
M  V30 8845 O 873.084 1.93936 1.20835 0
M  V30 8846 C 873.294 2.63117 -2.29282 0
M  V30 8847 C 874.642 3.31013 -2.65924 0
M  V30 8848 O 875.666 2.734 -2.28321 0
M  V30 8849 O 874.525 4.35129 -3.30643 0
M  V30 8850 H 871.619 0.679366 -0.471583 0
M  V30 8851 H 874.165 0.828446 -1.48104 0
M  V30 8852 H 872.937 2.19329 -3.24053 0
M  V30 8853 H 872.56 3.41476 -2.03666 0
M  V30 8854 N 873.557 1.20646 1.01402 0
M  V30 8855 C 874.489 0.915392 2.10127 0
M  V30 8856 C 875.502 -0.0978705 1.62506 0
M  V30 8857 O 876.691 0.133477 1.78 0
M  V30 8858 C 873.791 0.351304 3.37074 0
M  V30 8859 C 872.964 1.41673 4.13821 0
M  V30 8860 C 872.023 0.8635 5.19067 0
M  V30 8861 O 871.049 1.54481 5.47836 0
M  V30 8862 N 872.251 -0.325799 5.79585 0
M  V30 8863 H 875.016 1.85132 2.35682 0
M  V30 8864 H 872.577 1.11048 1.17813 0
M  V30 8865 H 874.569 -0.032996 4.04687 0
M  V30 8866 H 873.139 -0.489242 3.08748 0
M  V30 8867 H 872.359 1.97526 3.41141 0
M  V30 8868 H 873.647 2.1342 4.61876 0
M  V30 8869 H 873.045 -0.896534 5.58551 0
M  V30 8870 H 871.602 -0.651708 6.48534 0
M  V30 8871 N 875.035 -1.20752 1.01276 0
M  V30 8872 C 875.968 -2.22091 0.524472 0
M  V30 8873 C 876.946 -1.5692 -0.426017 0
M  V30 8874 O 878.13 -1.8528 -0.346919 0
M  V30 8875 C 875.257 -3.37868 -0.237224 0
M  V30 8876 C 874.303 -4.21327 0.662236 0
M  V30 8877 S 875.136 -4.91352 2.12916 0
M  V30 8878 C 876.292 -6.10553 1.37752 0
M  V30 8879 H 876.525 -2.63166 1.38315 0
M  V30 8880 H 874.058 -1.30742 0.821332 0
M  V30 8881 H 876.016 -4.04985 -0.670599 0
M  V30 8882 H 874.677 -2.95261 -1.07143 0
M  V30 8883 H 873.87 -5.03944 0.0751085 0
M  V30 8884 H 873.472 -3.59445 1.03322 0
M  V30 8885 H 875.764 -6.74322 0.655491 0
M  V30 8886 H 876.707 -6.73717 2.17969 0
M  V30 8887 H 877.115 -5.57566 0.882088 0
M  V30 8888 N 876.513 -0.788492 -1.36457 0
M  V30 8889 C 877.741 -0.372365 -2.03522 0
M  V30 8890 C 878.156 1.01093 -1.59454 0
M  V30 8891 O 877.513 1.64824 -0.783535 0
M  V30 8892 C 877.564 -0.425435 -3.58988 0
M  V30 8893 O 877.285 -1.75418 -4.01448 0
M  V30 8894 C 878.786 0.000180167 -4.433 0
M  V30 8895 H 876.006 -0.1536 -0.653183 0
M  V30 8896 H 878.55 -1.06708 -1.74452 0
M  V30 8897 H 876.705 0.220856 -3.8677 0
M  V30 8898 H 877.119 -1.70437 -4.96036 0
M  V30 8899 H 878.593 -0.0880919 -5.5193 0
M  V30 8900 H 879.07 1.05269 -4.26398 0
M  V30 8901 H 879.676 -0.618563 -4.20778 0
M  V30 8902 N 877.991 1.48044 -0.54043 0
M  V30 8903 C 878.921 2.32597 0.205178 0
M  V30 8904 C 879.902 1.42748 0.925041 0
M  V30 8905 O 881.087 1.71624 0.908784 0
M  V30 8906 C 878.217 3.24175 1.24612 0
M  V30 8907 C 877.171 4.23131 0.64376 0
M  V30 8908 C 876.497 5.03915 1.78812 0
M  V30 8909 C 877.797 5.20831 -0.39144 0
M  V30 8910 H 879.491 2.95184 -0.500676 0
M  V30 8911 H 877.037 1.41948 -0.242225 0
M  V30 8912 H 878.99 3.82158 1.77576 0
M  V30 8913 H 877.714 2.59608 1.98169 0
M  V30 8914 H 876.373 3.66349 0.135554 0
M  V30 8915 H 876.021 4.35765 2.51232 0
M  V30 8916 H 875.721 5.709 1.39094 0
M  V30 8917 H 877.245 5.64753 2.32134 0
M  V30 8918 H 878.659 5.73277 0.0515064 0
M  V30 8919 H 877.056 5.95926 -0.706569 0
M  V30 8920 H 878.126 4.6733 -1.29345 0
M  V30 8921 N 879.47 0.276058 1.55163 0
M  V30 8922 C 880.4 -0.604633 2.25536 0
M  V30 8923 C 881.381 -1.15813 1.24585 0
M  V30 8924 O 882.566 -1.1921 1.53306 0
M  V30 8925 C 879.696 -1.78836 2.97716 0
M  V30 8926 C 878.65 -1.36635 4.05604 0
M  V30 8927 C 877.976 -2.63325 4.65364 0
M  V30 8928 C 879.276 -0.515858 5.19746 0
M  V30 8929 H 880.97 -0.0177483 2.99395 0
M  V30 8930 H 878.516 -0.00709627 1.43998 0
M  V30 8931 H 880.469 -2.41036 3.45658 0
M  V30 8932 H 879.193 -2.40109 2.21394 0
M  V30 8933 H 877.852 -0.767541 3.58475 0
M  V30 8934 H 877.5 -3.22858 3.85709 0
M  V30 8935 H 877.2 -2.358 5.38212 0
M  V30 8936 H 878.724 -3.26372 5.16056 0
M  V30 8937 H 880.138 -1.04289 5.63735 0
M  V30 8938 H 878.535 -0.335449 5.99162 0
M  V30 8939 H 879.605 0.465137 4.82664 0
M  V30 8940 N 880.948 -1.576 0.00335426 0
M  V30 8941 C 881.88 -2.0549 -1.01521 0
M  V30 8942 C 882.893 -0.973441 -1.30491 0
M  V30 8943 O 884.082 -1.25017 -1.27409 0
M  V30 8944 C 881.182 -2.44272 -2.34914 0
M  V30 8945 C 880.355 -3.75191 -2.24835 0
M  V30 8946 C 879.414 -4.00804 -3.40944 0
M  V30 8947 O 878.44 -4.71423 -3.18981 0
M  V30 8948 N 879.642 -3.48961 -4.63904 0
M  V30 8949 H 882.407 -2.93493 -0.60678 0
M  V30 8950 H 879.968 -1.60851 -0.18396 0
M  V30 8951 H 881.96 -2.58518 -3.11369 0
M  V30 8952 H 880.53 -1.6177 -2.67487 0
M  V30 8953 H 879.75 -3.70989 -1.3327 0
M  V30 8954 H 881.038 -4.61013 -2.15277 0
M  V30 8955 H 880.436 -2.9178 -4.84645 0
M  V30 8956 H 878.993 -3.68531 -5.37613 0
M  V30 8957 N 882.426 0.269451 -1.5528 0
M  V30 8958 C 883.656 1.01724 -1.79821 0
M  V30 8959 C 884.064 1.80298 -0.573532 0
M  V30 8960 O 883.407 1.77666 0.466963 0
M  V30 8961 C 883.469 2.02043 -2.97353 0
M  V30 8962 C 883.133 1.42375 -4.34256 0
M  V30 8963 C 884.13 0.837611 -5.13108 0
M  V30 8964 C 881.815 1.44988 -4.8092 0
M  V30 8965 C 883.809 0.285557 -6.3676 0
M  V30 8966 C 881.496 0.893969 -6.04526 0
M  V30 8967 C 882.494 0.312809 -6.82283 0
M  V30 8968 O 882.182 -0.234582 -8.03558 0
M  V30 8969 H 881.914 0.30604 -0.602757 0
M  V30 8970 H 884.468 0.30454 -2.0313 0
M  V30 8971 H 882.698 2.77082 -2.69745 0
M  V30 8972 H 884.387 2.6298 -3.09187 0
M  V30 8973 H 885.153 0.81009 -4.78187 0
M  V30 8974 H 881.032 1.89162 -4.20403 0
M  V30 8975 H 884.576 -0.168696 -6.97396 0
M  V30 8976 H 880.473 0.918742 -6.38928 0
M  V30 8977 H 881.241 -0.124282 -8.18406 0
M  V30 8978 N 883.904 1.48273 0.534124 0
M  V30 8979 C 885.129 1.59988 1.31979 0
M  V30 8980 C 885.554 0.258824 1.86311 0
M  V30 8981 O 884.912 -0.768885 1.64188 0
M  V30 8982 C 884.96 2.64642 2.44943 0
M  V30 8983 O 884.064 2.21515 3.47858 0
M  V30 8984 H 883.405 0.536625 0.391063 0
M  V30 8985 H 885.935 1.94229 0.643135 0
M  V30 8986 H 885.945 2.85786 2.91187 0
M  V30 8987 H 884.62 3.62004 2.04758 0
M  V30 8988 H 883.197 2.10567 3.0776 0
M  V30 8989 N 885.382 -0.782676 1.36792 0
M  V30 8990 C 886.628 -1.54238 1.32597 0
M  V30 8991 C 886.983 -1.92179 -0.0921366 0
M  V30 8992 O 886.276 -1.60381 -1.04826 0
M  V30 8993 C 886.47 -2.82542 2.18872 0
M  V30 8994 C 886.299 -2.5714 3.6893 0
M  V30 8995 C 885.069 -2.5182 4.38081 0
M  V30 8996 C 887.267 -2.25878 4.62043 0
M  V30 8997 N 885.249 -2.18387 5.73742 0
M  V30 8998 C 886.62 -2.02491 5.86001 0
M  V30 8999 C 888.675 -2.11941 4.50539 0
M  V30 9000 C 887.378 -1.66576 6.99746 0
M  V30 9001 C 889.404 -1.77426 5.64158 0
M  V30 9002 C 888.766 -1.54891 6.87159 0
M  V30 9003 H 884.865 -0.565152 0.540488 0
M  V30 9004 H 887.449 -0.914079 1.71909 0
M  V30 9005 H 885.62 -3.43228 1.81794 0
M  V30 9006 H 887.352 -3.48338 2.06017 0
M  V30 9007 H 884.107 -2.67298 3.90958 0
M  V30 9008 H 884.531 -2.04398 6.45407 0
M  V30 9009 H 889.173 -2.28051 3.56024 0
M  V30 9010 H 886.891 -1.49205 7.94206 0
M  V30 9011 H 890.477 -1.67316 5.57222 0
M  V30 9012 H 889.357 -1.28577 7.73588 0
M  V30 9013 N 886.86 -1.21182 -1.00761 0
M  V30 9014 C 887.793 -0.912033 -2.09182 0
M  V30 9015 C 888.771 0.139421 -1.62001 0
M  V30 9016 O 889.955 0.0110272 -1.88497 0
M  V30 9017 C 887.082 -0.368957 -3.36684 0
M  V30 9018 C 886.128 -1.4028 -4.0277 0
M  V30 9019 S 886.961 -2.97108 -4.45519 0
M  V30 9020 C 888.117 -2.444 -5.76211 0
M  V30 9021 H 888.35 -1.83019 -2.34289 0
M  V30 9022 H 885.883 -1.04127 -1.14004 0
M  V30 9023 H 887.841 -0.0621883 -4.10453 0
M  V30 9024 H 886.502 0.527841 -3.09633 0
M  V30 9025 H 885.695 -0.97238 -4.94531 0
M  V30 9026 H 885.297 -1.65752 -3.35265 0
M  V30 9027 H 887.589 -1.84723 -6.51831 0
M  V30 9028 H 888.532 -3.34593 -6.24062 0
M  V30 9029 H 888.94 -1.86203 -5.32906 0
M  V30 9030 N 888.338 1.20213 -1.01915 0
M  V30 9031 C 889.585 1.89647 -0.709955 0
M  V30 9032 C 889.913 1.7901 0.760631 0
M  V30 9033 O 889.168 1.17028 1.56853 0
M  V30 9034 C 889.467 3.40232 -1.09438 0
M  V30 9035 C 889.133 3.7107 -2.5616 0
M  V30 9036 C 887.795 3.79196 -2.96249 0
M  V30 9037 C 890.147 3.85169 -3.51133 0
M  V30 9038 C 887.475 3.98882 -4.30244 0
M  V30 9039 C 889.827 4.06365 -4.8482 0
M  V30 9040 C 888.491 4.12722 -5.24611 0
M  V30 9041 H 887.761 0.693967 -0.259791 0
M  V30 9042 H 890.408 1.42419 -1.2802 0
M  V30 9043 H 888.713 3.89292 -0.442596 0
M  V30 9044 H 890.41 3.92257 -0.832811 0
M  V30 9045 H 887 3.65346 -2.24099 0
M  V30 9046 H 891.184 3.78243 -3.21319 0
M  V30 9047 H 886.44 4.02039 -4.60624 0
M  V30 9048 H 890.614 4.16216 -5.58334 0
M  V30 9049 H 888.241 4.27728 -6.28453 0
M  V30 9050 N 889.816 0.795718 1.36037 0
M  V30 9051 C 890.746 0.212803 2.32528 0
M  V30 9052 C 891.727 -0.655716 1.56953 0
M  V30 9053 O 892.912 -0.588238 1.85077 0
M  V30 9054 C 890.042 -0.648189 3.41198 0
M  V30 9055 C 888.996 0.120948 4.27829 0
M  V30 9056 C 888.322 -0.861044 5.27722 0
M  V30 9057 C 889.622 1.31375 5.05508 0
M  V30 9058 H 891.316 1.01893 2.81528 0
M  V30 9059 H 888.862 0.491422 1.35355 0
M  V30 9060 H 890.815 -1.06597 4.07695 0
M  V30 9061 H 889.539 -1.48709 2.9078 0
M  V30 9062 H 888.198 0.519777 3.62897 0
M  V30 9063 H 887.846 -1.69515 4.73575 0
M  V30 9064 H 887.546 -0.350808 5.86552 0
M  V30 9065 H 889.07 -1.27726 5.97092 0
M  V30 9066 H 890.484 0.971406 5.6501 0
M  V30 9067 H 888.881 1.75772 5.73781 0
M  V30 9068 H 889.951 2.10593 4.36782 0
M  V30 9069 N 891.294 -1.47756 0.548274 0
M  V30 9070 C 892.227 -2.26804 -0.252059 0
M  V30 9071 C 893.205 -1.3349 -0.928389 0
M  V30 9072 O 894.389 -1.6286 -0.949156 0
M  V30 9073 C 891.516 -3.10266 -1.35841 0
M  V30 9074 C 890.562 -4.1909 -0.791578 0
M  V30 9075 S 891.395 -5.34323 0.354878 0
M  V30 9076 C 892.551 -6.21348 -0.753511 0
M  V30 9077 H 892.784 -2.94336 0.418744 0
M  V30 9078 H 890.317 -1.50735 0.334413 0
M  V30 9079 H 892.275 -3.58925 -1.99207 0
M  V30 9080 H 890.936 -2.42112 -2.00101 0
M  V30 9081 H 890.129 -4.77183 -1.62212 0
M  V30 9082 H 889.731 -3.73266 -0.234274 0
M  V30 9083 H 892.023 -6.57156 -1.6478 0
M  V30 9084 H 892.966 -7.07788 -0.210141 0
M  V30 9085 H 893.374 -5.54797 -1.04216 0
M  V30 9086 N 892.772 -0.284283 -1.55015 0
M  V30 9087 C 893.735 0.586182 -2.21577 0
M  V30 9088 C 894.735 1.07427 -1.1965 0
M  V30 9089 O 895.925 0.972977 -1.44495 0
M  V30 9090 C 893.057 1.80973 -2.88897 0
M  V30 9091 H 894.25 0.00487253 -2.999 0
M  V30 9092 H 891.803 -0.0349696 -1.56261 0
M  V30 9093 H 892.538 2.43131 -2.14611 0
M  V30 9094 H 892.323 1.46757 -3.636 0
M  V30 9095 H 893.813 2.42853 -3.39724 0
M  V30 9096 N 894.251 1.57596 -0.0117121 0
M  V30 9097 C 895.498 1.91071 0.670667 0
M  V30 9098 C 895.826 0.886457 1.73125 0
M  V30 9099 O 895.081 -0.107135 1.95407 0
M  V30 9100 C 895.38 3.31296 1.34082 0
M  V30 9101 C 895.046 4.49011 0.412305 0
M  V30 9102 C 893.708 4.80945 0.156691 0
M  V30 9103 C 896.06 5.20709 -0.226294 0
M  V30 9104 C 893.388 5.81943 -0.745619 0
M  V30 9105 C 895.74 6.22668 -1.11655 0
M  V30 9106 C 894.404 6.53053 -1.38123 0
M  V30 9107 H 893.674 0.69918 0.245415 0
M  V30 9108 H 896.321 1.91373 -0.0697511 0
M  V30 9109 H 894.626 3.27174 2.15557 0
M  V30 9110 H 896.323 3.54461 1.87506 0
M  V30 9111 H 892.913 4.24067 0.621705 0
M  V30 9112 H 897.097 4.96282 -0.0418456 0
M  V30 9113 H 892.353 6.03839 -0.958566 0
M  V30 9114 H 896.527 6.77351 -1.61767 0
M  V30 9115 H 894.154 7.31132 -2.08208 0
M  V30 9116 N 895.729 -0.261212 1.5542 0
M  V30 9117 C 896.692 -1.30645 1.8832 0
M  V30 9118 C 897.692 -1.41782 0.758588 0
M  V30 9119 O 898.882 -1.40729 1.02669 0
M  V30 9120 C 896.014 -2.6862 2.09895 0
M  V30 9121 H 897.207 -1.02698 2.81768 0
M  V30 9122 H 894.76 -0.499838 1.48092 0
M  V30 9123 H 895.495 -3.0173 1.18868 0
M  V30 9124 H 895.28 -2.61921 2.91787 0
M  V30 9125 H 896.77 -3.44121 2.36581 0
M  V30 9126 N 897.207 -1.48554 -0.526253 0
M  V30 9127 C 898.137 -1.66252 -1.63959 0
M  V30 9128 C 899.118 -0.511351 -1.62232 0
M  V30 9129 O 900.303 -0.744322 -1.7937 0
M  V30 9130 C 897.433 -1.70556 -3.02536 0
M  V30 9131 C 896.387 -2.8521 -3.19123 0
M  V30 9132 C 895.713 -2.74606 -4.58798 0
M  V30 9133 C 897.013 -4.26463 -3.0154 0
M  V30 9134 H 898.707 -2.59459 -1.49404 0
M  V30 9135 H 896.253 -1.24862 -0.717326 0
M  V30 9136 H 898.206 -1.81524 -3.80298 0
M  V30 9137 H 896.93 -0.739297 -3.18123 0
M  V30 9138 H 895.589 -2.73802 -2.43779 0
M  V30 9139 H 895.237 -1.75941 -4.71226 0
M  V30 9140 H 894.937 -3.51544 -4.70841 0
M  V30 9141 H 896.461 -2.87548 -5.38655 0
M  V30 9142 H 897.875 -4.38685 -3.69091 0
M  V30 9143 H 896.272 -5.04428 -3.25073 0
M  V30 9144 H 897.342 -4.42667 -1.97925 0
M  V30 9145 N 898.685 0.775411 -1.37205 0
M  V30 9146 C 899.933 1.53081 -1.3195 0
M  V30 9147 C 900.254 1.9476 0.0966864 0
M  V30 9148 O 899.524 1.66019 1.03993 0
M  V30 9149 H 898.104 0.567762 -0.485444 0
M  V30 9150 H 900.766 0.92309 -1.71654 0
M  V30 9151 H 899.862 2.4319 -1.95614 0
M  V30 9152 N 900.163 1.21714 1.00117 0
M  V30 9153 C 901.409 1.04829 1.74306 0
M  V30 9154 C 901.764 -0.413387 1.87907 0
M  V30 9155 O 901.057 -1.30258 1.40512 0
M  V30 9156 C 901.251 1.68345 3.15269 0
M  V30 9157 C 901.08 3.20537 3.15414 0
M  V30 9158 C 899.85 3.896 3.21776 0
M  V30 9159 C 902.048 4.17576 3.00224 0
M  V30 9160 N 900.03 5.28949 3.11587 0
M  V30 9161 C 901.401 5.43701 2.97974 0
M  V30 9162 C 903.456 4.08575 2.84554 0
M  V30 9163 C 902.159 6.61861 2.8166 0
M  V30 9164 C 904.185 5.26375 2.69598 0
M  V30 9165 C 903.547 6.51414 2.68028 0
M  V30 9166 H 899.646 0.437964 0.647852 0
M  V30 9167 H 902.23 1.54128 1.18965 0
M  V30 9168 H 900.401 1.21607 3.68872 0
M  V30 9169 H 902.133 1.44629 3.77974 0
M  V30 9170 H 898.888 3.40548 3.29126 0
M  V30 9171 H 899.312 6.01945 3.09825 0
M  V30 9172 H 903.954 3.12696 2.84571 0
M  V30 9173 H 901.672 7.57896 2.8039 0
M  V30 9174 H 905.258 5.21235 2.58468 0
M  V30 9175 H 904.138 7.41033 2.56593 0
M  V30 9176 N 901.641 -1.19671 1.02551 0
M  V30 9177 C 903.057 -1.41305 0.741963 0
M  V30 9178 C 903.257 -1.89865 -0.674807 0
M  V30 9179 O 902.313 -2.07323 -1.44129 0
M  V30 9180 C 903.626 -2.42706 1.77522 0
M  V30 9181 C 905.174 -2.56458 1.79438 0
M  V30 9182 C 905.649 -3.61111 2.81715 0
M  V30 9183 N 907.14 -3.68603 2.8051 0
M  V30 9184 C 907.875 -4.49262 3.56302 0
M  V30 9185 N 907.371 -5.33653 4.41799 0
M  V30 9186 N 909.164 -4.43879 3.44859 0
M  V30 9187 H 901.315 -0.8647 1.94002 0
M  V30 9188 H 903.578 -0.442206 0.838545 0
M  V30 9189 H 903.284 -2.14042 2.79068 0
M  V30 9190 H 903.158 -3.41831 1.59472 0
M  V30 9191 H 905.545 -2.84447 0.78573 0
M  V30 9192 H 905.626 -1.57499 2.01563 0
M  V30 9193 H 905.27 -3.33864 3.82749 0
M  V30 9194 H 905.2 -4.59713 2.56849 0
M  V30 9195 H 907.691 -3.08329 2.18498 0
M  V30 9196 H 908.004 -5.92308 4.96378 0
M  V30 9197 H 906.349 -5.33125 4.45873 0
M  V30 9198 H 909.54 -3.7699 2.77482 0
M  V30 9199 H 909.713 -5.06501 4.04179 0
M  V30 9200 N 903.119 -0.802921 -1.35613 0
M  V30 9201 C 904.344 -0.392846 -2.03645 0
M  V30 9202 C 904.769 0.987075 -1.6012 0
M  V30 9203 O 904.127 1.63849 -0.776101 0
M  V30 9204 C 904.175 -0.480208 -3.57388 0
M  V30 9205 O 903.279 0.507751 -4.09262 0
M  V30 9206 H 902.62 -0.16464 -0.643265 0
M  V30 9207 H 905.15 -1.08779 -1.73287 0
M  V30 9208 H 905.16 -0.348683 -4.06507 0
M  V30 9209 H 903.835 -1.48675 -3.88418 0
M  V30 9210 H 902.412 0.336769 -3.71376 0
M  V30 9211 N 904.597 1.47463 -0.556102 0
M  V30 9212 C 905.827 2.06568 -0.0364056 0
M  V30 9213 C 906.235 1.40939 1.26225 0
M  V30 9214 O 905.578 0.499572 1.76777 0
M  V30 9215 C 905.64 3.58755 0.231278 0
M  V30 9216 C 905.304 4.46417 -0.977776 0
M  V30 9217 C 906.301 4.846 -1.88305 0
M  V30 9218 C 903.986 4.87948 -1.19214 0
M  V30 9219 C 905.98 5.63111 -2.98639 0
M  V30 9220 C 903.667 5.66224 -2.29857 0
M  V30 9221 C 904.665 6.03716 -3.194 0
M  V30 9222 O 904.353 6.80415 -4.28125 0
M  V30 9223 H 904.085 0.674675 -0.042305 0
M  V30 9224 H 906.639 1.9047 -0.768775 0
M  V30 9225 H 904.869 3.73061 1.01794 0
M  V30 9226 H 906.558 3.99884 0.696221 0
M  V30 9227 H 907.324 4.53115 -1.72949 0
M  V30 9228 H 903.203 4.58233 -0.504347 0
M  V30 9229 H 906.747 5.92293 -3.68557 0
M  V30 9230 H 902.644 5.97121 -2.45186 0
M  V30 9231 H 903.412 6.98807 -4.26159 0
M  V30 9232 N 906.075 0.2925 1.54862 0
M  V30 9233 C 907.491 -0.0611461 1.59483 0
M  V30 9234 C 907.691 -1.53141 1.30958 0
M  V30 9235 O 906.747 -2.28291 1.07887 0
M  V30 9236 C 908.06 0.329143 2.98893 0
M  V30 9237 C 909.608 0.2772 3.1177 0
M  V30 9238 C 910.083 0.642185 4.53475 0
M  V30 9239 N 911.574 0.594396 4.5937 0
M  V30 9240 C 912.309 0.849385 5.67074 0
M  V30 9241 N 911.805 1.1699 6.82851 0
M  V30 9242 N 913.598 0.777016 5.56704 0
M  V30 9243 H 905.749 1.25079 1.71665 0
M  V30 9244 H 908.012 0.506516 0.80134 0
M  V30 9245 H 907.718 1.35233 3.24661 0
M  V30 9246 H 907.592 -0.321442 3.75828 0
M  V30 9247 H 909.979 -0.736725 2.85756 0
M  V30 9248 H 910.06 0.962289 2.3701 0
M  V30 9249 H 909.704 1.65388 4.80218 0
M  V30 9250 H 909.634 -0.0648831 5.2656 0
M  V30 9251 H 912.125 0.357256 3.76208 0
M  V30 9252 H 912.438 1.35067 7.60905 0
M  V30 9253 H 910.783 1.20785 6.84424 0
M  V30 9254 H 913.974 0.526333 4.65132 0
M  V30 9255 H 914.147 0.979113 6.4056 0
M  V30 9256 N 907.553 -1.57587 0.0200696 0
M  V30 9257 C 908.485 -2.06555 -0.993359 0
M  V30 9258 C 909.498 -0.987227 -1.29451 0
M  V30 9259 O 910.687 -1.26361 -1.26075 0
M  V30 9260 C 907.787 -2.4675 -2.3231 0
M  V30 9261 C 906.96 -3.77554 -2.20843 0
M  V30 9262 C 906.019 -4.04397 -3.36674 0
M  V30 9263 O 905.045 -4.7478 -3.13963 0
M  V30 9264 N 906.247 -3.53861 -4.60176 0
M  V30 9265 H 909.012 -2.9412 -0.575617 0
M  V30 9266 H 906.573 -1.61038 -0.166889 0
M  V30 9267 H 908.565 -2.61806 -3.08609 0
M  V30 9268 H 907.135 -1.64598 -2.65756 0
M  V30 9269 H 906.355 -3.72382 -1.29327 0
M  V30 9270 H 907.643 -4.63271 -2.10375 0
M  V30 9271 H 907.041 -2.96904 -4.81523 0
M  V30 9272 H 905.598 -3.74213 -5.33674 0
M  V30 9273 N 909.032 0.252966 -1.55557 0
M  V30 9274 C 910.257 1.0038 -1.8149 0
M  V30 9275 C 910.682 1.78397 -0.596318 0
M  V30 9276 O 910.04 1.7551 0.454535 0
M  V30 9277 C 910.088 1.9222 -3.05096 0
M  V30 9278 O 909.192 3.01302 -2.81587 0
M  V30 9279 H 908.533 0.285949 -0.599274 0
M  V30 9280 H 911.063 0.275795 -2.02733 0
M  V30 9281 H 911.073 2.338 -3.34368 0
M  V30 9282 H 909.748 1.34852 -3.93431 0
M  V30 9283 H 908.325 2.63894 -2.63466 0
M  V30 9284 N 910.51 1.48831 0.518367 0
M  V30 9285 C 911.735 1.61379 1.30275 0
M  V30 9286 C 912.16 0.278571 1.86026 0
M  V30 9287 O 911.518 -0.751427 1.64995 0
M  V30 9288 C 911.566 2.67225 2.42122 0
M  V30 9289 O 910.67 2.25192 3.45489 0
M  V30 9290 H 910.011 0.540742 0.385349 0
M  V30 9291 H 912.541 1.949 0.622498 0
M  V30 9292 H 912.551 2.88859 2.8814 0
M  V30 9293 H 911.226 3.64155 2.00907 0
M  V30 9294 H 909.803 2.13819 3.05509 0
M  V30 9295 N 911.988 -0.768124 1.37614 0
M  V30 9296 C 912.951 -1.86314 1.3349 0
M  V30 9297 C 913.951 -1.59025 0.23823 0
M  V30 9298 O 915.141 -1.6704 0.494288 0
M  V30 9299 C 912.273 -3.23519 1.07462 0
M  V30 9300 H 913.466 -1.91382 2.30896 0
M  V30 9301 H 911.019 -0.968267 1.22696 0
M  V30 9302 H 911.754 -3.24127 0.106028 0
M  V30 9303 H 911.539 -3.44719 1.86846 0
M  V30 9304 H 913.029 -4.03597 1.07236 0
M  V30 9305 N 913.466 -1.22244 -0.994698 0
M  V30 9306 C 914.414 -0.988118 -2.10568 0
M  V30 9307 C 915.408 0.0681541 -1.69263 0
M  V30 9308 O 916.614 -0.0841311 -1.79803 0
M  V30 9309 H 912.989 -0.302343 -0.688544 0
M  V30 9310 H 914.96 -1.93091 -2.27505 0
M  V30 9311 C 913.709 -0.580557 -3.42819 0
M  V30 9312 H 913.032 -1.385 -3.75044 0
M  V30 9313 H 914.472 -0.456004 -4.21541 0
M  V30 9314 C 912.931 0.709692 -3.2934 0
M  V30 9315 O 913.461 1.76259 -3.60965 0
M  V30 9316 N 911.667 0.680155 -2.82528 0
M  V30 9317 H 911.214 -0.176977 -2.56991 0
M  V30 9318 H 911.172 1.54372 -2.73892 0
M  V30 9319 N 914.944 1.19125 -1.03184 0
M  V30 9320 C 915.874 2.24675 -0.635889 0
M  V30 9321 C 916.855 1.66321 0.356565 0
M  V30 9322 O 918.04 1.92728 0.238625 0
M  V30 9323 C 915.17 3.47298 0.011069 0
M  V30 9324 C 914.124 4.18345 -0.903979 0
M  V30 9325 C 913.45 5.34561 -0.12197 0
M  V30 9326 C 914.75 4.72816 -2.21907 0
M  V30 9327 H 916.444 2.5805 -1.51825 0
M  V30 9328 H 913.99 1.24039 -0.73146 0
M  V30 9329 H 915.943 4.20333 0.299729 0
M  V30 9330 H 914.667 3.13131 0.928245 0
M  V30 9331 H 913.326 3.47196 -1.17688 0
M  V30 9332 H 912.974 4.9664 0.797334 0
M  V30 9333 H 912.674 5.83029 -0.731498 0
M  V30 9334 H 914.198 6.10391 0.159881 0
M  V30 9335 H 915.612 5.3759 -1.99173 0
M  V30 9336 H 914.009 5.31782 -2.78078 0
M  V30 9337 H 915.079 3.9072 -2.87168 0
M  V30 9338 N 916.422 0.810101 1.35185 0
M  V30 9339 C 917.352 0.237453 2.32289 0
M  V30 9340 C 918.333 -0.639032 1.5764 0
M  V30 9341 O 919.518 -0.568575 1.8569 0
M  V30 9342 C 916.648 -0.611964 3.41866 0
M  V30 9343 C 915.602 0.166318 4.27677 0
M  V30 9344 C 914.928 -0.805024 5.28605 0
M  V30 9345 C 916.228 1.36729 5.04086 0
M  V30 9346 H 917.922 1.04874 2.80432 0
M  V30 9347 H 915.468 0.505751 1.34826 0
M  V30 9348 H 917.421 -1.02267 4.08802 0
M  V30 9349 H 916.145 -1.45617 2.92341 0
M  V30 9350 H 914.804 0.558238 3.62325 0
M  V30 9351 H 914.452 -1.64483 4.75347 0
M  V30 9352 H 914.152 -0.288577 5.86891 0
M  V30 9353 H 915.676 -1.21386 5.98413 0
M  V30 9354 H 917.09 1.03128 5.63948 0
M  V30 9355 H 915.487 1.81848 5.71884 0
M  V30 9356 H 916.557 2.15214 4.34524 0
M  V30 9357 N 917.9 -1.47166 0.563914 0
M  V30 9358 C 919.14 -2.04351 0.0448121 0
M  V30 9359 C 919.504 -1.42808 -1.28336 0
M  V30 9360 O 920.705 -1.91079 -1.89056 0
M  V30 9361 C 918.976 -3.57378 -0.0395795 0
M  V30 9362 S 920.535 -4.35898 -0.503833 0
M  V30 9363 H 917.353 -0.710433 0.0283795 0
M  V30 9364 H 919.955 -1.80451 0.752166 0
M  V30 9365 H 918.659 -3.99693 0.931326 0
M  V30 9366 H 918.19 -3.85785 -0.770282 0
M  V30 9367 H 920.205 -4.63852 -1.76225 0
M  V30 9368 N 919.378 -0.300708 -1.54705 0
M  V30 9369 C 920.625 0.308654 -2.00134 0
M  V30 9370 C 920.953 1.53918 -1.1891 0
M  V30 9371 O 920.208 1.94054 -0.253263 0
M  V30 9372 C 920.507 0.710108 -3.50275 0
M  V30 9373 C 920.173 -0.418651 -4.48952 0
M  V30 9374 C 918.835 -0.728524 -4.75653 0
M  V30 9375 C 921.187 -1.17797 -5.07714 0
M  V30 9376 C 918.515 -1.80085 -5.58378 0
M  V30 9377 C 920.867 -2.24022 -5.91606 0
M  V30 9378 C 919.531 -2.55616 -6.16617 0
M  V30 9379 H 918.801 0.112945 -0.732342 0
M  V30 9380 H 921.448 -0.419744 -1.86843 0
M  V30 9381 H 919.753 1.51859 -3.61173 0
M  V30 9382 H 921.45 1.19277 -3.8285 0
M  V30 9383 H 918.04 -0.167034 -4.28274 0
M  V30 9384 H 922.224 -0.951835 -4.87087 0
M  V30 9385 H 917.48 -2.05036 -5.75995 0
M  V30 9386 H 921.654 -2.83317 -6.36164 0
M  V30 9387 H 919.281 -3.38839 -6.80509 0
M  V30 9388 N 920.856 1.57574 -0.0284266 0
M  V30 9389 C 921.819 2.09096 0.938691 0
M  V30 9390 C 922.819 1.00588 1.25454 0
M  V30 9391 O 924.009 1.2675 1.19499 0
M  V30 9392 C 921.141 2.55624 2.25542 0
M  V30 9393 H 922.334 2.95829 0.49248 0
M  V30 9394 H 919.887 1.5475 0.219594 0
M  V30 9395 H 920.622 1.72218 2.74793 0
M  V30 9396 H 920.407 3.34896 2.03929 0
M  V30 9397 H 921.897 2.95712 2.94863 0
M  V30 9398 N 922.334 -0.244713 1.55689 0
M  V30 9399 C 923.745 -0.813603 1.6804 0
M  V30 9400 C 924.096 -1.85936 0.626281 0
M  V30 9401 O 923.221 -2.15206 -0.227038 0
M  V30 9402 C 923.816 -1.48252 3.04642 0
M  V30 9403 C 922.375 -1.99908 3.18926 0
M  V30 9404 C 921.522 -0.850958 2.6392 0
M  V30 9405 H 924.473 -0.0204805 1.58687 0
M  V30 9406 H 924.494 -2.35062 2.99209 0
M  V30 9407 H 924.006 -0.721164 3.81341 0
M  V30 9408 H 922.107 -2.78918 2.47054 0
M  V30 9409 H 922.22 -2.19497 4.25862 0
M  V30 9410 H 920.584 -1.25206 2.21801 0
M  V30 9411 H 921.367 -0.10265 3.43146 0
M  V30 9412 N 923.813 -1.49104 -0.510467 0
M  V30 9413 C 925.09 -1.48609 -1.27179 0
M  V30 9414 C 925.47 -0.208537 -2.10067 0
M  V30 9415 O 924.818 0.809335 -2.13687 0
M  V30 9416 C 925.028 -2.75953 -2.1366 0
M  V30 9417 C 926.376 -3.25067 -2.73161 0
M  V30 9418 O 927.4 -2.77005 -2.23934 0
M  V30 9419 O 926.259 -4.08747 -3.62751 0
M  V30 9420 H 923.353 -0.594374 -0.57502 0
M  V30 9421 H 925.899 -1.61358 -0.525515 0
M  V30 9422 H 924.671 -3.60434 -1.52325 0
M  V30 9423 H 924.294 -2.66019 -2.95499 0
M  V30 9424 N 925.291 0.760815 -1.38019 0
M  V30 9425 C 926.221 1.88811 -1.37377 0
M  V30 9426 C 927.202 1.68388 -0.240737 0
M  V30 9427 O 928.387 1.89086 -0.442739 0
M  V30 9428 C 925.517 3.26244 -1.1909 0
M  V30 9429 C 924.471 3.61254 -2.29521 0
M  V30 9430 C 923.797 4.97346 -1.96345 0
M  V30 9431 C 925.097 3.66874 -3.71753 0
M  V30 9432 H 926.791 1.89606 -2.31711 0
M  V30 9433 H 924.337 0.910818 -1.11535 0
M  V30 9434 H 926.29 4.04755 -1.17267 0
M  V30 9435 H 925.014 3.2591 -0.212152 0
M  V30 9436 H 923.673 2.85057 -2.30517 0
M  V30 9437 H 923.321 4.93564 -0.969728 0
M  V30 9438 H 923.021 5.21739 -2.703 0
M  V30 9439 H 924.545 5.78244 -1.96129 0
M  V30 9440 H 925.959 4.35514 -3.72828 0
M  V30 9441 H 924.356 4.02772 -4.44853 0
M  V30 9442 H 925.426 2.67273 -4.0459 0
M  V30 9443 N 926.769 1.22769 0.988202 0
M  V30 9444 C 928.018 1.0492 1.72263 0
M  V30 9445 C 928.331 -0.415282 1.91141 0
M  V30 9446 O 929.537 -0.713547 2.61956 0
M  V30 9447 C 927.993 1.82891 3.09966 0
M  V30 9448 C 927.601 3.33618 2.99003 0
M  V30 9449 C 929.345 1.73505 3.87423 0
M  V30 9450 C 927.252 4.04012 4.3189 0
M  V30 9451 H 926.182 0.38899 0.645912 0
M  V30 9452 H 928.833 1.46664 1.10281 0
M  V30 9453 H 927.215 1.33948 3.72658 0
M  V30 9454 H 928.389 3.8999 2.45448 0
M  V30 9455 H 926.704 3.43732 2.35027 0
M  V30 9456 H 929.301 2.23416 4.85787 0
M  V30 9457 H 929.644 0.696344 4.10435 0
M  V30 9458 H 930.177 2.20016 3.31418 0
M  V30 9459 H 926.916 5.08155 4.14075 0
M  V30 9460 H 926.436 3.52428 4.8534 0
M  V30 9461 H 928.115 4.0987 5.00615 0
M  V30 9462 N 928.247 -1.18576 1.03814 0
M  V30 9463 C 929.496 -1.87822 0.735235 0
M  V30 9464 C 929.809 -1.81069 -0.739819 0
M  V30 9465 O 931.015 -2.45654 -1.15614 0
M  V30 9466 C 929.471 -3.36941 1.26486 0
M  V30 9467 C 929.079 -3.5223 2.76836 0
M  V30 9468 C 930.823 -4.11604 1.03836 0
M  V30 9469 C 928.73 -4.95294 3.23169 0
M  V30 9470 H 927.66 -0.703487 0.271333 0
M  V30 9471 H 930.311 -1.34 1.25365 0
M  V30 9472 H 928.693 -3.90217 0.674318 0
M  V30 9473 H 929.867 -3.09239 3.41625 0
M  V30 9474 H 928.182 -2.90969 2.97869 0
M  V30 9475 H 930.779 -5.17123 1.3597 0
M  V30 9476 H 931.122 -4.16293 -0.0244945 0
M  V30 9477 H 931.655 -3.64494 1.59338 0
M  V30 9478 H 928.394 -4.95772 4.28824 0
M  V30 9479 H 927.914 -5.3901 2.63113 0
M  V30 9480 H 929.593 -5.63996 3.17045 0
M  V30 9481 N 929.725 -0.817259 -1.34754 0
M  V30 9482 C 930.673 -0.223352 -2.31525 0
M  V30 9483 C 931.667 0.632785 -1.57137 0
M  V30 9484 O 932.873 0.524757 -1.72181 0
M  V30 9485 H 929.248 -0.0534765 -0.750096 0
M  V30 9486 H 931.219 -1.05446 -2.79148 0
M  V30 9487 C 929.968 0.604784 -3.424 0
M  V30 9488 H 929.291 -0.0446664 -3.99775 0
M  V30 9489 H 930.731 0.986543 -4.12363 0
M  V30 9490 C 929.19 1.77478 -2.86362 0
M  V30 9491 O 929.72 2.87273 -2.8078 0
M  V30 9492 N 927.926 1.58971 -2.43263 0
M  V30 9493 H 927.473 0.696598 -2.48003 0
M  V30 9494 H 927.431 2.37408 -2.06119 0
M  V30 9495 N 931.203 1.46865 -0.571711 0
M  V30 9496 C 932.113 2.33979 0.170571 0
M  V30 9497 C 933.129 1.49083 0.897239 0
M  V30 9498 O 934.305 1.81979 0.862888 0
M  V30 9499 C 931.37 3.26063 1.17831 0
M  V30 9500 C 930.431 4.26855 0.457499 0
M  V30 9501 C 929.664 5.14539 1.41722 0
M  V30 9502 O 929.887 5.04945 2.65305 0
M  V30 9503 O 928.821 5.94612 0.9338 0
M  V30 9504 H 932.647 2.98781 -0.544396 0
M  V30 9505 H 930.232 1.4566 -0.332198 0
M  V30 9506 H 932.114 3.82903 1.75965 0
M  V30 9507 H 930.789 2.63871 1.87493 0
M  V30 9508 H 929.696 3.73734 -0.165406 0
M  V30 9509 H 931.029 4.91802 -0.197953 0
M  V30 9510 N 932.681 0.308908 1.54543 0
M  V30 9511 C 933.613 -0.597453 2.21276 0
M  V30 9512 C 934.626 -1.09137 1.20801 0
M  V30 9513 O 935.815 -1.00747 1.47351 0
M  V30 9514 C 932.915 -1.83085 2.85189 0
M  V30 9515 C 932.088 -1.4781 4.11669 0
M  V30 9516 C 931.147 -2.56748 4.59311 0
M  V30 9517 O 930.173 -2.21507 5.24331 0
M  V30 9518 N 931.375 -3.87427 4.32297 0
M  V30 9519 H 934.14 -0.0261183 2.99689 0
M  V30 9520 H 931.701 0.131456 1.61365 0
M  V30 9521 H 933.693 -2.55326 3.13992 0
M  V30 9522 H 932.263 -2.31039 2.1057 0
M  V30 9523 H 931.483 -0.587974 3.8979 0
M  V30 9524 H 932.771 -1.2179 4.94009 0
M  V30 9525 H 932.169 -4.18863 3.80224 0
M  V30 9526 H 930.726 -4.55942 4.6579 0
M  V30 9527 N 934.159 -1.57557 0.0367827 0
M  V30 9528 C 935.575 -1.56366 -0.31967 0
M  V30 9529 C 935.775 -1.04313 -1.72398 0
M  V30 9530 O 934.831 -0.693278 -2.42796 0
M  V30 9531 C 936.144 -3.00267 -0.161274 0
M  V30 9532 C 937.692 -3.12128 -0.233464 0
M  V30 9533 C 938.167 -4.57882 -0.103767 0
M  V30 9534 N 939.658 -4.62922 -0.160506 0
M  V30 9535 C 940.393 -5.73338 -0.0840493 0
M  V30 9536 N 939.889 -6.92786 0.043933 0
M  V30 9537 N 941.682 -5.61929 -0.138592 0
M  V30 9538 H 933.833 -1.8972 0.954996 0
M  V30 9539 H 936.096 -0.87304 0.369467 0
M  V30 9540 H 935.802 -3.42331 0.80639 0
M  V30 9541 H 935.676 -3.65599 -0.928304 0
M  V30 9542 H 938.063 -2.69972 -1.19159 0
M  V30 9543 H 938.144 -2.49503 0.564075 0
M  V30 9544 H 937.788 -5.0072 0.850973 0
M  V30 9545 H 937.718 -5.18496 -0.920268 0
M  V30 9546 H 940.209 -3.7701 -0.259257 0
M  V30 9547 H 940.522 -7.72741 0.095372 0
M  V30 9548 H 938.867 -6.94955 0.0788211 0
M  V30 9549 H 942.058 -4.67499 -0.237031 0
M  V30 9550 H 942.231 -6.47956 -0.075546 0
M  V30 9551 N 935.637 0.236453 -1.55816 0
M  V30 9552 C 936.57 1.3196 -1.86177 0
M  V30 9553 C 937.548 1.459 -0.717769 0
M  V30 9554 O 938.732 1.61949 -0.964606 0
M  V30 9555 C 935.859 2.69183 -2.05568 0
M  V30 9556 C 934.905 2.72338 -3.28229 0
M  V30 9557 S 935.738 2.27898 -4.84585 0
M  V30 9558 C 936.894 3.67025 -5.06994 0
M  V30 9559 H 937.127 1.06011 -2.77757 0
M  V30 9560 H 934.66 0.437961 -1.48058 0
M  V30 9561 H 936.618 3.48191 -2.17423 0
M  V30 9562 H 935.279 2.92365 -1.14811 0
M  V30 9563 H 934.472 3.7314 -3.38795 0
M  V30 9564 H 934.074 2.01382 -3.15153 0
M  V30 9565 H 936.366 4.62604 -4.94979 0
M  V30 9566 H 937.309 3.61385 -6.08939 0
M  V30 9567 H 937.717 3.60022 -4.34792 0
M  V30 9568 N 937.115 1.49373 0.502552 0
M  V30 9569 C 938.343 1.62488 1.28084 0
M  V30 9570 C 938.758 0.295667 1.86471 0
M  V30 9571 O 938.115 -0.718664 1.67754 0
M  V30 9572 C 938.166 2.69249 2.4122 0
M  V30 9573 O 937.887 3.97014 1.85234 0
M  V30 9574 C 939.388 2.93054 3.32617 0
M  V30 9575 H 936.608 0.547068 0.388533 0
M  V30 9576 H 939.152 1.95394 0.603452 0
M  V30 9577 H 937.307 2.39125 3.04792 0
M  V30 9578 H 937.721 4.55809 2.59496 0
M  V30 9579 H 939.195 3.71493 4.08285 0
M  V30 9580 H 939.672 2.02911 3.89517 0
M  V30 9581 H 940.278 3.24589 2.74813 0
M  V30 9582 N 938.594 -0.753485 1.38421 0
M  V30 9583 C 939.524 -1.8808 1.38377 0
M  V30 9584 C 940.505 -1.68258 0.249664 0
M  V30 9585 O 941.69 -1.88848 0.45276 0
M  V30 9586 C 938.82 -3.25608 1.20818 0
M  V30 9587 C 937.774 -3.60032 2.31433 0
M  V30 9588 C 937.1 -4.96297 1.9898 0
M  V30 9589 C 938.4 -3.64898 3.73694 0
M  V30 9590 H 940.094 -1.88375 2.32713 0
M  V30 9591 H 937.64 -0.90489 1.12017 0
M  V30 9592 H 939.593 -4.04127 1.19412 0
M  V30 9593 H 938.317 -3.25793 0.229433 0
M  V30 9594 H 936.976 -2.83831 2.32025 0
M  V30 9595 H 936.624 -4.93043 0.995889 0
M  V30 9596 H 936.324 -5.20298 2.73063 0
M  V30 9597 H 937.848 -5.77196 1.99193 0
M  V30 9598 H 939.262 -4.33531 3.75132 0
M  V30 9599 H 937.659 -4.00407 4.46983 0
M  V30 9600 H 938.729 -2.65124 4.06002 0
M  V30 9601 N 940.072 -1.23292 -0.981677 0
M  V30 9602 C 941.483 -1.05936 -1.53735 0
M  V30 9603 C 941.834 0.373695 -1.92608 0
M  V30 9604 O 940.959 1.26024 -1.75917 0
M  V30 9605 C 941.554 -1.91682 -2.79363 0
M  V30 9606 C 940.113 -1.78591 -3.31334 0
M  V30 9607 C 939.26 -1.87463 -2.04335 0
M  V30 9608 H 942.211 -1.36973 -0.801505 0
M  V30 9609 H 942.232 -1.44085 -3.52164 0
M  V30 9610 H 941.744 -2.95975 -2.51039 0
M  V30 9611 H 939.845 -0.770755 -3.64541 0
M  V30 9612 H 939.958 -2.61902 -4.01179 0
M  V30 9613 H 938.322 -1.3103 -2.18411 0
M  V30 9614 H 939.105 -2.9331 -1.78394 0
M  V30 9615 N 941.55 1.18024 -1.04442 0
M  V30 9616 C 942.79 1.89787 -0.758957 0
M  V30 9617 C 943.154 1.78757 0.700707 0
M  V30 9618 O 944.355 2.45265 1.09994 0
M  V30 9619 C 942.626 3.36047 -1.21685 0
M  V30 9620 S 944.185 4.25864 -1.05761 0
M  V30 9621 H 941.003 0.655311 -0.275841 0
M  V30 9622 H 943.605 1.42589 -1.33749 0
M  V30 9623 H 942.309 3.41606 -2.2745 0
M  V30 9624 H 941.84 3.88286 -0.63227 0
M  V30 9625 H 943.855 4.96195 0.022729 0
M  V30 9626 N 943.028 0.824394 1.34319 0
M  V30 9627 C 943.961 0.192544 2.27386 0
M  V30 9628 C 944.939 -0.651901 1.4896 0
M  V30 9629 O 946.123 -0.615321 1.78174 0
M  V30 9630 C 943.25 -0.730958 3.30718 0
M  V30 9631 C 942.296 0.0361484 4.26485 0
M  V30 9632 S 943.129 1.3843 5.17298 0
M  V30 9633 C 944.285 0.465713 6.24165 0
M  V30 9634 H 944.518 0.981573 2.80629 0
M  V30 9635 H 942.051 0.620371 1.41389 0
M  V30 9636 H 944.009 -1.25822 3.90742 0
M  V30 9637 H 942.67 -1.49352 2.7632 0
M  V30 9638 H 941.863 -0.665969 4.99581 0
M  V30 9639 H 941.465 0.494011 3.70723 0
M  V30 9640 H 943.757 -0.342157 6.76635 0
M  V30 9641 H 944.7 1.16639 6.98427 0
M  V30 9642 H 945.108 0.0534895 5.64475 0
M  V30 9643 N 944.506 -1.46559 0.579492 0
M  V30 9644 C 945.736 -2.06484 0.0692642 0
M  V30 9645 C 946.144 -1.4293 -1.23967 0
M  V30 9646 O 945.487 -0.527632 -1.75959 0
M  V30 9647 C 945.549 -3.59078 -0.174174 0
M  V30 9648 C 945.213 -4.44805 1.04867 0
M  V30 9649 C 946.21 -4.81543 1.95991 0
M  V30 9650 C 943.895 -4.8599 1.26961 0
M  V30 9651 C 945.889 -5.58288 3.0756 0
M  V30 9652 C 943.576 -5.62495 2.38836 0
M  V30 9653 C 944.574 -5.98558 3.28964 0
M  V30 9654 O 944.262 -6.73518 4.38896 0
M  V30 9655 H 943.994 -0.673917 0.0530331 0
M  V30 9656 H 946.548 -1.89223 0.79898 0
M  V30 9657 H 944.778 -3.74634 -0.958464 0
M  V30 9658 H 946.467 -4.00941 -0.632515 0
M  V30 9659 H 947.233 -4.50307 1.80136 0
M  V30 9660 H 943.112 -4.57372 0.577184 0
M  V30 9661 H 946.656 -5.86355 3.77933 0
M  V30 9662 H 942.553 -5.93145 2.54655 0
M  V30 9663 H 943.321 -6.91938 4.37223 0
M  V30 9664 N 945.984 -0.3171 -1.54377 0
M  V30 9665 C 947.261 0.341348 -1.92598 0
M  V30 9666 C 947.641 1.70402 -1.24605 0
M  V30 9667 O 946.989 2.25191 -0.387448 0
M  V30 9668 C 947.199 0.440003 -3.46215 0
M  V30 9669 C 948.547 0.703327 -4.18734 0
M  V30 9670 O 949.571 0.523181 -3.52337 0
M  V30 9671 O 948.43 1.05042 -5.3631 0
M  V30 9672 H 945.524 0.193696 -0.803997 0
M  V30 9673 H 948.07 -0.366341 -1.65699 0
M  V30 9674 H 946.842 -0.517299 -3.87866 0
M  V30 9675 H 946.465 1.19553 -3.792 0
M  V30 9676 N 947.462 1.57535 -0.0451378 0
M  V30 9677 C 948.394 2.08109 0.960372 0
M  V30 9678 C 949.407 1.0077 1.27864 0
M  V30 9679 O 950.596 1.28351 1.24049 0
M  V30 9680 C 947.696 2.50414 2.28355 0
M  V30 9681 C 946.869 3.8102 2.14808 0
M  V30 9682 C 945.928 4.09702 3.30198 0
M  V30 9683 O 944.954 4.79715 3.0637 0
M  V30 9684 N 946.156 3.61138 4.54489 0
M  V30 9685 H 948.921 2.94999 0.528752 0
M  V30 9686 H 946.482 1.61283 0.141248 0
M  V30 9687 H 948.474 2.66683 3.04405 0
M  V30 9688 H 947.044 1.68805 2.63104 0
M  V30 9689 H 946.264 3.74392 1.23387 0
M  V30 9690 H 947.552 4.66559 2.02978 0
M  V30 9691 H 946.95 3.04527 4.76739 0
M  V30 9692 H 945.507 3.82656 5.27653 0
M  V30 9693 N 948.94 -0.228186 1.55939 0
M  V30 9694 C 950.18 -0.960695 1.80416 0
M  V30 9695 C 950.544 -1.81795 0.617615 0
M  V30 9696 O 951.745 -2.58369 0.741545 0
M  V30 9697 C 950.016 -1.78298 3.09749 0
M  V30 9698 S 951.575 -2.57203 3.55517 0
M  V30 9699 H 948.393 -0.322825 0.633486 0
M  V30 9700 H 950.995 -0.226852 1.94179 0
M  V30 9701 H 949.699 -1.14323 3.94155 0
M  V30 9702 H 949.23 -2.55924 2.98775 0
M  V30 9703 H 951.245 -3.80632 3.1833 0
M  V30 9704 N 950.418 -1.49637 -0.494624 0
M  V30 9705 C 951.365 -1.66776 -1.59545 0
M  V30 9706 C 952.335 -0.509159 -1.58104 0
M  V30 9707 O 953.52 -0.736949 -1.75993 0
M  V30 9708 C 950.66 -1.74624 -2.97658 0
M  V30 9709 C 949.773 -3.01831 -3.09067 0
M  V30 9710 C 948.908 -3.00619 -4.37952 0
M  V30 9711 C 947.947 -4.22378 -4.43016 0
M  V30 9712 N 947.084 -4.1904 -5.63339 0
M  V30 9713 H 951.924 -2.60767 -1.44238 0
M  V30 9714 H 949.461 -1.29286 -0.701673 0
M  V30 9715 H 951.419 -1.77156 -3.77719 0
M  V30 9716 H 950.049 -0.840936 -3.11654 0
M  V30 9717 H 949.101 -3.08881 -2.22029 0
M  V30 9718 H 950.413 -3.91823 -3.08669 0
M  V30 9719 H 949.567 -3.01749 -5.26339 0
M  V30 9720 H 948.306 -2.08416 -4.40924 0
M  V30 9721 H 947.311 -4.21485 -3.5303 0
M  V30 9722 H 948.536 -5.15781 -4.41755 0
M  V30 9723 H 946.482 -3.29677 -5.67141 0
M  V30 9724 H 946.399 -5.02774 -5.64583 0
M  V30 9725 H 947.667 -4.24281 -6.53916 0
M  V30 9726 N 951.896 0.746133 -1.38819 0
M  V30 9727 C 952.846 1.85085 -1.33145 0
M  V30 9728 C 953.83 1.59466 -0.214339 0
M  V30 9729 O 955.022 1.71159 -0.450943 0
M  V30 9730 C 952.151 3.22884 -1.16623 0
M  V30 9731 C 951.237 3.54369 -2.32988 0
M  V30 9732 N 951.628 3.56863 -3.58445 0
M  V30 9733 C 949.926 3.84674 -2.25703 0
M  V30 9734 C 950.627 3.85827 -4.3533 0
M  V30 9735 N 949.603 4.03037 -3.64777 0
M  V30 9736 H 953.405 1.85301 -2.28124 0
M  V30 9737 H 950.919 0.943847 -1.32156 0
M  V30 9738 H 952.916 4.0195 -1.10642 0
M  V30 9739 H 951.576 3.23914 -0.225841 0
M  V30 9740 H 952.587 3.38443 -3.92017 0
M  V30 9741 H 949.264 3.93375 -1.39864 0
M  V30 9742 H 950.654 3.94317 -5.44025 0
M  V30 9743 N 953.375 1.23811 0.975125 0
M  V30 9744 C 954.308 0.967173 2.06691 0
M  V30 9745 C 955.286 -0.09642 1.62314 0
M  V30 9746 O 956.47 0.0389532 1.8846 0
M  V30 9747 C 953.597 0.458094 3.35588 0
M  V30 9748 C 952.643 1.5091 3.98909 0
M  V30 9749 S 953.476 3.08815 4.37485 0
M  V30 9750 C 954.632 2.59591 5.69529 0
M  V30 9751 H 954.865 1.89166 2.29355 0
M  V30 9752 H 952.398 1.07113 1.11203 0
M  V30 9753 H 954.356 0.170991 4.10144 0
M  V30 9754 H 953.017 -0.445562 3.10924 0
M  V30 9755 H 952.21 1.10315 4.91779 0
M  V30 9756 H 951.812 1.74582 3.30752 0
M  V30 9757 H 954.104 2.0194 6.46704 0
M  V30 9758 H 955.047 3.51021 6.14971 0
M  V30 9759 H 955.455 2.00267 5.27782 0
M  V30 9760 N 954.853 -1.17469 1.05066 0
M  V30 9761 C 955.783 -2.23635 0.671552 0
M  V30 9762 C 956.764 -1.66867 -0.33006 0
M  V30 9763 O 957.949 -1.93084 -0.207933 0
M  V30 9764 C 955.079 -3.47272 0.0441845 0
M  V30 9765 C 954.033 -4.16854 0.97042 0
M  V30 9766 C 953.359 -5.34299 0.206998 0
M  V30 9767 C 954.659 -4.69225 2.29401 0
M  V30 9768 H 956.353 -2.55602 1.55911 0
M  V30 9769 H 953.899 -1.2286 0.751101 0
M  V30 9770 H 955.852 -4.20756 -0.23282 0
M  V30 9771 H 954.576 -3.14568 -0.878311 0
M  V30 9772 H 953.235 -3.4528 1.23197 0
M  V30 9773 H 952.883 -4.97846 -0.718222 0
M  V30 9774 H 952.583 -5.81792 0.82416 0
M  V30 9775 H 954.107 -6.10568 -0.0627525 0
M  V30 9776 H 955.521 -5.34353 2.077 0
M  V30 9777 H 953.918 -5.27291 2.86503 0
M  V30 9778 H 954.988 -3.86102 2.93348 0
M  V30 9779 N 956.331 -0.831506 -1.3388 0
M  V30 9780 C 957.561 -0.436292 -2.01941 0
M  V30 9781 C 957.969 0.964979 -1.62741 0
M  V30 9782 O 957.312 1.63733 -0.832894 0
M  V30 9783 C 957.374 -0.468811 -3.5643 0
M  V30 9784 C 957.038 -1.82491 -4.18982 0
M  V30 9785 C 958.035 -2.78705 -4.38885 0
M  V30 9786 C 955.72 -2.11574 -4.55568 0
M  V30 9787 C 957.714 -4.02168 -4.94509 0
M  V30 9788 C 955.401 -3.35296 -5.10901 0
M  V30 9789 C 956.399 -4.3041 -5.30317 0
M  V30 9790 O 956.087 -5.51944 -5.84477 0
M  V30 9791 H 955.819 -0.172335 -0.653664 0
M  V30 9792 H 958.373 -1.12354 -1.71947 0
M  V30 9793 H 956.603 0.275179 -3.8572 0
M  V30 9794 H 958.292 -0.0924518 -4.05795 0
M  V30 9795 H 959.058 -2.57534 -4.10976 0
M  V30 9796 H 954.937 -1.38338 -4.39754 0
M  V30 9797 H 958.481 -4.76418 -5.09579 0
M  V30 9798 H 954.378 -3.56326 -5.3824 0
M  V30 9799 H 955.146 -5.53582 -6.029 0
M  V30 9800 N 957.809 1.4625 -0.587256 0
M  V30 9801 C 959.055 2.02662 -0.0746851 0
M  V30 9802 C 959.388 1.45723 1.28368 0
M  V30 9803 O 958.663 0.624062 1.84216 0
M  V30 9804 C 958.946 3.60097 -0.0138109 0
M  V30 9805 C 958.799 4.27412 -1.4014 0
M  V30 9806 C 960.118 4.34744 0.684491 0
M  V30 9807 H 957.237 0.736444 -0.0286144 0
M  V30 9808 H 959.879 1.74341 -0.755328 0
M  V30 9809 H 958.029 3.84357 0.56583 0
M  V30 9810 H 959.701 4.14401 -2.02656 0
M  V30 9811 H 957.944 3.86598 -1.96785 0
M  V30 9812 H 958.615 5.362 -1.31124 0
M  V30 9813 H 961.091 4.15657 0.192023 0
M  V30 9814 H 959.967 5.44468 0.696127 0
M  V30 9815 H 960.228 4.06132 1.74669 0
M  V30 9816 N 959.287 0.325282 1.54207 0
M  V30 9817 C 960.512 -0.281418 2.05482 0
M  V30 9818 C 960.937 -1.44869 1.19977 0
M  V30 9819 O 960.295 -1.80088 0.209275 0
M  V30 9820 C 960.343 -0.692029 3.53897 0
M  V30 9821 O 959.447 -1.7942 3.71325 0
M  V30 9822 H 958.788 -0.0504872 0.662078 0
M  V30 9823 H 961.318 0.474191 1.99029 0
M  V30 9824 H 961.328 -0.974219 3.96198 0
M  V30 9825 H 960.003 0.161709 4.15586 0
M  V30 9826 H 958.58 -1.51069 3.40929 0
M  V30 9827 N 960.765 -1.57509 0.0534917 0
M  V30 9828 C 961.99 -1.97511 -0.632794 0
M  V30 9829 C 962.415 -0.930947 -1.63447 0
M  V30 9830 O 961.773 0.105558 -1.80992 0
M  V30 9831 C 961.821 -3.3658 -1.29407 0
M  V30 9832 O 960.925 -3.3467 -2.40977 0
M  V30 9833 H 960.266 -0.643349 -0.16431 0
M  V30 9834 H 962.796 -2.04232 0.12258 0
M  V30 9835 H 962.806 -3.73359 -1.64521 0
M  V30 9836 H 961.481 -4.12113 -0.559976 0
M  V30 9837 H 960.058 -3.09639 -2.07793 0
M  V30 9838 N 962.243 0.219913 -1.56058 0
M  V30 9839 C 963.153 1.29349 -1.95719 0
M  V30 9840 C 964.169 1.5119 -0.861248 0
M  V30 9841 O 965.345 1.64289 -1.16495 0
M  V30 9842 C 962.41 2.6229 -2.26726 0
M  V30 9843 C 961.471 2.48738 -3.49897 0
M  V30 9844 C 960.704 3.75339 -3.79416 0
M  V30 9845 O 960.927 4.78427 -3.10586 0
M  V30 9846 O 959.861 3.72352 -4.72903 0
M  V30 9847 H 963.687 0.986979 -2.87215 0
M  V30 9848 H 961.272 0.42291 -1.43289 0
M  V30 9849 H 963.154 3.408 -2.47857 0
M  V30 9850 H 961.829 2.92619 -1.38404 0
M  V30 9851 H 960.736 1.68422 -3.34043 0
M  V30 9852 H 962.069 2.23347 -4.38608 0
M  V30 9853 N 963.721 1.49897 0.486681 0
M  V30 9854 C 964.651 1.7054 1.59494 0
M  V30 9855 C 965.632 0.554184 1.60819 0
M  V30 9856 O 966.817 0.791617 1.77333 0
M  V30 9857 C 963.947 1.78517 2.97908 0
M  V30 9858 C 962.901 2.93571 3.11449 0
M  V30 9859 C 962.227 2.86674 4.51356 0
M  V30 9860 C 963.527 4.34308 2.90127 0
M  V30 9861 H 965.221 2.63329 1.42472 0
M  V30 9862 H 962.767 1.2672 0.683969 0
M  V30 9863 H 964.72 1.91544 3.75352 0
M  V30 9864 H 963.444 0.823381 3.16051 0
M  V30 9865 H 962.103 2.80169 2.36433 0
M  V30 9866 H 961.751 1.88373 4.66395 0
M  V30 9867 H 961.451 3.63903 4.61355 0
M  V30 9868 H 962.975 3.01728 5.30841 0
M  V30 9869 H 964.389 4.48317 3.57331 0
M  V30 9870 H 962.786 5.12869 3.11585 0
M  V30 9871 H 963.856 4.47759 1.86119 0
M  V30 9872 N 965.199 -0.738761 1.39212 0
M  V30 9873 C 966.149 -1.84376 1.34125 0
M  V30 9874 C 967.133 -1.5935 0.222793 0
M  V30 9875 O 968.325 -1.70918 0.460014 0
M  V30 9876 C 965.454 -3.22261 1.18334 0
M  V30 9877 C 964.54 -3.53129 2.34864 0
M  V30 9878 N 964.931 -3.54957 3.60332 0
M  V30 9879 C 963.229 -3.83472 2.27739 0
M  V30 9880 C 963.93 -3.83513 4.3737 0
M  V30 9881 N 962.906 -4.01097 3.66909 0
M  V30 9882 H 966.708 -1.84089 2.29104 0
M  V30 9883 H 964.222 -0.936826 1.32655 0
M  V30 9884 H 966.219 -4.01358 1.12772 0
M  V30 9885 H 964.879 -3.23789 0.243016 0
M  V30 9886 H 965.89 -3.36359 3.93806 0
M  V30 9887 H 962.567 -3.92628 1.41949 0
M  V30 9888 H 963.957 -3.91427 5.46109 0
M  V30 9889 N 966.677 -1.24326 -0.968545 0
M  V30 9890 C 968.093 -1.00847 -1.23701 0
M  V30 9891 C 968.293 0.283235 -1.99499 0
M  V30 9892 O 967.349 0.999607 -2.31871 0
M  V30 9893 C 968.662 -2.22295 -2.02498 0
M  V30 9894 C 970.21 -2.26911 -2.15593 0
M  V30 9895 C 970.685 -3.47978 -2.97784 0
M  V30 9896 N 972.176 -3.48289 -3.05367 0
M  V30 9897 C 972.911 -4.38625 -3.69318 0
M  V30 9898 N 972.407 -5.39213 -4.34995 0
M  V30 9899 N 974.2 -4.26339 -3.66322 0
M  V30 9900 H 966.351 -2.07335 -0.461087 0
M  V30 9901 H 968.614 -0.909805 -0.26638 0
M  V30 9902 H 968.32 -3.161 -1.54188 0
M  V30 9903 H 968.194 -2.24344 -3.03232 0
M  V30 9904 H 970.581 -1.33639 -2.63106 0
M  V30 9905 H 970.662 -2.28888 -1.14209 0
M  V30 9906 H 970.306 -4.41564 -2.50965 0
M  V30 9907 H 970.236 -3.43244 -3.99364 0
M  V30 9908 H 972.727 -2.75517 -2.58648 0
M  V30 9909 H 973.04 -6.04378 -4.81608 0
M  V30 9910 H 971.385 -5.43101 -4.33667 0
M  V30 9911 H 974.576 -3.46991 -3.14189 0
M  V30 9912 H 974.749 -4.9694 -4.15878 0
M  V30 9913 N 968.156 1.1691 -1.05688 0
M  V30 9914 C 969.086 2.23275 -0.683402 0
M  V30 9915 C 970.067 1.6704 0.321206 0
M  V30 9916 O 971.252 1.93191 0.197691 0
M  V30 9917 C 968.382 3.47244 -0.0626006 0
M  V30 9918 C 967.336 4.16333 -0.992513 0
M  V30 9919 C 966.662 5.34182 -0.23533 0
M  V30 9920 C 967.962 4.68002 -2.31886 0
M  V30 9921 H 969.656 2.54771 -1.57264 0
M  V30 9922 H 967.202 1.2246 -0.757606 0
M  V30 9923 H 969.155 4.20874 0.210503 0
M  V30 9924 H 967.879 3.1503 0.861616 0
M  V30 9925 H 966.538 3.44622 -1.25026 0
M  V30 9926 H 966.186 4.9822 0.69181 0
M  V30 9927 H 965.886 5.81346 -0.855002 0
M  V30 9928 H 967.41 6.10592 0.0303717 0
M  V30 9929 H 968.824 5.33244 -2.10531 0
M  V30 9930 H 967.221 5.25764 -2.89296 0
M  V30 9931 H 968.291 3.84541 -2.95391 0
M  V30 9932 N 969.634 0.838594 1.33437 0
M  V30 9933 C 970.566 0.229006 2.28053 0
M  V30 9934 C 971.579 -0.590103 1.51729 0
M  V30 9935 O 972.768 -0.417218 1.73556 0
M  V30 9936 C 969.868 -0.696251 3.31671 0
M  V30 9937 C 969.041 0.0834606 4.3732 0
M  V30 9938 C 968.1 -0.765097 5.20608 0
M  V30 9939 O 967.126 -0.2044 5.68833 0
M  V30 9940 N 968.328 -2.08249 5.4186 0
M  V30 9941 H 971.093 1.04196 2.81004 0
M  V30 9942 H 968.654 0.697031 1.46127 0
M  V30 9943 H 970.646 -1.26889 3.84293 0
M  V30 9944 H 969.216 -1.40992 2.78998 0
M  V30 9945 H 968.436 0.837481 3.85201 0
M  V30 9946 H 969.724 0.619613 5.05013 0
M  V30 9947 H 969.122 -2.56156 5.04381 0
M  V30 9948 H 967.679 -2.60362 5.97541 0
M  V30 9949 N 971.112 -1.45937 0.595003 0
M  V30 9950 C 972.358 -2.0262 0.0854317 0
M  V30 9951 C 972.691 -1.46402 -1.27594 0
M  V30 9952 O 971.966 -0.633823 -1.83883 0
M  V30 9953 C 972.249 -3.60085 0.0329075 0
M  V30 9954 C 972.102 -4.26663 1.42405 0
M  V30 9955 C 973.421 -4.35101 -0.661426 0
M  V30 9956 H 970.54 -0.736282 0.0325196 0
M  V30 9957 H 973.182 -1.73938 0.764563 0
M  V30 9958 H 971.332 -3.84652 -0.545439 0
M  V30 9959 H 973.004 -4.13321 2.04851 0
M  V30 9960 H 971.247 -3.85549 1.98833 0
M  V30 9961 H 971.918 -5.35497 1.33965 0
M  V30 9962 H 974.394 -4.15753 -0.169977 0
M  V30 9963 H 973.27 -5.44829 -0.667243 0
M  V30 9964 H 973.531 -4.07053 -1.72513 0
M  V30 9965 N 972.59 -0.333456 -1.54032 0
M  V30 9966 C 973.815 0.270517 -2.05628 0
M  V30 9967 C 974.24 1.44231 -1.20744 0
M  V30 9968 O 973.598 1.79975 -0.218822 0
M  V30 9969 C 973.646 0.673251 -3.54259 0
M  V30 9970 O 972.75 1.77448 -3.72271 0
M  V30 9971 H 972.091 0.0469753 -0.662336 0
M  V30 9972 H 974.621 -0.484739 -1.98775 0
M  V30 9973 H 974.631 0.953194 -3.96709 0
M  V30 9974 H 973.306 -0.183747 -4.15494 0
M  V30 9975 H 971.883 1.49259 -3.41725 0
M  V30 9976 N 974.068 1.57479 -0.061844 0
M  V30 9977 C 975.298 1.97142 0.61794 0
M  V30 9978 C 975.706 0.938533 1.64281 0
M  V30 9979 O 975.049 -0.084385 1.83506 0
M  V30 9980 C 975.111 3.33083 1.35263 0
M  V30 9981 C 974.775 4.54447 0.482372 0
M  V30 9982 C 975.772 5.1927 -0.255954 0
M  V30 9983 C 973.457 5.00623 0.410167 0
M  V30 9984 C 975.451 6.28612 -1.05481 0
M  V30 9985 C 973.138 6.09839 -0.392369 0
M  V30 9986 C 974.136 6.73696 -1.12354 0
M  V30 9987 O 973.824 7.80811 -1.91285 0
M  V30 9988 H 973.556 0.653497 0.172969 0
M  V30 9989 H 976.11 2.05002 -0.127781 0
M  V30 9990 H 974.34 3.21808 2.14421 0
M  V30 9991 H 976.029 3.5742 1.92368 0
M  V30 9992 H 976.795 4.84546 -0.209703 0
M  V30 9993 H 972.674 4.50704 0.968883 0
M  V30 9994 H 976.218 6.78385 -1.62602 0
M  V30 9995 H 972.115 6.43997 -0.44022 0
M  V30 9996 H 972.883 7.9764 -1.83611 0
M  V30 9997 N 975.546 -0.211634 1.56173 0
M  V30 9998 C 976.456 -1.2831 1.96402 0
M  V30 9999 C 977.472 -1.50731 0.869254 0
M  V30 10000 O 978.648 -1.63669 1.17365 0
M  V30 10001 C 975.713 -2.61084 2.28114 0
M  V30 10002 C 974.774 -2.46879 3.51211 0
M  V30 10003 C 974.007 -3.73321 3.81401 0
M  V30 10004 O 974.23 -4.76773 3.13119 0
M  V30 10005 O 973.164 -3.69839 4.74871 0
M  V30 10006 H 976.99 -0.971733 2.87734 0
M  V30 10007 H 974.575 -0.415305 1.43512 0
M  V30 10008 H 976.457 -3.39481 2.49661 0
M  V30 10009 H 975.132 -2.91881 1.39954 0
M  V30 10010 H 974.039 -1.66648 3.34932 0
M  V30 10011 H 975.372 -2.21018 4.39786 0
M  V30 10012 N 977.024 -1.50153 -0.478725 0
M  V30 10013 C 977.934 -1.71232 -1.60364 0
M  V30 10014 C 978.95 -0.595269 -1.63501 0
M  V30 10015 O 980.126 -0.872683 -1.81511 0
M  V30 10016 C 977.191 -1.79487 -2.96623 0
M  V30 10017 C 976.252 -3.03185 -3.03937 0
M  V30 10018 C 975.485 -3.11036 -4.33696 0
M  V30 10019 O 975.708 -2.2588 -5.23769 0
M  V30 10020 O 974.642 -4.03698 -4.46443 0
M  V30 10021 H 978.468 -2.66575 -1.45505 0
M  V30 10022 H 976.053 -1.34158 -0.65741 0
M  V30 10023 H 977.935 -1.8714 -3.77567 0
M  V30 10024 H 976.61 -0.873264 -3.11698 0
M  V30 10025 H 975.517 -3.01036 -2.22099 0
M  V30 10026 H 976.85 -3.94898 -2.93796 0
M  V30 10027 N 978.502 0.731368 -1.39602 0
M  V30 10028 C 979.732 1.51839 -1.40102 0
M  V30 10029 C 980.14 1.89199 0.00526634 0
M  V30 10030 O 979.483 1.54877 0.987874 0
M  V30 10031 C 979.545 2.83292 -2.21328 0
M  V30 10032 C 979.209 2.68345 -3.69919 0
M  V30 10033 C 980.206 2.36651 -4.62917 0
M  V30 10034 C 977.891 2.85102 -4.13548 0
M  V30 10035 C 979.885 2.21901 -5.97527 0
M  V30 10036 C 977.572 2.69971 -5.48233 0
M  V30 10037 C 978.57 2.38416 -6.40037 0
M  V30 10038 O 978.258 2.23383 -7.72241 0
M  V30 10039 H 977.99 0.475695 -0.480302 0
M  V30 10040 H 980.544 0.911096 -1.84087 0
M  V30 10041 H 978.774 3.46294 -1.72096 0
M  V30 10042 H 980.463 3.44928 -2.13961 0
M  V30 10043 H 981.229 2.23352 -4.3051 0
M  V30 10044 H 977.108 3.08655 -3.42423 0
M  V30 10045 H 980.652 1.97193 -6.69149 0
M  V30 10046 H 976.549 2.82849 -5.8023 0
M  V30 10047 H 977.317 2.38425 -7.83004 0
M  V30 10048 N 979.98 1.24838 0.961938 0
M  V30 10049 C 980.91 1.07053 2.07514 0
M  V30 10050 C 981.891 -0.0182465 1.7009 0
M  V30 10051 O 983.076 0.149915 1.9362 0
M  V30 10052 C 980.206 0.680693 3.40564 0
M  V30 10053 C 979.16 1.71889 3.91967 0
M  V30 10054 C 978.486 1.18395 5.21428 0
M  V30 10055 C 979.786 3.1161 4.19161 0
M  V30 10056 H 981.48 2.00167 2.22651 0
M  V30 10057 H 979.026 0.963799 1.0699 0
M  V30 10058 H 980.979 0.54324 4.17884 0
M  V30 10059 H 979.703 -0.28615 3.25344 0
M  V30 10060 H 978.362 1.84465 3.16809 0
M  V30 10061 H 978.01 0.207543 5.02572 0
M  V30 10062 H 977.71 1.87778 5.56788 0
M  V30 10063 H 979.234 1.05873 6.01351 0
M  V30 10064 H 980.648 3.0223 4.87165 0
M  V30 10065 H 979.045 3.78398 4.65763 0
M  V30 10066 H 980.115 3.59218 3.25715 0
M  V30 10067 N 981.458 -1.16348 1.06306 0
M  V30 10068 C 982.698 -1.88556 0.789055 0
M  V30 10069 C 983.062 -1.79849 -0.672179 0
M  V30 10070 O 984.263 -2.46984 -1.06078 0
M  V30 10071 C 982.534 -3.34069 1.27016 0
M  V30 10072 S 984.093 -4.24128 1.12522 0
M  V30 10073 H 980.911 -0.65084 0.286232 0
M  V30 10074 H 983.513 -1.40443 1.36 0
M  V30 10075 H 982.217 -3.37944 2.32856 0
M  V30 10076 H 981.748 -3.87231 0.693963 0
M  V30 10077 H 983.763 -4.96168 0.0562142 0
M  V30 10078 N 982.937 -0.845659 -1.3299 0
M  V30 10079 C 983.87 -0.228695 -2.27051 0
M  V30 10080 C 984.848 0.62812 -1.49978 0
M  V30 10081 O 986.032 0.586897 -1.79131 0
M  V30 10082 C 983.159 0.678251 -3.31839 0
M  V30 10083 C 982.205 -0.103994 -4.26373 0
M  V30 10084 S 983.038 -1.46642 -5.1503 0
M  V30 10085 C 984.194 -0.564953 -6.23345 0
M  V30 10086 H 984.427 -1.02609 -2.79032 0
M  V30 10087 H 981.96 -0.642786 -1.40384 0
M  V30 10088 H 983.918 1.1959 -3.92694 0
M  V30 10089 H 982.579 1.44937 -2.78661 0
M  V30 10090 H 981.772 0.586406 -5.00577 0
M  V30 10091 H 981.374 -0.552927 -3.6989 0
M  V30 10092 H 983.666 0.234466 -6.77094 0
M  V30 10093 H 984.609 -1.27736 -6.96483 0
M  V30 10094 H 985.017 -0.143286 -5.64318 0
M  V30 10095 N 984.415 1.45619 -0.602734 0
M  V30 10096 C 985.362 2.30493 0.118944 0
M  V30 10097 C 986.332 1.41816 0.864723 0
M  V30 10098 O 987.517 1.7075 0.851424 0
M  V30 10099 C 984.657 3.2664 1.11356 0
M  V30 10100 C 983.77 4.3042 0.369161 0
M  V30 10101 C 982.905 5.13678 1.35307 0
M  V30 10102 C 981.944 6.09189 0.596207 0
M  V30 10103 N 981.081 6.85245 1.52916 0
M  V30 10104 H 985.921 2.91672 -0.610836 0
M  V30 10105 H 983.458 1.43731 -0.313032 0
M  V30 10106 H 985.416 3.80846 1.7033 0
M  V30 10107 H 984.046 2.67225 1.81081 0
M  V30 10108 H 983.098 3.78913 -0.335994 0
M  V30 10109 H 984.41 4.98307 -0.221603 0
M  V30 10110 H 983.564 5.7226 2.01502 0
M  V30 10111 H 982.303 4.45798 1.97777 0
M  V30 10112 H 981.308 5.49743 -0.0793984 0
M  V30 10113 H 982.533 6.79096 -0.0233734 0
M  V30 10114 H 980.479 6.20058 2.14159 0
M  V30 10115 H 980.396 7.49467 0.991713 0
M  V30 10116 H 981.664 7.48371 2.18083 0
M  V30 10117 N 985.893 0.34162 1.53853 0
M  V30 10118 C 987.121 -0.256929 2.05299 0
M  V30 10119 C 987.536 -1.44366 1.21671 0
M  V30 10120 O 986.893 -1.80758 0.251584 0
M  V30 10121 C 986.944 -0.673854 3.55164 0
M  V30 10122 O 986.665 0.465687 4.35618 0
M  V30 10123 C 988.166 -1.33332 4.22773 0
M  V30 10124 H 985.386 -0.0499445 0.669139 0
M  V30 10125 H 987.93 0.493048 1.98467 0
M  V30 10126 H 986.085 -1.37378 3.62224 0
M  V30 10127 H 986.499 0.133723 5.2433 0
M  V30 10128 H 987.973 -1.57582 5.29029 0
M  V30 10129 H 988.45 -2.28628 3.75001 0
M  V30 10130 H 989.056 -0.675489 4.19901 0
M  V30 10131 N 987.371 -1.57444 0.0701946 0
M  V30 10132 C 988.301 -2.15659 -0.895176 0
M  V30 10133 C 989.282 -1.08321 -1.31151 0
M  V30 10134 O 990.467 -1.36349 -1.38284 0
M  V30 10135 C 987.597 -2.71693 -2.16334 0
M  V30 10136 C 986.551 -3.84183 -1.88645 0
M  V30 10137 C 985.877 -4.26814 -3.22078 0
M  V30 10138 C 987.177 -5.08493 -1.19299 0
M  V30 10139 H 988.871 -2.96576 -0.410217 0
M  V30 10140 H 986.417 -1.42662 -0.195872 0
M  V30 10141 H 988.37 -3.11064 -2.84284 0
M  V30 10142 H 987.094 -1.87994 -2.67069 0
M  V30 10143 H 985.753 -3.45314 -1.23101 0
M  V30 10144 H 985.401 -3.40039 -3.70651 0
M  V30 10145 H 985.101 -5.02642 -3.04344 0
M  V30 10146 H 986.625 -4.68799 -3.91228 0
M  V30 10147 H 988.039 -5.4519 -1.77316 0
M  V30 10148 H 986.436 -5.89588 -1.11828 0
M  V30 10149 H 987.506 -4.84595 -0.171839 0
M  V30 10150 N 988.849 0.203349 -1.56283 0
M  V30 10151 C 989.779 1.2549 -1.96912 0
M  V30 10152 C 990.76 1.47919 -0.839884 0
M  V30 10153 O 991.945 1.59795 -1.10359 0
M  V30 10154 C 989.075 2.6009 -2.30153 0
M  V30 10155 C 988.029 2.52289 -3.45738 0
M  V30 10156 C 987.355 3.91086 -3.64632 0
M  V30 10157 C 988.655 2.05503 -4.80173 0
M  V30 10158 H 990.349 0.917306 -2.85002 0
M  V30 10159 H 987.895 0.439818 -1.37119 0
M  V30 10160 H 989.848 3.33829 -2.5717 0
M  V30 10161 H 988.572 2.95574 -1.38937 0
M  V30 10162 H 987.231 1.81006 -3.18798 0
M  V30 10163 H 986.879 4.23908 -2.7076 0
M  V30 10164 H 986.579 3.86742 -4.42385 0
M  V30 10165 H 988.103 4.66459 -3.94016 0
M  V30 10166 H 989.517 2.68995 -5.06275 0
M  V30 10167 H 987.914 2.1218 -5.61337 0
M  V30 10168 H 988.984 1.00793 -4.74309 0
M  V30 10169 N 990.327 1.50405 0.470755 0
M  V30 10170 C 991.257 1.72222 1.57676 0
M  V30 10171 C 992.238 0.57121 1.60222 0
M  V30 10172 O 993.423 0.810381 1.76484 0
M  V30 10173 C 990.553 1.81666 2.95998 0
M  V30 10174 C 989.507 2.96857 3.08318 0
M  V30 10175 C 988.833 2.91445 4.4829 0
M  V30 10176 C 990.133 4.37361 2.85504 0
M  V30 10177 H 991.827 2.64825 1.39671 0
M  V30 10178 H 989.373 1.27438 0.67049 0
M  V30 10179 H 991.326 1.95514 3.73299 0
M  V30 10180 H 990.05 0.856856 3.1516 0
M  V30 10181 H 988.709 2.82661 2.33449 0
M  V30 10182 H 988.357 1.93309 4.64371 0
M  V30 10183 H 988.057 3.68776 4.57469 0
M  V30 10184 H 989.581 3.07341 5.27611 0
M  V30 10185 H 990.995 4.52081 3.52555 0
M  V30 10186 H 989.392 5.16145 3.06127 0
M  V30 10187 H 990.462 4.49708 1.81359 0
M  V30 10188 N 991.805 -0.723954 1.39988 0
M  V30 10189 C 992.735 -1.85103 1.42335 0
M  V30 10190 C 993.716 -1.6769 0.285297 0
M  V30 10191 O 994.901 -1.87846 0.492716 0
M  V30 10192 C 992.031 -3.22972 1.27697 0
M  V30 10193 C 990.985 -3.55041 2.39018 0
M  V30 10194 C 990.311 -4.91965 2.09462 0
M  V30 10195 C 991.611 -3.56889 3.8135 0
M  V30 10196 H 993.305 -1.83396 2.36656 0
M  V30 10197 H 990.851 -0.880926 1.13911 0
M  V30 10198 H 992.804 -4.01503 1.27958 0
M  V30 10199 H 991.528 -3.25233 0.298487 0
M  V30 10200 H 990.187 -2.78845 2.37993 0
M  V30 10201 H 989.835 -4.90819 1.10025 0
M  V30 10202 H 989.535 -5.14389 2.84038 0
M  V30 10203 H 991.059 -5.7284 2.11391 0
M  V30 10204 H 992.473 -4.25476 3.84243 0
M  V30 10205 H 990.87 -3.90836 4.55376 0
M  V30 10206 H 991.94 -2.56452 4.11534 0
M  V30 10207 N 993.283 -1.25346 -0.955304 0
M  V30 10208 C 994.508 -1.12892 -1.73983 0
M  V30 10209 C 994.933 0.313455 -1.8547 0
M  V30 10210 O 994.291 1.22706 -1.33465 0
M  V30 10211 C 994.339 -1.78729 -3.1319 0
M  V30 10212 O 993.443 -1.06648 -3.98372 0
M  V30 10213 H 992.784 -0.394178 -0.534341 0
M  V30 10214 H 995.314 -1.65897 -1.19747 0
M  V30 10215 H 995.324 -1.84987 -3.63653 0
M  V30 10216 H 993.999 -2.83669 -3.04146 0
M  V30 10217 H 992.576 -1.08266 -3.56837 0
M  V30 10218 N 994.761 1.15782 -1.06922 0
M  V30 10219 C 995.986 1.90896 -0.810771 0
M  V30 10220 C 996.411 1.77246 0.629714 0
M  V30 10221 O 995.769 1.10215 1.43953 0
M  V30 10222 C 995.817 3.39397 -1.21829 0
M  V30 10223 O 994.921 4.10818 -0.360934 0
M  V30 10224 H 994.262 0.594497 -0.295752 0
M  V30 10225 H 996.792 1.46652 -1.42669 0
M  V30 10226 H 996.802 3.90181 -1.19259 0
M  V30 10227 H 995.477 3.4865 -2.2675 0
M  V30 10228 H 994.054 3.7019 -0.448748 0
M  V30 10229 N 996.239 0.8527 1.3254 0
M  V30 10230 C 997.485 0.455798 1.97612 0
M  V30 10231 C 997.818 -0.985616 1.6733 0
M  V30 10232 O 997.093 -1.69129 0.960493 0
M  V30 10233 C 997.376 0.69312 3.53366 0
M  V30 10234 C 997.229 2.18281 3.93285 0
M  V30 10235 C 998.548 0.148236 4.3985 0
M  V30 10236 H 995.667 0.167078 0.717812 0
M  V30 10237 H 998.309 1.07076 1.56954 0
M  V30 10238 H 996.459 0.169677 3.88129 0
M  V30 10239 H 998.131 2.77218 3.68711 0
M  V30 10240 H 996.374 2.66206 3.42515 0
M  V30 10241 H 997.045 2.29957 5.01821 0
M  V30 10242 H 999.521 0.595834 4.11812 0
M  V30 10243 H 998.397 0.343873 5.47822 0
M  V30 10244 H 998.658 -0.948872 4.31797 0
M  V30 10245 N 997.718 -1.45297 0.610449 0
M  V30 10246 C 999.129 -1.85715 0.191488 0
M  V30 10247 C 999.48 -1.51036 -1.25229 0
M  V30 10248 O 998.605 -0.938422 -1.94994 0
M  V30 10249 C 999.2 -3.37082 0.340747 0
M  V30 10250 C 997.759 -3.76393 -0.0235433 0
M  V30 10251 C 996.906 -2.69237 0.663849 0
M  V30 10252 H 999.857 -1.36058 0.816948 0
M  V30 10253 H 999.878 -3.78105 -0.426233 0
M  V30 10254 H 999.39 -3.62291 1.39164 0
M  V30 10255 H 997.491 -3.56801 -1.07351 0
M  V30 10256 H 997.604 -4.77653 0.372102 0
M  V30 10257 H 995.968 -2.54499 0.101204 0
M  V30 10258 H 996.751 -2.97281 1.71694 0
M  V30 10259 N 999.196 -0.349774 -1.5367 0
M  V30 10260 C 1000.14 0.504121 -2.25227 0
M  V30 10261 C 1001.11 1.09048 -1.2529 0
M  V30 10262 O 1002.3 1.12594 -1.54037 0
M  V30 10263 C 999.438 1.64601 -3.03316 0
M  V30 10264 C 998.551 1.08635 -4.18118 0
M  V30 10265 C 997.686 2.19605 -4.83681 0
M  V30 10266 C 996.725 1.61023 -5.90541 0
M  V30 10267 N 995.862 2.6576 -6.49858 0
M  V30 10268 H 1000.7 -0.112621 -2.97787 0
M  V30 10269 H 998.239 -0.0673503 -1.46946 0
M  V30 10270 H 1000.2 2.31836 -3.46854 0
M  V30 10271 H 998.827 2.23364 -2.33041 0
M  V30 10272 H 997.879 0.304748 -3.79177 0
M  V30 10273 H 999.191 0.617911 -4.94958 0
M  V30 10274 H 998.345 2.94693 -5.30322 0
M  V30 10275 H 997.084 2.69795 -4.06278 0
M  V30 10276 H 996.089 0.844428 -5.43277 0
M  V30 10277 H 997.314 1.11677 -6.69855 0
M  V30 10278 H 995.26 3.15193 -5.75317 0
M  V30 10279 H 995.177 2.23557 -7.2219 0
M  V30 10280 H 996.445 3.40598 -7.01151 0
M  V30 10281 N 1000.67 1.57404 -0.0785433 0
M  V30 10282 C 1001.95 1.85163 0.630389 0
M  V30 10283 C 1002.33 0.972295 1.87376 0
M  V30 10284 O 1001.68 0.0403375 2.28464 0
M  V30 10285 C 1001.89 3.35491 0.961604 0
M  V30 10286 C 1003.24 4.0316 1.33219 0
M  V30 10287 O 1004.26 3.40276 1.05313 0
M  V30 10288 O 1003.12 5.14086 1.85412 0
M  V30 10289 H 1000.21 0.765169 0.31376 0
M  V30 10290 H 1002.76 1.69343 -0.109986 0
M  V30 10291 H 1001.53 3.91221 0.0788113 0
M  V30 10292 H 1001.15 3.56598 1.75852 0
M  V30 10293 N 1002.15 -0.195058 1.56388 0
M  V30 10294 C 1003.4 -0.913636 1.8027 0
M  V30 10295 C 1003.72 -1.83791 0.651606 0
M  V30 10296 O 1002.99 -1.931 -0.330057 0
M  V30 10297 H 1001.57 -0.34036 0.664954 0
M  V30 10298 H 1004.23 -0.200559 1.93865 0
M  V30 10299 H 1003.33 -1.50473 2.7343 0
M  V30 10300 N 1003.63 -1.50653 -0.462772 0
M  V30 10301 C 1004.56 -1.73056 -1.5676 0
M  V30 10302 C 1005.54 -0.579699 -1.59917 0
M  V30 10303 O 1006.73 -0.819729 -1.76051 0
M  V30 10304 C 1003.86 -1.83234 -2.9503 0
M  V30 10305 C 1002.81 -2.98488 -3.06739 0
M  V30 10306 C 1002.14 -2.93818 -4.46738 0
M  V30 10307 C 1003.44 -4.38869 -2.83181 0
M  V30 10308 H 1005.13 -2.65562 -1.38265 0
M  V30 10309 H 1002.68 -1.27792 -0.663722 0
M  V30 10310 H 1004.63 -1.97491 -3.72257 0
M  V30 10311 H 1003.35 -0.873558 -3.14701 0
M  V30 10312 H 1002.01 -2.83895 -2.31946 0
M  V30 10313 H 1001.66 -1.95769 -4.63339 0
M  V30 10314 H 1001.36 -3.71197 -4.55507 0
M  V30 10315 H 1002.88 -3.10135 -5.25974 0
M  V30 10316 H 1004.3 -4.53945 -3.50153 0
M  V30 10317 H 1002.69 -5.17762 -3.03386 0
M  V30 10318 H 1003.76 -4.50663 -1.78972 0
M  V30 10319 N 1005.11 0.71652 -1.4037 0
M  V30 10320 C 1006.06 1.8306 -1.40562 0
M  V30 10321 C 1007.03 1.64009 -0.262697 0
M  V30 10322 O 1008.21 1.85157 -0.460619 0
M  V30 10323 C 1005.35 3.2076 -1.27307 0
M  V30 10324 C 1004.46 3.51389 -2.51296 0
M  V30 10325 C 1003.6 4.78589 -2.30491 0
M  V30 10326 C 1002.64 5.02119 -3.50061 0
M  V30 10327 N 1001.77 6.20533 -3.28457 0
M  V30 10328 H 1006.61 1.82231 -2.35788 0
M  V30 10329 H 1004.15 0.890198 -1.17106 0
M  V30 10330 H 1006.11 4.00274 -1.17628 0
M  V30 10331 H 1004.74 3.2082 -0.357005 0
M  V30 10332 H 1003.79 2.66436 -2.71507 0
M  V30 10333 H 1005.1 3.64686 -3.40302 0
M  V30 10334 H 1004.26 5.66119 -2.1816 0
M  V30 10335 H 1003 4.67499 -1.38909 0
M  V30 10336 H 1002 4.13044 -3.6287 0
M  V30 10337 H 1003.23 5.15082 -4.42569 0
M  V30 10338 H 1001.17 6.10695 -2.39556 0
M  V30 10339 H 1001.09 6.34502 -4.11027 0
M  V30 10340 H 1002.36 7.10853 -3.19857 0
M  V30 10341 N 1006.59 1.25851 0.948643 0
M  V30 10342 C 1007.81 1.13813 1.73382 0
M  V30 10343 C 1008.24 -0.303615 1.85633 0
M  V30 10344 O 1007.59 -1.21997 1.34114 0
M  V30 10345 C 1007.64 1.80388 3.12238 0
M  V30 10346 O 1006.75 1.08759 3.978 0
M  V30 10347 H 1006.09 0.397006 0.532243 0
M  V30 10348 H 1008.62 1.66529 1.18866 0
M  V30 10349 H 1008.63 1.86913 3.62667 0
M  V30 10350 H 1007.3 2.85278 3.02637 0
M  V30 10351 H 1005.88 1.10157 3.56258 0
M  V30 10352 N 1008.06 -1.15214 1.07534 0
M  V30 10353 C 1009 -2.19634 0.655261 0
M  V30 10354 C 1010.01 -1.60139 -0.293165 0
M  V30 10355 O 1011.2 -1.78311 -0.0821957 0
M  V30 10356 C 1008.3 -3.38851 -0.0578281 0
M  V30 10357 C 1007.47 -4.27888 0.90725 0
M  V30 10358 C 1006.53 -5.25692 0.231115 0
M  V30 10359 O 1005.56 -5.62469 0.872746 0
M  V30 10360 N 1006.76 -5.71424 -1.0225 0
M  V30 10361 H 1009.52 -2.56292 1.55353 0
M  V30 10362 H 1007.08 -1.30347 0.960271 0
M  V30 10363 H 1009.08 -4.01334 -0.520874 0
M  V30 10364 H 1007.65 -3.00593 -0.858071 0
M  V30 10365 H 1006.87 -3.62475 1.54937 0
M  V30 10366 H 1008.15 -4.84246 1.56151 0
M  V30 10367 H 1007.55 -5.43659 -1.56369 0
M  V30 10368 H 1006.11 -6.35938 -1.42919 0
M  V30 10369 N 1009.54 -0.859717 -1.32086 0
M  V30 10370 C 1010.45 -0.31108 -2.32528 0
M  V30 10371 C 1011.47 0.573714 -1.6427 0
M  V30 10372 O 1012.64 0.472878 -1.9577 0
M  V30 10373 C 1009.71 0.487256 -3.43259 0
M  V30 10374 C 1008.77 -0.424279 -4.27198 0
M  V30 10375 C 1008 0.336051 -5.32641 0
M  V30 10376 O 1008.23 1.56541 -5.48499 0
M  V30 10377 O 1007.16 -0.300777 -6.01148 0
M  V30 10378 H 1010.99 -1.14336 -2.81355 0
M  V30 10379 H 1008.57 -0.622794 -1.358 0
M  V30 10380 H 1010.45 0.940203 -4.10777 0
M  V30 10381 H 1009.13 1.29626 -2.96612 0
M  V30 10382 H 1008.04 -0.925509 -3.62471 0
M  V30 10383 H 1009.37 -1.1986 -4.77383 0
M  V30 10384 N 1011.02 1.44971 -0.618145 0
M  V30 10385 C 1011.95 2.33357 0.0815955 0
M  V30 10386 C 1012.93 1.47451 0.848072 0
M  V30 10387 O 1014.12 1.762 0.816532 0
M  V30 10388 C 1011.25 3.30324 1.07253 0
M  V30 10389 C 1010.2 4.25948 0.418563 0
M  V30 10390 C 1009.53 5.12685 1.51849 0
M  V30 10391 C 1010.83 5.18024 -0.66697 0
M  V30 10392 H 1012.52 2.92115 -0.656442 0
M  V30 10393 H 1010.07 1.40465 -0.317129 0
M  V30 10394 H 1012.02 3.91033 1.57069 0
M  V30 10395 H 1010.74 2.69748 1.8413 0
M  V30 10396 H 1009.4 3.66553 -0.0588308 0
M  V30 10397 H 1009.05 4.4847 2.2778 0
M  V30 10398 H 1008.75 5.7747 1.08637 0
M  V30 10399 H 1010.27 5.76264 2.01871 0
M  V30 10400 H 1011.69 5.72744 -0.252448 0
M  V30 10401 H 1010.09 5.91343 -1.02146 0
M  V30 10402 H 1011.16 4.59817 -1.53936 0
M  V30 10403 N 1012.5 0.357919 1.53482 0
M  V30 10404 C 1013.75 -0.234163 2.01142 0
M  V30 10405 C 1014.07 -1.49399 1.2454 0
M  V30 10406 O 1013.33 -1.92981 0.325111 0
M  V30 10407 C 1013.63 -0.579617 3.52669 0
M  V30 10408 C 1013.29 0.584988 4.47089 0
M  V30 10409 C 1011.96 0.904558 4.72622 0
M  V30 10410 C 1014.31 1.3656 5.02992 0
M  V30 10411 C 1011.64 2.00685 5.5131 0
M  V30 10412 C 1013.99 2.45824 5.82884 0
M  V30 10413 C 1012.65 2.78325 6.06706 0
M  V30 10414 H 1011.92 -0.0856863 0.736029 0
M  V30 10415 H 1014.57 0.488801 1.85157 0
M  V30 10416 H 1012.87 -1.38349 3.66561 0
M  V30 10417 H 1014.57 -1.04985 3.87013 0
M  V30 10418 H 1011.16 0.32587 4.27359 0
M  V30 10419 H 1015.34 1.13196 4.83219 0
M  V30 10420 H 1010.6 2.26272 5.67988 0
M  V30 10421 H 1014.77 3.06732 6.25211 0
M  V30 10422 H 1012.4 3.63862 6.67464 0
M  V30 10423 N 1013.98 -1.5736 0.0868897 0
M  V30 10424 C 1015.25 -1.85495 -0.620561 0
M  V30 10425 C 1015.63 -0.982218 -1.86857 0
M  V30 10426 O 1014.98 -0.0524529 -2.2844 0
M  V30 10427 C 1015.19 -3.35996 -0.943798 0
M  V30 10428 C 1016.54 -4.03861 -1.31079 0
M  V30 10429 O 1017.56 -3.4083 -1.03507 0
M  V30 10430 O 1016.42 -5.15062 -1.82683 0
M  V30 10431 H 1013.52 -0.766822 -0.309697 0
M  V30 10432 H 1016.06 -1.69282 0.118966 0
M  V30 10433 H 1014.83 -3.91257 -0.0580628 0
M  V30 10434 H 1014.46 -3.57525 -1.73958 0
M  V30 10435 N 1015.45 0.186762 -1.56489 0
M  V30 10436 C 1016.36 1.25169 -1.98419 0
M  V30 10437 C 1017.38 1.49329 -0.893124 0
M  V30 10438 O 1018.56 1.61781 -1.19954 0
M  V30 10439 C 1015.62 2.57422 -2.32239 0
M  V30 10440 C 1014.68 2.4126 -3.55095 0
M  V30 10441 C 1013.92 3.67206 -3.87292 0
M  V30 10442 O 1014.14 4.71731 -3.20665 0
M  V30 10443 O 1013.07 3.62238 -4.80695 0
M  V30 10444 H 1016.9 0.925834 -2.89244 0
M  V30 10445 H 1014.48 0.392421 -1.44154 0
M  V30 10446 H 1016.37 3.35466 -2.5503 0
M  V30 10447 H 1015.04 2.89618 -1.44579 0
M  V30 10448 H 1013.95 1.61299 -3.37541 0
M  V30 10449 H 1015.28 2.13994 -4.43247 0
M  V30 10450 N 1016.93 1.50896 0.454776 0
M  V30 10451 C 1018.18 1.61936 1.20248 0
M  V30 10452 C 1018.49 0.332983 1.92745 0
M  V30 10453 O 1019.7 0.322512 2.69578 0
M  V30 10454 C 1018.16 2.85916 2.18587 0
M  V30 10455 C 1017.76 4.21492 1.51818 0
M  V30 10456 C 1019.51 3.06307 2.93898 0
M  V30 10457 C 1017.42 5.3664 2.48539 0
M  V30 10458 H 1016.35 0.603098 0.452536 0
M  V30 10459 H 1019 1.77345 0.471257 0
M  V30 10460 H 1017.38 2.64101 2.95071 0
M  V30 10461 H 1018.55 4.53623 0.810123 0
M  V30 10462 H 1016.87 4.06837 0.887265 0
M  V30 10463 H 1019.46 3.89507 3.66317 0
M  V30 10464 H 1019.81 2.18683 3.54236 0
M  V30 10465 H 1020.34 3.2838 2.24525 0
M  V30 10466 H 1017.08 6.26469 1.92916 0
M  V30 10467 H 1016.6 5.08907 3.17449 0
M  V30 10468 H 1018.28 5.67881 3.10033 0
M  V30 10469 N 1018.41 -0.709066 1.40748 0
M  V30 10470 C 1019.83 -1.01797 1.22921 0
M  V30 10471 C 1020.03 -2.01205 0.109011 0
M  V30 10472 O 1019.08 -2.46854 -0.530987 0
M  V30 10473 C 1020.4 -1.55546 2.57344 0
M  V30 10474 C 1021.94 -1.67498 2.64412 0
M  V30 10475 C 1022.42 -2.24652 3.99119 0
M  V30 10476 N 1023.91 -2.3203 4.00895 0
M  V30 10477 C 1024.64 -2.7725 5.01917 0
M  V30 10478 N 1024.14 -3.22174 6.13332 0
M  V30 10479 N 1025.93 -2.76692 4.89283 0
M  V30 10480 H 1018.08 -0.0502704 2.12341 0
M  V30 10481 H 1020.35 -0.0848933 0.944191 0
M  V30 10482 H 1020.05 -0.899631 3.39999 0
M  V30 10483 H 1019.93 -2.53971 2.78888 0
M  V30 10484 H 1022.31 -2.32196 1.82123 0
M  V30 10485 H 1022.4 -0.676553 2.46691 0
M  V30 10486 H 1022.04 -1.60573 4.81849 0
M  V30 10487 H 1021.97 -3.25221 4.14173 0
M  V30 10488 H 1024.46 -2.00309 3.20444 0
M  V30 10489 H 1024.77 -3.55265 6.86299 0
M  V30 10490 H 1023.12 -3.20116 6.16888 0
M  V30 10491 H 1026.31 -2.40936 4.01332 0
M  V30 10492 H 1026.48 -3.11617 5.68154 0
M  V30 10493 N 1019.89 -1.26353 -0.941956 0
M  V30 10494 C 1020.82 -1.02163 -2.04054 0
M  V30 10495 C 1021.8 0.0533514 -1.62512 0
M  V30 10496 O 1022.98 -0.0889063 -1.8829 0
M  V30 10497 C 1020.11 -0.546908 -3.34255 0
M  V30 10498 C 1019.16 -1.61433 -3.94768 0
M  V30 10499 S 1019.99 -3.20306 -4.29144 0
M  V30 10500 C 1021.15 -2.746 -5.62446 0
M  V30 10501 H 1021.38 -1.9518 -2.24259 0
M  V30 10502 H 1018.91 -1.10024 -1.08324 0
M  V30 10503 H 1020.87 -0.279673 -4.09546 0
M  V30 10504 H 1019.53 0.36297 -3.11996 0
M  V30 10505 H 1018.72 -1.23315 -4.88681 0
M  V30 10506 H 1018.33 -1.8329 -3.26007 0
M  V30 10507 H 1020.62 -2.19015 -6.41123 0
M  V30 10508 H 1021.56 -3.67202 -6.05449 0
M  V30 10509 H 1021.97 -2.1419 -5.22286 0
M  V30 10510 N 1021.37 1.14642 -1.08144 0
M  V30 10511 C 1022.6 1.89484 -0.830864 0
M  V30 10512 C 1023.01 1.78443 0.616722 0
M  V30 10513 O 1022.37 1.14191 1.42361 0
M  V30 10514 C 1022.42 3.39554 -1.24039 0
M  V30 10515 O 1022.14 3.50286 -2.63119 0
M  V30 10516 C 1023.64 4.31399 -1.02029 0
M  V30 10517 H 1020.86 0.600283 -0.299835 0
M  V30 10518 H 1023.4 1.45204 -1.44001 0
M  V30 10519 H 1021.56 3.81467 -0.675407 0
M  V30 10520 H 1021.97 4.43481 -2.80045 0
M  V30 10521 H 1023.45 5.35079 -1.35625 0
M  V30 10522 H 1023.92 4.39179 0.0428697 0
M  V30 10523 H 1024.53 3.95238 -1.57057 0
M  V30 10524 N 1022.85 0.866709 1.31628 0
M  V30 10525 C 1024.08 0.489679 2.00713 0
M  V30 10526 C 1024.48 -0.921492 1.65243 0
M  V30 10527 O 1023.83 -1.61467 0.876012 0
M  V30 10528 C 1023.89 0.563148 3.55062 0
M  V30 10529 C 1023.55 1.93535 4.13996 0
M  V30 10530 C 1024.55 2.90243 4.31341 0
M  V30 10531 C 1022.23 2.23578 4.49798 0
M  V30 10532 C 1024.23 4.15138 4.83673 0
M  V30 10533 C 1021.92 3.48723 5.01832 0
M  V30 10534 C 1022.91 4.44319 5.18719 0
M  V30 10535 O 1022.6 5.67247 5.69637 0
M  V30 10536 H 1022.33 0.189605 0.648865 0
M  V30 10537 H 1024.89 1.16874 1.68907 0
M  V30 10538 H 1023.12 -0.172815 3.86314 0
M  V30 10539 H 1024.81 0.200009 4.05407 0
M  V30 10540 H 1025.57 2.6834 4.04003 0
M  V30 10541 H 1021.45 1.49949 4.35932 0
M  V30 10542 H 1025 4.89762 4.96769 0
M  V30 10543 H 1020.89 3.70471 5.28603 0
M  V30 10544 H 1021.66 5.69372 5.88011 0
M  V30 10545 N 1024.32 -1.44642 0.625825 0
M  V30 10546 C 1025.57 -2.01308 0.125682 0
M  V30 10547 C 1025.89 -1.49773 -1.25807 0
M  V30 10548 O 1027.09 -1.98533 -1.85194 0
M  V30 10549 C 1025.55 -3.59479 0.17395 0
M  V30 10550 C 1025.16 -4.20011 1.55868 0
M  V30 10551 C 1026.9 -4.2364 -0.270005 0
M  V30 10552 C 1024.81 -5.7039 1.56235 0
M  V30 10553 H 1023.74 -0.75276 0.0432194 0
M  V30 10554 H 1026.39 -1.65916 0.783842 0
M  V30 10555 H 1024.77 -3.92145 -0.551212 0
M  V30 10556 H 1025.94 -3.98891 2.307 0
M  V30 10557 H 1024.26 -3.68116 1.94627 0
M  V30 10558 H 1026.86 -5.33931 -0.28672 0
M  V30 10559 H 1027.2 -3.95603 -1.29629 0
M  V30 10560 H 1027.73 -3.95759 0.402487 0
M  V30 10561 H 1024.47 -6.03154 2.56683 0
M  V30 10562 H 1023.99 -5.93648 0.856881 0
M  V30 10563 H 1025.67 -6.33929 1.29396 0
M  V30 10564 N 1025.8 -0.366053 -1.5329 0
M  V30 10565 C 1026.75 0.480205 -2.25749 0
M  V30 10566 C 1027.72 1.07713 -1.2644 0
M  V30 10567 O 1028.9 1.10953 -1.55222 0
M  V30 10568 C 1026.04 1.61374 -3.05045 0
M  V30 10569 C 1025.16 1.04194 -4.19246 0
M  V30 10570 C 1024.29 2.14462 -4.85983 0
M  V30 10571 C 1023.33 1.5475 -5.92215 0
M  V30 10572 N 1022.47 2.58852 -6.52641 0
M  V30 10573 H 1027.31 -0.144199 -2.97651 0
M  V30 10574 H 1024.84 -0.0829321 -1.46866 0
M  V30 10575 H 1026.8 2.28144 -3.49294 0
M  V30 10576 H 1025.43 2.2088 -2.35397 0
M  V30 10577 H 1024.48 0.264514 -3.79479 0
M  V30 10578 H 1025.8 0.565379 -4.95585 0
M  V30 10579 H 1024.95 2.89051 -5.33418 0
M  V30 10580 H 1023.69 2.6547 -4.09117 0
M  V30 10581 H 1022.69 0.786759 -5.44142 0
M  V30 10582 H 1023.92 1.04566 -6.71001 0
M  V30 10583 H 1021.87 3.09073 -5.78627 0
M  V30 10584 H 1021.78 2.15884 -7.24521 0
M  V30 10585 H 1023.05 3.33142 -7.04724 0
M  V30 10586 N 1027.28 1.57312 -0.0952337 0
M  V30 10587 C 1028.19 2.17556 0.877877 0
M  V30 10588 C 1029.21 1.14505 1.31014 0
M  V30 10589 O 1030.38 1.46876 1.37802 0
M  V30 10590 C 1027.45 2.74413 2.11892 0
M  V30 10591 C 1026.51 3.92419 1.74085 0
M  V30 10592 C 1025.74 4.46556 2.92273 0
M  V30 10593 O 1025.96 3.99631 4.07002 0
M  V30 10594 O 1024.9 5.37576 2.70732 0
M  V30 10595 H 1028.72 3.01116 0.395312 0
M  V30 10596 H 1026.31 1.48841 0.129123 0
M  V30 10597 H 1028.19 3.10754 2.84622 0
M  V30 10598 H 1026.87 1.93899 2.59201 0
M  V30 10599 H 1025.77 3.6089 0.985346 0
M  V30 10600 H 1027.11 4.74298 1.31539 0
M  V30 10601 N 1028.76 -0.17846 1.56586 0
M  V30 10602 C 1029.69 -1.22342 1.98884 0
M  V30 10603 C 1030.67 -1.46564 0.86331 0
M  V30 10604 O 1031.85 -1.58019 1.12887 0
M  V30 10605 C 1028.98 -2.56396 2.34261 0
M  V30 10606 C 1027.94 -2.46756 3.49708 0
M  V30 10607 C 1027.26 -3.85235 3.70807 0
M  V30 10608 C 1028.56 -1.97838 4.83381 0
M  V30 10609 H 1030.26 -0.871848 2.86425 0
M  V30 10610 H 1027.8 -0.417948 1.37801 0
M  V30 10611 H 1029.76 -3.29695 2.62448 0
M  V30 10612 H 1028.48 -2.93327 1.43621 0
M  V30 10613 H 1027.14 -1.75912 3.21637 0
M  V30 10614 H 1026.79 -4.19547 2.7747 0
M  V30 10615 H 1026.49 -3.79655 4.48481 0
M  V30 10616 H 1028.01 -4.60131 4.01387 0
M  V30 10617 H 1029.43 -2.60906 5.10491 0
M  V30 10618 H 1027.82 -2.03223 5.64642 0
M  V30 10619 H 1028.89 -0.932339 4.75852 0
M  V30 10620 N 1030.24 -1.51135 -0.446768 0
M  V30 10621 C 1031.48 -1.63013 -1.19461 0
M  V30 10622 C 1031.8 -0.344067 -1.91941 0
M  V30 10623 O 1031.07 0.639666 -1.85162 0
M  V30 10624 H 1029.65 -0.600757 -0.443959 0
M  V30 10625 H 1032.32 -1.88024 -0.513137 0
M  V30 10626 H 1031.41 -2.45322 -1.92933 0
M  V30 10627 N 1031.71 0.701592 -1.41122 0
M  V30 10628 C 1032.66 1.81559 -1.42495 0
M  V30 10629 C 1033.63 1.63722 -0.280078 0
M  V30 10630 O 1034.82 1.84658 -0.480231 0
M  V30 10631 C 1031.96 3.19392 -1.30702 0
M  V30 10632 C 1031.07 3.48704 -2.55009 0
M  V30 10633 C 1030.2 4.76118 -2.35554 0
M  V30 10634 C 1029.24 4.98378 -3.55367 0
M  V30 10635 N 1028.38 6.17014 -3.3502 0
M  V30 10636 H 1033.22 1.7972 -2.37707 0
M  V30 10637 H 1030.76 0.877727 -1.18044 0
M  V30 10638 H 1032.71 3.99004 -1.21867 0
M  V30 10639 H 1031.34 3.20423 -0.391012 0
M  V30 10640 H 1030.4 2.63542 -2.74317 0
M  V30 10641 H 1031.71 3.61057 -3.44151 0
M  V30 10642 H 1030.86 5.63774 -2.24152 0
M  V30 10643 H 1029.6 4.66 -1.43859 0
M  V30 10644 H 1028.61 4.09172 -3.6723 0
M  V30 10645 H 1029.83 5.10359 -4.48007 0
M  V30 10646 H 1027.78 6.0812 -2.4602 0
M  V30 10647 H 1027.69 6.30107 -4.17733 0
M  V30 10648 H 1028.96 7.0742 -3.27379 0
M  V30 10649 N 1033.19 1.2685 0.935242 0
M  V30 10650 C 1034.15 1.08975 2.01636 0
M  V30 10651 C 1035.15 0.0361543 1.60759 0
M  V30 10652 O 1036.34 0.280087 1.71934 0
M  V30 10653 C 1033.48 0.658831 3.34473 0
M  V30 10654 H 1034.67 2.04968 2.18925 0
M  V30 10655 H 1032.22 1.09531 1.11501 0
M  V30 10656 H 1032.96 -0.302824 3.22883 0
M  V30 10657 H 1032.74 1.41967 3.65497 0
M  V30 10658 H 1034.23 0.555783 4.13885 0
M  V30 10659 N 1034.67 -1.14067 1.0875 0
M  V30 10660 C 1035.92 -1.84535 0.814235 0
M  V30 10661 C 1036.23 -1.84044 -0.662355 0
M  V30 10662 O 1037.44 -2.50336 -1.05091 0
M  V30 10663 C 1035.89 -3.31273 1.40663 0
M  V30 10664 C 1035.5 -3.40171 2.91526 0
M  V30 10665 C 1037.25 -4.0683 1.21201 0
M  V30 10666 C 1035.15 -4.81141 3.43885 0
M  V30 10667 H 1034.08 -0.691346 0.300926 0
M  V30 10668 H 1036.73 -1.28562 1.30935 0
M  V30 10669 H 1035.12 -3.87005 0.839215 0
M  V30 10670 H 1036.29 -2.94471 3.54434 0
M  V30 10671 H 1034.61 -2.78073 3.09942 0
M  V30 10672 H 1037.2 -5.10891 1.57781 0
M  V30 10673 H 1037.55 -4.16022 0.152092 0
M  V30 10674 H 1038.08 -3.57408 1.74655 0
M  V30 10675 H 1034.82 -4.77138 4.49466 0
M  V30 10676 H 1034.34 -5.27365 2.85738 0
M  V30 10677 H 1036.02 -5.50042 3.40681 0
M  V30 10678 N 1036.15 -0.873678 -1.31166 0
M  V30 10679 C 1037.39 -0.487178 -1.96861 0
M  V30 10680 C 1037.73 0.95887 -1.68877 0
M  V30 10681 O 1037 1.6758 -0.987279 0
M  V30 10682 C 1037.29 -0.74925 -3.52219 0
M  V30 10683 C 1037.14 -2.2451 -3.89763 0
M  V30 10684 C 1038.46 -0.218194 -4.39559 0
M  V30 10685 H 1035.58 -0.178477 -0.715063 0
M  V30 10686 H 1038.22 -1.0956 -1.55231 0
M  V30 10687 H 1036.37 -0.231403 -3.8781 0
M  V30 10688 H 1038.04 -2.83049 -3.64254 0
M  V30 10689 H 1036.28 -2.71621 -3.38237 0
M  V30 10690 H 1036.95 -2.37911 -4.98099 0
M  V30 10691 H 1039.43 -0.661274 -4.10812 0
M  V30 10692 H 1038.31 -0.430983 -5.47205 0
M  V30 10693 H 1038.57 0.880056 -4.33252 0
M  V30 10694 N 1037.63 1.44308 -0.633487 0
M  V30 10695 C 1038.57 2.30694 0.0700257 0
M  V30 10696 C 1039.54 1.43618 0.834447 0
M  V30 10697 O 1040.73 1.72517 0.815014 0
M  V30 10698 C 1037.87 3.28929 1.04403 0
M  V30 10699 C 1036.98 4.31106 0.277779 0
M  V30 10700 C 1036.12 5.16433 1.24381 0
M  V30 10701 C 1035.16 6.10317 0.466855 0
M  V30 10702 N 1034.29 6.88335 1.38347 0
M  V30 10703 H 1039.13 2.90311 -0.672567 0
M  V30 10704 H 1036.67 1.43034 -0.343449 0
M  V30 10705 H 1038.63 3.84373 1.62214 0
M  V30 10706 H 1037.26 2.71006 1.75372 0
M  V30 10707 H 1036.31 3.78115 -0.416292 0
M  V30 10708 H 1037.62 4.97725 -0.327251 0
M  V30 10709 H 1036.78 5.76406 1.89318 0
M  V30 10710 H 1035.51 4.49893 1.88276 0
M  V30 10711 H 1034.52 5.49451 -0.195989 0
M  V30 10712 H 1035.74 6.78894 -0.167414 0
M  V30 10713 H 1033.69 6.24461 2.00959 0
M  V30 10714 H 1033.61 7.51402 0.832517 0
M  V30 10715 H 1034.88 7.52829 2.0216 0
M  V30 10716 N 1039.1 0.374177 1.53094 0
M  V30 10717 C 1040.52 0.0234783 1.59583 0
M  V30 10718 C 1040.72 -1.45984 1.38892 0
M  V30 10719 O 1039.78 -2.22251 1.19836 0
M  V30 10720 C 1041.09 0.487117 2.96728 0
M  V30 10721 C 1042.64 0.442073 3.09862 0
M  V30 10722 C 1043.11 0.881659 4.49434 0
M  V30 10723 N 1044.6 0.837062 4.55574 0
M  V30 10724 C 1045.34 1.14878 5.61774 0
M  V30 10725 N 1044.83 1.53022 6.75689 0
M  V30 10726 N 1046.63 1.07102 5.51802 0
M  V30 10727 H 1038.78 1.34003 1.64794 0
M  V30 10728 H 1041.04 0.548281 0.773364 0
M  V30 10729 H 1040.75 1.52252 3.17037 0
M  V30 10730 H 1040.62 -0.121772 3.77003 0
M  V30 10731 H 1043.01 -0.584216 2.89259 0
M  V30 10732 H 1043.09 1.08657 2.31576 0
M  V30 10733 H 1042.73 1.90611 4.70776 0
M  V30 10734 H 1042.66 0.214326 5.26164 0
M  V30 10735 H 1045.15 0.556173 3.73785 0
M  V30 10736 H 1045.47 1.75211 7.52676 0
M  V30 10737 H 1043.81 1.56895 6.77059 0
M  V30 10738 H 1047 0.772149 4.61688 0
M  V30 10739 H 1047.18 1.31728 6.3447 0
M  V30 10740 N 1040.58 -1.57259 0.103575 0
M  V30 10741 C 1041.49 -2.18018 -0.866327 0
M  V30 10742 C 1042.51 -1.15198 -1.30404 0
M  V30 10743 O 1043.68 -1.47605 -1.37021 0
M  V30 10744 C 1040.75 -2.75533 -2.10434 0
M  V30 10745 C 1039.81 -3.93337 -1.72002 0
M  V30 10746 C 1039.04 -4.481 -2.89901 0
M  V30 10747 O 1039.27 -4.01784 -4.04877 0
M  V30 10748 O 1038.2 -5.39004 -2.67877 0
M  V30 10749 H 1042.03 -3.01322 -0.379338 0
M  V30 10750 H 1039.61 -1.48907 -0.121228 0
M  V30 10751 H 1041.49 -3.12259 -2.8297 0
M  V30 10752 H 1040.17 -1.9527 -2.58169 0
M  V30 10753 H 1039.08 -3.61408 -0.966193 0
M  V30 10754 H 1040.41 -4.74989 -1.29022 0
M  V30 10755 N 1042.06 0.170153 -1.56679 0
M  V30 10756 C 1043.31 0.884841 -1.817 0
M  V30 10757 C 1043.63 1.82731 -0.680763 0
M  V30 10758 O 1042.9 1.936 0.299294 0
M  V30 10759 H 1041.48 0.329738 -0.670285 0
M  V30 10760 H 1044.14 0.169691 -1.9416 0
M  V30 10761 H 1043.24 1.46104 -2.7579 0
M  V30 10762 N 1043.54 1.5137 0.438746 0
M  V30 10763 C 1044.49 1.73154 1.55308 0
M  V30 10764 C 1045.48 0.597825 1.58501 0
M  V30 10765 O 1046.69 0.77917 1.62262 0
M  V30 10766 H 1043.06 0.547083 0.51595 0
M  V30 10767 H 1045.03 2.66566 1.34108 0
M  V30 10768 C 1043.78 1.87242 2.92977 0
M  V30 10769 H 1043.1 2.73884 2.91252 0
M  V30 10770 H 1044.54 2.06497 3.70317 0
M  V30 10771 C 1043 0.631887 3.30921 0
M  V30 10772 O 1043.53 -0.214099 4.01129 0
M  V30 10773 N 1041.74 0.47639 2.86669 0
M  V30 10774 H 1041.29 1.16589 2.29706 0
M  V30 10775 H 1041.24 -0.352403 3.12419 0
M  V30 10776 N 1045.02 -0.694098 1.41492 0
M  V30 10777 C 1046.24 -1.48789 1.44488 0
M  V30 10778 C 1046.67 -1.88028 0.0521588 0
M  V30 10779 O 1046.02 -1.54727 -0.944952 0
M  V30 10780 C 1046.07 -2.72586 2.3607 0
M  V30 10781 O 1045.18 -3.70128 1.81876 0
M  V30 10782 H 1044.52 -0.447758 0.490315 0
M  V30 10783 H 1047.05 -0.853036 1.85969 0
M  V30 10784 H 1047.06 -3.20877 2.51995 0
M  V30 10785 H 1045.73 -2.43363 3.37264 0
M  V30 10786 H 1044.31 -3.29069 1.75408 0
M  V30 10787 N 1046.49 -1.27344 -0.928501 0
M  V30 10788 C 1047.72 -1.16557 -1.7155 0
M  V30 10789 C 1048.14 0.274044 -1.86093 0
M  V30 10790 O 1047.5 1.19847 -1.36038 0
M  V30 10791 C 1047.55 -1.85332 -3.09329 0
M  V30 10792 O 1046.65 -1.15074 -3.9602 0
M  V30 10793 H 1046 -0.405423 -0.525859 0
M  V30 10794 H 1048.53 -1.68399 -1.16202 0
M  V30 10795 H 1048.54 -1.92659 -3.59648 0
M  V30 10796 H 1047.21 -2.90056 -2.98061 0
M  V30 10797 H 1045.79 -1.1581 -3.54461 0
M  V30 10798 N 1047.97 1.13488 -1.09353 0
M  V30 10799 C 1048.9 2.18563 -0.69012 0
M  V30 10800 C 1049.92 1.60585 0.267651 0
M  V30 10801 O 1051.11 1.78419 0.0538176 0
M  V30 10802 C 1048.21 3.389 0.00391255 0
M  V30 10803 C 1047.38 4.2639 -0.975209 0
M  V30 10804 C 1046.44 5.25258 -0.314719 0
M  V30 10805 O 1045.46 5.6101 -0.962119 0
M  V30 10806 N 1046.67 5.72978 0.931458 0
M  V30 10807 H 1049.43 2.53788 -1.59411 0
M  V30 10808 H 1046.99 1.28803 -0.980886 0
M  V30 10809 H 1048.98 4.02112 0.45696 0
M  V30 10810 H 1047.55 3.0192 0.81014 0
M  V30 10811 H 1046.77 3.59964 -1.60684 0
M  V30 10812 H 1048.06 4.817 -1.63836 0
M  V30 10813 H 1047.46 5.46078 1.477 0
M  V30 10814 H 1046.02 6.38131 1.32784 0
M  V30 10815 N 1049.45 0.880621 1.30701 0
M  V30 10816 C 1050.4 0.333562 2.30196 0
M  V30 10817 C 1051.39 -0.557092 1.59978 0
M  V30 10818 O 1052.6 -0.442009 1.74489 0
M  V30 10819 H 1048.97 0.0892036 0.746691 0
M  V30 10820 H 1050.95 1.18644 2.73799 0
M  V30 10821 C 1049.69 -0.440731 3.44895 0
M  V30 10822 H 1049.02 0.235353 3.99107 0
M  V30 10823 H 1050.46 -0.788676 4.166 0
M  V30 10824 C 1048.92 -1.63613 2.94504 0
M  V30 10825 O 1049.45 -2.73549 2.94166 0
M  V30 10826 N 1047.65 -1.47183 2.5057 0
M  V30 10827 H 1047.2 -0.577479 2.51044 0
M  V30 10828 H 1047.16 -2.27303 2.17211 0
M  V30 10829 N 1050.93 -1.4397 0.641131 0
M  V30 10830 C 1052.18 -2.02782 0.158406 0
M  V30 10831 C 1052.53 -1.496 -1.20986 0
M  V30 10832 O 1051.82 -0.674517 -1.79334 0
M  V30 10833 C 1052.02 -3.5727 0.0963368 0
M  V30 10834 C 1051.85 -4.25441 1.45704 0
M  V30 10835 C 1050.62 -4.62008 2.04637 0
M  V30 10836 C 1052.81 -4.55238 2.39297 0
M  V30 10837 N 1050.8 -5.15194 3.33839 0
M  V30 10838 C 1052.17 -5.09613 3.53121 0
M  V30 10839 C 1054.22 -4.37197 2.38251 0
M  V30 10840 C 1052.93 -5.47847 4.66108 0
M  V30 10841 C 1054.95 -4.76485 3.50309 0
M  V30 10842 C 1054.31 -5.30982 4.62858 0
M  V30 10843 H 1050.41 -0.775304 0.102117 0
M  V30 10844 H 1053 -1.75321 0.846805 0
M  V30 10845 H 1051.17 -3.84322 -0.561369 0
M  V30 10846 H 1052.9 -4.02757 -0.39614 0
M  V30 10847 H 1049.65 -4.46653 1.57474 0
M  V30 10848 H 1050.08 -5.46253 3.99921 0
M  V30 10849 H 1054.72 -3.94347 1.5248 0
M  V30 10850 H 1052.44 -5.89646 5.52579 0
M  V30 10851 H 1056.02 -4.6423 3.50687 0
M  V30 10852 H 1054.9 -5.6082 5.48133 0
M  V30 10853 N 1052.41 -0.382291 -1.52893 0
M  V30 10854 C 1053.34 0.491199 -2.23875 0
M  V30 10855 C 1054.35 1.03249 -1.25871 0
M  V30 10856 O 1055.54 0.936016 -1.5199 0
M  V30 10857 C 1052.64 1.6927 -2.936 0
M  V30 10858 C 1051.81 1.28 -4.18252 0
M  V30 10859 C 1050.87 2.34541 -4.71038 0
M  V30 10860 O 1049.9 1.96239 -5.34302 0
M  V30 10861 N 1051.1 3.6636 -4.50289 0
M  V30 10862 H 1053.87 -0.116897 -2.99472 0
M  V30 10863 H 1051.43 -0.208296 -1.60554 0
M  V30 10864 H 1053.42 2.40054 -3.25816 0
M  V30 10865 H 1051.99 2.20729 -2.21354 0
M  V30 10866 H 1051.21 0.40133 -3.92152 0
M  V30 10867 H 1052.5 0.98082 -4.99257 0
M  V30 10868 H 1051.9 4.00245 -3.99775 0
M  V30 10869 H 1050.45 4.332 -4.87013 0
M  V30 10870 N 1053.89 1.57202 -0.111913 0
M  V30 10871 C 1055.3 1.57713 0.244702 0
M  V30 10872 C 1055.5 1.12419 1.67225 0
M  V30 10873 O 1054.56 0.808329 2.39212 0
M  V30 10874 C 1055.87 3.00695 0.0178289 0
M  V30 10875 C 1057.42 3.12887 0.0842781 0
M  V30 10876 C 1057.89 4.57856 -0.114812 0
M  V30 10877 N 1059.38 4.6316 -0.0605423 0
M  V30 10878 C 1060.12 5.73086 -0.189594 0
M  V30 10879 N 1059.62 6.91787 -0.37442 0
M  V30 10880 N 1061.41 5.6195 -0.12967 0
M  V30 10881 H 1053.56 1.84947 -1.04443 0
M  V30 10882 H 1055.82 0.854418 -0.4107 0
M  V30 10883 H 1055.53 3.38093 -0.968802 0
M  V30 10884 H 1055.4 3.69611 0.752815 0
M  V30 10885 H 1057.79 2.7535 1.06143 0
M  V30 10886 H 1057.87 2.46528 -0.682474 0
M  V30 10887 H 1057.51 4.9609 -1.0889 0
M  V30 10888 H 1057.44 5.22297 0.671839 0
M  V30 10889 H 1059.94 3.77817 0.0790856 0
M  V30 10890 H 1060.25 7.71406 -0.463948 0
M  V30 10891 H 1058.59 6.93788 -0.410303 0
M  V30 10892 H 1061.78 4.68098 0.0137115 0
M  V30 10893 H 1061.96 6.47578 -0.233688 0
M  V30 10894 N 1055.36 -0.161842 1.56767 0
M  V30 10895 C 1056.61 -0.876925 1.82527 0
M  V30 10896 C 1056.94 -1.81831 0.690492 0
M  V30 10897 O 1056.19 -1.9304 -0.32159 0
M  V30 10898 C 1056.49 -1.69736 3.14522 0
M  V30 10899 C 1056.16 -0.904075 4.41743 0
M  V30 10900 C 1054.82 -0.685168 4.76297 0
M  V30 10901 C 1057.17 -0.348282 5.20035 0
M  V30 10902 C 1054.5 0.10048 5.86614 0
M  V30 10903 C 1056.85 0.424327 6.31175 0
M  V30 10904 C 1055.52 0.653948 6.64289 0
M  V30 10905 H 1054.79 -0.320889 0.667915 0
M  V30 10906 H 1057.43 -0.141338 1.90978 0
M  V30 10907 H 1055.74 -2.50262 3.01456 0
M  V30 10908 H 1057.44 -2.25386 3.31666 0
M  V30 10909 H 1054.03 -1.08474 4.14646 0
M  V30 10910 H 1058.21 -0.504721 4.93727 0
M  V30 10911 H 1053.47 0.288029 6.10721 0
M  V30 10912 H 1057.64 0.862203 6.91042 0
M  V30 10913 H 1055.27 1.26459 7.49608 0
M  V30 10914 N 1056.84 -1.516 -0.430713 0
M  V30 10915 C 1058.07 -1.68169 -1.20011 0
M  V30 10916 C 1058.48 -0.381406 -1.85316 0
M  V30 10917 O 1057.82 0.6506 -1.71793 0
M  V30 10918 C 1057.88 -2.7454 -2.32095 0
M  V30 10919 C 1057.55 -4.16942 -1.87104 0
M  V30 10920 C 1058.55 -5.01503 -1.37078 0
M  V30 10921 C 1056.23 -4.63075 -1.94594 0
M  V30 10922 C 1058.22 -6.3026 -0.951362 0
M  V30 10923 C 1055.91 -5.91827 -1.52264 0
M  V30 10924 C 1056.91 -6.75247 -1.02618 0
M  V30 10925 O 1056.6 -8.01591 -0.608905 0
M  V30 10926 H 1056.33 -0.567361 -0.367528 0
M  V30 10927 H 1058.88 -1.98819 -0.515759 0
M  V30 10928 H 1057.11 -2.39219 -3.03828 0
M  V30 10929 H 1058.8 -2.79921 -2.93937 0
M  V30 10930 H 1059.57 -4.67063 -1.30681 0
M  V30 10931 H 1055.45 -3.98262 -2.32182 0
M  V30 10932 H 1058.99 -6.95323 -0.563163 0
M  V30 10933 H 1054.89 -6.2578 -1.58333 0
M  V30 10934 H 1055.66 -8.15201 -0.73416 0
M  V30 10935 N 1058.32 0.686584 -1.41858 0
M  V30 10936 C 1059.25 1.81202 -1.40352 0
M  V30 10937 C 1060.26 1.5993 -0.304322 0
M  V30 10938 O 1061.45 1.69267 -0.566643 0
M  V30 10939 C 1058.55 3.18116 -1.16856 0
M  V30 10940 C 1057.73 3.66339 -2.38987 0
M  V30 10941 C 1056.79 4.8195 -2.11212 0
M  V30 10942 O 1055.81 4.93102 -2.84323 0
M  V30 10943 N 1057.01 5.69829 -1.10793 0
M  V30 10944 H 1059.78 1.82983 -2.37355 0
M  V30 10945 H 1057.34 0.869244 -1.36586 0
M  V30 10946 H 1059.33 3.93097 -0.962125 0
M  V30 10947 H 1057.9 3.11306 -0.284186 0
M  V30 10948 H 1057.12 2.82166 -2.75274 0
M  V30 10949 H 1058.41 3.95297 -3.2034 0
M  V30 10950 H 1057.81 5.63459 -0.503012 0
M  V30 10951 H 1056.36 6.44671 -0.961379 0
M  V30 10952 N 1059.8 1.27835 0.921735 0
M  V30 10953 C 1060.73 1.136 2.04003 0
M  V30 10954 C 1061.71 0.0358756 1.70062 0
M  V30 10955 O 1062.89 0.211438 1.93046 0
M  V30 10956 C 1060.02 0.788697 3.38226 0
M  V30 10957 C 1058.98 1.84272 3.863 0
M  V30 10958 C 1058.3 1.34923 5.17397 0
M  V30 10959 C 1059.6 3.24788 4.09035 0
M  V30 10960 H 1061.3 2.07149 2.1617 0
M  V30 10961 H 1058.84 0.997349 1.0387 0
M  V30 10962 H 1060.8 0.675911 4.15944 0
M  V30 10963 H 1059.52 -0.182499 3.2609 0
M  V30 10964 H 1058.18 1.94451 3.1078 0
M  V30 10965 H 1057.83 0.367328 5.01657 0
M  V30 10966 H 1057.53 2.05397 5.50532 0
M  V30 10967 H 1059.05 1.24951 5.97678 0
M  V30 10968 H 1060.47 3.17575 4.77304 0
M  V30 10969 H 1058.86 3.93025 4.53488 0
M  V30 10970 H 1059.93 3.69398 3.14122 0
M  V30 10971 N 1061.28 -1.12907 1.09954 0
M  V30 10972 C 1062.5 -1.88138 0.860905 0
M  V30 10973 C 1062.92 -1.79402 -0.588256 0
M  V30 10974 O 1062.28 -1.16442 -1.40526 0
M  V30 10975 C 1062.33 -3.37537 1.29425 0
M  V30 10976 O 1062.05 -3.46056 2.68658 0
M  V30 10977 C 1063.55 -4.29721 1.08879 0
M  V30 10978 H 1060.77 -0.595437 0.309347 0
M  V30 10979 H 1063.31 -1.42894 1.46292 0
M  V30 10980 H 1061.47 -3.80344 0.736009 0
M  V30 10981 H 1061.88 -4.38969 2.87065 0
M  V30 10982 H 1063.36 -5.32854 1.4412 0
M  V30 10983 H 1063.83 -4.39192 0.0270053 0
M  V30 10984 H 1064.44 -3.9269 1.63325 0
M  V30 10985 N 1062.75 -0.88754 -1.30232 0
M  V30 10986 C 1063.7 -0.354497 -2.28061 0
M  V30 10987 C 1064.67 0.556732 -1.56492 0
M  V30 10988 O 1065.86 0.484597 -1.84543 0
M  V30 10989 C 1063 0.422701 -3.42501 0
M  V30 10990 C 1062.11 -0.518036 -4.28883 0
M  V30 10991 C 1061.24 0.275011 -5.30488 0
M  V30 10992 C 1060.28 -0.661032 -6.0852 0
M  V30 10993 N 1059.42 0.0968509 -7.02033 0
M  V30 10994 H 1064.26 -1.19388 -2.73039 0
M  V30 10995 H 1061.8 -0.600091 -1.34303 0
M  V30 10996 H 1063.75 0.889249 -4.07613 0
M  V30 10997 H 1062.38 1.22664 -2.98586 0
M  V30 10998 H 1061.44 -1.10308 -3.64055 0
M  V30 10999 H 1062.75 -1.23504 -4.83268 0
M  V30 11000 H 1061.9 0.803301 -6.01358 0
M  V30 11001 H 1060.64 1.02522 -4.76802 0
M  V30 11002 H 1059.65 -1.20093 -5.36524 0
M  V30 11003 H 1060.87 -1.41037 -6.64293 0
M  V30 11004 H 1058.82 0.829548 -6.50734 0
M  V30 11005 H 1058.73 -0.560476 -7.5392 0
M  V30 11006 H 1060 0.6058 -7.77142 0
M  V30 11007 N 1064.23 1.43628 -0.648757 0
M  V30 11008 C 1065.16 2.33478 0.0320785 0
M  V30 11009 C 1066.14 1.49217 0.816605 0
M  V30 11010 O 1067.33 1.77892 0.778974 0
M  V30 11011 C 1064.46 3.32525 1.00222 0
M  V30 11012 C 1063.41 4.2674 0.328119 0
M  V30 11013 C 1062.74 5.15791 1.4094 0
M  V30 11014 C 1064.04 5.16493 -0.776701 0
M  V30 11015 H 1065.73 2.90657 -0.718257 0
M  V30 11016 H 1063.28 1.3976 -0.346852 0
M  V30 11017 H 1065.23 3.94277 1.4874 0
M  V30 11018 H 1063.96 2.73593 1.78366 0
M  V30 11019 H 1062.61 3.66346 -0.136569 0
M  V30 11020 H 1062.26 4.53201 2.18216 0
M  V30 11021 H 1061.96 5.79645 0.963631 0
M  V30 11022 H 1063.49 5.80416 1.89603 0
M  V30 11023 H 1064.9 5.7208 -0.373878 0
M  V30 11024 H 1063.3 5.89043 -1.14667 0
M  V30 11025 H 1064.37 4.56448 -1.63654 0
M  V30 11026 N 1065.71 0.390394 1.52688 0
M  V30 11027 C 1066.64 -0.43567 2.294 0
M  V30 11028 C 1067.62 -1.06253 1.32832 0
M  V30 11029 O 1068.81 -1.07509 1.61726 0
M  V30 11030 C 1065.94 -1.56259 3.10162 0
M  V30 11031 C 1064.89 -1.06172 4.14622 0
M  V30 11032 C 1064.22 -2.2808 4.83615 0
M  V30 11033 C 1065.52 -0.128902 5.22141 0
M  V30 11034 H 1067.21 0.204384 2.98702 0
M  V30 11035 H 1064.76 0.0997377 1.43654 0
M  V30 11036 H 1066.71 -2.14732 3.62585 0
M  V30 11037 H 1065.43 -2.23025 2.38595 0
M  V30 11038 H 1064.09 -0.499518 3.63181 0
M  V30 11039 H 1063.74 -2.93358 4.08595 0
M  V30 11040 H 1063.44 -1.95227 5.5422 0
M  V30 11041 H 1064.96 -2.87193 5.38844 0
M  V30 11042 H 1066.38 -0.621849 5.69917 0
M  V30 11043 H 1064.78 0.109919 5.99999 0
M  V30 11044 H 1065.85 0.821884 4.77884 0
M  V30 11045 N 1067.19 -1.57141 0.120249 0
M  V30 11046 C 1068.47 -1.8677 -0.581075 0
M  V30 11047 C 1068.85 -1.02163 -1.84732 0
M  V30 11048 O 1068.19 -0.100897 -2.28277 0
M  V30 11049 C 1068.4 -3.37923 -0.872316 0
M  V30 11050 C 1069.75 -4.0655 -1.22483 0
M  V30 11051 O 1070.78 -3.42948 -0.962539 0
M  V30 11052 O 1069.63 -5.18821 -1.71717 0
M  V30 11053 H 1066.73 -0.773219 -0.293362 0
M  V30 11054 H 1069.27 -1.68992 0.154846 0
M  V30 11055 H 1068.05 -3.91292 0.0249416 0
M  V30 11056 H 1067.67 -3.61135 -1.66335 0
M  V30 11057 N 1068.67 0.153526 -1.5685 0
M  V30 11058 C 1069.89 0.886343 -1.87507 0
M  V30 11059 C 1070.32 1.74244 -0.708565 0
M  V30 11060 O 1069.67 1.78045 0.341997 0
M  V30 11061 C 1069.72 1.72428 -3.16703 0
M  V30 11062 O 1068.83 2.82784 -3.00178 0
M  V30 11063 H 1068.17 0.247259 -0.616246 0
M  V30 11064 H 1070.7 0.146306 -2.04076 0
M  V30 11065 H 1070.71 2.12062 -3.4856 0
M  V30 11066 H 1069.38 1.09558 -4.01211 0
M  V30 11067 H 1067.96 2.46604 -2.79716 0
M  V30 11068 N 1070.14 1.51827 0.422667 0
M  V30 11069 C 1071.08 1.68901 1.53453 0
M  V30 11070 C 1072.06 0.536549 1.53492 0
M  V30 11071 O 1073.24 0.762226 1.72402 0
M  V30 11072 C 1070.37 1.71599 2.92013 0
M  V30 11073 C 1069.41 2.92984 3.0994 0
M  V30 11074 S 1070.25 4.53559 2.84683 0
M  V30 11075 C 1071.4 4.59024 4.25498 0
M  V30 11076 H 1071.63 2.62943 1.38739 0
M  V30 11077 H 1069.17 1.41695 0.613347 0
M  V30 11078 H 1071.13 1.73838 3.71874 0
M  V30 11079 H 1069.79 0.787083 3.04079 0
M  V30 11080 H 1068.98 2.91315 4.1128 0
M  V30 11081 H 1068.58 2.88562 2.37924 0
M  V30 11082 H 1070.87 4.35567 5.18929 0
M  V30 11083 H 1071.82 5.60904 4.32195 0
M  V30 11084 H 1072.22 3.88193 4.09837 0
M  V30 11085 N 1071.62 -0.679052 1.4222 0
M  V30 11086 C 1072.57 -1.78522 1.41824 0
M  V30 11087 C 1073.56 -1.58262 0.290179 0
M  V30 11088 O 1074.75 -1.68813 0.532092 0
M  V30 11089 C 1071.88 -3.16952 1.31895 0
M  V30 11090 C 1070.96 -3.42849 2.4963 0
M  V30 11091 N 1071.35 -3.39354 3.75063 0
M  V30 11092 C 1069.65 -3.73468 2.43799 0
M  V30 11093 C 1070.35 -3.64617 4.53243 0
M  V30 11094 N 1069.33 -3.85174 3.83591 0
M  V30 11095 H 1073.13 -1.74206 2.36705 0
M  V30 11096 H 1070.65 -0.879719 1.36509 0
M  V30 11097 H 1072.64 -3.96214 1.29693 0
M  V30 11098 H 1071.3 -3.22467 0.380127 0
M  V30 11099 H 1072.31 -3.19354 4.07718 0
M  V30 11100 H 1068.99 -3.86254 1.58474 0
M  V30 11101 H 1070.38 -3.67912 5.62219 0
M  V30 11102 N 1073.1 -1.28322 -0.914942 0
M  V30 11103 C 1074.01 -1.13993 -2.05043 0
M  V30 11104 C 1075.03 -0.0667921 -1.73872 0
M  V30 11105 O 1076.2 -0.275845 -1.99502 0
M  V30 11106 C 1073.27 -0.801856 -3.373 0
M  V30 11107 C 1072.33 -1.95723 -3.82088 0
M  V30 11108 C 1071.56 -1.63519 -5.08033 0
M  V30 11109 O 1071.78 -0.54899 -5.67752 0
M  V30 11110 O 1070.72 -2.47844 -5.48504 0
M  V30 11111 H 1074.54 -2.09313 -2.2005 0
M  V30 11112 H 1072.13 -1.0763 -1.03616 0
M  V30 11113 H 1074.01 -0.627214 -4.16706 0
M  V30 11114 H 1072.69 0.121696 -3.23471 0
M  V30 11115 H 1071.59 -2.18702 -3.03514 0
M  V30 11116 H 1072.93 -2.86144 -4.00478 0
M  V30 11117 N 1074.58 1.12322 -1.10551 0
M  V30 11118 C 1075.82 1.8413 -0.849932 0
M  V30 11119 C 1076.16 1.83938 0.622946 0
M  V30 11120 O 1075.43 1.28579 1.45937 0
M  V30 11121 C 1075.72 3.31751 -1.40048 0
M  V30 11122 C 1075.57 3.40391 -2.9403 0
M  V30 11123 C 1076.89 4.27543 -1.04379 0
M  V30 11124 H 1074.01 0.668533 -0.310213 0
M  V30 11125 H 1076.65 1.31766 -1.36886 0
M  V30 11126 H 1074.8 3.76475 -0.959102 0
M  V30 11127 H 1076.47 3.04294 -3.46703 0
M  V30 11128 H 1074.71 2.809 -3.30571 0
M  V30 11129 H 1075.38 4.44252 -3.27635 0
M  V30 11130 H 1077.86 3.90951 -1.42466 0
M  V30 11131 H 1076.74 5.2924 -1.4559 0
M  V30 11132 H 1077 4.42075 0.0466316 0
M  V30 11133 N 1076.06 0.894434 1.2976 0
M  V30 11134 C 1077.3 0.518435 1.96061 0
M  V30 11135 C 1077.64 -0.931882 1.70381 0
M  V30 11136 O 1076.91 -1.65988 1.01381 0
M  V30 11137 C 1077.19 0.80519 3.50982 0
M  V30 11138 C 1077.05 2.30683 3.86142 0
M  V30 11139 C 1078.37 0.288096 4.39156 0
M  V30 11140 H 1075.48 0.18983 0.712133 0
M  V30 11141 H 1078.13 1.12016 1.53468 0
M  V30 11142 H 1076.28 0.293071 3.87393 0
M  V30 11143 H 1077.95 2.88808 3.59705 0
M  V30 11144 H 1076.19 2.76968 3.33873 0
M  V30 11145 H 1076.86 2.45805 4.94251 0
M  V30 11146 H 1079.34 0.726547 4.09708 0
M  V30 11147 H 1078.21 0.517985 5.4645 0
M  V30 11148 H 1078.48 -0.811018 4.34597 0
M  V30 11149 N 1077.53 -1.43282 0.656365 0
M  V30 11150 C 1078.44 -2.34576 -0.033864 0
M  V30 11151 C 1079.46 -1.5406 -0.808793 0
M  V30 11152 O 1080.64 -1.867 -0.755322 0
M  V30 11153 C 1077.7 -3.32378 -0.986197 0
M  V30 11154 C 1076.76 -4.28797 -0.207851 0
M  V30 11155 C 1076 -5.21927 -1.11482 0
M  V30 11156 O 1076.22 -5.19554 -2.35414 0
M  V30 11157 O 1075.15 -5.99045 -0.585536 0
M  V30 11158 H 1078.98 -2.95099 0.717668 0
M  V30 11159 H 1076.56 -1.43475 0.416556 0
M  V30 11160 H 1078.45 -3.9251 -1.53341 0
M  V30 11161 H 1077.12 -2.74354 -1.7179 0
M  V30 11162 H 1076.03 -3.72134 0.383022 0
M  V30 11163 H 1077.36 -4.89811 0.48435 0
M  V30 11164 N 1079.01 -0.398486 -1.52479 0
M  V30 11165 C 1079.96 0.447001 -2.28264 0
M  V30 11166 C 1080.96 1.05511 -1.32529 0
M  V30 11167 O 1082.16 0.994528 -1.5003 0
M  V30 11168 H 1078.54 0.162919 -0.73414 0
M  V30 11169 H 1080.51 -0.213534 -2.97635 0
M  V30 11170 C 1079.26 1.55724 -3.10879 0
M  V30 11171 H 1078.58 1.09864 -3.84409 0
M  V30 11172 H 1080.02 2.12286 -3.67029 0
M  V30 11173 C 1078.48 2.51853 -2.23768 0
M  V30 11174 O 1079.01 3.55483 -1.87069 0
M  V30 11175 N 1077.21 2.2181 -1.87746 0
M  V30 11176 H 1076.76 1.3757 -2.17789 0
M  V30 11177 H 1076.72 2.86376 -1.29753 0
M  V30 11178 N 1080.49 1.57075 -0.12858 0
M  V30 11179 C 1081.42 2.18833 0.814519 0
M  V30 11180 C 1082.4 1.13114 1.2704 0
M  V30 11181 O 1083.59 1.41387 1.33129 0
M  V30 11182 C 1080.72 2.79535 2.06101 0
M  V30 11183 C 1079.67 3.9092 1.74257 0
M  V30 11184 C 1079 4.38473 3.06015 0
M  V30 11185 C 1080.3 5.1257 1.00345 0
M  V30 11186 H 1081.99 2.97895 0.299862 0
M  V30 11187 H 1079.54 1.4329 0.14279 0
M  V30 11188 H 1081.49 3.21401 2.72543 0
M  V30 11189 H 1080.21 1.97777 2.59907 0
M  V30 11190 H 1078.87 3.49645 1.102 0
M  V30 11191 H 1078.52 3.53561 3.57776 0
M  V30 11192 H 1078.22 5.13591 2.85479 0
M  V30 11193 H 1079.75 4.82997 3.7356 0
M  V30 11194 H 1081.16 5.51395 1.56959 0
M  V30 11195 H 1079.56 5.93333 0.898693 0
M  V30 11196 H 1080.63 4.84899 -0.0081335 0
M  V30 11197 N 1081.97 -0.145205 1.5693 0
M  V30 11198 C 1082.9 -1.18096 2.01434 0
M  V30 11199 C 1083.88 -1.447 0.894204 0
M  V30 11200 O 1085.07 -1.55589 1.16214 0
M  V30 11201 C 1082.2 -2.51369 2.39647 0
M  V30 11202 C 1081.15 -2.39283 3.54863 0
M  V30 11203 C 1080.48 -3.77283 3.78895 0
M  V30 11204 C 1081.78 -1.8754 4.87469 0
M  V30 11205 H 1083.47 -0.810897 2.8821 0
M  V30 11206 H 1081.02 -0.388624 1.38657 0
M  V30 11207 H 1082.97 -3.24054 2.69382 0
M  V30 11208 H 1081.69 -2.90214 1.49811 0
M  V30 11209 H 1080.35 -1.6905 3.25296 0
M  V30 11210 H 1080 -4.13567 2.86307 0
M  V30 11211 H 1079.7 -3.70057 4.56433 0
M  V30 11212 H 1081.22 -4.51514 4.11057 0
M  V30 11213 H 1082.64 -2.50019 5.1591 0
M  V30 11214 H 1081.03 -1.912 5.68826 0
M  V30 11215 H 1082.1 -0.831194 4.77723 0
M  V30 11216 N 1083.45 -1.52049 -0.414609 0
M  V30 11217 C 1084.4 -1.75603 -1.52533 0
M  V30 11218 C 1085.39 -0.622965 -1.57529 0
M  V30 11219 O 1086.6 -0.804886 -1.61002 0
M  V30 11220 H 1082.97 -0.555222 -0.507181 0
M  V30 11221 H 1084.94 -2.68666 -1.2985 0
M  V30 11222 C 1083.69 -1.9188 -2.89961 0
M  V30 11223 H 1083.01 -2.78483 -2.86857 0
M  V30 11224 H 1084.45 -2.12363 -3.66985 0
M  V30 11225 C 1082.91 -0.684453 -3.29874 0
M  V30 11226 O 1083.44 0.150256 -4.01419 0
M  V30 11227 N 1081.65 -0.521936 -2.85874 0
M  V30 11228 H 1081.2 -1.20229 -2.27822 0
M  V30 11229 H 1081.15 0.302655 -3.1294 0
M  V30 11230 N 1084.93 0.6715 -1.42579 0
M  V30 11231 C 1086.16 1.4576 -1.46416 0
M  V30 11232 C 1086.56 1.89051 -0.0749843 0
M  V30 11233 O 1085.91 1.58927 0.921296 0
M  V30 11234 C 1085.97 2.7365 -2.33144 0
M  V30 11235 C 1085.63 2.52414 -3.80968 0
M  V30 11236 C 1086.63 2.16804 -4.72538 0
M  V30 11237 C 1084.31 2.67306 -4.25268 0
M  V30 11238 C 1086.31 1.96358 -6.06401 0
M  V30 11239 C 1084 2.46475 -5.5919 0
M  V30 11240 C 1084.99 2.11055 -6.49573 0
M  V30 11241 O 1084.68 1.90428 -7.8102 0
M  V30 11242 H 1084.41 0.454896 -0.500045 0
M  V30 11243 H 1086.97 0.832198 -1.87786 0
M  V30 11244 H 1085.2 3.38684 -1.86629 0
M  V30 11245 H 1086.89 3.35543 -2.28398 0
M  V30 11246 H 1087.65 2.04891 -4.39596 0
M  V30 11247 H 1083.53 2.93854 -3.55206 0
M  V30 11248 H 1087.08 1.68634 -6.76911 0
M  V30 11249 H 1082.97 2.57985 -5.91704 0
M  V30 11250 H 1083.74 2.05 -7.92412 0
M  V30 11251 N 1086.4 1.28806 0.908124 0
M  V30 11252 C 1087.64 1.17546 1.67219 0
M  V30 11253 C 1088.01 -0.270396 1.90086 0
M  V30 11254 O 1089.21 -0.505808 2.63998 0
M  V30 11255 C 1087.48 1.95774 2.99011 0
M  V30 11256 S 1089.04 2.00953 3.90081 0
M  V30 11257 H 1085.86 0.419283 0.574215 0
M  V30 11258 H 1088.46 1.6298 1.07971 0
M  V30 11259 H 1087.16 2.99978 2.80074 0
M  V30 11260 H 1086.69 1.50911 3.63303 0
M  V30 11261 H 1088.71 1.1201 4.83392 0
M  V30 11262 N 1087.88 -1.11734 1.11145 0
M  V30 11263 C 1089.13 -1.83405 0.858413 0
M  V30 11264 C 1089.46 -1.84488 -0.615975 0
M  V30 11265 O 1088.71 -1.29123 -1.47057 0
M  V30 11266 C 1089.01 -3.3046 1.36129 0
M  V30 11267 C 1088.68 -3.4954 2.84837 0
M  V30 11268 C 1087.34 -3.54456 3.25445 0
M  V30 11269 C 1089.69 -3.56048 3.8063 0
M  V30 11270 C 1087.02 -3.63431 4.60581 0
M  V30 11271 C 1089.37 -3.66554 5.15579 0
M  V30 11272 C 1088.03 -3.69728 5.55749 0
M  V30 11273 H 1087.3 -0.671128 0.314115 0
M  V30 11274 H 1089.95 -1.31795 1.38933 0
M  V30 11275 H 1088.26 -3.84544 0.750547 0
M  V30 11276 H 1089.95 -3.84398 1.14188 0
M  V30 11277 H 1086.54 -3.46382 2.52423 0
M  V30 11278 H 1090.73 -3.51513 3.5036 0
M  V30 11279 H 1085.98 -3.64164 4.91116 0
M  V30 11280 H 1090.16 -3.70532 5.89643 0
M  V30 11281 H 1087.78 -3.76435 6.60455 0
M  V30 11282 N 1089.36 -0.901303 -1.29284 0
M  V30 11283 C 1090.29 -0.337552 -2.26701 0
M  V30 11284 C 1091.3 0.517039 -1.54371 0
M  V30 11285 O 1092.49 0.333937 -1.75349 0
M  V30 11286 C 1089.59 0.537214 -3.34615 0
M  V30 11287 C 1088.77 -0.292017 -4.36424 0
M  V30 11288 C 1087.83 0.515837 -5.23666 0
M  V30 11289 O 1086.85 -0.0672303 -5.6916 0
M  V30 11290 N 1088.05 1.82159 -5.51179 0
M  V30 11291 H 1090.82 -1.17484 -2.75713 0
M  V30 11292 H 1088.38 -0.765957 -1.42635 0
M  V30 11293 H 1090.37 1.0841 -3.8991 0
M  V30 11294 H 1088.94 1.2752 -2.85408 0
M  V30 11295 H 1088.16 -1.02031 -3.80767 0
M  V30 11296 H 1089.45 -0.859855 -5.01482 0
M  V30 11297 H 1088.85 2.318 -5.16028 0
M  V30 11298 H 1087.4 2.31556 -6.09282 0
M  V30 11299 N 1090.84 1.42931 -0.663954 0
M  V30 11300 C 1092.07 2.06028 -0.189808 0
M  V30 11301 C 1092.48 1.49827 1.14879 0
M  V30 11302 O 1091.84 0.633778 1.71142 0
M  V30 11303 C 1091.89 3.61349 -0.104343 0
M  V30 11304 O 1091.61 4.15463 -1.39004 0
M  V30 11305 C 1093.11 4.4154 0.394599 0
M  V30 11306 H 1090.33 0.664259 -0.0948744 0
M  V30 11307 H 1092.87 1.83255 -0.907632 0
M  V30 11308 H 1091.03 3.83271 0.564103 0
M  V30 11309 H 1091.44 5.09233 -1.25626 0
M  V30 11310 H 1092.92 5.50525 0.403329 0
M  V30 11311 H 1093.39 4.1534 1.4279 0
M  V30 11312 H 1094 4.24612 -0.241729 0
M  V30 11313 N 1092.32 0.406567 1.52266 0
M  V30 11314 C 1093.56 -0.170053 2.01785 0
M  V30 11315 C 1093.89 -1.45361 1.2923 0
M  V30 11316 O 1093.15 -1.91849 0.386342 0
M  V30 11317 C 1093.44 -0.467124 3.54334 0
M  V30 11318 C 1093.11 0.72693 4.45002 0
M  V30 11319 C 1091.77 1.05446 4.69505 0
M  V30 11320 C 1094.12 1.52493 4.98393 0
M  V30 11321 C 1091.45 2.18123 5.44646 0
M  V30 11322 C 1093.8 2.64244 5.74768 0
M  V30 11323 C 1092.47 2.97486 5.97544 0
M  V30 11324 H 1091.74 -0.0622267 0.738383 0
M  V30 11325 H 1094.39 0.54746 1.83508 0
M  V30 11326 H 1092.69 -1.26617 3.70777 0
M  V30 11327 H 1094.39 -0.926194 3.90157 0
M  V30 11328 H 1090.98 0.461666 4.26106 0
M  V30 11329 H 1095.16 1.28512 4.79373 0
M  V30 11330 H 1090.42 2.44228 5.60502 0
M  V30 11331 H 1094.59 3.26468 6.15136 0
M  V30 11332 H 1092.22 3.84913 6.5555 0
M  V30 11333 N 1093.79 -1.57004 0.136909 0
M  V30 11334 C 1094.72 -2.19262 -0.802902 0
M  V30 11335 C 1095.71 -1.13786 -1.26439 0
M  V30 11336 O 1096.89 -1.42091 -1.32377 0
M  V30 11337 C 1094.02 -2.80624 -2.04615 0
M  V30 11338 C 1092.97 -3.91839 -1.72181 0
M  V30 11339 C 1092.3 -4.4009 -3.03686 0
M  V30 11340 C 1093.6 -5.13095 -0.976249 0
M  V30 11341 H 1095.29 -2.98049 -0.28406 0
M  V30 11342 H 1092.84 -1.43364 -0.135189 0
M  V30 11343 H 1094.79 -3.22842 -2.70834 0
M  V30 11344 H 1093.52 -1.99153 -2.58855 0
M  V30 11345 H 1092.18 -3.50224 -1.08344 0
M  V30 11346 H 1091.82 -3.55454 -3.55896 0
M  V30 11347 H 1091.52 -5.15098 -2.82751 0
M  V30 11348 H 1093.05 -4.84971 -3.70993 0
M  V30 11349 H 1094.46 -5.5222 -1.54033 0
M  V30 11350 H 1092.86 -5.93801 -0.867214 0
M  V30 11351 H 1093.93 -4.84888 0.0338488 0
M  V30 11352 N 1095.27 0.136881 -1.57004 0
M  V30 11353 C 1096.55 0.87705 -1.74835 0
M  V30 11354 C 1096.93 1.98886 -0.707639 0
M  V30 11355 O 1096.28 2.26879 0.271652 0
M  V30 11356 C 1096.49 1.41021 -3.1924 0
M  V30 11357 C 1097.84 1.86963 -3.81222 0
M  V30 11358 O 1098.86 1.5074 -3.22732 0
M  V30 11359 O 1097.72 2.53798 -4.83993 0
M  V30 11360 H 1094.81 0.415192 -0.715223 0
M  V30 11361 H 1097.36 0.122016 -1.69261 0
M  V30 11362 H 1096.13 0.611677 -3.8649 0
M  V30 11363 H 1095.75 2.22846 -3.2928 0
M  V30 11364 N 1096.75 1.52266 0.40654 0
M  V30 11365 C 1097.7 1.75794 1.4955 0
M  V30 11366 C 1098.67 0.600472 1.54866 0
M  V30 11367 O 1099.85 0.838305 1.71397 0
M  V30 11368 C 1096.99 1.91682 2.86971 0
M  V30 11369 C 1096.11 3.19337 2.90943 0
M  V30 11370 C 1095.24 3.25641 4.1968 0
M  V30 11371 C 1094.28 4.47488 4.17637 0
M  V30 11372 N 1093.42 4.51171 5.37949 0
M  V30 11373 H 1098.26 2.68733 1.28789 0
M  V30 11374 H 1095.79 1.33157 0.625102 0
M  V30 11375 H 1097.75 1.98877 3.66748 0
M  V30 11376 H 1096.38 1.02121 3.06221 0
M  V30 11377 H 1095.43 3.21301 2.03642 0
M  V30 11378 H 1096.75 4.09153 2.85299 0
M  V30 11379 H 1095.9 3.31922 5.07851 0
M  V30 11380 H 1094.64 2.33769 4.28023 0
M  V30 11381 H 1093.64 4.41351 3.27856 0
M  V30 11382 H 1094.87 5.40659 4.10932 0
M  V30 11383 H 1092.81 3.62182 5.46955 0
M  V30 11384 H 1092.73 5.34835 5.3431 0
M  V30 11385 H 1094 4.61685 6.28066 0
M  V30 11386 N 1098.23 -0.663929 1.42933 0
M  V30 11387 C 1099.46 -1.45192 1.474 0
M  V30 11388 C 1099.87 -1.88592 0.0886014 0
M  V30 11389 O 1099.23 -1.58824 -0.898962 0
M  V30 11390 C 1099.28 -2.69394 2.41059 0
M  V30 11391 O 1099 -2.27812 3.7421 0
M  V30 11392 C 1100.5 -3.62855 2.54659 0
M  V30 11393 H 1097.72 -0.446394 0.500973 0
M  V30 11394 H 1100.27 -0.814875 1.87563 0
M  V30 11395 H 1098.42 -3.29262 2.0412 0
M  V30 11396 H 1098.83 -3.08095 4.24474 0
M  V30 11397 H 1100.31 -4.46698 3.24291 0
M  V30 11398 H 1100.79 -4.09487 1.58799 0
M  V30 11399 H 1101.39 -3.08874 2.92364 0
M  V30 11400 N 1099.71 -1.29285 -0.901281 0
M  V30 11401 C 1100.64 -1.08603 -2.007 0
M  V30 11402 C 1101.62 0.00162233 -1.626 0
M  V30 11403 O 1102.8 -0.148764 -1.87912 0
M  V30 11404 C 1099.93 -0.652972 -3.32346 0
M  V30 11405 C 1098.97 -1.73911 -3.89432 0
M  V30 11406 S 1099.81 -3.33797 -4.18736 0
M  V30 11407 C 1100.96 -2.92355 -5.53425 0
M  V30 11408 H 1101.2 -2.02216 -2.17936 0
M  V30 11409 H 1098.73 -1.13414 -1.04769 0
M  V30 11410 H 1100.69 -0.409825 -4.08449 0
M  V30 11411 H 1099.35 0.263527 -3.12993 0
M  V30 11412 H 1098.54 -1.388 -4.84511 0
M  V30 11413 H 1098.14 -1.93569 -3.20011 0
M  V30 11414 H 1100.44 -2.39301 -6.33831 0
M  V30 11415 H 1101.38 -3.86278 -5.9346 0
M  V30 11416 H 1101.79 -2.30697 -5.15208 0
M  V30 11417 N 1101.18 1.11143 -1.11736 0
M  V30 11418 C 1102.41 1.87285 -0.891007 0
M  V30 11419 C 1102.83 1.79758 0.553971 0
M  V30 11420 O 1102.19 1.16221 1.39149 0
M  V30 11421 C 1102.24 3.33924 -1.36114 0
M  V30 11422 O 1101.34 4.08917 -0.534851 0
M  V30 11423 H 1100.69 0.581418 -0.320701 0
M  V30 11424 H 1103.22 1.40469 -1.4876 0
M  V30 11425 H 1103.23 3.84772 -1.35701 0
M  V30 11426 H 1101.9 3.38719 -2.41334 0
M  V30 11427 H 1100.48 3.67954 -0.605355 0
M  V30 11428 N 1102.66 0.908147 1.28804 0
M  V30 11429 C 1103.91 0.534332 1.94494 0
M  V30 11430 C 1104.22 -0.92552 1.72318 0
M  V30 11431 O 1105.43 -1.40724 2.32183 0
M  V30 11432 C 1103.89 0.904748 3.48342 0
M  V30 11433 C 1103.49 2.38394 3.79305 0
M  V30 11434 C 1105.24 0.601249 4.2022 0
M  V30 11435 C 1103.15 2.69478 5.26437 0
M  V30 11436 H 1102.08 0.196107 0.728051 0
M  V30 11437 H 1104.73 1.1063 1.46401 0
M  V30 11438 H 1103.11 0.261624 3.95135 0
M  V30 11439 H 1104.28 3.07333 3.43341 0
M  V30 11440 H 1102.6 2.65733 3.20586 0
M  V30 11441 H 1105.19 0.810225 5.28526 0
M  V30 11442 H 1105.54 -0.460669 4.13743 0
M  V30 11443 H 1106.07 1.20259 3.79187 0
M  V30 11444 H 1102.81 3.74501 5.37986 0
M  V30 11445 H 1102.33 2.05171 5.63618 0
M  V30 11446 H 1104.01 2.56187 5.94119 0
M  V30 11447 N 1104.14 -1.42577 0.671525 0
M  V30 11448 C 1105.05 -2.34598 -0.00898225 0
M  V30 11449 C 1106.07 -1.54909 -0.792407 0
M  V30 11450 O 1107.24 -1.87491 -0.735477 0
M  V30 11451 C 1104.31 -3.33405 -0.950888 0
M  V30 11452 C 1103.37 -4.28993 -0.16236 0
M  V30 11453 C 1102.6 -5.2308 -1.0594 0
M  V30 11454 O 1102.82 -5.22022 -2.2989 0
M  V30 11455 O 1101.76 -5.99632 -0.521966 0
M  V30 11456 H 1105.58 -2.94321 0.748927 0
M  V30 11457 H 1103.17 -1.43025 0.43175 0
M  V30 11458 H 1105.05 -3.94115 -1.49169 0
M  V30 11459 H 1103.73 -2.7616 -1.68871 0
M  V30 11460 H 1102.63 -3.71707 0.42247 0
M  V30 11461 H 1103.97 -4.8927 0.536274 0
M  V30 11462 N 1105.62 -0.414636 -1.52048 0
M  V30 11463 C 1106.87 0.159349 -2.01872 0
M  V30 11464 C 1107.19 1.44674 -1.29999 0
M  V30 11465 O 1106.45 1.91641 -0.396511 0
M  V30 11466 C 1106.75 0.448327 -3.54577 0
M  V30 11467 C 1106.41 -0.75052 -4.4461 0
M  V30 11468 C 1105.08 -1.07935 -4.68939 0
M  V30 11469 C 1107.43 -1.55134 -4.97577 0
M  V30 11470 C 1104.76 -2.21008 -5.43482 0
M  V30 11471 C 1107.11 -2.67288 -5.73358 0
M  V30 11472 C 1105.77 -3.00651 -5.95958 0
M  V30 11473 H 1105.04 0.05831 -0.738702 0
M  V30 11474 H 1107.69 -0.557184 -1.83215 0
M  V30 11475 H 1105.99 1.24649 -3.71443 0
M  V30 11476 H 1107.69 0.90549 -3.90643 0
M  V30 11477 H 1104.28 -0.484257 -4.25856 0
M  V30 11478 H 1108.46 -1.31052 -4.78685 0
M  V30 11479 H 1103.72 -2.47197 -5.59199 0
M  V30 11480 H 1107.89 -3.29725 -6.13396 0
M  V30 11481 H 1105.52 -3.88384 -6.535 0
M  V30 11482 N 1107.1 1.56929 -0.145233 0
M  V30 11483 C 1108.51 1.82877 0.375884 0
M  V30 11484 C 1108.86 1.06384 1.64854 0
M  V30 11485 O 1107.98 0.30857 2.14189 0
M  V30 11486 C 1108.58 3.31725 0.688744 0
M  V30 11487 C 1107.14 3.58261 1.15439 0
M  V30 11488 C 1106.28 2.76737 0.176565 0
M  V30 11489 H 1109.24 1.54328 -0.36996 0
M  V30 11490 H 1109.26 3.47784 1.54359 0
M  V30 11491 H 1108.77 3.87371 -0.237694 0
M  V30 11492 H 1106.87 3.08 2.09683 0
M  V30 11493 H 1106.98 4.66732 1.08158 0
M  V30 11494 H 1105.35 2.45761 0.668843 0
M  V30 11495 H 1106.13 3.35154 -0.743432 0
M  V30 11496 N 1108.58 -0.128553 1.57075 0
M  V30 11497 C 1109.49 -1.17718 2.02927 0
M  V30 11498 C 1110.5 -1.45912 0.947932 0
M  V30 11499 O 1111.68 -1.57217 1.25876 0
M  V30 11500 C 1108.74 -2.48625 2.41633 0
M  V30 11501 C 1107.8 -2.27914 3.63804 0
M  V30 11502 C 1107.04 -3.52579 4.00654 0
M  V30 11503 O 1107.26 -4.59505 3.37952 0
M  V30 11504 O 1106.19 -3.44147 4.93808 0
M  V30 11505 H 1110.02 -0.817846 2.92481 0
M  V30 11506 H 1107.6 -0.338649 1.45511 0
M  V30 11507 H 1109.49 -3.2577 2.67305 0
M  V30 11508 H 1108.16 -2.84052 1.55229 0
M  V30 11509 H 1107.07 -1.4866 3.43294 0
M  V30 11510 H 1108.4 -1.97395 4.50883 0
M  V30 11511 N 1110.05 -1.5248 -0.398459 0
M  V30 11512 C 1110.99 -1.71321 -1.50746 0
M  V30 11513 C 1111.96 -0.5609 -1.52619 0
M  V30 11514 O 1113.15 -0.789557 -1.71167 0
M  V30 11515 C 1110.28 -1.76223 -2.89246 0
M  V30 11516 C 1109.32 -2.97878 -3.05239 0
M  V30 11517 S 1110.15 -4.58031 -2.77431 0
M  V30 11518 C 1111.31 -4.65735 -4.18141 0
M  V30 11519 H 1111.54 -2.65117 -1.34538 0
M  V30 11520 H 1109.08 -1.42653 -0.590727 0
M  V30 11521 H 1111.03 -1.79733 -3.69062 0
M  V30 11522 H 1109.7 -0.83536 -3.02788 0
M  V30 11523 H 1108.89 -2.97821 -4.06594 0
M  V30 11524 H 1108.49 -2.92311 -2.33304 0
M  V30 11525 H 1110.78 -4.43768 -5.11934 0
M  V30 11526 H 1111.73 -5.67709 -4.23217 0
M  V30 11527 H 1112.13 -3.94664 -4.03609 0
M  V30 11528 N 1111.53 0.65634 -1.43283 0
M  V30 11529 C 1112.46 1.78101 -1.51004 0
M  V30 11530 C 1113.44 1.66138 -0.36498 0
M  V30 11531 O 1114.63 1.85281 -0.581778 0
M  V30 11532 C 1111.76 3.16511 -1.42961 0
M  V30 11533 C 1110.71 3.43233 -2.55685 0
M  V30 11534 C 1110.04 4.81411 -2.32696 0
M  V30 11535 C 1111.34 3.38288 -3.97943 0
M  V30 11536 H 1113.03 1.71896 -2.45137 0
M  V30 11537 H 1110.58 0.825575 -1.17984 0
M  V30 11538 H 1112.53 3.94941 -1.46968 0
M  V30 11539 H 1111.25 3.23439 -0.45332 0
M  V30 11540 H 1109.91 2.67173 -2.51026 0
M  V30 11541 H 1109.56 4.85011 -1.33317 0
M  V30 11542 H 1109.26 5.00251 -3.08257 0
M  V30 11543 H 1110.79 5.62102 -2.38481 0
M  V30 11544 H 1112.2 4.06659 -4.04106 0
M  V30 11545 H 1110.6 3.68664 -4.73505 0
M  V30 11546 H 1111.67 2.36525 -4.23301 0
M  V30 11547 N 1113.01 1.29761 0.894412 0
M  V30 11548 C 1113.97 1.15335 1.98067 0
M  V30 11549 C 1114.97 0.0872804 1.60563 0
M  V30 11550 O 1116.16 0.334645 1.70955 0
M  V30 11551 C 1113.29 0.764907 3.32208 0
M  V30 11552 H 1114.49 2.11829 2.12293 0
M  V30 11553 H 1112.04 1.13023 1.0796 0
M  V30 11554 H 1112.78 -0.199948 3.23683 0
M  V30 11555 H 1112.56 1.53523 3.60795 0
M  V30 11556 H 1114.05 0.687176 4.11907 0
M  V30 11557 N 1114.49 -1.10549 1.12324 0
M  V30 11558 C 1115.4 -2.20428 0.803032 0
M  V30 11559 C 1116.41 -1.72756 -0.207674 0
M  V30 11560 O 1117.59 -2.01357 -0.0415623 0
M  V30 11561 C 1114.65 -3.45716 0.261032 0
M  V30 11562 C 1113.72 -4.08129 1.33152 0
M  V30 11563 C 1112.95 -5.27436 0.815288 0
M  V30 11564 O 1113.17 -5.69317 -0.351361 0
M  V30 11565 O 1112.11 -5.80674 1.58434 0
M  V30 11566 H 1115.93 -2.50249 1.72073 0
M  V30 11567 H 1113.52 -1.19263 0.899815 0
M  V30 11568 H 1115.4 -4.21384 -0.0364007 0
M  V30 11569 H 1114.07 -3.17525 -0.629249 0
M  V30 11570 H 1112.98 -3.3415 1.6821 0
M  V30 11571 H 1114.31 -4.4052 2.19552 0
M  V30 11572 N 1115.97 -0.914965 -1.28321 0
M  V30 11573 C 1117.21 -0.544639 -1.94208 0
M  V30 11574 C 1117.53 0.916368 -1.72806 0
M  V30 11575 O 1118.73 1.39491 -2.32926 0
M  V30 11576 C 1117.19 -0.923209 -3.47858 0
M  V30 11577 C 1116.8 -2.40403 -3.78035 0
M  V30 11578 C 1118.54 -0.623526 -4.19896 0
M  V30 11579 C 1116.45 -2.72266 -5.25 0
M  V30 11580 H 1115.38 -0.199966 -0.727 0
M  V30 11581 H 1118.03 -1.11405 -1.45812 0
M  V30 11582 H 1116.41 -0.282576 -3.94991 0
M  V30 11583 H 1117.59 -3.09149 -3.41706 0
M  V30 11584 H 1115.9 -2.67429 -3.19172 0
M  V30 11585 H 1118.5 -0.838243 -5.28089 0
M  V30 11586 H 1118.84 0.438721 -4.13982 0
M  V30 11587 H 1119.37 -1.22268 -3.78544 0
M  V30 11588 H 1116.11 -3.77349 -5.35993 0
M  V30 11589 H 1115.63 -2.08157 -5.62522 0
M  V30 11590 H 1117.31 -2.59334 -5.92752 0
M  V30 11591 N 1117.44 1.42219 -0.679077 0
M  V30 11592 C 1118.69 2.00703 -0.200309 0
M  V30 11593 C 1119.01 1.54339 1.20161 0
M  V30 11594 O 1120.21 2.0527 1.77698 0
M  V30 11595 C 1118.67 3.58586 -0.307248 0
M  V30 11596 C 1118.28 4.13937 -1.71349 0
M  V30 11597 C 1120.02 4.24351 0.112588 0
M  V30 11598 C 1117.93 5.64198 -1.77297 0
M  V30 11599 H 1116.86 0.750638 -0.0711279 0
M  V30 11600 H 1119.51 1.62893 -0.844881 0
M  V30 11601 H 1117.89 3.93921 0.40529 0
M  V30 11602 H 1119.06 3.90054 -2.45346 0
M  V30 11603 H 1117.38 3.60639 -2.08155 0
M  V30 11604 H 1119.98 5.34627 0.0883578 0
M  V30 11605 H 1120.32 4.00142 1.14857 0
M  V30 11606 H 1120.85 3.93992 -0.549093 0
M  V30 11607 H 1117.59 5.93211 -2.78892 0
M  V30 11608 H 1117.11 5.90058 -1.07662 0
M  V30 11609 H 1118.79 6.2869 -1.52835 0
M  V30 11610 N 1118.92 0.422693 1.51826 0
M  V30 11611 C 1120.15 -0.147744 2.06372 0
M  V30 11612 C 1120.56 -1.37714 1.29152 0
M  V30 11613 O 1119.92 -1.7917 0.347046 0
M  V30 11614 C 1119.97 -0.484642 3.58237 0
M  V30 11615 O 1119.69 0.695944 4.32537 0
M  V30 11616 C 1121.19 -1.10734 4.29247 0
M  V30 11617 H 1118.41 -0.0144047 0.670845 0
M  V30 11618 H 1120.96 0.597558 1.95575 0
M  V30 11619 H 1119.11 -1.17984 3.68997 0
M  V30 11620 H 1119.53 0.411471 5.22884 0
M  V30 11621 H 1121 -1.29318 5.36639 0
M  V30 11622 H 1121.48 -2.08429 3.86593 0
M  V30 11623 H 1122.08 -0.451958 4.22892 0
M  V30 11624 N 1120.4 -1.5685 0.153553 0
M  V30 11625 C 1121.35 -2.18385 -0.800667 0
M  V30 11626 C 1122.34 -1.14272 -1.25053 0
M  V30 11627 O 1123.55 -1.32509 -1.21825 0
M  V30 11628 H 1119.92 -0.699352 -0.276425 0
M  V30 11629 H 1121.89 -2.97287 -0.257535 0
M  V30 11630 C 1120.64 -2.82497 -2.02708 0
M  V30 11631 H 1119.97 -3.62328 -1.68992 0
M  V30 11632 H 1121.41 -3.29047 -2.67403 0
M  V30 11633 C 1119.86 -1.81343 -2.8393 0
M  V30 11634 O 1120.39 -1.28793 -3.80493 0
M  V30 11635 N 1118.6 -1.50499 -2.48593 0
M  V30 11636 H 1118.15 -1.93425 -1.70131 0
M  V30 11637 H 1118.11 -0.830672 -3.03228 0
M  V30 11638 N 1121.88 0.120221 -1.57141 0
M  V30 11639 C 1122.81 1.1732 -1.96898 0
M  V30 11640 C 1123.82 1.37722 -0.868134 0
M  V30 11641 O 1125.01 1.36818 -1.14643 0
M  V30 11642 C 1122.11 2.53343 -2.25102 0
M  V30 11643 C 1121.28 2.53559 -3.56408 0
M  V30 11644 C 1120.34 3.71319 -3.72838 0
M  V30 11645 O 1119.37 3.54961 -4.44962 0
M  V30 11646 N 1120.57 4.89836 -3.11514 0
M  V30 11647 H 1123.34 0.835023 -2.87832 0
M  V30 11648 H 1120.9 0.309508 -1.58914 0
M  V30 11649 H 1122.89 3.30679 -2.3331 0
M  V30 11650 H 1121.46 2.79347 -1.403 0
M  V30 11651 H 1120.68 1.61946 -3.59398 0
M  V30 11652 H 1121.97 2.5076 -4.42716 0
M  V30 11653 H 1121.37 5.0603 -2.52884 0
M  V30 11654 H 1119.92 5.64853 -3.25246 0
M  V30 11655 N 1123.36 1.52689 0.390367 0
M  V30 11656 C 1124.61 1.6689 1.13272 0
M  V30 11657 C 1124.92 0.414433 1.91159 0
M  V30 11658 O 1126.12 0.436559 2.67967 0
M  V30 11659 C 1124.58 2.94929 2.06264 0
M  V30 11660 C 1124.19 4.27551 1.33805 0
M  V30 11661 C 1125.93 3.18497 2.80642 0
M  V30 11662 C 1123.84 5.46698 2.25554 0
M  V30 11663 H 1122.77 0.621749 0.426549 0
M  V30 11664 H 1125.42 1.79185 0.395615 0
M  V30 11665 H 1123.8 2.76378 2.83604 0
M  V30 11666 H 1124.98 4.56651 0.616997 0
M  V30 11667 H 1123.29 4.10234 0.713913 0
M  V30 11668 H 1125.89 4.04693 3.49467 0
M  V30 11669 H 1126.23 2.33511 3.44642 0
M  V30 11670 H 1126.76 3.37607 2.10395 0
M  V30 11671 H 1123.5 6.34088 1.66171 0
M  V30 11672 H 1123.02 5.21913 2.95579 0
M  V30 11673 H 1124.7 5.80519 2.85668 0
M  V30 11674 N 1124.83 -0.648732 1.43629 0
M  V30 11675 C 1126.25 -1.23001 1.40455 0
M  V30 11676 C 1126.6 -1.95886 0.110897 0
M  V30 11677 O 1125.72 -2.01485 -0.789487 0
M  V30 11678 C 1126.32 -2.23716 2.54434 0
M  V30 11679 C 1124.88 -2.77311 2.54511 0
M  V30 11680 C 1124.02 -1.52024 2.31914 0
M  V30 11681 H 1126.97 -0.440473 1.52465 0
M  V30 11682 H 1126.99 -3.05979 2.26179 0
M  V30 11683 H 1126.51 -1.7064 3.48574 0
M  V30 11684 H 1124.61 -3.34437 1.64263 0
M  V30 11685 H 1124.72 -3.2455 3.52426 0
M  V30 11686 H 1123.08 -1.79531 1.80667 0
M  V30 11687 H 1123.87 -1.00876 3.28145 0
M  V30 11688 N 1126.31 -1.30234 -0.887518 0
M  V30 11689 C 1127.26 -1.164 -1.99298 0
M  V30 11690 C 1128.23 -0.0541536 -1.66012 0
M  V30 11691 O 1129.41 -0.223881 -1.89482 0
M  V30 11692 C 1126.55 -0.859169 -3.34234 0
M  V30 11693 C 1125.67 -2.05065 -3.80227 0
M  V30 11694 C 1124.8 -1.68413 -5.03796 0
M  V30 11695 C 1123.84 -2.8407 -5.4219 0
M  V30 11696 N 1122.98 -2.47732 -6.56942 0
M  V30 11697 H 1127.82 -2.10973 -2.10463 0
M  V30 11698 H 1125.36 -1.04969 -1.03053 0
M  V30 11699 H 1127.31 -0.663064 -4.11897 0
M  V30 11700 H 1125.94 0.0496808 -3.22762 0
M  V30 11701 H 1125 -2.35808 -2.98494 0
M  V30 11702 H 1126.31 -2.91688 -4.04623 0
M  V30 11703 H 1125.46 -1.45162 -5.89078 0
M  V30 11704 H 1124.2 -0.789553 -4.81266 0
M  V30 11705 H 1123.21 -3.0799 -4.55437 0
M  V30 11706 H 1124.43 -3.74211 -5.66695 0
M  V30 11707 H 1122.38 -1.60777 -6.35993 0
M  V30 11708 H 1122.29 -3.27887 -6.81195 0
M  V30 11709 H 1123.56 -2.27831 -7.45462 0
M  V30 11710 N 1127.79 1.09952 -1.12909 0
M  V30 11711 C 1129.02 1.8552 -0.909163 0
M  V30 11712 C 1129.43 1.81173 0.545253 0
M  V30 11713 O 1128.77 1.20223 1.38896 0
M  V30 11714 C 1128.83 3.34693 -1.31228 0
M  V30 11715 C 1128.5 3.62794 -2.77902 0
M  V30 11716 C 1129.49 3.58973 -3.76078 0
M  V30 11717 C 1127.18 3.91311 -3.1493 0
M  V30 11718 C 1129.17 3.83271 -5.09296 0
M  V30 11719 C 1126.86 4.15265 -4.48328 0
M  V30 11720 C 1127.86 4.11236 -5.4532 0
M  V30 11721 O 1127.55 4.34576 -6.76313 0
M  V30 11722 H 1127.28 0.59303 -0.324486 0
M  V30 11723 H 1129.83 1.39878 -1.5041 0
M  V30 11724 H 1128.06 3.81016 -0.660573 0
M  V30 11725 H 1129.75 3.9166 -1.06569 0
M  V30 11726 H 1130.52 3.36974 -3.48817 0
M  V30 11727 H 1126.4 3.93575 -2.40041 0
M  V30 11728 H 1129.94 3.80041 -5.84991 0
M  V30 11729 H 1125.84 4.36743 -4.75316 0
M  V30 11730 H 1126.61 4.52065 -6.82334 0
M  V30 11731 N 1129.27 0.921757 1.27833 0
M  V30 11732 C 1130.49 0.574599 1.99281 0
M  V30 11733 C 1130.92 -0.838905 1.68357 0
M  V30 11734 O 1130.28 -1.56196 0.920468 0
M  V30 11735 C 1130.32 0.800027 3.51613 0
M  V30 11736 O 1129.43 -0.137215 4.12172 0
M  V30 11737 H 1128.77 0.221887 0.625829 0
M  V30 11738 H 1131.3 1.23939 1.62789 0
M  V30 11739 H 1131.31 0.71326 4.01717 0
M  V30 11740 H 1129.98 1.83042 3.73455 0
M  V30 11741 H 1128.56 -0.00103872 3.729 0
M  V30 11742 N 1130.75 -1.41857 0.686609 0
M  V30 11743 C 1131.69 -2.326 0.0041351 0
M  V30 11744 C 1132.69 -1.50474 -0.778077 0
M  V30 11745 O 1133.89 -1.66468 -0.684709 0
M  V30 11746 H 1130.27 -0.751797 -0.0174615 0
M  V30 11747 H 1132.24 -2.87844 0.786656 0
M  V30 11748 C 1130.99 -3.35175 -0.924819 0
M  V30 11749 H 1130.31 -3.98416 -0.332339 0
M  V30 11750 H 1131.75 -4.01229 -1.37082 0
M  V30 11751 C 1130.21 -2.68359 -2.03679 0
M  V30 11752 O 1130.74 -2.52453 -3.12459 0
M  V30 11753 N 1128.95 -2.27196 -1.81192 0
M  V30 11754 H 1128.49 -2.40333 -0.92725 0
M  V30 11755 H 1128.45 -1.82824 -2.55778 0
M  V30 11756 N 1132.22 -0.430739 -1.51599 0
M  V30 11757 C 1133.47 0.137657 -2.01631 0
M  V30 11758 C 1133.79 1.43787 -1.31721 0
M  V30 11759 O 1133.06 1.90668 -0.449717 0
M  V30 11760 H 1131.64 0.0538611 -0.745056 0
M  V30 11761 H 1134.31 -0.571935 -1.86319 0
M  V30 11762 H 1133.4 0.318305 -3.10473 0
M  V30 11763 N 1133.7 1.56767 -0.161869 0
M  V30 11764 C 1134.65 2.18807 0.789074 0
M  V30 11765 C 1135.64 1.14934 1.24445 0
M  V30 11766 O 1136.85 1.33154 1.2112 0
M  V30 11767 H 1133.23 0.700808 0.272713 0
M  V30 11768 H 1135.2 2.97419 0.241766 0
M  V30 11769 C 1133.95 2.83568 2.01207 0
M  V30 11770 H 1133.27 3.63219 1.67068 0
M  V30 11771 H 1134.71 3.3046 2.65654 0
M  V30 11772 C 1133.17 1.82846 2.82964 0
M  V30 11773 O 1133.7 1.30809 3.79805 0
M  V30 11774 N 1131.9 1.51815 2.47791 0
M  V30 11775 H 1131.45 1.94325 1.69103 0
M  V30 11776 H 1131.41 0.846742 3.02783 0
M  V30 11777 N 1135.18 -0.111886 1.57202 0
M  V30 11778 C 1136.43 -0.817022 1.84412 0
M  V30 11779 C 1136.74 -1.80708 0.748608 0
M  V30 11780 O 1137.95 -2.55891 0.907319 0
M  V30 11781 C 1136.4 -1.50376 3.26979 0
M  V30 11782 C 1136.01 -0.554334 4.44557 0
M  V30 11783 C 1137.76 -2.19361 3.63429 0
M  V30 11784 C 1135.66 -1.24471 5.78153 0
M  V30 11785 H 1134.59 -0.308864 0.687836 0
M  V30 11786 H 1137.24 -0.0698109 1.83367 0
M  V30 11787 H 1135.63 -2.29785 3.22514 0
M  V30 11788 H 1136.8 0.207045 4.60335 0
M  V30 11789 H 1135.12 0.0289261 4.1639 0
M  V30 11790 H 1137.71 -2.71716 4.60515 0
M  V30 11791 H 1138.06 -2.97488 2.91215 0
M  V30 11792 H 1138.59 -1.46833 3.69709 0
M  V30 11793 H 1135.33 -0.504584 6.53555 0
M  V30 11794 H 1134.85 -1.97792 5.66249 0
M  V30 11795 H 1136.53 -1.77591 6.2215 0
M  V30 11796 N 1136.66 -1.52894 -0.382264 0
M  V30 11797 C 1137.61 -1.78151 -1.46734 0
M  V30 11798 C 1138.58 -0.625034 -1.53891 0
M  V30 11799 O 1139.76 -0.865467 -1.70042 0
M  V30 11800 C 1136.9 -1.96223 -2.83885 0
M  V30 11801 C 1136.01 -3.23925 -2.85826 0
M  V30 11802 C 1135.15 -3.32277 -4.14446 0
M  V30 11803 C 1134.19 -4.54076 -4.10465 0
M  V30 11804 N 1133.32 -4.59672 -5.30703 0
M  V30 11805 H 1138.16 -2.70748 -1.24497 0
M  V30 11806 H 1135.7 -1.34135 -0.603838 0
M  V30 11807 H 1137.66 -2.04686 -3.63537 0
M  V30 11808 H 1136.29 -1.0698 -3.04557 0
M  V30 11809 H 1135.34 -3.245 -1.98505 0
M  V30 11810 H 1136.65 -4.1364 -2.78754 0
M  V30 11811 H 1135.81 -3.3996 -5.02506 0
M  V30 11812 H 1134.55 -2.40548 -4.2425 0
M  V30 11813 H 1133.55 -4.46511 -3.20793 0
M  V30 11814 H 1134.78 -5.47128 -4.02278 0
M  V30 11815 H 1132.72 -3.70838 -5.41124 0
M  V30 11816 H 1132.64 -5.43268 -5.25734 0
M  V30 11817 H 1133.91 -4.71618 -6.20642 0
M  V30 11818 N 1138.14 0.641106 -1.43971 0
M  V30 11819 C 1139.08 1.75352 -1.50068 0
M  V30 11820 C 1140.05 1.62386 -0.349266 0
M  V30 11821 O 1141.24 1.82455 -0.558118 0
M  V30 11822 C 1138.38 3.13561 -1.4413 0
M  V30 11823 C 1137.49 3.37574 -2.6957 0
M  V30 11824 C 1136.63 4.65698 -2.55535 0
M  V30 11825 C 1135.67 4.82857 -3.76186 0
M  V30 11826 N 1134.8 6.02249 -3.60888 0
M  V30 11827 H 1139.64 1.69477 -2.45116 0
M  V30 11828 H 1137.18 0.826871 -1.2166 0
M  V30 11829 H 1139.14 3.93476 -1.38681 0
M  V30 11830 H 1137.77 3.18476 -0.526563 0
M  V30 11831 H 1136.82 2.5167 -2.85248 0
M  V30 11832 H 1138.13 3.46135 -3.59154 0
M  V30 11833 H 1137.29 5.53759 -2.47862 0
M  V30 11834 H 1136.03 4.59479 -1.63495 0
M  V30 11835 H 1135.03 3.93229 -3.84254 0
M  V30 11836 H 1136.26 4.90898 -4.6925 0
M  V30 11837 H 1134.2 5.97138 -2.71591 0
M  V30 11838 H 1134.12 6.11822 -4.44083 0
M  V30 11839 H 1135.39 6.92898 -3.57088 0
M  V30 11840 N 1139.62 1.30703 0.880598 0
M  V30 11841 C 1140.55 1.20033 2.00286 0
M  V30 11842 C 1141.53 0.0899614 1.69862 0
M  V30 11843 O 1142.71 0.272747 1.92275 0
M  V30 11844 C 1139.84 0.895902 3.35546 0
M  V30 11845 C 1138.8 1.96468 3.80242 0
M  V30 11846 C 1138.12 1.51316 5.12843 0
M  V30 11847 C 1139.42 3.37637 3.98496 0
M  V30 11848 H 1141.12 2.13922 2.0947 0
M  V30 11849 H 1138.66 1.02989 1.00644 0
M  V30 11850 H 1140.61 0.807899 4.13583 0
M  V30 11851 H 1139.34 -0.0786636 3.26505 0
M  V30 11852 H 1138 2.0424 3.04437 0
M  V30 11853 H 1137.65 0.52674 5.00234 0
M  V30 11854 H 1137.35 2.22807 5.43719 0
M  V30 11855 H 1138.87 1.43903 5.93401 0
M  V30 11856 H 1140.28 3.326 4.66959 0
M  V30 11857 H 1138.68 4.07253 4.40755 0
M  V30 11858 H 1139.75 3.79205 3.02211 0
M  V30 11859 N 1141.09 -1.09351 1.1349 0
M  V30 11860 C 1142.02 -2.18037 0.835588 0
M  V30 11861 C 1143 -1.68856 -0.205373 0
M  V30 11862 O 1144.19 -1.94094 -0.0641357 0
M  V30 11863 C 1141.32 -3.45987 0.301661 0
M  V30 11864 C 1140.27 -4.08507 1.27696 0
M  V30 11865 C 1139.6 -5.31292 0.602758 0
M  V30 11866 C 1140.9 -4.50916 2.63575 0
M  V30 11867 H 1142.59 -2.43332 1.74441 0
M  V30 11868 H 1140.14 -1.1695 0.840166 0
M  V30 11869 H 1142.09 -4.21324 0.079928 0
M  V30 11870 H 1140.82 -3.20217 -0.642552 0
M  V30 11871 H 1139.48 -3.3519 1.4847 0
M  V30 11872 H 1139.12 -5.01802 -0.346953 0
M  V30 11873 H 1138.82 -5.74075 1.25345 0
M  V30 11874 H 1140.35 -6.09351 0.390325 0
M  V30 11875 H 1141.76 -5.17474 2.46765 0
M  V30 11876 H 1140.16 -5.04586 3.24827 0
M  V30 11877 H 1141.23 -3.63279 3.2118 0
M  V30 11878 N 1142.57 -0.928524 -1.27343 0
M  V30 11879 C 1143.82 -0.569392 -1.9433 0
M  V30 11880 C 1144.15 0.889481 -1.7297 0
M  V30 11881 O 1143.4 1.6499 -1.05247 0
M  V30 11882 C 1143.7 -0.84269 -3.47323 0
M  V30 11883 C 1143.37 -2.28344 -3.88806 0
M  V30 11884 C 1142.03 -2.67731 -3.99842 0
M  V30 11885 C 1144.38 -3.22031 -4.09811 0
M  V30 11886 C 1141.71 -3.99928 -4.29272 0
M  V30 11887 C 1144.06 -4.5381 -4.40725 0
M  V30 11888 C 1142.72 -4.93031 -4.49975 0
M  V30 11889 H 1141.99 -0.208355 -0.711104 0
M  V30 11890 H 1144.64 -1.17264 -1.51398 0
M  V30 11891 H 1142.95 -0.156775 -3.91486 0
M  V30 11892 H 1144.64 -0.543779 -3.97296 0
M  V30 11893 H 1141.23 -1.96787 -3.80753 0
M  V30 11894 H 1145.42 -2.92803 -4.00724 0
M  V30 11895 H 1140.67 -4.29996 -4.34642 0
M  V30 11896 H 1144.85 -5.26407 -4.55926 0
M  V30 11897 H 1142.47 -5.95497 -4.72533 0
M  V30 11898 N 1144.05 1.41491 -0.694123 0
M  V30 11899 C 1145 2.28 -0.00474478 0
M  V30 11900 C 1145.98 1.42125 0.754281 0
M  V30 11901 O 1147.18 1.65408 0.630012 0
M  V30 11902 C 1144.3 3.30408 0.931953 0
M  V30 11903 C 1143.39 4.23762 0.169251 0
M  V30 11904 N 1143.78 4.9884 -0.836181 0
M  V30 11905 C 1142.08 4.44158 0.40494 0
M  V30 11906 C 1142.78 5.67157 -1.2926 0
M  V30 11907 N 1141.76 5.40066 -0.6188 0
M  V30 11908 H 1145.56 2.8348 -0.775652 0
M  V30 11909 H 1143.07 1.53686 -0.524834 0
M  V30 11910 H 1145.07 3.91206 1.44097 0
M  V30 11911 H 1143.73 2.76489 1.70247 0
M  V30 11912 H 1144.74 5.03413 -1.21637 0
M  V30 11913 H 1141.42 4.0125 1.15346 0
M  V30 11914 H 1142.81 6.3735 -2.12684 0
M  V30 11915 N 1145.53 0.438773 1.51369 0
M  V30 11916 C 1146.46 -0.407771 2.25543 0
M  V30 11917 C 1147.47 -0.985065 1.29616 0
M  V30 11918 O 1148.66 -0.878961 1.55359 0
M  V30 11919 C 1145.76 -1.58257 2.9968 0
M  V30 11920 C 1144.93 -1.12389 4.22714 0
M  V30 11921 C 1143.99 -2.16897 4.79418 0
M  V30 11922 O 1143.02 -1.76273 5.41218 0
M  V30 11923 N 1144.22 -3.49396 4.63576 0
M  V30 11924 H 1146.99 0.227963 2.98832 0
M  V30 11925 H 1144.55 0.267741 1.59671 0
M  V30 11926 H 1146.54 -2.27796 3.34501 0
M  V30 11927 H 1145.11 -2.12362 2.29393 0
M  V30 11928 H 1144.33 -0.255509 3.93371 0
M  V30 11929 H 1145.62 -0.794848 5.02553 0
M  V30 11930 H 1145.02 -3.85132 4.14355 0
M  V30 11931 H 1143.57 -4.14826 5.02755 0
M  V30 11932 N 1147.01 -1.56678 0.170181 0
M  V30 11933 C 1147.95 -2.17909 -0.760556 0
M  V30 11934 C 1148.92 -1.11875 -1.22773 0
M  V30 11935 O 1150.11 -1.40021 -1.2961 0
M  V30 11936 C 1147.25 -2.82305 -1.9849 0
M  V30 11937 C 1146.36 -4.02796 -1.5614 0
M  V30 11938 C 1145.5 -4.55121 -2.73932 0
M  V30 11939 C 1144.53 -5.68025 -2.28067 0
M  V30 11940 N 1143.67 -6.14865 -3.38947 0
M  V30 11941 H 1148.51 -2.97098 -0.231629 0
M  V30 11942 H 1146.05 -1.46742 -0.102602 0
M  V30 11943 H 1148.01 -3.17797 -2.70298 0
M  V30 11944 H 1146.64 -2.05721 -2.48755 0
M  V30 11945 H 1145.69 -3.73131 -0.740097 0
M  V30 11946 H 1147 -4.84526 -1.18472 0
M  V30 11947 H 1146.15 -4.92789 -3.53898 0
M  V30 11948 H 1144.89 -3.72445 -3.14858 0
M  V30 11949 H 1143.9 -5.2991 -1.46546 0
M  V30 11950 H 1145.12 -6.52501 -1.88199 0
M  V30 11951 H 1143.07 -5.35119 -3.79452 0
M  V30 11952 H 1142.99 -6.91582 -3.05369 0
M  V30 11953 H 1144.25 -6.57183 -4.19203 0
M  V30 11954 O 1148.52 -0.0322817 -1.61468 0
M  V30 11955 H 1149.21 0.579838 -1.84818 0
M  V30 END ATOM
M  V30 BEGIN BOND
M  V30 END BOND
M  V30 END CTAB
M  END
$$$$
