drugbank_target|P26790 Light-harvesting protein B-800/850 beta chain (DB02899; DB04147; DB04464)
 OpenBabel12092120433D

645654  0  0  0  0  0  0  0  0999 V2000
   -0.9080    1.9825   -0.1171 H   0  0  0  0  0 15  0  0  0  0  0  0
    0.0000    1.5760    0.0000 N   0  0  0  0  0 15  0  0  0  0  0  0
    0.9630    2.0737    0.9763 C   0  0  0  0  0 15  0  0  0  0  0  0
    1.9630    0.9831    1.2725 C   0  0  0  0  0 15  0  0  0  0  0  0
    3.1530    1.2457    1.2177 O   0  0  0  0  0 15  0  0  0  0  0  0
    0.2850    2.5151    2.3012 C   0  0  0  0  0 15  0  0  0  0  0  0
    1.4780    2.9489    0.5458 H   0  0  0  0  0 15  0  0  0  0  0  0
   -0.9690    1.5433    0.2475 H   0  0  0  0  0 15  0  0  0  0  0  0
   -0.2340    1.6723    2.7785 H   0  0  0  0  0 15  0  0  0  0  0  0
   -0.4490    3.3116    2.0994 H   0  0  0  0  0 15  0  0  0  0  0  0
    1.0410    2.9035    3.0015 H   0  0  0  0  0 15  0  0  0  0  0  0
    1.4781   -0.2728    1.5522 N   0  0  0  0  0 15  0  0  0  0  0  0
    2.7061   -1.0226    1.7987 C   0  0  0  0  0 15  0  0  0  0  0  0
    3.1211   -1.7992    0.5721 C   0  0  0  0  0 15  0  0  0  0  0  0
    2.4781   -1.7664   -0.4588 O   0  0  0  0  0 15  0  0  0  0  0  0
    2.5291   -1.9809    3.0239 C   0  0  0  0  0 15  0  0  0  0  0  0
    2.2501   -1.2357    4.2031 O   0  0  0  0  0 15  0  0  0  0  0  0
    3.7511   -2.8488    3.3964 C   0  0  0  0  0 15  0  0  0  0  0  0
    0.9711   -0.3021    0.5992 H   0  0  0  0  0 15  0  0  0  0  0  0
    3.5151   -0.3035    2.0224 H   0  0  0  0  0 15  0  0  0  0  0  0
    1.6701   -2.6546    2.8215 H   0  0  0  0  0 15  0  0  0  0  0  0
    2.0841   -1.8817    4.8958 H   0  0  0  0  0 15  0  0  0  0  0  0
    3.5581   -3.4793    4.2854 H   0  0  0  0  0 15  0  0  0  0  0  0
    4.0351   -3.5466    2.5905 H   0  0  0  0  0 15  0  0  0  0  0  0
    4.6411   -2.2300    3.6215 H   0  0  0  0  0 15  0  0  0  0  0  0
    2.9562   -1.4816   -0.5373 N   0  0  0  0  0 15  0  0  0  0  0  0
    3.8862   -1.6503   -1.6519 C   0  0  0  0  0 15  0  0  0  0  0  0
    4.8672   -0.4993   -1.6261 C   0  0  0  0  0 15  0  0  0  0  0  0
    6.0522   -0.7310   -1.7992 O   0  0  0  0  0 15  0  0  0  0  0  0
    3.1822   -1.6830   -3.0380 C   0  0  0  0  0 15  0  0  0  0  0  0
    2.1362   -2.8283   -3.2123 C   0  0  0  0  0 15  0  0  0  0  0  0
    1.4622   -2.7119   -4.6083 C   0  0  0  0  0 15  0  0  0  0  0  0
    2.7622   -4.2421   -3.0470 C   0  0  0  0  0 15  0  0  0  0  0  0
    4.4562   -2.5834   -1.5133 H   0  0  0  0  0 15  0  0  0  0  0  0
    2.0022   -1.2433   -0.7266 H   0  0  0  0  0 15  0  0  0  0  0  0
    3.9552   -1.7869   -3.8164 H   0  0  0  0  0 15  0  0  0  0  0  0
    2.6792   -0.7156   -3.1866 H   0  0  0  0  0 15  0  0  0  0  0  0
    1.3382   -2.7198   -2.4581 H   0  0  0  0  0 15  0  0  0  0  0  0
    0.9862   -1.7243   -4.7252 H   0  0  0  0  0 15  0  0  0  0  0  0
    0.6862   -3.4803   -4.7344 H   0  0  0  0  0 15  0  0  0  0  0  0
    2.2102   -2.8354   -5.4078 H   0  0  0  0  0 15  0  0  0  0  0  0
    3.6242   -4.3593   -3.7234 H   0  0  0  0  0 15  0  0  0  0  0  0
    2.0212   -5.0200   -3.2881 H   0  0  0  0  0 15  0  0  0  0  0  0
    3.0912   -4.4118   -2.0121 H   0  0  0  0  0 15  0  0  0  0  0  0
    4.4343    0.7856   -1.3662 N   0  0  0  0  0 15  0  0  0  0  0  0
    5.6623    1.5745   -1.3423 C   0  0  0  0  0 15  0  0  0  0  0  0
    6.0773    1.8865    0.0756 C   0  0  0  0  0 15  0  0  0  0  0  0
    5.4343    1.5041    1.0335 O   0  0  0  0  0 15  0  0  0  0  0  0
    5.4853    2.8932   -2.1675 C   0  0  0  0  0 15  0  0  0  0  0  0
    5.2063    2.5946   -3.5301 O   0  0  0  0  0 15  0  0  0  0  0  0
    6.7073    3.8361   -2.2217 C   0  0  0  0  0 15  0  0  0  0  0  0
    3.9273    0.4882   -0.4603 H   0  0  0  0  0 15  0  0  0  0  0  0
    6.4713    0.9747   -1.7978 H   0  0  0  0  0 15  0  0  0  0  0  0
    4.6263    3.4575   -1.7475 H   0  0  0  0  0 15  0  0  0  0  0  0
    5.0403    3.4380   -3.9610 H   0  0  0  0  0 15  0  0  0  0  0  0
    6.5143    4.7318   -2.8426 H   0  0  0  0  0 15  0  0  0  0  0  0
    6.9913    4.2173   -1.2263 H   0  0  0  0  0 15  0  0  0  0  0  0
    7.5973    3.3310   -2.6443 H   0  0  0  0  0 15  0  0  0  0  0  0
    5.9124    1.2097    1.0102 N   0  0  0  0  0 15  0  0  0  0  0  0
    6.8754    0.9659    2.0785 C   0  0  0  0  0 15  0  0  0  0  0  0
    7.8754   -0.0611    1.6068 C   0  0  0  0  0 15  0  0  0  0  0  0
    9.0654    0.1757    1.7331 O   0  0  0  0  0 15  0  0  0  0  0  0
    6.1974    0.4555    3.3784 C   0  0  0  0  0 15  0  0  0  0  0  0
    7.3904    1.9136    2.3091 H   0  0  0  0  0 15  0  0  0  0  0  0
    4.9434    1.0259    1.1792 H   0  0  0  0  0 15  0  0  0  0  0  0
    5.6784   -0.4974    3.2046 H   0  0  0  0  0 15  0  0  0  0  0  0
    5.4634    1.1962    3.7341 H   0  0  0  0  0 15  0  0  0  0  0  0
    6.9534    0.3047    4.1649 H   0  0  0  0  0 15  0  0  0  0  0  0
    7.3905   -1.2043    1.0166 N   0  0  0  0  0 15  0  0  0  0  0  0
    8.3005   -2.2689    0.5965 C   0  0  0  0  0 15  0  0  0  0  0  0
    9.3165   -1.7011   -0.3660 C   0  0  0  0  0 15  0  0  0  0  0  0
   10.4925   -2.0012   -0.2269 O   0  0  0  0  0 15  0  0  0  0  0  0
    7.5575   -3.4665   -0.0587 C   0  0  0  0  0 15  0  0  0  0  0  0
    6.6185   -4.1866    0.9498 C   0  0  0  0  0 15  0  0  0  0  0  0
    5.8515   -5.3270    0.3258 C   0  0  0  0  0 15  0  0  0  0  0  0
    6.0745   -5.6366   -0.8745 O   0  0  0  0  0 15  0  0  0  0  0  0
    5.0085   -5.9280    1.0425 O   0  0  0  0  0 15  0  0  0  0  0  0
    8.8345   -2.6504    1.4828 H   0  0  0  0  0 15  0  0  0  0  0  0
    6.4195   -1.2705    0.7861 H   0  0  0  0  0 15  0  0  0  0  0  0
    8.3015   -4.1926   -0.4246 H   0  0  0  0  0 15  0  0  0  0  0  0
    6.9765   -3.1038   -0.9192 H   0  0  0  0  0 15  0  0  0  0  0  0
    5.8835   -3.4823    1.3670 H   0  0  0  0  0 15  0  0  0  0  0  0
    7.2165   -4.5888    1.7802 H   0  0  0  0  0 15  0  0  0  0  0  0
    8.8686   -0.7928   -1.3621 N   0  0  0  0  0 15  0  0  0  0  0  0
    9.8006   -0.1515   -2.2870 C   0  0  0  0  0 15  0  0  0  0  0  0
   10.8136    0.6413   -1.4964 C   0  0  0  0  0 15  0  0  0  0  0  0
   12.0026    0.4759   -1.7204 O   0  0  0  0  0 15  0  0  0  0  0  0
    9.1026    0.8084   -3.2912 C   0  0  0  0  0 15  0  0  0  0  0  0
    8.2756    0.0650   -4.3735 C   0  0  0  0  0 15  0  0  0  0  0  0
    7.3346    0.9414   -5.1771 C   0  0  0  0  0 15  0  0  0  0  0  0
    6.3606    0.3974   -5.6781 O   0  0  0  0  0 15  0  0  0  0  0  0
    7.5626    2.2652   -5.3448 N   0  0  0  0  0 15  0  0  0  0  0  0
   10.3276   -0.9460   -2.8438 H   0  0  0  0  0 15  0  0  0  0  0  0
    7.8886   -0.6470   -1.4841 H   0  0  0  0  0 15  0  0  0  0  0  0
    9.8806    1.3986   -3.7976 H   0  0  0  0  0 15  0  0  0  0  0  0
    8.4506    1.5038   -2.7405 H   0  0  0  0  0 15  0  0  0  0  0  0
    7.6706   -0.7063   -3.8782 H   0  0  0  0  0 15  0  0  0  0  0  0
    8.9586   -0.4478   -5.0683 H   0  0  0  0  0 15  0  0  0  0  0  0
    8.3566    2.7313   -4.9540 H   0  0  0  0  0 15  0  0  0  0  0  0
    6.9136    2.8049   -5.8836 H   0  0  0  0  0 15  0  0  0  0  0  0
   10.3467    1.4787   -0.5451 N   0  0  0  0  0 15  0  0  0  0  0  0
   11.5717    2.0739   -0.0191 C   0  0  0  0  0 15  0  0  0  0  0  0
   11.9967    1.3969    1.2597 C   0  0  0  0  0 15  0  0  0  0  0  0
   11.3547    0.4678    1.7516 O   0  0  0  0  0 15  0  0  0  0  0  0
   11.4027    3.6019    0.1723 C   0  0  0  0  0 15  0  0  0  0  0  0
   10.5067    3.9339    1.2377 O   0  0  0  0  0 15  0  0  0  0  0  0
    9.8477    0.6624   -0.0459 H   0  0  0  0  0 15  0  0  0  0  0  0
   12.3777    1.9007   -0.7574 H   0  0  0  0  0 15  0  0  0  0  0  0
   12.3877    4.0613    0.3903 H   0  0  0  0  0 15  0  0  0  0  0  0
   11.0627    4.0886   -0.7617 H   0  0  0  0  0 15  0  0  0  0  0  0
    9.6397    3.5921    1.0011 H   0  0  0  0  0 15  0  0  0  0  0  0
   11.8248    0.2810    1.5507 N   0  0  0  0  0 15  0  0  0  0  0  0
   12.7348   -0.6139    2.2643 C   0  0  0  0  0 15  0  0  0  0  0  0
   13.7508   -1.1652    1.2922 C   0  0  0  0  0 15  0  0  0  0  0  0
   14.9268   -1.1943    1.6217 O   0  0  0  0  0 15  0  0  0  0  0  0
   11.9918   -1.7788    2.9759 C   0  0  0  0  0 15  0  0  0  0  0  0
   11.0528   -1.2636    4.1028 C   0  0  0  0  0 15  0  0  0  0  0  0
   10.2858   -2.3730    4.7804 C   0  0  0  0  0 15  0  0  0  0  0  0
   10.5088   -3.5678    4.4505 O   0  0  0  0  0 15  0  0  0  0  0  0
    9.4428   -2.0512    5.6587 O   0  0  0  0  0 15  0  0  0  0  0  0
   13.2688   -0.0357    3.0368 H   0  0  0  0  0 15  0  0  0  0  0  0
   10.8538    0.0482    1.4932 H   0  0  0  0  0 15  0  0  0  0  0  0
   12.7358   -2.4579    3.4229 H   0  0  0  0  0 15  0  0  0  0  0  0
   11.4108   -2.3440    2.2325 H   0  0  0  0  0 15  0  0  0  0  0  0
   10.3178   -0.5507    3.7002 H   0  0  0  0  0 15  0  0  0  0  0  0
   11.6508   -0.7441    4.8654 H   0  0  0  0  0 15  0  0  0  0  0  0
   13.3029   -1.5760    0.0084 N   0  0  0  0  0 15  0  0  0  0  0  0
   14.2129   -2.1238   -0.9965 C   0  0  0  0  0 15  0  0  0  0  0  0
   15.2289   -1.0711   -1.3713 C   0  0  0  0  0 15  0  0  0  0  0  0
   16.4049   -1.3905   -1.4569 O   0  0  0  0  0 15  0  0  0  0  0  0
   13.4699   -2.6231   -2.2670 C   0  0  0  0  0 15  0  0  0  0  0  0
   12.5309   -3.8222   -1.9546 C   0  0  0  0  0 15  0  0  0  0  0  0
   11.7639   -4.2976   -3.1645 C   0  0  0  0  0 15  0  0  0  0  0  0
   11.9869   -3.7658   -4.2842 O   0  0  0  0  0 15  0  0  0  0  0  0
   10.9209   -5.2183   -2.9996 O   0  0  0  0  0 15  0  0  0  0  0  0
   14.7469   -2.9848   -0.5607 H   0  0  0  0  0 15  0  0  0  0  0  0
   12.3319   -1.4790   -0.2110 H   0  0  0  0  0 15  0  0  0  0  0  0
   14.2139   -2.9459   -3.0132 H   0  0  0  0  0 15  0  0  0  0  0  0
   12.8889   -1.7931   -2.6950 H   0  0  0  0  0 15  0  0  0  0  0  0
   11.7959   -3.5491   -1.1828 H   0  0  0  0  0 15  0  0  0  0  0  0
   13.1289   -4.6632   -1.5749 H   0  0  0  0  0 15  0  0  0  0  0  0
   14.7810    0.2645   -1.5536 N   0  0  0  0  0 15  0  0  0  0  0  0
   15.7110    1.3312   -1.9184 C   0  0  0  0  0 15  0  0  0  0  0  0
   16.6920    1.5110   -0.7812 C   0  0  0  0  0 15  0  0  0  0  0  0
   17.8770    1.6400   -1.0400 O   0  0  0  0  0 15  0  0  0  0  0  0
   15.0070    2.6892   -2.1977 C   0  0  0  0  0 15  0  0  0  0  0  0
   13.9610    2.6566   -3.3557 C   0  0  0  0  0 15  0  0  0  0  0  0
   13.2870    4.0509   -3.4900 C   0  0  0  0  0 15  0  0  0  0  0  0
   14.5870    2.2419   -4.7174 C   0  0  0  0  0 15  0  0  0  0  0  0
   16.2810    1.0284   -2.8118 H   0  0  0  0  0 15  0  0  0  0  0  0
   13.8270    0.4933   -1.3529 H   0  0  0  0  0 15  0  0  0  0  0  0
   15.7800    3.4366   -2.4387 H   0  0  0  0  0 15  0  0  0  0  0  0
   14.5040    3.0080   -1.2723 H   0  0  0  0  0 15  0  0  0  0  0  0
   13.1630    1.9338   -3.1145 H   0  0  0  0  0 15  0  0  0  0  0  0
   12.8110    4.3421   -2.5392 H   0  0  0  0  0 15  0  0  0  0  0  0
   12.5110    4.0380   -4.2687 H   0  0  0  0  0 15  0  0  0  0  0  0
   14.0350    4.8156   -3.7541 H   0  0  0  0  0 15  0  0  0  0  0  0
   15.4490    2.8865   -4.9533 H   0  0  0  0  0 15  0  0  0  0  0  0
   13.8460    2.3404   -5.5258 H   0  0  0  0  0 15  0  0  0  0  0  0
   14.9160    1.1933   -4.6999 H   0  0  0  0  0 15  0  0  0  0  0  0
   16.2591    1.4844    0.5294 N   0  0  0  0  0 15  0  0  0  0  0  0
   17.2091    1.5941    1.6301 C   0  0  0  0  0 15  0  0  0  0  0  0
   18.1931    0.4512    1.5445 C   0  0  0  0  0 15  0  0  0  0  0  0
   19.3851    0.7026    1.6246 O   0  0  0  0  0 15  0  0  0  0  0  0
   16.5141    1.6375    3.0173 C   0  0  0  0  0 15  0  0  0  0  0  0
   15.6001    2.8352    3.1540 C   0  0  0  0  0 15  0  0  0  0  0  0
   15.9911    4.0793    2.9904 N   0  0  0  0  0 15  0  0  0  0  0  0
   14.2891    2.8086    3.4646 C   0  0  0  0  0 15  0  0  0  0  0  0
   14.9901    4.8829    3.1615 C   0  0  0  0  0 15  0  0  0  0  0  0
   13.9661    4.2112    3.4375 N   0  0  0  0  0 15  0  0  0  0  0  0
   17.7681    2.5334    1.4898 H   0  0  0  0  0 15  0  0  0  0  0  0
   15.2821    1.4482    0.7349 H   0  0  0  0  0 15  0  0  0  0  0  0
   17.2791    1.6970    3.8080 H   0  0  0  0  0 15  0  0  0  0  0  0
   15.9391    0.7093    3.1686 H   0  0  0  0  0 15  0  0  0  0  0  0
   16.9501    4.3836    2.7580 H   0  0  0  0  0 15  0  0  0  0  0  0
   13.6271    1.9730    3.6794 H   0  0  0  0  0 15  0  0  0  0  0  0
   15.0171    5.9703    3.0823 H   0  0  0  0  0 15  0  0  0  0  0  0
   17.7372   -0.7783    1.3704 N   0  0  0  0  0 15  0  0  0  0  0  0
   18.6842   -1.8914    1.3227 C   0  0  0  0  0 15  0  0  0  0  0  0
   19.6542   -1.6502    0.1894 C   0  0  0  0  0 15  0  0  0  0  0  0
   20.8392   -1.8702    0.3777 O   0  0  0  0  0 15  0  0  0  0  0  0
   17.9792   -3.2611    1.1289 C   0  0  0  0  0 15  0  0  0  0  0  0
   17.0922   -3.6223    2.3540 C   0  0  0  0  0 15  0  0  0  0  0  0
   16.2272   -4.8838    2.0895 C   0  0  0  0  0 15  0  0  0  0  0  0
   15.2662   -5.1721    3.2735 C   0  0  0  0  0 15  0  0  0  0  0  0
   14.4032   -6.3455    3.0049 N   0  0  0  0  0 15  0  0  0  0  0  0
   19.2432   -1.9255    2.2744 H   0  0  0  0  0 15  0  0  0  0  0  0
   16.7802   -0.9415    1.1303 H   0  0  0  0  0 15  0  0  0  0  0  0
   18.7382   -4.0512    0.9968 H   0  0  0  0  0 15  0  0  0  0  0  0
   17.3682   -3.2209    0.2138 H   0  0  0  0  0 15  0  0  0  0  0  0
   16.4202   -2.7826    2.5937 H   0  0  0  0  0 15  0  0  0  0  0  0
   17.7322   -3.7948    3.2372 H   0  0  0  0  0 15  0  0  0  0  0  0
   16.8862   -5.7527    1.9273 H   0  0  0  0  0 15  0  0  0  0  0  0
   15.6252   -4.7322    1.1795 H   0  0  0  0  0 15  0  0  0  0  0  0
   14.6302   -4.2880    3.4411 H   0  0  0  0  0 15  0  0  0  0  0  0
   15.8552   -5.3428    4.1919 H   0  0  0  0  0 15  0  0  0  0  0  0
   13.8012   -6.2076    2.1212 H   0  0  0  0  0 15  0  0  0  0  0  0
   13.7182   -6.5218    3.8236 H   0  0  0  0  0 15  0  0  0  0  0  0
   14.9862   -7.2439    2.8788 H   0  0  0  0  0 15  0  0  0  0  0  0
   19.2153   -1.2150   -1.0038 N   0  0  0  0  0 15  0  0  0  0  0  0
   20.4453   -1.0575   -1.7749 C   0  0  0  0  0 15  0  0  0  0  0  0
   20.8533    0.3957   -1.8502 C   0  0  0  0  0 15  0  0  0  0  0  0
   20.1963    1.2863   -1.3115 O   0  0  0  0  0 15  0  0  0  0  0  0
   20.2583   -1.5809   -3.2287 C   0  0  0  0  0 15  0  0  0  0  0  0
   19.9223   -3.0657   -3.3892 C   0  0  0  0  0 15  0  0  0  0  0  0
   20.9193   -4.0411   -3.2710 C   0  0  0  0  0 15  0  0  0  0  0  0
   18.6043   -3.4580   -3.6432 C   0  0  0  0  0 15  0  0  0  0  0  0
   20.5983   -5.3886   -3.4045 C   0  0  0  0  0 15  0  0  0  0  0  0
   18.2853   -4.8071   -3.7731 C   0  0  0  0  0 15  0  0  0  0  0  0
   19.2833   -5.7705   -3.6538 C   0  0  0  0  0 15  0  0  0  0  0  0
   18.9713   -7.0951   -3.7796 O   0  0  0  0  0 15  0  0  0  0  0  0
   18.7033   -0.3718   -0.5646 H   0  0  0  0  0 15  0  0  0  0  0  0
   21.2573   -1.6132   -1.2714 H   0  0  0  0  0 15  0  0  0  0  0  0
   19.4873   -0.9692   -3.7436 H   0  0  0  0  0 15  0  0  0  0  0  0
   21.1763   -1.3816   -3.8166 H   0  0  0  0  0 15  0  0  0  0  0  0
   21.9423   -3.7514   -3.0740 H   0  0  0  0  0 15  0  0  0  0  0  0
   17.8213   -2.7134   -3.7268 H   0  0  0  0  0 15  0  0  0  0  0  0
   21.3653   -6.1404   -3.3106 H   0  0  0  0  0 15  0  0  0  0  0  0
   17.2623   -5.0936   -3.9652 H   0  0  0  0  0 15  0  0  0  0  0  0
   18.0303   -7.1693   -3.9490 H   0  0  0  0  0 15  0  0  0  0  0  0
   20.6934    1.1989   -1.0230 N   0  0  0  0  0 15  0  0  0  0  0  0
   21.9394    1.8970   -0.7170 C   0  0  0  0  0 15  0  0  0  0  0  0
   22.2724    1.7905    0.7520 C   0  0  0  0  0 15  0  0  0  0  0  0
   21.5474    1.1789    1.5470 O   0  0  0  0  0 15  0  0  0  0  0  0
   21.8304    3.4086   -1.1614 C   0  0  0  0  0 15  0  0  0  0  0  0
   21.6834    3.6041   -2.6912 C   0  0  0  0  0 15  0  0  0  0  0  0
   23.0024    4.3388   -0.7375 C   0  0  0  0  0 15  0  0  0  0  0  0
   20.1214    0.6889   -0.2620 H   0  0  0  0  0 15  0  0  0  0  0  0
   22.7634    1.4115   -1.2718 H   0  0  0  0  0 15  0  0  0  0  0  0
   20.9134    3.8234   -0.6893 H   0  0  0  0  0 15  0  0  0  0  0  0
   22.5854    3.2815   -3.2422 H   0  0  0  0  0 15  0  0  0  0  0  0
   20.8284    3.0367   -3.0979 H   0  0  0  0  0 15  0  0  0  0  0  0
   21.4994    4.6640   -2.9526 H   0  0  0  0  0 15  0  0  0  0  0  0
   23.9754    4.0008   -1.1434 H   0  0  0  0  0 15  0  0  0  0  0  0
   22.8514    5.3824   -1.0764 H   0  0  0  0  0 15  0  0  0  0  0  0
   23.1124    4.4063    0.3604 H   0  0  0  0  0 15  0  0  0  0  0  0
   22.1715    0.8000    1.3578 N   0  0  0  0  0 15  0  0  0  0  0  0
   23.4205    0.3739    1.9820 C   0  0  0  0  0 15  0  0  0  0  0  0
   23.7335   -1.0630    1.6419 C   0  0  0  0  0 15  0  0  0  0  0  0
   24.9395   -1.5920    2.1993 O   0  0  0  0  0 15  0  0  0  0  0  0
   23.3955    0.6175    3.5456 C   0  0  0  0  0 15  0  0  0  0  0  0
   23.0035    2.0665    3.9749 C   0  0  0  0  0 15  0  0  0  0  0  0
   24.7475    0.2564    4.2372 C   0  0  0  0  0 15  0  0  0  0  0  0
   22.6545    2.2563    5.4667 C   0  0  0  0  0 15  0  0  0  0  0  0
   21.5845    0.1361    0.7416 H   0  0  0  0  0 15  0  0  0  0  0  0
   24.2355    0.9832    1.5494 H   0  0  0  0  0 15  0  0  0  0  0  0
   22.6175   -0.0616    3.9595 H   0  0  0  0  0 15  0  0  0  0  0  0
   23.7915    2.7830    3.6727 H   0  0  0  0  0 15  0  0  0  0  0  0
   22.1065    2.3869    3.4120 H   0  0  0  0  0 15  0  0  0  0  0  0
   24.7035    0.3763    5.3337 H   0  0  0  0  0 15  0  0  0  0  0  0
   25.0465   -0.7967    4.0861 H   0  0  0  0  0 15  0  0  0  0  0  0
   25.5795    0.8892    3.8773 H   0  0  0  0  0 15  0  0  0  0  0  0
   22.3185    3.2936    5.6675 H   0  0  0  0  0 15  0  0  0  0  0  0
   21.8385    1.5850    5.7848 H   0  0  0  0  0 15  0  0  0  0  0  0
   23.5175    2.0686    6.1304 H   0  0  0  0  0 15  0  0  0  0  0  0
   23.6496   -1.4758    0.5530 N   0  0  0  0  0 15  0  0  0  0  0  0
   24.9266   -1.9556   -0.0382 C   0  0  0  0  0 15  0  0  0  0  0  0
   25.3066   -1.4955   -1.4899 C   0  0  0  0  0 15  0  0  0  0  0  0
   24.6546   -0.7324   -2.1644 O   0  0  0  0  0 15  0  0  0  0  0  0
   24.8646   -3.4885    0.1029 C   0  0  0  0  0 15  0  0  0  0  0  0
   26.2126   -4.2458   -0.0446 C   0  0  0  0  0 15  0  0  0  0  0  0
   27.2366   -3.5619    0.0303 O   0  0  0  0  0 15  0  0  0  0  0  0
   26.0956   -5.4612   -0.2049 O   0  0  0  0  0 15  0  0  0  0  0  0
   23.1896   -0.8243   -0.0665 H   0  0  0  0  0 15  0  0  0  0  0  0
   25.7356   -1.5800    0.6192 H   0  0  0  0  0 15  0  0  0  0  0  0
   24.5076   -3.7513    1.1133 H   0  0  0  0  0 15  0  0  0  0  0  0
   24.1306   -3.9316   -0.5922 H   0  0  0  0  0 15  0  0  0  0  0  0
   25.1277   -0.2892   -1.5492 N   0  0  0  0  0 15  0  0  0  0  0  0
   26.3757    0.3229   -1.9950 C   0  0  0  0  0 15  0  0  0  0  0  0
   26.6967    1.5531   -1.1791 C   0  0  0  0  0 15  0  0  0  0  0  0
   25.9667    1.9400   -0.2721 O   0  0  0  0  0 15  0  0  0  0  0  0
   24.5467    0.1223   -0.7369 H   0  0  0  0  0 15  0  0  0  0  0  0
   27.2087   -0.3978   -1.9080 H   0  0  0  0  0 15  0  0  0  0  0  0
   26.3047    0.6031   -3.0622 H   0  0  0  0  0 15  0  0  0  0  0  0
   26.6058    1.5759   -0.0167 N   0  0  0  0  0 15  0  0  0  0  0  0
   27.8338    1.9558    0.6751 C   0  0  0  0  0 15  0  0  0  0  0  0
   28.2488    0.8925    1.6637 C   0  0  0  0  0 15  0  0  0  0  0  0
   27.6058   -0.1269    1.8206 O   0  0  0  0  0 15  0  0  0  0  0  0
   27.6568    3.3361    1.3924 C   0  0  0  0  0 15  0  0  0  0  0  0
   27.3778    4.3585    0.4434 O   0  0  0  0  0 15  0  0  0  0  0  0
   28.8788    3.8615    2.1772 C   0  0  0  0  0 15  0  0  0  0  0  0
   26.0988    0.6444    0.1870 H   0  0  0  0  0 15  0  0  0  0  0  0
   28.6428    2.0437   -0.0728 H   0  0  0  0  0 15  0  0  0  0  0  0
   26.7978    3.2607    2.0918 H   0  0  0  0  0 15  0  0  0  0  0  0
   27.2118    5.1580    0.9514 H   0  0  0  0  0 15  0  0  0  0  0  0
   28.6858    4.8511    2.6338 H   0  0  0  0  0 15  0  0  0  0  0  0
   29.1628    3.1974    3.0110 H   0  0  0  0  0 15  0  0  0  0  0  0
   29.7688    3.9692    1.5276 H   0  0  0  0  0 15  0  0  0  0  0  0
   28.0839   -0.2563    1.5550 N   0  0  0  0  0 15  0  0  0  0  0  0
   29.4999   -0.6043    1.4772 C   0  0  0  0  0 15  0  0  0  0  0  0
   29.6999   -1.8876    0.7050 C   0  0  0  0  0 15  0  0  0  0  0  0
   28.7559   -2.5144    0.2306 O   0  0  0  0  0 15  0  0  0  0  0  0
   30.0689   -0.7158    2.9206 C   0  0  0  0  0 15  0  0  0  0  0  0
   31.6169   -0.8087    3.0237 C   0  0  0  0  0 15  0  0  0  0  0  0
   32.0919   -0.9518    4.4800 C   0  0  0  0  0 15  0  0  0  0  0  0
   33.5829   -1.0169    4.5190 N   0  0  0  0  0 15  0  0  0  0  0  0
   34.3179   -1.1467    5.6182 C   0  0  0  0  0 15  0  0  0  0  0  0
   33.8139   -1.2426    6.8157 N   0  0  0  0  0 15  0  0  0  0  0  0
   35.6069   -1.1791    5.4959 N   0  0  0  0  0 15  0  0  0  0  0  0
   27.7579    0.5863    2.0415 H   0  0  0  0  0 15  0  0  0  0  0  0
   30.0209    0.2010    0.9264 H   0  0  0  0  0 15  0  0  0  0  0  0
   29.7269    0.1570    3.5135 H   0  0  0  0  0 15  0  0  0  0  0  0
   29.6009   -1.5907    3.4202 H   0  0  0  0  0 15  0  0  0  0  0  0
   31.9879   -1.6719    2.4317 H   0  0  0  0  0 15  0  0  0  0  0  0
   32.0689    0.0912    2.5564 H   0  0  0  0  0 15  0  0  0  0  0  0
   31.7129   -0.0931    5.0781 H   0  0  0  0  0 15  0  0  0  0  0  0
   31.6429   -1.8666    4.9241 H   0  0  0  0  0 15  0  0  0  0  0  0
   34.1339   -0.9545    3.6565 H   0  0  0  0  0 15  0  0  0  0  0  0
   34.4469   -1.3405    7.6109 H   0  0  0  0  0 15  0  0  0  0  0  0
   32.7919   -1.2124    6.8434 H   0  0  0  0  0 15  0  0  0  0  0  0
   35.9829   -1.1006    4.5498 H   0  0  0  0  0 15  0  0  0  0  0  0
   36.1559   -1.2768    6.3530 H   0  0  0  0  0 15  0  0  0  0  0  0
   29.5620   -1.4872   -0.5215 N   0  0  0  0  0 15  0  0  0  0  0  0
   30.8080   -1.5740   -1.2788 C   0  0  0  0  0 15  0  0  0  0  0  0
   31.1410   -0.2508   -1.9257 C   0  0  0  0  0 15  0  0  0  0  0  0
   30.4160    0.7439   -1.7971 O   0  0  0  0  0 15  0  0  0  0  0  0
   30.6990   -2.7184   -2.3616 C   0  0  0  0  0 15  0  0  0  0  0  0
   30.5520   -4.1389   -1.7610 C   0  0  0  0  0 15  0  0  0  0  0  0
   31.8710   -2.8201   -3.3788 C   0  0  0  0  0 15  0  0  0  0  0  0
   28.9900   -0.5729   -0.4636 H   0  0  0  0  0 15  0  0  0  0  0  0
   31.6320   -1.8093   -0.5801 H   0  0  0  0  0 15  0  0  0  0  0  0
   29.7820   -2.5191   -2.9576 H   0  0  0  0  0 15  0  0  0  0  0  0
   31.4540   -4.4528   -1.2050 H   0  0  0  0  0 15  0  0  0  0  0  0
   29.6970   -4.2050   -1.0660 H   0  0  0  0  0 15  0  0  0  0  0  0
   30.3680   -4.8980   -2.5455 H   0  0  0  0  0 15  0  0  0  0  0  0
   32.8440   -3.0009   -2.8825 H   0  0  0  0  0 15  0  0  0  0  0  0
   31.7200   -3.6380   -4.1103 H   0  0  0  0  0 15  0  0  0  0  0  0
   31.9810   -1.9051   -3.9895 H   0  0  0  0  0 15  0  0  0  0  0  0
   31.0401    0.7711   -1.3745 N   0  0  0  0  0 15  0  0  0  0  0  0
   32.2871    1.5296   -1.3270 C   0  0  0  0  0 15  0  0  0  0  0  0
   32.6151    1.9430    0.0883 C   0  0  0  0  0 15  0  0  0  0  0  0
   31.8701    1.6440    1.0617 O   0  0  0  0  0 15  0  0  0  0  0  0
   32.1691    2.8068   -2.2126 C   0  0  0  0  0 15  0  0  0  0  0  0
   31.8351    2.5839   -3.6952 C   0  0  0  0  0 15  0  0  0  0  0  0
   30.4971    2.5202   -4.0993 C   0  0  0  0  0 15  0  0  0  0  0  0
   32.8491    2.3847   -4.6345 C   0  0  0  0  0 15  0  0  0  0  0  0
   30.1771    2.2372   -5.4237 C   0  0  0  0  0 15  0  0  0  0  0  0
   32.5291    2.1169   -5.9613 C   0  0  0  0  0 15  0  0  0  0  0  0
   31.1931    2.0377   -6.3564 C   0  0  0  0  0 15  0  0  0  0  0  0
   30.4631    0.5597   -0.4856 H   0  0  0  0  0 15  0  0  0  0  0  0
   33.1101    0.8881   -1.6966 H   0  0  0  0  0 15  0  0  0  0  0  0
   31.4151    3.4939   -1.7729 H   0  0  0  0  0 15  0  0  0  0  0  0
   33.1121    3.3856   -2.1490 H   0  0  0  0  0 15  0  0  0  0  0  0
   29.7021    2.6421   -3.3748 H   0  0  0  0  0 15  0  0  0  0  0  0
   33.8861    2.4238   -4.3309 H   0  0  0  0  0 15  0  0  0  0  0  0
   29.1421    2.1608   -5.7194 H   0  0  0  0  0 15  0  0  0  0  0  0
   33.3161    1.9528   -6.6846 H   0  0  0  0  0 15  0  0  0  0  0  0
   30.9431    1.8161   -7.3819 H   0  0  0  0  0 15  0  0  0  0  0  0
   32.5182    1.2203    0.9973 N   0  0  0  0  0 15  0  0  0  0  0  0
   33.4482    1.0107    2.1049 C   0  0  0  0  0 15  0  0  0  0  0  0
   34.4292   -0.0670    1.6997 C   0  0  0  0  0 15  0  0  0  0  0  0
   35.6142    0.0944    1.9397 O   0  0  0  0  0 15  0  0  0  0  0  0
   32.7442    0.5829    3.4237 C   0  0  0  0  0 15  0  0  0  0  0  0
   31.6982    1.6059    3.9673 C   0  0  0  0  0 15  0  0  0  0  0  0
   31.0242    1.0341    5.2460 C   0  0  0  0  0 15  0  0  0  0  0  0
   32.3242    2.9948    4.2791 C   0  0  0  0  0 15  0  0  0  0  0  0
   34.0182    1.9371    2.2829 H   0  0  0  0  0 15  0  0  0  0  0  0
   31.5642    0.9328    1.0971 H   0  0  0  0  0 15  0  0  0  0  0  0
   33.5172    0.4233    4.1927 H   0  0  0  0  0 15  0  0  0  0  0  0
   32.2412   -0.3792    3.2439 H   0  0  0  0  0 15  0  0  0  0  0  0
   30.9002    1.7532    3.2196 H   0  0  0  0  0 15  0  0  0  0  0  0
   30.5482    0.0635    5.0296 H   0  0  0  0  0 15  0  0  0  0  0  0
   30.2482    1.7175    5.6194 H   0  0  0  0  0 15  0  0  0  0  0  0
   31.7722    0.8861    6.0414 H   0  0  0  0  0 15  0  0  0  0  0  0
   33.1862    2.8815    4.9562 H   0  0  0  0  0 15  0  0  0  0  0  0
   31.5832    3.6490    4.7641 H   0  0  0  0  0 15  0  0  0  0  0  0
   32.6532    3.4974    3.3587 H   0  0  0  0  0 15  0  0  0  0  0  0
   33.9963   -1.1934    1.0293 N   0  0  0  0  0 15  0  0  0  0  0  0
   35.2443   -1.8866    0.7246 C   0  0  0  0  0 15  0  0  0  0  0  0
   35.5653   -1.8004   -0.7491 C   0  0  0  0  0 15  0  0  0  0  0  0
   34.8353   -1.2111   -1.5398 O   0  0  0  0  0 15  0  0  0  0  0  0
   33.4153   -0.6984    0.2650 H   0  0  0  0  0 15  0  0  0  0  0  0
   36.0773   -1.4489    1.3036 H   0  0  0  0  0 15  0  0  0  0  0  0
   35.1733   -2.9499    1.0193 H   0  0  0  0  0 15  0  0  0  0  0  0
   35.4744   -0.8072   -1.3536 N   0  0  0  0  0 15  0  0  0  0  0  0
   36.4044   -0.2325   -2.3234 C   0  0  0  0  0 15  0  0  0  0  0  0
   37.3854    0.6424   -1.5750 C   0  0  0  0  0 15  0  0  0  0  0  0
   38.5704    0.5725   -1.8557 O   0  0  0  0  0 15  0  0  0  0  0  0
   35.7004    0.6192   -3.4173 C   0  0  0  0  0 15  0  0  0  0  0  0
   34.6544   -0.1572   -4.2771 C   0  0  0  0  0 15  0  0  0  0  0  0
   33.9804    0.8163   -5.2843 C   0  0  0  0  0 15  0  0  0  0  0  0
   35.2804   -1.3566   -5.0438 C   0  0  0  0  0 15  0  0  0  0  0  0
   36.9744   -1.0428   -2.8065 H   0  0  0  0  0 15  0  0  0  0  0  0
   34.5204   -0.5029   -1.3493 H   0  0  0  0  0 15  0  0  0  0  0  0
   36.4734    1.0314   -4.0858 H   0  0  0  0  0 15  0  0  0  0  0  0
   35.1974    1.4624   -2.9203 H   0  0  0  0  0 15  0  0  0  0  0  0
   33.8564   -0.5505   -3.6244 H   0  0  0  0  0 15  0  0  0  0  0  0
   33.5044    1.6549   -4.7500 H   0  0  0  0  0 15  0  0  0  0  0  0
   33.2044    0.3011   -5.8683 H   0  0  0  0  0 15  0  0  0  0  0  0
   34.7284    1.2266   -5.9815 H   0  0  0  0  0 15  0  0  0  0  0  0
   36.1424   -1.0193   -5.6417 H   0  0  0  0  0 15  0  0  0  0  0  0
   34.5394   -1.8063   -5.7227 H   0  0  0  0  0 15  0  0  0  0  0  0
   35.6094   -2.1429   -4.3498 H   0  0  0  0  0 15  0  0  0  0  0  0
   36.9525    1.4729   -0.5608 N   0  0  0  0  0 15  0  0  0  0  0  0
   37.9155    2.2853    0.1745 C   0  0  0  0  0 15  0  0  0  0  0  0
   38.9155    1.3715    0.8394 C   0  0  0  0  0 15  0  0  0  0  0  0
   40.1055    1.5975    0.6947 O   0  0  0  0  0 15  0  0  0  0  0  0
   37.2375    3.1693    1.2556 C   0  0  0  0  0 15  0  0  0  0  0  0
   38.4305    2.9501   -0.5393 H   0  0  0  0  0 15  0  0  0  0  0  0
   35.9835    1.5303   -0.3179 H   0  0  0  0  0 15  0  0  0  0  0  0
   36.7185    2.5516    2.0016 H   0  0  0  0  0 15  0  0  0  0  0  0
   36.5035    3.8419    0.7836 H   0  0  0  0  0 15  0  0  0  0  0  0
   37.9935    3.7814    1.7719 H   0  0  0  0  0 15  0  0  0  0  0  0
   38.4306    0.2974    1.5477 N   0  0  0  0  0 15  0  0  0  0  0  0
   39.3606   -0.5735    2.2635 C   0  0  0  0  0 15  0  0  0  0  0  0
   40.3416   -1.1409    1.2617 C   0  0  0  0  0 15  0  0  0  0  0  0
   41.5266   -1.1709    1.5493 O   0  0  0  0  0 15  0  0  0  0  0  0
   38.6566   -1.7472    3.0015 C   0  0  0  0  0 15  0  0  0  0  0  0
   37.6106   -1.3103    4.0745 C   0  0  0  0  0 15  0  0  0  0  0  0
   36.9366   -2.5689    4.6895 C   0  0  0  0  0 15  0  0  0  0  0  0
   38.2366   -0.4442    5.2041 C   0  0  0  0  0 15  0  0  0  0  0  0
   39.9306    0.0235    2.9939 H   0  0  0  0  0 15  0  0  0  0  0  0
   37.4766    0.0127    1.4399 H   0  0  0  0  0 15  0  0  0  0  0  0
   39.4296   -2.3625    3.4895 H   0  0  0  0  0 15  0  0  0  0  0  0
   38.1536   -2.3704    2.2468 H   0  0  0  0  0 15  0  0  0  0  0  0
   36.8126   -0.7181    3.5950 H   0  0  0  0  0 15  0  0  0  0  0  0
   36.4606   -3.1751    3.9012 H   0  0  0  0  0 15  0  0  0  0  0  0
   36.1606   -2.2836    5.4141 H   0  0  0  0  0 15  0  0  0  0  0  0
   37.6846   -3.1923    5.2050 H   0  0  0  0  0 15  0  0  0  0  0  0
   39.0986   -0.9651    5.6512 H   0  0  0  0  0 15  0  0  0  0  0  0
   37.4956   -0.2528    5.9957 H   0  0  0  0  0 15  0  0  0  0  0  0
   38.5656    0.5316    4.8198 H   0  0  0  0  0 15  0  0  0  0  0  0
   39.9087   -1.5758    0.0251 N   0  0  0  0  0 15  0  0  0  0  0  0
   41.1547   -1.9192   -0.6554 C   0  0  0  0  0 15  0  0  0  0  0  0
   41.4877   -0.9014   -1.7201 C   0  0  0  0  0 15  0  0  0  0  0  0
   40.7627    0.0764   -1.9435 O   0  0  0  0  0 15  0  0  0  0  0  0
   41.0457   -3.3675   -1.2756 C   0  0  0  0  0 15  0  0  0  0  0  0
   40.8987   -4.4926   -0.2207 C   0  0  0  0  0 15  0  0  0  0  0  0
   42.2177   -3.8147   -2.1947 C   0  0  0  0  0 15  0  0  0  0  0  0
   39.3367   -0.6979   -0.2368 H   0  0  0  0  0 15  0  0  0  0  0  0
   41.9787   -1.8983    0.0815 H   0  0  0  0  0 15  0  0  0  0  0  0
   40.1287   -3.3866   -1.9037 H   0  0  0  0  0 15  0  0  0  0  0  0
   41.8007   -4.5948    0.4096 H   0  0  0  0  0 15  0  0  0  0  0  0
   40.0437   -4.3141    0.4543 H   0  0  0  0  0 15  0  0  0  0  0  0
   40.7147   -5.4762   -0.6942 H   0  0  0  0  0 15  0  0  0  0  0  0
   43.1907   -3.8127   -1.6666 H   0  0  0  0  0 15  0  0  0  0  0  0
   42.0667   -4.8351   -2.5982 H   0  0  0  0  0 15  0  0  0  0  0  0
   42.3277   -3.1674   -3.0842 H   0  0  0  0  0 15  0  0  0  0  0  0
   41.3868    0.2480   -1.5564 N   0  0  0  0  0 15  0  0  0  0  0  0
   42.3498    1.2904   -1.8942 C   0  0  0  0  0 15  0  0  0  0  0  0
   43.3498    1.4113   -0.7706 C   0  0  0  0  0 15  0  0  0  0  0  0
   44.5398    1.3985   -1.0386 O   0  0  0  0  0 15  0  0  0  0  0  0
   41.6718    2.6683   -2.1216 C   0  0  0  0  0 15  0  0  0  0  0  0
   42.8648    1.0031   -2.8263 H   0  0  0  0  0 15  0  0  0  0  0  0
   40.4178    0.4873   -1.4851 H   0  0  0  0  0 15  0  0  0  0  0  0
   41.1528    3.0071   -1.2142 H   0  0  0  0  0 15  0  0  0  0  0  0
   40.9378    2.5944   -2.9400 H   0  0  0  0  0 15  0  0  0  0  0  0
   42.4278    3.4210   -2.3949 H   0  0  0  0  0 15  0  0  0  0  0  0
   42.8649    1.4899    0.5136 N   0  0  0  0  0 15  0  0  0  0  0  0
   43.8149    1.6113    1.6131 C   0  0  0  0  0 15  0  0  0  0  0  0
   44.7989    0.4675    1.5396 C   0  0  0  0  0 15  0  0  0  0  0  0
   45.9909    0.7198    1.6170 O   0  0  0  0  0 15  0  0  0  0  0  0
   43.1199    1.6694    2.9998 C   0  0  0  0  0 15  0  0  0  0  0  0
   42.2059    2.8685    3.1238 C   0  0  0  0  0 15  0  0  0  0  0  0
   42.5969    4.1108    2.9470 N   0  0  0  0  0 15  0  0  0  0  0  0
   40.8949    2.8452    3.4346 C   0  0  0  0  0 15  0  0  0  0  0  0
   41.5959    4.9162    3.1095 C   0  0  0  0  0 15  0  0  0  0  0  0
   40.5719    4.2474    3.3926 N   0  0  0  0  0 15  0  0  0  0  0  0
   44.3739    2.5491    1.4628 H   0  0  0  0  0 15  0  0  0  0  0  0
   41.8879    1.4559    0.7195 H   0  0  0  0  0 15  0  0  0  0  0  0
   43.8849    1.7372    3.7898 H   0  0  0  0  0 15  0  0  0  0  0  0
   42.5449    0.7428    3.1609 H   0  0  0  0  0 15  0  0  0  0  0  0
   43.5559    4.4126    2.7113 H   0  0  0  0  0 15  0  0  0  0  0  0
   40.2329    2.0119    3.6583 H   0  0  0  0  0 15  0  0  0  0  0  0
   41.6229    6.0026    3.0188 H   0  0  0  0  0 15  0  0  0  0  0  0
   44.3430   -0.7638    1.3786 N   0  0  0  0  0 15  0  0  0  0  0  0
   45.5900   -1.5226    1.3351 C   0  0  0  0  0 15  0  0  0  0  0  0
   45.9180   -1.9434   -0.0780 C   0  0  0  0  0 15  0  0  0  0  0  0
   45.1730   -1.6496   -1.0530 O   0  0  0  0  0 15  0  0  0  0  0  0
   45.4720   -2.7950    2.2274 C   0  0  0  0  0 15  0  0  0  0  0  0
   45.1380   -2.5643    3.7089 C   0  0  0  0  0 15  0  0  0  0  0  0
   43.8000   -2.4984    4.1126 C   0  0  0  0  0 15  0  0  0  0  0  0
   46.1520   -2.3601    4.6470 C   0  0  0  0  0 15  0  0  0  0  0  0
   43.4800   -2.2084    5.4355 C   0  0  0  0  0 15  0  0  0  0  0  0
   45.8320   -2.0853    5.9724 C   0  0  0  0  0 15  0  0  0  0  0  0
   44.4960   -2.0040    6.3671 C   0  0  0  0  0 15  0  0  0  0  0  0
   43.7660   -0.5571    0.4885 H   0  0  0  0  0 15  0  0  0  0  0  0
   46.4130   -0.8791    1.7013 H   0  0  0  0  0 15  0  0  0  0  0  0
   44.7180   -3.4845    1.7914 H   0  0  0  0  0 15  0  0  0  0  0  0
   46.4150   -3.3741    2.1669 H   0  0  0  0  0 15  0  0  0  0  0  0
   43.0050   -2.6242    3.3887 H   0  0  0  0  0 15  0  0  0  0  0  0
   47.1890   -2.4008    4.3437 H   0  0  0  0  0 15  0  0  0  0  0  0
   42.4450   -2.1304    5.7308 H   0  0  0  0  0 15  0  0  0  0  0  0
   46.6190   -1.9173    6.6949 H   0  0  0  0  0 15  0  0  0  0  0  0
   44.2460   -1.7769    7.3914 H   0  0  0  0  0 15  0  0  0  0  0  0
   45.8211   -1.2256   -0.9908 N   0  0  0  0  0 15  0  0  0  0  0  0
   46.7511   -1.0218   -2.0996 C   0  0  0  0  0 15  0  0  0  0  0  0
   47.7321    0.0579   -1.7000 C   0  0  0  0  0 15  0  0  0  0  0  0
   48.9171   -0.1047   -1.9392 O   0  0  0  0  0 15  0  0  0  0  0  0
   46.0471   -0.6010   -3.4206 C   0  0  0  0  0 15  0  0  0  0  0  0
   45.0011   -1.6269   -3.9587 C   0  0  0  0  0 15  0  0  0  0  0  0
   44.3271   -1.0619   -5.2405 C   0  0  0  0  0 15  0  0  0  0  0  0
   45.6271   -3.0174   -4.2632 C   0  0  0  0  0 15  0  0  0  0  0  0
   47.3211   -1.9492   -2.2726 H   0  0  0  0  0 15  0  0  0  0  0  0
   44.8671   -0.9386   -1.0921 H   0  0  0  0  0 15  0  0  0  0  0  0
   46.8201   -0.4456   -4.1904 H   0  0  0  0  0 15  0  0  0  0  0  0
   45.5441    0.3620   -3.2459 H   0  0  0  0  0 15  0  0  0  0  0  0
   44.2031   -1.7702   -3.2103 H   0  0  0  0  0 15  0  0  0  0  0  0
   43.8511   -0.0902   -5.0292 H   0  0  0  0  0 15  0  0  0  0  0  0
   43.5511   -1.7473   -5.6102 H   0  0  0  0  0 15  0  0  0  0  0  0
   45.0751   -0.9181   -6.0366 H   0  0  0  0  0 15  0  0  0  0  0  0
   46.4891   -2.9078   -4.9409 H   0  0  0  0  0 15  0  0  0  0  0  0
   44.8861   -3.6742   -4.7447 H   0  0  0  0  0 15  0  0  0  0  0  0
   45.9561   -3.5152   -3.3401 H   0  0  0  0  0 15  0  0  0  0  0  0
   47.2992    1.1880   -1.0356 N   0  0  0  0  0 15  0  0  0  0  0  0
   48.2622    2.2046   -0.6268 C   0  0  0  0  0 15  0  0  0  0  0  0
   49.2622    1.5772    0.3132 C   0  0  0  0  0 15  0  0  0  0  0  0
   50.4522    1.7392    0.0993 O   0  0  0  0  0 15  0  0  0  0  0  0
   47.5842    3.4080    0.0818 C   0  0  0  0  0 15  0  0  0  0  0  0
   48.7772    2.5815   -1.5264 H   0  0  0  0  0 15  0  0  0  0  0  0
   46.3302    1.3259   -0.8276 H   0  0  0  0  0 15  0  0  0  0  0  0
   47.0652    3.0864    0.9955 H   0  0  0  0  0 15  0  0  0  0  0  0
   46.8502    3.8758   -0.5937 H   0  0  0  0  0 15  0  0  0  0  0  0
   48.3402    4.1609    0.3546 H   0  0  0  0  0 15  0  0  0  0  0  0
   48.7773    0.8144    1.3493 N   0  0  0  0  0 15  0  0  0  0  0  0
   50.0243    0.3984    1.9854 C   0  0  0  0  0 15  0  0  0  0  0  0
   50.3523   -1.0364    1.6459 C   0  0  0  0  0 15  0  0  0  0  0  0
   49.6073   -1.7351    0.9052 O   0  0  0  0  0 15  0  0  0  0  0  0
   49.9063    0.5378    3.5333 C   0  0  0  0  0 15  0  0  0  0  0  0
   49.5723    1.9370    4.0717 C   0  0  0  0  0 15  0  0  0  0  0  0
   48.2343    2.3198    4.2159 C   0  0  0  0  0 15  0  0  0  0  0  0
   50.5863    2.8521    4.3624 C   0  0  0  0  0 15  0  0  0  0  0  0
   47.9143    3.6112    4.6239 C   0  0  0  0  0 15  0  0  0  0  0  0
   50.2663    4.1381    4.7848 C   0  0  0  0  0 15  0  0  0  0  0  0
   48.9303    4.5208    4.9110 C   0  0  0  0  0 15  0  0  0  0  0  0
   48.2003    0.1458    0.7265 H   0  0  0  0  0 15  0  0  0  0  0  0
   50.8473    1.0367    1.6101 H   0  0  0  0  0 15  0  0  0  0  0  0
   49.1523   -0.1839    3.9137 H   0  0  0  0  0 15  0  0  0  0  0  0
   50.8493    0.1966    4.0052 H   0  0  0  0  0 15  0  0  0  0  0  0
   47.4393    1.6297    3.9641 H   0  0  0  0  0 15  0  0  0  0  0  0
   51.6233    2.5689    4.2465 H   0  0  0  0  0 15  0  0  0  0  0  0
   46.8793    3.9061    4.7035 H   0  0  0  0  0 15  0  0  0  0  0  0
   51.0533    4.8481    4.9993 H   0  0  0  0  0 15  0  0  0  0  0  0
   48.6803    5.5220    5.2248 H   0  0  0  0  0 15  0  0  0  0  0  0
   50.2554   -1.4699    0.5686 N   0  0  0  0  0 15  0  0  0  0  0  0
   51.4804   -2.0733    0.0521 C   0  0  0  0  0 15  0  0  0  0  0  0
   51.9054   -1.4167   -1.2373 C   0  0  0  0  0 15  0  0  0  0  0  0
   51.2634   -0.4956   -1.7439 O   0  0  0  0  0 15  0  0  0  0  0  0
   51.3114   -3.6042   -0.1150 C   0  0  0  0  0 15  0  0  0  0  0  0
   50.4154   -3.9531   -1.1749 O   0  0  0  0  0 15  0  0  0  0  0  0
   49.7564   -0.6616    0.0564 H   0  0  0  0  0 15  0  0  0  0  0  0
   52.2864   -1.8884    0.7875 H   0  0  0  0  0 15  0  0  0  0  0  0
   52.2964   -4.0670   -0.3256 H   0  0  0  0  0 15  0  0  0  0  0  0
   50.9714   -4.0760    0.8267 H   0  0  0  0  0 15  0  0  0  0  0  0
   49.5484   -3.6076   -0.9439 H   0  0  0  0  0 15  0  0  0  0  0  0
   51.7335   -0.3056   -1.5461 N   0  0  0  0  0 15  0  0  0  0  0  0
   52.6965    0.5556   -2.2236 C   0  0  0  0  0 15  0  0  0  0  0  0
   53.6965    1.0577   -1.2112 C   0  0  0  0  0 15  0  0  0  0  0  0
   54.8865    0.9530   -1.4582 O   0  0  0  0  0 15  0  0  0  0  0  0
   52.0185    1.7697   -2.9136 C   0  0  0  0  0 15  0  0  0  0  0  0
   53.2115   -0.0365   -2.9988 H   0  0  0  0  0 15  0  0  0  0  0  0
   50.7645   -0.0565   -1.5620 H   0  0  0  0  0 15  0  0  0  0  0  0
   51.4995    2.4015   -2.1794 H   0  0  0  0  0 15  0  0  0  0  0  0
   51.2845    1.4173   -3.6559 H   0  0  0  0  0 15  0  0  0  0  0  0
   52.7745    2.3815   -3.4304 H   0  0  0  0  0 15  0  0  0  0  0  0
   53.2116    1.5756   -0.0334 N   0  0  0  0  0 15  0  0  0  0  0  0
   54.4396    1.9628    0.6543 C   0  0  0  0  0 15  0  0  0  0  0  0
   54.8546    0.9101    1.6541 C   0  0  0  0  0 15  0  0  0  0  0  0
   54.2116   -0.1076    1.8218 O   0  0  0  0  0 15  0  0  0  0  0  0
   54.2626    3.3507    1.3569 C   0  0  0  0  0 15  0  0  0  0  0  0
   53.9836    4.3630    0.3972 O   0  0  0  0  0 15  0  0  0  0  0  0
   55.4846    3.8844    2.1361 C   0  0  0  0  0 15  0  0  0  0  0  0
   52.7046    0.6464    0.1801 H   0  0  0  0  0 15  0  0  0  0  0  0
   55.2486    2.0428   -0.0945 H   0  0  0  0  0 15  0  0  0  0  0  0
   53.4036    3.2827    2.0571 H   0  0  0  0  0 15  0  0  0  0  0  0
   53.8176    5.1678    0.8966 H   0  0  0  0  0 15  0  0  0  0  0  0
   55.2916    4.8788    2.5822 H   0  0  0  0  0 15  0  0  0  0  0  0
   55.7686    3.2291    2.9770 H   0  0  0  0  0 15  0  0  0  0  0  0
   56.3746    3.9852    1.4854 H   0  0  0  0  0 15  0  0  0  0  0  0
   54.6897   -0.2398    1.5577 N   0  0  0  0  0 15  0  0  0  0  0  0
   56.1007   -0.8083    1.6830 C   0  0  0  0  0 15  0  0  0  0  0  0
   56.4517   -1.8574    0.6322 C   0  0  0  0  0 15  0  0  0  0  0  0
   55.5767   -2.1528   -0.2202 O   0  0  0  0  0 15  0  0  0  0  0  0
   56.1717   -1.4728    3.0511 C   0  0  0  0  0 15  0  0  0  0  0  0
   54.7307   -1.9889    3.1956 C   0  0  0  0  0 15  0  0  0  0  0  0
   53.8777   -0.8426    2.6419 C   0  0  0  0  0 15  0  0  0  0  0  0
   56.8287   -0.0154    1.5869 H   0  0  0  0  0 15  0  0  0  0  0  0
   56.8497   -2.3411    2.9995 H   0  0  0  0  0 15  0  0  0  0  0  0
   56.3617   -0.7091    3.8157 H   0  0  0  0  0 15  0  0  0  0  0  0
   54.4627   -2.7813    2.4794 H   0  0  0  0  0 15  0  0  0  0  0  0
   54.5757   -2.1814    4.2656 H   0  0  0  0  0 15  0  0  0  0  0  0
   52.9397   -1.2450    2.2220 H   0  0  0  0  0 15  0  0  0  0  0  0
   53.7227   -0.0918    3.4318 H   0  0  0  0  0 15  0  0  0  0  0  0
   56.1678   -1.4927   -0.5057 N   0  0  0  0  0 15  0  0  0  0  0  0
   57.4138   -1.5972   -1.2594 C   0  0  0  0  0 15  0  0  0  0  0  0
   57.7688   -0.2782   -1.9038 C   0  0  0  0  0 15  0  0  0  0  0  0
   57.0618    0.7211   -1.7751 O   0  0  0  0  0 15  0  0  0  0  0  0
   57.2558   -2.6901   -2.3531 C   0  0  0  0  0 15  0  0  0  0  0  0
   57.0848   -4.1141   -1.8159 C   0  0  0  0  0 15  0  0  0  0  0  0
   55.8548   -4.7825   -1.6311 C   0  0  0  0  0 15  0  0  0  0  0  0
   58.0528   -4.9679   -1.3305 C   0  0  0  0  0 15  0  0  0  0  0  0
   56.0348   -6.0498   -1.0427 N   0  0  0  0  0 15  0  0  0  0  0  0
   57.4058   -6.1396   -0.8632 C   0  0  0  0  0 15  0  0  0  0  0  0
   59.4608   -4.8283   -1.2158 C   0  0  0  0  0 15  0  0  0  0  0  0
   58.1638   -7.1871   -0.2925 C   0  0  0  0  0 15  0  0  0  0  0  0
   60.1898   -5.8772   -0.6591 C   0  0  0  0  0 15  0  0  0  0  0  0
   59.5518   -7.0411   -0.2020 C   0  0  0  0  0 15  0  0  0  0  0  0
   55.6508   -0.6389   -0.4510 H   0  0  0  0  0 15  0  0  0  0  0  0
   58.2348   -1.8625   -0.5673 H   0  0  0  0  0 15  0  0  0  0  0  0
   56.4058   -2.4426   -3.0198 H   0  0  0  0  0 15  0  0  0  0  0  0
   58.1378   -2.6901   -3.0235 H   0  0  0  0  0 15  0  0  0  0  0  0
   54.8928   -4.3497   -1.8734 H   0  0  0  0  0 15  0  0  0  0  0  0
   55.3168   -6.7263   -0.7679 H   0  0  0  0  0 15  0  0  0  0  0  0
   59.9588   -3.9316   -1.5552 H   0  0  0  0  0 15  0  0  0  0  0  0
   57.6768   -8.0808    0.0592 H   0  0  0  0  0 15  0  0  0  0  0  0
   61.2628   -5.7897   -0.5732 H   0  0  0  0  0 15  0  0  0  0  0  0
   60.1428   -7.8389    0.2221 H   0  0  0  0  0 15  0  0  0  0  0  0
   57.6459    0.7564   -1.3826 N   0  0  0  0  0 15  0  0  0  0  0  0
   58.5759    1.8837   -1.3798 C   0  0  0  0  0 15  0  0  0  0  0  0
   59.5569    1.6831   -0.2461 C   0  0  0  0  0 15  0  0  0  0  0  0
   60.7419    1.8894   -0.4487 O   0  0  0  0  0 15  0  0  0  0  0  0
   57.8719    3.2586   -1.2012 C   0  0  0  0  0 15  0  0  0  0  0  0
   56.8259    3.6052   -2.3067 C   0  0  0  0  0 15  0  0  0  0  0  0
   56.1519    4.9672   -1.9792 C   0  0  0  0  0 15  0  0  0  0  0  0
   57.4519    3.6569   -3.7292 C   0  0  0  0  0 15  0  0  0  0  0  0
   59.1459    1.8887   -2.3231 H   0  0  0  0  0 15  0  0  0  0  0  0
   56.6919    0.9073   -1.1182 H   0  0  0  0  0 15  0  0  0  0  0  0
   58.6449    4.0438   -1.1855 H   0  0  0  0  0 15  0  0  0  0  0  0
   57.3689    3.2584   -0.2225 H   0  0  0  0  0 15  0  0  0  0  0  0
   56.0279    2.8432   -2.3142 H   0  0  0  0  0 15  0  0  0  0  0  0
   55.6759    4.9325   -0.9854 H   0  0  0  0  0 15  0  0  0  0  0  0
   55.3759    5.2088   -2.7196 H   0  0  0  0  0 15  0  0  0  0  0  0
   56.8999    5.7762   -1.9796 H   0  0  0  0  0 15  0  0  0  0  0  0
   58.3139    4.3433   -3.7421 H   0  0  0  0  0 15  0  0  0  0  0  0
   56.7109    4.0136   -4.4613 H   0  0  0  0  0 15  0  0  0  0  0  0
   57.7809    2.6599   -4.0544 H   0  0  0  0  0 15  0  0  0  0  0  0
   59.1240    1.2308    0.9843 N   0  0  0  0  0 15  0  0  0  0  0  0
   60.0740    0.9757    2.0607 C   0  0  0  0  0 15  0  0  0  0  0  0
   61.0580   -0.0768    1.6072 C   0  0  0  0  0 15  0  0  0  0  0  0
   62.2500    0.1348    1.7649 O   0  0  0  0  0 15  0  0  0  0  0  0
   59.3790    0.5647    3.3862 C   0  0  0  0  0 15  0  0  0  0  0  0
   58.4650    1.6524    3.9058 C   0  0  0  0  0 15  0  0  0  0  0  0
   58.8560    2.8819    4.1567 N   0  0  0  0  0 15  0  0  0  0  0  0
   57.1540    1.5261    4.1908 C   0  0  0  0  0 15  0  0  0  0  0  0
   57.8550    3.5859    4.5802 C   0  0  0  0  0 15  0  0  0  0  0  0
   56.8310    2.8609    4.6222 N   0  0  0  0  0 15  0  0  0  0  0  0
   60.6330    1.9096    2.2341 H   0  0  0  0  0 15  0  0  0  0  0  0
   58.1470    1.1296    1.1668 H   0  0  0  0  0 15  0  0  0  0  0  0
   60.1440    0.3632    4.1531 H   0  0  0  0  0 15  0  0  0  0  0  0
   58.8040   -0.3621    3.2267 H   0  0  0  0  0 15  0  0  0  0  0  0
   59.8150    3.2454    4.0360 H   0  0  0  0  0 15  0  0  0  0  0  0
   56.4920    0.6661    4.1215 H   0  0  0  0  0 15  0  0  0  0  0  0
   57.8820    4.6397    4.8598 H   0  0  0  0  0 15  0  0  0  0  0  0
   60.6410   -1.1158    1.1675 O   0  0  0  0  0 15  0  0  0  0  0  0
   61.3320   -1.7145    0.9014 H   0  0  0  0  0 15  0  0  0  0  0  0
M  END
$$$$
