drugbank_target|P0AC13 Dihydropteroate synthase (DB00259; DB00263; DB00576; DB00634; DB01015; DB01298; DB01581; DB01582; DB06729; DB06821; DB14033)
 OpenBabel12092119403D

  0  0  0     0  0            999 V3000
M  V30 BEGIN CTAB
M  V30 COUNTS 4306 4343 0 0 0
M  V30 BEGIN ATOM
M  V30 1 H -0.908 1.98254 -0.117106 0
M  V30 2 N 0 1.576 0 0
M  V30 3 C 0.933 2.03868 1.02534 0
M  V30 4 C 1.911 0.928543 1.3348 0
M  V30 5 O 3.095 1.19667 1.45644 0
M  V30 6 C 0.222 2.43627 2.35294 0
M  V30 7 C -0.732 3.65373 2.2001 0
M  V30 8 S 0.101 5.13292 1.52614 0
M  V30 9 C 1.257 5.56322 2.86805 0
M  V30 10 H 1.49 2.90518 0.631377 0
M  V30 11 H -0.977 1.52953 0.210867 0
M  V30 12 H 0.981 2.67203 3.11629 0
M  V30 13 H -0.358 1.57376 2.7183 0
M  V30 14 H -1.165 3.90944 3.18086 0
M  V30 15 H -1.563 3.418 1.51819 0
M  V30 16 H 0.729 5.58782 3.83104 0
M  V30 17 H 1.672 6.56266 2.65933 0
M  V30 18 H 2.08 4.83886 2.90714 0
M  V30 19 N 1.4781 -0.272755 1.55222 0
M  V30 20 C 2.4251 -1.33716 1.88119 0
M  V30 21 C 3.3951 -1.49066 0.73271 0
M  V30 22 O 4.5801 -1.63469 0.984002 0
M  V30 23 C 1.7201 -2.69238 2.15882 0
M  V30 24 C 0.8331 -2.62108 3.43399 0
M  V30 25 C -0.0319 -3.89811 3.60861 0
M  V30 26 C -0.9929 -3.77193 4.8207 0
M  V30 27 N -1.8559 -4.9673 4.96189 0
M  V30 28 H 2.9841 -1.04962 2.78903 0
M  V30 29 H 0.5211 -0.507088 1.38083 0
M  V30 30 H 2.4791 -3.48089 2.29978 0
M  V30 31 H 1.1091 -2.96194 1.28331 0
M  V30 32 H 0.1611 -1.74967 3.37773 0
M  V30 33 H 1.4731 -2.48685 4.32386 0
M  V30 34 H 0.6271 -4.77103 3.74777 0
M  V30 35 H -0.6339 -4.06102 2.7006 0
M  V30 36 H -1.6289 -2.88284 4.68159 0
M  V30 37 H -0.4039 -3.62421 5.74307 0
M  V30 38 H -2.4579 -5.13431 4.08319 0
M  V30 39 H -2.5409 -4.85839 5.79221 0
M  V30 40 H -1.2729 -5.85594 5.1449 0
M  V30 41 N 2.9562 -1.48159 -0.537278 0
M  V30 42 C 3.8862 -1.65029 -1.6519 0
M  V30 43 C 4.8672 -0.499281 -1.62607 0
M  V30 44 O 6.0522 -0.730972 -1.79918 0
M  V30 45 C 3.1822 -1.68303 -3.03795 0
M  V30 46 C 2.1362 -2.8283 -3.21234 0
M  V30 47 C 1.4622 -2.71189 -4.60826 0
M  V30 48 C 2.7622 -4.24211 -3.04701 0
M  V30 49 H 4.4562 -2.58341 -1.51328 0
M  V30 50 H 2.0022 -1.24325 -0.726585 0
M  V30 51 H 3.9552 -1.78693 -3.81637 0
M  V30 52 H 2.6792 -0.715635 -3.18663 0
M  V30 53 H 1.3382 -2.71983 -2.45807 0
M  V30 54 H 0.9862 -1.72435 -4.7252 0
M  V30 55 H 0.6862 -3.48035 -4.7344 0
M  V30 56 H 2.2102 -2.83537 -5.40777 0
M  V30 57 H 3.6242 -4.3593 -3.72341 0
M  V30 58 H 2.0212 -5.01998 -3.28813 0
M  V30 59 H 3.0912 -4.41184 -2.01209 0
M  V30 60 N 4.4343 0.785586 -1.36625 0
M  V30 61 C 5.6813 1.54362 -1.31067 0
M  V30 62 C 6.0093 1.94195 0.10893 0
M  V30 63 O 5.2643 1.63262 1.07908 0
M  V30 64 C 5.5633 2.83007 -2.1827 0
M  V30 65 C 5.2293 2.62294 -3.6676 0
M  V30 66 C 3.8913 2.56353 -4.0723 0
M  V30 67 C 6.2433 2.43371 -4.6089 0
M  V30 68 C 3.5713 2.29461 -5.39967 0
M  V30 69 C 5.9233 2.18005 -5.93849 0
M  V30 70 C 4.5873 2.105 -6.3344 0
M  V30 71 H 3.8573 0.564851 -0.479609 0
M  V30 72 H 6.5043 0.906028 -1.68711 0
M  V30 73 H 4.8093 3.51253 -1.73576 0
M  V30 74 H 6.5063 3.40817 -2.11292 0
M  V30 75 H 3.0963 2.67774 -3.34656 0
M  V30 76 H 7.2803 2.46959 -4.30494 0
M  V30 77 H 2.5363 2.22135 -5.69619 0
M  V30 78 H 6.7103 2.02359 -6.66351 0
M  V30 79 H 4.3373 1.89425 -7.36222 0
M  V30 80 N 5.9124 1.20967 1.01018 0
M  V30 81 C 6.8754 0.965918 2.07853 0
M  V30 82 C 7.8754 -0.0610545 1.60684 0
M  V30 83 O 9.0654 0.175681 1.73312 0
M  V30 84 C 6.1974 0.455513 3.37843 0
M  V30 85 H 7.3904 1.91365 2.3091 0
M  V30 86 H 4.9434 1.02594 1.17916 0
M  V30 87 H 5.6784 -0.497381 3.20463 0
M  V30 88 H 5.4634 1.19622 3.73407 0
M  V30 89 H 6.9534 0.304667 4.16487 0
M  V30 90 N 7.3905 -1.2043 1.01659 0
M  V30 91 C 8.3225 -2.22626 0.544988 0
M  V30 92 C 9.3355 -1.58479 -0.372609 0
M  V30 93 O 10.5245 -1.77679 -0.170958 0
M  V30 94 C 7.6245 -3.38141 -0.22663 0
M  V30 95 C 6.7975 -4.31877 0.692876 0
M  V30 96 C 5.8565 -5.26191 -0.0311616 0
M  V30 97 O 4.8825 -5.6612 0.591343 0
M  V30 98 N 6.0845 -5.65618 -1.30601 0
M  V30 99 H 8.8495 -2.63716 1.42388 0
M  V30 100 H 6.4105 -1.34971 0.894116 0
M  V30 101 H 8.4025 -3.98239 -0.72024 0
M  V30 102 H 6.9725 -2.95943 -1.00681 0
M  V30 103 H 6.1925 -3.69746 1.36679 0
M  V30 104 H 7.4805 -4.91426 1.31824 0
M  V30 105 H 6.8785 -5.3519 -1.83269 0
M  V30 106 H 5.4355 -6.28025 -1.74435 0
M  V30 107 N 8.8686 -0.792821 -1.36206 0
M  V30 108 C 10.1166 -0.366062 -1.98757 0
M  V30 109 C 10.4376 1.0668 -1.63231 0
M  V30 110 O 9.7076 1.73587 -0.907978 0
M  V30 111 H 8.2876 -0.132364 -0.735179 0
M  V30 112 H 10.9496 -1.01562 -1.66347 0
M  V30 113 H 10.0456 -0.460638 -3.08682 0
M  V30 114 N 10.3467 1.47872 -0.545128 0
M  V30 115 C 11.5747 2.06889 -0.021084 0
M  V30 116 C 11.9897 1.39955 1.2672 0
M  V30 117 O 11.3467 0.492036 1.75742 0
M  V30 118 C 11.3977 3.60996 0.190817 0
M  V30 119 O 11.1187 4.25419 -1.04644 0
M  V30 120 C 12.6197 4.36849 0.753521 0
M  V30 121 H 9.8397 0.669785 -0.0403635 0
M  V30 122 H 12.3837 1.90049 -0.755095 0
M  V30 123 H 10.5387 3.77391 0.87492 0
M  V30 124 H 10.9527 5.17785 -0.836611 0
M  V30 125 H 12.4267 5.45399 0.851139 0
M  V30 126 H 12.9037 4.02306 1.762 0
M  V30 127 H 13.5097 4.25169 0.105503 0
M  V30 128 N 11.8248 0.280983 1.55075 0
M  V30 129 C 13.0498 -0.340154 2.04592 0
M  V30 130 C 13.4748 -1.48246 1.15779 0
M  V30 131 O 12.8328 -1.80614 0.15761 0
M  V30 132 C 12.8808 -0.793104 3.5177 0
M  V30 133 O 11.9848 -1.89981 3.66034 0
M  V30 134 H 11.3258 -0.0694289 0.66036 0
M  V30 135 H 13.8558 0.416993 2.00306 0
M  V30 136 H 13.8658 -1.08729 3.93245 0
M  V30 137 H 12.5408 0.0426163 4.15878 0
M  V30 138 H 11.1178 -1.60771 3.36463 0
M  V30 139 N 13.3029 -1.57598 0.00835791 0
M  V30 140 C 14.2329 -2.1198 -0.979113 0
M  V30 141 C 15.2139 -1.03091 -1.35301 0
M  V30 142 O 16.3989 -1.30818 -1.43528 0
M  V30 143 C 13.5289 -2.62995 -2.26828 0
M  V30 144 C 12.4829 -3.76485 -2.03576 0
M  V30 145 C 11.8089 -4.13846 -3.38579 0
M  V30 146 C 13.1089 -5.0342 -1.39161 0
M  V30 147 H 14.8029 -2.94738 -0.526281 0
M  V30 148 H 12.3489 -1.41783 -0.251704 0
M  V30 149 H 14.3019 -2.99669 -2.96271 0
M  V30 150 H 13.0259 -1.7737 -2.7424 0
M  V30 151 H 11.6849 -3.40217 -1.36557 0
M  V30 152 H 11.3329 -3.25232 -3.83709 0
M  V30 153 H 11.0329 -4.90312 -3.23834 0
M  V30 154 H 12.5569 -4.53086 -4.09323 0
M  V30 155 H 13.9709 -5.37812 -1.98573 0
M  V30 156 H 12.3679 -5.84746 -1.34878 0
M  V30 157 H 13.4379 -4.83548 -0.361868 0
M  V30 158 N 14.781 0.264519 -1.55364 0
M  V30 159 C 16.058 1.01677 -1.67096 0
M  V30 160 C 16.438 2.03996 -0.543015 0
M  V30 161 O 15.786 2.23907 0.45585 0
M  V30 162 C 15.996 1.66596 -3.0667 0
M  V30 163 C 17.344 2.17442 -3.64697 0
M  V30 164 O 18.368 1.76568 -3.09358 0
M  V30 165 O 17.227 2.92439 -4.61673 0
M  V30 166 H 14.321 0.472161 -0.678965 0
M  V30 167 H 16.867 0.259703 -1.67701 0
M  V30 168 H 15.639 0.924962 -3.80211 0
M  V30 169 H 15.262 2.48968 -3.10001 0
M  V30 170 N 16.2591 1.48442 0.529413 0
M  V30 171 C 17.1891 1.65902 1.64313 0
M  V30 172 C 18.1701 0.507897 1.6234 0
M  V30 173 O 19.3551 0.740503 1.79528 0
M  V30 174 C 16.4851 1.69911 3.02898 0
M  V30 175 C 15.4391 2.8453 3.19729 0
M  V30 176 C 14.7651 2.73629 4.59381 0
M  V30 177 C 16.0651 4.25821 3.02447 0
M  V30 178 H 17.7591 2.5914 1.49955 0
M  V30 179 H 15.3051 1.24709 0.719982 0
M  V30 180 H 17.2581 1.80715 3.80684 0
M  V30 181 H 15.9821 0.732524 3.18279 0
M  V30 182 H 14.6411 2.73283 2.44361 0
M  V30 183 H 14.2891 1.74938 4.71599 0
M  V30 184 H 13.9891 3.50541 4.71588 0
M  V30 185 H 15.5131 2.86401 5.39265 0
M  V30 186 H 16.9271 4.37898 3.70024 0
M  V30 187 H 15.3241 5.03735 3.26146 0
M  V30 188 H 16.3941 4.42244 1.98867 0
M  V30 189 N 17.7372 -0.778329 1.37039 0
M  V30 190 C 18.9622 -1.57248 1.35233 0
M  V30 191 C 19.3872 -1.87999 -0.0615568 0
M  V30 192 O 18.7452 -1.48734 -1.03672 0
M  V30 193 C 18.7932 -2.86353 2.19167 0
M  V30 194 O 17.8972 -3.80442 1.59178 0
M  V30 195 H 17.2382 -0.476569 0.462362 0
M  V30 196 H 19.7682 -0.963853 1.80474 0
M  V30 197 H 19.7782 -3.35519 2.32145 0
M  V30 198 H 18.4532 -2.63299 3.21942 0
M  V30 199 H 17.0302 -3.39067 1.55203 0
M  V30 200 N 19.2153 -1.21501 -1.00376 0
M  V30 201 C 20.1653 -0.942843 -2.07592 0
M  V30 202 C 21.1493 0.102384 -1.60574 0
M  V30 203 O 22.3413 -0.10671 -1.76678 0
M  V30 204 C 19.4703 -0.510729 -3.3948 0
M  V30 205 C 18.5563 -1.59009 -3.93163 0
M  V30 206 N 18.9473 -2.81544 -4.20198 0
M  V30 207 C 17.2453 -1.45925 -4.21452 0
M  V30 208 C 17.9463 -3.51261 -4.63671 0
M  V30 209 N 16.9223 -2.78703 -4.66718 0
M  V30 210 H 20.7243 -1.87378 -2.26421 0
M  V30 211 H 18.2383 -1.11093 -1.18458 0
M  V30 212 H 20.2353 -0.297101 -4.1584 0
M  V30 213 H 18.8953 0.413436 -3.22057 0
M  V30 214 H 19.9063 -3.18075 -4.08716 0
M  V30 215 H 16.5833 -0.600467 -4.13159 0
M  V30 216 H 17.9733 -4.56183 -4.93302 0
M  V30 217 N 20.6934 1.19889 -1.02296 0
M  V30 218 C 22.1044 1.71124 -0.746568 0
M  V30 219 C 22.4554 1.81939 0.734335 0
M  V30 220 O 21.5804 1.48639 1.57275 0
M  V30 221 C 22.1754 3.10804 -1.34857 0
M  V30 222 C 20.7344 3.59323 -1.1209 0
M  V30 223 C 19.8814 2.3635 -1.45031 0
M  V30 224 H 22.8324 1.04813 -1.19163 0
M  V30 225 H 22.8534 3.73186 -0.742437 0
M  V30 226 H 22.3654 3.029 -2.42638 0
M  V30 227 H 20.4664 3.7255 -0.0610337 0
M  V30 228 H 20.5794 4.4378 -1.80544 0
M  V30 229 H 18.9434 2.39399 -0.869487 0
M  V30 230 H 19.7264 2.31081 -2.53883 0
M  V30 231 N 22.1715 0.800033 1.35784 0
M  V30 232 C 23.1215 0.178654 2.27299 0
M  V30 233 C 24.1055 -0.643667 1.47464 0
M  V30 234 O 25.2975 -0.502 1.69732 0
M  V30 235 C 22.4265 -0.677194 3.36555 0
M  V30 236 C 21.5125 0.154497 4.23818 0
M  V30 237 N 21.9035 1.21427 4.91008 0
M  V30 238 C 20.2015 -0.0649462 4.45953 0
M  V30 239 C 20.9025 1.72147 5.55644 0
M  V30 240 N 19.8785 1.02897 5.33773 0
M  V30 241 H 23.6805 0.989637 2.76737 0
M  V30 242 H 21.1945 0.64054 1.49234 0
M  V30 243 H 23.1915 -1.13835 4.01058 0
M  V30 244 H 21.8515 -1.4866 2.8867 0
M  V30 245 H 22.8625 1.59684 4.92668 0
M  V30 246 H 19.5395 -0.844016 4.0888 0
M  V30 247 H 20.9295 2.60683 6.19269 0
M  V30 248 N 23.6496 -1.47581 0.552962 0
M  V30 249 C 24.8956 -2.02782 0.0273648 0
M  V30 250 C 25.2286 -1.42687 -1.31734 0
M  V30 251 O 24.5036 -0.580897 -1.85623 0
M  V30 252 C 24.7866 -3.60031 -0.0702371 0
M  V30 253 C 24.6396 -4.30566 1.30126 0
M  V30 254 C 25.9586 -4.33028 -0.785771 0
M  V30 255 H 23.0776 -0.736912 0.0114185 0
M  V30 256 H 25.7196 -1.76056 0.714432 0
M  V30 257 H 23.8696 -3.82932 -0.655382 0
M  V30 258 H 25.5416 -4.19018 1.92929 0
M  V30 259 H 23.7846 -3.91086 1.87709 0
M  V30 260 H 24.4556 -5.39114 1.18573 0
M  V30 261 H 26.9316 -4.15095 -0.288982 0
M  V30 262 H 25.8076 -5.42695 -0.823013 0
M  V30 263 H 26.0686 -4.01945 -1.841 0
M  V30 264 N 25.1277 -0.289203 -1.54924 0
M  V30 265 C 26.0607 0.633823 -2.19221 0
M  V30 266 C 27.0387 1.14174 -1.15772 0
M  V30 267 O 28.2227 1.21211 -1.44361 0
M  V30 268 C 25.3497 1.86592 -2.82668 0
M  V30 269 C 24.3957 1.49227 -3.99542 0
M  V30 270 S 25.2287 0.558312 -5.32582 0
M  V30 271 C 26.3847 1.79847 -5.99505 0
M  V30 272 H 26.6177 0.0875416 -2.97171 0
M  V30 273 H 24.1507 -0.0733899 -1.54225 0
M  V30 274 H 26.1087 2.57305 -3.19851 0
M  V30 275 H 24.7697 2.38335 -2.04585 0
M  V30 276 H 23.9627 2.40945 -4.42676 0
M  V30 277 H 23.5647 0.865193 -3.63855 0
M  V30 278 H 25.8567 2.7406 -6.19595 0
M  V30 279 H 26.7997 1.4099 -6.93922 0
M  V30 280 H 27.2077 1.96982 -5.29016 0
M  V30 281 N 26.6058 1.57591 -0.0167156 0
M  V30 282 C 27.8538 1.90906 0.663285 0
M  V30 283 C 28.1748 0.892509 1.73376 0
M  V30 284 O 27.4448 -0.0677623 1.95783 0
M  V30 285 H 26.0248 0.704637 0.247983 0
M  V30 286 H 28.6868 1.94803 -0.0615909 0
M  V30 287 H 27.7828 2.9116 1.12393 0
M  V30 288 N 28.0839 -0.256276 1.55502 0
M  V30 289 C 29.3329 -0.983486 1.76098 0
M  V30 290 C 29.6459 -1.86837 0.578896 0
M  V30 291 O 30.8519 -2.63163 0.667648 0
M  V30 292 C 29.3079 -1.79868 3.1173 0
M  V30 293 C 28.9159 -0.961648 4.37557 0
M  V30 294 C 30.6599 -2.51919 3.41668 0
M  V30 295 C 28.5669 -1.77219 5.64223 0
M  V30 296 H 27.4969 -0.370936 0.656447 0
M  V30 297 H 30.1479 -0.238492 1.81944 0
M  V30 298 H 28.5299 -2.58527 2.99966 0
M  V30 299 H 29.7039 -0.218048 4.60284 0
M  V30 300 H 28.0189 -0.354913 4.14885 0
M  V30 301 H 30.6159 -3.12998 4.33516 0
M  V30 302 H 30.9589 -3.23059 2.62562 0
M  V30 303 H 31.4919 -1.80278 3.54605 0
M  V30 304 H 28.2309 -1.10471 6.46124 0
M  V30 305 H 27.7509 -2.49132 5.45613 0
M  V30 306 H 29.4299 -2.34169 6.03137 0
M  V30 307 N 29.562 -1.4872 -0.521534 0
M  V30 308 C 30.492 -1.66771 -1.63431 0
M  V30 309 C 31.473 -0.516499 -1.62069 0
M  V30 310 O 32.658 -0.750013 -1.79132 0
M  V30 311 C 29.788 -1.71515 -3.01993 0
M  V30 312 C 28.742 -2.86222 -3.18216 0
M  V30 313 C 28.068 -2.76061 -4.57924 0
M  V30 314 C 29.368 -4.27419 -3.00184 0
M  V30 315 H 31.062 -2.59932 -1.48579 0
M  V30 316 H 28.608 -1.25089 -0.713358 0
M  V30 317 H 30.561 -1.82731 -3.7972 0
M  V30 318 H 29.285 -0.749393 -3.17886 0
M  V30 319 H 27.944 -2.74575 -2.42908 0
M  V30 320 H 27.592 -1.77437 -4.70665 0
M  V30 321 H 27.292 -3.53037 -4.69722 0
M  V30 322 H 28.816 -2.89256 -5.37739 0
M  V30 323 H 30.23 -4.39855 -3.67697 0
M  V30 324 H 28.627 -5.05458 -3.2347 0
M  V30 325 H 29.697 -4.43293 -1.96518 0
M  V30 326 N 31.0401 0.771051 -1.3745 0
M  V30 327 C 31.9881 1.90574 -1.33358 0
M  V30 328 C 32.9821 1.67936 -0.22224 0
M  V30 329 O 34.1881 1.75717 -0.390304 0
M  V30 330 H 30.5631 0.626714 -0.415612 0
M  V30 331 H 32.5341 1.91142 -2.29144 0
M  V30 332 C 31.2831 3.27845 -1.15813 0
M  V30 333 H 30.6061 3.45842 -2.00583 0
M  V30 334 H 32.0461 4.07538 -1.17 0
M  V30 335 C 30.5051 3.36625 0.136165 0
M  V30 336 O 31.0351 3.85785 1.11949 0
M  V30 337 N 29.2411 2.89997 0.187099 0
M  V30 338 H 28.7881 2.50182 -0.613753 0
M  V30 339 H 28.7461 2.96252 1.05272 0
M  V30 340 N 32.5182 1.22032 0.997298 0
M  V30 341 C 33.7642 1.04376 1.73878 0
M  V30 342 C 34.0972 -0.420716 1.89588 0
M  V30 343 O 33.3722 -1.31202 1.43583 0
M  V30 344 C 33.6552 1.75047 3.14691 0
M  V30 345 C 33.5082 3.29062 3.06656 0
M  V30 346 C 34.8272 1.49928 4.13775 0
M  V30 347 H 31.9462 0.380578 0.631133 0
M  V30 348 H 34.5882 1.50312 1.16217 0
M  V30 349 H 32.7382 1.35996 3.63919 0
M  V30 350 H 34.4102 3.7753 2.65083 0
M  V30 351 H 32.6532 3.58967 2.43568 0
M  V30 352 H 33.3242 3.73683 4.06282 0
M  V30 353 H 35.8002 1.83842 3.73285 0
M  V30 354 H 34.6762 2.01878 5.10428 0
M  V30 355 H 34.9372 0.430929 4.39995 0
M  V30 356 N 33.9963 -1.19345 1.0293 0
M  V30 357 C 35.2243 -1.92997 0.745644 0
M  V30 358 C 35.6393 -1.75519 -0.695589 0
M  V30 359 O 34.9963 -1.07737 -1.47306 0
M  V30 360 C 35.0473 -3.44741 1.08792 0
M  V30 361 O 34.7683 -3.61658 2.47256 0
M  V30 362 C 36.2693 -4.35515 0.827129 0
M  V30 363 H 33.4893 -0.613042 0.272801 0
M  V30 364 H 36.0333 -1.51473 1.3739 0
M  V30 365 H 34.1883 -3.84097 0.504832 0
M  V30 366 H 34.6023 -4.55514 2.60015 0
M  V30 367 H 36.0763 -5.40589 1.11658 0
M  V30 368 H 36.5533 -4.38552 -0.238436 0
M  V30 369 H 37.1593 -4.01841 1.39297 0
M  V30 370 N 35.4744 -0.807222 -1.35358 0
M  V30 371 C 36.8854 -0.44876 -1.81226 0
M  V30 372 C 37.2364 1.02929 -1.67033 0
M  V30 373 O 36.3614 1.79991 -1.20133 0
M  V30 374 C 36.9564 -0.807774 -3.2903 0
M  V30 375 C 35.5154 -0.501901 -3.73039 0
M  V30 376 C 34.6624 -1.03304 -2.57339 0
M  V30 377 H 37.6134 -0.998808 -1.23327 0
M  V30 378 H 37.6344 -0.10554 -3.80354 0
M  V30 379 H 37.1464 -1.88357 -3.39328 0
M  V30 380 H 35.2474 0.565128 -3.68289 0
M  V30 381 H 35.3604 -1.03497 -4.67787 0
M  V30 382 H 33.7244 -0.455339 -2.50597 0
M  V30 383 H 34.5074 -2.11496 -2.70415 0
M  V30 384 N 36.9525 1.47285 -0.560781 0
M  V30 385 C 38.2295 1.9558 0.0277798 0
M  V30 386 C 38.6095 1.5034 1.48192 0
M  V30 387 O 37.9575 0.743882 2.16052 0
M  V30 388 C 38.1675 3.48789 -0.121418 0
M  V30 389 C 39.5155 4.24594 0.0220912 0
M  V30 390 O 40.5395 3.56166 -0.0491439 0
M  V30 391 O 39.3985 5.46217 0.175958 0
M  V30 392 H 36.4925 0.824663 0.0621342 0
M  V30 393 H 39.0385 1.5767 -0.627556 0
M  V30 394 H 37.8105 3.74533 -1.13316 0
M  V30 395 H 37.4335 3.93473 0.571366 0
M  V30 396 N 38.4306 0.297415 1.54768 0
M  V30 397 C 39.6556 -0.318435 2.04941 0
M  V30 398 C 40.0806 -1.4701 1.17345 0
M  V30 399 O 39.4386 -1.80436 0.176758 0
M  V30 400 C 39.4866 -0.755749 3.52592 0
M  V30 401 O 38.5906 -1.86088 3.68028 0
M  V30 402 H 37.9316 -0.062421 0.661059 0
M  V30 403 H 40.4616 0.438215 1.99852 0
M  V30 404 H 40.4716 -1.04552 3.94376 0
M  V30 405 H 39.1466 0.0867233 4.1581 0
M  V30 406 H 37.7236 -1.57193 3.38149 0
M  V30 407 N 39.9087 -1.5758 0.0250728 0
M  V30 408 C 41.1557 -1.91633 -0.654444 0
M  V30 409 C 41.4837 -0.901103 -1.72367 0
M  V30 410 O 40.7387 0.0905647 -1.9549 0
M  V30 411 C 41.0377 -3.32421 -1.31268 0
M  V30 412 C 40.7037 -4.49344 -0.374223 0
M  V30 413 C 39.3657 -4.8106 -0.115911 0
M  V30 414 C 41.7177 -5.20498 0.270432 0
M  V30 415 C 39.0457 -5.8129 0.79493 0
M  V30 416 C 41.3977 -6.21699 1.1693 0
M  V30 417 C 40.0617 -6.51859 1.43655 0
M  V30 418 H 39.3317 -0.701236 -0.239478 0
M  V30 419 H 41.9787 -1.91307 0.0859734 0
M  V30 420 H 40.2837 -3.28989 -2.12775 0
M  V30 421 H 41.9807 -3.56038 -1.84494 0
M  V30 422 H 38.5707 -4.24579 -0.58573 0
M  V30 423 H 42.7547 -4.96229 0.0839194 0
M  V30 424 H 38.0107 -6.03005 1.00973 0
M  V30 425 H 42.1847 -6.75955 1.67504 0
M  V30 426 H 39.8117 -7.2934 2.144 0
M  V30 427 N 41.3868 0.248026 -1.55636 0
M  V30 428 C 42.6118 0.998028 -1.81808 0
M  V30 429 C 43.0368 1.78207 -0.601979 0
M  V30 430 O 42.3948 1.75653 0.448961 0
M  V30 431 C 42.4428 1.9125 -3.05705 0
M  V30 432 O 41.5468 3.00406 -2.82542 0
M  V30 433 H 40.8878 0.284045 -0.600179 0
M  V30 434 H 43.4178 0.269357 -2.02819 0
M  V30 435 H 43.4278 2.32737 -3.35108 0
M  V30 436 H 42.1028 1.33602 -3.93857 0
M  V30 437 H 40.6798 2.63056 -2.64303 0
M  V30 438 N 42.8649 1.48995 0.513639 0
M  V30 439 C 44.1419 1.48338 1.27495 0
M  V30 440 C 44.5219 0.204065 2.10111 0
M  V30 441 O 43.8699 -0.813881 2.13514 0
M  V30 442 C 44.0799 2.75498 2.14247 0
M  V30 443 C 45.4279 3.24484 2.73852 0
M  V30 444 O 46.4519 2.76528 2.24523 0
M  V30 445 O 45.3109 4.07974 3.6362 0
M  V30 446 H 42.4049 0.593149 0.576284 0
M  V30 447 H 44.9509 1.61246 0.528948 0
M  V30 448 H 43.7229 3.60109 1.53092 0
M  V30 449 H 43.3459 2.6539 2.96064 0
M  V30 450 N 44.343 -0.763751 1.37857 0
M  V30 451 C 45.591 -1.51957 1.33243 0
M  V30 452 C 45.912 -1.94835 -0.0801709 0
M  V30 453 O 45.182 -1.66894 -1.02582 0
M  V30 454 H 43.762 -0.563626 0.49024 0
M  V30 455 H 46.424 -0.908504 1.7243 0
M  V30 456 H 45.52 -2.41523 1.97669 0
M  V30 457 N 45.8211 -1.22559 -0.990812 0
M  V30 458 C 47.0691 -1.04933 -1.72724 0
M  V30 459 C 47.3901 0.416158 -1.90508 0
M  V30 460 O 46.6601 1.29918 -1.46622 0
M  V30 461 H 45.2401 -0.385296 -0.639965 0
M  V30 462 H 47.9021 -1.54105 -1.19322 0
M  V30 463 H 46.9981 -1.52886 -2.72089 0
M  V30 464 N 47.2992 1.18797 -1.03562 0
M  V30 465 C 48.5272 1.92599 -0.755869 0
M  V30 466 C 48.9422 1.75886 0.686271 0
M  V30 467 O 48.2992 1.08517 1.46732 0
M  V30 468 C 48.3502 3.44159 -1.10619 0
M  V30 469 O 48.0712 3.60341 -2.4917 0
M  V30 470 C 49.5722 4.3507 -0.850214 0
M  V30 471 H 46.7922 0.611587 -0.276048 0
M  V30 472 H 49.3362 1.50742 -1.38192 0
M  V30 473 H 47.4912 3.83823 -0.525194 0
M  V30 474 H 47.9052 4.54128 -2.62427 0
M  V30 475 H 49.3792 5.39989 -1.14523 0
M  V30 476 H 49.8562 4.38673 0.215176 0
M  V30 477 H 50.4622 4.01097 -1.41426 0
M  V30 478 N 48.7773 0.814389 1.34928 0
M  V30 479 C 49.7273 0.202752 2.27097 0
M  V30 480 C 50.7113 -0.62799 1.48139 0
M  V30 481 O 51.9033 -0.483969 1.70255 0
M  V30 482 C 49.0323 -0.64146 3.37254 0
M  V30 483 C 48.1183 0.19944 4.23631 0
M  V30 484 N 48.5093 1.26628 4.89693 0
M  V30 485 C 46.8073 -0.0176433 4.45997 0
M  V30 486 C 47.5083 1.78031 5.53787 0
M  V30 487 N 46.4843 1.08553 5.32651 0
M  V30 488 H 50.2863 1.01893 2.75672 0
M  V30 489 H 47.8003 0.656332 1.48546 0
M  V30 490 H 49.7973 -1.09575 4.02243 0
M  V30 491 H 48.4573 -1.4559 2.9023 0
M  V30 492 H 49.4683 1.64901 4.90946 0
M  V30 493 H 46.1453 -0.800601 4.09752 0
M  V30 494 H 47.5353 2.67236 6.16469 0
M  V30 495 N 50.2554 -1.46986 0.568584 0
M  V30 496 C 51.2034 -2.31858 -0.185649 0
M  V30 497 C 52.1974 -1.43624 -0.898249 0
M  V30 498 O 53.4034 -1.60327 -0.818242 0
M  V30 499 H 49.7784 -0.747866 -0.0787399 0
M  V30 500 H 51.7494 -2.93303 0.549191 0
M  V30 501 C 50.4984 -3.26513 -1.19519 0
M  V30 502 H 49.8214 -3.94377 -0.656285 0
M  V30 503 H 51.2614 -3.88707 -1.6936 0
M  V30 504 C 49.7204 -2.50847 -2.24894 0
M  V30 505 O 50.2504 -2.26119 -3.32014 0
M  V30 506 N 48.4564 -2.11656 -1.99124 0
M  V30 507 H 48.0034 -2.31966 -1.12024 0
M  V30 508 H 47.9614 -1.61347 -2.69842 0
M  V30 509 N 51.7335 -0.305618 -1.54608 0
M  V30 510 C 52.9585 0.307562 -2.05107 0
M  V30 511 C 53.3835 1.46385 -1.18123 0
M  V30 512 O 52.7415 1.8034 -0.186324 0
M  V30 513 C 52.7895 0.73704 -3.52987 0
M  V30 514 O 51.8935 1.84134 -3.6901 0
M  V30 515 H 51.2345 0.0589143 -0.661381 0
M  V30 516 H 53.7645 -0.448807 -1.99617 0
M  V30 517 H 53.7745 1.02459 -3.94925 0
M  V30 518 H 52.4495 -0.108773 -4.15758 0
M  V30 519 H 51.0265 1.55398 -3.38978 0
M  V30 520 N 53.2116 1.57565 -0.0334293 0
M  V30 521 C 54.1416 2.13511 0.945265 0
M  V30 522 C 55.1226 1.05231 1.33643 0
M  V30 523 O 56.3076 1.33084 1.41429 0
M  V30 524 C 53.4376 2.6657 2.22616 0
M  V30 525 C 52.3916 3.79676 1.97561 0
M  V30 526 C 51.7176 4.1918 3.31952 0
M  V30 527 C 53.0176 5.0557 1.31135 0
M  V30 528 H 54.7116 2.95538 0.479325 0
M  V30 529 H 52.2576 1.42166 0.229115 0
M  V30 530 H 54.2106 3.04344 2.91466 0
M  V30 531 H 52.9346 1.8171 2.71384 0
M  V30 532 H 51.5936 3.42347 1.31127 0
M  V30 533 H 51.2416 3.31296 3.78487 0
M  V30 534 H 50.9416 4.95402 3.15992 0
M  V30 535 H 52.4656 4.59541 4.02063 0
M  V30 536 H 53.8796 5.40903 1.89992 0
M  V30 537 H 52.2766 5.86818 1.25559 0
M  V30 538 H 53.3466 4.84062 0.284894 0
M  V30 539 N 54.6897 -0.239769 1.55765 0
M  V30 540 C 55.9387 -0.964754 1.77131 0
M  V30 541 C 56.2517 -1.86213 0.59868 0
M  V30 542 O 57.4577 -2.6244 0.695522 0
M  V30 543 C 55.9137 -1.76552 3.1362 0
M  V30 544 C 55.5217 -0.915185 4.38553 0
M  V30 545 C 57.2657 -2.48281 3.44321 0
M  V30 546 C 55.1727 -1.71225 5.66071 0
M  V30 547 H 54.1027 -0.363953 0.660344 0
M  V30 548 H 56.7537 -0.219181 1.82186 0
M  V30 549 H 55.1357 -2.55331 3.02691 0
M  V30 550 H 56.3097 -0.169217 4.60489 0
M  V30 551 H 54.6247 -0.310889 4.15238 0
M  V30 552 H 57.2217 -3.08382 4.36812 0
M  V30 553 H 57.5647 -3.20256 2.65973 0
M  V30 554 H 58.0977 -1.76507 3.56497 0
M  V30 555 H 54.8367 -1.03612 6.4726 0
M  V30 556 H 54.3567 -2.43331 5.48224 0
M  V30 557 H 56.0357 -2.27758 6.05587 0
M  V30 558 N 56.1678 -1.49265 -0.50573 0
M  V30 559 C 57.4448 -1.49012 -1.26707 0
M  V30 560 C 57.8248 -0.215205 -2.1 0
M  V30 561 O 57.1728 0.802547 -2.13943 0
M  V30 562 C 57.3828 -2.7663 -2.12783 0
M  V30 563 C 58.7308 -3.25932 -2.72127 0
M  V30 564 O 59.7548 -2.77715 -2.23054 0
M  V30 565 O 58.6138 -4.09897 -3.61451 0
M  V30 566 H 55.7078 -0.596197 -0.57313 0
M  V30 567 H 58.2538 -1.61524 -0.52039 0
M  V30 568 H 57.0258 -3.60916 -1.5118 0
M  V30 569 H 56.6488 -2.66956 -2.94653 0
M  V30 570 N 57.6459 0.756429 -1.3826 0
M  V30 571 C 58.6089 1.85176 -1.35065 0
M  V30 572 C 59.6089 1.58818 -0.251703 0
M  V30 573 O 60.7989 1.66615 -0.508433 0
M  V30 574 C 57.9309 3.22596 -1.10201 0
M  V30 575 H 59.1239 1.89417 -2.3251 0
M  V30 576 H 56.6769 0.95783 -1.23512 0
M  V30 577 H 57.4119 3.24025 -0.133504 0
M  V30 578 H 57.1969 3.43122 -1.89762 0
M  V30 579 H 58.6869 4.02673 -1.10654 0
M  V30 580 N 59.124 1.23083 0.984299 0
M  V30 581 C 60.37 1.06214 1.72761 0
M  V30 582 C 60.703 -0.400584 1.90024 0
M  V30 583 O 59.978 -1.29672 1.44967 0
M  V30 584 C 60.261 1.78375 3.12817 0
M  V30 585 C 60.114 3.32296 3.03149 0
M  V30 586 C 61.433 1.54309 4.12161 0
M  V30 587 H 58.552 0.387251 0.627061 0
M  V30 588 H 61.194 1.51536 1.14616 0
M  V30 589 H 59.344 1.39848 3.62457 0
M  V30 590 H 61.016 3.8032 2.61064 0
M  V30 591 H 59.259 3.6153 2.39747 0
M  V30 592 H 59.93 3.77972 4.02295 0
M  V30 593 H 62.406 1.87791 3.71314 0
M  V30 594 H 61.282 2.07281 5.08258 0
M  V30 595 H 61.543 0.477572 4.39513 0
M  V30 596 N 60.6021 -1.18246 1.0419 0
M  V30 597 C 61.5491 -2.2192 0.634037 0
M  V30 598 C 62.5191 -1.62179 -0.358765 0
M  V30 599 O 63.7041 -1.89122 -0.252466 0
M  V30 600 C 60.8441 -3.451 0.00445535 0
M  V30 601 C 59.9571 -4.19174 1.04487 0
M  V30 602 C 59.0921 -5.29813 0.383676 0
M  V30 603 C 58.1311 -5.9566 1.4091 0
M  V30 604 N 57.2681 -6.97834 0.772784 0
M  V30 605 H 62.1081 -2.56164 1.52263 0
M  V30 606 H 59.6451 -1.25843 0.761701 0
M  V30 607 H 61.6031 -4.15485 -0.377919 0
M  V30 608 H 60.2331 -3.11472 -0.847652 0
M  V30 609 H 59.2851 -3.47604 1.54518 0
M  V30 610 H 60.5971 -4.64267 1.82368 0
M  V30 611 H 59.7511 -6.06677 -0.0528366 0
M  V30 612 H 58.4901 -4.85825 -0.427208 0
M  V30 613 H 57.4951 -5.17535 1.85574 0
M  V30 614 H 58.7201 -6.4173 2.22171 0
M  V30 615 H 56.6661 -6.55998 -0.0177708 0
M  V30 616 H 56.5831 -7.41186 1.48928 0
M  V30 617 H 57.8511 -7.78665 0.36071 0
M  V30 618 N 62.0802 -0.821533 -1.34494 0
M  V30 619 C 63.0302 -0.214793 -2.26986 0
M  V30 620 C 64.0142 0.620125 -1.4847 0
M  V30 621 O 65.2062 0.474933 -1.70509 0
M  V30 622 C 62.3352 0.623566 -3.37589 0
M  V30 623 C 61.4212 -0.221904 -4.23519 0
M  V30 624 N 61.8122 -1.29223 -4.89014 0
M  V30 625 C 60.1102 -0.00600922 -4.46 0
M  V30 626 C 60.8112 -1.80965 -5.52835 0
M  V30 627 N 59.7872 -1.11376 -5.32068 0
M  V30 628 H 63.5892 -1.03354 -2.75128 0
M  V30 629 H 61.1032 -0.6642 -1.48196 0
M  V30 630 H 63.1002 1.0744 -4.02818 0
M  V30 631 H 61.7602 1.44049 -2.90998 0
M  V30 632 H 62.7712 -1.67502 -4.90065 0
M  V30 633 H 59.4482 0.77886 -4.10171 0
M  V30 634 H 60.8382 -2.70502 -6.15043 0
M  V30 635 N 63.5583 1.46682 -0.576371 0
M  V30 636 C 64.5213 2.28707 0.150239 0
M  V30 637 C 65.5213 1.38035 0.824794 0
M  V30 638 O 66.7113 1.60476 0.677719 0
M  V30 639 C 63.8433 3.18248 1.22192 0
M  V30 640 H 65.0363 2.94423 -0.570521 0
M  V30 641 H 62.5893 1.52688 -0.334078 0
M  V30 642 H 63.3243 2.57265 1.97447 0
M  V30 643 H 63.1093 3.85 0.742812 0
M  V30 644 H 64.5993 3.80001 1.73172 0
M  V30 645 N 65.0364 0.313813 1.54444 0
M  V30 646 C 65.9844 -0.572171 2.25453 0
M  V30 647 C 66.9784 -1.12657 1.2651 0
M  V30 648 O 68.1844 -1.07573 1.44319 0
M  V30 649 H 64.5594 -0.203146 0.724041 0
M  V30 650 H 66.5304 0.0491145 2.9836 0
M  V30 651 C 65.2794 -1.72626 3.0182 0
M  V30 652 H 64.6024 -1.30891 3.77767 0
M  V30 653 H 66.0424 -2.32199 3.54767 0
M  V30 654 C 64.5014 -2.63806 2.09542 0
M  V30 655 O 65.0314 -3.65256 1.67185 0
M  V30 656 N 63.2374 -2.31824 1.75232 0
M  V30 657 H 62.7844 -1.49368 2.09873 0
M  V30 658 H 62.7424 -2.93095 1.13767 0
M  V30 659 N 66.5145 -1.57545 0.0417849 0
M  V30 660 C 67.4445 -2.14009 -0.933929 0
M  V30 661 C 68.4255 -1.05938 -1.33083 0
M  V30 662 O 69.6105 -1.33833 -1.40721 0
M  V30 663 C 66.7405 -2.67747 -2.21199 0
M  V30 664 C 65.6945 -3.80718 -1.95544 0
M  V30 665 C 65.0205 -4.20935 -3.29724 0
M  V30 666 C 66.3205 -5.06258 -1.28452 0
M  V30 667 H 68.0145 -2.95788 -0.463645 0
M  V30 668 H 65.5605 -1.42285 -0.221573 0
M  V30 669 H 67.5135 -3.05886 -2.89848 0
M  V30 670 H 66.2375 -1.83147 -2.70416 0
M  V30 671 H 64.8965 -3.43037 -1.2931 0
M  V30 672 H 64.5445 -3.33298 -3.76724 0
M  V30 673 H 64.2445 -4.9707 -3.13361 0
M  V30 674 H 65.7685 -4.61666 -3.9962 0
M  V30 675 H 67.1825 -5.41903 -1.8712 0
M  V30 676 H 65.5795 -5.87475 -1.22445 0
M  V30 677 H 66.6495 -4.84207 -0.259219 0
M  V30 678 N 67.9926 0.231505 -1.5589 0
M  V30 679 C 68.9256 1.31369 -1.86595 0
M  V30 680 C 69.9036 1.45671 -0.722397 0
M  V30 681 O 71.0876 1.61642 -0.969743 0
M  V30 682 C 68.2146 2.68529 -2.06421 0
M  V30 683 C 67.2606 2.71295 -3.29092 0
M  V30 684 S 68.0936 2.26358 -4.85306 0
M  V30 685 C 69.2496 3.65414 -5.08157 0
M  V30 686 H 69.4826 1.05128 -2.78092 0
M  V30 687 H 67.0156 0.433259 -1.48197 0
M  V30 688 H 68.9736 3.47499 -2.18528 0
M  V30 689 H 67.6346 2.91999 -1.15738 0
M  V30 690 H 66.8276 3.72063 -3.39978 0
M  V30 691 H 66.4296 2.0038 -3.15791 0
M  V30 692 H 68.7216 4.6103 -4.96445 0
M  V30 693 H 69.6646 3.5945 -6.10083 0
M  V30 694 H 70.0726 3.5864 -4.35933 0
M  V30 695 N 69.4707 1.49531 0.497807 0
M  V30 696 C 70.7197 1.58426 1.24837 0
M  V30 697 C 71.0327 0.277643 1.93619 0
M  V30 698 O 72.2387 0.24517 2.70391 0
M  V30 699 C 70.6947 2.79538 2.26686 0
M  V30 700 C 70.3027 4.16971 1.63828 0
M  V30 701 C 72.0467 2.97764 3.0255 0
M  V30 702 C 69.9537 5.29301 2.63807 0
M  V30 703 H 68.8837 0.58989 0.469623 0
M  V30 704 H 71.5347 1.75923 0.521857 0
M  V30 705 H 69.9167 2.55542 3.02514 0
M  V30 706 H 71.0907 4.51116 0.939711 0
M  V30 707 H 69.4057 4.04129 1.00342 0
M  V30 708 H 72.0027 3.78856 3.77323 0
M  V30 709 H 72.3457 2.08448 3.60354 0
M  V30 710 H 72.8787 3.21815 2.33838 0
M  V30 711 H 69.6177 6.20687 2.10779 0
M  V30 712 H 69.1377 4.99606 3.31894 0
M  V30 713 H 70.8167 5.58768 3.2617 0
M  V30 714 N 70.9488 -0.749086 1.3866 0
M  V30 715 C 71.8968 -1.88428 1.36373 0
M  V30 716 C 72.8908 -1.67561 0.248929 0
M  V30 717 O 74.0968 -1.75074 0.41821 0
M  V30 718 H 70.4718 -0.620023 0.42553 0
M  V30 719 H 72.4428 -1.87473 2.32156 0
M  V30 720 C 71.1918 -3.25961 1.21014 0
M  V30 721 H 70.5148 -3.42607 2.06059 0
M  V30 722 H 71.9548 -4.05625 1.23469 0
M  V30 723 C 70.4138 -3.36799 -0.0825941 0
M  V30 724 O 70.9438 -3.87517 -1.05797 0
M  V30 725 N 69.1498 -2.90258 -0.140939 0
M  V30 726 H 68.6968 -2.49174 0.653477 0
M  V30 727 H 68.6548 -2.97889 -1.00545 0
M  V30 728 N 72.4269 -1.23603 -0.977757 0
M  V30 729 C 73.3899 -1.02069 -2.05218 0
M  V30 730 C 74.3899 0.0184305 -1.60789 0
M  V30 731 O 75.5799 -0.221569 -1.72785 0
M  V30 732 C 72.7119 -0.544926 -3.36517 0
M  V30 733 H 73.9049 -1.9742 -2.25755 0
M  V30 734 H 71.4579 -1.05684 -1.15155 0
M  V30 735 H 72.1929 0.412241 -3.21669 0
M  V30 736 H 71.9779 -1.2948 -3.70105 0
M  V30 737 H 73.4679 -0.414985 -4.15533 0
M  V30 738 N 73.905 1.17692 -1.04816 0
M  V30 739 C 75.153 1.87488 -0.754497 0
M  V30 740 C 75.474 1.81205 0.720407 0
M  V30 741 O 74.744 1.23544 1.52032 0
M  V30 742 H 73.324 0.694101 -0.276102 0
M  V30 743 H 75.986 1.42793 -1.32651 0
M  V30 744 H 75.082 2.93328 -1.06606 0
M  V30 745 N 75.3831 0.828654 1.34056 0
M  V30 746 C 76.3461 0.259927 2.27721 0
M  V30 747 C 77.3461 -0.565478 1.50529 0
M  V30 748 O 78.5361 -0.38075 1.69988 0
M  V30 749 C 75.6681 -0.634944 3.34935 0
M  V30 750 H 76.8611 1.0863 2.79534 0
M  V30 751 H 74.4141 0.600951 1.44285 0
M  V30 752 H 75.1491 -1.48416 2.88346 0
M  V30 753 H 74.9341 -0.0444999 3.92075 0
M  V30 754 H 76.4241 -1.02648 4.04788 0
M  V30 755 N 76.8612 -1.46375 0.584142 0
M  V30 756 C 78.0892 -2.06761 0.0759296 0
M  V30 757 C 78.5042 -1.43266 -1.22965 0
M  V30 758 O 77.8612 -0.538458 -1.74376 0
M  V30 759 C 77.9122 -3.61375 -0.0950384 0
M  V30 760 O 77.6332 -4.22495 1.15887 0
M  V30 761 C 79.1342 -4.38693 -0.637434 0
M  V30 762 H 76.3542 -0.668479 0.0581075 0
M  V30 763 H 78.8982 -1.8798 0.805218 0
M  V30 764 H 77.0532 -3.79578 -0.774554 0
M  V30 765 H 77.4672 -5.15385 0.973598 0
M  V30 766 H 78.9412 -5.47464 -0.706237 0
M  V30 767 H 79.4182 -4.06836 -1.65472 0
M  V30 768 H 80.0242 -4.25299 0.00725967 0
M  V30 769 N 78.3393 -0.321999 -1.54275 0
M  V30 770 C 79.5883 0.281931 -1.9972 0
M  V30 771 C 79.9013 1.53369 -1.21397 0
M  V30 772 O 81.1073 2.21352 -1.57211 0
M  V30 773 C 79.5633 0.5529 -3.55628 0
M  V30 774 C 79.1713 -0.681721 -4.42783 0
M  V30 775 C 80.9153 1.11687 -4.09544 0
M  V30 776 C 78.8223 -0.382742 -5.9016 0
M  V30 777 H 77.7523 0.109124 -0.746062 0
M  V30 778 H 80.4033 -0.43398 -1.78294 0
M  V30 779 H 78.7853 1.32896 -3.73035 0
M  V30 780 H 79.9593 -1.45723 -4.37151 0
M  V30 781 H 78.2743 -1.1658 -3.99748 0
M  V30 782 H 80.8713 1.35515 -5.17242 0
M  V30 783 H 81.2143 2.06575 -3.61431 0
M  V30 784 H 81.7473 0.402032 -3.95763 0
M  V30 785 H 78.4863 -1.30076 -6.42464 0
M  V30 786 H 78.0063 0.355094 -5.98748 0
M  V30 787 H 79.6853 0.00800157 -6.47 0
M  V30 788 N 79.8174 1.5752 -0.0501392 0
M  V30 789 C 81.0664 1.91827 0.623328 0
M  V30 790 C 81.3794 0.930222 1.72065 0
M  V30 791 O 82.5854 1.1653 2.4522 0
M  V30 792 C 81.0414 3.40692 1.16003 0
M  V30 793 C 80.6494 4.479 0.0948811 0
M  V30 794 C 82.3934 3.84034 1.80881 0
M  V30 795 C 80.3004 5.87879 0.644411 0
M  V30 796 H 79.2304 0.715918 0.236596 0
M  V30 797 H 81.8814 1.83115 -0.118861 0
M  V30 798 H 80.2634 3.44405 1.9545 0
M  V30 799 H 81.4374 4.55775 -0.678675 0
M  V30 800 H 79.7524 4.13892 -0.45637 0
M  V30 801 H 82.3494 4.85984 2.22988 0
M  V30 802 H 82.6924 3.20225 2.6601 0
M  V30 803 H 83.2254 3.82833 1.0809 0
M  V30 804 H 79.9644 6.55282 -0.169229 0
M  V30 805 H 79.4844 5.83567 1.38598 0
M  V30 806 H 81.1634 6.37098 1.12763 0
M  V30 807 N 81.2955 -0.223234 1.56011 0
M  V30 808 C 82.5725 -0.972108 1.69733 0
M  V30 809 C 82.9525 -2.02485 0.59691 0
M  V30 810 O 82.3005 -2.25037 -0.396324 0
M  V30 811 C 82.5105 -1.58407 3.10979 0
M  V30 812 C 83.8585 -2.07696 3.70334 0
M  V30 813 O 84.8825 -1.68304 3.1393 0
M  V30 814 O 83.7415 -2.80096 4.69264 0
M  V30 815 H 80.8355 -0.453993 0.691245 0
M  V30 816 H 83.3815 -0.215149 1.68331 0
M  V30 817 H 82.1535 -0.823831 3.82529 0
M  V30 818 H 81.7765 -2.40661 3.16493 0
M  V30 819 N 82.7736 -1.49793 -0.48987 0
M  V30 820 C 84.0196 -1.60078 -1.24511 0
M  V30 821 C 84.3526 -0.291608 -1.91998 0
M  V30 822 O 83.6276 0.705647 -1.81248 0
M  V30 823 C 83.9106 -2.76791 -2.30345 0
M  V30 824 C 83.7636 -4.17535 -1.67286 0
M  V30 825 C 85.0826 -2.89111 -3.31817 0
M  V30 826 H 82.2016 -0.582645 -0.451324 0
M  V30 827 H 84.8436 -1.82117 -0.541612 0
M  V30 828 H 82.9936 -2.5813 -2.90346 0
M  V30 829 H 84.6656 -4.4774 -1.11026 0
M  V30 830 H 82.9086 -4.22665 -0.976577 0
M  V30 831 H 83.5796 -4.95094 -2.44103 0
M  V30 832 H 86.0556 -3.06133 -2.81819 0
M  V30 833 H 84.9316 -3.72433 -4.03219 0
M  V30 834 H 85.1926 -1.9893 -3.94815 0
M  V30 835 N 84.2517 0.741722 -1.39055 0
M  V30 836 C 85.4997 1.49818 -1.35643 0
M  V30 837 C 85.8207 1.94938 0.0491642 0
M  V30 838 O 85.0907 1.68505 0.999141 0
M  V30 839 H 83.6707 0.555755 -0.499144 0
M  V30 840 H 86.3327 0.880957 -1.73854 0
M  V30 841 H 85.4287 2.38348 -2.01486 0
M  V30 842 N 85.7298 1.2412 0.971189 0
M  V30 843 C 86.9778 1.07668 1.71032 0
M  V30 844 C 87.2988 -0.385797 1.91146 0
M  V30 845 O 86.5688 -1.27569 1.4867 0
M  V30 846 H 85.1488 0.395429 0.633755 0
M  V30 847 H 87.8108 1.55984 1.16855 0
M  V30 848 H 86.9068 1.57195 2.69622 0
M  V30 849 N 87.2079 -1.17134 1.05439 0
M  V30 850 C 88.1179 -2.24878 0.668365 0
M  V30 851 C 89.1339 -1.71186 -0.311687 0
M  V30 852 O 90.3099 -2.00738 -0.163161 0
M  V30 853 C 87.3749 -3.46662 0.051648 0
M  V30 854 C 86.4359 -4.15429 1.08246 0
M  V30 855 C 85.6689 -5.31399 0.495082 0
M  V30 856 O 85.8919 -5.66153 -0.694743 0
M  V30 857 O 84.8259 -5.89187 1.23056 0
M  V30 858 H 88.6519 -2.60189 1.56637 0
M  V30 859 H 86.2369 -1.24482 0.826104 0
M  V30 860 H 88.1189 -4.20394 -0.290966 0
M  V30 861 H 86.7939 -3.13142 -0.819971 0
M  V30 862 H 85.7009 -3.43704 1.47711 0
M  V30 863 H 87.0339 -4.52982 1.92532 0
M  V30 864 N 88.686 -0.835752 -1.33615 0
M  V30 865 C 89.911 -0.442389 -2.02627 0
M  V30 866 C 90.336 0.947735 -1.62479 0
M  V30 867 O 89.694 1.61907 -0.815826 0
M  V30 868 C 89.742 -0.567216 -3.56111 0
M  V30 869 O 88.846 0.407799 -4.10379 0
M  V30 870 H 88.187 -0.180278 -0.639059 0
M  V30 871 H 90.717 -1.12972 -1.70583 0
M  V30 872 H 90.727 -0.447708 -4.05536 0
M  V30 873 H 89.402 -1.58103 -3.84677 0
M  V30 874 H 87.979 0.246107 -3.72087 0
M  V30 875 N 90.1641 1.46063 -0.591896 0
M  V30 876 C 91.3921 2.06717 -0.0868936 0
M  V30 877 C 91.8071 1.43916 1.22203 0
M  V30 878 O 91.1641 0.547698 1.74088 0
M  V30 879 C 91.2151 3.6142 0.0758725 0
M  V30 880 O 90.9361 4.21874 -1.18126 0
M  V30 881 C 92.4371 4.39025 0.61416 0
M  V30 882 H 89.6571 0.668162 -0.0616518 0
M  V30 883 H 92.2011 1.8755 -0.815175 0
M  V30 884 H 90.3561 3.79983 0.754413 0
M  V30 885 H 90.7701 5.14861 -1.00092 0
M  V30 886 H 92.2441 5.4783 0.677193 0
M  V30 887 H 92.7211 4.07708 1.63312 0
M  V30 888 H 93.3271 4.2529 -0.0298142 0
M  V30 889 N 91.6422 0.330177 1.54103 0
M  V30 890 C 93.0582 -0.0222371 1.59585 0
M  V30 891 C 93.2582 -1.49902 1.34654 0
M  V30 892 O 92.3142 -2.25592 1.13421 0
M  V30 893 C 93.6272 0.401932 2.98002 0
M  V30 894 C 95.1752 0.353145 3.11001 0
M  V30 895 C 95.6502 0.752576 4.51775 0
M  V30 896 N 97.1412 0.706239 4.57784 0
M  V30 897 C 97.8762 0.987417 5.64834 0
M  V30 898 N 97.3722 1.33607 6.79795 0
M  V30 899 N 99.1652 0.91254 5.54643 0
M  V30 900 H 91.3162 1.29228 1.68564 0
M  V30 901 H 93.5792 0.525906 0.78875 0
M  V30 902 H 93.2852 1.4311 3.21267 0
M  V30 903 H 93.1592 -0.229699 3.765 0
M  V30 904 H 95.5462 -0.666822 2.87467 0
M  V30 905 H 95.6272 1.0198 2.34593 0
M  V30 906 H 95.2712 1.77049 4.76042 0
M  V30 907 H 95.2012 0.0635409 5.26562 0
M  V30 908 H 97.6922 0.44889 3.75224 0
M  V30 909 H 98.0052 1.53582 7.57385 0
M  V30 910 H 96.3502 1.37439 6.81275 0
M  V30 911 H 99.5412 0.639601 4.6371 0
M  V30 912 H 99.7142 1.13503 6.37982 0
M  V30 913 N 93.1203 -1.57491 0.0584922 0
M  V30 914 C 94.5313 -1.80526 -0.476138 0
M  V30 915 C 94.8823 -0.971334 -1.70469 0
M  V30 916 O 94.0073 -0.190012 -2.15564 0
M  V30 917 C 94.6023 -3.27424 -0.870587 0
M  V30 918 C 93.1613 -3.51351 -1.35015 0
M  V30 919 C 92.3083 -2.75343 -0.32887 0
M  V30 920 H 95.2593 -1.56133 0.284312 0
M  V30 921 H 95.2803 -3.38745 -1.73299 0
M  V30 922 H 94.7923 -3.88093 0.0237627 0
M  V30 923 H 92.8933 -2.95971 -2.26345 0
M  V30 924 H 93.0063 -4.60059 -1.33726 0
M  V30 925 H 91.3703 -2.417 -0.803321 0
M  V30 926 H 92.1533 -3.38743 0.557521 0
M  V30 927 N 94.5984 0.214957 -1.56127 0
M  V30 928 C 95.8464 0.936518 -1.79091 0
M  V30 929 C 96.1674 1.84606 -0.628148 0
M  V30 930 O 95.4374 1.92664 0.35462 0
M  V30 931 H 94.0174 0.3488 -0.660566 0
M  V30 932 H 96.6794 0.22523 -1.93594 0
M  V30 933 H 95.7754 1.53943 -2.71492 0
M  V30 934 N 96.0765 1.50051 0.48192 0
M  V30 935 C 97.0395 1.67584 1.5636 0
M  V30 936 C 98.0395 0.546894 1.51214 0
M  V30 937 O 99.2295 0.813725 1.54026 0
M  V30 938 C 96.3615 1.691 2.96003 0
M  V30 939 H 97.5545 2.64078 1.42136 0
M  V30 940 H 95.1075 1.39369 0.707533 0
M  V30 941 H 95.8425 0.742589 3.15684 0
M  V30 942 H 95.6275 2.51105 3.01146 0
M  V30 943 H 97.1175 1.84656 3.74556 0
M  V30 944 N 97.5546 -0.734337 1.39446 0
M  V30 945 C 98.5176 -1.83004 1.37994 0
M  V30 946 C 99.5176 -1.58397 0.276938 0
M  V30 947 O 100.708 -1.65785 0.534875 0
M  V30 948 C 97.8396 -3.20802 1.1532 0
M  V30 949 H 99.0326 -1.85694 2.35494 0
M  V30 950 H 96.5856 -0.938059 1.25021 0
M  V30 951 H 97.3206 -3.23772 0.185036 0
M  V30 952 H 97.1056 -3.4006 1.95197 0
M  V30 953 H 98.5956 -4.00862 1.17046 0
M  V30 954 N 99.0327 -1.24633 -0.964593 0
M  V30 955 C 99.9427 -1.05859 -2.09359 0
M  V30 956 C 100.959 0.00148855 -1.74 0
M  V30 957 O 102.135 -0.197346 -2.00431 0
M  V30 958 C 99.1997 -0.668879 -3.40187 0
M  V30 959 C 98.2607 -1.80578 -3.89474 0
M  V30 960 C 97.4937 -1.43457 -5.14058 0
M  V30 961 O 97.7167 -0.325775 -5.69469 0
M  V30 962 O 96.6507 -2.2613 -5.57807 0
M  V30 963 H 100.477 -2.00516 -2.28094 0
M  V30 964 H 98.0617 -1.03481 -1.0776 0
M  V30 965 H 99.9437 -0.463211 -4.18846 0
M  V30 966 H 98.6187 0.248536 -3.22744 0
M  V30 967 H 97.5257 -2.06623 -3.11862 0
M  V30 968 H 98.8587 -2.70208 -4.11398 0
M  V30 969 N 100.511 1.16574 -1.06058 0
M  V30 970 C 101.757 1.87324 -0.777022 0
M  V30 971 C 102.09 1.81351 0.694645 0
M  V30 972 O 101.365 1.22753 1.50871 0
M  V30 973 C 101.648 3.36991 -1.26922 0
M  V30 974 C 101.501 3.51667 -2.80447 0
M  V30 975 C 102.82 4.3131 -0.87521 0
M  V30 976 H 99.9388 0.680191 -0.28374 0
M  V30 977 H 102.581 1.37036 -1.3161 0
M  V30 978 H 100.731 3.79949 -0.81063 0
M  V30 979 H 102.403 3.17664 -3.34495 0
M  V30 980 H 100.646 2.93656 -3.19294 0
M  V30 981 H 101.317 4.56766 -3.0995 0
M  V30 982 H 103.793 3.9624 -1.27014 0
M  V30 983 H 102.669 5.34545 -1.2471 0
M  V30 984 H 102.93 4.41552 0.220071 0
M  V30 985 N 101.989 0.842826 1.3317 0
M  V30 986 C 103.214 0.453129 2.02389 0
M  V30 987 C 103.639 -0.939105 1.6298 0
M  V30 988 O 102.997 -1.61472 0.8244 0
M  V30 989 C 103.045 0.586094 3.55805 0
M  V30 990 O 102.149 -0.386029 4.10589 0
M  V30 991 H 101.49 0.183664 0.638094 0
M  V30 992 H 104.02 1.13875 1.69981 0
M  V30 993 H 104.03 0.469209 4.05293 0
M  V30 994 H 102.705 1.6014 3.83833 0
M  V30 995 H 101.282 -0.226371 3.72212 0
M  V30 996 N 103.467 -1.45747 0.599634 0
M  V30 997 C 104.713 -2.02592 0.0918643 0
M  V30 998 C 105.046 -1.46806 -1.27128 0
M  V30 999 O 104.321 -0.639658 -1.83681 0
M  V30 1000 C 104.604 -3.60073 0.0443398 0
M  V30 1001 C 104.457 -4.26208 1.43759 0
M  V30 1002 C 105.776 -4.35309 -0.647608 0
M  V30 1003 H 102.895 -0.736175 0.034857 0
M  V30 1004 H 105.537 -1.73694 0.770081 0
M  V30 1005 H 103.687 -3.84823 -0.533224 0
M  V30 1006 H 105.359 -4.12668 2.06162 0
M  V30 1007 H 103.602 -3.84916 2.00056 0
M  V30 1008 H 104.273 -5.35069 1.35665 0
M  V30 1009 H 106.749 -4.15805 -0.156776 0
M  V30 1010 H 105.625 -5.45038 -0.649942 0
M  V30 1011 H 105.886 -4.07598 -1.71219 0
M  V30 1012 N 104.945 -0.338344 -1.53925 0
M  V30 1013 C 105.855 0.529421 -2.28548 0
M  V30 1014 C 106.871 1.11645 -1.3346 0
M  V30 1015 O 108.047 1.13325 -1.66492 0
M  V30 1016 C 105.112 1.66713 -3.03987 0
M  V30 1017 C 104.173 1.11041 -4.14691 0
M  V30 1018 C 103.406 2.19389 -4.86522 0
M  V30 1019 O 103.629 3.40013 -4.57982 0
M  V30 1020 O 102.563 1.83976 -5.73094 0
M  V30 1021 H 106.389 -0.0770399 -3.03602 0
M  V30 1022 H 103.974 -0.103555 -1.49041 0
M  V30 1023 H 105.856 2.32918 -3.5118 0
M  V30 1024 H 104.531 2.25949 -2.31794 0
M  V30 1025 H 103.438 0.413024 -3.71813 0
M  V30 1026 H 104.771 0.562975 -4.8897 0
M  V30 1027 N 106.423 1.57458 -0.0668435 0
M  V30 1028 C 107.333 2.15937 0.916975 0
M  V30 1029 C 108.349 1.12123 1.33058 0
M  V30 1030 O 109.525 1.44366 1.40429 0
M  V30 1031 C 106.59 2.70547 2.16807 0
M  V30 1032 C 105.651 3.89215 1.81135 0
M  V30 1033 C 104.884 4.41211 3.0028 0
M  V30 1034 O 105.107 3.92225 4.14144 0
M  V30 1035 O 104.041 5.32605 2.80384 0
M  V30 1036 H 107.867 3.00354 0.449561 0
M  V30 1037 H 105.452 1.48584 0.155949 0
M  V30 1038 H 107.334 3.0557 2.90181 0
M  V30 1039 H 106.009 1.89192 2.62656 0
M  V30 1040 H 104.916 3.59054 1.05028 0
M  V30 1041 H 106.249 4.71848 1.40073 0
M  V30 1042 N 107.901 -0.206675 1.56239 0
M  V30 1043 C 108.811 -1.27686 1.96808 0
M  V30 1044 C 109.827 -1.50455 0.874035 0
M  V30 1045 O 111.003 -1.63295 1.17884 0
M  V30 1046 C 108.068 -2.60358 2.28942 0
M  V30 1047 C 107.129 -2.45762 3.51994 0
M  V30 1048 C 106.362 -3.72108 3.82585 0
M  V30 1049 O 106.585 -4.75776 3.14631 0
M  V30 1050 O 105.519 -3.6833 4.76043 0
M  V30 1051 H 109.345 -0.962593 2.88041 0
M  V30 1052 H 106.93 -0.410746 1.43643 0
M  V30 1053 H 108.812 -3.38687 2.50737 0
M  V30 1054 H 107.487 -2.91435 1.4088 0
M  V30 1055 H 106.394 -1.65584 3.35459 0
M  V30 1056 H 107.727 -2.19621 4.40486 0
M  V30 1057 N 109.379 -1.50304 -0.473955 0
M  V30 1058 C 110.309 -1.71886 -1.58042 0
M  V30 1059 C 111.29 -0.567799 -1.60344 0
M  V30 1060 O 112.475 -0.806623 -1.76656 0
M  V30 1061 C 109.605 -1.81036 -2.96384 0
M  V30 1062 C 108.559 -2.962 -3.08949 0
M  V30 1063 C 107.885 -2.9049 -4.48909 0
M  V30 1064 C 109.185 -4.36752 -2.86434 0
M  V30 1065 H 110.879 -2.64527 -1.40234 0
M  V30 1066 H 108.425 -1.27295 -0.673201 0
M  V30 1067 H 110.378 -1.94719 -3.73714 0
M  V30 1068 H 109.102 -0.850147 -3.15341 0
M  V30 1069 H 107.761 -2.82164 -2.3405 0
M  V30 1070 H 107.409 -1.92321 -4.64781 0
M  V30 1071 H 107.109 -3.67802 -4.58253 0
M  V30 1072 H 108.633 -3.06218 -5.28264 0
M  V30 1073 H 110.047 -4.5133 -3.53517 0
M  V30 1074 H 108.444 -5.15493 -3.07225 0
M  V30 1075 H 109.514 -4.49321 -1.82316 0
M  V30 1076 N 110.857 0.726932 -1.39834 0
M  V30 1077 C 111.789 1.85147 -1.35104 0
M  V30 1078 C 112.802 1.60736 -0.258392 0
M  V30 1079 O 113.991 1.70821 -0.517931 0
M  V30 1080 C 111.091 3.21332 -1.07697 0
M  V30 1081 C 110.264 3.73033 -2.28396 0
M  V30 1082 C 109.323 4.87802 -1.97322 0
M  V30 1083 O 108.349 5.01043 -2.70083 0
M  V30 1084 N 109.551 5.72768 -0.944273 0
M  V30 1085 H 112.316 1.89706 -2.32017 0
M  V30 1086 H 109.877 0.908006 -1.3404 0
M  V30 1087 H 111.869 3.95691 -0.849144 0
M  V30 1088 H 110.439 3.11992 -0.194909 0
M  V30 1089 H 109.659 2.89934 -2.6708 0
M  V30 1090 H 110.947 4.0431 -3.08887 0
M  V30 1091 H 110.345 5.64669 -0.341427 0
M  V30 1092 H 108.902 6.4716 -0.776346 0
M  V30 1093 N 112.336 1.25143 0.95797 0
M  V30 1094 C 113.752 1.01892 1.22842 0
M  V30 1095 C 113.952 -0.266311 1.99732 0
M  V30 1096 O 113.008 -0.979913 2.3271 0
M  V30 1097 C 114.321 2.24004 2.00606 0
M  V30 1098 C 115.869 2.28731 2.13662 0
M  V30 1099 C 116.344 3.5049 2.94823 0
M  V30 1100 N 117.835 3.50866 3.02403 0
M  V30 1101 C 118.57 4.4174 3.65586 0
M  V30 1102 N 118.066 5.42882 4.30408 0
M  V30 1103 N 119.859 4.29429 3.62694 0
M  V30 1104 H 112.01 2.07718 0.443493 0
M  V30 1105 H 114.273 0.912031 0.258657 0
M  V30 1106 H 113.979 3.17395 1.51503 0
M  V30 1107 H 113.853 2.26907 3.01319 0
M  V30 1108 H 116.24 1.35865 2.61963 0
M  V30 1109 H 116.321 2.29848 1.12265 0
M  V30 1110 H 115.965 4.43676 2.47213 0
M  V30 1111 H 115.895 3.46617 3.96439 0
M  V30 1112 H 118.386 2.777 2.56302 0
M  V30 1113 H 118.699 6.0844 4.76467 0
M  V30 1114 H 117.044 5.46758 4.29047 0
M  V30 1115 H 120.235 3.49643 3.11236 0
M  V30 1116 H 120.408 5.00448 4.1165 0
M  V30 1117 N 113.814 -1.1601 1.06675 0
M  V30 1118 C 115.06 -1.86909 0.786945 0
M  V30 1119 C 115.393 -1.81717 -0.685018 0
M  V30 1120 O 114.668 -1.23551 -1.50218 0
M  V30 1121 C 114.951 -3.36313 1.28707 0
M  V30 1122 C 114.804 -3.50175 2.82308 0
M  V30 1123 C 116.123 -4.3084 0.898071 0
M  V30 1124 H 113.242 -0.678677 0.287343 0
M  V30 1125 H 115.884 -1.36336 1.32334 0
M  V30 1126 H 114.034 -3.79513 0.830768 0
M  V30 1127 H 115.706 -3.15886 3.36175 0
M  V30 1128 H 113.949 -2.91959 3.20847 0
M  V30 1129 H 114.62 -4.55116 3.12368 0
M  V30 1130 H 117.096 -3.95561 1.29114 0
M  V30 1131 H 115.972 -5.33876 1.27543 0
M  V30 1132 H 116.233 -4.41662 -0.196651 0
M  V30 1133 N 115.292 -0.849877 -1.32721 0
M  V30 1134 C 116.541 -0.447175 -1.96681 0
M  V30 1135 C 116.854 1.00135 -1.68025 0
M  V30 1136 O 118.06 1.50926 -2.25685 0
M  V30 1137 C 116.516 -0.7487 -3.52026 0
M  V30 1138 C 116.124 -2.21264 -3.89546 0
M  V30 1139 C 117.868 -0.413487 -4.22481 0
M  V30 1140 C 115.775 -2.45763 -5.37917 0
M  V30 1141 H 114.705 -0.163486 -0.736063 0
M  V30 1142 H 117.356 -1.03999 -1.51183 0
M  V30 1143 H 115.738 -0.0853727 -3.95908 0
M  V30 1144 H 116.912 -2.91736 -3.56689 0
M  V30 1145 H 115.227 -2.5119 -3.32103 0
M  V30 1146 H 117.824 -0.574017 -5.3161 0
M  V30 1147 H 118.167 0.644492 -4.11281 0
M  V30 1148 H 118.7 -1.03251 -3.84167 0
M  V30 1149 H 115.439 -3.50168 -5.54132 0
M  V30 1150 H 114.959 -1.79864 -5.72197 0
M  V30 1151 H 116.638 -2.29471 -6.0494 0
M  V30 1152 N 116.77 1.45427 -0.607355 0
M  V30 1153 C 118.181 1.85756 -0.187535 0
M  V30 1154 C 118.532 1.5077 1.25551 0
M  V30 1155 O 117.657 0.93427 1.95193 0
M  V30 1156 C 118.252 3.37154 -0.333572 0
M  V30 1157 C 116.811 3.76387 0.0315542 0
M  V30 1158 C 115.958 2.69377 -0.658117 0
M  V30 1159 H 118.909 1.36231 -0.81405 0
M  V30 1160 H 118.93 3.78014 0.43428 0
M  V30 1161 H 118.442 3.62586 -1.38393 0
M  V30 1162 H 116.543 3.56571 1.0811 0
M  V30 1163 H 116.656 4.77731 -0.361935 0
M  V30 1164 H 115.02 2.5452 -0.0957873 0
M  V30 1165 H 115.803 2.97646 -1.7106 0
M  V30 1166 N 118.248 0.346503 1.53744 0
M  V30 1167 C 119.494 -0.249473 2.0126 0
M  V30 1168 C 119.827 -1.49965 1.23386 0
M  V30 1169 O 119.102 -1.91811 0.32229 0
M  V30 1170 C 119.385 -0.560643 3.55709 0
M  V30 1171 C 119.238 0.701836 4.44291 0
M  V30 1172 C 120.557 -1.36905 4.18264 0
M  V30 1173 H 117.676 -0.0891987 0.731582 0
M  V30 1174 H 120.318 0.467624 1.84156 0
M  V30 1175 H 118.468 -1.17156 3.70414 0
M  V30 1176 H 120.14 1.33974 4.41417 0
M  V30 1177 H 118.383 1.32612 4.13033 0
M  V30 1178 H 119.054 0.43933 5.50249 0
M  V30 1179 H 121.53 -0.852448 4.07275 0
M  V30 1180 H 120.406 -1.55553 5.26398 0
M  V30 1181 H 120.667 -2.37203 3.73078 0
M  V30 1182 N 119.726 -1.57421 0.075193 0
M  V30 1183 C 120.972 -1.93905 -0.594025 0
M  V30 1184 C 121.305 -0.955701 -1.69056 0
M  V30 1185 O 120.58 0.0145373 -1.94495 0
M  V30 1186 C 120.863 -3.40638 -1.1678 0
M  V30 1187 C 120.716 -4.49733 -0.0776792 0
M  V30 1188 C 122.035 -3.88259 -2.07228 0
M  V30 1189 H 119.154 -0.705105 -0.214466 0
M  V30 1190 H 121.796 -1.8947 0.141854 0
M  V30 1191 H 119.946 -3.44549 -1.79494 0
M  V30 1192 H 121.618 -4.57942 0.555573 0
M  V30 1193 H 119.861 -4.29751 0.591286 0
M  V30 1194 H 120.532 -5.49549 -0.519603 0
M  V30 1195 H 123.008 -3.86376 -1.54445 0
M  V30 1196 H 121.884 -4.91533 -2.44308 0
M  V30 1197 H 122.145 -3.26396 -2.98191 0
M  V30 1198 N 121.204 0.198386 -1.56346 0
M  V30 1199 C 122.114 1.2664 -1.97483 0
M  V30 1200 C 123.13 1.49989 -0.882002 0
M  V30 1201 O 124.306 1.62668 -1.18748 0
M  V30 1202 C 121.371 2.59141 -2.30319 0
M  V30 1203 C 120.432 2.43892 -3.53292 0
M  V30 1204 C 119.665 3.70074 -3.84553 0
M  V30 1205 O 119.888 4.74101 -3.1715 0
M  V30 1206 O 118.822 3.658 -4.7799 0
M  V30 1207 H 122.648 0.947304 -2.88548 0
M  V30 1208 H 120.233 0.403123 -1.43859 0
M  V30 1209 H 122.115 3.37352 -2.5253 0
M  V30 1210 H 120.79 2.90684 -1.42423 0
M  V30 1211 H 119.697 1.63803 -3.36332 0
M  V30 1212 H 121.03 2.17282 -4.41644 0
M  V30 1213 N 122.682 1.50554 0.465978 0
M  V30 1214 C 123.645 1.69233 1.54574 0
M  V30 1215 C 124.645 0.562901 1.50626 0
M  V30 1216 O 125.835 0.830016 1.53155 0
M  V30 1217 C 122.967 1.7223 2.94193 0
M  V30 1218 H 124.16 2.65571 1.39327 0
M  V30 1219 H 121.713 1.40111 0.692711 0
M  V30 1220 H 122.448 0.77603 3.14878 0
M  V30 1221 H 122.233 2.54285 2.98466 0
M  V30 1222 H 123.723 1.88618 3.72576 0
M  V30 1223 N 124.16 -0.719506 1.40217 0
M  V30 1224 C 125.409 -1.47486 1.37589 0
M  V30 1225 C 125.722 -1.9559 -0.0201568 0
M  V30 1226 O 126.928 -2.70973 -0.169049 0
M  V30 1227 C 125.384 -2.66575 2.41796 0
M  V30 1228 C 124.992 -2.25358 3.87192 0
M  V30 1229 C 126.736 -3.4433 2.48269 0
M  V30 1230 C 124.643 -3.41262 4.83005 0
M  V30 1231 H 123.573 -0.553901 0.511576 0
M  V30 1232 H 126.224 -0.783427 1.65936 0
M  V30 1233 H 124.606 -3.3787 2.06543 0
M  V30 1234 H 125.78 -1.61509 4.31569 0
M  V30 1235 H 124.095 -1.60657 3.84159 0
M  V30 1236 H 126.692 -4.30569 3.17041 0
M  V30 1237 H 127.035 -3.87872 1.51198 0
M  V30 1238 H 127.568 -2.80076 2.82493 0
M  V30 1239 H 124.307 -3.02755 5.81394 0
M  V30 1240 H 123.827 -4.0404 4.43297 0
M  V30 1241 H 125.506 -4.07383 5.02641 0
M  V30 1242 N 125.638 -1.25649 -0.95132 0
M  V30 1243 C 126.601 -1.06399 -2.03007 0
M  V30 1244 C 127.601 -0.0156794 -1.60792 0
M  V30 1245 O 128.791 -0.25817 -1.72276 0
M  V30 1246 C 125.923 -0.616184 -3.35285 0
M  V30 1247 H 127.116 -2.02164 -2.21517 0
M  V30 1248 H 124.669 -1.08103 -1.12887 0
M  V30 1249 H 125.404 0.343917 -3.22471 0
M  V30 1250 H 125.189 -1.37301 -3.67275 0
M  V30 1251 H 126.679 -0.503032 -4.14559 0
M  V30 1252 N 127.117 1.15442 -1.07289 0
M  V30 1253 C 128.049 2.19773 -0.650585 0
M  V30 1254 C 129.062 1.60076 0.296572 0
M  V30 1255 O 130.251 1.78293 0.0859905 0
M  V30 1256 C 127.351 3.38838 0.0650398 0
M  V30 1257 C 126.524 4.2808 -0.898141 0
M  V30 1258 C 125.583 5.2574 -0.219926 0
M  V30 1259 O 124.609 5.62654 -0.860773 0
M  V30 1260 N 125.811 5.71205 1.03466 0
M  V30 1261 H 128.576 2.56622 -1.54808 0
M  V30 1262 H 126.137 1.30551 -0.957494 0
M  V30 1263 H 128.129 4.01222 0.529415 0
M  V30 1264 H 126.699 3.00409 0.864466 0
M  V30 1265 H 125.919 3.62804 -1.54165 0
M  V30 1266 H 127.207 4.84577 -1.5512 0
M  V30 1267 H 126.605 5.43325 1.57526 0
M  V30 1268 H 125.162 6.35633 1.44272 0
M  V30 1269 N 128.595 0.856903 1.32268 0
M  V30 1270 C 130.011 0.547061 1.49931 0
M  V30 1271 C 130.211 -0.921781 1.7918 0
M  V30 1272 O 129.267 -1.70469 1.8627 0
M  V30 1273 C 130.58 1.43599 2.64196 0
M  V30 1274 C 132.128 1.43665 2.78081 0
M  V30 1275 C 132.603 2.31085 3.95428 0
M  V30 1276 N 134.094 2.28893 4.02694 0
M  V30 1277 C 134.829 2.93262 4.92732 0
M  V30 1278 N 134.325 3.66751 5.87763 0
M  V30 1279 N 136.118 2.82638 4.85873 0
M  V30 1280 H 128.269 1.8075 1.11549 0
M  V30 1281 H 130.532 0.772144 0.549997 0
M  V30 1282 H 130.238 2.48058 2.49319 0
M  V30 1283 H 130.112 1.12502 3.60032 0
M  V30 1284 H 132.499 0.399701 2.92381 0
M  V30 1285 H 132.58 1.7878 1.82952 0
M  V30 1286 H 132.224 3.34849 3.81888 0
M  V30 1287 H 132.154 1.93302 4.89839 0
M  V30 1288 H 134.645 1.75466 3.34694 0
M  V30 1289 H 134.958 4.13027 6.53168 0
M  V30 1290 H 133.303 3.70859 5.87783 0
M  V30 1291 H 136.494 2.24774 4.10602 0
M  V30 1292 H 136.667 3.33084 5.55841 0
M  V30 1293 N 130.073 -1.45103 0.615059 0
M  V30 1294 C 131.32 -2.02183 0.113179 0
M  V30 1295 C 131.648 -1.48249 -1.25906 0
M  V30 1296 O 130.903 -0.650265 -1.84581 0
M  V30 1297 C 131.202 -3.57386 0.0318797 0
M  V30 1298 C 130.868 -4.30505 1.34077 0
M  V30 1299 C 129.53 -4.50197 1.69929 0
M  V30 1300 C 131.882 -4.72238 2.20546 0
M  V30 1301 C 129.21 -5.08881 2.91988 0
M  V30 1302 C 131.562 -5.32272 3.41861 0
M  V30 1303 C 130.226 -5.50187 3.77956 0
M  V30 1304 H 129.496 -0.739842 0.0414151 0
M  V30 1305 H 132.143 -1.74073 0.798168 0
M  V30 1306 H 130.448 -3.84817 -0.736409 0
M  V30 1307 H 132.145 -3.99264 -0.372712 0
M  V30 1308 H 128.735 -4.15496 1.05173 0
M  V30 1309 H 132.919 -4.56751 1.94146 0
M  V30 1310 H 128.175 -5.20939 3.2005 0
M  V30 1311 H 132.349 -5.63563 4.09109 0
M  V30 1312 H 129.976 -5.95427 4.72622 0
M  V30 1313 N 131.551 -0.354651 -1.53558 0
M  V30 1314 C 132.461 0.50515 -2.29097 0
M  V30 1315 C 133.477 1.10223 -1.34636 0
M  V30 1316 O 134.653 1.11553 -1.67684 0
M  V30 1317 C 131.718 1.63479 -3.05738 0
M  V30 1318 C 130.779 1.06636 -4.15845 0
M  V30 1319 C 130.012 2.14217 -4.88822 0
M  V30 1320 O 130.235 3.35137 -4.61562 0
M  V30 1321 O 129.169 1.77887 -5.75013 0
M  V30 1322 H 132.995 -0.109237 -3.03503 0
M  V30 1323 H 130.58 -0.119357 -1.48922 0
M  V30 1324 H 132.462 2.2918 -3.5363 0
M  V30 1325 H 131.137 2.23478 -2.34178 0
M  V30 1326 H 130.044 0.373565 -3.7223 0
M  V30 1327 H 131.377 0.511081 -4.89539 0
M  V30 1328 N 133.029 1.57378 -0.0835403 0
M  V30 1329 C 134.275 1.94217 0.583733 0
M  V30 1330 C 134.608 0.964653 1.68547 0
M  V30 1331 O 133.883 -0.00422258 1.945 0
M  V30 1332 C 134.166 3.41253 1.14972 0
M  V30 1333 C 134.019 4.49768 0.0538277 0
M  V30 1334 C 135.338 3.89352 2.05166 0
M  V30 1335 H 132.457 0.706233 0.210724 0
M  V30 1336 H 135.099 1.89392 -0.1519 0
M  V30 1337 H 133.249 3.45496 1.77665 0
M  V30 1338 H 134.921 4.57641 -0.579851 0
M  V30 1339 H 133.164 4.29432 -0.614068 0
M  V30 1340 H 133.835 5.49817 0.490452 0
M  V30 1341 H 136.311 3.87189 1.52393 0
M  V30 1342 H 135.187 4.92822 2.41698 0
M  V30 1343 H 135.448 3.27973 2.96456 0
M  V30 1344 N 134.507 -0.190092 1.56449 0
M  V30 1345 C 135.753 -0.906472 1.82084 0
M  V30 1346 C 136.108 -1.80677 0.661335 0
M  V30 1347 O 135.401 -1.88501 -0.343237 0
M  V30 1348 C 135.595 -1.75382 3.1141 0
M  V30 1349 C 135.424 -0.937053 4.39829 0
M  V30 1350 C 134.194 -0.619507 5.01488 0
M  V30 1351 C 136.392 -0.2874 5.13496 0
M  V30 1352 N 134.374 0.215367 6.13522 0
M  V30 1353 C 135.745 0.409454 6.18646 0
M  V30 1354 C 137.8 -0.203639 4.97483 0
M  V30 1355 C 136.503 1.1821 7.0952 0
M  V30 1356 C 138.529 0.555622 5.88784 0
M  V30 1357 C 137.891 1.24091 6.93384 0
M  V30 1358 H 133.99 -0.310931 0.717528 0
M  V30 1359 H 136.574 -0.174821 1.93914 0
M  V30 1360 H 134.745 -2.45703 3.00806 0
M  V30 1361 H 136.477 -2.41006 3.25112 0
M  V30 1362 H 133.232 -0.945126 4.64074 0
M  V30 1363 H 133.656 0.622562 6.74131 0
M  V30 1364 H 138.298 -0.719099 4.1664 0
M  V30 1365 H 136.016 1.70897 7.89823 0
M  V30 1366 H 139.602 0.621854 5.78467 0
M  V30 1367 H 138.482 1.81901 7.62812 0
M  V30 1368 N 135.985 -1.50799 -0.457987 0
M  V30 1369 C 137.234 -1.6168 -1.20593 0
M  V30 1370 C 137.547 -0.32888 -1.92815 0
M  V30 1371 O 138.753 -0.316773 -2.69646 0
M  V30 1372 C 137.209 -2.8545 -2.19195 0
M  V30 1373 C 136.817 -4.21168 -1.52715 0
M  V30 1374 C 138.561 -3.05681 -2.94549 0
M  V30 1375 C 136.468 -5.3611 -2.4968 0
M  V30 1376 H 135.398 -0.602134 -0.453818 0
M  V30 1377 H 138.049 -1.77245 -0.475031 0
M  V30 1378 H 136.431 -2.63472 -2.95632 0
M  V30 1379 H 137.605 -4.53449 -0.819775 0
M  V30 1380 H 135.92 -4.06648 -0.895922 0
M  V30 1381 H 138.517 -3.88727 -3.67145 0
M  V30 1382 H 138.86 -2.17929 -3.54701 0
M  V30 1383 H 139.393 -3.27901 -2.25223 0
M  V30 1384 H 136.132 -6.26057 -1.94249 0
M  V30 1385 H 135.652 -5.0823 -3.18532 0
M  V30 1386 H 137.331 -5.6722 -3.11241 0
M  V30 1387 N 137.463 0.71206 -1.40597 0
M  V30 1388 C 138.688 1.50617 -1.42581 0
M  V30 1389 C 139.113 1.88079 -0.0282102 0
M  V30 1390 O 138.471 1.53511 0.964579 0
M  V30 1391 C 138.519 2.7557 -2.3258 0
M  V30 1392 O 137.623 3.72414 -1.77148 0
M  V30 1393 H 136.964 0.453966 -0.484573 0
M  V30 1394 H 139.494 0.876649 -1.84868 0
M  V30 1395 H 139.504 3.2406 -2.47889 0
M  V30 1396 H 138.179 2.47639 -3.34138 0
M  V30 1397 H 136.756 3.31276 -1.71204 0
M  V30 1398 N 138.941 1.26152 0.944643 0
M  V30 1399 C 140.187 1.11657 1.69294 0
M  V30 1400 C 140.52 -0.339926 1.91202 0
M  V30 1401 O 139.795 -1.24994 1.49019 0
M  V30 1402 C 140.078 1.88236 3.06984 0
M  V30 1403 C 139.931 3.41772 2.92424 0
M  V30 1404 C 141.25 1.67343 4.07043 0
M  V30 1405 H 138.369 0.407004 0.614424 0
M  V30 1406 H 141.011 1.55106 1.09737 0
M  V30 1407 H 139.161 1.51308 3.57824 0
M  V30 1408 H 140.833 3.88433 2.48832 0
M  V30 1409 H 139.076 3.68974 2.28124 0
M  V30 1410 H 139.747 3.90579 3.90067 0
M  V30 1411 H 142.223 1.99509 3.65151 0
M  V30 1412 H 141.099 2.23346 5.01406 0
M  V30 1413 H 141.36 0.617158 4.37771 0
M  V30 1414 N 140.419 -1.14872 1.07899 0
M  V30 1415 C 141.696 -1.81928 0.71845 0
M  V30 1416 C 142.076 -1.95417 -0.798455 0
M  V30 1417 O 141.424 -1.50997 -1.715 0
M  V30 1418 C 141.634 -3.17937 1.43935 0
M  V30 1419 C 142.982 -3.93501 1.59506 0
M  V30 1420 O 144.006 -3.27509 1.40058 0
M  V30 1421 O 142.865 -5.1183 1.91551 0
M  V30 1422 H 139.959 -0.78628 0.256305 0
M  V30 1423 H 142.505 -1.21934 1.18026 0
M  V30 1424 H 141.277 -3.0325 2.47295 0
M  V30 1425 H 140.9 -3.85619 0.968687 0
M  V30 1426 N 141.898 -0.863906 -1.31812 0
M  V30 1427 C 143.126 -0.486111 -2.01108 0
M  V30 1428 C 143.541 0.919755 -1.64882 0
M  V30 1429 O 142.898 1.60162 -0.874893 0
M  V30 1430 C 142.949 -0.626435 -3.56031 0
M  V30 1431 O 142.67 -1.97693 -3.90959 0
M  V30 1432 C 144.171 -0.248857 -4.42601 0
M  V30 1433 H 141.391 -0.190052 -0.643523 0
M  V30 1434 H 143.935 -1.1634 -1.68182 0
M  V30 1435 H 142.09 0.00322717 -3.874 0
M  V30 1436 H 142.504 -1.98034 -4.85678 0
M  V30 1437 H 143.978 -0.398016 -5.50563 0
M  V30 1438 H 144.455 0.811489 -4.31638 0
M  V30 1439 H 145.061 -0.853971 -4.16638 0
M  V30 1440 N 143.376 1.44774 -0.622745 0
M  V30 1441 C 144.601 2.06999 -0.128968 0
M  V30 1442 C 145.026 1.4617 1.1839 0
M  V30 1443 O 144.384 0.560007 1.72434 0
M  V30 1444 C 144.432 3.60595 -0.0188351 0
M  V30 1445 O 143.536 3.99398 1.02739 0
M  V30 1446 H 142.877 0.659047 -0.0809544 0
M  V30 1447 H 145.407 1.85784 -0.85705 0
M  V30 1448 H 145.417 4.07627 0.174476 0
M  V30 1449 H 144.092 4.04252 -0.977384 0
M  V30 1450 H 142.669 3.64011 0.809326 0
M  V30 1451 N 144.854 0.36279 1.53368 0
M  V30 1452 C 145.801 -0.485008 2.25646 0
M  V30 1453 C 146.771 -1.07982 1.2621 0
M  V30 1454 O 147.956 -1.11284 1.54986 0
M  V30 1455 C 145.096 -1.62023 3.04701 0
M  V30 1456 C 144.209 -1.05086 4.19024 0
M  V30 1457 C 143.344 -2.15496 4.85525 0
M  V30 1458 C 142.383 -1.5601 5.91884 0
M  V30 1459 N 141.52 -2.60241 6.52088 0
M  V30 1460 H 146.36 0.137864 2.97681 0
M  V30 1461 H 143.897 0.0798061 1.46883 0
M  V30 1462 H 145.855 -2.28887 3.48807 0
M  V30 1463 H 144.485 -2.2138 2.34927 0
M  V30 1464 H 143.537 -0.27259 3.79422 0
M  V30 1465 H 144.849 -0.575926 4.95464 0
M  V30 1466 H 144.003 -2.90186 5.32801 0
M  V30 1467 H 142.742 -2.66341 4.08551 0
M  V30 1468 H 141.747 -0.798338 5.43973 0
M  V30 1469 H 142.972 -1.05994 6.70777 0
M  V30 1470 H 140.918 -3.10304 5.77968 0
M  V30 1471 H 140.835 -2.17426 7.24059 0
M  V30 1472 H 142.103 -3.34641 7.04014 0
M  V30 1473 N 146.332 -1.57332 0.0918853 0
M  V30 1474 C 147.743 -1.81496 -0.437739 0
M  V30 1475 C 148.094 -1.00727 -1.6837 0
M  V30 1476 O 147.219 -0.235694 -2.15113 0
M  V30 1477 C 147.814 -3.29197 -0.800939 0
M  V30 1478 C 146.373 -3.54136 -1.27532 0
M  V30 1479 C 145.52 -2.75979 -0.270392 0
M  V30 1480 H 148.471 -1.55494 0.317366 0
M  V30 1481 H 148.492 -3.42344 -1.66074 0
M  V30 1482 H 148.004 -3.87955 0.106078 0
M  V30 1483 H 146.105 -3.00705 -2.20016 0
M  V30 1484 H 146.218 -4.62792 -1.23938 0
M  V30 1485 H 144.582 -2.43349 -0.751872 0
M  V30 1486 H 145.365 -3.37484 0.629248 0
M  V30 1487 N 147.81 0.181792 -1.56548 0
M  V30 1488 C 148.72 1.24538 -1.98815 0
M  V30 1489 C 149.736 1.49045 -0.897861 0
M  V30 1490 O 150.912 1.61399 -1.20467 0
M  V30 1491 C 147.977 2.56683 -2.33055 0
M  V30 1492 C 147.038 2.40131 -3.55859 0
M  V30 1493 C 146.271 3.65975 -3.88456 0
M  V30 1494 O 146.494 4.70711 -3.22161 0
M  V30 1495 O 145.428 3.6071 -4.81842 0
M  V30 1496 H 149.254 0.916647 -2.89536 0
M  V30 1497 H 146.839 0.387842 -1.44278 0
M  V30 1498 H 148.721 3.34655 -2.56094 0
M  V30 1499 H 147.396 2.89157 -1.45498 0
M  V30 1500 H 146.303 1.60226 -3.38051 0
M  V30 1501 H 147.636 2.12585 -4.43924 0
M  V30 1502 N 149.288 1.51039 0.449983 0
M  V30 1503 C 150.534 1.63322 1.20223 0
M  V30 1504 C 150.867 0.34241 1.91158 0
M  V30 1505 O 150.142 -0.657344 1.83055 0
M  V30 1506 C 150.425 2.82801 2.22925 0
M  V30 1507 C 150.278 4.21823 1.56157 0
M  V30 1508 C 151.597 2.97807 3.24035 0
M  V30 1509 H 148.716 0.594407 0.435718 0
M  V30 1510 H 151.358 1.83489 0.493136 0
M  V30 1511 H 149.508 2.65738 2.834 0
M  V30 1512 H 151.18 4.50526 0.991162 0
M  V30 1513 H 149.423 4.25105 0.864172 0
M  V30 1514 H 150.094 5.01391 2.30891 0
M  V30 1515 H 152.57 3.13497 2.73603 0
M  V30 1516 H 151.446 3.82992 3.93202 0
M  V30 1517 H 151.707 2.09328 3.89402 0
M  V30 1518 N 150.766 -0.704594 1.40972 0
M  V30 1519 C 152.015 -1.46018 1.39146 0
M  V30 1520 C 152.328 -1.956 0.000589254 0
M  V30 1521 O 153.534 -2.71137 -0.1403 0
M  V30 1522 C 151.99 -2.63996 2.4461 0
M  V30 1523 C 151.598 -2.21238 3.89561 0
M  V30 1524 C 153.342 -3.41677 2.51907 0
M  V30 1525 C 151.249 -3.3612 4.86598 0
M  V30 1526 H 150.179 -0.548444 0.517422 0
M  V30 1527 H 152.83 -0.765784 1.66757 0
M  V30 1528 H 151.212 -3.3566 2.10115 0
M  V30 1529 H 152.386 -1.56923 4.33257 0
M  V30 1530 H 150.701 -1.56574 3.85841 0
M  V30 1531 H 153.298 -4.27182 3.2159 0
M  V30 1532 H 153.641 -3.86247 1.55303 0
M  V30 1533 H 154.174 -2.77064 2.85448 0
M  V30 1534 H 150.913 -2.96572 5.84573 0
M  V30 1535 H 150.433 -3.99315 4.47557 0
M  V30 1536 H 152.112 -4.02029 5.06934 0
M  V30 1537 N 152.244 -1.26651 -0.937939 0
M  V30 1538 C 153.66 -1.03834 -1.21205 0
M  V30 1539 C 153.86 0.234502 -2.00131 0
M  V30 1540 O 152.916 0.942767 -2.3424 0
M  V30 1541 C 154.229 -2.27167 -1.97017 0
M  V30 1542 C 155.777 -2.32101 -2.09996 0
M  V30 1543 C 156.252 -3.55136 -2.8921 0
M  V30 1544 N 157.743 -3.55632 -2.96783 0
M  V30 1545 C 158.478 -4.475 -3.58512 0
M  V30 1546 N 157.974 -5.4966 -4.21717 0
M  V30 1547 N 159.767 -4.35145 -3.55816 0
M  V30 1548 H 151.918 -2.08398 -0.410391 0
M  V30 1549 H 154.181 -0.916031 -0.244114 0
M  V30 1550 H 153.887 -3.19765 -1.46434 0
M  V30 1551 H 153.761 -2.31672 -2.97671 0
M  V30 1552 H 156.148 -1.40015 -2.59769 0
M  V30 1553 H 156.229 -2.31605 -1.08594 0
M  V30 1554 H 155.873 -4.47553 -2.40123 0
M  V30 1555 H 155.803 -3.5288 -3.90875 0
M  V30 1556 H 158.294 -2.81743 -2.51852 0
M  V30 1557 H 158.607 -6.15943 -4.66727 0
M  V30 1558 H 156.952 -5.53514 -4.20294 0
M  V30 1559 H 160.143 -3.5455 -3.05634 0
M  V30 1560 H 160.316 -5.06934 -4.03636 0
M  V30 1561 N 153.722 1.14298 -1.08507 0
M  V30 1562 C 154.632 2.23027 -0.727753 0
M  V30 1563 C 155.648 1.71952 0.26619 0
M  V30 1564 O 156.824 2.011 0.109882 0
M  V30 1565 C 153.889 3.46403 -0.143541 0
M  V30 1566 C 152.95 4.12413 -1.19223 0
M  V30 1567 C 152.183 5.29899 -0.635798 0
M  V30 1568 O 152.406 5.67796 0.544393 0
M  V30 1569 O 151.34 5.85717 -1.38634 0
M  V30 1570 H 155.166 2.55945 -1.63481 0
M  V30 1571 H 152.751 1.22248 -0.858817 0
M  V30 1572 H 154.633 4.21018 0.179404 0
M  V30 1573 H 153.308 3.15206 0.736659 0
M  V30 1574 H 152.215 3.39667 -1.56772 0
M  V30 1575 H 153.548 4.47718 -2.04474 0
M  V30 1576 N 155.201 0.870884 1.31352 0
M  V30 1577 C 156.426 0.495957 2.01383 0
M  V30 1578 C 156.851 -0.904324 1.64935 0
M  V30 1579 O 156.209 -1.59687 0.858466 0
M  V30 1580 C 156.257 0.661433 3.54482 0
M  V30 1581 O 155.361 -0.298851 4.11316 0
M  V30 1582 H 154.702 0.197158 0.634054 0
M  V30 1583 H 157.232 1.17455 1.67527 0
M  V30 1584 H 157.242 0.555072 4.04207 0
M  V30 1585 H 155.917 1.68246 3.8035 0
M  V30 1586 H 154.494 -0.147368 3.72609 0
M  V30 1587 N 156.679 -1.44442 0.630414 0
M  V30 1588 C 157.642 -2.29107 -0.0652523 0
M  V30 1589 C 158.642 -1.41002 -0.772995 0
M  V30 1590 O 159.832 -1.62881 -0.617692 0
M  V30 1591 C 156.964 -3.22564 -1.10296 0
M  V30 1592 H 158.157 -2.92103 0.679401 0
M  V30 1593 H 155.71 -1.51343 0.390517 0
M  V30 1594 H 156.445 -2.64416 -1.87762 0
M  V30 1595 H 156.23 -3.87491 -0.59941 0
M  V30 1596 H 157.72 -3.86167 -1.5895 0
M  V30 1597 N 158.157 -0.370918 -1.53173 0
M  V30 1598 C 159.104 0.473035 -2.259 0
M  V30 1599 C 160.074 1.07311 -1.26781 0
M  V30 1600 O 161.259 1.1046 -1.55574 0
M  V30 1601 C 158.399 1.60405 -3.05556 0
M  V30 1602 C 157.512 1.02863 -4.19575 0
M  V30 1603 C 156.647 2.12918 -4.86661 0
M  V30 1604 C 155.686 1.52869 -5.92704 0
M  V30 1605 N 154.823 2.56779 -6.53459 0
M  V30 1606 H 159.663 -0.153649 -2.97604 0
M  V30 1607 H 157.2 -0.0875946 -1.46839 0
M  V30 1608 H 159.158 2.27034 -3.50016 0
M  V30 1609 H 157.788 2.20131 -2.36097 0
M  V30 1610 H 156.84 0.252465 -3.79561 0
M  V30 1611 H 158.152 0.549642 -4.95762 0
M  V30 1612 H 157.306 2.87356 -5.34333 0
M  V30 1613 H 156.045 2.6417 -4.09958 0
M  V30 1614 H 155.05 0.769479 -5.44389 0
M  V30 1615 H 156.275 1.02435 -6.7133 0
M  V30 1616 H 154.221 3.07235 -5.79606 0
M  V30 1617 H 154.138 2.13583 -7.25202 0
M  V30 1618 H 155.406 3.30903 -7.05779 0
M  V30 1619 N 159.635 1.57281 -0.100228 0
M  V30 1620 C 160.881 1.94826 0.563101 0
M  V30 1621 C 161.214 0.982475 1.67514 0
M  V30 1622 O 160.489 0.0164069 1.94493 0
M  V30 1623 C 160.772 3.42453 1.11346 0
M  V30 1624 C 160.625 4.498 0.00612081 0
M  V30 1625 C 161.944 3.91506 2.01024 0
M  V30 1626 H 159.063 0.708428 0.203221 0
M  V30 1627 H 161.705 1.8922 -0.171979 0
M  V30 1628 H 159.855 3.47361 1.7399 0
M  V30 1629 H 161.527 4.57 -0.628357 0
M  V30 1630 H 159.77 4.28756 -0.659581 0
M  V30 1631 H 160.441 5.50306 0.432109 0
M  V30 1632 H 162.917 3.88784 1.48278 0
M  V30 1633 H 161.793 4.95358 2.36457 0
M  V30 1634 H 162.054 3.31099 2.92961 0
M  V30 1635 N 161.113 -0.173488 1.56642 0
M  V30 1636 C 162.361 -0.888706 1.81512 0
M  V30 1637 C 162.682 -1.82875 0.676872 0
M  V30 1638 O 161.952 -1.93536 -0.303414 0
M  V30 1639 H 160.532 -0.331164 0.669582 0
M  V30 1640 H 163.194 -0.173823 1.94123 0
M  V30 1641 H 162.29 -1.46691 2.75478 0
M  V30 1642 N 162.591 -1.51276 -0.441967 0
M  V30 1643 C 163.554 -1.7167 -1.51862 0
M  V30 1644 C 164.554 -0.586793 -1.49711 0
M  V30 1645 O 165.744 -0.854276 -1.51815 0
M  V30 1646 C 162.876 -1.76889 -2.91416 0
M  V30 1647 H 164.069 -2.67754 -1.35084 0
M  V30 1648 H 161.622 -1.41196 -0.670333 0
M  V30 1649 H 162.357 -0.826026 -3.13604 0
M  V30 1650 H 162.142 -2.59001 -2.94382 0
M  V30 1651 H 163.632 -1.94522 -3.69528 0
M  V30 1652 N 164.069 0.697108 -1.41344 0
M  V30 1653 C 165.019 1.80313 -1.39539 0
M  V30 1654 C 166.003 1.58618 -0.270001 0
M  V30 1655 O 167.195 1.69477 -0.510551 0
M  V30 1656 C 164.324 3.18606 -1.27848 0
M  V30 1657 C 163.41 3.46001 -2.45244 0
M  V30 1658 N 163.801 3.44103 -3.70711 0
M  V30 1659 C 162.099 3.76542 -2.39023 0
M  V30 1660 C 162.8 3.7036 -4.48563 0
M  V30 1661 N 161.776 3.90027 -3.78655 0
M  V30 1662 H 165.578 1.77207 -2.34468 0
M  V30 1663 H 163.092 0.897031 -1.35378 0
M  V30 1664 H 165.089 3.97833 -1.24637 0
M  V30 1665 H 163.749 3.22925 -0.339032 0
M  V30 1666 H 164.76 3.2452 -4.03618 0
M  V30 1667 H 161.437 3.88241 -1.53542 0
M  V30 1668 H 162.827 3.75042 -5.57488 0
M  V30 1669 N 165.547 1.27147 0.931209 0
M  V30 1670 C 166.796 1.12664 1.67302 0
M  V30 1671 C 167.109 -0.327718 1.92835 0
M  V30 1672 O 168.315 -0.593392 2.64936 0
M  V30 1673 C 166.771 1.9683 3.01307 0
M  V30 1674 C 166.379 3.46901 2.83485 0
M  V30 1675 C 168.123 1.90985 3.79111 0
M  V30 1676 C 166.03 4.23279 4.13024 0
M  V30 1677 H 164.96 0.41803 0.627509 0
M  V30 1678 H 167.611 1.51539 1.03481 0
M  V30 1679 H 165.993 1.50797 3.66164 0
M  V30 1680 H 167.167 4.00773 2.27415 0
M  V30 1681 H 165.482 3.54088 2.19113 0
M  V30 1682 H 168.079 2.45328 4.75098 0
M  V30 1683 H 168.422 0.882718 4.06834 0
M  V30 1684 H 168.955 2.34895 3.21044 0
M  V30 1685 H 165.694 5.26503 3.90481 0
M  V30 1686 H 165.214 3.74186 4.6877 0
M  V30 1687 H 166.893 4.32265 4.81411 0
M  V30 1688 N 167.025 -1.13721 1.09112 0
M  V30 1689 C 168.274 -1.84275 0.82009 0
M  V30 1690 C 168.587 -1.84253 -0.656509 0
M  V30 1691 O 169.793 -2.50668 -1.04296 0
M  V30 1692 C 168.249 -3.30825 1.41714 0
M  V30 1693 C 167.857 -3.39244 2.92605 0
M  V30 1694 C 169.601 -4.06443 1.22492 0
M  V30 1695 C 167.508 -4.80047 3.45411 0
M  V30 1696 H 166.438 -0.690387 0.30312 0
M  V30 1697 H 169.089 -1.28146 1.31343 0
M  V30 1698 H 167.471 -3.86737 0.851498 0
M  V30 1699 H 168.645 -2.93344 3.55367 0
M  V30 1700 H 166.96 -2.77088 3.10823 0
M  V30 1701 H 169.557 -5.10387 1.59402 0
M  V30 1702 H 169.9 -4.15972 0.165299 0
M  V30 1703 H 170.433 -3.56852 1.75788 0
M  V30 1704 H 167.172 -4.75709 4.50978 0
M  V30 1705 H 166.692 -5.26455 2.87411 0
M  V30 1706 H 168.371 -5.48957 3.42425 0
M  V30 1707 N 168.503 -0.877838 -1.30888 0
M  V30 1708 C 169.451 -0.328662 -2.30266 0
M  V30 1709 C 170.445 0.560496 -1.59859 0
M  V30 1710 O 171.651 0.445722 -1.74394 0
M  V30 1711 H 168.026 -0.0876142 -0.746879 0
M  V30 1712 H 169.997 -1.18061 -2.74051 0
M  V30 1713 C 168.746 0.448071 -3.44801 0
M  V30 1714 H 168.069 -0.226859 -3.99156 0
M  V30 1715 H 169.509 0.797541 -4.16432 0
M  V30 1716 C 167.968 1.64239 -2.94155 0
M  V30 1717 O 168.498 2.74175 -2.93583 0
M  V30 1718 N 166.704 1.47716 -2.50256 0
M  V30 1719 H 166.251 0.582821 -2.5092 0
M  V30 1720 H 166.209 2.27765 -2.16727 0
M  V30 1721 N 169.982 1.44106 -0.638065 0
M  V30 1722 C 171.259 1.95453 -0.0759321 0
M  V30 1723 C 171.639 1.57984 1.40015 0
M  V30 1724 O 170.987 0.857361 2.11806 0
M  V30 1725 C 171.197 3.47655 -0.306132 0
M  V30 1726 C 172.545 4.24114 -0.203008 0
M  V30 1727 O 173.569 3.55405 -0.237871 0
M  V30 1728 O 172.428 5.46381 -0.113827 0
M  V30 1729 H 169.522 0.826797 0.0183332 0
M  V30 1730 H 172.068 1.54122 -0.710251 0
M  V30 1731 H 170.84 3.68 -1.3301 0
M  V30 1732 H 170.463 3.95949 0.361991 0
M  V30 1733 N 171.46 0.379036 1.52974 0
M  V30 1734 C 172.709 -0.207612 2.00629 0
M  V30 1735 C 173.022 -1.48758 1.27006 0
M  V30 1736 O 174.228 -2.15365 1.65318 0
M  V30 1737 C 172.684 -0.42053 3.57435 0
M  V30 1738 C 172.292 0.845587 4.39948 0
M  V30 1739 C 174.036 -0.964102 4.13407 0
M  V30 1740 C 171.943 0.601513 5.88333 0
M  V30 1741 H 170.873 -0.0813591 0.749598 0
M  V30 1742 H 173.524 0.499853 1.76561 0
M  V30 1743 H 171.906 -1.18959 3.7771 0
M  V30 1744 H 173.08 1.61848 4.31442 0
M  V30 1745 H 171.395 1.31336 3.95145 0
M  V30 1746 H 173.992 -1.16225 5.21916 0
M  V30 1747 H 174.335 -1.93019 3.68849 0
M  V30 1748 H 174.868 -0.25487 3.96983 0
M  V30 1749 H 171.607 1.53831 6.37194 0
M  V30 1750 H 171.127 -0.132628 5.99653 0
M  V30 1751 H 172.806 0.232134 6.46583 0
M  V30 1752 N 172.938 -1.57226 0.108567 0
M  V30 1753 C 174.354 -1.5766 -0.248058 0
M  V30 1754 C 174.554 -1.12063 -1.67464 0
M  V30 1755 O 173.61 -0.803236 -2.39383 0
M  V30 1756 C 174.923 -3.0069 -0.0242287 0
M  V30 1757 C 176.471 -3.12868 -0.0909372 0
M  V30 1758 C 176.946 -4.57879 0.105067 0
M  V30 1759 N 178.437 -4.63172 0.0506846 0
M  V30 1760 C 179.172 -5.73126 0.177396 0
M  V30 1761 N 178.668 -6.91866 0.359696 0
M  V30 1762 N 180.461 -5.61977 0.117709 0
M  V30 1763 H 172.612 -1.85169 1.04049 0
M  V30 1764 H 174.875 -0.85529 0.40888 0
M  V30 1765 H 174.581 -3.38299 0.961604 0
M  V30 1766 H 174.455 -3.6945 -0.76068 0
M  V30 1767 H 176.842 -2.75124 -1.06729 0
M  V30 1768 H 176.923 -2.46672 0.677225 0
M  V30 1769 H 176.567 -4.96321 1.07834 0
M  V30 1770 H 176.497 -5.22153 -0.682954 0
M  V30 1771 H 178.988 -3.778 -0.0871266 0
M  V30 1772 H 179.301 -7.71503 0.447529 0
M  V30 1773 H 177.646 -6.93874 0.395536 0
M  V30 1774 H 180.837 -4.68094 -0.0236741 0
M  V30 1775 H 181.01 -6.47627 0.219905 0
M  V30 1776 N 174.416 0.165178 -1.56732 0
M  V30 1777 C 175.641 0.900253 -1.86843 0
M  V30 1778 C 176.066 1.74766 -0.695596 0
M  V30 1779 O 175.424 1.77786 0.35522 0
M  V30 1780 C 175.472 1.74777 -3.15413 0
M  V30 1781 O 174.576 2.85007 -2.98068 0
M  V30 1782 H 173.917 0.251832 -0.614391 0
M  V30 1783 H 176.447 0.161468 -2.03962 0
M  V30 1784 H 176.457 2.14646 -3.46974 0
M  V30 1785 H 175.132 1.12537 -4.00385 0
M  V30 1786 H 173.709 2.48676 -2.77875 0
M  V30 1787 N 175.894 1.51508 0.433938 0
M  V30 1788 C 176.824 1.76016 1.53429 0
M  V30 1789 C 177.805 0.610112 1.58782 0
M  V30 1790 O 178.99 0.853177 1.74455 0
M  V30 1791 C 176.12 1.88831 2.9148 0
M  V30 1792 C 175.074 3.04288 3.00987 0
M  V30 1793 C 174.4 3.0229 4.4105 0
M  V30 1794 C 175.7 4.44193 2.74754 0
M  V30 1795 H 177.394 2.68152 1.33171 0
M  V30 1796 H 174.94 1.29035 0.639214 0
M  V30 1797 H 176.893 2.04559 3.6842 0
M  V30 1798 H 175.617 0.933455 3.12976 0
M  V30 1799 H 174.276 2.8827 2.26486 0
M  V30 1800 H 173.924 2.04576 4.59519 0
M  V30 1801 H 173.624 3.79822 4.4834 0
M  V30 1802 H 175.148 3.20116 5.1996 0
M  V30 1803 H 176.562 4.60544 3.41426 0
M  V30 1804 H 174.959 5.23457 2.9345 0
M  V30 1805 H 176.029 4.53996 1.70339 0
M  V30 1806 N 177.372 -0.689602 1.41712 0
M  V30 1807 C 178.597 -1.48329 1.44959 0
M  V30 1808 C 179.022 -1.8801 0.0581283 0
M  V30 1809 O 178.38 -1.55026 -0.940035 0
M  V30 1810 C 178.428 -2.71835 2.36935 0
M  V30 1811 O 177.532 -3.69549 1.8305 0
M  V30 1812 H 176.873 -0.446199 0.491734 0
M  V30 1813 H 179.403 -0.847127 1.86239 0
M  V30 1814 H 179.413 -3.20076 2.53013 0
M  V30 1815 H 178.088 -2.42291 3.38035 0
M  V30 1816 H 176.665 -3.2851 1.76452 0
M  V30 1817 N 178.85 -1.27639 -0.924453 0
M  V30 1818 C 179.76 -1.12466 -2.05885 0
M  V30 1819 C 180.776 -0.053869 -1.73917 0
M  V30 1820 O 181.952 -0.261012 -1.99702 0
M  V30 1821 C 179.017 -0.776768 -3.37886 0
M  V30 1822 C 178.078 -1.92878 -3.83532 0
M  V30 1823 C 177.311 -1.59739 -5.09234 0
M  V30 1824 O 177.534 -0.506782 -5.68144 0
M  V30 1825 O 176.468 -2.43761 -5.50331 0
M  V30 1826 H 180.294 -2.07671 -2.21599 0
M  V30 1827 H 177.879 -1.06857 -1.04413 0
M  V30 1828 H 179.761 -0.596229 -4.17161 0
M  V30 1829 H 178.436 0.145732 -3.23372 0
M  V30 1830 H 177.343 -2.1644 -3.0513 0
M  V30 1831 H 178.676 -2.8316 -4.02593 0
M  V30 1832 N 180.328 1.1314 -1.09713 0
M  V30 1833 C 181.739 1.66029 -0.853885 0
M  V30 1834 C 182.09 1.86241 0.617142 0
M  V30 1835 O 181.215 1.5834 1.47503 0
M  V30 1836 C 181.81 3.01599 -1.5435 0
M  V30 1837 C 180.369 3.51467 -1.34714 0
M  V30 1838 C 179.516 2.26648 -1.59769 0
M  V30 1839 H 182.467 0.970226 -1.25588 0
M  V30 1840 H 182.488 3.67709 -0.978267 0
M  V30 1841 H 182 2.86856 -2.6141 0
M  V30 1842 H 180.101 3.71408 -0.297838 0
M  V30 1843 H 180.214 4.314 -2.08401 0
M  V30 1844 H 178.578 2.33385 -1.01998 0
M  V30 1845 H 179.361 2.14467 -2.68065 0
M  V30 1846 N 181.806 0.884767 1.30421 0
M  V30 1847 C 183.054 0.502112 1.95763 0
M  V30 1848 C 183.375 -0.951815 1.70192 0
M  V30 1849 O 182.645 -1.6692 1.0254 0
M  V30 1850 H 181.225 0.182694 0.724315 0
M  V30 1851 H 183.887 1.1278 1.58955 0
M  V30 1852 H 182.983 0.672188 3.04775 0
M  V30 1853 N 183.284 -1.43765 0.645699 0
M  V30 1854 C 184.247 -2.29163 -0.0409488 0
M  V30 1855 C 185.247 -1.41813 -0.757996 0
M  V30 1856 O 186.437 -1.63527 -0.600382 0
M  V30 1857 C 183.569 -3.23716 -1.06869 0
M  V30 1858 H 184.762 -2.91366 0.710345 0
M  V30 1859 H 182.315 -1.5092 0.406547 0
M  V30 1860 H 183.05 -2.66393 -1.84947 0
M  V30 1861 H 182.835 -3.88105 -0.558277 0
M  V30 1862 H 184.325 -3.87831 -1.54845 0
M  V30 1863 N 184.763 -0.387143 -1.52771 0
M  V30 1864 C 185.693 0.440551 -2.29306 0
M  V30 1865 C 186.674 1.06535 -1.32606 0
M  V30 1866 O 187.859 1.07853 -1.61497 0
M  V30 1867 C 184.989 1.56919 -3.09829 0
M  V30 1868 C 183.943 1.07054 -4.14395 0
M  V30 1869 C 183.269 2.29109 -4.83129 0
M  V30 1870 C 184.569 0.140015 -5.22112 0
M  V30 1871 H 186.263 -0.198026 -2.98744 0
M  V30 1872 H 183.809 -0.09668 -1.43675 0
M  V30 1873 H 185.762 2.15503 -3.62128 0
M  V30 1874 H 184.486 2.23532 -2.3812 0
M  V30 1875 H 183.145 0.507247 -3.63074 0
M  V30 1876 H 182.793 2.94227 -4.0797 0
M  V30 1877 H 182.493 1.96406 -5.53804 0
M  V30 1878 H 184.017 2.88339 -5.38231 0
M  V30 1879 H 185.431 0.633978 -5.69784 0
M  V30 1880 H 183.828 -0.0971485 -6.00021 0
M  V30 1881 H 184.898 -0.811711 -4.78058 0
M  V30 1882 N 186.241 1.57166 -0.116904 0
M  V30 1883 C 187.151 2.18745 0.847812 0
M  V30 1884 C 188.167 1.163 1.29423 0
M  V30 1885 O 189.343 1.48761 1.35765 0
M  V30 1886 C 186.408 2.77307 2.0809 0
M  V30 1887 C 185.469 3.94781 1.68661 0
M  V30 1888 C 184.702 4.50541 2.86091 0
M  V30 1889 O 184.925 4.05202 4.01456 0
M  V30 1890 O 183.859 5.41256 2.63298 0
M  V30 1891 H 187.685 3.01632 0.353778 0
M  V30 1892 H 185.27 1.49005 0.108599 0
M  V30 1893 H 187.152 3.14647 2.80313 0
M  V30 1894 H 185.827 1.97452 2.56504 0
M  V30 1895 H 184.734 3.62214 0.935518 0
M  V30 1896 H 186.067 4.76065 1.24991 0
M  V30 1897 N 187.719 -0.156864 1.56817 0
M  V30 1898 C 188.682 -1.17781 1.96622 0
M  V30 1899 C 189.682 -1.36401 0.851555 0
M  V30 1900 O 190.872 -1.33561 1.11836 0
M  V30 1901 C 188.004 -2.54008 2.27361 0
M  V30 1902 H 189.197 -0.836564 2.87996 0
M  V30 1903 H 186.75 -0.39985 1.51099 0
M  V30 1904 H 187.485 -2.9312 1.38748 0
M  V30 1905 H 187.27 -2.41856 3.08623 0
M  V30 1906 H 188.76 -3.27558 2.59029 0
M  V30 1907 N 189.197 -1.51736 -0.425897 0
M  V30 1908 C 190.16 -1.73271 -1.50032 0
M  V30 1909 C 191.16 -0.602639 -1.4908 0
M  V30 1910 O 192.35 -0.87033 -1.509 0
M  V30 1911 C 189.482 -1.79969 -2.89523 0
M  V30 1912 H 190.675 -2.69172 -1.32237 0
M  V30 1913 H 188.228 -1.41899 -0.65532 0
M  V30 1914 H 188.963 -0.859241 -3.1271 0
M  V30 1915 H 188.748 -2.62109 -2.91619 0
M  V30 1916 H 190.238 -1.9843 -3.67444 0
M  V30 1917 N 190.675 0.682077 -1.42076 0
M  V30 1918 C 191.638 1.77756 -1.44691 0
M  V30 1919 C 192.638 1.5726 -0.335535 0
M  V30 1920 O 193.828 1.63686 -0.596037 0
M  V30 1921 C 190.96 3.16301 -1.27146 0
M  V30 1922 H 192.153 1.76826 -2.42224 0
M  V30 1923 H 189.706 0.891012 -1.28416 0
M  V30 1924 H 190.441 3.22862 -0.305075 0
M  V30 1925 H 190.226 3.32581 -2.07683 0
M  V30 1926 H 191.716 3.96241 -1.31843 0
M  V30 1927 N 192.153 1.28127 0.917671 0
M  V30 1928 C 193.063 1.13556 2.05286 0
M  V30 1929 C 194.079 0.0630914 1.73886 0
M  V30 1930 O 195.255 0.271598 1.9956 0
M  V30 1931 C 192.32 0.794676 3.3747 0
M  V30 1932 C 191.381 1.94909 3.82504 0
M  V30 1933 C 190.614 1.62437 5.0838 0
M  V30 1934 O 190.837 0.536905 5.67867 0
M  V30 1935 O 189.771 2.46677 5.4903 0
M  V30 1936 H 193.597 2.08844 2.20495 0
M  V30 1937 H 191.182 1.07409 1.03845 0
M  V30 1938 H 193.064 0.618344 4.16839 0
M  V30 1939 H 191.739 -0.128581 3.23445 0
M  V30 1940 H 190.646 2.18055 3.03978 0
M  V30 1941 H 191.979 2.85291 4.01086 0
M  V30 1942 N 193.631 -1.12557 1.10312 0
M  V30 1943 C 194.859 -1.87864 0.866873 0
M  V30 1944 C 195.274 -1.79588 -0.582557 0
M  V30 1945 O 194.631 -1.16887 -1.40156 0
M  V30 1946 C 194.682 -3.37125 1.30496 0
M  V30 1947 O 194.403 -3.45201 2.69755 0
M  V30 1948 C 195.904 -4.29373 1.10243 0
M  V30 1949 H 193.124 -0.594452 0.311236 0
M  V30 1950 H 195.668 -1.42429 1.46745 0
M  V30 1951 H 193.823 -3.80109 0.748081 0
M  V30 1952 H 194.237 -4.38056 2.88457 0
M  V30 1953 H 195.711 -5.32394 1.45811 0
M  V30 1954 H 196.188 -4.39181 0.0409492 0
M  V30 1955 H 196.794 -3.92169 1.64571 0
M  V30 1956 N 195.109 -0.891671 -1.2995 0
M  V30 1957 C 196.357 -0.512486 -1.95494 0
M  V30 1958 C 196.678 0.942776 -1.70695 0
M  V30 1959 O 195.948 1.66374 -1.03424 0
M  V30 1960 H 194.528 -0.186533 -0.723336 0
M  V30 1961 H 197.19 -1.13621 -1.58355 0
M  V30 1962 H 196.286 -0.688342 -3.04415 0
M  V30 1963 N 196.587 1.43421 -0.653314 0
M  V30 1964 C 197.517 2.33487 0.0246656 0
M  V30 1965 C 198.498 1.49475 0.811863 0
M  V30 1966 O 199.683 1.78139 0.773322 0
M  V30 1967 C 196.813 3.32841 0.99166 0
M  V30 1968 C 195.767 4.26842 0.314568 0
M  V30 1969 C 195.093 5.16236 1.39302 0
M  V30 1970 C 196.393 5.16243 -0.793095 0
M  V30 1971 H 198.087 2.90427 -0.727481 0
M  V30 1972 H 195.633 1.39649 -0.351287 0
M  V30 1973 H 197.586 3.94747 1.47487 0
M  V30 1974 H 196.31 2.74158 1.77497 0
M  V30 1975 H 194.969 3.663 -0.148199 0
M  V30 1976 H 194.617 4.53891 2.16776 0
M  V30 1977 H 194.317 5.79948 0.945223 0
M  V30 1978 H 195.841 5.81015 1.87759 0
M  V30 1979 H 197.255 5.71958 -0.392039 0
M  V30 1980 H 195.652 5.88676 -1.16536 0
M  V30 1981 H 196.722 4.55927 -1.65103 0
M  V30 1982 N 198.065 0.39524 1.52563 0
M  V30 1983 C 199.476 -0.0774719 1.86539 0
M  V30 1984 C 199.827 -1.45641 1.31466 0
M  V30 1985 O 198.952 -2.06459 0.648367 0
M  V30 1986 C 199.547 -0.147356 3.38479 0
M  V30 1987 C 198.106 -0.564373 3.72145 0
M  V30 1988 C 197.253 0.269919 2.75983 0
M  V30 1989 H 200.204 0.612876 1.46388 0
M  V30 1990 H 200.225 -0.965343 3.68051 0
M  V30 1991 H 199.737 0.856387 3.78534 0
M  V30 1992 H 197.838 -1.57527 3.37663 0
M  V30 1993 H 197.951 -0.318402 4.78041 0
M  V30 1994 H 196.315 -0.265696 2.5331 0
M  V30 1995 H 197.098 1.27175 3.18875 0
M  V30 1996 N 199.544 -1.57102 0.125237 0
M  V30 1997 C 200.79 -1.95697 -0.532035 0
M  V30 1998 C 201.123 -1.009 -1.6593 0
M  V30 1999 O 200.398 -0.047347 -1.94442 0
M  V30 2000 C 200.681 -3.44181 -1.05884 0
M  V30 2001 C 200.534 -4.49752 0.0654392 0
M  V30 2002 C 201.853 -3.94655 -1.9477 0
M  V30 2003 H 198.972 -0.711571 -0.191925 0
M  V30 2004 H 201.614 -1.88923 0.20206 0
M  V30 2005 H 199.764 -3.50085 -1.68442 0
M  V30 2006 H 201.436 -4.55943 0.700982 0
M  V30 2007 H 199.679 -4.27653 0.727709 0
M  V30 2008 H 200.35 -5.50924 -0.344505 0
M  V30 2009 H 202.826 -3.91094 -1.42074 0
M  V30 2010 H 201.702 -4.99057 -2.28546 0
M  V30 2011 H 201.963 -3.35718 -2.87656 0
M  V30 2012 N 201.022 0.148545 -1.56898 0
M  V30 2013 C 202.262 0.86765 -1.85071 0
M  V30 2014 C 202.626 1.78417 -0.709317 0
M  V30 2015 O 203.827 2.54261 -0.872049 0
M  V30 2016 C 202.098 1.62306 -3.1842 0
M  V30 2017 S 203.657 2.3878 -3.68143 0
M  V30 2018 H 200.475 0.290174 -0.649092 0
M  V30 2019 H 203.077 0.127755 -1.95082 0
M  V30 2020 H 201.781 0.941192 -3.99462 0
M  V30 2021 H 201.312 2.4039 -3.1141 0
M  V30 2022 H 203.327 3.63942 -3.37285 0
M  V30 2023 N 202.5 1.5196 0.417844 0
M  V30 2024 C 203.43 1.77634 1.51554 0
M  V30 2025 C 204.411 0.626918 1.58126 0
M  V30 2026 O 205.596 0.871632 1.7354 0
M  V30 2027 C 202.726 1.91911 2.8946 0
M  V30 2028 C 201.68 3.07463 2.97743 0
M  V30 2029 C 201.006 3.06951 4.37819 0
M  V30 2030 C 202.306 4.47082 2.70027 0
M  V30 2031 H 204 2.6955 1.3032 0
M  V30 2032 H 201.546 1.29706 0.625492 0
M  V30 2033 H 203.499 2.08455 3.6623 0
M  V30 2034 H 202.223 0.966598 3.11969 0
M  V30 2035 H 200.882 2.90656 2.23416 0
M  V30 2036 H 200.53 2.09438 4.57323 0
M  V30 2037 H 200.23 3.84556 4.44286 0
M  V30 2038 H 201.754 3.25613 5.16535 0
M  V30 2039 H 203.168 4.6414 3.36522 0
M  V30 2040 H 201.565 5.2654 2.87881 0
M  V30 2041 H 202.635 4.55777 1.65514 0
M  V30 2042 N 203.978 -0.674533 1.42435 0
M  V30 2043 C 204.911 -1.79924 1.40366 0
M  V30 2044 C 205.889 -1.60378 0.267899 0
M  V30 2045 O 207.073 -1.82847 0.458159 0
M  V30 2046 C 204.2 -3.16927 1.19478 0
M  V30 2047 C 203.246 -3.55221 2.36051 0
M  V30 2048 S 204.079 -3.5762 3.98583 0
M  V30 2049 C 205.235 -4.97315 3.80038 0
M  V30 2050 H 205.468 -1.81405 2.35541 0
M  V30 2051 H 203.001 -0.845221 1.29211 0
M  V30 2052 H 204.959 -3.96007 1.08114 0
M  V30 2053 H 203.62 -3.13031 0.258883 0
M  V30 2054 H 202.813 -4.54804 2.17185 0
M  V30 2055 H 202.415 -2.83502 2.43932 0
M  V30 2056 H 204.707 -5.85401 3.41045 0
M  V30 2057 H 205.65 -5.21228 4.79298 0
M  V30 2058 H 206.058 -4.69845 3.12899 0
M  V30 2059 N 205.456 -1.28612 -0.910864 0
M  V30 2060 C 206.406 -1.09423 -2.00026 0
M  V30 2061 C 207.39 -0.0170079 -1.60891 0
M  V30 2062 O 208.582 -0.237472 -1.754 0
M  V30 2063 C 205.711 -0.76114 -3.34756 0
M  V30 2064 C 204.797 -1.87735 -3.80285 0
M  V30 2065 N 205.188 -3.11938 -3.98156 0
M  V30 2066 C 203.486 -1.76786 -4.09467 0
M  V30 2067 C 204.187 -3.84687 -4.36338 0
M  V30 2068 N 203.163 -3.12555 -4.44759 0
M  V30 2069 H 206.965 -2.03658 -2.11898 0
M  V30 2070 H 204.479 -1.19573 -1.09891 0
M  V30 2071 H 206.476 -0.604743 -4.12491 0
M  V30 2072 H 205.136 0.173403 -3.24237 0
M  V30 2073 H 206.147 -3.47516 -3.83996 0
M  V30 2074 H 202.824 -0.905284 -4.07567 0
M  V30 2075 H 204.214 -4.91518 -4.58104 0
M  V30 2076 N 206.934 1.1197 -1.10907 0
M  V30 2077 C 207.867 2.16998 -0.706192 0
M  V30 2078 C 208.845 1.59903 0.294897 0
M  V30 2079 O 210.029 1.87513 0.192636 0
M  V30 2080 C 207.156 3.38673 -0.0427664 0
M  V30 2081 C 206.202 4.14414 -1.00811 0
M  V30 2082 S 207.035 4.72079 -2.52789 0
M  V30 2083 C 208.191 5.97083 -1.87731 0
M  V30 2084 H 208.424 2.50837 -1.59587 0
M  V30 2085 H 205.957 1.23508 -0.926555 0
M  V30 2086 H 207.915 4.09142 0.333668 0
M  V30 2087 H 206.576 3.03105 0.823788 0
M  V30 2088 H 205.769 5.016 -0.491259 0
M  V30 2089 H 205.371 3.49678 -1.3267 0
M  V30 2090 H 207.663 6.66599 -1.21044 0
M  V30 2091 H 208.606 6.53403 -2.72892 0
M  V30 2092 H 209.014 5.4837 -1.33979 0
M  V30 2093 N 208.412 0.89855 1.29475 0
M  V30 2094 C 209.344 0.332726 2.26772 0
M  V30 2095 C 210.357 -0.520323 1.54261 0
M  V30 2096 O 211.546 -0.337668 1.75277 0
M  V30 2097 C 208.646 -0.544334 3.345 0
M  V30 2098 C 207.819 0.282728 4.36485 0
M  V30 2099 C 206.878 -0.526982 5.23555 0
M  V30 2100 O 205.904 0.0551165 5.69173 0
M  V30 2101 N 207.106 -1.83331 5.5079 0
M  V30 2102 H 209.871 1.16897 2.75962 0
M  V30 2103 H 207.432 0.762919 1.42798 0
M  V30 2104 H 209.424 -1.09239 3.89678 0
M  V30 2105 H 207.994 -1.28127 2.85136 0
M  V30 2106 H 207.214 1.01221 3.80983 0
M  V30 2107 H 208.502 0.84918 5.01664 0
M  V30 2108 H 207.9 -2.32898 5.15534 0
M  V30 2109 H 206.457 -2.32852 6.08788 0
M  V30 2110 N 209.89 -1.43072 0.660911 0
M  V30 2111 C 211.138 -2.01323 0.177094 0
M  V30 2112 C 211.459 -1.5245 -1.2159 0
M  V30 2113 O 210.729 -0.740322 -1.81373 0
M  V30 2114 H 209.309 -0.744382 0.0624804 0
M  V30 2115 H 211.971 -1.75179 0.854305 0
M  V30 2116 H 211.067 -3.11649 0.167641 0
M  V30 2117 N 211.368 -0.403325 -1.52352 0
M  V30 2118 C 212.316 0.439752 -2.28405 0
M  V30 2119 C 213.31 1.05089 -1.32863 0
M  V30 2120 O 214.516 0.989759 -1.50345 0
M  V30 2121 H 210.891 0.160587 -0.734653 0
M  V30 2122 H 212.862 -0.222983 -2.97566 0
M  V30 2123 C 211.611 1.54736 -3.11371 0
M  V30 2124 H 210.934 1.08643 -3.84755 0
M  V30 2125 H 212.374 2.1112 -3.67701 0
M  V30 2126 C 210.833 2.51141 -2.24566 0
M  V30 2127 O 211.363 3.54887 -1.88196 0
M  V30 2128 N 209.569 2.21213 -1.8845 0
M  V30 2129 H 209.116 1.36878 -2.18225 0
M  V30 2130 H 209.074 2.85963 -1.30662 0
M  V30 2131 N 212.846 1.57033 -0.133567 0
M  V30 2132 C 214.257 1.82593 0.389464 0
M  V30 2133 C 214.608 1.05156 1.6564 0
M  V30 2134 O 213.733 0.292644 2.14412 0
M  V30 2135 C 214.328 3.31204 0.713377 0
M  V30 2136 C 212.887 3.57393 1.18098 0
M  V30 2137 C 212.034 2.76598 0.197126 0
M  V30 2138 H 214.985 1.54598 -0.358481 0
M  V30 2139 H 215.006 3.46627 1.56939 0
M  V30 2140 H 214.518 3.87537 -0.2089 0
M  V30 2141 H 212.619 3.06433 2.11966 0
M  V30 2142 H 212.732 4.65915 1.11624 0
M  V30 2143 H 211.096 2.45257 0.687088 0
M  V30 2144 H 211.879 3.35697 -0.718504 0
M  V30 2145 N 214.325 -0.140222 1.56975 0
M  V30 2146 C 215.272 -1.17292 1.98774 0
M  V30 2147 C 216.242 -1.4232 0.856408 0
M  V30 2148 O 217.427 -1.54541 1.119 0
M  V30 2149 C 214.567 -2.49973 2.37923 0
M  V30 2150 C 213.68 -2.32062 3.64378 0
M  V30 2151 C 212.815 -3.57825 3.926 0
M  V30 2152 C 211.854 -3.3498 5.12303 0
M  V30 2153 N 210.991 -4.52891 5.36502 0
M  V30 2154 H 215.831 -0.809472 2.86795 0
M  V30 2155 H 213.368 -0.388237 1.41884 0
M  V30 2156 H 215.326 -3.27346 2.58652 0
M  V30 2157 H 213.956 -2.84252 1.52972 0
M  V30 2158 H 213.008 -1.45711 3.51387 0
M  V30 2159 H 214.32 -2.11145 4.51906 0
M  V30 2160 H 213.474 -4.43624 4.13863 0
M  V30 2161 H 212.213 -3.81753 3.03506 0
M  V30 2162 H 211.218 -2.4757 4.90906 0
M  V30 2163 H 212.443 -3.12444 6.02956 0
M  V30 2164 H 210.389 -4.76979 4.50363 0
M  V30 2165 H 210.306 -4.35001 6.18312 0
M  V30 2166 H 211.574 -5.39884 5.62268 0
M  V30 2167 N 215.803 -1.52179 -0.40978 0
M  V30 2168 C 217.031 -1.70054 -1.17853 0
M  V30 2169 C 217.446 -0.409735 -1.843 0
M  V30 2170 O 216.803 0.614183 -1.71855 0
M  V30 2171 C 216.854 -2.83568 -2.24213 0
M  V30 2172 O 216.575 -4.0765 -1.60478 0
M  V30 2173 C 218.076 -3.12947 -3.13973 0
M  V30 2174 H 215.296 -0.569917 -0.354169 0
M  V30 2175 H 217.84 -1.98734 -0.482198 0
M  V30 2176 H 215.995 -2.57409 -2.89516 0
M  V30 2177 H 216.409 -4.70899 -2.30986 0
M  V30 2178 H 217.883 -3.95889 -3.84677 0
M  V30 2179 H 218.36 -2.26472 -3.76307 0
M  V30 2180 H 218.966 -3.40868 -2.5434 0
M  V30 2181 N 217.281 0.66697 -1.42791 0
M  V30 2182 C 218.214 1.79177 -1.41318 0
M  V30 2183 C 219.192 1.60234 -0.276401 0
M  V30 2184 O 220.376 1.82602 -0.46785 0
M  V30 2185 C 217.503 3.16289 -1.21157 0
M  V30 2186 C 216.549 3.53964 -2.37932 0
M  V30 2187 S 217.382 3.55501 -4.00474 0
M  V30 2188 C 218.538 4.95292 -3.8267 0
M  V30 2189 H 218.771 1.80153 -2.365 0
M  V30 2190 H 216.304 0.838357 -1.29657 0
M  V30 2191 H 218.262 3.95428 -1.10212 0
M  V30 2192 H 216.923 3.1289 -0.275481 0
M  V30 2193 H 216.116 4.53646 -2.19594 0
M  V30 2194 H 215.718 2.82204 -2.45432 0
M  V30 2195 H 218.01 5.83584 -3.44145 0
M  V30 2196 H 218.953 5.18679 -4.82055 0
M  V30 2197 H 219.361 4.68179 -3.15386 0
M  V30 2198 N 218.759 1.29093 0.90403 0
M  V30 2199 C 219.691 1.09658 2.01266 0
M  V30 2200 C 220.704 0.0453729 1.62737 0
M  V30 2201 O 221.893 0.289446 1.76138 0
M  V30 2202 C 218.993 0.646278 3.32681 0
M  V30 2203 C 218.166 1.77505 3.99763 0
M  V30 2204 C 217.225 1.31649 5.09465 0
M  V30 2205 O 216.251 2.02045 5.32134 0
M  V30 2206 N 217.453 0.184997 5.80205 0
M  V30 2207 H 220.218 2.05135 2.18494 0
M  V30 2208 H 217.779 1.20975 1.07594 0
M  V30 2209 H 219.771 0.322906 4.0341 0
M  V30 2210 H 218.341 -0.215916 3.11853 0
M  V30 2211 H 217.561 2.26752 3.22455 0
M  V30 2212 H 218.849 2.53198 4.41325 0
M  V30 2213 H 218.247 -0.402021 5.6427 0
M  V30 2214 H 216.804 -0.0790358 6.51752 0
M  V30 2215 N 220.237 -1.11381 1.11499 0
M  V30 2216 C 221.147 -2.21019 0.786628 0
M  V30 2217 C 222.163 -1.72597 -0.220507 0
M  V30 2218 O 223.339 -2.01321 -0.0565251 0
M  V30 2219 C 220.404 -3.459 0.235333 0
M  V30 2220 C 219.465 -4.09107 1.30115 0
M  V30 2221 C 218.698 -5.28027 0.776068 0
M  V30 2222 O 218.921 -5.6904 -0.393661 0
M  V30 2223 O 217.855 -5.81835 1.54114 0
M  V30 2224 H 221.681 -2.51521 1.70209 0
M  V30 2225 H 219.266 -1.19928 0.890928 0
M  V30 2226 H 221.148 -4.21346 -0.067715 0
M  V30 2227 H 219.823 -3.17049 -0.652828 0
M  V30 2228 H 218.73 -3.35391 1.65722 0
M  V30 2229 H 220.063 -4.42139 2.16273 0
M  V30 2230 N 221.715 -0.905404 -1.28997 0
M  V30 2231 C 222.678 -0.392253 -2.25819 0
M  V30 2232 C 223.678 0.476753 -1.5357 0
M  V30 2233 O 224.868 0.280994 -1.71919 0
M  V30 2234 C 222 0.438588 -3.38067 0
M  V30 2235 H 223.193 -1.24743 -2.72725 0
M  V30 2236 H 220.746 -0.684051 -1.40536 0
M  V30 2237 H 221.481 1.31352 -2.96508 0
M  V30 2238 H 221.266 -0.184167 -3.91667 0
M  V30 2239 H 222.756 0.78873 -4.10084 0
M  V30 2240 N 223.193 1.4272 -0.668489 0
M  V30 2241 C 224.604 1.84793 -0.266151 0
M  V30 2242 C 224.955 1.55959 1.19043 0
M  V30 2243 O 224.08 1.01622 1.91055 0
M  V30 2244 C 224.675 3.35436 -0.476271 0
M  V30 2245 C 223.234 3.76182 -0.128113 0
M  V30 2246 C 222.381 2.66344 -0.771777 0
M  V30 2247 H 225.332 1.32656 -0.871098 0
M  V30 2248 H 225.353 3.79515 0.273561 0
M  V30 2249 H 224.865 3.5639 -1.53647 0
M  V30 2250 H 222.966 3.60836 0.928891 0
M  V30 2251 H 223.079 4.75766 -0.564231 0
M  V30 2252 H 221.443 2.53885 -0.203652 0
M  V30 2253 H 222.226 2.90123 -1.83531 0
M  V30 2254 N 224.671 0.411399 1.52136 0
M  V30 2255 C 225.618 -0.412975 2.27075 0
M  V30 2256 C 226.588 -1.03912 1.29582 0
M  V30 2257 O 227.773 -1.06296 1.58448 0
M  V30 2258 C 224.913 -1.52247 3.09701 0
M  V30 2259 C 224.026 -0.917021 4.22155 0
M  V30 2260 C 223.161 -1.9994 4.92135 0
M  V30 2261 C 222.2 -1.37101 5.96548 0
M  V30 2262 N 221.337 -2.39364 6.60038 0
M  V30 2263 H 226.177 0.232499 2.97092 0
M  V30 2264 H 223.714 0.126496 1.46555 0
M  V30 2265 H 225.672 -2.17674 3.55913 0
M  V30 2266 H 224.302 -2.13794 2.41851 0
M  V30 2267 H 223.354 -0.151742 3.80097 0
M  V30 2268 H 224.666 -0.418006 4.97045 0
M  V30 2269 H 223.82 -2.73088 5.41763 0
M  V30 2270 H 222.559 -2.53208 4.16818 0
M  V30 2271 H 221.564 -0.624873 5.46237 0
M  V30 2272 H 222.789 -0.845998 6.7381 0
M  V30 2273 H 220.735 -2.91759 5.87548 0
M  V30 2274 H 220.652 -1.9428 7.3061 0
M  V30 2275 H 221.92 -3.12074 7.14304 0
M  V30 2276 N 226.149 -1.5696 0.141893 0
M  V30 2277 C 227.379 -2.00031 -0.516828 0
M  V30 2278 C 227.787 -1.02091 -1.59293 0
M  V30 2279 O 227.13 -0.00909657 -1.83698 0
M  V30 2280 C 227.192 -3.39534 -1.1814 0
M  V30 2281 C 226.856 -4.56313 -0.250513 0
M  V30 2282 C 227.853 -5.17295 0.519839 0
M  V30 2283 C 225.538 -5.02061 -0.154907 0
M  V30 2284 C 227.532 -6.2243 1.3733 0
M  V30 2285 C 225.219 -6.07053 0.702161 0
M  V30 2286 C 226.217 -6.67106 1.46487 0
M  V30 2287 O 225.905 -7.70066 2.30767 0
M  V30 2288 H 225.637 -0.661451 -0.139493 0
M  V30 2289 H 228.191 -2.04086 0.231926 0
M  V30 2290 H 226.421 -3.32302 -1.97769 0
M  V30 2291 H 228.11 -3.66745 -1.73933 0
M  V30 2292 H 228.876 -4.82852 0.45598 0
M  V30 2293 H 224.755 -4.5505 -0.7383 0
M  V30 2294 H 228.299 -6.69233 1.96909 0
M  V30 2295 H 224.196 -6.40923 0.76733 0
M  V30 2296 H 224.964 -7.87264 2.23959 0
M  V30 2297 N 227.627 0.131896 -1.57047 0
M  V30 2298 C 228.904 0.871495 -1.75112 0
M  V30 2299 C 229.284 1.9866 -0.713949 0
M  V30 2300 O 228.632 2.26965 0.264447 0
M  V30 2301 C 228.842 1.40007 -3.19686 0
M  V30 2302 C 230.19 1.85752 -3.81813 0
M  V30 2303 O 231.214 1.49715 -3.23209 0
M  V30 2304 O 230.073 2.5226 -4.84796 0
M  V30 2305 H 227.167 0.412919 -0.716538 0
M  V30 2306 H 229.713 0.116641 -1.69299 0
M  V30 2307 H 228.485 0.599404 -3.86682 0
M  V30 2308 H 228.108 2.218 -3.29986 0
M  V30 2309 N 229.106 1.52395 0.401703 0
M  V30 2310 C 230.383 1.57387 1.16141 0
M  V30 2311 C 230.763 0.359359 2.08019 0
M  V30 2312 O 230.111 -0.65326 2.18963 0
M  V30 2313 C 230.321 2.90631 1.93221 0
M  V30 2314 C 231.669 3.43904 2.49028 0
M  V30 2315 O 232.693 2.92421 2.03393 0
M  V30 2316 O 231.552 4.33823 3.32356 0
M  V30 2317 H 228.646 0.634262 0.530698 0
M  V30 2318 H 231.192 1.64725 0.407883 0
M  V30 2319 H 229.964 3.70473 1.25958 0
M  V30 2320 H 229.587 2.8662 2.75563 0
M  V30 2321 N 230.584 -0.659388 1.43143 0
M  V30 2322 C 231.83 -1.42145 1.44647 0
M  V30 2323 C 232.163 -1.9408 0.0681907 0
M  V30 2324 O 231.438 -1.71899 -0.910007 0
M  V30 2325 C 231.721 -2.60735 2.48373 0
M  V30 2326 C 231.574 -2.14332 3.95451 0
M  V30 2327 C 232.893 -3.62951 2.48906 0
M  V30 2328 H 230.012 -0.51552 0.526696 0
M  V30 2329 H 232.654 -0.748069 1.74654 0
M  V30 2330 H 230.804 -3.18184 2.22916 0
M  V30 2331 H 232.476 -1.61932 4.31944 0
M  V30 2332 H 230.719 -1.4576 4.08578 0
M  V30 2333 H 231.39 -2.99583 4.63631 0
M  V30 2334 H 233.866 -3.1525 2.71582 0
M  V30 2335 H 232.742 -4.43487 3.23435 0
M  V30 2336 H 233.003 -4.15126 1.52061 0
M  V30 2337 N 232.062 -1.29571 -0.897171 0
M  V30 2338 C 233.309 -1.17689 -1.6479 0
M  V30 2339 C 233.637 0.27107 -1.92602 0
M  V30 2340 O 232.892 1.21193 -1.53658 0
M  V30 2341 C 233.191 -1.9382 -3.00281 0
M  V30 2342 C 232.857 -3.43522 -2.92068 0
M  V30 2343 C 231.519 -3.84348 -2.89535 0
M  V30 2344 C 233.871 -4.38906 -2.81089 0
M  V30 2345 C 231.199 -5.18869 -2.73846 0
M  V30 2346 C 233.551 -5.73521 -2.66939 0
M  V30 2347 C 232.215 -6.13601 -2.62774 0
M  V30 2348 H 231.485 -0.430654 -0.603008 0
M  V30 2349 H 234.132 -1.60536 -1.04404 0
M  V30 2350 H 232.437 -1.4357 -3.64547 0
M  V30 2351 H 234.134 -1.82028 -3.57305 0
M  V30 2352 H 230.724 -3.11072 -2.94842 0
M  V30 2353 H 234.908 -4.08315 -2.82121 0
M  V30 2354 H 230.164 -5.4903 -2.69027 0
M  V30 2355 H 234.338 -6.47078 -2.57416 0
M  V30 2356 H 231.965 -7.17786 -2.50375 0
M  V30 2357 N 233.54 1.10788 -1.12088 0
M  V30 2358 C 234.503 2.15207 -0.788577 0
M  V30 2359 C 235.503 1.59609 0.195317 0
M  V30 2360 O 236.693 1.74174 -0.0300193 0
M  V30 2361 C 233.825 3.4047 -0.171174 0
M  V30 2362 H 235.018 2.46116 -1.71368 0
M  V30 2363 H 232.571 1.26089 -0.923652 0
M  V30 2364 H 233.306 3.15176 0.763832 0
M  V30 2365 H 233.091 3.82109 -0.879514 0
M  V30 2366 H 234.581 4.17576 0.04496 0
M  V30 2367 N 235.018 0.912232 1.28515 0
M  V30 2368 C 235.928 0.404506 2.31086 0
M  V30 2369 C 236.944 -0.50707 1.66448 0
M  V30 2370 O 238.12 -0.393624 1.97516 0
M  V30 2371 C 235.185 -0.348572 3.44943 0
M  V30 2372 C 234.246 0.59604 4.25142 0
M  V30 2373 C 233.479 -0.121194 5.33562 0
M  V30 2374 O 233.702 -1.34317 5.5436 0
M  V30 2375 O 232.636 0.542716 5.99448 0
M  V30 2376 H 236.462 1.25579 2.76521 0
M  V30 2377 H 234.047 0.676998 1.33181 0
M  V30 2378 H 235.929 -0.77395 4.14232 0
M  V30 2379 H 234.604 -1.17571 3.01594 0
M  V30 2380 H 233.511 1.07079 3.58448 0
M  V30 2381 H 234.844 1.38995 4.72167 0
M  V30 2382 N 236.496 -1.42363 0.676048 0
M  V30 2383 C 237.742 -2.0182 0.199125 0
M  V30 2384 C 238.075 -1.53339 -1.19168 0
M  V30 2385 O 237.35 -0.736124 -1.80032 0
M  V30 2386 C 237.633 -3.59331 0.235144 0
M  V30 2387 C 237.486 -4.17989 1.66149 0
M  V30 2388 C 238.805 -4.3813 -0.41595 0
M  V30 2389 H 235.924 -0.733293 0.0738311 0
M  V30 2390 H 238.566 -1.69368 0.86107 0
M  V30 2391 H 236.716 -3.87109 -0.328487 0
M  V30 2392 H 238.388 -4.0116 2.27747 0
M  V30 2393 H 236.631 -3.7377 2.20178 0
M  V30 2394 H 237.302 -5.27126 1.63837 0
M  V30 2395 H 239.778 -4.16051 0.0638529 0
M  V30 2396 H 238.654 -5.47717 -0.360115 0
M  V30 2397 H 238.915 -4.16101 -1.49373 0
M  V30 2398 N 237.974 -0.419461 -1.51915 0
M  V30 2399 C 238.922 0.415502 -2.28859 0
M  V30 2400 C 239.916 1.03674 -1.3397 0
M  V30 2401 O 241.122 0.973757 -1.51387 0
M  V30 2402 H 237.497 0.152786 -0.736315 0
M  V30 2403 H 239.468 -0.254531 -2.97312 0
M  V30 2404 C 238.217 1.51425 -3.12995 0
M  V30 2405 H 237.54 1.04556 -3.85886 0
M  V30 2406 H 238.98 2.07208 -3.6992 0
M  V30 2407 C 237.439 2.48745 -2.27217 0
M  V30 2408 O 237.969 3.52871 -1.9195 0
M  V30 2409 N 236.175 2.19202 -1.90785 0
M  V30 2410 H 235.722 1.34556 -2.19664 0
M  V30 2411 H 235.68 2.84561 -1.33687 0
M  V30 2412 N 239.452 1.56882 -0.150215 0
M  V30 2413 C 240.868 1.58263 0.20617 0
M  V30 2414 C 241.068 1.16464 1.64434 0
M  V30 2415 O 240.124 0.866422 2.3717 0
M  V30 2416 C 241.437 3.00649 -0.0555025 0
M  V30 2417 C 242.985 3.12999 0.00795388 0
M  V30 2418 C 243.46 4.5744 -0.226429 0
M  V30 2419 N 244.951 4.62875 -0.173469 0
M  V30 2420 C 245.686 5.72454 -0.329288 0
M  V30 2421 N 245.182 6.90669 -0.543005 0
M  V30 2422 N 246.975 5.61467 -0.266666 0
M  V30 2423 H 239.126 1.82345 -1.08922 0
M  V30 2424 H 241.389 0.844149 -0.431413 0
M  V30 2425 H 241.095 3.3563 -1.05096 0
M  V30 2426 H 240.969 3.71337 0.66246 0
M  V30 2427 H 243.356 2.77857 0.993966 0
M  V30 2428 H 243.437 2.4479 -0.742388 0
M  V30 2429 H 243.081 4.93287 -1.20956 0
M  V30 2430 H 243.011 5.2378 0.544274 0
M  V30 2431 H 245.502 3.77898 -0.0130709 0
M  V30 2432 H 245.815 7.70045 -0.651922 0
M  V30 2433 H 244.16 6.92581 -0.579366 0
M  V30 2434 H 247.351 4.67992 -0.100441 0
M  V30 2435 H 247.524 6.46816 -0.391535 0
M  V30 2436 N 240.93 -0.123565 1.57115 0
M  V30 2437 C 242.16 -0.845233 1.88519 0
M  V30 2438 C 242.568 -1.74168 0.739064 0
M  V30 2439 O 241.911 -1.81244 -0.299355 0
M  V30 2440 C 241.973 -1.73452 3.14888 0
M  V30 2441 C 241.637 -1.01285 4.45635 0
M  V30 2442 C 242.634 -0.355774 5.18681 0
M  V30 2443 C 240.319 -0.99538 4.92339 0
M  V30 2444 C 242.313 0.309114 6.3665 0
M  V30 2445 C 240 -0.32669 6.10226 0
M  V30 2446 C 240.998 0.324406 6.82229 0
M  V30 2447 O 240.686 0.982437 7.97874 0
M  V30 2448 H 240.418 -0.248534 0.628655 0
M  V30 2449 H 242.972 -0.113907 2.05084 0
M  V30 2450 H 241.202 -2.50737 2.94394 0
M  V30 2451 H 242.891 -2.33021 3.32349 0
M  V30 2452 H 243.657 -0.360918 4.83655 0
M  V30 2453 H 239.536 -1.49159 4.36202 0
M  V30 2454 H 243.08 0.8179 6.92789 0
M  V30 2455 H 238.977 -0.319294 6.4471 0
M  V30 2456 H 239.745 0.886454 8.13686 0
M  V30 2457 N 242.408 -1.52605 -0.393616 0
M  V30 2458 C 243.655 -1.67424 -1.1391 0
M  V30 2459 C 243.983 -0.411859 -1.90089 0
M  V30 2460 O 243.238 0.605626 -1.86093 0
M  V30 2461 C 243.537 -2.85721 -2.14705 0
M  V30 2462 C 243.203 -4.23342 -1.55218 0
M  V30 2463 C 241.865 -4.60771 -1.3872 0
M  V30 2464 C 244.217 -5.09041 -1.11924 0
M  V30 2465 C 241.545 -5.81563 -0.774689 0
M  V30 2466 C 243.897 -6.30452 -0.520853 0
M  V30 2467 C 242.561 -6.66617 -0.343134 0
M  V30 2468 H 241.831 -0.612648 -0.416826 0
M  V30 2469 H 244.478 -1.8674 -0.424315 0
M  V30 2470 H 242.783 -2.60803 -2.92385 0
M  V30 2471 H 244.48 -2.94382 -2.72288 0
M  V30 2472 H 241.07 -3.93855 -1.69045 0
M  V30 2473 H 245.254 -4.80695 -1.23473 0
M  V30 2474 H 240.51 -6.08196 -0.625154 0
M  V30 2475 H 244.684 -6.96175 -0.177065 0
M  V30 2476 H 242.311 -7.60083 0.133571 0
M  V30 2477 N 243.887 0.651787 -1.4349 0
M  V30 2478 C 245.136 1.40754 -1.44469 0
M  V30 2479 C 245.449 1.95463 -0.0731845 0
M  V30 2480 O 246.655 2.71471 0.0395721 0
M  V30 2481 C 245.111 2.54735 -2.5424 0
M  V30 2482 C 244.719 2.06628 -3.97504 0
M  V30 2483 C 246.463 3.32092 -2.64414 0
M  V30 2484 C 244.37 3.17829 -4.98737 0
M  V30 2485 H 243.3 0.528862 -0.53742 0
M  V30 2486 H 245.951 0.703365 -1.69485 0
M  V30 2487 H 244.333 3.2763 -2.22428 0
M  V30 2488 H 245.507 1.40734 -4.38783 0
M  V30 2489 H 243.822 1.42146 -3.91387 0
M  V30 2490 H 246.419 4.14952 -3.37223 0
M  V30 2491 H 246.762 3.80217 -1.69532 0
M  V30 2492 H 247.295 2.66279 -2.95534 0
M  V30 2493 H 244.034 2.74671 -5.95177 0
M  V30 2494 H 243.554 3.82429 -4.62069 0
M  V30 2495 H 245.233 3.82937 -5.21505 0
M  V30 2496 N 245.365 1.30045 0.890287 0
M  V30 2497 C 246.275 1.17885 2.02831 0
M  V30 2498 C 247.291 0.0999609 1.73713 0
M  V30 2499 O 248.467 0.313867 1.98939 0
M  V30 2500 C 245.532 0.866079 3.35708 0
M  V30 2501 C 244.593 2.02979 3.78283 0
M  V30 2502 C 243.826 1.73184 5.0482 0
M  V30 2503 O 244.049 0.657237 5.66601 0
M  V30 2504 O 242.983 2.58267 5.43674 0
M  V30 2505 H 246.809 2.13474 2.16015 0
M  V30 2506 H 244.394 1.09587 1.01543 0
M  V30 2507 H 246.276 0.706623 4.15433 0
M  V30 2508 H 244.951 -0.0599443 3.23644 0
M  V30 2509 H 243.858 2.24454 2.99285 0
M  V30 2510 H 245.191 2.93734 3.94944 0
M  V30 2511 N 246.843 -1.10192 1.12674 0
M  V30 2512 C 247.775 -2.16418 0.754701 0
M  V30 2513 C 248.788 -1.61309 -0.21986 0
M  V30 2514 O 249.977 -1.785 -0.000826841 0
M  V30 2515 C 247.077 -3.38762 0.096698 0
M  V30 2516 C 246.25 -4.23307 1.10136 0
M  V30 2517 C 245.309 -5.24092 0.470513 0
M  V30 2518 O 244.335 -5.57906 1.12824 0
M  V30 2519 N 245.537 -5.75491 -0.760948 0
M  V30 2520 H 248.302 -2.48943 1.66875 0
M  V30 2521 H 245.863 -1.25834 1.01869 0
M  V30 2522 H 247.855 -4.03291 -0.337384 0
M  V30 2523 H 246.425 -3.04192 -0.720153 0
M  V30 2524 H 245.645 -3.55036 1.71299 0
M  V30 2525 H 246.933 -4.76624 1.78064 0
M  V30 2526 H 246.331 -5.50222 -1.31424 0
M  V30 2527 H 244.888 -6.41792 -1.13781 0
M  V30 2528 N 248.321 -0.919034 -1.28029 0
M  V30 2529 C 249.57 -0.550802 -1.94034 0
M  V30 2530 C 249.883 0.910877 -1.73096 0
M  V30 2531 O 251.089 1.3875 -2.33368 0
M  V30 2532 C 249.545 -0.934249 -3.47563 0
M  V30 2533 C 249.153 -2.41602 -3.7727 0
M  V30 2534 C 250.897 -0.636854 -4.19696 0
M  V30 2535 C 248.804 -2.73932 -5.24133 0
M  V30 2536 H 247.734 -0.202273 -0.726362 0
M  V30 2537 H 250.385 -1.11867 -1.45458 0
M  V30 2538 H 248.767 -0.295115 -3.94899 0
M  V30 2539 H 249.941 -3.10233 -3.40723 0
M  V30 2540 H 248.256 -2.68441 -3.18321 0
M  V30 2541 H 250.853 -0.855005 -5.2782 0
M  V30 2542 H 251.196 0.425575 -4.14119 0
M  V30 2543 H 251.729 -1.23469 -3.78154 0
M  V30 2544 H 248.468 -3.79049 -5.34792 0
M  V30 2545 H 247.988 -2.09942 -5.61858 0
M  V30 2546 H 249.667 -2.61215 -5.91925 0
M  V30 2547 N 249.799 1.42003 -0.683588 0
M  V30 2548 C 250.762 2.29191 -0.0198243 0
M  V30 2549 C 251.762 1.43773 0.72013 0
M  V30 2550 O 252.952 1.65061 0.556815 0
M  V30 2551 C 250.084 3.26435 0.982487 0
M  V30 2552 H 251.277 2.8938 -0.787345 0
M  V30 2553 H 248.83 1.49789 -0.446418 0
M  V30 2554 H 249.565 2.71203 1.77819 0
M  V30 2555 H 249.35 3.89449 0.455182 0
M  V30 2556 H 250.84 3.918 1.44508 0
M  V30 2557 N 251.277 0.427512 1.51691 0
M  V30 2558 C 252.693 0.0792977 1.59403 0
M  V30 2559 C 252.893 -1.41035 1.43914 0
M  V30 2560 O 251.949 -2.17922 1.27539 0
M  V30 2561 C 253.262 0.590636 2.94842 0
M  V30 2562 C 254.81 0.550215 3.08126 0
M  V30 2563 C 255.285 1.03836 4.46074 0
M  V30 2564 N 256.776 0.995943 4.52366 0
M  V30 2565 C 257.511 1.34463 5.57411 0
M  V30 2566 N 257.007 1.76569 6.69922 0
M  V30 2567 N 258.8 1.26343 5.47717 0
M  V30 2568 H 250.951 1.39687 1.60004 0
M  V30 2569 H 253.214 0.575003 0.753708 0
M  V30 2570 H 252.92 1.63251 3.11516 0
M  V30 2571 H 252.794 0.0102061 3.77199 0
M  V30 2572 H 255.181 -0.482654 2.91126 0
M  V30 2573 H 255.262 1.16693 2.27632 0
M  V30 2574 H 254.906 2.06965 4.63819 0
M  V30 2575 H 254.836 0.398286 5.25092 0
M  V30 2576 H 257.327 0.68661 3.7161 0
M  V30 2577 H 257.64 2.01438 7.46085 0
M  V30 2578 H 255.985 1.80488 6.71155 0
M  V30 2579 H 259.176 0.933209 4.58703 0
M  V30 2580 H 259.349 1.53846 6.29472 0
M  V30 2581 N 252.755 -1.56801 0.158532 0
M  V30 2582 C 253.995 -1.98383 -0.49229 0
M  V30 2583 C 254.359 -1.04184 -1.61275 0
M  V30 2584 O 255.56 -1.34856 -2.32524 0
M  V30 2585 C 253.831 -3.4385 -0.974766 0
M  V30 2586 S 255.39 -4.07459 -1.62857 0
M  V30 2587 H 252.208 -0.693041 -0.158794 0
M  V30 2588 H 254.81 -1.93856 0.252974 0
M  V30 2589 H 253.514 -4.10131 -0.148688 0
M  V30 2590 H 253.045 -3.52115 -1.75438 0
M  V30 2591 H 255.06 -4.01458 -2.91627 0
M  V30 2592 N 254.233 0.115231 -1.57178 0
M  V30 2593 C 255.143 1.15994 -2.03918 0
M  V30 2594 C 256.159 1.45103 -0.960268 0
M  V30 2595 O 257.335 1.56144 -1.27204 0
M  V30 2596 C 254.4 2.46568 -2.43732 0
M  V30 2597 C 253.461 2.24822 -3.65723 0
M  V30 2598 C 252.694 3.4917 -4.03629 0
M  V30 2599 O 252.917 4.56623 -3.41835 0
M  V30 2600 O 251.851 3.39949 -4.96708 0
M  V30 2601 H 255.677 0.793019 -2.93164 0
M  V30 2602 H 253.262 0.3263 -1.45793 0
M  V30 2603 H 255.144 3.23492 -2.70057 0
M  V30 2604 H 253.819 2.82726 -1.57631 0
M  V30 2605 H 252.726 1.45744 -3.44542 0
M  V30 2606 H 254.059 1.93566 -4.52541 0
M  V30 2607 N 255.711 1.52812 0.385517 0
M  V30 2608 C 256.643 1.74096 1.49074 0
M  V30 2609 C 257.656 0.621462 1.50472 0
M  V30 2610 O 258.845 0.897245 1.54311 0
M  V30 2611 C 255.945 1.78774 2.87911 0
M  V30 2612 C 255.118 3.08134 3.10439 0
M  V30 2613 C 254.177 3.04313 4.29278 0
M  V30 2614 O 253.203 3.78168 4.25415 0
M  V30 2615 N 254.405 2.23741 5.35649 0
M  V30 2616 H 257.17 2.69455 1.31202 0
M  V30 2617 H 254.731 1.51343 0.575065 0
M  V30 2618 H 256.723 1.73721 3.65518 0
M  V30 2619 H 255.293 0.907869 2.99126 0
M  V30 2620 H 254.513 3.26649 2.20667 0
M  V30 2621 H 255.801 3.93662 3.22347 0
M  V30 2622 H 255.199 1.63211 5.41645 0
M  V30 2623 H 253.756 2.24524 6.11909 0
M  V30 2624 N 257.189 -0.644168 1.43834 0
M  V30 2625 C 258.152 -1.73857 1.49353 0
M  V30 2626 C 259.152 -1.56315 0.377112 0
M  V30 2627 O 260.342 -1.62048 0.639226 0
M  V30 2628 C 257.474 -3.12819 1.35488 0
M  V30 2629 H 258.667 -1.70342 2.46827 0
M  V30 2630 H 256.22 -0.856652 1.30733 0
M  V30 2631 H 256.955 -3.2194 0.390569 0
M  V30 2632 H 256.74 -3.26958 2.16428 0
M  V30 2633 H 258.23 -3.92606 1.42302 0
M  V30 2634 N 258.668 -1.30515 -0.883378 0
M  V30 2635 C 259.916 -1.19194 -1.63209 0
M  V30 2636 C 260.237 0.253205 -1.93349 0
M  V30 2637 O 259.507 1.17025 -1.57105 0
M  V30 2638 H 258.087 -0.438148 -0.605009 0
M  V30 2639 H 260.749 -1.63663 -1.05832 0
M  V30 2640 H 259.845 -1.75396 -2.58153 0
M  V30 2641 N 260.146 1.09593 -1.13257 0
M  V30 2642 C 261.395 1.81105 -0.887917 0
M  V30 2643 C 261.708 1.86563 0.587672 0
M  V30 2644 O 262.914 2.54367 0.949204 0
M  V30 2645 C 261.37 3.25338 -1.53895 0
M  V30 2646 C 260.978 3.28151 -3.04994 0
M  V30 2647 C 262.722 4.01617 -1.37492 0
M  V30 2648 C 260.629 4.66897 -3.6299 0
M  V30 2649 H 259.559 0.678661 -0.328534 0
M  V30 2650 H 262.21 1.23183 -1.36008 0
M  V30 2651 H 260.592 3.8331 -0.994446 0
M  V30 2652 H 261.766 2.79953 -3.66009 0
M  V30 2653 H 260.081 2.65361 -3.20893 0
M  V30 2654 H 262.678 5.04119 -1.78235 0
M  V30 2655 H 263.021 4.15072 -0.31957 0
M  V30 2656 H 263.554 3.50082 -1.88912 0
M  V30 2657 H 260.293 4.58643 -4.68323 0
M  V30 2658 H 259.813 5.15426 -3.06752 0
M  V30 2659 H 261.492 5.3587 -3.62563 0
M  V30 2660 N 261.624 0.925811 1.2754 0
M  V30 2661 C 262.587 0.428129 2.25166 0
M  V30 2662 C 263.587 -0.452261 1.54309 0
M  V30 2663 O 264.777 -0.253608 1.72344 0
M  V30 2664 C 261.909 -0.384749 3.38722 0
M  V30 2665 H 263.102 1.29066 2.70706 0
M  V30 2666 H 260.655 0.706323 1.3943 0
M  V30 2667 H 261.39 -1.26618 2.98561 0
M  V30 2668 H 261.175 0.246454 3.91325 0
M  V30 2669 H 262.665 -0.723389 4.11287 0
M  V30 2670 N 263.102 -1.41638 0.69111 0
M  V30 2671 C 264.049 -2.30789 0.0229705 0
M  V30 2672 C 265.019 -1.46863 -0.775911 0
M  V30 2673 O 266.204 -1.75661 -0.74485 0
M  V30 2674 C 263.344 -3.32868 -0.910666 0
M  V30 2675 C 262.457 -4.31875 -0.103874 0
M  V30 2676 C 261.592 -5.21024 -1.03475 0
M  V30 2677 C 260.631 -6.11702 -0.220598 0
M  V30 2678 N 259.768 -6.93349 -1.10504 0
M  V30 2679 H 264.608 -2.87366 0.788978 0
M  V30 2680 H 262.145 -1.41535 0.400794 0
M  V30 2681 H 264.103 -3.90596 -1.46597 0
M  V30 2682 H 262.733 -2.77851 -1.64312 0
M  V30 2683 H 261.785 -3.76131 0.568285 0
M  V30 2684 H 263.097 -4.96003 0.527504 0
M  V30 2685 H 262.251 -5.83565 -1.65943 0
M  V30 2686 H 260.99 -4.57112 -1.69999 0
M  V30 2687 H 259.995 -5.48215 0.417187 0
M  V30 2688 H 261.22 -6.77668 0.440784 0
M  V30 2689 H 259.166 -6.3205 -1.75638 0
M  V30 2690 H 259.083 -7.54146 -0.529125 0
M  V30 2691 H 260.351 -7.60362 -1.71667 0
M  V30 2692 N 264.58 -0.43555 -1.51462 0
M  V30 2693 C 265.49 0.383001 -2.31453 0
M  V30 2694 C 266.506 1.02931 -1.4029 0
M  V30 2695 O 267.682 1.02507 -1.73362 0
M  V30 2696 C 264.747 1.47043 -3.13973 0
M  V30 2697 C 263.808 0.844433 -4.20913 0
M  V30 2698 C 263.041 1.88004 -4.9949 0
M  V30 2699 O 263.264 3.10199 -4.78678 0
M  V30 2700 O 262.198 1.47157 -5.83634 0
M  V30 2701 H 266.024 -0.269964 -3.02498 0
M  V30 2702 H 263.609 -0.19813 -1.4808 0
M  V30 2703 H 265.491 2.10113 -3.65281 0
M  V30 2704 H 264.166 2.10751 -2.45695 0
M  V30 2705 H 263.073 0.175729 -3.73687 0
M  V30 2706 H 264.406 0.250869 -4.9156 0
M  V30 2707 N 266.058 1.56714 -0.166846 0
M  V30 2708 C 267.005 2.17746 0.765193 0
M  V30 2709 C 267.975 1.11614 1.23011 0
M  V30 2710 O 269.16 1.39745 1.29908 0
M  V30 2711 C 266.3 2.81882 1.9909 0
M  V30 2712 C 265.413 4.02462 1.56997 0
M  V30 2713 C 264.548 4.54537 2.749 0
M  V30 2714 C 263.587 5.67538 2.29275 0
M  V30 2715 N 262.724 6.14142 3.40255 0
M  V30 2716 H 267.564 2.97048 0.237952 0
M  V30 2717 H 265.101 1.4672 0.105725 0
M  V30 2718 H 267.059 3.17221 2.70974 0
M  V30 2719 H 265.689 2.05191 2.49192 0
M  V30 2720 H 264.741 3.72973 0.748037 0
M  V30 2721 H 266.053 4.84273 1.19503 0
M  V30 2722 H 265.207 4.92035 3.54946 0
M  V30 2723 H 263.946 3.71774 3.1565 0
M  V30 2724 H 262.951 5.29597 1.47674 0
M  V30 2725 H 264.176 6.52099 1.89588 0
M  V30 2726 H 262.122 5.3431 3.8059 0
M  V30 2727 H 262.039 6.9093 3.06841 0
M  V30 2728 H 263.307 6.56289 4.206 0
M  V30 2729 N 267.536 -0.106894 1.57237 0
M  V30 2730 C 268.466 -1.13148 2.04254 0
M  V30 2731 C 269.447 -1.42476 0.929224 0
M  V30 2732 O 270.632 -1.52709 1.19973 0
M  V30 2733 C 267.762 -2.4545 2.45706 0
M  V30 2734 C 266.716 -2.30558 3.60592 0
M  V30 2735 C 266.042 -3.67931 3.87983 0
M  V30 2736 C 267.342 -1.75597 4.91897 0
M  V30 2737 H 269.036 -0.740374 2.90101 0
M  V30 2738 H 266.582 -0.354696 1.39563 0
M  V30 2739 H 268.535 -3.17389 2.77205 0
M  V30 2740 H 267.259 -2.86475 1.56843 0
M  V30 2741 H 265.918 -1.61067 3.29322 0
M  V30 2742 H 265.566 -4.06462 2.96306 0
M  V30 2743 H 265.266 -3.58817 4.65322 0
M  V30 2744 H 266.79 -4.41356 4.21945 0
M  V30 2745 H 268.204 -2.37364 5.21854 0
M  V30 2746 H 266.601 -1.77272 5.73319 0
M  V30 2747 H 267.671 -0.714451 4.79608 0
M  V30 2748 N 269.014 -1.53014 -0.377408 0
M  V30 2749 C 269.944 -1.81589 -1.46791 0
M  V30 2750 C 270.925 -0.668622 -1.56408 0
M  V30 2751 O 272.11 -0.917337 -1.71168 0
M  V30 2752 C 269.24 -1.99519 -2.8427 0
M  V30 2753 C 268.194 -3.15249 -2.89486 0
M  V30 2754 C 267.52 -3.18451 -4.29527 0
M  V30 2755 C 268.82 -4.54084 -2.58079 0
M  V30 2756 H 270.514 -2.7291 -1.23127 0
M  V30 2757 H 268.06 -1.31319 -0.590883 0
M  V30 2758 H 270.013 -2.18092 -3.60575 0
M  V30 2759 H 268.737 -1.04897 -3.09296 0
M  V30 2760 H 267.396 -2.96477 -2.15631 0
M  V30 2761 H 267.044 -2.2149 -4.5161 0
M  V30 2762 H 266.744 -3.962 -4.33934 0
M  V30 2763 H 268.268 -3.39193 -5.07721 0
M  V30 2764 H 269.682 -4.72899 -3.24098 0
M  V30 2765 H 268.079 -5.33987 -2.7382 0
M  V30 2766 H 269.149 -4.60006 -1.53372 0
M  V30 2767 N 270.492 0.636531 -1.44174 0
M  V30 2768 C 271.422 1.76003 -1.53444 0
M  V30 2769 C 272.403 1.65619 -0.387841 0
M  V30 2770 O 273.588 1.84461 -0.607257 0
M  V30 2771 C 270.718 3.14511 -1.4731 0
M  V30 2772 C 269.672 3.39677 -2.60391 0
M  V30 2773 C 268.998 4.78159 -2.39308 0
M  V30 2774 C 270.298 3.32772 -4.02567 0
M  V30 2775 H 271.992 1.68501 -2.47483 0
M  V30 2776 H 269.538 0.809237 -1.19111 0
M  V30 2777 H 271.491 3.92878 -1.52397 0
M  V30 2778 H 270.215 3.22783 -0.49785 0
M  V30 2779 H 268.874 2.63688 -2.54684 0
M  V30 2780 H 268.522 4.83128 -1.39988 0
M  V30 2781 H 268.222 4.95956 -3.15122 0
M  V30 2782 H 269.746 5.58762 -2.46205 0
M  V30 2783 H 271.16 4.01051 -4.09672 0
M  V30 2784 H 269.557 3.62104 -4.7854 0
M  V30 2785 H 270.627 2.30669 -4.2652 0
M  V30 2786 N 271.97 1.30982 0.876444 0
M  V30 2787 C 273.247 1.10942 1.61094 0
M  V30 2788 C 273.627 -0.338223 2.08373 0
M  V30 2789 O 272.975 -1.33122 1.85717 0
M  V30 2790 C 273.185 2.11789 2.77392 0
M  V30 2791 C 274.533 2.43965 3.47514 0
M  V30 2792 O 275.557 2.10166 2.87591 0
M  V30 2793 O 274.416 3.01817 4.55597 0
M  V30 2794 H 271.51 0.42667 0.708436 0
M  V30 2795 H 274.056 1.42438 0.922474 0
M  V30 2796 H 272.828 3.09194 2.39823 0
M  V30 2797 H 272.451 1.81161 3.5393 0
M  V30 2798 N 273.449 -1.08991 1.13837 0
M  V30 2799 C 274.86 -1.62746 0.914917 0
M  V30 2800 C 275.211 -1.88403 -0.547594 0
M  V30 2801 O 274.336 -1.63706 -1.41525 0
M  V30 2802 C 274.931 -2.95662 1.65437 0
M  V30 2803 C 273.49 -3.46225 1.47666 0
M  V30 2804 C 272.637 -2.20562 1.6807 0
M  V30 2805 H 275.588 -0.922946 1.29102 0
M  V30 2806 H 275.609 -3.63825 1.11407 0
M  V30 2807 H 275.121 -2.76956 2.71877 0
M  V30 2808 H 273.222 -3.70046 0.435478 0
M  V30 2809 H 273.335 -4.23368 2.24268 0
M  V30 2810 H 271.699 -2.29439 1.10589 0
M  V30 2811 H 272.482 -2.0437 2.7584 0
M  V30 2812 N 274.927 -0.932562 -1.27047 0
M  V30 2813 C 276.175 -0.574422 -1.93765 0
M  V30 2814 C 276.496 0.887993 -1.73608 0
M  V30 2815 O 275.766 1.62999 -1.08665 0
M  V30 2816 H 274.346 -0.209451 -0.717035 0
M  V30 2817 H 277.008 -1.18601 -1.5466 0
M  V30 2818 H 276.104 -0.784841 -3.02071 0
M  V30 2819 N 276.405 1.4127 -0.698611 0
M  V30 2820 C 277.652 2.0118 -0.230865 0
M  V30 2821 C 277.98 1.55338 1.17049 0
M  V30 2822 O 277.235 0.756775 1.80475 0
M  V30 2823 C 277.534 3.56592 -0.240192 0
M  V30 2824 C 277.2 4.21955 -1.58948 0
M  V30 2825 C 275.862 4.39524 -1.95887 0
M  V30 2826 C 278.214 4.58576 -2.47704 0
M  V30 2827 C 275.542 4.90992 -3.2116 0
M  V30 2828 C 277.894 5.11435 -3.72313 0
M  V30 2829 C 276.558 5.27215 -4.0939 0
M  V30 2830 H 275.828 0.736169 -0.0844796 0
M  V30 2831 H 278.475 1.69124 -0.8983 0
M  V30 2832 H 276.78 3.88456 0.510797 0
M  V30 2833 H 278.477 4.00758 0.139296 0
M  V30 2834 H 275.067 4.08657 -1.29219 0
M  V30 2835 H 279.251 4.44654 -2.20445 0
M  V30 2836 H 274.507 5.01393 -3.49878 0
M  V30 2837 H 278.681 5.38752 -4.4127 0
M  V30 2838 H 276.308 5.66859 -5.06533 0
M  V30 2839 N 277.883 0.443576 1.51229 0
M  V30 2840 C 279.131 -0.120557 2.0174 0
M  V30 2841 C 279.452 -1.42665 1.32935 0
M  V30 2842 O 278.722 -1.9028 0.465866 0
M  V30 2843 H 277.302 -0.0475426 0.745486 0
M  V30 2844 H 279.964 0.587711 1.85828 0
M  V30 2845 H 279.06 -0.291972 3.10731 0
M  V30 2846 N 279.361 -1.56624 0.175154 0
M  V30 2847 C 280.608 -1.96999 -0.468811 0
M  V30 2848 C 280.936 -1.06129 -1.62994 0
M  V30 2849 O 280.191 -0.0961771 -1.95464 0
M  V30 2850 C 280.49 -3.43419 -0.989864 0
M  V30 2851 C 280.156 -4.50866 0.0557687 0
M  V30 2852 C 278.818 -4.79975 0.343134 0
M  V30 2853 C 281.17 -5.15551 0.765308 0
M  V30 2854 C 278.498 -5.71066 1.34536 0
M  V30 2855 C 280.85 -6.07724 1.75654 0
M  V30 2856 C 279.514 -6.35199 2.05132 0
M  V30 2857 H 278.784 -0.720869 -0.17155 0
M  V30 2858 H 281.431 -1.89616 0.267924 0
M  V30 2859 H 279.736 -3.47772 -1.80449 0
M  V30 2860 H 281.433 -3.72002 -1.49719 0
M  V30 2861 H 278.023 -4.28229 -0.178381 0
M  V30 2862 H 282.207 -4.9317 0.556513 0
M  V30 2863 H 277.463 -5.90635 1.57988 0
M  V30 2864 H 281.637 -6.56912 2.31169 0
M  V30 2865 H 279.264 -7.05584 2.8294 0
M  V30 2866 N 280.839 0.0985539 -1.57292 0
M  V30 2867 C 282.087 0.801092 -1.85545 0
M  V30 2868 C 282.408 1.79438 -0.763353 0
M  V30 2869 O 281.678 1.94763 0.21073 0
M  V30 2870 H 280.258 0.29884 -0.684619 0
M  V30 2871 H 282.92 0.0810064 -1.94732 0
M  V30 2872 H 282.016 1.3338 -2.82163 0
M  V30 2873 N 282.317 1.53212 0.369288 0
M  V30 2874 C 283.264 1.79388 1.45219 0
M  V30 2875 C 284.234 0.638059 1.53356 0
M  V30 2876 O 285.419 0.879852 1.69302 0
M  V30 2877 C 282.559 1.98623 2.82211 0
M  V30 2878 C 281.672 3.26337 2.8307 0
M  V30 2879 C 280.807 3.35779 4.11614 0
M  V30 2880 C 279.846 4.5754 4.06601 0
M  V30 2881 N 278.983 4.64155 5.26787 0
M  V30 2882 H 283.823 2.71794 1.22198 0
M  V30 2883 H 281.36 1.34642 0.592444 0
M  V30 2884 H 283.318 2.07761 3.61789 0
M  V30 2885 H 281.948 1.09558 3.03639 0
M  V30 2886 H 281 3.26171 1.95747 0
M  V30 2887 H 282.312 4.15988 2.75237 0
M  V30 2888 H 281.466 3.44208 4.99606 0
M  V30 2889 H 280.205 2.44137 4.22195 0
M  V30 2890 H 279.21 4.49215 3.16996 0
M  V30 2891 H 280.435 5.50519 3.97625 0
M  V30 2892 H 278.381 3.75413 5.3796 0
M  V30 2893 H 278.298 5.47706 5.21109 0
M  V30 2894 H 279.566 4.76863 6.16621 0
M  V30 2895 N 283.795 -0.628877 1.44509 0
M  V30 2896 C 284.743 -1.76193 1.51852 0
M  V30 2897 C 285.737 -1.64849 0.390042 0
M  V30 2898 O 286.943 -1.709 0.565082 0
M  V30 2899 H 283.318 -0.581728 0.476547 0
M  V30 2900 H 285.289 -1.67123 2.47209 0
M  V30 2901 C 284.038 -3.14533 1.48204 0
M  V30 2902 H 283.361 -3.23911 2.34354 0
M  V30 2903 H 284.801 -3.93701 1.57402 0
M  V30 2904 C 283.26 -3.36287 0.203142 0
M  V30 2905 O 283.79 -3.9509 -0.725745 0
M  V30 2906 N 281.996 -2.90408 0.105563 0
M  V30 2907 H 281.543 -2.42739 0.862301 0
M  V30 2908 H 281.501 -3.05339 -0.749371 0
M  V30 2909 N 285.273 -1.31445 -0.869486 0
M  V30 2910 C 286.203 -1.21727 -1.99261 0
M  V30 2911 C 287.184 -0.104359 -1.6978 0
M  V30 2912 O 288.369 -0.289038 -1.92037 0
M  V30 2913 C 285.499 -0.924317 -3.34774 0
M  V30 2914 C 284.453 -1.99685 -3.78563 0
M  V30 2915 C 283.779 -1.55658 -5.11541 0
M  V30 2916 C 285.079 -3.41003 -3.95619 0
M  V30 2917 H 286.773 -2.1569 -2.07649 0
M  V30 2918 H 284.319 -1.03839 -0.997675 0
M  V30 2919 H 286.272 -0.842934 -4.12883 0
M  V30 2920 H 284.996 0.0509793 -3.2656 0
M  V30 2921 H 283.655 -2.06813 -3.02694 0
M  V30 2922 H 283.303 -0.569132 -4.9977 0
M  V30 2923 H 283.003 -2.27409 -5.41811 0
M  V30 2924 H 284.527 -1.48928 -5.92159 0
M  V30 2925 H 285.941 -3.36547 -4.64122 0
M  V30 2926 H 284.338 -4.10975 -4.37286 0
M  V30 2927 H 285.408 -3.81754 -2.98985 0
M  V30 2928 N 286.751 1.08385 -1.14413 0
M  V30 2929 C 287.976 1.85057 -0.936413 0
M  V30 2930 C 288.401 1.81055 0.509971 0
M  V30 2931 O 287.759 1.1958 1.36273 0
M  V30 2932 C 287.807 3.30505 -1.44217 0
M  V30 2933 O 286.911 4.07491 -0.634409 0
M  V30 2934 H 286.252 0.573425 -0.334784 0
M  V30 2935 H 288.782 1.36799 -1.52142 0
M  V30 2936 H 288.792 3.81348 -1.45043 0
M  V30 2937 H 287.467 3.32734 -2.49522 0
M  V30 2938 H 286.044 3.66368 -0.694902 0
M  V30 2939 N 288.23 0.939286 1.26551 0
M  V30 2940 C 289.18 0.418284 2.2413 0
M  V30 2941 C 290.164 -0.483935 1.5345 0
M  V30 2942 O 291.356 -0.319489 1.74093 0
M  V30 2943 C 288.485 -0.31709 3.41832 0
M  V30 2944 C 287.571 0.602311 4.19801 0
M  V30 2945 N 287.962 1.72726 4.75394 0
M  V30 2946 C 286.26 0.407534 4.44134 0
M  V30 2947 C 286.961 2.30004 5.34297 0
M  V30 2948 N 285.937 1.58828 5.1988 0
M  V30 2949 H 289.739 1.27705 2.64705 0
M  V30 2950 H 287.253 0.794929 1.41614 0
M  V30 2951 H 289.25 -0.707364 4.10855 0
M  V30 2952 H 287.91 -1.17264 3.02786 0
M  V30 2953 H 288.921 2.10944 4.72994 0
M  V30 2954 H 285.598 -0.406406 4.15517 0
M  V30 2955 H 286.988 3.24778 5.88191 0
M  V30 2956 N 289.708 -1.40897 0.706093 0
M  V30 2957 C 290.656 -2.32572 0.0361893 0
M  V30 2958 C 291.65 -1.51532 -0.757266 0
M  V30 2959 O 292.856 -1.67396 -0.661703 0
M  V30 2960 H 289.231 -0.751966 -0.00709935 0
M  V30 2961 H 291.202 -2.86733 0.826249 0
M  V30 2962 C 289.951 -3.36418 -0.87854 0
M  V30 2963 H 289.274 -3.98836 -0.277401 0
M  V30 2964 H 290.714 -4.0308 -1.3154 0
M  V30 2965 C 289.173 -2.71141 -1.99961 0
M  V30 2966 O 289.703 -2.56735 -3.0895 0
M  V30 2967 N 287.909 -2.29671 -1.78043 0
M  V30 2968 H 287.456 -2.41588 -0.894042 0
M  V30 2969 H 287.414 -1.86332 -2.53235 0
M  V30 2970 N 291.186 -0.45159 -1.50991 0
M  V30 2971 C 292.416 0.108177 -2.06317 0
M  V30 2972 C 292.824 1.35774 -1.31765 0
M  V30 2973 O 292.167 1.79838 -0.374694 0
M  V30 2974 C 292.229 0.481659 -3.56259 0
M  V30 2975 C 291.893 -0.663114 -4.52163 0
M  V30 2976 C 292.89 -1.53947 -4.96585 0
M  V30 2977 C 290.575 -0.8479 -4.95092 0
M  V30 2978 C 292.569 -2.58518 -5.82621 0
M  V30 2979 C 290.256 -1.89686 -5.80915 0
M  V30 2980 C 291.254 -2.76388 -6.24579 0
M  V30 2981 O 290.942 -3.79482 -7.08695 0
M  V30 2982 H 290.674 0.00499183 -0.675982 0
M  V30 2983 H 293.228 -0.633659 -1.95381 0
M  V30 2984 H 291.458 1.27641 -3.65027 0
M  V30 2985 H 293.147 0.974233 -3.94035 0
M  V30 2986 H 293.913 -1.4083 -4.64103 0
M  V30 2987 H 289.792 -0.18258 -4.60638 0
M  V30 2988 H 293.336 -3.26224 -6.16623 0
M  V30 2989 H 289.233 -2.02817 -6.12809 0
M  V30 2990 H 290.001 -3.76234 -7.26905 0
M  V30 2991 N 292.664 1.56529 -0.183458 0
M  V30 2992 C 293.889 2.02064 0.467428 0
M  V30 2993 C 294.314 1.06282 1.55196 0
M  V30 2994 O 293.672 0.0443565 1.81246 0
M  V30 2995 C 293.72 3.46122 1.01153 0
M  V30 2996 O 292.824 3.53437 2.12499 0
M  V30 2997 H 292.165 0.654726 0.110588 0
M  V30 2998 H 294.695 2.02521 -0.290917 0
M  V30 2999 H 294.705 3.85676 1.33108 0
M  V30 3000 H 293.38 4.15331 0.217533 0
M  V30 3001 H 291.957 3.2575 1.81497 0
M  V30 3002 N 294.142 -0.090211 1.57342 0
M  V30 3003 C 295.072 -1.10976 2.05443 0
M  V30 3004 C 296.053 -1.41482 0.944284 0
M  V30 3005 O 297.238 -1.51428 1.21586 0
M  V30 3006 C 294.368 -2.42831 2.48295 0
M  V30 3007 C 293.322 -2.26721 3.63018 0
M  V30 3008 C 292.648 -3.63796 3.91863 0
M  V30 3009 C 293.948 -1.7037 4.93732 0
M  V30 3010 H 295.642 -0.709564 2.9087 0
M  V30 3011 H 293.188 -0.339874 1.39932 0
M  V30 3012 H 295.141 -3.14431 2.80555 0
M  V30 3013 H 293.865 -2.84795 1.59873 0
M  V30 3014 H 292.524 -1.57565 3.31012 0
M  V30 3015 H 292.172 -4.03297 3.00601 0
M  V30 3016 H 291.872 -3.53861 4.69101 0
M  V30 3017 H 293.396 -4.36855 4.26603 0
M  V30 3018 H 294.81 -2.31816 5.24342 0
M  V30 3019 H 293.207 -1.71181 5.75167 0
M  V30 3020 H 294.277 -0.663542 4.80339 0
M  V30 3021 N 295.62 -1.53406 -0.361157 0
M  V30 3022 C 296.55 -1.83136 -1.44857 0
M  V30 3023 C 297.531 -0.685174 -1.5569 0
M  V30 3024 O 298.716 -0.93544 -1.70186 0
M  V30 3025 C 295.846 -2.02522 -2.82138 0
M  V30 3026 C 294.8 -3.18302 -2.86126 0
M  V30 3027 C 294.126 -3.22989 -4.26125 0
M  V30 3028 C 295.426 -4.56796 -2.53248 0
M  V30 3029 H 297.12 -2.74201 -1.20226 0
M  V30 3030 H 294.666 -1.31938 -0.576922 0
M  V30 3031 H 296.619 -2.21904 -3.58241 0
M  V30 3032 H 295.343 -1.08172 -3.08166 0
M  V30 3033 H 294.002 -2.98747 -2.12475 0
M  V30 3034 H 293.65 -2.26267 -4.49235 0
M  V30 3035 H 293.35 -4.00781 -4.29708 0
M  V30 3036 H 294.874 -3.44559 -5.04094 0
M  V30 3037 H 296.288 -4.7631 -3.19064 0
M  V30 3038 H 294.685 -5.36862 -2.68141 0
M  V30 3039 H 295.755 -4.61606 -1.48484 0
M  V30 3040 N 297.098 0.621204 -1.44841 0
M  V30 3041 C 298.061 1.71459 -1.521 0
M  V30 3042 C 299.061 1.55696 -0.401933 0
M  V30 3043 O 300.251 1.61011 -0.664925 0
M  V30 3044 C 297.383 3.10624 -1.40447 0
M  V30 3045 H 298.576 1.66394 -2.49506 0
M  V30 3046 H 296.129 0.835745 -1.3208 0
M  V30 3047 H 296.864 3.21277 -0.441737 0
M  V30 3048 H 296.649 3.23473 -2.21602 0
M  V30 3049 H 298.139 3.90293 -1.4853 0
M  V30 3050 N 298.576 1.31904 0.862503 0
M  V30 3051 C 299.992 1.10724 1.14945 0
M  V30 3052 C 300.192 -0.117421 2.01158 0
M  V30 3053 O 299.248 -0.804595 2.39338 0
M  V30 3054 C 300.561 2.38267 1.83437 0
M  V30 3055 C 302.109 2.43949 1.96106 0
M  V30 3056 C 302.584 3.71394 2.68013 0
M  V30 3057 N 304.075 3.72331 2.75543 0
M  V30 3058 C 304.81 4.67641 3.31812 0
M  V30 3059 N 304.306 5.73313 3.88953 0
M  V30 3060 N 306.099 4.5515 3.29841 0
M  V30 3061 H 298.25 2.10436 0.288191 0
M  V30 3062 H 300.513 0.928705 0.190292 0
M  V30 3063 H 300.219 3.27759 1.27542 0
M  V30 3064 H 300.093 2.48633 2.83657 0
M  V30 3065 H 302.48 1.54922 2.51164 0
M  V30 3066 H 302.561 2.37543 0.949059 0
M  V30 3067 H 302.205 4.60791 2.13621 0
M  V30 3068 H 302.135 3.75069 3.69636 0
M  V30 3069 H 304.626 2.95947 2.34997 0
M  V30 3070 H 304.939 6.42107 4.30022 0
M  V30 3071 H 303.284 5.77077 3.87308 0
M  V30 3072 H 306.475 3.71766 2.84443 0
M  V30 3073 H 306.648 5.29604 3.73394 0
M  V30 3074 N 300.054 -1.07777 1.14986 0
M  V30 3075 C 300.984 -2.16865 0.865557 0
M  V30 3076 C 301.965 -1.69123 -0.182083 0
M  V30 3077 O 303.15 -1.94164 -0.0373815 0
M  V30 3078 C 300.28 -3.45539 0.349313 0
M  V30 3079 C 299.234 -4.06708 1.33313 0
M  V30 3080 C 298.56 -5.30411 0.675918 0
M  V30 3081 C 299.86 -4.47241 2.69764 0
M  V30 3082 H 301.554 -2.40905 1.77778 0
M  V30 3083 H 299.1 -1.15781 0.856203 0
M  V30 3084 H 301.053 -4.21174 0.137983 0
M  V30 3085 H 299.777 -3.21072 -0.598362 0
M  V30 3086 H 298.436 -3.33112 1.53075 0
M  V30 3087 H 298.084 -5.02232 -0.277767 0
M  V30 3088 H 297.784 -5.72293 1.33244 0
M  V30 3089 H 299.308 -6.08755 0.474262 0
M  V30 3090 H 300.722 -5.14025 2.53873 0
M  V30 3091 H 299.119 -5.00062 3.3175 0
M  V30 3092 H 300.189 -3.58818 3.26156 0
M  V30 3093 N 301.532 -0.945985 -1.26051 0
M  V30 3094 C 302.495 -0.463897 -2.24456 0
M  V30 3095 C 303.495 0.427655 -1.55009 0
M  V30 3096 O 304.685 0.226157 -1.72726 0
M  V30 3097 C 301.817 0.330812 -3.39291 0
M  V30 3098 H 303.01 -1.33357 -2.68619 0
M  V30 3099 H 300.563 -0.728416 -1.38289 0
M  V30 3100 H 301.298 1.21852 -3.00537 0
M  V30 3101 H 301.083 -0.308679 -3.90883 0
M  V30 3102 H 302.573 0.657865 -4.12386 0
M  V30 3103 N 303.011 1.40521 -0.713556 0
M  V30 3104 C 303.921 2.34522 -0.0606667 0
M  V30 3105 C 304.937 1.57193 0.74607 0
M  V30 3106 O 306.113 1.89591 0.679493 0
M  V30 3107 C 303.178 3.36081 0.851491 0
M  V30 3108 C 302.239 4.29286 0.0349339 0
M  V30 3109 C 301.472 5.25994 0.903649 0
M  V30 3110 O 301.695 5.28616 2.14292 0
M  V30 3111 O 300.629 6.00918 0.343723 0
M  V30 3112 H 304.455 2.91968 -0.835972 0
M  V30 3113 H 302.04 1.41681 -0.47402 0
M  V30 3114 H 303.922 3.98369 1.37404 0
M  V30 3115 H 302.597 2.81052 1.60598 0
M  V30 3116 H 301.504 3.70289 -0.532633 0
M  V30 3117 H 302.837 4.87462 -0.681287 0
M  V30 3118 N 304.489 0.459591 1.5075 0
M  V30 3119 C 305.736 -0.0993495 2.02256 0
M  V30 3120 C 306.064 -1.40751 1.34237 0
M  V30 3121 O 305.319 -1.90379 0.453228 0
M  V30 3122 C 305.618 -0.342866 3.55752 0
M  V30 3123 C 305.284 0.88218 4.42186 0
M  V30 3124 C 303.946 1.21808 4.65528 0
M  V30 3125 C 306.298 1.69837 4.92752 0
M  V30 3126 C 303.626 2.37045 5.36681 0
M  V30 3127 C 305.978 2.84192 5.65171 0
M  V30 3128 C 304.642 3.1821 5.8677 0
M  V30 3129 H 303.912 -0.0363545 0.740108 0
M  V30 3130 H 306.559 0.611329 1.8148 0
M  V30 3131 H 304.864 -1.13567 3.7498 0
M  V30 3132 H 306.561 -0.789121 3.93159 0
M  V30 3133 H 303.151 0.610467 4.2423 0
M  V30 3134 H 307.335 1.45205 4.74583 0
M  V30 3135 H 302.591 2.63689 5.51614 0
M  V30 3136 H 306.765 3.4779 6.03337 0
M  V30 3137 H 304.392 4.07613 6.41682 0
M  V30 3138 N 305.967 -1.56429 0.191757 0
M  V30 3139 C 306.917 -2.15548 -0.743184 0
M  V30 3140 C 307.901 -1.09531 -1.17863 0
M  V30 3141 O 309.093 -1.35602 -1.13759 0
M  V30 3142 C 306.222 -2.81577 -1.96391 0
M  V30 3143 C 305.308 -3.9478 -1.54951 0
M  V30 3144 N 305.699 -4.98677 -0.845876 0
M  V30 3145 C 303.997 -4.06319 -1.83905 0
M  V30 3146 C 304.698 -5.78183 -0.638724 0
M  V30 3147 N 303.674 -5.30495 -1.18643 0
M  V30 3148 H 307.476 -2.9324 -0.196839 0
M  V30 3149 H 304.99 -1.62398 -0.0081603 0
M  V30 3150 H 306.987 -3.22321 -2.64415 0
M  V30 3151 H 305.647 -2.05371 -2.51501 0
M  V30 3152 H 306.658 -5.15464 -0.501704 0
M  V30 3153 H 303.335 -3.41238 -2.40548 0
M  V30 3154 H 304.725 -6.71851 -0.0807929 0
M  V30 3155 N 307.445 0.0818655 -1.57387 0
M  V30 3156 C 308.395 1.10501 -1.99433 0
M  V30 3157 C 309.379 1.35041 -0.874798 0
M  V30 3158 O 310.571 1.35511 -1.13868 0
M  V30 3159 C 307.7 2.42159 -2.43339 0
M  V30 3160 C 306.786 2.20937 -3.62005 0
M  V30 3161 N 307.177 1.69616 -4.76512 0
M  V30 3162 C 305.475 2.51451 -3.68359 0
M  V30 3163 C 306.176 1.62973 -5.58404 0
M  V30 3164 N 305.152 2.08664 -5.01956 0
M  V30 3165 H 308.954 0.701373 -2.85408 0
M  V30 3166 H 306.468 0.289096 -1.59806 0
M  V30 3167 H 308.465 3.16208 -2.71695 0
M  V30 3168 H 307.125 2.83249 -1.58746 0
M  V30 3169 H 308.136 1.38624 -4.99003 0
M  V30 3170 H 304.813 2.95975 -2.94457 0
M  V30 3171 H 306.203 1.24233 -6.60315 0
M  V30 3172 N 308.923 1.53595 0.353017 0
M  V30 3173 C 310.17 1.70385 1.09431 0
M  V30 3174 C 310.498 0.462113 1.88931 0
M  V30 3175 O 309.753 -0.556074 1.87633 0
M  V30 3176 C 310.052 2.91313 2.07054 0
M  V30 3177 C 309.718 4.27308 1.43939 0
M  V30 3178 C 308.38 4.64287 1.26454 0
M  V30 3179 C 310.732 5.11829 0.983883 0
M  V30 3180 C 308.06 5.83412 0.620226 0
M  V30 3181 C 310.412 6.31611 0.353516 0
M  V30 3182 C 309.076 6.67293 0.166272 0
M  V30 3183 H 308.346 0.623484 0.400436 0
M  V30 3184 H 310.993 1.87799 0.374655 0
M  V30 3185 H 309.298 2.68463 2.85368 0
M  V30 3186 H 310.995 3.01497 2.64387 0
M  V30 3187 H 307.585 3.98198 1.58543 0
M  V30 3188 H 311.769 4.838 1.10685 0
M  V30 3189 H 307.025 6.09639 0.463681 0
M  V30 3190 H 311.199 6.964 -0.00757555 0
M  V30 3191 H 308.826 7.59461 -0.335047 0
M  V30 3192 N 310.401 -0.613514 1.45168 0
M  V30 3193 C 311.349 -1.74572 1.53712 0
M  V30 3194 C 312.343 -1.64426 0.407505 0
M  V30 3195 O 313.549 -1.70291 0.583176 0
M  V30 3196 H 309.924 -0.576641 0.48269 0
M  V30 3197 H 311.895 -1.64492 2.48968 0
M  V30 3198 C 310.644 -3.12943 1.51532 0
M  V30 3199 H 309.967 -3.21407 2.37776 0
M  V30 3200 H 311.407 -3.9201 1.61569 0
M  V30 3201 C 309.866 -3.36053 0.238798 0
M  V30 3202 O 310.396 -3.95837 -0.6838 0
M  V30 3203 N 308.602 -2.9028 0.136359 0
M  V30 3204 H 308.149 -2.41811 0.887999 0
M  V30 3205 H 308.107 -3.06116 -0.716944 0
M  V30 3206 N 311.879 -1.3236 -0.855495 0
M  V30 3207 C 312.809 -1.23833 -1.97958 0
M  V30 3208 C 313.79 -0.122361 -1.69659 0
M  V30 3209 O 314.975 -0.30939 -1.9172 0
M  V30 3210 C 312.105 -0.959772 -3.33775 0
M  V30 3211 C 311.059 -2.03689 -3.76424 0
M  V30 3212 C 310.385 -1.61075 -5.09862 0
M  V30 3213 C 311.685 -3.4518 -3.9198 0
M  V30 3214 H 313.379 -2.1788 -2.0535 0
M  V30 3215 H 310.925 -1.04891 -0.986605 0
M  V30 3216 H 312.878 -0.886678 -4.11966 0
M  V30 3217 H 311.602 0.0163404 -3.26596 0
M  V30 3218 H 310.261 -2.10012 -3.00484 0
M  V30 3219 H 309.909 -0.622107 -4.99138 0
M  V30 3220 H 309.609 -2.33143 -5.39368 0
M  V30 3221 H 311.133 -1.55201 -5.90546 0
M  V30 3222 H 312.547 -3.4145 -4.60526 0
M  V30 3223 H 310.944 -4.1559 -4.32903 0
M  V30 3224 H 312.014 -3.84903 -2.94919 0
M  V30 3225 N 313.357 1.07166 -1.15556 0
M  V30 3226 C 314.768 1.6127 -0.940693 0
M  V30 3227 C 315.119 1.89251 0.517551 0
M  V30 3228 O 314.244 1.65937 1.38903 0
M  V30 3229 C 314.839 2.92993 -1.7012 0
M  V30 3230 C 313.398 3.43832 -1.53156 0
M  V30 3231 C 312.545 2.1786 -1.71558 0
M  V30 3232 H 315.496 0.90229 -1.30554 0
M  V30 3233 H 315.517 3.62007 -1.17181 0
M  V30 3234 H 315.029 2.72596 -2.76248 0
M  V30 3235 H 313.13 3.69307 -0.494294 0
M  V30 3236 H 313.243 4.19747 -2.30975 0
M  V30 3237 H 311.607 2.2765 -1.14225 0
M  V30 3238 H 312.39 1.99956 -2.79056 0
M  V30 3239 N 314.835 0.952656 1.25548 0
M  V30 3240 C 315.765 0.489287 2.28316 0
M  V30 3241 C 316.746 -0.463359 1.63667 0
M  V30 3242 O 317.931 -0.36274 1.90782 0
M  V30 3243 C 315.061 -0.235603 3.465 0
M  V30 3244 C 314.015 0.631593 4.23314 0
M  V30 3245 C 313.341 -0.223923 5.34231 0
M  V30 3246 C 314.641 1.90871 4.86174 0
M  V30 3247 H 316.335 1.34822 2.67326 0
M  V30 3248 H 313.881 0.649728 1.28509 0
M  V30 3249 H 315.834 -0.570882 4.17515 0
M  V30 3250 H 314.558 -1.12877 3.06474 0
M  V30 3251 H 313.217 0.949929 3.54079 0
M  V30 3252 H 312.865 -1.11678 4.90446 0
M  V30 3253 H 312.565 0.35299 5.86539 0
M  V30 3254 H 314.089 -0.554214 6.0808 0
M  V30 3255 H 315.503 1.63997 5.49343 0
M  V30 3256 H 313.9 2.43112 5.4865 0
M  V30 3257 H 314.97 2.61304 4.08471 0
M  V30 3258 N 316.313 -1.40141 0.720998 0
M  V30 3259 C 317.243 -2.33339 0.0867621 0
M  V30 3260 C 318.224 -1.53178 -0.739622 0
M  V30 3261 O 319.409 -1.81625 -0.687449 0
M  V30 3262 C 316.539 -3.37194 -0.831728 0
M  V30 3263 C 315.493 -4.27857 -0.110558 0
M  V30 3264 C 314.819 -5.22294 -1.14513 0
M  V30 3265 C 316.119 -5.11872 1.0385 0
M  V30 3266 H 317.813 -2.86626 0.865219 0
M  V30 3267 H 315.359 -1.37814 0.417516 0
M  V30 3268 H 317.312 -4.01335 -1.28485 0
M  V30 3269 H 316.036 -2.82314 -1.64214 0
M  V30 3270 H 314.695 -3.65176 0.322797 0
M  V30 3271 H 314.343 -4.63717 -1.94874 0
M  V30 3272 H 314.043 -5.83797 -0.667446 0
M  V30 3273 H 315.567 -5.89312 -1.59824 0
M  V30 3274 H 316.981 -5.69436 0.664482 0
M  V30 3275 H 315.378 -5.82445 1.4449 0
M  V30 3276 H 316.448 -4.4753 1.86668 0
M  V30 3277 N 317.792 -0.46758 -1.50504 0
M  V30 3278 C 319.038 0.0887532 -2.02606 0
M  V30 3279 C 319.371 1.39686 -1.34913 0
M  V30 3280 O 318.646 1.88644 -0.473694 0
M  V30 3281 C 318.929 0.276206 -3.59039 0
M  V30 3282 C 318.782 -1.05267 -4.37309 0
M  V30 3283 C 320.101 1.03235 -4.27821 0
M  V30 3284 H 317.22 0.0307814 -0.736357 0
M  V30 3285 H 319.862 -0.612485 -1.79857 0
M  V30 3286 H 318.012 0.8735 -3.78553 0
M  V30 3287 H 319.684 -1.68628 -4.29374 0
M  V30 3288 H 317.927 -1.65015 -4.01189 0
M  V30 3289 H 318.598 -0.875197 -5.45018 0
M  V30 3290 H 321.074 0.526111 -4.12761 0
M  V30 3291 H 319.95 1.1323 -5.37094 0
M  V30 3292 H 320.211 2.06806 -3.90748 0
M  V30 3293 N 319.27 1.56325 -0.20005 0
M  V30 3294 C 320.518 1.97329 0.436547 0
M  V30 3295 C 320.839 1.08826 1.61808 0
M  V30 3296 O 320.109 0.160604 1.95241 0
M  V30 3297 H 318.689 0.728714 0.164272 0
M  V30 3298 H 321.351 1.92761 -0.287937 0
M  V30 3299 H 320.447 3.02264 0.777353 0
M  V30 3300 N 320.748 -0.0735177 1.57428 0
M  V30 3301 C 321.681 -1.11932 1.98863 0
M  V30 3302 C 322.659 -1.37666 0.865266 0
M  V30 3303 O 323.843 -1.51068 1.12742 0
M  V30 3304 C 320.97 -2.46403 2.32386 0
M  V30 3305 C 320.016 -2.36815 3.54713 0
M  V30 3306 S 320.849 -1.76392 5.05614 0
M  V30 3307 C 322.005 -3.12444 5.42337 0
M  V30 3308 H 322.238 -0.766212 2.87257 0
M  V30 3309 H 319.771 -0.281987 1.51803 0
M  V30 3310 H 321.729 -3.23755 2.52375 0
M  V30 3311 H 320.39 -2.78876 1.44524 0
M  V30 3312 H 319.583 -3.35977 3.7568 0
M  V30 3313 H 319.185 -1.67598 3.34345 0
M  V30 3314 H 321.477 -4.08753 5.40303 0
M  V30 3315 H 322.42 -2.96258 6.43146 0
M  V30 3316 H 322.828 -3.1297 4.69798 0
M  V30 3317 N 322.226 -1.5378 -0.344866 0
M  V30 3318 C 323.451 -1.75211 -1.10977 0
M  V30 3319 C 323.876 -0.48936 -1.81623 0
M  V30 3320 O 323.234 0.557925 -1.72502 0
M  V30 3321 C 323.282 -2.93147 -2.09993 0
M  V30 3322 O 322.386 -2.63203 -3.17487 0
M  V30 3323 H 321.727 -0.581241 -0.321021 0
M  V30 3324 H 324.257 -2.00738 -0.395661 0
M  V30 3325 H 324.267 -3.19898 -2.53237 0
M  V30 3326 H 322.942 -3.84731 -1.5797 0
M  V30 3327 H 321.519 -2.47336 -2.79069 0
M  V30 3328 N 323.704 0.605807 -1.45491 0
M  V30 3329 C 325.12 0.926751 -1.29936 0
M  V30 3330 C 325.32 1.99896 -0.253706 0
M  V30 3331 O 324.376 2.50038 0.351737 0
M  V30 3332 C 325.689 1.36599 -2.67883 0
M  V30 3333 C 327.237 1.4801 -2.75793 0
M  V30 3334 C 327.712 1.95309 -4.14268 0
M  V30 3335 N 329.203 2.0254 -4.16571 0
M  V30 3336 C 329.938 2.40363 -5.20589 0
M  V30 3337 N 329.434 2.77143 -6.34952 0
M  V30 3338 N 331.227 2.40718 -5.07948 0
M  V30 3339 H 323.378 -0.102862 -2.12151 0
M  V30 3340 H 325.641 0.016639 -0.947854 0
M  V30 3341 H 325.347 0.652306 -3.45598 0
M  V30 3342 H 325.221 2.33215 -2.96463 0
M  V30 3343 H 327.608 2.1847 -1.98381 0
M  V30 3344 H 327.689 0.497041 -2.50925 0
M  V30 3345 H 327.333 1.25436 -4.92167 0
M  V30 3346 H 327.263 2.94532 -4.3653 0
M  V30 3347 H 329.754 1.76699 -3.34045 0
M  V30 3348 H 330.067 3.0489 -7.10114 0
M  V30 3349 H 328.412 2.74834 -6.3835 0
M  V30 3350 H 331.603 2.11392 -4.1765 0
M  V30 3351 H 331.776 2.69869 -5.89131 0
M  V30 3352 N 325.182 1.32811 0.848464 0
M  V30 3353 C 326.129 1.22265 1.95755 0
M  V30 3354 C 327.099 0.103413 1.65778 0
M  V30 3355 O 328.284 0.280033 1.88734 0
M  V30 3356 C 325.424 0.958014 3.31536 0
M  V30 3357 C 324.537 2.16262 3.73971 0
M  V30 3358 C 323.672 1.83295 4.98575 0
M  V30 3359 C 322.711 3.00041 5.33518 0
M  V30 3360 N 321.848 2.67125 6.49299 0
M  V30 3361 H 326.688 2.17128 2.04107 0
M  V30 3362 H 324.225 1.07982 0.998913 0
M  V30 3363 H 326.183 0.785052 4.09747 0
M  V30 3364 H 324.813 0.046159 3.22767 0
M  V30 3365 H 323.865 2.44565 2.91362 0
M  V30 3366 H 325.177 3.03572 3.95785 0
M  V30 3367 H 324.331 1.62586 5.84509 0
M  V30 3368 H 323.07 0.932078 4.7871 0
M  V30 3369 H 322.075 3.21374 4.46093 0
M  V30 3370 H 323.3 3.90869 5.55336 0
M  V30 3371 H 321.246 1.79586 6.3094 0
M  V30 3372 H 321.163 3.47965 6.71161 0
M  V30 3373 H 322.431 2.49861 7.3837 0
M  V30 3374 N 326.66 -1.06551 1.16123 0
M  V30 3375 C 327.885 -1.83544 0.965735 0
M  V30 3376 C 328.31 -1.81843 -0.481102 0
M  V30 3377 O 327.668 -1.21732 -1.34354 0
M  V30 3378 C 327.716 -3.28169 1.49457 0
M  V30 3379 O 326.82 -4.0643 0.699157 0
M  V30 3380 H 326.161 -0.568026 0.343864 0
M  V30 3381 H 328.691 -1.34362 1.54299 0
M  V30 3382 H 328.701 -3.78992 1.51092 0
M  V30 3383 H 327.376 -3.28722 2.54784 0
M  V30 3384 H 325.953 -3.65216 0.7531 0
M  V30 3385 N 328.138 -0.959301 -1.25041 0
M  V30 3386 C 329.071 -0.427418 -2.24161 0
M  V30 3387 C 330.049 0.493837 -1.54919 0
M  V30 3388 O 331.233 0.427144 -1.83597 0
M  V30 3389 C 328.36 0.383893 -3.36517 0
M  V30 3390 C 327.406 -0.478431 -4.23808 0
M  V30 3391 S 328.239 -1.91353 -5.00144 0
M  V30 3392 C 329.395 -1.11077 -6.15965 0
M  V30 3393 H 329.628 -1.26743 -2.6893 0
M  V30 3394 H 327.161 -0.763714 -1.34189 0
M  V30 3395 H 329.119 0.846039 -4.01687 0
M  V30 3396 H 327.78 1.19878 -2.90324 0
M  V30 3397 H 326.973 0.14406 -5.03794 0
M  V30 3398 H 326.575 -0.87597 -3.63597 0
M  V30 3399 H 328.867 -0.361699 -6.76534 0
M  V30 3400 H 329.81 -1.88472 -6.82557 0
M  V30 3401 H 330.218 -0.638843 -5.60873 0
M  V30 3402 N 329.616 1.39756 -0.72842 0
M  V30 3403 C 330.865 1.99879 -0.270407 0
M  V30 3404 C 331.178 1.58449 1.14688 0
M  V30 3405 O 332.384 2.11362 1.70407 0
M  V30 3406 C 330.84 3.57292 -0.43252 0
M  V30 3407 C 330.448 4.07688 -1.85727 0
M  V30 3408 C 332.192 4.24485 -0.0359507 0
M  V30 3409 C 330.099 5.5765 -1.96928 0
M  V30 3410 H 329.029 0.747689 -0.0973472 0
M  V30 3411 H 331.68 1.59837 -0.901355 0
M  V30 3412 H 330.062 3.95097 0.267219 0
M  V30 3413 H 331.236 3.81231 -2.58843 0
M  V30 3414 H 329.551 3.53135 -2.20646 0
M  V30 3415 H 332.148 5.34609 -0.0987484 0
M  V30 3416 H 332.491 4.03915 1.00787 0
M  V30 3417 H 333.024 3.9183 -0.686604 0
M  V30 3418 H 329.763 5.8309 -2.99476 0
M  V30 3419 H 329.283 5.8593 -1.28241 0
M  V30 3420 H 330.962 6.22957 -1.74737 0
M  V30 3421 N 331.094 0.475555 1.50254 0
M  V30 3422 C 332.342 -0.077738 2.0195 0
M  V30 3423 C 332.663 -1.39813 1.35931 0
M  V30 3424 O 331.933 -1.89249 0.506123 0
M  V30 3425 H 330.513 -0.031719 0.746326 0
M  V30 3426 H 333.175 0.626995 1.84539 0
M  V30 3427 H 332.271 -0.225995 3.11281 0
M  V30 3428 N 332.573 -1.56217 0.208337 0
M  V30 3429 C 333.505 -2.1695 -0.739276 0
M  V30 3430 C 334.518 -1.13492 -1.1672 0
M  V30 3431 O 335.707 -1.40529 -1.10063 0
M  V30 3432 C 332.807 -2.72755 -2.01142 0
M  V30 3433 C 331.98 -4.0125 -1.74118 0
M  V30 3434 C 331.039 -4.41749 -2.85909 0
M  V30 3435 O 330.065 -5.08912 -2.54946 0
M  V30 3436 N 331.267 -4.06342 -4.14568 0
M  V30 3437 H 334.032 -2.98893 -0.219837 0
M  V30 3438 H 331.593 -1.61878 0.0268445 0
M  V30 3439 H 333.585 -2.96826 -2.75094 0
M  V30 3440 H 332.155 -1.95191 -2.4417 0
M  V30 3441 H 331.375 -3.85173 -0.838775 0
M  V30 3442 H 332.663 -4.851 -1.53477 0
M  V30 3443 H 332.061 -3.52345 -4.42571 0
M  V30 3444 H 330.618 -4.35335 -4.85105 0
M  V30 3445 N 334.051 0.0651679 -1.57465 0
M  V30 3446 C 334.981 1.07693 -2.07182 0
M  V30 3447 C 335.962 1.39962 -0.966673 0
M  V30 3448 O 337.147 1.49475 -1.2398 0
M  V30 3449 C 334.277 2.3885 -2.52127 0
M  V30 3450 C 333.231 2.20917 -3.66579 0
M  V30 3451 C 332.557 3.57515 -3.97601 0
M  V30 3452 C 333.857 1.62493 -4.9638 0
M  V30 3453 H 335.551 0.663199 -2.91962 0
M  V30 3454 H 333.097 0.317569 -1.40455 0
M  V30 3455 H 335.05 3.09928 -2.85522 0
M  V30 3456 H 333.774 2.82215 -1.64384 0
M  V30 3457 H 332.433 1.52279 -3.33477 0
M  V30 3458 H 332.081 3.98463 -3.06979 0
M  V30 3459 H 331.781 3.46353 -4.74672 0
M  V30 3460 H 333.305 4.30013 -4.33499 0
M  V30 3461 H 334.719 2.23445 -5.27963 0
M  V30 3462 H 333.116 1.62009 -5.77818 0
M  V30 3463 H 334.186 0.587041 -4.81333 0
M  V30 3464 N 335.529 1.53961 0.336706 0
M  V30 3465 C 336.459 1.85417 1.41925 0
M  V30 3466 C 337.44 0.709856 1.5458 0
M  V30 3467 O 338.625 0.962396 1.68676 0
M  V30 3468 C 335.755 2.06985 2.78881 0
M  V30 3469 C 334.709 3.22813 2.81026 0
M  V30 3470 C 334.035 3.29727 4.20932 0
M  V30 3471 C 335.335 4.60767 2.45949 0
M  V30 3472 H 337.029 2.76079 1.15848 0
M  V30 3473 H 334.575 1.32839 0.555859 0
M  V30 3474 H 336.528 2.27575 3.54665 0
M  V30 3475 H 335.252 1.13061 3.06406 0
M  V30 3476 H 333.911 3.0209 2.07695 0
M  V30 3477 H 333.559 2.33385 4.45579 0
M  V30 3478 H 333.259 4.07566 4.23277 0
M  V30 3479 H 334.783 3.52536 4.98549 0
M  V30 3480 H 336.197 4.81325 3.11446 0
M  V30 3481 H 334.594 5.4106 2.59566 0
M  V30 3482 H 335.664 4.6391 1.41122 0
M  V30 3483 N 337.007 -0.598083 1.45811 0
M  V30 3484 C 337.955 -1.72932 1.55555 0
M  V30 3485 C 338.949 -1.63984 0.424921 0
M  V30 3486 O 340.155 -1.69663 0.601205 0
M  V30 3487 H 336.53 -0.571489 0.488779 0
M  V30 3488 H 338.501 -1.61842 2.50699 0
M  V30 3489 C 337.25 -3.11318 1.54843 0
M  V30 3490 H 336.573 -3.18867 2.41172 0
M  V30 3491 H 338.013 -3.90274 1.65717 0
M  V30 3492 C 336.472 -3.3578 0.274427 0
M  V30 3493 O 337.002 -3.9654 -0.641778 0
M  V30 3494 N 335.208 -2.90119 0.167139 0
M  V30 3495 H 334.755 -2.40855 0.913596 0
M  V30 3496 H 334.713 -3.0686 -0.684435 0
M  V30 3497 N 338.485 -1.33259 -0.841409 0
M  V30 3498 C 339.731 -1.24757 -1.59886 0
M  V30 3499 C 340.064 0.186913 -1.93298 0
M  V30 3500 O 339.339 1.12757 -1.5848 0
M  V30 3501 C 339.622 -2.12036 -2.91055 0
M  V30 3502 C 339.475 -3.63929 -2.6434 0
M  V30 3503 C 340.794 -1.9916 -3.92458 0
M  V30 3504 H 337.913 -0.454542 -0.580138 0
M  V30 3505 H 340.555 -1.63335 -0.970647 0
M  V30 3506 H 338.705 -1.79265 -3.44669 0
M  V30 3507 H 340.377 -4.06978 -2.17178 0
M  V30 3508 H 338.62 -3.85935 -1.98082 0
M  V30 3509 H 339.291 -4.20341 -3.57796 0
M  V30 3510 H 341.767 -2.27895 -3.48143 0
M  V30 3511 H 340.643 -2.62484 -4.82072 0
M  V30 3512 H 340.904 -0.963082 -4.31482 0
M  V30 3513 N 339.963 1.05934 -1.16686 0
M  V30 3514 C 341.211 1.78447 -0.948744 0
M  V30 3515 C 341.532 1.87813 0.524523 0
M  V30 3516 O 340.802 1.38945 1.38098 0
M  V30 3517 H 339.382 0.660971 -0.348033 0
M  V30 3518 H 342.044 1.27947 -1.47022 0
M  V30 3519 H 341.14 2.80394 -1.37061 0
M  V30 3520 N 341.441 0.965919 1.2453 0
M  V30 3521 C 342.852 0.665929 1.7442 0
M  V30 3522 C 343.203 -0.818407 1.78316 0
M  V30 3523 O 342.328 -1.64037 1.41141 0
M  V30 3524 C 342.923 1.20211 3.16757 0
M  V30 3525 C 341.482 0.952059 3.6416 0
M  V30 3526 C 340.629 1.33848 2.42858 0
M  V30 3527 H 343.58 1.14144 1.10258 0
M  V30 3528 H 343.601 0.567544 3.76244 0
M  V30 3529 H 343.113 2.28244 3.13889 0
M  V30 3530 H 341.214 -0.112821 3.72429 0
M  V30 3531 H 341.327 1.59645 4.51719 0
M  V30 3532 H 339.691 0.756864 2.43195 0
M  V30 3533 H 340.474 2.42827 2.42673 0
M  V30 3534 N 342.919 -1.39368 0.735821 0
M  V30 3535 C 344.144 -2.05319 0.293052 0
M  V30 3536 C 344.569 -1.55115 -1.064 0
M  V30 3537 O 343.927 -0.695261 -1.67439 0
M  V30 3538 C 343.975 -3.59305 0.305323 0
M  V30 3539 O 343.079 -4.06299 -0.706761 0
M  V30 3540 H 342.42 -0.650529 0.13307 0
M  V30 3541 H 344.95 -1.78386 1.00197 0
M  V30 3542 H 344.96 -4.07724 0.149997 0
M  V30 3543 H 343.635 -3.95207 1.29553 0
M  V30 3544 H 342.212 -3.69292 -0.517504 0
M  V30 3545 N 344.397 -0.483516 -1.5 0
M  V30 3546 C 345.307 0.309172 -2.32554 0
M  V30 3547 C 346.323 0.984159 -1.43493 0
M  V30 3548 O 347.499 0.969399 -1.76535 0
M  V30 3549 C 344.564 1.36979 -3.18493 0
M  V30 3550 C 343.625 0.710095 -4.23387 0
M  V30 3551 C 342.858 1.72018 -5.05218 0
M  V30 3552 O 343.081 2.94813 -4.88305 0
M  V30 3553 O 342.015 1.28515 -5.8802 0
M  V30 3554 H 345.841 -0.366064 -3.01486 0
M  V30 3555 H 343.426 -0.24514 -1.47375 0
M  V30 3556 H 345.308 1.98385 -3.71781 0
M  V30 3557 H 343.983 2.02828 -2.52275 0
M  V30 3558 H 342.89 0.0567539 -3.74057 0
M  V30 3559 H 344.223 0.0943557 -4.9211 0
M  V30 3560 N 345.875 1.56104 -0.216619 0
M  V30 3561 C 347.291 1.58995 0.13886 0
M  V30 3562 C 347.491 1.23333 1.59346 0
M  V30 3563 O 346.547 0.966234 2.33281 0
M  V30 3564 C 347.86 3.00143 -0.182968 0
M  V30 3565 C 349.408 3.12751 -0.124807 0
M  V30 3566 C 349.883 4.56068 -0.420241 0
M  V30 3567 N 351.374 4.61723 -0.369634 0
M  V30 3568 C 352.109 5.70542 -0.571789 0
M  V30 3569 N 351.605 6.87744 -0.835453 0
M  V30 3570 N 353.398 5.59831 -0.504563 0
M  V30 3571 H 345.549 1.77562 -1.16557 0
M  V30 3572 H 347.812 0.825091 -0.466828 0
M  V30 3573 H 347.518 3.30871 -1.19237 0
M  V30 3574 H 347.392 3.73813 0.504367 0
M  V30 3575 H 349.779 2.81822 0.875223 0
M  V30 3576 H 349.86 2.41421 -0.845544 0
M  V30 3577 H 349.504 4.87713 -1.41769 0
M  V30 3578 H 349.434 5.25617 0.321631 0
M  V30 3579 H 351.925 3.77502 -0.173338 0
M  V30 3580 H 352.238 7.66587 -0.977938 0
M  V30 3581 H 350.583 6.895 -0.872592 0
M  V30 3582 H 353.774 4.67145 -0.298842 0
M  V30 3583 H 353.947 6.44573 -0.665519 0
M  V30 3584 N 347.353 -0.0568162 1.57498 0
M  V30 3585 C 348.283 -1.06593 2.0775 0
M  V30 3586 C 349.264 -1.39448 0.974082 0
M  V30 3587 O 350.449 -1.48815 1.24771 0
M  V30 3588 C 347.579 -2.37509 2.5339 0
M  V30 3589 C 346.533 -2.1897 3.67745 0
M  V30 3590 C 345.859 -3.55402 3.99492 0
M  V30 3591 C 347.159 -1.59859 4.97235 0
M  V30 3592 H 348.853 -0.647706 2.9231 0
M  V30 3593 H 346.399 -0.310116 1.40621 0
M  V30 3594 H 348.352 -3.08409 2.87162 0
M  V30 3595 H 347.076 -2.8134 1.65878 0
M  V30 3596 H 345.735 -1.50508 3.3428 0
M  V30 3597 H 345.383 -3.9683 3.09088 0
M  V30 3598 H 345.083 -3.43831 4.76502 0
M  V30 3599 H 346.607 -4.27708 4.35773 0
M  V30 3600 H 348.021 -2.20642 5.29141 0
M  V30 3601 H 346.418 -1.58942 5.78669 0
M  V30 3602 H 347.488 -0.561506 4.81638 0
M  V30 3603 N 348.832 -1.54138 -0.328536 0
M  V30 3604 C 350.057 -1.76378 -1.09112 0
M  V30 3605 C 350.482 -0.508596 -1.81094 0
M  V30 3606 O 349.84 0.539598 -1.73084 0
M  V30 3607 C 349.888 -2.95358 -2.06872 0
M  V30 3608 O 348.992 -2.66556 -3.14677 0
M  V30 3609 H 348.333 -0.584614 -0.314838 0
M  V30 3610 H 350.863 -2.01146 -0.374348 0
M  V30 3611 H 350.873 -3.22566 -2.4983 0
M  V30 3612 H 349.548 -3.86385 -1.5388 0
M  V30 3613 H 348.125 -2.50282 -2.7643 0
M  V30 3614 N 350.31 0.590341 -1.46126 0
M  V30 3615 C 351.558 1.34616 -1.50742 0
M  V30 3616 C 351.879 1.94363 -0.157486 0
M  V30 3617 O 351.149 1.78136 0.815136 0
M  V30 3618 H 349.729 0.499789 -0.555175 0
M  V30 3619 H 352.391 0.691953 -1.82203 0
M  V30 3620 H 351.487 2.15678 -2.25587 0
M  V30 3621 N 351.788 1.33704 0.83433 0
M  V30 3622 C 353.013 1.28615 1.62705 0
M  V30 3623 C 353.438 -0.139242 1.87584 0
M  V30 3624 O 352.796 -1.09734 1.4432 0
M  V30 3625 C 352.844 2.07139 2.95171 0
M  V30 3626 O 351.948 1.4331 3.86699 0
M  V30 3627 H 351.289 0.44226 0.49528 0
M  V30 3628 H 353.819 1.76335 1.03766 0
M  V30 3629 H 353.829 2.18073 3.44831 0
M  V30 3630 H 352.504 3.10779 2.76386 0
M  V30 3631 H 351.081 1.4105 3.45195 0
M  V30 3632 N 353.266 -1.05314 1.17247 0
M  V30 3633 C 354.196 -2.1498 0.911362 0
M  V30 3634 C 355.177 -1.69471 -0.146169 0
M  V30 3635 O 356.362 -1.942 0.003812 0
M  V30 3636 C 353.492 -3.4472 0.422528 0
M  V30 3637 C 352.446 -4.03789 1.4191 0
M  V30 3638 C 351.772 -5.28858 0.788274 0
M  V30 3639 C 353.072 -4.41418 2.7919 0
M  V30 3640 H 354.766 -2.3708 1.82848 0
M  V30 3641 H 352.312 -1.13938 0.880569 0
M  V30 3642 H 354.265 -4.20787 0.227289 0
M  V30 3643 H 352.989 -3.22269 -0.530123 0
M  V30 3644 H 351.648 -3.2979 1.60106 0
M  V30 3645 H 351.296 -5.02709 -0.171173 0
M  V30 3646 H 350.996 -5.69338 1.45353 0
M  V30 3647 H 352.52 -6.07612 0.603282 0
M  V30 3648 H 353.934 -5.08524 2.64719 0
M  V30 3649 H 352.331 -4.92913 3.42282 0
M  V30 3650 H 353.401 -3.51819 3.33693 0
M  V30 3651 N 354.744 -0.972509 -1.24016 0
M  V30 3652 C 355.707 -0.511403 -2.23422 0
M  V30 3653 C 356.707 0.394679 -1.55881 0
M  V30 3654 O 357.897 0.189469 -1.73167 0
M  V30 3655 C 355.029 0.258769 -3.39916 0
M  V30 3656 H 356.222 -1.39024 -2.6573 0
M  V30 3657 H 353.775 -0.757585 -1.36713 0
M  V30 3658 H 354.51 1.1545 -3.03054 0
M  V30 3659 H 354.295 -0.391522 -3.9014 0
M  V30 3660 H 355.785 0.570244 -4.13688 0
M  V30 3661 N 356.222 1.38976 -0.743202 0
M  V30 3662 C 357.462 2.02193 -0.29954 0
M  V30 3663 C 357.826 1.5771 1.09506 0
M  V30 3664 O 359.027 2.13184 1.63726 0
M  V30 3665 C 357.298 3.55077 -0.406822 0
M  V30 3666 S 358.857 4.38778 -0.0442109 0
M  V30 3667 H 355.675 0.701335 -0.116836 0
M  V30 3668 H 358.277 1.69651 -0.971529 0
M  V30 3669 H 356.981 3.84942 -1.42295 0
M  V30 3670 H 356.512 3.92383 0.282707 0
M  V30 3671 H 358.527 4.82222 1.16947 0
M  V30 3672 N 357.7 0.491464 1.49741 0
M  V30 3673 C 358.663 -0.280906 2.27472 0
M  V30 3674 C 359.663 -0.902454 1.33088 0
M  V30 3675 O 360.853 -0.768465 1.56334 0
M  V30 3676 C 357.985 -1.40209 3.10732 0
M  V30 3677 H 359.178 0.401056 2.97206 0
M  V30 3678 H 356.731 0.246131 1.5435 0
M  V30 3679 H 357.466 -2.11849 2.45541 0
M  V30 3680 H 357.251 -0.961969 3.80117 0
M  V30 3681 H 358.741 -1.9464 3.69466 0
M  V30 3682 N 359.178 -1.55987 0.224894 0
M  V30 3683 C 360.424 -1.98684 -0.406502 0
M  V30 3684 C 360.757 -1.11248 -1.59177 0
M  V30 3685 O 360.032 -0.170909 -1.93748 0
M  V30 3686 C 360.315 -3.50218 -0.837808 0
M  V30 3687 C 360.168 -4.48426 0.351332 0
M  V30 3688 C 361.487 -4.06243 -1.69278 0
M  V30 3689 H 358.606 -0.722337 -0.146283 0
M  V30 3690 H 361.248 -1.87255 0.321799 0
M  V30 3691 H 359.398 -3.60089 -1.45837 0
M  V30 3692 H 361.07 -4.50562 0.989526 0
M  V30 3693 H 359.313 -4.22159 0.998207 0
M  V30 3694 H 359.984 -5.52 0.00655905 0
M  V30 3695 H 362.46 -3.99337 -1.16914 0
M  V30 3696 H 361.336 -5.12581 -1.96346 0
M  V30 3697 H 361.597 -3.53332 -2.65723 0
M  V30 3698 N 360.656 0.0484629 -1.57525 0
M  V30 3699 C 361.905 0.742065 -1.87553 0
M  V30 3700 C 362.218 1.77545 -0.820802 0
M  V30 3701 O 363.424 2.52027 -1.00967 0
M  V30 3702 C 361.88 1.37081 -3.32771 0
M  V30 3703 C 361.488 0.374786 -4.4643 0
M  V30 3704 C 363.232 2.04542 -3.71972 0
M  V30 3705 C 361.139 1.01077 -5.82698 0
M  V30 3706 H 360.069 0.280903 -0.699721 0
M  V30 3707 H 362.72 -0.00411877 -1.835 0
M  V30 3708 H 361.102 2.16605 -3.31509 0
M  V30 3709 H 362.276 -0.392331 -4.59127 0
M  V30 3710 H 360.591 -0.196653 -4.15935 0
M  V30 3711 H 363.188 2.52943 -4.71088 0
M  V30 3712 H 363.531 2.85515 -3.02964 0
M  V30 3713 H 364.064 1.31819 -3.75325 0
M  V30 3714 H 360.803 0.240878 -6.55057 0
M  V30 3715 H 360.323 1.74819 -5.73758 0
M  V30 3716 H 362.002 1.52383 -6.28799 0
M  V30 3717 N 362.134 1.5431 0.320358 0
M  V30 3718 C 363.097 1.83195 1.3774 0
M  V30 3719 C 364.097 0.703906 1.44575 0
M  V30 3720 O 365.287 0.972214 1.44546 0
M  V30 3721 C 362.419 1.99487 2.76438 0
M  V30 3722 H 363.612 2.77642 1.1338 0
M  V30 3723 H 361.165 1.46076 0.556012 0
M  V30 3724 H 361.9 1.07262 3.06048 0
M  V30 3725 H 361.685 2.81575 2.7287 0
M  V30 3726 H 363.175 2.23271 3.52902 0
M  V30 3727 N 363.613 -0.582584 1.46437 0
M  V30 3728 C 364.576 -1.67366 1.56592 0
M  V30 3729 C 365.576 -1.54575 0.443072 0
M  V30 3730 O 366.766 -1.59191 0.707381 0
M  V30 3731 C 363.898 -3.06791 1.48634 0
M  V30 3732 H 365.091 -1.5972 2.5383 0
M  V30 3733 H 362.644 -0.800432 1.34249 0
M  V30 3734 H 363.379 -3.19993 0.526763 0
M  V30 3735 H 363.164 -3.17484 2.30101 0
M  V30 3736 H 364.654 -3.86218 1.58826 0
M  V30 3737 N 365.091 -1.34144 -0.827227 0
M  V30 3738 C 366.024 -1.19707 -1.94282 0
M  V30 3739 C 367.002 -0.0897256 -1.62352 0
M  V30 3740 O 368.186 -0.254095 -1.8678 0
M  V30 3741 C 365.313 -0.838646 -3.28153 0
M  V30 3742 C 364.359 -1.95514 -3.79047 0
M  V30 3743 S 365.192 -3.56793 -3.99323 0
M  V30 3744 C 366.348 -3.22983 -5.36127 0
M  V30 3745 H 366.581 -2.1414 -2.06231 0
M  V30 3746 H 364.114 -1.19121 -0.982321 0
M  V30 3747 H 366.072 -0.638637 -4.05502 0
M  V30 3748 H 364.733 0.0872776 -3.13979 0
M  V30 3749 H 363.926 -1.658 -4.75948 0
M  V30 3750 H 363.528 -2.11241 -3.08631 0
M  V30 3751 H 365.82 -2.74531 -6.19386 0
M  V30 3752 H 366.763 -4.19008 -5.70822 0
M  V30 3753 H 367.171 -2.59276 -5.01434 0
M  V30 3754 N 366.569 1.04691 -1.17803 0
M  V30 3755 C 367.501 2.12571 -0.857097 0
M  V30 3756 C 368.514 1.62174 0.142647 0
M  V30 3757 O 369.703 1.78301 -0.0843387 0
M  V30 3758 C 366.803 3.37915 -0.258216 0
M  V30 3759 C 365.976 4.1757 -1.30207 0
M  V30 3760 C 365.035 5.2125 -0.720029 0
M  V30 3761 O 364.061 5.51888 -1.39314 0
M  V30 3762 N 365.263 5.78466 0.485507 0
M  V30 3763 H 368.028 2.40698 -1.78562 0
M  V30 3764 H 365.589 1.20831 -1.07757 0
M  V30 3765 H 367.581 4.04442 0.144584 0
M  V30 3766 H 366.151 3.07281 0.574199 0
M  V30 3767 H 365.371 3.46458 -1.88043 0
M  V30 3768 H 366.659 4.67586 -2.00601 0
M  V30 3769 H 366.057 5.55866 1.05022 0
M  V30 3770 H 364.614 6.4649 0.830307 0
M  V30 3771 N 368.047 0.979072 1.23499 0
M  V30 3772 C 369.295 0.645941 1.91499 0
M  V30 3773 C 369.616 -0.822948 1.76784 0
M  V30 3774 O 368.886 -1.58854 1.14639 0
M  V30 3775 H 367.466 0.235919 0.708767 0
M  V30 3776 H 370.128 1.2426 1.50152 0
M  V30 3777 H 369.224 0.896411 2.9895 0
M  V30 3778 N 369.525 -1.3858 0.750561 0
M  V30 3779 C 370.488 -2.28836 0.129152 0
M  V30 3780 C 371.488 -1.47045 -0.650714 0
M  V30 3781 O 372.678 -1.6753 -0.477428 0
M  V30 3782 C 369.81 -3.30751 -0.825622 0
M  V30 3783 H 371.003 -2.85294 0.924516 0
M  V30 3784 H 368.556 -1.47489 0.517376 0
M  V30 3785 H 369.291 -2.79378 -1.64677 0
M  V30 3786 H 369.076 -3.91177 -0.268852 0
M  V30 3787 H 370.566 -3.98249 -1.2565 0
M  V30 3788 N 371.003 -0.499398 -1.49478 0
M  V30 3789 C 371.953 0.299103 -2.2603 0
M  V30 3790 C 372.937 0.936934 -1.30807 0
M  V30 3791 O 374.129 0.844798 -1.55538 0
M  V30 3792 C 371.258 1.36391 -3.15044 0
M  V30 3793 C 370.344 0.732398 -4.17728 0
M  V30 3794 N 370.735 -0.164028 -5.05534 0
M  V30 3795 C 369.033 0.993162 -4.34801 0
M  V30 3796 C 369.734 -0.525345 -5.79323 0
M  V30 3797 N 368.71 0.106348 -5.43496 0
M  V30 3798 H 372.512 -0.391003 -2.91287 0
M  V30 3799 H 370.026 -0.31537 -1.59308 0
M  V30 3800 H 372.023 1.94939 -3.68516 0
M  V30 3801 H 370.683 2.05571 -2.51338 0
M  V30 3802 H 371.694 -0.534736 -5.15132 0
M  V30 3803 H 368.371 1.67783 -3.82302 0
M  V30 3804 H 369.761 -1.25862 -6.60006 0
M  V30 3805 N 372.481 1.55866 -0.233164 0
M  V30 3806 C 373.73 1.97779 0.39579 0
M  V30 3807 C 374.043 1.12419 1.60066 0
M  V30 3808 O 375.249 1.44283 2.29988 0
M  V30 3809 C 373.705 3.5188 0.755556 0
M  V30 3810 C 373.313 4.45959 -0.427152 0
M  V30 3811 C 375.057 4.02479 1.34946 0
M  V30 3812 C 372.964 5.91383 -0.0443043 0
M  V30 3813 H 371.894 0.738592 0.15165 0
M  V30 3814 H 374.545 1.80486 -0.331212 0
M  V30 3815 H 372.927 3.64816 1.5403 0
M  V30 3816 H 374.101 4.44776 -1.20462 0
M  V30 3817 H 372.416 4.05765 -0.935068 0
M  V30 3818 H 375.013 5.08637 1.649 0
M  V30 3819 H 375.356 3.49014 2.26925 0
M  V30 3820 H 375.889 3.92813 0.62791 0
M  V30 3821 H 372.628 6.48857 -0.930874 0
M  V30 3822 H 372.148 5.95734 0.697238 0
M  V30 3823 H 373.827 6.45893 0.378334 0
M  V30 3824 N 373.959 -0.0401083 1.57549 0
M  V30 3825 C 375.208 -0.732108 1.87944 0
M  V30 3826 C 375.521 -1.77107 0.830206 0
M  V30 3827 O 376.727 -2.51488 1.02302 0
M  V30 3828 C 375.183 -1.35315 3.33494 0
M  V30 3829 C 374.791 -0.351105 4.46622 0
M  V30 3830 C 376.535 -2.02566 3.73051 0
M  V30 3831 C 374.442 -0.979859 5.83226 0
M  V30 3832 H 373.372 -0.277188 0.701201 0
M  V30 3833 H 376.023 0.0138501 1.83495 0
M  V30 3834 H 374.405 -2.14844 3.32653 0
M  V30 3835 H 375.579 0.416674 4.58912 0
M  V30 3836 H 373.894 0.218708 4.15825 0
M  V30 3837 H 376.491 -2.50441 4.72423 0
M  V30 3838 H 376.834 -2.83904 3.04474 0
M  V30 3839 H 377.367 -1.29827 3.76018 0
M  V30 3840 H 374.106 -0.206135 6.55176 0
M  V30 3841 H 373.626 -1.71774 5.74677 0
M  V30 3842 H 375.305 -1.49046 6.29599 0
M  V30 3843 N 375.437 -1.54477 -0.31217 0
M  V30 3844 C 376.853 -1.45442 -0.657185 0
M  V30 3845 C 377.053 -0.63653 -1.91182 0
M  V30 3846 O 376.109 -0.139815 -2.52113 0
M  V30 3847 C 377.422 -2.89287 -0.82058 0
M  V30 3848 C 378.97 -2.9926 -0.917188 0
M  V30 3849 C 379.445 -4.44279 -1.11267 0
M  V30 3850 N 380.936 -4.4794 -1.17914 0
M  V30 3851 C 381.671 -5.57318 -1.34848 0
M  V30 3852 N 381.167 -6.76642 -1.48752 0
M  V30 3853 N 382.96 -5.44986 -1.37647 0
M  V30 3854 H 375.111 -2.06129 0.512313 0
M  V30 3855 H 377.374 -0.933088 0.167485 0
M  V30 3856 H 377.08 -3.51687 0.0302604 0
M  V30 3857 H 376.954 -3.36061 -1.71298 0
M  V30 3858 H 379.341 -2.36981 -1.75852 0
M  V30 3859 H 379.422 -2.558 -0.00101257 0
M  V30 3860 H 379.066 -5.07149 -0.27614 0
M  V30 3861 H 378.996 -4.85359 -2.04289 0
M  V30 3862 H 381.487 -3.61969 -1.08567 0
M  V30 3863 H 381.8 -7.55758 -1.61397 0
M  V30 3864 H 380.145 -6.79529 -1.45828 0
M  V30 3865 H 383.336 -4.50715 -1.26388 0
M  V30 3866 H 383.509 -6.3028 -1.50501 0
M  V30 3867 N 376.915 0.57481 -1.46744 0
M  V30 3868 C 378.161 1.3347 -1.52688 0
M  V30 3869 C 378.494 1.93353 -0.181229 0
M  V30 3870 O 377.769 1.76912 0.808237 0
M  V30 3871 C 378.052 2.45811 -2.63152 0
M  V30 3872 C 377.905 1.90912 -4.07275 0
M  V30 3873 C 379.224 3.47822 -2.69644 0
M  V30 3874 H 376.343 0.483935 -0.555856 0
M  V30 3875 H 378.985 0.644968 -1.78718 0
M  V30 3876 H 377.135 3.04646 -2.41088 0
M  V30 3877 H 378.807 1.36473 -4.4065 0
M  V30 3878 H 377.05 1.21691 -4.16382 0
M  V30 3879 H 377.721 2.72042 -4.80309 0
M  V30 3880 H 380.197 2.9888 -2.895 0
M  V30 3881 H 379.073 4.23876 -3.48742 0
M  V30 3882 H 379.334 4.05555 -1.76005 0
M  V30 3883 N 378.394 1.34581 0.820102 0
M  V30 3884 C 379.344 1.22943 1.92013 0
M  V30 3885 C 380.328 0.127802 1.60392 0
M  V30 3886 O 381.52 0.357737 1.73347 0
M  V30 3887 C 378.649 0.989938 3.28717 0
M  V30 3888 C 377.735 2.13486 3.66449 0
M  V30 3889 N 378.126 3.38625 3.75722 0
M  V30 3890 C 376.424 2.04573 3.96315 0
M  V30 3891 C 377.125 4.13832 4.08801 0
M  V30 3892 N 376.101 3.42451 4.22171 0
M  V30 3893 H 379.903 2.17771 1.97365 0
M  V30 3894 H 377.417 1.2686 1.01392 0
M  V30 3895 H 379.414 0.887462 4.07345 0
M  V30 3896 H 378.074 0.0503691 3.24661 0
M  V30 3897 H 379.085 3.73143 3.59144 0
M  V30 3898 H 375.762 1.1839 4.00362 0
M  V30 3899 H 377.152 5.21909 4.23156 0
M  V30 3900 N 379.872 -1.04064 1.18357 0
M  V30 3901 C 381.149 -1.74252 0.888581 0
M  V30 3902 C 381.529 -2.02138 -0.60856 0
M  V30 3903 O 380.877 -1.66656 -1.56327 0
M  V30 3904 C 381.087 -3.0277 1.73584 0
M  V30 3905 C 382.435 -3.76506 1.96286 0
M  V30 3906 O 383.459 -3.12668 1.70637 0
M  V30 3907 O 382.318 -4.91243 2.39464 0
M  V30 3908 H 379.412 -0.758271 0.330082 0
M  V30 3909 H 381.958 -1.1013 1.2911 0
M  V30 3910 H 380.73 -2.78299 2.75073 0
M  V30 3911 H 380.353 -3.74631 1.33183 0
M  V30 3912 N 381.35 -0.985608 -1.22978 0
M  V30 3913 C 382.596 -0.65836 -1.91816 0
M  V30 3914 C 382.929 0.806692 -1.76653 0
M  V30 3915 O 382.204 1.58252 -1.13078 0
M  V30 3916 C 382.487 -1.056 -3.44268 0
M  V30 3917 C 382.34 -2.57906 -3.68516 0
M  V30 3918 C 383.659 -0.603781 -4.35939 0
M  V30 3919 H 380.778 -0.24065 -0.696604 0
M  V30 3920 H 383.42 -1.22783 -1.44998 0
M  V30 3921 H 381.57 -0.571445 -3.84274 0
M  V30 3922 H 383.242 -3.13976 -3.3796 0
M  V30 3923 H 381.485 -3.00305 -3.13048 0
M  V30 3924 H 382.156 -2.80779 -4.75255 0
M  V30 3925 H 384.632 -1.01987 -4.03408 0
M  V30 3926 H 383.508 -0.910383 -5.41298 0
M  V30 3927 H 383.769 0.495761 -4.39312 0
M  V30 3928 N 382.828 1.3818 -0.7579 0
M  V30 3929 C 383.775 2.30416 -0.133057 0
M  V30 3930 C 384.745 1.50398 0.704957 0
M  V30 3931 O 385.93 1.79014 0.660192 0
M  V30 3932 C 383.07 3.36834 0.750813 0
M  V30 3933 C 382.183 4.31879 -0.102297 0
M  V30 3934 C 381.318 5.25368 0.784979 0
M  V30 3935 C 380.357 6.12058 -0.0715046 0
M  V30 3936 N 379.494 6.97832 0.772972 0
M  V30 3937 H 384.334 2.83274 -0.925186 0
M  V30 3938 H 381.871 1.39461 -0.467866 0
M  V30 3939 H 383.829 3.97145 1.27794 0
M  V30 3940 H 382.459 2.85374 1.50868 0
M  V30 3941 H 381.511 3.72991 -0.747095 0
M  V30 3942 H 382.823 4.92921 -0.763552 0
M  V30 3943 H 381.977 5.90818 1.37911 0
M  V30 3944 H 380.716 4.64703 1.47996 0
M  V30 3945 H 379.721 5.456 -0.678272 0
M  V30 3946 H 380.946 6.74793 -0.763606 0
M  V30 3947 H 378.892 6.3971 1.45282 0
M  V30 3948 H 378.809 7.55812 0.168709 0
M  V30 3949 H 380.077 7.67687 1.35194 0
M  V30 3950 N 384.306 0.507319 1.49211 0
M  V30 3951 C 385.216 -0.272136 2.33016 0
M  V30 3952 C 386.232 -0.961206 1.45041 0
M  V30 3953 O 387.408 -0.941191 1.78055 0
M  V30 3954 C 384.473 -1.31895 3.20631 0
M  V30 3955 C 383.534 -0.642648 4.24463 0
M  V30 3956 C 382.767 -1.63959 5.07891 0
M  V30 3957 O 382.99 -2.87007 4.92933 0
M  V30 3958 O 381.924 -1.19143 5.8999 0
M  V30 3959 H 385.75 0.413982 3.00865 0
M  V30 3960 H 383.335 0.268556 1.46966 0
M  V30 3961 H 385.217 -1.92446 3.7489 0
M  V30 3962 H 383.892 -1.98788 2.5547 0
M  V30 3963 H 382.799 0.00276252 3.741 0
M  V30 3964 H 384.132 -0.0160534 4.92197 0
M  V30 3965 N 385.784 -1.5574 0.241426 0
M  V30 3966 C 387.012 -2.03208 -0.389134 0
M  V30 3967 C 387.427 -1.12082 -1.51931 0
M  V30 3968 O 386.784 -0.134183 -1.82006 0
M  V30 3969 C 386.835 -3.50064 -0.902087 0
M  V30 3970 O 386.556 -4.37717 0.18305 0
M  V30 3971 C 388.057 -4.13268 -1.60389 0
M  V30 3972 H 385.277 -0.664509 -0.0931053 0
M  V30 3973 H 387.821 -2.0124 0.36369 0
M  V30 3974 H 385.976 -3.52583 -1.60511 0
M  V30 3975 H 386.39 -5.24097 -0.205579 0
M  V30 3976 H 387.864 -5.17733 -1.91458 0
M  V30 3977 H 388.341 -3.59434 -2.52397 0
M  V30 3978 H 388.947 -4.14655 -0.945576 0
M  V30 3979 N 387.262 0.0317525 -1.57568 0
M  V30 3980 C 388.508 0.724175 -1.8943 0
M  V30 3981 C 388.841 1.75149 -0.838836 0
M  V30 3982 O 388.116 1.93948 0.146422 0
M  V30 3983 C 388.399 1.39615 -3.31933 0
M  V30 3984 C 388.252 0.382537 -4.4817 0
M  V30 3985 C 389.571 2.33084 -3.73309 0
M  V30 3986 H 386.69 0.261797 -0.688935 0
M  V30 3987 H 389.332 -0.013017 -1.89996 0
M  V30 3988 H 387.482 2.02451 -3.31581 0
M  V30 3989 H 389.154 -0.243689 -4.60656 0
M  V30 3990 H 387.397 -0.29844 -4.32772 0
M  V30 3991 H 388.068 0.891145 -5.44759 0
M  V30 3992 H 390.544 1.80295 -3.7501 0
M  V30 3993 H 389.42 2.77084 -4.73831 0
M  V30 3994 H 389.681 3.19643 -3.05419 0
M  V30 3995 N 388.74 1.54641 0.303973 0
M  V30 3996 C 389.65 1.88439 1.39743 0
M  V30 3997 C 390.666 0.778239 1.55626 0
M  V30 3998 O 391.842 1.07442 1.70347 0
M  V30 3999 C 388.907 2.12212 2.74166 0
M  V30 4000 C 387.968 3.35936 2.67293 0
M  V30 4001 C 387.201 3.58566 3.95305 0
M  V30 4002 O 387.424 2.84263 4.9452 0
M  V30 4003 O 386.358 4.52078 3.97378 0
M  V30 4004 H 390.184 2.81458 1.14083 0
M  V30 4005 H 387.769 1.40793 0.499768 0
M  V30 4006 H 389.651 2.29067 3.53704 0
M  V30 4007 H 388.326 1.22379 2.99675 0
M  V30 4008 H 387.233 3.24448 1.86237 0
M  V30 4009 H 388.566 4.2589 2.46736 0
M  V30 4010 N 390.218 -0.567019 1.47046 0
M  V30 4011 C 391.181 -1.65696 1.58359 0
M  V30 4012 C 392.181 -1.54097 0.459441 0
M  V30 4013 O 393.371 -1.58432 0.724225 0
M  V30 4014 C 390.503 -3.05197 1.51879 0
M  V30 4015 H 391.696 -1.57019 2.5551 0
M  V30 4016 H 389.249 -0.786148 1.3509 0
M  V30 4017 H 389.984 -3.19417 0.560673 0
M  V30 4018 H 389.769 -3.15025 2.33455 0
M  V30 4019 H 391.259 -3.84511 1.62913 0
M  V30 4020 N 391.696 -1.35014 -0.812953 0
M  V30 4021 C 392.629 -1.21761 -1.93001 0
M  V30 4022 C 393.607 -0.10694 -1.62248 0
M  V30 4023 O 394.791 -0.273891 -1.865 0
M  V30 4024 C 391.918 -0.873404 -3.27245 0
M  V30 4025 C 390.964 -1.99523 -3.76952 0
M  V30 4026 S 391.797 -3.61009 -3.95516 0
M  V30 4027 C 392.953 -3.28651 -5.32672 0
M  V30 4028 H 393.186 -2.16315 -2.03948 0
M  V30 4029 H 390.719 -1.20156 -0.969631 0
M  V30 4030 H 392.677 -0.68161 -4.04802 0
M  V30 4031 H 391.338 0.053971 -3.14054 0
M  V30 4032 H 390.531 -1.70838 -4.74163 0
M  V30 4033 H 390.133 -2.14503 -3.06373 0
M  V30 4034 H 392.425 -2.81085 -6.1644 0
M  V30 4035 H 393.368 -4.25039 -5.66346 0
M  V30 4036 H 393.776 -2.6458 -4.98656 0
M  V30 4037 N 393.175 1.03435 -1.18907 0
M  V30 4038 C 394.591 1.28973 -0.940111 0
M  V30 4039 C 394.791 1.97676 0.390691 0
M  V30 4040 O 393.847 2.26127 1.12352 0
M  V30 4041 C 395.16 2.14221 -2.11021 0
M  V30 4042 C 396.708 2.27547 -2.14922 0
M  V30 4043 C 397.183 3.16164 -3.31367 0
M  V30 4044 N 398.674 3.23752 -3.31269 0
M  V30 4045 C 399.409 3.92495 -4.18014 0
M  V30 4046 N 398.905 4.63515 -5.14904 0
M  V30 4047 N 400.698 3.88838 -4.05908 0
M  V30 4048 H 392.849 0.57252 -2.04538 0
M  V30 4049 H 395.112 0.315184 -0.894071 0
M  V30 4050 H 394.818 1.71054 -3.073 0
M  V30 4051 H 394.692 3.14919 -2.0762 0
M  V30 4052 H 397.079 2.69947 -1.19217 0
M  V30 4053 H 397.16 1.26418 -2.22378 0
M  V30 4054 H 396.804 2.74474 -4.27348 0
M  V30 4055 H 396.734 4.17339 -3.21148 0
M  V30 4056 H 399.225 2.73167 -2.61129 0
M  V30 4057 H 399.538 5.13583 -5.77453 0
M  V30 4058 H 397.883 4.62398 -5.18857 0
M  V30 4059 H 401.074 3.32491 -3.29495 0
M  V30 4060 H 401.247 4.4214 -4.73726 0
M  V30 4061 N 394.653 0.992116 1.22453 0
M  V30 4062 C 395.899 0.668523 1.91464 0
M  V30 4063 C 396.232 -0.797313 1.77078 0
M  V30 4064 O 395.507 -1.5765 1.13916 0
M  V30 4065 C 395.79 1.07424 3.43703 0
M  V30 4066 C 395.643 2.59857 3.67143 0
M  V30 4067 C 396.962 0.626891 4.35612 0
M  V30 4068 H 394.081 0.244341 0.695318 0
M  V30 4069 H 396.723 1.2355 1.44345 0
M  V30 4070 H 394.873 0.591816 3.83966 0
M  V30 4071 H 396.545 3.15764 3.3629 0
M  V30 4072 H 394.788 3.01961 3.11451 0
M  V30 4073 H 395.459 2.83296 4.73759 0
M  V30 4074 H 397.935 1.04125 4.02861 0
M  V30 4075 H 396.811 0.939076 5.40807 0
M  V30 4076 H 397.072 -0.472457 4.39568 0
M  V30 4077 N 396.131 -1.37776 0.765217 0
M  V30 4078 C 397.377 -2.00145 0.327072 0
M  V30 4079 C 397.71 -1.60607 -1.09175 0
M  V30 4080 O 396.985 -0.849127 -1.74986 0
M  V30 4081 C 397.268 -3.57109 0.46319 0
M  V30 4082 C 397.121 -4.06576 1.92395 0
M  V30 4083 C 398.44 -4.39888 -0.136473 0
M  V30 4084 H 395.559 -0.727113 0.120316 0
M  V30 4085 H 398.201 -1.63549 0.967039 0
M  V30 4086 H 396.351 -3.88414 -0.0816358 0
M  V30 4087 H 398.023 -3.85864 2.52798 0
M  V30 4088 H 396.266 -3.59011 2.43503 0
M  V30 4089 H 396.937 -5.15639 1.97028 0
M  V30 4090 H 399.413 -4.14803 0.328317 0
M  V30 4091 H 398.289 -5.48899 -0.0110582 0
M  V30 4092 H 398.55 -4.24758 -1.22608 0
M  V30 4093 N 397.609 -0.515225 -1.4894 0
M  V30 4094 C 398.519 0.259774 -2.33157 0
M  V30 4095 C 399.535 0.953501 -1.45548 0
M  V30 4096 O 400.711 0.931735 -1.78552 0
M  V30 4097 C 397.776 1.30193 -3.21326 0
M  V30 4098 C 396.837 0.620129 -4.24797 0
M  V30 4099 C 396.07 1.61263 -5.08753 0
M  V30 4100 O 396.293 2.84389 -4.94448 0
M  V30 4101 O 395.227 1.16013 -5.90614 0
M  V30 4102 H 399.053 -0.429932 -3.00641 0
M  V30 4103 H 396.638 -0.276346 -1.46822 0
M  V30 4104 H 398.52 1.90455 -3.75905 0
M  V30 4105 H 397.195 1.97431 -2.56521 0
M  V30 4106 H 396.102 -0.0226019 -3.74093 0
M  V30 4107 H 397.435 -0.0100493 -4.92199 0
M  V30 4108 N 399.087 1.5561 -0.249682 0
M  V30 4109 C 400.05 2.20217 0.635394 0
M  V30 4110 C 401.05 1.17227 1.10066 0
M  V30 4111 O 402.24 1.42292 1.00492 0
M  V30 4112 C 399.372 2.84794 1.87363 0
M  V30 4113 H 400.565 2.99814 0.0716752 0
M  V30 4114 H 398.118 1.563 -0.000153234 0
M  V30 4115 H 398.853 2.09142 2.47851 0
M  V30 4116 H 398.638 3.60241 1.5482 0
M  V30 4117 H 400.128 3.3423 2.5036 0
M  V30 4118 N 400.565 -0.0233959 1.57583 0
M  V30 4119 C 401.793 -0.724682 1.93794 0
M  V30 4120 C 402.208 -1.68588 0.849912 0
M  V30 4121 O 401.565 -1.81676 -0.173204 0
M  V30 4122 C 401.616 -1.47684 3.29957 0
M  V30 4123 O 401.337 -0.554222 4.3458 0
M  V30 4124 C 402.838 -2.27477 3.80485 0
M  V30 4125 H 400.058 -0.203317 0.639455 0
M  V30 4126 H 402.602 0.0207653 2.04489 0
M  V30 4127 H 400.757 -2.17412 3.20641 0
M  V30 4128 H 401.171 -1.08232 5.13212 0
M  V30 4129 H 402.645 -2.7564 4.78254 0
M  V30 4130 H 403.122 -3.09144 3.11972 0
M  V30 4131 H 403.728 -1.62813 3.92902 0
M  V30 4132 N 402.043 -1.548 -0.295768 0
M  V30 4133 C 402.973 -1.89115 -1.36959 0
M  V30 4134 C 403.954 -0.75059 -1.52644 0
M  V30 4135 O 405.139 -1.00678 -1.66065 0
M  V30 4136 C 402.269 -2.14307 -2.73295 0
M  V30 4137 C 401.223 -3.30151 -2.72368 0
M  V30 4138 C 400.549 -3.40772 -4.12042 0
M  V30 4139 C 401.849 -4.67126 -2.33646 0
M  V30 4140 H 403.543 -2.79053 -1.08488 0
M  V30 4141 H 401.089 -1.34266 -0.520443 0
M  V30 4142 H 403.042 -2.36898 -3.48507 0
M  V30 4143 H 401.766 -1.21145 -3.03301 0
M  V30 4144 H 400.425 -3.0749 -1.99613 0
M  V30 4145 H 400.073 -2.45117 -4.39234 0
M  V30 4146 H 399.773 -4.18645 -4.12322 0
M  V30 4147 H 401.297 -3.6563 -4.89027 0
M  V30 4148 H 402.711 -4.89414 -2.98575 0
M  V30 4149 H 401.108 -5.47751 -2.45129 0
M  V30 4150 H 402.178 -4.67489 -1.28772 0
M  V30 4151 N 403.521 0.559213 -1.47345 0
M  V30 4152 C 404.746 1.34676 -1.57725 0
M  V30 4153 C 405.171 1.86723 -0.227164 0
M  V30 4154 O 404.529 1.6286 0.796642 0
M  V30 4155 C 404.577 2.49399 -2.60447 0
M  V30 4156 O 403.681 3.51567 -2.15578 0
M  V30 4157 H 403.022 0.400115 -0.52991 0
M  V30 4158 H 405.552 0.676009 -1.93109 0
M  V30 4159 H 405.562 2.95996 -2.80803 0
M  V30 4160 H 404.237 2.10873 -3.58477 0
M  V30 4161 H 402.814 3.11289 -2.05313 0
M  V30 4162 N 404.999 1.35443 0.805782 0
M  V30 4163 C 405.962 1.28301 1.89925 0
M  V30 4164 C 406.962 0.194285 1.59622 0
M  V30 4165 O 408.152 0.448036 1.6834 0
M  V30 4166 C 405.284 0.984997 3.2636 0
M  V30 4167 H 406.477 2.2553 1.97677 0
M  V30 4168 H 404.03 1.19979 1.00173 0
M  V30 4169 H 404.765 0.016603 3.24296 0
M  V30 4170 H 404.55 1.77269 3.4974 0
M  V30 4171 H 406.04 0.960651 4.064 0
M  V30 4172 N 406.477 -1.02803 1.19454 0
M  V30 4173 C 407.424 -2.11099 0.933046 0
M  V30 4174 C 408.394 -1.65571 -0.132447 0
M  V30 4175 O 409.579 -1.90797 0.00987576 0
M  V30 4176 C 406.719 -3.41763 0.478747 0
M  V30 4177 C 405.832 -4.00833 1.6111 0
M  V30 4178 C 404.967 -5.19511 1.10825 0
M  V30 4179 C 404.006 -5.70639 2.21445 0
M  V30 4180 N 403.143 -6.80589 1.72461 0
M  V30 4181 H 407.983 -2.32804 1.86028 0
M  V30 4182 H 405.52 -1.14179 0.927441 0
M  V30 4183 H 407.478 -4.16736 0.196745 0
M  V30 4184 H 406.108 -3.20166 -0.411493 0
M  V30 4185 H 405.16 -3.23066 2.00829 0
M  V30 4186 H 406.472 -4.34794 2.4445 0
M  V30 4187 H 405.626 -6.01645 0.781533 0
M  V30 4188 H 404.365 -4.87086 0.244606 0
M  V30 4189 H 403.37 -4.87116 2.54947 0
M  V30 4190 H 404.595 -6.05102 3.08267 0
M  V30 4191 H 402.541 -6.50016 0.884056 0
M  V30 4192 H 402.458 -7.13681 2.49389 0
M  V30 4193 H 403.726 -7.66317 1.42755 0
M  V30 4194 N 407.956 -0.998596 -1.21925 0
M  V30 4195 C 408.866 -0.562736 -2.27751 0
M  V30 4196 C 409.882 0.391203 -1.69545 0
M  V30 4197 O 411.058 0.256625 -1.99758 0
M  V30 4198 C 408.123 0.11012 -3.46525 0
M  V30 4199 C 407.184 -0.887495 -4.20026 0
M  V30 4200 C 406.417 -0.246654 -5.3313 0
M  V30 4201 O 406.64 0.958088 -5.62296 0
M  V30 4202 O 405.574 -0.954374 -5.94286 0
M  V30 4203 H 409.4 -1.44329 -2.67213 0
M  V30 4204 H 406.985 -0.767135 -1.28201 0
M  V30 4205 H 408.867 0.486756 -4.18579 0
M  V30 4206 H 407.542 0.965154 -3.08976 0
M  V30 4207 H 406.449 -1.31517 -3.5022 0
M  V30 4208 H 407.782 -1.71191 -4.6147 0
M  V30 4209 N 409.434 1.37368 -0.772513 0
M  V30 4210 C 410.382 2.32134 -0.147111 0
M  V30 4211 C 411.376 1.54972 0.684106 0
M  V30 4212 O 412.582 1.70363 0.581083 0
M  V30 4213 H 408.957 0.751449 -0.028786 0
M  V30 4214 H 410.928 2.82464 -0.962112 0
M  V30 4215 C 409.677 3.40226 0.71703 0
M  V30 4216 H 409 3.99706 0.0867951 0
M  V30 4217 H 410.44 4.08897 1.12159 0
M  V30 4218 C 408.899 2.80372 1.86797 0
M  V30 4219 O 409.429 2.71183 2.96349 0
M  V30 4220 N 407.635 2.37904 1.66883 0
M  V30 4221 H 407.182 2.45578 0.777759 0
M  V30 4222 H 407.14 1.98202 2.44056 0
M  V30 4223 N 410.912 0.523116 1.48665 0
M  V30 4224 C 411.859 -0.243398 2.29513 0
M  V30 4225 C 412.829 -0.940139 1.36933 0
M  V30 4226 O 414.014 -0.942503 1.65896 0
M  V30 4227 C 411.154 -1.28855 3.20141 0
M  V30 4228 C 410.267 -0.60135 4.27794 0
M  V30 4229 C 409.402 -1.62884 5.05611 0
M  V30 4230 C 408.441 -0.924726 6.05075 0
M  V30 4231 N 407.578 -1.89744 6.75975 0
M  V30 4232 H 412.418 0.452234 2.94549 0
M  V30 4233 H 409.955 0.234858 1.45213 0
M  V30 4234 H 411.913 -1.90674 3.71079 0
M  V30 4235 H 410.543 -1.95266 2.57043 0
M  V30 4236 H 409.595 0.130623 3.80176 0
M  V30 4237 H 410.907 -0.0481585 4.98777 0
M  V30 4238 H 410.061 -2.32149 5.60528 0
M  V30 4239 H 408.8 -2.21592 4.34452 0
M  V30 4240 H 407.805 -0.217966 5.49368 0
M  V30 4241 H 409.03 -0.343851 6.78229 0
M  V30 4242 H 406.976 -2.47373 6.07571 0
M  V30 4243 H 406.893 -1.3955 7.43009 0
M  V30 4244 H 408.161 -2.58229 7.35485 0
M  V30 4245 N 412.39 -1.55475 0.257931 0
M  V30 4246 C 413.806 -1.59307 -0.0966563 0
M  V30 4247 C 414.006 -1.27514 -1.5602 0
M  V30 4248 O 413.062 -1.02774 -2.30637 0
M  V30 4249 C 414.375 -2.99552 0.262481 0
M  V30 4250 C 415.923 -3.1231 0.207683 0
M  V30 4251 C 416.398 -4.54793 0.541012 0
M  V30 4252 N 417.889 -4.6058 0.491921 0
M  V30 4253 C 418.624 -5.68825 0.722857 0
M  V30 4254 N 418.12 -6.85287 1.0175 0
M  V30 4255 N 419.913 -5.58296 0.652815 0
M  V30 4256 H 412.064 -1.74409 1.21224 0
M  V30 4257 H 414.327 -0.812424 0.48854 0
M  V30 4258 H 414.033 -3.27593 1.27967 0
M  V30 4259 H 413.907 -3.75019 -0.40508 0
M  V30 4260 H 416.294 -2.84044 -0.800195 0
M  V30 4261 H 416.375 -2.39095 0.909255 0
M  V30 4262 H 416.019 -4.83783 1.5465 0
M  V30 4263 H 415.949 -5.26285 -0.18216 0
M  V30 4264 H 418.44 -3.7691 0.273366 0
M  V30 4265 H 418.753 -7.63725 1.18084 0
M  V30 4266 H 417.098 -6.86945 1.05509 0
M  V30 4267 H 420.289 -4.66189 0.422592 0
M  V30 4268 H 420.462 -6.42582 0.836182 0
M  V30 4269 N 413.868 0.0150385 -1.57593 0
M  V30 4270 C 415.098 0.713359 -1.93894 0
M  V30 4271 C 415.506 1.68663 -0.857289 0
M  V30 4272 O 414.849 1.82876 0.173788 0
M  V30 4273 C 414.911 1.51348 -3.26089 0
M  V30 4274 C 414.575 0.703451 -4.51554 0
M  V30 4275 C 415.572 -0.00237924 -5.199 0
M  V30 4276 C 413.257 0.653854 -4.98026 0
M  V30 4277 C 415.251 -0.746955 -6.33008 0
M  V30 4278 C 412.938 -0.0944578 -6.11027 0
M  V30 4279 C 413.936 -0.793609 -6.78374 0
M  V30 4280 O 413.624 -1.52974 -7.89211 0
M  V30 4281 H 413.356 0.204637 -0.644282 0
M  V30 4282 H 415.91 -0.0276411 -2.05381 0
M  V30 4283 H 414.14 2.29862 -3.10967 0
M  V30 4284 H 415.829 2.09572 -3.47612 0
M  V30 4285 H 416.595 0.0268803 -4.84993 0
M  V30 4286 H 412.474 1.18756 -4.45441 0
M  V30 4287 H 416.018 -1.2932 -6.85509 0
M  V30 4288 H 411.915 -0.125591 -6.45378 0
M  V30 4289 H 412.683 -1.44488 -8.05646 0
M  V30 4290 N 415.346 1.54954 0.287554 0
M  V30 4291 C 416.256 1.8991 1.37736 0
M  V30 4292 C 417.272 0.794701 1.54792 0
M  V30 4293 O 418.448 1.09243 1.69198 0
M  V30 4294 C 415.513 2.15108 2.71899 0
M  V30 4295 C 414.574 3.38752 2.63715 0
M  V30 4296 C 413.807 3.62739 3.91479 0
M  V30 4297 O 414.03 2.89492 4.91478 0
M  V30 4298 O 412.964 4.56267 3.92561 0
M  V30 4299 H 416.79 2.82652 1.11092 0
M  V30 4300 H 414.375 1.41315 0.484807 0
M  V30 4301 H 416.257 2.32806 3.51254 0
M  V30 4302 H 414.932 1.25551 2.9836 0
M  V30 4303 H 413.839 3.26405 1.82786 0
M  V30 4304 H 415.172 4.28483 2.42205 0
M  V30 4305 O 416.863 -0.433401 1.55576 0
M  V30 4306 H 417.554 -1.08681 1.60337 0
M  V30 END ATOM
M  V30 BEGIN BOND
M  V30 END BOND
M  V30 END CTAB
M  END
$$$$
