drugbank_target|P35626 Beta-adrenergic receptor kinase 2 (DB00171)
 OpenBabel12092119223D

  0  0  0     0  0            999 V3000
M  V30 BEGIN CTAB
M  V30 COUNTS 11176 11301 0 0 0
M  V30 BEGIN ATOM
M  V30 1 H -0.908 1.98254 -0.117106 0
M  V30 2 N 0 1.576 0 0
M  V30 3 C 0.933 2.03868 1.02534 0
M  V30 4 C 1.911 0.928543 1.3348 0
M  V30 5 O 3.095 1.19667 1.45644 0
M  V30 6 C 0.222 2.43627 2.35294 0
M  V30 7 C -0.732 3.65373 2.2001 0
M  V30 8 S 0.101 5.13292 1.52614 0
M  V30 9 C 1.257 5.56322 2.86805 0
M  V30 10 H 1.49 2.90518 0.631377 0
M  V30 11 H -0.977 1.52953 0.210867 0
M  V30 12 H 0.981 2.67203 3.11629 0
M  V30 13 H -0.358 1.57376 2.7183 0
M  V30 14 H -1.165 3.90944 3.18086 0
M  V30 15 H -1.563 3.418 1.51819 0
M  V30 16 H 0.729 5.58782 3.83104 0
M  V30 17 H 1.672 6.56266 2.65933 0
M  V30 18 H 2.08 4.83886 2.90714 0
M  V30 19 N 1.4781 -0.272755 1.55222 0
M  V30 20 C 2.4411 -1.32041 1.87344 0
M  V30 21 C 3.4411 -1.42342 0.74803 0
M  V30 22 O 4.6311 -1.41488 1.0162 0
M  V30 23 C 1.7631 -2.70173 2.07893 0
M  V30 24 H 2.9561 -1.04789 2.80997 0
M  V30 25 H 0.5091 -0.51083 1.47717 0
M  V30 26 H 1.2441 -3.02605 1.16622 0
M  V30 27 H 1.0291 -2.64082 2.89833 0
M  V30 28 H 2.5191 -3.45869 2.34017 0
M  V30 29 N 2.9562 -1.48159 -0.537278 0
M  V30 30 C 4.2332 -1.46291 -1.29839 0
M  V30 31 C 4.6132 -0.170613 -2.10409 0
M  V30 32 O 3.9612 0.847746 -2.12192 0
M  V30 33 C 4.1712 -2.72055 -2.18603 0
M  V30 34 C 5.5192 -3.20087 -2.7898 0
M  V30 35 O 6.5432 -2.72921 -2.28894 0
M  V30 36 O 5.4022 -4.02138 -3.70064 0
M  V30 37 H 2.4962 -0.583906 -0.585647 0
M  V30 38 H 5.0422 -1.60384 -0.554534 0
M  V30 39 H 3.8142 -3.57628 -1.58801 0
M  V30 40 H 3.4372 -2.60646 -3.00249 0
M  V30 41 N 4.4343 0.785586 -1.36625 0
M  V30 42 C 5.3643 1.91259 -1.33949 0
M  V30 43 C 6.3453 1.68795 -0.210325 0
M  V30 44 O 7.5303 1.89854 -0.408561 0
M  V30 45 C 4.6603 3.28339 -1.13186 0
M  V30 46 C 3.6143 3.65335 -2.22967 0
M  V30 47 C 2.9403 5.00806 -1.87342 0
M  V30 48 C 4.2403 3.7352 -3.65075 0
M  V30 49 H 5.9343 1.93755 -2.28253 0
M  V30 50 H 3.4803 0.930788 -1.09874 0
M  V30 51 H 5.4333 4.06804 -1.09948 0
M  V30 52 H 4.1573 3.2624 -0.153332 0
M  V30 53 H 2.8163 2.89169 -2.25337 0
M  V30 54 H 2.4643 4.95233 -0.880545 0
M  V30 55 H 2.1643 5.26529 -2.60846 0
M  V30 56 H 3.6883 5.81687 -1.85667 0
M  V30 57 H 5.1023 4.42168 -3.64911 0
M  V30 58 H 3.4993 4.10731 -4.37516 0
M  V30 59 H 4.5693 2.74527 -3.99703 0
M  V30 60 N 5.9124 1.20967 1.01018 0
M  V30 61 C 6.8224 0.980157 2.13143 0
M  V30 62 C 7.8384 -0.0660665 1.73875 0
M  V30 63 O 9.0144 0.122821 2.01025 0
M  V30 64 C 6.0794 0.54216 3.42435 0
M  V30 65 C 5.1404 1.65999 3.95908 0
M  V30 66 C 4.3734 1.2428 5.19028 0
M  V30 67 O 4.5964 0.114196 5.70286 0
M  V30 68 O 3.5304 2.05271 5.65816 0
M  V30 69 H 7.3564 1.91913 2.35379 0
M  V30 70 H 4.9414 0.994099 1.11526 0
M  V30 71 H 6.8234 0.30744 4.20277 0
M  V30 72 H 5.4984 -0.36815 3.216 0
M  V30 73 H 4.4054 1.94906 3.19316 0
M  V30 74 H 5.7384 2.54753 4.21143 0
M  V30 75 N 7.3905 -1.2043 1.01659 0
M  V30 76 C 8.3535 -2.21433 0.591616 0
M  V30 77 C 9.3535 -1.57203 -0.338226 0
M  V30 78 O 10.5435 -1.73737 -0.126918 0
M  V30 79 C 7.6755 -3.40628 -0.136058 0
M  V30 80 H 8.8685 -2.60545 1.48514 0
M  V30 81 H 6.4215 -1.33893 0.806379 0
M  V30 82 H 7.1565 -3.07019 -1.04449 0
M  V30 83 H 6.9415 -3.88475 0.531917 0
M  V30 84 H 8.4315 -4.15475 -0.420735 0
M  V30 85 N 8.8686 -0.792821 -1.36206 0
M  V30 86 C 10.1146 -0.36733 -1.99446 0
M  V30 87 C 10.4476 1.05917 -1.62774 0
M  V30 88 O 9.7226 1.7324 -0.88421 0
M  V30 89 C 10.0056 -0.535044 -3.56103 0
M  V30 90 C 9.8586 -2.00548 -4.02617 0
M  V30 91 C 11.1776 0.0478191 -4.40074 0
M  V30 92 H 8.2966 -0.134941 -0.724541 0
M  V30 93 H 10.9386 -0.999794 -1.61568 0
M  V30 94 H 9.0886 0.00336329 -3.885 0
M  V30 95 H 10.7606 -2.60521 -3.80692 0
M  V30 96 H 9.0036 -2.50686 -3.54032 0
M  V30 97 H 9.6746 -2.07377 -5.11565 0
M  V30 98 H 12.1506 -0.411822 -4.14057 0
M  V30 99 H 11.0266 -0.0995336 -5.4881 0
M  V30 100 H 11.2876 1.14025 -4.27142 0
M  V30 101 N 10.3467 1.47872 -0.545128 0
M  V30 102 C 11.2767 2.32661 0.197793 0
M  V30 103 C 12.2577 1.43041 0.920504 0
M  V30 104 O 13.4427 1.71912 0.90333 0
M  V30 105 C 10.5727 3.24569 1.23582 0
M  V30 106 C 9.5267 4.23333 0.630323 0
M  V30 107 C 8.8527 5.0448 1.77211 0
M  V30 108 C 10.1527 5.20704 -0.407974 0
M  V30 109 H 11.8467 2.95024 -0.510045 0
M  V30 110 H 9.3927 1.4187 -0.246731 0
M  V30 111 H 11.3457 3.8272 1.76362 0
M  V30 112 H 10.0697 2.60236 1.97344 0
M  V30 113 H 8.7287 3.6639 0.123922 0
M  V30 114 H 8.3767 4.36561 2.49847 0
M  V30 115 H 8.0767 5.71339 1.37281 0
M  V30 116 H 9.6007 5.65487 2.3034 0
M  V30 117 H 11.0147 5.7329 0.033305 0
M  V30 118 H 9.4117 5.95699 -0.725486 0
M  V30 119 H 10.4817 4.66917 -1.30828 0
M  V30 120 N 11.8248 0.280983 1.55075 0
M  V30 121 C 12.7878 -0.590896 2.21452 0
M  V30 122 C 13.7878 -1.07682 1.19421 0
M  V30 123 O 14.9778 -0.97605 1.44288 0
M  V30 124 C 12.1098 -1.81587 2.88511 0
M  V30 125 H 13.3028 -0.0112554 2.99898 0
M  V30 126 H 10.8558 0.0316438 1.56268 0
M  V30 127 H 11.5908 -2.43587 2.14093 0
M  V30 128 H 11.3758 -1.4753 3.63287 0
M  V30 129 H 12.8658 -2.43575 3.39206 0
M  V30 130 N 13.3029 -1.57598 0.00835791 0
M  V30 131 C 14.5799 -1.82172 -0.712235 0
M  V30 132 C 14.9599 -0.887873 -1.9152 0
M  V30 133 O 14.3079 0.06146 -2.28417 0
M  V30 134 C 14.5179 -3.30875 -1.11008 0
M  V30 135 C 15.8659 -3.96826 -1.51044 0
M  V30 136 O 16.8899 -3.35248 -1.20364 0
M  V30 137 O 15.7489 -5.05318 -2.08125 0
M  V30 138 H 12.8429 -0.750435 -0.347529 0
M  V30 139 H 15.3889 -1.69665 0.0344523 0
M  V30 140 H 14.1609 -3.90481 -0.252982 0
M  V30 141 H 13.7839 -3.48412 -1.9156 0
M  V30 142 N 14.781 0.264519 -1.55364 0
M  V30 143 C 16.027 0.99646 -1.76631 0
M  V30 144 C 16.36 1.85632 -0.570478 0
M  V30 145 O 15.635 1.89647 0.43175 0
M  V30 146 C 15.918 1.87187 -3.07625 0
M  V30 147 C 15.771 1.04138 -4.37579 0
M  V30 148 C 17.09 2.85749 -3.34717 0
M  V30 149 H 14.209 0.360841 -0.642622 0
M  V30 150 H 16.851 0.268218 -1.88097 0
M  V30 151 H 15.001 2.49279 -2.9798 0
M  V30 152 H 16.673 0.440517 -4.59192 0
M  V30 153 H 14.916 0.345115 -4.32425 0
M  V30 154 H 15.587 1.68729 -5.2558 0
M  V30 155 H 18.063 2.33793 -3.4421 0
M  V30 156 H 16.939 3.44136 -4.27623 0
M  V30 157 H 17.2 3.61311 -2.54768 0
M  V30 158 N 16.2591 1.48442 0.529413 0
M  V30 159 C 17.4841 1.60406 1.31471 0
M  V30 160 C 17.9091 0.264738 1.86228 0
M  V30 161 O 17.2671 -0.763668 1.64432 0
M  V30 162 C 17.3151 2.65419 2.44101 0
M  V30 163 O 16.4191 2.22618 3.47153 0
M  V30 164 H 15.7601 0.537863 0.389357 0
M  V30 165 H 18.2901 1.94432 0.636965 0
M  V30 166 H 18.3001 2.86709 2.90279 0
M  V30 167 H 16.9751 3.62652 2.03608 0
M  V30 168 H 15.5521 2.11543 3.0709 0
M  V30 169 N 17.7372 -0.778329 1.37039 0
M  V30 170 C 18.9672 -1.56507 1.34868 0
M  V30 171 C 19.3752 -1.89072 -0.0694802 0
M  V30 172 O 18.7182 -1.51434 -1.03987 0
M  V30 173 C 18.7802 -2.90641 2.11585 0
M  V30 174 C 18.4442 -2.80746 3.60598 0
M  V30 175 C 19.4412 -2.52226 4.54618 0
M  V30 176 C 17.1262 -2.98974 4.03633 0
M  V30 177 C 19.1202 -2.42054 5.89651 0
M  V30 178 C 16.8072 -2.88423 5.38754 0
M  V30 179 C 17.8052 -2.60002 6.31576 0
M  V30 180 O 17.4932 -2.49465 7.64214 0
M  V30 181 H 17.2252 -0.491723 0.463879 0
M  V30 182 H 19.7792 -0.973053 1.80889 0
M  V30 183 H 18.0092 -3.51936 1.60243 0
M  V30 184 H 19.6982 -3.51992 2.0213 0
M  V30 185 H 20.4642 -2.37835 4.22681 0
M  V30 186 H 16.3432 -3.20099 3.31749 0
M  V30 187 H 19.8872 -2.19791 6.62071 0
M  V30 188 H 15.7842 -3.0238 5.70295 0
M  V30 189 H 16.5522 -2.64864 7.74461 0
M  V30 190 N 19.2153 -1.21501 -1.00376 0
M  V30 191 C 20.1453 -0.999478 -2.11028 0
M  V30 192 C 21.1263 0.0759671 -1.6993 0
M  V30 193 O 22.3113 -0.0841106 -1.94018 0
M  V30 194 C 19.4413 -0.564709 -3.42678 0
M  V30 195 C 18.3953 -1.58486 -3.97576 0
M  V30 196 C 17.7213 -1.00628 -5.25146 0
M  V30 197 C 19.0213 -2.97204 -4.29496 0
M  V30 198 H 20.7153 -1.92495 -2.29317 0
M  V30 199 H 18.2613 -0.92693 -1.102 0
M  V30 200 H 20.2143 -0.401091 -4.19487 0
M  V30 201 H 18.9383 0.396411 -3.24185 0
M  V30 202 H 17.5973 -1.73606 -3.22888 0
M  V30 203 H 17.2453 -0.0368439 -5.02987 0
M  V30 204 H 16.9453 -1.68771 -5.62841 0
M  V30 205 H 18.4693 -0.854015 -6.04598 0
M  V30 206 H 19.8833 -2.8552 -4.97143 0
M  V30 207 H 18.2803 -3.62372 -4.78338 0
M  V30 208 H 19.3503 -3.47956 -3.3772 0
M  V30 209 N 20.6934 1.19889 -1.02296 0
M  V30 210 C 21.6264 2.21639 -0.543282 0
M  V30 211 C 22.6044 1.57275 0.412698 0
M  V30 212 O 23.7884 1.85568 0.331198 0
M  V30 213 C 20.9154 3.38057 0.208571 0
M  V30 214 C 19.9614 4.20751 -0.697933 0
M  V30 215 S 20.7944 4.89529 -2.17075 0
M  V30 216 C 21.9504 6.09363 -1.42923 0
M  V30 217 H 22.1834 2.61984 -1.40541 0
M  V30 218 H 19.7164 1.30041 -0.832387 0
M  V30 219 H 21.6744 4.05539 0.63624 0
M  V30 220 H 20.3354 2.96159 1.04635 0
M  V30 221 H 19.5284 5.03862 -0.117831 0
M  V30 222 H 19.1304 3.58556 -1.06366 0
M  V30 223 H 21.4224 6.73742 -0.712637 0
M  V30 224 H 22.3654 6.71845 -2.23673 0
M  V30 225 H 22.7734 5.56798 -0.929327 0
M  V30 226 N 22.1715 0.800033 1.35784 0
M  V30 227 C 23.1345 0.211565 2.28221 0
M  V30 228 C 24.1345 -0.59728 1.49296 0
M  V30 229 O 25.3245 -0.416721 1.69142 0
M  V30 230 C 22.4565 -0.705846 3.33513 0
M  V30 231 H 23.6495 1.02677 2.81776 0
M  V30 232 H 21.2025 0.570211 1.45528 0
M  V30 233 H 21.9375 -1.54498 2.85133 0
M  V30 234 H 21.7225 -0.127655 3.91892 0
M  V30 235 H 23.2125 -1.11211 4.02519 0
M  V30 236 N 23.6496 -1.47581 0.552962 0
M  V30 237 C 24.5826 -2.26883 -0.244857 0
M  V30 238 C 25.5606 -1.33784 -0.924147 0
M  V30 239 O 26.7446 -1.6316 -0.943981 0
M  V30 240 C 23.8716 -3.10695 -1.34856 0
M  V30 241 C 22.9176 -4.19339 -0.778268 0
M  V30 242 S 23.7506 -5.34207 0.37184 0
M  V30 243 C 24.9066 -6.21584 -0.733779 0
M  V30 244 H 25.1396 -2.94202 0.428087 0
M  V30 245 H 22.6726 -1.50628 0.339197 0
M  V30 246 H 24.6306 -3.59555 -1.98066 0
M  V30 247 H 23.2916 -2.42746 -1.99332 0
M  V30 248 H 22.4846 -4.77695 -1.60696 0
M  V30 249 H 22.0866 -3.73338 -0.222422 0
M  V30 250 H 24.3786 -6.57676 -1.62692 0
M  V30 251 H 25.3216 -7.07851 -0.187668 0
M  V30 252 H 25.7296 -5.55125 -1.02454 0
M  V30 253 N 25.1277 -0.289203 -1.54924 0
M  V30 254 C 26.0377 0.601863 -2.26748 0
M  V30 255 C 27.0537 1.15834 -1.2984 0
M  V30 256 O 28.2297 1.18564 -1.62802 0
M  V30 257 C 25.2947 1.76299 -2.98529 0
M  V30 258 C 24.3557 1.24178 -4.10948 0
M  V30 259 C 23.5887 2.34757 -4.79296 0
M  V30 260 O 23.8117 3.54411 -4.46933 0
M  V30 261 O 22.7457 2.02115 -5.66951 0
M  V30 262 H 26.5717 0.0195879 -3.03694 0
M  V30 263 H 24.1567 -0.0560868 -1.49295 0
M  V30 264 H 26.0387 2.43973 -3.43592 0
M  V30 265 H 24.7137 2.33209 -2.24488 0
M  V30 266 H 23.6207 0.531104 -3.70311 0
M  V30 267 H 24.9537 0.718252 -4.86931 0
M  V30 268 N 26.6058 1.57591 -0.0167156 0
M  V30 269 C 27.5528 2.09462 0.969251 0
M  V30 270 C 28.5228 0.99381 1.33089 0
M  V30 271 O 29.7078 1.26726 1.42636 0
M  V30 272 C 26.8478 2.61622 2.25051 0
M  V30 273 C 25.9608 3.85666 1.94642 0
M  V30 274 C 25.0958 4.26266 3.16972 0
M  V30 275 C 24.1348 5.43101 2.82326 0
M  V30 276 N 23.2718 5.78915 3.97243 0
M  V30 277 H 28.1118 2.93428 0.519997 0
M  V30 278 H 25.6488 1.45044 0.245087 0
M  V30 279 H 27.6068 2.89949 2.99976 0
M  V30 280 H 26.2368 1.80505 2.67615 0
M  V30 281 H 25.2888 3.64145 1.10013 0
M  V30 282 H 26.6008 4.70678 1.65117 0
M  V30 283 H 25.7548 4.55963 4.00228 0
M  V30 284 H 24.4938 3.39996 3.49648 0
M  V30 285 H 23.4988 5.1311 1.97479 0
M  V30 286 H 24.7238 6.3106 2.50879 0
M  V30 287 H 22.6698 4.95602 4.29785 0
M  V30 288 H 22.5868 6.58539 3.71299 0
M  V30 289 H 23.8548 6.13212 4.81239 0
M  V30 290 N 28.0839 -0.256276 1.55502 0
M  V30 291 C 29.3089 -1.00766 1.81276 0
M  V30 292 C 29.7339 -1.78524 0.59252 0
M  V30 293 O 29.0919 -1.75413 -0.45827 0
M  V30 294 C 29.1399 -1.92869 3.04687 0
M  V30 295 O 28.2439 -3.019 2.80945 0
M  V30 296 H 27.5849 -0.287224 0.598664 0
M  V30 297 H 30.1149 -0.280109 2.02674 0
M  V30 298 H 30.1249 -2.34511 3.33869 0
M  V30 299 H 28.7999 -1.35689 3.93143 0
M  V30 300 H 27.3769 -2.64454 2.62904 0
M  V30 301 N 29.562 -1.4872 -0.521534 0
M  V30 302 C 30.509 -1.63871 -1.62527 0
M  V30 303 C 31.479 -0.480559 -1.58996 0
M  V30 304 O 32.664 -0.705085 -1.77294 0
M  V30 305 C 29.804 -1.69227 -3.00759 0
M  V30 306 C 28.917 -2.96207 -3.14461 0
M  V30 307 C 28.052 -2.92671 -4.43303 0
M  V30 308 C 27.091 -4.14318 -4.50563 0
M  V30 309 N 26.228 -4.0881 -5.70805 0
M  V30 310 H 31.068 -2.58123 -1.48918 0
M  V30 311 H 28.605 -1.28 -0.724878 0
M  V30 312 H 30.563 -1.70314 -3.80853 0
M  V30 313 H 29.193 -0.784586 -3.1312 0
M  V30 314 H 28.245 -3.04826 -2.27564 0
M  V30 315 H 29.557 -3.86192 -3.15686 0
M  V30 316 H 28.711 -2.92206 -5.31696 0
M  V30 317 H 27.45 -2.00429 -4.44612 0
M  V30 318 H 26.455 -4.15049 -3.60575 0
M  V30 319 H 27.68 -5.07729 -4.50986 0
M  V30 320 H 25.626 -3.19394 -5.72995 0
M  V30 321 H 25.543 -4.92509 -5.7356 0
M  V30 322 H 26.811 -4.12418 -6.61462 0
M  V30 323 N 31.0401 0.771051 -1.3745 0
M  V30 324 C 32.0031 1.86598 -1.33093 0
M  V30 325 C 33.0031 1.59076 -0.234845 0
M  V30 326 O 34.1931 1.67145 -0.490732 0
M  V30 327 C 31.3251 3.23747 -1.06773 0
M  V30 328 H 32.5181 1.91873 -2.30488 0
M  V30 329 H 30.0711 0.970876 -1.2249 0
M  V30 330 H 30.8061 3.24148 -0.099129 0
M  V30 331 H 30.5911 3.45115 -1.86112 0
M  V30 332 H 32.0811 4.03824 -1.06377 0
M  V30 333 N 32.5182 1.22032 0.997298 0
M  V30 334 C 33.7462 1.06841 1.7718 0
M  V30 335 C 34.1612 -0.381325 1.84909 0
M  V30 336 O 33.5182 -1.26437 1.31605 0
M  V30 337 C 33.5692 1.66814 3.20711 0
M  V30 338 O 33.2902 3.06116 3.13408 0
M  V30 339 C 34.7912 1.56838 4.14628 0
M  V30 340 H 32.0112 0.374782 0.556578 0
M  V30 341 H 34.5552 1.61532 1.2541 0
M  V30 342 H 32.7102 1.16196 3.69564 0
M  V30 343 H 33.1242 3.34926 4.0364 0
M  V30 344 H 34.5982 2.03532 5.13107 0
M  V30 345 H 35.0752 0.524155 4.36061 0
M  V30 346 H 35.6812 2.06741 3.7167 0
M  V30 347 N 33.9963 -1.19345 1.0293 0
M  V30 348 C 35.4073 -1.70725 0.755633 0
M  V30 349 C 35.7583 -1.82326 -0.724676 0
M  V30 350 O 34.8833 -1.49471 -1.56484 0
M  V30 351 C 35.4783 -3.10084 1.36503 0
M  V30 352 C 34.0373 -3.58723 1.13994 0
M  V30 353 C 33.1843 -2.35577 1.46283 0
M  V30 354 H 36.1353 -1.0418 1.19718 0
M  V30 355 H 36.1563 -3.72787 0.762217 0
M  V30 356 H 35.6683 -3.01609 2.44241 0
M  V30 357 H 33.7693 -3.72512 0.0807901 0
M  V30 358 H 33.8823 -4.42816 1.82894 0
M  V30 359 H 32.2463 -2.38935 0.88217 0
M  V30 360 H 33.0293 -2.29731 2.55105 0
M  V30 361 N 35.4744 -0.807222 -1.35358 0
M  V30 362 C 36.4374 -0.223665 -2.28106 0
M  V30 363 C 37.4374 0.589354 -1.4961 0
M  V30 364 O 38.6274 0.407745 -1.69361 0
M  V30 365 C 35.7594 0.688149 -3.33882 0
M  V30 366 H 36.9524 -1.04169 -2.81227 0
M  V30 367 H 34.5054 -0.577921 -1.45223 0
M  V30 368 H 35.2404 1.52984 -2.85948 0
M  V30 369 H 35.0254 0.10687 -3.91954 0
M  V30 370 H 36.5154 1.09075 -4.03104 0
M  V30 371 N 36.9525 1.47285 -0.560781 0
M  V30 372 C 37.9155 2.28535 0.174488 0
M  V30 373 C 38.9155 1.37153 0.839388 0
M  V30 374 O 40.1055 1.59748 0.694702 0
M  V30 375 C 37.2375 3.16934 1.25561 0
M  V30 376 H 38.4305 2.95012 -0.539262 0
M  V30 377 H 35.9835 1.53034 -0.317865 0
M  V30 378 H 36.7185 2.55157 2.00164 0
M  V30 379 H 36.5035 3.8419 0.783604 0
M  V30 380 H 37.9935 3.78143 1.77193 0
M  V30 381 N 38.4306 0.297415 1.54768 0
M  V30 382 C 39.8466 -0.0560823 1.59501 0
M  V30 383 C 40.0466 -1.52725 1.31444 0
M  V30 384 O 39.1026 -2.27947 1.08611 0
M  V30 385 C 40.4156 0.338631 2.98787 0
M  V30 386 C 41.9636 0.287097 3.11681 0
M  V30 387 C 42.4386 0.656579 4.53269 0
M  V30 388 N 43.9296 0.608977 4.59179 0
M  V30 389 C 44.6646 0.867385 5.66802 0
M  V30 390 N 44.1606 1.19157 6.82476 0
M  V30 391 N 45.9536 0.794687 5.56454 0
M  V30 392 H 38.1046 1.25624 1.71267 0
M  V30 393 H 40.3676 0.509057 0.799728 0
M  V30 394 H 40.0736 1.36263 3.2423 0
M  V30 395 H 39.9476 -0.309508 3.75928 0
M  V30 396 H 42.3346 -0.727649 2.85988 0
M  V30 397 H 42.4156 0.969809 2.36703 0
M  V30 398 H 42.0596 1.66912 4.7969 0
M  V30 399 H 41.9896 -0.0481649 5.26578 0
M  V30 400 H 44.4806 0.369198 3.76092 0
M  V30 401 H 44.7936 1.37482 7.60473 0
M  V30 402 H 43.1386 1.22958 6.84037 0
M  V30 403 H 46.3296 0.541098 4.64962 0
M  V30 404 H 46.5026 0.999445 6.40246 0
M  V30 405 N 39.9087 -1.5758 0.0250728 0
M  V30 406 C 40.8717 -2.08896 -0.943139 0
M  V30 407 C 41.8717 -1.00321 -1.25668 0
M  V30 408 O 43.0617 -1.26495 -1.19769 0
M  V30 409 C 40.1937 -2.55143 -2.26086 0
M  V30 410 H 41.3867 -2.95723 -0.498775 0
M  V30 411 H 38.9397 -1.54703 -0.222888 0
M  V30 412 H 39.6747 -1.71633 -2.75159 0
M  V30 413 H 39.4597 -3.34461 -2.04641 0
M  V30 414 H 40.9497 -2.95083 -2.95492 0
M  V30 415 N 41.3868 0.248026 -1.55636 0
M  V30 416 C 42.6118 0.998028 -1.81808 0
M  V30 417 C 43.0368 1.78207 -0.601979 0
M  V30 418 O 42.3948 1.75653 0.448961 0
M  V30 419 C 42.4428 1.9125 -3.05705 0
M  V30 420 O 41.5468 3.00406 -2.82542 0
M  V30 421 H 40.8878 0.284045 -0.600179 0
M  V30 422 H 43.4178 0.269357 -2.02819 0
M  V30 423 H 43.4278 2.32737 -3.35108 0
M  V30 424 H 42.1028 1.33602 -3.93857 0
M  V30 425 H 40.6798 2.63056 -2.64303 0
M  V30 426 N 42.8649 1.48995 0.513639 0
M  V30 427 C 43.8119 1.6473 1.61656 0
M  V30 428 C 44.7819 0.488984 1.58739 0
M  V30 429 O 45.9669 0.714478 1.76918 0
M  V30 430 C 43.1069 1.7082 2.99858 0
M  V30 431 C 42.2199 2.9787 3.12885 0
M  V30 432 C 41.3549 2.95017 4.41744 0
M  V30 433 C 40.3939 4.16702 4.48359 0
M  V30 434 N 39.5309 4.11832 5.68629 0
M  V30 435 H 44.3709 2.58909 1.47547 0
M  V30 436 H 41.9079 1.28382 0.71808 0
M  V30 437 H 43.8659 1.72331 3.79944 0
M  V30 438 H 42.4959 0.801181 3.12699 0
M  V30 439 H 41.5479 3.06029 2.25944 0
M  V30 440 H 42.8599 3.8786 3.13633 0
M  V30 441 H 42.0139 2.95021 5.30139 0
M  V30 442 H 40.7529 2.02784 4.43542 0
M  V30 443 H 39.7579 4.16955 3.58369 0
M  V30 444 H 40.9829 5.10113 4.48287 0
M  V30 445 H 38.9289 3.22428 5.71293 0
M  V30 446 H 38.8459 4.95543 5.7094 0
M  V30 447 H 40.1139 4.1592 6.59266 0
M  V30 448 N 44.343 -0.763751 1.37857 0
M  V30 449 C 45.759 -1.06542 1.18832 0
M  V30 450 C 45.959 -2.01478 0.0299722 0
M  V30 451 O 45.015 -2.4458 -0.627447 0
M  V30 452 C 46.328 -1.65525 2.51042 0
M  V30 453 C 47.876 -1.77745 2.57635 0
M  V30 454 C 48.351 -2.4014 3.89996 0
M  V30 455 N 49.842 -2.47582 3.91481 0
M  V30 456 C 50.577 -2.96732 4.9065 0
M  V30 457 N 50.073 -3.45993 6.00217 0
M  V30 458 N 51.866 -2.95679 4.78048 0
M  V30 459 H 44.017 -0.133556 2.1198 0
M  V30 460 H 46.28 -0.121879 0.940133 0
M  V30 461 H 45.986 -1.03236 3.36207 0
M  V30 462 H 45.86 -2.64719 2.68707 0
M  V30 463 H 48.247 -2.39164 1.72872 0
M  V30 464 H 48.328 -0.772836 2.43846 0
M  V30 465 H 47.972 -1.79358 4.75177 0
M  V30 466 H 47.902 -3.41223 4.01092 0
M  V30 467 H 50.393 -2.1273 3.12337 0
M  V30 468 H 50.706 -3.81922 6.7183 0
M  V30 469 H 49.051 -3.44077 6.03851 0
M  V30 470 H 52.242 -2.56499 3.91568 0
M  V30 471 H 52.415 -3.33672 5.55488 0
M  V30 472 N 45.8211 -1.22559 -0.990812 0
M  V30 473 C 47.0701 -1.04553 -1.72486 0
M  V30 474 C 47.3831 0.419349 -1.91052 0
M  V30 475 O 48.5891 0.719121 -2.61803 0
M  V30 476 C 47.0451 -1.82231 -3.10355 0
M  V30 477 C 46.6531 -3.32981 -2.99713 0
M  V30 478 C 48.3971 -1.7268 -3.87791 0
M  V30 479 C 46.3041 -4.03091 -4.32748 0
M  V30 480 H 45.2341 -0.387614 -0.646739 0
M  V30 481 H 47.8851 -1.46429 -1.10593 0
M  V30 482 H 46.2671 -1.33155 -3.72942 0
M  V30 483 H 47.4411 -3.89466 -2.46278 0
M  V30 484 H 45.7561 -3.43231 -2.35758 0
M  V30 485 H 48.3531 -2.22381 -4.86262 0
M  V30 486 H 48.6961 -0.687607 -4.10582 0
M  V30 487 H 49.2291 -2.1931 -3.31885 0
M  V30 488 H 45.9681 -5.07273 -4.15156 0
M  V30 489 H 45.4881 -3.51394 -4.86089 0
M  V30 490 H 47.1671 -4.08804 -5.01486 0
M  V30 491 N 47.2992 1.18797 -1.03562 0
M  V30 492 C 48.5452 1.8893 -0.737113 0
M  V30 493 C 48.8782 1.79837 0.732956 0
M  V30 494 O 48.1532 1.19525 1.5344 0
M  V30 495 C 48.4362 3.39607 -1.19745 0
M  V30 496 C 48.2892 3.57537 -2.72924 0
M  V30 497 C 49.6082 4.33069 -0.783526 0
M  V30 498 H 46.7272 0.686057 -0.269249 0
M  V30 499 H 49.3692 1.39797 -1.28673 0
M  V30 500 H 47.5192 3.81583 -0.729855 0
M  V30 501 H 49.1912 3.24688 -3.27682 0
M  V30 502 H 47.4342 3.00363 -3.12993 0
M  V30 503 H 48.1052 4.63238 -3.00191 0
M  V30 504 H 50.5812 3.98846 -1.18581 0
M  V30 505 H 49.4572 5.3707 -1.13343 0
M  V30 506 H 49.7182 4.40986 0.313681 0
M  V30 507 N 48.7773 0.814389 1.34928 0
M  V30 508 C 49.7073 0.244827 2.32213 0
M  V30 509 C 50.6883 -0.634024 1.57842 0
M  V30 510 O 51.8733 -0.562676 1.8587 0
M  V30 511 C 49.0033 -0.601106 3.42058 0
M  V30 512 C 47.9573 0.179896 4.27622 0
M  V30 513 C 47.2833 -0.788237 5.28858 0
M  V30 514 C 48.5833 1.38329 5.03649 0
M  V30 515 H 50.2773 1.05763 2.80097 0
M  V30 516 H 47.8233 0.510029 1.34665 0
M  V30 517 H 49.7763 -1.00968 4.09125 0
M  V30 518 H 48.5003 -1.44688 2.92802 0
M  V30 519 H 47.1593 0.569739 3.62146 0
M  V30 520 H 46.8073 -1.62973 4.75866 0
M  V30 521 H 46.5073 -0.269942 5.8698 0
M  V30 522 H 48.0313 -1.19485 5.98795 0
M  V30 523 H 49.4453 1.04918 5.63618 0
M  V30 524 H 47.8423 1.83662 5.71304 0
M  V30 525 H 48.9123 2.16592 4.33839 0
M  V30 526 N 50.2554 -1.46986 0.568584 0
M  V30 527 C 51.6664 -1.86188 0.138219 0
M  V30 528 C 52.0174 -1.47388 -1.29504 0
M  V30 529 O 51.1424 -0.88219 -1.97602 0
M  V30 530 C 51.7374 -3.3792 0.244065 0
M  V30 531 C 50.2964 -3.76171 -0.131335 0
M  V30 532 C 49.4434 -2.71027 0.586465 0
M  V30 533 H 52.3944 -1.38342 0.777645 0
M  V30 534 H 52.4154 -3.76729 -0.534351 0
M  V30 535 H 51.9274 -3.66128 1.28731 0
M  V30 536 H 50.0284 -3.5358 -1.17526 0
M  V30 537 H 50.1414 -4.78523 0.235146 0
M  V30 538 H 48.5054 -2.54684 0.0282722 0
M  V30 539 H 49.2884 -3.02077 1.63109 0
M  V30 540 N 51.7335 -0.305618 -1.54608 0
M  V30 541 C 52.6435 0.57778 -2.27374 0
M  V30 542 C 53.6595 1.14451 -1.31061 0
M  V30 543 O 54.8355 1.16831 -1.6405 0
M  V30 544 C 51.9005 1.73123 -3.00382 0
M  V30 545 C 50.9615 1.19812 -4.12242 0
M  V30 546 C 50.1945 2.2966 -4.81759 0
M  V30 547 O 50.4175 3.49651 -4.50666 0
M  V30 548 O 49.3515 1.96091 -5.69062 0
M  V30 549 H 53.1775 -0.012624 -3.03697 0
M  V30 550 H 50.7625 -0.0719184 -1.49227 0
M  V30 551 H 52.6445 2.40315 -3.4616 0
M  V30 552 H 51.3195 2.30815 -2.26949 0
M  V30 553 H 50.2265 0.491798 -3.70853 0
M  V30 554 H 51.5595 0.666566 -4.87666 0
M  V30 555 N 53.2116 1.57565 -0.0334293 0
M  V30 556 C 54.6226 1.79746 0.504798 0
M  V30 557 C 54.9736 0.944091 1.71992 0
M  V30 558 O 54.0986 0.155694 2.15839 0
M  V30 559 C 54.6936 3.25997 0.922567 0
M  V30 560 C 53.2526 3.49159 1.40588 0
M  V30 561 C 52.3996 2.74785 0.372633 0
M  V30 562 H 55.3506 1.56565 -0.259436 0
M  V30 563 H 55.3716 3.35945 1.78666 0
M  V30 564 H 54.8836 3.88081 0.0379825 0
M  V30 565 H 52.9846 2.92332 2.31025 0
M  V30 566 H 53.0976 4.57873 1.41028 0
M  V30 567 H 51.4616 2.40391 0.841672 0
M  V30 568 H 52.2446 3.39587 -0.503559 0
M  V30 569 N 54.6897 -0.239769 1.55765 0
M  V30 570 C 55.9147 -0.988373 1.82335 0
M  V30 571 C 56.3397 -1.77886 0.611421 0
M  V30 572 O 55.6977 -1.75889 -0.439639 0
M  V30 573 C 55.7457 -1.89627 3.06715 0
M  V30 574 O 54.8497 -2.98904 2.84131 0
M  V30 575 H 54.1907 -0.280858 0.601677 0
M  V30 576 H 56.7207 -0.258597 2.02959 0
M  V30 577 H 56.7307 -2.30957 3.36338 0
M  V30 578 H 55.4057 -1.31511 3.9456 0
M  V30 579 H 53.9827 -2.61651 2.65694 0
M  V30 580 N 56.1678 -1.49265 -0.50573 0
M  V30 581 C 57.4168 -1.57761 -1.25675 0
M  V30 582 C 57.7298 -0.267371 -1.93764 0
M  V30 583 O 58.9358 -0.230827 -2.70517 0
M  V30 584 C 57.3918 -2.78332 -2.28165 0
M  V30 585 C 56.9998 -4.16096 -1.66037 0
M  V30 586 C 58.7438 -2.96155 -3.04125 0
M  V30 587 C 56.6508 -5.27895 -2.6661 0
M  V30 588 H 55.5808 -0.587391 -0.472745 0
M  V30 589 H 58.2318 -1.75644 -0.53118 0
M  V30 590 H 56.6138 -2.53934 -3.03865 0
M  V30 591 H 57.7878 -4.50612 -0.963622 0
M  V30 592 H 56.1028 -4.03591 -1.02484 0
M  V30 593 H 58.6998 -3.76849 -3.79327 0
M  V30 594 H 59.0428 -2.06534 -3.61455 0
M  V30 595 H 59.5758 -3.2057 -2.35541 0
M  V30 596 H 56.3148 -6.1956 -2.14068 0
M  V30 597 H 55.8348 -4.97839 -3.34539 0
M  V30 598 H 57.5138 -5.57031 -3.29129 0
M  V30 599 N 57.6459 0.756429 -1.3826 0
M  V30 600 C 59.0619 1.0591 -1.19395 0
M  V30 601 C 59.2619 2.01459 -0.0406567 0
M  V30 602 O 58.3179 2.44909 0.614467 0
M  V30 603 C 59.6309 1.64191 -2.51916 0
M  V30 604 C 61.1789 1.76376 -2.58574 0
M  V30 605 C 61.6539 2.38069 -3.91264 0
M  V30 606 N 63.1449 2.45503 -3.92788 0
M  V30 607 C 63.8799 2.94126 -4.92217 0
M  V30 608 N 63.3759 3.42805 -6.02043 0
M  V30 609 N 65.1689 2.9314 -4.7961 0
M  V30 610 H 57.3199 0.122313 -2.12048 0
M  V30 611 H 59.5829 0.116892 -0.940766 0
M  V30 612 H 59.2889 1.01451 -3.3675 0
M  V30 613 H 59.1629 2.6329 -2.70108 0
M  V30 614 H 61.5499 2.38244 -1.74137 0
M  V30 615 H 61.6309 0.759894 -2.44252 0
M  V30 616 H 61.2749 1.76835 -4.76121 0
M  V30 617 H 61.2049 3.39091 -4.02895 0
M  V30 618 H 63.6959 2.1107 -3.13461 0
M  V30 619 H 64.0089 3.78354 -6.73846 0
M  V30 620 H 62.3539 3.4087 -6.05667 0
M  V30 621 H 65.5449 2.54419 -3.92923 0
M  V30 622 H 65.7179 3.30721 -5.5725 0
M  V30 623 N 59.124 1.23083 0.984299 0
M  V30 624 C 60.349 1.088 1.76571 0
M  V30 625 C 60.774 -0.356657 1.84688 0
M  V30 626 O 60.132 -1.25788 1.30565 0
M  V30 627 C 60.18 1.71371 3.17277 0
M  V30 628 O 59.284 0.973213 4.00752 0
M  V30 629 H 58.625 0.381599 0.543395 0
M  V30 630 H 61.155 1.63057 1.23587 0
M  V30 631 H 61.165 1.76449 3.67872 0
M  V30 632 H 59.84 2.76493 3.10684 0
M  V30 633 H 58.417 0.999078 3.59267 0
M  V30 634 N 60.6021 -1.18246 1.0419 0
M  V30 635 C 61.8481 -1.88536 0.747122 0
M  V30 636 C 62.1811 -1.80223 -0.723409 0
M  V30 637 O 61.4561 -1.20337 -1.52804 0
M  V30 638 C 61.7391 -3.38968 1.21544 0
M  V30 639 C 61.5921 -3.56084 2.74816 0
M  V30 640 C 62.9111 -4.32648 0.806482 0
M  V30 641 H 60.0301 -0.684619 0.272883 0
M  V30 642 H 62.6721 -1.39113 1.29413 0
M  V30 643 H 60.8221 -3.8119 0.750081 0
M  V30 644 H 62.4941 -3.22946 3.29399 0
M  V30 645 H 60.7371 -2.98699 3.14582 0
M  V30 646 H 61.4081 -4.61639 3.02644 0
M  V30 647 H 63.8841 -3.98211 1.20695 0
M  V30 648 H 62.7601 -5.36462 1.1619 0
M  V30 649 H 63.0211 -4.41146 -0.29029 0
M  V30 650 N 62.0802 -0.821533 -1.34494 0
M  V30 651 C 63.0132 -0.187704 -2.27427 0
M  V30 652 C 63.9912 0.65507 -1.48821 0
M  V30 653 O 65.1752 0.619111 -1.78043 0
M  V30 654 C 62.3022 0.737996 -3.30562 0
M  V30 655 C 61.3482 -0.0270713 -4.26491 0
M  V30 656 S 62.1812 -1.37329 -5.17592 0
M  V30 657 C 63.3372 -0.452427 -6.24263 0
M  V30 658 H 63.5702 -0.975598 -2.80837 0
M  V30 659 H 61.1032 -0.61736 -1.4152 0
M  V30 660 H 63.0612 1.26654 -3.90473 0
M  V30 661 H 61.7222 1.4994 -2.76001 0
M  V30 662 H 60.9152 0.6766 -4.99438 0
M  V30 663 H 60.5172 -0.48612 -3.70827 0
M  V30 664 H 62.8092 0.356557 -6.76561 0
M  V30 665 H 63.7522 -1.15153 -6.98674 0
M  V30 666 H 64.1602 -0.0414755 -5.64485 0
M  V30 667 N 63.5583 1.46682 -0.576371 0
M  V30 668 C 64.4903 2.28341 0.198231 0
M  V30 669 C 65.5033 1.38141 0.861453 0
M  V30 670 O 66.6923 1.62797 0.732082 0
M  V30 671 C 63.7923 3.12986 1.29972 0
M  V30 672 C 62.9653 4.31271 0.729639 0
M  V30 673 C 62.0243 4.97363 1.71803 0
M  V30 674 O 61.0503 5.55156 1.25658 0
M  V30 675 N 62.2523 4.93796 3.05198 0
M  V30 676 H 65.0173 2.9546 -0.502324 0
M  V30 677 H 62.5783 1.56525 -0.413715 0
M  V30 678 H 64.5703 3.54066 1.96008 0
M  V30 679 H 63.1403 2.47984 1.90323 0
M  V30 680 H 62.3603 3.94052 -0.108012 0
M  V30 681 H 63.6483 5.07739 0.328438 0
M  V30 682 H 63.0463 4.48077 3.45317 0
M  V30 683 H 61.6033 5.38837 3.6674 0
M  V30 684 N 65.0364 0.313813 1.54444 0
M  V30 685 C 65.9834 -0.55655 2.23989 0
M  V30 686 C 66.9534 -1.11943 1.22711 0
M  V30 687 O 68.1384 -1.16158 1.51367 0
M  V30 688 C 65.2784 -1.71635 2.99392 0
M  V30 689 C 64.3914 -1.18364 4.15468 0
M  V30 690 C 63.5264 -2.30834 4.78424 0
M  V30 691 C 62.5654 -1.74762 5.86622 0
M  V30 692 N 61.7024 -2.80855 6.43479 0
M  V30 693 H 66.5424 0.0430893 2.97969 0
M  V30 694 H 64.0794 0.0330359 1.47063 0
M  V30 695 H 66.0374 -2.39868 3.41349 0
M  V30 696 H 64.6674 -2.28742 2.27765 0
M  V30 697 H 63.7194 -0.393163 3.78363 0
M  V30 698 H 65.0314 -0.733262 4.93381 0
M  V30 699 H 64.1854 -3.0699 5.23299 0
M  V30 700 H 62.9244 -2.79204 3.99871 0
M  V30 701 H 61.9294 -0.970995 5.41158 0
M  V30 702 H 63.1544 -1.2728 6.67066 0
M  V30 703 H 61.1004 -3.28535 5.67804 0
M  V30 704 H 61.0174 -2.40351 7.16776 0
M  V30 705 H 62.2854 -3.5687 6.93011 0
M  V30 706 N 66.5145 -1.57545 0.0417849 0
M  V30 707 C 67.7445 -1.96339 -0.642995 0
M  V30 708 C 68.1525 -0.917536 -1.65463 0
M  V30 709 O 67.4955 0.107747 -1.83384 0
M  V30 710 C 67.5575 -3.31333 -1.39494 0
M  V30 711 C 67.2215 -4.53796 -0.540204 0
M  V30 712 C 68.2185 -5.19553 0.189806 0
M  V30 713 C 65.9035 -5.0006 -0.473886 0
M  V30 714 C 67.8975 -6.29904 0.974674 0
M  V30 715 C 65.5845 -6.10289 0.314677 0
M  V30 716 C 66.5825 -6.75072 1.03765 0
M  V30 717 O 66.2705 -7.83183 1.81327 0
M  V30 718 H 66.0025 -0.651241 -0.181277 0
M  V30 719 H 68.5565 -2.05148 0.101665 0
M  V30 720 H 66.7865 -3.19052 -2.18502 0
M  V30 721 H 68.4755 -3.54942 -1.96904 0
M  V30 722 H 69.2415 -4.84774 0.147981 0
M  V30 723 H 65.1205 -4.49433 -1.0262 0
M  V30 724 H 68.6645 -6.80401 1.5395 0
M  V30 725 H 64.5615 -6.44506 0.358174 0
M  V30 726 H 65.3295 -7.99913 1.73438 0
M  V30 727 N 67.9926 0.231505 -1.5589 0
M  V30 728 C 68.9226 1.29022 -1.94617 0
M  V30 729 C 69.9036 1.4941 -0.813067 0
M  V30 730 O 71.0886 1.6176 -1.07459 0
M  V30 731 C 68.2186 2.64199 -2.25424 0
M  V30 732 C 67.1726 2.58484 -3.41131 0
M  V30 733 C 66.4986 3.97599 -3.57518 0
M  V30 734 C 67.7986 2.1413 -4.76388 0
M  V30 735 H 69.4926 0.968563 -2.83301 0
M  V30 736 H 67.0386 0.464479 -1.36303 0
M  V30 737 H 68.9916 3.38413 -2.51107 0
M  V30 738 H 67.7156 2.98032 -1.33583 0
M  V30 739 H 66.3746 1.86727 -3.15481 0
M  V30 740 H 66.0226 4.28723 -2.6307 0
M  V30 741 H 65.7226 3.94659 -4.35337 0
M  V30 742 H 67.2466 4.7349 -3.85538 0
M  V30 743 H 68.6606 2.78083 -5.01341 0
M  V30 744 H 67.0576 2.2227 -5.57419 0
M  V30 745 H 68.1276 1.09331 -4.72414 0
M  V30 746 N 69.4707 1.49531 0.497807 0
M  V30 747 C 70.4337 1.65916 1.58128 0
M  V30 748 C 71.4337 0.530825 1.51786 0
M  V30 749 O 72.6237 0.797342 1.54881 0
M  V30 750 C 69.7557 1.65951 2.9778 0
M  V30 751 H 70.9487 2.62556 1.44929 0
M  V30 752 H 68.5017 1.38611 0.722275 0
M  V30 753 H 69.2367 0.709065 3.16453 0
M  V30 754 H 69.0217 2.47897 3.03792 0
M  V30 755 H 70.5117 1.80673 3.76493 0
M  V30 756 N 70.9488 -0.749086 1.3866 0
M  V30 757 C 71.8588 -1.89358 1.38494 0
M  V30 758 C 72.8748 -1.71708 0.281476 0
M  V30 759 O 74.0508 -1.94554 0.520643 0
M  V30 760 C 71.1158 -3.24782 1.21316 0
M  V30 761 C 70.1768 -3.54926 2.41508 0
M  V30 762 C 69.4098 -4.83888 2.2514 0
M  V30 763 O 69.6328 -5.56592 1.24746 0
M  V30 764 O 68.5668 -5.13612 3.13826 0
M  V30 765 H 72.3928 -1.92452 2.34938 0
M  V30 766 H 69.9778 -0.894981 1.19626 0
M  V30 767 H 71.8598 -4.05739 1.13814 0
M  V30 768 H 70.5348 -3.2249 0.279592 0
M  V30 769 H 69.4418 -2.74112 2.54585 0
M  V30 770 H 70.7748 -3.61983 3.3351 0
M  V30 771 N 72.4269 -1.23603 -0.977757 0
M  V30 772 C 73.8429 -0.999251 -1.24447 0
M  V30 773 C 74.0429 0.298053 -1.99283 0
M  V30 774 O 73.0989 1.01681 -2.31122 0
M  V30 775 C 74.4119 -2.20784 -2.04144 0
M  V30 776 C 75.9599 -2.25303 -2.17273 0
M  V30 777 C 76.4349 -3.45755 -3.00362 0
M  V30 778 N 77.9259 -3.4601 -3.07947 0
M  V30 779 C 78.6609 -4.35868 -3.72568 0
M  V30 780 N 78.1569 -5.35966 -4.38991 0
M  V30 781 N 79.9499 -4.23605 -3.6948 0
M  V30 782 H 72.1009 -2.06986 -0.476483 0
M  V30 783 H 74.3639 -0.907801 -0.273134 0
M  V30 784 H 74.0699 -3.14945 -1.56533 0
M  V30 785 H 73.9439 -2.22085 -3.04891 0
M  V30 786 H 76.3309 -1.3168 -2.64092 0
M  V30 787 H 76.4119 -2.28033 -1.15907 0
M  V30 788 H 76.0559 -4.39687 -2.5424 0
M  V30 789 H 75.9859 -3.40266 -4.01904 0
M  V30 790 H 78.4769 -2.73588 -2.60688 0
M  V30 791 H 78.7899 -6.00783 -4.86086 0
M  V30 792 H 77.1349 -5.39863 -4.37691 0
M  V30 793 H 80.3259 -3.44647 -3.16759 0
M  V30 794 H 80.4989 -4.93836 -4.1956 0
M  V30 795 N 73.905 1.17692 -1.04816 0
M  V30 796 C 74.853 2.23632 -0.63966 0
M  V30 797 C 75.847 1.6601 0.337219 0
M  V30 798 O 77.053 1.78844 0.203693 0
M  V30 799 H 73.428 0.727949 -0.188665 0
M  V30 800 H 75.399 2.55387 -1.54337 0
M  V30 801 C 74.148 3.4769 -0.0264051 0
M  V30 802 H 73.471 3.92331 -0.769164 0
M  V30 803 H 74.911 4.23418 0.222098 0
M  V30 804 C 73.37 3.13807 1.22584 0
M  V30 805 O 73.9 3.28236 2.31569 0
M  V30 806 N 72.106 2.68065 1.12202 0
M  V30 807 H 71.653 2.56525 0.235133 0
M  V30 808 H 71.611 2.45767 1.96076 0
M  V30 809 N 75.3831 0.828654 1.34056 0
M  V30 810 C 76.2931 0.256725 2.33191 0
M  V30 811 C 77.3091 -0.611898 1.62886 0
M  V30 812 O 78.4851 -0.51844 1.94613 0
M  V30 813 C 75.5501 -0.567238 3.42028 0
M  V30 814 C 74.6111 0.324458 4.28072 0
M  V30 815 C 73.8441 -0.460274 5.31712 0
M  V30 816 O 74.0671 -1.693 5.44696 0
M  V30 817 O 73.0011 0.160391 6.01686 0
M  V30 818 H 76.8271 1.07739 2.83947 0
M  V30 819 H 74.4121 0.59093 1.37217 0
M  V30 820 H 76.2941 -1.03582 4.08471 0
M  V30 821 H 74.9691 -1.36513 2.93506 0
M  V30 822 H 73.8761 0.840659 3.64532 0
M  V30 823 H 75.2091 1.08685 4.8005 0
M  V30 824 N 76.8612 -1.46375 0.584142 0
M  V30 825 C 78.1102 -2.01585 0.0679741 0
M  V30 826 C 78.4232 -1.46109 -1.30045 0
M  V30 827 O 79.6292 -1.93148 -1.90804 0
M  V30 828 C 78.0852 -3.5983 0.0709207 0
M  V30 829 C 77.6932 -4.24303 1.43775 0
M  V30 830 C 79.4372 -4.22693 -0.391228 0
M  V30 831 C 77.3442 -5.74631 1.39834 0
M  V30 832 H 76.2742 -0.753689 0.0216421 0
M  V30 833 H 78.9252 -1.68093 0.736001 0
M  V30 834 H 77.3072 -3.90405 -0.663299 0
M  V30 835 H 78.4812 -4.05335 2.19181 0
M  V30 836 H 76.7962 -3.73539 1.84004 0
M  V30 837 H 79.3932 -5.3289 -0.439524 0
M  V30 838 H 79.7362 -3.91728 -1.40906 0
M  V30 839 H 80.2692 -3.96749 0.288974 0
M  V30 840 H 77.0082 -6.10258 2.39303 0
M  V30 841 H 76.5282 -5.95858 0.686505 0
M  V30 842 H 78.2072 -6.37375 1.11187 0
M  V30 843 N 78.3393 -0.321999 -1.54275 0
M  V30 844 C 79.5673 0.283052 -2.04955 0
M  V30 845 C 79.9823 1.45904 -1.19823 0
M  V30 846 O 79.3393 1.81063 -0.228545 0
M  V30 847 C 79.3903 0.719028 -3.54277 0
M  V30 848 O 79.1113 -0.410175 -4.36176 0
M  V30 849 C 80.6123 1.38705 -4.21041 0
M  V30 850 H 77.8323 0.0584616 -0.668448 0
M  V30 851 H 80.3763 -0.467734 -1.99079 0
M  V30 852 H 78.5313 1.41979 -3.60445 0
M  V30 853 H 78.9453 -0.0669416 -5.24457 0
M  V30 854 H 80.4193 1.64306 -5.2698 0
M  V30 855 H 80.8963 2.33385 -3.72059 0
M  V30 856 H 81.5023 0.728906 -4.19007 0
M  V30 857 N 79.8174 1.5752 -0.0501392 0
M  V30 858 C 81.0644 1.9265 0.623874 0
M  V30 859 C 81.3924 0.928411 1.70912 0
M  V30 860 O 80.6474 -0.0594525 1.9561 0
M  V30 861 C 80.9464 3.34467 1.25963 0
M  V30 862 C 80.6124 4.49883 0.302689 0
M  V30 863 C 79.2744 4.81184 0.0393636 0
M  V30 864 C 81.6264 5.20002 -0.353205 0
M  V30 865 C 78.9544 5.79951 -0.887308 0
M  V30 866 C 81.3064 6.1976 -1.26806 0
M  V30 867 C 79.9704 6.49491 -1.54007 0
M  V30 868 H 79.2404 0.704957 0.228292 0
M  V30 869 H 81.8874 1.91146 -0.116398 0
M  V30 870 H 80.1924 3.32333 2.07514 0
M  V30 871 H 81.8894 3.58928 1.78806 0
M  V30 872 H 78.4794 4.25457 0.518109 0
M  V30 873 H 82.6634 4.96033 -0.162854 0
M  V30 874 H 77.9194 6.01322 -1.10553 0
M  V30 875 H 82.0934 6.73205 -1.78236 0
M  V30 876 H 79.7204 7.25837 -2.25976 0
M  V30 877 N 81.2955 -0.223234 1.56011 0
M  V30 878 C 82.5725 -0.972108 1.69733 0
M  V30 879 C 82.9525 -2.02485 0.59691 0
M  V30 880 O 82.3005 -2.25037 -0.396324 0
M  V30 881 C 82.5105 -1.58407 3.10979 0
M  V30 882 C 83.8585 -2.07696 3.70334 0
M  V30 883 O 84.8825 -1.68304 3.1393 0
M  V30 884 O 83.7415 -2.80096 4.69264 0
M  V30 885 H 80.8355 -0.453993 0.691245 0
M  V30 886 H 83.3815 -0.215149 1.68331 0
M  V30 887 H 82.1535 -0.823831 3.82529 0
M  V30 888 H 81.7765 -2.40661 3.16493 0
M  V30 889 N 82.7736 -1.49793 -0.48987 0
M  V30 890 C 83.7206 -1.67281 -1.59014 0
M  V30 891 C 84.6906 -0.514177 -1.57941 0
M  V30 892 O 85.8756 -0.742533 -1.75759 0
M  V30 893 C 83.0156 -1.75569 -2.97102 0
M  V30 894 C 82.1286 -3.0281 -3.08107 0
M  V30 895 C 81.2636 -3.02008 -4.36995 0
M  V30 896 C 80.3026 -4.23782 -4.41673 0
M  V30 897 N 79.4396 -4.20826 -5.62005 0
M  V30 898 H 84.2796 -2.61224 -1.43409 0
M  V30 899 H 81.8166 -1.29508 -0.697565 0
M  V30 900 H 83.7746 -1.78354 -3.77155 0
M  V30 901 H 82.4046 -0.850827 -3.11385 0
M  V30 902 H 81.4566 -3.09584 -2.21047 0
M  V30 903 H 82.7686 -3.92801 -3.07423 0
M  V30 904 H 81.9226 -3.03418 -5.25378 0
M  V30 905 H 80.6616 -2.09815 -4.4026 0
M  V30 906 H 79.6666 -4.22604 -3.5169 0
M  V30 907 H 80.8916 -5.17181 -4.40115 0
M  V30 908 H 78.8376 -3.31476 -5.66091 0
M  V30 909 H 78.7546 -5.04564 -5.62984 0
M  V30 910 H 80.0226 -4.26355 -6.52565 0
M  V30 911 N 84.2517 0.741722 -1.39055 0
M  V30 912 C 85.5007 1.49656 -1.35225 0
M  V30 913 C 85.8137 1.95533 0.0512708 0
M  V30 914 O 87.0197 2.7067 0.212138 0
M  V30 915 C 85.4757 2.70389 -2.37525 0
M  V30 916 C 85.0837 2.31489 -3.83558 0
M  V30 917 C 86.8277 3.48236 -2.42759 0
M  V30 918 C 84.7347 3.48903 -4.77515 0
M  V30 919 H 83.6647 0.56197 -0.502699 0
M  V30 920 H 86.3157 0.809727 -1.64668 0
M  V30 921 H 84.6977 3.41113 -2.01142 0
M  V30 922 H 85.8717 1.68354 -4.28945 0
M  V30 923 H 84.1867 1.66749 -3.81554 0
M  V30 924 H 86.7837 4.35558 -3.1015 0
M  V30 925 H 87.1267 3.90229 -1.45008 0
M  V30 926 H 87.6597 2.84535 -2.78002 0
M  V30 927 H 84.3987 3.11966 -5.76504 0
M  V30 928 H 83.9187 4.11041 -4.36813 0
M  V30 929 H 85.5977 4.15328 -4.96096 0
M  V30 930 N 85.7298 1.2412 0.971189 0
M  V30 931 C 86.9768 1.07881 1.71371 0
M  V30 932 C 87.3048 -0.382901 1.90694 0
M  V30 933 O 86.5598 -1.29945 1.46331 0
M  V30 934 C 86.8588 1.75983 3.11071 0
M  V30 935 C 86.5248 3.25909 3.11599 0
M  V30 936 C 85.1868 3.66813 3.11451 0
M  V30 937 C 87.5388 4.21771 3.062 0
M  V30 938 C 84.8668 5.02021 3.03631 0
M  V30 939 C 87.2188 5.56982 2.99923 0
M  V30 940 C 85.8828 5.97237 2.98102 0
M  V30 941 H 85.1528 0.394764 0.62709 0
M  V30 942 H 87.7998 1.54176 1.13587 0
M  V30 943 H 86.1048 1.22072 3.72298 0
M  V30 944 H 87.8018 1.60887 3.6731 0
M  V30 945 H 84.3918 2.93353 3.12477 0
M  V30 946 H 88.5758 3.91172 3.05447 0
M  V30 947 H 83.8318 5.32411 3.0058 0
M  V30 948 H 88.0058 6.30969 2.94704 0
M  V30 949 H 85.6328 7.01967 2.91798 0
M  V30 950 N 87.2079 -1.17134 1.05439 0
M  V30 951 C 88.1559 -2.23289 0.651511 0
M  V30 952 C 89.1499 -1.66186 -0.328411 0
M  V30 953 O 90.3559 -1.78949 -0.194206 0
M  V30 954 H 86.7309 -0.726938 0.192523 0
M  V30 955 H 88.7019 -2.54565 1.55689 0
M  V30 956 C 87.4509 -3.47671 0.0448436 0
M  V30 957 H 86.7739 -3.91918 0.78996 0
M  V30 958 H 88.2139 -4.2353 -0.19964 0
M  V30 959 C 86.6729 -3.14453 -1.20918 0
M  V30 960 O 87.2029 -3.29459 -2.29825 0
M  V30 961 N 85.4089 -2.68657 -1.10779 0
M  V30 962 H 84.9559 -2.56646 -0.221526 0
M  V30 963 H 84.9139 -2.46804 -1.9477 0
M  V30 964 N 88.686 -0.835752 -1.33615 0
M  V30 965 C 89.618 -0.224151 -2.28101 0
M  V30 966 C 90.631 0.593331 -1.51603 0
M  V30 967 O 91.82 0.420911 -1.73466 0
M  V30 968 C 88.92 0.703309 -3.31522 0
M  V30 969 C 88.093 -0.0741528 -4.37337 0
M  V30 970 C 87.152 0.776176 -5.20444 0
M  V30 971 O 86.178 0.216506 -5.68788 0
M  V30 972 N 87.38 2.09401 -5.41416 0
M  V30 973 H 90.145 -1.03598 -2.81225 0
M  V30 974 H 87.706 -0.69392 -1.46275 0
M  V30 975 H 89.698 1.27707 -3.84022 0
M  V30 976 H 88.268 1.41585 -2.78698 0
M  V30 977 H 87.488 -0.82928 -3.85378 0
M  V30 978 H 88.776 -0.608863 -5.05144 0
M  V30 979 H 88.174 2.57229 -5.03835 0
M  V30 980 H 86.731 2.61633 -5.96985 0
M  V30 981 N 90.1641 1.46063 -0.591896 0
M  V30 982 C 91.1111 2.30399 0.136069 0
M  V30 983 C 92.0811 1.41169 0.875238 0
M  V30 984 O 93.2661 1.70112 0.86409 0
M  V30 985 C 90.4061 3.25804 1.13781 0
M  V30 986 C 89.5191 4.30134 0.401137 0
M  V30 987 C 88.6541 5.12659 1.39121 0
M  V30 988 C 87.6931 6.0873 0.641462 0
M  V30 989 N 86.8301 6.8409 1.58004 0
M  V30 990 H 91.6701 2.92118 -0.589144 0
M  V30 991 H 89.2071 1.43959 -0.302342 0
M  V30 992 H 91.1651 3.79569 1.73156 0
M  V30 993 H 89.7951 2.65872 1.83062 0
M  V30 994 H 88.8471 3.79152 -0.307826 0
M  V30 995 H 90.1591 4.98458 -0.184565 0
M  V30 996 H 89.3131 5.70747 2.05749 0
M  V30 997 H 88.0521 4.44316 2.01084 0
M  V30 998 H 87.0571 5.49786 -0.0385419 0
M  V30 999 H 88.2821 6.79095 0.0270945 0
M  V30 1000 H 86.2281 6.18449 2.18761 0
M  V30 1001 H 86.1451 7.48709 1.04738 0
M  V30 1002 H 87.4131 7.4673 2.23639 0
M  V30 1003 N 91.6422 0.330177 1.54103 0
M  V30 1004 C 92.8912 -0.271336 1.99867 0
M  V30 1005 C 93.2042 -1.52723 1.22209 0
M  V30 1006 O 94.4102 -2.20515 1.58383 0
M  V30 1007 C 92.8662 -0.534032 3.55916 0
M  V30 1008 C 92.4742 0.705193 4.42415 0
M  V30 1009 C 94.2182 -1.09514 4.1013 0
M  V30 1010 C 92.1252 0.414035 5.89949 0
M  V30 1011 H 91.0552 -0.105166 0.74663 0
M  V30 1012 H 93.7062 0.443429 1.78062 0
M  V30 1013 H 92.0882 -1.30915 3.73734 0
M  V30 1014 H 93.2622 1.4804 4.36372 0
M  V30 1015 H 91.5772 1.18698 3.99124 0
M  V30 1016 H 94.1742 -1.3277 5.17954 0
M  V30 1017 H 94.5172 -2.04656 3.62521 0
M  V30 1018 H 95.0502 -0.381038 3.95971 0
M  V30 1019 H 91.7892 1.33481 6.41766 0
M  V30 1020 H 91.3092 -0.323336 5.98928 0
M  V30 1021 H 92.9882 0.0263105 6.46995 0
M  V30 1022 N 93.1203 -1.57491 0.0584922 0
M  V30 1023 C 94.3683 -1.92597 -0.612436 0
M  V30 1024 C 94.6893 -0.938162 -1.70949 0
M  V30 1025 O 93.9593 0.0158301 -1.95894 0
M  V30 1026 H 92.5393 -0.710964 -0.229214 0
M  V30 1027 H 95.2013 -1.94571 0.113218 0
M  V30 1028 H 94.2973 -2.94038 -1.04633 0
M  V30 1029 N 94.5984 0.214957 -1.56127 0
M  V30 1030 C 95.8454 0.938372 -1.79446 0
M  V30 1031 C 96.1734 1.8407 -0.628378 0
M  V30 1032 O 95.4284 1.91837 0.386925 0
M  V30 1033 C 95.7274 1.80314 -3.0858 0
M  V30 1034 C 95.3934 1.05349 -4.3842 0
M  V30 1035 C 94.0554 0.846435 -4.73697 0
M  V30 1036 C 96.4074 0.524588 -5.18553 0
M  V30 1037 C 93.7354 0.098683 -5.86617 0
M  V30 1038 C 96.0874 -0.209853 -6.32252 0
M  V30 1039 C 94.7514 -0.428102 -6.66126 0
M  V30 1040 H 94.0214 0.343375 -0.656639 0
M  V30 1041 H 96.6684 0.206077 -1.90388 0
M  V30 1042 H 94.9734 2.6035 -2.92789 0
M  V30 1043 H 96.6704 2.36513 -3.23825 0
M  V30 1044 H 93.2604 1.22486 -4.10725 0
M  V30 1045 H 97.4444 0.672008 -4.91729 0
M  V30 1046 H 92.7004 -0.0805753 -6.11347 0
M  V30 1047 H 96.8744 -0.627157 -6.9357 0
M  V30 1048 H 94.5014 -1.00944 -7.53468 0
M  V30 1049 N 96.0765 1.50051 0.48192 0
M  V30 1050 C 97.0065 1.71046 1.58951 0
M  V30 1051 C 97.9875 0.559288 1.60642 0
M  V30 1052 O 99.1725 0.797243 1.77081 0
M  V30 1053 C 96.3025 1.79462 2.97339 0
M  V30 1054 C 95.2565 2.94558 3.10515 0
M  V30 1055 C 94.5825 2.88105 4.50444 0
M  V30 1056 C 95.8825 4.35227 2.88747 0
M  V30 1057 H 97.5765 2.6378 1.41635 0
M  V30 1058 H 95.1225 1.26936 0.679942 0
M  V30 1059 H 97.0755 1.92734 3.74742 0
M  V30 1060 H 95.7995 0.833412 3.15788 0
M  V30 1061 H 94.4585 2.80918 2.35543 0
M  V30 1062 H 94.1065 1.89853 4.65795 0
M  V30 1063 H 93.8065 3.65366 4.60197 0
M  V30 1064 H 95.3305 3.03412 5.29881 0
M  V30 1065 H 96.7445 4.49449 3.55905 0
M  V30 1066 H 95.1415 5.13856 3.09955 0
M  V30 1067 H 96.2115 4.48347 1.84696 0
M  V30 1068 N 97.5546 -0.734337 1.39446 0
M  V30 1069 C 98.4846 -1.86155 1.40955 0
M  V30 1070 C 99.4656 -1.67898 0.272827 0
M  V30 1071 O 100.651 -1.88207 0.478743 0
M  V30 1072 C 97.7806 -3.23912 1.25294 0
M  V30 1073 C 96.7346 -3.56808 2.36373 0
M  V30 1074 C 96.0606 -4.93508 2.058 0
M  V30 1075 C 97.3606 -3.59713 3.78687 0
M  V30 1076 H 99.0546 -1.8515 2.35287 0
M  V30 1077 H 96.6006 -0.889367 1.13253 0
M  V30 1078 H 98.5536 -4.02443 1.2497 0
M  V30 1079 H 97.2776 -3.25446 0.274308 0
M  V30 1080 H 95.9366 -2.80606 2.35914 0
M  V30 1081 H 95.5846 -4.91623 1.06374 0
M  V30 1082 H 95.2846 -5.16486 2.80208 0
M  V30 1083 H 96.8086 -5.74396 2.07128 0
M  V30 1084 H 98.2226 -4.2832 3.81071 0
M  V30 1085 H 96.6196 -3.94209 4.52459 0
M  V30 1086 H 97.6896 -2.59504 4.09617 0
M  V30 1087 N 99.0327 -1.24633 -0.964593 0
M  V30 1088 C 100.28 -1.08788 -1.70796 0
M  V30 1089 C 100.608 0.372783 -1.90894 0
M  V30 1090 O 99.8627 1.29167 -1.47018 0
M  V30 1091 C 100.162 -1.7763 -3.10133 0
M  V30 1092 C 99.8277 -3.27557 -3.09866 0
M  V30 1093 C 98.4897 -3.6846 -3.09501 0
M  V30 1094 C 100.842 -4.23389 -3.03959 0
M  V30 1095 C 98.1697 -5.03624 -3.00965 0
M  V30 1096 C 100.522 -5.58565 -2.96965 0
M  V30 1097 C 99.1857 -5.98809 -2.9493 0
M  V30 1098 H 98.4557 -0.398084 -0.624988 0
M  V30 1099 H 101.103 -1.54777 -1.12767 0
M  V30 1100 H 99.4077 -1.24044 -3.71645 0
M  V30 1101 H 101.105 -1.62832 -3.66451 0
M  V30 1102 H 97.6947 -2.95006 -3.10917 0
M  V30 1103 H 101.879 -3.92787 -3.03368 0
M  V30 1104 H 97.1347 -5.33998 -2.97752 0
M  V30 1105 H 101.309 -6.32523 -2.91354 0
M  V30 1106 H 98.9357 -7.03505 -2.88071 0
M  V30 1107 N 100.511 1.16574 -1.06058 0
M  V30 1108 C 101.458 2.20883 -0.669263 0
M  V30 1109 C 102.428 1.62729 0.332918 0
M  V30 1110 O 103.613 1.895 0.222346 0
M  V30 1111 C 100.753 3.45049 -0.0593572 0
M  V30 1112 C 99.8658 4.17458 -1.11143 0
M  V30 1113 C 99.0008 5.29135 -0.467916 0
M  V30 1114 C 98.0398 5.93343 -1.50369 0
M  V30 1115 N 97.1768 6.96516 -0.883706 0
M  V30 1116 H 102.017 2.53709 -1.5632 0
M  V30 1117 H 99.5538 1.24616 -0.781625 0
M  V30 1118 H 101.512 4.16033 0.311771 0
M  V30 1119 H 100.142 3.12781 0.797992 0
M  V30 1120 H 99.1938 3.45101 -1.60029 0
M  V30 1121 H 100.506 4.61307 -1.89731 0
M  V30 1122 H 99.6598 6.06684 -0.0436871 0
M  V30 1123 H 98.3988 4.86443 0.349864 0
M  V30 1124 H 97.4038 5.14517 -1.93784 0
M  V30 1125 H 98.6288 6.38114 -2.32352 0
M  V30 1126 H 96.5748 6.55943 -0.086595 0
M  V30 1127 H 96.4918 7.38723 -1.607 0
M  V30 1128 H 97.7598 7.77993 -0.484543 0
M  V30 1129 N 101.989 0.842826 1.3317 0
M  V30 1130 C 103.266 0.362216 1.92217 0
M  V30 1131 C 103.646 -1.15289 1.76838 0
M  V30 1132 O 102.994 -1.96914 1.15919 0
M  V30 1133 C 103.204 0.813495 3.39387 0
M  V30 1134 C 104.552 0.823804 4.16532 0
M  V30 1135 O 105.576 0.757358 3.48055 0
M  V30 1136 O 104.435 0.915193 5.38782 0
M  V30 1137 H 101.529 0.103317 0.820521 0
M  V30 1138 H 104.075 0.928942 1.42017 0
M  V30 1139 H 102.847 1.85624 3.4447 0
M  V30 1140 H 102.47 0.223561 3.96971 0
M  V30 1141 N 103.467 -1.45747 0.599634 0
M  V30 1142 C 104.714 -2.02292 0.0917284 0
M  V30 1143 C 105.042 -1.46906 -1.27472 0
M  V30 1144 O 104.297 -0.630652 -1.8526 0
M  V30 1145 C 104.596 -3.57399 -0.00602758 0
M  V30 1146 C 104.262 -4.31902 1.29503 0
M  V30 1147 C 102.924 -4.51974 1.65144 0
M  V30 1148 C 105.276 -4.74551 2.15525 0
M  V30 1149 C 102.604 -5.11949 2.86574 0
M  V30 1150 C 104.956 -5.35868 3.36196 0
M  V30 1151 C 103.62 -5.54165 3.72099 0
M  V30 1152 H 102.89 -0.740239 0.0335658 0
M  V30 1153 H 105.537 -1.7491 0.779661 0
M  V30 1154 H 103.842 -3.84014 -0.777183 0
M  V30 1155 H 105.539 -3.98846 -0.415038 0
M  V30 1156 H 102.129 -4.16588 1.00761 0
M  V30 1157 H 106.313 -4.58784 1.8929 0
M  V30 1158 H 101.569 -5.24305 3.14507 0
M  V30 1159 H 105.743 -5.6787 4.03109 0
M  V30 1160 H 103.37 -6.00406 4.6628 0
M  V30 1161 N 104.945 -0.338344 -1.53925 0
M  V30 1162 C 106.185 0.260168 -2.02737 0
M  V30 1163 C 106.549 1.48181 -1.22092 0
M  V30 1164 O 107.75 2.15416 -1.60777 0
M  V30 1165 C 106.021 0.571627 -3.52799 0
M  V30 1166 S 107.58 1.14769 -4.23525 0
M  V30 1167 H 104.398 0.077791 -0.706732 0
M  V30 1168 H 107 -0.474899 -1.89644 0
M  V30 1169 H 105.704 -0.325392 -4.09108 0
M  V30 1170 H 105.235 1.3365 -3.70002 0
M  V30 1171 H 107.25 2.43372 -4.32417 0
M  V30 1172 N 106.423 1.57458 -0.0668435 0
M  V30 1173 C 107.353 2.15468 0.899764 0
M  V30 1174 C 108.334 1.08042 1.31381 0
M  V30 1175 O 109.519 1.36054 1.38574 0
M  V30 1176 C 106.649 2.71232 2.16911 0
M  V30 1177 C 105.603 3.83781 1.89463 0
M  V30 1178 C 104.929 4.26127 3.22986 0
M  V30 1179 C 106.229 5.08238 1.20381 0
M  V30 1180 H 107.923 2.96488 0.416529 0
M  V30 1181 H 105.469 1.4262 0.198908 0
M  V30 1182 H 107.422 3.10458 2.84945 0
M  V30 1183 H 106.146 1.87426 2.67468 0
M  V30 1184 H 104.805 3.45051 1.23836 0
M  V30 1185 H 104.453 3.39249 3.71374 0
M  V30 1186 H 104.153 5.01993 3.05413 0
M  V30 1187 H 105.677 4.67966 3.92225 0
M  V30 1188 H 107.091 5.44811 1.78475 0
M  V30 1189 H 105.488 5.89349 1.13083 0
M  V30 1190 H 106.558 4.84558 0.182153 0
M  V30 1191 N 107.901 -0.206675 1.56239 0
M  V30 1192 C 108.849 -1.27571 1.94495 0
M  V30 1193 C 109.843 -1.47737 0.828862 0
M  V30 1194 O 111.049 -1.48735 1.0138 0
M  V30 1195 H 107.424 -0.428029 0.6183 0
M  V30 1196 H 109.395 -0.925961 2.8367 0
M  V30 1197 C 108.144 -2.61568 2.29079 0
M  V30 1198 H 107.467 -2.46863 3.14482 0
M  V30 1199 H 108.907 -3.35144 2.5972 0
M  V30 1200 C 107.366 -3.17695 1.12123 0
M  V30 1201 O 107.896 -3.99801 0.390153 0
M  V30 1202 N 106.102 -2.76276 0.901097 0
M  V30 1203 H 105.649 -2.09613 1.49733 0
M  V30 1204 H 105.607 -3.1417 0.120319 0
M  V30 1205 N 109.379 -1.50304 -0.473955 0
M  V30 1206 C 110.289 -1.7174 -1.5982 0
M  V30 1207 C 111.305 -0.600457 -1.63311 0
M  V30 1208 O 112.481 -0.878441 -1.81233 0
M  V30 1209 C 109.546 -1.80427 -2.96052 0
M  V30 1210 C 108.607 -3.04148 -3.02972 0
M  V30 1211 C 107.84 -3.12411 -4.32706 0
M  V30 1212 O 108.063 -2.27542 -5.23049 0
M  V30 1213 O 106.997 -4.05113 -4.45159 0
M  V30 1214 H 110.823 -2.67035 -1.44657 0
M  V30 1215 H 108.408 -1.34366 -0.653148 0
M  V30 1216 H 110.29 -1.88338 -3.7697 0
M  V30 1217 H 108.965 -0.883156 -3.11419 0
M  V30 1218 H 107.872 -3.0174 -2.21142 0
M  V30 1219 H 109.205 -3.95829 -2.92541 0
M  V30 1220 N 110.857 0.726932 -1.39834 0
M  V30 1221 C 112.106 1.48214 -1.36805 0
M  V30 1222 C 112.419 1.95576 0.0305291 0
M  V30 1223 O 113.625 2.7088 0.183417 0
M  V30 1224 C 112.081 2.67854 -2.40379 0
M  V30 1225 C 111.689 2.27408 -3.85992 0
M  V30 1226 C 113.433 3.45641 -2.46439 0
M  V30 1227 C 111.34 3.43819 -4.81189 0
M  V30 1228 H 110.27 0.556606 -0.508631 0
M  V30 1229 H 112.921 0.792216 -1.65518 0
M  V30 1230 H 111.303 3.3896 -2.04749 0
M  V30 1231 H 112.477 1.63795 -4.30706 0
M  V30 1232 H 110.792 1.62692 -3.83302 0
M  V30 1233 H 113.389 4.32244 -3.14753 0
M  V30 1234 H 113.732 3.88669 -1.49139 0
M  V30 1235 H 114.265 2.8157 -2.81004 0
M  V30 1236 H 111.004 3.05834 -5.79781 0
M  V30 1237 H 110.524 4.06385 -4.41148 0
M  V30 1238 H 112.203 4.10043 -5.00474 0
M  V30 1239 N 112.336 1.25143 0.95797 0
M  V30 1240 C 113.284 1.05019 2.07542 0
M  V30 1241 C 114.278 -0.0178751 1.69391 0
M  V30 1242 O 115.484 0.137472 1.79474 0
M  V30 1243 H 111.859 0.32265 0.679265 0
M  V30 1244 H 113.83 1.99759 2.21673 0
M  V30 1245 C 112.579 0.682074 3.40944 0
M  V30 1246 H 111.902 1.49573 3.70767 0
M  V30 1247 H 113.342 0.580945 4.20001 0
M  V30 1248 C 111.801 -0.611608 3.31302 0
M  V30 1249 O 112.331 -1.65465 3.66038 0
M  V30 1250 N 110.537 -0.595982 2.84423 0
M  V30 1251 H 110.084 0.253192 2.56353 0
M  V30 1252 H 110.042 -1.46173 2.78354 0
M  V30 1253 N 113.814 -1.1601 1.06675 0
M  V30 1254 C 114.724 -2.24156 0.692179 0
M  V30 1255 C 115.74 -1.71507 -0.293513 0
M  V30 1256 O 116.916 -2.009 -0.141861 0
M  V30 1257 C 113.981 -3.46587 0.0884131 0
M  V30 1258 C 113.042 -4.14257 1.12646 0
M  V30 1259 C 112.275 -5.30844 0.551416 0
M  V30 1260 O 112.498 -5.66858 -0.634656 0
M  V30 1261 O 111.432 -5.87848 1.29298 0
M  V30 1262 H 115.258 -2.58513 1.59388 0
M  V30 1263 H 112.843 -1.23599 0.83926 0
M  V30 1264 H 114.725 -4.20679 -0.246361 0
M  V30 1265 H 113.4 -3.13994 -0.786712 0
M  V30 1266 H 112.307 -3.42118 1.51348 0
M  V30 1267 H 113.64 -4.50914 1.97325 0
M  V30 1268 N 115.292 -0.849877 -1.32721 0
M  V30 1269 C 116.255 -0.296122 -2.27279 0
M  V30 1270 C 117.255 0.541458 -1.5141 0
M  V30 1271 O 118.445 0.353658 -1.70572 0
M  V30 1272 C 115.577 0.581579 -3.35902 0
M  V30 1273 H 116.77 -1.13064 -2.77771 0
M  V30 1274 H 114.323 -0.62383 -1.43311 0
M  V30 1275 H 115.058 1.43809 -2.9067 0
M  V30 1276 H 114.843 -0.0178814 -3.92096 0
M  V30 1277 H 116.333 0.961951 -4.0637 0
M  V30 1278 N 116.77 1.45427 -0.607355 0
M  V30 1279 C 118.016 2.0254 -0.102607 0
M  V30 1280 C 118.349 1.47478 1.26348 0
M  V30 1281 O 117.624 0.64939 1.83339 0
M  V30 1282 C 117.907 3.60044 -0.0634347 0
M  V30 1283 C 117.76 4.2544 -1.46017 0
M  V30 1284 C 119.079 4.35646 0.624514 0
M  V30 1285 H 116.198 0.73598 -0.0387607 0
M  V30 1286 H 118.84 1.73284 -0.779282 0
M  V30 1287 H 116.99 3.85101 0.512808 0
M  V30 1288 H 118.662 4.11569 -2.08347 0
M  V30 1289 H 116.905 3.83849 -2.02094 0
M  V30 1290 H 117.576 5.34342 -1.385 0
M  V30 1291 H 120.052 4.15882 0.134723 0
M  V30 1292 H 118.928 5.45376 0.621028 0
M  V30 1293 H 119.189 4.08501 1.69055 0
M  V30 1294 N 118.248 0.346503 1.53744 0
M  V30 1295 C 119.659 -0.136779 1.86198 0
M  V30 1296 C 120.01 -1.49749 1.26766 0
M  V30 1297 O 119.135 -2.08417 0.582355 0
M  V30 1298 C 119.73 -0.254966 3.37839 0
M  V30 1299 C 118.289 -0.682482 3.70161 0
M  V30 1300 C 117.436 0.181981 2.76702 0
M  V30 1301 H 120.387 0.565994 1.48264 0
M  V30 1302 H 120.408 -1.08195 3.64793 0
M  V30 1303 H 119.92 0.735526 3.81066 0
M  V30 1304 H 118.021 -1.68189 3.3248 0
M  V30 1305 H 118.134 -0.470326 4.76786 0
M  V30 1306 H 116.498 -0.34615 2.52337 0
M  V30 1307 H 117.281 1.16966 3.2276 0
M  V30 1308 N 119.726 -1.57421 0.075193 0
M  V30 1309 C 120.658 -2.09904 -0.920483 0
M  V30 1310 C 121.671 -1.03191 -1.25918 0
M  V30 1311 O 122.86 -1.30695 -1.21577 0
M  V30 1312 C 119.96 -2.54726 -2.23534 0
M  V30 1313 C 119.133 -3.8505 -2.07498 0
M  V30 1314 C 118.192 -4.15929 -3.22319 0
M  V30 1315 O 117.218 -4.85474 -2.9716 0
M  V30 1316 N 118.42 -3.69745 -4.47514 0
M  V30 1317 H 121.185 -2.95954 -0.472359 0
M  V30 1318 H 118.746 -1.61523 -0.110444 0
M  V30 1319 H 120.738 -2.72443 -2.9926 0
M  V30 1320 H 119.308 -1.73795 -2.59835 0
M  V30 1321 H 118.528 -3.76679 -1.16219 0
M  V30 1322 H 119.816 -4.70348 -1.94038 0
M  V30 1323 H 119.214 -3.13569 -4.7084 0
M  V30 1324 H 117.771 -3.92655 -5.20255 0
M  V30 1325 N 121.204 0.198386 -1.56346 0
M  V30 1326 C 122.45 0.920648 -1.80698 0
M  V30 1327 C 122.783 1.83045 -0.648697 0
M  V30 1328 O 122.058 1.91308 0.350925 0
M  V30 1329 C 122.341 1.73971 -3.15287 0
M  V30 1330 C 122.194 0.85485 -4.41602 0
M  V30 1331 C 123.513 2.71296 -3.46535 0
M  V30 1332 H 120.632 0.333261 -0.657348 0
M  V30 1333 H 123.274 0.188198 -1.89066 0
M  V30 1334 H 121.424 2.36416 -3.08285 0
M  V30 1335 H 123.096 0.245362 -4.60647 0
M  V30 1336 H 121.339 0.161398 -4.335 0
M  V30 1337 H 122.01 1.46286 -5.32264 0
M  V30 1338 H 124.486 2.18983 -3.53816 0
M  V30 1339 H 123.362 3.2569 -4.41834 0
M  V30 1340 H 123.623 3.5018 -2.69864 0
M  V30 1341 N 122.682 1.50554 0.465978 0
M  V30 1342 C 123.629 1.6979 1.56333 0
M  V30 1343 C 124.599 0.539239 1.57103 0
M  V30 1344 O 125.784 0.770401 1.74555 0
M  V30 1345 C 122.924 1.80273 2.94271 0
M  V30 1346 C 122.037 3.07674 3.0325 0
M  V30 1347 C 121.172 3.08922 4.32135 0
M  V30 1348 C 120.211 4.30755 4.34875 0
M  V30 1349 N 119.348 4.29714 5.55239 0
M  V30 1350 H 124.188 2.63472 1.39235 0
M  V30 1351 H 121.725 1.30602 0.676873 0
M  V30 1352 H 123.683 1.84332 3.74269 0
M  V30 1353 H 122.313 0.900258 3.09992 0
M  V30 1354 H 121.365 3.13062 2.16094 0
M  V30 1355 H 122.677 3.97642 3.01135 0
M  V30 1356 H 121.831 3.11738 5.20485 0
M  V30 1357 H 120.57 2.16792 4.36866 0
M  V30 1358 H 119.575 4.28146 3.44922 0
M  V30 1359 H 120.8 5.24117 4.31831 0
M  V30 1360 H 118.746 3.4044 5.60746 0
M  V30 1361 H 118.663 5.13456 5.54886 0
M  V30 1362 H 119.931 4.36683 6.457 0
M  V30 1363 N 124.16 -0.719506 1.40217 0
M  V30 1364 C 125.407 -1.47933 1.38283 0
M  V30 1365 C 125.735 -1.94493 -0.0161536 0
M  V30 1366 O 124.99 -1.68224 -0.999956 0
M  V30 1367 C 125.289 -2.72271 2.31524 0
M  V30 1368 C 124.955 -2.44496 3.78857 0
M  V30 1369 C 123.617 -2.36631 4.18998 0
M  V30 1370 C 125.969 -2.21104 4.71977 0
M  V30 1371 C 123.297 -2.03437 5.503 0
M  V30 1372 C 125.649 -1.89423 6.03574 0
M  V30 1373 C 124.313 -1.80038 6.42762 0
M  V30 1374 H 123.583 -0.541325 0.506012 0
M  V30 1375 H 126.23 -0.824502 1.72842 0
M  V30 1376 H 124.535 -3.42572 1.90137 0
M  V30 1377 H 126.232 -3.30348 2.27313 0
M  V30 1378 H 122.822 -2.51503 3.47051 0
M  V30 1379 H 127.006 -2.26139 4.41786 0
M  V30 1380 H 122.262 -1.94705 5.79569 0
M  V30 1381 H 126.436 -1.70336 6.75247 0
M  V30 1382 H 124.063 -1.54083 7.44421 0
M  V30 1383 N 125.638 -1.25649 -0.95132 0
M  V30 1384 C 126.868 -1.13179 -1.72841 0
M  V30 1385 C 127.276 0.316827 -1.86528 0
M  V30 1386 O 126.619 1.22948 -1.3649 0
M  V30 1387 C 126.681 -1.71644 -3.15878 0
M  V30 1388 C 126.345 -3.20667 -3.25609 0
M  V30 1389 C 127.342 -4.17616 -3.09666 0
M  V30 1390 C 125.027 -3.6094 -3.49324 0
M  V30 1391 C 127.021 -5.52817 -3.17289 0
M  V30 1392 C 124.708 -4.96278 -3.56584 0
M  V30 1393 C 125.706 -5.92025 -3.40581 0
M  V30 1394 O 125.394 -7.24899 -3.47528 0
M  V30 1395 H 125.126 -0.395389 -0.54831 0
M  V30 1396 H 127.68 -1.66566 -1.20187 0
M  V30 1397 H 125.91 -1.12707 -3.69911 0
M  V30 1398 H 127.599 -1.54225 -3.75459 0
M  V30 1399 H 128.365 -3.87842 -2.91211 0
M  V30 1400 H 124.244 -2.86907 -3.6084 0
M  V30 1401 H 127.788 -6.2753 -3.04716 0
M  V30 1402 H 123.685 -5.25716 -3.74556 0
M  V30 1403 H 124.453 -7.33039 -3.64138 0
M  V30 1404 N 127.117 1.15442 -1.07289 0
M  V30 1405 C 128.027 2.23786 -0.704057 0
M  V30 1406 C 129.043 1.7166 0.284413 0
M  V30 1407 O 130.219 2.00972 0.131205 0
M  V30 1408 C 127.284 3.46535 -0.106792 0
M  V30 1409 C 126.345 4.13654 -1.14842 0
M  V30 1410 C 125.578 5.30544 -0.57956 0
M  V30 1411 O 125.801 5.67187 0.604585 0
M  V30 1412 O 124.735 5.87154 -1.32414 0
M  V30 1413 H 128.561 2.57664 -1.60757 0
M  V30 1414 H 126.146 1.23152 -0.845803 0
M  V30 1415 H 128.028 4.20804 0.224048 0
M  V30 1416 H 126.703 3.14407 0.770049 0
M  V30 1417 H 125.61 3.4131 -1.5316 0
M  V30 1418 H 126.943 4.49861 -1.99714 0
M  V30 1419 N 128.595 0.856903 1.32268 0
M  V30 1420 C 129.505 0.306131 2.32594 0
M  V30 1421 C 130.521 -0.577209 1.64147 0
M  V30 1422 O 131.697 -0.477043 1.95669 0
M  V30 1423 C 128.762 -0.494561 3.43154 0
M  V30 1424 C 127.823 0.415186 4.27288 0
M  V30 1425 C 127.056 -0.347387 5.32568 0
M  V30 1426 O 127.279 -1.57708 5.48165 0
M  V30 1427 O 126.213 0.287982 6.01211 0
M  V30 1428 H 130.039 1.13737 2.81598 0
M  V30 1429 H 127.624 0.619902 1.35932 0
M  V30 1430 H 129.506 -0.948944 4.10576 0
M  V30 1431 H 128.181 -1.30257 2.96336 0
M  V30 1432 H 127.088 0.917793 3.62667 0
M  V30 1433 H 128.421 1.18844 4.77637 0
M  V30 1434 N 130.073 -1.45103 0.615059 0
M  V30 1435 C 131.322 -2.01396 0.110718 0
M  V30 1436 C 131.635 -1.48834 -1.26916 0
M  V30 1437 O 132.841 -1.97152 -1.86664 0
M  V30 1438 C 131.297 -3.59599 0.14723 0
M  V30 1439 C 130.905 -4.21158 1.52743 0
M  V30 1440 C 132.649 -4.23428 -0.30148 0
M  V30 1441 C 130.556 -5.71535 1.51992 0
M  V30 1442 H 129.486 -0.753061 0.0376241 0
M  V30 1443 H 132.137 -1.66494 0.77149 0
M  V30 1444 H 130.519 -3.91724 -0.580339 0
M  V30 1445 H 131.693 -4.00594 2.2773 0
M  V30 1446 H 130.008 -3.69552 1.91886 0
M  V30 1447 H 132.605 -5.33703 -0.326392 0
M  V30 1448 H 132.948 -3.94629 -1.32565 0
M  V30 1449 H 133.481 -3.96047 0.373065 0
M  V30 1450 H 130.22 -6.05044 2.52193 0
M  V30 1451 H 129.74 -5.94268 0.81274 0
M  V30 1452 H 131.419 -6.34873 1.24681 0
M  V30 1453 N 131.551 -0.354651 -1.53558 0
M  V30 1454 C 132.498 0.496968 -2.25386 0
M  V30 1455 C 133.468 1.0865 -1.25636 0
M  V30 1456 O 134.653 1.12104 -1.54394 0
M  V30 1457 C 131.793 1.63637 -3.03837 0
M  V30 1458 C 130.906 1.07307 -4.18461 0
M  V30 1459 C 130.041 2.18068 -4.84376 0
M  V30 1460 C 129.08 1.59147 -5.91049 0
M  V30 1461 N 128.217 2.63695 -6.50699 0
M  V30 1462 H 133.057 -0.122075 -2.9775 0
M  V30 1463 H 130.594 -0.0720154 -1.46924 0
M  V30 1464 H 132.552 2.30734 -3.47589 0
M  V30 1465 H 131.182 2.22623 -2.33749 0
M  V30 1466 H 130.234 0.292708 -3.79272 0
M  V30 1467 H 131.546 0.602193 -4.95152 0
M  V30 1468 H 130.7 2.93007 -5.31255 0
M  V30 1469 H 129.439 2.68504 -4.07133 0
M  V30 1470 H 128.444 0.827175 -5.43542 0
M  V30 1471 H 129.669 1.09549 -6.70206 0
M  V30 1472 H 127.615 3.13365 -5.76315 0
M  V30 1473 H 127.532 2.21263 -7.22896 0
M  V30 1474 H 128.8 3.3837 -7.02229 0
M  V30 1475 N 133.029 1.57378 -0.0835403 0
M  V30 1476 C 133.939 2.16897 0.894021 0
M  V30 1477 C 134.955 1.13528 1.31861 0
M  V30 1478 O 136.131 1.45848 1.3889 0
M  V30 1479 C 133.196 2.72831 2.13925 0
M  V30 1480 C 132.257 3.91115 1.76997 0
M  V30 1481 C 131.49 4.44371 2.95584 0
M  V30 1482 O 131.713 3.96596 4.09961 0
M  V30 1483 O 130.647 5.35549 2.74719 0
M  V30 1484 H 134.473 3.00814 0.417679 0
M  V30 1485 H 132.058 1.48741 0.140181 0
M  V30 1486 H 133.94 3.0863 2.86924 0
M  V30 1487 H 132.615 1.91967 2.60635 0
M  V30 1488 H 131.522 3.60148 1.01214 0
M  V30 1489 H 132.855 4.73307 1.3506 0
M  V30 1490 N 134.507 -0.190092 1.56449 0
M  V30 1491 C 135.737 -0.92443 1.84764 0
M  V30 1492 C 136.145 -1.77146 0.664529 0
M  V30 1493 O 135.488 -1.79812 -0.375957 0
M  V30 1494 C 135.55 -1.86651 3.07248 0
M  V30 1495 C 135.214 -1.20094 4.40938 0
M  V30 1496 C 136.211 -0.575445 5.16706 0
M  V30 1497 C 133.896 -1.2033 4.87674 0
M  V30 1498 C 135.89 0.0388111 6.37388 0
M  V30 1499 C 133.577 -0.585214 6.08291 0
M  V30 1500 C 134.575 0.0347578 6.82991 0
M  V30 1501 O 134.263 0.643147 8.01323 0
M  V30 1502 H 133.995 -0.274974 0.617548 0
M  V30 1503 H 136.549 -0.200788 2.04416 0
M  V30 1504 H 134.779 -2.62998 2.83494 0
M  V30 1505 H 136.468 -2.46907 3.22167 0
M  V30 1506 H 137.234 -0.565728 4.81689 0
M  V30 1507 H 133.113 -1.67526 4.29484 0
M  V30 1508 H 136.657 0.523329 6.95634 0
M  V30 1509 H 132.554 -0.592451 6.42775 0
M  V30 1510 H 133.322 0.540545 8.16713 0
M  V30 1511 N 135.985 -1.50799 -0.457987 0
M  V30 1512 C 136.895 -1.73426 -1.57989 0
M  V30 1513 C 137.911 -0.617745 -1.62665 0
M  V30 1514 O 139.087 -0.897614 -1.80291 0
M  V30 1515 C 136.152 -1.83557 -2.94122 0
M  V30 1516 C 135.213 -3.07345 -2.99729 0
M  V30 1517 C 134.446 -3.16983 -4.29368 0
M  V30 1518 O 134.669 -2.33077 -5.20607 0
M  V30 1519 O 133.603 -4.09812 -4.40837 0
M  V30 1520 H 137.429 -2.68555 -1.41817 0
M  V30 1521 H 135.014 -1.35052 -0.638859 0
M  V30 1522 H 136.896 -1.92326 -3.74952 0
M  V30 1523 H 135.571 -0.916137 -3.10465 0
M  V30 1524 H 134.478 -3.04068 -2.1793 0
M  V30 1525 H 135.811 -3.9891 -2.88326 0
M  V30 1526 N 137.463 0.71206 -1.40597 0
M  V30 1527 C 138.41 1.82613 -1.41142 0
M  V30 1528 C 139.38 1.63925 -0.267903 0
M  V30 1529 O 140.565 1.85009 -0.466495 0
M  V30 1530 C 137.705 3.20354 -1.28324 0
M  V30 1531 C 136.818 3.50589 -2.52411 0
M  V30 1532 C 135.953 4.77855 -2.32009 0
M  V30 1533 C 134.992 5.01005 -3.51654 0
M  V30 1534 N 134.129 6.19487 -3.30425 0
M  V30 1535 H 138.969 1.81482 -2.36365 0
M  V30 1536 H 136.506 0.886475 -1.17388 0
M  V30 1537 H 138.464 3.99899 -1.18899 0
M  V30 1538 H 137.094 3.20705 -0.367189 0
M  V30 1539 H 136.146 2.65573 -2.72351 0
M  V30 1540 H 137.458 3.63604 -3.41458 0
M  V30 1541 H 136.612 5.65424 -2.19956 0
M  V30 1542 H 135.351 4.67056 -1.40392 0
M  V30 1543 H 134.356 4.1189 -3.64179 0
M  V30 1544 H 135.581 5.13674 -4.44202 0
M  V30 1545 H 133.527 6.09932 -2.41494 0
M  V30 1546 H 133.444 6.33194 -4.13039 0
M  V30 1547 H 134.712 7.09834 -3.22113 0
M  V30 1548 N 138.941 1.26152 0.944643 0
M  V30 1549 C 139.871 1.09902 2.06019 0
M  V30 1550 C 140.852 0.00519538 1.70099 0
M  V30 1551 O 142.037 0.176583 1.93396 0
M  V30 1552 C 139.167 0.727562 3.39594 0
M  V30 1553 C 138.121 1.77274 3.89561 0
M  V30 1554 C 137.447 1.25569 5.19747 0
M  V30 1555 C 138.747 3.17357 4.14827 0
M  V30 1556 H 140.441 2.03217 2.19871 0
M  V30 1557 H 137.987 0.978452 1.05652 0
M  V30 1558 H 139.94 0.600777 4.17095 0
M  V30 1559 H 138.664 -0.241287 3.25707 0
M  V30 1560 H 137.323 1.88814 3.14237 0
M  V30 1561 H 136.971 0.276783 5.02238 0
M  V30 1562 H 136.671 1.95433 5.54148 0
M  V30 1563 H 138.195 1.1415 5.99835 0
M  V30 1564 H 139.609 3.08914 4.82954 0
M  V30 1565 H 138.006 3.84781 4.60504 0
M  V30 1566 H 139.076 3.63673 3.20734 0
M  V30 1567 N 140.419 -1.14872 1.07899 0
M  V30 1568 C 141.696 -1.81928 0.71845 0
M  V30 1569 C 142.076 -1.95417 -0.798455 0
M  V30 1570 O 141.424 -1.50997 -1.715 0
M  V30 1571 C 141.634 -3.17937 1.43935 0
M  V30 1572 C 142.982 -3.93501 1.59506 0
M  V30 1573 O 144.006 -3.27509 1.40058 0
M  V30 1574 O 142.865 -5.1183 1.91551 0
M  V30 1575 H 139.959 -0.78628 0.256305 0
M  V30 1576 H 142.505 -1.21934 1.18026 0
M  V30 1577 H 141.277 -3.0325 2.47295 0
M  V30 1578 H 140.9 -3.85619 0.968687 0
M  V30 1579 N 141.898 -0.863906 -1.31812 0
M  V30 1580 C 142.846 -0.30422 -2.30602 0
M  V30 1581 C 143.84 0.577419 -1.59255 0
M  V30 1582 O 145.046 0.464194 -1.73912 0
M  V30 1583 H 141.421 -0.0796877 -0.747766 0
M  V30 1584 H 143.392 -1.15148 -2.75288 0
M  V30 1585 C 142.141 0.484617 -3.44306 0
M  V30 1586 H 141.464 -0.18451 -3.99374 0
M  V30 1587 H 142.904 0.841664 -4.15562 0
M  V30 1588 C 141.363 1.6735 -2.92396 0
M  V30 1589 O 141.893 2.77273 -2.90659 0
M  V30 1590 N 140.099 1.50362 -2.48676 0
M  V30 1591 H 139.646 0.609402 -2.50288 0
M  V30 1592 H 139.604 2.30051 -2.14299 0
M  V30 1593 N 143.376 1.44774 -0.622745 0
M  V30 1594 C 144.286 2.34433 0.0886031 0
M  V30 1595 C 145.302 1.52131 0.844529 0
M  V30 1596 O 146.478 1.84886 0.798691 0
M  V30 1597 C 143.543 3.29986 1.0635 0
M  V30 1598 C 142.604 4.28195 0.307873 0
M  V30 1599 C 141.837 5.19183 1.23633 0
M  V30 1600 O 142.06 5.13918 2.47476 0
M  V30 1601 O 140.994 5.97515 0.725189 0
M  V30 1602 H 144.82 2.96693 -0.648599 0
M  V30 1603 H 142.405 1.44408 -0.382957 0
M  V30 1604 H 144.287 3.88825 1.6246 0
M  V30 1605 H 142.962 2.70269 1.78146 0
M  V30 1606 H 141.869 3.72927 -0.296064 0
M  V30 1607 H 143.202 4.90808 -0.3699 0
M  V30 1608 N 144.854 0.36279 1.53368 0
M  V30 1609 C 145.764 -0.492994 2.29362 0
M  V30 1610 C 146.78 -1.09507 1.35219 0
M  V30 1611 O 147.956 -1.10662 1.68273 0
M  V30 1612 C 145.021 -1.61855 3.066 0
M  V30 1613 C 144.082 -1.04429 4.16405 0
M  V30 1614 C 143.315 -2.11621 4.89951 0
M  V30 1615 O 143.538 -3.32684 4.63333 0
M  V30 1616 O 142.472 -1.74835 5.75948 0
M  V30 1617 H 146.298 0.125331 3.03441 0
M  V30 1618 H 143.883 0.127253 1.48857 0
M  V30 1619 H 145.765 -2.27302 3.54841 0
M  V30 1620 H 144.44 -2.22233 2.3536 0
M  V30 1621 H 143.347 -0.353819 3.72423 0
M  V30 1622 H 144.68 -0.485113 4.89804 0
M  V30 1623 N 146.332 -1.57332 0.0918853 0
M  V30 1624 C 147.609 -1.85691 -0.614668 0
M  V30 1625 C 147.989 -0.988146 -1.86545 0
M  V30 1626 O 147.337 -0.0597055 -2.28422 0
M  V30 1627 C 147.547 -3.36294 -0.933126 0
M  V30 1628 C 148.895 -4.04275 -1.29796 0
M  V30 1629 O 149.919 -3.41157 -1.02424 0
M  V30 1630 O 148.778 -5.1564 -1.81047 0
M  V30 1631 H 145.872 -0.767802 -0.307261 0
M  V30 1632 H 148.418 -1.69244 0.12434 0
M  V30 1633 H 147.19 -3.91273 -0.0456404 0
M  V30 1634 H 146.813 -3.58076 -1.72822 0
M  V30 1635 N 147.81 0.181792 -1.56548 0
M  V30 1636 C 149.226 0.53316 -1.50431 0
M  V30 1637 C 149.426 1.85184 -0.794297 0
M  V30 1638 O 148.482 2.50058 -0.350318 0
M  V30 1639 C 149.795 0.575597 -2.9514 0
M  V30 1640 C 151.343 0.663519 -3.05886 0
M  V30 1641 C 151.818 0.736946 -4.52032 0
M  V30 1642 N 153.309 0.800118 -4.56237 0
M  V30 1643 C 154.044 0.877327 -5.66649 0
M  V30 1644 N 153.54 0.916016 -6.86718 0
M  V30 1645 N 155.333 0.915542 -5.54594 0
M  V30 1646 H 147.484 -0.683025 -2.01118 0
M  V30 1647 H 149.747 -0.244988 -0.915797 0
M  V30 1648 H 149.453 -0.324482 -3.502 0
M  V30 1649 H 149.327 1.42572 -3.49218 0
M  V30 1650 H 151.714 1.55403 -2.50867 0
M  V30 1651 H 151.795 -0.21307 -2.54911 0
M  V30 1652 H 151.439 -0.149262 -5.07681 0
M  V30 1653 H 151.369 1.62953 -5.00753 0
M  V30 1654 H 153.86 0.778926 -3.69785 0
M  V30 1655 H 154.173 0.975813 -7.66614 0
M  V30 1656 H 152.518 0.884469 -6.89349 0
M  V30 1657 H 155.709 0.882245 -4.59711 0
M  V30 1658 H 155.882 0.972253 -6.40665 0
M  V30 1659 N 149.288 1.51039 0.449983 0
M  V30 1660 C 150.218 1.74379 1.55288 0
M  V30 1661 C 151.199 0.593236 1.5942 0
M  V30 1662 O 152.384 0.834625 1.7535 0
M  V30 1663 C 149.514 1.85728 2.93466 0
M  V30 1664 C 148.468 3.01078 3.04197 0
M  V30 1665 C 147.794 2.97595 4.44231 0
M  V30 1666 C 149.094 4.41254 2.7945 0
M  V30 1667 H 150.788 2.66725 1.36008 0
M  V30 1668 H 148.334 1.2835 0.652864 0
M  V30 1669 H 150.287 2.0064 3.70569 0
M  V30 1670 H 149.011 0.900207 3.13949 0
M  V30 1671 H 147.67 2.85851 2.29531 0
M  V30 1672 H 147.318 1.99691 4.61663 0
M  V30 1673 H 147.018 3.75046 4.52343 0
M  V30 1674 H 148.542 3.14583 5.23326 0
M  V30 1675 H 149.956 4.56897 3.46292 0
M  V30 1676 H 148.353 5.20315 2.98985 0
M  V30 1677 H 149.423 4.52164 1.75144 0
M  V30 1678 N 150.766 -0.704594 1.40972 0
M  V30 1679 C 152.006 -1.47691 1.41304 0
M  V30 1680 C 152.37 -1.91992 0.0178582 0
M  V30 1681 O 153.571 -2.68599 -0.103996 0
M  V30 1682 C 151.842 -2.66254 2.38419 0
M  V30 1683 S 153.401 -3.55516 2.57204 0
M  V30 1684 H 150.219 -0.504808 0.500689 0
M  V30 1685 H 152.821 -0.822962 1.77335 0
M  V30 1686 H 151.525 -2.31897 3.38603 0
M  V30 1687 H 151.056 -3.3655 2.03711 0
M  V30 1688 H 153.071 -4.61115 1.83268 0
M  V30 1689 N 152.244 -1.26651 -0.937939 0
M  V30 1690 C 153.66 -1.03834 -1.21205 0
M  V30 1691 C 153.86 0.234502 -2.00131 0
M  V30 1692 O 152.916 0.942767 -2.3424 0
M  V30 1693 C 154.229 -2.27167 -1.97017 0
M  V30 1694 C 155.777 -2.32101 -2.09996 0
M  V30 1695 C 156.252 -3.55136 -2.8921 0
M  V30 1696 N 157.743 -3.55632 -2.96783 0
M  V30 1697 C 158.478 -4.475 -3.58512 0
M  V30 1698 N 157.974 -5.4966 -4.21717 0
M  V30 1699 N 159.767 -4.35145 -3.55816 0
M  V30 1700 H 151.918 -2.08398 -0.410391 0
M  V30 1701 H 154.181 -0.916031 -0.244114 0
M  V30 1702 H 153.887 -3.19765 -1.46434 0
M  V30 1703 H 153.761 -2.31672 -2.97671 0
M  V30 1704 H 156.148 -1.40015 -2.59769 0
M  V30 1705 H 156.229 -2.31605 -1.08594 0
M  V30 1706 H 155.873 -4.47553 -2.40123 0
M  V30 1707 H 155.803 -3.5288 -3.90875 0
M  V30 1708 H 158.294 -2.81743 -2.51852 0
M  V30 1709 H 158.607 -6.15943 -4.66727 0
M  V30 1710 H 156.952 -5.53514 -4.20294 0
M  V30 1711 H 160.143 -3.5455 -3.05634 0
M  V30 1712 H 160.316 -5.06934 -4.03636 0
M  V30 1713 N 153.722 1.14298 -1.08507 0
M  V30 1714 C 154.947 1.8976 -0.837001 0
M  V30 1715 C 155.372 1.78097 0.605228 0
M  V30 1716 O 154.73 1.12188 1.4242 0
M  V30 1717 C 154.778 3.37685 -1.26495 0
M  V30 1718 O 153.882 4.10281 -0.417514 0
M  V30 1719 H 153.223 0.590365 -0.303917 0
M  V30 1720 H 155.753 1.44672 -1.44676 0
M  V30 1721 H 155.763 3.88501 -1.24625 0
M  V30 1722 H 154.438 3.45492 -2.31534 0
M  V30 1723 H 153.015 3.69536 -0.499722 0
M  V30 1724 N 155.201 0.870884 1.31352 0
M  V30 1725 C 156.617 0.562932 1.49343 0
M  V30 1726 C 156.817 -0.902725 1.80148 0
M  V30 1727 O 155.873 -1.68484 1.88067 0
M  V30 1728 C 157.186 1.46393 2.62659 0
M  V30 1729 C 158.734 1.46607 2.76542 0
M  V30 1730 C 159.209 2.35266 3.92955 0
M  V30 1731 N 160.7 2.33151 4.00243 0
M  V30 1732 C 161.435 2.98471 4.89594 0
M  V30 1733 N 160.931 3.72964 5.8384 0
M  V30 1734 N 162.724 2.87775 4.82848 0
M  V30 1735 H 154.875 1.81923 1.09626 0
M  V30 1736 H 157.138 0.777934 0.541777 0
M  V30 1737 H 156.844 2.50689 2.46674 0
M  V30 1738 H 156.718 1.16314 3.58819 0
M  V30 1739 H 159.105 0.43069 2.9194 0
M  V30 1740 H 159.186 1.8071 1.81046 0
M  V30 1741 H 158.83 3.38881 3.78315 0
M  V30 1742 H 158.76 1.98487 4.87761 0
M  V30 1743 H 161.251 1.79006 3.32814 0
M  V30 1744 H 161.564 4.19932 6.4875 0
M  V30 1745 H 159.909 3.77073 5.83816 0
M  V30 1746 H 163.1 2.29116 4.08195 0
M  V30 1747 H 163.273 3.38961 5.52277 0
M  V30 1748 N 156.679 -1.44442 0.630414 0
M  V30 1749 C 157.611 -2.2892 -0.113347 0
M  V30 1750 C 158.624 -1.41243 -0.80959 0
M  V30 1751 O 159.813 -1.65402 -0.671156 0
M  V30 1752 C 156.913 -3.17594 -1.18266 0
M  V30 1753 C 156.086 -4.33682 -0.569073 0
M  V30 1754 C 155.145 -5.03397 -1.53226 0
M  V30 1755 O 154.171 -5.59438 -1.04967 0
M  V30 1756 N 155.373 -5.04783 -2.86661 0
M  V30 1757 H 158.138 -2.93392 0.611636 0
M  V30 1758 H 155.699 -1.54881 0.471523 0
M  V30 1759 H 157.691 -3.61097 -1.82732 0
M  V30 1760 H 156.261 -2.54876 -1.80988 0
M  V30 1761 H 155.481 -3.9338 0.254187 0
M  V30 1762 H 156.769 -5.08608 -0.139767 0
M  V30 1763 H 156.167 -4.60584 -3.28449 0
M  V30 1764 H 154.724 -5.52077 -3.46489 0
M  V30 1765 N 158.157 -0.370918 -1.53173 0
M  V30 1766 C 159.406 0.218249 -2.00516 0
M  V30 1767 C 159.719 1.49429 -1.26215 0
M  V30 1768 O 160.925 2.16239 -1.64174 0
M  V30 1769 C 159.381 0.43948 -3.57207 0
M  V30 1770 C 158.989 -0.822244 -4.4039 0
M  V30 1771 C 160.733 0.986012 -4.1289 0
M  V30 1772 C 158.64 -0.570304 -5.88644 0
M  V30 1773 H 157.57 0.0853333 -0.749156 0
M  V30 1774 H 160.221 -0.490483 -1.76823 0
M  V30 1775 H 158.603 1.20961 -3.77074 0
M  V30 1776 H 159.777 -1.59557 -4.32294 0
M  V30 1777 H 158.092 -1.29238 -3.95836 0
M  V30 1778 H 160.689 1.18991 -5.21292 0
M  V30 1779 H 161.032 1.94972 -3.6782 0
M  V30 1780 H 161.565 0.27592 -3.96842 0
M  V30 1781 H 158.304 -1.50449 -6.38001 0
M  V30 1782 H 157.824 0.164427 -5.99575 0
M  V30 1783 H 159.503 -0.19784 -6.46697 0
M  V30 1784 N 159.635 1.57281 -0.100228 0
M  V30 1785 C 160.865 1.98591 0.569681 0
M  V30 1786 C 161.273 0.978315 1.61943 0
M  V30 1787 O 160.616 -0.0396108 1.83657 0
M  V30 1788 C 160.678 3.36282 1.271 0
M  V30 1789 C 160.342 4.55488 0.371409 0
M  V30 1790 C 161.339 5.18491 -0.382504 0
M  V30 1791 C 159.024 5.01474 0.287965 0
M  V30 1792 C 161.018 6.25852 -1.20779 0
M  V30 1793 C 158.705 6.08701 -0.540965 0
M  V30 1794 C 159.703 6.70755 -1.28749 0
M  V30 1795 O 159.391 7.75914 -2.10269 0
M  V30 1796 H 159.123 0.65752 0.156982 0
M  V30 1797 H 161.677 2.0463 -0.177734 0
M  V30 1798 H 159.907 3.26941 2.0651 0
M  V30 1799 H 161.596 3.62005 1.83595 0
M  V30 1800 H 162.362 4.83891 -0.3278 0
M  V30 1801 H 158.241 4.52932 0.858689 0
M  V30 1802 H 161.785 6.74218 -1.79096 0
M  V30 1803 H 157.682 6.42732 -0.597131 0
M  V30 1804 H 158.45 7.92925 -2.03007 0
M  V30 1805 N 161.113 -0.173488 1.56642 0
M  V30 1806 C 162.39 -0.917617 1.7274 0
M  V30 1807 C 162.77 -2.00484 0.661027 0
M  V30 1808 O 162.118 -2.26184 -0.32453 0
M  V30 1809 C 162.328 -1.48433 3.15862 0
M  V30 1810 C 163.676 -1.95809 3.76754 0
M  V30 1811 O 164.7 -1.58231 3.19126 0
M  V30 1812 O 163.559 -2.65024 4.77938 0
M  V30 1813 H 160.653 -0.431772 0.705338 0
M  V30 1814 H 163.199 -0.161487 1.6893 0
M  V30 1815 H 161.971 -0.701715 3.84957 0
M  V30 1816 H 161.594 -2.30471 3.23989 0
M  V30 1817 N 162.591 -1.51276 -0.441967 0
M  V30 1818 C 163.554 -1.7167 -1.51862 0
M  V30 1819 C 164.554 -0.586793 -1.49711 0
M  V30 1820 O 165.744 -0.854276 -1.51815 0
M  V30 1821 C 162.876 -1.76889 -2.91416 0
M  V30 1822 H 164.069 -2.67754 -1.35084 0
M  V30 1823 H 161.622 -1.41196 -0.670333 0
M  V30 1824 H 162.357 -0.826026 -3.13604 0
M  V30 1825 H 162.142 -2.59001 -2.94382 0
M  V30 1826 H 163.632 -1.94522 -3.69528 0
M  V30 1827 N 164.069 0.697108 -1.41344 0
M  V30 1828 C 165.299 1.48377 -1.43763 0
M  V30 1829 C 165.707 1.89156 -0.0408726 0
M  V30 1830 O 165.05 1.57239 0.949812 0
M  V30 1831 C 165.112 2.7781 -2.2817 0
M  V30 1832 C 164.776 2.59244 -3.76353 0
M  V30 1833 C 165.773 2.25292 -4.68551 0
M  V30 1834 C 163.458 2.74933 -4.20378 0
M  V30 1835 C 165.452 2.07264 -6.02761 0
M  V30 1836 C 163.139 2.56521 -5.54653 0
M  V30 1837 C 164.137 2.22737 -6.4566 0
M  V30 1838 O 163.825 2.04485 -7.77458 0
M  V30 1839 H 163.557 0.463842 -0.491759 0
M  V30 1840 H 166.111 0.865934 -1.86255 0
M  V30 1841 H 164.341 3.41995 -1.8049 0
M  V30 1842 H 166.03 3.39608 -2.22309 0
M  V30 1843 H 166.796 2.12787 -4.35829 0
M  V30 1844 H 162.675 3.00213 -3.49848 0
M  V30 1845 H 166.219 1.80817 -6.73759 0
M  V30 1846 H 162.116 2.68616 -5.86955 0
M  V30 1847 H 162.884 2.1926 -7.88586 0
M  V30 1848 N 165.547 1.27147 0.931209 0
M  V30 1849 C 166.796 1.12664 1.67302 0
M  V30 1850 C 167.109 -0.327718 1.92835 0
M  V30 1851 O 168.315 -0.593392 2.64936 0
M  V30 1852 C 166.771 1.9683 3.01307 0
M  V30 1853 C 166.379 3.46901 2.83485 0
M  V30 1854 C 168.123 1.90985 3.79111 0
M  V30 1855 C 166.03 4.23279 4.13024 0
M  V30 1856 H 164.96 0.41803 0.627509 0
M  V30 1857 H 167.611 1.51539 1.03481 0
M  V30 1858 H 165.993 1.50797 3.66164 0
M  V30 1859 H 167.167 4.00773 2.27415 0
M  V30 1860 H 165.482 3.54088 2.19113 0
M  V30 1861 H 168.079 2.45328 4.75098 0
M  V30 1862 H 168.422 0.882718 4.06834 0
M  V30 1863 H 168.955 2.34895 3.21044 0
M  V30 1864 H 165.694 5.26503 3.90481 0
M  V30 1865 H 165.214 3.74186 4.6877 0
M  V30 1866 H 166.893 4.32265 4.81411 0
M  V30 1867 N 167.025 -1.13721 1.09112 0
M  V30 1868 C 167.958 -2.18094 0.67158 0
M  V30 1869 C 168.936 -1.59414 -0.320299 0
M  V30 1870 O 170.12 -1.87183 -0.222444 0
M  V30 1871 C 167.247 -3.38698 -0.0111189 0
M  V30 1872 C 166.293 -4.15966 0.942055 0
M  V30 1873 S 167.126 -4.7604 2.45246 0
M  V30 1874 C 168.282 -5.99994 1.78208 0
M  V30 1875 H 168.515 -2.53344 1.55577 0
M  V30 1876 H 166.048 -1.24967 0.906789 0
M  V30 1877 H 168.006 -4.08559 -0.398716 0
M  V30 1878 H 166.667 -3.01756 -0.871905 0
M  V30 1879 H 165.86 -5.02318 0.411396 0
M  V30 1880 H 165.462 -3.51745 1.2709 0
M  V30 1881 H 167.754 -6.68441 1.10424 0
M  V30 1882 H 168.697 -6.57662 2.62463 0
M  V30 1883 H 169.105 -5.50432 1.25238 0
M  V30 1884 N 168.503 -0.877838 -1.30888 0
M  V30 1885 C 169.45 -0.337538 -2.28318 0
M  V30 1886 C 170.42 0.568346 -1.56074 0
M  V30 1887 O 171.605 0.498298 -1.84178 0
M  V30 1888 C 168.745 0.448142 -3.42178 0
M  V30 1889 C 167.858 -0.48615 -4.29256 0
M  V30 1890 C 166.993 0.314427 -5.30269 0
M  V30 1891 C 166.032 -0.615791 -6.08995 0
M  V30 1892 N 165.169 0.14902 -7.01942 0
M  V30 1893 H 170.009 -1.17356 -2.73919 0
M  V30 1894 H 167.546 -0.590094 -1.34745 0
M  V30 1895 H 169.504 0.919517 -4.06941 0
M  V30 1896 H 168.134 1.24879 -2.97666 0
M  V30 1897 H 167.186 -1.076 -3.64865 0
M  V30 1898 H 168.498 -1.19909 -4.84173 0
M  V30 1899 H 167.652 0.847969 -6.00745 0
M  V30 1900 H 166.391 1.06062 -4.76027 0
M  V30 1901 H 165.396 -1.16102 -5.37401 0
M  V30 1902 H 166.621 -1.36097 -6.65323 0
M  V30 1903 H 164.567 0.877884 -6.50099 0
M  V30 1904 H 164.484 -0.504433 -7.54315 0
M  V30 1905 H 165.752 0.663537 -7.76671 0
M  V30 1906 N 169.982 1.44106 -0.638065 0
M  V30 1907 C 170.892 2.34513 0.0637334 0
M  V30 1908 C 171.908 1.53018 0.828346 0
M  V30 1909 O 173.084 1.85723 0.779036 0
M  V30 1910 C 170.149 3.31095 1.02844 0
M  V30 1911 C 169.21 4.28497 0.26244 0
M  V30 1912 C 168.443 5.20465 1.1812 0
M  V30 1913 O 168.666 5.16514 2.42011 0
M  V30 1914 O 167.6 5.98251 0.661774 0
M  V30 1915 H 171.426 2.95989 -0.68003 0
M  V30 1916 H 169.011 1.43994 -0.398252 0
M  V30 1917 H 170.893 3.90526 1.58327 0
M  V30 1918 H 169.568 2.72144 1.7527 0
M  V30 1919 H 168.475 3.72592 -0.335602 0
M  V30 1920 H 169.808 4.90388 -0.421936 0
M  V30 1921 N 171.46 0.379036 1.52974 0
M  V30 1922 C 172.39 -0.452706 2.29069 0
M  V30 1923 C 173.371 -1.07237 1.32039 0
M  V30 1924 O 174.556 -1.08708 1.60923 0
M  V30 1925 C 171.686 -1.5856 3.08992 0
M  V30 1926 C 170.64 -1.0925 4.13822 0
M  V30 1927 C 169.966 -2.31668 4.81907 0
M  V30 1928 C 171.266 -0.167702 5.22031 0
M  V30 1929 H 172.96 0.182181 2.98845 0
M  V30 1930 H 170.506 0.0890592 1.43724 0
M  V30 1931 H 172.459 -2.1742 3.6098 0
M  V30 1932 H 171.183 -2.24792 2.36931 0
M  V30 1933 H 169.842 -0.526494 3.628 0
M  V30 1934 H 169.49 -2.96386 4.06404 0
M  V30 1935 H 169.19 -1.9934 5.52754 0
M  V30 1936 H 170.714 -2.91189 5.36695 0
M  V30 1937 H 172.128 -0.664186 5.6944 0
M  V30 1938 H 170.525 0.0653265 6.00064 0
M  V30 1939 H 171.595 0.786347 4.78482 0
M  V30 1940 N 172.938 -1.57226 0.108567 0
M  V30 1941 C 173.868 -2.17778 -0.84232 0
M  V30 1942 C 174.849 -1.11487 -1.2847 0
M  V30 1943 O 176.034 -1.39681 -1.34918 0
M  V30 1944 C 173.164 -2.76888 -2.09644 0
M  V30 1945 C 172.118 -3.88669 -1.79221 0
M  V30 1946 C 171.444 -4.34541 -3.11574 0
M  V30 1947 C 172.744 -5.11251 -1.06864 0
M  V30 1948 H 174.438 -2.97489 -0.337774 0
M  V30 1949 H 171.984 -1.43097 -0.161025 0
M  V30 1950 H 173.937 -3.17904 -2.76614 0
M  V30 1951 H 172.661 -1.94451 -2.62405 0
M  V30 1952 H 171.32 -3.48213 -1.14644 0
M  V30 1953 H 170.968 -3.48977 -3.62249 0
M  V30 1954 H 170.668 -5.09914 -2.91996 0
M  V30 1955 H 172.192 -4.782 -3.7968 0
M  V30 1956 H 173.606 -5.49352 -1.63968 0
M  V30 1957 H 172.003 -5.9214 -0.974178 0
M  V30 1958 H 173.073 -4.8487 -0.0536168 0
M  V30 1959 N 174.416 0.165178 -1.56732 0
M  V30 1960 C 175.641 0.900253 -1.86843 0
M  V30 1961 C 176.066 1.74766 -0.695596 0
M  V30 1962 O 175.424 1.77786 0.35522 0
M  V30 1963 C 175.472 1.74777 -3.15413 0
M  V30 1964 O 174.576 2.85007 -2.98068 0
M  V30 1965 H 173.917 0.251832 -0.614391 0
M  V30 1966 H 176.447 0.161468 -2.03962 0
M  V30 1967 H 176.457 2.14646 -3.46974 0
M  V30 1968 H 175.132 1.12537 -4.00385 0
M  V30 1969 H 173.709 2.48676 -2.77875 0
M  V30 1970 N 175.894 1.51508 0.433938 0
M  V30 1971 C 177.134 1.66006 1.19253 0
M  V30 1972 C 177.498 0.369868 1.88404 0
M  V30 1973 O 178.699 0.39066 2.65946 0
M  V30 1974 C 176.97 2.83229 2.17981 0
M  V30 1975 S 178.529 3.18075 3.02281 0
M  V30 1976 H 175.347 0.584821 0.404358 0
M  V30 1977 H 177.949 1.89425 0.48357 0
M  V30 1978 H 176.653 3.75407 1.65824 0
M  V30 1979 H 176.184 2.6201 2.93453 0
M  V30 1980 H 178.199 2.64772 4.19655 0
M  V30 1981 N 177.372 -0.689602 1.41712 0
M  V30 1982 C 178.597 -1.48329 1.44959 0
M  V30 1983 C 179.022 -1.8801 0.0581283 0
M  V30 1984 O 178.38 -1.55026 -0.940035 0
M  V30 1985 C 178.428 -2.71835 2.36935 0
M  V30 1986 O 177.532 -3.69549 1.8305 0
M  V30 1987 H 176.873 -0.446199 0.491734 0
M  V30 1988 H 179.403 -0.847127 1.86239 0
M  V30 1989 H 179.413 -3.20076 2.53013 0
M  V30 1990 H 178.088 -2.42291 3.38035 0
M  V30 1991 H 176.665 -3.2851 1.76452 0
M  V30 1992 N 178.85 -1.27639 -0.924453 0
M  V30 1993 C 179.8 -1.07295 -2.01176 0
M  V30 1994 C 180.784 5.77352e-05 -1.609 0
M  V30 1995 O 181.976 -0.218855 -1.75642 0
M  V30 1996 C 179.105 -0.725592 -3.35544 0
M  V30 1997 C 178.191 -1.83691 -3.82254 0
M  V30 1998 N 178.582 -3.07697 -4.01443 0
M  V30 1999 C 176.88 -1.72433 -4.11319 0
M  V30 2000 C 177.581 -3.80037 -4.40394 0
M  V30 2001 N 176.557 -3.0782 -4.48049 0
M  V30 2002 H 180.359 -2.01399 -2.14046 0
M  V30 2003 H 177.873 -1.18401 -1.11153 0
M  V30 2004 H 179.87 -0.560959 -4.13109 0
M  V30 2005 H 178.53 0.207782 -3.24034 0
M  V30 2006 H 179.541 -3.43424 -3.8766 0
M  V30 2007 H 176.218 -0.862005 -4.08504 0
M  V30 2008 H 177.608 -4.86632 -4.63291 0
M  V30 2009 N 180.328 1.1314 -1.09713 0
M  V30 2010 C 181.739 1.66029 -0.853885 0
M  V30 2011 C 182.09 1.86241 0.617142 0
M  V30 2012 O 181.215 1.5834 1.47503 0
M  V30 2013 C 181.81 3.01599 -1.5435 0
M  V30 2014 C 180.369 3.51467 -1.34714 0
M  V30 2015 C 179.516 2.26648 -1.59769 0
M  V30 2016 H 182.467 0.970226 -1.25588 0
M  V30 2017 H 182.488 3.67709 -0.978267 0
M  V30 2018 H 182 2.86856 -2.6141 0
M  V30 2019 H 180.101 3.71408 -0.297838 0
M  V30 2020 H 180.214 4.314 -2.08401 0
M  V30 2021 H 178.578 2.33385 -1.01998 0
M  V30 2022 H 179.361 2.14467 -2.68065 0
M  V30 2023 N 181.806 0.884767 1.30421 0
M  V30 2024 C 183.053 0.503105 1.96151 0
M  V30 2025 C 183.381 -0.947676 1.69851 0
M  V30 2026 O 182.636 -1.68467 0.995861 0
M  V30 2027 C 182.935 0.724318 3.49983 0
M  V30 2028 C 182.601 2.15015 3.96332 0
M  V30 2029 C 181.263 2.54005 4.08699 0
M  V30 2030 C 183.615 3.07936 4.20505 0
M  V30 2031 C 180.943 3.85128 4.42599 0
M  V30 2032 C 183.295 4.3859 4.55874 0
M  V30 2033 C 181.959 4.77474 4.66449 0
M  V30 2034 H 181.229 0.184099 0.717766 0
M  V30 2035 H 183.876 1.12058 1.55291 0
M  V30 2036 H 182.181 0.0238086 3.91793 0
M  V30 2037 H 183.878 0.408617 3.98913 0
M  V30 2038 H 180.468 1.8375 3.87213 0
M  V30 2039 H 184.652 2.79033 4.10431 0
M  V30 2040 H 179.908 4.14996 4.48986 0
M  V30 2041 H 184.082 5.10629 4.7353 0
M  V30 2042 H 181.709 5.79115 4.92473 0
M  V30 2043 N 183.284 -1.43765 0.645699 0
M  V30 2044 C 184.509 -2.06767 0.161883 0
M  V30 2045 C 184.934 -1.48034 -1.16049 0
M  V30 2046 O 184.292 -0.587369 -1.71522 0
M  V30 2047 C 184.34 -3.60519 0.0762003 0
M  V30 2048 O 183.444 -4.00982 -0.963721 0
M  V30 2049 H 182.785 -0.657675 0.091429 0
M  V30 2050 H 185.315 -1.84397 0.886499 0
M  V30 2051 H 185.325 -4.07853 -0.109604 0
M  V30 2052 H 184 -4.02646 1.04157 0
M  V30 2053 H 182.577 -3.65253 -0.751312 0
M  V30 2054 N 184.763 -0.387143 -1.52771 0
M  V30 2055 C 185.71 0.449048 -2.26389 0
M  V30 2056 C 186.68 1.05961 -1.27912 0
M  V30 2057 O 187.865 1.08804 -1.56737 0
M  V30 2058 C 185.005 1.57155 -3.0724 0
M  V30 2059 C 184.118 0.984066 -4.20643 0
M  V30 2060 C 183.253 2.07745 -4.88892 0
M  V30 2061 C 182.292 1.46574 -5.94292 0
M  V30 2062 N 181.429 2.49834 -6.56146 0
M  V30 2063 H 186.269 -0.185205 -2.97424 0
M  V30 2064 H 183.806 -0.103164 -1.46738 0
M  V30 2065 H 185.764 2.23309 -3.52405 0
M  V30 2066 H 184.394 2.17615 -2.38419 0
M  V30 2067 H 183.446 0.212193 -3.79808 0
M  V30 2068 H 184.758 0.497029 -4.96318 0
M  V30 2069 H 183.912 2.81673 -5.3735 0
M  V30 2070 H 182.651 2.59807 -4.12737 0
M  V30 2071 H 181.656 0.711696 -5.45174 0
M  V30 2072 H 182.881 0.953088 -6.72379 0
M  V30 2073 H 180.827 3.0107 -5.82832 0
M  V30 2074 H 180.744 2.05879 -7.27427 0
M  V30 2075 H 182.012 3.23399 -7.09249 0
M  V30 2076 N 186.241 1.57166 -0.116904 0
M  V30 2077 C 187.173 2.12271 0.864507 0
M  V30 2078 C 188.186 1.06494 1.23138 0
M  V30 2079 O 189.375 1.33873 1.18069 0
M  V30 2080 C 186.475 2.60564 2.16702 0
M  V30 2081 C 185.648 3.90416 1.97216 0
M  V30 2082 C 184.707 4.24329 3.11178 0
M  V30 2083 O 183.733 4.93182 2.84184 0
M  V30 2084 N 184.935 3.8148 4.37554 0
M  V30 2085 H 187.7 2.97102 0.393726 0
M  V30 2086 H 185.261 1.61759 0.0675805 0
M  V30 2087 H 187.253 2.80282 2.91932 0
M  V30 2088 H 185.823 1.80623 2.55135 0
M  V30 2089 H 185.043 3.79627 1.06192 0
M  V30 2090 H 186.331 4.75327 1.81499 0
M  V30 2091 H 185.729 3.25943 4.62361 0
M  V30 2092 H 184.286 4.06311 5.09661 0
M  V30 2093 N 187.719 -0.156864 1.56817 0
M  V30 2094 C 188.682 -1.17781 1.96622 0
M  V30 2095 C 189.682 -1.36401 0.851555 0
M  V30 2096 O 190.872 -1.33561 1.11836 0
M  V30 2097 C 188.004 -2.54008 2.27361 0
M  V30 2098 H 189.197 -0.836564 2.87996 0
M  V30 2099 H 186.75 -0.39985 1.51099 0
M  V30 2100 H 187.485 -2.9312 1.38748 0
M  V30 2101 H 187.27 -2.41856 3.08623 0
M  V30 2102 H 188.76 -3.27558 2.59029 0
M  V30 2103 N 189.197 -1.51736 -0.425897 0
M  V30 2104 C 190.443 -1.65214 -1.1761 0
M  V30 2105 C 190.776 -0.372778 -1.90589 0
M  V30 2106 O 190.051 0.628139 -1.84078 0
M  V30 2107 C 190.334 -2.86312 -2.18398 0
M  V30 2108 C 190.187 -4.24254 -1.49426 0
M  V30 2109 C 191.506 -3.02925 -3.19256 0
M  V30 2110 H 188.625 -0.601263 -0.426206 0
M  V30 2111 H 191.267 -1.8425 -0.463882 0
M  V30 2112 H 189.417 -2.70213 -2.79137 0
M  V30 2113 H 191.089 -4.52046 -0.919362 0
M  V30 2114 H 189.332 -4.26426 -0.796432 0
M  V30 2115 H 190.003 -5.05001 -2.22885 0
M  V30 2116 H 192.479 -3.1781 -2.68581 0
M  V30 2117 H 191.355 -3.89199 -3.8706 0
M  V30 2118 H 191.616 -2.15497 -3.86023 0
M  V30 2119 N 190.675 0.682077 -1.42076 0
M  V30 2120 C 191.585 1.82535 -1.47371 0
M  V30 2121 C 192.601 1.7017 -0.363079 0
M  V30 2122 O 193.777 1.91848 -0.612875 0
M  V30 2123 C 190.842 3.18624 -1.36674 0
M  V30 2124 C 189.903 3.42999 -2.58167 0
M  V30 2125 C 189.136 4.72595 -2.4797 0
M  V30 2126 O 189.359 5.50006 -1.5116 0
M  V30 2127 O 188.293 4.98054 -3.37974 0
M  V30 2128 H 192.119 1.81023 -2.43853 0
M  V30 2129 H 189.704 0.836887 -1.2376 0
M  V30 2130 H 191.586 3.99847 -1.33043 0
M  V30 2131 H 190.261 3.20789 -0.433138 0
M  V30 2132 H 189.168 2.61653 -2.67373 0
M  V30 2133 H 190.501 3.45659 -3.50401 0
M  V30 2134 N 192.153 1.28127 0.917671 0
M  V30 2135 C 193.103 1.08361 2.00604 0
M  V30 2136 C 194.087 0.00847518 1.60898 0
M  V30 2137 O 195.279 0.228167 1.75523 0
M  V30 2138 C 192.408 0.743376 3.35155 0
M  V30 2139 C 191.494 1.85716 3.81275 0
M  V30 2140 N 191.885 3.09822 3.99805 0
M  V30 2141 C 190.183 1.74612 4.10398 0
M  V30 2142 C 190.884 3.82368 4.38372 0
M  V30 2143 N 189.86 3.10192 4.4641 0
M  V30 2144 H 193.662 2.02531 2.12975 0
M  V30 2145 H 191.176 1.18989 1.10523 0
M  V30 2146 H 193.173 0.582859 4.12805 0
M  V30 2147 H 191.833 -0.190595 3.2414 0
M  V30 2148 H 192.844 3.45475 3.85833 0
M  V30 2149 H 189.521 0.883657 4.08041 0
M  V30 2150 H 190.911 4.89082 4.60704 0
M  V30 2151 N 193.631 -1.12557 1.10312 0
M  V30 2152 C 194.877 -1.84311 0.846011 0
M  V30 2153 C 195.21 -1.83805 -0.626859 0
M  V30 2154 O 194.485 -1.28268 -1.46211 0
M  V30 2155 C 194.768 -3.32048 1.39341 0
M  V30 2156 C 194.621 -3.41016 2.93305 0
M  V30 2157 C 195.94 -4.27764 1.03468 0
M  V30 2158 H 193.059 -0.669192 0.30879 0
M  V30 2159 H 195.701 -1.32057 1.36605 0
M  V30 2160 H 193.851 -3.76678 0.951087 0
M  V30 2161 H 195.523 -3.05031 3.46055 0
M  V30 2162 H 193.766 -2.81603 3.29973 0
M  V30 2163 H 194.437 -4.44948 3.26689 0
M  V30 2164 H 196.913 -3.91253 1.41633 0
M  V30 2165 H 195.789 -5.29549 1.44463 0
M  V30 2166 H 196.05 -4.42064 -0.0560404 0
M  V30 2167 N 195.109 -0.891671 -1.2995 0
M  V30 2168 C 196.041 -0.320695 -2.26945 0
M  V30 2169 C 197.054 0.528497 -1.53983 0
M  V30 2170 O 198.243 0.346959 -1.75096 0
M  V30 2171 C 195.343 0.562066 -3.34207 0
M  V30 2172 C 194.516 -0.259576 -4.36629 0
M  V30 2173 C 193.575 0.554739 -5.23268 0
M  V30 2174 O 192.601 -0.0249311 -5.69195 0
M  V30 2175 N 193.803 1.8625 -5.4981 0
M  V30 2176 H 196.568 -1.15432 -2.76578 0
M  V30 2177 H 194.129 -0.755336 -1.432 0
M  V30 2178 H 196.121 1.11304 -3.89093 0
M  V30 2179 H 194.691 1.29637 -2.84452 0
M  V30 2180 H 193.911 -0.991986 -3.81514 0
M  V30 2181 H 195.199 -0.822564 -5.02107 0
M  V30 2182 H 194.597 2.35628 -5.14292 0
M  V30 2183 H 193.154 2.36078 -6.07545 0
M  V30 2184 N 196.587 1.43421 -0.653314 0
M  V30 2185 C 197.812 2.06678 -0.172846 0
M  V30 2186 C 198.237 1.48648 1.15262 0
M  V30 2187 O 197.595 0.596457 1.71208 0
M  V30 2188 C 197.643 3.60474 -0.0953184 0
M  V30 2189 O 196.747 4.01487 0.942442 0
M  V30 2190 H 196.088 0.657181 -0.0949155 0
M  V30 2191 H 198.618 1.83925 -0.896265 0
M  V30 2192 H 198.628 4.07905 0.0879728 0
M  V30 2193 H 197.303 4.02088 -1.06291 0
M  V30 2194 H 195.88 3.65646 0.731932 0
M  V30 2195 N 198.065 0.39524 1.52563 0
M  V30 2196 C 199.015 -0.4541 2.23432 0
M  V30 2197 C 199.999 -1.02482 1.24042 0
M  V30 2198 O 201.191 -0.949938 1.49349 0
M  V30 2199 C 198.32 -1.57769 3.049 0
M  V30 2200 C 197.406 -1.01842 4.1169 0
M  V30 2201 N 197.797 -0.184613 5.05463 0
M  V30 2202 C 196.095 -1.29033 4.26927 0
M  V30 2203 C 196.796 0.125013 5.81566 0
M  V30 2204 N 195.772 -0.480498 5.41472 0
M  V30 2205 H 199.574 0.189413 2.93289 0
M  V30 2206 H 197.088 0.204877 1.61102 0
M  V30 2207 H 199.085 -2.19862 3.54212 0
M  V30 2208 H 197.745 -2.22397 2.36579 0
M  V30 2209 H 198.756 0.178602 5.17592 0
M  V30 2210 H 195.433 -1.93721 3.69836 0
M  V30 2211 H 196.823 0.800962 6.67109 0
M  V30 2212 N 199.544 -1.57102 0.125237 0
M  V30 2213 C 200.474 -2.18659 -0.819174 0
M  V30 2214 C 201.455 -1.12843 -1.27281 0
M  V30 2215 O 202.64 -1.41104 -1.33429 0
M  V30 2216 C 199.77 -2.79096 -2.06695 0
M  V30 2217 C 198.724 -3.90548 -1.75088 0
M  V30 2218 C 198.05 -4.37821 -3.06948 0
M  V30 2219 C 199.35 -5.12356 -1.01435 0
M  V30 2220 H 201.044 -2.9783 -0.306202 0
M  V30 2221 H 198.59 -1.4326 -0.145839 0
M  V30 2222 H 200.543 -3.2082 -2.73226 0
M  V30 2223 H 199.267 -1.97223 -2.60328 0
M  V30 2224 H 197.926 -3.49409 -1.10944 0
M  V30 2225 H 197.574 -3.52799 -3.58527 0
M  V30 2226 H 197.274 -5.12982 -2.86571 0
M  V30 2227 H 198.798 -4.822 -3.74587 0
M  V30 2228 H 200.212 -5.5106 -1.58132 0
M  V30 2229 H 198.609 -5.9314 -0.911319 0
M  V30 2230 H 199.679 -4.849 -0.00218681 0
M  V30 2231 N 201.022 0.148545 -1.56898 0
M  V30 2232 C 202.247 0.880385 -1.87787 0
M  V30 2233 C 202.672 1.74018 -0.714093 0
M  V30 2234 O 202.03 1.78153 0.336343 0
M  V30 2235 C 202.078 1.71422 -3.17249 0
M  V30 2236 O 201.182 2.8183 -3.01074 0
M  V30 2237 H 200.523 0.245301 -0.617028 0
M  V30 2238 H 203.053 0.139826 -2.04122 0
M  V30 2239 H 203.063 2.10954 -3.49231 0
M  V30 2240 H 201.738 1.08284 -4.01556 0
M  V30 2241 H 200.315 2.45715 -2.80497 0
M  V30 2242 N 202.5 1.5196 0.417844 0
M  V30 2243 C 203.447 1.74678 1.50852 0
M  V30 2244 C 204.417 0.588947 1.55308 0
M  V30 2245 O 205.602 0.825544 1.72016 0
M  V30 2246 C 202.742 1.89544 2.88387 0
M  V30 2247 C 201.855 3.17166 2.93309 0
M  V30 2248 C 200.99 3.22513 4.22088 0
M  V30 2249 C 200.029 4.44372 4.20951 0
M  V30 2250 N 199.166 4.47161 5.41287 0
M  V30 2251 H 204.006 2.67768 1.30783 0
M  V30 2252 H 201.543 1.32689 0.63498 0
M  V30 2253 H 203.501 1.96146 3.68216 0
M  V30 2254 H 202.131 0.998424 3.06971 0
M  V30 2255 H 201.183 3.19778 2.06024 0
M  V30 2256 H 202.495 4.07021 2.88332 0
M  V30 2257 H 201.649 3.28139 5.10303 0
M  V30 2258 H 200.388 2.30581 4.29748 0
M  V30 2259 H 199.393 4.38902 3.31127 0
M  V30 2260 H 200.618 5.3759 4.14938 0
M  V30 2261 H 198.564 3.58108 5.49632 0
M  V30 2262 H 198.481 5.3085 5.3827 0
M  V30 2263 H 199.749 4.57005 6.3148 0
M  V30 2264 N 203.978 -0.674533 1.42435 0
M  V30 2265 C 204.925 -1.78807 1.45934 0
M  V30 2266 C 205.895 -1.63157 0.311271 0
M  V30 2267 O 207.08 -1.83707 0.515383 0
M  V30 2268 C 204.22 -3.16839 1.36773 0
M  V30 2269 C 203.333 -3.43774 2.61617 0
M  V30 2270 C 202.468 -4.71536 2.44597 0
M  V30 2271 C 201.507 -4.91505 3.64814 0
M  V30 2272 N 200.644 -6.10508 3.46734 0
M  V30 2273 H 205.484 -1.75151 2.41093 0
M  V30 2274 H 203.021 -0.85504 1.19697 0
M  V30 2275 H 204.979 -3.96606 1.29459 0
M  V30 2276 H 203.609 -3.19619 0.452089 0
M  V30 2277 H 202.661 -2.58259 2.79297 0
M  V30 2278 H 203.973 -3.54423 3.50978 0
M  V30 2279 H 203.127 -5.59393 2.3487 0
M  V30 2280 H 201.866 -4.6317 1.52726 0
M  V30 2281 H 200.871 -4.0209 3.74972 0
M  V30 2282 H 202.096 -5.01716 4.57665 0
M  V30 2283 H 200.042 -6.03315 2.5758 0
M  V30 2284 H 199.959 -6.2202 4.29682 0
M  V30 2285 H 201.227 -7.01044 3.40819 0
M  V30 2286 N 205.456 -1.28612 -0.910864 0
M  V30 2287 C 206.388 -1.08589 -2.01844 0
M  V30 2288 C 207.401 -0.0367419 -1.62759 0
M  V30 2289 O 208.59 -0.280101 -1.76289 0
M  V30 2290 C 205.69 -0.628626 -3.33019 0
M  V30 2291 C 204.863 -1.75382 -4.00699 0
M  V30 2292 C 203.922 -1.28945 -5.10156 0
M  V30 2293 O 202.948 -1.9922 -5.33198 0
M  V30 2294 N 204.15 -0.154224 -5.80295 0
M  V30 2295 H 206.915 -2.03973 -2.19579 0
M  V30 2296 H 204.476 -1.20403 -1.08234 0
M  V30 2297 H 206.468 -0.301508 -4.03575 0
M  V30 2298 H 205.038 0.232451 -3.11735 0
M  V30 2299 H 204.258 -2.25039 -3.23653 0
M  V30 2300 H 205.546 -2.50854 -4.42662 0
M  V30 2301 H 204.944 0.43194 -5.64049 0
M  V30 2302 H 203.501 0.113599 -6.51701 0
M  V30 2303 N 206.934 1.1197 -1.10907 0
M  V30 2304 C 208.18 1.8386 -0.855773 0
M  V30 2305 C 208.513 1.84134 0.617103 0
M  V30 2306 O 207.788 1.29041 1.45529 0
M  V30 2307 C 208.071 3.31305 -1.411 0
M  V30 2308 C 207.924 3.39456 -2.9511 0
M  V30 2309 C 209.243 4.2721 -1.05736 0
M  V30 2310 H 206.362 0.667545 -0.312334 0
M  V30 2311 H 209.004 1.31331 -1.37303 0
M  V30 2312 H 207.154 3.76169 -0.97105 0
M  V30 2313 H 208.826 3.03191 -3.47668 0
M  V30 2314 H 207.069 2.79849 -3.31462 0
M  V30 2315 H 207.74 4.43209 -3.29044 0
M  V30 2316 H 210.216 3.90497 -1.43706 0
M  V30 2317 H 209.092 5.28775 -1.47269 0
M  V30 2318 H 209.353 4.42088 0.0325958 0
M  V30 2319 N 208.412 0.89855 1.29475 0
M  V30 2320 C 209.64 0.539261 1.99749 0
M  V30 2321 C 210.055 -0.875716 1.67262 0
M  V30 2322 O 209.412 -1.57786 0.917049 0
M  V30 2323 C 209.463 0.72061 3.54245 0
M  V30 2324 O 209.184 2.07989 3.8558 0
M  V30 2325 C 210.685 0.366118 4.41786 0
M  V30 2326 H 207.905 0.207047 0.638258 0
M  V30 2327 H 210.449 1.20758 1.65039 0
M  V30 2328 H 208.604 0.0994862 3.87272 0
M  V30 2329 H 209.018 2.10841 4.80257 0
M  V30 2330 H 210.492 0.543848 5.49314 0
M  V30 2331 H 210.969 -0.696763 4.33638 0
M  V30 2332 H 211.575 0.964135 4.14228 0
M  V30 2333 N 209.89 -1.43072 0.660911 0
M  V30 2334 C 211.115 -2.06584 0.183805 0
M  V30 2335 C 211.54 -1.49257 -1.14472 0
M  V30 2336 O 210.898 -0.605528 -1.70889 0
M  V30 2337 C 210.946 -3.60418 0.114434 0
M  V30 2338 O 210.05 -4.01981 -0.921137 0
M  V30 2339 H 209.391 -0.656669 0.0983994 0
M  V30 2340 H 211.921 -1.83447 0.906006 0
M  V30 2341 H 211.931 -4.07946 -0.0663394 0
M  V30 2342 H 210.606 -4.01519 1.08422 0
M  V30 2343 H 209.183 -3.66029 -0.71253 0
M  V30 2344 N 211.368 -0.403325 -1.52352 0
M  V30 2345 C 212.596 0.174012 -2.06167 0
M  V30 2346 C 213.011 1.39347 -1.27388 0
M  V30 2347 O 212.368 1.79597 -0.324201 0
M  V30 2348 C 212.419 0.530223 -3.5759 0
M  V30 2349 O 212.14 -0.640806 -4.33388 0
M  V30 2350 C 213.641 1.16192 -4.27802 0
M  V30 2351 H 210.861 0.0229464 -0.670608 0
M  V30 2352 H 213.405 -0.572604 -1.9632 0
M  V30 2353 H 211.56 1.22673 -3.67464 0
M  V30 2354 H 211.974 -0.344851 -5.23365 0
M  V30 2355 H 213.448 1.36141 -5.34948 0
M  V30 2356 H 213.925 2.13335 -3.83907 0
M  V30 2357 H 214.531 0.505775 -4.22282 0
M  V30 2358 N 212.846 1.57033 -0.133567 0
M  V30 2359 C 213.776 2.1909 0.807567 0
M  V30 2360 C 214.757 1.13517 1.26681 0
M  V30 2361 O 215.942 1.41809 1.32679 0
M  V30 2362 C 213.072 2.80188 2.05212 0
M  V30 2363 C 212.026 3.91471 1.73015 0
M  V30 2364 C 211.352 4.39443 3.04622 0
M  V30 2365 C 212.652 5.12886 0.987168 0
M  V30 2366 H 214.346 2.97988 0.290403 0
M  V30 2367 H 211.892 1.43335 0.138239 0
M  V30 2368 H 213.845 3.22264 2.71521 0
M  V30 2369 H 212.569 1.98601 2.59278 0
M  V30 2370 H 211.228 3.49993 1.0909 0
M  V30 2371 H 210.876 3.54695 3.56651 0
M  V30 2372 H 210.576 5.14495 2.83847 0
M  V30 2373 H 212.1 4.8418 3.72024 0
M  V30 2374 H 213.514 5.51891 1.55208 0
M  V30 2375 H 211.911 5.93615 0.87985 0
M  V30 2376 H 212.981 4.84894 -0.0235286 0
M  V30 2377 N 214.325 -0.140222 1.56975 0
M  V30 2378 C 215.572 -0.851687 1.83719 0
M  V30 2379 C 215.9 -1.80862 0.715485 0
M  V30 2380 O 215.155 -1.93464 -0.294956 0
M  V30 2381 C 215.454 -1.65386 3.16832 0
M  V30 2382 C 215.12 -0.843112 4.42947 0
M  V30 2383 C 213.782 -0.619464 4.77196 0
M  V30 2384 C 216.134 -0.276582 5.20466 0
M  V30 2385 C 213.462 0.181312 5.8642 0
M  V30 2386 C 215.814 0.51127 6.30531 0
M  V30 2387 C 214.478 0.745432 6.63325 0
M  V30 2388 H 213.748 -0.311654 0.672274 0
M  V30 2389 H 216.395 -0.115006 1.91154 0
M  V30 2390 H 214.7 -2.46084 3.04877 0
M  V30 2391 H 216.397 -2.20793 3.34741 0
M  V30 2392 H 212.987 -1.0275 4.16101 0
M  V30 2393 H 217.171 -0.436632 4.94376 0
M  V30 2394 H 212.427 0.372165 6.10266 0
M  V30 2395 H 216.601 0.957354 6.89788 0
M  V30 2396 H 214.228 1.36778 7.47794 0
M  V30 2397 N 215.803 -1.52179 -0.40978 0
M  V30 2398 C 216.735 -1.71703 -1.51825 0
M  V30 2399 C 217.748 -0.597445 -1.51441 0
M  V30 2400 O 218.937 -0.872582 -1.55719 0
M  V30 2401 C 216.037 -1.74171 -2.90719 0
M  V30 2402 C 215.21 -3.03156 -3.15302 0
M  V30 2403 C 214.269 -2.97445 -4.34065 0
M  V30 2404 O 213.295 -3.71352 -4.31377 0
M  V30 2405 N 214.497 -2.15191 -5.39141 0
M  V30 2406 H 217.262 -2.67334 -1.35472 0
M  V30 2407 H 214.823 -1.50409 -0.599069 0
M  V30 2408 H 216.815 -1.67884 -3.68235 0
M  V30 2409 H 215.385 -0.860166 -3.00533 0
M  V30 2410 H 214.605 -3.23097 -2.25836 0
M  V30 2411 H 215.893 -3.88484 -3.28569 0
M  V30 2412 H 215.291 -1.54573 -5.44173 0
M  V30 2413 H 213.848 -2.1476 -6.15403 0
M  V30 2414 N 217.281 0.66697 -1.42791 0
M  V30 2415 C 218.692 1.2478 -1.38877 0
M  V30 2416 C 219.043 1.96012 -0.0859426 0
M  V30 2417 O 218.168 2.00463 0.815081 0
M  V30 2418 C 218.763 2.26938 -2.51564 0
M  V30 2419 C 217.322 2.80529 -2.50959 0
M  V30 2420 C 216.469 1.54965 -2.29959 0
M  V30 2421 H 219.42 0.459853 -1.51892 0
M  V30 2422 H 219.441 3.08834 -2.22265 0
M  V30 2423 H 218.953 1.75065 -3.46372 0
M  V30 2424 H 217.054 3.36502 -1.59991 0
M  V30 2425 H 217.167 3.29012 -3.48265 0
M  V30 2426 H 215.531 1.81817 -1.78366 0
M  V30 2427 H 216.314 1.05047 -3.26833 0
M  V30 2428 N 218.759 1.29093 0.90403 0
M  V30 2429 C 219.989 1.19516 1.68522 0
M  V30 2430 C 220.397 -0.24738 1.87576 0
M  V30 2431 O 219.74 -1.17798 1.40959 0
M  V30 2432 C 219.802 1.83249 3.0929 0
M  V30 2433 C 219.466 3.32531 3.13484 0
M  V30 2434 C 220.463 4.28821 2.93953 0
M  V30 2435 C 218.148 3.73656 3.35688 0
M  V30 2436 C 220.142 5.64212 2.96553 0
M  V30 2437 C 217.829 5.0917 3.37919 0
M  V30 2438 C 218.827 6.04258 3.18373 0
M  V30 2439 O 218.515 7.37298 3.20385 0
M  V30 2440 H 218.247 0.415467 0.533257 0
M  V30 2441 H 220.801 1.70912 1.13922 0
M  V30 2442 H 219.031 1.26358 3.65473 0
M  V30 2443 H 220.72 1.68054 3.69476 0
M  V30 2444 H 221.486 3.98382 2.76616 0
M  V30 2445 H 217.365 3.00101 3.49943 0
M  V30 2446 H 220.909 6.38407 2.81216 0
M  V30 2447 H 216.806 5.39256 3.54787 0
M  V30 2448 H 217.574 7.46048 3.36681 0
M  V30 2449 N 220.237 -1.11381 1.11499 0
M  V30 2450 C 221.486 -1.82494 0.858993 0
M  V30 2451 C 221.799 -1.85605 -0.617278 0
M  V30 2452 O 223.005 -2.52824 -0.989552 0
M  V30 2453 C 221.461 -3.27745 1.48699 0
M  V30 2454 C 221.069 -3.32961 2.99735 0
M  V30 2455 C 222.813 -4.03754 1.31085 0
M  V30 2456 C 220.72 -4.72612 3.55516 0
M  V30 2457 H 219.65 -0.683802 0.317696 0
M  V30 2458 H 222.301 -1.25331 1.34031 0
M  V30 2459 H 220.683 -3.84844 0.933339 0
M  V30 2460 H 221.857 -2.85741 3.61509 0
M  V30 2461 H 220.172 -2.70433 3.16631 0
M  V30 2462 H 222.769 -5.06891 1.70192 0
M  V30 2463 H 223.112 -4.15527 0.253496 0
M  V30 2464 H 223.645 -3.53043 1.83318 0
M  V30 2465 H 220.384 -4.66036 4.60967 0
M  V30 2466 H 219.904 -5.2024 2.98513 0
M  V30 2467 H 221.583 -5.4157 3.53992 0
M  V30 2468 N 221.715 -0.905404 -1.28997 0
M  V30 2469 C 222.625 -0.392246 -2.31298 0
M  V30 2470 C 223.641 0.515889 -1.66176 0
M  V30 2471 O 224.817 0.404093 -1.97304 0
M  V30 2472 C 221.882 0.36686 -3.44754 0
M  V30 2473 C 220.943 -0.573485 -4.25452 0
M  V30 2474 C 220.176 0.149488 -5.33491 0
M  V30 2475 O 220.399 1.37255 -5.5364 0
M  V30 2476 O 219.333 -0.510919 -5.99728 0
M  V30 2477 H 223.159 -1.2411 -2.77183 0
M  V30 2478 H 220.744 -0.669926 -1.33538 0
M  V30 2479 H 222.626 0.795907 -4.13816 0
M  V30 2480 H 221.301 1.19169 -3.00966 0
M  V30 2481 H 220.208 -1.05176 -3.59011 0
M  V30 2482 H 221.541 -1.36489 -4.72897 0
M  V30 2483 N 223.193 1.4272 -0.668489 0
M  V30 2484 C 224.103 2.34596 0.0139753 0
M  V30 2485 C 225.119 1.5474 0.795703 0
M  V30 2486 O 226.295 1.87334 0.739466 0
M  V30 2487 C 223.36 3.33202 0.957982 0
M  V30 2488 C 222.421 4.28957 0.17149 0
M  V30 2489 C 221.654 5.22853 1.07053 0
M  V30 2490 O 221.877 5.21531 2.31001 0
M  V30 2491 O 220.811 5.9952 0.534727 0
M  V30 2492 H 224.637 2.9448 -0.742661 0
M  V30 2493 H 222.222 1.43117 -0.428705 0
M  V30 2494 H 224.104 3.93796 1.50008 0
M  V30 2495 H 222.779 2.758 1.69458 0
M  V30 2496 H 221.686 3.71796 -0.414558 0
M  V30 2497 H 223.019 4.89383 -0.52586 0
M  V30 2498 N 224.671 0.411399 1.52136 0
M  V30 2499 C 225.92 -0.165009 2.01024 0
M  V30 2500 C 226.233 -1.4603 1.30133 0
M  V30 2501 O 227.439 -2.1181 1.69849 0
M  V30 2502 C 225.895 -0.344618 3.58246 0
M  V30 2503 C 225.503 0.938716 4.38055 0
M  V30 2504 C 227.247 -0.876195 4.15359 0
M  V30 2505 C 225.154 0.726172 5.86925 0
M  V30 2506 H 224.084 -0.0654407 0.751155 0
M  V30 2507 H 226.735 0.537192 1.75461 0
M  V30 2508 H 225.117 -1.10921 3.80148 0
M  V30 2509 H 226.291 1.70963 4.27912 0
M  V30 2510 H 224.606 1.39688 3.92271 0
M  V30 2511 H 227.203 -1.05128 5.24263 0
M  V30 2512 H 227.546 -1.85152 3.7286 0
M  V30 2513 H 228.079 -0.170607 3.97434 0
M  V30 2514 H 224.818 1.67312 6.33788 0
M  V30 2515 H 224.338 -0.00540283 5.998 0
M  V30 2516 H 226.017 0.369231 6.45946 0
M  V30 2517 N 226.149 -1.5696 0.141893 0
M  V30 2518 C 227.389 -1.9785 -0.513304 0
M  V30 2519 C 227.753 -1.02467 -1.62371 0
M  V30 2520 O 228.954 -1.32382 -2.33941 0
M  V30 2521 C 227.225 -3.42797 -1.01118 0
M  V30 2522 S 228.784 -4.05709 -1.67169 0
M  V30 2523 H 225.602 -0.691318 -0.166135 0
M  V30 2524 H 228.204 -1.94114 0.232398 0
M  V30 2525 H 226.908 -4.0995 -0.192179 0
M  V30 2526 H 226.439 -3.50235 -1.79162 0
M  V30 2527 H 228.454 -3.98342 -2.95868 0
M  V30 2528 N 227.627 0.131896 -1.57047 0
M  V30 2529 C 228.537 1.1815 -2.02676 0
M  V30 2530 C 229.553 1.46113 -0.944824 0
M  V30 2531 O 230.729 1.57485 -1.25541 0
M  V30 2532 C 227.794 2.49139 -2.41103 0
M  V30 2533 C 226.855 2.28688 -3.63318 0
M  V30 2534 C 226.088 3.53431 -3.99903 0
M  V30 2535 O 226.311 4.60223 -3.36973 0
M  V30 2536 O 225.245 3.45198 -4.93074 0
M  V30 2537 H 229.071 0.824069 -2.92306 0
M  V30 2538 H 226.656 0.341745 -1.45439 0
M  V30 2539 H 228.538 3.26338 -2.66611 0
M  V30 2540 H 227.213 2.84382 -1.54624 0
M  V30 2541 H 226.12 1.4939 -3.42977 0
M  V30 2542 H 227.453 1.98355 -4.50462 0
M  V30 2543 N 229.106 1.52395 0.401703 0
M  V30 2544 C 230.331 1.70972 1.17403 0
M  V30 2545 C 230.756 0.421615 1.83314 0
M  V30 2546 O 230.114 -0.621564 1.70312 0
M  V30 2547 C 230.162 2.85151 2.20728 0
M  V30 2548 O 229.266 2.51238 3.27037 0
M  V30 2549 H 228.607 0.568927 0.342372 0
M  V30 2550 H 231.137 1.99131 0.469891 0
M  V30 2551 H 231.147 3.10279 2.64936 0
M  V30 2552 H 229.822 3.78603 1.7214 0
M  V30 2553 H 228.399 2.36808 2.88057 0
M  V30 2554 N 230.584 -0.659388 1.43143 0
M  V30 2555 C 231.514 -1.78422 1.50625 0
M  V30 2556 C 232.495 -1.66216 0.361443 0
M  V30 2557 O 233.68 -1.85404 0.577834 0
M  V30 2558 C 230.81 -3.16815 1.42287 0
M  V30 2559 C 229.764 -3.43777 2.54954 0
M  V30 2560 C 229.09 -4.81905 2.31671 0
M  V30 2561 C 230.39 -3.39134 3.97222 0
M  V30 2562 H 232.084 -1.72417 2.44771 0
M  V30 2563 H 229.63 -0.828084 1.17808 0
M  V30 2564 H 231.583 -3.95253 1.46127 0
M  V30 2565 H 230.307 -3.23534 0.446435 0
M  V30 2566 H 228.966 -2.67707 2.50457 0
M  V30 2567 H 228.614 -4.85294 1.32284 0
M  V30 2568 H 228.314 -5.00906 3.07192 0
M  V30 2569 H 229.838 -5.62609 2.37284 0
M  V30 2570 H 231.252 -4.07518 4.03239 0
M  V30 2571 H 229.649 -3.69671 4.72719 0
M  V30 2572 H 230.719 -2.37426 4.22797 0
M  V30 2573 N 232.062 -1.29571 -0.897171 0
M  V30 2574 C 233.478 -1.07637 -1.17841 0
M  V30 2575 C 233.678 0.170713 -2.00776 0
M  V30 2576 O 232.734 0.867768 -2.3712 0
M  V30 2577 C 234.047 -2.3332 -1.8969 0
M  V30 2578 C 235.595 -2.38664 -2.02505 0
M  V30 2579 C 236.07 -3.64157 -2.77765 0
M  V30 2580 N 237.561 -3.64894 -2.85318 0
M  V30 2581 C 238.296 -4.58679 -3.44094 0
M  V30 2582 N 237.792 -5.62799 -4.04017 0
M  V30 2583 N 239.585 -4.46245 -3.41793 0
M  V30 2584 H 231.736 -2.09598 -0.343883 0
M  V30 2585 H 233.999 -0.923333 -0.214848 0
M  V30 2586 H 233.705 -3.24262 -1.36187 0
M  V30 2587 H 233.579 -2.41025 -2.9015 0
M  V30 2588 H 235.966 -1.48208 -2.55183 0
M  V30 2589 H 236.047 -2.34943 -1.01171 0
M  V30 2590 H 235.691 -4.54965 -2.25763 0
M  V30 2591 H 235.621 -3.65137 -3.7945 0
M  V30 2592 H 238.112 -2.89613 -2.42761 0
M  V30 2593 H 238.425 -6.3048 -4.46895 0
M  V30 2594 H 236.77 -5.66605 -4.02472 0
M  V30 2595 H 239.961 -3.64094 -2.94199 0
M  V30 2596 H 240.134 -5.19518 -3.87304 0
M  V30 2597 N 233.54 1.10788 -1.12088 0
M  V30 2598 C 234.788 1.8231 -0.872205 0
M  V30 2599 C 235.109 1.85419 0.603709 0
M  V30 2600 O 234.379 1.32963 1.43867 0
M  V30 2601 H 232.959 0.675137 -0.319686 0
M  V30 2602 H 235.621 1.34068 -1.41463 0
M  V30 2603 H 234.717 2.85955 -1.25045 0
M  V30 2604 N 235.018 0.912232 1.28515 0
M  V30 2605 C 236.295 0.463597 1.90027 0
M  V30 2606 C 236.675 -1.05753 1.82701 0
M  V30 2607 O 236.023 -1.90492 1.26194 0
M  V30 2608 C 236.233 0.992253 3.34597 0
M  V30 2609 C 237.581 1.04344 4.11579 0
M  V30 2610 O 238.605 0.94079 3.43551 0
M  V30 2611 O 237.464 1.1995 5.33174 0
M  V30 2612 H 234.558 0.146666 0.813891 0
M  V30 2613 H 237.104 1.00292 1.36893 0
M  V30 2614 H 235.876 2.03623 3.34146 0
M  V30 2615 H 235.499 0.433672 3.95228 0
M  V30 2616 N 236.496 -1.42363 0.676048 0
M  V30 2617 C 237.745 -2.00745 0.196037 0
M  V30 2618 C 238.058 -1.54083 -1.20489 0
M  V30 2619 O 239.264 -2.04891 -1.78134 0
M  V30 2620 C 237.72 -3.58651 0.299616 0
M  V30 2621 C 237.328 -4.143 1.70468 0
M  V30 2622 C 239.072 -4.24326 -0.121619 0
M  V30 2623 C 236.979 -5.64574 1.76096 0
M  V30 2624 H 235.909 -0.750787 0.0695301 0
M  V30 2625 H 238.56 -1.63072 0.841412 0
M  V30 2626 H 236.942 -3.93833 -0.413673 0
M  V30 2627 H 238.116 -3.90575 2.44515 0
M  V30 2628 H 236.431 -3.61081 2.07387 0
M  V30 2629 H 239.028 -5.34607 -0.0997362 0
M  V30 2630 H 239.371 -3.99897 -1.15708 0
M  V30 2631 H 239.904 -3.94108 0.540706 0
M  V30 2632 H 236.643 -5.93804 2.77628 0
M  V30 2633 H 236.163 -5.90286 1.06406 0
M  V30 2634 H 237.842 -6.29013 1.51496 0
M  V30 2635 N 237.974 -0.419461 -1.51915 0
M  V30 2636 C 239.221 0.152939 -2.01922 0
M  V30 2637 C 239.549 1.4426 -1.30458 0
M  V30 2638 O 238.804 1.91514 -0.402593 0
M  V30 2639 C 239.103 0.437067 -3.54717 0
M  V30 2640 C 238.769 -0.764632 -4.44369 0
M  V30 2641 C 237.431 -1.09423 -4.68594 0
M  V30 2642 C 239.783 -1.56713 -4.97082 0
M  V30 2643 C 237.111 -2.22732 -5.42777 0
M  V30 2644 C 239.463 -2.69107 -5.72507 0
M  V30 2645 C 238.127 -3.02541 -5.95 0
M  V30 2646 H 237.397 0.0559644 -0.738884 0
M  V30 2647 H 240.044 -0.562998 -1.83037 0
M  V30 2648 H 238.349 1.23469 -3.71837 0
M  V30 2649 H 240.046 0.893083 -3.90928 0
M  V30 2650 H 236.636 -0.497775 -4.257 0
M  V30 2651 H 240.82 -1.32571 -4.78266 0
M  V30 2652 H 236.076 -2.48971 -5.58411 0
M  V30 2653 H 240.25 -3.31671 -6.12346 0
M  V30 2654 H 237.877 -3.90457 -6.52264 0
M  V30 2655 N 239.452 1.56882 -0.150215 0
M  V30 2656 C 240.384 2.14057 0.819286 0
M  V30 2657 C 241.397 1.09082 1.20851 0
M  V30 2658 O 242.586 1.36347 1.15203 0
M  V30 2659 C 239.686 2.65102 2.11127 0
M  V30 2660 C 238.859 3.94511 1.88891 0
M  V30 2661 C 237.918 4.30834 3.02107 0
M  V30 2662 O 236.944 4.99099 2.73659 0
M  V30 2663 N 238.146 3.90676 4.29363 0
M  V30 2664 H 240.911 2.97871 0.330618 0
M  V30 2665 H 238.472 1.61866 0.0332538 0
M  V30 2666 H 240.464 2.86411 2.85921 0
M  V30 2667 H 239.034 1.85994 2.51247 0
M  V30 2668 H 238.254 3.81795 0.981152 0
M  V30 2669 H 239.542 4.7907 1.71376 0
M  V30 2670 H 238.94 3.35677 4.55343 0
M  V30 2671 H 237.497 4.1703 5.00928 0
M  V30 2672 N 240.93 -0.123565 1.57115 0
M  V30 2673 C 241.877 -1.15177 2.00007 0
M  V30 2674 C 242.847 -1.41403 0.871454 0
M  V30 2675 O 244.032 -1.53346 1.13533 0
M  V30 2676 C 241.172 -2.47436 2.40561 0
M  V30 2677 C 240.285 -2.28184 3.66819 0
M  V30 2678 C 239.42 -3.53641 3.96373 0
M  V30 2679 C 238.459 -3.29528 5.15827 0
M  V30 2680 N 237.596 -4.47175 5.41275 0
M  V30 2681 H 242.436 -0.779008 2.87638 0
M  V30 2682 H 239.973 -0.373166 1.42288 0
M  V30 2683 H 241.931 -3.24584 2.62109 0
M  V30 2684 H 240.561 -2.82614 1.55978 0
M  V30 2685 H 239.613 -1.41976 3.52912 0
M  V30 2686 H 240.925 -2.0634 4.5412 0
M  V30 2687 H 240.079 -4.39209 4.18545 0
M  V30 2688 H 238.818 -3.78512 3.07538 0
M  V30 2689 H 237.823 -2.42349 4.93505 0
M  V30 2690 H 239.048 -3.06031 6.06236 0
M  V30 2691 H 236.994 -4.72175 4.55397 0
M  V30 2692 H 236.911 -4.28419 6.22891 0
M  V30 2693 H 238.179 -5.3389 5.67963 0
M  V30 2694 N 242.408 -1.52605 -0.393616 0
M  V30 2695 C 243.655 -1.67424 -1.1391 0
M  V30 2696 C 243.983 -0.411859 -1.90089 0
M  V30 2697 O 243.238 0.605626 -1.86093 0
M  V30 2698 C 243.537 -2.85721 -2.14705 0
M  V30 2699 C 243.203 -4.23342 -1.55218 0
M  V30 2700 C 241.865 -4.60771 -1.3872 0
M  V30 2701 C 244.217 -5.09041 -1.11924 0
M  V30 2702 C 241.545 -5.81563 -0.774689 0
M  V30 2703 C 243.897 -6.30452 -0.520853 0
M  V30 2704 C 242.561 -6.66617 -0.343134 0
M  V30 2705 H 241.831 -0.612648 -0.416826 0
M  V30 2706 H 244.478 -1.8674 -0.424315 0
M  V30 2707 H 242.783 -2.60803 -2.92385 0
M  V30 2708 H 244.48 -2.94382 -2.72288 0
M  V30 2709 H 241.07 -3.93855 -1.69045 0
M  V30 2710 H 245.254 -4.80695 -1.23473 0
M  V30 2711 H 240.51 -6.08196 -0.625154 0
M  V30 2712 H 244.684 -6.96175 -0.177065 0
M  V30 2713 H 242.311 -7.60083 0.133571 0
M  V30 2714 N 243.887 0.651787 -1.4349 0
M  V30 2715 C 244.82 1.77668 -1.43211 0
M  V30 2716 C 245.798 1.59931 -0.29338 0
M  V30 2717 O 246.982 1.82095 -0.487191 0
M  V30 2718 C 244.109 3.14986 -1.24505 0
M  V30 2719 C 243.155 3.51421 -2.41673 0
M  V30 2720 S 243.988 3.51234 -4.04222 0
M  V30 2721 C 245.144 4.91206 -3.87902 0
M  V30 2722 H 245.377 1.77635 -2.38397 0
M  V30 2723 H 242.91 0.824558 -1.30539 0
M  V30 2724 H 244.868 3.94237 -1.144 0
M  V30 2725 H 243.529 3.1258 -0.308651 0
M  V30 2726 H 242.722 4.51291 -2.24393 0
M  V30 2727 H 242.324 2.79585 -2.48411 0
M  V30 2728 H 244.616 5.79902 -3.50315 0
M  V30 2729 H 245.559 5.13537 -4.8753 0
M  V30 2730 H 245.967 4.64808 -3.20334 0
M  V30 2731 N 245.365 1.30045 0.890287 0
M  V30 2732 C 246.275 1.17885 2.02831 0
M  V30 2733 C 247.291 0.0999609 1.73713 0
M  V30 2734 O 248.467 0.313867 1.98939 0
M  V30 2735 C 245.532 0.866079 3.35708 0
M  V30 2736 C 244.593 2.02979 3.78283 0
M  V30 2737 C 243.826 1.73184 5.0482 0
M  V30 2738 O 244.049 0.657237 5.66601 0
M  V30 2739 O 242.983 2.58267 5.43674 0
M  V30 2740 H 246.809 2.13474 2.16015 0
M  V30 2741 H 244.394 1.09587 1.01543 0
M  V30 2742 H 246.276 0.706623 4.15433 0
M  V30 2743 H 244.951 -0.0599443 3.23644 0
M  V30 2744 H 243.858 2.24454 2.99285 0
M  V30 2745 H 245.191 2.93734 3.94944 0
M  V30 2746 N 246.843 -1.10192 1.12674 0
M  V30 2747 C 248.068 -1.86523 0.906853 0
M  V30 2748 C 248.493 -1.80221 -0.538711 0
M  V30 2749 O 247.851 -1.17396 -1.38158 0
M  V30 2750 C 247.899 -3.32758 1.3894 0
M  V30 2751 O 247.003 -4.08449 0.5695 0
M  V30 2752 H 246.344 -0.578678 0.325619 0
M  V30 2753 H 248.874 -1.39203 1.49946 0
M  V30 2754 H 248.884 -3.83608 1.38958 0
M  V30 2755 H 247.559 -3.36661 2.44197 0
M  V30 2756 H 246.136 -3.67427 0.636528 0
M  V30 2757 N 248.321 -0.919034 -1.28029 0
M  V30 2758 C 249.598 -0.473668 -1.89778 0
M  V30 2759 C 249.978 1.04783 -1.83259 0
M  V30 2760 O 249.326 1.8982 -1.27202 0
M  V30 2761 C 249.536 -1.00998 -3.34066 0
M  V30 2762 C 250.884 -1.06525 -4.1102 0
M  V30 2763 O 251.908 -0.958996 -3.43048 0
M  V30 2764 O 250.767 -1.22776 -5.3253 0
M  V30 2765 H 247.861 -0.15098 -0.813101 0
M  V30 2766 H 250.407 -1.01016 -1.36359 0
M  V30 2767 H 249.179 -2.05392 -3.33061 0
M  V30 2768 H 248.802 -0.454626 -3.94992 0
M  V30 2769 N 249.799 1.42003 -0.683588 0
M  V30 2770 C 250.746 2.30798 -0.0107309 0
M  V30 2771 C 251.716 1.4645 0.783688 0
M  V30 2772 O 252.901 1.75263 0.754156 0
M  V30 2773 C 250.041 3.3238 0.928306 0
M  V30 2774 C 249.154 4.31814 0.126776 0
M  V30 2775 C 248.289 5.20468 1.06236 0
M  V30 2776 C 247.328 6.11577 0.253035 0
M  V30 2777 N 246.465 6.92754 1.14179 0
M  V30 2778 H 251.305 2.8778 -0.773727 0
M  V30 2779 H 248.842 1.41745 -0.393283 0
M  V30 2780 H 250.8 3.89813 1.48666 0
M  V30 2781 H 249.43 2.76976 1.65783 0
M  V30 2782 H 248.482 3.76427 -0.54833 0
M  V30 2783 H 249.794 4.96276 -0.501192 0
M  V30 2784 H 248.948 5.82677 1.69035 0
M  V30 2785 H 247.687 4.56204 1.7242 0
M  V30 2786 H 246.692 5.48428 -0.388108 0
M  V30 2787 H 247.917 6.77892 -0.404839 0
M  V30 2788 H 245.863 6.3111 1.78987 0
M  V30 2789 H 245.78 7.53855 0.569111 0
M  V30 2790 H 247.048 7.59441 1.75697 0
M  V30 2791 N 251.277 0.427512 1.51691 0
M  V30 2792 C 252.524 -0.142229 2.02 0
M  V30 2793 C 252.852 -1.43566 1.31221 0
M  V30 2794 O 252.107 -1.91298 0.412744 0
M  V30 2795 C 252.406 -0.418249 3.54944 0
M  V30 2796 C 252.072 0.788187 4.43958 0
M  V30 2797 C 250.734 1.11906 4.68007 0
M  V30 2798 C 253.086 1.59347 4.96244 0
M  V30 2799 C 250.414 2.25608 5.41588 0
M  V30 2800 C 252.766 2.7214 5.71072 0
M  V30 2801 C 251.43 3.05692 5.93387 0
M  V30 2802 H 250.7 -0.0520451 0.73917 0
M  V30 2803 H 253.347 0.572697 1.82736 0
M  V30 2804 H 251.652 -1.21496 3.72486 0
M  V30 2805 H 253.349 -0.872339 3.91397 0
M  V30 2806 H 249.939 0.520344 4.2543 0
M  V30 2807 H 254.123 1.35106 4.77556 0
M  V30 2808 H 249.379 2.51929 5.57083 0
M  V30 2809 H 253.553 3.34914 6.10578 0
M  V30 2810 H 251.18 3.9391 6.50184 0
M  V30 2811 N 252.755 -1.56801 0.158532 0
M  V30 2812 C 253.983 -2.00859 -0.496303 0
M  V30 2813 C 254.398 -1.03871 -1.57659 0
M  V30 2814 O 253.755 -0.0375165 -1.82461 0
M  V30 2815 C 253.806 -3.4479 -1.08638 0
M  V30 2816 O 253.527 -4.38072 -0.0492322 0
M  V30 2817 C 255.028 -4.04185 -1.8207 0
M  V30 2818 H 252.248 -0.65864 -0.128199 0
M  V30 2819 H 254.792 -2.02885 0.256506 0
M  V30 2820 H 252.947 -3.43579 -1.78975 0
M  V30 2821 H 253.361 -5.2227 -0.483102 0
M  V30 2822 H 254.835 -5.06857 -2.18633 0
M  V30 2823 H 255.312 -3.45549 -2.71095 0
M  V30 2824 H 255.918 -4.0906 -1.16405 0
M  V30 2825 N 254.233 0.115231 -1.57178 0
M  V30 2826 C 255.649 0.468877 -1.52557 0
M  V30 2827 C 255.849 1.81649 -0.872125 0
M  V30 2828 O 254.905 2.48347 -0.45606 0
M  V30 2829 C 256.218 0.4499 -2.97315 0
M  V30 2830 C 257.766 0.533185 -3.08425 0
M  V30 2831 C 258.241 0.54456 -4.54751 0
M  V30 2832 N 259.732 0.605892 -4.5922 0
M  V30 2833 C 260.467 0.636203 -5.6986 0
M  V30 2834 N 259.963 0.623931 -6.89985 0
M  V30 2835 N 261.756 0.679496 -5.57978 0
M  V30 2836 H 253.907 -0.767712 -1.9804 0
M  V30 2837 H 256.17 -0.283609 -0.904583 0
M  V30 2838 H 255.876 -0.472721 -3.48509 0
M  V30 2839 H 255.75 1.27632 -3.5495 0
M  V30 2840 H 258.137 1.44623 -2.57232 0
M  V30 2841 H 258.218 -0.320995 -2.53778 0
M  V30 2842 H 257.862 -0.364452 -5.06591 0
M  V30 2843 H 257.792 1.41568 -5.07214 0
M  V30 2844 H 260.283 0.621386 -3.72756 0
M  V30 2845 H 260.596 0.649787 -7.70063 0
M  V30 2846 H 258.941 0.591296 -6.9248 0
M  V30 2847 H 262.132 0.686472 -4.63039 0
M  V30 2848 H 262.305 0.69965 -6.44212 0
M  V30 2849 N 255.711 1.52812 0.385517 0
M  V30 2850 C 256.958 1.68026 1.1302 0
M  V30 2851 C 257.286 0.421934 1.89868 0
M  V30 2852 O 256.541 -0.595749 1.86412 0
M  V30 2853 C 256.84 2.86856 2.13187 0
M  V30 2854 C 256.506 4.24159 1.5297 0
M  V30 2855 C 255.168 4.61501 1.36274 0
M  V30 2856 C 257.52 5.09627 1.09223 0
M  V30 2857 C 254.848 5.81966 0.743837 0
M  V30 2858 C 257.2 6.30719 0.487411 0
M  V30 2859 C 255.864 6.6679 0.307777 0
M  V30 2860 H 255.134 0.614849 0.413571 0
M  V30 2861 H 257.781 1.86962 0.414405 0
M  V30 2862 H 256.086 2.6235 2.90998 0
M  V30 2863 H 257.783 2.95821 2.70722 0
M  V30 2864 H 254.373 3.94746 1.66954 0
M  V30 2865 H 258.557 4.81343 1.20922 0
M  V30 2866 H 253.813 6.08519 0.592891 0
M  V30 2867 H 257.987 6.96259 0.140143 0
M  V30 2868 H 255.614 7.60001 -0.173879 0
M  V30 2869 N 257.189 -0.644168 1.43834 0
M  V30 2870 C 258.429 -1.41565 1.47441 0
M  V30 2871 C 258.793 -1.91743 0.0992723 0
M  V30 2872 O 259.994 -2.68798 0.0100192 0
M  V30 2873 C 258.265 -2.55902 2.49498 0
M  V30 2874 S 259.824 -3.44287 2.72051 0
M  V30 2875 H 256.642 -0.483118 0.521649 0
M  V30 2876 H 259.244 -0.747008 1.80666 0
M  V30 2877 H 257.948 -2.17327 3.48134 0
M  V30 2878 H 257.479 -3.27607 2.17801 0
M  V30 2879 H 259.494 -4.52927 2.0266 0
M  V30 2880 N 258.668 -1.30515 -0.883378 0
M  V30 2881 C 259.6 -1.12846 -1.99496 0
M  V30 2882 C 260.613 -0.0712571 -1.62644 0
M  V30 2883 O 261.802 -0.317432 -1.75655 0
M  V30 2884 C 258.902 -0.699123 -3.3161 0
M  V30 2885 C 258.075 -1.83842 -3.96889 0
M  V30 2886 C 257.134 -1.39737 -5.07307 0
M  V30 2887 O 256.16 -2.10485 -5.28852 0
M  V30 2888 N 257.362 -0.277279 -5.79837 0
M  V30 2889 H 260.127 -2.08585 -2.15203 0
M  V30 2890 H 257.688 -1.22672 -1.05656 0
M  V30 2891 H 259.68 -0.387044 -4.02845 0
M  V30 2892 H 258.25 0.166276 -3.12157 0
M  V30 2893 H 257.47 -2.31853 -3.18807 0
M  V30 2894 H 258.758 -2.60187 -4.37241 0
M  V30 2895 H 258.156 0.3122 -5.64838 0
M  V30 2896 H 256.713 -0.0246623 -6.51795 0
M  V30 2897 N 260.146 1.09593 -1.13257 0
M  V30 2898 C 261.392 1.82181 -0.904521 0
M  V30 2899 C 261.747 1.83967 0.563358 0
M  V30 2900 O 261.04 1.29566 1.41149 0
M  V30 2901 C 261.234 3.27802 -1.42411 0
M  V30 2902 C 261.063 3.40201 -2.94097 0
M  V30 2903 C 259.833 3.52104 -3.62424 0
M  V30 2904 C 262.031 3.32875 -3.92044 0
M  V30 2905 N 260.013 3.53169 -5.0214 0
M  V30 2906 C 261.384 3.40789 -5.17941 0
M  V30 2907 C 263.439 3.16531 -3.84334 0
M  V30 2908 C 262.142 3.34042 -6.37031 0
M  V30 2909 C 264.168 3.11109 -5.02956 0
M  V30 2910 C 263.53 3.19614 -6.27715 0
M  V30 2911 H 259.629 0.681015 -0.384373 0
M  V30 2912 H 262.213 1.3099 -1.44048 0
M  V30 2913 H 260.384 3.77466 -0.915086 0
M  V30 2914 H 262.116 3.88393 -1.13722 0
M  V30 2915 H 258.871 3.5548 -3.12939 0
M  V30 2916 H 259.295 3.57291 -5.75041 0
M  V30 2917 H 263.937 3.08827 -2.88766 0
M  V30 2918 H 261.655 3.4051 -7.32857 0
M  V30 2919 H 265.241 2.99601 -4.98729 0
M  V30 2920 H 264.121 3.15432 -7.17964 0
M  V30 2921 N 261.624 0.925811 1.2754 0
M  V30 2922 C 262.571 0.422045 2.26908 0
M  V30 2923 C 263.541 -0.510029 1.58076 0
M  V30 2924 O 264.726 -0.429599 1.85901 0
M  V30 2925 C 261.866 -0.320837 3.43605 0
M  V30 2926 C 260.979 0.64513 4.27156 0
M  V30 2927 C 260.114 -0.117405 5.3107 0
M  V30 2928 C 259.153 0.841391 6.0629 0
M  V30 2929 N 258.29 0.111604 7.02011 0
M  V30 2930 H 263.13 1.27441 2.69375 0
M  V30 2931 H 260.667 0.639697 1.32462 0
M  V30 2932 H 262.625 -0.76785 4.10073 0
M  V30 2933 H 261.255 -1.13745 3.02096 0
M  V30 2934 H 260.307 1.21067 3.6062 0
M  V30 2935 H 261.619 1.37797 4.79389 0
M  V30 2936 H 260.773 -0.624422 6.03478 0
M  V30 2937 H 259.512 -0.883219 4.79636 0
M  V30 2938 H 258.517 1.35967 5.32722 0
M  V30 2939 H 259.742 1.60696 6.59813 0
M  V30 2940 H 257.688 -0.635999 6.5291 0
M  V30 2941 H 257.605 0.784044 7.51923 0
M  V30 2942 H 258.873 -0.374823 7.78598 0
M  V30 2943 N 263.102 -1.41638 0.69111 0
M  V30 2944 C 264.05 -2.32597 0.0115199 0
M  V30 2945 C 265.044 -1.5072 -0.773296 0
M  V30 2946 O 266.25 -1.66685 -0.67942 0
M  V30 2947 H 262.625 -0.751849 -0.0150746 0
M  V30 2948 H 264.596 -2.87593 0.795791 0
M  V30 2949 C 263.345 -3.35467 -0.914172 0
M  V30 2950 H 262.668 -3.9852 -0.319687 0
M  V30 2951 H 264.108 -4.01662 -1.35808 0
M  V30 2952 C 262.567 -2.69004 -2.02826 0
M  V30 2953 O 263.097 -2.53444 -3.11655 0
M  V30 2954 N 261.303 -2.2777 -1.80469 0
M  V30 2955 H 260.85 -2.40626 -0.919615 0
M  V30 2956 H 260.808 -1.83635 -2.55197 0
M  V30 2957 N 264.58 -0.43555 -1.51462 0
M  V30 2958 C 265.826 0.131709 -2.02372 0
M  V30 2959 C 266.159 1.42516 -1.3192 0
M  V30 2960 O 265.434 1.89606 -0.433573 0
M  V30 2961 C 265.717 0.352301 -3.58373 0
M  V30 2962 C 265.57 -0.959676 -4.39443 0
M  V30 2963 C 266.889 1.12286 -4.25535 0
M  V30 2964 H 264.008 0.0463936 -0.735538 0
M  V30 2965 H 266.65 -0.574197 -1.81116 0
M  V30 2966 H 264.8 0.9536 -3.76615 0
M  V30 2967 H 266.472 -1.59482 -4.32855 0
M  V30 2968 H 264.715 -1.56468 -4.04599 0
M  V30 2969 H 265.386 -0.759394 -5.46752 0
M  V30 2970 H 267.862 0.613545 -4.11552 0
M  V30 2971 H 266.738 1.24598 -5.34571 0
M  V30 2972 H 266.999 2.15048 -3.86273 0
M  V30 2973 N 266.058 1.56714 -0.166846 0
M  V30 2974 C 266.968 2.21331 0.777791 0
M  V30 2975 C 267.984 1.20358 1.25658 0
M  V30 2976 O 269.16 1.53005 1.30964 0
M  V30 2977 C 266.225 2.83787 1.99163 0
M  V30 2978 C 265.286 3.99947 1.56016 0
M  V30 2979 C 264.519 4.59415 2.71613 0
M  V30 2980 O 264.742 4.17769 3.88362 0
M  V30 2981 O 263.676 5.49359 2.45945 0
M  V30 2982 H 267.502 3.02605 0.257636 0
M  V30 2983 H 265.087 1.49275 0.0611393 0
M  V30 2984 H 266.969 3.23405 2.70161 0
M  V30 2985 H 265.644 2.05513 2.50092 0
M  V30 2986 H 264.551 3.65007 0.819809 0
M  V30 2987 H 265.884 4.79801 1.09782 0
M  V30 2988 N 267.536 -0.106894 1.57237 0
M  V30 2989 C 268.466 -1.13148 2.04254 0
M  V30 2990 C 269.447 -1.42476 0.929224 0
M  V30 2991 O 270.632 -1.52709 1.19973 0
M  V30 2992 C 267.762 -2.4545 2.45706 0
M  V30 2993 C 266.716 -2.30558 3.60592 0
M  V30 2994 C 266.042 -3.67931 3.87983 0
M  V30 2995 C 267.342 -1.75597 4.91897 0
M  V30 2996 H 269.036 -0.740374 2.90101 0
M  V30 2997 H 266.582 -0.354696 1.39563 0
M  V30 2998 H 268.535 -3.17389 2.77205 0
M  V30 2999 H 267.259 -2.86475 1.56843 0
M  V30 3000 H 265.918 -1.61067 3.29322 0
M  V30 3001 H 265.566 -4.06462 2.96306 0
M  V30 3002 H 265.266 -3.58817 4.65322 0
M  V30 3003 H 266.79 -4.41356 4.21945 0
M  V30 3004 H 268.204 -2.37364 5.21854 0
M  V30 3005 H 266.601 -1.77272 5.73319 0
M  V30 3006 H 267.671 -0.714451 4.79608 0
M  V30 3007 N 269.014 -1.53014 -0.377408 0
M  V30 3008 C 269.962 -1.7927 -1.48206 0
M  V30 3009 C 270.956 -0.661195 -1.55963 0
M  V30 3010 O 272.162 -0.843908 -1.58991 0
M  V30 3011 H 268.537 -0.567425 -0.493491 0
M  V30 3012 H 270.508 -2.71753 -1.2326 0
M  V30 3013 C 269.257 -1.98894 -2.85196 0
M  V30 3014 H 268.58 -2.85395 -2.79981 0
M  V30 3015 H 270.02 -2.21249 -3.61698 0
M  V30 3016 C 268.479 -0.764691 -3.28107 0
M  V30 3017 O 269.009 0.0523226 -4.01666 0
M  V30 3018 N 267.215 -0.591493 -2.84517 0
M  V30 3019 H 266.762 -1.25749 -2.24822 0
M  V30 3020 H 266.72 0.226253 -3.13585 0
M  V30 3021 N 270.492 0.636531 -1.44174 0
M  V30 3022 C 271.741 1.39213 -1.45954 0
M  V30 3023 C 272.054 1.95374 -0.0939119 0
M  V30 3024 O 273.26 2.71498 0.0107767 0
M  V30 3025 C 271.716 2.52025 -2.56927 0
M  V30 3026 C 271.324 2.024 -3.99673 0
M  V30 3027 C 273.068 3.29269 -2.67922 0
M  V30 3028 C 270.975 3.12521 -5.0208 0
M  V30 3029 H 269.905 0.523132 -0.542999 0
M  V30 3030 H 272.556 0.685349 -1.70221 0
M  V30 3031 H 270.938 3.25253 -2.25891 0
M  V30 3032 H 272.112 1.36073 -4.40251 0
M  V30 3033 H 270.427 1.37987 -3.92872 0
M  V30 3034 H 273.024 4.11352 -3.41605 0
M  V30 3035 H 273.367 3.78397 -1.73555 0
M  V30 3036 H 273.9 2.63129 -2.98342 0
M  V30 3037 H 270.639 2.68343 -5.98057 0
M  V30 3038 H 270.159 3.77507 -4.66099 0
M  V30 3039 H 271.838 3.77385 -5.25538 0
M  V30 3040 N 271.97 1.30982 0.876444 0
M  V30 3041 C 272.92 1.14688 1.97055 0
M  V30 3042 C 273.904 0.0596593 1.60789 0
M  V30 3043 O 275.096 0.283892 1.74708 0
M  V30 3044 C 272.225 0.849627 3.3262 0
M  V30 3045 C 271.311 1.97752 3.75173 0
M  V30 3046 N 271.702 3.22384 3.89746 0
M  V30 3047 C 270 1.8758 4.04635 0
M  V30 3048 C 270.701 3.96121 4.25985 0
M  V30 3049 N 269.677 3.24237 4.36315 0
M  V30 3050 H 273.479 2.09204 2.06424 0
M  V30 3051 H 270.993 1.22445 1.06682 0
M  V30 3052 H 272.99 0.713895 4.10742 0
M  V30 3053 H 271.65 -0.087376 3.24582 0
M  V30 3054 H 272.661 3.57575 3.74647 0
M  V30 3055 H 269.338 1.01303 4.05024 0
M  V30 3056 H 270.728 5.03491 4.44911 0
M  V30 3057 N 273.449 -1.08991 1.13837 0
M  V30 3058 C 274.379 -2.17771 0.842507 0
M  V30 3059 C 275.36 -1.6892 -0.20001 0
M  V30 3060 O 276.545 -1.94113 -0.0579731 0
M  V30 3061 C 273.675 -3.4589 0.312644 0
M  V30 3062 C 272.629 -4.08099 1.28992 0
M  V30 3063 C 271.955 -5.31098 0.619623 0
M  V30 3064 C 273.255 -4.50077 2.65005 0
M  V30 3065 H 274.949 -2.42777 1.75213 0
M  V30 3066 H 272.495 -1.16682 0.843875 0
M  V30 3067 H 274.448 -4.21297 0.0933043 0
M  V30 3068 H 273.172 -3.20419 -0.632382 0
M  V30 3069 H 271.831 -3.34717 1.49533 0
M  V30 3070 H 271.479 -5.0191 -0.33102 0
M  V30 3071 H 271.179 -5.73674 1.27167 0
M  V30 3072 H 272.703 -6.09224 0.409669 0
M  V30 3073 H 274.117 -5.16688 2.48407 0
M  V30 3074 H 272.514 -5.03553 3.26427 0
M  V30 3075 H 273.584 -3.62257 3.22332 0
M  V30 3076 N 274.927 -0.932562 -1.27047 0
M  V30 3077 C 276.155 -0.592031 -1.98249 0
M  V30 3078 C 276.57 0.831062 -1.69525 0
M  V30 3079 O 275.927 1.55299 -0.958561 0
M  V30 3080 C 275.978 -0.814279 -3.5221 0
M  V30 3081 O 275.699 -2.18139 -3.7993 0
M  V30 3082 C 277.2 -0.483121 -4.4066 0
M  V30 3083 H 274.42 -0.223896 -0.632544 0
M  V30 3084 H 276.964 -1.25091 -1.61779 0
M  V30 3085 H 275.119 -0.20213 -3.86872 0
M  V30 3086 H 275.533 -2.235 -4.74498 0
M  V30 3087 H 277.007 -0.689298 -5.47679 0
M  V30 3088 H 277.484 0.581546 -4.35333 0
M  V30 3089 H 278.09 -1.07362 -4.11526 0
M  V30 3090 N 276.405 1.4127 -0.698611 0
M  V30 3091 C 277.338 2.28195 0.0153898 0
M  V30 3092 C 278.316 1.42402 0.784883 0
M  V30 3093 O 279.5 1.71828 0.775067 0
M  V30 3094 C 276.627 3.22685 1.02918 0
M  V30 3095 C 275.673 4.25041 0.352501 0
M  V30 3096 S 276.506 5.27757 -0.907322 0
M  V30 3097 C 277.662 6.25812 0.104796 0
M  V30 3098 H 277.895 2.88403 -0.721858 0
M  V30 3099 H 275.428 1.46452 -0.488996 0
M  V30 3100 H 277.386 3.77655 1.60893 0
M  V30 3101 H 276.047 2.61566 1.73902 0
M  V30 3102 H 275.24 4.91437 1.11828 0
M  V30 3103 H 274.842 3.73682 -0.154254 0
M  V30 3104 H 277.134 6.70705 0.957103 0
M  V30 3105 H 278.077 7.06149 -0.525323 0
M  V30 3106 H 278.485 5.62615 0.460931 0
M  V30 3107 N 277.883 0.443576 1.51229 0
M  V30 3108 C 278.831 -0.37904 2.29491 0
M  V30 3109 C 279.825 -1.0153 1.35603 0
M  V30 3110 O 281.031 -0.94955 1.52917 0
M  V30 3111 H 277.406 -0.141053 0.738653 0
M  V30 3112 H 279.377 0.301799 2.9687 0
M  V30 3113 C 278.126 -1.46426 3.15364 0
M  V30 3114 H 277.449 -0.984037 3.87501 0
M  V30 3115 H 278.889 -2.01297 3.7317 0
M  V30 3116 C 277.348 -2.45099 2.31146 0
M  V30 3117 O 277.878 -3.49773 1.9754 0
M  V30 3118 N 276.084 -2.16139 1.94249 0
M  V30 3119 H 275.631 -1.31044 2.21777 0
M  V30 3120 H 275.589 -2.82398 1.38198 0
M  V30 3121 N 279.361 -1.56624 0.175154 0
M  V30 3122 C 280.271 -2.21741 -0.766042 0
M  V30 3123 C 281.287 -1.21023 -1.25018 0
M  V30 3124 O 282.463 -1.53697 -1.3015 0
M  V30 3125 C 279.528 -2.84839 -1.97655 0
M  V30 3126 C 278.589 -4.00769 -1.53892 0
M  V30 3127 C 277.822 -4.60849 -2.69173 0
M  V30 3128 O 278.045 -4.19823 -3.86141 0
M  V30 3129 O 276.979 -5.50655 -2.43028 0
M  V30 3130 H 280.805 -3.02738 -0.241585 0
M  V30 3131 H 278.39 -1.49305 -0.053222 0
M  V30 3132 H 280.272 -3.24834 -2.68442 0
M  V30 3133 H 278.947 -2.06836 -2.48999 0
M  V30 3134 H 277.854 -3.65436 -0.80044 0
M  V30 3135 H 279.187 -4.80376 -1.07236 0
M  V30 3136 N 280.839 0.0985539 -1.57292 0
M  V30 3137 C 282.086 0.802678 -1.85912 0
M  V30 3138 C 282.414 1.78901 -0.763186 0
M  V30 3139 O 281.669 1.94178 0.243559 0
M  V30 3140 C 281.968 1.56927 -3.21105 0
M  V30 3141 C 281.634 0.725376 -4.45027 0
M  V30 3142 C 280.296 0.492726 -4.78671 0
M  V30 3143 C 282.648 0.138493 -5.21016 0
M  V30 3144 C 279.976 -0.336727 -5.85733 0
M  V30 3145 C 282.328 -0.678264 -6.28953 0
M  V30 3146 C 280.992 -0.921039 -6.61115 0
M  V30 3147 H 280.262 0.293721 -0.680301 0
M  V30 3148 H 282.909 0.0642841 -1.91392 0
M  V30 3149 H 281.214 2.37914 -3.11294 0
M  V30 3150 H 282.911 2.11841 -3.40477 0
M  V30 3151 H 279.501 0.916815 -4.18679 0
M  V30 3152 H 283.685 0.305404 -4.95359 0
M  V30 3153 H 278.941 -0.533836 -6.09065 0
M  V30 3154 H 283.115 -1.1399 -6.87007 0
M  V30 3155 H 280.742 -1.56556 -7.43905 0
M  V30 3156 N 282.317 1.53212 0.369288 0
M  V30 3157 C 283.542 1.73423 1.1375 0
M  V30 3158 C 283.967 0.460404 1.82378 0
M  V30 3159 O 283.325 -0.585298 1.71592 0
M  V30 3160 C 283.373 2.89769 2.1463 0
M  V30 3161 O 282.477 2.58119 3.21634 0
M  V30 3162 H 281.818 0.576061 0.330227 0
M  V30 3163 H 284.348 2.00083 0.427547 0
M  V30 3164 H 284.358 3.15829 2.58294 0
M  V30 3165 H 283.033 3.8217 1.64071 0
M  V30 3166 H 281.61 2.42864 2.82969 0
M  V30 3167 N 283.795 -0.628877 1.44509 0
M  V30 3168 C 285.041 -1.39045 1.47629 0
M  V30 3169 C 285.374 -1.93892 0.109343 0
M  V30 3170 O 284.649 -1.7379 -0.87334 0
M  V30 3171 C 284.932 -2.55408 2.53848 0
M  V30 3172 C 284.785 -2.05896 3.99909 0
M  V30 3173 C 286.104 -3.5759 2.56549 0
M  V30 3174 H 283.223 -0.504232 0.537512 0
M  V30 3175 H 285.865 -0.710854 1.76201 0
M  V30 3176 H 284.015 -3.13384 2.29615 0
M  V30 3177 H 285.687 -1.52734 4.35282 0
M  V30 3178 H 283.93 -1.37061 4.11578 0
M  V30 3179 H 284.601 -2.89681 4.69882 0
M  V30 3180 H 287.077 -3.09419 2.78207 0
M  V30 3181 H 285.953 -4.36527 3.32769 0
M  V30 3182 H 286.214 -4.11808 1.60832 0
M  V30 3183 N 285.273 -1.31445 -0.869486 0
M  V30 3184 C 286.223 -1.15731 -1.96444 0
M  V30 3185 C 287.207 -0.0681855 -1.60755 0
M  V30 3186 O 288.399 -0.293154 -1.74555 0
M  V30 3187 C 285.528 -0.867255 -3.32165 0
M  V30 3188 C 284.614 -1.99738 -3.74119 0
M  V30 3189 N 285.005 -3.24447 -3.88031 0
M  V30 3190 C 283.303 -1.89723 -4.03635 0
M  V30 3191 C 284.004 -3.98374 -4.23879 0
M  V30 3192 N 282.98 -3.26547 -4.3459 0
M  V30 3193 H 286.782 -2.10296 -2.05312 0
M  V30 3194 H 284.296 -1.23009 -1.06031 0
M  V30 3195 H 286.293 -0.735668 -4.10358 0
M  V30 3196 H 284.953 0.0701614 -3.24624 0
M  V30 3197 H 285.964 -3.59557 -3.72746 0
M  V30 3198 H 282.641 -1.03449 -4.04481 0
M  V30 3199 H 284.031 -5.05844 -4.42235 0
M  V30 3200 N 286.751 1.08385 -1.14413 0
M  V30 3201 C 288.167 1.32844 -0.884563 0
M  V30 3202 C 288.367 1.95841 0.474181 0
M  V30 3203 O 287.423 2.21158 1.21842 0
M  V30 3204 C 288.736 2.22978 -2.01745 0
M  V30 3205 C 290.284 2.36458 -2.05077 0
M  V30 3206 C 290.759 3.29934 -3.1766 0
M  V30 3207 N 292.25 3.37511 -3.17239 0
M  V30 3208 C 292.985 4.09871 -4.0099 0
M  V30 3209 N 292.481 4.84936 -4.94781 0
M  V30 3210 N 294.274 4.05704 -3.89051 0
M  V30 3211 H 286.425 0.658756 -2.01926 0
M  V30 3212 H 288.688 0.352821 -0.879899 0
M  V30 3213 H 288.394 1.83934 -2.99769 0
M  V30 3214 H 288.268 3.23441 -1.94077 0
M  V30 3215 H 290.655 2.7476 -1.0766 0
M  V30 3216 H 290.736 1.35736 -2.16816 0
M  V30 3217 H 290.38 2.92352 -4.15322 0
M  V30 3218 H 290.31 4.30584 -3.03158 0
M  V30 3219 H 292.801 2.83996 -2.49308 0
M  V30 3220 H 293.114 5.37612 -5.55151 0
M  V30 3221 H 291.459 4.83988 -4.98779 0
M  V30 3222 H 294.65 3.46167 -3.15097 0
M  V30 3223 H 294.823 4.61834 -4.54547 0
M  V30 3224 N 288.23 0.939286 1.26551 0
M  V30 3225 C 289.479 0.581601 1.93133 0
M  V30 3226 C 289.792 -0.883224 1.74524 0
M  V30 3227 O 290.998 -1.3502 2.35546 0
M  V30 3228 C 289.454 0.989425 3.46032 0
M  V30 3229 C 289.062 2.47573 3.73379 0
M  V30 3230 C 290.806 0.703544 4.18629 0
M  V30 3231 C 288.713 2.82235 5.19709 0
M  V30 3232 H 287.643 0.213803 0.723052 0
M  V30 3233 H 290.294 1.14167 1.4366 0
M  V30 3234 H 288.676 0.357902 3.94379 0
M  V30 3235 H 289.85 3.15614 3.35744 0
M  V30 3236 H 288.165 2.73471 3.1401 0
M  V30 3237 H 290.762 0.938869 5.26393 0
M  V30 3238 H 291.105 -0.359639 4.14744 0
M  V30 3239 H 291.638 1.2947 3.76141 0
M  V30 3240 H 288.377 3.87509 5.28694 0
M  V30 3241 H 287.897 2.18854 5.58447 0
M  V30 3242 H 289.576 2.70599 5.87695 0
M  V30 3243 N 289.708 -1.40897 0.706093 0
M  V30 3244 C 290.957 -2.00284 0.238574 0
M  V30 3245 C 291.27 -1.56604 -1.17194 0
M  V30 3246 O 292.476 -2.08624 -1.73748 0
M  V30 3247 C 290.932 -3.57934 0.375623 0
M  V30 3248 C 290.54 -4.10591 1.79217 0
M  V30 3249 C 292.284 -4.24488 -0.0315857 0
M  V30 3250 C 290.191 -5.60712 1.88032 0
M  V30 3251 H 289.121 -0.749144 0.0854398 0
M  V30 3252 H 291.772 -1.61251 0.875813 0
M  V30 3253 H 290.154 -3.94622 -0.330042 0
M  V30 3254 H 291.328 -3.85301 2.52745 0
M  V30 3255 H 289.643 -3.56601 2.15 0
M  V30 3256 H 292.24 -5.34698 0.0136842 0
M  V30 3257 H 292.583 -4.02261 -1.072 0
M  V30 3258 H 293.116 -3.92873 0.624181 0
M  V30 3259 H 289.855 -5.87781 2.90161 0
M  V30 3260 H 289.375 -5.87896 1.18903 0
M  V30 3261 H 291.054 -6.25658 1.64805 0
M  V30 3262 N 291.186 -0.45159 -1.50991 0
M  V30 3263 C 292.434 0.109857 -2.01801 0
M  V30 3264 C 292.755 1.41958 -1.3369 0
M  V30 3265 O 292.025 1.9003 -0.475951 0
M  V30 3266 H 290.605 0.0435884 -0.745727 0
M  V30 3267 H 293.267 -0.597557 -1.85514 0
M  V30 3268 H 292.363 0.275489 -3.10882 0
M  V30 3269 N 292.664 1.56529 -0.183458 0
M  V30 3270 C 294.08 1.58664 0.172554 0
M  V30 3271 C 294.28 1.19925 1.61926 0
M  V30 3272 O 293.336 0.916534 2.35278 0
M  V30 3273 C 294.649 3.00463 -0.119262 0
M  V30 3274 C 296.197 3.12945 -0.0584396 0
M  V30 3275 C 296.672 4.56857 -0.323408 0
M  V30 3276 N 298.163 4.62403 -0.271612 0
M  V30 3277 C 298.898 5.71626 -0.450639 0
M  V30 3278 N 298.394 6.89362 -0.689384 0
M  V30 3279 N 300.187 5.60775 -0.385701 0
M  V30 3280 H 292.338 1.79994 -1.12765 0
M  V30 3281 H 294.601 0.834808 -0.449222 0
M  V30 3282 H 294.307 3.33326 -1.12192 0
M  V30 3283 H 294.181 3.72659 0.583544 0
M  V30 3284 H 296.568 2.79902 0.934805 0
M  V30 3285 H 296.649 2.4316 -0.794144 0
M  V30 3286 H 296.293 4.9061 -1.31392 0
M  V30 3287 H 296.223 5.24816 0.43305 0
M  V30 3288 H 298.714 3.77785 -0.0932256 0
M  V30 3289 H 299.027 7.68489 -0.815113 0
M  V30 3290 H 297.372 6.91196 -0.726142 0
M  V30 3291 H 300.563 4.67674 -0.199687 0
M  V30 3292 H 300.736 6.4584 -0.528646 0
M  V30 3293 N 294.142 -0.090211 1.57342 0
M  V30 3294 C 295.39 -0.791241 1.85967 0
M  V30 3295 C 295.711 -1.7903 0.772859 0
M  V30 3296 O 294.981 -1.94872 -0.200398 0
M  V30 3297 H 293.561 -0.295205 0.686195 0
M  V30 3298 H 296.223 -0.0706782 1.94772 0
M  V30 3299 H 295.319 -1.31882 2.82867 0
M  V30 3300 N 295.62 -1.53406 -0.361157 0
M  V30 3301 C 296.868 -1.69467 -1.10115 0
M  V30 3302 C 297.189 -0.451352 -1.89705 0
M  V30 3303 O 296.459 0.534636 -1.88463 0
M  V30 3304 H 295.039 -0.624749 -0.409508 0
M  V30 3305 H 297.701 -1.90609 -0.406699 0
M  V30 3306 H 296.797 -2.55774 -1.78847 0
M  V30 3307 N 297.098 0.621204 -1.44841 0
M  V30 3308 C 298.345 1.38055 -1.48145 0
M  V30 3309 C 298.673 1.94143 -0.117867 0
M  V30 3310 O 297.928 1.74713 0.881694 0
M  V30 3311 C 298.227 2.55675 -2.4973 0
M  V30 3312 C 297.893 2.17817 -3.94799 0
M  V30 3313 C 296.555 2.07205 -4.34303 0
M  V30 3314 C 298.907 1.88065 -4.86087 0
M  V30 3315 C 296.235 1.65045 -5.63007 0
M  V30 3316 C 298.587 1.47394 -6.15189 0
M  V30 3317 C 297.251 1.35331 -6.53637 0
M  V30 3318 H 296.521 0.505181 -0.542101 0
M  V30 3319 H 299.168 0.703477 -1.78111 0
M  V30 3320 H 297.473 3.2866 -2.13284 0
M  V30 3321 H 299.17 3.13904 -2.4953 0
M  V30 3322 H 295.76 2.26998 -3.63552 0
M  V30 3323 H 299.944 1.95168 -4.56315 0
M  V30 3324 H 295.2 1.54317 -5.91605 0
M  V30 3325 H 299.374 1.23415 -6.85377 0
M  V30 3326 H 297.001 1.02435 -7.53267 0
M  V30 3327 N 298.576 1.31904 0.862503 0
M  V30 3328 C 299.824 1.21776 1.61292 0
M  V30 3329 C 300.145 -0.222413 1.93727 0
M  V30 3330 O 299.415 -1.1451 1.58947 0
M  V30 3331 H 297.995 0.447717 0.597962 0
M  V30 3332 H 300.657 1.65326 1.03215 0
M  V30 3333 H 299.753 1.7948 2.5533 0
M  V30 3334 N 300.054 -1.07777 1.14986 0
M  V30 3335 C 300.964 -2.18404 0.856546 0
M  V30 3336 C 301.98 -1.73211 -0.165485 0
M  V30 3337 O 303.156 -2.01399 0.00755219 0
M  V30 3338 C 300.221 -3.44977 0.34526 0
M  V30 3339 C 299.282 -4.0476 1.43065 0
M  V30 3340 C 298.515 -5.25291 0.943663 0
M  V30 3341 O 298.738 -5.70004 -0.212426 0
M  V30 3342 O 297.672 -5.76638 1.72547 0
M  V30 3343 H 301.498 -2.45978 1.78125 0
M  V30 3344 H 299.083 -1.17033 0.928631 0
M  V30 3345 H 300.965 -4.21348 0.0663671 0
M  V30 3346 H 299.64 -3.18965 -0.551631 0
M  V30 3347 H 298.547 -3.29949 1.76309 0
M  V30 3348 H 299.88 -4.35035 2.30229 0
M  V30 3349 N 301.532 -0.945985 -1.26051 0
M  V30 3350 C 302.778 -0.597002 -1.93814 0
M  V30 3351 C 303.111 0.862484 -1.73997 0
M  V30 3352 O 302.386 1.61769 -1.07986 0
M  V30 3353 C 302.669 -0.945937 -3.47454 0
M  V30 3354 C 302.522 -2.46052 -3.76535 0
M  V30 3355 C 303.841 -0.464785 -4.37639 0
M  V30 3356 H 300.96 -0.218366 -0.703907 0
M  V30 3357 H 303.602 -1.18107 -1.48831 0
M  V30 3358 H 301.752 -0.448902 -3.85898 0
M  V30 3359 H 303.424 -3.03065 -3.47778 0
M  V30 3360 H 301.667 -2.90194 -3.22444 0
M  V30 3361 H 302.338 -2.65517 -4.83947 0
M  V30 3362 H 304.814 -0.891016 -4.06448 0
M  V30 3363 H 303.69 -0.737712 -5.4392 0
M  V30 3364 H 303.951 0.635274 -4.37512 0
M  V30 3365 N 303.011 1.40521 -0.713556 0
M  V30 3366 C 304.241 2.0494 -0.261395 0
M  V30 3367 C 304.649 1.53861 1.10107 0
M  V30 3368 O 303.992 0.689321 1.70276 0
M  V30 3369 C 304.054 3.59138 -0.161227 0
M  V30 3370 C 303.718 4.33096 -1.45865 0
M  V30 3371 C 304.715 4.61182 -2.40016 0
M  V30 3372 C 302.4 4.72043 -1.71701 0
M  V30 3373 C 304.394 5.27196 -3.58251 0
M  V30 3374 C 302.081 5.37789 -2.90218 0
M  V30 3375 C 303.079 5.65295 -3.83315 0
M  V30 3376 O 302.767 6.29683 -4.99754 0
M  V30 3377 H 302.499 0.666041 -0.115608 0
M  V30 3378 H 305.053 1.80954 -0.971849 0
M  V30 3379 H 303.283 3.81936 0.605153 0
M  V30 3380 H 304.972 4.05091 0.256105 0
M  V30 3381 H 305.738 4.31559 -2.21318 0
M  V30 3382 H 301.617 4.50003 -1.00092 0
M  V30 3383 H 305.161 5.48582 -4.30934 0
M  V30 3384 H 301.058 5.66831 -3.08825 0
M  V30 3385 H 301.826 6.4818 -4.99805 0
M  V30 3386 N 304.489 0.459591 1.5075 0
M  V30 3387 C 305.737 -0.0991532 2.01857 0
M  V30 3388 C 306.058 -1.41247 1.34441 0
M  V30 3389 O 305.328 -1.89775 0.486022 0
M  V30 3390 H 303.908 -0.039633 0.745948 0
M  V30 3391 H 306.57 0.607387 1.85194 0
M  V30 3392 H 305.666 -0.258998 3.11023 0
M  V30 3393 N 305.967 -1.56429 0.191757 0
M  V30 3394 C 307.207 -1.99383 -0.450099 0
M  V30 3395 C 307.571 -1.07581 -1.59029 0
M  V30 3396 O 308.772 -1.39758 -2.29611 0
M  V30 3397 C 307.043 -3.45841 -0.901611 0
M  V30 3398 S 308.602 -4.10822 -1.54177 0
M  V30 3399 H 305.42 -0.696253 -0.144057 0
M  V30 3400 H 308.022 -1.93276 0.294036 0
M  V30 3401 H 306.726 -4.10354 -0.0616596 0
M  V30 3402 H 306.257 -3.55757 -1.67929 0
M  V30 3403 H 308.272 -4.07553 -2.83046 0
M  V30 3404 N 307.445 0.0818655 -1.57387 0
M  V30 3405 C 308.861 0.436412 -1.53517 0
M  V30 3406 C 309.061 1.79758 -0.910459 0
M  V30 3407 O 308.117 2.47324 -0.508636 0
M  V30 3408 C 309.43 0.386734 -2.98203 0
M  V30 3409 C 310.978 0.467644 -3.09487 0
M  V30 3410 C 311.453 0.447978 -4.55804 0
M  V30 3411 N 312.944 0.508348 -4.60402 0
M  V30 3412 C 313.679 0.515184 -5.71081 0
M  V30 3413 N 313.175 0.477435 -6.91153 0
M  V30 3414 N 314.968 0.560988 -5.59294 0
M  V30 3415 H 307.119 -0.809546 -1.96367 0
M  V30 3416 H 309.382 -0.302733 -0.898363 0
M  V30 3417 H 309.088 -0.546539 -3.47427 0
M  V30 3418 H 308.962 1.20075 -3.57578 0
M  V30 3419 H 311.349 1.39134 -2.60242 0
M  V30 3420 H 311.43 -0.374753 -2.5304 0
M  V30 3421 H 311.074 -0.471826 -5.05704 0
M  V30 3422 H 311.004 1.30777 -5.10103 0
M  V30 3423 H 313.495 0.54218 -3.7399 0
M  V30 3424 H 313.808 0.486299 -7.71268 0
M  V30 3425 H 312.153 0.444278 -6.93579 0
M  V30 3426 H 315.344 0.5881 -4.64391 0
M  V30 3427 H 315.517 0.562846 -6.45551 0
M  V30 3428 N 308.923 1.53595 0.353017 0
M  V30 3429 C 309.87 1.80919 1.43308 0
M  V30 3430 C 310.84 0.654288 1.5267 0
M  V30 3431 O 312.025 0.897759 1.6836 0
M  V30 3432 C 309.165 2.01605 2.80089 0
M  V30 3433 C 308.278 3.29321 2.79593 0
M  V30 3434 C 307.413 3.40125 4.0803 0
M  V30 3435 C 306.452 4.61826 4.01725 0
M  V30 3436 N 305.589 4.69716 5.21834 0
M  V30 3437 H 310.429 2.73074 1.19308 0
M  V30 3438 H 307.966 1.35263 0.578131 0
M  V30 3439 H 309.924 2.11586 3.59565 0
M  V30 3440 H 308.554 1.12772 3.0246 0
M  V30 3441 H 307.606 3.28229 1.92276 0
M  V30 3442 H 308.918 4.18884 2.70809 0
M  V30 3443 H 308.072 3.49488 4.95927 0
M  V30 3444 H 306.811 2.48601 4.19582 0
M  V30 3445 H 305.816 4.52552 3.12213 0
M  V30 3446 H 307.041 5.54705 3.91764 0
M  V30 3447 H 304.987 3.81097 5.33948 0
M  V30 3448 H 304.904 5.53202 5.1527 0
M  V30 3449 H 306.172 4.83376 6.11529 0
M  V30 3450 N 310.401 -0.613514 1.45168 0
M  V30 3451 C 311.364 -1.7065 1.53007 0
M  V30 3452 C 312.364 -1.5548 0.410184 0
M  V30 3453 O 313.554 -1.60656 0.673455 0
M  V30 3454 C 310.686 -3.09875 1.42093 0
M  V30 3455 H 311.879 -1.65068 2.50385 0
M  V30 3456 H 309.432 -0.828728 1.32521 0
M  V30 3457 H 310.167 -3.21039 0.458769 0
M  V30 3458 H 309.952 -3.22293 2.23315 0
M  V30 3459 H 311.442 -3.895 1.50598 0
M  V30 3460 N 311.879 -1.3236 -0.855495 0
M  V30 3461 C 313.156 -1.13491 -1.59309 0
M  V30 3462 C 313.536 0.30503 -2.08885 0
M  V30 3463 O 312.884 1.30151 -1.87811 0
M  V30 3464 C 313.094 -2.16176 -2.73987 0
M  V30 3465 C 314.442 -2.49463 -3.43589 0
M  V30 3466 O 315.466 -2.14715 -2.84211 0
M  V30 3467 O 314.325 -3.09027 -4.50738 0
M  V30 3468 H 311.419 -0.437887 -0.701559 0
M  V30 3469 H 313.965 -1.43887 -0.899696 0
M  V30 3470 H 312.737 -3.1297 -2.34873 0
M  V30 3471 H 312.36 -1.86769 -3.51003 0
M  V30 3472 N 313.357 1.07166 -1.15556 0
M  V30 3473 C 314.585 1.83514 -0.955519 0
M  V30 3474 C 315 1.82163 0.49621 0
M  V30 3475 O 314.357 1.23441 1.34419 0
M  V30 3476 C 314.408 3.30515 -1.46432 0
M  V30 3477 O 314.129 3.31937 -2.85918 0
M  V30 3478 C 315.63 4.23625 -1.30603 0
M  V30 3479 H 312.85 0.578926 -0.339244 0
M  V30 3480 H 315.394 1.35265 -1.53374 0
M  V30 3481 H 313.549 3.76106 -0.928584 0
M  V30 3482 H 313.963 4.23794 -3.09029 0
M  V30 3483 H 315.437 5.24831 -1.71047 0
M  V30 3484 H 315.914 4.38485 -0.250441 0
M  V30 3485 H 316.52 3.83871 -1.83094 0
M  V30 3486 N 314.835 0.952656 1.25548 0
M  V30 3487 C 316.083 0.605176 1.92826 0
M  V30 3488 C 316.404 -0.860261 1.74999 0
M  V30 3489 O 315.674 -1.6125 1.11244 0
M  V30 3490 H 314.254 0.220832 0.713612 0
M  V30 3491 H 316.916 1.21047 1.52754 0
M  V30 3492 H 316.012 0.832798 3.00784 0
M  V30 3493 N 316.313 -1.40141 0.720998 0
M  V30 3494 C 317.26 -2.30688 0.071919 0
M  V30 3495 C 318.23 -1.48476 -0.744584 0
M  V30 3496 O 319.415 -1.77201 -0.707423 0
M  V30 3497 C 316.555 -3.34724 -0.839855 0
M  V30 3498 C 315.668 -4.31998 -0.0122438 0
M  V30 3499 C 314.803 -5.23102 -0.923995 0
M  V30 3500 C 313.842 -6.12033 -0.0907969 0
M  V30 3501 N 312.979 -6.95537 -0.957718 0
M  V30 3502 H 317.819 -2.85628 0.849755 0
M  V30 3503 H 315.356 -1.40653 0.430726 0
M  V30 3504 H 317.314 -3.93618 -1.38279 0
M  V30 3505 H 315.944 -2.81274 -1.58381 0
M  V30 3506 H 314.996 -3.74841 0.64794 0
M  V30 3507 H 316.308 -4.94772 0.632595 0
M  V30 3508 H 315.462 -5.86953 -1.53527 0
M  V30 3509 H 314.201 -4.60615 -1.60264 0
M  V30 3510 H 313.206 -5.47207 0.533377 0
M  V30 3511 H 314.431 -6.76581 0.584428 0
M  V30 3512 H 312.377 -6.35633 -1.62192 0
M  V30 3513 H 312.294 -7.55099 -0.36904 0
M  V30 3514 H 313.562 -7.63832 -1.555 0
M  V30 3515 N 317.792 -0.46758 -1.50504 0
M  V30 3516 C 318.725 0.374324 -2.25109 0
M  V30 3517 C 319.703 0.99921 -1.28275 0
M  V30 3518 O 320.887 1.03583 -1.57489 0
M  V30 3519 C 318.014 1.52419 -3.02467 0
M  V30 3520 C 317.06 1.01702 -4.14197 0
M  V30 3521 S 317.893 -0.0654477 -5.3546 0
M  V30 3522 C 319.049 1.08837 -6.16365 0
M  V30 3523 H 319.282 -0.258983 -2.9617 0
M  V30 3524 H 316.815 -0.252421 -1.52323 0
M  V30 3525 H 318.773 2.18322 -3.47628 0
M  V30 3526 H 317.434 2.129 -2.30938 0
M  V30 3527 H 316.627 1.87776 -4.67714 0
M  V30 3528 H 316.229 0.435757 -3.71453 0
M  V30 3529 H 318.521 2.00071 -6.47285 0
M  V30 3530 H 319.464 0.592538 -7.05616 0
M  V30 3531 H 319.872 1.34061 -5.4835 0
M  V30 3532 N 319.27 1.56325 -0.20005 0
M  V30 3533 C 320.5 2.01811 0.442232 0
M  V30 3534 C 320.908 1.07932 1.55394 0
M  V30 3535 O 320.251 0.0772685 1.83537 0
M  V30 3536 C 320.313 3.43685 1.05457 0
M  V30 3537 C 319.977 4.56928 0.0809833 0
M  V30 3538 C 320.974 5.15009 -0.711471 0
M  V30 3539 C 318.659 5.0229 -0.0315364 0
M  V30 3540 C 320.653 6.16904 -1.60336 0
M  V30 3541 C 318.34 6.04028 -0.926981 0
M  V30 3542 C 319.338 6.6121 -1.71146 0
M  V30 3543 O 319.026 7.60971 -2.59189 0
M  V30 3544 H 318.758 0.666173 0.114848 0
M  V30 3545 H 321.312 2.03085 -0.307511 0
M  V30 3546 H 319.542 3.39413 1.85299 0
M  V30 3547 H 321.231 3.72948 1.60201 0
M  V30 3548 H 321.997 4.80827 -0.634873 0
M  V30 3549 H 317.876 4.57476 0.568902 0
M  V30 3550 H 321.42 6.61464 -2.21611 0
M  V30 3551 H 317.317 6.37634 -1.00468 0
M  V30 3552 H 318.085 7.7841 -2.53023 0
M  V30 3553 N 320.748 -0.0735177 1.57428 0
M  V30 3554 C 321.711 -1.07192 2.02589 0
M  V30 3555 C 322.711 -1.31695 0.922661 0
M  V30 3556 O 323.901 -1.27445 1.18758 0
M  V30 3557 C 321.033 -2.41599 2.40506 0
M  V30 3558 H 322.226 -0.682727 2.92025 0
M  V30 3559 H 319.779 -0.319193 1.53006 0
M  V30 3560 H 320.514 -2.85354 1.5409 0
M  V30 3561 H 320.299 -2.25156 3.21009 0
M  V30 3562 H 321.789 -3.13367 2.76027 0
M  V30 3563 N 322.226 -1.5378 -0.344866 0
M  V30 3564 C 323.159 -1.7649 -1.4466 0
M  V30 3565 C 324.137 -0.613954 -1.50563 0
M  V30 3566 O 325.321 -0.84896 -1.683 0
M  V30 3567 C 322.448 -1.86235 -2.82903 0
M  V30 3568 C 321.494 -3.08375 -2.94631 0
M  V30 3569 S 322.327 -4.67457 -2.61236 0
M  V30 3570 C 323.483 -4.80079 -4.0159 0
M  V30 3571 H 323.716 -2.69661 -1.2518 0
M  V30 3572 H 321.249 -1.44632 -0.540455 0
M  V30 3573 H 323.207 -1.92535 -3.62547 0
M  V30 3574 H 321.868 -0.940786 -2.9968 0
M  V30 3575 H 321.061 -3.11865 -3.95925 0
M  V30 3576 H 320.663 -3.00294 -2.22934 0
M  V30 3577 H 322.955 -4.61407 -4.96094 0
M  V30 3578 H 323.898 -5.82168 -4.03095 0
M  V30 3579 H 324.306 -4.08544 -3.89554 0
M  V30 3580 N 323.704 0.605807 -1.45491 0
M  V30 3581 C 324.651 1.7164 -1.54299 0
M  V30 3582 C 325.621 1.61486 -0.388761 0
M  V30 3583 O 326.806 1.81039 -0.602445 0
M  V30 3584 C 323.946 3.09953 -1.51734 0
M  V30 3585 C 323.059 3.309 -2.77721 0
M  V30 3586 C 322.194 4.59329 -2.66816 0
M  V30 3587 C 321.233 4.7354 -3.87848 0
M  V30 3588 N 320.37 5.9327 -3.75467 0
M  V30 3589 H 325.21 1.63449 -2.49176 0
M  V30 3590 H 322.747 0.796957 -1.23641 0
M  V30 3591 H 324.705 3.89977 -1.48235 0
M  V30 3592 H 323.335 3.17098 -0.604068 0
M  V30 3593 H 322.387 2.44639 -2.913 0
M  V30 3594 H 323.699 3.37274 -3.67488 0
M  V30 3595 H 322.853 5.4755 -2.61292 0
M  V30 3596 H 321.592 4.55355 -1.74651 0
M  V30 3597 H 320.597 3.83741 -3.93729 0
M  V30 3598 H 321.822 4.79309 -4.81082 0
M  V30 3599 H 319.768 5.90338 -2.86072 0
M  V30 3600 H 319.685 6.00811 -4.5887 0
M  V30 3601 H 320.953 6.83984 -3.73879 0
M  V30 3602 N 325.182 1.32811 0.848464 0
M  V30 3603 C 326.422 1.25046 1.61687 0
M  V30 3604 C 326.786 -0.183464 1.91121 0
M  V30 3605 O 327.987 -0.384937 2.66029 0
M  V30 3606 C 326.258 2.09201 2.89775 0
M  V30 3607 S 327.817 2.18526 3.80515 0
M  V30 3608 H 324.635 0.445023 0.554505 0
M  V30 3609 H 327.237 1.67733 1.00429 0
M  V30 3610 H 325.941 3.12433 2.66108 0
M  V30 3611 H 325.472 1.67315 3.56047 0
M  V30 3612 H 327.487 1.3393 4.77784 0
M  V30 3613 N 326.66 -1.06551 1.16123 0
M  V30 3614 C 327.59 -2.15935 0.88851 0
M  V30 3615 C 328.571 -1.69306 -0.164135 0
M  V30 3616 O 329.756 -1.94193 -0.0167857 0
M  V30 3617 C 326.886 -3.45149 0.385942 0
M  V30 3618 C 325.84 -4.05271 1.3762 0
M  V30 3619 C 325.166 -5.29664 0.732137 0
M  V30 3620 C 326.466 -4.44355 2.74493 0
M  V30 3621 H 328.16 -2.39006 1.80323 0
M  V30 3622 H 325.706 -1.14866 0.868435 0
M  V30 3623 H 327.659 -4.21004 0.182647 0
M  V30 3624 H 326.383 -3.21689 -0.564274 0
M  V30 3625 H 325.042 -3.3147 1.56599 0
M  V30 3626 H 324.69 -5.02499 -0.224483 0
M  V30 3627 H 324.39 -5.70848 1.39307 0
M  V30 3628 H 325.914 -6.08218 0.538802 0
M  V30 3629 H 327.328 -5.11303 2.59311 0
M  V30 3630 H 325.725 -4.96515 3.37035 0
M  V30 3631 H 326.795 -3.55339 3.29943 0
M  V30 3632 N 328.138 -0.959301 -1.25041 0
M  V30 3633 C 329.415 -0.533805 -1.88175 0
M  V30 3634 C 329.795 0.988994 -1.865 0
M  V30 3635 O 329.143 1.85677 -1.33177 0
M  V30 3636 C 329.353 -1.11575 -3.30684 0
M  V30 3637 C 330.701 -1.19548 -4.07423 0
M  V30 3638 O 331.725 -1.06765 -3.39823 0
M  V30 3639 O 330.584 -1.39656 -5.28354 0
M  V30 3640 H 327.678 -0.176772 -0.807887 0
M  V30 3641 H 330.224 -1.05303 -1.33076 0
M  V30 3642 H 328.996 -2.15884 -3.26358 0
M  V30 3643 H 328.619 -0.580059 -3.93346 0
M  V30 3644 N 329.616 1.39756 -0.72842 0
M  V30 3645 C 330.563 2.30647 -0.0841519 0
M  V30 3646 C 331.533 1.48869 0.7367 0
M  V30 3647 O 332.718 1.77574 0.698015 0
M  V30 3648 C 329.858 3.35165 0.822091 0
M  V30 3649 C 328.971 4.31999 -0.0106663 0
M  V30 3650 C 328.106 5.23585 0.896241 0
M  V30 3651 C 327.145 6.12072 0.0583381 0
M  V30 3652 N 326.282 6.96035 0.920818 0
M  V30 3653 H 331.122 2.85173 -0.864891 0
M  V30 3654 H 328.659 1.40422 -0.438179 0
M  V30 3655 H 330.617 3.94345 1.36189 0
M  V30 3656 H 329.247 2.8211 1.56888 0
M  V30 3657 H 328.299 3.74492 -0.66781 0
M  V30 3658 H 329.611 4.9443 -0.658825 0
M  V30 3659 H 328.765 5.87759 1.50412 0
M  V30 3660 H 327.504 4.61459 1.57819 0
M  V30 3661 H 326.509 5.46916 -0.562389 0
M  V30 3662 H 327.734 6.76261 -0.6203 0
M  V30 3663 H 325.68 6.36485 1.58818 0
M  V30 3664 H 325.597 7.55284 0.32899 0
M  V30 3665 H 326.865 7.64646 1.51447 0
M  V30 3666 N 331.094 0.475555 1.50254 0
M  V30 3667 C 332.041 -0.316293 2.28622 0
M  V30 3668 C 333.011 -0.983227 1.33873 0
M  V30 3669 O 334.196 -0.994805 1.62814 0
M  V30 3670 C 331.336 -1.38975 3.1588 0
M  V30 3671 C 330.449 -0.737146 4.25664 0
M  V30 3672 C 329.584 -1.78887 5.00173 0
M  V30 3673 C 328.623 -1.11676 6.01826 0
M  V30 3674 N 327.76 -2.11154 6.69596 0
M  V30 3675 H 332.6 0.358297 2.95838 0
M  V30 3676 H 330.137 0.188541 1.45887 0
M  V30 3677 H 332.095 -2.02383 3.64825 0
M  V30 3678 H 330.725 -2.03344 2.50701 0
M  V30 3679 H 329.777 0.0096065 3.80399 0
M  V30 3680 H 331.089 -0.206816 4.98371 0
M  V30 3681 H 330.243 -2.49865 5.52859 0
M  V30 3682 H 328.982 -2.35302 4.27182 0
M  V30 3683 H 327.987 -0.392633 5.48396 0
M  V30 3684 H 329.212 -0.55945 6.76792 0
M  V30 3685 H 327.158 -2.66577 5.99394 0
M  V30 3686 H 327.075 -1.63118 7.38193 0
M  V30 3687 H 328.343 -2.81497 7.26897 0
M  V30 3688 N 332.573 -1.56217 0.208337 0
M  V30 3689 C 333.989 -1.58919 -0.14729 0
M  V30 3690 C 334.189 -1.22486 -1.59998 0
M  V30 3691 O 333.245 -0.953849 -2.3379 0
M  V30 3692 C 334.558 -3.00236 0.167048 0
M  V30 3693 C 336.106 -3.12813 0.108219 0
M  V30 3694 C 336.581 -4.56284 0.396049 0
M  V30 3695 N 338.072 -4.61912 0.345142 0
M  V30 3696 C 338.807 -5.70837 0.541523 0
M  V30 3697 N 338.303 -6.88178 0.798968 0
M  V30 3698 N 340.096 -5.60091 0.474867 0
M  V30 3699 H 332.247 -1.78177 1.15614 0
M  V30 3700 H 334.51 -0.827555 0.462446 0
M  V30 3701 H 334.216 -3.31499 1.1748 0
M  V30 3702 H 334.09 -3.7354 -0.524184 0
M  V30 3703 H 336.477 -2.81354 -0.890157 0
M  V30 3704 H 336.558 -2.41866 0.832729 0
M  V30 3705 H 336.202 -4.88458 1.3918 0
M  V30 3706 H 336.132 -5.25439 -0.349502 0
M  V30 3707 H 338.623 -3.77589 0.153316 0
M  V30 3708 H 338.936 -7.67095 0.93727 0
M  V30 3709 H 337.281 -6.89953 0.836013 0
M  V30 3710 H 340.472 -4.67297 0.274064 0
M  V30 3711 H 340.645 -6.44917 0.631326 0
M  V30 3712 N 334.051 0.0651679 -1.57465 0
M  V30 3713 C 335.3 0.761916 -1.86756 0
M  V30 3714 C 335.613 1.78406 -0.801925 0
M  V30 3715 O 336.819 2.53084 -0.982885 0
M  V30 3716 C 335.275 1.40603 -3.31299 0
M  V30 3717 C 334.883 0.422115 -4.46007 0
M  V30 3718 C 336.627 2.08476 -3.69781 0
M  V30 3719 C 334.534 1.07252 -5.81593 0
M  V30 3720 H 333.464 0.288308 -0.696702 0
M  V30 3721 H 336.115 0.015344 -1.83494 0
M  V30 3722 H 334.497 2.20109 -3.29193 0
M  V30 3723 H 335.671 -0.343613 -4.59517 0
M  V30 3724 H 333.986 -0.152527 -4.16121 0
M  V30 3725 H 336.583 2.57925 -4.68379 0
M  V30 3726 H 336.926 2.88712 -2.99919 0
M  V30 3727 H 337.459 1.35792 -3.73905 0
M  V30 3728 H 334.198 0.310342 -6.54765 0
M  V30 3729 H 333.718 1.80895 -5.71872 0
M  V30 3730 H 335.397 1.59043 -6.27148 0
M  V30 3731 N 335.529 1.53961 0.336706 0
M  V30 3732 C 336.476 1.82428 1.41381 0
M  V30 3733 C 337.446 0.670444 1.51968 0
M  V30 3734 O 338.631 0.915565 1.67398 0
M  V30 3735 C 335.771 2.04564 2.77934 0
M  V30 3736 C 334.884 3.32267 2.76084 0
M  V30 3737 C 334.019 3.44434 4.04399 0
M  V30 3738 C 333.058 4.66061 3.96804 0
M  V30 3739 N 332.195 4.75224 5.16823 0
M  V30 3740 H 337.035 2.74324 1.16405 0
M  V30 3741 H 334.572 1.35869 0.563752 0
M  V30 3742 H 336.53 2.15388 3.57301 0
M  V30 3743 H 335.16 1.15974 3.01247 0
M  V30 3744 H 334.212 3.3025 1.88784 0
M  V30 3745 H 335.524 4.21733 2.66351 0
M  V30 3746 H 334.678 3.54728 4.92192 0
M  V30 3747 H 333.417 2.53037 4.16921 0
M  V30 3748 H 332.422 4.55838 3.07396 0
M  V30 3749 H 333.647 5.58829 3.85858 0
M  V30 3750 H 331.593 3.86739 5.29876 0
M  V30 3751 H 331.51 5.58636 5.09374 0
M  V30 3752 H 332.778 4.89835 6.06367 0
M  V30 3753 N 337.007 -0.598083 1.45811 0
M  V30 3754 C 337.94 -1.7223 1.49706 0
M  V30 3755 C 338.918 -1.58732 0.352535 0
M  V30 3756 O 340.102 -1.80162 0.554438 0
M  V30 3757 C 337.229 -3.10148 1.3611 0
M  V30 3758 C 336.275 -3.42209 2.54549 0
M  V30 3759 S 337.108 -3.35989 4.16979 0
M  V30 3760 C 338.264 -4.76471 4.05865 0
M  V30 3761 H 338.497 -1.68665 2.44826 0
M  V30 3762 H 336.03 -0.775541 1.33509 0
M  V30 3763 H 337.988 -3.8972 1.28953 0
M  V30 3764 H 336.649 -3.11219 0.424451 0
M  V30 3765 H 335.842 -4.42652 2.40988 0
M  V30 3766 H 335.444 -2.70173 2.58617 0
M  V30 3767 H 337.736 -5.665 3.71596 0
M  V30 3768 H 338.679 -4.95089 5.06253 0
M  V30 3769 H 339.087 -4.52599 3.37364 0
M  V30 3770 N 338.485 -1.33259 -0.841409 0
M  V30 3771 C 339.432 -1.23302 -1.95103 0
M  V30 3772 C 340.402 -0.112204 -1.65721 0
M  V30 3773 O 341.587 -0.290038 -1.88583 0
M  V30 3774 C 338.727 -0.975583 -3.31023 0
M  V30 3775 C 337.84 -2.18243 -3.72819 0
M  V30 3776 C 336.975 -1.85936 -4.97595 0
M  V30 3777 C 336.014 -3.02866 -5.3192 0
M  V30 3778 N 335.151 -2.70565 -6.47873 0
M  V30 3779 H 339.991 -2.18207 -2.02952 0
M  V30 3780 H 337.528 -1.0851 -0.993173 0
M  V30 3781 H 339.486 -0.80677 -4.09325 0
M  V30 3782 H 338.116 -0.0632755 -3.22738 0
M  V30 3783 H 337.168 -2.46107 -2.90061 0
M  V30 3784 H 338.48 -3.05666 -3.94169 0
M  V30 3785 H 337.634 -1.65684 -5.83638 0
M  V30 3786 H 336.373 -0.957452 -4.78209 0
M  V30 3787 H 335.378 -3.23736 -4.44382 0
M  V30 3788 H 336.603 -3.93809 -5.53255 0
M  V30 3789 H 334.549 -1.8293 -6.29978 0
M  V30 3790 H 334.466 -3.51519 -6.69306 0
M  V30 3791 H 335.734 -2.53774 -7.37034 0
M  V30 3792 N 339.963 1.05934 -1.16686 0
M  V30 3793 C 340.895 2.13468 -0.834503 0
M  V30 3794 C 341.908 1.62013 0.15984 0
M  V30 3795 O 343.097 1.7838 -0.0654228 0
M  V30 3796 C 340.197 3.3817 -0.222361 0
M  V30 3797 C 339.37 4.18928 -1.25771 0
M  V30 3798 C 338.429 5.21985 -0.664703 0
M  V30 3799 O 337.455 5.53334 -1.33453 0
M  V30 3800 N 338.657 5.77919 0.546834 0
M  V30 3801 H 341.422 2.42578 -1.75999 0
M  V30 3802 H 338.983 1.21967 -1.06469 0
M  V30 3803 H 340.975 4.04266 0.187472 0
M  V30 3804 H 339.545 3.06655 0.606758 0
M  V30 3805 H 338.765 3.48433 -1.84358 0
M  V30 3806 H 340.053 4.69687 -1.95631 0
M  V30 3807 H 339.451 5.54721 1.10912 0
M  V30 3808 H 338.008 6.45573 0.898829 0
M  V30 3809 N 341.441 0.965919 1.2453 0
M  V30 3810 C 342.689 0.625593 1.92174 0
M  V30 3811 C 343.01 -0.841652 1.75901 0
M  V30 3812 O 342.28 -1.60061 1.12948 0
M  V30 3813 H 340.86 0.228388 0.71123 0
M  V30 3814 H 343.522 1.2266 1.51461 0
M  V30 3815 H 342.618 0.864653 2.99884 0
M  V30 3816 N 342.919 -1.39368 0.735821 0
M  V30 3817 C 343.829 -2.34395 0.0979693 0
M  V30 3818 C 344.845 -1.58361 -0.720968 0
M  V30 3819 O 346.021 -1.90648 -0.649245 0
M  V30 3820 C 343.086 -3.37393 -0.797916 0
M  V30 3821 C 342.147 -4.29287 0.0333662 0
M  V30 3822 C 341.38 -5.27365 -0.819854 0
M  V30 3823 O 341.603 -5.31959 -2.05855 0
M  V30 3824 O 340.537 -6.01389 -0.248079 0
M  V30 3825 H 344.363 -2.90601 0.882315 0
M  V30 3826 H 341.948 -1.40909 0.4965 0
M  V30 3827 H 343.83 -4.00505 -1.31048 0
M  V30 3828 H 342.505 -2.83571 -1.56106 0
M  V30 3829 H 341.412 -3.69395 0.591475 0
M  V30 3830 H 342.745 -4.86317 0.758752 0
M  V30 3831 N 344.397 -0.483516 -1.5 0
M  V30 3832 C 345.625 0.0644831 -2.06799 0
M  V30 3833 C 346.04 1.32399 -1.34596 0
M  V30 3834 O 345.397 1.77626 -0.418946 0
M  V30 3835 C 345.448 0.339927 -3.59898 0
M  V30 3836 O 345.169 -0.869635 -4.29382 0
M  V30 3837 C 346.67 0.933515 -4.33359 0
M  V30 3838 H 343.89 -0.0126333 -0.670881 0
M  V30 3839 H 346.434 -0.675864 -1.93009 0
M  V30 3840 H 344.589 1.03022 -3.7345 0
M  V30 3841 H 345.003 -0.62179 -5.20801 0
M  V30 3842 H 346.477 1.07593 -5.41413 0
M  V30 3843 H 346.954 1.92685 -3.94676 0
M  V30 3844 H 347.56 0.281221 -4.24369 0
M  V30 3845 N 345.875 1.56104 -0.216619 0
M  V30 3846 C 346.805 2.23063 0.690296 0
M  V30 3847 C 347.786 1.20072 1.20485 0
M  V30 3848 O 348.971 1.48643 1.24976 0
M  V30 3849 C 346.101 2.90672 1.90072 0
M  V30 3850 C 345.055 4.00092 1.5202 0
M  V30 3851 C 344.381 4.54972 2.80899 0
M  V30 3852 C 345.681 5.17398 0.71391 0
M  V30 3853 H 347.375 2.99109 0.132038 0
M  V30 3854 H 344.921 1.43866 0.0620664 0
M  V30 3855 H 346.874 3.36204 2.54057 0
M  V30 3856 H 345.598 2.12066 2.48386 0
M  V30 3857 H 344.257 3.55283 0.903839 0
M  V30 3858 H 343.905 3.73102 3.37348 0
M  V30 3859 H 343.605 5.28817 2.56176 0
M  V30 3860 H 345.129 5.0322 3.45836 0
M  V30 3861 H 346.543 5.59342 1.25735 0
M  V30 3862 H 344.94 5.97444 0.563951 0
M  V30 3863 H 346.01 4.84088 -0.280527 0
M  V30 3864 N 347.353 -0.0568162 1.57498 0
M  V30 3865 C 348.316 -1.05038 2.03715 0
M  V30 3866 C 349.316 -1.30709 0.936577 0
M  V30 3867 O 350.506 -1.26178 1.20103 0
M  V30 3868 C 347.638 -2.39034 2.43055 0
M  V30 3869 H 348.831 -0.651715 2.92733 0
M  V30 3870 H 346.384 -0.302947 1.53336 0
M  V30 3871 H 347.119 -2.83703 1.57108 0
M  V30 3872 H 346.904 -2.21739 3.2338 0
M  V30 3873 H 348.394 -3.10421 2.79336 0
M  V30 3874 N 348.832 -1.54138 -0.328536 0
M  V30 3875 C 349.762 -1.86167 -1.40939 0
M  V30 3876 C 350.743 -0.718044 -1.54202 0
M  V30 3877 O 351.928 -0.971328 -1.68163 0
M  V30 3878 C 349.058 -2.08461 -2.77779 0
M  V30 3879 C 348.012 -3.24299 -2.7931 0
M  V30 3880 C 347.338 -3.31955 -4.19178 0
M  V30 3881 C 348.638 -4.62065 -2.43502 0
M  V30 3882 H 350.332 -2.76689 -1.14383 0
M  V30 3883 H 347.878 -1.33132 -0.548806 0
M  V30 3884 H 349.831 -2.29453 -3.53454 0
M  V30 3885 H 348.555 -1.14684 -3.05802 0
M  V30 3886 H 347.214 -3.03187 -2.0609 0
M  V30 3887 H 346.862 -2.35745 -4.44335 0
M  V30 3888 H 346.562 -4.09805 -4.2111 0
M  V30 3889 H 348.086 -3.55175 -4.96672 0
M  V30 3890 H 349.5 -4.8297 -3.08889 0
M  V30 3891 H 347.897 -5.42429 -2.56693 0
M  V30 3892 H 348.967 -4.64652 -1.38659 0
M  V30 3893 N 350.31 0.590341 -1.46126 0
M  V30 3894 C 351.258 1.72105 -1.5647 0
M  V30 3895 C 352.252 1.63756 -0.433612 0
M  V30 3896 O 353.458 1.69342 -0.610194 0
M  V30 3897 H 349.833 0.568889 -0.491802 0
M  V30 3898 H 351.804 1.6051 -2.51553 0
M  V30 3899 C 350.553 3.10493 -1.56491 0
M  V30 3900 H 349.876 3.17583 -2.4286 0
M  V30 3901 H 351.316 3.8939 -1.67785 0
M  V30 3902 C 349.775 3.3563 -0.292231 0
M  V30 3903 O 350.305 3.96875 0.620739 0
M  V30 3904 N 348.511 2.90026 -0.182523 0
M  V30 3905 H 348.058 2.40367 -0.926356 0
M  V30 3906 H 348.016 3.07218 0.668152 0
M  V30 3907 N 351.788 1.33704 0.83433 0
M  V30 3908 C 352.698 1.26382 1.97648 0
M  V30 3909 C 353.714 0.173548 1.73132 0
M  V30 3910 O 354.89 0.397962 1.97429 0
M  V30 3911 C 351.955 1.00769 3.31733 0
M  V30 3912 C 351.016 2.1884 3.69334 0
M  V30 3913 C 350.249 1.9444 4.9702 0
M  V30 3914 O 350.472 0.896961 5.63303 0
M  V30 3915 O 349.406 2.81093 5.32231 0
M  V30 3916 H 353.232 2.22444 2.06767 0
M  V30 3917 H 350.817 1.13795 0.968037 0
M  V30 3918 H 352.699 0.882186 4.12062 0
M  V30 3919 H 351.374 0.0773783 3.23608 0
M  V30 3920 H 350.281 2.36946 2.89495 0
M  V30 3921 H 351.614 3.10221 3.82131 0
M  V30 3922 N 353.266 -1.05314 1.17247 0
M  V30 3923 C 354.682 -1.30452 0.919473 0
M  V30 3924 C 354.882 -1.9703 -0.42209 0
M  V30 3925 O 353.938 -2.24311 -1.15935 0
M  V30 3926 C 355.251 -2.17551 2.07586 0
M  V30 3927 C 356.799 -2.30937 2.11275 0
M  V30 3928 C 357.274 -3.21396 3.26296 0
M  V30 3929 N 358.765 -3.28981 3.26076 0
M  V30 3930 C 359.5 -3.99095 4.11716 0
M  V30 3931 N 358.996 -4.71648 5.07465 0
M  V30 3932 N 360.789 -3.95247 3.9967 0
M  V30 3933 H 352.94 -0.604988 2.03602 0
M  V30 3934 H 355.203 -0.329368 0.888944 0
M  V30 3935 H 354.909 -1.75921 3.0454 0
M  V30 3936 H 354.783 -3.18182 2.02584 0
M  V30 3937 H 357.17 -2.71809 1.14907 0
M  V30 3938 H 357.251 -1.2994 2.20339 0
M  V30 3939 H 356.895 -2.81238 4.22927 0
M  V30 3940 H 356.825 -4.22395 3.14467 0
M  V30 3941 H 359.316 -2.77286 2.5675 0
M  V30 3942 H 359.629 -5.22705 5.6921 0
M  V30 3943 H 357.974 -4.70594 5.11435 0
M  V30 3944 H 361.165 -3.37691 3.24164 0
M  V30 3945 H 361.338 -4.4962 4.66632 0
M  V30 3946 N 354.744 -0.972509 -1.24016 0
M  V30 3947 C 355.993 -0.632603 -1.91523 0
M  V30 3948 C 356.306 0.836641 -1.76804 0
M  V30 3949 O 357.512 1.28728 -2.39043 0
M  V30 3950 C 355.968 -1.08082 -3.43287 0
M  V30 3951 C 355.576 -2.57386 -3.66683 0
M  V30 3952 C 357.32 -0.814288 -4.16617 0
M  V30 3953 C 355.227 -2.95915 -5.12043 0
M  V30 3954 H 354.157 -0.232898 -0.717129 0
M  V30 3955 H 356.808 -1.17936 -1.40582 0
M  V30 3956 H 355.19 -0.462339 -3.93292 0
M  V30 3957 H 356.364 -3.24405 -3.27258 0
M  V30 3958 H 354.679 -2.81701 -3.06649 0
M  V30 3959 H 357.276 -1.0781 -5.23718 0
M  V30 3960 H 357.619 0.24955 -4.15551 0
M  V30 3961 H 358.152 -1.39397 -3.72577 0
M  V30 3962 H 354.891 -4.0139 -5.18234 0
M  V30 3963 H 354.411 -2.33584 -5.52448 0
M  V30 3964 H 356.09 -2.86086 -5.80314 0
M  V30 3965 N 356.222 1.38976 -0.743202 0
M  V30 3966 C 357.155 2.28128 -0.0572165 0
M  V30 3967 C 358.133 1.44827 0.739182 0
M  V30 3968 O 359.317 1.74207 0.720009 0
M  V30 3969 C 356.444 3.25796 0.926001 0
M  V30 3970 C 355.49 4.25947 0.217099 0
M  V30 3971 S 356.323 5.24604 -1.07477 0
M  V30 3972 C 357.479 6.25829 -0.0943545 0
M  V30 3973 H 357.712 2.85961 -0.813246 0
M  V30 3974 H 355.245 1.44822 -0.535341 0
M  V30 3975 H 357.203 3.82583 1.48797 0
M  V30 3976 H 355.864 2.66966 1.65493 0
M  V30 3977 H 355.057 4.94746 0.961372 0
M  V30 3978 H 354.659 3.73002 -0.273059 0
M  V30 3979 H 356.951 6.73411 0.743239 0
M  V30 3980 H 357.894 7.0412 -0.749713 0
M  V30 3981 H 358.302 5.63797 0.281706 0
M  V30 3982 N 357.7 0.491464 1.49741 0
M  V30 3983 C 358.63 -0.28154 2.31796 0
M  V30 3984 C 359.611 -0.971473 1.3963 0
M  V30 3985 O 360.796 -0.964719 1.68543 0
M  V30 3986 C 357.926 -1.35203 3.19902 0
M  V30 3987 C 356.88 -0.782529 4.20786 0
M  V30 3988 C 356.206 -1.95283 4.97764 0
M  V30 3989 C 357.506 0.21999 5.21837 0
M  V30 3990 H 359.2 0.403355 2.96671 0
M  V30 3991 H 356.746 0.195425 1.42668 0
M  V30 3992 H 358.699 -1.90045 3.76113 0
M  V30 3993 H 357.423 -2.06598 2.52953 0
M  V30 3994 H 356.082 -0.255928 3.65706 0
M  V30 3995 H 355.73 -2.65423 4.2727 0
M  V30 3996 H 355.43 -1.57789 5.66018 0
M  V30 3997 H 356.954 -2.50577 5.56816 0
M  V30 3998 H 358.368 -0.23996 5.72798 0
M  V30 3999 H 356.765 0.51026 5.97927 0
M  V30 4000 H 357.835 1.13911 4.7133 0
M  V30 4001 N 359.178 -1.55987 0.224894 0
M  V30 4002 C 360.403 -2.03232 -0.41369 0
M  V30 4003 C 360.828 -1.10359 -1.52323 0
M  V30 4004 O 360.186 -0.092395 -1.81064 0
M  V30 4005 C 360.234 -3.48682 -0.919405 0
M  V30 4006 O 359.338 -3.58947 -2.03054 0
M  V30 4007 H 358.679 -0.657428 -0.0931903 0
M  V30 4008 H 361.209 -2.01679 0.34451 0
M  V30 4009 H 361.219 -3.8907 -1.22835 0
M  V30 4010 H 359.894 -4.15761 -0.107339 0
M  V30 4011 H 358.471 -3.30448 -1.72796 0
M  V30 4012 N 360.656 0.0484629 -1.57525 0
M  V30 4013 C 361.586 1.0549 -2.08313 0
M  V30 4014 C 362.567 1.38929 -0.981463 0
M  V30 4015 O 363.752 1.48151 -1.25558 0
M  V30 4016 C 360.882 2.36162 -2.54646 0
M  V30 4017 C 359.836 2.17016 -3.68901 0
M  V30 4018 C 359.162 3.53278 -4.01371 0
M  V30 4019 C 360.462 1.57219 -4.98076 0
M  V30 4020 H 362.156 0.632195 -2.92649 0
M  V30 4021 H 359.702 0.302654 -1.40784 0
M  V30 4022 H 361.655 3.06882 -2.88793 0
M  V30 4023 H 360.379 2.80456 -1.67368 0
M  V30 4024 H 359.038 1.48733 -3.35073 0
M  V30 4025 H 358.686 3.95185 -3.11188 0
M  V30 4026 H 358.386 3.41299 -4.78318 0
M  V30 4027 H 359.91 4.25391 -4.38035 0
M  V30 4028 H 361.324 2.17832 -5.30304 0
M  V30 4029 H 359.721 1.55871 -5.79503 0
M  V30 4030 H 360.791 0.535956 -4.81929 0
M  V30 4031 N 362.134 1.5431 0.320358 0
M  V30 4032 C 363.38 1.72924 1.05949 0
M  V30 4033 C 363.713 0.503185 1.87568 0
M  V30 4034 O 362.988 -0.499839 1.87968 0
M  V30 4035 C 363.271 3.00676 1.98156 0
M  V30 4036 C 363.124 4.3354 1.19845 0
M  V30 4037 C 364.443 3.24198 2.9763 0
M  V30 4038 H 361.562 0.629195 0.383774 0
M  V30 4039 H 364.204 1.87008 0.335854 0
M  V30 4040 H 362.354 2.888 2.59859 0
M  V30 4041 H 364.026 4.57305 0.605773 0
M  V30 4042 H 362.269 4.309 0.500784 0
M  V30 4043 H 362.94 5.19156 1.87567 0
M  V30 4044 H 365.416 3.35557 2.4605 0
M  V30 4045 H 364.292 4.14938 3.59329 0
M  V30 4046 H 364.553 2.41577 3.7026 0
M  V30 4047 N 363.613 -0.582584 1.46437 0
M  V30 4048 C 364.838 -1.37168 1.55563 0
M  V30 4049 C 365.263 -1.87061 0.19743 0
M  V30 4050 O 364.621 -1.61572 -0.822451 0
M  V30 4051 C 364.669 -2.53511 2.56446 0
M  V30 4052 O 363.773 -3.54953 2.09958 0
M  V30 4053 H 363.114 -0.408494 0.523477 0
M  V30 4054 H 365.644 -0.706646 1.9201 0
M  V30 4055 H 365.654 -3.00426 2.76058 0
M  V30 4056 H 364.329 -2.16549 3.55076 0
M  V30 4057 H 362.906 -3.14516 2.00334 0
M  V30 4058 N 365.091 -1.34144 -0.827227 0
M  V30 4059 C 366.319 -1.29325 -1.61501 0
M  V30 4060 C 366.734 0.13354 -1.88327 0
M  V30 4061 O 366.091 1.0793 -1.47164 0
M  V30 4062 C 366.142 -2.07746 -2.95844 0
M  V30 4063 O 365.863 -3.4486 -2.70191 0
M  V30 4064 C 367.364 -2.10273 -3.90256 0
M  V30 4065 H 364.584 -0.445069 -0.50215 0
M  V30 4066 H 367.128 -1.76693 -1.02955 0
M  V30 4067 H 365.283 -1.6403 -3.5096 0
M  V30 4068 H 365.697 -3.85345 -3.55822 0
M  V30 4069 H 367.171 -2.69575 -4.81698 0
M  V30 4070 H 367.648 -1.096 -4.25305 0
M  V30 4071 H 368.254 -2.54059 -3.41078 0
M  V30 4072 N 366.569 1.04691 -1.17803 0
M  V30 4073 C 367.817 1.7743 -0.967617 0
M  V30 4074 C 368.138 1.88359 0.504574 0
M  V30 4075 O 367.408 1.40402 1.36617 0
M  V30 4076 H 365.988 0.657242 -0.355024 0
M  V30 4077 H 368.65 1.2638 -1.48371 0
M  V30 4078 H 367.746 2.78924 -1.40027 0
M  V30 4079 N 368.047 0.979072 1.23499 0
M  V30 4080 C 369.324 0.563674 1.87302 0
M  V30 4081 C 369.704 -0.959199 1.88049 0
M  V30 4082 O 369.052 -1.83535 1.36114 0
M  V30 4083 C 369.262 1.16822 3.28867 0
M  V30 4084 C 370.61 1.26014 4.0547 0
M  V30 4085 O 371.634 1.12158 3.38082 0
M  V30 4086 O 370.493 1.48044 5.26066 0
M  V30 4087 H 367.587 0.189602 0.804972 0
M  V30 4088 H 370.133 1.07407 1.31384 0
M  V30 4089 H 368.905 2.21049 3.22883 0
M  V30 4090 H 368.528 0.642564 3.92373 0
M  V30 4091 N 369.525 -1.3858 0.750561 0
M  V30 4092 C 370.765 -2.02032 0.310258 0
M  V30 4093 C 371.129 -1.58288 -1.08668 0
M  V30 4094 O 372.33 -2.14049 -1.62593 0
M  V30 4095 C 370.601 -3.54856 0.425647 0
M  V30 4096 S 372.16 -4.38748 0.0674797 0
M  V30 4097 H 368.978 -0.700705 0.120554 0
M  V30 4098 H 371.58 -1.69134 0.980512 0
M  V30 4099 H 370.284 -3.84182 1.44335 0
M  V30 4100 H 369.815 -3.92527 -0.261894 0
M  V30 4101 H 371.83 -4.82835 -1.14388 0
M  V30 4102 N 371.003 -0.499398 -1.49478 0
M  V30 4103 C 372.414 -0.051215 -1.8663 0
M  V30 4104 C 372.765 1.36238 -1.41186 0
M  V30 4105 O 371.89 2.01502 -0.789051 0
M  V30 4106 C 372.485 -0.0861651 -3.3869 0
M  V30 4107 C 371.044 0.30667 -3.75149 0
M  V30 4108 C 370.191 -0.459397 -2.73468 0
M  V30 4109 H 373.142 -0.712264 -1.41818 0
M  V30 4110 H 373.163 0.709507 -3.73826 0
M  V30 4111 H 372.675 -1.11512 -3.71735 0
M  V30 4112 H 370.776 1.33892 -3.47712 0
M  V30 4113 H 370.889 -0.0116669 -4.79099 0
M  V30 4114 H 369.253 0.0905645 -2.54539 0
M  V30 4115 H 370.036 -1.4884 -3.09357 0
M  V30 4116 N 372.481 1.55866 -0.233164 0
M  V30 4117 C 373.728 1.98603 0.395374 0
M  V30 4118 C 374.056 1.12105 1.58942 0
M  V30 4119 O 373.311 0.168656 1.94972 0
M  V30 4120 C 373.61 3.46856 0.861724 0
M  V30 4121 C 373.276 4.50348 -0.223066 0
M  V30 4122 C 371.938 4.78371 -0.521038 0
M  V30 4123 C 374.29 5.12355 -0.956124 0
M  V30 4124 C 371.618 5.6568 -1.55638 0
M  V30 4125 C 373.97 6.00786 -1.98089 0
M  V30 4126 C 372.634 6.27148 -2.28565 0
M  V30 4127 H 371.904 0.726739 0.144677 0
M  V30 4128 H 374.551 1.88491 -0.338114 0
M  V30 4129 H 372.856 3.5423 1.67418 0
M  V30 4130 H 374.553 3.77302 1.35809 0
M  V30 4131 H 371.143 4.28596 0.0193234 0
M  V30 4132 H 375.327 4.90765 -0.739166 0
M  V30 4133 H 370.583 5.84365 -1.798 0
M  V30 4134 H 374.757 6.4788 -2.55391 0
M  V30 4135 H 372.384 6.94597 -3.08932 0
M  V30 4136 N 373.959 -0.0401083 1.57549 0
M  V30 4137 C 375.208 -0.732108 1.87944 0
M  V30 4138 C 375.521 -1.77107 0.830206 0
M  V30 4139 O 376.727 -2.51488 1.02302 0
M  V30 4140 C 375.183 -1.35315 3.33494 0
M  V30 4141 C 374.791 -0.351105 4.46622 0
M  V30 4142 C 376.535 -2.02566 3.73051 0
M  V30 4143 C 374.442 -0.979859 5.83226 0
M  V30 4144 H 373.372 -0.277188 0.701201 0
M  V30 4145 H 376.023 0.0138501 1.83495 0
M  V30 4146 H 374.405 -2.14844 3.32653 0
M  V30 4147 H 375.579 0.416674 4.58912 0
M  V30 4148 H 373.894 0.218708 4.15825 0
M  V30 4149 H 376.491 -2.50441 4.72423 0
M  V30 4150 H 376.834 -2.83904 3.04474 0
M  V30 4151 H 377.367 -1.29827 3.76018 0
M  V30 4152 H 374.106 -0.206135 6.55176 0
M  V30 4153 H 373.626 -1.71774 5.74677 0
M  V30 4154 H 375.305 -1.49046 6.29599 0
M  V30 4155 N 375.437 -1.54477 -0.31217 0
M  V30 4156 C 376.683 -1.73483 -1.0503 0
M  V30 4157 C 377.016 -0.513125 -1.87298 0
M  V30 4158 O 376.291 0.489864 -1.8823 0
M  V30 4159 C 376.574 -3.01723 -1.96558 0
M  V30 4160 C 376.427 -4.3417 -1.17545 0
M  V30 4161 C 377.746 -3.25772 -2.95907 0
M  V30 4162 H 374.865 -0.631222 -0.380432 0
M  V30 4163 H 377.507 -1.87184 -0.325932 0
M  V30 4164 H 375.657 -2.90174 -2.58324 0
M  V30 4165 H 377.329 -4.5762 -0.581513 0
M  V30 4166 H 375.572 -4.31159 -0.477925 0
M  V30 4167 H 376.243 -5.20143 -1.84811 0
M  V30 4168 H 378.719 -3.36857 -2.44267 0
M  V30 4169 H 377.595 -4.16838 -3.57123 0
M  V30 4170 H 377.856 -2.43537 -3.68974 0
M  V30 4171 N 376.915 0.57481 -1.46744 0
M  V30 4172 C 378.155 1.34369 -1.54027 0
M  V30 4173 C 378.519 1.91051 -0.190642 0
M  V30 4174 O 379.72 2.68444 -0.138255 0
M  V30 4175 C 377.991 2.43706 -2.61423 0
M  V30 4176 S 379.55 3.30915 -2.88167 0
M  V30 4177 H 376.368 0.45768 -0.544105 0
M  V30 4178 H 378.97 0.659959 -1.84024 0
M  V30 4179 H 377.674 2.0047 -3.58106 0
M  V30 4180 H 377.205 3.16842 -2.33184 0
M  V30 4181 H 379.22 4.42742 -2.24039 0
M  V30 4182 N 378.394 1.34581 0.820102 0
M  V30 4183 C 379.327 1.20735 1.93644 0
M  V30 4184 C 380.305 0.0983343 1.62302 0
M  V30 4185 O 381.489 0.263997 1.86642 0
M  V30 4186 C 378.616 0.856037 3.27704 0
M  V30 4187 C 377.662 1.97521 3.78005 0
M  V30 4188 S 378.495 3.58906 3.97425 0
M  V30 4189 C 379.651 3.25822 5.34407 0
M  V30 4190 H 379.884 2.15231 2.05093 0
M  V30 4191 H 377.417 1.1964 0.97599 0
M  V30 4192 H 379.375 0.660133 4.05157 0
M  V30 4193 H 378.036 -0.0706253 3.14021 0
M  V30 4194 H 377.229 1.68321 4.75062 0
M  V30 4195 H 376.831 2.12875 3.07507 0
M  V30 4196 H 379.123 2.77812 6.17922 0
M  V30 4197 H 380.066 4.22029 5.68592 0
M  V30 4198 H 380.474 2.61932 5.00052 0
M  V30 4199 N 379.872 -1.04064 1.18357 0
M  V30 4200 C 381.1 -1.80916 1.00384 0
M  V30 4201 C 381.515 -1.83414 -0.447738 0
M  V30 4202 O 380.872 -1.26962 -1.31099 0
M  V30 4203 C 380.923 -3.26516 1.55144 0
M  V30 4204 O 380.644 -3.2424 2.94618 0
M  V30 4205 C 382.145 -4.20013 1.41789 0
M  V30 4206 H 379.365 -0.569728 0.354474 0
M  V30 4207 H 381.909 -1.31151 1.56906 0
M  V30 4208 H 380.064 -3.73512 1.02798 0
M  V30 4209 H 380.478 -4.15452 3.20156 0
M  V30 4210 H 381.952 -5.20111 1.84901 0
M  V30 4211 H 382.429 -4.37667 0.36661 0
M  V30 4212 H 383.035 -3.78881 1.93207 0
M  V30 4213 N 381.35 -0.985608 -1.22978 0
M  V30 4214 C 382.58 -0.674603 -1.95276 0
M  V30 4215 C 382.988 0.763483 -1.73111 0
M  V30 4216 O 382.331 1.52601 -1.02268 0
M  V30 4217 C 382.393 -0.891597 -3.48268 0
M  V30 4218 C 382.057 -2.31275 -3.94158 0
M  V30 4219 C 383.054 -3.29179 -4.02415 0
M  V30 4220 C 380.739 -2.64524 -4.27004 0
M  V30 4221 C 382.733 -4.58407 -4.42879 0
M  V30 4222 C 380.42 -3.93974 -4.67149 0
M  V30 4223 C 381.418 -4.90727 -4.75053 0
M  V30 4224 O 381.106 -6.17865 -5.14294 0
M  V30 4225 H 380.838 -0.249251 -0.628371 0
M  V30 4226 H 383.392 -1.32106 -1.5728 0
M  V30 4227 H 381.622 -0.187962 -3.86243 0
M  V30 4228 H 383.311 -0.576957 -4.01779 0
M  V30 4229 H 384.077 -3.04823 -3.77237 0
M  V30 4230 H 379.956 -1.89923 -4.2006 0
M  V30 4231 H 383.5 -5.33926 -4.48964 0
M  V30 4232 H 379.397 -4.18122 -4.91777 0
M  V30 4233 H 380.165 -6.21694 -5.32389 0
M  V30 4234 N 382.828 1.3818 -0.7579 0
M  V30 4235 C 383.791 2.28764 -0.141286 0
M  V30 4236 C 384.791 1.47388 0.642907 0
M  V30 4237 O 385.981 1.67781 0.468536 0
M  V30 4238 C 383.113 3.31184 0.808069 0
M  V30 4239 H 384.306 2.848 -0.939633 0
M  V30 4240 H 381.859 1.47212 -0.525191 0
M  V30 4241 H 382.594 2.80247 1.63193 0
M  V30 4242 H 382.379 3.91314 0.248104 0
M  V30 4243 H 383.869 3.98909 1.23536 0
M  V30 4244 N 384.306 0.507319 1.49211 0
M  V30 4245 C 385.553 -0.0349529 2.0247 0
M  V30 4246 C 385.881 -1.36409 1.38647 0
M  V30 4247 O 385.136 -1.88841 0.513566 0
M  V30 4248 C 385.435 -0.229513 3.56662 0
M  V30 4249 C 385.101 1.02241 4.39156 0
M  V30 4250 C 383.763 1.36557 4.61417 0
M  V30 4251 C 386.115 1.85428 4.871 0
M  V30 4252 C 383.443 2.53999 5.28868 0
M  V30 4253 C 385.795 3.02028 5.55843 0
M  V30 4254 C 384.459 3.36717 5.76349 0
M  V30 4255 H 383.729 -0.0127902 0.74089 0
M  V30 4256 H 386.376 0.668756 1.79443 0
M  V30 4257 H 384.681 -1.0158 3.78403 0
M  V30 4258 H 386.378 -0.663641 3.9547 0
M  V30 4259 H 382.968 0.745124 4.22073 0
M  V30 4260 H 387.152 1.6023 4.69723 0
M  V30 4261 H 382.408 2.81105 5.42946 0
M  V30 4262 H 386.582 3.66808 5.91967 0
M  V30 4263 H 384.209 4.27821 6.28389 0
M  V30 4264 N 385.784 -1.5574 0.241426 0
M  V30 4265 C 386.734 -2.17803 -0.674233 0
M  V30 4266 C 387.718 -1.13225 -1.14319 0
M  V30 4267 O 388.91 -1.39153 -1.09387 0
M  V30 4268 C 386.039 -2.87682 -1.87333 0
M  V30 4269 C 385.125 -3.99509 -1.42313 0
M  V30 4270 N 385.516 -5.01115 -0.686798 0
M  V30 4271 C 383.814 -4.11964 -1.70885 0
M  V30 4272 C 384.515 -5.79922 -0.454456 0
M  V30 4273 N 383.491 -5.34001 -1.01705 0
M  V30 4274 H 387.293 -2.93718 -0.103447 0
M  V30 4275 H 384.807 -1.62342 0.0435095 0
M  V30 4276 H 386.804 -3.3057 -2.54026 0
M  V30 4277 H 385.464 -2.13269 -2.4484 0
M  V30 4278 H 386.475 -5.16799 -0.337459 0
M  V30 4279 H 383.152 -3.48718 -2.2957 0
M  V30 4280 H 384.542 -6.71768 0.132992 0
M  V30 4281 N 387.262 0.0317525 -1.57568 0
M  V30 4282 C 388.49 0.734949 -1.93407 0
M  V30 4283 C 388.905 1.69036 -0.84096 0
M  V30 4284 O 388.262 1.81582 0.182836 0
M  V30 4285 C 388.313 1.49432 -3.29169 0
M  V30 4286 O 388.034 0.577261 -4.3428 0
M  V30 4287 C 389.535 2.29492 -3.79273 0
M  V30 4288 H 386.755 0.206706 -0.638368 0
M  V30 4289 H 389.299 -0.00992046 -2.04498 0
M  V30 4290 H 387.454 2.1911 -3.19483 0
M  V30 4291 H 387.868 1.10952 -5.1263 0
M  V30 4292 H 389.342 2.78172 -4.76785 0
M  V30 4293 H 389.819 3.10794 -3.10328 0
M  V30 4294 H 390.425 1.64894 -3.92033 0
M  V30 4295 N 388.74 1.54641 0.303973 0
M  V30 4296 C 390.151 1.64811 0.877163 0
M  V30 4297 C 390.502 0.554838 1.88191 0
M  V30 4298 O 389.627 -0.309033 2.14182 0
M  V30 4299 C 390.222 2.9876 1.59775 0
M  V30 4300 C 388.781 3.11061 2.11938 0
M  V30 4301 C 387.928 2.60479 0.951097 0
M  V30 4302 H 390.879 1.58493 0.0810486 0
M  V30 4303 H 390.9 2.90017 2.46314 0
M  V30 4304 H 390.412 3.7831 0.866226 0
M  V30 4305 H 388.513 2.36225 2.88146 0
M  V30 4306 H 388.626 4.17171 2.35595 0
M  V30 4307 H 386.99 2.16859 1.33583 0
M  V30 4308 H 387.773 3.42504 0.233581 0
M  V30 4309 N 390.218 -0.567019 1.47046 0
M  V30 4310 C 391.495 -1.3276 1.43646 0
M  V30 4311 C 391.875 -2.1071 0.128186 0
M  V30 4312 O 391.223 -2.10441 -0.890326 0
M  V30 4313 C 391.433 -2.2404 2.67595 0
M  V30 4314 C 392.781 -2.85372 3.14401 0
M  V30 4315 O 393.805 -2.34346 2.68254 0
M  V30 4316 O 392.664 -3.78091 3.946 0
M  V30 4317 H 389.758 -0.597293 0.571988 0
M  V30 4318 H 392.304 -0.586735 1.59234 0
M  V30 4319 H 391.076 -1.65975 3.54356 0
M  V30 4320 H 390.699 -3.05439 2.54544 0
M  V30 4321 N 391.696 -1.35014 -0.812953 0
M  V30 4322 C 392.643 -1.27412 -1.92444 0
M  V30 4323 C 393.613 -0.14733 -1.65445 0
M  V30 4324 O 394.798 -0.329974 -1.87925 0
M  V30 4325 C 391.938 -1.04558 -3.28879 0
M  V30 4326 C 391.051 -2.26101 -3.68106 0
M  V30 4327 C 390.186 -1.96449 -4.9354 0
M  V30 4328 C 389.225 -3.14081 -5.25376 0
M  V30 4329 N 388.362 -2.84246 -6.41988 0
M  V30 4330 H 393.202 -2.22463 -1.98278 0
M  V30 4331 H 390.739 -1.10593 -0.969933 0
M  V30 4332 H 392.697 -0.893413 -4.07522 0
M  V30 4333 H 391.327 -0.131719 -3.22531 0
M  V30 4334 H 390.379 -2.52204 -2.84775 0
M  V30 4335 H 391.691 -3.13959 -3.87597 0
M  V30 4336 H 390.845 -1.78026 -5.79993 0
M  V30 4337 H 389.584 -1.05867 -4.76071 0
M  V30 4338 H 388.589 -3.33089 -4.37415 0
M  V30 4339 H 389.814 -4.05455 -5.44778 0
M  V30 4340 H 387.76 -1.96252 -6.25956 0
M  V30 4341 H 387.677 -3.65637 -6.61699 0
M  V30 4342 H 388.945 -2.6935 -7.31485 0
M  V30 4343 N 393.175 1.03435 -1.18907 0
M  V30 4344 C 394.105 2.13503 -0.945448 0
M  V30 4345 C 395.086 1.69682 0.119189 0
M  V30 4346 O 396.271 1.94169 -0.034707 0
M  V30 4347 C 393.401 3.44004 -0.477316 0
M  V30 4348 C 392.355 4.0148 -1.48316 0
M  V30 4349 C 391.681 5.27537 -0.872311 0
M  V30 4350 C 392.981 4.36921 -2.86177 0
M  V30 4351 H 394.675 2.34141 -1.86597 0
M  V30 4352 H 392.221 1.12523 -0.898584 0
M  V30 4353 H 394.174 4.20372 -0.294204 0
M  V30 4354 H 392.898 3.23072 0.478786 0
M  V30 4355 H 391.557 3.27201 -1.65332 0
M  V30 4356 H 391.205 5.02917 0.0911752 0
M  V30 4357 H 390.905 5.66954 -1.54393 0
M  V30 4358 H 392.429 6.06576 -0.699871 0
M  V30 4359 H 393.843 5.04248 -2.72776 0
M  V30 4360 H 392.24 4.87405 -3.50081 0
M  V30 4361 H 393.31 3.46466 -3.39248 0
M  V30 4362 N 394.653 0.992116 1.22453 0
M  V30 4363 C 395.893 0.675727 1.92907 0
M  V30 4364 C 396.257 -0.777762 1.75542 0
M  V30 4365 O 397.458 -1.20553 2.40251 0
M  V30 4366 C 395.729 1.0696 3.4102 0
M  V30 4367 S 397.288 0.871456 4.30059 0
M  V30 4368 H 394.106 0.247089 0.666684 0
M  V30 4369 H 396.708 1.27423 1.48269 0
M  V30 4370 H 395.412 2.12383 3.51172 0
M  V30 4371 H 394.943 0.462858 3.90668 0
M  V30 4372 H 396.958 -0.238436 4.95627 0
M  V30 4373 N 396.131 -1.37776 0.765217 0
M  V30 4374 C 397.378 -1.99849 0.326588 0
M  V30 4375 C 397.706 -1.60746 -1.09504 0
M  V30 4376 O 396.961 -0.84202 -1.76659 0
M  V30 4377 C 397.26 -3.5504 0.410053 0
M  V30 4378 C 396.926 -4.13891 1.78899 0
M  V30 4379 C 395.588 -4.29678 2.16635 0
M  V30 4380 C 397.94 -4.46236 2.69301 0
M  V30 4381 C 395.268 -4.7511 3.44221 0
M  V30 4382 C 397.62 -4.93089 3.9629 0
M  V30 4383 C 396.284 -5.07082 4.34078 0
M  V30 4384 H 395.554 -0.7313 0.119507 0
M  V30 4385 H 398.201 -1.64645 0.977968 0
M  V30 4386 H 396.506 -3.90451 -0.324878 0
M  V30 4387 H 398.203 -4.00966 0.0520699 0
M  V30 4388 H 394.793 -4.02026 1.48569 0
M  V30 4389 H 398.977 -4.3363 2.41409 0
M  V30 4390 H 394.233 -4.84129 3.73402 0
M  V30 4391 H 398.407 -5.17084 4.66472 0
M  V30 4392 H 396.034 -5.42046 5.33001 0
M  V30 4393 N 397.609 -0.515225 -1.4894 0
M  V30 4394 C 398.858 0.0261361 -2.01683 0
M  V30 4395 C 399.171 1.36719 -1.39883 0
M  V30 4396 O 400.377 1.99606 -1.84037 0
M  V30 4397 C 398.833 0.0970111 -3.59769 0
M  V30 4398 C 398.441 -1.23825 -4.30548 0
M  V30 4399 C 400.185 0.587981 -4.20408 0
M  V30 4400 C 398.092 -1.12877 -5.80528 0
M  V30 4401 H 397.022 0.0135398 -0.753878 0
M  V30 4402 H 399.673 -0.656787 -1.71343 0
M  V30 4403 H 398.055 0.844694 -3.86886 0
M  V30 4404 H 399.229 -2.00034 -4.15118 0
M  V30 4405 H 397.544 -1.66379 -3.81716 0
M  V30 4406 H 400.141 0.68763 -5.3026 0
M  V30 4407 H 400.484 1.59026 -3.84729 0
M  V30 4408 H 401.017 -0.103582 -3.97665 0
M  V30 4409 H 397.756 -2.10575 -6.20756 0
M  V30 4410 H 397.276 -0.407799 -5.98412 0
M  V30 4411 H 398.955 -0.813332 -6.41868 0
M  V30 4412 N 399.087 1.5561 -0.249682 0
M  V30 4413 C 400.017 2.24477 0.642826 0
M  V30 4414 C 400.998 1.22601 1.17911 0
M  V30 4415 O 402.183 1.5126 1.21795 0
M  V30 4416 C 399.313 2.94638 1.83863 0
M  V30 4417 C 398.267 4.03227 1.435 0
M  V30 4418 C 397.593 4.60828 2.71186 0
M  V30 4419 C 398.893 5.18796 0.604002 0
M  V30 4420 H 400.587 2.99321 0.0685625 0
M  V30 4421 H 398.133 1.43965 0.0315363 0
M  V30 4422 H 400.086 3.41517 2.46868 0
M  V30 4423 H 398.81 2.17287 2.43832 0
M  V30 4424 H 397.469 3.57121 0.828275 0
M  V30 4425 H 397.117 3.80174 3.29358 0
M  V30 4426 H 396.817 5.34132 2.44901 0
M  V30 4427 H 398.341 5.10442 3.35084 0
M  V30 4428 H 399.755 5.61883 1.13842 0
M  V30 4429 H 398.152 5.98506 0.437097 0
M  V30 4430 H 399.222 4.83384 -0.383147 0
M  V30 4431 N 400.565 -0.0233959 1.57583 0
M  V30 4432 C 401.842 -0.748794 1.807 0
M  V30 4433 C 402.222 -1.9327 0.849106 0
M  V30 4434 O 401.57 -2.28247 -0.107468 0
M  V30 4435 C 401.78 -1.17651 3.28571 0
M  V30 4436 C 403.128 -1.59008 3.93702 0
M  V30 4437 O 404.152 -1.27094 3.32755 0
M  V30 4438 O 403.011 -2.18264 5.01022 0
M  V30 4439 H 400.105 -0.362578 0.743281 0
M  V30 4440 H 402.651 0.000261958 1.697 0
M  V30 4441 H 401.423 -0.331603 3.89892 0
M  V30 4442 H 401.046 -1.98541 3.44481 0
M  V30 4443 N 402.043 -1.548 -0.295768 0
M  V30 4444 C 402.973 -1.89115 -1.36959 0
M  V30 4445 C 403.954 -0.75059 -1.52644 0
M  V30 4446 O 405.139 -1.00678 -1.66065 0
M  V30 4447 C 402.269 -2.14307 -2.73295 0
M  V30 4448 C 401.223 -3.30151 -2.72368 0
M  V30 4449 C 400.549 -3.40772 -4.12042 0
M  V30 4450 C 401.849 -4.67126 -2.33646 0
M  V30 4451 H 403.543 -2.79053 -1.08488 0
M  V30 4452 H 401.089 -1.34266 -0.520443 0
M  V30 4453 H 403.042 -2.36898 -3.48507 0
M  V30 4454 H 401.766 -1.21145 -3.03301 0
M  V30 4455 H 400.425 -3.0749 -1.99613 0
M  V30 4456 H 400.073 -2.45117 -4.39234 0
M  V30 4457 H 399.773 -4.18645 -4.12322 0
M  V30 4458 H 401.297 -3.6563 -4.89027 0
M  V30 4459 H 402.711 -4.89414 -2.98575 0
M  V30 4460 H 401.108 -5.47751 -2.45129 0
M  V30 4461 H 402.178 -4.67489 -1.28772 0
M  V30 4462 N 403.521 0.559213 -1.47345 0
M  V30 4463 C 404.454 1.68201 -1.5422 0
M  V30 4464 C 405.432 1.57742 -0.394497 0
M  V30 4465 O 406.616 1.78628 -0.60201 0
M  V30 4466 C 403.743 3.0643 -1.44285 0
M  V30 4467 C 402.789 3.3534 -2.63532 0
M  V30 4468 S 403.622 3.24816 -4.25741 0
M  V30 4469 C 404.778 4.65542 -4.18355 0
M  V30 4470 H 405.011 1.62114 -2.49211 0
M  V30 4471 H 402.544 0.739871 -1.35519 0
M  V30 4472 H 404.502 3.86164 -1.3924 0
M  V30 4473 H 403.163 3.09984 -0.506816 0
M  V30 4474 H 402.356 4.36107 -2.52639 0
M  V30 4475 H 401.958 2.63221 -2.65689 0
M  V30 4476 H 404.25 5.56449 -3.86485 0
M  V30 4477 H 405.193 4.81493 -5.19202 0
M  V30 4478 H 405.601 4.43495 -3.49246 0
M  V30 4479 N 404.999 1.35443 0.805782 0
M  V30 4480 C 405.947 1.28465 1.93906 0
M  V30 4481 C 406.941 0.17943 1.68447 0
M  V30 4482 O 408.147 0.345459 1.76654 0
M  V30 4483 H 404.522 0.399528 0.637088 0
M  V30 4484 H 406.493 2.24206 1.96912 0
M  V30 4485 C 405.242 1.07432 3.30687 0
M  V30 4486 H 404.565 1.91716 3.50835 0
M  V30 4487 H 406.005 1.06591 4.10383 0
M  V30 4488 C 404.464 -0.22179 3.36169 0
M  V30 4489 O 404.994 -1.21731 3.82811 0
M  V30 4490 N 403.2 -0.260841 2.89427 0
M  V30 4491 H 402.747 0.549884 2.51663 0
M  V30 4492 H 402.705 -1.12777 2.93477 0
M  V30 4493 N 406.477 -1.02803 1.19454 0
M  V30 4494 C 407.725 -1.75869 0.995722 0
M  V30 4495 C 408.046 -1.89138 -0.474543 0
M  V30 4496 O 407.316 -1.42558 -1.34366 0
M  V30 4497 H 405.896 -0.651511 0.365435 0
M  V30 4498 H 408.558 -1.24004 1.50363 0
M  V30 4499 H 407.654 -2.76661 1.44447 0
M  V30 4500 N 407.956 -0.998596 -1.21925 0
M  V30 4501 C 409.204 -0.676325 -1.90448 0
M  V30 4502 C 409.525 0.794719 -1.78071 0
M  V30 4503 O 408.795 1.5701 -1.17152 0
M  V30 4504 H 407.375 -0.247165 -0.704925 0
M  V30 4505 H 410.037 -1.26633 -1.48156 0
M  V30 4506 H 409.133 -0.943858 -2.97486 0
M  V30 4507 N 409.434 1.37368 -0.772513 0
M  V30 4508 C 410.711 1.93839 -0.26188 0
M  V30 4509 C 411.091 1.7061 1.24319 0
M  V30 4510 O 410.439 1.05534 2.02669 0
M  V30 4511 C 410.649 3.43154 -0.636102 0
M  V30 4512 C 411.997 4.20249 -0.606324 0
M  V30 4513 O 413.021 3.5152 -0.575538 0
M  V30 4514 O 411.88 5.42809 -0.634086 0
M  V30 4515 H 408.974 0.82478 -0.0605555 0
M  V30 4516 H 411.52 1.4665 -0.853917 0
M  V30 4517 H 410.292 3.53647 -1.6748 0
M  V30 4518 H 409.915 3.97596 -0.0170516 0
M  V30 4519 N 410.912 0.523116 1.48665 0
M  V30 4520 C 411.842 -0.23231 2.32342 0
M  V30 4521 C 412.823 -0.941637 1.41659 0
M  V30 4522 O 414.008 -0.928751 1.70552 0
M  V30 4523 C 411.138 -1.28387 3.22698 0
M  V30 4524 C 410.092 -0.693098 4.22351 0
M  V30 4525 C 409.418 -1.8468 5.01794 0
M  V30 4526 C 410.718 0.33063 5.21252 0
M  V30 4527 H 412.412 0.466192 2.95748 0
M  V30 4528 H 409.958 0.225643 1.42221 0
M  V30 4529 H 411.911 -1.82024 3.80059 0
M  V30 4530 H 410.635 -2.01186 2.57278 0
M  V30 4531 H 409.294 -0.178299 3.66166 0
M  V30 4532 H 408.942 -2.56301 4.32804 0
M  V30 4533 H 408.642 -1.45747 5.69238 0
M  V30 4534 H 410.166 -2.38709 5.62006 0
M  V30 4535 H 411.58 -0.118407 5.73178 0
M  V30 4536 H 409.977 0.636974 5.9671 0
M  V30 4537 H 411.047 1.23883 4.68808 0
M  V30 4538 N 412.39 -1.55475 0.257931 0
M  V30 4539 C 413.34 -2.18506 -0.651094 0
M  V30 4540 C 414.324 -1.14431 -1.13112 0
M  V30 4541 O 415.516 -1.40305 -1.07905 0
M  V30 4542 C 412.645 -2.89653 -1.84272 0
M  V30 4543 C 411.731 -4.00996 -1.38068 0
M  V30 4544 N 412.122 -5.01816 -0.633609 0
M  V30 4545 C 410.42 -4.13753 -1.66506 0
M  V30 4546 C 411.121 -5.80371 -0.392922 0
M  V30 4547 N 410.097 -5.3505 -0.960359 0
M  V30 4548 H 413.899 -2.93811 -0.0722883 0
M  V30 4549 H 411.413 -1.62286 0.0607256 0
M  V30 4550 H 413.41 -3.33245 -2.50506 0
M  V30 4551 H 412.07 -2.15854 -2.42564 0
M  V30 4552 H 413.081 -5.17128 -0.282626 0
M  V30 4553 H 409.758 -3.51133 -2.25858 0
M  V30 4554 H 411.148 -6.7159 0.204235 0
M  V30 4555 N 413.868 0.0150385 -1.57593 0
M  V30 4556 C 415.098 0.713359 -1.93894 0
M  V30 4557 C 415.506 1.68663 -0.857289 0
M  V30 4558 O 414.849 1.82876 0.173788 0
M  V30 4559 C 414.911 1.51348 -3.26089 0
M  V30 4560 C 414.575 0.703451 -4.51554 0
M  V30 4561 C 415.572 -0.00237924 -5.199 0
M  V30 4562 C 413.257 0.653854 -4.98026 0
M  V30 4563 C 415.251 -0.746955 -6.33008 0
M  V30 4564 C 412.938 -0.0944578 -6.11027 0
M  V30 4565 C 413.936 -0.793609 -6.78374 0
M  V30 4566 O 413.624 -1.52974 -7.89211 0
M  V30 4567 H 413.356 0.204637 -0.644282 0
M  V30 4568 H 415.91 -0.0276411 -2.05381 0
M  V30 4569 H 414.14 2.29862 -3.10967 0
M  V30 4570 H 415.829 2.09572 -3.47612 0
M  V30 4571 H 416.595 0.0268803 -4.84993 0
M  V30 4572 H 412.474 1.18756 -4.45441 0
M  V30 4573 H 416.018 -1.2932 -6.85509 0
M  V30 4574 H 411.915 -0.125591 -6.45378 0
M  V30 4575 H 412.683 -1.44488 -8.05646 0
M  V30 4576 N 415.346 1.54954 0.287554 0
M  V30 4577 C 416.296 1.8322 1.357 0
M  V30 4578 C 417.28 0.690152 1.45347 0
M  V30 4579 O 418.472 0.951137 1.49273 0
M  V30 4580 C 415.601 2.09481 2.71979 0
M  V30 4581 C 414.687 3.29906 2.66502 0
M  V30 4582 N 415.078 4.50154 2.30641 0
M  V30 4583 C 413.376 3.32203 2.97585 0
M  V30 4584 C 414.077 5.32209 2.34794 0
M  V30 4585 N 413.053 4.70258 2.72688 0
M  V30 4586 H 416.855 2.73746 1.0696 0
M  V30 4587 H 414.369 1.54635 0.496167 0
M  V30 4588 H 416.366 2.27882 3.49107 0
M  V30 4589 H 415.026 1.2023 3.0162 0
M  V30 4590 H 416.037 4.76515 2.02865 0
M  V30 4591 H 412.714 2.53101 3.32034 0
M  V30 4592 H 414.104 6.38321 2.09753 0
M  V30 4593 N 416.824 -0.551391 1.4764 0
M  V30 4594 C 417.754 -1.66757 1.63445 0
M  V30 4595 C 418.735 -1.63077 0.483742 0
M  V30 4596 O 419.92 -1.80607 0.71377 0
M  V30 4597 C 417.05 -3.05387 1.65396 0
M  V30 4598 C 416.004 -3.23918 2.79752 0
M  V30 4599 C 415.33 -4.63393 2.66779 0
M  V30 4600 C 416.63 -3.08735 4.21284 0
M  V30 4601 H 418.324 -1.53786 2.56886 0
M  V30 4602 H 415.87 -0.738415 1.23626 0
M  V30 4603 H 417.823 -3.83325 1.75043 0
M  V30 4604 H 416.547 -3.19332 0.685195 0
M  V30 4605 H 415.206 -2.48391 2.69625 0
M  V30 4606 H 414.854 -4.74144 1.67918 0
M  V30 4607 H 414.554 -4.7674 3.43501 0
M  V30 4608 H 416.078 -5.43458 2.78364 0
M  V30 4609 H 417.492 -3.76484 4.32357 0
M  V30 4610 H 415.889 -3.33588 4.98838 0
M  V30 4611 H 416.959 -2.0541 4.39243 0
M  V30 4612 N 418.302 -1.35869 -0.798587 0
M  V30 4613 C 419.527 -1.32883 -1.59238 0
M  V30 4614 C 419.952 0.0894587 -1.87887 0
M  V30 4615 O 419.31 1.05869 -1.47178 0
M  V30 4616 C 419.358 -2.14892 -2.89575 0
M  V30 4617 O 418.462 -1.53512 -3.82763 0
M  V30 4618 H 417.803 -0.455236 -0.48338 0
M  V30 4619 H 420.333 -1.79024 -0.990539 0
M  V30 4620 H 420.343 -2.27139 -3.38928 0
M  V30 4621 H 419.018 -3.17998 -2.68049 0
M  V30 4622 H 417.595 -1.50153 -3.41334 0
M  V30 4623 N 419.78 1.02168 -1.19998 0
M  V30 4624 C 420.712 2.10705 -0.901994 0
M  V30 4625 C 421.725 1.6244 0.108216 0
M  V30 4626 O 422.914 1.78082 -0.12214 0
M  V30 4627 C 420.014 3.37291 -0.329834 0
M  V30 4628 C 419.187 4.14714 -1.39035 0
M  V30 4629 C 418.246 5.19606 -0.830432 0
M  V30 4630 O 417.272 5.48809 -1.50989 0
M  V30 4631 N 418.474 5.79366 0.362696 0
M  V30 4632 H 421.239 2.36856 -1.83628 0
M  V30 4633 H 418.8 1.18518 -1.10296 0
M  V30 4634 H 420.792 4.04657 0.0587633 0
M  V30 4635 H 419.362 3.0843 0.508891 0
M  V30 4636 H 418.582 3.42392 -1.9535 0
M  V30 4637 H 419.87 4.63226 -2.10474 0
M  V30 4638 H 419.268 5.57968 0.932081 0
M  V30 4639 H 417.825 6.48106 0.69299 0
M  V30 4640 N 421.258 1.00505 1.21394 0
M  V30 4641 C 422.208 0.536503 2.21598 0
M  V30 4642 C 423.192 -0.401914 1.55799 0
M  V30 4643 O 424.384 -0.226757 1.75541 0
M  V30 4644 C 421.513 -0.135446 3.43033 0
M  V30 4645 C 420.599 0.823992 4.16018 0
M  V30 4646 N 420.99 1.97683 4.6557 0
M  V30 4647 C 419.288 0.642387 4.4135 0
M  V30 4648 C 419.989 2.58003 5.21354 0
M  V30 4649 N 418.965 1.86162 5.1073 0
M  V30 4650 H 422.767 1.41557 2.57563 0
M  V30 4651 H 420.281 0.868878 1.37202 0
M  V30 4652 H 422.278 -0.488584 4.14027 0
M  V30 4653 H 420.938 -1.01049 3.08576 0
M  V30 4654 H 421.949 2.3572 4.61147 0
M  V30 4655 H 418.626 -0.185578 4.17087 0
M  V30 4656 H 420.016 3.555 5.70149 0
M  V30 4657 N 422.737 -1.36956 0.779787 0
M  V30 4658 C 423.985 -1.99097 0.347079 0
M  V30 4659 C 424.306 -1.62206 -1.08232 0
M  V30 4660 O 423.576 -0.891373 -1.74446 0
M  V30 4661 H 422.156 -0.736409 0.125342 0
M  V30 4662 H 424.818 -1.67308 0.999696 0
M  V30 4663 H 423.914 -3.09107 0.431162 0
M  V30 4664 N 424.215 -0.530993 -1.48385 0
M  V30 4665 C 425.461 0.00274135 -2.028 0
M  V30 4666 C 425.794 1.33838 -1.40716 0
M  V30 4667 O 425.069 1.86465 -0.553277 0
M  V30 4668 C 425.352 0.123676 -3.59888 0
M  V30 4669 C 425.205 -1.2372 -4.3245 0
M  V30 4670 C 426.524 0.849967 -4.31814 0
M  V30 4671 H 423.643 -0.000477758 -0.737 0
M  V30 4672 H 426.285 -0.688217 -1.77098 0
M  V30 4673 H 424.435 0.712157 -3.81917 0
M  V30 4674 H 426.107 -1.86687 -4.21836 0
M  V30 4675 H 424.35 -1.81882 -3.93829 0
M  V30 4676 H 425.021 -1.10557 -5.40815 0
M  V30 4677 H 427.497 0.350572 -4.14621 0
M  V30 4678 H 426.373 0.903486 -5.41413 0
M  V30 4679 H 426.634 1.90047 -3.99167 0
M  V30 4680 N 425.693 1.55336 -0.266172 0
M  V30 4681 C 426.94 1.99397 0.353158 0
M  V30 4682 C 427.268 1.15451 1.56529 0
M  V30 4683 O 426.523 0.209974 1.9457 0
M  V30 4684 C 426.822 3.48606 0.787957 0
M  V30 4685 C 426.488 4.49773 -0.318541 0
M  V30 4686 C 425.15 4.77158 -0.62239 0
M  V30 4687 C 427.502 5.10212 -1.06459 0
M  V30 4688 C 424.83 5.62251 -1.67602 0
M  V30 4689 C 427.182 5.96449 -2.10788 0
M  V30 4690 C 425.846 6.22158 -2.41817 0
M  V30 4691 H 425.116 0.729644 0.12923 0
M  V30 4692 H 427.763 1.87732 -0.37802 0
M  V30 4693 H 426.068 3.57701 1.59866 0
M  V30 4694 H 427.765 3.80098 1.27775 0
M  V30 4695 H 424.355 4.2854 -0.0715925 0
M  V30 4696 H 428.539 4.89086 -0.843098 0
M  V30 4697 H 423.795 5.80419 -1.92155 0
M  V30 4698 H 427.969 6.42317 -2.69076 0
M  V30 4699 H 425.596 6.87888 -3.23596 0
M  V30 4700 N 427.171 -0.0066808 1.57599 0
M  V30 4701 C 428.396 -0.707738 1.94951 0
M  V30 4702 C 428.821 -1.66882 0.867868 0
M  V30 4703 O 428.179 -1.80457 -0.17458 0
M  V30 4704 C 428.227 -1.42162 3.31394 0
M  V30 4705 O 427.331 -2.53578 3.25226 0
M  V30 4706 H 426.672 -0.188752 0.636607 0
M  V30 4707 H 429.202 0.0445193 2.04552 0
M  V30 4708 H 429.212 -1.78655 3.66806 0
M  V30 4709 H 427.887 -0.716903 4.09675 0
M  V30 4710 H 426.464 -2.19463 3.01481 0
M  V30 4711 N 428.649 -1.55105 -0.279332 0
M  V30 4712 C 429.559 -1.90638 -1.36727 0
M  V30 4713 C 430.575 -0.802899 -1.54368 0
M  V30 4714 O 431.751 -1.10138 -1.68616 0
M  V30 4715 C 428.816 -2.16547 -2.70755 0
M  V30 4716 C 427.877 -3.40146 -2.61915 0
M  V30 4717 C 427.11 -3.6481 -3.8955 0
M  V30 4718 O 427.333 -2.92095 -4.89935 0
M  V30 4719 O 426.267 -4.58343 -3.90135 0
M  V30 4720 H 430.093 -2.83237 -1.09591 0
M  V30 4721 H 427.678 -1.4157 -0.477306 0
M  V30 4722 H 429.56 -2.34665 -3.50014 0
M  V30 4723 H 428.235 -1.27131 -2.9769 0
M  V30 4724 H 427.142 -3.2737 -1.81052 0
M  V30 4725 H 428.475 -4.29761 -2.3993 0
M  V30 4726 N 430.127 0.543554 -1.4793 0
M  V30 4727 C 431.074 1.64942 -1.6144 0
M  V30 4728 C 432.044 1.59692 -0.456903 0
M  V30 4729 O 433.229 1.78321 -0.678688 0
M  V30 4730 C 430.369 3.03238 -1.64744 0
M  V30 4731 C 429.482 3.18823 -2.91506 0
M  V30 4732 C 428.617 4.47599 -2.86057 0
M  V30 4733 C 427.656 4.56664 -4.07584 0
M  V30 4734 N 426.793 5.76811 -4.00292 0
M  V30 4735 H 431.633 1.52733 -2.55884 0
M  V30 4736 H 429.17 0.7438 -1.2691 0
M  V30 4737 H 431.128 3.83339 -1.64641 0
M  V30 4738 H 429.758 3.1425 -0.738017 0
M  V30 4739 H 428.81 2.32064 -3.01414 0
M  V30 4740 H 430.122 3.21384 -3.81463 0
M  V30 4741 H 429.276 5.35975 -2.84281 0
M  V30 4742 H 428.015 4.47538 -1.93807 0
M  V30 4743 H 427.02 3.66697 -4.09651 0
M  V30 4744 H 428.245 4.58474 -5.00978 0
M  V30 4745 H 426.191 5.77673 -3.10853 0
M  V30 4746 H 426.108 5.80808 -4.8394 0
M  V30 4747 H 427.376 6.67512 -4.02553 0
M  V30 4748 N 431.605 1.3629 0.791371 0
M  V30 4749 C 432.515 1.32606 1.93527 0
M  V30 4750 C 433.531 0.228541 1.72493 0
M  V30 4751 O 434.707 0.460571 1.96063 0
M  V30 4752 C 431.772 1.11271 3.28359 0
M  V30 4753 C 430.833 2.3048 3.62185 0
M  V30 4754 C 430.066 2.10154 4.90583 0
M  V30 4755 O 430.289 1.07572 5.60165 0
M  V30 4756 O 429.223 2.97884 5.23019 0
M  V30 4757 H 433.049 2.28909 1.99585 0
M  V30 4758 H 430.634 1.16818 0.931344 0
M  V30 4759 H 432.516 1.01283 4.09047 0
M  V30 4760 H 431.191 0.180292 3.23198 0
M  V30 4761 H 430.098 2.46036 2.81811 0
M  V30 4762 H 431.431 3.22221 3.72068 0
M  V30 4763 N 433.083 -1.0153 1.20538 0
M  V30 4764 C 434.016 -2.09759 0.898695 0
M  V30 4765 C 434.994 -1.61909 -0.149733 0
M  V30 4766 O 436.178 -1.88486 -0.0230293 0
M  V30 4767 C 433.305 -3.36913 0.347512 0
M  V30 4768 C 432.351 -4.03655 1.37713 0
M  V30 4769 S 433.184 -4.47402 2.94265 0
M  V30 4770 C 434.34 -5.77756 2.40726 0
M  V30 4771 H 434.573 -2.3545 1.81523 0
M  V30 4772 H 432.106 -1.14665 1.03399 0
M  V30 4773 H 434.064 -4.10484 0.0360518 0
M  V30 4774 H 432.725 -3.09291 -0.547546 0
M  V30 4775 H 431.918 -4.9514 0.940872 0
M  V30 4776 H 431.52 -3.36313 1.63614 0
M  V30 4777 H 433.812 -6.52994 1.80569 0
M  V30 4778 H 434.755 -6.2618 3.30612 0
M  V30 4779 H 435.163 -5.34081 1.82806 0
M  V30 4780 N 434.561 -1.01147 -1.20859 0
M  V30 4781 C 435.977 -0.725422 -1.42161 0
M  V30 4782 C 436.177 0.696919 -1.89064 0
M  V30 4783 O 435.233 1.46539 -2.05627 0
M  V30 4784 C 436.546 -1.74678 -2.44761 0
M  V30 4785 C 438.094 -1.76433 -2.58535 0
M  V30 4786 C 438.569 -2.77481 -3.64374 0
M  V30 4787 N 440.06 -2.76189 -3.71852 0
M  V30 4788 C 440.795 -3.51035 -4.53389 0
M  V30 4789 N 440.291 -4.35541 -5.38773 0
M  V30 4790 N 442.084 -3.39655 -4.47873 0
M  V30 4791 H 434.235 -1.92979 -0.887282 0
M  V30 4792 H 436.498 -0.833327 -0.451962 0
M  V30 4793 H 436.204 -2.76551 -2.17285 0
M  V30 4794 H 436.078 -1.55472 -3.43669 0
M  V30 4795 H 438.465 -0.75248 -2.85345 0
M  V30 4796 H 438.546 -1.99712 -1.5984 0
M  V30 4797 H 438.19 -3.78827 -3.38308 0
M  V30 4798 H 438.12 -2.51466 -4.6268 0
M  V30 4799 H 440.611 -2.14885 -3.10858 0
M  V30 4800 H 440.924 -4.89432 -5.98061 0
M  V30 4801 H 439.269 -4.39621 -5.38292 0
M  V30 4802 H 442.46 -2.73063 -3.80203 0
M  V30 4803 H 442.633 -3.9824 -5.11184 0
M  V30 4804 N 436.039 1.36541 -0.78704 0
M  V30 4805 C 437.286 1.99304 -0.358341 0
M  V30 4806 C 437.614 1.62467 1.06933 0
M  V30 4807 O 436.869 0.870019 1.75297 0
M  V30 4808 C 437.168 3.54343 -0.466485 0
M  V30 4809 C 436.834 4.10993 -1.85461 0
M  V30 4810 C 435.496 4.26177 -2.23443 0
M  V30 4811 C 437.848 4.41895 -2.76366 0
M  V30 4812 C 435.176 4.69573 -3.51736 0
M  V30 4813 C 437.528 4.86722 -4.04084 0
M  V30 4814 C 436.192 5.00112 -4.42091 0
M  V30 4815 H 435.462 0.729306 -0.131126 0
M  V30 4816 H 438.109 1.63068 -1.00404 0
M  V30 4817 H 436.414 3.90918 0.262719 0
M  V30 4818 H 438.111 4.00833 -0.115854 0
M  V30 4819 H 434.701 3.99612 -1.54946 0
M  V30 4820 H 438.885 4.29735 -2.48277 0
M  V30 4821 H 434.141 4.78127 -3.81057 0
M  V30 4822 H 438.315 5.09598 -4.7464 0
M  V30 4823 H 435.942 5.33498 -5.41557 0
M  V30 4824 N 437.518 0.538854 1.48102 0
M  V30 4825 C 438.748 0.0122958 2.06596 0
M  V30 4826 C 439.156 -1.27861 1.39457 0
M  V30 4827 O 438.499 -1.77348 0.478907 0
M  V30 4828 C 438.561 -0.273131 3.58461 0
M  V30 4829 C 438.225 0.92561 4.47528 0
M  V30 4830 C 439.222 1.82637 4.86765 0
M  V30 4831 C 436.907 1.13511 4.89306 0
M  V30 4832 C 438.901 2.92047 5.66558 0
M  V30 4833 C 436.588 2.23233 5.68868 0
M  V30 4834 C 437.586 3.12333 6.07402 0
M  V30 4835 O 437.274 4.20155 6.85365 0
M  V30 4836 H 437.006 0.0344283 0.675123 0
M  V30 4837 H 439.56 0.746494 1.91355 0
M  V30 4838 H 437.79 -1.06141 3.71848 0
M  V30 4839 H 439.479 -0.742842 3.99045 0
M  V30 4840 H 440.245 1.67649 4.55103 0
M  V30 4841 H 436.124 0.450835 4.5879 0
M  V30 4842 H 439.668 3.6162 5.96554 0
M  V30 4843 H 435.565 2.38201 5.99942 0
M  V30 4844 H 436.333 4.17975 7.03732 0
M  V30 4845 N 438.996 -1.55193 0.274407 0
M  V30 4846 C 439.959 -2.212 -0.600279 0
M  V30 4847 C 440.959 -1.18963 -1.08187 0
M  V30 4848 O 442.149 -1.43873 -0.982158 0
M  V30 4849 C 439.281 -2.87739 -1.82809 0
M  V30 4850 H 440.474 -2.9989 -0.0239682 0
M  V30 4851 H 438.027 -1.5628 0.0250192 0
M  V30 4852 H 438.762 -2.13058 -2.44493 0
M  V30 4853 H 438.547 -3.62658 -1.49069 0
M  V30 4854 H 440.037 -3.38171 -2.45011 0
M  V30 4855 N 440.474 -0.00167713 -1.576 0
M  V30 4856 C 441.702 0.693759 -1.94922 0
M  V30 4857 C 442.117 1.67215 -0.876626 0
M  V30 4858 O 441.474 1.81929 0.144279 0
M  V30 4859 C 441.525 1.42416 -3.32265 0
M  V30 4860 O 441.246 0.485014 -4.35407 0
M  V30 4861 C 442.747 2.21395 -3.84056 0
M  V30 4862 H 439.967 0.193118 -0.642609 0
M  V30 4863 H 442.511 -0.0532952 -2.04431 0
M  V30 4864 H 440.666 2.12284 -3.24059 0
M  V30 4865 H 441.08 1.00053 -5.14868 0
M  V30 4866 H 442.554 2.67996 -4.82578 0
M  V30 4867 H 443.031 3.04142 -3.16851 0
M  V30 4868 H 443.637 1.56542 -3.95443 0
M  V30 4869 N 441.952 1.55251 0.271103 0
M  V30 4870 C 442.862 1.9136 1.35714 0
M  V30 4871 C 443.878 0.811075 1.5394 0
M  V30 4872 O 445.054 1.11031 1.6803 0
M  V30 4873 C 442.119 2.1798 2.69603 0
M  V30 4874 C 441.18 3.4153 2.60107 0
M  V30 4875 C 440.413 3.66871 3.8761 0
M  V30 4876 O 440.636 2.94689 4.8838 0
M  V30 4877 O 439.57 4.60405 3.87699 0
M  V30 4878 H 443.396 2.83815 1.08088 0
M  V30 4879 H 440.981 1.41821 0.469792 0
M  V30 4880 H 442.863 2.36518 3.48765 0
M  V30 4881 H 441.538 1.28708 2.97012 0
M  V30 4882 H 440.445 3.28325 1.79314 0
M  V30 4883 H 441.778 4.31027 2.37647 0
M  V30 4884 N 443.43 -0.535701 1.48216 0
M  V30 4885 C 444.679 -1.28828 1.55197 0
M  V30 4886 C 444.992 -1.94263 0.228278 0
M  V30 4887 O 446.198 -2.70927 0.176278 0
M  V30 4888 C 444.654 -2.33727 2.73678 0
M  V30 4889 C 444.262 -1.74386 4.12666 0
M  V30 4890 C 446.006 -3.1003 2.89968 0
M  V30 4891 C 443.913 -2.77192 5.22416 0
M  V30 4892 H 442.843 -0.484484 0.577747 0
M  V30 4893 H 445.494 -0.56646 1.74538 0
M  V30 4894 H 443.876 -3.08919 2.4776 0
M  V30 4895 H 445.05 -1.05421 4.48579 0
M  V30 4896 H 443.365 -1.10595 4.01445 0
M  V30 4897 H 445.962 -3.86842 3.6913 0
M  V30 4898 H 446.305 -3.65542 1.9921 0
M  V30 4899 H 446.838 -2.41952 3.15759 0
M  V30 4900 H 443.577 -2.26507 6.15122 0
M  V30 4901 H 443.097 -3.44502 4.90998 0
M  V30 4902 H 444.776 -3.40285 5.50286 0
M  V30 4903 N 444.908 -1.36708 -0.784132 0
M  V30 4904 C 446.157 -1.30559 -1.53744 0
M  V30 4905 C 446.47 0.111374 -1.95283 0
M  V30 4906 O 447.676 0.29527 -2.6989 0
M  V30 4907 C 446.132 -2.29098 -2.77565 0
M  V30 4908 C 445.74 -3.76258 -2.43174 0
M  V30 4909 C 447.484 -2.31936 -3.55536 0
M  V30 4910 C 445.391 -4.6656 -3.63422 0
M  V30 4911 H 444.321 -0.48518 -0.577162 0
M  V30 4912 H 446.972 -1.62101 -0.859981 0
M  V30 4913 H 445.354 -1.90557 -3.47137 0
M  V30 4914 H 446.528 -4.23565 -1.81465 0
M  V30 4915 H 444.843 -3.76246 -1.78403 0
M  V30 4916 H 447.44 -2.9661 -4.44889 0
M  V30 4917 H 447.783 -1.3294 -3.94503 0
M  V30 4918 H 448.316 -2.6912 -2.92949 0
M  V30 4919 H 445.055 -5.66638 -3.29547 0
M  V30 4920 H 444.575 -4.23966 -4.24279 0
M  V30 4921 H 446.254 -4.8309 -4.30387 0
M  V30 4922 N 446.386 1.0089 -1.21074 0
M  V30 4923 C 447.316 2.1145 -0.990523 0
M  V30 4924 C 448.297 1.69897 0.0831699 0
M  V30 4925 O 449.482 1.94052 -0.0758853 0
M  V30 4926 C 446.612 3.42914 -0.550177 0
M  V30 4927 C 445.566 3.98244 -1.56799 0
M  V30 4928 C 444.892 5.25568 -0.984013 0
M  V30 4929 C 446.192 4.30752 -2.95381 0
M  V30 4930 H 447.886 2.3013 -1.91521 0
M  V30 4931 H 445.432 1.10592 -0.92225 0
M  V30 4932 H 447.385 4.19653 -0.383305 0
M  V30 4933 H 446.109 3.24014 0.41015 0
M  V30 4934 H 444.768 3.23621 -1.72236 0
M  V30 4935 H 444.416 5.02998 -0.0155216 0
M  V30 4936 H 444.116 5.63551 -1.66384 0
M  V30 4937 H 445.64 6.04955 -0.828378 0
M  V30 4938 H 447.054 4.98349 -2.8341 0
M  V30 4939 H 445.451 4.79869 -3.60341 0
M  V30 4940 H 446.521 3.39192 -3.46521 0
M  V30 4941 N 447.864 1.01787 1.20321 0
M  V30 4942 C 449.112 0.706538 1.89347 0
M  V30 4943 C 449.433 -0.766289 1.79313 0
M  V30 4944 O 448.703 -1.55126 1.19635 0
M  V30 4945 H 447.283 0.258348 0.700903 0
M  V30 4946 H 449.945 1.28974 1.46122 0
M  V30 4947 H 449.041 0.991066 2.95946 0
M  V30 4948 N 449.342 -1.36122 0.79427 0
M  V30 4949 C 450.272 -2.32551 0.210328 0
M  V30 4950 C 451.253 -1.56884 -0.657386 0
M  V30 4951 O 452.438 -1.85014 -0.590207 0
M  V30 4952 C 449.568 -3.41128 -0.651819 0
M  V30 4953 C 448.522 -4.27842 0.116395 0
M  V30 4954 C 447.848 -5.2763 -0.86666 0
M  V30 4955 C 449.148 -5.05647 1.30837 0
M  V30 4956 H 450.842 -2.81636 1.01594 0
M  V30 4957 H 448.388 -1.35407 0.489981 0
M  V30 4958 H 450.341 -4.07581 -1.07031 0
M  V30 4959 H 449.065 -2.90622 -1.49019 0
M  V30 4960 H 447.724 -3.62952 0.515915 0
M  V30 4961 H 447.372 -4.73395 -1.70019 0
M  V30 4962 H 447.072 -5.86514 -0.35705 0
M  V30 4963 H 448.596 -5.96955 -1.28361 0
M  V30 4964 H 450.01 -5.65113 0.965393 0
M  V30 4965 H 448.407 -5.73967 1.75161 0
M  V30 4966 H 449.477 -4.37006 2.10128 0
M  V30 4967 N 450.82 -0.546701 -1.47814 0
M  V30 4968 C 451.73 0.21026 -2.33656 0
M  V30 4969 C 452.746 0.922413 -1.47538 0
M  V30 4970 O 453.922 0.893652 -1.80488 0
M  V30 4971 C 450.987 1.23348 -3.24016 0
M  V30 4972 C 450.048 0.529883 -4.26017 0
M  V30 4973 C 449.281 1.50435 -5.12059 0
M  V30 4974 O 449.504 2.73837 -5.00369 0
M  V30 4975 O 448.438 1.03459 -5.92942 0
M  V30 4976 H 452.264 -0.493605 -2.99662 0
M  V30 4977 H 449.849 -0.307427 -1.46203 0
M  V30 4978 H 451.731 1.82438 -3.79861 0
M  V30 4979 H 450.406 1.91945 -2.60651 0
M  V30 4980 H 449.313 -0.101948 -3.73961 0
M  V30 4981 H 450.646 -0.11445 -4.92067 0
M  V30 4982 N 452.299 1.55045 -0.282633 0
M  V30 4983 C 453.249 2.19514 0.616249 0
M  V30 4984 C 454.233 1.16216 1.11277 0
M  V30 4985 O 455.425 1.42004 1.05659 0
M  V30 4986 C 452.554 2.92548 1.7964 0
M  V30 4987 C 451.64 4.03142 1.31671 0
M  V30 4988 N 452.031 5.0276 0.553695 0
M  V30 4989 C 450.329 4.1635 1.59903 0
M  V30 4990 C 451.03 5.80923 0.30054 0
M  V30 4991 N 450.006 5.3651 0.875116 0
M  V30 4992 H 453.808 2.93889 0.0255363 0
M  V30 4993 H 451.322 1.62169 -0.0865362 0
M  V30 4994 H 453.319 3.37188 2.45173 0
M  V30 4995 H 451.979 2.19685 2.39099 0
M  V30 4996 H 452.99 5.17512 0.20032 0
M  V30 4997 H 449.667 3.54682 2.20243 0
M  V30 4998 H 451.057 6.7118 -0.311053 0
M  V30 4999 N 453.777 0.010035 1.57597 0
M  V30 5000 C 454.71 -1.01234 2.04516 0
M  V30 5001 C 455.688 -1.32886 0.937024 0
M  V30 5002 O 456.872 -1.44879 1.20592 0
M  V30 5003 C 453.999 -2.33738 2.45121 0
M  V30 5004 C 453.045 -2.17679 3.66767 0
M  V30 5005 S 453.878 -1.49343 5.14254 0
M  V30 5006 C 455.034 -2.83256 5.58137 0
M  V30 5007 H 455.267 -0.612866 2.90914 0
M  V30 5008 H 452.8 -0.201124 1.53084 0
M  V30 5009 H 454.758 -3.09922 2.69182 0
M  V30 5010 H 453.419 -2.70823 1.59103 0
M  V30 5011 H 452.612 -3.1559 3.92962 0
M  V30 5012 H 452.214 -1.4964 3.42759 0
M  V30 5013 H 454.506 -3.79538 5.6121 0
M  V30 5014 H 455.449 -2.61749 6.57946 0
M  V30 5015 H 455.857 -2.87627 4.85727 0
M  V30 5016 N 455.255 -1.55392 -0.262866 0
M  V30 5017 C 456.205 -1.85355 -1.32768 0
M  V30 5018 C 457.189 -0.713188 -1.44231 0
M  V30 5019 O 458.381 -0.974765 -1.47741 0
M  V30 5020 C 455.51 -2.13781 -2.68612 0
M  V30 5021 C 454.596 -3.34104 -2.61219 0
M  V30 5022 N 454.987 -4.53766 -2.2345 0
M  V30 5023 C 453.285 -3.36895 -2.92263 0
M  V30 5024 C 453.986 -5.35877 -2.26298 0
M  V30 5025 N 452.962 -4.74536 -2.65172 0
M  V30 5026 H 456.764 -2.75413 -1.02591 0
M  V30 5027 H 454.278 -1.55405 -0.471503 0
M  V30 5028 H 456.275 -2.33407 -3.45437 0
M  V30 5029 H 454.935 -1.25013 -2.99669 0
M  V30 5030 H 455.946 -4.79682 -1.95258 0
M  V30 5031 H 452.623 -2.58351 -3.27965 0
M  V30 5032 H 454.013 -6.41577 -1.99572 0
M  V30 5033 N 456.733 0.527833 -1.48498 0
M  V30 5034 C 457.681 1.65313 -1.63628 0
M  V30 5035 C 458.675 1.6177 -0.502676 0
M  V30 5036 O 459.881 1.66601 -0.681469 0
M  V30 5037 H 456.256 0.547518 -0.515488 0
M  V30 5038 H 458.227 1.49696 -2.58135 0
M  V30 5039 C 456.976 3.03576 -1.6952 0
M  V30 5040 H 456.299 3.06997 -2.56111 0
M  V30 5041 H 457.739 3.81923 -1.84149 0
M  V30 5042 C 456.198 3.34089 -0.43432 0
M  V30 5043 O 456.728 3.99151 0.451852 0
M  V30 5044 N 454.934 2.88991 -0.305368 0
M  V30 5045 H 454.481 2.36222 -1.02747 0
M  V30 5046 H 454.439 3.09776 0.537249 0
M  V30 5047 N 458.211 1.37122 0.776871 0
M  V30 5048 C 459.627 1.1781 1.07671 0
M  V30 5049 C 459.827 0.0107454 2.01497 0
M  V30 5050 O 458.883 -0.650756 2.4397 0
M  V30 5051 C 460.196 2.49451 1.67913 0
M  V30 5052 C 461.744 2.55927 1.80195 0
M  V30 5053 C 462.219 3.87686 2.43851 0
M  V30 5054 N 463.71 3.891 2.51307 0
M  V30 5055 C 464.445 4.87797 3.014 0
M  V30 5056 N 463.941 5.96888 3.51705 0
M  V30 5057 N 465.734 4.75205 3.00227 0
M  V30 5058 H 457.885 2.11843 0.153778 0
M  V30 5059 H 460.148 0.938927 0.130844 0
M  V30 5060 H 459.854 3.35207 1.06439 0
M  V30 5061 H 459.728 2.66169 2.67271 0
M  V30 5062 H 462.115 1.70582 2.40803 0
M  V30 5063 H 462.196 2.43097 0.796069 0
M  V30 5064 H 461.84 4.73444 1.83884 0
M  V30 5065 H 461.77 3.97817 3.45035 0
M  V30 5066 H 464.261 3.10293 2.157 0
M  V30 5067 H 464.574 6.68155 3.88316 0
M  V30 5068 H 462.919 6.0054 3.49824 0
M  V30 5069 H 466.11 3.89103 2.60224 0
M  V30 5070 H 466.283 5.52279 3.38957 0
M  V30 5071 N 459.689 -1.00246 1.21608 0
M  V30 5072 C 460.936 -1.74061 1.03485 0
M  V30 5073 C 461.264 -1.89658 -0.431308 0
M  V30 5074 O 460.519 -1.42976 -1.33627 0
M  V30 5075 C 460.818 -3.15448 1.68009 0
M  V30 5076 C 460.484 -3.19792 3.17874 0
M  V30 5077 C 459.146 -3.20685 3.58768 0
M  V30 5078 C 461.498 -3.16835 4.13842 0
M  V30 5079 C 458.826 -3.16309 4.94131 0
M  V30 5080 C 461.178 -3.14001 5.49169 0
M  V30 5081 C 459.842 -3.13204 5.89457 0
M  V30 5082 H 459.112 -0.636934 0.378677 0
M  V30 5083 H 461.759 -1.17473 1.51236 0
M  V30 5084 H 460.064 -3.75284 1.12557 0
M  V30 5085 H 461.761 -3.71285 1.51487 0
M  V30 5086 H 458.351 -3.19842 2.85305 0
M  V30 5087 H 462.535 -3.15303 3.83272 0
M  V30 5088 H 457.791 -3.14032 5.24589 0
M  V30 5089 H 461.965 -3.10667 6.23265 0
M  V30 5090 H 459.592 -3.09568 6.94314 0
M  V30 5091 N 461.167 -1.02423 -1.1978 0
M  V30 5092 C 462.413 -0.719051 -1.89625 0
M  V30 5093 C 462.746 0.750083 -1.7913 0
M  V30 5094 O 462.021 1.54574 -1.18056 0
M  V30 5095 C 462.304 -1.16499 -3.40735 0
M  V30 5096 C 462.157 -2.695 -3.60125 0
M  V30 5097 C 463.476 -0.742166 -4.33797 0
M  V30 5098 H 460.595 -0.26269 -0.688595 0
M  V30 5099 H 463.237 -1.27333 -1.41018 0
M  V30 5100 H 461.387 -0.69341 -3.82262 0
M  V30 5101 H 463.059 -3.24569 -3.278 0
M  V30 5102 H 461.302 -3.10113 -3.03336 0
M  V30 5103 H 461.973 -2.95757 -4.66081 0
M  V30 5104 H 464.449 -1.1477 -3.99959 0
M  V30 5105 H 463.325 -1.08213 -5.38127 0
M  V30 5106 H 463.586 0.355747 -4.40666 0
M  V30 5107 N 462.645 1.35699 -0.801477 0
M  V30 5108 C 463.891 1.99208 -0.380022 0
M  V30 5109 C 464.224 1.63445 1.04878 0
M  V30 5110 O 463.499 0.895223 1.72673 0
M  V30 5111 C 463.782 3.55755 -0.557708 0
M  V30 5112 C 463.635 4.01332 -2.03107 0
M  V30 5113 C 464.954 4.40096 0.0197968 0
M  V30 5114 H 462.073 0.723667 -0.139552 0
M  V30 5115 H 464.715 1.60928 -1.01006 0
M  V30 5116 H 462.865 3.88494 -0.0213741 0
M  V30 5117 H 464.537 3.79026 -2.62939 0
M  V30 5118 H 462.78 3.52429 -2.52936 0
M  V30 5119 H 463.451 5.10234 -2.1063 0
M  V30 5120 H 465.927 4.13786 -0.438179 0
M  V30 5121 H 464.803 5.48735 -0.134477 0
M  V30 5122 H 465.064 4.2786 1.11303 0
M  V30 5123 N 464.123 0.554532 1.47522 0
M  V30 5124 C 465.353 0.0342074 2.06572 0
M  V30 5125 C 465.761 -1.26375 1.40805 0
M  V30 5126 O 465.104 -1.7683 0.49769 0
M  V30 5127 C 465.166 -0.235096 3.5873 0
M  V30 5128 C 464.83 0.973024 4.46521 0
M  V30 5129 C 465.827 1.8779 4.848 0
M  V30 5130 C 463.512 1.18694 4.88075 0
M  V30 5131 C 465.506 2.98039 5.63428 0
M  V30 5132 C 463.193 2.29254 5.66468 0
M  V30 5133 C 464.191 3.18757 6.04055 0
M  V30 5134 O 463.879 4.27401 6.8087 0
M  V30 5135 H 463.611 0.041587 0.67472 0
M  V30 5136 H 466.165 0.766748 1.90552 0
M  V30 5137 H 464.395 -1.02191 3.72953 0
M  V30 5138 H 466.084 -0.700477 3.9981 0
M  V30 5139 H 466.85 1.72467 4.53299 0
M  V30 5140 H 462.729 0.49947 4.58286 0
M  V30 5141 H 466.273 3.67926 5.92685 0
M  V30 5142 H 462.17 2.4455 5.97382 0
M  V30 5143 H 462.938 4.25415 6.9926 0
M  V30 5144 N 465.601 -1.54893 0.290851 0
M  V30 5145 C 467.017 -1.59476 -0.0628432 0
M  V30 5146 C 467.217 -1.30795 -1.5328 0
M  V30 5147 O 466.273 -1.07644 -2.28406 0
M  V30 5148 C 467.586 -2.98928 0.325962 0
M  V30 5149 C 469.134 -3.11799 0.273882 0
M  V30 5150 C 469.609 -4.53544 0.637359 0
M  V30 5151 N 471.1 -4.59433 0.589507 0
M  V30 5152 C 471.835 -5.67164 0.84335 0
M  V30 5153 N 471.331 -6.82975 1.16263 0
M  V30 5154 N 473.124 -5.56786 0.771091 0
M  V30 5155 H 465.275 -1.71798 1.24896 0
M  V30 5156 H 467.538 -0.801879 0.505663 0
M  V30 5157 H 467.244 -3.24805 1.34887 0
M  V30 5158 H 467.118 -3.75793 -0.325441 0
M  V30 5159 H 469.505 -2.85677 -0.739765 0
M  V30 5160 H 469.586 -2.37112 0.959766 0
M  V30 5161 H 469.23 -4.80394 1.64877 0
M  V30 5162 H 469.16 -5.26553 -0.0704866 0
M  V30 5163 H 471.651 -3.76245 0.353252 0
M  V30 5164 H 471.964 -7.61048 1.34257 0
M  V30 5165 H 470.309 -6.84552 1.20057 0
M  V30 5166 H 473.5 -4.65187 0.521383 0
M  V30 5167 H 473.673 -6.40664 0.972295 0
M  V30 5168 N 467.08 -0.0183926 -1.57589 0
M  V30 5169 C 468.357 0.700621 -1.82622 0
M  V30 5170 C 468.737 1.90951 -0.90005 0
M  V30 5171 O 468.085 2.28452 0.0469145 0
M  V30 5172 C 468.295 1.08899 -3.31575 0
M  V30 5173 C 469.643 1.48514 -3.9778 0
M  V30 5174 O 470.667 1.18227 -3.36007 0
M  V30 5175 O 469.526 2.04903 -5.06633 0
M  V30 5176 H 466.62 0.342743 -0.752633 0
M  V30 5177 H 469.166 -0.0452548 -1.6964 0
M  V30 5178 H 467.938 0.228113 -3.90635 0
M  V30 5179 H 467.561 1.89338 -3.49624 0
M  V30 5180 N 468.558 1.5553 0.254621 0
M  V30 5181 C 469.488 1.9268 1.31897 0
M  V30 5182 C 470.469 0.790797 1.506 0
M  V30 5183 O 471.654 1.05045 1.63337 0
M  V30 5184 C 468.784 2.21477 2.67517 0
M  V30 5185 C 467.738 3.37256 2.63519 0
M  V30 5186 C 467.064 3.51576 4.02862 0
M  V30 5187 C 468.364 4.73157 2.21179 0
M  V30 5188 H 470.058 2.81832 1.01051 0
M  V30 5189 H 467.604 1.35599 0.484662 0
M  V30 5190 H 469.557 2.46055 3.42104 0
M  V30 5191 H 468.281 1.29144 2.99982 0
M  V30 5192 H 466.94 3.12675 1.9139 0
M  V30 5193 H 466.588 2.56676 4.32581 0
M  V30 5194 H 466.288 4.2943 4.01078 0
M  V30 5195 H 467.812 3.78467 4.79161 0
M  V30 5196 H 469.226 4.97158 2.85494 0
M  V30 5197 H 467.623 5.54058 2.30521 0
M  V30 5198 H 468.693 4.70739 1.16332 0
M  V30 5199 N 470.036 -0.519951 1.48776 0
M  V30 5200 C 470.983 -1.62352 1.64044 0
M  V30 5201 C 471.953 -1.58945 0.482251 0
M  V30 5202 O 473.138 -1.77219 0.706971 0
M  V30 5203 C 470.278 -3.00579 1.69547 0
M  V30 5204 C 469.391 -3.14145 2.96541 0
M  V30 5205 C 468.526 -4.42991 2.93142 0
M  V30 5206 C 467.565 -4.50122 4.14797 0
M  V30 5207 N 466.702 -5.7037 4.09418 0
M  V30 5208 H 471.542 -1.48643 2.58281 0
M  V30 5209 H 469.079 -0.723516 1.28077 0
M  V30 5210 H 471.037 -3.80671 1.70719 0
M  V30 5211 H 469.667 -3.13036 0.787918 0
M  V30 5212 H 468.719 -2.27239 3.05068 0
M  V30 5213 H 470.031 -3.15275 3.86527 0
M  V30 5214 H 469.185 -5.31385 2.92772 0
M  V30 5215 H 467.924 -4.44398 2.00902 0
M  V30 5216 H 466.929 -3.60133 4.15433 0
M  V30 5217 H 468.154 -4.50445 5.08208 0
M  V30 5218 H 466.1 -5.72655 3.20004 0
M  V30 5219 H 466.017 -5.73036 4.93119 0
M  V30 5220 H 467.285 -6.61023 4.13121 0
M  V30 5221 N 471.514 -1.37532 -0.769588 0
M  V30 5222 C 472.925 -1.29382 -1.346 0
M  V30 5223 C 473.276 0.0576039 -1.96115 0
M  V30 5224 O 472.401 0.95947 -1.93967 0
M  V30 5225 C 472.996 -2.34298 -2.44724 0
M  V30 5226 C 471.555 -2.29776 -2.98128 0
M  V30 5227 C 470.702 -2.18013 -1.71364 0
M  V30 5228 H 473.653 -1.48123 -0.56968 0
M  V30 5229 H 473.674 -1.99089 -3.24259 0
M  V30 5230 H 473.186 -3.32645 -1.99922 0
M  V30 5231 H 471.287 -1.34959 -3.47299 0
M  V30 5232 H 471.4 -3.23276 -3.53595 0
M  V30 5233 H 469.764 -1.64595 -1.94372 0
M  V30 5234 H 470.547 -3.18278 -1.28662 0
M  V30 5235 N 472.992 0.995999 -1.22138 0
M  V30 5236 C 473.955 2.06711 -0.990109 0
M  V30 5237 C 474.955 1.60744 0.0422978 0
M  V30 5238 O 476.145 1.73095 -0.195895 0
M  V30 5239 C 473.277 3.37288 -0.49491 0
M  V30 5240 H 474.47 2.28661 -1.94047 0
M  V30 5241 H 472.023 1.16711 -1.03963 0
M  V30 5242 H 472.758 3.21022 0.459948 0
M  V30 5243 H 472.543 3.71986 -1.23971 0
M  V30 5244 H 474.033 4.16103 -0.353253 0
M  V30 5245 N 474.47 1.03057 1.19235 0
M  V30 5246 C 475.418 0.606391 2.24557 0
M  V30 5247 C 476.412 -0.361826 1.65491 0
M  V30 5248 O 477.618 -0.23022 1.78522 0
M  V30 5249 H 473.993 0.177838 0.730669 0
M  V30 5250 H 475.964 1.50529 2.5765 0
M  V30 5251 C 474.713 -0.0252127 3.47691 0
M  V30 5252 H 474.036 0.710838 3.9343 0
M  V30 5253 H 475.476 -0.284931 4.23042 0
M  V30 5254 C 473.935 -1.27229 3.11953 0
M  V30 5255 O 474.465 -2.36416 3.24762 0
M  V30 5256 N 472.671 -1.16169 2.6637 0
M  V30 5257 H 472.218 -0.273189 2.56147 0
M  V30 5258 H 472.176 -1.99703 2.42829 0
M  V30 5259 N 475.948 -1.35272 0.808662 0
M  V30 5260 C 477.197 -1.97963 0.386483 0
M  V30 5261 C 477.51 -1.64866 -1.05255 0
M  V30 5262 O 478.716 -2.20937 -1.57794 0
M  V30 5263 C 477.172 -3.54162 0.640096 0
M  V30 5264 C 476.78 -3.96166 2.0918 0
M  V30 5265 C 478.524 -4.23553 0.283376 0
M  V30 5266 C 476.431 -5.4522 2.29106 0
M  V30 5267 H 475.361 -0.740742 0.140774 0
M  V30 5268 H 478.012 -1.5431 0.993012 0
M  V30 5269 H 476.394 -3.95983 -0.0364117 0
M  V30 5270 H 477.568 -3.65491 2.80629 0
M  V30 5271 H 475.883 -3.3967 2.40859 0
M  V30 5272 H 478.48 -5.33124 0.410273 0
M  V30 5273 H 478.823 -4.09105 -0.770659 0
M  V30 5274 H 479.356 -3.8716 0.913884 0
M  V30 5275 H 476.095 -5.64638 3.32962 0
M  V30 5276 H 475.615 -5.77457 1.62184 0
M  V30 5277 H 477.294 -6.1171 2.1076 0
M  V30 5278 N 477.426 -0.562348 -1.47226 0
M  V30 5279 C 478.356 0.170627 -2.32876 0
M  V30 5280 C 479.337 0.903748 -1.44106 0
M  V30 5281 O 480.522 0.883206 -1.72954 0
M  V30 5282 C 477.652 1.19786 -3.25989 0
M  V30 5283 C 476.606 0.580875 -4.2404 0
M  V30 5284 C 475.932 1.71311 -5.06514 0
M  V30 5285 C 477.232 -0.468714 -5.20193 0
M  V30 5286 H 478.926 -0.544441 -2.94408 0
M  V30 5287 H 476.472 -0.263271 -1.41573 0
M  V30 5288 H 478.425 1.71884 -3.84752 0
M  V30 5289 H 477.149 1.94294 -2.62521 0
M  V30 5290 H 475.808 0.0811538 -3.6651 0
M  V30 5291 H 475.456 2.44736 -4.39447 0
M  V30 5292 H 475.156 1.30604 -5.72902 0
M  V30 5293 H 476.68 2.23725 -5.68137 0
M  V30 5294 H 478.094 -0.0336028 -5.7329 0
M  V30 5295 H 476.491 -0.794957 -5.94811 0
M  V30 5296 H 477.561 -1.36269 -4.65359 0
M  V30 5297 N 478.904 1.54736 -0.299062 0
M  V30 5298 C 479.834 2.26409 0.571085 0
M  V30 5299 C 480.815 1.2629 1.13951 0
M  V30 5300 O 482 1.55059 1.16921 0
M  V30 5301 C 479.13 3.00338 1.74396 0
M  V30 5302 C 478.084 4.07588 1.30599 0
M  V30 5303 C 477.41 4.69222 2.56387 0
M  V30 5304 C 478.71 5.20455 0.438645 0
M  V30 5305 H 480.404 2.99388 -0.0266991 0
M  V30 5306 H 477.95 1.43993 -0.0142812 0
M  V30 5307 H 479.903 3.49198 2.35878 0
M  V30 5308 H 478.627 2.24934 2.36796 0
M  V30 5309 H 477.286 3.59575 0.71424 0
M  V30 5310 H 476.934 3.9046 3.17097 0
M  V30 5311 H 476.634 5.41653 2.27784 0
M  V30 5312 H 478.158 5.20844 3.18675 0
M  V30 5313 H 479.572 5.65221 0.959085 0
M  V30 5314 H 477.969 5.99594 0.246466 0
M  V30 5315 H 479.039 4.8192 -0.536738 0
M  V30 5316 N 480.382 0.0267497 1.57577 0
M  V30 5317 C 481.659 -0.690926 1.82991 0
M  V30 5318 C 482.039 -1.90471 0.910164 0
M  V30 5319 O 481.387 -2.28474 -0.0347985 0
M  V30 5320 C 481.597 -1.07139 3.32148 0
M  V30 5321 C 482.945 -1.46402 3.98562 0
M  V30 5322 O 483.969 -1.16443 3.36629 0
M  V30 5323 O 482.828 -2.02214 5.07712 0
M  V30 5324 H 479.922 -0.338747 0.75444 0
M  V30 5325 H 482.468 0.0542506 1.69613 0
M  V30 5326 H 481.24 -0.207394 3.9075 0
M  V30 5327 H 480.863 -1.87481 3.50623 0
M  V30 5328 N 481.861 -1.55662 -0.24637 0
M  V30 5329 C 482.771 -1.93495 -1.32653 0
M  V30 5330 C 483.787 -0.835462 -1.5263 0
M  V30 5331 O 484.963 -1.1369 -1.66242 0
M  V30 5332 C 482.028 -2.22242 -2.66101 0
M  V30 5333 C 481.089 -3.45625 -2.54641 0
M  V30 5334 C 480.322 -3.72991 -3.81724 0
M  V30 5335 O 480.545 -3.02421 -4.8363 0
M  V30 5336 O 479.479 -4.66515 -3.80325 0
M  V30 5337 H 483.305 -2.85498 -1.03559 0
M  V30 5338 H 480.89 -1.42551 -0.44717 0
M  V30 5339 H 482.772 -2.42037 -3.44958 0
M  V30 5340 H 481.447 -1.33417 -2.94926 0
M  V30 5341 H 480.354 -3.31136 -1.74067 0
M  V30 5342 H 481.687 -4.34754 -2.3076 0
M  V30 5343 N 483.339 0.512053 -1.4905 0
M  V30 5344 C 484.289 1.61142 -1.61298 0
M  V30 5345 C 485.273 1.53908 -0.46916 0
M  V30 5346 O 486.465 1.61625 -0.721547 0
M  V30 5347 C 483.594 2.998 -1.67256 0
M  V30 5348 C 482.68 3.12072 -2.87179 0
M  V30 5349 N 483.071 2.94263 -4.11391 0
M  V30 5350 C 481.369 3.43156 -2.84886 0
M  V30 5351 C 482.07 3.10426 -4.91946 0
M  V30 5352 N 481.046 3.38808 -4.251 0
M  V30 5353 H 484.848 1.46011 -2.55065 0
M  V30 5354 H 482.362 0.717934 -1.45669 0
M  V30 5355 H 484.359 3.78794 -1.74128 0
M  V30 5356 H 483.019 3.1601 -0.746195 0
M  V30 5357 H 484.03 2.70661 -4.41546 0
M  V30 5358 H 480.707 3.65611 -2.01581 0
M  V30 5359 H 482.097 3.01243 -6.00585 0
M  V30 5360 N 484.817 1.37938 0.762283 0
M  V30 5361 C 486.065 1.33404 1.51815 0
M  V30 5362 C 486.386 -0.0780975 1.94844 0
M  V30 5363 O 485.656 -1.02405 1.67003 0
M  V30 5364 H 484.236 0.490839 0.563104 0
M  V30 5365 H 486.898 1.72527 0.906669 0
M  V30 5366 H 485.994 1.97926 2.41313 0
M  V30 5367 N 486.295 -0.989507 1.22664 0
M  V30 5368 C 487.245 -2.06478 0.967005 0
M  V30 5369 C 488.229 -1.60682 -0.0836374 0
M  V30 5370 O 489.421 -1.76541 0.127322 0
M  V30 5371 C 486.55 -3.38861 0.550313 0
M  V30 5372 C 485.636 -3.9128 1.63587 0
M  V30 5373 N 486.027 -4.16884 2.86429 0
M  V30 5374 C 484.325 -4.1972 1.50834 0
M  V30 5375 C 485.026 -4.5954 3.56648 0
M  V30 5376 N 484.002 -4.63434 2.84131 0
M  V30 5377 H 487.804 -2.24219 1.90008 0
M  V30 5378 H 485.318 -1.17153 1.12467 0
M  V30 5379 H 487.315 -4.15465 0.345612 0
M  V30 5380 H 485.975 -3.22518 -0.375822 0
M  V30 5381 H 486.986 -4.04976 3.22823 0
M  V30 5382 H 483.663 -4.1243 0.648643 0
M  V30 5383 H 485.053 -4.87944 4.61909 0
M  V30 5384 N 487.773 -1.03688 -1.18687 0
M  V30 5385 C 488.736 -0.629115 -2.20397 0
M  V30 5386 C 489.736 0.311495 -1.57754 0
M  V30 5387 O 490.926 0.0974107 -1.73927 0
M  V30 5388 C 488.058 0.0782231 -3.4081 0
M  V30 5389 H 489.251 -1.52915 -2.57987 0
M  V30 5390 H 486.804 -0.828988 -1.32505 0
M  V30 5391 H 487.539 0.992233 -3.08748 0
M  V30 5392 H 487.324 -0.597776 -3.87517 0
M  V30 5393 H 488.814 0.350156 -4.16129 0
M  V30 5394 N 489.251 1.34841 -0.815825 0
M  V30 5395 C 490.667 1.51543 -0.500697 0
M  V30 5396 C 490.867 1.76261 0.976444 0
M  V30 5397 O 489.923 1.8094 1.76117 0
M  V30 5398 C 491.236 2.68487 -1.35407 0
M  V30 5399 C 492.784 2.82368 -1.35046 0
M  V30 5400 C 493.259 4.02347 -2.18816 0
M  V30 5401 N 494.75 4.09542 -2.16402 0
M  V30 5402 C 495.485 5.01517 -2.77971 0
M  V30 5403 N 494.981 5.98763 -3.48503 0
M  V30 5404 N 496.774 4.94334 -2.67563 0
M  V30 5405 H 488.925 1.17055 -1.77234 0
M  V30 5406 H 491.188 0.573481 -0.754866 0
M  V30 5407 H 490.894 2.56829 -2.40274 0
M  V30 5408 H 490.768 3.63321 -1.01377 0
M  V30 5409 H 493.155 2.93471 -0.309604 0
M  V30 5410 H 493.236 1.88363 -1.73069 0
M  V30 5411 H 492.88 3.92004 -3.22948 0
M  V30 5412 H 492.81 4.95551 -1.78148 0
M  V30 5413 H 495.301 3.39932 -1.65091 0
M  V30 5414 H 495.614 6.6556 -3.92747 0
M  V30 5415 H 493.959 5.98909 -3.52609 0
M  V30 5416 H 497.15 4.1732 -2.12041 0
M  V30 5417 H 497.323 5.6582 -3.15834 0
M  V30 5418 N 490.729 0.570148 1.46925 0
M  V30 5419 C 491.978 0.0487352 2.01641 0
M  V30 5420 C 492.291 -1.31433 1.44861 0
M  V30 5421 O 493.497 -1.92638 1.91318 0
M  V30 5422 C 491.953 0.0365817 3.59881 0
M  V30 5423 C 491.561 1.39719 4.25655 0
M  V30 5424 C 493.305 -0.431545 4.22301 0
M  V30 5425 C 491.212 1.34345 5.75939 0
M  V30 5426 H 490.142 0.0144492 0.753862 0
M  V30 5427 H 492.793 0.719928 1.68788 0
M  V30 5428 H 491.175 -0.700522 3.89755 0
M  V30 5429 H 492.349 2.15303 4.07408 0
M  V30 5430 H 490.664 1.80431 3.75278 0
M  V30 5431 H 493.261 -0.490354 5.32447 0
M  V30 5432 H 493.604 -1.44638 3.90366 0
M  V30 5433 H 494.137 0.251102 3.97007 0
M  V30 5434 H 490.876 2.33469 6.12513 0
M  V30 5435 H 490.396 0.629615 5.96486 0
M  V30 5436 H 492.075 1.051 6.38407 0
M  V30 5437 N 492.207 -1.54576 0.307264 0
M  V30 5438 C 493.432 -2.05139 -0.305379 0
M  V30 5439 C 493.857 -1.18278 -1.46259 0
M  V30 5440 O 493.215 -0.188243 -1.8032 0
M  V30 5441 C 493.263 -3.53066 -0.733283 0
M  V30 5442 O 492.367 -3.69206 -1.83741 0
M  V30 5443 H 491.708 -0.661444 -0.0582105 0
M  V30 5444 H 494.238 -1.99569 0.450931 0
M  V30 5445 H 494.248 -3.95034 -1.02039 0
M  V30 5446 H 492.923 -4.15746 0.113198 0
M  V30 5447 H 491.5 -3.39143 -1.55037 0
M  V30 5448 N 493.685 -0.035106 -1.57561 0
M  V30 5449 C 494.962 0.681212 -1.83354 0
M  V30 5450 C 495.342 1.89986 -0.920252 0
M  V30 5451 O 494.69 2.28489 0.0226815 0
M  V30 5452 C 494.9 1.05376 -3.32712 0
M  V30 5453 C 496.248 1.44286 -3.99333 0
M  V30 5454 O 497.272 1.14656 -3.37242 0
M  V30 5455 O 496.131 1.99518 -5.08778 0
M  V30 5456 H 493.225 0.334741 -0.756226 0
M  V30 5457 H 495.771 -0.0632448 -1.69582 0
M  V30 5458 H 494.543 0.186668 -3.90854 0
M  V30 5459 H 494.166 1.85619 -3.51613 0
M  V30 5460 N 495.163 1.55791 0.238111 0
M  V30 5461 C 496.093 1.94068 1.29846 0
M  V30 5462 C 497.074 0.806726 1.49753 0
M  V30 5463 O 498.259 1.06772 1.62214 0
M  V30 5464 C 495.389 2.24302 2.65153 0
M  V30 5465 C 494.343 3.40032 2.59927 0
M  V30 5466 C 493.669 3.55829 3.99111 0
M  V30 5467 C 494.969 4.75476 2.16148 0
M  V30 5468 H 496.663 2.82887 0.980563 0
M  V30 5469 H 494.209 1.36105 0.470253 0
M  V30 5470 H 496.162 2.4967 3.39475 0
M  V30 5471 H 494.886 1.32318 2.98596 0
M  V30 5472 H 493.545 3.14687 1.88063 0
M  V30 5473 H 493.193 2.6125 4.29834 0
M  V30 5474 H 492.893 4.3366 3.96501 0
M  V30 5475 H 494.417 3.83528 4.7512 0
M  V30 5476 H 495.831 5.00158 2.80205 0
M  V30 5477 H 494.228 5.56472 2.24631 0
M  V30 5478 H 495.298 4.71946 1.11333 0
M  V30 5479 N 496.642 -0.504142 1.49319 0
M  V30 5480 C 497.89 -1.25598 1.58334 0
M  V30 5481 C 498.211 -1.93114 0.270538 0
M  V30 5482 O 497.481 -1.82585 -0.709891 0
M  V30 5483 H 496.061 -0.466571 0.58337 0
M  V30 5484 H 498.723 -0.584547 1.85928 0
M  V30 5485 H 497.819 -2.02159 2.37778 0
M  V30 5486 N 498.12 -1.38341 -0.754957 0
M  V30 5487 C 499.05 -1.38176 -1.88227 0
M  V30 5488 C 500.031 -0.247873 -1.68284 0
M  V30 5489 O 501.216 -0.45075 -1.88896 0
M  V30 5490 C 498.346 -1.20471 -3.25736 0
M  V30 5491 C 497.3 -2.3105 -3.60278 0
M  V30 5492 C 496.626 -1.98452 -4.96509 0
M  V30 5493 C 497.926 -3.73305 -3.65295 0
M  V30 5494 H 499.62 -2.32512 -1.88622 0
M  V30 5495 H 497.166 -1.1192 -0.906082 0
M  V30 5496 H 499.119 -1.18982 -4.04254 0
M  V30 5497 H 497.843 -0.225965 -3.25817 0
M  V30 5498 H 496.502 -2.31723 -2.84078 0
M  V30 5499 H 496.15 -0.990641 -4.93148 0
M  V30 5500 H 495.85 -2.7251 -5.20588 0
M  V30 5501 H 497.374 -1.98578 -5.77407 0
M  V30 5502 H 498.788 -3.7467 -4.3393 0
M  V30 5503 H 497.185 -4.46557 -4.00883 0
M  V30 5504 H 498.255 -4.05719 -2.65556 0
M  V30 5505 N 499.598 0.982988 -1.23187 0
M  V30 5506 C 500.561 2.05649 -1.01198 0
M  V30 5507 C 501.561 1.6078 0.0252464 0
M  V30 5508 O 502.751 1.72878 -0.214243 0
M  V30 5509 C 499.883 3.36744 -0.530656 0
M  V30 5510 H 501.076 2.2659 -1.96461 0
M  V30 5511 H 498.629 1.15602 -1.05195 0
M  V30 5512 H 499.364 3.21492 0.425873 0
M  V30 5513 H 499.149 3.7065 -1.2791 0
M  V30 5514 H 500.639 4.15705 -0.397366 0
M  V30 5515 N 501.076 1.04316 1.18135 0
M  V30 5516 C 502.316 0.756937 1.89868 0
M  V30 5517 C 502.68 -0.702609 1.78682 0
M  V30 5518 O 503.881 -1.10255 2.45148 0
M  V30 5519 C 502.152 1.21327 3.36176 0
M  V30 5520 S 503.711 1.05307 4.25976 0
M  V30 5521 H 500.529 0.275143 0.655604 0
M  V30 5522 H 503.131 1.33597 1.42731 0
M  V30 5523 H 501.835 2.27086 3.41848 0
M  V30 5524 H 501.366 0.628137 3.88353 0
M  V30 5525 H 503.381 -0.0280093 4.96192 0
M  V30 5526 N 502.554 -1.34406 0.822964 0
M  V30 5527 C 503.831 -1.92733 0.333641 0
M  V30 5528 C 504.211 -1.75107 -1.17901 0
M  V30 5529 O 503.559 -1.12983 -1.98613 0
M  V30 5530 C 503.769 -3.40557 0.763023 0
M  V30 5531 C 505.117 -4.17709 0.761879 0
M  V30 5532 O 506.141 -3.49141 0.705606 0
M  V30 5533 O 505 -5.40082 0.835109 0
M  V30 5534 H 502.094 -0.821964 0.0911249 0
M  V30 5535 H 504.64 -1.4338 0.907757 0
M  V30 5536 H 503.412 -3.47187 1.8049 0
M  V30 5537 H 503.035 -3.97259 0.164605 0
M  V30 5538 N 504.032 -0.577932 -1.46621 0
M  V30 5539 C 505.279 -0.0616879 -2.02406 0
M  V30 5540 C 505.607 1.29638 -1.44997 0
M  V30 5541 O 504.862 1.86176 -0.60308 0
M  V30 5542 C 505.161 0.0590832 -3.57351 0
M  V30 5543 C 504.827 -1.23077 -4.33777 0
M  V30 5544 C 503.489 -1.58416 -4.54376 0
M  V30 5545 C 505.841 -2.08457 -4.77698 0
M  V30 5546 C 503.169 -2.78943 -5.16147 0
M  V30 5547 C 505.521 -3.28204 -5.408 0
M  V30 5548 C 504.185 -3.63832 -5.59627 0
M  V30 5549 H 503.455 -0.0225732 -0.740656 0
M  V30 5550 H 506.102 -0.753609 -1.76048 0
M  V30 5551 H 504.407 0.834104 -3.82818 0
M  V30 5552 H 506.104 0.474202 -3.98186 0
M  V30 5553 H 502.694 -0.945652 -4.18038 0
M  V30 5554 H 506.878 -1.82459 -4.61544 0
M  V30 5555 H 502.134 -3.06689 -5.28916 0
M  V30 5556 H 506.308 -3.94634 -5.73792 0
M  V30 5557 H 503.935 -4.57315 -6.07262 0
M  V30 5558 N 505.51 1.54411 -0.315457 0
M  V30 5559 C 506.735 2.05299 0.294496 0
M  V30 5560 C 507.16 1.19052 1.4563 0
M  V30 5561 O 506.518 0.197804 1.80218 0
M  V30 5562 C 506.566 3.5345 0.714549 0
M  V30 5563 O 505.67 3.70175 1.81781 0
M  V30 5564 H 505.011 0.661743 0.0547019 0
M  V30 5565 H 507.541 1.99327 -0.461508 0
M  V30 5566 H 507.551 3.9557 0.999426 0
M  V30 5567 H 506.226 4.1568 -0.135244 0
M  V30 5568 H 504.803 3.3996 1.53236 0
M  V30 5569 N 506.988 0.0434614 1.5754 0
M  V30 5570 C 507.935 -0.93356 2.11077 0
M  V30 5571 C 508.905 -1.31383 1.01626 0
M  V30 5572 O 510.09 -1.40465 1.29129 0
M  V30 5573 C 507.23 -2.20578 2.65404 0
M  V30 5574 C 506.343 -1.88068 3.88914 0
M  V30 5575 C 505.478 -3.09691 4.31584 0
M  V30 5576 C 504.517 -2.73067 5.47815 0
M  V30 5577 N 503.654 -3.87359 5.85574 0
M  V30 5578 H 508.494 -0.470118 2.94268 0
M  V30 5579 H 506.031 -0.220434 1.45439 0
M  V30 5580 H 507.989 -2.95011 2.94999 0
M  V30 5581 H 506.619 -2.64513 1.85021 0
M  V30 5582 H 505.671 -1.03816 3.6596 0
M  V30 5583 H 506.983 -1.57104 4.73413 0
M  V30 5584 H 506.137 -3.92431 4.62691 0
M  V30 5585 H 504.876 -3.43827 3.45882 0
M  V30 5586 H 503.881 -1.88742 5.16388 0
M  V30 5587 H 505.106 -2.40131 6.35227 0
M  V30 5588 H 503.052 -4.21311 5.02825 0
M  V30 5589 H 502.969 -3.60068 6.64746 0
M  V30 5590 H 504.237 -4.70761 6.21292 0
M  V30 5591 N 508.466 -1.55915 -0.229846 0
M  V30 5592 C 509.413 -1.91734 -1.28478 0
M  V30 5593 C 510.383 -0.773539 -1.46988 0
M  V30 5594 O 511.568 -1.02871 -1.60693 0
M  V30 5595 C 508.708 -2.23224 -2.63182 0
M  V30 5596 C 507.821 -3.50497 -2.52539 0
M  V30 5597 C 506.956 -3.71474 -3.79711 0
M  V30 5598 C 505.995 -4.92289 -3.63755 0
M  V30 5599 N 505.132 -5.09698 -4.82858 0
M  V30 5600 H 509.972 -2.81692 -0.972308 0
M  V30 5601 H 507.509 -1.39429 -0.468815 0
M  V30 5602 H 509.467 -2.3949 -3.41614 0
M  V30 5603 H 508.097 -1.36451 -2.92542 0
M  V30 5604 H 507.149 -3.4247 -1.65585 0
M  V30 5605 H 508.461 -4.39079 -2.36666 0
M  V30 5606 H 507.615 -3.87791 -4.66586 0
M  V30 5607 H 506.354 -2.81157 -3.985 0
M  V30 5608 H 505.359 -4.7593 -2.75264 0
M  V30 5609 H 506.584 -5.84083 -3.46445 0
M  V30 5610 H 504.53 -4.22322 -5.01976 0
M  V30 5611 H 504.447 -5.92399 -4.69681 0
M  V30 5612 H 505.715 -5.30443 -5.71183 0
M  V30 5613 N 509.944 0.496216 -1.49584 0
M  V30 5614 C 510.891 1.59722 -1.66606 0
M  V30 5615 C 511.861 1.58158 -0.507477 0
M  V30 5616 O 513.046 1.76072 -0.735076 0
M  V30 5617 C 510.186 2.97844 -1.74308 0
M  V30 5618 C 509.299 3.09388 -3.01502 0
M  V30 5619 C 508.434 4.38271 -3.00153 0
M  V30 5620 C 507.473 4.43466 -4.21906 0
M  V30 5621 N 506.61 5.63784 -4.1844 0
M  V30 5622 H 511.45 1.44515 -2.60613 0
M  V30 5623 H 508.987 0.703048 -1.29212 0
M  V30 5624 H 510.945 3.77907 -1.76754 0
M  V30 5625 H 509.575 3.11743 -0.837619 0
M  V30 5626 H 508.627 2.22357 -3.08645 0
M  V30 5627 H 509.939 3.09085 -3.91494 0
M  V30 5628 H 509.093 5.2666 -3.01188 0
M  V30 5629 H 507.832 4.41146 -2.07947 0
M  V30 5630 H 506.837 3.53478 -4.21109 0
M  V30 5631 H 508.062 4.42303 -5.1531 0
M  V30 5632 H 506.008 5.67491 -3.29074 0
M  V30 5633 H 505.925 5.65118 -5.02173 0
M  V30 5634 H 507.193 6.54367 -4.23585 0
M  V30 5635 N 511.423 1.38739 0.74761 0
M  V30 5636 C 512.834 1.31507 1.32524 0
M  V30 5637 C 513.185 -0.0263963 1.96182 0
M  V30 5638 O 512.31 -0.92849 1.95469 0
M  V30 5639 C 512.905 2.38162 2.40966 0
M  V30 5640 C 511.464 2.34489 2.94434 0
M  V30 5641 C 510.611 2.20712 1.67873 0
M  V30 5642 H 513.562 1.4901 0.546043 0
M  V30 5643 H 513.583 2.04222 3.21051 0
M  V30 5644 H 513.095 3.35783 1.94605 0
M  V30 5645 H 511.196 1.40467 3.45108 0
M  V30 5646 H 511.309 3.28861 3.48407 0
M  V30 5647 H 509.673 1.67667 1.91729 0
M  V30 5648 H 510.456 3.20285 1.23582 0
M  V30 5649 N 512.901 -0.976442 1.23707 0
M  V30 5650 C 513.851 -2.0544 0.988851 0
M  V30 5651 C 514.835 -1.60762 -0.0665901 0
M  V30 5652 O 516.027 -1.76396 0.14604 0
M  V30 5653 C 513.156 -3.38258 0.586223 0
M  V30 5654 C 512.242 -3.89523 1.67728 0
M  V30 5655 N 512.633 -4.13823 2.90834 0
M  V30 5656 C 510.931 -4.18097 1.55277 0
M  V30 5657 C 511.632 -4.55731 3.61502 0
M  V30 5658 N 510.608 -4.60394 2.8903 0
M  V30 5659 H 514.41 -2.22191 1.92376 0
M  V30 5660 H 511.924 -1.15954 1.13704 0
M  V30 5661 H 513.921 -4.15075 0.389658 0
M  V30 5662 H 512.581 -3.22898 -0.341594 0
M  V30 5663 H 513.592 -4.01529 3.271 0
M  V30 5664 H 510.269 -4.11719 0.692351 0
M  V30 5665 H 511.659 -4.83018 4.67059 0
M  V30 5666 N 514.379 -1.04941 -1.1758 0
M  V30 5667 C 515.342 -0.652456 -2.19717 0
M  V30 5668 C 516.342 0.294745 -1.58076 0
M  V30 5669 O 517.532 0.0789579 -1.74021 0
M  V30 5670 C 514.664 0.0420712 -3.40874 0
M  V30 5671 H 515.857 -1.55642 -2.5635 0
M  V30 5672 H 513.41 -0.842995 -1.31618 0
M  V30 5673 H 514.145 0.95943 -3.09783 0
M  V30 5674 H 513.93 -0.638844 -3.86861 0
M  V30 5675 H 515.42 0.306 -4.16477 0
M  V30 5676 N 515.857 1.33968 -0.830081 0
M  V30 5677 C 517.082 2.02813 -0.433796 0
M  V30 5678 C 517.507 1.62076 0.954614 0
M  V30 5679 O 516.865 0.808955 1.62252 0
M  V30 5680 C 516.913 3.56348 -0.552115 0
M  V30 5681 O 516.017 4.10202 0.425191 0
M  V30 5682 H 515.358 0.639817 -0.177567 0
M  V30 5683 H 517.888 1.7106 -1.12248 0
M  V30 5684 H 517.898 4.05722 -0.430513 0
M  V30 5685 H 516.573 3.85344 -1.56471 0
M  V30 5686 H 515.15 3.71979 0.261878 0
M  V30 5687 N 517.335 0.585699 1.46312 0
M  V30 5688 C 518.581 0.0725284 2.0267 0
M  V30 5689 C 518.914 -1.28523 1.45586 0
M  V30 5690 O 518.189 -1.84283 0.622101 0
M  V30 5691 C 518.472 0.0099788 3.60099 0
M  V30 5692 C 518.325 1.39685 4.27561 0
M  V30 5693 C 519.644 -0.689117 4.34671 0
M  V30 5694 H 516.763 0.0278307 0.736474 0
M  V30 5695 H 519.405 0.753472 1.74421 0
M  V30 5696 H 517.555 -0.56992 3.84297 0
M  V30 5697 H 519.227 2.02215 4.14617 0
M  V30 5698 H 517.47 1.96374 3.86807 0
M  V30 5699 H 518.141 1.30553 5.36339 0
M  V30 5700 H 520.617 -0.196446 4.15636 0
M  V30 5701 H 519.493 -0.701921 5.44393 0
M  V30 5702 H 519.754 -1.75101 4.05946 0
M  V30 5703 N 518.813 -1.54241 0.323641 0
M  V30 5704 C 520.061 -2.00174 -0.278359 0
M  V30 5705 C 520.382 -1.2134 -1.52648 0
M  V30 5706 O 519.652 -0.315244 -1.93347 0
M  V30 5707 H 518.232 -0.739463 -0.105845 0
M  V30 5708 H 520.894 -1.89864 0.440204 0
M  V30 5709 H 519.99 -3.07486 -0.5347 0
M  V30 5710 N 520.291 -0.0518155 -1.57515 0
M  V30 5711 C 521.519 0.631395 -1.9703 0
M  V30 5712 C 521.934 1.64341 -0.92938 0
M  V30 5713 O 521.291 1.82296 0.0863266 0
M  V30 5714 C 521.342 1.31774 -3.36627 0
M  V30 5715 O 521.063 0.346247 -4.3673 0
M  V30 5716 C 522.564 2.09065 -3.90905 0
M  V30 5717 H 519.784 0.172576 -0.648428 0
M  V30 5718 H 522.328 -0.118306 -2.04158 0
M  V30 5719 H 520.483 2.01867 -3.30649 0
M  V30 5720 H 520.897 0.836226 -5.17791 0
M  V30 5721 H 522.371 2.52508 -4.9086 0
M  V30 5722 H 522.848 2.93908 -3.26366 0
M  V30 5723 H 523.454 1.43882 -4.00223 0
M  V30 5724 N 521.769 1.56035 0.221574 0
M  V30 5725 C 522.719 1.8881 1.27807 0
M  V30 5726 C 523.703 0.751177 1.42289 0
M  V30 5727 O 524.895 1.01359 1.45104 0
M  V30 5728 C 522.024 2.20828 2.6285 0
M  V30 5729 C 521.11 3.40912 2.52269 0
M  V30 5730 N 521.501 4.59531 2.1134 0
M  V30 5731 C 519.799 3.44526 2.83228 0
M  V30 5732 C 520.5 5.41689 2.1201 0
M  V30 5733 N 519.476 4.814 2.52497 0
M  V30 5734 H 523.278 2.78036 0.952529 0
M  V30 5735 H 520.792 1.566 0.430134 0
M  V30 5736 H 522.789 2.42483 3.39127 0
M  V30 5737 H 521.449 1.32914 2.9625 0
M  V30 5738 H 522.46 4.8469 1.82472 0
M  V30 5739 H 519.137 2.66956 3.21 0
M  V30 5740 H 520.527 6.46643 1.82491 0
M  V30 5741 N 523.247 -0.488276 1.49845 0
M  V30 5742 C 524.495 -1.23911 1.59657 0
M  V30 5743 C 524.816 -1.92816 0.291005 0
M  V30 5744 O 524.086 -1.83328 -0.690485 0
M  V30 5745 H 522.666 -0.460357 0.588286 0
M  V30 5746 H 525.328 -0.564794 1.86537 0
M  V30 5747 H 524.424 -1.99625 2.39909 0
M  V30 5748 N 524.725 -1.39134 -0.740242 0
M  V30 5749 C 525.955 -1.39132 -1.52728 0
M  V30 5750 C 526.363 0.0173133 -1.89192 0
M  V30 5751 O 525.706 0.997715 -1.54244 0
M  V30 5752 C 525.768 -2.1952 -2.84695 0
M  V30 5753 C 525.432 -3.68203 -2.70695 0
M  V30 5754 C 526.429 -4.61401 -2.39593 0
M  V30 5755 C 524.114 -4.11724 -2.8773 0
M  V30 5756 C 526.108 -5.96102 -2.25701 0
M  V30 5757 C 523.795 -5.46503 -2.73456 0
M  V30 5758 C 524.793 -6.38506 -2.42486 0
M  V30 5759 O 524.481 -7.70803 -2.28295 0
M  V30 5760 H 524.213 -0.477263 -0.478744 0
M  V30 5761 H 526.767 -1.83504 -0.922799 0
M  V30 5762 H 524.997 -1.69888 -3.47383 0
M  V30 5763 H 526.686 -2.1176 -3.46284 0
M  V30 5764 H 527.452 -4.29079 -2.26088 0
M  V30 5765 H 523.331 -3.4045 -3.10829 0
M  V30 5766 H 526.875 -6.6788 -2.0145 0
M  V30 5767 H 522.772 -5.78417 -2.86538 0
M  V30 5768 H 523.54 -7.8147 -2.43405 0
M  V30 5769 N 526.204 0.969867 -1.24223 0
M  V30 5770 C 527.137 2.06279 -0.975926 0
M  V30 5771 C 528.115 1.62353 0.0895385 0
M  V30 5772 O 529.299 1.88442 -0.0469418 0
M  V30 5773 C 526.426 3.35391 -0.472315 0
M  V30 5774 C 525.472 3.98266 -1.526 0
M  V30 5775 S 526.305 4.36172 -3.10667 0
M  V30 5776 C 527.461 5.68423 -2.62003 0
M  V30 5777 H 527.694 2.28551 -1.90137 0
M  V30 5778 H 525.227 1.10748 -1.07584 0
M  V30 5779 H 527.185 4.10068 -0.188376 0
M  V30 5780 H 525.846 3.1111 0.432378 0
M  V30 5781 H 525.039 4.91307 -1.12399 0
M  V30 5782 H 524.641 3.30009 -1.75983 0
M  V30 5783 H 526.933 6.45842 -2.0468 0
M  V30 5784 H 527.876 6.13478 -3.53625 0
M  V30 5785 H 528.284 5.26928 -2.02502 0
M  V30 5786 N 527.682 1.05563 1.17022 0
M  V30 5787 C 528.645 0.664098 2.19368 0
M  V30 5788 C 529.645 -0.286358 1.5823 0
M  V30 5789 O 530.835 -0.069728 1.7406 0
M  V30 5790 C 527.967 -0.0239932 3.40892 0
M  V30 5791 H 529.16 1.57 2.55521 0
M  V30 5792 H 526.713 0.849964 1.31169 0
M  V30 5793 H 527.448 -0.942988 3.10287 0
M  V30 5794 H 527.233 0.659351 3.86516 0
M  V30 5795 H 528.723 -0.283909 4.16634 0
M  V30 5796 N 529.16 -1.33526 0.837174 0
M  V30 5797 C 530.571 -1.80182 0.489017 0
M  V30 5798 C 530.922 -1.69285 -0.991826 0
M  V30 5799 O 530.047 -1.24113 -1.77271 0
M  V30 5800 C 530.642 -3.27149 0.880866 0
M  V30 5801 C 529.201 -3.71828 0.584872 0
M  V30 5802 C 528.348 -2.54974 1.09011 0
M  V30 5803 H 531.299 -1.21071 1.02603 0
M  V30 5804 H 531.32 -3.80024 0.190239 0
M  V30 5805 H 530.832 -3.35048 1.95869 0
M  V30 5806 H 528.933 -3.69457 -0.48295 0
M  V30 5807 H 529.046 -4.65366 1.13892 0
M  V30 5808 H 527.41 -2.4952 0.511047 0
M  V30 5809 H 528.193 -2.65637 2.17467 0
M  V30 5810 N 530.638 -0.59345 -1.46 0
M  V30 5811 C 531.548 0.135817 -2.34207 0
M  V30 5812 C 532.564 0.875008 -1.50398 0
M  V30 5813 O 533.74 0.835778 -1.83239 0
M  V30 5814 C 530.805 1.12977 -3.27776 0
M  V30 5815 C 529.866 0.394081 -4.27487 0
M  V30 5816 C 529.099 1.34068 -5.16586 0
M  V30 5817 O 529.322 2.5778 -5.08828 0
M  V30 5818 O 528.256 0.845426 -5.95933 0
M  V30 5819 H 532.082 -0.588691 -2.9794 0
M  V30 5820 H 529.667 -0.353784 -1.45151 0
M  V30 5821 H 531.549 1.70261 -3.85473 0
M  V30 5822 H 530.224 1.83556 -2.66625 0
M  V30 5823 H 529.131 -0.220869 -3.73447 0
M  V30 5824 H 530.464 -0.270939 -4.91454 0
M  V30 5825 N 532.116 1.54067 -0.331816 0
M  V30 5826 C 533.362 2.01012 0.268667 0
M  V30 5827 C 533.695 1.2195 1.51136 0
M  V30 5828 O 532.97 0.303972 1.9211 0
M  V30 5829 C 533.253 3.55158 0.59456 0
M  V30 5830 C 533.106 4.4494 -0.659409 0
M  V30 5831 C 534.425 4.16939 1.4089 0
M  V30 5832 H 531.544 0.730698 0.0961756 0
M  V30 5833 H 534.186 1.84593 -0.450031 0
M  V30 5834 H 532.336 3.6928 1.20685 0
M  V30 5835 H 534.008 4.42675 -1.29756 0
M  V30 5836 H 532.251 4.1428 -1.28665 0
M  V30 5837 H 532.922 5.50643 -0.386804 0
M  V30 5838 H 535.398 4.06443 0.891272 0
M  V30 5839 H 534.274 5.24889 1.60569 0
M  V30 5840 H 534.535 3.70798 2.40752 0
M  V30 5841 N 533.594 0.0601682 1.57485 0
M  V30 5842 C 534.524 -0.90889 2.15085 0
M  V30 5843 C 535.505 -1.31838 1.07484 0
M  V30 5844 O 536.69 -1.3915 1.35466 0
M  V30 5845 C 533.82 -2.18059 2.7031 0
M  V30 5846 C 532.774 -1.91088 3.82974 0
M  V30 5847 C 532.1 -3.24789 4.24754 0
M  V30 5848 C 533.4 -1.22535 5.07723 0
M  V30 5849 H 535.094 -0.429093 2.96309 0
M  V30 5850 H 532.64 -0.204952 1.42534 0
M  V30 5851 H 534.593 -2.86258 3.09248 0
M  V30 5852 H 533.317 -2.6826 1.8629 0
M  V30 5853 H 531.976 -1.25297 3.44523 0
M  V30 5854 H 531.624 -3.72809 3.37672 0
M  V30 5855 H 531.324 -3.07538 5.00694 0
M  V30 5856 H 532.848 -3.94205 4.66299 0
M  V30 5857 H 534.262 -1.80783 5.4405 0
M  V30 5858 H 532.659 -1.1558 5.88864 0
M  V30 5859 H 533.729 -0.202692 4.84476 0
M  V30 5860 N 535.072 -1.5615 -0.213296 0
M  V30 5861 C 536.004 -1.89586 -1.28802 0
M  V30 5862 C 537.017 -0.784844 -1.42633 0
M  V30 5863 O 538.206 -1.06319 -1.43383 0
M  V30 5864 C 535.306 -2.09665 -2.66259 0
M  V30 5865 C 534.479 -3.40726 -2.7427 0
M  V30 5866 C 533.538 -3.50137 -3.92798 0
M  V30 5867 O 532.564 -4.23105 -3.8075 0
M  V30 5868 N 533.766 -2.81886 -5.07465 0
M  V30 5869 H 536.531 -2.82368 -1.00442 0
M  V30 5870 H 534.092 -1.56796 -0.403302 0
M  V30 5871 H 536.084 -2.13268 -3.43946 0
M  V30 5872 H 534.654 -1.23469 -2.87183 0
M  V30 5873 H 533.874 -3.4915 -1.82997 0
M  V30 5874 H 535.162 -4.27048 -2.76599 0
M  V30 5875 H 534.56 -2.22397 -5.2015 0
M  V30 5876 H 533.117 -2.91139 -5.83165 0
M  V30 5877 N 536.55 0.480323 -1.50102 0
M  V30 5878 C 537.497 1.57946 -1.6829 0
M  V30 5879 C 538.467 1.57611 -0.524223 0
M  V30 5880 O 539.652 1.75282 -0.753709 0
M  V30 5881 C 536.792 2.95978 -1.77457 0
M  V30 5882 C 535.905 3.06173 -3.04766 0
M  V30 5883 C 535.04 4.35063 -3.04784 0
M  V30 5884 C 534.079 4.38966 -4.26586 0
M  V30 5885 N 533.216 5.59314 -4.24396 0
M  V30 5886 H 538.056 1.41743 -2.62131 0
M  V30 5887 H 535.593 0.689304 -1.2995 0
M  V30 5888 H 537.551 3.76011 -1.80752 0
M  V30 5889 H 536.181 3.10837 -0.870637 0
M  V30 5890 H 535.233 2.19071 -3.10986 0
M  V30 5891 H 536.545 3.04916 -3.9475 0
M  V30 5892 H 535.699 5.23436 -3.06757 0
M  V30 5893 H 534.438 4.38915 -2.12614 0
M  V30 5894 H 533.443 3.48992 -4.24835 0
M  V30 5895 H 534.668 4.36813 -5.19972 0
M  V30 5896 H 532.614 5.63969 -3.35074 0
M  V30 5897 H 532.531 5.5976 -5.08138 0
M  V30 5898 H 533.799 6.49837 -4.30502 0
M  V30 5899 N 538.028 1.39524 0.732853 0
M  V30 5900 C 539.276 1.36594 1.48951 0
M  V30 5901 C 539.597 -0.0367507 1.94965 0
M  V30 5902 O 538.867 -0.988391 1.69138 0
M  V30 5903 H 537.447 0.502673 0.552566 0
M  V30 5904 H 540.109 1.74411 0.869869 0
M  V30 5905 H 539.205 2.03 2.3706 0
M  V30 5906 N 539.506 -0.963266 1.24736 0
M  V30 5907 C 540.734 -1.74166 1.11686 0
M  V30 5908 C 541.149 -1.8589 -0.330187 0
M  V30 5909 O 540.506 -1.35042 -1.2276 0
M  V30 5910 C 540.557 -3.15989 1.75595 0
M  V30 5911 O 540.278 -3.04847 3.14642 0
M  V30 5912 C 541.779 -4.10145 1.68213 0
M  V30 5913 H 538.999 -0.546031 0.389989 0
M  V30 5914 H 541.543 -1.20907 1.64929 0
M  V30 5915 H 539.698 -3.66219 1.26343 0
M  V30 5916 H 540.112 -3.9425 3.4593 0
M  V30 5917 H 541.586 -5.07299 2.17604 0
M  V30 5918 H 542.063 -4.3445 0.644208 0
M  V30 5919 H 542.669 -3.65827 2.16912 0
M  V30 5920 N 540.985 -1.06182 -1.16461 0
M  V30 5921 C 541.948 -0.675723 -2.19013 0
M  V30 5922 C 542.948 0.277963 -1.58379 0
M  V30 5923 O 544.138 0.0604962 -1.74095 0
M  V30 5924 C 541.27 0.00591459 -3.40899 0
M  V30 5925 H 542.463 -1.58353 -2.54685 0
M  V30 5926 H 540.016 -0.856908 -1.30716 0
M  V30 5927 H 540.751 0.92652 -3.10783 0
M  V30 5928 H 540.536 -0.67984 -3.86161 0
M  V30 5929 H 542.026 0.26181 -4.16778 0
M  V30 5930 N 542.463 1.3308 -0.844243 0
M  V30 5931 C 543.693 2.01515 -0.455541 0
M  V30 5932 C 544.101 1.63655 0.949406 0
M  V30 5933 O 543.444 0.84848 1.62931 0
M  V30 5934 C 543.506 3.55967 -0.502801 0
M  V30 5935 C 543.17 4.17222 -1.86481 0
M  V30 5936 C 544.167 4.36205 -2.8288 0
M  V30 5937 C 541.852 4.53528 -2.15911 0
M  V30 5938 C 543.846 4.90649 -4.06869 0
M  V30 5939 C 541.533 5.07679 -3.40155 0
M  V30 5940 C 542.531 5.26186 -4.35451 0
M  V30 5941 O 542.219 5.79183 -5.57496 0
M  V30 5942 H 541.951 0.65199 -0.178565 0
M  V30 5943 H 544.505 1.70867 -1.1399 0
M  V30 5944 H 542.735 3.85965 0.23836 0
M  V30 5945 H 544.424 4.05688 -0.131169 0
M  V30 5946 H 545.19 4.085 -2.61444 0
M  V30 5947 H 541.069 4.38414 -1.42528 0
M  V30 5948 H 544.613 5.0501 -4.81259 0
M  V30 5949 H 540.51 5.34815 -3.61446 0
M  V30 5950 H 541.278 5.97591 -5.5931 0
M  V30 5951 N 543.941 0.601185 1.45683 0
M  V30 5952 C 545.218 0.0261659 1.95582 0
M  V30 5953 C 545.598 -1.4399 1.5437 0
M  V30 5954 O 544.946 -2.13919 0.80318 0
M  V30 5955 C 545.156 0.217557 3.48321 0
M  V30 5956 C 546.504 0.0950076 4.24494 0
M  V30 5957 O 547.528 0.147345 3.55895 0
M  V30 5958 O 546.387 -0.025261 5.46494 0
M  V30 5959 H 543.481 -0.0393688 0.826062 0
M  V30 5960 H 546.027 0.670798 1.55879 0
M  V30 5961 H 544.799 1.23601 3.71266 0
M  V30 5962 H 544.422 -0.46264 3.94899 0
M  V30 5963 N 545.419 -1.53889 0.339982 0
M  V30 5964 C 546.644 -2.05741 -0.261798 0
M  V30 5965 C 547.069 -1.21354 -1.43718 0
M  V30 5966 O 546.427 -0.22645 -1.7988 0
M  V30 5967 C 546.475 -3.54542 -0.658228 0
M  V30 5968 O 545.579 -3.7302 -1.75869 0
M  V30 5969 H 544.92 -0.662529 -0.0441672 0
M  V30 5970 H 547.45 -1.98568 0.493161 0
M  V30 5971 H 547.46 -3.9711 -0.936368 0
M  V30 5972 H 546.135 -4.15412 0.201358 0
M  V30 5973 H 544.712 -3.42355 -1.47809 0
M  V30 5974 N 546.897 -0.0685191 -1.57451 0
M  V30 5975 C 548.122 0.613919 -1.98106 0
M  V30 5976 C 548.547 1.62551 -0.946501 0
M  V30 5977 O 547.905 1.81085 0.0882824 0
M  V30 5978 C 547.953 1.26189 -3.378 0
M  V30 5979 O 547.057 2.37773 -3.36954 0
M  V30 5980 H 546.398 0.158163 -0.644888 0
M  V30 5981 H 548.928 -0.142063 -2.04106 0
M  V30 5982 H 548.938 1.60951 -3.74912 0
M  V30 5983 H 547.613 0.520625 -4.12629 0
M  V30 5984 H 546.19 2.04829 -3.11608 0
M  V30 5985 N 548.375 1.56261 0.205012 0
M  V30 5986 C 549.338 1.92908 1.23771 0
M  V30 5987 C 550.338 0.809208 1.38955 0
M  V30 5988 O 551.528 1.07676 1.36936 0
M  V30 5989 C 548.66 2.19442 2.60879 0
M  V30 5990 H 549.853 2.85287 0.924728 0
M  V30 5991 H 547.406 1.49798 0.446125 0
M  V30 5992 H 548.141 1.29668 2.97248 0
M  V30 5993 H 547.926 3.0104 2.51232 0
M  V30 5994 H 549.416 2.48833 3.35368 0
M  V30 5995 N 549.853 -0.472356 1.50355 0
M  V30 5996 C 551.13 -1.23356 1.51798 0
M  V30 5997 C 551.51 -2.09469 0.26193 0
M  V30 5998 O 550.858 -2.15677 -0.754691 0
M  V30 5999 C 551.068 -2.06568 2.81302 0
M  V30 6000 C 552.416 -2.648 3.31913 0
M  V30 6001 O 553.44 -2.16812 2.82614 0
M  V30 6002 O 552.299 -3.52231 4.17846 0
M  V30 6003 H 549.393 -0.559707 0.608816 0
M  V30 6004 H 551.939 -0.48428 1.62643 0
M  V30 6005 H 550.711 -1.43103 3.64194 0
M  V30 6006 H 550.334 -2.88633 2.73454 0
M  V30 6007 N 551.331 -1.39911 -0.725443 0
M  V30 6008 C 552.577 -1.38862 -1.48624 0
M  V30 6009 C 552.932 0.0125913 -1.92396 0
M  V30 6010 O 552.225 0.981046 -1.64578 0
M  V30 6011 C 552.419 -2.30368 -2.7325 0
M  V30 6012 C 552.248 -3.79247 -2.41665 0
M  V30 6013 C 551.018 -4.48119 -2.3349 0
M  V30 6014 C 553.216 -4.70988 -2.06579 0
M  V30 6015 N 551.198 -5.82282 -1.94476 0
M  V30 6016 C 552.569 -5.93873 -1.78087 0
M  V30 6017 C 554.624 -4.58917 -1.9313 0
M  V30 6018 C 553.327 -7.06036 -1.37499 0
M  V30 6019 C 555.353 -5.71012 -1.53946 0
M  V30 6020 C 554.715 -6.92976 -1.26345 0
M  V30 6021 H 550.814 -0.563394 -0.54232 0
M  V30 6022 H 553.398 -1.75542 -0.842213 0
M  V30 6023 H 551.569 -1.95831 -3.35417 0
M  V30 6024 H 553.301 -2.20245 -3.39521 0
M  V30 6025 H 550.056 -4.01677 -2.50904 0
M  V30 6026 H 550.48 -6.53307 -1.77535 0
M  V30 6027 H 555.122 -3.65149 -2.13134 0
M  V30 6028 H 552.84 -7.99697 -1.16237 0
M  V30 6029 H 556.426 -5.63664 -1.44132 0
M  V30 6030 H 555.306 -7.78243 -0.964787 0
M  V30 6031 N 552.809 0.956637 -1.25245 0
M  V30 6032 C 554.056 1.701 -1.09874 0
M  V30 6033 C 554.384 1.91128 0.36062 0
M  V30 6034 O 553.639 1.47837 1.28229 0
M  V30 6035 C 553.938 3.08996 -1.79601 0
M  V30 6036 C 553.604 3.07774 -3.29523 0
M  V30 6037 C 552.266 3.07149 -3.70423 0
M  V30 6038 C 554.618 3.01257 -4.25316 0
M  V30 6039 C 551.946 2.97752 -5.0553 0
M  V30 6040 C 554.298 2.93403 -5.60444 0
M  V30 6041 C 552.962 2.91111 -6.00675 0
M  V30 6042 H 552.232 0.62244 -0.402056 0
M  V30 6043 H 554.879 1.1178 -1.55491 0
M  V30 6044 H 553.184 3.70848 -1.26408 0
M  V30 6045 H 554.881 3.65407 -1.65162 0
M  V30 6046 H 551.471 3.09032 -2.9698 0
M  V30 6047 H 555.655 3.00861 -3.9471 0
M  V30 6048 H 550.911 2.94346 -5.35883 0
M  V30 6049 H 555.085 2.87321 -6.34366 0
M  V30 6050 H 552.712 2.83586 -7.05325 0
M  V30 6051 N 554.287 1.06798 1.15896 0
M  V30 6052 C 555.512 0.808739 1.90982 0
M  V30 6053 C 555.937 -0.6316 1.77179 0
M  V30 6054 O 555.295 -1.4407 1.10061 0
M  V30 6055 C 555.343 1.21468 3.39526 0
M  V30 6056 O 554.447 0.356562 4.10856 0
M  V30 6057 H 553.788 0.29512 0.594811 0
M  V30 6058 H 556.318 1.42513 1.46804 0
M  V30 6059 H 556.328 1.18844 3.90308 0
M  V30 6060 H 555.003 2.26379 3.48891 0
M  V30 6061 H 553.58 0.444808 3.70238 0
M  V30 6062 N 555.766 -1.3263 0.851289 0
M  V30 6063 C 556.696 -2.31449 0.308771 0
M  V30 6064 C 557.677 -1.59531 -0.590255 0
M  V30 6065 O 558.862 -1.87351 -0.511205 0
M  V30 6066 C 555.992 -3.43586 -0.506548 0
M  V30 6067 C 554.946 -4.26963 0.297753 0
M  V30 6068 C 554.272 -5.30831 -0.642094 0
M  V30 6069 C 555.572 -4.99643 1.52166 0
M  V30 6070 H 557.266 -2.77074 1.13447 0
M  V30 6071 H 554.812 -1.33207 0.546971 0
M  V30 6072 H 556.765 -4.11754 -0.896474 0
M  V30 6073 H 555.489 -2.96681 -1.36558 0
M  V30 6074 H 554.148 -3.60437 0.669391 0
M  V30 6075 H 553.796 -4.8018 -1.49788 0
M  V30 6076 H 553.496 -5.87501 -0.107968 0
M  V30 6077 H 555.02 -6.01862 -1.02927 0
M  V30 6078 H 556.434 -5.6051 1.20421 0
M  V30 6079 H 554.831 -5.66022 1.99347 0
M  V30 6080 H 555.901 -4.27701 2.28474 0
M  V30 6081 N 557.244 -0.608902 -1.45362 0
M  V30 6082 C 558.492 -0.104401 -2.0183 0
M  V30 6083 C 558.813 1.27007 -1.47967 0
M  V30 6084 O 558.083 1.83924 -0.674455 0
M  V30 6085 H 556.663 -0.0356042 -0.746151 0
M  V30 6086 H 559.325 -0.790596 -1.78145 0
M  V30 6087 H 558.421 -0.0551793 -3.12051 0
M  V30 6088 N 558.722 1.53707 -0.348139 0
M  V30 6089 C 559.962 2.02899 0.247254 0
M  V30 6090 C 560.326 1.23033 1.47401 0
M  V30 6091 O 561.527 1.62146 2.14388 0
M  V30 6092 C 559.798 3.53156 0.549151 0
M  V30 6093 S 561.357 4.24247 1.1207 0
M  V30 6094 H 558.175 0.707213 0.0732894 0
M  V30 6095 H 560.777 1.89338 -0.486965 0
M  V30 6096 H 559.481 4.08893 -0.351435 0
M  V30 6097 H 559.012 3.70845 1.31291 0
M  V30 6098 H 561.027 4.33958 2.40613 0
M  V30 6099 N 560.2 0.0768682 1.57412 0
M  V30 6100 C 561.133 -0.924685 2.08626 0
M  V30 6101 C 562.111 -1.28792 0.992542 0
M  V30 6102 O 563.295 -1.39634 1.26628 0
M  V30 6103 C 560.422 -2.23131 2.54814 0
M  V30 6104 C 559.468 -2.01928 3.75669 0
M  V30 6105 S 560.301 -1.27397 5.20125 0
M  V30 6106 C 561.457 -2.59329 5.69648 0
M  V30 6107 H 561.69 -0.488928 2.93252 0
M  V30 6108 H 559.223 -0.136014 1.538 0
M  V30 6109 H 561.181 -2.98226 2.82084 0
M  V30 6110 H 559.842 -2.63831 1.70447 0
M  V30 6111 H 559.035 -2.98639 4.05993 0
M  V30 6112 H 558.637 -1.34967 3.48798 0
M  V30 6113 H 560.929 -3.55394 5.76803 0
M  V30 6114 H 561.872 -2.33608 6.68456 0
M  V30 6115 H 562.28 -2.66767 4.9749 0
M  V30 6116 N 561.678 -1.56367 -0.196722 0
M  V30 6117 C 562.608 -1.97442 -1.24655 0
M  V30 6118 C 563.589 -0.846147 -1.47561 0
M  V30 6119 O 564.774 -1.11035 -1.59326 0
M  V30 6120 C 561.904 -2.31253 -2.59112 0
M  V30 6121 C 560.858 -3.46804 -2.50821 0
M  V30 6122 C 560.184 -3.66286 -3.89536 0
M  V30 6123 C 561.484 -4.8104 -2.03465 0
M  V30 6124 H 563.178 -2.85388 -0.905216 0
M  V30 6125 H 560.724 -1.37304 -0.434002 0
M  V30 6126 H 562.677 -2.58583 -3.32736 0
M  V30 6127 H 561.401 -1.40188 -2.94983 0
M  V30 6128 H 560.06 -3.19563 -1.79653 0
M  V30 6129 H 559.708 -2.72555 -4.22756 0
M  V30 6130 H 559.408 -4.4402 -3.84864 0
M  V30 6131 H 560.932 -3.9599 -4.64784 0
M  V30 6132 H 562.346 -5.07411 -2.66846 0
M  V30 6133 H 560.743 -5.62232 -2.09798 0
M  V30 6134 H 561.813 -4.74732 -0.98781 0
M  V30 6135 N 563.156 0.464375 -1.50603 0
M  V30 6136 C 564.403 1.21596 -1.61928 0
M  V30 6137 C 564.731 1.91804 -0.322737 0
M  V30 6138 O 563.986 1.83065 0.691776 0
M  V30 6139 C 564.285 2.278 -2.75394 0
M  V30 6140 C 563.951 1.74797 -4.1564 0
M  V30 6141 C 562.613 1.60063 -4.53799 0
M  V30 6142 C 564.965 1.35548 -5.03266 0
M  V30 6143 C 562.293 1.04514 -5.77316 0
M  V30 6144 C 564.645 0.814381 -6.27336 0
M  V30 6145 C 563.309 0.653726 -6.64291 0
M  V30 6146 H 562.579 0.444951 -0.592536 0
M  V30 6147 H 565.226 0.510964 -1.84557 0
M  V30 6148 H 563.531 3.04233 -2.46879 0
M  V30 6149 H 565.228 2.85723 -2.81359 0
M  V30 6150 H 561.818 1.87234 -3.8554 0
M  V30 6151 H 566.002 1.45763 -4.74412 0
M  V30 6152 H 561.258 0.908186 -6.04617 0
M  V30 6153 H 565.432 0.501626 -6.94591 0
M  V30 6154 H 563.059 0.22114 -7.59878 0
M  V30 6155 N 564.634 1.40294 0.718013 0
M  V30 6156 C 565.581 1.40367 1.8321 0
M  V30 6157 C 566.551 0.260952 1.64037 0
M  V30 6158 O 567.736 0.458648 1.85205 0
M  V30 6159 C 564.876 1.26965 3.20895 0
M  V30 6160 C 563.989 2.50922 3.51656 0
M  V30 6161 C 563.124 2.29981 4.78834 0
M  V30 6162 C 562.163 3.49527 5.02491 0
M  V30 6163 N 561.3 3.27796 6.20882 0
M  V30 6164 H 566.14 2.35593 1.82482 0
M  V30 6165 H 563.677 1.17012 0.891444 0
M  V30 6166 H 565.635 1.17202 4.00399 0
M  V30 6167 H 564.265 0.353591 3.20858 0
M  V30 6168 H 563.317 2.71223 2.66725 0
M  V30 6169 H 564.629 3.39913 3.65048 0
M  V30 6170 H 563.783 2.17558 5.66351 0
M  V30 6171 H 562.522 1.38411 4.67647 0
M  V30 6172 H 561.527 3.6243 4.1343 0
M  V30 6173 H 562.752 4.42021 5.15553 0
M  V30 6174 H 560.698 2.38906 6.1095 0
M  V30 6175 H 560.615 4.10351 6.34939 0
M  V30 6176 H 561.883 3.19101 7.11193 0
M  V30 6177 N 566.112 -0.949982 1.2575 0
M  V30 6178 C 567.042 -2.06483 1.09028 0
M  V30 6179 C 568.023 -1.701 -0.00201532 0
M  V30 6180 O 569.208 -1.93469 0.168383 0
M  V30 6181 C 566.338 -3.39899 0.71316 0
M  V30 6182 C 565.292 -3.90309 1.75621 0
M  V30 6183 C 564.618 -5.20274 1.23365 0
M  V30 6184 C 565.918 -4.16169 3.15596 0
M  V30 6185 H 567.612 -2.20731 2.02283 0
M  V30 6186 H 565.158 -1.06066 0.973964 0
M  V30 6187 H 567.111 -4.17346 0.58309 0
M  V30 6188 H 565.835 -3.25602 -0.255091 0
M  V30 6189 H 564.494 -3.15035 1.8748 0
M  V30 6190 H 564.142 -5.02351 0.255491 0
M  V30 6191 H 563.842 -5.54971 1.93082 0
M  V30 6192 H 565.366 -6.00314 1.11607 0
M  V30 6193 H 566.78 -4.84259 3.06864 0
M  V30 6194 H 565.177 -4.62131 3.82825 0
M  V30 6195 H 566.247 -3.22273 3.6231 0
M  V30 6196 N 567.59 -1.07411 -1.15328 0
M  V30 6197 C 568.52 -0.716472 -2.22236 0
M  V30 6198 C 569.501 0.296373 -1.67498 0
M  V30 6199 O 570.686 0.168989 -1.93463 0
M  V30 6200 C 567.816 -0.114142 -3.47112 0
M  V30 6201 C 566.77 -1.05421 -4.14814 0
M  V30 6202 C 566.096 -0.314604 -5.33774 0
M  V30 6203 C 567.396 -2.38808 -4.64508 0
M  V30 6204 H 569.09 -1.61029 -2.52408 0
M  V30 6205 H 566.636 -0.775702 -1.21321 0
M  V30 6206 H 568.589 0.148001 -4.2114 0
M  V30 6207 H 567.313 0.814755 -3.16274 0
M  V30 6208 H 565.972 -1.30128 -3.42728 0
M  V30 6209 H 565.62 0.617772 -4.99192 0
M  V30 6210 H 565.32 -0.941209 -5.80013 0
M  V30 6211 H 566.844 -0.0602747 -6.1057 0
M  V30 6212 H 568.258 -2.18424 -5.3006 0
M  V30 6213 H 566.655 -2.97069 -5.21412 0
M  V30 6214 H 567.725 -3.01067 -3.80114 0
M  V30 6215 N 569.068 1.32177 -0.85831 0
M  V30 6216 C 570.484 1.49873 -0.548656 0
M  V30 6217 C 570.684 1.79278 0.919874 0
M  V30 6218 O 569.74 1.86451 1.70271 0
M  V30 6219 C 571.053 2.64043 -1.4388 0
M  V30 6220 C 572.601 2.77928 -1.43961 0
M  V30 6221 C 573.076 3.95182 -2.31506 0
M  V30 6222 N 574.567 4.0245 -2.29321 0
M  V30 6223 C 575.302 4.9242 -2.93786 0
M  V30 6224 N 574.798 5.87373 -3.67376 0
M  V30 6225 N 576.591 4.85572 -2.83155 0
M  V30 6226 H 568.742 1.11357 -1.80868 0
M  V30 6227 H 571.005 0.549175 -0.772729 0
M  V30 6228 H 570.711 2.49055 -2.48324 0
M  V30 6229 H 570.585 3.59912 -1.12885 0
M  V30 6230 H 572.972 2.92338 -0.402813 0
M  V30 6231 H 573.053 1.82762 -1.78974 0
M  V30 6232 H 572.697 3.81531 -3.35256 0
M  V30 6233 H 572.627 4.89633 -1.93823 0
M  V30 6234 H 575.118 3.34507 -1.75822 0
M  V30 6235 H 575.431 6.52728 -4.13722 0
M  V30 6236 H 573.776 5.87388 -3.71484 0
M  V30 6237 H 576.967 4.10363 -2.25211 0
M  V30 6238 H 577.14 5.55486 -3.33676 0
M  V30 6239 N 570.547 0.616602 1.45037 0
M  V30 6240 C 571.795 0.115103 2.01772 0
M  V30 6241 C 572.116 -1.2622 1.48639 0
M  V30 6242 O 571.386 -1.83563 0.684199 0
M  V30 6243 H 569.966 0.0395607 0.745952 0
M  V30 6244 H 572.628 0.800032 1.77723 0
M  V30 6245 H 571.724 0.0717274 3.12018 0
M  V30 6246 N 572.025 -1.5352 0.356285 0
M  V30 6247 C 572.975 -2.22204 -0.510815 0
M  V30 6248 C 573.959 -1.21393 -1.05605 0
M  V30 6249 O 575.151 -1.46883 -0.987639 0
M  V30 6250 C 572.28 -3.00786 -1.65478 0
M  V30 6251 C 571.366 -4.08965 -1.12287 0
M  V30 6252 N 571.757 -5.04829 -0.313191 0
M  V30 6253 C 570.055 -4.23505 -1.39856 0
M  V30 6254 C 570.756 -5.81695 -0.0230322 0
M  V30 6255 N 569.732 -5.40074 -0.618144 0
M  V30 6256 H 573.534 -2.93676 0.114711 0
M  V30 6257 H 571.048 -1.61572 0.163811 0
M  V30 6258 H 573.045 -3.48502 -2.28806 0
M  V30 6259 H 571.705 -2.30843 -2.28345 0
M  V30 6260 H 572.716 -5.17879 0.0468202 0
M  V30 6261 H 569.393 -3.64786 -2.0307 0
M  V30 6262 H 570.783 -6.68931 0.630927 0
M  V30 6263 N 573.503 -0.0852151 -1.57369 0
M  V30 6264 C 574.728 0.592872 -1.98746 0
M  V30 6265 C 575.153 1.61538 -0.963689 0
M  V30 6266 O 574.511 1.81168 0.069071 0
M  V30 6267 C 574.559 1.22599 -3.39119 0
M  V30 6268 O 573.663 2.34185 -3.39457 0
M  V30 6269 H 573.004 0.151314 -0.646529 0
M  V30 6270 H 575.534 -0.163703 -2.03944 0
M  V30 6271 H 575.544 1.56965 -3.76598 0
M  V30 6272 H 574.219 0.476831 -4.13158 0
M  V30 6273 H 572.796 2.01512 -3.13763 0
M  V30 6274 N 574.981 1.5647 0.188427 0
M  V30 6275 C 576.392 1.70864 0.752494 0
M  V30 6276 C 576.743 0.692905 1.83557 0
M  V30 6277 O 575.868 -0.149307 2.15884 0
M  V30 6278 C 576.463 3.09789 1.37173 0
M  V30 6279 C 575.022 3.25925 1.88281 0
M  V30 6280 C 574.169 2.66817 0.755259 0
M  V30 6281 H 577.12 1.58657 -0.0367408 0
M  V30 6282 H 577.141 3.07489 2.24122 0
M  V30 6283 H 576.653 3.83693 0.583219 0
M  V30 6284 H 574.754 2.56948 2.6983 0
M  V30 6285 H 574.867 4.33498 2.04001 0
M  V30 6286 H 573.231 2.2617 1.17128 0
M  V30 6287 H 574.014 3.43294 -0.0211237 0
M  V30 6288 N 576.459 -0.456382 1.50847 0
M  V30 6289 C 577.706 -1.20736 1.62571 0
M  V30 6290 C 578.034 -1.9163 0.332904 0
M  V30 6291 O 577.289 -1.8343 -0.682058 0
M  V30 6292 C 577.588 -2.26336 2.76599 0
M  V30 6293 C 577.254 -1.7259 4.16562 0
M  V30 6294 C 575.916 -1.57654 4.54641 0
M  V30 6295 C 578.268 -1.32877 5.03977 0
M  V30 6296 C 575.596 -1.0145 5.77862 0
M  V30 6297 C 577.948 -0.7811 6.27759 0
M  V30 6298 C 576.612 -0.618488 6.64628 0
M  V30 6299 H 575.882 -0.441803 0.594888 0
M  V30 6300 H 578.529 -0.501169 1.84826 0
M  V30 6301 H 576.834 -3.0292 2.48489 0
M  V30 6302 H 578.531 -2.84227 2.82871 0
M  V30 6303 H 575.121 -1.85187 3.86528 0
M  V30 6304 H 579.305 -1.43245 4.75179 0
M  V30 6305 H 574.561 -0.876109 6.0509 0
M  V30 6306 H 578.735 -0.464783 6.94847 0
M  V30 6307 H 576.362 -0.180838 7.59985 0
M  V30 6308 N 577.937 -1.40673 -0.710563 0
M  V30 6309 C 579.353 -1.22813 -1.01928 0
M  V30 6310 C 579.553 -0.10687 -2.01216 0
M  V30 6311 O 578.609 0.533614 -2.46797 0
M  V30 6312 C 579.922 -2.57178 -1.5582 0
M  V30 6313 C 581.47 -2.64233 -1.67779 0
M  V30 6314 C 581.945 -3.98879 -2.25076 0
M  V30 6315 N 583.436 -4.00647 -2.32456 0
M  V30 6316 C 584.171 -5.01621 -2.77784 0
M  V30 6317 N 583.667 -6.12989 -3.22826 0
M  V30 6318 N 585.46 -4.88988 -2.77213 0
M  V30 6319 H 577.611 -2.12335 -0.05253 0
M  V30 6320 H 579.874 -0.9441 -0.085898 0
M  V30 6321 H 579.58 -3.39903 -0.903249 0
M  V30 6322 H 579.454 -2.78618 -2.54267 0
M  V30 6323 H 581.841 -1.81876 -2.3239 0
M  V30 6324 H 581.922 -2.46619 -0.679178 0
M  V30 6325 H 581.566 -4.81678 -1.61086 0
M  V30 6326 H 581.496 -4.13826 -3.25661 0
M  V30 6327 H 583.987 -3.20231 -2.0065 0
M  V30 6328 H 584.3 -6.85921 -3.55995 0
M  V30 6329 H 582.645 -6.16547 -3.20773 0
M  V30 6330 H 585.836 -4.01075 -2.41363 0
M  V30 6331 H 586.009 -5.67822 -3.12221 0
M  V30 6332 N 579.415 0.9433 -1.26252 0
M  V30 6333 C 580.347 2.04542 -1.03417 0
M  V30 6334 C 581.36 1.62799 0.0046911 0
M  V30 6335 O 582.549 1.76944 -0.235146 0
M  V30 6336 C 579.649 3.34511 -0.543671 0
M  V30 6337 C 578.822 4.05033 -1.65128 0
M  V30 6338 C 577.881 5.13273 -1.1592 0
M  V30 6339 O 576.907 5.38095 -1.85586 0
M  V30 6340 N 578.109 5.805 -0.00649279 0
M  V30 6341 H 580.874 2.24699 -1.98319 0
M  V30 6342 H 578.435 1.11264 -1.1761 0
M  V30 6343 H 580.427 4.04212 -0.198703 0
M  V30 6344 H 578.997 3.11042 0.311711 0
M  V30 6345 H 578.217 3.29275 -2.16729 0
M  V30 6346 H 579.505 4.48903 -2.39508 0
M  V30 6347 H 578.903 5.62767 0.575347 0
M  V30 6348 H 577.46 6.51201 0.279416 0
M  V30 6349 N 580.893 1.08022 1.14757 0
M  V30 6350 C 581.843 0.676345 2.17737 0
M  V30 6351 C 582.827 -0.302018 1.5804 0
M  V30 6352 O 584.019 -0.11466 1.76628 0
M  V30 6353 C 581.148 0.082984 3.432 0
M  V30 6354 C 580.234 1.0869 4.09936 0
M  V30 6355 N 580.625 2.26891 4.52055 0
M  V30 6356 C 578.923 0.921768 4.36371 0
M  V30 6357 C 579.624 2.90636 5.0389 0
M  V30 6358 N 578.6 2.18266 4.97856 0
M  V30 6359 H 582.402 1.5765 2.4804 0
M  V30 6360 H 579.916 0.954374 1.31398 0
M  V30 6361 H 581.913 -0.224289 4.16296 0
M  V30 6362 H 580.573 -0.812206 3.14378 0
M  V30 6363 H 581.584 2.6457 4.45223 0
M  V30 6364 H 578.261 0.0800499 4.17423 0
M  V30 6365 H 579.651 3.9104 5.46386 0
M  V30 6366 N 582.371 -1.3172 0.865308 0
M  V30 6367 C 583.318 -2.2863 0.315736 0
M  V30 6368 C 584.288 -1.55524 -0.583213 0
M  V30 6369 O 585.473 -1.83694 -0.51585 0
M  V30 6370 C 582.613 -3.41735 -0.480773 0
M  V30 6371 C 581.726 -4.297 0.445167 0
M  V30 6372 C 580.861 -5.29944 -0.365012 0
M  V30 6373 C 579.9 -6.09554 0.557651 0
M  V30 6374 N 579.037 -7.01768 -0.215994 0
M  V30 6375 H 583.877 -2.75026 1.14736 0
M  V30 6376 H 581.414 -1.35302 0.577209 0
M  V30 6377 H 583.372 -4.06045 -0.958306 0
M  V30 6378 H 582.002 -2.96461 -1.27714 0
M  V30 6379 H 581.054 -3.65875 1.04113 0
M  V30 6380 H 582.366 -4.85295 1.15284 0
M  V30 6381 H 581.52 -5.99908 -0.905255 0
M  V30 6382 H 580.259 -4.74994 -1.106 0
M  V30 6383 H 579.264 -5.38485 1.10969 0
M  V30 6384 H 580.489 -6.66591 1.29742 0
M  V30 6385 H 578.435 -6.49232 -0.939878 0
M  V30 6386 H 578.352 -7.54762 0.432431 0
M  V30 6387 H 579.62 -7.76002 -0.737618 0
M  V30 6388 N 583.85 -0.624285 -1.44708 0
M  V30 6389 C 585.077 -0.132919 -2.06473 0
M  V30 6390 C 585.493 1.18967 -1.46602 0
M  V30 6391 O 584.85 1.72824 -0.586341 0
M  V30 6392 C 584.901 -0.00465418 -3.615 0
M  V30 6393 O 584.622 -1.27494 -4.19138 0
M  V30 6394 C 586.123 0.516213 -4.40284 0
M  V30 6395 H 583.343 -0.0765201 -0.666623 0
M  V30 6396 H 585.887 -0.856751 -1.85688 0
M  V30 6397 H 584.042 0.669583 -3.8157 0
M  V30 6398 H 584.456 -1.11536 -5.12504 0
M  V30 6399 H 585.93 0.554994 -5.49203 0
M  V30 6400 H 586.407 1.5419 -4.11245 0
M  V30 6401 H 587.013 -0.124542 -4.25118 0
M  V30 6402 N 585.328 1.53329 -0.364422 0
M  V30 6403 C 586.275 2.25698 0.482607 0
M  V30 6404 C 587.245 1.26325 1.07848 0
M  V30 6405 O 588.43 1.55104 1.11119 0
M  V30 6406 C 585.57 3.04873 1.61699 0
M  V30 6407 C 584.683 4.19135 1.0464 0
M  V30 6408 C 583.818 4.85754 2.14979 0
M  V30 6409 C 582.857 5.9205 1.5538 0
M  V30 6410 N 581.994 6.52365 2.59547 0
M  V30 6411 H 586.834 2.97666 -0.141032 0
M  V30 6412 H 584.371 1.46875 -0.0813692 0
M  V30 6413 H 586.329 3.49051 2.28516 0
M  V30 6414 H 584.959 2.35162 2.2113 0
M  V30 6415 H 584.011 3.79451 0.268553 0
M  V30 6416 H 585.323 4.95525 0.570653 0
M  V30 6417 H 584.477 5.3311 2.89619 0
M  V30 6418 H 583.216 4.08834 2.65906 0
M  V30 6419 H 582.221 5.44058 0.792549 0
M  V30 6420 H 583.446 6.7089 1.0528 0
M  V30 6421 H 581.392 5.78298 3.09689 0
M  V30 6422 H 581.309 7.2429 2.16655 0
M  V30 6423 H 582.577 7.0437 3.33892 0
M  V30 6424 N 586.806 0.0935595 1.57322 0
M  V30 6425 C 588.083 -0.612692 1.85756 0
M  V30 6426 C 588.463 -1.86439 0.99013 0
M  V30 6427 O 587.811 -2.28416 0.0621362 0
M  V30 6428 C 588.021 -0.929547 3.36393 0
M  V30 6429 C 589.369 -1.29366 4.04413 0
M  V30 6430 O 590.393 -1.02061 3.41265 0
M  V30 6431 O 589.252 -1.80498 5.15832 0
M  V30 6432 H 586.346 -0.306444 0.768128 0
M  V30 6433 H 588.892 0.126141 1.69231 0
M  V30 6434 H 587.664 -0.0414766 3.91278 0
M  V30 6435 H 587.287 -1.72441 3.5826 0
M  V30 6436 N 588.284 -1.56567 -0.180126 0
M  V30 6437 C 589.231 -1.95725 -1.22313 0
M  V30 6438 C 590.201 -0.819911 -1.44453 0
M  V30 6439 O 591.386 -1.07931 -1.57339 0
M  V30 6440 C 588.526 -2.31484 -2.55947 0
M  V30 6441 C 587.639 -3.58354 -2.4126 0
M  V30 6442 C 586.774 -3.83366 -3.67701 0
M  V30 6443 C 585.813 -5.03612 -3.47909 0
M  V30 6444 N 584.95 -5.24802 -4.66398 0
M  V30 6445 H 589.79 -2.84642 -0.882198 0
M  V30 6446 H 587.327 -1.4085 -0.42422 0
M  V30 6447 H 589.285 -2.50237 -3.33822 0
M  V30 6448 H 587.915 -1.45689 -2.88053 0
M  V30 6449 H 586.967 -3.47565 -1.54606 0
M  V30 6450 H 588.279 -4.46386 -2.22577 0
M  V30 6451 H 587.433 -4.02439 -4.54013 0
M  V30 6452 H 586.172 -2.93692 -3.89353 0
M  V30 6453 H 585.177 -4.84447 -2.59983 0
M  V30 6454 H 586.402 -5.94809 -3.27688 0
M  V30 6455 H 584.348 -4.38079 -4.88286 0
M  V30 6456 H 584.265 -6.07041 -4.50596 0
M  V30 6457 H 585.533 -5.48346 -5.54019 0
M  V30 6458 N 589.762 0.448376 -1.51087 0
M  V30 6459 C 590.712 1.54156 -1.67988 0
M  V30 6460 C 591.696 1.5178 -0.534015 0
M  V30 6461 O 592.888 1.58419 -0.789448 0
M  V30 6462 C 590.017 2.92437 -1.79822 0
M  V30 6463 C 589.103 2.99611 -3.00157 0
M  V30 6464 N 589.494 2.7655 -4.23502 0
M  V30 6465 C 587.792 3.30764 -2.99184 0
M  V30 6466 C 588.493 2.89281 -5.0467 0
M  V30 6467 N 587.469 3.20473 -4.39088 0
M  V30 6468 H 591.271 1.35061 -2.61028 0
M  V30 6469 H 588.785 0.655504 -1.48583 0
M  V30 6470 H 590.782 3.71068 -1.90037 0
M  V30 6471 H 589.442 3.1256 -0.879554 0
M  V30 6472 H 590.453 2.5169 -4.52628 0
M  V30 6473 H 587.13 3.56732 -2.16907 0
M  V30 6474 H 588.52 2.75499 -6.12821 0
M  V30 6475 N 591.24 1.41047 0.703093 0
M  V30 6476 C 592.15 1.44645 1.84703 0
M  V30 6477 C 593.166 0.337778 1.7069 0
M  V30 6478 O 594.342 0.584327 1.92737 0
M  V30 6479 C 591.407 1.31928 3.20618 0
M  V30 6480 C 590.468 2.53047 3.46794 0
M  V30 6481 C 589.701 2.40927 4.76224 0
M  V30 6482 O 589.924 1.42978 5.5219 0
M  V30 6483 O 588.858 3.30543 5.03016 0
M  V30 6484 H 592.684 2.41139 1.84624 0
M  V30 6485 H 590.269 1.22504 0.855167 0
M  V30 6486 H 592.151 1.27092 4.01778 0
M  V30 6487 H 590.826 0.385469 3.21397 0
M  V30 6488 H 589.733 2.6346 2.65593 0
M  V30 6489 H 591.066 3.45231 3.50822 0
M  V30 6490 N 592.718 -0.936591 1.26751 0
M  V30 6491 C 593.967 -1.67778 1.11953 0
M  V30 6492 C 594.28 -1.92694 -0.33589 0
M  V30 6493 O 595.486 -2.64682 -0.604618 0
M  V30 6494 C 593.942 -3.02138 1.95551 0
M  V30 6495 C 593.55 -2.84953 3.45696 0
M  V30 6496 C 595.294 -3.79917 1.89377 0
M  V30 6497 C 593.201 -4.14814 4.21525 0
M  V30 6498 H 592.131 -0.629275 0.415366 0
M  V30 6499 H 594.782 -1.04122 1.51099 0
M  V30 6500 H 593.164 -3.668 1.49243 0
M  V30 6501 H 594.338 -2.29112 3.99805 0
M  V30 6502 H 592.653 -2.20612 3.53156 0
M  V30 6503 H 595.25 -4.76134 2.43312 0
M  V30 6504 H 595.593 -4.07204 0.865464 0
M  V30 6505 H 596.126 -3.22037 2.33532 0
M  V30 6506 H 592.865 -3.92709 5.24843 0
M  V30 6507 H 592.385 -4.70352 3.72195 0
M  V30 6508 H 594.064 -4.83239 4.3022 0
M  V30 6509 N 594.196 -1.08629 -1.14182 0
M  V30 6510 C 595.473 -0.73002 -1.81466 0
M  V30 6511 C 595.853 0.785996 -1.95922 0
M  V30 6512 O 595.201 1.70535 -1.52086 0
M  V30 6513 C 595.411 -1.45957 -3.17014 0
M  V30 6514 C 596.759 -1.62008 -3.92477 0
M  V30 6515 O 597.783 -1.42141 -3.26611 0
M  V30 6516 O 596.642 -1.94806 -5.106 0
M  V30 6517 H 593.736 -0.261307 -0.784632 0
M  V30 6518 H 596.282 -1.188 -1.2118 0
M  V30 6519 H 595.054 -2.49221 -3.01669 0
M  V30 6520 H 594.677 -0.993222 -3.84995 0
M  V30 6521 N 595.674 1.31259 -0.872281 0
M  V30 6522 C 597.09 1.49283 -0.564521 0
M  V30 6523 C 597.29 1.80243 0.900807 0
M  V30 6524 O 596.346 1.88246 1.68284 0
M  V30 6525 C 597.659 2.62503 -1.46673 0
M  V30 6526 C 599.207 2.76386 -1.46901 0
M  V30 6527 C 599.682 3.92705 -2.35684 0
M  V30 6528 N 601.173 3.99995 -2.33577 0
M  V30 6529 C 601.908 4.89276 -2.98992 0
M  V30 6530 N 601.404 5.83443 -3.73585 0
M  V30 6531 N 603.197 4.82541 -2.88289 0
M  V30 6532 H 595.348 1.09432 -1.82039 0
M  V30 6533 H 597.611 0.540949 -0.77851 0
M  V30 6534 H 597.317 2.46407 -2.50951 0
M  V30 6535 H 597.191 3.58695 -1.16696 0
M  V30 6536 H 599.578 2.91894 -0.433796 0
M  V30 6537 H 599.659 1.80853 -1.80903 0
M  V30 6538 H 599.303 3.77954 -3.39283 0
M  V30 6539 H 599.233 4.87549 -1.99006 0
M  V30 6540 H 601.724 3.32624 -1.7936 0
M  V30 6541 H 602.037 6.48303 -4.20622 0
M  V30 6542 H 600.382 5.83415 -3.77694 0
M  V30 6543 H 603.573 4.07951 -2.2955 0
M  V30 6544 H 603.746 5.51916 -3.39549 0
M  V30 6545 N 597.152 0.631951 1.44375 0
M  V30 6546 C 598.085 -0.121822 2.27875 0
M  V30 6547 C 599.063 -0.850457 1.38586 0
M  V30 6548 O 600.247 -0.854378 1.68026 0
M  V30 6549 C 597.374 -1.17859 3.17533 0
M  V30 6550 C 596.42 -0.550391 4.22934 0
M  V30 6551 S 597.253 0.660145 5.31415 0
M  V30 6552 C 598.409 -0.396613 6.24642 0
M  V30 6553 H 598.642 0.586537 2.91457 0
M  V30 6554 H 596.175 0.420146 1.48574 0
M  V30 6555 H 598.133 -1.78335 3.69739 0
M  V30 6556 H 596.794 -1.85915 2.53169 0
M  V30 6557 H 595.987 -1.34631 4.85685 0
M  V30 6558 H 595.589 -0.0202306 3.73995 0
M  V30 6559 H 597.881 -1.26893 6.65511 0
M  V30 6560 H 598.824 0.195345 7.0783 0
M  V30 6561 H 599.232 -0.72288 5.59852 0
M  V30 6562 N 598.631 -1.53133 0.372548 0
M  V30 6563 C 599.859 -2.05774 -0.215515 0
M  V30 6564 C 600.274 -1.24555 -1.41886 0
M  V30 6565 O 599.631 -0.287951 -1.80214 0
M  V30 6566 C 599.682 -3.5645 -0.602161 0
M  V30 6567 O 599.403 -4.34591 0.553359 0
M  V30 6568 C 600.904 -4.25374 -1.24787 0
M  V30 6569 H 598.124 -0.670009 -0.0364529 0
M  V30 6570 H 600.668 -1.97434 0.532934 0
M  V30 6571 H 598.823 -3.64918 -1.30052 0
M  V30 6572 H 599.237 -5.23954 0.239336 0
M  V30 6573 H 600.711 -5.32097 -1.46891 0
M  V30 6574 H 601.188 -3.79531 -2.21026 0
M  V30 6575 H 601.794 -4.21177 -0.590752 0
M  V30 6576 N 600.109 -0.101901 -1.5727 0
M  V30 6577 C 601.039 0.851544 -2.17419 0
M  V30 6578 C 602.02 1.28942 -1.10941 0
M  V30 6579 O 603.205 1.35509 -1.39107 0
M  V30 6580 C 600.335 2.10816 -2.75996 0
M  V30 6581 C 599.289 1.80867 -3.87906 0
M  V30 6582 C 598.615 3.13413 -4.33216 0
M  V30 6583 C 599.915 1.0903 -5.10793 0
M  V30 6584 H 601.609 0.350381 -2.97343 0
M  V30 6585 H 599.155 0.16709 -1.43027 0
M  V30 6586 H 601.108 2.77959 -3.16729 0
M  V30 6587 H 599.832 2.63227 -1.93337 0
M  V30 6588 H 598.491 1.16119 -3.47724 0
M  V30 6589 H 598.139 3.63725 -3.47438 0
M  V30 6590 H 597.839 2.94155 -5.08671 0
M  V30 6591 H 599.363 3.81704 -4.76586 0
M  V30 6592 H 600.777 1.66295 -5.48652 0
M  V30 6593 H 599.174 0.99927 -5.91722 0
M  V30 6594 H 600.244 0.0741704 -4.84843 0
M  V30 6595 N 601.587 1.56661 0.17182 0
M  V30 6596 C 602.815 1.861 0.904115 0
M  V30 6597 C 603.23 0.687227 1.75848 0
M  V30 6598 O 602.587 -0.343671 1.79235 0
M  V30 6599 C 602.638 3.14568 1.78127 0
M  V30 6600 O 602.359 4.27422 0.961366 0
M  V30 6601 C 603.86 3.5735 2.62327 0
M  V30 6602 H 601.08 0.617445 0.262684 0
M  V30 6603 H 603.624 2.03775 0.172068 0
M  V30 6604 H 601.779 2.98721 2.46666 0
M  V30 6605 H 602.193 5.00725 1.56123 0
M  V30 6606 H 603.667 4.50144 3.1949 0
M  V30 6607 H 604.144 2.81445 3.37173 0
M  V30 6608 H 604.75 3.75807 1.99121 0
M  V30 6609 N 603.065 -0.440357 1.51323 0
M  V30 6610 C 604.311 -1.19181 1.64085 0
M  V30 6611 C 604.644 -1.90936 0.354575 0
M  V30 6612 O 603.919 -1.8347 -0.645675 0
M  V30 6613 C 604.202 -2.2112 2.84215 0
M  V30 6614 C 604.055 -1.53468 4.22809 0
M  V30 6615 C 605.374 -3.22133 2.99864 0
M  V30 6616 H 602.493 -0.431924 0.597169 0
M  V30 6617 H 605.135 -0.481443 1.83799 0
M  V30 6618 H 603.285 -2.81703 2.67537 0
M  V30 6619 H 604.957 -0.962455 4.51148 0
M  V30 6620 H 603.2 -0.837086 4.25647 0
M  V30 6621 H 603.871 -2.27694 5.02852 0
M  V30 6622 H 606.347 -2.71601 3.15233 0
M  V30 6623 H 605.223 -3.90756 3.85488 0
M  V30 6624 H 605.484 -3.88061 2.11804 0
M  V30 6625 N 604.543 -1.41418 -0.695603 0
M  V30 6626 C 605.491 -1.43467 -1.83084 0
M  V30 6627 C 606.485 -0.312719 -1.66489 0
M  V30 6628 O 607.691 -0.484744 -1.7335 0
M  V30 6629 H 604.066 -0.448891 -0.603325 0
M  V30 6630 H 606.037 -2.39144 -1.78473 0
M  V30 6631 C 604.786 -1.3337 -3.21104 0
M  V30 6632 H 604.109 -2.18989 -3.3449 0
M  V30 6633 H 605.549 -1.38865 -4.00615 0
M  V30 6634 C 604.008 -0.0460484 -3.36869 0
M  V30 6635 O 604.538 0.909258 -3.91274 0
M  V30 6636 N 602.744 0.0300222 -2.90584 0
M  V30 6637 H 602.291 -0.748129 -2.46497 0
M  V30 6638 H 602.249 0.890991 -3.01511 0
M  V30 6639 N 606.021 0.929856 -1.27246 0
M  V30 6640 C 607.267 1.6798 -1.13625 0
M  V30 6641 C 607.6 1.91586 0.317589 0
M  V30 6642 O 606.875 1.50467 1.23247 0
M  V30 6643 C 607.158 3.04766 -1.91806 0
M  V30 6644 C 607.011 2.88415 -3.45162 0
M  V30 6645 C 608.33 4.05063 -1.72082 0
M  V30 6646 H 605.449 0.609632 -0.414147 0
M  V30 6647 H 608.091 1.0792 -1.56376 0
M  V30 6648 H 606.241 3.56034 -1.55474 0
M  V30 6649 H 607.913 2.44282 -3.91311 0
M  V30 6650 H 606.156 2.23802 -3.71611 0
M  V30 6651 H 606.827 3.85482 -3.95105 0
M  V30 6652 H 609.303 3.62798 -2.03757 0
M  V30 6653 H 608.179 4.98765 -2.29182 0
M  V30 6654 H 608.44 4.37021 -0.668206 0
M  V30 6655 N 607.499 1.09233 1.13605 0
M  V30 6656 C 608.409 0.741939 2.22559 0
M  V30 6657 C 609.425 -0.255236 1.72118 0
M  V30 6658 O 610.601 -0.0970747 2.01166 0
M  V30 6659 C 607.666 0.165595 3.46304 0
M  V30 6660 C 606.727 1.21846 4.11645 0
M  V30 6661 C 605.96 0.669526 5.29484 0
M  V30 6662 O 606.183 -0.508228 5.68131 0
M  V30 6663 O 605.117 1.42361 5.84822 0
M  V30 6664 H 608.943 1.65107 2.54899 0
M  V30 6665 H 606.528 0.866584 1.21699 0
M  V30 6666 H 608.41 -0.152592 4.21124 0
M  V30 6667 H 607.085 -0.716573 3.15669 0
M  V30 6668 H 605.992 1.58931 3.38662 0
M  V30 6669 H 607.325 2.07321 4.46407 0
M  V30 6670 N 608.977 -1.30795 0.87923 0
M  V30 6671 C 609.907 -2.30742 0.357796 0
M  V30 6672 C 610.888 -1.60747 -0.556283 0
M  V30 6673 O 612.073 -1.88393 -0.47135 0
M  V30 6674 C 609.203 -3.44583 -0.433555 0
M  V30 6675 C 608.157 -4.26235 0.388251 0
M  V30 6676 C 607.483 -5.32073 -0.529352 0
M  V30 6677 C 608.783 -4.96303 1.62729 0
M  V30 6678 H 610.477 -2.74605 1.19299 0
M  V30 6679 H 608.023 -1.32017 0.575104 0
M  V30 6680 H 609.976 -4.13563 -0.808934 0
M  V30 6681 H 608.7 -2.99511 -1.30234 0
M  V30 6682 H 607.359 -3.58936 0.745695 0
M  V30 6683 H 607.007 -4.83249 -1.39569 0
M  V30 6684 H 606.707 -5.87598 0.0166741 0
M  V30 6685 H 608.231 -6.0391 -0.901373 0
M  V30 6686 H 609.645 -5.5783 1.32283 0
M  V30 6687 H 608.042 -5.61666 2.11309 0
M  V30 6688 H 609.112 -4.22758 2.37494 0
M  V30 6689 N 610.455 -0.639598 -1.44038 0
M  V30 6690 C 611.866 -0.228866 -1.85292 0
M  V30 6691 C 612.217 1.22161 -1.53529 0
M  V30 6692 O 611.342 1.93064 -0.977518 0
M  V30 6693 C 611.937 -0.408592 -3.36327 0
M  V30 6694 C 610.496 -0.0522953 -3.76364 0
M  V30 6695 C 609.643 -0.717959 -2.67844 0
M  V30 6696 H 612.594 -0.844194 -1.34384 0
M  V30 6697 H 612.615 0.349968 -3.78887 0
M  V30 6698 H 612.127 -1.46435 -3.59414 0
M  V30 6699 H 610.228 1.0014 -3.58891 0
M  V30 6700 H 610.341 -0.468261 -4.76806 0
M  V30 6701 H 608.705 -0.152459 -2.54243 0
M  V30 6702 H 609.488 -1.77648 -2.93762 0
M  V30 6703 N 611.933 1.52934 -0.380664 0
M  V30 6704 C 613.21 1.93845 0.261417 0
M  V30 6705 C 613.59 1.31544 1.65104 0
M  V30 6706 O 612.938 0.480234 2.23397 0
M  V30 6707 C 613.148 3.47739 0.296466 0
M  V30 6708 C 614.496 4.21284 0.529578 0
M  V30 6709 O 615.52 3.54199 0.377041 0
M  V30 6710 O 614.379 5.40195 0.827753 0
M  V30 6711 H 611.473 0.811318 0.160285 0
M  V30 6712 H 614.019 1.64042 -0.434544 0
M  V30 6713 H 612.791 3.85395 -0.67724 0
M  V30 6714 H 612.414 3.8382 1.0377 0
M  V30 6715 N 613.412 0.11024 1.57214 0
M  V30 6716 C 614.64 -0.557834 1.99238 0
M  V30 6717 C 615.055 -1.60778 0.989734 0
M  V30 6718 O 614.412 -1.82491 -0.0186092 0
M  V30 6719 C 614.463 -1.19189 3.41286 0
M  V30 6720 O 614.184 -0.183919 4.37714 0
M  V30 6721 C 615.685 -1.94413 3.98395 0
M  V30 6722 H 612.905 -0.148392 0.654386 0
M  V30 6723 H 615.449 0.193996 2.03578 0
M  V30 6724 H 613.604 -1.89456 3.37913 0
M  V30 6725 H 614.018 -0.643475 5.20538 0
M  V30 6726 H 615.492 -2.34116 4.99894 0
M  V30 6727 H 615.969 -2.81592 3.3705 0
M  V30 6728 H 616.575 -1.28928 4.05287 0
M  V30 6729 N 614.89 -1.56749 -0.16351 0
M  V30 6730 C 616.137 -1.82434 -0.878866 0
M  V30 6731 C 616.465 -0.688557 -1.81904 0
M  V30 6732 O 615.72 0.323644 -1.93005 0
M  V30 6733 C 616.019 -3.14342 -1.70071 0
M  V30 6734 C 615.685 -4.41647 -0.908775 0
M  V30 6735 C 614.347 -4.76224 -0.690236 0
M  V30 6736 C 616.699 -5.19998 -0.353815 0
M  V30 6737 C 614.027 -5.86624 0.0942374 0
M  V30 6738 C 616.379 -6.3122 0.41761 0
M  V30 6739 C 615.043 -6.64358 0.646879 0
M  V30 6740 H 614.313 -0.667574 -0.3216 0
M  V30 6741 H 616.96 -1.90963 -0.14337 0
M  V30 6742 H 615.265 -3.0119 -2.50583 0
M  V30 6743 H 616.962 -3.31426 -2.25738 0
M  V30 6744 H 613.552 -4.1453 -1.08916 0
M  V30 6745 H 617.736 -4.93673 -0.509975 0
M  V30 6746 H 612.992 -6.10751 0.281529 0
M  V30 6747 H 617.166 -6.91133 0.854849 0
M  V30 6748 H 614.793 -7.49742 1.25662 0
M  V30 6749 N 616.368 0.432326 -1.51554 0
M  V30 6750 C 617.593 1.20824 -1.68571 0
M  V30 6751 C 618.018 1.84126 -0.384596 0
M  V30 6752 O 617.376 1.69025 0.655751 0
M  V30 6753 C 617.424 2.26429 -2.80646 0
M  V30 6754 O 616.528 3.32032 -2.44598 0
M  V30 6755 H 615.869 0.353765 -0.561913 0
M  V30 6756 H 618.399 0.509916 -1.98144 0
M  V30 6757 H 618.409 2.71133 -3.04878 0
M  V30 6758 H 617.084 1.79733 -3.75058 0
M  V30 6759 H 615.661 2.92769 -2.30956 0
M  V30 6760 N 617.846 1.41785 0.688094 0
M  V30 6761 C 619.257 1.3701 1.26828 0
M  V30 6762 C 619.608 0.056835 1.96118 0
M  V30 6763 O 618.733 -0.84475 1.99231 0
M  V30 6764 C 619.328 2.48168 2.30648 0
M  V30 6765 C 617.887 2.46766 2.84224 0
M  V30 6766 C 617.034 2.27633 1.58361 0
M  V30 6767 H 619.985 1.51192 0.482351 0
M  V30 6768 H 620.006 2.17655 3.121 0
M  V30 6769 H 619.518 3.43735 1.80188 0
M  V30 6770 H 617.619 1.54978 3.3884 0
M  V30 6771 H 617.732 3.43342 3.34145 0
M  V30 6772 H 616.096 1.75648 1.84445 0
M  V30 6773 H 616.879 3.25238 1.09887 0
M  V30 6774 N 619.324 -0.923095 1.27737 0
M  V30 6775 C 620.234 -2.05765 1.12685 0
M  V30 6776 C 621.25 -1.73911 0.0557197 0
M  V30 6777 O 622.426 -1.99674 0.263137 0
M  V30 6778 C 619.491 -3.37804 0.780363 0
M  V30 6779 C 618.552 -3.83326 1.93286 0
M  V30 6780 C 617.785 -5.09064 1.60281 0
M  V30 6781 O 618.008 -5.6809 0.512828 0
M  V30 6782 O 616.942 -5.50071 2.44347 0
M  V30 6783 H 620.768 -2.21378 2.07907 0
M  V30 6784 H 618.353 -1.04299 1.06968 0
M  V30 6785 H 620.235 -4.17097 0.600668 0
M  V30 6786 H 618.91 -3.23387 -0.142291 0
M  V30 6787 H 617.817 -3.049 2.16764 0
M  V30 6788 H 619.15 -4.02292 2.83588 0
M  V30 6789 N 620.802 -1.09834 -1.13024 0
M  V30 6790 C 621.732 -0.763451 -2.20666 0
M  V30 6791 C 622.713 0.260778 -1.68089 0
M  V30 6792 O 623.898 0.127915 -1.93778 0
M  V30 6793 C 621.028 -0.187744 -3.46792 0
M  V30 6794 C 619.982 -1.14196 -4.12484 0
M  V30 6795 C 619.308 -0.427755 -5.32986 0
M  V30 6796 C 620.608 -2.48607 -4.59338 0
M  V30 6797 H 622.302 -1.66347 -2.48936 0
M  V30 6798 H 619.848 -0.801261 -1.19649 0
M  V30 6799 H 621.801 0.0586375 -4.21359 0
M  V30 6800 H 620.525 0.747485 -3.17931 0
M  V30 6801 H 619.184 -1.37369 -3.3989 0
M  V30 6802 H 618.832 0.511747 -5.0039 0
M  V30 6803 H 618.532 -1.06403 -5.77886 0
M  V30 6804 H 620.056 -0.189772 -6.10305 0
M  V30 6805 H 621.47 -2.29618 -5.25308 0
M  V30 6806 H 619.867 -3.08062 -5.14993 0
M  V30 6807 H 620.937 -3.09062 -3.73642 0
M  V30 6808 N 622.28 1.30327 -0.886154 0
M  V30 6809 C 623.227 2.28099 -0.352069 0
M  V30 6810 C 624.197 1.56433 0.558397 0
M  V30 6811 O 625.382 1.84492 0.486561 0
M  V30 6812 C 622.522 3.42456 0.426346 0
M  V30 6813 C 621.635 4.28938 -0.513472 0
M  V30 6814 C 620.77 5.30458 0.280657 0
M  V30 6815 C 619.809 6.0859 -0.654556 0
M  V30 6816 N 618.946 7.02022 0.104322 0
M  V30 6817 H 623.786 2.73166 -1.19097 0
M  V30 6818 H 621.323 1.34367 -0.598662 0
M  V30 6819 H 623.281 4.07518 0.893587 0
M  V30 6820 H 621.911 2.98455 1.22981 0
M  V30 6821 H 620.963 3.64173 -1.09921 0
M  V30 6822 H 622.275 4.83399 -1.2299 0
M  V30 6823 H 621.429 6.01273 0.8097 0
M  V30 6824 H 620.168 4.76693 1.03029 0
M  V30 6825 H 619.173 5.36651 -1.19522 0
M  V30 6826 H 620.398 6.64443 -1.4033 0
M  V30 6827 H 618.344 6.50645 0.836472 0
M  V30 6828 H 618.261 7.53979 -0.552453 0
M  V30 6829 H 619.529 7.77077 0.614069 0
M  V30 6830 N 623.758 0.647228 1.43697 0
M  V30 6831 C 624.983 0.164083 2.0675 0
M  V30 6832 C 625.408 -1.15892 1.48158 0
M  V30 6833 O 624.766 -1.71459 0.589194 0
M  V30 6834 C 624.814 0.0800368 3.60511 0
M  V30 6835 O 623.918 -0.959453 4.01084 0
M  V30 6836 H 623.259 0.0921288 0.657578 0
M  V30 6837 H 625.789 0.88846 1.84303 0
M  V30 6838 H 625.799 -0.105263 4.07864 0
M  V30 6839 H 624.474 1.04586 4.02535 0
M  V30 6840 H 623.051 -0.747425 3.65333 0
M  V30 6841 N 625.236 -1.5273 0.388769 0
M  V30 6842 C 626.166 -2.29353 -0.438111 0
M  V30 6843 C 627.147 -1.32719 -1.06394 0
M  V30 6844 O 628.332 -1.61612 -1.07681 0
M  V30 6845 C 625.462 -3.09995 -1.56589 0
M  V30 6846 C 624.416 -4.14509 -1.06613 0
M  V30 6847 C 623.742 -4.83372 -2.28594 0
M  V30 6848 C 625.042 -5.22127 -0.134459 0
M  V30 6849 H 626.736 -2.98723 0.201206 0
M  V30 6850 H 624.282 -1.43665 0.0982089 0
M  V30 6851 H 626.235 -3.62357 -2.15118 0
M  V30 6852 H 624.959 -2.38357 -2.23279 0
M  V30 6853 H 623.618 -3.63128 -0.503383 0
M  V30 6854 H 623.266 -4.08283 -2.93792 0
M  V30 6855 H 622.966 -5.54012 -1.95817 0
M  V30 6856 H 624.49 -5.38538 -2.87766 0
M  V30 6857 H 625.904 -5.69851 -0.627914 0
M  V30 6858 H 624.301 -6.00011 0.103534 0
M  V30 6859 H 625.371 -4.77971 0.816798 0
M  V30 6860 N 626.714 -0.118576 -1.57153 0
M  V30 6861 C 627.644 0.828436 -2.1831 0
M  V30 6862 C 628.625 1.27758 -1.12303 0
M  V30 6863 O 629.81 1.34026 -1.40537 0
M  V30 6864 C 626.94 2.07876 -2.78217 0
M  V30 6865 C 625.894 1.76742 -3.89803 0
M  V30 6866 C 625.22 3.08801 -4.36516 0
M  V30 6867 C 626.52 1.03606 -5.11921 0
M  V30 6868 H 628.214 0.318824 -2.97698 0
M  V30 6869 H 625.76 0.151911 -1.43196 0
M  V30 6870 H 627.713 2.74584 -3.19659 0
M  V30 6871 H 626.437 2.61161 -1.96118 0
M  V30 6872 H 625.096 1.12424 -3.48936 0
M  V30 6873 H 624.744 3.6002 -3.51276 0
M  V30 6874 H 624.444 2.88743 -5.11763 0
M  V30 6875 H 625.968 3.76627 -4.80608 0
M  V30 6876 H 627.382 1.60467 -5.50385 0
M  V30 6877 H 625.779 0.936454 -5.92748 0
M  V30 6878 H 626.849 0.0227421 -4.84895 0
M  V30 6879 N 628.193 1.56834 0.155195 0
M  V30 6880 C 629.103 2.009 1.21146 0
M  V30 6881 C 630.119 0.923029 1.475 0
M  V30 6882 O 631.295 1.23189 1.59331 0
M  V30 6883 C 628.36 2.37378 2.52691 0
M  V30 6884 C 627.421 3.59883 2.34057 0
M  V30 6885 C 626.654 3.94612 3.59329 0
M  V30 6886 O 626.877 3.30104 4.65175 0
M  V30 6887 O 625.811 4.87895 3.52479 0
M  V30 6888 H 629.637 2.9105 0.867371 0
M  V30 6889 H 627.222 1.44916 0.363298 0
M  V30 6890 H 629.104 2.61737 3.3026 0
M  V30 6891 H 627.779 1.50385 2.86646 0
M  V30 6892 H 626.686 3.40722 1.54465 0
M  V30 6893 H 628.019 4.47468 2.0502 0
M  V30 6894 N 629.671 -0.424282 1.51781 0
M  V30 6895 C 630.919 -1.17028 1.64769 0
M  V30 6896 C 631.24 -1.91409 0.372523 0
M  V30 6897 O 630.51 -1.86091 -0.612108 0
M  V30 6898 H 629.09 -0.434992 0.607282 0
M  V30 6899 H 631.752 -0.485169 1.88765 0
M  V30 6900 H 630.848 -1.8927 2.4816 0
M  V30 6901 N 631.149 -1.42148 -0.680565 0
M  V30 6902 C 632.079 -1.4796 -1.80638 0
M  V30 6903 C 633.06 -0.336728 -1.66734 0
M  V30 6904 O 634.245 -0.550247 -1.86242 0
M  V30 6905 C 631.375 -1.37569 -3.18892 0
M  V30 6906 C 630.329 -2.49823 -3.47524 0
M  V30 6907 C 629.655 -2.24491 -4.85291 0
M  V30 6908 C 630.955 -3.92144 -3.44994 0
M  V30 6909 H 632.649 -2.42184 -1.76032 0
M  V30 6910 H 630.195 -1.16566 -0.845481 0
M  V30 6911 H 632.148 -1.40243 -3.97379 0
M  V30 6912 H 630.872 -0.398357 -3.24162 0
M  V30 6913 H 629.531 -2.46455 -2.71395 0
M  V30 6914 H 629.179 -1.25066 -4.87204 0
M  V30 6915 H 628.879 -2.99722 -5.05411 0
M  V30 6916 H 630.403 -2.28906 -5.66069 0
M  V30 6917 H 631.817 -3.97145 -4.13459 0
M  V30 6918 H 630.214 -4.67179 -3.76648 0
M  V30 6919 H 631.284 -4.19225 -2.43676 0
M  V30 6920 N 632.627 0.916307 -1.28225 0
M  V30 6921 C 633.557 2.0352 -1.14464 0
M  V30 6922 C 634.538 1.70045 -0.0430844 0
M  V30 6923 O 635.723 1.92954 -0.219619 0
M  V30 6924 C 632.853 3.37889 -0.803027 0
M  V30 6925 C 631.807 3.85516 -1.85908 0
M  V30 6926 C 631.133 5.1682 -1.37116 0
M  V30 6927 C 632.433 4.07655 -3.26519 0
M  V30 6928 H 634.127 2.1529 -2.08064 0
M  V30 6929 H 631.673 1.03446 -1.00174 0
M  V30 6930 H 633.626 4.15654 -0.693537 0
M  V30 6931 H 632.35 3.26164 0.168674 0
M  V30 6932 H 631.009 3.09953 -1.95767 0
M  V30 6933 H 630.657 5.01497 -0.38859 0
M  V30 6934 H 630.357 5.49657 -2.07728 0
M  V30 6935 H 631.881 5.97143 -1.27484 0
M  V30 6936 H 633.295 4.75953 -3.19596 0
M  V30 6937 H 631.692 4.51818 -3.94943 0
M  V30 6938 H 632.762 3.12553 -3.70727 0
M  V30 6939 N 634.105 1.10431 1.1244 0
M  V30 6940 C 635.037 0.710945 2.17895 0
M  V30 6941 C 636.05 -0.252315 1.60833 0
M  V30 6942 O 637.239 -0.03679 1.78462 0
M  V30 6943 C 634.339 0.0284262 3.38888 0
M  V30 6944 C 633.512 1.01585 4.2544 0
M  V30 6945 C 632.571 0.364826 5.24934 0
M  V30 6946 O 631.597 1.01561 5.60066 0
M  V30 6947 N 632.799 -0.87674 5.73841 0
M  V30 6948 H 635.564 1.61826 2.52255 0
M  V30 6949 H 633.125 0.993132 1.27861 0
M  V30 6950 H 635.117 -0.418568 4.0253 0
M  V30 6951 H 633.687 -0.781294 3.02679 0
M  V30 6952 H 632.907 1.64111 3.58415 0
M  V30 6953 H 634.195 1.68425 4.80115 0
M  V30 6954 H 633.593 -1.42483 5.47462 0
M  V30 6955 H 632.15 -1.26688 6.39369 0
M  V30 6956 N 635.583 -1.29855 0.893053 0
M  V30 6957 C 636.999 -1.48366 0.588199 0
M  V30 6958 C 637.199 -1.81654 -0.872018 0
M  V30 6959 O 636.255 -1.909 -1.65268 0
M  V30 6960 C 637.568 -2.60136 1.5083 0
M  V30 6961 C 639.116 -2.74014 1.51279 0
M  V30 6962 C 639.591 -3.88905 2.41902 0
M  V30 6963 N 641.082 -3.96228 2.39911 0
M  V30 6964 C 641.817 -4.84458 3.06738 0
M  V30 6965 N 641.313 -5.77426 3.8282 0
M  V30 6966 N 643.106 -4.77894 2.95929 0
M  V30 6967 H 635.257 -1.06522 1.83757 0
M  V30 6968 H 637.52 -0.528495 0.787018 0
M  V30 6969 H 637.226 -2.42383 2.54839 0
M  V30 6970 H 637.1 -3.56793 1.22388 0
M  V30 6971 H 639.487 -2.91167 0.480179 0
M  V30 6972 H 639.568 -1.77952 1.83757 0
M  V30 6973 H 639.212 -3.72508 3.45253 0
M  V30 6974 H 639.142 -4.84322 2.06737 0
M  V30 6975 H 641.633 -3.29728 1.84629 0
M  V30 6976 H 641.946 -6.41529 4.30883 0
M  V30 6977 H 640.291 -5.77332 3.86927 0
M  V30 6978 H 643.482 -4.04248 2.36012 0
M  V30 6979 H 643.655 -5.46444 3.48286 0
M  V30 6980 N 637.061 -0.65484 -1.43351 0
M  V30 6981 C 638.338 -0.0987371 -1.95351 0
M  V30 6982 C 638.718 1.38161 -1.59608 0
M  V30 6983 O 638.066 2.10791 -0.882021 0
M  V30 6984 C 638.276 -0.346684 -3.47274 0
M  V30 6985 C 639.624 -0.25249 -4.23849 0
M  V30 6986 O 640.648 -0.279332 -3.55103 0
M  V30 6987 O 639.507 -0.177584 -5.46211 0
M  V30 6988 H 636.601 0.0086829 -0.826954 0
M  V30 6989 H 639.147 -0.728189 -1.53282 0
M  V30 6990 H 637.919 -1.37296 -3.66423 0
M  V30 6991 H 637.542 0.315757 -3.96344 0
M  V30 6992 N 638.539 1.52521 -0.396863 0
M  V30 6993 C 639.785 2.01971 0.183169 0
M  V30 6994 C 640.118 1.2825 1.45827 0
M  V30 6995 O 639.393 0.385179 1.90648 0
M  V30 6996 C 639.676 3.5736 0.443391 0
M  V30 6997 C 639.529 4.41743 -0.84753 0
M  V30 6998 C 640.848 4.22539 1.2308 0
M  V30 6999 H 637.967 0.734119 0.0650976 0
M  V30 7000 H 640.609 1.82519 -0.527918 0
M  V30 7001 H 638.759 3.74066 1.04914 0
M  V30 7002 H 640.431 4.36773 -1.48414 0
M  V30 7003 H 638.674 4.0845 -1.4612 0
M  V30 7004 H 639.345 5.48507 -0.620003 0
M  V30 7005 H 641.821 4.09857 0.718084 0
M  V30 7006 H 640.697 5.31227 1.38162 0
M  V30 7007 H 640.958 3.80675 2.24808 0
M  V30 7008 N 640.017 0.126909 1.57088 0
M  V30 7009 C 641.242 -0.53997 2.00248 0
M  V30 7010 C 641.667 -1.58927 1.00618 0
M  V30 7011 O 641.025 -1.81288 -0.0210131 0
M  V30 7012 C 641.073 -1.13565 3.4225 0
M  V30 7013 O 640.177 -2.25103 3.45547 0
M  V30 7014 H 639.518 -0.13412 0.650314 0
M  V30 7015 H 642.048 0.217718 2.03438 0
M  V30 7016 H 642.058 -1.46925 3.80627 0
M  V30 7017 H 640.733 -0.367122 4.14277 0
M  V30 7018 H 639.31 -1.93123 3.18995 0
M  V30 7019 N 641.495 -1.56914 -0.146875 0
M  V30 7020 C 642.442 -1.98275 -1.18134 0
M  V30 7021 C 643.412 -0.850367 -1.42681 0
M  V30 7022 O 644.597 -1.11244 -1.55014 0
M  V30 7023 C 641.737 -2.36861 -2.5098 0
M  V30 7024 C 640.85 -3.63391 -2.33605 0
M  V30 7025 C 639.985 -3.91079 -3.59486 0
M  V30 7026 C 639.024 -5.10879 -3.37149 0
M  V30 7027 N 638.161 -5.34577 -4.55161 0
M  V30 7028 H 643.001 -2.8645 -0.821622 0
M  V30 7029 H 640.538 -1.41718 -0.394248 0
M  V30 7030 H 642.496 -2.57262 -3.28439 0
M  V30 7031 H 641.126 -1.51766 -2.84898 0
M  V30 7032 H 640.178 -3.50766 -1.47199 0
M  V30 7033 H 641.49 -4.51007 -2.13059 0
M  V30 7034 H 640.644 -4.11979 -4.45374 0
M  V30 7035 H 639.383 -3.01885 -3.83036 0
M  V30 7036 H 638.388 -4.89853 -2.49649 0
M  V30 7037 H 639.613 -6.01626 -3.14997 0
M  V30 7038 H 637.559 -4.48337 -4.78884 0
M  V30 7039 H 637.476 -6.16463 -4.37618 0
M  V30 7040 H 638.744 -5.59975 -5.42263 0
M  V30 7041 N 642.974 0.416227 -1.52004 0
M  V30 7042 C 644.39 0.754319 -1.40649 0
M  V30 7043 C 644.59 1.95059 -0.505392 0
M  V30 7044 O 643.646 2.5248 0.0315057 0
M  V30 7045 C 644.959 1.0149 -2.83055 0
M  V30 7046 C 646.507 1.11805 -2.9235 0
M  V30 7047 C 646.982 1.41144 -4.35709 0
M  V30 7048 N 648.473 1.48024 -4.38911 0
M  V30 7049 C 649.208 1.72338 -5.46889 0
M  V30 7050 N 648.704 1.94303 -6.64995 0
M  V30 7051 N 650.497 1.74294 -5.34395 0
M  V30 7052 H 642.648 -0.371324 -2.09129 0
M  V30 7053 H 644.911 -0.103811 -0.942299 0
M  V30 7054 H 644.617 0.208345 -3.51082 0
M  V30 7055 H 644.491 1.93697 -3.23668 0
M  V30 7056 H 646.878 1.91521 -2.24508 0
M  V30 7057 H 646.959 0.17451 -2.55204 0
M  V30 7058 H 646.603 0.619484 -5.04108 0
M  V30 7059 H 646.533 2.36739 -4.70385 0
M  V30 7060 H 649.024 1.32868 -3.53772 0
M  V30 7061 H 649.337 2.12286 -7.43071 0
M  V30 7062 H 647.682 1.91582 -6.68073 0
M  V30 7063 H 650.873 1.56667 -4.41104 0
M  V30 7064 H 651.046 1.92904 -6.18621 0
M  V30 7065 N 644.452 1.42507 0.673017 0
M  V30 7066 C 645.382 1.48916 1.79851 0
M  V30 7067 C 646.363 0.345566 1.66553 0
M  V30 7068 O 647.548 0.560116 1.85947 0
M  V30 7069 C 644.678 1.39258 3.18158 0
M  V30 7070 C 643.632 2.51662 3.46194 0
M  V30 7071 C 642.958 2.27062 4.84094 0
M  V30 7072 C 644.258 3.93968 3.42909 0
M  V30 7073 H 645.952 2.43114 1.74745 0
M  V30 7074 H 643.498 1.17013 0.839288 0
M  V30 7075 H 645.451 1.42349 3.96629 0
M  V30 7076 H 644.175 0.415542 3.23946 0
M  V30 7077 H 642.834 2.47891 2.70084 0
M  V30 7078 H 642.482 1.27648 4.86534 0
M  V30 7079 H 642.182 3.02398 5.03815 0
M  V30 7080 H 643.706 2.31905 5.64847 0
M  V30 7081 H 645.12 3.99332 4.11347 0
M  V30 7082 H 643.517 4.6917 3.74165 0
M  V30 7083 H 644.587 4.20512 2.41449 0
M  V30 7084 N 645.93 -0.909495 1.28709 0
M  V30 7085 C 647.178 -1.65577 1.15882 0
M  V30 7086 C 647.499 -1.928 -0.292108 0
M  V30 7087 O 646.769 -1.54716 -1.20166 0
M  V30 7088 H 645.349 -0.613714 0.425869 0
M  V30 7089 H 648.011 -1.09108 1.61498 0
M  V30 7090 H 647.107 -2.61634 1.70159 0
M  V30 7091 N 647.408 -1.11026 -1.11852 0
M  V30 7092 C 648.648 -0.866348 -1.85132 0
M  V30 7093 C 649.012 0.597236 -1.82475 0
M  V30 7094 O 650.213 0.957744 -2.51159 0
M  V30 7095 C 648.484 -1.40721 -3.28531 0
M  V30 7096 S 650.043 -1.29964 -4.19112 0
M  V30 7097 H 646.861 -0.312899 -0.638447 0
M  V30 7098 H 649.463 -1.41691 -1.34699 0
M  V30 7099 H 648.167 -2.46631 -3.28027 0
M  V30 7100 H 647.698 -0.85349 -3.8403 0
M  V30 7101 H 649.713 -0.261333 -4.95511 0
M  V30 7102 N 648.886 1.2938 -0.899927 0
M  V30 7103 C 649.836 2.25311 -0.349165 0
M  V30 7104 C 650.82 1.51889 0.530892 0
M  V30 7105 O 652.012 1.73028 0.372872 0
M  V30 7106 C 649.141 3.40696 0.422055 0
M  V30 7107 C 648.227 4.21455 -0.472935 0
M  V30 7108 N 648.618 4.8048 -1.58026 0
M  V30 7109 C 646.916 4.45177 -0.270767 0
M  V30 7110 C 647.617 5.41117 -2.13465 0
M  V30 7111 N 646.593 5.24518 -1.42766 0
M  V30 7112 H 650.395 2.68507 -1.19505 0
M  V30 7113 H 647.909 1.43992 -0.751006 0
M  V30 7114 H 649.906 4.08486 0.833369 0
M  V30 7115 H 648.566 2.99037 1.2652 0
M  V30 7116 H 649.577 4.79257 -1.96299 0
M  V30 7117 H 646.254 4.14071 0.533988 0
M  V30 7118 H 647.644 5.979 -3.06537 0
M  V30 7119 N 650.364 0.662433 1.43002 0
M  V30 7120 C 651.612 0.179237 2.01304 0
M  V30 7121 C 651.933 -1.21428 1.52579 0
M  V30 7122 O 651.203 -1.81294 0.742252 0
M  V30 7123 H 649.783 0.0632725 0.744316 0
M  V30 7124 H 652.445 0.856169 1.75088 0
M  V30 7125 H 651.541 0.170957 3.11631 0
M  V30 7126 N 651.842 -1.52309 0.404946 0
M  V30 7127 C 653.09 -2.01368 -0.17186 0
M  V30 7128 C 653.411 -1.29261 -1.46002 0
M  V30 7129 O 652.681 -0.41729 -1.91404 0
M  V30 7130 H 651.261 -0.744034 -0.0664993 0
M  V30 7131 H 653.923 -1.87263 0.540228 0
M  V30 7132 H 653.019 -3.09888 -0.370957 0
M  V30 7133 N 653.32 -0.135238 -1.57019 0
M  V30 7134 C 654.568 0.51777 -1.95355 0
M  V30 7135 C 654.889 1.6617 -1.02042 0
M  V30 7136 O 654.159 1.95738 -0.0797343 0
M  V30 7137 H 652.739 0.194264 -0.721298 0
M  V30 7138 H 655.401 -0.207983 -1.93787 0
M  V30 7139 H 654.497 0.901675 -2.98791 0
M  V30 7140 N 654.798 1.5699 0.138552 0
M  V30 7141 C 656.023 1.88344 0.86841 0
M  V30 7142 C 656.448 0.725159 1.7356 0
M  V30 7143 O 655.806 -0.324992 1.78363 0
M  V30 7144 C 655.854 3.18334 1.69398 0
M  V30 7145 O 654.958 3.02863 2.79907 0
M  V30 7146 H 654.299 0.618577 0.241367 0
M  V30 7147 H 656.829 2.04207 0.126826 0
M  V30 7148 H 656.839 3.50567 2.08726 0
M  V30 7149 H 655.514 4.02238 1.05725 0
M  V30 7150 H 654.091 2.82056 2.43924 0
M  V30 7151 N 656.276 -0.40816 1.52223 0
M  V30 7152 C 657.208 -1.51642 1.71864 0
M  V30 7153 C 658.221 -1.51378 0.599056 0
M  V30 7154 O 659.41 -1.55626 0.874239 0
M  V30 7155 C 656.51 -2.90534 1.74481 0
M  V30 7156 C 655.683 -3.14979 3.03491 0
M  V30 7157 C 654.742 -4.33749 2.97907 0
M  V30 7158 O 653.768 -4.30982 3.71811 0
M  V30 7159 N 654.97 -5.38912 2.15764 0
M  V30 7160 H 657.735 -1.35188 2.67478 0
M  V30 7161 H 655.296 -0.597468 1.50472 0
M  V30 7162 H 657.288 -3.68056 1.68275 0
M  V30 7163 H 655.858 -3.00441 0.863363 0
M  V30 7164 H 655.078 -2.25492 3.23337 0
M  V30 7165 H 656.366 -3.28156 3.88833 0
M  V30 7166 H 655.764 -5.44008 1.55152 0
M  V30 7167 H 654.321 -6.15174 2.15415 0
M  V30 7168 N 657.755 -1.42862 -0.66545 0
M  V30 7169 C 658.665 -1.49491 -1.80803 0
M  V30 7170 C 659.681 -0.382914 -1.69734 0
M  V30 7171 O 660.857 -0.635223 -1.9112 0
M  V30 7172 C 657.922 -1.40383 -3.17007 0
M  V30 7173 C 656.983 -2.62152 -3.39963 0
M  V30 7174 C 656.216 -2.53469 -4.69669 0
M  V30 7175 O 656.439 -1.57568 -5.48205 0
M  V30 7176 O 655.373 -3.43763 -4.94075 0
M  V30 7177 H 659.199 -2.45949 -1.78165 0
M  V30 7178 H 656.784 -1.24728 -0.822387 0
M  V30 7179 H 658.666 -1.377 -3.98267 0
M  V30 7180 H 657.341 -0.470546 -3.20262 0
M  V30 7181 H 656.248 -2.70409 -2.58515 0
M  V30 7182 H 657.581 -3.54411 -3.41546 0
M  V30 7183 N 659.233 0.902656 -1.29189 0
M  V30 7184 C 660.479 1.65532 -1.17163 0
M  V30 7185 C 660.812 1.92216 0.276879 0
M  V30 7186 O 660.087 1.53048 1.20027 0
M  V30 7187 C 660.37 3.00629 -1.98228 0
M  V30 7188 C 660.223 2.81029 -3.51202 0
M  V30 7189 C 661.542 4.01321 -1.80635 0
M  V30 7190 H 658.661 0.60071 -0.426985 0
M  V30 7191 H 661.303 1.04578 -1.5863 0
M  V30 7192 H 659.453 3.52656 -1.62991 0
M  V30 7193 H 661.125 2.35927 -3.96404 0
M  V30 7194 H 659.368 2.1587 -3.76275 0
M  V30 7195 H 660.039 3.77014 -4.03192 0
M  V30 7196 H 662.515 3.58394 -2.11406 0
M  V30 7197 H 661.391 4.93792 -2.3971 0
M  V30 7198 H 661.652 4.35505 -0.760754 0
M  V30 7199 N 660.711 1.11618 1.11262 0
M  V30 7200 C 661.658 0.7762 2.17356 0
M  V30 7201 C 662.628 -0.253152 1.6416 0
M  V30 7202 O 663.813 -0.129655 1.90359 0
M  V30 7203 C 660.953 0.227581 3.44349 0
M  V30 7204 C 660.066 1.31372 4.1154 0
M  V30 7205 C 659.201 0.72544 5.26223 0
M  V30 7206 C 658.24 1.7913 5.85302 0
M  V30 7207 N 657.377 1.22237 6.91377 0
M  V30 7208 H 662.217 1.68508 2.45783 0
M  V30 7209 H 659.754 0.841475 1.20655 0
M  V30 7210 H 661.712 -0.108483 4.17059 0
M  V30 7211 H 660.342 -0.644486 3.16301 0
M  V30 7212 H 659.394 1.7667 3.36885 0
M  V30 7213 H 660.706 2.12005 4.51504 0
M  V30 7214 H 659.86 0.339541 6.05749 0
M  V30 7215 H 658.599 -0.112188 4.87571 0
M  V30 7216 H 657.604 2.18648 5.04453 0
M  V30 7217 H 658.829 2.63199 6.26022 0
M  V30 7218 H 656.775 0.406423 6.5474 0
M  V30 7219 H 656.692 1.9654 7.30006 0
M  V30 7220 H 657.96 0.863426 7.74703 0
M  V30 7221 N 662.189 -1.289 0.906776 0
M  V30 7222 C 663.099 -2.31256 0.394707 0
M  V30 7223 C 664.115 -1.66231 -0.514121 0
M  V30 7224 O 665.291 -1.97347 -0.401994 0
M  V30 7225 C 662.356 -3.44792 -0.363191 0
M  V30 7226 C 661.417 -4.25391 0.578012 0
M  V30 7227 C 660.65 -5.33506 -0.143811 0
M  V30 7228 O 660.873 -5.53786 -1.36665 0
M  V30 7229 O 659.807 -5.99673 0.5173 0
M  V30 7230 H 663.633 -2.77051 1.24405 0
M  V30 7231 H 661.218 -1.33466 0.671346 0
M  V30 7232 H 663.1 -4.139 -0.791503 0
M  V30 7233 H 661.775 -3.01093 -1.18848 0
M  V30 7234 H 660.682 -3.58899 1.05558 0
M  V30 7235 H 662.015 -4.72752 1.36992 0
M  V30 7236 N 663.667 -0.670007 -1.42649 0
M  V30 7237 C 664.617 0.0339546 -2.27975 0
M  V30 7238 C 665.601 0.778295 -1.40824 0
M  V30 7239 O 666.793 0.657997 -1.64315 0
M  V30 7240 C 663.922 0.987899 -3.28779 0
M  V30 7241 C 663.008 0.241153 -4.23414 0
M  V30 7242 N 663.399 -0.751392 -5.00188 0
M  V30 7243 C 661.697 0.480269 -4.43407 0
M  V30 7244 C 662.398 -1.19615 -5.69269 0
M  V30 7245 N 661.374 -0.527045 -5.41039 0
M  V30 7246 H 665.176 -0.727425 -2.84756 0
M  V30 7247 H 662.69 -0.498673 -1.54554 0
M  V30 7248 H 664.687 1.50716 -3.88703 0
M  V30 7249 H 663.347 1.74916 -2.73559 0
M  V30 7250 H 664.358 -1.13075 -5.05405 0
M  V30 7251 H 661.035 1.2214 -3.99234 0
M  V30 7252 H 662.425 -2.01836 -6.40868 0
M  V30 7253 N 665.145 1.52092 -0.413018 0
M  V30 7254 C 666.37 2.06756 0.163338 0
M  V30 7255 C 666.795 1.28073 1.37764 0
M  V30 7256 O 666.153 0.312015 1.78595 0
M  V30 7257 C 666.201 3.57278 0.488322 0
M  V30 7258 O 665.305 3.80986 1.57871 0
M  V30 7259 H 664.646 0.663882 0.0125068 0
M  V30 7260 H 667.176 1.95988 -0.587339 0
M  V30 7261 H 667.186 4.01125 0.745836 0
M  V30 7262 H 665.861 4.13978 -0.399327 0
M  V30 7263 H 664.438 3.49017 1.31306 0
M  V30 7264 N 666.623 0.143563 1.56945 0
M  V30 7265 C 667.87 -0.508407 1.96014 0
M  V30 7266 C 668.198 -1.65099 1.02824 0
M  V30 7267 O 667.453 -1.95618 0.0567764 0
M  V30 7268 C 667.752 -1.05885 3.41355 0
M  V30 7269 C 667.418 -0.0350809 4.50886 0
M  V30 7270 C 666.08 0.246362 4.80569 0
M  V30 7271 C 668.432 0.661282 5.16988 0
M  V30 7272 C 665.76 1.23003 5.73661 0
M  V30 7273 C 668.112 1.63375 6.11139 0
M  V30 7274 C 666.776 1.92292 6.39203 0
M  V30 7275 H 666.046 -0.186039 0.717266 0
M  V30 7276 H 668.693 0.229667 1.90118 0
M  V30 7277 H 666.998 -1.87419 3.44066 0
M  V30 7278 H 668.695 -1.57183 3.6891 0
M  V30 7279 H 665.285 -0.264622 4.27782 0
M  V30 7280 H 669.469 0.457038 4.94191 0
M  V30 7281 H 664.725 1.46056 5.93698 0
M  V30 7282 H 668.899 2.17887 6.61436 0
M  V30 7283 H 666.526 2.68666 7.11142 0
M  V30 7284 N 668.101 -1.57061 -0.130224 0
M  V30 7285 C 669.348 -1.84257 -0.839972 0
M  V30 7286 C 669.676 -0.726986 -1.80403 0
M  V30 7287 O 668.931 0.282632 -1.93648 0
M  V30 7288 C 669.23 -3.17878 -1.63365 0
M  V30 7289 C 668.896 -4.43475 -0.814891 0
M  V30 7290 C 667.558 -4.77581 -0.589066 0
M  V30 7291 C 669.91 -5.20631 -0.243437 0
M  V30 7292 C 667.238 -5.86292 0.218648 0
M  V30 7293 C 669.59 -6.30192 0.551408 0
M  V30 7294 C 668.254 -6.62837 0.787653 0
M  V30 7295 H 667.524 -0.674245 -0.307367 0
M  V30 7296 H 670.171 -1.91224 -0.102832 0
M  V30 7297 H 668.476 -3.06437 -2.44138 0
M  V30 7298 H 670.173 -3.3614 -2.18658 0
M  V30 7299 H 666.763 -4.16747 -1.00098 0
M  V30 7300 H 670.947 -4.94644 -0.405145 0
M  V30 7301 H 666.203 -6.10017 0.411016 0
M  V30 7302 H 670.377 -6.89165 1.00126 0
M  V30 7303 H 668.004 -7.46908 1.41537 0
M  V30 7304 N 669.579 0.400081 -1.52437 0
M  V30 7305 C 670.526 1.48803 -1.76426 0
M  V30 7306 C 671.496 1.5461 -0.607032 0
M  V30 7307 O 672.681 1.71041 -0.845563 0
M  V30 7308 C 669.821 2.86156 -1.92896 0
M  V30 7309 C 668.934 2.89587 -3.20567 0
M  V30 7310 C 668.069 4.18296 -3.27417 0
M  V30 7311 C 667.108 4.15736 -4.49255 0
M  V30 7312 N 666.245 5.36032 -4.53447 0
M  V30 7313 H 671.085 1.27649 -2.69276 0
M  V30 7314 H 668.622 0.619451 -1.33421 0
M  V30 7315 H 670.58 3.65901 -2.00429 0
M  V30 7316 H 669.21 3.05785 -1.03418 0
M  V30 7317 H 668.262 2.02278 -3.22161 0
M  V30 7318 H 669.574 2.83562 -4.10358 0
M  V30 7319 H 668.728 5.06439 -3.34072 0
M  V30 7320 H 667.467 4.27028 -2.35581 0
M  V30 7321 H 666.472 3.25982 -4.42737 0
M  V30 7322 H 667.697 4.08636 -5.42396 0
M  V30 7323 H 665.643 5.45415 -3.64498 0
M  V30 7324 H 665.56 5.32038 -5.37096 0
M  V30 7325 H 666.828 6.26104 -4.64343 0
M  V30 7326 N 671.057 1.43213 0.657864 0
M  V30 7327 C 672.305 1.44298 1.41501 0
M  V30 7328 C 672.626 0.0666478 1.94886 0
M  V30 7329 O 671.896 -0.897345 1.74139 0
M  V30 7330 H 670.476 0.531257 0.525143 0
M  V30 7331 H 673.138 1.78777 0.776195 0
M  V30 7332 H 672.234 2.1528 2.25966 0
M  V30 7333 N 672.536 -0.895792 1.29666 0
M  V30 7334 C 673.782 -1.64908 1.18039 0
M  V30 7335 C 674.115 -1.9236 -0.266682 0
M  V30 7336 O 673.39 -1.53682 -1.19214 0
M  V30 7337 C 673.673 -2.99574 1.99819 0
M  V30 7338 C 673.526 -2.79163 3.52687 0
M  V30 7339 C 674.845 -4.00358 1.82761 0
M  V30 7340 H 671.964 -0.598437 0.430165 0
M  V30 7341 H 674.606 -1.03736 1.59182 0
M  V30 7342 H 672.756 -3.51786 1.64859 0
M  V30 7343 H 674.428 -2.33821 3.9765 0
M  V30 7344 H 672.671 -2.13871 3.77414 0
M  V30 7345 H 673.342 -3.74871 4.05186 0
M  V30 7346 H 675.818 -3.57268 2.13304 0
M  V30 7347 H 674.694 -4.92514 2.42325 0
M  V30 7348 H 674.955 -4.35096 0.783839 0
M  V30 7349 N 674.014 -1.12206 -1.10668 0
M  V30 7350 C 675.291 -0.787382 -1.79052 0
M  V30 7351 C 675.671 0.723267 -1.98323 0
M  V30 7352 O 675.019 1.6561 -1.57434 0
M  V30 7353 C 675.229 -1.55968 -3.1221 0
M  V30 7354 C 676.577 -1.74413 -3.87125 0
M  V30 7355 O 677.601 -1.5246 -3.21923 0
M  V30 7356 O 676.46 -2.10952 -5.04144 0
M  V30 7357 H 673.554 -0.286137 -0.775922 0
M  V30 7358 H 676.1 -1.22595 -1.1734 0
M  V30 7359 H 674.872 -2.58692 -2.93588 0
M  V30 7360 H 674.495 -1.1152 -3.8164 0
M  V30 7361 N 675.492 1.28418 -0.913599 0
M  V30 7362 C 676.738 1.95627 -0.556933 0
M  V30 7363 C 677.093 1.706 0.889565 0
M  V30 7364 O 676.386 1.01637 1.6242 0
M  V30 7365 C 676.58 3.48283 -0.802099 0
M  V30 7366 C 676.409 3.88151 -2.27088 0
M  V30 7367 C 675.179 4.1232 -2.92096 0
M  V30 7368 C 677.377 3.98819 -3.24728 0
M  V30 7369 N 675.359 4.3886 -4.29272 0
M  V30 7370 C 676.73 4.29571 -4.47067 0
M  V30 7371 C 678.785 3.81342 -3.20129 0
M  V30 7372 C 677.488 4.44667 -5.65388 0
M  V30 7373 C 679.514 3.97656 -4.37749 0
M  V30 7374 C 678.876 4.2878 -5.58862 0
M  V30 7375 H 674.975 0.739715 -0.253664 0
M  V30 7376 H 677.559 1.55074 -1.1773 0
M  V30 7377 H 675.73 3.87826 -0.211007 0
M  V30 7378 H 677.462 4.02623 -0.409478 0
M  V30 7379 H 674.217 4.06611 -2.42826 0
M  V30 7380 H 674.641 4.56214 -5.00198 0
M  V30 7381 H 679.283 3.56331 -2.2757 0
M  V30 7382 H 677.001 4.68509 -6.58426 0
M  V30 7383 H 680.587 3.85569 -4.35692 0
M  V30 7384 H 679.467 4.41136 -6.48359 0
M  V30 7385 N 676.97 0.677563 1.42291 0
M  V30 7386 C 677.902 -0.0380218 2.29168 0
M  V30 7387 C 678.915 -0.762714 1.43828 0
M  V30 7388 O 680.104 -0.616413 1.67519 0
M  V30 7389 C 677.204 -1.07761 3.21311 0
M  V30 7390 C 676.377 -0.42618 4.35319 0
M  V30 7391 C 675.436 -1.36592 5.08162 0
M  V30 7392 O 674.462 -0.865174 5.62586 0
M  V30 7393 N 675.664 -2.69909 5.13935 0
M  V30 7394 H 678.429 0.707766 2.91223 0
M  V30 7395 H 675.99 0.52219 1.53247 0
M  V30 7396 H 677.982 -1.70761 3.6691 0
M  V30 7397 H 676.552 -1.72511 2.60689 0
M  V30 7398 H 675.772 0.383385 3.92331 0
M  V30 7399 H 677.06 0.0275277 5.08793 0
M  V30 7400 H 676.458 -3.13129 4.71134 0
M  V30 7401 H 675.015 -3.2815 5.6317 0
M  V30 7402 N 678.448 -1.51871 0.421078 0
M  V30 7403 C 679.398 -2.24171 -0.416111 0
M  V30 7404 C 680.382 -1.25763 -1.00362 0
M  V30 7405 O 681.574 -1.5094 -0.924452 0
M  V30 7406 C 678.703 -3.07533 -1.52571 0
M  V30 7407 C 677.789 -4.1336 -0.948399 0
M  V30 7408 N 678.18 -5.05704 -0.0987933 0
M  V30 7409 C 676.478 -4.29055 -1.21768 0
M  V30 7410 C 677.179 -5.8127 0.223705 0
M  V30 7411 N 676.155 -5.4221 -0.388524 0
M  V30 7412 H 679.957 -2.92925 0.239166 0
M  V30 7413 H 677.471 -1.60732 0.232191 0
M  V30 7414 H 679.468 -3.57893 -2.13819 0
M  V30 7415 H 678.128 -2.4032 -2.18349 0
M  V30 7416 H 679.139 -5.17214 0.266428 0
M  V30 7417 H 675.816 -3.73071 -1.87416 0
M  V30 7418 H 677.206 -6.65653 0.914076 0
M  V30 7419 N 679.926 -0.151884 -1.56866 0
M  V30 7420 C 681.172 0.498742 -1.96572 0
M  V30 7421 C 681.505 1.64194 -1.03702 0
M  V30 7422 O 680.78 1.94334 -0.0803432 0
M  V30 7423 C 681.063 1.00027 -3.45929 0
M  V30 7424 C 680.916 -0.141767 -4.49577 0
M  V30 7425 C 682.235 1.88044 -3.97904 0
M  V30 7426 H 679.354 0.17982 -0.714726 0
M  V30 7427 H 681.996 -0.234097 -1.88552 0
M  V30 7428 H 680.146 1.62476 -3.52894 0
M  V30 7429 H 681.818 -0.778269 -4.54687 0
M  V30 7430 H 680.061 -0.80019 -4.26356 0
M  V30 7431 H 680.732 0.250947 -5.51429 0
M  V30 7432 H 683.208 1.35416 -3.93449 0
M  V30 7433 H 682.084 2.20043 -5.02864 0
M  V30 7434 H 682.345 2.81916 -3.40552 0
M  V30 7435 N 681.404 1.57128 0.121893 0
M  V30 7436 C 682.634 1.88609 0.843227 0
M  V30 7437 C 683.042 0.740917 1.74089 0
M  V30 7438 O 682.385 -0.297426 1.81276 0
M  V30 7439 C 682.447 3.15073 1.73117 0
M  V30 7440 C 682.111 4.45742 1.0081 0
M  V30 7441 C 683.108 5.18719 0.350255 0
M  V30 7442 C 680.793 4.92444 0.99014 0
M  V30 7443 C 682.787 6.36617 -0.315889 0
M  V30 7444 C 680.474 6.10261 0.320196 0
M  V30 7445 C 681.472 6.82194 -0.331666 0
M  V30 7446 O 681.16 7.97769 -0.990927 0
M  V30 7447 H 680.892 0.628919 0.247865 0
M  V30 7448 H 683.446 2.05096 0.111725 0
M  V30 7449 H 681.676 2.9466 2.50424 0
M  V30 7450 H 683.365 3.32597 2.32667 0
M  V30 7451 H 684.131 4.83693 0.35577 0
M  V30 7452 H 680.01 4.36361 1.48695 0
M  V30 7453 H 683.554 6.92701 -0.825272 0
M  V30 7454 H 679.451 6.44743 0.312433 0
M  V30 7455 H 680.219 8.13591 -0.895113 0
M  V30 7456 N 682.882 -0.391992 1.52647 0
M  V30 7457 C 683.812 -1.48517 1.8018 0
M  V30 7458 C 684.793 -1.57039 0.653667 0
M  V30 7459 O 685.978 -1.72036 0.900962 0
M  V30 7460 C 683.108 -2.86161 1.96797 0
M  V30 7461 C 682.062 -2.92481 3.12472 0
M  V30 7462 C 681.388 -4.32546 3.14338 0
M  V30 7463 C 682.688 -2.624 4.51601 0
M  V30 7464 H 684.382 -1.25726 2.71723 0
M  V30 7465 H 681.928 -0.603387 1.30749 0
M  V30 7466 H 683.881 -3.62639 2.14641 0
M  V30 7467 H 682.605 -3.10283 1.01941 0
M  V30 7468 H 681.264 -2.18451 2.94406 0
M  V30 7469 H 680.912 -4.53703 2.1717 0
M  V30 7470 H 680.612 -4.37695 3.92042 0
M  V30 7471 H 682.136 -5.10934 3.34333 0
M  V30 7472 H 683.55 -3.28596 4.69785 0
M  V30 7473 H 681.947 -2.78903 5.3135 0
M  V30 7474 H 683.017 -1.57754 4.58521 0
M  V30 7475 N 684.36 -1.4356 -0.65026 0
M  V30 7476 C 685.292 -1.44918 -1.77571 0
M  V30 7477 C 686.305 -0.344925 -1.59104 0
M  V30 7478 O 687.494 -0.609537 -1.6777 0
M  V30 7479 C 684.594 -1.24914 -3.15039 0
M  V30 7480 C 683.767 -2.48232 -3.60138 0
M  V30 7481 C 682.826 -2.23409 -4.76419 0
M  V30 7482 O 681.852 -2.9678 -4.85706 0
M  V30 7483 N 683.054 -1.25259 -5.66825 0
M  V30 7484 H 685.819 -2.41935 -1.76883 0
M  V30 7485 H 683.38 -1.38754 -0.834202 0
M  V30 7486 H 685.372 -1.06185 -3.90521 0
M  V30 7487 H 683.942 -0.363319 -3.10481 0
M  V30 7488 H 683.162 -2.82366 -2.75069 0
M  V30 7489 H 684.45 -3.30296 -3.87017 0
M  V30 7490 H 683.848 -0.646246 -5.61997 0
M  V30 7491 H 682.405 -1.12513 -6.42016 0
M  V30 7492 N 685.838 0.888903 -1.30139 0
M  V30 7493 C 686.785 1.99422 -1.16188 0
M  V30 7494 C 687.755 1.66017 -0.0523869 0
M  V30 7495 O 688.94 1.89506 -0.221864 0
M  V30 7496 C 686.08 3.34325 -0.855612 0
M  V30 7497 C 685.193 3.80445 -2.0466 0
M  V30 7498 C 684.328 5.03975 -1.67876 0
M  V30 7499 C 683.367 5.42492 -2.83493 0
M  V30 7500 N 682.504 6.57206 -2.47032 0
M  V30 7501 H 687.344 2.10687 -2.10749 0
M  V30 7502 H 684.881 1.03165 -1.04859 0
M  V30 7503 H 686.839 4.11968 -0.658681 0
M  V30 7504 H 685.469 3.22756 0.0531155 0
M  V30 7505 H 684.521 2.98745 -2.3549 0
M  V30 7506 H 685.833 4.04933 -2.91257 0
M  V30 7507 H 684.987 5.89232 -1.44535 0
M  V30 7508 H 683.726 4.8135 -0.784431 0
M  V30 7509 H 682.731 4.55764 -3.07505 0
M  V30 7510 H 683.956 5.67093 -3.73607 0
M  V30 7511 H 681.902 6.36164 -1.601 0
M  V30 7512 H 681.819 6.81543 -3.27161 0
M  V30 7513 H 683.087 7.45704 -2.27038 0
M  V30 7514 N 687.317 1.12792 1.10072 0
M  V30 7515 C 688.547 0.907189 1.85617 0
M  V30 7516 C 688.955 -0.547181 1.81115 0
M  V30 7517 O 688.298 -1.39024 1.20075 0
M  V30 7518 C 688.36 1.30872 3.34832 0
M  V30 7519 C 688.024 2.77516 3.6309 0
M  V30 7520 C 689.021 3.75696 3.59373 0
M  V30 7521 C 686.706 3.14513 3.91646 0
M  V30 7522 C 688.7 5.08888 3.83812 0
M  V30 7523 C 686.387 4.47886 4.15742 0
M  V30 7524 C 687.385 5.44882 4.11816 0
M  V30 7525 O 687.073 6.7585 4.35295 0
M  V30 7526 H 686.805 0.323855 0.593375 0
M  V30 7527 H 689.359 1.50262 1.40038 0
M  V30 7528 H 687.589 0.656518 3.81086 0
M  V30 7529 H 689.278 1.06153 3.91773 0
M  V30 7530 H 690.044 3.48458 3.37345 0
M  V30 7531 H 685.923 2.39622 3.93831 0
M  V30 7532 H 689.467 5.84586 3.80663 0
M  V30 7533 H 685.364 4.74851 4.37249 0
M  V30 7534 H 686.132 6.81853 4.52791 0
M  V30 7535 N 688.795 -1.27931 0.920396 0
M  V30 7536 C 690.206 -1.76707 0.602616 0
M  V30 7537 C 690.557 -1.75249 -0.882159 0
M  V30 7538 O 689.682 -1.35135 -1.69019 0
M  V30 7539 C 690.277 -3.20884 1.08714 0
M  V30 7540 C 688.836 -3.67356 0.820157 0
M  V30 7541 C 687.983 -2.47525 1.25006 0
M  V30 7542 H 690.934 -1.14301 1.10095 0
M  V30 7543 H 690.955 -3.78045 0.431535 0
M  V30 7544 H 690.467 -3.21913 2.1678 0
M  V30 7545 H 688.568 -3.7178 -0.247012 0
M  V30 7546 H 688.681 -4.57181 1.43257 0
M  V30 7547 H 687.045 -2.45765 0.668698 0
M  V30 7548 H 687.828 -2.51269 2.3392 0
M  V30 7549 N 690.273 -0.685099 -1.4193 0
M  V30 7550 C 691.684 -0.287699 -1.8447 0
M  V30 7551 C 692.035 1.17215 -1.57338 0
M  V30 7552 O 691.16 1.89856 -1.03845 0
M  V30 7553 C 691.755 -0.515385 -3.34857 0
M  V30 7554 C 690.314 -0.172006 -3.76007 0
M  V30 7555 C 689.461 -0.802808 -2.65425 0
M  V30 7556 H 692.412 -0.88652 -1.3163 0
M  V30 7557 H 692.433 0.229251 -3.79809 0
M  V30 7558 H 691.945 -1.57796 -3.54573 0
M  V30 7559 H 690.046 0.886716 -3.61895 0
M  V30 7560 H 690.159 -0.619717 -4.75075 0
M  V30 7561 H 688.523 -0.233267 -2.5363 0
M  V30 7562 H 689.306 -1.86904 -2.87961 0
M  V30 7563 N 691.751 1.51645 -0.429126 0
M  V30 7564 C 693.162 1.86665 0.0359003 0
M  V30 7565 C 693.513 1.34677 1.42676 0
M  V30 7566 O 692.638 0.694195 2.04963 0
M  V30 7567 C 693.233 3.38724 0.0719221 0
M  V30 7568 C 691.792 3.7331 0.481336 0
M  V30 7569 C 690.939 2.75313 -0.331329 0
M  V30 7570 H 693.89 1.44987 -0.645333 0
M  V30 7571 H 693.911 3.7011 0.883118 0
M  V30 7572 H 693.423 3.76532 -0.940495 0
M  V30 7573 H 691.524 3.41088 1.49966 0
M  V30 7574 H 691.637 4.78631 0.211837 0
M  V30 7575 H 690.001 2.53839 0.209204 0
M  V30 7576 H 690.784 3.15963 -1.34247 0
M  V30 7577 N 693.229 0.160201 1.56784 0
M  V30 7578 C 694.159 -0.770264 2.2043 0
M  V30 7579 C 695.14 -1.24736 1.15651 0
M  V30 7580 O 696.325 -1.30253 1.44041 0
M  V30 7581 C 693.455 -2.00427 2.83631 0
M  V30 7582 C 692.409 -1.66345 3.94352 0
M  V30 7583 C 691.735 -2.97119 4.4455 0
M  V30 7584 C 693.035 -0.899972 5.14488 0
M  V30 7585 H 694.729 -0.239783 2.98438 0
M  V30 7586 H 692.275 -0.113891 1.43549 0
M  V30 7587 H 694.228 -2.66012 3.26827 0
M  V30 7588 H 692.952 -2.5587 2.02973 0
M  V30 7589 H 691.611 -1.03133 3.51794 0
M  V30 7590 H 691.259 -3.5058 3.60698 0
M  V30 7591 H 690.959 -2.75073 5.19238 0
M  V30 7592 H 692.483 -3.63753 4.90425 0
M  V30 7593 H 693.897 -1.45818 5.54446 0
M  V30 7594 H 692.294 -0.778968 5.95023 0
M  V30 7595 H 693.364 0.105827 4.84785 0
M  V30 7596 N 694.707 -1.5719 -0.113559 0
M  V30 7597 C 695.956 -1.84325 -0.818984 0
M  V30 7598 C 696.269 -0.746685 -1.80787 0
M  V30 7599 O 697.475 -0.904596 -2.55987 0
M  V30 7600 C 695.931 -3.26818 -1.50724 0
M  V30 7601 C 695.539 -4.44498 -0.559065 0
M  V30 7602 C 697.283 -3.63196 -2.19748 0
M  V30 7603 C 695.19 -5.7802 -1.25086 0
M  V30 7604 H 694.12 -0.687507 -0.309596 0
M  V30 7605 H 696.771 -1.8336 -0.0717621 0
M  V30 7606 H 695.153 -3.22269 -2.30128 0
M  V30 7607 H 696.327 -4.60356 0.202146 0
M  V30 7608 H 694.642 -4.16393 0.024495 0
M  V30 7609 H 697.239 -4.60226 -2.72206 0
M  V30 7610 H 697.582 -2.90899 -2.97798 0
M  V30 7611 H 698.115 -3.69553 -1.47226 0
M  V30 7612 H 694.854 -6.53501 -0.511539 0
M  V30 7613 H 694.374 -5.66038 -1.98395 0
M  V30 7614 H 696.053 -6.2196 -1.78253 0
M  V30 7615 N 696.185 0.383891 -1.52853 0
M  V30 7616 C 697.596 0.961591 -1.60032 0
M  V30 7617 C 697.947 1.90819 -0.456333 0
M  V30 7618 O 697.072 2.12288 0.419873 0
M  V30 7619 C 697.667 1.75078 -2.90057 0
M  V30 7620 C 696.226 2.2781 -2.99632 0
M  V30 7621 C 695.373 1.08512 -2.55187 0
M  V30 7622 H 698.324 0.163269 -1.57858 0
M  V30 7623 H 698.345 2.61046 -2.7683 0
M  V30 7624 H 697.857 1.06157 -3.73299 0
M  V30 7625 H 695.958 3.00028 -2.20939 0
M  V30 7626 H 696.071 2.56947 -4.0437 0
M  V30 7627 H 694.435 1.44667 -2.09627 0
M  V30 7628 H 695.218 0.41118 -3.40829 0
M  V30 7629 N 697.663 1.43903 0.642637 0
M  V30 7630 C 699.074 1.40975 1.22404 0
M  V30 7631 C 699.425 0.1192 1.95838 0
M  V30 7632 O 698.55 -0.780939 2.01818 0
M  V30 7633 C 699.145 2.5538 2.22636 0
M  V30 7634 C 697.704 2.55684 2.76229 0
M  V30 7635 C 696.851 2.32556 1.51039 0
M  V30 7636 H 699.802 1.5265 0.434006 0
M  V30 7637 H 699.823 2.27474 3.05017 0
M  V30 7638 H 699.335 3.49294 1.69161 0
M  V30 7639 H 697.436 1.65679 3.33738 0
M  V30 7640 H 697.549 3.53799 3.23053 0
M  V30 7641 H 695.913 1.81427 1.78764 0
M  V30 7642 H 696.696 3.28569 0.99484 0
M  V30 7643 N 699.141 -0.881989 1.30609 0
M  V30 7644 C 700.557 -1.16576 1.09005 0
M  V30 7645 C 700.757 -2.00961 -0.14727 0
M  V30 7646 O 699.813 -2.38117 -0.840036 0
M  V30 7647 C 701.126 -1.86954 2.35518 0
M  V30 7648 C 702.674 -1.99706 2.41011 0
M  V30 7649 C 703.149 -2.73497 3.67374 0
M  V30 7650 N 704.64 -2.8104 3.68199 0
M  V30 7651 C 705.375 -3.38718 4.62664 0
M  V30 7652 N 704.871 -3.97421 5.67475 0
M  V30 7653 N 706.664 -3.36561 4.50203 0
M  V30 7654 H 698.815 -0.319398 2.09985 0
M  V30 7655 H 701.078 -0.204058 0.925778 0
M  V30 7656 H 700.784 -1.32393 3.2583 0
M  V30 7657 H 700.658 -2.87317 2.44395 0
M  V30 7658 H 703.045 -2.53436 1.51176 0
M  V30 7659 H 703.126 -0.984218 2.36108 0
M  V30 7660 H 702.77 -2.20438 4.57569 0
M  V30 7661 H 702.7 -3.75163 3.6954 0
M  V30 7662 H 705.191 -2.39365 2.92426 0
M  V30 7663 H 705.504 -4.39507 6.35652 0
M  V30 7664 H 703.849 -3.95832 5.71264 0
M  V30 7665 H 707.04 -2.8993 3.67503 0
M  V30 7666 H 707.213 -3.81215 5.24003 0
M  V30 7667 N 700.619 -1.13374 -1.09472 0
M  V30 7668 C 701.867 -0.893422 -1.8128 0
M  V30 7669 C 702.188 0.582029 -1.86111 0
M  V30 7670 O 701.458 1.42305 -1.34633 0
M  V30 7671 H 700.038 -0.327543 -0.67136 0
M  V30 7672 H 702.7 -1.43018 -1.32408 0
M  V30 7673 H 701.796 -1.28374 -2.84476 0
M  V30 7674 N 702.098 1.27442 -0.927168 0
M  V30 7675 C 703.008 2.30599 -0.431448 0
M  V30 7676 C 704.024 1.67028 0.48761 0
M  V30 7677 O 705.2 1.97962 0.370546 0
M  V30 7678 C 702.265 3.45327 0.308292 0
M  V30 7679 C 701.326 4.24418 -0.645615 0
M  V30 7680 C 700.559 5.33667 0.0589164 0
M  V30 7681 O 700.782 5.5589 1.27838 0
M  V30 7682 O 699.716 5.98774 -0.612638 0
M  V30 7683 H 703.542 2.75036 -1.28797 0
M  V30 7684 H 701.127 1.32382 -0.692495 0
M  V30 7685 H 703.009 4.15107 0.725555 0
M  V30 7686 H 701.684 3.02945 1.14043 0
M  V30 7687 H 700.591 3.57174 -1.11255 0
M  V30 7688 H 701.924 4.70512 -1.44496 0
M  V30 7689 N 703.576 0.692616 1.41565 0
M  V30 7690 C 704.822 0.222664 2.01574 0
M  V30 7691 C 705.155 -1.1737 1.54719 0
M  V30 7692 O 704.43 -1.79161 0.757084 0
M  V30 7693 C 704.713 0.277064 3.59033 0
M  V30 7694 C 704.566 1.71016 4.16021 0
M  V30 7695 C 705.885 -0.36479 4.38586 0
M  V30 7696 H 703.004 0.0823839 0.732381 0
M  V30 7697 H 705.646 0.880778 1.68352 0
M  V30 7698 H 703.796 -0.283288 3.87466 0
M  V30 7699 H 705.468 2.32413 3.98475 0
M  V30 7700 H 703.711 2.24525 3.71175 0
M  V30 7701 H 704.382 1.69978 5.25178 0
M  V30 7702 H 706.858 0.112404 4.15948 0
M  V30 7703 H 705.734 -0.296169 5.481 0
M  V30 7704 H 705.995 -1.44506 4.17816 0
M  V30 7705 N 705.054 -1.51416 0.437162 0
M  V30 7706 C 706.002 -2.29328 -0.388765 0
M  V30 7707 C 706.996 -1.35171 -1.02104 0
M  V30 7708 O 708.202 -1.52513 -0.956024 0
M  V30 7709 H 704.577 -0.738048 -0.144183 0
M  V30 7710 H 706.548 -2.96995 0.289212 0
M  V30 7711 C 705.297 -3.14741 -1.47761 0
M  V30 7712 H 704.62 -3.8708 -1.00045 0
M  V30 7713 H 706.06 -3.72313 -2.02877 0
M  V30 7714 C 704.519 -2.30105 -2.46076 0
M  V30 7715 O 705.049 -1.96055 -3.50607 0
M  V30 7716 N 703.255 -1.93331 -2.1696 0
M  V30 7717 H 702.802 -2.2122 -1.31983 0
M  V30 7718 H 702.76 -1.36999 -2.82982 0
M  V30 7719 N 706.532 -0.168513 -1.56696 0
M  V30 7720 C 707.495 0.748928 -2.16619 0
M  V30 7721 C 708.495 1.16007 -1.11351 0
M  V30 7722 O 709.685 1.07748 -1.3688 0
M  V30 7723 C 706.817 2.01904 -2.74677 0
M  V30 7724 H 708.01 0.227317 -2.99037 0
M  V30 7725 H 705.563 0.0810372 -1.5609 0
M  V30 7726 H 706.298 2.58381 -1.95985 0
M  V30 7727 H 706.083 1.73323 -3.51712 0
M  V30 7728 H 707.573 2.67383 -3.20774 0
M  V30 7729 N 708.01 1.57248 0.105221 0
M  V30 7730 C 708.973 2.00388 1.11252 0
M  V30 7731 C 709.973 0.89594 1.33527 0
M  V30 7732 O 711.163 1.16166 1.29811 0
M  V30 7733 C 708.295 2.35589 2.46395 0
M  V30 7734 H 709.488 2.90591 0.741424 0
M  V30 7735 H 707.041 1.52332 0.349956 0
M  V30 7736 H 707.776 1.4831 2.884 0
M  V30 7737 H 707.561 3.16408 2.31578 0
M  V30 7738 H 709.051 2.69658 3.18864 0
M  V30 7739 N 709.488 -0.375779 1.53054 0
M  V30 7740 C 710.765 -1.13453 1.59336 0
M  V30 7741 C 711.145 -2.07379 0.394614 0
M  V30 7742 O 710.493 -2.2004 -0.616 0
M  V30 7743 C 710.703 -1.8826 2.93869 0
M  V30 7744 C 712.051 -2.43155 3.48081 0
M  V30 7745 O 713.075 -1.984 2.95831 0
M  V30 7746 O 711.934 -3.24944 4.39401 0
M  V30 7747 H 709.028 -0.519856 0.643179 0
M  V30 7748 H 711.574 -0.379865 1.65394 0
M  V30 7749 H 710.346 -1.19652 3.72558 0
M  V30 7750 H 709.969 -2.70658 2.91256 0
M  V30 7751 N 710.966 -1.44241 -0.634997 0
M  V30 7752 C 711.929 -1.50457 -1.72903 0
M  V30 7753 C 712.929 -0.387058 -1.56072 0
M  V30 7754 O 714.119 -0.649531 -1.61638 0
M  V30 7755 C 711.251 -1.37477 -3.1195 0
M  V30 7756 H 712.444 -2.47907 -1.68767 0
M  V30 7757 H 709.997 -1.31276 -0.84831 0
M  V30 7758 H 710.732 -0.41106 -3.21684 0
M  V30 7759 H 710.517 -2.18506 -3.25573 0
M  V30 7760 H 712.007 -1.44799 -3.91692 0
M  V30 7761 N 712.444 0.87505 -1.31075 0
M  V30 7762 C 713.691 1.62768 -1.20469 0
M  V30 7763 C 714.019 1.93034 0.23834 0
M  V30 7764 O 713.274 1.55693 1.18567 0
M  V30 7765 C 713.573 2.96948 -1.98888 0
M  V30 7766 C 713.239 2.86195 -3.4843 0
M  V30 7767 C 711.901 2.82969 -3.89207 0
M  V30 7768 C 714.253 2.73599 -4.43614 0
M  V30 7769 C 711.581 2.64999 -5.23443 0
M  V30 7770 C 713.933 2.57166 -5.77969 0
M  V30 7771 C 712.597 2.52321 -6.17973 0
M  V30 7772 H 711.867 0.595611 -0.440827 0
M  V30 7773 H 714.514 1.01665 -1.62285 0
M  V30 7774 H 712.819 3.62058 -1.49737 0
M  V30 7775 H 714.516 3.54164 -1.88067 0
M  V30 7776 H 711.106 2.8952 -3.16032 0
M  V30 7777 H 715.29 2.7515 -4.13045 0
M  V30 7778 H 710.546 2.5967 -5.53517 0
M  V30 7779 H 714.72 2.46396 -6.51354 0
M  V30 7780 H 712.347 2.38156 -7.21932 0
M  V30 7781 N 713.922 1.13953 1.08869 0
M  V30 7782 C 715.199 0.815768 1.77777 0
M  V30 7783 C 715.579 -0.691624 1.99449 0
M  V30 7784 O 714.927 -1.63085 1.60049 0
M  V30 7785 C 715.137 1.60916 3.09689 0
M  V30 7786 C 716.485 1.80549 3.84301 0
M  V30 7787 O 717.509 1.57562 3.19457 0
M  V30 7788 O 716.368 2.18946 5.00724 0
M  V30 7789 H 713.462 0.298445 0.771271 0
M  V30 7790 H 716.008 1.24446 1.15374 0
M  V30 7791 H 714.78 2.6333 2.89435 0
M  V30 7792 H 714.403 1.17578 3.79817 0
M  V30 7793 N 715.4 -1.26948 0.933913 0
M  V30 7794 C 716.649 -1.93378 0.573409 0
M  V30 7795 C 716.962 -1.74148 -0.890614 0
M  V30 7796 O 718.168 -2.34971 -1.36017 0
M  V30 7797 C 716.624 -3.46449 0.974747 0
M  V30 7798 C 716.232 -3.74425 2.45988 0
M  V30 7799 C 717.976 -4.18924 0.685791 0
M  V30 7800 C 715.883 -5.209 2.8003 0
M  V30 7801 H 714.813 -0.723952 0.210736 0
M  V30 7802 H 717.464 -1.44143 1.13557 0
M  V30 7803 H 715.846 -3.94528 0.341181 0
M  V30 7804 H 717.02 -3.37079 3.14188 0
M  V30 7805 H 715.335 -3.15167 2.72138 0
M  V30 7806 H 717.932 -5.26786 0.916546 0
M  V30 7807 H 718.275 -4.14587 -0.377217 0
M  V30 7808 H 718.808 -3.76687 1.27874 0
M  V30 7809 H 715.547 -5.30332 3.85264 0
M  V30 7810 H 715.067 -5.59369 2.16485 0
M  V30 7811 H 716.746 -5.88837 2.68105 0
M  V30 7812 N 716.879 -0.700114 -1.41195 0
M  V30 7813 C 718.127 -0.232546 -2.00758 0
M  V30 7814 C 718.448 1.1734 -1.55745 0
M  V30 7815 O 717.718 1.79262 -0.790058 0
M  V30 7816 H 716.298 -0.0829845 -0.742376 0
M  V30 7817 H 718.96 -0.902289 -1.72756 0
M  V30 7818 H 718.056 -0.253521 -3.11069 0
M  V30 7819 N 718.357 1.51182 -0.445186 0
M  V30 7820 C 719.582 2.07056 0.119445 0
M  V30 7821 C 720.007 1.30966 1.35016 0
M  V30 7822 O 719.365 0.349827 1.77893 0
M  V30 7823 C 719.413 3.58234 0.412428 0
M  V30 7824 O 718.517 3.84249 1.49754 0
M  V30 7825 H 717.858 0.663998 -0.00157797 0
M  V30 7826 H 720.388 1.94699 -0.628779 0
M  V30 7827 H 720.398 4.02617 0.660583 0
M  V30 7828 H 719.073 4.13038 -0.487049 0
M  V30 7829 H 717.65 3.51724 1.23873 0
M  V30 7830 N 719.835 0.176821 1.56605 0
M  V30 7831 C 721.082 -0.466715 1.97048 0
M  V30 7832 C 721.41 -1.6288 1.06302 0
M  V30 7833 O 720.665 -1.95453 0.0982571 0
M  V30 7834 C 720.964 -0.986208 3.43524 0
M  V30 7835 C 720.63 0.0605667 4.50859 0
M  V30 7836 C 719.292 0.348242 4.79938 0
M  V30 7837 C 721.644 0.770794 5.15469 0
M  V30 7838 C 718.972 1.35144 5.70923 0
M  V30 7839 C 721.324 1.76301 6.07537 0
M  V30 7840 C 719.988 2.05808 6.3498 0
M  V30 7841 H 719.258 -0.170783 0.721051 0
M  V30 7842 H 721.905 0.269942 1.89588 0
M  V30 7843 H 720.21 -1.80079 3.47964 0
M  V30 7844 H 721.907 -1.49323 3.72161 0
M  V30 7845 H 718.497 -0.173823 4.28247 0
M  V30 7846 H 722.681 0.56176 4.9311 0
M  V30 7847 H 717.937 1.58616 5.90467 0
M  V30 7848 H 722.111 2.31868 6.56666 0
M  V30 7849 H 719.738 2.8369 7.05283 0
M  V30 7850 N 721.313 -1.57302 -0.09688 0
M  V30 7851 C 722.59 -1.7701 -0.832272 0
M  V30 7852 C 722.97 -0.758025 -1.97021 0
M  V30 7853 O 722.318 0.213824 -2.27497 0
M  V30 7854 C 722.528 -3.22725 -1.32851 0
M  V30 7855 C 723.876 -3.85856 -1.772 0
M  V30 7856 O 724.9 -3.26464 -1.42478 0
M  V30 7857 O 723.759 -4.90295 -2.41398 0
M  V30 7858 H 720.853 -0.725558 -0.396856 0
M  V30 7859 H 723.399 -1.69516 -0.0789005 0
M  V30 7860 H 722.171 -3.87921 -0.51312 0
M  V30 7861 H 721.794 -3.34845 -2.14394 0
M  V30 7862 N 722.791 0.367657 -1.53252 0
M  V30 7863 C 723.701 1.47415 -1.82499 0
M  V30 7864 C 724.717 1.58711 -0.713222 0
M  V30 7865 O 725.893 1.74644 -1.00306 0
M  V30 7866 C 722.958 2.82706 -2.00694 0
M  V30 7867 C 722.019 2.80955 -3.24596 0
M  V30 7868 C 721.252 4.09793 -3.41914 0
M  V30 7869 O 721.475 5.05852 -2.63572 0
M  V30 7870 O 720.409 4.15731 -4.3526 0
M  V30 7871 H 724.235 1.25624 -2.765 0
M  V30 7872 H 721.82 0.557559 -1.38606 0
M  V30 7873 H 723.702 3.62873 -2.14246 0
M  V30 7874 H 722.377 3.04479 -1.09883 0
M  V30 7875 H 721.284 1.99494 -3.16469 0
M  V30 7876 H 722.617 2.64136 -4.15323 0
M  V30 7877 N 724.269 1.44576 0.627338 0
M  V30 7878 C 725.179 1.54232 1.76776 0
M  V30 7879 C 726.195 0.427782 1.6866 0
M  V30 7880 O 727.371 0.685671 1.89369 0
M  V30 7881 C 724.436 1.48738 3.13174 0
M  V30 7882 C 723.497 2.71074 3.32893 0
M  V30 7883 C 722.73 2.65832 4.62784 0
M  V30 7884 O 722.953 1.72048 5.43834 0
M  V30 7885 O 721.887 3.56742 4.84787 0
M  V30 7886 H 725.713 2.50586 1.71582 0
M  V30 7887 H 723.298 1.26865 0.789028 0
M  V30 7888 H 725.18 1.48211 3.94476 0
M  V30 7889 H 723.855 0.555292 3.18902 0
M  V30 7890 H 722.762 2.77168 2.51254 0
M  V30 7891 H 724.095 3.63342 3.32029 0
M  V30 7892 N 725.747 -0.868086 1.31537 0
M  V30 7893 C 727.024 -1.60384 1.11965 0
M  V30 7894 C 727.404 -2.08584 -0.324949 0
M  V30 7895 O 726.752 -1.86561 -1.31937 0
M  V30 7896 C 726.962 -2.76038 2.13551 0
M  V30 7897 C 728.31 -3.45954 2.46173 0
M  V30 7898 O 729.334 -2.86247 2.11993 0
M  V30 7899 O 728.193 -4.53666 3.04711 0
M  V30 7900 H 725.287 -0.705705 0.431172 0
M  V30 7901 H 727.833 -0.913385 1.43022 0
M  V30 7902 H 726.605 -2.37849 3.10714 0
M  V30 7903 H 726.228 -3.52769 1.83411 0
M  V30 7904 N 727.225 -1.14528 -1.08264 0
M  V30 7905 C 728.453 -0.937964 -1.84418 0
M  V30 7906 C 728.868 0.51357 -1.81681 0
M  V30 7907 O 728.225 1.35591 -1.22153 0
M  V30 7908 C 728.276 -1.43272 -3.31897 0
M  V30 7909 O 727.997 -2.82738 -3.34651 0
M  V30 7910 C 729.498 -1.26555 -4.24851 0
M  V30 7911 H 726.718 -0.333704 -0.582136 0
M  V30 7912 H 729.262 -1.52076 -1.36723 0
M  V30 7913 H 727.417 -0.892653 -3.76975 0
M  V30 7914 H 727.831 -3.04971 -4.26724 0
M  V30 7915 H 729.305 -1.66031 -5.26439 0
M  V30 7916 H 729.782 -0.208589 -4.38704 0
M  V30 7917 H 730.388 -1.79423 -3.856 0
M  V30 7918 N 728.703 1.26451 -0.940633 0
M  V30 7919 C 729.65 2.264 -0.448497 0
M  V30 7920 C 730.62 1.5866 0.491546 0
M  V30 7921 O 731.805 1.86389 0.407874 0
M  V30 7922 C 728.945 3.43956 0.280715 0
M  V30 7923 C 728.058 4.26374 -0.694937 0
M  V30 7924 C 727.193 5.31171 0.0554186 0
M  V30 7925 C 726.232 6.05266 -0.912091 0
M  V30 7926 N 725.369 7.01833 -0.193524 0
M  V30 7927 H 730.209 2.67869 -1.30576 0
M  V30 7928 H 727.746 1.31707 -0.655112 0
M  V30 7929 H 729.704 4.10941 0.71994 0
M  V30 7930 H 728.334 3.03403 1.10212 0
M  V30 7931 H 727.386 3.59183 -1.25267 0
M  V30 7932 H 728.698 4.77748 -1.43382 0
M  V30 7933 H 727.852 6.04166 0.553951 0
M  V30 7934 H 726.591 4.80634 0.827183 0
M  V30 7935 H 725.596 5.31099 -1.42175 0
M  V30 7936 H 726.821 6.57893 -1.68385 0
M  V30 7937 H 724.767 6.53607 0.559758 0
M  V30 7938 H 724.684 7.50957 -0.871744 0
M  V30 7939 H 725.952 7.78983 0.283932 0
M  V30 7940 N 730.181 0.707592 1.40822 0
M  V30 7941 C 731.429 0.243189 2.00632 0
M  V30 7942 C 731.75 -1.16512 1.56365 0
M  V30 7943 O 731.02 -1.78841 0.799553 0
M  V30 7944 H 729.6 0.0869203 0.741926 0
M  V30 7945 H 732.262 0.911438 1.72275 0
M  V30 7946 H 731.358 0.270014 3.1093 0
M  V30 7947 N 731.66 -1.50943 0.453197 0
M  V30 7948 C 732.909 -2.01402 -0.10951 0
M  V30 7949 C 733.222 -1.3411 -1.42386 0
M  V30 7950 O 734.428 -1.75626 -2.07045 0
M  V30 7951 C 732.884 -3.5906 -0.245693 0
M  V30 7952 C 732.492 -4.353 1.05916 0
M  V30 7953 C 734.236 -4.17617 -0.761318 0
M  V30 7954 C 732.143 -5.84699 0.887752 0
M  V30 7955 H 731.073 -0.752674 -0.0447013 0
M  V30 7956 H 733.724 -1.73913 0.585375 0
M  V30 7957 H 732.106 -3.83062 -1.00395 0
M  V30 7958 H 733.28 -4.23034 1.82698 0
M  V30 7959 H 731.595 -3.88269 1.50452 0
M  V30 7960 H 734.192 -5.26963 -0.906306 0
M  V30 7961 H 734.535 -3.77824 -1.74799 0
M  V30 7962 H 735.068 -3.97753 -0.0609416 0
M  V30 7963 H 731.807 -6.28933 1.84726 0
M  V30 7964 H 731.327 -5.99587 0.160006 0
M  V30 7965 H 733.006 -6.44682 0.547223 0
M  V30 7966 N 733.138 -0.185124 -1.56509 0
M  V30 7967 C 734.085 0.739729 -2.18624 0
M  V30 7968 C 735.055 1.217 -1.13042 0
M  V30 7969 O 736.24 1.28268 -1.41251 0
M  V30 7970 C 733.38 1.95787 -2.84186 0
M  V30 7971 C 732.493 1.52289 -4.04267 0
M  V30 7972 C 731.628 2.69576 -4.57714 0
M  V30 7973 C 730.667 2.22636 -5.70175 0
M  V30 7974 N 729.804 3.33065 -6.18071 0
M  V30 7975 H 734.644 0.203269 -2.97306 0
M  V30 7976 H 732.181 0.0885946 -1.46833 0
M  V30 7977 H 734.139 2.67253 -3.20361 0
M  V30 7978 H 732.769 2.4678 -2.08085 0
M  V30 7979 H 731.821 0.704458 -3.7382 0
M  V30 7980 H 733.133 1.13843 -4.85635 0
M  V30 7981 H 732.287 3.4918 -4.96143 0
M  V30 7982 H 731.026 3.1129 -3.75433 0
M  V30 7983 H 730.031 1.41483 -5.31284 0
M  V30 7984 H 731.256 1.81964 -6.54267 0
M  V30 7985 H 729.202 3.74328 -5.38715 0
M  V30 7986 H 729.119 2.98756 -6.94464 0
M  V30 7987 H 730.387 4.12912 -6.61153 0
M  V30 7988 N 734.616 1.57351 0.0885366 0
M  V30 7989 C 735.546 2.05561 1.10757 0
M  V30 7990 C 736.527 0.945789 1.41382 0
M  V30 7991 O 737.712 1.21747 1.51299 0
M  V30 7992 C 734.842 2.48554 2.42566 0
M  V30 7993 C 733.796 3.63259 2.26334 0
M  V30 7994 C 733.122 3.9225 3.63378 0
M  V30 7995 C 734.422 4.93913 1.69844 0
M  V30 7996 H 736.116 2.90946 0.706468 0
M  V30 7997 H 733.662 1.39968 0.338385 0
M  V30 7998 H 735.615 2.8089 3.14132 0
M  V30 7999 H 734.339 1.60176 2.84625 0
M  V30 8000 H 732.998 3.31179 1.57213 0
M  V30 8001 H 732.646 3.0103 4.02976 0
M  V30 8002 H 732.346 4.69478 3.53362 0
M  V30 8003 H 733.87 4.27067 4.36401 0
M  V30 8004 H 735.284 5.24588 2.31258 0
M  V30 8005 H 733.681 5.75349 1.70569 0
M  V30 8006 H 734.751 4.80409 0.65843 0
M  V30 8007 N 736.094 -0.359525 1.53444 0
M  V30 8008 C 737.024 -1.44662 1.8329 0
M  V30 8009 C 738.005 -1.55617 0.68683 0
M  V30 8010 O 739.19 -1.70086 0.93725 0
M  V30 8011 C 736.32 -2.81923 2.02822 0
M  V30 8012 C 735.274 -2.85787 3.18606 0
M  V30 8013 C 734.6 -4.25781 3.23442 0
M  V30 8014 C 735.9 -2.52762 4.57065 0
M  V30 8015 H 737.594 -1.19934 2.74329 0
M  V30 8016 H 735.14 -0.575517 1.31999 0
M  V30 8017 H 737.093 -3.58005 2.22285 0
M  V30 8018 H 735.817 -3.08051 1.085 0
M  V30 8019 H 734.476 -2.12157 2.98973 0
M  V30 8020 H 734.124 -4.48994 2.26745 0
M  V30 8021 H 733.824 -4.29281 4.01238 0
M  V30 8022 H 735.348 -5.03727 3.45096 0
M  V30 8023 H 736.762 -3.18557 4.76649 0
M  V30 8024 H 735.159 -2.67569 5.37147 0
M  V30 8025 H 736.229 -1.47993 4.61764 0
M  V30 8026 N 737.572 -1.44907 -0.619662 0
M  V30 8027 C 738.849 -1.38766 -1.37852 0
M  V30 8028 C 739.229 -0.0521393 -2.11036 0
M  V30 8029 O 738.577 0.965613 -2.07095 0
M  V30 8030 C 738.787 -2.59344 -2.33541 0
M  V30 8031 C 740.135 -3.03909 -2.96521 0
M  V30 8032 O 741.159 -2.59631 -2.43865 0
M  V30 8033 O 740.018 -3.80713 -3.92071 0
M  V30 8034 H 737.112 -0.550083 -0.617525 0
M  V30 8035 H 739.658 -1.57015 -0.643759 0
M  V30 8036 H 738.43 -3.48142 -1.78642 0
M  V30 8037 H 738.053 -2.43367 -3.14417 0
M  V30 8038 N 739.05 0.861098 -1.31996 0
M  V30 8039 C 740.29 1.62873 -1.23498 0
M  V30 8040 C 740.654 1.90938 0.201692 0
M  V30 8041 O 741.855 2.6565 0.410305 0
M  V30 8042 C 740.126 2.91759 -2.06426 0
M  V30 8043 S 741.685 3.82583 -2.14885 0
M  V30 8044 H 738.503 0.558726 -0.439712 0
M  V30 8045 H 741.105 1.02025 -1.66767 0
M  V30 8046 H 739.809 2.69077 -3.0988 0
M  V30 8047 H 739.34 3.57627 -1.6391 0
M  V30 8048 H 741.355 4.7904 -1.29364 0
M  V30 8049 N 740.528 1.15101 1.07655 0
M  V30 8050 C 741.805 0.834578 1.76902 0
M  V30 8051 C 742.185 -0.670431 2.00171 0
M  V30 8052 O 741.533 -1.61378 1.6177 0
M  V30 8053 C 741.743 1.64191 3.07965 0
M  V30 8054 C 743.091 1.84615 3.82364 0
M  V30 8055 O 744.115 1.60941 3.17768 0
M  V30 8056 O 742.974 2.24244 4.98374 0
M  V30 8057 H 740.068 0.306608 0.768063 0
M  V30 8058 H 742.614 1.25663 1.14048 0
M  V30 8059 H 741.386 2.66386 2.86626 0
M  V30 8060 H 741.009 1.216 3.78549 0
M  V30 8061 N 742.006 -1.2595 0.947325 0
M  V30 8062 C 742.938 -2.25336 0.41906 0
M  V30 8063 C 743.951 -1.56135 -0.461051 0
M  V30 8064 O 745.14 -1.76438 -0.270505 0
M  V30 8065 C 742.24 -3.36334 -0.416233 0
M  V30 8066 C 741.413 -4.35088 0.449162 0
M  V30 8067 C 740.472 -5.25185 -0.326716 0
M  V30 8068 O 739.498 -5.68548 0.272374 0
M  V30 8069 N 740.7 -5.57388 -1.6217 0
M  V30 8070 H 743.465 -2.71298 1.27348 0
M  V30 8071 H 741.026 -1.39781 0.81688 0
M  V30 8072 H 743.018 -3.93564 -0.942826 0
M  V30 8073 H 741.588 -2.89819 -1.17148 0
M  V30 8074 H 740.808 -3.76841 1.15692 0
M  V30 8075 H 742.096 -4.98056 1.04008 0
M  V30 8076 H 741.494 -5.2405 -2.13046 0
M  V30 8077 H 740.051 -6.17234 -2.0944 0
M  V30 8078 N 743.484 -0.715051 -1.40445 0
M  V30 8079 C 744.394 -0.0631624 -2.34515 0
M  V30 8080 C 745.41 0.744397 -1.57273 0
M  V30 8081 O 746.586 0.677475 -1.89663 0
M  V30 8082 C 743.651 0.847915 -3.36172 0
M  V30 8083 C 742.712 0.0303655 -4.29289 0
M  V30 8084 C 741.945 0.898051 -5.2609 0
M  V30 8085 O 742.168 2.13729 -5.28844 0
M  V30 8086 O 741.102 0.337328 -6.00954 0
M  V30 8087 H 744.928 -0.839078 -2.91879 0
M  V30 8088 H 742.513 -0.475527 -1.4163 0
M  V30 8089 H 744.395 1.3698 -3.98515 0
M  V30 8090 H 743.07 1.60299 -2.81222 0
M  V30 8091 H 741.977 -0.536573 -3.70232 0
M  V30 8092 H 743.31 -0.686474 -4.87389 0
M  V30 8093 N 744.962 1.50701 -0.461195 0
M  V30 8094 C 745.892 2.31182 0.328184 0
M  V30 8095 C 746.873 1.37644 0.999408 0
M  V30 8096 O 748.058 1.66565 0.99848 0
M  V30 8097 C 745.188 3.17113 1.41621 0
M  V30 8098 C 744.142 4.19124 0.867148 0
M  V30 8099 C 743.468 4.93728 2.05272 0
M  V30 8100 C 744.768 5.22174 -0.114808 0
M  V30 8101 H 746.462 2.97423 -0.343501 0
M  V30 8102 H 744.008 1.43033 -0.166641 0
M  V30 8103 H 745.961 3.72208 1.97584 0
M  V30 8104 H 744.685 2.48739 2.11652 0
M  V30 8105 H 743.344 3.65116 0.329557 0
M  V30 8106 H 742.992 4.21835 2.73978 0
M  V30 8107 H 742.692 5.62724 1.69161 0
M  V30 8108 H 744.216 5.51654 2.61744 0
M  V30 8109 H 745.63 5.72198 0.355316 0
M  V30 8110 H 744.027 5.98833 -0.389689 0
M  V30 8111 H 745.097 4.7353 -1.04391 0
M  V30 8112 N 746.441 0.193421 1.56409 0
M  V30 8113 C 747.671 -0.450783 2.01622 0
M  V30 8114 C 748.079 -1.5585 1.07273 0
M  V30 8115 O 747.422 -1.83569 0.0694875 0
M  V30 8116 C 747.484 -1.06913 3.43235 0
M  V30 8117 C 747.148 -0.100352 4.5689 0
M  V30 8118 C 748.145 0.689633 5.15306 0
M  V30 8119 C 745.83 0.0102436 5.02299 0
M  V30 8120 C 747.824 1.5772 6.17579 0
M  V30 8121 C 745.511 0.901368 6.04416 0
M  V30 8122 C 746.509 1.68341 6.61929 0
M  V30 8123 O 746.197 2.5596 7.62063 0
M  V30 8124 H 745.929 -0.117671 0.66568 0
M  V30 8125 H 748.483 0.2989 2.03214 0
M  V30 8126 H 746.713 -1.86736 3.38624 0
M  V30 8127 H 748.402 -1.61781 3.72266 0
M  V30 8128 H 749.168 0.614485 4.81092 0
M  V30 8129 H 745.047 -0.58829 4.57231 0
M  V30 8130 H 748.591 2.18805 6.62397 0
M  V30 8131 H 744.488 0.977637 6.38054 0
M  V30 8132 H 745.256 2.49721 7.79475 0
M  V30 8133 N 747.919 -1.57396 -0.0801906 0
M  V30 8134 C 748.866 -2.03107 -1.09618 0
M  V30 8135 C 749.836 -0.910118 -1.38946 0
M  V30 8136 O 751.021 -1.17719 -1.50156 0
M  V30 8137 C 748.161 -2.47293 -2.40708 0
M  V30 8138 C 747.274 -3.72972 -2.17982 0
M  V30 8139 C 746.409 -4.05975 -3.42576 0
M  V30 8140 C 745.448 -5.24719 -3.15177 0
M  V30 8141 N 744.585 -5.53401 -4.32078 0
M  V30 8142 H 749.425 -2.89677 -0.69939 0
M  V30 8143 H 746.962 -1.43263 -0.333785 0
M  V30 8144 H 748.92 -2.7096 -3.17232 0
M  V30 8145 H 747.55 -1.63713 -2.78205 0
M  V30 8146 H 746.602 -3.56693 -1.32189 0
M  V30 8147 H 747.914 -4.59638 -1.93738 0
M  V30 8148 H 747.068 -4.30498 -4.275 0
M  V30 8149 H 745.807 -3.17859 -3.69887 0
M  V30 8150 H 744.812 -5 -2.28648 0
M  V30 8151 H 746.037 -6.14445 -2.89197 0
M  V30 8152 H 743.983 -4.68245 -4.59437 0
M  V30 8153 H 743.9 -6.34469 -4.11078 0
M  V30 8154 H 745.168 -5.8247 -5.18024 0
M  V30 8155 N 749.397 0.351382 -1.53633 0
M  V30 8156 C 750.345 1.45142 -1.8176 0
M  V30 8157 C 751.339 1.54819 -0.687571 0
M  V30 8158 O 752.545 1.57536 -0.870772 0
M  V30 8159 H 748.92 0.483789 -0.575719 0
M  V30 8160 H 750.891 1.1863 -2.73806 0
M  V30 8161 C 749.64 2.81779 -2.03706 0
M  V30 8162 H 748.963 2.75097 -2.90107 0
M  V30 8163 H 750.403 3.5789 -2.27356 0
M  V30 8164 C 748.862 3.26762 -0.820271 0
M  V30 8165 O 749.392 4.01697 -0.0158603 0
M  V30 8166 N 747.598 2.83472 -0.639699 0
M  V30 8167 H 747.145 2.22655 -1.29547 0
M  V30 8168 H 747.103 3.13924 0.172995 0
M  V30 8169 N 750.875 1.45233 0.611969 0
M  V30 8170 C 752.122 1.49021 1.37109 0
M  V30 8171 C 752.45 0.130227 1.94064 0
M  V30 8172 O 751.705 -0.870551 1.75271 0
M  V30 8173 C 752.004 2.51353 2.54079 0
M  V30 8174 C 751.67 3.96178 2.15299 0
M  V30 8175 C 750.332 4.35614 2.04436 0
M  V30 8176 C 752.684 4.87275 1.84966 0
M  V30 8177 C 750.012 5.64047 1.61456 0
M  V30 8178 C 752.364 6.16115 1.43474 0
M  V30 8179 C 751.028 6.54486 1.31167 0
M  V30 8180 H 750.298 0.545307 0.501719 0
M  V30 8181 H 752.945 1.78555 0.692122 0
M  V30 8182 H 751.25 2.15372 3.27295 0
M  V30 8183 H 752.947 2.51523 3.12309 0
M  V30 8184 H 749.537 3.6499 2.24678 0
M  V30 8185 H 753.721 4.57548 1.92258 0
M  V30 8186 H 748.977 5.92575 1.50547 0
M  V30 8187 H 753.151 6.86149 1.19048 0
M  V30 8188 H 750.778 7.53904 0.97637 0
M  V30 8189 N 752.353 -0.854086 1.3245 0
M  V30 8190 C 753.764 -1.42427 1.20712 0
M  V30 8191 C 754.115 -1.95371 -0.18013 0
M  V30 8192 O 753.24 -1.87587 -1.07889 0
M  V30 8193 C 753.835 -2.58897 2.18536 0
M  V30 8194 C 752.394 -3.11913 2.10683 0
M  V30 8195 C 751.541 -1.84661 2.06871 0
M  V30 8196 H 754.492 -0.661192 1.4427 0
M  V30 8197 H 754.513 -3.36074 1.78422 0
M  V30 8198 H 754.025 -2.20333 3.19492 0
M  V30 8199 H 752.126 -3.55059 1.12977 0
M  V30 8200 H 752.239 -3.73119 3.00532 0
M  V30 8201 H 750.603 -2.04285 1.52118 0
M  V30 8202 H 751.386 -1.48314 3.09609 0
M  V30 8203 N 753.831 -1.1567 -1.07043 0
M  V30 8204 C 754.761 -0.879348 -2.16309 0
M  V30 8205 C 755.742 0.171311 -1.69235 0
M  V30 8206 O 756.927 0.0250175 -1.94184 0
M  V30 8207 C 754.057 -0.371307 -3.45309 0
M  V30 8208 C 753.011 -1.359 -4.05851 0
M  V30 8209 C 752.337 -0.709678 -5.29969 0
M  V30 8210 C 753.637 -2.72606 -4.45514 0
M  V30 8211 H 755.331 -1.79308 -2.39768 0
M  V30 8212 H 752.877 -0.863558 -1.15233 0
M  V30 8213 H 754.83 -0.164798 -4.21078 0
M  V30 8214 H 753.554 0.577906 -3.21446 0
M  V30 8215 H 752.213 -1.55193 -3.32131 0
M  V30 8216 H 751.861 0.245782 -5.02399 0
M  V30 8217 H 751.561 -1.36886 -5.71433 0
M  V30 8218 H 753.085 -0.513015 -6.08441 0
M  V30 8219 H 754.499 -2.57141 -5.12398 0
M  V30 8220 H 752.896 -3.34927 -4.97939 0
M  V30 8221 H 753.966 -3.28434 -3.56734 0
M  V30 8222 N 755.309 1.25446 -0.953992 0
M  V30 8223 C 756.555 1.9343 -0.60933 0
M  V30 8224 C 756.888 1.74542 0.851388 0
M  V30 8225 O 756.163 1.09014 1.61078 0
M  V30 8226 C 756.446 3.46844 -0.968041 0
M  V30 8227 C 756.299 3.74961 -2.48444 0
M  V30 8228 C 757.618 4.37334 -0.492641 0
M  V30 8229 H 754.737 0.702502 -0.222844 0
M  V30 8230 H 757.379 1.48076 -1.19053 0
M  V30 8231 H 755.529 3.85604 -0.473465 0
M  V30 8232 H 757.201 3.45841 -3.05273 0
M  V30 8233 H 755.444 3.20589 -2.92241 0
M  V30 8234 H 756.115 4.82246 -2.68594 0
M  V30 8235 H 758.591 4.05873 -0.916878 0
M  V30 8236 H 757.467 5.43439 -0.772331 0
M  V30 8237 H 757.728 4.37908 0.607403 0
M  V30 8238 N 756.787 0.722489 1.40064 0
M  V30 8239 C 758.036 0.261932 1.99992 0
M  V30 8240 C 758.349 -1.15358 1.57961 0
M  V30 8241 O 759.555 -1.71301 2.10637 0
M  V30 8242 C 758.011 0.41737 3.57472 0
M  V30 8243 C 757.619 1.83997 4.08472 0
M  V30 8244 C 759.363 0.0179561 4.24496 0
M  V30 8245 C 757.27 1.94563 5.5848 0
M  V30 8246 H 756.2 0.0941768 0.748095 0
M  V30 8247 H 758.851 0.894572 1.60218 0
M  V30 8248 H 757.233 -0.283965 3.94981 0
M  V30 8249 H 758.407 2.57224 3.82325 0
M  V30 8250 H 756.722 2.19147 3.54067 0
M  V30 8251 H 759.319 0.076085 5.34646 0
M  V30 8252 H 759.662 -1.02498 4.03485 0
M  V30 8253 H 760.195 0.669988 3.92117 0
M  V30 8254 H 756.934 2.97001 5.84355 0
M  V30 8255 H 756.454 1.25756 5.86469 0
M  V30 8256 H 758.133 1.72095 6.23692 0
M  V30 8257 N 758.265 -1.50454 0.469181 0
M  V30 8258 C 759.49 -2.0722 -0.0864892 0
M  V30 8259 C 759.915 -1.33098 -1.32916 0
M  V30 8260 O 759.273 -0.378084 -1.77314 0
M  V30 8261 C 759.321 -3.58845 -0.355384 0
M  V30 8262 O 758.425 -3.86583 -1.43622 0
M  V30 8263 H 757.766 -0.663889 0.0121414 0
M  V30 8264 H 760.296 -1.93674 0.659674 0
M  V30 8265 H 760.306 -4.03617 -0.596447 0
M  V30 8266 H 758.981 -4.12211 0.552698 0
M  V30 8267 H 757.558 -3.5365 -1.18262 0
M  V30 8268 N 759.743 -0.201713 -1.56304 0
M  V30 8269 C 760.653 0.728296 -2.23009 0
M  V30 8270 C 761.669 1.22945 -1.23128 0
M  V30 8271 O 762.845 1.27523 -1.55884 0
M  V30 8272 C 759.91 1.92792 -2.88153 0
M  V30 8273 C 758.971 1.47068 -4.03323 0
M  V30 8274 C 758.204 2.61312 -4.65351 0
M  V30 8275 O 758.427 3.7896 -4.26317 0
M  V30 8276 O 757.361 2.33646 -5.54701 0
M  V30 8277 H 761.187 0.190166 -3.03104 0
M  V30 8278 H 758.772 0.0278725 -1.49374 0
M  V30 8279 H 760.654 2.6289 -3.29343 0
M  V30 8280 H 759.329 2.45452 -2.11033 0
M  V30 8281 H 758.236 0.738299 -3.66742 0
M  V30 8282 H 759.569 0.990666 -4.82127 0
M  V30 8283 N 761.222 1.57436 0.0718424 0
M  V30 8284 C 762.638 1.53792 0.426628 0
M  V30 8285 C 762.838 0.921887 1.79174 0
M  V30 8286 O 761.894 0.524374 2.46995 0
M  V30 8287 C 763.207 2.98443 0.367739 0
M  V30 8288 C 764.755 3.09778 0.447928 0
M  V30 8289 C 765.23 4.5608 0.418946 0
M  V30 8290 N 766.721 4.60716 0.479022 0
M  V30 8291 C 767.456 5.71397 0.47881 0
M  V30 8292 N 766.952 6.91443 0.433417 0
M  V30 8293 N 768.745 5.59639 0.525364 0
M  V30 8294 H 760.896 1.95848 -0.822033 0
M  V30 8295 H 763.159 0.896418 -0.308447 0
M  V30 8296 H 762.865 3.47072 -0.56865 0
M  V30 8297 H 762.739 3.58335 1.17795 0
M  V30 8298 H 765.126 2.61122 1.37474 0
M  V30 8299 H 765.207 2.52796 -0.390857 0
M  V30 8300 H 764.851 5.05393 -0.504016 0
M  V30 8301 H 764.781 5.10925 1.27526 0
M  V30 8302 H 767.272 3.74328 0.518355 0
M  V30 8303 H 767.585 7.71562 0.43718 0
M  V30 8304 H 765.93 6.93847 0.400106 0
M  V30 8305 H 769.121 4.64756 0.558519 0
M  V30 8306 H 769.294 6.45896 0.52173 0
M  V30 8307 N 762.7 -0.34323 1.53817 0
M  V30 8308 C 763.946 -1.08137 1.72273 0
M  V30 8309 C 764.301 -1.86311 0.480201 0
M  V30 8310 O 763.594 -1.84204 -0.527192 0
M  V30 8311 C 763.788 -2.05195 2.92626 0
M  V30 8312 C 763.617 -1.36561 4.28464 0
M  V30 8313 C 762.387 -1.11033 4.9295 0
M  V30 8314 C 764.585 -0.791663 5.0817 0
M  V30 8315 N 762.567 -0.389839 6.12661 0
M  V30 8316 C 763.938 -0.201742 6.19672 0
M  V30 8317 C 765.993 -0.692541 4.9306 0
M  V30 8318 C 764.696 0.477661 7.17712 0
M  V30 8319 C 766.722 -0.0268775 5.91394 0
M  V30 8320 C 766.084 0.552072 7.02233 0
M  V30 8321 H 762.183 -0.380078 0.683421 0
M  V30 8322 H 764.767 -0.364925 1.9125 0
M  V30 8323 H 762.938 -2.74131 2.75149 0
M  V30 8324 H 764.67 -2.7185 2.99799 0
M  V30 8325 H 761.425 -1.39752 4.52511 0
M  V30 8326 H 761.849 -0.0443076 6.76986 0
M  V30 8327 H 766.491 -1.12589 4.07534 0
M  V30 8328 H 764.209 0.922895 8.02813 0
M  V30 8329 H 767.795 0.0491921 5.81779 0
M  V30 8330 H 766.675 1.05899 7.77017 0
M  V30 8331 N 764.178 -1.45556 -0.604258 0
M  V30 8332 C 765.11 -1.50494 -1.72871 0
M  V30 8333 C 766.123 -0.395368 -1.57926 0
M  V30 8334 O 767.312 -0.662603 -1.65746 0
M  V30 8335 C 764.412 -1.34874 -3.10906 0
M  V30 8336 C 763.585 -2.59564 -3.52058 0
M  V30 8337 C 762.644 -2.38453 -4.6907 0
M  V30 8338 O 761.67 -3.12082 -4.76018 0
M  V30 8339 N 762.872 -1.43229 -5.62553 0
M  V30 8340 H 765.637 -2.4744 -1.69097 0
M  V30 8341 H 763.198 -1.41338 -0.789636 0
M  V30 8342 H 765.19 -1.18556 -3.86945 0
M  V30 8343 H 763.76 -0.461913 -3.09168 0
M  V30 8344 H 762.98 -2.90974 -2.65946 0
M  V30 8345 H 764.268 -3.42441 -3.76313 0
M  V30 8346 H 763.666 -0.824714 -5.59656 0
M  V30 8347 H 762.223 -1.32882 -6.38111 0
M  V30 8348 N 765.656 0.84705 -1.32902 0
M  V30 8349 C 766.588 1.96308 -1.18304 0
M  V30 8350 C 767.601 1.62386 -0.116082 0
M  V30 8351 O 768.79 1.74713 -0.365751 0
M  V30 8352 C 765.89 3.29556 -0.790305 0
M  V30 8353 C 765.063 3.91668 -1.94717 0
M  V30 8354 C 764.122 5.0326 -1.53674 0
M  V30 8355 O 763.148 5.22847 -2.24989 0
M  V30 8356 N 764.35 5.78852 -0.437075 0
M  V30 8357 H 767.115 2.09369 -2.14441 0
M  V30 8358 H 764.676 1.02233 -1.25539 0
M  V30 8359 H 766.668 4.01624 -0.49799 0
M  V30 8360 H 765.238 3.12497 0.0801286 0
M  V30 8361 H 764.458 3.12292 -2.40557 0
M  V30 8362 H 765.746 4.299 -2.72146 0
M  V30 8363 H 765.144 5.65484 0.156316 0
M  V30 8364 H 763.701 6.51479 -0.204399 0
M  V30 8365 N 767.134 1.16236 1.06428 0
M  V30 8366 C 768.044 0.881976 2.1739 0
M  V30 8367 C 769.06 -0.145259 1.73393 0
M  V30 8368 O 770.236 0.0310558 2.01376 0
M  V30 8369 C 767.301 0.385496 3.4455 0
M  V30 8370 C 766.362 1.47779 4.03063 0
M  V30 8371 C 765.595 1.0049 5.24154 0
M  V30 8372 O 765.818 -0.145889 5.70213 0
M  V30 8373 O 764.752 1.79265 5.74585 0
M  V30 8374 H 768.578 1.80983 2.43883 0
M  V30 8375 H 766.163 0.942226 1.15942 0
M  V30 8376 H 768.045 0.115536 4.21242 0
M  V30 8377 H 766.72 -0.514369 3.19587 0
M  V30 8378 H 765.627 1.80147 3.27869 0
M  V30 8379 H 766.96 2.35291 4.32318 0
M  V30 8380 N 768.612 -1.24939 0.960631 0
M  V30 8381 C 769.858 -1.93104 0.61958 0
M  V30 8382 C 770.191 -1.74991 -0.84212 0
M  V30 8383 O 769.466 -1.09867 -1.60498 0
M  V30 8384 C 769.749 -3.46326 0.986422 0
M  V30 8385 C 769.602 -3.73638 2.50429 0
M  V30 8386 C 770.921 -4.37067 0.515827 0
M  V30 8387 H 768.04 -0.701311 0.226566 0
M  V30 8388 H 770.682 -1.47442 1.19836 0
M  V30 8389 H 768.832 -3.85348 0.493907 0
M  V30 8390 H 770.504 -3.44217 3.07103 0
M  V30 8391 H 768.747 -3.19035 2.93937 0
M  V30 8392 H 769.418 -4.80815 2.71147 0
M  V30 8393 H 771.894 -4.05381 0.938389 0
M  V30 8394 H 770.77 -5.43022 0.80114 0
M  V30 8395 H 771.031 -4.38224 -0.584171 0
M  V30 8396 N 770.09 -0.729906 -1.39679 0
M  V30 8397 C 771.318 -0.285709 -2.04918 0
M  V30 8398 C 771.733 1.07765 -1.55023 0
M  V30 8399 O 771.09 1.67999 -0.712923 0
M  V30 8400 C 771.141 -0.272793 -3.60469 0
M  V30 8401 O 770.862 -1.58233 -4.08527 0
M  V30 8402 C 772.363 0.188199 -4.429 0
M  V30 8403 H 769.583 -0.125758 -0.65911 0
M  V30 8404 H 772.127 -0.992129 -1.78821 0
M  V30 8405 H 770.282 0.384699 -3.85485 0
M  V30 8406 H 770.696 -1.49245 -5.02818 0
M  V30 8407 H 772.17 0.14608 -5.51807 0
M  V30 8408 H 772.647 1.2326 -4.21549 0
M  V30 8409 H 773.253 -0.439541 -4.23023 0
M  V30 8410 N 771.568 1.50203 -0.477153 0
M  V30 8411 C 772.478 2.32421 0.319027 0
M  V30 8412 C 773.494 1.43075 0.990233 0
M  V30 8413 O 774.67 1.76123 0.976873 0
M  V30 8414 C 771.735 3.17909 1.38328 0
M  V30 8415 C 770.796 4.23082 0.728036 0
M  V30 8416 C 770.029 5.04484 1.74158 0
M  V30 8417 O 770.252 4.8705 2.96881 0
M  V30 8418 O 769.186 5.8747 1.31006 0
M  V30 8419 H 773.012 3.01638 -0.353281 0
M  V30 8420 H 770.597 1.47478 -0.238891 0
M  V30 8421 H 772.479 3.70937 1.9996 0
M  V30 8422 H 771.154 2.51413 2.03895 0
M  V30 8423 H 770.061 3.7403 0.07261 0
M  V30 8424 H 771.394 4.92065 0.115216 0
M  V30 8425 N 773.046 0.209999 1.56195 0
M  V30 8426 C 774.274 -0.429996 2.02382 0
M  V30 8427 C 774.689 -1.54159 1.08998 0
M  V30 8428 O 774.046 -1.82239 0.0974856 0
M  V30 8429 C 774.097 -0.972433 3.48175 0
M  V30 8430 O 773.818 0.0948231 4.37997 0
M  V30 8431 C 775.319 -1.68683 4.09952 0
M  V30 8432 H 772.539 -0.106475 0.662498 0
M  V30 8433 H 775.083 0.323072 2.01932 0
M  V30 8434 H 773.238 -1.67582 3.49278 0
M  V30 8435 H 773.652 -0.31113 5.23576 0
M  V30 8436 H 775.126 -2.01851 5.13771 0
M  V30 8437 H 775.603 -2.59587 3.54276 0
M  V30 8438 H 776.209 -1.02893 4.12666 0
M  V30 8439 N 774.524 -1.57472 -0.0634922 0
M  V30 8440 C 775.77 -1.87932 -0.762194 0
M  V30 8441 C 776.103 -0.803377 -1.76804 0
M  V30 8442 O 775.378 0.185468 -1.93614 0
M  V30 8443 C 775.661 -3.29053 -1.46275 0
M  V30 8444 C 775.514 -4.47309 -0.472755 0
M  V30 8445 C 776.833 -3.68537 -2.40558 0
M  V30 8446 H 773.952 -0.683521 -0.275624 0
M  V30 8447 H 776.594 -1.89983 -0.0252651 0
M  V30 8448 H 774.744 -3.27435 -2.0909 0
M  V30 8449 H 776.416 -4.61053 0.150828 0
M  V30 8450 H 774.659 -4.33286 0.211187 0
M  V30 8451 H 775.33 -5.42853 -1.00072 0
M  V30 8452 H 777.806 -3.71302 -1.87814 0
M  V30 8453 H 776.682 -4.68152 -2.86574 0
M  V30 8454 H 776.943 -2.98917 -3.25731 0
M  V30 8455 N 776.003 0.335068 -1.53997 0
M  V30 8456 C 777.233 1.0926 -1.75345 0
M  V30 8457 C 777.641 1.82568 -0.496545 0
M  V30 8458 O 776.984 1.75525 0.541897 0
M  V30 8459 C 777.046 2.14473 -2.88516 0
M  V30 8460 C 776.71 1.60665 -4.27827 0
M  V30 8461 C 777.707 1.05448 -5.09094 0
M  V30 8462 C 775.392 1.65255 -4.74337 0
M  V30 8463 C 777.386 0.555372 -6.34976 0
M  V30 8464 C 775.073 1.14956 -6.0019 0
M  V30 8465 C 776.071 0.601907 -6.80343 0
M  V30 8466 O 775.759 0.106445 -8.0383 0
M  V30 8467 H 775.491 0.331329 -0.589234 0
M  V30 8468 H 778.045 0.39042 -2.01655 0
M  V30 8469 H 776.275 2.88274 -2.5775 0
M  V30 8470 H 777.964 2.75857 -2.97755 0
M  V30 8471 H 778.73 1.01218 -4.74321 0
M  V30 8472 H 774.609 2.06822 -4.12002 0
M  V30 8473 H 778.153 0.127245 -6.97484 0
M  V30 8474 H 774.05 1.18891 -6.34457 0
M  V30 8475 H 774.818 0.222944 -8.18196 0
M  V30 8476 N 777.481 1.45874 0.596531 0
M  V30 8477 C 778.391 1.57947 1.73464 0
M  V30 8478 C 779.407 0.463461 1.67714 0
M  V30 8479 O 780.583 0.725685 1.87872 0
M  V30 8480 C 777.648 1.55348 3.09948 0
M  V30 8481 C 776.709 2.78074 3.27068 0
M  V30 8482 C 775.942 2.75589 4.57041 0
M  V30 8483 O 776.165 1.83545 5.40063 0
M  V30 8484 O 775.099 3.66945 4.77111 0
M  V30 8485 H 778.925 2.54169 1.66228 0
M  V30 8486 H 776.51 1.2851 0.76194 0
M  V30 8487 H 778.392 1.56545 3.91244 0
M  V30 8488 H 777.067 0.622811 3.17652 0
M  V30 8489 H 775.974 2.82435 2.45319 0
M  V30 8490 H 777.307 3.70303 3.24248 0
M  V30 8491 N 778.959 -0.83999 1.33349 0
M  V30 8492 C 779.922 -1.93128 1.23426 0
M  V30 8493 C 780.922 -1.60065 0.153599 0
M  V30 8494 O 782.112 -1.69425 0.405049 0
M  V30 8495 C 779.244 -3.28761 0.901622 0
M  V30 8496 H 780.437 -2.03352 2.20427 0
M  V30 8497 H 777.99 -1.03194 1.17391 0
M  V30 8498 H 778.725 -3.24233 -0.0659337 0
M  V30 8499 H 778.51 -3.54138 1.68311 0
M  V30 8500 H 780 -4.08714 0.856913 0
M  V30 8501 N 780.437 -1.16799 -1.0581 0
M  V30 8502 C 781.683 -0.953935 -1.78963 0
M  V30 8503 C 782.016 0.516638 -1.87202 0
M  V30 8504 O 781.291 1.38338 -1.36721 0
M  V30 8505 C 781.574 -1.58808 -3.23191 0
M  V30 8506 C 781.427 -3.13032 -3.23003 0
M  V30 8507 C 782.746 -1.2868 -4.20867 0
M  V30 8508 H 779.865 -0.347972 -0.64968 0
M  V30 8509 H 782.507 -1.44204 -1.23715 0
M  V30 8510 H 780.657 -1.17303 -3.70368 0
M  V30 8511 H 782.329 -3.63553 -2.83949 0
M  V30 8512 H 780.572 -3.46108 -2.61518 0
M  V30 8513 H 781.243 -3.52527 -4.24769 0
M  V30 8514 H 783.719 -1.6461 -3.82155 0
M  V30 8515 H 782.595 -1.75645 -5.20038 0
M  V30 8516 H 782.856 -0.206491 -4.41618 0
M  V30 8517 N 781.915 1.24427 -0.967243 0
M  V30 8518 C 782.863 2.27403 -0.488927 0
M  V30 8519 C 783.857 1.63388 0.447302 0
M  V30 8520 O 785.063 1.77085 0.322643 0
M  V30 8521 H 781.438 0.738921 -0.139643 0
M  V30 8522 H 783.409 2.65122 -1.36942 0
M  V30 8523 C 782.158 3.4709 0.205787 0
M  V30 8524 H 781.481 3.96591 -0.50551 0
M  V30 8525 H 782.921 4.2099 0.504296 0
M  V30 8526 C 781.38 3.04923 1.43261 0
M  V30 8527 O 781.91 3.12043 2.52967 0
M  V30 8528 N 780.116 2.59976 1.29849 0
M  V30 8529 H 779.663 2.54382 0.405876 0
M  V30 8530 H 779.621 2.32128 2.12047 0
M  V30 8531 N 783.393 0.737304 1.3929 0
M  V30 8532 C 784.356 0.10731 2.28949 0
M  V30 8533 C 785.356 -0.664716 1.46418 0
M  V30 8534 O 786.546 -0.493392 1.67067 0
M  V30 8535 C 783.678 -0.857145 3.29948 0
M  V30 8536 H 784.871 0.89725 2.86163 0
M  V30 8537 H 782.424 0.503279 1.47976 0
M  V30 8538 H 783.159 -1.67336 2.77794 0
M  V30 8539 H 782.944 -0.306167 3.90903 0
M  V30 8540 H 784.434 -1.29444 3.97031 0
M  V30 8541 N 784.871 -1.49948 0.485112 0
M  V30 8542 C 786.148 -1.95186 -0.12726 0
M  V30 8543 C 786.528 -1.42605 -1.5565 0
M  V30 8544 O 785.876 -0.632986 -2.19558 0
M  V30 8545 C 786.086 -3.48955 -0.0562117 0
M  V30 8546 C 787.434 -4.23932 -0.238106 0
M  V30 8547 O 788.458 -3.55955 -0.132145 0
M  V30 8548 O 787.317 -5.44614 -0.453658 0
M  V30 8549 H 784.411 -0.820433 -0.104014 0
M  V30 8550 H 786.957 -1.60659 0.546517 0
M  V30 8551 H 785.729 -3.79814 0.941122 0
M  V30 8552 H 785.352 -3.90056 -0.770834 0
M  V30 8553 N 786.349 -0.21828 -1.56081 0
M  V30 8554 C 787.577 0.419258 -2.02608 0
M  V30 8555 C 787.992 1.53578 -1.09814 0
M  V30 8556 O 787.349 1.82185 -0.107149 0
M  V30 8557 C 787.4 0.953955 -3.48686 0
M  V30 8558 O 787.121 -0.11805 -4.37941 0
M  V30 8559 C 788.622 1.66506 -4.10841 0
M  V30 8560 H 785.842 0.10296 -0.663054 0
M  V30 8561 H 788.386 -0.333776 -2.01758 0
M  V30 8562 H 786.541 1.65727 -3.50162 0
M  V30 8563 H 786.955 0.283359 -5.23734 0
M  V30 8564 H 788.429 1.99123 -5.14834 0
M  V30 8565 H 788.906 2.57705 -3.55647 0
M  V30 8566 H 789.512 1.00703 -4.13206 0
M  V30 8567 N 787.827 1.57504 0.0551401 0
M  V30 8568 C 789.104 1.79155 0.785048 0
M  V30 8569 C 789.484 0.809995 1.94942 0
M  V30 8570 O 788.832 -0.153432 2.27984 0
M  V30 8571 C 789.042 3.26134 1.24247 0
M  V30 8572 C 790.39 3.90419 1.66908 0
M  V30 8573 O 791.414 3.30126 1.33772 0
M  V30 8574 O 790.273 4.96523 2.28314 0
M  V30 8575 H 787.367 0.735825 0.377479 0
M  V30 8576 H 789.913 1.69666 0.0339285 0
M  V30 8577 H 788.685 3.89145 0.410089 0
M  V30 8578 H 788.308 3.40411 2.05441 0
M  V30 8579 N 789.305 -0.326896 1.54172 0
M  V30 8580 C 790.252 -1.40216 1.83325 0
M  V30 8581 C 791.222 -1.51538 0.680107 0
M  V30 8582 O 792.407 -1.66811 0.926206 0
M  V30 8583 C 789.547 -2.76626 2.0633 0
M  V30 8584 C 788.66 -2.73963 3.34019 0
M  V30 8585 C 787.795 -4.02198 3.47002 0
M  V30 8586 C 786.834 -3.93828 4.68578 0
M  V30 8587 N 785.971 -5.13787 4.78506 0
M  V30 8588 H 790.811 -1.14656 2.7506 0
M  V30 8589 H 788.348 -0.555089 1.36225 0
M  V30 8590 H 790.306 -3.55922 2.17659 0
M  V30 8591 H 788.936 -3.00503 1.1789 0
M  V30 8592 H 787.988 -1.86677 3.31445 0
M  V30 8593 H 789.3 -2.6366 4.2342 0
M  V30 8594 H 788.454 -4.89923 3.57855 0
M  V30 8595 H 787.193 -4.15302 2.55687 0
M  V30 8596 H 786.198 -3.04487 4.57786 0
M  V30 8597 H 787.423 -3.82292 5.61275 0
M  V30 8598 H 785.369 -5.27403 3.90105 0
M  V30 8599 H 785.286 -5.05807 5.61868 0
M  V30 8600 H 786.554 -6.03236 4.93686 0
M  V30 8601 N 790.784 -1.46188 -0.588786 0
M  V30 8602 C 792.033 -1.50452 -1.34339 0
M  V30 8603 C 792.346 -0.158096 -1.9496 0
M  V30 8604 O 793.552 -0.0784918 -2.71387 0
M  V30 8605 C 792.008 -2.65074 -2.43441 0
M  V30 8606 C 791.616 -4.06111 -1.8915 0
M  V30 8607 C 793.36 -2.78603 -3.20282 0
M  V30 8608 C 791.267 -5.12084 -2.95845 0
M  V30 8609 H 790.197 -0.559905 -0.504997 0
M  V30 8610 H 792.848 -1.72382 -0.629014 0
M  V30 8611 H 791.23 -2.36462 -3.1765 0
M  V30 8612 H 792.404 -4.44487 -1.21524 0
M  V30 8613 H 790.719 -3.97197 -1.24995 0
M  V30 8614 H 793.316 -3.54944 -3.99898 0
M  V30 8615 H 793.659 -1.85902 -3.72486 0
M  V30 8616 H 794.192 -3.06832 -2.53178 0
M  V30 8617 H 790.931 -6.06556 -2.48535 0
M  V30 8618 H 790.451 -4.78259 -3.61979 0
M  V30 8619 H 792.13 -5.37661 -3.59902 0
M  V30 8620 N 792.262 0.832906 -1.33792 0
M  V30 8621 C 793.172 1.97514 -1.26592 0
M  V30 8622 C 794.188 1.73114 -0.175391 0
M  V30 8623 O 795.364 1.97387 -0.400062 0
M  V30 8624 C 792.429 3.31625 -1.01121 0
M  V30 8625 C 791.49 3.69101 -2.19233 0
M  V30 8626 C 790.723 4.96813 -1.94968 0
M  V30 8627 O 790.946 5.63208 -0.902955 0
M  V30 8628 O 789.88 5.31932 -2.8166 0
M  V30 8629 H 793.706 2.0653 -2.22664 0
M  V30 8630 H 791.291 0.966826 -1.13898 0
M  V30 8631 H 793.173 4.11968 -0.886571 0
M  V30 8632 H 791.848 3.23599 -0.080822 0
M  V30 8633 H 790.755 2.89243 -2.37253 0
M  V30 8634 H 792.088 3.818 -3.10628 0
M  V30 8635 N 793.74 1.17359 1.05189 0
M  V30 8636 C 794.703 0.892604 2.11105 0
M  V30 8637 C 795.703 -0.117236 1.60372 0
M  V30 8638 O 796.893 0.114936 1.7382 0
M  V30 8639 C 794.025 0.337032 3.3923 0
M  V30 8640 H 795.218 1.83169 2.37464 0
M  V30 8641 H 792.771 0.984051 1.21434 0
M  V30 8642 H 793.506 -0.609198 3.18527 0
M  V30 8643 H 793.291 1.06484 3.77364 0
M  V30 8644 H 794.781 0.158763 4.17298 0
M  V30 8645 N 795.218 -1.23913 0.973828 0
M  V30 8646 C 796.634 -1.44325 0.681363 0
M  V30 8647 C 796.834 -1.86832 -0.754728 0
M  V30 8648 O 795.89 -2.01024 -1.52793 0
M  V30 8649 C 797.203 -2.50017 1.67069 0
M  V30 8650 C 798.751 -2.63838 1.68399 0
M  V30 8651 C 799.226 -3.72734 2.66145 0
M  V30 8652 N 800.717 -3.80169 2.64624 0
M  V30 8653 C 801.452 -4.6397 3.36927 0
M  V30 8654 N 800.948 -5.51911 4.18767 0
M  V30 8655 N 802.741 -4.58106 3.25722 0
M  V30 8656 H 794.892 -0.946204 1.9016 0
M  V30 8657 H 797.155 -0.477374 0.819035 0
M  V30 8658 H 796.861 -2.25686 2.69738 0
M  V30 8659 H 796.735 -3.48287 1.4483 0
M  V30 8660 H 799.122 -2.87524 0.664379 0
M  V30 8661 H 799.203 -1.65906 1.94702 0
M  V30 8662 H 798.847 -3.49797 3.68245 0
M  V30 8663 H 798.777 -4.70193 2.3712 0
M  V30 8664 H 801.268 -3.17319 2.05224 0
M  V30 8665 H 801.581 -6.12828 4.70809 0
M  V30 8666 H 799.926 -5.51556 4.2286 0
M  V30 8667 H 803.117 -3.8842 2.61242 0
M  V30 8668 H 803.29 -5.23188 3.82333 0
M  V30 8669 N 796.696 -0.74468 -1.38897 0
M  V30 8670 C 797.643 -0.111064 -2.30533 0
M  V30 8671 C 798.613 0.719276 -1.49719 0
M  V30 8672 O 799.798 0.677244 -1.78376 0
M  V30 8673 C 796.938 0.78292 -3.36102 0
M  V30 8674 C 796.051 -0.0610817 -4.31957 0
M  V30 8675 C 795.186 0.835075 -5.24595 0
M  V30 8676 C 794.225 -0.0130974 -6.12099 0
M  V30 8677 N 793.362 0.839525 -6.97063 0
M  V30 8678 H 798.202 -0.898113 -2.84144 0
M  V30 8679 H 795.739 -0.454537 -1.39901 0
M  V30 8680 H 797.697 1.31578 -3.95908 0
M  V30 8681 H 796.327 1.53585 -2.83922 0
M  V30 8682 H 795.379 -0.711469 -3.73687 0
M  V30 8683 H 796.691 -0.716482 -4.93627 0
M  V30 8684 H 795.845 1.43542 -5.89475 0
M  V30 8685 H 794.584 1.52423 -4.63269 0
M  V30 8686 H 793.589 -0.626179 -5.46223 0
M  V30 8687 H 794.814 -0.699181 -6.75491 0
M  V30 8688 H 792.76 1.5138 -6.38295 0
M  V30 8689 H 792.677 0.240823 -7.55616 0
M  V30 8690 H 793.945 1.42513 -7.66362 0
M  V30 8691 N 798.174 1.49689 -0.493057 0
M  V30 8692 C 799.59 1.58907 -0.148526 0
M  V30 8693 C 799.79 1.4991 1.34645 0
M  V30 8694 O 798.846 1.36893 2.12171 0
M  V30 8695 C 800.159 2.91996 -0.718265 0
M  V30 8696 C 801.707 3.05443 -0.683658 0
M  V30 8697 C 802.182 4.41138 -1.23132 0
M  V30 8698 N 803.673 4.47608 -1.19167 0
M  V30 8699 C 804.408 5.51038 -1.5857 0
M  V30 8700 N 803.904 6.61612 -2.05528 0
M  V30 8701 N 805.697 5.41706 -1.50036 0
M  V30 8702 H 797.848 1.5378 -1.46511 0
M  V30 8703 H 800.111 0.727996 -0.607228 0
M  V30 8704 H 799.817 3.04123 -1.7664 0
M  V30 8705 H 799.691 3.76798 -0.17419 0
M  V30 8706 H 802.078 2.92949 0.355626 0
M  V30 8707 H 802.159 2.22344 -1.26479 0
M  V30 8708 H 801.803 4.54382 -2.26935 0
M  V30 8709 H 801.733 5.22864 -0.626201 0
M  V30 8710 H 804.224 3.68274 -0.847524 0
M  V30 8711 H 804.537 7.36622 -2.33685 0
M  V30 8712 H 802.882 6.62674 -2.09497 0
M  V30 8713 H 806.073 4.54212 -1.13176 0
M  V30 8714 H 806.246 6.22188 -1.81068 0
M  V30 8715 N 799.652 0.226554 1.55963 0
M  V30 8716 C 800.615 -0.668015 2.19249 0
M  V30 8717 C 801.615 -1.11794 1.1558 0
M  V30 8718 O 802.805 -1.02593 1.40784 0
M  V30 8719 C 799.937 -1.91571 2.81981 0
M  V30 8720 H 801.13 -0.116175 2.99675 0
M  V30 8721 H 798.683 -0.0230497 1.56283 0
M  V30 8722 H 799.418 -2.50929 2.05439 0
M  V30 8723 H 799.203 -1.6015 3.57903 0
M  V30 8724 H 800.693 -2.55294 3.30477 0
M  V30 8725 N 801.13 -1.57531 -0.0467866 0
M  V30 8726 C 802.077 -2.05387 -1.05285 0
M  V30 8727 C 803.047 -0.939385 -1.36985 0
M  V30 8728 O 804.232 -1.20877 -1.47626 0
M  V30 8729 C 801.372 -2.52343 -2.35408 0
M  V30 8730 C 800.485 -3.77512 -2.10022 0
M  V30 8731 C 799.62 -4.1315 -3.33887 0
M  V30 8732 C 798.659 -5.31286 -3.03976 0
M  V30 8733 N 797.796 -5.62441 -4.20243 0
M  V30 8734 H 802.636 -2.91095 -0.637788 0
M  V30 8735 H 800.173 -1.43939 -0.303322 0
M  V30 8736 H 802.131 -2.77628 -3.11413 0
M  V30 8737 H 800.761 -1.69577 -2.7467 0
M  V30 8738 H 799.813 -3.59417 -1.24594 0
M  V30 8739 H 801.125 -4.63644 -1.83945 0
M  V30 8740 H 800.279 -4.39469 -4.18273 0
M  V30 8741 H 799.018 -3.25634 -3.63062 0
M  V30 8742 H 798.023 -5.04738 -2.17991 0
M  V30 8743 H 799.248 -6.20441 -2.76098 0
M  V30 8744 H 797.194 -4.77885 -4.49402 0
M  V30 8745 H 797.111 -6.43046 -3.97528 0
M  V30 8746 H 798.379 -5.93327 -5.05553 0
M  V30 8747 N 802.608 0.318715 -1.54344 0
M  V30 8748 C 803.556 1.41254 -1.84798 0
M  V30 8749 C 804.55 1.53325 -0.720256 0
M  V30 8750 O 805.756 1.55653 -0.903992 0
M  V30 8751 H 802.131 0.471468 -0.585851 0
M  V30 8752 H 804.102 1.12795 -2.7626 0
M  V30 8753 C 802.851 2.77395 -2.09637 0
M  V30 8754 H 802.174 2.68881 -2.95876 0
M  V30 8755 H 803.614 3.52987 -2.34896 0
M  V30 8756 C 802.073 3.24948 -0.889398 0
M  V30 8757 O 802.603 4.01573 -0.101063 0
M  V30 8758 N 800.809 2.82051 -0.699684 0
M  V30 8759 H 800.356 2.19858 -1.3424 0
M  V30 8760 H 800.314 3.1422 0.106368 0
M  V30 8761 N 804.086 1.46499 0.581025 0
M  V30 8762 C 805.033 1.5719 1.68997 0
M  V30 8763 C 806.003 0.416114 1.60803 0
M  V30 8764 O 807.188 0.633086 1.79991 0
M  V30 8765 C 804.328 1.56973 3.07333 0
M  V30 8766 C 803.441 2.83298 3.26139 0
M  V30 8767 C 802.576 2.74574 4.54734 0
M  V30 8768 C 801.615 3.9583 4.66889 0
M  V30 8769 N 800.752 3.85482 5.86811 0
M  V30 8770 H 805.592 2.51914 1.59196 0
M  V30 8771 H 803.129 1.24975 0.775857 0
M  V30 8772 H 805.087 1.54832 3.87405 0
M  V30 8773 H 803.717 0.657803 3.16027 0
M  V30 8774 H 802.769 2.95411 2.3966 0
M  V30 8775 H 804.081 3.7316 3.30988 0
M  V30 8776 H 803.235 2.70548 5.43036 0
M  V30 8777 H 801.974 1.82354 4.52325 0
M  V30 8778 H 800.979 4.00186 3.77003 0
M  V30 8779 H 802.204 4.89148 4.71075 0
M  V30 8780 H 800.15 2.96051 5.85397 0
M  V30 8781 H 800.067 4.69002 5.92936 0
M  V30 8782 H 801.335 3.85434 6.7754 0
M  V30 8783 N 805.565 -0.825799 1.34232 0
M  V30 8784 C 806.497 -1.94401 1.21413 0
M  V30 8785 C 807.51 -1.6218 0.141902 0
M  V30 8786 O 808.699 -1.74109 0.3935 0
M  V30 8787 C 805.799 -3.28257 0.842635 0
M  V30 8788 C 804.972 -3.88521 2.00924 0
M  V30 8789 C 804.031 -5.00752 1.61661 0
M  V30 8790 O 803.057 -5.19201 2.33279 0
M  V30 8791 N 804.259 -5.78084 0.52911 0
M  V30 8792 H 807.024 -2.05931 2.17744 0
M  V30 8793 H 804.585 -1.00223 1.27149 0
M  V30 8794 H 806.577 -4.00781 0.561822 0
M  V30 8795 H 805.147 -3.12585 -0.0304029 0
M  V30 8796 H 804.367 -3.08425 2.45495 0
M  V30 8797 H 805.655 -4.25516 2.78951 0
M  V30 8798 H 805.053 -5.65661 -0.0663322 0
M  V30 8799 H 803.61 -6.51072 0.308017 0
M  V30 8800 N 807.043 -1.17915 -1.04565 0
M  V30 8801 C 807.973 -0.925033 -2.14395 0
M  V30 8802 C 808.954 0.135375 -1.6956 0
M  V30 8803 O 810.139 -0.0161774 -1.94193 0
M  V30 8804 C 807.269 -0.444469 -3.44444 0
M  V30 8805 C 806.223 -1.44478 -4.02877 0
M  V30 8806 C 805.549 -0.821933 -5.28345 0
M  V30 8807 C 806.849 -2.81995 -4.39632 0
M  V30 8808 H 808.543 -1.84354 -2.35911 0
M  V30 8809 H 806.089 -0.887806 -1.13375 0
M  V30 8810 H 808.042 -0.254078 -4.20633 0
M  V30 8811 H 806.766 0.509592 -3.226 0
M  V30 8812 H 805.425 -1.62203 -3.28764 0
M  V30 8813 H 805.073 0.139161 -5.02807 0
M  V30 8814 H 804.773 -1.48976 -5.68401 0
M  V30 8815 H 806.297 -0.641959 -6.07216 0
M  V30 8816 H 807.711 -2.67952 -5.06828 0
M  V30 8817 H 806.108 -3.45414 -4.90723 0
M  V30 8818 H 807.178 -3.35927 -3.49687 0
M  V30 8819 N 808.521 1.23394 -0.980386 0
M  V30 8820 C 809.769 1.91431 -0.647978 0
M  V30 8821 C 810.09 1.76871 0.821066 0
M  V30 8822 O 809.36 1.14808 1.58732 0
M  V30 8823 H 807.94 0.708516 -0.236673 0
M  V30 8824 H 810.602 1.50019 -1.2442 0
M  V30 8825 H 809.698 2.98854 -0.899592 0
M  V30 8826 N 809.999 0.752036 1.385 0
M  V30 8827 C 810.949 0.0990189 2.27785 0
M  V30 8828 C 811.933 -0.694867 1.45122 0
M  V30 8829 O 813.125 -0.561077 1.67872 0
M  V30 8830 C 810.254 -0.794531 3.33979 0
M  V30 8831 C 809.34 0.00611984 4.241 0
M  V30 8832 N 809.731 1.04174 4.94956 0
M  V30 8833 C 808.029 -0.220934 4.45452 0
M  V30 8834 C 808.73 1.52601 5.61327 0
M  V30 8835 N 807.706 0.84159 5.37046 0
M  V30 8836 H 811.508 0.892208 2.8003 0
M  V30 8837 H 809.022 0.587934 1.51384 0
M  V30 8838 H 811.019 -1.27797 3.96829 0
M  V30 8839 H 809.679 -1.58669 2.83292 0
M  V30 8840 H 810.69 1.42349 4.97953 0
M  V30 8841 H 807.367 -0.986556 4.05676 0
M  V30 8842 H 808.757 2.38857 6.2801 0
M  V30 8843 N 811.477 -1.49425 0.500989 0
M  V30 8844 C 812.387 -2.32899 -0.282011 0
M  V30 8845 C 813.403 -1.44632 -0.967346 0
M  V30 8846 O 814.579 -1.77654 -0.94873 0
M  V30 8847 C 811.644 -3.20069 -1.33253 0
M  V30 8848 C 810.705 -4.24186 -0.660636 0
M  V30 8849 C 809.938 -5.07191 -1.6611 0
M  V30 8850 O 810.161 -4.91712 -2.89094 0
M  V30 8851 O 809.095 -5.8948 -1.21643 0
M  V30 8852 H 812.921 -3.01038 0.401224 0
M  V30 8853 H 810.506 -1.47079 0.262323 0
M  V30 8854 H 812.388 -3.74071 -1.94033 0
M  V30 8855 H 811.063 -2.54625 -1.9987 0
M  V30 8856 H 809.97 -3.74098 -0.0130959 0
M  V30 8857 H 811.303 -4.92186 -0.0369179 0
M  V30 8858 N 812.955 -0.234822 -1.55841 0
M  V30 8859 C 813.865 0.680828 -2.24504 0
M  V30 8860 C 814.881 1.20306 -1.25708 0
M  V30 8861 O 816.057 1.24188 -1.58554 0
M  V30 8862 C 813.122 1.86636 -2.92178 0
M  V30 8863 C 812.183 1.3848 -4.06352 0
M  V30 8864 C 811.416 2.51382 -4.70789 0
M  V30 8865 O 811.639 3.69831 -4.34259 0
M  V30 8866 O 810.573 2.21828 -5.59532 0
M  V30 8867 H 814.399 0.12583 -3.03439 0
M  V30 8868 H 811.984 -0.00381817 -1.494 0
M  V30 8869 H 813.866 2.55845 -3.34845 0
M  V30 8870 H 812.541 2.40921 -2.16192 0
M  V30 8871 H 811.448 0.660341 -3.68226 0
M  V30 8872 H 812.781 0.888177 -4.8412 0
M  V30 8873 N 814.433 1.57553 0.0384317 0
M  V30 8874 C 815.71 1.79977 0.766002 0
M  V30 8875 C 816.09 0.830625 1.94072 0
M  V30 8876 O 815.438 -0.129243 2.28134 0
M  V30 8877 C 815.648 3.27434 1.20781 0
M  V30 8878 C 816.996 3.92167 1.62758 0
M  V30 8879 O 818.02 3.31527 1.30263 0
M  V30 8880 O 816.879 4.98917 2.23035 0
M  V30 8881 H 813.973 0.739787 0.369654 0
M  V30 8882 H 816.519 1.69693 0.0159312 0
M  V30 8883 H 815.291 3.89558 0.368792 0
M  V30 8884 H 814.914 3.42571 2.01819 0
M  V30 8885 N 815.911 -0.310526 1.54511 0
M  V30 8886 C 817.141 -1.06456 1.77061 0
M  V30 8887 C 817.549 -1.81755 0.525528 0
M  V30 8888 O 816.892 -1.76365 -0.513904 0
M  V30 8889 C 816.954 -2.09856 2.91892 0
M  V30 8890 C 816.618 -1.53838 4.30329 0
M  V30 8891 C 817.615 -0.973358 5.10707 0
M  V30 8892 C 815.3 -1.57688 4.76906 0
M  V30 8893 C 817.294 -0.454283 6.35779 0
M  V30 8894 C 814.981 -1.05393 6.01943 0
M  V30 8895 C 815.979 -0.493595 6.81214 0
M  V30 8896 O 815.667 0.0214506 8.03897 0
M  V30 8897 H 815.399 -0.321913 0.594431 0
M  V30 8898 H 817.953 -0.358289 2.02251 0
M  V30 8899 H 816.183 -2.84137 2.62304 0
M  V30 8900 H 817.872 -2.71085 3.02106 0
M  V30 8901 H 818.638 -0.936588 4.75871 0
M  V30 8902 H 814.517 -2.00242 4.1524 0
M  V30 8903 H 818.061 -0.0162657 6.97598 0
M  V30 8904 H 813.958 -1.08782 6.36268 0
M  V30 8905 H 814.726 -0.0927478 8.18447 0
M  V30 8906 N 817.389 -1.46805 -0.573248 0
M  V30 8907 C 818.352 -1.57655 -1.66366 0
M  V30 8908 C 819.352 -0.452905 -1.5429 0
M  V30 8909 O 820.542 -0.717502 -1.58737 0
M  V30 8910 C 817.674 -1.50584 -3.05839 0
M  V30 8911 H 818.867 -2.54842 -1.581 0
M  V30 8912 H 816.42 -1.34756 -0.791868 0
M  V30 8913 H 817.155 -0.547127 -3.19651 0
M  V30 8914 H 816.94 -2.32118 -3.16012 0
M  V30 8915 H 818.43 -1.61282 -3.85199 0
M  V30 8916 N 818.867 0.818669 -1.34668 0
M  V30 8917 C 819.797 1.94468 -1.29245 0
M  V30 8918 C 820.778 1.69257 -0.169101 0
M  V30 8919 O 821.963 1.90794 -0.362143 0
M  V30 8920 C 819.093 3.31001 -1.05145 0
M  V30 8921 C 818.047 3.70663 -2.13992 0
M  V30 8922 C 817.373 5.05226 -1.75074 0
M  V30 8923 C 818.673 3.82312 -3.55858 0
M  V30 8924 H 820.367 1.99263 -2.2346 0
M  V30 8925 H 817.913 0.957304 -1.07572 0
M  V30 8926 H 819.866 4.09364 -0.999949 0
M  V30 8927 H 818.59 3.26517 -0.0737312 0
M  V30 8928 H 817.249 2.94578 -2.18219 0
M  V30 8929 H 816.897 4.97233 -0.759518 0
M  V30 8930 H 816.597 5.32734 -2.47928 0
M  V30 8931 H 818.121 5.86042 -1.71427 0
M  V30 8932 H 819.535 4.50935 -3.5402 0
M  V30 8933 H 817.932 4.21278 -4.2737 0
M  V30 8934 H 819.002 2.84193 -3.9289 0
M  V30 8935 N 820.346 1.18468 1.03938 0
M  V30 8936 C 821.594 0.978895 1.76811 0
M  V30 8937 C 821.915 -0.49257 1.88676 0
M  V30 8938 O 821.185 -1.3572 1.41269 0
M  V30 8939 H 819.765 0.359201 0.654968 0
M  V30 8940 H 822.427 1.49173 1.25433 0
M  V30 8941 H 821.523 1.418 2.78027 0
M  V30 8942 N 821.824 -1.22873 0.986916 0
M  V30 8943 C 822.771 -2.2458 0.532215 0
M  V30 8944 C 823.741 -1.60375 -0.432322 0
M  V30 8945 O 824.926 -1.87775 -0.338416 0
M  V30 8946 C 822.066 -3.44761 -0.152864 0
M  V30 8947 C 821.179 -4.23501 0.852704 0
M  V30 8948 C 820.314 -5.31011 0.14176 0
M  V30 8949 C 819.353 -6.01464 1.1361 0
M  V30 8950 N 818.49 -7.00631 0.453871 0
M  V30 8951 H 823.33 -2.62838 1.40428 0
M  V30 8952 H 820.867 -1.29185 0.703543 0
M  V30 8953 H 822.825 -4.1333 -0.566926 0
M  V30 8954 H 821.455 -3.07284 -0.988756 0
M  V30 8955 H 820.507 -3.54286 1.38512 0
M  V30 8956 H 821.819 -4.72097 1.61014 0
M  V30 8957 H 820.973 -6.05805 -0.329337 0
M  V30 8958 H 819.712 -4.83373 -0.648229 0
M  V30 8959 H 818.717 -5.25456 1.61789 0
M  V30 8960 H 819.942 -6.5119 1.92686 0
M  V30 8961 H 817.888 -6.55235 -0.316791 0
M  V30 8962 H 817.805 -7.47204 1.14986 0
M  V30 8963 H 819.073 -7.795 0.00537823 0
M  V30 8964 N 823.302 -0.75937 -1.38099 0
M  V30 8965 C 824.579 -0.243371 -1.9408 0
M  V30 8966 C 824.959 1.25942 -1.69416 0
M  V30 8967 O 824.307 2.03667 -1.03595 0
M  V30 8968 C 824.517 -0.603328 -3.43745 0
M  V30 8969 C 825.865 -0.566195 -4.20808 0
M  V30 8970 O 826.889 -0.541969 -3.52053 0
M  V30 8971 O 825.748 -0.582261 -5.43389 0
M  V30 8972 H 822.842 -0.0526825 -0.82532 0
M  V30 8973 H 825.388 -0.839884 -1.47459 0
M  V30 8974 H 824.16 -1.64098 -3.55229 0
M  V30 8975 H 823.783 0.0208887 -3.97595 0
M  V30 8976 N 824.78 1.49157 -0.508906 0
M  V30 8977 C 826.02 2.04376 0.0310623 0
M  V30 8978 C 826.384 1.37946 1.33547 0
M  V30 8979 O 827.585 1.83931 1.96017 0
M  V30 8980 C 825.856 3.56985 0.172191 0
M  V30 8981 S 827.415 4.33728 0.665267 0
M  V30 8982 H 824.233 0.710997 -0.00199266 0
M  V30 8983 H 826.835 1.83119 -0.684674 0
M  V30 8984 H 825.539 4.02874 -0.78234 0
M  V30 8985 H 825.07 3.82661 0.912933 0
M  V30 8986 H 827.085 4.56992 1.9332 0
M  V30 8987 N 826.258 0.243083 1.55714 0
M  V30 8988 C 827.507 -0.383188 1.98027 0
M  V30 8989 C 827.82 -1.59347 1.13436 0
M  V30 8990 O 829.026 -2.29065 1.45745 0
M  V30 8991 C 827.482 -0.733135 3.52354 0
M  V30 8992 C 827.09 0.455539 4.45678 0
M  V30 8993 C 828.834 -1.32381 4.03331 0
M  V30 8994 C 826.741 0.0819591 5.91343 0
M  V30 8995 H 825.671 -0.146944 0.739543 0
M  V30 8996 H 828.322 0.342697 1.80272 0
M  V30 8997 H 826.704 -1.51704 3.65789 0
M  V30 8998 H 827.878 1.23291 4.44 0
M  V30 8999 H 826.193 0.960886 4.05162 0
M  V30 9000 H 828.79 -1.61658 5.09677 0
M  V30 9001 H 829.133 -2.24698 3.50452 0
M  V30 9002 H 829.666 -0.602885 3.93205 0
M  V30 9003 H 826.405 0.972171 6.48251 0
M  V30 9004 H 825.925 -0.659291 5.96166 0
M  V30 9005 H 827.604 -0.3372 6.46121 0
M  V30 9006 N 827.736 -1.57571 -0.0300757 0
M  V30 9007 C 828.669 -2.01874 -1.06406 0
M  V30 9008 C 829.647 -0.902901 -1.35227 0
M  V30 9009 O 830.831 -1.16865 -1.47901 0
M  V30 9010 C 827.958 -2.39093 -2.39901 0
M  V30 9011 C 827.004 -3.61108 -2.26943 0
M  V30 9012 S 827.837 -5.10287 -1.62382 0
M  V30 9013 C 828.993 -5.50747 -2.97369 0
M  V30 9014 H 829.226 -2.89261 -0.686703 0
M  V30 9015 H 826.759 -1.52523 -0.240017 0
M  V30 9016 H 828.717 -2.61207 -3.16672 0
M  V30 9017 H 827.378 -1.52159 -2.74784 0
M  V30 9018 H 826.571 -3.84803 -3.25489 0
M  V30 9019 H 826.173 -3.3884 -1.58314 0
M  V30 9020 H 828.465 -5.51369 -3.93698 0
M  V30 9021 H 829.408 -6.51071 -2.78409 0
M  V30 9022 H 829.816 -4.7825 -2.99895 0
M  V30 9023 N 829.214 0.302327 -1.54673 0
M  V30 9024 C 830.164 1.37443 -1.81916 0
M  V30 9025 C 831.148 1.45999 -0.676251 0
M  V30 9026 O 832.34 1.50174 -0.93685 0
M  V30 9027 C 829.469 2.73966 -2.06876 0
M  V30 9028 C 828.555 2.69637 -3.27348 0
M  V30 9029 N 828.946 2.34926 -4.47933 0
M  V30 9030 C 827.244 3.00742 -3.29348 0
M  V30 9031 C 827.945 2.39862 -5.29944 0
M  V30 9032 N 826.921 2.77163 -4.67634 0
M  V30 9033 H 830.723 1.09567 -2.72713 0
M  V30 9034 H 828.237 0.5109 -1.54154 0
M  V30 9035 H 830.234 3.51265 -2.2454 0
M  V30 9036 H 828.894 3.02754 -1.17346 0
M  V30 9037 H 829.905 2.07403 -4.74557 0
M  V30 9038 H 826.582 3.34434 -2.49921 0
M  V30 9039 H 827.972 2.15835 -6.3629 0
M  V30 9040 N 830.692 1.47107 0.565454 0
M  V30 9041 C 831.94 1.53005 1.32038 0
M  V30 9042 C 832.261 0.190453 1.94068 0
M  V30 9043 O 831.531 -0.784783 1.79494 0
M  V30 9044 H 830.111 0.563578 0.490294 0
M  V30 9045 H 832.773 1.83351 0.660928 0
M  V30 9046 H 831.869 2.29215 2.11818 0
M  V30 9047 N 832.17 -0.811516 1.35101 0
M  V30 9048 C 833.4 -1.59749 1.31011 0
M  V30 9049 C 833.808 -1.88847 -0.115566 0
M  V30 9050 O 833.151 -1.48854 -1.07649 0
M  V30 9051 C 833.213 -2.95714 2.04435 0
M  V30 9052 C 832.877 -2.89456 3.53645 0
M  V30 9053 C 833.874 -2.63237 4.48333 0
M  V30 9054 C 831.559 -3.08728 3.96222 0
M  V30 9055 C 833.553 -2.56361 5.83573 0
M  V30 9056 C 831.24 -3.01475 5.3156 0
M  V30 9057 C 832.238 -2.75326 6.25048 0
M  V30 9058 O 831.926 -2.68026 7.57903 0
M  V30 9059 H 831.658 -0.502889 0.45175 0
M  V30 9060 H 834.212 -1.01687 1.78462 0
M  V30 9061 H 832.442 -3.55739 1.51613 0
M  V30 9062 H 834.131 -3.56816 1.93487 0
M  V30 9063 H 834.897 -2.48072 4.16756 0
M  V30 9064 H 830.776 -3.28094 3.23845 0
M  V30 9065 H 834.32 -2.35871 6.56514 0
M  V30 9066 H 830.217 -3.16197 5.62752 0
M  V30 9067 H 830.985 -2.8367 7.67772 0
M  V30 9068 N 833.648 -1.19017 -1.03309 0
M  V30 9069 C 834.581 -0.867457 -2.1107 0
M  V30 9070 C 835.559 0.173752 -1.61669 0
M  V30 9071 O 836.743 0.0510077 -1.88431 0
M  V30 9072 C 833.87 -0.297459 -3.37391 0
M  V30 9073 C 832.916 -1.31706 -4.05655 0
M  V30 9074 S 833.749 -2.87591 -4.51721 0
M  V30 9075 C 834.905 -2.32122 -5.81266 0
M  V30 9076 H 835.138 -1.78008 -2.38119 0
M  V30 9077 H 832.671 -1.01686 -1.16187 0
M  V30 9078 H 834.629 0.0248889 -4.10492 0
M  V30 9079 H 833.29 0.5934 -3.08444 0
M  V30 9080 H 832.483 -0.867264 -4.96482 0
M  V30 9081 H 832.085 -1.58603 -3.38705 0
M  V30 9082 H 834.377 -1.70855 -6.55603 0
M  V30 9083 H 835.32 -3.2128 -6.31019 0
M  V30 9084 H 835.728 -1.74858 -5.36736 0
M  V30 9085 N 835.127 1.22348 -0.993418 0
M  V30 9086 C 836.057 2.26584 -0.564088 0
M  V30 9087 C 837.038 1.65102 0.409298 0
M  V30 9088 O 838.223 1.91872 0.299819 0
M  V30 9089 C 835.353 3.47087 0.121554 0
M  V30 9090 C 834.307 4.21009 -0.770429 0
M  V30 9091 C 833.633 5.34678 0.0481586 0
M  V30 9092 C 834.933 4.79636 -2.06752 0
M  V30 9093 H 836.627 2.62749 -1.43538 0
M  V30 9094 H 834.173 1.26303 -0.691628 0
M  V30 9095 H 836.126 4.19166 0.433303 0
M  V30 9096 H 834.85 3.1002 1.0274 0
M  V30 9097 H 833.509 3.50764 -1.06583 0
M  V30 9098 H 833.157 4.93852 0.954933 0
M  V30 9099 H 832.857 5.85061 -0.545641 0
M  V30 9100 H 834.381 6.09573 0.353991 0
M  V30 9101 H 835.795 5.43654 -1.81969 0
M  V30 9102 H 834.192 5.4036 -2.61019 0
M  V30 9103 H 835.262 3.99659 -2.74592 0
M  V30 9104 N 836.605 0.766683 1.37694 0
M  V30 9105 C 837.552 0.147725 2.30327 0
M  V30 9106 C 838.522 -0.695366 1.50844 0
M  V30 9107 O 839.707 -0.64878 1.79431 0
M  V30 9108 C 836.847 -0.72935 3.37305 0
M  V30 9109 C 835.96 0.129795 4.31805 0
M  V30 9110 C 835.095 -0.751511 5.25857 0
M  V30 9111 C 834.134 0.110475 6.12 0
M  V30 9112 N 833.271 -0.728522 6.9831 0
M  V30 9113 H 838.111 0.943204 2.82679 0
M  V30 9114 H 835.648 0.476736 1.3916 0
M  V30 9115 H 837.606 -1.25263 3.97951 0
M  V30 9116 H 836.236 -1.49048 2.86329 0
M  V30 9117 H 835.288 0.770829 3.72508 0
M  V30 9118 H 836.6 0.794923 4.92425 0
M  V30 9119 H 835.754 -1.34146 5.91684 0
M  V30 9120 H 834.493 -1.45034 4.65636 0
M  V30 9121 H 833.498 0.712999 5.45157 0
M  V30 9122 H 834.723 0.806557 6.74293 0
M  V30 9123 H 832.669 -1.41206 6.40622 0
M  V30 9124 H 832.586 -0.12058 7.55904 0
M  V30 9125 H 833.854 -1.30303 7.68532 0
M  V30 9126 N 838.083 -1.48885 0.516809 0
M  V30 9127 C 839.013 -2.32241 -0.242157 0
M  V30 9128 C 839.994 -1.41258 -0.947633 0
M  V30 9129 O 841.179 -1.70156 -0.935973 0
M  V30 9130 C 838.309 -3.22151 -1.29754 0
M  V30 9131 C 837.263 -4.22053 -0.710995 0
M  V30 9132 C 836.589 -5.01007 -1.86806 0
M  V30 9133 C 837.889 -5.21388 0.30853 0
M  V30 9134 H 839.583 -2.95943 0.453651 0
M  V30 9135 H 837.129 -1.42316 0.219612 0
M  V30 9136 H 839.082 -3.79284 -1.83634 0
M  V30 9137 H 837.806 -2.56423 -2.02274 0
M  V30 9138 H 836.465 -3.66087 -0.193819 0
M  V30 9139 H 836.113 -4.31713 -2.58133 0
M  V30 9140 H 835.813 -5.68615 -1.48159 0
M  V30 9141 H 837.337 -5.60989 -2.4109 0
M  V30 9142 H 838.751 -5.73122 -0.142703 0
M  V30 9143 H 837.148 -5.96975 0.611673 0
M  V30 9144 H 838.218 -4.69329 1.21894 0
M  V30 9145 N 839.561 -0.251338 -1.55583 0
M  V30 9146 C 840.809 0.371434 -1.98657 0
M  V30 9147 C 841.13 1.58143 -1.14087 0
M  V30 9148 O 840.4 1.94607 -0.224708 0
M  V30 9149 H 838.98 0.140225 -0.733721 0
M  V30 9150 H 841.642 -0.351157 -1.9171 0
M  V30 9151 H 840.738 0.677554 -3.04657 0
M  V30 9152 N 841.039 1.57585 0.0217189 0
M  V30 9153 C 841.987 2.08134 1.03842 0
M  V30 9154 C 842.981 0.996662 1.36978 0
M  V30 9155 O 844.187 1.18149 1.35797 0
M  V30 9156 H 840.562 0.664298 0.352438 0
M  V30 9157 H 842.533 2.92583 0.58634 0
M  V30 9158 C 841.282 2.58218 2.32849 0
M  V30 9159 H 840.605 3.41302 2.08214 0
M  V30 9160 H 842.045 2.97289 3.02316 0
M  V30 9161 C 840.504 1.48664 3.02325 0
M  V30 9162 O 841.034 0.857075 3.9245 0
M  V30 9163 N 839.24 1.21938 2.63779 0
M  V30 9164 H 838.787 1.73319 1.90574 0
M  V30 9165 H 838.745 0.488523 3.10581 0
M  V30 9166 N 842.517 -0.29412 1.54831 0
M  V30 9167 C 843.928 -0.866651 1.65366 0
M  V30 9168 C 844.279 -1.87834 0.56681 0
M  V30 9169 O 843.404 -2.14374 -0.295389 0
M  V30 9170 C 843.999 -1.57869 2.99771 0
M  V30 9171 C 842.558 -2.09954 3.12404 0
M  V30 9172 C 841.705 -0.934492 2.6108 0
M  V30 9173 H 844.656 -0.0709551 1.58541 0
M  V30 9174 H 844.677 -2.44462 2.91579 0
M  V30 9175 H 844.189 -0.84212 3.78853 0
M  V30 9176 H 842.29 -2.86637 2.38055 0
M  V30 9177 H 842.403 -2.32934 4.18663 0
M  V30 9178 H 840.767 -1.32199 2.17705 0
M  V30 9179 H 841.55 -0.211768 3.42646 0
M  V30 9180 N 843.995 -1.47404 -0.557645 0
M  V30 9181 C 845.242 -1.54007 -1.31484 0
M  V30 9182 C 845.57 -0.202162 -1.93447 0
M  V30 9183 O 844.825 0.804901 -1.78381 0
M  V30 9184 C 845.124 -2.6061 -2.44575 0
M  V30 9185 C 844.79 -4.03896 -2.00446 0
M  V30 9186 C 843.452 -4.42901 -1.88127 0
M  V30 9187 C 845.804 -4.93804 -1.66754 0
M  V30 9188 C 843.132 -5.6965 -1.40411 0
M  V30 9189 C 845.484 -6.21016 -1.20509 0
M  V30 9190 C 844.148 -6.58903 -1.06786 0
M  V30 9191 H 843.418 -0.563552 -0.481134 0
M  V30 9192 H 846.065 -1.81001 -0.625375 0
M  V30 9193 H 844.37 -2.27371 -3.19076 0
M  V30 9194 H 846.067 -2.62941 -3.02759 0
M  V30 9195 H 842.657 -3.73077 -2.10977 0
M  V30 9196 H 846.841 -4.64369 -1.75144 0
M  V30 9197 H 842.097 -5.97755 -1.2845 0
M  V30 9198 H 846.271 -6.90095 -0.935001 0
M  V30 9199 H 843.898 -7.57008 -0.695891 0
M  V30 9200 N 845.473 0.80434 -1.35529 0
M  V30 9201 C 846.403 1.93086 -1.31301 0
M  V30 9202 C 847.384 1.69068 -0.187044 0
M  V30 9203 O 848.569 1.90399 -0.382359 0
M  V30 9204 C 845.699 3.29867 -1.0865 0
M  V30 9205 C 844.653 3.68373 -2.17911 0
M  V30 9206 C 843.979 5.0334 -1.80423 0
M  V30 9207 C 845.279 3.78516 -3.59893 0
M  V30 9208 H 846.973 1.96882 -2.25561 0
M  V30 9209 H 844.519 0.945841 -1.08581 0
M  V30 9210 H 846.472 4.08281 -1.04331 0
M  V30 9211 H 845.196 3.2642 -0.108359 0
M  V30 9212 H 843.855 2.92247 -2.21331 0
M  V30 9213 H 843.503 4.96399 -0.812213 0
M  V30 9214 H 843.203 5.30074 -2.53565 0
M  V30 9215 H 844.727 5.84191 -1.77633 0
M  V30 9216 H 846.141 4.47155 -3.58783 0
M  V30 9217 H 844.538 4.16721 -4.31814 0
M  V30 9218 H 845.608 2.8001 -3.95882 0
M  V30 9219 N 846.951 1.19563 1.02676 0
M  V30 9220 C 848.179 1.02488 1.79732 0
M  V30 9221 C 848.594 -0.426302 1.83924 0
M  V30 9222 O 847.951 -1.29609 1.28483 0
M  V30 9223 C 848.002 1.58944 3.24683 0
M  V30 9224 O 847.723 2.98382 3.2078 0
M  V30 9225 C 849.224 1.46681 4.1833 0
M  V30 9226 H 846.444 0.361098 0.565552 0
M  V30 9227 H 848.988 1.58426 1.29311 0
M  V30 9228 H 847.143 1.0715 3.72287 0
M  V30 9229 H 847.557 3.24983 4.11687 0
M  V30 9230 H 849.031 1.90959 5.17918 0
M  V30 9231 H 849.508 0.417663 4.3721 0
M  V30 9232 H 850.114 1.97616 3.76601 0
M  V30 9233 N 848.429 -1.21819 0.999893 0
M  V30 9234 C 849.361 -2.23356 0.514256 0
M  V30 9235 C 850.374 -1.5795 -0.394413 0
M  V30 9236 O 851.563 -1.77427 -0.195428 0
M  V30 9237 C 848.663 -3.37797 -0.273207 0
M  V30 9238 C 847.836 -4.32791 0.633293 0
M  V30 9239 C 846.895 -5.26098 -0.103673 0
M  V30 9240 O 845.921 -5.66881 0.513269 0
M  V30 9241 N 847.123 -5.63764 -1.38383 0
M  V30 9242 H 849.888 -2.65653 1.3874 0
M  V30 9243 H 847.449 -1.3619 0.875431 0
M  V30 9244 H 849.441 -3.97209 -0.775053 0
M  V30 9245 H 848.011 -2.94527 -1.0475 0
M  V30 9246 H 847.231 -3.71595 1.31571 0
M  V30 9247 H 848.519 -4.93196 1.25039 0
M  V30 9248 H 847.917 -5.32614 -1.90627 0
M  V30 9249 H 846.474 -6.25562 -1.83073 0
M  V30 9250 N 849.908 -0.773975 -1.37286 0
M  V30 9251 C 851.154 -0.348833 -2.00386 0
M  V30 9252 C 851.509 1.06347 -1.60337 0
M  V30 9253 O 850.802 1.72178 -0.840545 0
M  V30 9254 C 850.996 -0.432651 -3.54772 0
M  V30 9255 C 850.825 -1.85155 -4.09814 0
M  V30 9256 C 849.595 -2.47272 -4.40664 0
M  V30 9257 C 851.793 -2.8114 -4.30656 0
M  V30 9258 N 849.775 -3.80912 -4.81435 0
M  V30 9259 C 851.146 -3.99582 -4.74061 0
M  V30 9260 C 853.201 -2.78398 -4.12794 0
M  V30 9261 C 851.904 -5.1567 -5.01475 0
M  V30 9262 C 853.93 -3.9366 -4.41345 0
M  V30 9263 C 853.292 -5.10844 -4.84992 0
M  V30 9264 H 849.391 -0.174738 -0.762227 0
M  V30 9265 H 851.975 -1.00828 -1.66559 0
M  V30 9266 H 850.146 0.19663 -3.87902 0
M  V30 9267 H 851.878 0.0147601 -4.04697 0
M  V30 9268 H 848.633 -1.98872 -4.29822 0
M  V30 9269 H 849.057 -4.49628 -5.06126 0
M  V30 9270 H 853.699 -1.8897 -3.7822 0
M  V30 9271 H 851.417 -6.05696 -5.34938 0
M  V30 9272 H 855.003 -3.92882 -4.2911 0
M  V30 9273 H 853.883 -5.98553 -5.0666 0
M  V30 9274 N 851.386 1.48609 -0.524698 0
M  V30 9275 C 852.318 2.27508 0.278 0
M  V30 9276 C 853.331 1.35042 0.909258 0
M  V30 9277 O 854.52 1.60136 0.788592 0
M  V30 9278 C 851.62 3.08247 1.40843 0
M  V30 9279 C 850.793 4.28455 0.880083 0
M  V30 9280 C 849.852 4.91048 1.891 0
M  V30 9281 O 848.878 5.5042 1.45005 0
M  V30 9282 N 850.08 4.82816 3.22288 0
M  V30 9283 H 852.845 2.97037 -0.398642 0
M  V30 9284 H 850.406 1.57876 -0.358698 0
M  V30 9285 H 852.398 3.46992 2.08276 0
M  V30 9286 H 850.968 2.41173 1.98883 0
M  V30 9287 H 850.188 3.94189 0.0299228 0
M  V30 9288 H 851.476 5.06279 0.505881 0
M  V30 9289 H 850.874 4.3572 3.60783 0
M  V30 9290 H 849.431 5.25676 3.85368 0
M  V30 9291 N 852.864 0.259585 1.55447 0
M  V30 9292 C 854.28 -0.094961 1.59317 0
M  V30 9293 C 854.48 -1.55884 1.2768 0
M  V30 9294 O 853.536 -2.30528 1.0302 0
M  V30 9295 C 854.849 0.265669 2.99524 0
M  V30 9296 C 856.397 0.211007 3.12288 0
M  V30 9297 C 856.872 0.545851 4.54736 0
M  V30 9298 N 858.363 0.496823 4.60528 0
M  V30 9299 C 859.098 0.728909 5.68748 0
M  V30 9300 N 858.594 1.02479 6.85179 0
M  V30 9301 N 860.387 0.658756 5.58226 0
M  V30 9302 H 852.538 1.2141 1.7428 0
M  V30 9303 H 854.801 0.489404 0.811904 0
M  V30 9304 H 854.507 1.28316 3.27457 0
M  V30 9305 H 854.381 -0.401089 3.75061 0
M  V30 9306 H 856.768 -0.797172 2.84129 0
M  V30 9307 H 856.849 0.911799 2.38998 0
M  V30 9308 H 856.493 1.55164 4.83618 0
M  V30 9309 H 856.423 -0.17656 5.26304 0
M  V30 9310 H 858.914 0.277376 3.76881 0
M  V30 9311 H 859.227 1.18897 7.63599 0
M  V30 9312 H 857.572 1.0624 6.86832 0
M  V30 9313 H 860.763 0.427553 4.66143 0
M  V30 9314 H 860.936 0.84302 6.42493 0
M  V30 9315 N 854.342 -1.57594 -0.0133615 0
M  V30 9316 C 855.758 -1.5527 -0.369255 0
M  V30 9317 C 855.958 -0.987751 -1.7563 0
M  V30 9318 O 855.014 -0.615683 -2.44879 0
M  V30 9319 C 856.327 -2.99602 -0.25672 0
M  V30 9320 C 857.875 -3.11227 -0.332647 0
M  V30 9321 C 858.35 -4.57321 -0.249387 0
M  V30 9322 N 859.841 -4.62177 -0.3077 0
M  V30 9323 C 860.576 -5.72781 -0.26641 0
M  V30 9324 N 860.072 -6.92575 -0.176494 0
M  V30 9325 N 861.865 -5.61204 -0.317295 0
M  V30 9326 H 854.016 -1.92662 0.894154 0
M  V30 9327 H 856.279 -0.884352 0.341505 0
M  V30 9328 H 855.985 -3.44723 0.697072 0
M  V30 9329 H 855.859 -3.6246 -1.04415 0
M  V30 9330 H 858.246 -2.66045 -1.27688 0
M  V30 9331 H 858.327 -2.51171 0.484412 0
M  V30 9332 H 857.971 -5.03174 0.691242 0
M  V30 9333 H 857.901 -5.15306 -1.08476 0
M  V30 9334 H 860.392 -3.75994 -0.379069 0
M  V30 9335 H 860.705 -7.72653 -0.150518 0
M  V30 9336 H 859.05 -6.94854 -0.142314 0
M  V30 9337 H 862.241 -4.66509 -0.385643 0
M  V30 9338 H 862.414 -6.47388 -0.28165 0
M  V30 9339 N 855.82 0.285905 -1.54985 0
M  V30 9340 C 857.05 1.03626 -1.78732 0
M  V30 9341 C 857.458 1.80896 -0.554377 0
M  V30 9342 O 856.801 1.77161 0.48578 0
M  V30 9343 C 856.863 2.05185 -2.95193 0
M  V30 9344 C 856.527 1.46973 -4.32722 0
M  V30 9345 C 857.524 0.891986 -5.12191 0
M  V30 9346 C 855.209 1.50081 -4.79355 0
M  V30 9347 C 857.203 0.353078 -6.36421 0
M  V30 9348 C 854.89 0.958037 -6.03544 0
M  V30 9349 C 855.888 0.385157 -6.81913 0
M  V30 9350 O 855.576 -0.149341 -8.03761 0
M  V30 9351 H 855.308 0.312416 -0.599477 0
M  V30 9352 H 857.862 0.326067 -2.02795 0
M  V30 9353 H 856.092 2.79928 -2.66791 0
M  V30 9354 H 857.781 2.66244 -3.0638 0
M  V30 9355 H 858.547 0.860762 -4.77301 0
M  V30 9356 H 854.426 1.9361 -4.18373 0
M  V30 9357 H 857.97 -0.0947181 -6.97536 0
M  V30 9358 H 853.867 0.986458 -6.37918 0
M  V30 9359 H 854.635 -0.0374719 -8.18491 0
M  V30 9360 N 857.298 1.47698 0.54982 0
M  V30 9361 C 858.545 1.54702 1.30665 0
M  V30 9362 C 858.873 0.212418 1.93337 0
M  V30 9363 O 858.128 -0.79543 1.78805 0
M  V30 9364 C 858.427 2.61903 2.4319 0
M  V30 9365 C 858.093 4.04953 1.98302 0
M  V30 9366 C 856.755 4.43893 1.85776 0
M  V30 9367 C 859.107 4.94682 1.64133 0
M  V30 9368 C 856.435 5.70387 1.37388 0
M  V30 9369 C 858.787 6.21646 1.17214 0
M  V30 9370 C 857.451 6.5946 1.0329 0
M  V30 9371 H 856.721 0.566096 0.478139 0
M  V30 9372 H 859.368 1.8133 0.615767 0
M  V30 9373 H 857.673 2.2906 3.17866 0
M  V30 9374 H 859.37 2.64543 3.0136 0
M  V30 9375 H 855.96 3.74191 2.08995 0
M  V30 9376 H 860.144 4.65291 1.72679 0
M  V30 9377 H 855.4 5.98427 1.25278 0
M  V30 9378 H 859.574 6.90581 0.898391 0
M  V30 9379 H 857.201 7.57367 0.655735 0
M  V30 9380 N 858.776 -0.797141 1.35954 0
M  V30 9381 C 860.006 -1.5835 1.32698 0
M  V30 9382 C 860.414 -1.88959 -0.0955298 0
M  V30 9383 O 859.757 -1.49987 -1.06064 0
M  V30 9384 C 859.819 -2.93529 2.0756 0
M  V30 9385 C 859.483 -2.85688 3.56695 0
M  V30 9386 C 860.48 -2.58467 4.51099 0
M  V30 9387 C 858.165 -3.04508 3.99475 0
M  V30 9388 C 860.159 -2.50157 5.8626 0
M  V30 9389 C 857.846 -2.9582 5.34728 0
M  V30 9390 C 858.844 -2.68681 6.27933 0
M  V30 9391 O 858.532 -2.59973 7.60703 0
M  V30 9392 H 858.264 -0.49807 0.457059 0
M  V30 9393 H 860.818 -0.997889 1.79531 0
M  V30 9394 H 859.048 -3.54111 1.55378 0
M  V30 9395 H 860.737 -3.54744 1.9726 0
M  V30 9396 H 861.503 -2.43638 4.19363 0
M  V30 9397 H 857.382 -3.24641 3.27306 0
M  V30 9398 H 860.926 -2.28894 6.58979 0
M  V30 9399 H 856.823 -3.10211 5.66074 0
M  V30 9400 H 857.591 -2.75511 7.70737 0
M  V30 9401 N 860.254 -1.20106 -1.0204 0
M  V30 9402 C 861.184 -0.970301 -2.12385 0
M  V30 9403 C 862.165 0.099378 -1.69809 0
M  V30 9404 O 863.35 -0.057365 -1.94115 0
M  V30 9405 C 860.48 -0.517431 -3.43424 0
M  V30 9406 C 859.434 -1.52992 -3.99722 0
M  V30 9407 C 858.76 -0.933817 -5.26483 0
M  V30 9408 C 860.06 -2.91257 -4.33551 0
M  V30 9409 H 861.754 -1.89316 -2.31948 0
M  V30 9410 H 859.3 -0.911655 -1.11467 0
M  V30 9411 H 861.253 -0.343243 -4.2 0
M  V30 9412 H 859.977 0.441049 -3.23608 0
M  V30 9413 H 858.636 -1.6914 -3.2525 0
M  V30 9414 H 858.284 0.0324763 -5.0299 0
M  V30 9415 H 857.984 -1.60999 -5.65113 0
M  V30 9416 H 859.508 -0.770614 -6.05718 0
M  V30 9417 H 860.922 -2.78642 -5.0103 0
M  V30 9418 H 859.319 -3.55745 -4.83286 0
M  V30 9419 H 860.389 -3.43269 -3.42483 0
M  V30 9420 N 861.732 1.21287 -1.00634 0
M  V30 9421 C 862.979 1.90389 -0.6898 0
M  V30 9422 C 863.307 1.78193 0.779574 0
M  V30 9423 O 862.562 1.15358 1.58085 0
M  V30 9424 C 862.861 3.41374 -1.05824 0
M  V30 9425 C 862.527 3.73766 -2.5221 0
M  V30 9426 C 861.189 3.82317 -2.92211 0
M  V30 9427 C 863.541 3.88871 -3.47028 0
M  V30 9428 C 860.869 4.03423 -4.2599 0
M  V30 9429 C 863.221 4.11484 -4.80483 0
M  V30 9430 C 861.885 4.18263 -5.20204 0
M  V30 9431 H 861.155 0.696683 -0.252416 0
M  V30 9432 H 863.802 1.43769 -1.26502 0
M  V30 9433 H 862.107 3.8974 -0.401281 0
M  V30 9434 H 863.804 3.93118 -0.79116 0
M  V30 9435 H 860.394 3.67702 -2.20212 0
M  V30 9436 H 864.578 3.8163 -3.17289 0
M  V30 9437 H 859.834 4.06902 -4.56334 0
M  V30 9438 H 864.008 4.22115 -5.53888 0
M  V30 9439 H 861.635 4.34369 -6.23881 0
M  V30 9440 N 863.21 0.781244 1.36873 0
M  V30 9441 C 864.621 0.414093 1.8205 0
M  V30 9442 C 864.972 -1.06098 1.65039 0
M  V30 9443 O 864.097 -1.82251 1.16677 0
M  V30 9444 C 864.692 0.744837 3.30511 0
M  V30 9445 C 863.251 0.430621 3.73929 0
M  V30 9446 C 862.398 0.983746 2.59264 0
M  V30 9447 H 865.349 0.975091 1.2521 0
M  V30 9448 H 865.37 0.032936 3.80486 0
M  V30 9449 H 864.882 1.81847 3.42861 0
M  V30 9450 H 862.983 -0.635308 3.67144 0
M  V30 9451 H 863.096 0.945514 4.69677 0
M  V30 9452 H 861.46 0.407433 2.5142 0
M  V30 9453 H 862.243 2.06297 2.74402 0
M  V30 9454 N 864.689 -1.48329 0.532571 0
M  V30 9455 C 865.637 -2.31336 -0.242133 0
M  V30 9456 C 866.631 -1.41391 -0.933006 0
M  V30 9457 O 867.837 -1.58284 -0.857096 0
M  V30 9458 H 864.212 -0.745724 -0.0969536 0
M  V30 9459 H 866.183 -2.94555 0.477504 0
M  V30 9460 C 864.932 -3.23501 -1.27446 0
M  V30 9461 H 864.255 -3.92659 -0.752261 0
M  V30 9462 H 865.695 -3.84461 -1.78789 0
M  V30 9463 C 864.154 -2.45288 -2.30944 0
M  V30 9464 O 864.684 -2.17955 -3.37429 0
M  V30 9465 N 862.89 -2.06737 -2.04226 0
M  V30 9466 H 862.437 -2.29166 -1.17647 0
M  V30 9467 H 862.395 -1.54719 -2.73696 0
M  V30 9468 N 866.167 -0.267825 -1.55308 0
M  V30 9469 C 867.583 0.0865107 -1.59365 0
M  V30 9470 C 867.783 1.55205 -1.28505 0
M  V30 9471 O 866.839 2.29978 -1.04241 0
M  V30 9472 C 868.152 -0.28155 -2.99379 0
M  V30 9473 C 869.7 -0.227565 -3.12172 0
M  V30 9474 C 870.175 -0.569959 -4.5444 0
M  V30 9475 N 871.666 -0.521238 -4.60258 0
M  V30 9476 C 872.401 -0.759061 -5.68354 0
M  V30 9477 N 871.897 -1.06112 -6.84626 0
M  V30 9478 N 873.69 -0.688351 -5.57869 0
M  V30 9479 H 865.841 -1.22332 -1.73633 0
M  V30 9480 H 868.104 -0.493703 -0.809297 0
M  V30 9481 H 867.81 -1.3005 -3.26772 0
M  V30 9482 H 867.684 0.381192 -3.75269 0
M  V30 9483 H 870.071 0.782093 -2.84548 0
M  V30 9484 H 870.152 -0.924461 -2.38511 0
M  V30 9485 H 869.796 -1.57727 -4.82788 0
M  V30 9486 H 869.726 0.148646 -5.2639 0
M  V30 9487 H 872.217 -0.297359 -3.76728 0
M  V30 9488 H 872.53 -1.22945 -7.62958 0
M  V30 9489 H 870.875 -1.09881 -6.86259 0
M  V30 9490 H 874.066 -0.452268 -4.6591 0
M  V30 9491 H 874.239 -0.877081 -6.42037 0
M  V30 9492 N 867.645 1.57599 0.00500368 0
M  V30 9493 C 868.575 2.11143 0.99705 0
M  V30 9494 C 869.556 1.0194 1.3617 0
M  V30 9495 O 870.741 1.29596 1.44632 0
M  V30 9496 C 867.871 2.61062 2.2905 0
M  V30 9497 C 866.825 3.74745 2.0676 0
M  V30 9498 C 866.151 4.10961 3.42075 0
M  V30 9499 C 867.451 5.02222 1.43424 0
M  V30 9500 H 869.145 2.94281 0.551251 0
M  V30 9501 H 866.691 1.41565 0.263715 0
M  V30 9502 H 868.644 2.97146 2.98801 0
M  V30 9503 H 867.368 1.75038 2.75734 0
M  V30 9504 H 866.027 3.39047 1.39436 0
M  V30 9505 H 865.675 3.21968 3.86453 0
M  V30 9506 H 865.375 4.87549 3.27979 0
M  V30 9507 H 866.899 4.49599 4.1315 0
M  V30 9508 H 868.313 5.36109 2.03125 0
M  V30 9509 H 866.71 5.83581 1.39831 0
M  V30 9510 H 867.78 4.83224 0.40285 0
M  V30 9511 N 869.123 -0.277682 1.55134 0
M  V30 9512 C 870.033 -1.36524 1.90783 0
M  V30 9513 C 871.049 -1.54283 0.804542 0
M  V30 9514 O 872.225 -1.68499 1.10318 0
M  V30 9515 C 869.29 -2.70524 2.16835 0
M  V30 9516 C 868.351 -2.61552 3.40424 0
M  V30 9517 C 867.584 -3.89162 3.65224 0
M  V30 9518 O 867.807 -4.89624 2.92616 0
M  V30 9519 O 866.741 -3.89647 4.58758 0
M  V30 9520 H 870.567 -1.0929 2.83354 0
M  V30 9521 H 868.152 -0.475799 1.41621 0
M  V30 9522 H 870.034 -3.49765 2.35038 0
M  V30 9523 H 868.709 -2.97555 1.27448 0
M  V30 9524 H 867.616 -1.80704 3.27562 0
M  V30 9525 H 868.949 -2.39472 4.30016 0
M  V30 9526 N 870.601 -1.47988 -0.541979 0
M  V30 9527 C 871.847 -1.56604 -1.29795 0
M  V30 9528 C 872.202 -0.231728 -1.90999 0
M  V30 9529 O 871.495 0.764203 -1.757 0
M  V30 9530 C 871.689 -2.63189 -2.41798 0
M  V30 9531 C 871.518 -4.06855 -1.9157 0
M  V30 9532 C 870.288 -4.74132 -1.74719 0
M  V30 9533 C 872.486 -4.934 -1.45123 0
M  V30 9534 N 870.468 -6.02258 -1.18991 0
M  V30 9535 C 871.839 -6.11675 -1.01263 0
M  V30 9536 C 873.894 -4.7972 -1.33315 0
M  V30 9537 C 872.597 -7.17778 -0.467663 0
M  V30 9538 C 874.623 -5.85934 -0.802192 0
M  V30 9539 C 873.985 -7.03409 -0.373595 0
M  V30 9540 H 870.084 -0.627677 -0.466418 0
M  V30 9541 H 872.668 -1.84812 -0.612576 0
M  V30 9542 H 870.839 -2.36823 -3.07846 0
M  V30 9543 H 872.571 -2.6156 -3.08818 0
M  V30 9544 H 869.326 -4.30276 -1.97887 0
M  V30 9545 H 869.75 -6.70558 -0.931715 0
M  V30 9546 H 874.392 -3.89249 -1.6506 0
M  V30 9547 H 872.11 -8.07982 -0.137874 0
M  V30 9548 H 875.696 -5.774 -0.714171 0
M  V30 9549 H 874.576 -7.84194 0.0308796 0
M  V30 9550 N 872.079 0.78992 -1.36375 0
M  V30 9551 C 873.495 1.0879 -1.16777 0
M  V30 9552 C 873.695 2.01498 0.00848236 0
M  V30 9553 O 872.751 2.43338 0.674007 0
M  V30 9554 C 874.064 1.70285 -2.47837 0
M  V30 9555 C 875.612 1.82629 -2.54196 0
M  V30 9556 C 876.087 2.47539 -3.85342 0
M  V30 9557 N 877.578 2.55008 -3.86685 0
M  V30 9558 C 878.313 3.06041 -4.84898 0
M  V30 9559 N 877.809 3.57385 -5.93505 0
M  V30 9560 N 879.602 3.04748 -4.72319 0
M  V30 9561 H 871.753 0.173985 -2.11686 0
M  V30 9562 H 874.016 0.139798 -0.937636 0
M  V30 9563 H 873.722 1.09633 -3.34176 0
M  V30 9564 H 873.596 2.69799 -2.63607 0
M  V30 9565 H 875.983 2.42419 -1.68276 0
M  V30 9566 H 876.064 0.81923 -2.42327 0
M  V30 9567 H 875.708 1.88393 -4.71668 0
M  V30 9568 H 875.638 3.48815 -3.94507 0
M  V30 9569 H 878.129 2.18651 -3.08221 0
M  V30 9570 H 878.442 3.94674 -6.64419 0
M  V30 9571 H 876.787 3.55538 -5.97175 0
M  V30 9572 H 879.978 2.63925 -3.86602 0
M  V30 9573 H 880.151 3.44212 -5.49019 0
M  V30 9574 N 873.557 1.20646 1.01402 0
M  V30 9575 C 874.805 1.01618 1.74695 0
M  V30 9576 C 875.126 -0.452438 1.89679 0
M  V30 9577 O 874.396 -1.32693 1.44116 0
M  V30 9578 H 872.976 0.373013 0.647202 0
M  V30 9579 H 875.638 1.518 1.22241 0
M  V30 9580 H 874.734 1.47666 2.74957 0
M  V30 9581 N 875.035 -1.20752 1.01276 0
M  V30 9582 C 875.945 -2.27079 0.589277 0
M  V30 9583 C 876.961 -1.6999 -0.371389 0
M  V30 9584 O 878.137 -2.00044 -0.233294 0
M  V30 9585 C 875.202 -3.4663 -0.0696715 0
M  V30 9586 C 874.263 -4.18962 0.936454 0
M  V30 9587 C 873.496 -5.32806 0.308856 0
M  V30 9588 O 873.719 -5.63376 -0.8924 0
M  V30 9589 O 872.653 -5.93131 1.02367 0
M  V30 9590 H 876.479 -2.6551 1.47438 0
M  V30 9591 H 874.064 -1.27297 0.782045 0
M  V30 9592 H 875.946 -4.19119 -0.437873 0
M  V30 9593 H 874.621 -3.10082 -0.929029 0
M  V30 9594 H 873.528 -3.48661 1.35595 0
M  V30 9595 H 874.861 -4.59441 1.76565 0
M  V30 9596 N 876.513 -0.788492 -1.36457 0
M  V30 9597 C 877.761 -0.359749 -1.98872 0
M  V30 9598 C 878.082 1.07197 -1.62892 0
M  V30 9599 O 877.352 1.73875 -0.902463 0
M  V30 9600 H 875.932 -0.130029 -0.735596 0
M  V30 9601 H 878.594 -1.01033 -1.66668 0
M  V30 9602 H 877.69 -0.450835 -3.08827 0
M  V30 9603 N 877.991 1.48044 -0.54043 0
M  V30 9604 C 878.901 2.33565 0.220163 0
M  V30 9605 C 879.917 1.47146 0.928659 0
M  V30 9606 O 881.093 1.80107 0.901295 0
M  V30 9607 C 878.158 3.2349 1.2472 0
M  V30 9608 C 877.219 4.25789 0.547938 0
M  V30 9609 C 876.452 5.11417 1.52605 0
M  V30 9610 O 876.675 4.99204 2.75956 0
M  V30 9611 O 875.609 5.92498 1.05972 0
M  V30 9612 H 879.435 2.99868 -0.480898 0
M  V30 9613 H 877.02 1.46332 -0.301226 0
M  V30 9614 H 878.902 3.79084 1.84047 0
M  V30 9615 H 877.577 2.59835 1.93048 0
M  V30 9616 H 876.484 3.74001 -0.0860941 0
M  V30 9617 H 877.817 4.92111 -0.0935896 0
M  V30 9618 N 879.47 0.276058 1.55163 0
M  V30 9619 C 880.695 -0.346648 2.04483 0
M  V30 9620 C 881.12 -1.48613 1.15308 0
M  V30 9621 O 880.478 -1.80663 0.151875 0
M  V30 9622 C 880.526 -0.804268 3.51517 0
M  V30 9623 O 879.63 -1.91143 3.65429 0
M  V30 9624 H 878.971 -0.0715251 0.660136 0
M  V30 9625 H 881.501 0.410631 2.00437 0
M  V30 9626 H 881.511 -1.09977 3.92898 0
M  V30 9627 H 880.186 0.0294123 4.1589 0
M  V30 9628 H 878.763 -1.61839 3.3595 0
M  V30 9629 N 880.948 -1.576 0.00335426 0
M  V30 9630 C 882.364 -1.55653 -0.352766 0
M  V30 9631 C 882.564 -1.00632 -1.74572 0
M  V30 9632 O 881.62 -0.641621 -2.44212 0
M  V30 9633 C 882.933 -2.99858 -0.224929 0
M  V30 9634 C 884.481 -3.11563 -0.299619 0
M  V30 9635 C 884.956 -4.57559 -0.200868 0
M  V30 9636 N 886.447 -4.62477 -0.258663 0
M  V30 9637 C 887.182 -5.73031 -0.205644 0
M  V30 9638 N 886.678 -6.92723 -0.103027 0
M  V30 9639 N 888.471 -5.61509 -0.257754 0
M  V30 9640 H 880.622 -1.91703 0.914539 0
M  V30 9641 H 882.885 -0.88068 0.350865 0
M  V30 9642 H 882.591 -3.43964 0.733595 0
M  V30 9643 H 882.465 -3.63547 -1.00564 0
M  V30 9644 H 884.852 -2.67384 -1.24859 0
M  V30 9645 H 884.933 -2.50644 0.511025 0
M  V30 9646 H 884.577 -5.02413 0.744572 0
M  V30 9647 H 884.507 -5.16428 -1.03004 0
M  V30 9648 H 886.998 -3.76375 -0.339168 0
M  V30 9649 H 887.311 -7.7277 -0.0685593 0
M  V30 9650 H 885.656 -6.94966 -0.0686069 0
M  V30 9651 H 888.847 -4.66892 -0.336142 0
M  V30 9652 H 889.02 -6.4765 -0.21297 0
M  V30 9653 N 882.426 0.269451 -1.5528 0
M  V30 9654 C 883.358 1.35553 -1.84819 0
M  V30 9655 C 884.371 1.45369 -0.732914 0
M  V30 9656 O 885.56 1.47122 -1.0108 0
M  V30 9657 C 882.66 2.73645 -1.9993 0
M  V30 9658 C 881.833 2.86376 -3.30617 0
M  V30 9659 C 880.892 4.05165 -3.35749 0
M  V30 9660 O 879.918 3.95756 -4.09104 0
M  V30 9661 N 881.12 5.17297 -2.63408 0
M  V30 9662 H 883.885 1.10557 -2.78563 0
M  V30 9663 H 881.446 0.459566 -1.5524 0
M  V30 9664 H 883.438 3.51411 -2.00729 0
M  V30 9665 H 882.008 2.91448 -1.13035 0
M  V30 9666 H 881.228 1.95465 -3.42326 0
M  V30 9667 H 882.516 2.91815 -4.16799 0
M  V30 9668 H 881.914 5.2783 -2.03501 0
M  V30 9669 H 880.471 5.93281 -2.69927 0
M  V30 9670 N 883.904 1.48273 0.534124 0
M  V30 9671 C 884.852 1.62926 1.66005 0
M  V30 9672 C 885.846 0.495814 1.61982 0
M  V30 9673 O 887.052 0.6744 1.66889 0
M  V30 9674 H 883.427 0.513163 0.549698 0
M  V30 9675 H 885.398 2.57498 1.50789 0
M  V30 9676 C 884.147 1.68231 3.04292 0
M  V30 9677 H 883.47 2.54807 3.0808 0
M  V30 9678 H 884.91 1.82528 3.827 0
M  V30 9679 C 883.369 0.420154 3.3427 0
M  V30 9680 O 883.899 -0.468769 3.98955 0
M  V30 9681 N 882.105 0.293115 2.89118 0
M  V30 9682 H 881.652 1.01745 2.36655 0
M  V30 9683 H 881.61 -0.550376 3.09545 0
M  V30 9684 N 885.382 -0.782676 1.36792 0
M  V30 9685 C 886.312 -1.90973 1.34356 0
M  V30 9686 C 887.293 -1.6875 0.213917 0
M  V30 9687 O 888.478 -1.89766 0.412601 0
M  V30 9688 C 885.608 -3.28097 1.13884 0
M  V30 9689 C 884.562 -3.6486 2.23744 0
M  V30 9690 C 883.888 -5.00406 1.88408 0
M  V30 9691 C 885.188 -3.72742 3.6587 0
M  V30 9692 H 886.882 -1.93268 2.28665 0
M  V30 9693 H 884.428 -0.928447 1.10072 0
M  V30 9694 H 886.381 -4.06569 1.10813 0
M  V30 9695 H 885.105 -3.26206 0.160275 0
M  V30 9696 H 883.764 -2.88689 2.25952 0
M  V30 9697 H 883.412 -4.95044 0.891083 0
M  V30 9698 H 883.112 -5.25973 2.61966 0
M  V30 9699 H 884.636 -5.81291 1.86905 0
M  V30 9700 H 886.05 -4.4139 3.65852 0
M  V30 9701 H 884.447 -4.09798 4.38389 0
M  V30 9702 H 885.517 -2.73676 4.00287 0
M  V30 9703 N 886.86 -1.21182 -1.00761 0
M  V30 9704 C 887.79 -0.992773 -2.11344 0
M  V30 9705 C 888.771 0.0813618 -1.69905 0
M  V30 9706 O 889.956 -0.0779503 -1.94043 0
M  V30 9707 C 887.086 -0.553826 -3.42856 0
M  V30 9708 C 886.04 -1.57223 -3.98077 0
M  V30 9709 C 885.366 -0.989605 -5.25463 0
M  V30 9710 C 886.666 -2.95839 -4.30438 0
M  V30 9711 H 888.36 -1.91766 -2.29927 0
M  V30 9712 H 885.906 -0.923426 -1.10494 0
M  V30 9713 H 887.859 -0.387771 -4.19612 0
M  V30 9714 H 886.583 0.406702 -3.24058 0
M  V30 9715 H 885.242 -1.7258 -3.23437 0
M  V30 9716 H 884.89 -0.0208743 -5.02996 0
M  V30 9717 H 884.59 -1.66984 -5.63374 0
M  V30 9718 H 886.114 -0.834815 -6.04866 0
M  V30 9719 H 887.528 -2.8394 -4.98047 0
M  V30 9720 H 885.925 -3.60851 -4.79486 0
M  V30 9721 H 886.995 -3.46882 -3.38823 0
M  V30 9722 N 888.338 1.20213 -1.01915 0
M  V30 9723 C 889.566 1.93622 -0.729255 0
M  V30 9724 C 889.981 1.74923 0.710444 0
M  V30 9725 O 889.338 1.06484 1.48214 0
M  V30 9726 C 889.389 3.45651 -1.05865 0
M  V30 9727 O 889.11 3.63741 -2.44181 0
M  V30 9728 C 890.611 4.36201 -0.790176 0
M  V30 9729 H 887.831 0.615333 -0.267594 0
M  V30 9730 H 890.375 1.52633 -1.36101 0
M  V30 9731 H 888.53 3.84511 -0.47225 0
M  V30 9732 H 888.944 4.57702 -2.56143 0
M  V30 9733 H 890.418 5.41516 -1.07071 0
M  V30 9734 H 890.895 4.38334 0.275609 0
M  V30 9735 H 891.501 4.03008 -1.35885 0
M  V30 9736 N 889.816 0.795718 1.36037 0
M  V30 9737 C 890.749 0.144269 2.27744 0
M  V30 9738 C 891.727 -0.683351 1.47543 0
M  V30 9739 O 892.911 -0.652976 1.76829 0
M  V30 9740 C 890.038 -0.800944 3.29094 0
M  V30 9741 C 889.084 -0.0543234 4.26465 0
M  V30 9742 S 889.917 1.27426 5.20118 0
M  V30 9743 C 891.073 0.333213 6.25012 0
M  V30 9744 H 891.306 0.921827 2.82648 0
M  V30 9745 H 888.839 0.590241 1.42673 0
M  V30 9746 H 890.797 -1.34082 3.87985 0
M  V30 9747 H 889.458 -1.5518 2.7309 0
M  V30 9748 H 888.651 -0.771788 4.98056 0
M  V30 9749 H 888.253 0.415264 3.71687 0
M  V30 9750 H 890.545 -0.485604 6.75757 0
M  V30 9751 H 891.488 1.01798 7.00744 0
M  V30 9752 H 891.896 -0.066256 5.64461 0
M  V30 9753 N 891.294 -1.47756 0.548274 0
M  V30 9754 C 892.204 -2.33678 -0.207773 0
M  V30 9755 C 893.22 -1.47636 -0.920843 0
M  V30 9756 O 894.396 -1.80583 -0.89173 0
M  V30 9757 C 891.461 -3.24147 -1.23003 0
M  V30 9758 C 890.522 -4.26073 -0.52535 0
M  V30 9759 C 889.755 -5.12219 -1.4989 0
M  V30 9760 O 889.978 -5.0066 -2.73305 0
M  V30 9761 O 888.912 -5.93051 -1.02828 0
M  V30 9762 H 892.738 -2.99609 0.496794 0
M  V30 9763 H 890.323 -1.4617 0.308982 0
M  V30 9764 H 892.205 -3.80055 -1.82034 0
M  V30 9765 H 890.88 -2.60855 -1.91668 0
M  V30 9766 H 889.787 -3.7395 0.105927 0
M  V30 9767 H 891.12 -4.92054 0.119686 0
M  V30 9768 N 892.772 -0.284283 -1.55015 0
M  V30 9769 C 893.704 0.63258 -2.20298 0
M  V30 9770 C 894.717 1.11045 -1.1905 0
M  V30 9771 O 895.906 1.03078 -1.4573 0
M  V30 9772 C 893.006 1.87599 -2.82241 0
M  V30 9773 C 892.179 1.5434 -4.09265 0
M  V30 9774 C 891.238 2.64023 -4.55169 0
M  V30 9775 O 890.264 2.29821 -5.20741 0
M  V30 9776 N 891.466 3.94255 -4.26079 0
M  V30 9777 H 894.231 0.0737928 -2.99609 0
M  V30 9778 H 891.792 -0.105767 -1.61554 0
M  V30 9779 H 893.784 2.60289 -3.0989 0
M  V30 9780 H 892.354 2.3436 -2.06868 0
M  V30 9781 H 891.574 0.649912 -3.88806 0
M  V30 9782 H 892.862 1.29634 -4.92009 0
M  V30 9783 H 892.26 4.24859 -3.73512 0
M  V30 9784 H 890.817 4.63295 -4.58477 0
M  V30 9785 N 894.251 1.57596 -0.0117121 0
M  V30 9786 C 895.5 1.9025 0.669921 0
M  V30 9787 C 895.813 0.887986 1.74282 0
M  V30 9788 O 897.019 1.10516 2.47989 0
M  V30 9789 C 895.475 3.37762 1.24277 0
M  V30 9790 C 895.083 4.47535 0.204076 0
M  V30 9791 C 896.827 3.79509 1.90192 0
M  V30 9792 C 894.734 5.86132 0.787577 0
M  V30 9793 H 893.664 0.709935 0.253984 0
M  V30 9794 H 896.315 1.8335 -0.0741718 0
M  V30 9795 H 894.697 3.39537 2.03791 0
M  V30 9796 H 895.871 4.57294 -0.56733 0
M  V30 9797 H 894.186 4.14881 -0.355305 0
M  V30 9798 H 896.783 4.80402 2.34773 0
M  V30 9799 H 897.126 3.13643 2.7374 0
M  V30 9800 H 897.659 3.80084 1.17394 0
M  V30 9801 H 894.398 6.55499 -0.00938418 0
M  V30 9802 H 893.918 5.80014 1.52787 0
M  V30 9803 H 895.597 6.34158 1.28265 0
M  V30 9804 N 895.729 -0.261212 1.5542 0
M  V30 9805 C 896.659 -1.32712 1.92119 0
M  V30 9806 C 897.64 -1.50934 0.784406 0
M  V30 9807 O 898.825 -1.63781 1.04352 0
M  V30 9808 C 895.955 -2.68453 2.20341 0
M  V30 9809 C 894.909 -2.64947 3.36136 0
M  V30 9810 C 894.235 -4.04349 3.49865 0
M  V30 9811 C 895.535 -2.23182 4.72215 0
M  V30 9812 H 897.229 -1.02245 2.81401 0
M  V30 9813 H 894.775 -0.490406 1.35392 0
M  V30 9814 H 896.728 -3.43144 2.44603 0
M  V30 9815 H 895.452 -3.00527 1.27871 0
M  V30 9816 H 894.111 -1.92714 3.11861 0
M  V30 9817 H 893.759 -4.33665 2.5484 0
M  V30 9818 H 893.459 -4.02895 4.27726 0
M  V30 9819 H 894.983 -4.80761 3.76432 0
M  V30 9820 H 896.397 -2.87599 4.95943 0
M  V30 9821 H 894.794 -2.32867 5.53076 0
M  V30 9822 H 895.864 -1.18327 4.70241 0
M  V30 9823 N 897.207 -1.48554 -0.526253 0
M  V30 9824 C 898.432 -1.60686 -1.31129 0
M  V30 9825 C 898.857 -0.268701 -1.86171 0
M  V30 9826 O 898.215 0.760167 -1.64594 0
M  V30 9827 C 898.263 -2.65938 -2.43536 0
M  V30 9828 O 897.367 -2.23356 -3.46678 0
M  V30 9829 H 896.708 -0.538691 -0.388211 0
M  V30 9830 H 899.238 -1.94567 -0.632826 0
M  V30 9831 H 899.248 -2.87327 -2.89668 0
M  V30 9832 H 897.923 -3.63085 -2.02835 0
M  V30 9833 H 896.5 -2.12196 -3.06639 0
M  V30 9834 N 898.685 0.775411 -1.37205 0
M  V30 9835 C 899.931 1.53611 -1.32407 0
M  V30 9836 C 900.264 1.9398 0.0924103 0
M  V30 9837 O 899.539 1.63791 1.04893 0
M  V30 9838 C 899.822 2.80367 -2.25979 0
M  V30 9839 C 899.675 2.46275 -3.76389 0
M  V30 9840 C 900.994 3.82277 -2.18064 0
M  V30 9841 H 898.113 0.557278 -0.482297 0
M  V30 9842 H 900.755 0.889826 -1.67875 0
M  V30 9843 H 898.905 3.35515 -1.95862 0
M  V30 9844 H 900.577 1.9707 -4.17087 0
M  V30 9845 H 898.82 1.79023 -3.95137 0
M  V30 9846 H 899.491 3.36868 -4.37291 0
M  V30 9847 H 901.967 3.36613 -2.44604 0
M  V30 9848 H 900.843 4.68696 -2.85684 0
M  V30 9849 H 901.104 4.26272 -1.17239 0
M  V30 9850 N 900.163 1.21714 1.00117 0
M  V30 9851 C 901.073 0.99597 2.12409 0
M  V30 9852 C 902.089 -0.0531431 1.73919 0
M  V30 9853 O 903.265 0.137757 2.00928 0
M  V30 9854 C 900.33 0.567593 3.42022 0
M  V30 9855 C 899.391 1.68936 3.94663 0
M  V30 9856 C 898.624 1.28133 5.1809 0
M  V30 9857 O 898.847 0.156574 5.70185 0
M  V30 9858 O 897.781 2.0947 5.64275 0
M  V30 9859 H 901.607 1.93657 2.33946 0
M  V30 9860 H 899.192 1.00236 1.10784 0
M  V30 9861 H 901.074 0.338664 4.20037 0
M  V30 9862 H 899.749 -0.34424 3.21864 0
M  V30 9863 H 898.656 1.97274 3.17858 0
M  V30 9864 H 899.989 2.57876 4.19238 0
M  V30 9865 N 901.641 -1.19671 1.02551 0
M  V30 9866 C 902.551 -2.26441 0.613329 0
M  V30 9867 C 903.567 -1.70375 -0.353339 0
M  V30 9868 O 904.743 -2.0028 -0.212064 0
M  V30 9869 C 901.808 -3.46684 -0.0329028 0
M  V30 9870 C 900.869 -4.17945 0.980837 0
M  V30 9871 C 900.102 -5.32448 0.36535 0
M  V30 9872 O 900.325 -5.64291 -0.832596 0
M  V30 9873 O 899.259 -5.92012 1.08652 0
M  V30 9874 H 903.085 -2.63932 1.50246 0
M  V30 9875 H 900.67 -1.2646 0.795502 0
M  V30 9876 H 902.552 -4.1956 -0.393395 0
M  V30 9877 H 901.227 -3.1105 -0.896089 0
M  V30 9878 H 900.134 -3.47204 1.39286 0
M  V30 9879 H 901.467 -4.57542 1.81428 0
M  V30 9880 N 903.119 -0.802921 -1.35613 0
M  V30 9881 C 904.347 -0.39393 -2.03115 0
M  V30 9882 C 904.762 0.993961 -1.60517 0
M  V30 9883 O 904.119 1.63984 -0.800973 0
M  V30 9884 C 904.17 -0.463486 -3.58516 0
M  V30 9885 O 903.891 -1.79666 -3.99565 0
M  V30 9886 C 905.392 -0.0468377 -4.43275 0
M  V30 9887 H 902.612 -0.160519 -0.651517 0
M  V30 9888 H 905.156 -1.08552 -1.73311 0
M  V30 9889 H 903.311 0.179821 -3.86982 0
M  V30 9890 H 903.725 -1.75688 -4.942 0
M  V30 9891 H 905.199 -0.146626 -5.51805 0
M  V30 9892 H 905.676 1.00741 -4.2749 0
M  V30 9893 H 906.282 -0.663158 -4.20098 0
M  V30 9894 N 904.597 1.47463 -0.556102 0
M  V30 9895 C 905.529 2.28046 0.22968 0
M  V30 9896 C 906.542 1.3694 0.880409 0
M  V30 9897 O 907.731 1.61773 0.754447 0
M  V30 9898 C 904.831 3.11165 1.34273 0
M  V30 9899 C 904.004 4.30225 0.789004 0
M  V30 9900 C 903.063 4.94948 1.78641 0
M  V30 9901 O 902.089 5.53372 1.33297 0
M  V30 9902 N 903.291 4.89543 3.11974 0
M  V30 9903 H 906.056 2.96125 -0.461558 0
M  V30 9904 H 903.617 1.5708 -0.392105 0
M  V30 9905 H 905.609 3.51331 2.00869 0
M  V30 9906 H 904.179 2.45337 1.93722 0
M  V30 9907 H 903.399 3.94163 -0.0536971 0
M  V30 9908 H 904.687 5.07238 0.398378 0
M  V30 9909 H 904.085 4.43275 3.51459 0
M  V30 9910 H 902.642 5.33732 3.74131 0
M  V30 9911 N 906.075 0.2925 1.54862 0
M  V30 9912 C 907.324 -0.319994 1.99146 0
M  V30 9913 C 907.637 -1.55658 1.18448 0
M  V30 9914 O 908.843 -2.24312 1.52959 0
M  V30 9915 C 907.299 -0.620665 3.54508 0
M  V30 9916 C 906.907 0.597098 4.44003 0
M  V30 9917 C 908.651 -1.19482 4.07338 0
M  V30 9918 C 906.558 0.270049 5.90783 0
M  V30 9919 H 905.488 -0.123342 0.743843 0
M  V30 9920 H 908.139 0.399876 1.7909 0
M  V30 9921 H 906.521 -1.3999 3.7043 0
M  V30 9922 H 907.695 1.37354 4.39853 0
M  V30 9923 H 906.01 1.0893 4.019 0
M  V30 9924 H 908.607 -1.45362 5.14562 0
M  V30 9925 H 908.95 -2.13435 3.57423 0
M  V30 9926 H 909.483 -0.477485 3.94924 0
M  V30 9927 H 906.222 1.17791 6.4483 0
M  V30 9928 H 905.742 -0.469292 5.97961 0
M  V30 9929 H 907.421 -0.131471 6.46866 0
M  V30 9930 N 907.553 -1.57587 0.0200696 0
M  V30 9931 C 908.5 -2.09667 -0.964791 0
M  V30 9932 C 909.47 -0.99664 -1.32877 0
M  V30 9933 O 910.655 -1.2703 -1.42366 0
M  V30 9934 C 907.795 -2.62101 -2.24493 0
M  V30 9935 C 906.908 -3.8608 -1.93821 0
M  V30 9936 C 906.043 -4.26939 -3.16064 0
M  V30 9937 C 905.082 -5.43701 -2.81169 0
M  V30 9938 N 904.219 -5.79759 -3.9601 0
M  V30 9939 H 909.059 -2.93538 -0.513751 0
M  V30 9940 H 906.596 -1.45096 -0.242 0
M  V30 9941 H 908.554 -2.90587 -2.99358 0
M  V30 9942 H 907.184 -1.81074 -2.6723 0
M  V30 9943 H 906.236 -3.64378 -1.09237 0
M  V30 9944 H 907.548 -4.71028 -1.64115 0
M  V30 9945 H 906.702 -4.56814 -3.99257 0
M  V30 9946 H 905.441 -3.40739 -3.48924 0
M  V30 9947 H 904.446 -5.13529 -1.96387 0
M  V30 9948 H 905.671 -6.31593 -2.49535 0
M  V30 9949 H 903.617 -4.96516 -4.28729 0
M  V30 9950 H 903.534 -6.59327 -3.69896 0
M  V30 9951 H 904.802 -6.14235 -4.79933 0
M  V30 9952 N 909.032 0.252966 -1.55557 0
M  V30 9953 C 910.309 1.00432 -1.67847 0
M  V30 9954 C 910.689 2.03587 -0.55816 0
M  V30 9955 O 910.037 2.24239 0.439197 0
M  V30 9956 C 910.247 1.64313 -3.079 0
M  V30 9957 C 911.595 2.14726 -3.66303 0
M  V30 9958 O 912.619 1.74264 -3.10661 0
M  V30 9959 O 911.478 2.89 -4.63833 0
M  V30 9960 H 908.572 0.467102 -0.682455 0
M  V30 9961 H 911.118 0.247233 -1.67889 0
M  V30 9962 H 909.89 0.896681 -3.80888 0
M  V30 9963 H 909.513 2.46657 -3.11843 0
M  V30 9964 N 910.51 1.48831 0.518367 0
M  V30 9965 C 911.457 1.64216 1.62178 0
M  V30 9966 C 912.427 0.483942 1.58894 0
M  V30 9967 O 913.612 0.708857 1.77144 0
M  V30 9968 C 910.752 1.69867 3.00399 0
M  V30 9969 C 909.865 2.96875 3.1383 0
M  V30 9970 C 909 2.93613 4.42679 0
M  V30 9971 C 908.039 4.15276 4.4968 0
M  V30 9972 N 907.176 4.10024 5.69934 0
M  V30 9973 H 912.016 2.58439 1.48368 0
M  V30 9974 H 909.553 1.28154 0.722152 0
M  V30 9975 H 911.511 1.71124 3.8049 0
M  V30 9976 H 910.141 0.791249 3.12952 0
M  V30 9977 H 909.193 3.0531 2.26914 0
M  V30 9978 H 910.505 3.86863 3.14863 0
M  V30 9979 H 909.659 2.93337 5.31073 0
M  V30 9980 H 908.398 2.01375 4.44184 0
M  V30 9981 H 907.403 4.15816 3.59691 0
M  V30 9982 H 908.628 5.08687 4.49904 0
M  V30 9983 H 906.574 3.20613 5.72314 0
M  V30 9984 H 906.491 4.93728 5.72511 0
M  V30 9985 H 907.759 4.13824 6.60583 0
M  V30 9986 N 911.988 -0.768124 1.37614 0
M  V30 9987 C 912.935 -1.88151 1.33671 0
M  V30 9988 C 913.905 -1.64871 0.201645 0
M  V30 9989 O 915.09 -1.86739 0.391582 0
M  V30 9990 C 912.23 -3.25264 1.15314 0
M  V30 9991 C 911.343 -3.60473 2.38082 0
M  V30 9992 C 910.478 -4.86814 2.12569 0
M  V30 9993 C 909.517 -5.14765 3.31184 0
M  V30 9994 N 908.654 -6.32295 3.052 0
M  V30 9995 H 913.494 -1.90857 2.28862 0
M  V30 9996 H 911.031 -0.933048 1.13722 0
M  V30 9997 H 912.989 -4.04364 1.02691 0
M  V30 9998 H 911.619 -3.21924 0.237689 0
M  V30 9999 H 910.671 -2.7633 2.61431 0
M  V30 10000 H 911.983 -3.77065 3.26532 0
M  V30 10001 H 911.137 -5.73826 1.96999 0
M  V30 10002 H 909.876 -4.72333 1.21462 0
M  V30 10003 H 908.881 -4.26227 3.4729 0
M  V30 10004 H 910.106 -5.31153 4.23147 0
M  V30 10005 H 908.052 -6.19166 2.16726 0
M  V30 10006 H 907.969 -6.4932 3.87195 0
M  V30 10007 H 909.237 -7.22234 2.93254 0
M  V30 10008 N 913.466 -1.22244 -0.994698 0
M  V30 10009 C 914.706 -1.05747 -1.7492 0
M  V30 10010 C 915.07 0.4007 -1.87772 0
M  V30 10011 O 916.271 0.686469 -2.59887 0
M  V30 10012 C 914.542 -1.7471 -3.11787 0
M  V30 10013 S 916.101 -1.73604 -4.02998 0
M  V30 10014 H 912.919 -0.378731 -0.601734 0
M  V30 10015 H 915.521 -1.55155 -1.18942 0
M  V30 10016 H 914.225 -2.79972 -3.00073 0
M  V30 10017 H 913.756 -1.25525 -3.72836 0
M  V30 10018 H 915.771 -0.784445 -4.8996 0
M  V30 10019 N 914.944 1.19125 -1.03184 0
M  V30 10020 C 916.193 1.8821 -0.725264 0
M  V30 10021 C 916.506 1.80674 0.749411 0
M  V30 10022 O 917.712 2.45037 1.16915 0
M  V30 10023 C 916.168 3.37607 -1.24697 0
M  V30 10024 C 915.776 3.53693 -2.74964 0
M  V30 10025 C 917.52 4.12149 -1.01652 0
M  V30 10026 C 915.427 4.97001 -3.20538 0
M  V30 10027 H 914.357 0.704916 -0.267599 0
M  V30 10028 H 917.008 1.34663 -1.24652 0
M  V30 10029 H 915.39 3.90569 -0.653614 0
M  V30 10030 H 916.564 3.11046 -3.39981 0
M  V30 10031 H 914.879 2.92544 -2.96322 0
M  V30 10032 H 917.476 5.17837 -1.33226 0
M  V30 10033 H 917.819 4.16274 0.0465712 0
M  V30 10034 H 918.352 3.65334 -1.57403 0
M  V30 10035 H 915.091 4.9804 -4.26189 0
M  V30 10036 H 914.611 5.40398 -2.60251 0
M  V30 10037 H 916.29 5.65669 -3.14049 0
M  V30 10038 N 916.422 0.810101 1.35185 0
M  V30 10039 C 917.352 0.237453 2.32289 0
M  V30 10040 C 918.333 -0.639032 1.5764 0
M  V30 10041 O 919.518 -0.568575 1.8569 0
M  V30 10042 C 916.648 -0.611964 3.41866 0
M  V30 10043 C 915.602 0.166318 4.27677 0
M  V30 10044 C 914.928 -0.805024 5.28605 0
M  V30 10045 C 916.228 1.36729 5.04086 0
M  V30 10046 H 917.922 1.04874 2.80432 0
M  V30 10047 H 915.468 0.505751 1.34826 0
M  V30 10048 H 917.421 -1.02267 4.08802 0
M  V30 10049 H 916.145 -1.45617 2.92341 0
M  V30 10050 H 914.804 0.558238 3.62325 0
M  V30 10051 H 914.452 -1.64483 4.75347 0
M  V30 10052 H 914.152 -0.288577 5.86891 0
M  V30 10053 H 915.676 -1.21386 5.98413 0
M  V30 10054 H 917.09 1.03128 5.63948 0
M  V30 10055 H 915.487 1.81848 5.71884 0
M  V30 10056 H 916.557 2.15214 4.34524 0
M  V30 10057 N 917.9 -1.47166 0.563914 0
M  V30 10058 C 919.147 -2.02456 0.042371 0
M  V30 10059 C 919.475 -1.43753 -1.31016 0
M  V30 10060 O 918.73 -0.585287 -1.86743 0
M  V30 10061 C 919.029 -3.57279 -0.0931797 0
M  V30 10062 C 918.695 -4.34932 1.18933 0
M  V30 10063 C 917.357 -4.55867 1.54073 0
M  V30 10064 C 919.709 -4.79665 2.03889 0
M  V30 10065 C 917.037 -5.18785 2.74005 0
M  V30 10066 C 919.389 -5.43907 3.23029 0
M  V30 10067 C 918.053 -5.63074 3.58475 0
M  V30 10068 H 917.323 -0.740838 0.0155047 0
M  V30 10069 H 919.97 -1.76759 0.736776 0
M  V30 10070 H 918.275 -3.82005 -0.870596 0
M  V30 10071 H 919.972 -3.97716 -0.512176 0
M  V30 10072 H 916.562 -4.18921 0.905718 0
M  V30 10073 H 920.746 -4.63264 1.78046 0
M  V30 10074 H 916.002 -5.31818 3.01628 0
M  V30 10075 H 920.176 -5.77531 3.89141 0
M  V30 10076 H 917.803 -6.11598 4.515 0
M  V30 10077 N 919.378 -0.300708 -1.54705 0
M  V30 10078 C 920.794 0.0526874 -1.59513 0
M  V30 10079 C 920.994 1.52444 -1.31769 0
M  V30 10080 O 920.05 2.27716 -1.09096 0
M  V30 10081 C 921.363 -0.344989 -2.98714 0
M  V30 10082 C 922.911 -0.29373 -3.11619 0
M  V30 10083 C 923.386 -0.666225 -4.53129 0
M  V30 10084 N 924.877 -0.618749 -4.59049 0
M  V30 10085 C 925.612 -0.879447 -5.66616 0
M  V30 10086 N 925.108 -1.2061 -6.82221 0
M  V30 10087 N 926.901 -0.806528 -5.56284 0
M  V30 10088 H 919.052 -1.25988 -1.71 0
M  V30 10089 H 921.315 -0.510758 -0.798643 0
M  V30 10090 H 921.021 -1.36953 -3.2394 0
M  V30 10091 H 920.895 0.301507 -3.75993 0
M  V30 10092 H 923.282 0.72156 -2.86142 0
M  V30 10093 H 923.363 -0.974844 -2.36496 0
M  V30 10094 H 923.007 -1.67932 -4.79334 0
M  V30 10095 H 922.937 0.0369575 -5.26587 0
M  V30 10096 H 925.428 -0.377202 -3.76013 0
M  V30 10097 H 925.741 -1.391 -7.60178 0
M  V30 10098 H 924.086 -1.24413 -6.83774 0
M  V30 10099 H 927.277 -0.550993 -4.64846 0
M  V30 10100 H 927.45 -1.01307 -6.40032 0
M  V30 10101 N 920.856 1.57574 -0.0284266 0
M  V30 10102 C 922.105 1.9095 0.649704 0
M  V30 10103 C 922.418 0.906421 1.7333 0
M  V30 10104 O 923.624 1.1314 2.46803 0
M  V30 10105 C 922.08 3.39061 1.20687 0
M  V30 10106 C 921.688 4.47726 0.156597 0
M  V30 10107 C 923.432 3.81505 1.86156 0
M  V30 10108 C 921.339 5.86935 0.725365 0
M  V30 10109 H 920.269 0.712589 0.24644 0
M  V30 10110 H 922.92 1.83261 -0.0936143 0
M  V30 10111 H 921.302 3.41679 2.00178 0
M  V30 10112 H 922.476 4.56667 -0.6158 0
M  V30 10113 H 920.791 4.14481 -0.399288 0
M  V30 10114 H 923.388 4.82865 2.29665 0
M  V30 10115 H 923.731 3.16529 2.70398 0
M  V30 10116 H 924.264 3.81307 1.13356 0
M  V30 10117 H 921.003 6.55453 -0.0789081 0
M  V30 10118 H 920.523 5.81602 1.46627 0
M  V30 10119 H 922.202 6.35483 1.21532 0
M  V30 10120 N 922.334 -0.244713 1.55689 0
M  V30 10121 C 923.281 -1.30301 1.905 0
M  V30 10122 C 924.251 -1.4772 0.759478 0
M  V30 10123 O 925.436 -1.61667 1.01333 0
M  V30 10124 C 922.576 -2.653 2.20703 0
M  V30 10125 C 921.689 -2.55872 3.48071 0
M  V30 10126 C 920.824 -3.83238 3.67834 0
M  V30 10127 C 919.863 -3.68436 4.88796 0
M  V30 10128 N 919 -4.877 5.05068 0
M  V30 10129 H 923.84 -0.999143 2.80751 0
M  V30 10130 H 921.377 -0.482099 1.38976 0
M  V30 10131 H 923.335 -3.43884 2.36219 0
M  V30 10132 H 921.965 -2.93831 1.33653 0
M  V30 10133 H 921.017 -1.68846 3.40874 0
M  V30 10134 H 922.329 -2.40845 4.36801 0
M  V30 10135 H 921.483 -4.70266 3.83321 0
M  V30 10136 H 920.222 -4.01165 2.77341 0
M  V30 10137 H 919.227 -2.79793 4.73282 0
M  V30 10138 H 920.452 -3.52003 5.8075 0
M  V30 10139 H 918.398 -5.05983 4.17513 0
M  V30 10140 H 918.315 -4.75312 5.8789 0
M  V30 10141 H 919.583 -5.76219 5.24969 0
M  V30 10142 N 923.813 -1.49104 -0.510467 0
M  V30 10143 C 925.061 -1.578 -1.26268 0
M  V30 10144 C 925.382 -0.262349 -1.93227 0
M  V30 10145 O 924.652 0.717624 -1.82283 0
M  V30 10146 H 923.232 -0.581387 -0.46904 0
M  V30 10147 H 925.894 -1.85678 -0.592423 0
M  V30 10148 H 924.99 -2.36919 -2.03165 0
M  V30 10149 N 925.291 0.760815 -1.38019 0
M  V30 10150 C 926.539 1.51673 -1.33566 0
M  V30 10151 C 926.86 1.94852 0.076024 0
M  V30 10152 O 926.13 1.67112 1.02227 0
M  V30 10153 H 924.71 0.562581 -0.491438 0
M  V30 10154 H 927.372 0.904832 -1.72623 0
M  V30 10155 H 926.468 2.41102 -1.98182 0
M  V30 10156 N 926.769 1.22769 0.988202 0
M  V30 10157 C 927.716 1.00195 2.07917 0
M  V30 10158 C 928.686 -0.0779391 1.65917 0
M  V30 10159 O 929.871 0.0726005 1.90662 0
M  V30 10160 C 927.011 0.590853 3.40004 0
M  V30 10161 C 926.124 1.74202 3.9532 0
M  V30 10162 C 925.259 1.27846 5.15586 0
M  V30 10163 C 924.298 2.40087 5.63049 0
M  V30 10164 N 923.435 1.94744 6.74551 0
M  V30 10165 H 928.275 1.93581 2.26562 0
M  V30 10166 H 925.812 0.96448 1.11068 0
M  V30 10167 H 927.77 0.333653 4.15864 0
M  V30 10168 H 926.4 -0.306007 3.21346 0
M  V30 10169 H 925.452 2.11342 3.16289 0
M  V30 10170 H 926.764 2.58612 4.26522 0
M  V30 10171 H 925.918 0.978919 5.9875 0
M  V30 10172 H 924.657 0.404617 4.86019 0
M  V30 10173 H 923.662 2.70824 4.78471 0
M  V30 10174 H 924.887 3.27995 5.9464 0
M  V30 10175 H 922.833 1.09729 6.46758 0
M  V30 10176 H 922.75 2.72718 7.05096 0
M  V30 10177 H 924.018 1.67873 7.61209 0
M  V30 10178 N 928.247 -1.18576 1.03814 0
M  V30 10179 C 929.179 -2.21607 0.585055 0
M  V30 10180 C 930.192 -1.59125 -0.343963 0
M  V30 10181 O 931.381 -1.77959 -0.138882 0
M  V30 10182 C 928.481 -3.38495 -0.165602 0
M  V30 10183 C 927.654 -4.30557 0.770662 0
M  V30 10184 C 926.713 -5.26161 0.0637534 0
M  V30 10185 O 925.739 -5.64961 0.693359 0
M  V30 10186 N 926.941 -5.67882 -1.20377 0
M  V30 10187 H 929.706 -2.61104 1.47121 0
M  V30 10188 H 927.267 -1.33336 0.918316 0
M  V30 10189 H 929.259 -3.99474 -0.648292 0
M  V30 10190 H 927.829 -2.97711 -0.953268 0
M  V30 10191 H 927.049 -3.67221 1.43326 0
M  V30 10192 H 928.337 -4.88969 1.40667 0
M  V30 10193 H 927.735 -5.38409 -1.73586 0
M  V30 10194 H 926.292 -6.31069 -1.63079 0
M  V30 10195 N 929.725 -0.817259 -1.34754 0
M  V30 10196 C 930.972 -0.402648 -1.98457 0
M  V30 10197 C 931.3 1.03287 -1.64809 0
M  V30 10198 O 930.555 1.73316 -0.908851 0
M  V30 10199 C 930.854 -0.5453 -3.53216 0
M  V30 10200 C 930.52 -1.9457 -4.06759 0
M  V30 10201 C 929.182 -2.32881 -4.21094 0
M  V30 10202 C 931.534 -2.86141 -4.35629 0
M  V30 10203 C 928.862 -3.62108 -4.61622 0
M  V30 10204 C 931.214 -4.14826 -4.776 0
M  V30 10205 C 929.878 -4.53121 -4.9014 0
M  V30 10206 H 929.148 -0.147339 -0.726204 0
M  V30 10207 H 931.795 -1.04011 -1.60791 0
M  V30 10208 H 930.1 0.175576 -3.91406 0
M  V30 10209 H 931.797 -0.205112 -4.00475 0
M  V30 10210 H 928.387 -1.6381 -3.96061 0
M  V30 10211 H 932.571 -2.57788 -4.24098 0
M  V30 10212 H 927.827 -3.91613 -4.69521 0
M  V30 10213 H 932.001 -4.85874 -4.98899 0
M  V30 10214 H 929.628 -5.53307 -5.21302 0
M  V30 10215 N 931.203 1.46865 -0.571711 0
M  V30 10216 C 932.449 2.0273 -0.0531858 0
M  V30 10217 C 932.782 1.44353 1.29907 0
M  V30 10218 O 932.057 0.604488 1.84868 0
M  V30 10219 C 932.34 3.60092 0.0243831 0
M  V30 10220 C 932.193 4.28874 -1.35599 0
M  V30 10221 C 933.512 4.33994 0.730563 0
M  V30 10222 H 930.631 0.736706 -0.0208018 0
M  V30 10223 H 933.273 1.75132 -0.736794 0
M  V30 10224 H 931.423 3.83736 0.606565 0
M  V30 10225 H 933.095 4.16527 -1.98249 0
M  V30 10226 H 931.338 3.88664 -1.92674 0
M  V30 10227 H 932.009 5.37561 -1.25429 0
M  V30 10228 H 934.485 4.1543 0.236098 0
M  V30 10229 H 933.361 5.43699 0.753836 0
M  V30 10230 H 933.622 4.04257 1.78967 0
M  V30 10231 N 932.681 0.308908 1.54543 0
M  V30 10232 C 933.611 -0.556657 2.26768 0
M  V30 10233 C 934.592 -1.13145 1.27013 0
M  V30 10234 O 935.777 -1.15931 1.558 0
M  V30 10235 C 932.907 -1.72481 3.01443 0
M  V30 10236 C 931.861 -1.28001 4.08411 0
M  V30 10237 C 931.187 -2.53395 4.70845 0
M  V30 10238 C 932.487 -0.405497 5.20724 0
M  V30 10239 H 934.181 0.0457618 2.99365 0
M  V30 10240 H 931.727 0.0234495 1.43981 0
M  V30 10241 H 933.68 -2.3365 3.50693 0
M  V30 10242 H 932.404 -2.35359 2.26437 0
M  V30 10243 H 931.063 -0.69133 3.60022 0
M  V30 10244 H 930.711 -3.14604 3.92471 0
M  V30 10245 H 930.411 -2.2433 5.43093 0
M  V30 10246 H 931.935 -3.15352 5.22863 0
M  V30 10247 H 933.349 -0.923076 5.6582 0
M  V30 10248 H 931.746 -0.208282 5.99738 0
M  V30 10249 H 932.816 0.567412 4.81569 0
M  V30 10250 N 934.159 -1.57557 0.0367827 0
M  V30 10251 C 935.091 -2.07597 -0.971395 0
M  V30 10252 C 936.104 -1.0009 -1.28397 0
M  V30 10253 O 937.293 -1.27692 -1.24728 0
M  V30 10254 C 934.393 -2.492 -2.2968 0
M  V30 10255 C 933.566 -3.79875 -2.16826 0
M  V30 10256 C 932.625 -4.07946 -3.32366 0
M  V30 10257 O 931.651 -4.78083 -3.0891 0
M  V30 10258 N 932.853 -3.58722 -4.56397 0
M  V30 10259 H 935.618 -2.94714 -0.544389 0
M  V30 10260 H 933.179 -1.61205 -0.1498 0
M  V30 10261 H 935.171 -2.65065 -3.05815 0
M  V30 10262 H 933.741 -1.67407 -2.63995 0
M  V30 10263 H 932.961 -3.73732 -1.2537 0
M  V30 10264 H 934.249 -4.65476 -2.0545 0
M  V30 10265 H 933.647 -3.01994 -4.78347 0
M  V30 10266 H 932.204 -3.79852 -5.29675 0
M  V30 10267 N 935.637 0.236453 -1.55816 0
M  V30 10268 C 936.877 0.970249 -1.79904 0
M  V30 10269 C 937.241 1.8212 -0.607965 0
M  V30 10270 O 938.442 2.58759 -0.727833 0
M  V30 10271 C 936.713 1.79938 -3.088 0
M  V30 10272 S 938.272 2.59084 -3.54148 0
M  V30 10273 H 935.09 0.32618 -0.631765 0
M  V30 10274 H 937.692 0.237147 -1.94056 0
M  V30 10275 H 936.396 1.16412 -3.93544 0
M  V30 10276 H 935.927 2.57504 -2.97414 0
M  V30 10277 H 937.942 3.82315 -3.16306 0
M  V30 10278 N 937.115 1.49373 0.502552 0
M  V30 10279 C 938.025 1.68659 1.63068 0
M  V30 10280 C 939.041 0.569182 1.64427 0
M  V30 10281 O 940.217 0.843695 1.82876 0
M  V30 10282 C 937.282 1.74745 2.99441 0
M  V30 10283 C 936.343 2.98311 3.08721 0
M  V30 10284 C 935.576 3.04097 4.38589 0
M  V30 10285 O 935.799 2.17519 5.27297 0
M  V30 10286 O 934.733 3.96544 4.52809 0
M  V30 10287 H 938.559 2.64226 1.49727 0
M  V30 10288 H 936.144 1.33096 0.67867 0
M  V30 10289 H 938.026 1.8111 3.80496 0
M  V30 10290 H 936.701 0.823565 3.13048 0
M  V30 10291 H 935.608 2.97465 2.2686 0
M  V30 10292 H 936.941 3.90174 3.00041 0
M  V30 10293 N 938.594 -0.753485 1.38421 0
M  V30 10294 C 939.819 -1.54783 1.38047 0
M  V30 10295 C 940.244 -1.8808 -0.0276371 0
M  V30 10296 O 939.602 -1.5058 -1.00973 0
M  V30 10297 C 939.65 -2.82353 2.24297 0
M  V30 10298 O 938.754 -3.77509 1.66014 0
M  V30 10299 H 938.095 -0.468151 0.470883 0
M  V30 10300 H 940.625 -0.931144 1.82184 0
M  V30 10301 H 940.635 -3.31277 2.38159 0
M  V30 10302 H 939.31 -2.57449 3.26639 0
M  V30 10303 H 937.887 -3.36212 1.61294 0
M  V30 10304 N 940.072 -1.23292 -0.981677 0
M  V30 10305 C 941.349 -0.972514 -1.6971 0
M  V30 10306 C 941.729 0.509244 -2.04866 0
M  V30 10307 O 941.077 1.48013 -1.74082 0
M  V30 10308 C 941.287 -1.88144 -2.93943 0
M  V30 10309 C 942.635 -2.14416 -3.66485 0
M  V30 10310 O 943.659 -1.85684 -3.03974 0
M  V30 10311 O 942.518 -2.63139 -4.78978 0
M  V30 10312 H 939.612 -0.366673 -0.741269 0
M  V30 10313 H 942.158 -1.34328 -1.03701 0
M  V30 10314 H 940.93 -2.8832 -2.64551 0
M  V30 10315 H 940.553 -1.51296 -3.67689 0
M  V30 10316 N 941.55 1.18024 -1.04442 0
M  V30 10317 C 942.961 1.69749 -0.777312 0
M  V30 10318 C 943.312 1.83234 0.701399 0
M  V30 10319 O 942.437 1.51452 1.54568 0
M  V30 10320 C 943.032 3.08321 -1.40441 0
M  V30 10321 C 941.591 3.57243 -1.18553 0
M  V30 10322 C 940.738 2.33695 -1.49271 0
M  V30 10323 H 943.689 1.02647 -1.21035 0
M  V30 10324 H 943.71 3.71787 -0.809628 0
M  V30 10325 H 943.222 2.98474 -2.48062 0
M  V30 10326 H 941.323 3.72379 -0.128221 0
M  V30 10327 H 941.436 4.40451 -1.88519 0
M  V30 10328 H 939.8 2.37792 -0.912526 0
M  V30 10329 H 940.583 2.26464 -2.5801 0
M  V30 10330 N 943.028 0.824394 1.34319 0
M  V30 10331 C 943.938 0.24932 2.33271 0
M  V30 10332 C 944.954 -0.617066 1.62691 0
M  V30 10333 O 946.13 -0.524616 1.94447 0
M  V30 10334 C 943.195 -0.578094 3.41846 0
M  V30 10335 C 942.256 0.310866 4.28173 0
M  V30 10336 C 941.489 -0.477153 5.31563 0
M  V30 10337 O 941.712 -1.71028 5.44156 0
M  V30 10338 O 940.646 0.141287 6.01734 0
M  V30 10339 H 944.472 1.06837 2.84288 0
M  V30 10340 H 942.057 0.58657 1.37403 0
M  V30 10341 H 943.939 -1.04878 4.0814 0
M  V30 10342 H 942.614 -1.37444 2.93071 0
M  V30 10343 H 941.521 0.829081 3.64797 0
M  V30 10344 H 942.854 1.07161 4.80393 0
M  V30 10345 N 944.506 -1.46559 0.579492 0
M  V30 10346 C 945.753 -2.02399 0.0638418 0
M  V30 10347 C 946.081 -1.45135 -1.29484 0
M  V30 10348 O 945.336 -0.605061 -1.86112 0
M  V30 10349 C 945.635 -3.57357 -0.0552803 0
M  V30 10350 C 945.301 -4.33646 1.23539 0
M  V30 10351 C 943.963 -4.54207 1.589 0
M  V30 10352 C 946.315 -4.77476 2.08965 0
M  V30 10353 C 943.643 -5.1585 2.79492 0
M  V30 10354 C 945.995 -5.4045 3.2878 0
M  V30 10355 C 944.659 -5.5924 3.64427 0
M  V30 10356 H 943.929 -0.740632 0.0233614 0
M  V30 10357 H 946.576 -1.75968 0.755482 0
M  V30 10358 H 944.881 -3.82907 -0.83003 0
M  V30 10359 H 946.578 -3.98237 -0.469964 0
M  V30 10360 H 943.168 -4.17937 0.9501 0
M  V30 10361 H 947.352 -4.61349 1.8295 0
M  V30 10362 H 942.608 -5.28589 3.07252 0
M  V30 10363 H 946.782 -5.73371 3.95245 0
M  V30 10364 H 944.409 -6.06775 4.57961 0
M  V30 10365 N 945.984 -0.3171 -1.54377 0
M  V30 10366 C 947.23 0.287836 -2.00747 0
M  V30 10367 C 947.563 1.52292 -1.20502 0
M  V30 10368 O 946.838 1.92391 -0.285626 0
M  V30 10369 C 947.121 0.628423 -3.54574 0
M  V30 10370 C 946.974 -0.616922 -4.45549 0
M  V30 10371 C 948.293 1.44862 -4.15575 0
M  V30 10372 H 945.412 0.103144 -0.729747 0
M  V30 10373 H 948.054 -0.432396 -1.85014 0
M  V30 10374 H 946.204 1.24203 -3.68111 0
M  V30 10375 H 947.876 -1.25526 -4.43893 0
M  V30 10376 H 946.119 -1.24706 -4.15489 0
M  V30 10377 H 946.79 -0.334243 -5.50987 0
M  V30 10378 H 949.266 0.930015 -4.05574 0
M  V30 10379 H 948.142 1.6557 -5.23333 0
M  V30 10380 H 948.403 2.44279 -3.68484 0
M  V30 10381 N 947.462 1.57535 -0.0451378 0
M  V30 10382 C 948.394 2.08109 0.960372 0
M  V30 10383 C 949.407 1.0077 1.27864 0
M  V30 10384 O 950.596 1.28351 1.24049 0
M  V30 10385 C 947.696 2.50414 2.28355 0
M  V30 10386 C 946.869 3.8102 2.14808 0
M  V30 10387 C 945.928 4.09702 3.30198 0
M  V30 10388 O 944.954 4.79715 3.0637 0
M  V30 10389 N 946.156 3.61138 4.54489 0
M  V30 10390 H 948.921 2.94999 0.528752 0
M  V30 10391 H 946.482 1.61283 0.141248 0
M  V30 10392 H 948.474 2.66683 3.04405 0
M  V30 10393 H 947.044 1.68805 2.63104 0
M  V30 10394 H 946.264 3.74392 1.23387 0
M  V30 10395 H 947.552 4.66559 2.02978 0
M  V30 10396 H 946.95 3.04527 4.76739 0
M  V30 10397 H 945.507 3.82656 5.27653 0
M  V30 10398 N 948.94 -0.228186 1.55939 0
M  V30 10399 C 950.186 -0.950604 1.7982 0
M  V30 10400 C 950.541 -1.82236 0.617079 0
M  V30 10401 O 949.834 -1.87607 -0.389102 0
M  V30 10402 C 950.028 -1.82924 3.0704 0
M  V30 10403 C 949.857 -1.04403 4.37413 0
M  V30 10404 C 948.627 -0.741613 4.99828 0
M  V30 10405 C 950.825 -0.412534 5.12643 0
M  V30 10406 N 948.807 0.0656922 6.13865 0
M  V30 10407 C 950.178 0.258471 6.19461 0
M  V30 10408 C 952.233 -0.324893 4.96839 0
M  V30 10409 C 950.936 1.00873 7.12192 0
M  V30 10410 C 952.962 0.411878 5.89964 0
M  V30 10411 C 952.324 1.07145 6.96203 0
M  V30 10412 H 948.423 -0.328336 0.709732 0
M  V30 10413 H 951.007 -0.222056 1.9343 0
M  V30 10414 H 949.178 -2.52966 2.94725 0
M  V30 10415 H 950.91 -2.48863 3.19139 0
M  V30 10416 H 947.665 -1.05801 4.61631 0
M  V30 10417 H 948.089 0.457986 6.75449 0
M  V30 10418 H 952.731 -0.820485 4.14762 0
M  V30 10419 H 950.449 1.51586 7.93755 0
M  V30 10420 H 954.035 0.480606 5.79812 0
M  V30 10421 H 952.915 1.63245 7.67021 0
M  V30 10422 N 950.418 -1.49637 -0.494624 0
M  V30 10423 C 951.365 -1.66776 -1.59545 0
M  V30 10424 C 952.335 -0.509159 -1.58104 0
M  V30 10425 O 953.52 -0.736949 -1.75993 0
M  V30 10426 C 950.66 -1.74624 -2.97658 0
M  V30 10427 C 949.773 -3.01831 -3.09067 0
M  V30 10428 C 948.908 -3.00619 -4.37952 0
M  V30 10429 C 947.947 -4.22378 -4.43016 0
M  V30 10430 N 947.084 -4.1904 -5.63339 0
M  V30 10431 H 951.924 -2.60767 -1.44238 0
M  V30 10432 H 949.461 -1.29286 -0.701673 0
M  V30 10433 H 951.419 -1.77156 -3.77719 0
M  V30 10434 H 950.049 -0.840936 -3.11654 0
M  V30 10435 H 949.101 -3.08881 -2.22029 0
M  V30 10436 H 950.413 -3.91823 -3.08669 0
M  V30 10437 H 949.567 -3.01749 -5.26339 0
M  V30 10438 H 948.306 -2.08416 -4.40924 0
M  V30 10439 H 947.311 -4.21485 -3.5303 0
M  V30 10440 H 948.536 -5.15781 -4.41755 0
M  V30 10441 H 946.482 -3.29677 -5.67141 0
M  V30 10442 H 946.399 -5.02774 -5.64583 0
M  V30 10443 H 947.667 -4.24281 -6.53916 0
M  V30 10444 N 951.896 0.746133 -1.38819 0
M  V30 10445 C 952.843 1.86001 -1.36647 0
M  V30 10446 C 953.813 1.6453 -0.227849 0
M  V30 10447 O 954.998 1.86092 -0.421241 0
M  V30 10448 C 952.138 3.23388 -1.20474 0
M  V30 10449 C 951.251 3.5664 -2.43786 0
M  V30 10450 C 950.386 4.8337 -2.20287 0
M  V30 10451 C 949.425 5.09431 -3.39332 0
M  V30 10452 N 948.562 6.2736 -3.1522 0
M  V30 10453 H 953.402 1.87192 -2.31869 0
M  V30 10454 H 950.939 0.914838 -1.15192 0
M  V30 10455 H 952.897 4.02679 -1.09112 0
M  V30 10456 H 951.527 3.21505 -0.288874 0
M  V30 10457 H 950.579 2.72135 -2.65794 0
M  V30 10458 H 951.891 3.71823 -3.3249 0
M  V30 10459 H 951.045 5.70619 -2.06103 0
M  V30 10460 H 949.784 4.70341 -1.28961 0
M  V30 10461 H 948.789 4.20648 -3.54027 0
M  V30 10462 H 950.014 5.24354 -4.31544 0
M  V30 10463 H 947.96 6.15639 -2.26549 0
M  V30 10464 H 947.877 6.43078 -3.97476 0
M  V30 10465 H 949.145 7.17477 -3.04707 0
M  V30 10466 N 953.375 1.23811 0.975125 0
M  V30 10467 C 954.285 1.0408 2.10249 0
M  V30 10468 C 955.301 -0.0162404 1.73992 0
M  V30 10469 O 956.477 0.180346 2.00591 0
M  V30 10470 C 953.542 0.640013 3.40741 0
M  V30 10471 C 952.603 1.7727 3.90991 0
M  V30 10472 C 951.836 1.39094 5.15256 0
M  V30 10473 O 952.059 0.277483 5.69725 0
M  V30 10474 O 950.993 2.21392 5.59704 0
M  V30 10475 H 954.819 1.98575 2.29786 0
M  V30 10476 H 952.404 1.02563 1.08633 0
M  V30 10477 H 954.286 0.427684 4.19224 0
M  V30 10478 H 952.961 -0.27589 3.22522 0
M  V30 10479 H 951.868 2.03971 3.13602 0
M  V30 10480 H 953.201 2.66711 4.13674 0
M  V30 10481 N 954.853 -1.17469 1.05066 0
M  V30 10482 C 955.783 -2.23635 0.671552 0
M  V30 10483 C 956.764 -1.66867 -0.33006 0
M  V30 10484 O 957.949 -1.93084 -0.207933 0
M  V30 10485 C 955.079 -3.47272 0.0441845 0
M  V30 10486 C 954.033 -4.16854 0.97042 0
M  V30 10487 C 953.359 -5.34299 0.206998 0
M  V30 10488 C 954.659 -4.69225 2.29401 0
M  V30 10489 H 956.353 -2.55602 1.55911 0
M  V30 10490 H 953.899 -1.2286 0.751101 0
M  V30 10491 H 955.852 -4.20756 -0.23282 0
M  V30 10492 H 954.576 -3.14568 -0.878311 0
M  V30 10493 H 953.235 -3.4528 1.23197 0
M  V30 10494 H 952.883 -4.97846 -0.718222 0
M  V30 10495 H 952.583 -5.81792 0.82416 0
M  V30 10496 H 954.107 -6.10568 -0.0627525 0
M  V30 10497 H 955.521 -5.34353 2.077 0
M  V30 10498 H 953.918 -5.27291 2.86503 0
M  V30 10499 H 954.988 -3.86102 2.93348 0
M  V30 10500 N 956.331 -0.831506 -1.3388 0
M  V30 10501 C 957.279 -0.247896 -2.31275 0
M  V30 10502 C 958.273 0.616083 -1.578 0
M  V30 10503 O 959.479 0.506465 -1.72728 0
M  V30 10504 H 955.854 -0.0614293 -0.749487 0
M  V30 10505 H 957.825 -1.08401 -2.78014 0
M  V30 10506 C 956.574 0.568434 -3.43022 0
M  V30 10507 H 955.897 -0.0870654 -3.99705 0
M  V30 10508 H 957.337 0.942751 -4.13386 0
M  V30 10509 C 955.796 1.74431 -2.88228 0
M  V30 10510 O 956.326 2.84278 -2.83811 0
M  V30 10511 N 954.532 1.56382 -2.44935 0
M  V30 10512 H 954.079 0.670255 -2.48727 0
M  V30 10513 H 954.037 2.35208 -2.08625 0
M  V30 10514 N 957.809 1.4625 -0.587256 0
M  V30 10515 C 958.719 2.34147 0.145744 0
M  V30 10516 C 959.735 1.50026 0.881376 0
M  V30 10517 O 960.911 1.82884 0.843539 0
M  V30 10518 C 957.976 3.27294 1.14366 0
M  V30 10519 C 957.037 4.27317 0.412199 0
M  V30 10520 C 956.27 5.16013 1.36257 0
M  V30 10521 O 956.493 5.0773 2.59934 0
M  V30 10522 O 955.427 5.95569 0.870681 0
M  V30 10523 H 959.253 2.98187 -0.576055 0
M  V30 10524 H 956.838 1.45299 -0.347628 0
M  V30 10525 H 958.72 3.84747 1.71894 0
M  V30 10526 H 957.395 2.65845 1.84684 0
M  V30 10527 H 956.302 3.73538 -0.205036 0
M  V30 10528 H 957.635 4.91564 -0.250104 0
M  V30 10529 N 959.287 0.325282 1.54207 0
M  V30 10530 C 960.515 -0.27869 2.05014 0
M  V30 10531 C 960.93 -1.45649 1.20133 0
M  V30 10532 O 960.287 -1.81014 0.232398 0
M  V30 10533 C 960.338 -0.711486 3.54429 0
M  V30 10534 O 960.059 0.419458 4.36087 0
M  V30 10535 C 961.56 -1.37809 4.21336 0
M  V30 10536 H 958.78 -0.0570388 0.668571 0
M  V30 10537 H 961.324 0.47197 1.98979 0
M  V30 10538 H 959.479 -1.41212 3.60746 0
M  V30 10539 H 959.893 0.0781037 5.24442 0
M  V30 10540 H 961.367 -1.63184 5.27328 0
M  V30 10541 H 961.844 -2.32593 3.72555 0
M  V30 10542 H 962.45 -0.719987 4.19161 0
M  V30 10543 N 960.765 -1.57509 0.0534917 0
M  V30 10544 C 962.012 -1.92782 -0.619772 0
M  V30 10545 C 962.34 -0.932046 -1.70714 0
M  V30 10546 O 961.595 0.0552891 -1.95622 0
M  V30 10547 C 961.894 -3.34734 -1.25251 0
M  V30 10548 C 961.56 -4.49946 -0.293113 0
M  V30 10549 C 960.222 -4.81191 -0.0291223 0
M  V30 10550 C 962.574 -5.19925 0.364271 0
M  V30 10551 C 959.902 -5.79761 0.899649 0
M  V30 10552 C 962.254 -6.19489 1.28125 0
M  V30 10553 C 960.918 -6.49161 1.55389 0
M  V30 10554 H 960.188 -0.705441 -0.226791 0
M  V30 10555 H 962.835 -1.91121 0.120466 0
M  V30 10556 H 961.14 -3.32774 -2.06807 0
M  V30 10557 H 962.837 -3.59308 -1.78042 0
M  V30 10558 H 959.427 -4.25566 -0.509053 0
M  V30 10559 H 963.611 -4.95997 0.173411 0
M  V30 10560 H 958.867 -6.01085 1.11833 0
M  V30 10561 H 963.041 -6.72824 1.79669 0
M  V30 10562 H 960.668 -7.25354 2.2752 0
M  V30 10563 N 962.243 0.219913 -1.56058 0
M  V30 10564 C 963.19 1.27254 -1.92549 0
M  V30 10565 C 964.16 1.46493 -0.782883 0
M  V30 10566 O 965.345 1.60035 -1.03892 0
M  V30 10567 C 962.485 2.61756 -2.24896 0
M  V30 10568 C 961.598 2.50302 -3.52098 0
M  V30 10569 C 960.733 3.77338 -3.73884 0
M  V30 10570 C 959.772 3.60613 -4.94595 0
M  V30 10571 N 958.909 4.79603 -5.12763 0
M  V30 10572 H 963.749 0.954352 -2.82305 0
M  V30 10573 H 961.286 0.459928 -1.39725 0
M  V30 10574 H 963.244 3.40082 -2.4166 0
M  V30 10575 H 961.874 2.91668 -1.38311 0
M  V30 10576 H 960.926 1.63401 -3.43517 0
M  V30 10577 H 962.238 2.33866 -4.40577 0
M  V30 10578 H 961.392 4.64108 -3.90754 0
M  V30 10579 H 960.131 3.96702 -2.83689 0
M  V30 10580 H 959.136 2.72228 -4.77674 0
M  V30 10581 H 960.361 3.42719 -5.86277 0
M  V30 10582 H 958.307 4.99277 -4.2551 0
M  V30 10583 H 958.224 4.65899 -5.95377 0
M  V30 10584 H 959.492 5.67794 -5.34069 0
M  V30 10585 N 963.721 1.49897 0.486681 0
M  V30 10586 C 964.631 1.70379 1.6127 0
M  V30 10587 C 965.647 0.58659 1.63814 0
M  V30 10588 O 966.823 0.863044 1.81971 0
M  V30 10589 C 963.888 1.77911 2.97571 0
M  V30 10590 C 962.949 3.01569 3.0554 0
M  V30 10591 C 962.182 3.08732 4.35339 0
M  V30 10592 O 962.405 2.23099 5.2496 0
M  V30 10593 O 961.339 4.01325 4.48578 0
M  V30 10594 H 965.165 2.65799 1.46916 0
M  V30 10595 H 962.75 1.33808 0.664516 0
M  V30 10596 H 964.632 1.85135 3.78554 0
M  V30 10597 H 963.307 0.856722 3.12157 0
M  V30 10598 H 962.214 2.99854 2.23693 0
M  V30 10599 H 963.547 3.93335 2.95886 0
M  V30 10600 N 965.199 -0.738761 1.39212 0
M  V30 10601 C 966.162 -1.83441 1.37412 0
M  V30 10602 C 967.162 -1.58484 0.271908 0
M  V30 10603 O 968.352 -1.65954 0.529609 0
M  V30 10604 C 965.484 -3.21167 1.143 0
M  V30 10605 H 966.677 -1.86441 2.34904 0
M  V30 10606 H 964.23 -0.942023 1.24722 0
M  V30 10607 H 964.965 -3.23829 0.174756 0
M  V30 10608 H 964.75 -3.40678 1.94116 0
M  V30 10609 H 966.24 -4.01231 1.15773 0
M  V30 10610 N 966.677 -1.24326 -0.968545 0
M  V30 10611 C 967.609 -0.992749 -2.06584 0
M  V30 10612 C 968.622 0.0374902 -1.62757 0
M  V30 10613 O 969.811 -0.199448 -1.77382 0
M  V30 10614 C 966.911 -0.476165 -3.35538 0
M  V30 10615 C 966.084 -1.56934 -4.08277 0
M  V30 10616 C 965.143 -1.05555 -5.15504 0
M  V30 10617 O 964.169 -1.74707 -5.41725 0
M  V30 10618 N 965.371 0.110465 -5.80395 0
M  V30 10619 H 968.136 -1.93752 -2.28649 0
M  V30 10620 H 965.697 -1.15344 -1.13611 0
M  V30 10621 H 967.689 -0.117223 -4.0453 0
M  V30 10622 H 966.259 0.374315 -3.10351 0
M  V30 10623 H 965.479 -2.10051 -3.33575 0
M  V30 10624 H 966.767 -2.30415 -4.53637 0
M  V30 10625 H 966.165 0.688614 -5.61493 0
M  V30 10626 H 964.722 0.41056 -6.50506 0
M  V30 10627 N 968.156 1.1691 -1.05688 0
M  V30 10628 C 969.572 1.39288 -0.779167 0
M  V30 10629 C 969.772 1.91587 0.624231 0
M  V30 10630 O 968.828 2.11072 1.38582 0
M  V30 10631 C 970.141 2.37914 -1.83895 0
M  V30 10632 C 971.689 2.51611 -1.86175 0
M  V30 10633 C 972.164 3.53514 -2.9119 0
M  V30 10634 N 973.655 3.61036 -2.90184 0
M  V30 10635 C 974.39 4.39657 -3.68088 0
M  V30 10636 N 973.886 5.21752 -4.55793 0
M  V30 10637 N 975.679 4.3458 -3.56507 0
M  V30 10638 H 967.83 0.81296 -1.96226 0
M  V30 10639 H 970.093 0.419818 -0.849975 0
M  V30 10640 H 969.799 2.06568 -2.84645 0
M  V30 10641 H 969.673 3.37483 -1.68479 0
M  V30 10642 H 972.06 2.82264 -0.86087 0
M  V30 10643 H 972.141 1.52099 -2.05668 0
M  V30 10644 H 971.785 3.23599 -3.91467 0
M  V30 10645 H 971.715 4.52742 -2.68947 0
M  V30 10646 H 974.206 3.02428 -2.26596 0
M  V30 10647 H 974.519 5.78939 -5.11907 0
M  V30 10648 H 972.864 5.21116 -4.59851 0
M  V30 10649 H 976.055 3.69501 -2.87379 0
M  V30 10650 H 976.228 4.95607 -4.17466 0
M  V30 10651 N 969.634 0.838594 1.33437 0
M  V30 10652 C 970.564 0.286672 2.31734 0
M  V30 10653 C 971.545 -0.605451 1.5896 0
M  V30 10654 O 972.73 -0.529059 1.86854 0
M  V30 10655 C 969.86 -0.539311 3.43087 0
M  V30 10656 C 968.814 0.256997 4.27228 0
M  V30 10657 C 968.14 -0.692718 5.30194 0
M  V30 10658 C 969.44 1.47391 5.01072 0
M  V30 10659 H 971.134 1.10798 2.78144 0
M  V30 10660 H 968.68 0.534235 1.33723 0
M  V30 10661 H 970.633 -0.935724 4.1088 0
M  V30 10662 H 969.357 -1.39383 2.95364 0
M  V30 10663 H 968.016 0.634967 3.61059 0
M  V30 10664 H 967.664 -1.54363 4.78729 0
M  V30 10665 H 967.364 -0.164023 5.87371 0
M  V30 10666 H 968.888 -1.08665 6.00853 0
M  V30 10667 H 970.302 1.15067 5.61634 0
M  V30 10668 H 968.699 1.93937 5.67898 0
M  V30 10669 H 969.769 2.24382 4.29861 0
M  V30 10670 N 971.112 -1.45937 0.595003 0
M  V30 10671 C 972.042 -2.33198 -0.11871 0
M  V30 10672 C 973.023 -1.46083 -0.871423 0
M  V30 10673 O 974.208 -1.74879 -0.844461 0
M  V30 10674 C 971.338 -3.28576 -1.12495 0
M  V30 10675 C 970.292 -4.25229 -0.486275 0
M  V30 10676 C 969.618 -5.10204 -1.59986 0
M  V30 10677 C 970.918 -5.19019 0.584473 0
M  V30 10678 H 972.612 -2.93122 0.609886 0
M  V30 10679 H 970.158 -1.40951 0.294742 0
M  V30 10680 H 972.111 -3.88485 -1.6327 0
M  V30 10681 H 970.835 -2.66784 -1.88398 0
M  V30 10682 H 969.494 -3.666 0.000507962 0
M  V30 10683 H 969.142 -4.44789 -2.34886 0
M  V30 10684 H 968.842 -5.75669 -1.1781 0
M  V30 10685 H 970.366 -5.7298 -2.11014 0
M  V30 10686 H 971.78 -5.73073 0.161297 0
M  V30 10687 H 970.177 -5.92893 0.927256 0
M  V30 10688 H 971.247 -4.62208 1.46601 0
M  V30 10689 N 972.59 -0.333456 -1.54032 0
M  V30 10690 C 974.006 0.0188405 -1.59589 0
M  V30 10691 C 974.206 1.49615 -1.34972 0
M  V30 10692 O 973.262 2.2535 -1.13901 0
M  V30 10693 C 974.575 -0.408273 -2.97915 0
M  V30 10694 C 976.123 -0.359763 -3.10926 0
M  V30 10695 C 976.598 -0.76219 -4.51613 0
M  V30 10696 N 978.089 -0.715981 -4.57633 0
M  V30 10697 C 978.824 -0.999436 -5.64623 0
M  V30 10698 N 978.32 -1.35053 -6.79509 0
M  V30 10699 N 980.113 -0.924343 -5.54448 0
M  V30 10700 H 972.264 -1.29587 -1.68289 0
M  V30 10701 H 974.527 -0.527584 -0.787629 0
M  V30 10702 H 974.233 -1.43793 -3.20962 0
M  V30 10703 H 974.107 0.221685 -3.76548 0
M  V30 10704 H 976.494 0.660703 -2.87609 0
M  V30 10705 H 976.575 -1.02479 -2.34375 0
M  V30 10706 H 976.219 -1.78062 -4.75664 0
M  V30 10707 H 976.149 -0.0747478 -5.26547 0
M  V30 10708 H 978.64 -0.456875 -3.75128 0
M  V30 10709 H 978.953 -1.55194 -7.57057 0
M  V30 10710 H 977.298 -1.38889 -6.80981 0
M  V30 10711 H 980.489 -0.649469 -4.63573 0
M  V30 10712 H 980.662 -1.1486 -6.37739 0
M  V30 10713 N 974.068 1.57479 -0.061844 0
M  V30 10714 C 975.484 1.56855 0.294753 0
M  V30 10715 C 975.684 1.07042 1.70717 0
M  V30 10716 O 974.74 0.731817 2.41662 0
M  V30 10717 C 976.053 3.00486 0.113484 0
M  V30 10718 C 977.601 3.1246 0.183778 0
M  V30 10719 C 978.076 4.5799 0.0309092 0
M  V30 10720 N 979.567 4.63119 0.0868393 0
M  V30 10721 C 980.302 5.734 -0.00717446 0
M  V30 10722 N 979.798 6.92628 -0.154144 0
M  V30 10723 N 981.591 5.62078 0.0491763 0
M  V30 10724 H 973.742 1.88176 -0.985058 0
M  V30 10725 H 976.005 0.867051 -0.383309 0
M  V30 10726 H 975.711 3.41004 -0.86075 0
M  V30 10727 H 975.585 3.67029 0.870023 0
M  V30 10728 H 977.972 2.71834 1.14849 0
M  V30 10729 H 978.053 2.48574 -0.603697 0
M  V30 10730 H 977.697 4.99303 -0.930526 0
M  V30 10731 H 977.627 5.19895 0.837664 0
M  V30 10732 H 980.118 3.77374 0.199245 0
M  V30 10733 H 980.431 7.72492 -0.218296 0
M  V30 10734 H 978.776 6.94742 -0.189372 0
M  V30 10735 H 981.967 4.67817 0.162626 0
M  V30 10736 H 982.14 6.47994 -0.0275478 0
M  V30 10737 N 975.546 -0.211634 1.56173 0
M  V30 10738 C 976.509 -1.24588 1.92381 0
M  V30 10739 C 977.509 -1.39297 0.803311 0
M  V30 10740 O 978.699 -1.37392 1.07094 0
M  V30 10741 C 975.831 -2.61807 2.18335 0
M  V30 10742 H 977.024 -0.936814 2.84893 0
M  V30 10743 H 974.577 -0.452471 1.49607 0
M  V30 10744 H 975.312 -2.97795 1.28407 0
M  V30 10745 H 975.097 -2.52506 2.99972 0
M  V30 10746 H 976.587 -3.3642 2.4741 0
M  V30 10747 N 977.024 -1.50153 -0.478725 0
M  V30 10748 C 978.435 -1.53706 -1.05978 0
M  V30 10749 C 978.786 -0.336112 -1.933 0
M  V30 10750 O 977.911 0.551803 -2.09246 0
M  V30 10751 C 978.506 -2.78541 -1.92874 0
M  V30 10752 C 977.065 -2.848 -2.46102 0
M  V30 10753 C 976.212 -2.47902 -1.24257 0
M  V30 10754 H 979.163 -1.56528 -0.261664 0
M  V30 10755 H 979.184 -2.59964 -2.77847 0
M  V30 10756 H 978.696 -3.6593 -1.29293 0
M  V30 10757 H 976.797 -2.01744 -3.13257 0
M  V30 10758 H 976.91 -3.87511 -2.81731 0
M  V30 10759 H 975.274 -2.0017 -1.57493 0
M  V30 10760 H 976.057 -3.3759 -0.62351 0
M  V30 10761 N 978.502 0.731368 -1.39602 0
M  V30 10762 C 979.449 1.84541 -1.38612 0
M  V30 10763 C 980.419 1.64279 -0.245287 0
M  V30 10764 O 981.604 1.85635 -0.440954 0
M  V30 10765 C 978.744 3.22092 -1.23897 0
M  V30 10766 C 977.857 3.54034 -2.47555 0
M  V30 10767 C 976.992 4.81007 -2.25402 0
M  V30 10768 C 976.031 5.05804 -3.44716 0
M  V30 10769 N 975.168 6.23981 -3.21857 0
M  V30 10770 H 980.008 1.84722 -2.33841 0
M  V30 10771 H 977.545 0.902569 -1.16156 0
M  V30 10772 H 979.503 4.01499 -1.13376 0
M  V30 10773 H 978.133 3.2118 -0.322958 0
M  V30 10774 H 977.185 2.69301 -2.68665 0
M  V30 10775 H 978.497 3.68275 -3.36415 0
M  V30 10776 H 977.651 5.68401 -2.12143 0
M  V30 10777 H 976.39 4.68946 -1.33943 0
M  V30 10778 H 975.395 4.1687 -3.58468 0
M  V30 10779 H 976.62 5.19747 -4.37081 0
M  V30 10780 H 974.566 6.13202 -2.33065 0
M  V30 10781 H 974.483 6.38826 -4.04274 0
M  V30 10782 H 975.751 7.14205 -3.123 0
M  V30 10783 N 979.98 1.24838 0.961938 0
M  V30 10784 C 981.227 1.09151 1.70564 0
M  V30 10785 C 981.555 -0.368719 1.90973 0
M  V30 10786 O 980.81 -1.28854 1.47293 0
M  V30 10787 C 981.109 1.78289 3.09754 0
M  V30 10788 C 980.775 3.28216 3.09169 0
M  V30 10789 C 979.437 3.69118 3.08716 0
M  V30 10790 C 981.789 4.24035 3.03058 0
M  V30 10791 C 979.117 5.04263 2.99892 0
M  V30 10792 C 981.469 5.59195 2.95776 0
M  V30 10793 C 980.133 5.99436 2.93655 0
M  V30 10794 H 979.403 0.399414 0.624139 0
M  V30 10795 H 982.05 1.55016 1.12438 0
M  V30 10796 H 980.355 1.24835 3.7138 0
M  V30 10797 H 982.052 1.63612 3.66104 0
M  V30 10798 H 978.642 2.95667 3.10289 0
M  V30 10799 H 982.826 3.93431 3.02532 0
M  V30 10800 H 978.082 5.3463 2.96615 0
M  V30 10801 H 982.256 6.33142 2.90007 0
M  V30 10802 H 979.883 7.04116 2.86573 0
M  V30 10803 N 981.458 -1.16348 1.06306 0
M  V30 10804 C 982.388 -2.2291 0.695234 0
M  V30 10805 C 983.369 -1.67208 -0.312343 0
M  V30 10806 O 984.554 -1.93293 -0.187442 0
M  V30 10807 C 981.684 -3.47205 0.0810149 0
M  V30 10808 C 980.638 -4.15801 1.01458 0
M  V30 10809 C 979.964 -5.3405 0.263656 0
M  V30 10810 C 981.264 -4.66766 2.34365 0
M  V30 10811 H 982.958 -2.53934 1.58613 0
M  V30 10812 H 980.504 -1.22056 0.76409 0
M  V30 10813 H 982.457 -4.2098 -0.18818 0
M  V30 10814 H 981.181 -3.15482 -0.844897 0
M  V30 10815 H 979.84 -3.43954 1.26852 0
M  V30 10816 H 979.488 -4.9858 -0.665378 0
M  V30 10817 H 979.188 -5.80885 0.88582 0
M  V30 10818 H 980.712 -6.106 0.00200994 0
M  V30 10819 H 982.126 -5.3212 2.13356 0
M  V30 10820 H 980.523 -5.24223 2.9208 0
M  V30 10821 H 981.593 -3.82969 2.97426 0
M  V30 10822 N 982.937 -0.845659 -1.3299 0
M  V30 10823 C 983.885 -0.272412 -2.30999 0
M  V30 10824 C 984.879 0.599311 -1.58444 0
M  V30 10825 O 986.085 0.488117 -1.73255 0
M  V30 10826 H 982.46 -0.0693751 -0.748793 0
M  V30 10827 H 984.431 -1.11343 -2.76849 0
M  V30 10828 C 983.18 0.532019 -3.43606 0
M  V30 10829 H 982.503 -0.129455 -3.9959 0
M  V30 10830 H 983.943 0.898853 -4.14363 0
M  V30 10831 C 982.402 1.71364 -2.90062 0
M  V30 10832 O 982.932 2.81252 -2.8681 0
M  V30 10833 N 981.138 1.53775 -2.4658 0
M  V30 10834 H 980.685 0.643836 -2.49424 0
M  V30 10835 H 980.643 2.32982 -2.11108 0
M  V30 10836 N 984.415 1.45619 -0.602734 0
M  V30 10837 C 985.362 2.30493 0.118944 0
M  V30 10838 C 986.332 1.41816 0.864723 0
M  V30 10839 O 987.517 1.7075 0.851424 0
M  V30 10840 C 984.657 3.2664 1.11356 0
M  V30 10841 C 983.77 4.3042 0.369161 0
M  V30 10842 C 982.905 5.13678 1.35307 0
M  V30 10843 C 981.944 6.09189 0.596207 0
M  V30 10844 N 981.081 6.85245 1.52916 0
M  V30 10845 H 985.921 2.91672 -0.610836 0
M  V30 10846 H 983.458 1.43731 -0.313032 0
M  V30 10847 H 985.416 3.80846 1.7033 0
M  V30 10848 H 984.046 2.67225 1.81081 0
M  V30 10849 H 983.098 3.78913 -0.335994 0
M  V30 10850 H 984.41 4.98307 -0.221603 0
M  V30 10851 H 983.564 5.7226 2.01502 0
M  V30 10852 H 982.303 4.45798 1.97777 0
M  V30 10853 H 981.308 5.49743 -0.0793984 0
M  V30 10854 H 982.533 6.79096 -0.0233734 0
M  V30 10855 H 980.479 6.20058 2.14159 0
M  V30 10856 H 980.396 7.49467 0.991713 0
M  V30 10857 H 981.664 7.48371 2.18083 0
M  V30 10858 N 985.893 0.34162 1.53853 0
M  V30 10859 C 987.304 -0.14269 1.86154 0
M  V30 10860 C 987.655 -1.50151 1.2629 0
M  V30 10861 O 986.78 -2.08601 0.575735 0
M  V30 10862 C 987.375 -0.265691 3.37757 0
M  V30 10863 C 985.934 -0.694231 3.69942 0
M  V30 10864 C 985.081 0.173195 2.76759 0
M  V30 10865 H 988.032 0.561284 1.48443 0
M  V30 10866 H 988.053 -1.09352 3.64448 0
M  V30 10867 H 987.565 0.723424 3.81298 0
M  V30 10868 H 985.666 -1.69244 3.31945 0
M  V30 10869 H 985.779 -0.485461 4.76634 0
M  V30 10870 H 984.143 -0.35416 2.52226 0
M  V30 10871 H 984.926 1.15941 3.23129 0
M  V30 10872 N 987.371 -1.57444 0.0701946 0
M  V30 10873 C 988.787 -1.57009 -0.286431 0
M  V30 10874 C 988.987 -1.07946 -1.70147 0
M  V30 10875 O 988.043 -0.744622 -2.41271 0
M  V30 10876 C 989.356 -3.00542 -0.0975466 0
M  V30 10877 C 990.904 -3.12553 -0.167205 0
M  V30 10878 C 991.379 -4.58 -0.00662047 0
M  V30 10879 N 992.87 -4.63158 -0.0622778 0
M  V30 10880 C 993.605 -5.73388 0.0375831 0
M  V30 10881 N 993.101 -6.92537 0.190873 0
M  V30 10882 N 994.894 -5.62097 -0.0193672 0
M  V30 10883 H 987.045 -1.87651 0.995023 0
M  V30 10884 H 989.308 -0.865006 0.387902 0
M  V30 10885 H 989.014 -3.40543 0.878822 0
M  V30 10886 H 988.888 -3.67485 -0.850547 0
M  V30 10887 H 991.275 -2.72439 -1.13406 0
M  V30 10888 H 991.356 -2.48251 0.616871 0
M  V30 10889 H 991 -4.98803 0.956992 0
M  V30 10890 H 990.93 -5.20332 -0.810081 0
M  V30 10891 H 993.421 -3.77475 -0.179229 0
M  V30 10892 H 993.734 -7.72365 0.25926 0
M  V30 10893 H 992.079 -6.94632 0.226214 0
M  V30 10894 H 995.27 -4.67897 -0.137815 0
M  V30 10895 H 995.443 -6.4797 0.0619121 0
M  V30 10896 N 988.849 0.203349 -1.56283 0
M  V30 10897 C 990.074 0.945548 -1.84592 0
M  V30 10898 C 990.499 1.7641 -0.652772 0
M  V30 10899 O 989.857 1.76867 0.398468 0
M  V30 10900 C 989.905 1.82416 -3.11057 0
M  V30 10901 O 989.009 2.92191 -2.9103 0
M  V30 10902 H 988.35 0.266739 -0.608068 0
M  V30 10903 H 990.88 0.211158 -2.03507 0
M  V30 10904 H 990.89 2.23044 -3.41636 0
M  V30 10905 H 989.565 1.22267 -3.97522 0
M  V30 10906 H 988.142 2.55378 -2.71728 0
M  V30 10907 N 990.327 1.50405 0.470755 0
M  V30 10908 C 991.575 1.61092 1.2204 0
M  V30 10909 C 991.896 0.313487 1.92464 0
M  V30 10910 O 991.166 -0.669043 1.84121 0
M  V30 10911 H 989.746 0.593618 0.45346 0
M  V30 10912 H 992.408 1.87184 0.542985 0
M  V30 10913 H 991.504 2.42222 1.96812 0
M  V30 10914 N 991.805 -0.723954 1.39988 0
M  V30 10915 C 993.033 -1.51313 1.4111 0
M  V30 10916 C 993.448 -1.88798 0.00853333 0
M  V30 10917 O 992.805 -1.54868 -0.965516 0
M  V30 10918 C 992.856 -2.79375 2.29416 0
M  V30 10919 O 992.577 -2.43478 3.64211 0
M  V30 10920 C 994.078 -3.7333 2.3904 0
M  V30 10921 H 991.298 -0.46724 0.481589 0
M  V30 10922 H 993.842 -0.893694 1.83938 0
M  V30 10923 H 991.997 -3.37624 1.89971 0
M  V30 10924 H 992.411 -3.25821 4.11024 0
M  V30 10925 H 993.885 -4.60051 3.05053 0
M  V30 10926 H 994.362 -4.15854 1.41289 0
M  V30 10927 H 994.968 -3.20996 2.79001 0
M  V30 10928 N 993.283 -1.25346 -0.955304 0
M  V30 10929 C 994.529 -1.10218 -1.70235 0
M  V30 10930 C 994.862 0.356124 -1.90907 0
M  V30 10931 O 994.137 1.26253 -1.47954 0
M  V30 10932 C 994.42 -1.85627 -3.08569 0
M  V30 10933 C 994.273 -3.39281 -2.95311 0
M  V30 10934 C 995.592 -1.63886 -4.08448 0
M  V30 10935 H 992.711 -0.401781 -0.617852 0
M  V30 10936 H 995.353 -1.5417 -1.11048 0
M  V30 10937 H 993.503 -1.48269 -3.59094 0
M  V30 10938 H 995.175 -3.8631 -2.52116 0
M  V30 10939 H 993.418 -3.67027 -2.31244 0
M  V30 10940 H 994.089 -3.87258 -3.93364 0
M  V30 10941 H 996.565 -1.96406 -3.6683 0
M  V30 10942 H 995.441 -2.19087 -5.03281 0
M  V30 10943 H 995.702 -0.580021 -4.38279 0
M  V30 10944 N 994.761 1.15782 -1.06922 0
M  V30 10945 C 995.671 2.24008 -0.696948 0
M  V30 10946 C 996.687 1.71569 0.289862 0
M  V30 10947 O 997.863 2.00929 0.137585 0
M  V30 10948 C 994.928 3.46568 -0.0957895 0
M  V30 10949 C 993.989 4.14017 -1.13528 0
M  V30 10950 C 993.222 5.30725 -0.562713 0
M  V30 10951 O 993.445 5.66992 0.62259 0
M  V30 10952 O 992.379 5.87572 -1.30549 0
M  V30 10953 H 996.205 2.58174 -1.59938 0
M  V30 10954 H 993.79 1.2342 -0.841889 0
M  V30 10955 H 995.672 4.20731 0.237407 0
M  V30 10956 H 994.347 3.14161 0.780027 0
M  V30 10957 H 993.254 3.41795 -1.52076 0
M  V30 10958 H 994.587 4.50493 -1.98285 0
M  V30 10959 N 996.239 0.8527 1.3254 0
M  V30 10960 C 997.169 0.311234 2.31416 0
M  V30 10961 C 998.15 -0.588557 1.59593 0
M  V30 10962 O 999.335 -0.509211 1.87405 0
M  V30 10963 C 996.465 -0.502892 3.4364 0
M  V30 10964 C 995.419 0.302296 4.26931 0
M  V30 10965 C 994.745 -0.636445 5.30899 0
M  V30 10966 C 996.045 1.52697 4.99481 0
M  V30 10967 H 997.739 1.13742 2.76953 0
M  V30 10968 H 995.285 0.548389 1.33149 0
M  V30 10969 H 997.238 -0.892092 4.11849 0
M  V30 10970 H 995.962 -1.36242 2.96826 0
M  V30 10971 H 994.621 0.673226 3.60365 0
M  V30 10972 H 994.269 -1.49277 4.80339 0
M  V30 10973 H 993.969 -0.101716 5.87512 0
M  V30 10974 H 995.493 -1.02286 6.01972 0
M  V30 10975 H 996.907 1.21017 5.60382 0
M  V30 10976 H 995.304 1.9995 5.65809 0
M  V30 10977 H 996.374 2.28929 4.27457 0
M  V30 10978 N 997.718 -1.45297 0.610449 0
M  V30 10979 C 999.129 -1.85715 0.191488 0
M  V30 10980 C 999.48 -1.51036 -1.25229 0
M  V30 10981 O 998.605 -0.938422 -1.94994 0
M  V30 10982 C 999.2 -3.37082 0.340747 0
M  V30 10983 C 997.759 -3.76393 -0.0235433 0
M  V30 10984 C 996.906 -2.69237 0.663849 0
M  V30 10985 H 999.857 -1.36058 0.816948 0
M  V30 10986 H 999.878 -3.78105 -0.426233 0
M  V30 10987 H 999.39 -3.62291 1.39164 0
M  V30 10988 H 997.491 -3.56801 -1.07351 0
M  V30 10989 H 997.604 -4.77653 0.372102 0
M  V30 10990 H 995.968 -2.54499 0.101204 0
M  V30 10991 H 996.751 -2.97281 1.71694 0
M  V30 10992 N 999.196 -0.349774 -1.5367 0
M  V30 10993 C 1000.14 0.504121 -2.25227 0
M  V30 10994 C 1001.11 1.09048 -1.2529 0
M  V30 10995 O 1002.3 1.12594 -1.54037 0
M  V30 10996 C 999.438 1.64601 -3.03316 0
M  V30 10997 C 998.551 1.08635 -4.18118 0
M  V30 10998 C 997.686 2.19605 -4.83681 0
M  V30 10999 C 996.725 1.61023 -5.90541 0
M  V30 11000 N 995.862 2.6576 -6.49858 0
M  V30 11001 H 1000.7 -0.112621 -2.97787 0
M  V30 11002 H 998.239 -0.0673503 -1.46946 0
M  V30 11003 H 1000.2 2.31836 -3.46854 0
M  V30 11004 H 998.827 2.23364 -2.33041 0
M  V30 11005 H 997.879 0.304748 -3.79177 0
M  V30 11006 H 999.191 0.617911 -4.94958 0
M  V30 11007 H 998.345 2.94693 -5.30322 0
M  V30 11008 H 997.084 2.69795 -4.06278 0
M  V30 11009 H 996.089 0.844428 -5.43277 0
M  V30 11010 H 997.314 1.11677 -6.69855 0
M  V30 11011 H 995.26 3.15193 -5.75317 0
M  V30 11012 H 995.177 2.23557 -7.2219 0
M  V30 11013 H 996.445 3.40598 -7.01151 0
M  V30 11014 N 1000.67 1.57404 -0.0785433 0
M  V30 11015 C 1002.08 1.81118 0.45311 0
M  V30 11016 C 1002.44 0.992963 1.69218 0
M  V30 11017 O 1001.56 0.217448 2.15305 0
M  V30 11018 C 1002.16 3.28506 0.82882 0
M  V30 11019 C 1000.71 3.53042 1.3053 0
M  V30 11020 C 999.862 2.75739 0.29378 0
M  V30 11021 H 1002.81 1.55758 -0.304171 0
M  V30 11022 H 1002.83 3.40924 1.68971 0
M  V30 11023 H 1002.35 3.88031 -0.0731826 0
M  V30 11024 H 1000.45 2.98829 2.22558 0
M  V30 11025 H 1000.56 4.61724 1.27857 0
M  V30 11026 H 998.924 2.42703 0.772477 0
M  V30 11027 H 999.707 3.38005 -0.600613 0
M  V30 11028 N 1002.15 -0.195058 1.56388 0
M  V30 11029 C 1003.38 -0.935745 1.85091 0
M  V30 11030 C 1003.8 -1.76061 0.662118 0
M  V30 11031 O 1003.16 -1.77076 -0.389083 0
M  V30 11032 C 1003.21 -1.80764 3.1202 0
M  V30 11033 O 1002.31 -2.90643 2.92575 0
M  V30 11034 H 1001.65 -0.26351 0.609474 0
M  V30 11035 H 1004.18 -0.200362 2.03617 0
M  V30 11036 H 1004.19 -2.21229 3.42815 0
M  V30 11037 H 1002.87 -1.20157 3.98165 0
M  V30 11038 H 1001.44 -2.53934 2.73079 0
M  V30 11039 N 1003.63 -1.50653 -0.462772 0
M  V30 11040 C 1004.56 -1.73056 -1.5676 0
M  V30 11041 C 1005.54 -0.579699 -1.59917 0
M  V30 11042 O 1006.73 -0.819729 -1.76051 0
M  V30 11043 C 1003.86 -1.83234 -2.9503 0
M  V30 11044 C 1002.81 -2.98488 -3.06739 0
M  V30 11045 C 1002.14 -2.93818 -4.46738 0
M  V30 11046 C 1003.44 -4.38869 -2.83181 0
M  V30 11047 H 1005.13 -2.65562 -1.38265 0
M  V30 11048 H 1002.68 -1.27792 -0.663722 0
M  V30 11049 H 1004.63 -1.97491 -3.72257 0
M  V30 11050 H 1003.35 -0.873558 -3.14701 0
M  V30 11051 H 1002.01 -2.83895 -2.31946 0
M  V30 11052 H 1001.66 -1.95769 -4.63339 0
M  V30 11053 H 1001.36 -3.71197 -4.55507 0
M  V30 11054 H 1002.88 -3.10135 -5.25974 0
M  V30 11055 H 1004.3 -4.53945 -3.50153 0
M  V30 11056 H 1002.69 -5.17762 -3.03386 0
M  V30 11057 H 1003.76 -4.50663 -1.78972 0
M  V30 11058 N 1005.11 0.71652 -1.4037 0
M  V30 11059 C 1006.35 1.48883 -1.40047 0
M  V30 11060 C 1006.71 1.92 -0.00158027 0
M  V30 11061 O 1007.91 2.68501 0.126765 0
M  V30 11062 C 1006.18 2.68265 -2.36154 0
M  V30 11063 S 1007.74 3.57684 -2.5418 0
M  V30 11064 H 1004.56 0.509035 -0.496391 0
M  V30 11065 H 1007.16 0.837967 -1.76631 0
M  V30 11066 H 1005.87 2.34759 -3.36625 0
M  V30 11067 H 1005.4 3.38264 -2.0085 0
M  V30 11068 H 1007.41 4.62653 -1.79352 0
M  V30 11069 N 1006.59 1.25851 0.948643 0
M  V30 11070 C 1007.54 1.03437 2.03187 0
M  V30 11071 C 1008.52 -0.0307632 1.60871 0
M  V30 11072 O 1009.71 0.185296 1.76027 0
M  V30 11073 C 1006.84 0.661426 3.36868 0
M  V30 11074 C 1005.93 1.76363 3.8569 0
M  V30 11075 N 1006.32 2.9998 4.07241 0
M  V30 11076 C 1004.62 1.64552 4.14534 0
M  V30 11077 C 1005.32 3.71564 4.47566 0
M  V30 11078 N 1004.29 2.99214 4.53841 0
M  V30 11079 H 1008.1 1.97277 2.17851 0
M  V30 11080 H 1005.61 1.16258 1.13392 0
M  V30 11081 H 1007.61 0.482021 4.14104 0
M  V30 11082 H 1006.27 -0.269582 3.23579 0
M  V30 11083 H 1007.28 3.35963 3.94143 0
M  V30 11084 H 1003.95 0.783891 4.10075 0
M  V30 11085 H 1005.34 4.77702 4.72494 0
M  V30 11086 N 1008.06 -1.15214 1.07534 0
M  V30 11087 C 1009.48 -1.38031 0.801228 0
M  V30 11088 C 1009.68 -1.92556 -0.593672 0
M  V30 11089 O 1008.74 -2.1325 -1.35206 0
M  V30 11090 C 1010.05 -2.34958 1.87657 0
M  V30 11091 C 1011.6 -2.48617 1.90154 0
M  V30 11092 C 1012.07 -3.48837 2.96777 0
M  V30 11093 N 1013.56 -3.56374 2.95892 0
M  V30 11094 C 1014.3 -4.33746 3.75036 0
M  V30 11095 N 1013.79 -5.14435 4.64036 0
M  V30 11096 N 1015.59 -4.28853 3.63375 0
M  V30 11097 H 1007.74 -0.781639 1.97495 0
M  V30 11098 H 1010 -0.406243 0.856546 0
M  V30 11099 H 1009.71 -2.02013 2.87895 0
M  V30 11100 H 1009.58 -3.3476 1.73827 0
M  V30 11101 H 1011.97 -2.80859 0.905666 0
M  V30 11102 H 1012.05 -1.48808 2.08062 0
M  V30 11103 H 1011.69 -3.1733 3.96565 0
M  V30 11104 H 1011.62 -4.48406 2.76116 0
M  V30 11105 H 1014.11 -2.98784 2.31379 0
M  V30 11106 H 1014.43 -5.70722 5.21053 0
M  V30 11107 H 1012.77 -5.13734 4.68084 0
M  V30 11108 H 1015.96 -3.64882 2.93221 0
M  V30 11109 H 1016.14 -4.88903 4.25298 0
M  V30 11110 N 1009.54 -0.859717 -1.32086 0
M  V30 11111 C 1010.49 -0.296897 -2.30697 0
M  V30 11112 C 1011.48 0.582473 -1.59071 0
M  V30 11113 O 1012.69 0.469713 -1.73763 0
M  V30 11114 H 1009.07 -0.0773132 -0.748015 0
M  V30 11115 H 1011.04 -1.14273 -2.75652 0
M  V30 11116 C 1009.79 0.495546 -3.44151 0
M  V30 11117 H 1009.11 -0.171829 -3.99431 0
M  V30 11118 H 1010.55 0.854854 -4.15293 0
M  V30 11119 C 1009.01 1.68278 -2.91863 0
M  V30 11120 O 1009.54 2.78194 -2.89777 0
M  V30 11121 N 1007.74 1.51151 -2.48197 0
M  V30 11122 H 1007.29 0.617345 -2.50093 0
M  V30 11123 H 1007.25 2.3073 -2.13567 0
M  V30 11124 N 1011.02 1.44971 -0.618145 0
M  V30 11125 C 1012.25 2.07039 -0.122395 0
M  V30 11126 C 1012.67 1.45793 1.18853 0
M  V30 11127 O 1012.03 0.55453 1.72611 0
M  V30 11128 C 1012.08 3.60599 -0.0073864 0
M  V30 11129 O 1011.18 3.99069 1.04007 0
M  V30 11130 H 1010.52 0.6593 -0.0788615 0
M  V30 11131 H 1013.05 1.86055 -0.851147 0
M  V30 11132 H 1013.06 4.07569 0.187417 0
M  V30 11133 H 1011.74 4.04561 -0.964544 0
M  V30 11134 H 1010.31 3.63753 0.820879 0
M  V30 11135 N 1012.5 0.357919 1.53482 0
M  V30 11136 C 1013.45 -0.507364 2.26999 0
M  V30 11137 C 1014.44 -1.08987 1.29685 0
M  V30 11138 O 1015.65 -1.03396 1.47341 0
M  V30 11139 H 1012.02 -0.182326 0.729562 0
M  V30 11140 H 1013.99 0.134547 2.98097 0
M  V30 11141 C 1012.74 -1.63911 3.06641 0
M  V30 11142 H 1012.06 -1.20017 3.81361 0
M  V30 11143 H 1013.5 -2.21943 3.61272 0
M  V30 11144 C 1011.96 -2.57697 2.17011 0
M  V30 11145 O 1012.49 -3.60318 1.77578 0
M  V30 11146 N 1010.7 -2.2671 1.818 0
M  V30 11147 H 1010.25 -1.43296 2.14065 0
M  V30 11148 H 1010.2 -2.89716 1.22115 0
M  V30 11149 N 1013.98 -1.5736 0.0868897 0
M  V30 11150 C 1015.22 -1.9367 -0.577598 0
M  V30 11151 C 1015.55 -0.968844 -1.69229 0
M  V30 11152 O 1014.82 -0.0195061 -1.9589 0
M  V30 11153 H 1013.4 -0.714983 -0.216353 0
M  V30 11154 H 1016.06 -1.94335 0.148294 0
M  V30 11155 H 1015.15 -2.95877 -0.993128 0
M  V30 11156 N 1015.45 0.186762 -1.56489 0
M  V30 11157 C 1016.38 1.23395 -1.98232 0
M  V30 11158 C 1017.37 1.4702 -0.855526 0
M  V30 11159 O 1018.55 1.58616 -1.12048 0
M  V30 11160 C 1015.68 2.57635 -2.32898 0
M  V30 11161 C 1014.63 2.48607 -3.48394 0
M  V30 11162 C 1013.96 3.87196 -3.68759 0
M  V30 11163 C 1015.26 2.00398 -4.82325 0
M  V30 11164 H 1016.95 0.887026 -2.85958 0
M  V30 11165 H 1014.5 0.42525 -1.37578 0
M  V30 11166 H 1016.45 3.31082 -2.60696 0
M  V30 11167 H 1015.18 2.94084 -1.42064 0
M  V30 11168 H 1013.84 1.77615 -3.207 0
M  V30 11169 H 1013.48 4.21012 -2.75241 0
M  V30 11170 H 1013.18 3.82029 -4.46462 0
M  V30 11171 H 1014.71 4.62253 -3.98941 0
M  V30 11172 H 1016.12 2.6361 -5.091 0
M  V30 11173 H 1014.52 2.06214 -5.63556 0
M  V30 11174 H 1015.59 0.957562 -4.75351 0
M  V30 11175 O 1016.97 1.58053 0.331901 0
M  V30 11176 H 1017.66 1.67029 0.980866 0
M  V30 END ATOM
M  V30 BEGIN BOND
M  V30 END BOND
M  V30 END CTAB
M  END
$$$$
