drugbank_target|P60327 N-carbamoyl-D-amino acid hydrolase (DB01847; DB03364; DB04058)
 OpenBabel12092119523D

  0  0  0     0  0            999 V3000
M  V30 BEGIN CTAB
M  V30 COUNTS 4788 4851 0 0 0
M  V30 BEGIN ATOM
M  V30 1 H -0.908 1.98254 -0.117106 0
M  V30 2 N 0 1.576 0 0
M  V30 3 C 0.933 2.03868 1.02534 0
M  V30 4 C 1.911 0.928543 1.3348 0
M  V30 5 O 3.095 1.19667 1.45644 0
M  V30 6 C 0.222 2.43627 2.35294 0
M  V30 7 C -0.732 3.65373 2.2001 0
M  V30 8 S 0.101 5.13292 1.52614 0
M  V30 9 C 1.257 5.56322 2.86805 0
M  V30 10 H 1.49 2.90518 0.631377 0
M  V30 11 H -0.977 1.52953 0.210867 0
M  V30 12 H 0.981 2.67203 3.11629 0
M  V30 13 H -0.358 1.57376 2.7183 0
M  V30 14 H -1.165 3.90944 3.18086 0
M  V30 15 H -1.563 3.418 1.51819 0
M  V30 16 H 0.729 5.58782 3.83104 0
M  V30 17 H 1.672 6.56266 2.65933 0
M  V30 18 H 2.08 4.83886 2.90714 0
M  V30 19 N 1.4781 -0.272755 1.55222 0
M  V30 20 C 2.7061 -1.02255 1.79865 0
M  V30 21 C 3.1211 -1.79924 0.572088 0
M  V30 22 O 2.4781 -1.76638 -0.458842 0
M  V30 23 C 2.5291 -1.98094 3.02392 0
M  V30 24 O 2.2501 -1.23572 4.20311 0
M  V30 25 C 3.7511 -2.84884 3.39641 0
M  V30 26 H 0.9711 -0.302057 0.599168 0
M  V30 27 H 3.5151 -0.303465 2.02236 0
M  V30 28 H 1.6701 -2.65465 2.82147 0
M  V30 29 H 2.0841 -1.88172 4.89583 0
M  V30 30 H 3.5581 -3.47927 4.28545 0
M  V30 31 H 4.0351 -3.54665 2.59055 0
M  V30 32 H 4.6411 -2.23003 3.62146 0
M  V30 33 N 2.9562 -1.48159 -0.537278 0
M  V30 34 C 4.3722 -1.34118 -0.865129 0
M  V30 35 C 4.5722 -0.346678 -1.98495 0
M  V30 36 O 3.6282 0.234715 -2.51407 0
M  V30 37 C 4.9412 -2.73963 -1.23954 0
M  V30 38 C 6.4892 -2.82397 -1.34984 0
M  V30 39 C 6.9642 -4.22928 -1.75772 0
M  V30 40 N 8.4552 -4.25566 -1.82887 0
M  V30 41 C 9.1902 -5.31235 -2.15817 0
M  V30 42 N 8.6862 -6.47189 -2.47222 0
M  V30 43 N 10.4792 -5.18624 -2.16761 0
M  V30 44 H 2.6302 -2.1144 0.201715 0
M  V30 45 H 4.8932 -0.947598 0.0275949 0
M  V30 46 H 4.5992 -3.48264 -0.490381 0
M  V30 47 H 4.4732 -3.0702 -2.19132 0
M  V30 48 H 6.8602 -2.08356 -2.08978 0
M  V30 49 H 6.9412 -2.5297 -0.379448 0
M  V30 50 H 6.5852 -4.97482 -1.02341 0
M  V30 51 H 6.5152 -4.49794 -2.73848 0
M  V30 52 H 9.0062 -3.41924 -1.60924 0
M  V30 53 H 9.3192 -7.23564 -2.71433 0
M  V30 54 H 7.6642 -6.50476 -2.44757 0
M  V30 55 H 10.8552 -4.27056 -1.91679 0
M  V30 56 H 11.0282 -6.01078 -2.42093 0
M  V30 57 N 4.4343 0.785586 -1.36625 0
M  V30 58 C 5.3663 1.90711 -1.2713 0
M  V30 59 C 6.3793 1.61688 -0.189986 0
M  V30 60 O 7.5683 1.72864 -0.445014 0
M  V30 61 C 4.6683 3.25611 -0.939713 0
M  V30 62 C 3.8413 3.82385 -2.12369 0
M  V30 63 C 2.9003 4.95732 -1.76456 0
M  V30 64 O 1.9263 5.12047 -2.48589 0
M  V30 65 N 3.1283 5.76258 -0.700492 0
M  V30 66 H 5.8933 1.99376 -2.23762 0
M  V30 67 H 3.4543 0.964041 -1.30069 0
M  V30 68 H 5.4463 3.98937 -0.680554 0
M  V30 69 H 4.0163 3.12538 -0.0624074 0
M  V30 70 H 3.2363 3.01001 -2.54543 0
M  V30 71 H 4.5243 4.17047 -2.9146 0
M  V30 72 H 3.9223 5.65609 -0.101624 0
M  V30 73 H 2.4793 6.4987 -0.501165 0
M  V30 74 N 5.9124 1.20967 1.01018 0
M  V30 75 C 6.8454 0.907578 2.09376 0
M  V30 76 C 7.8234 -0.142868 1.61971 0
M  V30 77 O 9.0074 -0.0150391 1.88494 0
M  V30 78 C 6.1344 0.361791 3.36762 0
M  V30 79 C 5.1804 1.39423 4.03068 0
M  V30 80 S 6.0134 2.96159 4.4615 0
M  V30 81 C 7.1694 2.43173 5.7673 0
M  V30 82 H 7.4024 1.82519 2.34678 0
M  V30 83 H 4.9354 1.03884 1.14225 0
M  V30 84 H 6.8934 0.0534523 4.10465 0
M  V30 85 H 5.5544 -0.53443 3.0952 0
M  V30 86 H 4.7474 0.961853 4.94737 0
M  V30 87 H 4.3494 1.65038 3.35617 0
M  V30 88 H 6.6414 1.83335 6.52223 0
M  V30 89 H 7.5844 3.33264 6.24773 0
M  V30 90 H 7.9924 1.85069 5.33301 0
M  V30 91 N 7.3905 -1.2043 1.01659 0
M  V30 92 C 8.6395 -1.89118 0.701237 0
M  V30 93 C 8.9525 -1.79705 -0.772358 0
M  V30 94 O 10.1585 -2.43528 -1.20026 0
M  V30 95 C 8.6145 -3.39168 1.20388 0
M  V30 96 C 8.2225 -3.57166 2.70438 0
M  V30 97 C 9.9665 -4.1341 0.963953 0
M  V30 98 C 7.8735 -5.01042 3.14183 0
M  V30 99 H 6.8035 -0.708267 0.2586 0
M  V30 100 H 9.4545 -1.36239 1.22927 0
M  V30 101 H 7.8365 -3.91369 0.603824 0
M  V30 102 H 9.0105 -3.15351 3.35992 0
M  V30 103 H 7.3255 -2.96294 2.92572 0
M  V30 104 H 9.9225 -5.19491 1.26621 0
M  V30 105 H 10.2655 -4.16181 -0.099578 0
M  V30 106 H 10.7985 -3.67309 1.52738 0
M  V30 107 H 7.5375 -5.03426 4.19812 0
M  V30 108 H 7.0575 -5.43668 2.53348 0
M  V30 109 H 8.7365 -5.69623 3.0682 0
M  V30 110 N 8.8686 -0.792821 -1.36206 0
M  V30 111 C 9.7986 -0.207853 -2.32573 0
M  V30 112 C 10.7796 0.659055 -1.56813 0
M  V30 113 O 11.9646 0.592176 -1.84951 0
M  V30 114 C 9.0946 0.655449 -3.41059 0
M  V30 115 C 8.0486 -0.111842 -4.27854 0
M  V30 116 C 7.3746 0.872274 -5.27537 0
M  V30 117 C 8.6746 -1.30299 -5.05786 0
M  V30 118 H 10.3686 -1.01294 -2.81744 0
M  V30 119 H 7.9146 -0.48854 -1.3546 0
M  V30 120 H 9.8676 1.07464 -4.07467 0
M  V30 121 H 8.5916 1.49328 -2.90463 0
M  V30 122 H 7.2506 -0.512053 -3.63006 0
M  V30 123 H 6.8986 1.70523 -4.73214 0
M  V30 124 H 6.5986 0.363291 -5.86476 0
M  V30 125 H 8.1226 1.28996 -5.96818 0
M  V30 126 H 9.5366 -0.959379 -5.65216 0
M  V30 127 H 7.9336 -1.7455 -5.74154 0
M  V30 128 H 9.0036 -2.09663 -4.37229 0
M  V30 129 N 10.3467 1.47872 -0.545128 0
M  V30 130 C 11.3097 2.28337 0.198717 0
M  V30 131 C 12.3097 1.36255 0.853888 0
M  V30 132 O 13.4997 1.59003 0.711606 0
M  V30 133 C 10.6317 3.15585 1.28915 0
M  V30 134 H 11.8247 2.95567 -0.507941 0
M  V30 135 H 9.3777 1.53362 -0.301616 0
M  V30 136 H 10.1127 2.53019 2.02859 0
M  V30 137 H 9.8977 3.83337 0.824309 0
M  V30 138 H 11.3877 3.76243 1.81194 0
M  V30 139 N 11.8248 0.280983 1.55075 0
M  V30 140 C 13.0708 -0.33461 2.00021 0
M  V30 141 C 13.4038 -1.55063 1.16915 0
M  V30 142 O 12.6788 -1.93006 0.240646 0
M  V30 143 C 12.9618 -0.711007 3.53011 0
M  V30 144 C 12.8148 0.512766 4.46868 0
M  V30 145 C 14.1338 -1.54522 4.12081 0
M  V30 146 H 11.2528 -0.120147 0.727141 0
M  V30 147 H 13.8948 0.389097 1.85973 0
M  V30 148 H 12.0448 -1.32761 3.65112 0
M  V30 149 H 13.7168 1.15131 4.46702 0
M  V30 150 H 11.9598 1.14975 4.18286 0
M  V30 151 H 12.6308 0.205556 5.51617 0
M  V30 152 H 15.1068 -1.02442 4.03293 0
M  V30 153 H 13.9828 -1.77739 5.19327 0
M  V30 154 H 14.2438 -2.52813 3.62682 0
M  V30 155 N 13.3029 -1.57598 0.00835791 0
M  V30 156 C 14.5509 -1.90551 -0.6734 0
M  V30 157 C 14.8719 -0.883301 -1.73847 0
M  V30 158 O 14.1419 0.0781442 -1.95744 0
M  V30 159 H 12.7219 -0.703312 -0.251717 0
M  V30 160 H 15.3839 -1.94833 0.0512592 0
M  V30 161 H 14.4799 -2.9056 -1.13935 0
M  V30 162 N 14.781 0.264519 -1.55364 0
M  V30 163 C 15.713 1.34965 -1.85248 0
M  V30 164 C 16.726 1.45136 -0.737525 0
M  V30 165 O 17.915 1.46801 -1.01547 0
M  V30 166 C 15.015 2.73008 -2.00797 0
M  V30 167 C 14.188 2.85324 -3.31525 0
M  V30 168 C 13.247 4.04097 -3.37034 0
M  V30 169 O 12.273 3.94455 -4.10358 0
M  V30 170 N 13.475 5.16458 -2.65049 0
M  V30 171 H 16.24 1.09672 -2.78913 0
M  V30 172 H 13.801 0.454635 -1.55386 0
M  V30 173 H 15.793 3.50772 -2.01844 0
M  V30 174 H 14.363 2.91087 -1.1396 0
M  V30 175 H 13.583 1.94377 -3.42945 0
M  V30 176 H 14.871 2.9049 -4.17724 0
M  V30 177 H 14.269 5.27181 -2.05175 0
M  V30 178 H 12.826 5.92422 -2.71809 0
M  V30 179 N 16.2591 1.48442 0.529413 0
M  V30 180 C 17.1911 1.59095 1.64989 0
M  V30 181 C 18.2041 0.475212 1.5571 0
M  V30 182 O 19.3931 0.746081 1.6216 0
M  V30 183 C 16.4931 1.50518 3.0364 0
M  V30 184 C 15.6661 2.77142 3.38395 0
M  V30 185 C 14.7251 2.62012 4.56329 0
M  V30 186 O 13.7511 3.35898 4.59522 0
M  V30 187 N 14.9531 1.71667 5.54536 0
M  V30 188 H 17.7181 2.55723 1.56287 0
M  V30 189 H 15.2791 1.45173 0.716697 0
M  V30 190 H 17.2711 1.38091 3.80412 0
M  V30 191 H 15.8411 0.618627 3.06418 0
M  V30 192 H 15.0611 3.0413 2.50796 0
M  V30 193 H 16.3491 3.61146 3.58401 0
M  V30 194 H 15.7471 1.10841 5.54735 0
M  V30 195 H 14.3041 1.65178 6.30523 0
M  V30 196 N 17.7372 -0.778329 1.37039 0
M  V30 197 C 18.9852 -1.53361 1.31623 0
M  V30 198 C 19.3062 -1.94739 -0.100831 0
M  V30 199 O 18.5762 -1.65797 -1.04347 0
M  V30 200 H 17.1562 -0.568794 0.484234 0
M  V30 201 H 19.8182 -0.926742 1.71457 0
M  V30 202 H 18.9142 -2.43606 1.95096 0
M  V30 203 N 19.2153 -1.21501 -1.00376 0
M  V30 204 C 20.6263 -1.03146 -1.55621 0
M  V30 205 C 20.9773 0.408375 -1.91903 0
M  V30 206 O 20.1023 1.29177 -1.73616 0
M  V30 207 C 20.6973 -1.86612 -2.82775 0
M  V30 208 C 19.2563 -1.72586 -3.34501 0
M  V30 209 C 18.4033 -1.83747 -2.07683 0
M  V30 210 H 21.3543 -1.35505 -0.826081 0
M  V30 211 H 21.3753 -1.3771 -3.54706 0
M  V30 212 H 20.8873 -2.91399 -2.56336 0
M  V30 213 H 18.9883 -0.704877 -3.65872 0
M  V30 214 H 19.1013 -2.54623 -4.05837 0
M  V30 215 H 17.4653 -1.27069 -2.20739 0
M  V30 216 H 18.2483 -2.90044 -1.83655 0
M  V30 217 N 20.6934 1.19889 -1.02296 0
M  V30 218 C 21.9424 1.88743 -0.711257 0
M  V30 219 C 22.2554 1.80112 0.762817 0
M  V30 220 O 23.4614 2.44161 1.18733 0
M  V30 221 C 21.9174 3.38525 -1.22185 0
M  V30 222 C 21.5254 3.55727 -2.72328 0
M  V30 223 C 23.2694 4.12893 -0.985864 0
M  V30 224 C 21.1764 4.99369 -3.16835 0
M  V30 225 H 20.1064 0.706885 -0.262353 0
M  V30 226 H 22.7574 1.35586 -1.23648 0
M  V30 227 H 21.1394 3.91044 -0.624571 0
M  V30 228 H 22.3134 3.13564 -3.3766 0
M  V30 229 H 20.6284 2.94739 -2.9414 0
M  V30 230 H 23.2254 5.18813 -1.29374 0
M  V30 231 H 23.5684 4.16228 0.0775055 0
M  V30 232 H 24.1014 3.66494 -1.54684 0
M  V30 233 H 20.8404 5.01193 -4.22476 0
M  V30 234 H 20.3604 5.42317 -2.56228 0
M  V30 235 H 22.0394 5.67988 -3.09837 0
M  V30 236 N 22.1715 0.800033 1.35784 0
M  V30 237 C 23.1345 0.211565 2.28221 0
M  V30 238 C 24.1345 -0.59728 1.49296 0
M  V30 239 O 25.3245 -0.416721 1.69142 0
M  V30 240 C 22.4565 -0.705846 3.33513 0
M  V30 241 H 23.6495 1.02677 2.81776 0
M  V30 242 H 21.2025 0.570211 1.45528 0
M  V30 243 H 21.9375 -1.54498 2.85133 0
M  V30 244 H 21.7225 -0.127655 3.91892 0
M  V30 245 H 23.2125 -1.11211 4.02519 0
M  V30 246 N 23.6496 -1.47581 0.552962 0
M  V30 247 C 25.0656 -1.5818 0.212424 0
M  V30 248 C 25.2656 -1.55213 -1.28496 0
M  V30 249 O 24.3216 -1.45329 -2.06484 0
M  V30 250 C 25.6346 -2.88865 0.835318 0
M  V30 251 C 27.1826 -3.0244 0.806156 0
M  V30 252 C 27.6576 -4.35819 1.40804 0
M  V30 253 N 29.1486 -4.42444 1.37103 0
M  V30 254 C 29.8836 -5.44202 1.80641 0
M  V30 255 N 29.3796 -6.52795 2.32015 0
M  V30 256 N 31.1726 -5.35222 1.71738 0
M  V30 257 H 23.3236 -1.47753 1.52587 0
M  V30 258 H 25.5866 -0.702941 0.636064 0
M  V30 259 H 25.2926 -2.9676 1.88749 0
M  V30 260 H 25.1666 -3.7579 0.325848 0
M  V30 261 H 27.5536 -2.94144 -0.237317 0
M  V30 262 H 27.6346 -2.17068 1.35334 0
M  V30 263 H 27.2786 -4.44871 2.45056 0
M  V30 264 H 27.2086 -5.19916 0.836338 0
M  V30 265 H 29.6996 -3.6456 0.995202 0
M  V30 266 H 30.0126 -7.26609 2.63171 0
M  V30 267 H 28.3576 -6.53696 2.36023 0
M  V30 268 H 31.5486 -4.49284 1.31382 0
M  V30 269 H 31.7216 -6.14389 2.05987 0
M  V30 270 N 25.1277 -0.289203 -1.54924 0
M  V30 271 C 26.0907 0.579144 -2.21762 0
M  V30 272 C 27.0907 1.07047 -1.1999 0
M  V30 273 O 28.2807 0.968384 -1.44803 0
M  V30 274 C 25.4127 1.80055 -2.8947 0
M  V30 275 H 26.6057 -0.00464908 -2.999 0
M  V30 276 H 24.1587 -0.0399306 -1.56249 0
M  V30 277 H 24.8937 2.42449 -2.15381 0
M  V30 278 H 24.6787 1.45602 -3.64064 0
M  V30 279 H 26.1687 2.41773 -3.40493 0
M  V30 280 N 26.6058 1.57591 -0.0167156 0
M  V30 281 C 27.5158 2.1291 0.98521 0
M  V30 282 C 28.5318 1.07834 1.36557 0
M  V30 283 O 29.7078 1.39826 1.44951 0
M  V30 284 C 26.7728 2.63512 2.25305 0
M  V30 285 C 25.8338 3.83256 1.93426 0
M  V30 286 C 25.0668 4.31435 3.14165 0
M  V30 287 O 25.2898 3.78851 4.26413 0
M  V30 288 O 24.2238 5.23416 2.97186 0
M  V30 289 H 28.0498 2.98772 0.544888 0
M  V30 290 H 25.6348 1.48012 0.203141 0
M  V30 291 H 27.5168 2.96183 2.99756 0
M  V30 292 H 26.1918 1.8074 2.68542 0
M  V30 293 H 25.0988 3.55531 1.16398 0
M  V30 294 H 26.4318 4.67153 1.55013 0
M  V30 295 N 28.0839 -0.256276 1.55502 0
M  V30 296 C 29.3119 -1.00342 1.8094 0
M  V30 297 C 29.7269 -1.79307 0.59114 0
M  V30 298 O 29.0839 -1.77114 -0.440081 0
M  V30 299 C 29.1349 -1.94875 3.04476 0
M  V30 300 O 28.8559 -1.19107 4.21598 0
M  V30 301 C 30.3569 -2.81266 3.42644 0
M  V30 302 H 27.5769 -0.295685 0.602338 0
M  V30 303 H 30.1209 -0.281998 2.02546 0
M  V30 304 H 28.2759 -2.62457 2.84947 0
M  V30 305 H 28.6899 -1.82969 4.91551 0
M  V30 306 H 30.1639 -3.43362 4.32211 0
M  V30 307 H 30.6409 -3.51897 2.62802 0
M  V30 308 H 31.2469 -2.1915 3.64491 0
M  V30 309 N 29.562 -1.4872 -0.521534 0
M  V30 310 C 30.978 -1.35028 -0.850855 0
M  V30 311 C 31.178 -0.367712 -1.98116 0
M  V30 312 O 30.234 0.208037 -2.51642 0
M  V30 313 C 31.547 -2.75263 -1.21041 0
M  V30 314 C 33.095 -2.83813 -1.31981 0
M  V30 315 C 33.57 -4.24769 -1.71276 0
M  V30 316 N 35.061 -4.27482 -1.78363 0
M  V30 317 C 35.796 -5.33494 -2.1017 0
M  V30 318 N 35.292 -6.49775 -2.40343 0
M  V30 319 N 37.085 -5.20894 -2.11248 0
M  V30 320 H 29.236 -2.11214 0.22413 0
M  V30 321 H 31.499 -0.947252 0.0376439 0
M  V30 322 H 31.205 -3.48765 -0.453415 0
M  V30 323 H 31.079 -3.09327 -2.15863 0
M  V30 324 H 33.466 -2.10561 -2.06756 0
M  V30 325 H 33.547 -2.53358 -0.352596 0
M  V30 326 H 33.191 -4.9854 -0.970588 0
M  V30 327 H 33.121 -4.52673 -2.69062 0
M  V30 328 H 35.612 -3.43611 -1.57288 0
M  V30 329 H 35.925 -7.26402 -2.63743 0
M  V30 330 H 34.27 -6.53035 -2.37844 0
M  V30 331 H 37.461 -4.29065 -1.87139 0
M  V30 332 H 37.634 -6.03612 -2.35704 0
M  V30 333 N 31.0401 0.771051 -1.3745 0
M  V30 334 C 31.9501 1.91538 -1.35464 0
M  V30 335 C 32.9661 1.72134 -0.254123 0
M  V30 336 O 34.1421 1.95358 -0.489626 0
M  V30 337 C 31.2071 3.26671 -1.16134 0
M  V30 338 C 30.2681 3.58723 -2.35831 0
M  V30 339 C 29.5011 4.87409 -2.17413 0
M  V30 340 O 29.7241 5.58506 -1.15876 0
M  V30 341 O 28.6581 5.18539 -3.05615 0
M  V30 342 H 32.4841 1.96165 -2.31847 0
M  V30 343 H 30.0691 0.9139 -1.18187 0
M  V30 344 H 31.9511 4.07499 -1.07345 0
M  V30 345 H 30.6261 3.22894 -0.228251 0
M  V30 346 H 29.5331 2.78127 -2.50192 0
M  V30 347 H 30.8661 3.67243 -3.27709 0
M  V30 348 N 32.5182 1.22032 0.997298 0
M  V30 349 C 33.4502 0.944263 2.08845 0
M  V30 350 C 34.4632 -0.0754663 1.62625 0
M  V30 351 O 35.6522 0.157994 1.77799 0
M  V30 352 C 32.7522 0.397723 3.36558 0
M  V30 353 C 31.9252 1.47362 4.11829 0
M  V30 354 C 30.9842 0.934951 5.17827 0
M  V30 355 O 30.0102 1.62016 5.45655 0
M  V30 356 N 31.2122 -0.245895 5.79979 0
M  V30 357 H 33.9772 1.88363 2.33109 0
M  V30 358 H 31.5382 1.12661 1.16272 0
M  V30 359 H 33.5302 0.0227771 4.04694 0
M  V30 360 H 32.1002 -0.446646 3.09393 0
M  V30 361 H 31.3202 2.02208 3.38386 0
M  V30 362 H 32.6082 2.19764 4.58891 0
M  V30 363 H 32.0062 -0.819475 5.59733 0
M  V30 364 H 30.5632 -0.562272 6.4937 0
M  V30 365 N 33.9963 -1.19345 1.0293 0
M  V30 366 C 35.2423 -1.89318 0.727083 0
M  V30 367 C 35.5753 -1.79446 -0.742483 0
M  V30 368 O 34.8503 -1.1871 -1.54072 0
M  V30 369 C 35.1333 -3.40238 1.17942 0
M  V30 370 C 34.9863 -3.58979 2.71024 0
M  V30 371 C 36.3053 -4.33479 0.760548 0
M  V30 372 H 33.4243 -0.687475 0.265606 0
M  V30 373 H 36.0663 -1.40477 1.2793 0
M  V30 374 H 34.2163 -3.81964 0.709608 0
M  V30 375 H 35.8883 -3.26421 3.25955 0
M  V30 376 H 34.1313 -3.02018 3.11396 0
M  V30 377 H 34.8023 -4.64823 2.9773 0
M  V30 378 H 37.2783 -3.99469 1.16464 0
M  V30 379 H 36.1543 -5.37664 1.10493 0
M  V30 380 H 36.4153 -4.40813 -0.337063 0
M  V30 381 N 35.4744 -0.807222 -1.35358 0
M  V30 382 C 36.7204 -0.388463 -1.99045 0
M  V30 383 C 37.0534 1.04184 -1.63888 0
M  V30 384 O 36.3284 1.72292 -0.902535 0
M  V30 385 C 36.6114 -0.572783 -3.55515 0
M  V30 386 C 36.4644 -2.04807 -4.00468 0
M  V30 387 C 37.7834 0.00114064 -4.401 0
M  V30 388 H 34.9024 -0.142619 -0.723069 0
M  V30 389 H 37.5444 -1.01687 -1.60498 0
M  V30 390 H 35.6944 -0.0378425 -3.88482 0
M  V30 391 H 37.3664 -2.64544 -3.77908 0
M  V30 392 H 35.6094 -2.54427 -3.51353 0
M  V30 393 H 36.2804 -2.12792 -5.09337 0
M  V30 394 H 38.7564 -0.455716 -4.13597 0
M  V30 395 H 37.6324 -0.157737 -5.48673 0
M  V30 396 H 37.8934 1.09488 -4.28328 0
M  V30 397 N 36.9525 1.47285 -0.560781 0
M  V30 398 C 38.1985 2.02764 -0.0381184 0
M  V30 399 C 38.5315 1.43384 1.30976 0
M  V30 400 O 37.8065 0.590733 1.85312 0
M  V30 401 C 38.0895 3.60064 0.0511427 0
M  V30 402 C 37.9425 4.2987 -1.32408 0
M  V30 403 C 39.2615 4.33439 0.762795 0
M  V30 404 H 36.3805 0.736841 -0.0153264 0
M  V30 405 H 39.0225 1.75675 -0.723759 0
M  V30 406 H 37.1725 3.83274 0.635065 0
M  V30 407 H 38.8445 4.17989 -1.95148 0
M  V30 408 H 37.0875 3.90085 -1.8978 0
M  V30 409 H 37.7585 5.38478 -1.21431 0
M  V30 410 H 40.2345 4.15243 0.266965 0
M  V30 411 H 39.1105 5.43124 0.794221 0
M  V30 412 H 39.3715 4.02915 1.81966 0
M  V30 413 N 38.4306 0.297415 1.54768 0
M  V30 414 C 39.8466 -0.0560823 1.59501 0
M  V30 415 C 40.0466 -1.52725 1.31444 0
M  V30 416 O 39.1026 -2.27947 1.08611 0
M  V30 417 C 40.4156 0.338631 2.98787 0
M  V30 418 C 41.9636 0.287097 3.11681 0
M  V30 419 C 42.4386 0.656579 4.53269 0
M  V30 420 N 43.9296 0.608977 4.59179 0
M  V30 421 C 44.6646 0.867385 5.66802 0
M  V30 422 N 44.1606 1.19157 6.82476 0
M  V30 423 N 45.9536 0.794687 5.56454 0
M  V30 424 H 38.1046 1.25624 1.71267 0
M  V30 425 H 40.3676 0.509057 0.799728 0
M  V30 426 H 40.0736 1.36263 3.2423 0
M  V30 427 H 39.9476 -0.309508 3.75928 0
M  V30 428 H 42.3346 -0.727649 2.85988 0
M  V30 429 H 42.4156 0.969809 2.36703 0
M  V30 430 H 42.0596 1.66912 4.7969 0
M  V30 431 H 41.9896 -0.0481649 5.26578 0
M  V30 432 H 44.4806 0.369198 3.76092 0
M  V30 433 H 44.7936 1.37482 7.60473 0
M  V30 434 H 43.1386 1.22958 6.84037 0
M  V30 435 H 46.3296 0.541098 4.64962 0
M  V30 436 H 46.5026 0.999445 6.40246 0
M  V30 437 N 39.9087 -1.5758 0.0250728 0
M  V30 438 C 40.8387 -2.13007 -0.956575 0
M  V30 439 C 41.8197 -1.0452 -1.342 0
M  V30 440 O 43.0047 -1.32332 -1.42133 0
M  V30 441 C 40.1347 -2.65386 -2.24026 0
M  V30 442 C 39.0887 -3.78623 -1.99571 0
M  V30 443 C 38.4147 -4.17414 -3.3417 0
M  V30 444 C 39.7147 -5.04867 -1.33814 0
M  V30 445 H 41.4087 -2.9528 -0.494991 0
M  V30 446 H 38.9547 -1.42042 -0.236651 0
M  V30 447 H 40.9077 -3.02794 -2.93076 0
M  V30 448 H 39.6317 -1.80268 -2.72343 0
M  V30 449 H 38.2907 -3.41646 -1.32941 0
M  V30 450 H 37.9387 -3.29284 -3.80238 0
M  V30 451 H 37.6387 -4.93719 -3.18615 0
M  V30 452 H 39.1627 -4.57402 -4.04495 0
M  V30 453 H 40.5767 -5.39888 -1.92857 0
M  V30 454 H 38.9737 -5.86144 -1.28669 0
M  V30 455 H 40.0437 -4.83904 -0.310561 0
M  V30 456 N 41.3868 0.248026 -1.55636 0
M  V30 457 C 42.3168 1.31079 -1.93237 0
M  V30 458 C 43.2978 1.50264 -0.797174 0
M  V30 459 O 44.4828 1.62891 -1.05737 0
M  V30 460 C 41.6128 2.66575 -2.22609 0
M  V30 461 C 40.5668 2.62087 -3.3837 0
M  V30 462 C 39.8928 4.01369 -3.53281 0
M  V30 463 C 41.1928 2.19171 -4.7409 0
M  V30 464 H 42.8868 0.998556 -2.82257 0
M  V30 465 H 40.4328 0.47891 -1.35803 0
M  V30 466 H 42.3858 3.41057 -2.47503 0
M  V30 467 H 41.1098 2.99432 -1.30414 0
M  V30 468 H 39.7688 1.90063 -3.13483 0
M  V30 469 H 39.4168 4.31489 -2.58508 0
M  V30 470 H 39.1168 3.99254 -4.31127 0
M  V30 471 H 40.6408 4.77552 -3.80495 0
M  V30 472 H 42.0548 2.83384 -4.98363 0
M  V30 473 H 40.4518 2.2817 -5.5503 0
M  V30 474 H 41.5218 1.14336 -4.71227 0
M  V30 475 N 42.8649 1.48995 0.513639 0
M  V30 476 C 44.1419 1.48338 1.27495 0
M  V30 477 C 44.5219 0.204065 2.10111 0
M  V30 478 O 43.8699 -0.813881 2.13514 0
M  V30 479 C 44.0799 2.75498 2.14247 0
M  V30 480 C 45.4279 3.24484 2.73852 0
M  V30 481 O 46.4519 2.76528 2.24523 0
M  V30 482 O 45.3109 4.07974 3.6362 0
M  V30 483 H 42.4049 0.593149 0.576284 0
M  V30 484 H 44.9509 1.61246 0.528948 0
M  V30 485 H 43.7229 3.60109 1.53092 0
M  V30 486 H 43.3459 2.6539 2.96064 0
M  V30 487 N 44.343 -0.763751 1.37857 0
M  V30 488 C 45.276 -1.88486 1.28639 0
M  V30 489 C 46.254 -1.61757 0.165363 0
M  V30 490 O 47.438 -1.85391 0.340948 0
M  V30 491 C 44.565 -3.23884 0.990811 0
M  V30 492 C 43.611 -3.69514 2.12983 0
M  V30 493 S 44.444 -3.82244 3.75033 0
M  V30 494 C 45.6 -5.20477 3.47641 0
M  V30 495 H 45.833 -1.96017 2.23527 0
M  V30 496 H 43.366 -0.925684 1.23574 0
M  V30 497 H 45.324 -4.02081 0.827101 0
M  V30 498 H 43.985 -3.14044 0.0592832 0
M  V30 499 H 43.178 -4.67696 1.87821 0
M  V30 500 H 42.78 -2.98441 2.25408 0
M  V30 501 H 45.072 -6.05905 3.03125 0
M  V30 502 H 46.015 -5.50655 4.4518 0
M  V30 503 H 46.423 -4.88793 2.82385 0
M  V30 504 N 45.8211 -1.22559 -0.990812 0
M  V30 505 C 46.7511 -1.0218 -2.09956 0
M  V30 506 C 47.7321 0.0579394 -1.70001 0
M  V30 507 O 48.9171 -0.104684 -1.93918 0
M  V30 508 C 46.0471 -0.601023 -3.4206 0
M  V30 509 C 45.0011 -1.62694 -3.95872 0
M  V30 510 C 44.3271 -1.06193 -5.24049 0
M  V30 511 C 45.6271 -3.01743 -4.2632 0
M  V30 512 H 47.3211 -1.94916 -2.27262 0
M  V30 513 H 44.8671 -0.938566 -1.09211 0
M  V30 514 H 46.8201 -0.445561 -4.19038 0
M  V30 515 H 45.5441 0.362005 -3.24588 0
M  V30 516 H 44.2031 -1.77021 -3.21028 0
M  V30 517 H 43.8511 -0.0901903 -5.02919 0
M  V30 518 H 43.5511 -1.74732 -5.61019 0
M  V30 519 H 45.0751 -0.918092 -6.03658 0
M  V30 520 H 46.4891 -2.90777 -4.94087 0
M  V30 521 H 44.8861 -3.67425 -4.74467 0
M  V30 522 H 45.9561 -3.51518 -3.34011 0
M  V30 523 N 47.2992 1.18797 -1.03562 0
M  V30 524 C 48.5272 1.92599 -0.755869 0
M  V30 525 C 48.9422 1.75886 0.686271 0
M  V30 526 O 48.2992 1.08517 1.46732 0
M  V30 527 C 48.3502 3.44159 -1.10619 0
M  V30 528 O 48.0712 3.60341 -2.4917 0
M  V30 529 C 49.5722 4.3507 -0.850214 0
M  V30 530 H 46.7922 0.611587 -0.276048 0
M  V30 531 H 49.3362 1.50742 -1.38192 0
M  V30 532 H 47.4912 3.83823 -0.525194 0
M  V30 533 H 47.9052 4.54128 -2.62427 0
M  V30 534 H 49.3792 5.39989 -1.14523 0
M  V30 535 H 49.8562 4.38673 0.215176 0
M  V30 536 H 50.4622 4.01097 -1.41426 0
M  V30 537 N 48.7773 0.814389 1.34928 0
M  V30 538 C 49.7243 0.22822 2.29669 0
M  V30 539 C 50.6943 -0.642164 1.53184 0
M  V30 540 O 51.8793 -0.585605 1.81591 0
M  V30 541 C 49.0193 -0.61089 3.3965 0
M  V30 542 C 48.1323 0.280792 4.31086 0
M  V30 543 C 47.2673 -0.567067 5.28165 0
M  V30 544 C 46.3063 0.324531 6.11239 0
M  V30 545 N 45.4433 -0.483756 7.00431 0
M  V30 546 H 50.2833 1.04153 2.79206 0
M  V30 547 H 47.8203 0.525133 1.37407 0
M  V30 548 H 49.7783 -1.11263 4.0209 0
M  V30 549 H 48.4083 -1.38939 2.91369 0
M  V30 550 H 47.4603 0.900688 3.69583 0
M  V30 551 H 48.7723 0.966723 4.89342 0
M  V30 552 H 47.9263 -1.13363 5.96015 0
M  V30 553 H 46.6653 -1.28654 4.70425 0
M  V30 554 H 45.6703 0.903298 5.42329 0
M  V30 555 H 46.8953 1.04198 6.71059 0
M  V30 556 H 44.8413 -1.18706 6.45171 0
M  V30 557 H 44.7583 0.143965 7.55863 0
M  V30 558 H 46.0263 -1.03334 7.7262 0
M  V30 559 N 50.2554 -1.46986 0.568584 0
M  V30 560 C 51.2184 -2.28624 -0.162366 0
M  V30 561 C 52.2184 -1.37596 -0.832103 0
M  V30 562 O 53.4084 -1.60115 -0.68622 0
M  V30 563 C 50.5404 -3.17596 -1.23878 0
M  V30 564 H 51.7334 -2.94722 0.554899 0
M  V30 565 H 49.2864 -1.52863 0.325976 0
M  V30 566 H 50.0214 -2.56214 -1.98808 0
M  V30 567 H 49.8064 -3.846 -0.763219 0
M  V30 568 H 51.2964 -3.79078 -1.75185 0
M  V30 569 N 51.7335 -0.305618 -1.54608 0
M  V30 570 C 52.6965 0.555591 -2.22364 0
M  V30 571 C 53.6965 1.05768 -1.21119 0
M  V30 572 O 54.8865 0.952972 -1.45822 0
M  V30 573 C 52.0185 1.76974 -2.91364 0
M  V30 574 H 53.2115 -0.0364572 -2.99878 0
M  V30 575 H 50.7645 -0.0565007 -1.56198 0
M  V30 576 H 51.4995 2.40151 -2.17941 0
M  V30 577 H 51.2845 1.41732 -3.65588 0
M  V30 578 H 52.7745 2.38148 -3.43038 0
M  V30 579 N 53.2116 1.57565 -0.0334293 0
M  V30 580 C 54.4366 1.96689 0.657895 0
M  V30 581 C 54.8616 0.910057 1.64619 0
M  V30 582 O 54.2196 -0.128598 1.80843 0
M  V30 583 C 54.2676 3.34905 1.33683 0
M  V30 584 O 53.3716 3.31574 2.45219 0
M  V30 585 H 52.7126 0.641205 0.172489 0
M  V30 586 H 55.2426 2.04372 -0.0965621 0
M  V30 587 H 55.2526 3.71234 1.69262 0
M  V30 588 H 53.9276 4.11366 0.612411 0
M  V30 589 H 52.5046 3.06968 2.11719 0
M  V30 590 N 54.6897 -0.239769 1.55765 0
M  V30 591 C 56.1057 -0.588624 1.48349 0
M  V30 592 C 56.3057 -1.88005 0.72502 0
M  V30 593 O 55.3617 -2.51186 0.257269 0
M  V30 594 C 56.6747 -0.68474 2.928 0
M  V30 595 C 58.2227 -0.77659 3.03213 0
M  V30 596 C 58.6977 -0.904207 4.48986 0
M  V30 597 N 60.1887 -0.968896 4.52953 0
M  V30 598 C 60.9237 -1.08703 5.63002 0
M  V30 599 N 60.4197 -1.17026 6.82845 0
M  V30 600 N 62.2127 -1.12074 5.50814 0
M  V30 601 H 54.3637 0.607911 2.03515 0
M  V30 602 H 56.6267 0.21083 0.924259 0
M  V30 603 H 56.3327 0.194284 3.51163 0
M  V30 604 H 56.2067 -1.55435 3.43686 0
M  V30 605 H 58.5937 -1.64606 2.44926 0
M  V30 606 H 58.6747 0.118315 2.55526 0
M  V30 607 H 58.3187 -0.0392633 5.07885 0
M  V30 608 H 58.2487 -1.81426 4.9436 0
M  V30 609 H 60.7397 -0.915633 3.6664 0
M  V30 610 H 61.0527 -1.25966 7.62465 0
M  V30 611 H 59.3977 -1.13971 6.85591 0
M  V30 612 H 62.5887 -1.05226 4.5612 0
M  V30 613 H 62.7617 -1.20936 6.36615 0
M  V30 614 N 56.1678 -1.49265 -0.50573 0
M  V30 615 C 57.4158 -1.582 -1.25766 0
M  V30 616 C 57.7368 -0.268482 -1.93143 0
M  V30 617 O 57.0068 0.711833 -1.8251 0
M  V30 618 H 55.5868 -0.582873 -0.467191 0
M  V30 619 H 58.2488 -1.85865 -0.586525 0
M  V30 620 H 57.3448 -2.37563 -2.02412 0
M  V30 621 N 57.6459 0.756429 -1.3826 0
M  V30 622 C 58.6089 1.85176 -1.35065 0
M  V30 623 C 59.6089 1.58818 -0.251703 0
M  V30 624 O 60.7989 1.66615 -0.508433 0
M  V30 625 C 57.9309 3.22596 -1.10201 0
M  V30 626 H 59.1239 1.89417 -2.3251 0
M  V30 627 H 56.6769 0.95783 -1.23512 0
M  V30 628 H 57.4119 3.24025 -0.133504 0
M  V30 629 H 57.1969 3.43122 -1.89762 0
M  V30 630 H 58.6869 4.02673 -1.10654 0
M  V30 631 N 59.124 1.23083 0.984299 0
M  V30 632 C 60.072 1.00593 2.09723 0
M  V30 633 C 61.066 -0.0538014 1.69315 0
M  V30 634 O 62.272 0.0993719 1.79725 0
M  V30 635 H 58.647 0.30817 0.685956 0
M  V30 636 H 60.618 1.95012 2.2586 0
M  V30 637 C 59.367 0.609601 3.42314 0
M  V30 638 H 58.69 1.41675 3.73856 0
M  V30 639 H 60.13 0.491726 4.21139 0
M  V30 640 C 58.589 -0.681745 3.2993 0
M  V30 641 O 59.119 -1.73192 3.62446 0
M  V30 642 N 57.325 -0.656178 2.83095 0
M  V30 643 H 56.872 0.198759 2.56832 0
M  V30 644 H 56.83 -1.52044 2.75191 0
M  V30 645 N 60.6021 -1.18246 1.0419 0
M  V30 646 C 61.8491 -1.88257 0.746017 0
M  V30 647 C 62.1771 -1.80429 -0.726331 0
M  V30 648 O 61.4321 -1.2 -1.54591 0
M  V30 649 C 61.7311 -3.38082 1.15911 0
M  V30 650 C 61.3971 -3.66114 2.63195 0
M  V30 651 C 60.0591 -3.73474 3.03432 0
M  V30 652 C 62.4111 -3.78398 3.5842 0
M  V30 653 C 59.7391 -3.90599 4.37778 0
M  V30 654 C 62.0911 -3.97039 4.92487 0
M  V30 655 C 60.7551 -4.02635 5.32392 0
M  V30 656 H 60.0251 -0.688883 0.272987 0
M  V30 657 H 62.6721 -1.3995 1.30715 0
M  V30 658 H 60.9771 -3.88377 0.516806 0
M  V30 659 H 62.6741 -3.90596 0.907516 0
M  V30 660 H 59.2641 -3.61003 2.3103 0
M  V30 661 H 63.4481 -3.72042 3.28479 0
M  V30 662 H 58.7041 -3.93175 4.68213 0
M  V30 663 H 62.8781 -4.05486 5.66175 0
M  V30 664 H 60.5051 -4.15657 6.36501 0
M  V30 665 N 62.0802 -0.821533 -1.34494 0
M  V30 666 C 63.3292 -0.405355 -1.97585 0
M  V30 667 C 63.6422 1.03677 -1.65863 0
M  V30 668 O 64.8482 1.55679 -2.22433 0
M  V30 669 C 63.3042 -0.673861 -3.53535 0
M  V30 670 C 62.9122 -2.12951 -3.94152 0
M  V30 671 C 64.6562 -0.32378 -4.23263 0
M  V30 672 C 62.5632 -2.34298 -5.43009 0
M  V30 673 H 61.4932 -0.147836 -0.739365 0
M  V30 674 H 64.1442 -1.00769 -1.53355 0
M  V30 675 H 62.5262 -0.00137554 -3.96 0
M  V30 676 H 63.7002 -2.84104 -3.62797 0
M  V30 677 H 62.0152 -2.44089 -3.37356 0
M  V30 678 H 64.6122 -0.461126 -5.32708 0
M  V30 679 H 64.9552 0.731586 -4.09821 0
M  V30 680 H 65.4882 -0.950786 -3.8627 0
M  V30 681 H 62.2272 -3.38335 -5.61435 0
M  V30 682 H 61.7472 -1.67687 -5.75883 0
M  V30 683 H 63.4262 -2.16588 -6.09671 0
M  V30 684 N 63.5583 1.46682 -0.576371 0
M  V30 685 C 64.8043 2.02712 -0.0596221 0
M  V30 686 C 65.1373 1.44765 1.29448 0
M  V30 687 O 64.4123 0.610355 1.84675 0
M  V30 688 C 64.6953 3.60098 0.0129503 0
M  V30 689 C 64.5483 4.28441 -1.3696 0
M  V30 690 C 65.8673 4.34224 0.71678 0
M  V30 691 H 62.9863 0.736637 -0.0231407 0
M  V30 692 H 65.6283 1.74898 -0.742351 0
M  V30 693 H 63.7783 3.83926 0.594378 0
M  V30 694 H 65.4503 4.15896 -1.9957 0
M  V30 695 H 63.6933 3.8805 -1.93907 0
M  V30 696 H 64.3643 5.3716 -1.27135 0
M  V30 697 H 66.8403 4.15503 0.222908 0
M  V30 698 H 65.7163 5.43936 0.73657 0
M  V30 699 H 65.9773 4.04823 1.77682 0
M  V30 700 N 65.0364 0.313813 1.54444 0
M  V30 701 C 66.2834 -0.291675 2.00388 0
M  V30 702 C 66.6114 -1.52904 1.2021 0
M  V30 703 O 65.8664 -1.93833 0.269707 0
M  V30 704 C 66.1654 -0.680386 3.50864 0
M  V30 705 C 65.8314 0.456699 4.48581 0
M  V30 706 C 64.4934 0.768824 4.75018 0
M  V30 707 C 66.8454 1.22098 5.06697 0
M  V30 708 C 64.1734 1.84812 5.56831 0
M  V30 709 C 66.5254 2.29029 5.89685 0
M  V30 710 C 65.1894 2.60834 6.14428 0
M  V30 711 H 64.4594 -0.106732 0.733273 0
M  V30 712 H 67.1064 0.43557 1.86481 0
M  V30 713 H 65.4114 -1.48791 3.62448 0
M  V30 714 H 67.1084 -1.16026 3.83847 0
M  V30 715 H 63.6984 0.203337 4.28117 0
M  V30 716 H 67.8824 0.993096 4.86263 0
M  V30 717 H 63.1384 2.09912 5.74236 0
M  V30 718 H 67.3124 2.887 6.33739 0
M  V30 719 H 64.9394 3.44596 6.77612 0
M  V30 720 N 66.5145 -1.57545 0.0417849 0
M  V30 721 C 67.9255 -1.80011 -0.495259 0
M  V30 722 C 68.2765 -0.953199 -1.71489 0
M  V30 723 O 67.4015 -0.167138 -2.15754 0
M  V30 724 C 67.9965 -3.26482 -0.905265 0
M  V30 725 C 66.5555 -3.499 -1.38734 0
M  V30 726 C 65.7025 -2.74979 -0.358056 0
M  V30 727 H 68.6535 -1.56425 0.267736 0
M  V30 728 H 68.6745 -3.36887 -1.76882 0
M  V30 729 H 68.1865 -3.88096 -0.017401 0
M  V30 730 H 66.2875 -2.93553 -2.29471 0
M  V30 731 H 66.4005 -4.58615 -1.38598 0
M  V30 732 H 64.7645 -2.40834 -0.828912 0
M  V30 733 H 65.5475 -3.39315 0.521561 0
M  V30 734 N 67.9926 0.231505 -1.5589 0
M  V30 735 C 68.9026 1.308 -1.94752 0
M  V30 736 C 69.9186 1.51826 -0.849989 0
M  V30 737 O 71.0946 1.6515 -1.15271 0
M  V30 738 C 68.1596 2.63968 -2.24771 0
M  V30 739 C 67.2206 2.51331 -3.48039 0
M  V30 740 C 66.4536 3.78148 -3.76616 0
M  V30 741 O 66.6766 4.80722 -3.07022 0
M  V30 742 O 65.6106 3.75857 -4.70123 0
M  V30 743 H 69.4366 1.0083 -2.86474 0
M  V30 744 H 67.0216 0.433547 -1.42971 0
M  V30 745 H 68.9036 3.42633 -2.45318 0
M  V30 746 H 67.5786 2.9364 -1.36225 0
M  V30 747 H 66.4856 1.709 -3.32782 0
M  V30 748 H 67.8186 2.26601 -4.36936 0
M  V30 749 N 69.4707 1.49531 0.497807 0
M  V30 750 C 70.4007 1.6935 1.60757 0
M  V30 751 C 71.3817 0.542218 1.61227 0
M  V30 752 O 72.5667 0.778417 1.77917 0
M  V30 753 C 69.6967 1.76298 2.99226 0
M  V30 754 C 68.6507 2.91248 3.13622 0
M  V30 755 C 67.9767 2.83312 4.53474 0
M  V30 756 C 69.2767 4.3214 2.93346 0
M  V30 757 H 70.9707 2.62263 1.44425 0
M  V30 758 H 68.5167 1.26208 0.693367 0
M  V30 759 H 70.4697 1.88749 3.76765 0
M  V30 760 H 69.1937 0.799871 3.16654 0
M  V30 761 H 67.8527 2.78404 2.38509 0
M  V30 762 H 67.5007 1.84902 4.67782 0
M  V30 763 H 67.2007 3.60465 4.64046 0
M  V30 764 H 68.7247 2.97775 5.33069 0
M  V30 765 H 70.1387 4.45649 3.60652 0
M  V30 766 H 68.5357 5.1054 3.15387 0
M  V30 767 H 69.6057 4.46363 1.89441 0
M  V30 768 N 70.9488 -0.749086 1.3866 0
M  V30 769 C 71.9118 -1.84457 1.36045 0
M  V30 770 C 72.9118 -1.58682 0.260122 0
M  V30 771 O 74.1018 -1.66343 0.517261 0
M  V30 772 C 71.2338 -3.22008 1.11911 0
M  V30 773 H 72.4268 -1.88182 2.33512 0
M  V30 774 H 69.9798 -0.951266 1.24019 0
M  V30 775 H 70.7148 -3.2395 0.150686 0
M  V30 776 H 70.4998 -3.42111 1.91579 0
M  V30 777 H 71.9898 -4.0208 1.12788 0
M  V30 778 N 72.4269 -1.23603 -0.977757 0
M  V30 779 C 73.3569 -1.04401 -2.0886 0
M  V30 780 C 74.3379 0.0399052 -1.70053 0
M  V30 781 O 75.5229 -0.125246 -1.93796 0
M  V30 782 C 72.6529 -0.637269 -3.41403 0
M  V30 783 C 71.6069 -1.66883 -3.94124 0
M  V30 784 C 70.9329 -1.11745 -5.22893 0
M  V30 785 C 72.2329 -3.06247 -4.23096 0
M  V30 786 H 73.9269 -1.97316 -2.25182 0
M  V30 787 H 71.4729 -0.950096 -1.08209 0
M  V30 788 H 73.4259 -0.48998 -4.18542 0
M  V30 789 H 72.1499 0.327557 -3.24953 0
M  V30 790 H 70.8089 -1.80416 -3.19133 0
M  V30 791 H 70.4569 -0.143527 -5.02795 0
M  V30 792 H 70.1569 -1.80672 -5.59134 0
M  V30 793 H 71.6809 -0.982067 -6.02651 0
M  V30 794 H 73.0949 -2.96001 -4.90975 0
M  V30 795 H 71.4919 -3.72436 -4.70544 0
M  V30 796 H 72.5619 -3.55041 -3.30263 0
M  V30 797 N 73.905 1.17692 -1.04816 0
M  V30 798 C 75.133 1.91786 -0.776254 0
M  V30 799 C 75.548 1.76604 0.667577 0
M  V30 800 O 74.905 1.10067 1.45573 0
M  V30 801 C 74.956 3.42967 -1.14263 0
M  V30 802 O 74.677 3.57678 -2.52978 0
M  V30 803 C 76.178 4.34144 -0.896311 0
M  V30 804 H 73.398 0.608624 -0.282519 0
M  V30 805 H 75.942 1.49268 -1.39783 0
M  V30 806 H 74.097 3.83245 -0.565874 0
M  V30 807 H 74.511 4.51319 -2.67229 0
M  V30 808 H 75.985 5.38744 -1.20244 0
M  V30 809 H 76.462 4.38876 0.168636 0
M  V30 810 H 77.068 3.99574 -1.45672 0
M  V30 811 N 75.3831 0.828654 1.34056 0
M  V30 812 C 76.6111 0.43262 2.02326 0
M  V30 813 C 77.0261 -0.963147 1.62385 0
M  V30 814 O 76.3831 -1.62425 0.832121 0
M  V30 815 C 76.4341 0.53182 3.57567 0
M  V30 816 O 76.1551 1.87258 3.96063 0
M  V30 817 C 77.6561 0.131422 4.43105 0
M  V30 818 H 74.8761 0.172923 0.648335 0
M  V30 819 H 77.4201 1.1184 1.71208 0
M  V30 820 H 75.5751 -0.105938 3.87255 0
M  V30 821 H 75.9891 1.85087 4.90758 0
M  V30 822 H 77.4631 0.251904 5.51425 0
M  V30 823 H 77.9401 -0.925645 4.29335 0
M  V30 824 H 78.5461 0.743207 4.18756 0
M  V30 825 N 76.8612 -1.46375 0.584142 0
M  V30 826 C 78.1082 -2.02378 0.0702675 0
M  V30 827 C 78.4362 -1.45545 -1.29023 0
M  V30 828 O 77.6912 -0.610967 -1.85918 0
M  V30 829 C 77.9902 -3.57373 -0.0439342 0
M  V30 830 C 77.6562 -4.33252 1.24915 0
M  V30 831 C 76.3182 -4.53701 1.60341 0
M  V30 832 C 78.6702 -4.7681 2.1048 0
M  V30 833 C 75.9982 -5.1496 2.81128 0
M  V30 834 C 78.3502 -5.39404 3.30494 0
M  V30 835 C 77.0142 -5.5808 3.66201 0
M  V30 836 H 76.2842 -0.740554 0.0257127 0
M  V30 837 H 78.9312 -1.75727 0.761065 0
M  V30 838 H 77.2362 -3.83169 -0.817869 0
M  V30 839 H 78.9332 -3.98384 -0.457318 0
M  V30 840 H 75.5232 -4.17633 0.963364 0
M  V30 841 H 79.7072 -4.60766 1.84414 0
M  V30 842 H 74.9632 -5.27611 3.08928 0
M  V30 843 H 79.1372 -5.72114 3.97063 0
M  V30 844 H 76.7642 -6.05318 4.59885 0
M  V30 845 N 78.3393 -0.321999 -1.54275 0
M  V30 846 C 79.5863 0.281044 -2.0054 0
M  V30 847 C 79.9143 1.52265 -1.21019 0
M  V30 848 O 79.1693 1.93687 -0.279982 0
M  V30 849 C 79.4683 0.661769 -3.5122 0
M  V30 850 C 79.1343 -0.480482 -4.48333 0
M  V30 851 C 77.7963 -0.794005 -4.74604 0
M  V30 852 C 80.1483 -1.24783 -5.06042 0
M  V30 853 C 77.4763 -1.87763 -5.55844 0
M  V30 854 C 79.8283 -2.32153 -5.88462 0
M  V30 855 C 78.4923 -2.64089 -6.13036 0
M  V30 856 H 77.7623 0.102841 -0.733829 0
M  V30 857 H 80.4093 -0.445453 -1.86247 0
M  V30 858 H 78.7143 1.46867 -3.63232 0
M  V30 859 H 80.4113 1.13989 -3.84457 0
M  V30 860 H 77.0013 -0.226039 -4.28004 0
M  V30 861 H 81.1853 -1.01887 -4.85729 0
M  V30 862 H 76.4413 -2.12954 -5.73115 0
M  V30 863 H 80.6153 -2.92057 -6.32199 0
M  V30 864 H 78.2423 -3.48185 -6.75775 0
M  V30 865 N 79.8174 1.5752 -0.0501392 0
M  V30 866 C 81.2284 1.80271 0.485705 0
M  V30 867 C 81.5794 0.96228 1.70981 0
M  V30 868 O 80.7044 0.178578 2.15662 0
M  V30 869 C 81.2994 3.26957 0.887938 0
M  V30 870 C 79.8584 3.5063 1.36877 0
M  V30 871 C 79.0054 2.75165 0.343468 0
M  V30 872 H 81.9564 1.56281 -0.276028 0
M  V30 873 H 81.9774 3.37821 1.75093 0
M  V30 874 H 81.4894 3.881 -0.0031809 0
M  V30 875 H 79.5904 2.94766 2.27911 0
M  V30 876 H 79.7034 4.59343 1.36164 0
M  V30 877 H 78.0674 2.4127 0.816128 0
M  V30 878 H 78.8504 3.39034 -0.539548 0
M  V30 879 N 81.2955 -0.223234 1.56011 0
M  V30 880 C 82.7115 -0.572856 1.48965 0
M  V30 881 C 82.9115 -1.87225 0.74492 0
M  V30 882 O 81.9675 -2.50899 0.283896 0
M  V30 883 C 83.2805 -0.653646 2.9351 0
M  V30 884 C 84.8285 -0.744386 3.0402 0
M  V30 885 C 85.3035 -0.856535 4.49919 0
M  V30 886 N 86.7945 -0.9208 4.53955 0
M  V30 887 C 87.5295 -1.02726 5.64123 0
M  V30 888 N 87.0255 -1.09777 6.84047 0
M  V30 889 N 88.8185 -1.06226 5.51971 0
M  V30 890 H 80.9695 0.629462 2.02858 0
M  V30 891 H 83.2325 0.220621 0.921971 0
M  V30 892 H 82.9385 0.231518 3.50937 0
M  V30 893 H 82.8125 -1.51781 3.45315 0
M  V30 894 H 85.1995 -1.61999 2.46658 0
M  V30 895 H 85.2805 0.14541 2.55386 0
M  V30 896 H 84.9245 0.0146069 5.07898 0
M  V30 897 H 84.8545 -1.76172 4.96257 0
M  V30 898 H 87.3455 -0.876694 3.6759 0
M  V30 899 H 87.6585 -1.17872 7.63758 0
M  V30 900 H 86.0035 -1.06693 6.86762 0
M  V30 901 H 89.1945 -1.00382 4.5721 0
M  V30 902 H 89.3675 -1.14177 6.37862 0
M  V30 903 N 82.7736 -1.49793 -0.48987 0
M  V30 904 C 84.0196 -1.61049 -1.24236 0
M  V30 905 C 84.3746 -0.298412 -1.90072 0
M  V30 906 O 83.6676 0.702262 -1.78266 0
M  V30 907 C 83.8616 -2.71488 -2.32441 0
M  V30 908 C 83.6906 -4.13308 -1.77218 0
M  V30 909 C 82.4606 -4.79955 -1.58023 0
M  V30 910 C 84.6586 -4.98176 -1.27772 0
M  V30 911 N 82.6406 -6.06052 -0.978465 0
M  V30 912 C 84.0116 -6.14843 -0.798 0
M  V30 913 C 86.0666 -4.84091 -1.16449 0
M  V30 914 C 84.7696 -7.18975 -0.216245 0
M  V30 915 C 86.7956 -5.88382 -0.596698 0
M  V30 916 C 86.1576 -7.04285 -0.127262 0
M  V30 917 H 82.2566 -0.643611 -0.444172 0
M  V30 918 H 84.8406 -1.86842 -0.54754 0
M  V30 919 H 83.0116 -2.47449 -2.99372 0
M  V30 920 H 84.7436 -2.72205 -2.99477 0
M  V30 921 H 81.4986 -4.36936 -1.82712 0
M  V30 922 H 81.9226 -6.73407 -0.696534 0
M  V30 923 H 86.5646 -3.94786 -1.5134 0
M  V30 924 H 84.2826 -8.0797 0.144903 0
M  V30 925 H 87.8686 -5.79545 -0.511716 0
M  V30 926 H 86.7486 -7.83606 0.30523 0
M  V30 927 N 84.2517 0.741722 -1.39055 0
M  V30 928 C 85.2017 1.84661 -1.33732 0
M  V30 929 C 86.1857 1.59397 -0.219401 0
M  V30 930 O 87.3777 1.71015 -0.456375 0
M  V30 931 C 84.5067 3.22512 -1.17647 0
M  V30 932 C 83.5927 3.53628 -2.34112 0
M  V30 933 N 83.9837 3.55723 -3.59576 0
M  V30 934 C 82.2817 3.83956 -2.26923 0
M  V30 935 C 82.9827 3.84443 -4.36553 0
M  V30 936 N 81.9587 4.01877 -3.66055 0
M  V30 937 H 85.7607 1.84576 -2.28711 0
M  V30 938 H 83.2747 0.939647 -1.32455 0
M  V30 939 H 85.2717 4.01597 -1.11917 0
M  V30 940 H 83.9317 3.2384 -0.236124 0
M  V30 941 H 84.9427 3.37196 -3.93089 0
M  V30 942 H 81.6197 3.92929 -1.41113 0
M  V30 943 H 83.0097 3.92588 -5.45274 0
M  V30 944 N 85.7298 1.2412 0.971189 0
M  V30 945 C 86.9768 1.07881 1.71371 0
M  V30 946 C 87.3048 -0.382901 1.90694 0
M  V30 947 O 86.5598 -1.29945 1.46331 0
M  V30 948 C 86.8588 1.75983 3.11071 0
M  V30 949 C 86.5248 3.25909 3.11599 0
M  V30 950 C 85.1868 3.66813 3.11451 0
M  V30 951 C 87.5388 4.21771 3.062 0
M  V30 952 C 84.8668 5.02021 3.03631 0
M  V30 953 C 87.2188 5.56982 2.99923 0
M  V30 954 C 85.8828 5.97237 2.98102 0
M  V30 955 H 85.1528 0.394764 0.62709 0
M  V30 956 H 87.7998 1.54176 1.13587 0
M  V30 957 H 86.1048 1.22072 3.72298 0
M  V30 958 H 87.8018 1.60887 3.6731 0
M  V30 959 H 84.3918 2.93353 3.12477 0
M  V30 960 H 88.5758 3.91172 3.05447 0
M  V30 961 H 83.8318 5.32411 3.0058 0
M  V30 962 H 88.0058 6.30969 2.94704 0
M  V30 963 H 85.6328 7.01967 2.91798 0
M  V30 964 N 87.2079 -1.17134 1.05439 0
M  V30 965 C 88.4359 -1.91372 0.786414 0
M  V30 966 C 88.8509 -1.76955 -0.658202 0
M  V30 967 O 88.2079 -1.10838 -1.44987 0
M  V30 968 C 88.2589 -3.42356 1.1608 0
M  V30 969 O 87.9799 -3.56332 2.54871 0
M  V30 970 C 89.4809 -4.33663 0.919322 0
M  V30 971 H 86.7009 -0.607118 0.285743 0
M  V30 972 H 89.2449 -1.48525 1.40572 0
M  V30 973 H 87.3999 -3.82939 0.586191 0
M  V30 974 H 87.8139 -4.49896 2.69618 0
M  V30 975 H 89.2879 -5.38099 1.231 0
M  V30 976 H 89.7649 -4.38959 -0.145359 0
M  V30 977 H 90.3709 -3.98796 1.47789 0
M  V30 978 N 88.686 -0.835752 -1.33615 0
M  V30 979 C 89.963 -0.352017 -1.92406 0
M  V30 980 C 90.343 1.16225 -1.76224 0
M  V30 981 O 89.691 1.97526 -1.14873 0
M  V30 982 C 89.901 -0.795485 -3.39813 0
M  V30 983 C 91.249 -0.801703 -4.16963 0
M  V30 984 O 92.273 -0.738889 -3.48452 0
M  V30 985 O 91.132 -0.886607 -5.3926 0
M  V30 986 H 88.226 -0.0989641 -0.821057 0
M  V30 987 H 90.772 -0.921397 -1.42507 0
M  V30 988 H 89.544 -1.83795 -3.45449 0
M  V30 989 H 89.167 -0.202505 -3.97084 0
M  V30 990 N 90.1641 1.46063 -0.591896 0
M  V30 991 C 91.0741 2.34192 0.13831 0
M  V30 992 C 92.0901 1.50305 0.876608 0
M  V30 993 O 93.2661 1.8315 0.837728 0
M  V30 994 C 90.3311 3.27656 1.13326 0
M  V30 995 C 89.3921 4.27445 0.39863 0
M  V30 996 C 88.6251 5.16443 1.34618 0
M  V30 997 O 88.8481 5.08553 2.58321 0
M  V30 998 O 87.7821 5.95843 0.851768 0
M  V30 999 H 91.6081 2.98002 -0.58552 0
M  V30 1000 H 89.1931 1.45188 -0.352239 0
M  V30 1001 H 91.0751 3.85291 1.70671 0
M  V30 1002 H 89.7501 2.6643 1.83839 0
M  V30 1003 H 88.6571 3.73471 -0.216895 0
M  V30 1004 H 89.9901 4.91482 -0.265709 0
M  V30 1005 N 91.6422 0.330177 1.54103 0
M  V30 1006 C 92.6052 -0.520144 2.2322 0
M  V30 1007 C 93.6052 -1.03828 1.22786 0
M  V30 1008 O 94.7952 -0.929652 1.4732 0
M  V30 1009 C 91.9272 -1.72317 2.94142 0
M  V30 1010 H 93.1202 0.0841605 2.99782 0
M  V30 1011 H 90.6732 0.0813433 1.56088 0
M  V30 1012 H 91.4082 -2.36653 2.21734 0
M  V30 1013 H 91.1932 -1.35898 3.67796 0
M  V30 1014 H 92.6832 -2.3266 3.46784 0
M  V30 1015 N 93.1203 -1.57491 0.0584922 0
M  V30 1016 C 94.0303 -2.15448 -0.928414 0
M  V30 1017 C 95.0463 -1.11416 -1.3365 0
M  V30 1018 O 96.2223 -1.4362 -1.41193 0
M  V30 1019 C 93.2873 -2.69393 -2.18239 0
M  V30 1020 C 92.3483 -3.88249 -1.83196 0
M  V30 1021 C 91.5813 -4.39613 -3.02616 0
M  V30 1022 O 91.8043 -3.90023 -4.16219 0
M  V30 1023 O 90.7383 -5.31111 -2.83204 0
M  V30 1024 H 94.5643 -3.00112 -0.465483 0
M  V30 1025 H 92.1493 -1.48499 -0.163826 0
M  V30 1026 H 94.0313 -3.04026 -2.91798 0
M  V30 1027 H 92.7063 -1.87796 -2.63656 0
M  V30 1028 H 91.6133 -3.58492 -1.06931 0
M  V30 1029 H 92.9463 -4.71098 -1.42573 0
M  V30 1030 N 94.5984 0.214957 -1.56127 0
M  V30 1031 C 95.5284 1.2695 -1.95974 0
M  V30 1032 C 96.5094 1.48539 -0.828868 0
M  V30 1033 O 97.6944 1.60611 -1.09168 0
M  V30 1034 C 94.8244 2.61794 -2.28214 0
M  V30 1035 C 93.7784 2.54851 -3.43853 0
M  V30 1036 C 93.1044 3.93785 -3.61715 0
M  V30 1037 C 94.4044 2.09065 -4.78632 0
M  V30 1038 H 96.0984 0.93846 -2.84312 0
M  V30 1039 H 93.6444 0.449996 -1.36788 0
M  V30 1040 H 95.5974 3.35731 -2.54682 0
M  V30 1041 H 94.3214 2.96599 -1.36736 0
M  V30 1042 H 92.9804 1.8337 -3.17444 0
M  V30 1043 H 92.6284 4.25908 -2.67602 0
M  V30 1044 H 92.3284 3.90019 -4.39498 0
M  V30 1045 H 93.8524 4.69374 -3.90539 0
M  V30 1046 H 95.2664 2.7275 -5.04262 0
M  V30 1047 H 93.6634 2.16346 -5.59745 0
M  V30 1048 H 94.7334 1.04315 -4.73547 0
M  V30 1049 N 96.0765 1.50051 0.48192 0
M  V30 1050 C 97.3535 1.51009 1.2432 0
M  V30 1051 C 97.7335 0.248587 2.09631 0
M  V30 1052 O 97.0815 -0.768409 2.15192 0
M  V30 1053 C 97.2915 2.79981 2.08355 0
M  V30 1054 C 98.6395 3.3022 2.66908 0
M  V30 1055 O 99.6635 2.81228 2.18607 0
M  V30 1056 O 98.5225 4.15595 3.54884 0
M  V30 1057 H 95.6165 0.605239 0.563573 0
M  V30 1058 H 98.1625 1.62332 0.494627 0
M  V30 1059 H 96.9345 3.63275 1.45419 0
M  V30 1060 H 96.5575 2.7161 2.90368 0
M  V30 1061 N 97.5546 -0.734337 1.39446 0
M  V30 1062 C 98.7796 -1.52866 1.40167 0
M  V30 1063 C 99.2046 -1.881 -0.00171513 0
M  V30 1064 O 98.5626 -1.51957 -0.988879 0
M  V30 1065 C 98.6106 -2.79235 2.28167 0
M  V30 1066 O 97.7146 -3.75185 1.71201 0
M  V30 1067 H 97.0556 -0.461618 0.477289 0
M  V30 1068 H 99.5856 -0.905949 1.8345 0
M  V30 1069 H 99.5956 -3.27963 2.42702 0
M  V30 1070 H 98.2706 -2.52923 3.30156 0
M  V30 1071 H 96.8476 -3.33958 1.65912 0
M  V30 1072 N 99.0327 -1.24633 -0.964593 0
M  V30 1073 C 100.28 -1.08788 -1.70796 0
M  V30 1074 C 100.608 0.372783 -1.90894 0
M  V30 1075 O 99.8627 1.29167 -1.47018 0
M  V30 1076 C 100.162 -1.7763 -3.10133 0
M  V30 1077 C 99.8277 -3.27557 -3.09866 0
M  V30 1078 C 98.4897 -3.6846 -3.09501 0
M  V30 1079 C 100.842 -4.23389 -3.03959 0
M  V30 1080 C 98.1697 -5.03624 -3.00965 0
M  V30 1081 C 100.522 -5.58565 -2.96965 0
M  V30 1082 C 99.1857 -5.98809 -2.9493 0
M  V30 1083 H 98.4557 -0.398084 -0.624988 0
M  V30 1084 H 101.103 -1.54777 -1.12767 0
M  V30 1085 H 99.4077 -1.24044 -3.71645 0
M  V30 1086 H 101.105 -1.62832 -3.66451 0
M  V30 1087 H 97.6947 -2.95006 -3.10917 0
M  V30 1088 H 101.879 -3.92787 -3.03368 0
M  V30 1089 H 97.1347 -5.33998 -2.97752 0
M  V30 1090 H 101.309 -6.32523 -2.91354 0
M  V30 1091 H 98.9357 -7.03505 -2.88071 0
M  V30 1092 N 100.511 1.16574 -1.06058 0
M  V30 1093 C 101.741 1.90675 -0.795397 0
M  V30 1094 C 102.149 1.77547 0.653735 0
M  V30 1095 O 101.492 1.11611 1.45907 0
M  V30 1096 C 101.554 3.42011 -1.10764 0
M  V30 1097 C 101.218 3.78924 -2.55471 0
M  V30 1098 C 102.215 3.81042 -3.53699 0
M  V30 1099 C 99.8998 4.09626 -2.90708 0
M  V30 1100 C 101.894 4.13346 -4.85205 0
M  V30 1101 C 99.5808 4.41597 -4.22416 0
M  V30 1102 C 100.579 4.43436 -5.19474 0
M  V30 1103 O 100.267 4.74649 -6.48817 0
M  V30 1104 H 99.9988 0.611554 -0.288058 0
M  V30 1105 H 102.553 1.48711 -1.41683 0
M  V30 1106 H 100.783 3.84312 -0.429128 0
M  V30 1107 H 102.472 3.97384 -0.827077 0
M  V30 1108 H 103.238 3.57437 -3.27817 0
M  V30 1109 H 99.1168 4.07361 -2.15819 0
M  V30 1110 H 102.661 4.14696 -5.60957 0
M  V30 1111 H 98.5578 4.64667 -4.48056 0
M  V30 1112 H 99.3258 4.9247 -6.5377 0
M  V30 1113 N 101.989 0.842826 1.3317 0
M  V30 1114 C 102.899 0.281444 2.32906 0
M  V30 1115 C 103.915 -0.594587 1.63526 0
M  V30 1116 O 105.091 -0.49777 1.95152 0
M  V30 1117 C 102.156 -0.530929 3.42611 0
M  V30 1118 C 101.217 0.369843 4.27704 0
M  V30 1119 C 100.45 -0.403853 5.3217 0
M  V30 1120 O 100.673 -1.63513 5.46461 0
M  V30 1121 O 99.6069 0.224199 6.01482 0
M  V30 1122 H 103.433 1.10744 2.82789 0
M  V30 1123 H 101.018 0.60545 1.36582 0
M  V30 1124 H 102.9 -0.992437 4.09547 0
M  V30 1125 H 101.575 -1.33392 2.94938 0
M  V30 1126 H 100.482 0.879275 3.6362 0
M  V30 1127 H 101.815 1.13771 4.78871 0
M  V30 1128 N 103.467 -1.45747 0.599634 0
M  V30 1129 C 104.695 -2.06668 0.0978551 0
M  V30 1130 C 105.11 -1.44562 -1.21439 0
M  V30 1131 O 104.467 -0.556923 -1.73795 0
M  V30 1132 C 104.518 -3.61456 -0.0567044 0
M  V30 1133 O 104.239 -4.21242 1.20361 0
M  V30 1134 C 105.74 -4.39345 -0.590869 0
M  V30 1135 H 102.96 -0.667825 0.0651943 0
M  V30 1136 H 105.504 -1.87115 0.82511 0
M  V30 1137 H 103.659 -3.80378 -0.734251 0
M  V30 1138 H 104.073 -5.14323 1.02821 0
M  V30 1139 H 105.547 -5.48182 -0.648131 0
M  V30 1140 H 106.024 -4.08568 -1.61147 0
M  V30 1141 H 106.63 -4.25268 0.0523679 0
M  V30 1142 N 104.945 -0.338344 -1.53925 0
M  V30 1143 C 105.855 0.529421 -2.28548 0
M  V30 1144 C 106.871 1.11645 -1.3346 0
M  V30 1145 O 108.047 1.13325 -1.66492 0
M  V30 1146 C 105.112 1.66713 -3.03987 0
M  V30 1147 C 104.173 1.11041 -4.14691 0
M  V30 1148 C 103.406 2.19389 -4.86522 0
M  V30 1149 O 103.629 3.40013 -4.57982 0
M  V30 1150 O 102.563 1.83976 -5.73094 0
M  V30 1151 H 106.389 -0.0770399 -3.03602 0
M  V30 1152 H 103.974 -0.103555 -1.49041 0
M  V30 1153 H 105.856 2.32918 -3.5118 0
M  V30 1154 H 104.531 2.25949 -2.31794 0
M  V30 1155 H 103.438 0.413024 -3.71813 0
M  V30 1156 H 104.771 0.562975 -4.8897 0
M  V30 1157 N 106.423 1.57458 -0.0668435 0
M  V30 1158 C 107.356 2.08033 0.93795 0
M  V30 1159 C 108.334 0.984321 1.29421 0
M  V30 1160 O 109.518 1.25736 1.40437 0
M  V30 1161 C 106.645 2.53388 2.24749 0
M  V30 1162 C 105.691 3.74376 2.04315 0
M  V30 1163 S 106.524 5.19303 1.30706 0
M  V30 1164 C 107.68 5.67986 2.62951 0
M  V30 1165 H 107.913 2.92935 0.50759 0
M  V30 1166 H 105.446 1.5371 0.145804 0
M  V30 1167 H 107.404 2.8018 3.00016 0
M  V30 1168 H 106.065 1.68763 2.64911 0
M  V30 1169 H 105.258 4.04083 3.01218 0
M  V30 1170 H 104.86 3.47931 1.37186 0
M  V30 1171 H 107.152 5.74528 3.5906 0
M  V30 1172 H 108.095 6.66955 2.3786 0
M  V30 1173 H 108.503 4.95781 2.69929 0
M  V30 1174 N 107.901 -0.206675 1.56239 0
M  V30 1175 C 109.312 -0.772383 1.69974 0
M  V30 1176 C 109.663 -1.84353 0.671436 0
M  V30 1177 O 108.788 -2.15695 -0.174491 0
M  V30 1178 C 109.383 -1.40779 3.08167 0
M  V30 1179 C 107.942 -1.92072 3.23706 0
M  V30 1180 C 107.089 -0.786347 2.65917 0
M  V30 1181 H 110.04 0.0182223 1.5869 0
M  V30 1182 H 110.061 -2.27696 3.04852 0
M  V30 1183 H 109.573 -0.627958 3.82986 0
M  V30 1184 H 107.674 -2.7281 2.53782 0
M  V30 1185 H 107.787 -2.09046 4.31087 0
M  V30 1186 H 106.151 -1.1976 2.24788 0
M  V30 1187 H 106.934 -0.0189416 3.43295 0
M  V30 1188 N 109.379 -1.50304 -0.473955 0
M  V30 1189 C 110.627 -1.60832 -1.22382 0
M  V30 1190 C 110.948 -0.30939 -1.9253 0
M  V30 1191 O 110.218 0.67296 -1.83978 0
M  V30 1192 H 108.798 -0.592652 -0.454723 0
M  V30 1193 H 111.46 -1.87068 -0.546968 0
M  V30 1194 H 110.556 -2.41803 -1.97327 0
M  V30 1195 N 110.857 0.726932 -1.39834 0
M  V30 1196 C 112.268 1.30558 -1.3346 0
M  V30 1197 C 112.619 1.962 -0.00273003 0
M  V30 1198 O 111.744 1.96826 0.899371 0
M  V30 1199 C 112.339 2.37404 -2.41713 0
M  V30 1200 C 110.898 2.90921 -2.38835 0
M  V30 1201 C 110.045 1.64578 -2.2318 0
M  V30 1202 H 112.996 0.523862 -1.49804 0
M  V30 1203 H 113.017 3.17984 -2.08966 0
M  V30 1204 H 112.529 1.89599 -3.38635 0
M  V30 1205 H 110.63 3.42985 -1.45575 0
M  V30 1206 H 110.743 3.43487 -3.33997 0
M  V30 1207 H 109.107 1.89219 -1.70494 0
M  V30 1208 H 109.89 1.18814 -3.22084 0
M  V30 1209 N 112.336 1.25143 0.95797 0
M  V30 1210 C 113.582 1.09855 1.70469 0
M  V30 1211 C 113.915 -0.360187 1.90831 0
M  V30 1212 O 113.19 -1.26568 1.47685 0
M  V30 1213 C 113.473 1.8497 3.08963 0
M  V30 1214 C 113.326 3.38652 2.96032 0
M  V30 1215 C 114.645 1.63016 4.08795 0
M  V30 1216 H 111.764 0.400465 0.618706 0
M  V30 1217 H 114.406 1.53933 1.11376 0
M  V30 1218 H 112.556 1.47505 3.59409 0
M  V30 1219 H 114.228 3.85772 2.52938 0
M  V30 1220 H 112.471 3.66534 2.32025 0
M  V30 1221 H 113.142 3.8642 3.94187 0
M  V30 1222 H 115.618 1.95625 3.67247 0
M  V30 1223 H 114.494 2.18015 5.03747 0
M  V30 1224 H 114.755 0.570692 4.38401 0
M  V30 1225 N 113.814 -1.1601 1.06675 0
M  V30 1226 C 115.06 -1.86909 0.786945 0
M  V30 1227 C 115.393 -1.81717 -0.685018 0
M  V30 1228 O 114.668 -1.23551 -1.50218 0
M  V30 1229 C 114.951 -3.36313 1.28707 0
M  V30 1230 C 114.804 -3.50175 2.82308 0
M  V30 1231 C 116.123 -4.3084 0.898071 0
M  V30 1232 H 113.242 -0.678677 0.287343 0
M  V30 1233 H 115.884 -1.36336 1.32334 0
M  V30 1234 H 114.034 -3.79513 0.830768 0
M  V30 1235 H 115.706 -3.15886 3.36175 0
M  V30 1236 H 113.949 -2.91959 3.20847 0
M  V30 1237 H 114.62 -4.55116 3.12368 0
M  V30 1238 H 117.096 -3.95561 1.29114 0
M  V30 1239 H 115.972 -5.33876 1.27543 0
M  V30 1240 H 116.233 -4.41662 -0.196651 0
M  V30 1241 N 115.292 -0.849877 -1.32721 0
M  V30 1242 C 116.708 -0.539102 -1.50219 0
M  V30 1243 C 116.908 0.931271 -1.78689 0
M  V30 1244 O 115.964 1.71455 -1.85363 0
M  V30 1245 C 117.277 -1.42196 -2.64954 0
M  V30 1246 C 118.825 -1.42189 -2.78839 0
M  V30 1247 C 119.3 -2.28985 -3.96648 0
M  V30 1248 N 120.791 -2.26754 -4.03902 0
M  V30 1249 C 121.526 -2.90644 -4.94281 0
M  V30 1250 N 121.022 -3.63629 -5.897 0
M  V30 1251 N 122.815 -2.80057 -4.87365 0
M  V30 1252 H 114.966 -1.80156 -1.12506 0
M  V30 1253 H 117.229 -0.769217 -0.554085 0
M  V30 1254 H 116.935 -2.46733 -2.50631 0
M  V30 1255 H 116.809 -1.10591 -3.60624 0
M  V30 1256 H 119.196 -0.38419 -2.92588 0
M  V30 1257 H 119.277 -1.77807 -1.83898 0
M  V30 1258 H 118.921 -3.32819 -3.83658 0
M  V30 1259 H 118.851 -1.90702 -4.90857 0
M  V30 1260 H 121.342 -1.73688 -3.3562 0
M  V30 1261 H 121.655 -4.09558 -6.55349 0
M  V30 1262 H 120 -3.67737 -5.89741 0
M  V30 1263 H 123.191 -2.22593 -4.11789 0
M  V30 1264 H 123.364 -3.30132 -5.57599 0
M  V30 1265 N 116.77 1.45427 -0.607355 0
M  V30 1266 C 118.181 1.85756 -0.187535 0
M  V30 1267 C 118.532 1.5077 1.25551 0
M  V30 1268 O 117.657 0.93427 1.95193 0
M  V30 1269 C 118.252 3.37154 -0.333572 0
M  V30 1270 C 116.811 3.76387 0.0315542 0
M  V30 1271 C 115.958 2.69377 -0.658117 0
M  V30 1272 H 118.909 1.36231 -0.81405 0
M  V30 1273 H 118.93 3.78014 0.43428 0
M  V30 1274 H 118.442 3.62586 -1.38393 0
M  V30 1275 H 116.543 3.56571 1.0811 0
M  V30 1276 H 116.656 4.77731 -0.361935 0
M  V30 1277 H 115.02 2.5452 -0.0957873 0
M  V30 1278 H 115.803 2.97646 -1.7106 0
M  V30 1279 N 118.248 0.346503 1.53744 0
M  V30 1280 C 119.178 -0.501193 2.28058 0
M  V30 1281 C 120.159 -1.10014 1.29734 0
M  V30 1282 O 121.344 -1.12097 1.58581 0
M  V30 1283 C 118.474 -1.65078 3.05559 0
M  V30 1284 C 117.428 -1.18003 4.11411 0
M  V30 1285 C 116.754 -2.41837 4.76884 0
M  V30 1286 C 118.054 -0.278394 5.21558 0
M  V30 1287 H 119.748 0.11875 2.99164 0
M  V30 1288 H 117.294 0.0585531 1.43881 0
M  V30 1289 H 119.247 -2.25028 3.56287 0
M  V30 1290 H 117.971 -2.29767 2.32109 0
M  V30 1291 H 116.63 -0.603331 3.61601 0
M  V30 1292 H 116.278 -3.0494 4.00026 0
M  V30 1293 H 115.978 -2.1102 5.48402 0
M  V30 1294 H 117.502 -3.02508 5.30397 0
M  V30 1295 H 118.916 -0.784823 5.67903 0
M  V30 1296 H 117.313 -0.0619707 6.00068 0
M  V30 1297 H 118.383 0.684677 4.80042 0
M  V30 1298 N 119.726 -1.57421 0.075193 0
M  V30 1299 C 120.973 -1.93618 -0.593146 0
M  V30 1300 C 121.301 -0.955484 -1.69413 0
M  V30 1301 O 120.556 0.0283251 -1.9568 0
M  V30 1302 C 120.855 -3.36428 -1.20626 0
M  V30 1303 C 120.521 -4.50307 -0.231078 0
M  V30 1304 C 119.183 -4.81186 0.0371936 0
M  V30 1305 C 121.535 -5.19374 0.435888 0
M  V30 1306 C 118.863 -5.78466 0.979461 0
M  V30 1307 C 121.215 -6.17665 1.3665 0
M  V30 1308 C 119.879 -6.46958 1.6432 0
M  V30 1309 H 119.149 -0.708499 -0.217047 0
M  V30 1310 H 121.796 -1.90937 0.146793 0
M  V30 1311 H 120.101 -3.35592 -2.02201 0
M  V30 1312 H 121.798 -3.61727 -1.73073 0
M  V30 1313 H 118.388 -4.26227 -0.450357 0
M  V30 1314 H 122.572 -4.95711 0.241748 0
M  V30 1315 H 117.828 -5.99487 1.20106 0
M  V30 1316 H 122.002 -6.70284 1.88924 0
M  V30 1317 H 119.629 -7.2215 2.37494 0
M  V30 1318 N 121.204 0.198386 -1.56346 0
M  V30 1319 C 122.114 1.2664 -1.97483 0
M  V30 1320 C 123.13 1.49989 -0.882002 0
M  V30 1321 O 124.306 1.62668 -1.18748 0
M  V30 1322 C 121.371 2.59141 -2.30319 0
M  V30 1323 C 120.432 2.43892 -3.53292 0
M  V30 1324 C 119.665 3.70074 -3.84553 0
M  V30 1325 O 119.888 4.74101 -3.1715 0
M  V30 1326 O 118.822 3.658 -4.7799 0
M  V30 1327 H 122.648 0.947304 -2.88548 0
M  V30 1328 H 120.233 0.403123 -1.43859 0
M  V30 1329 H 122.115 3.37352 -2.5253 0
M  V30 1330 H 120.79 2.90684 -1.42423 0
M  V30 1331 H 119.697 1.63803 -3.36332 0
M  V30 1332 H 121.03 2.17282 -4.41644 0
M  V30 1333 N 122.682 1.50554 0.465978 0
M  V30 1334 C 123.629 1.6979 1.56333 0
M  V30 1335 C 124.599 0.539239 1.57103 0
M  V30 1336 O 125.784 0.770401 1.74555 0
M  V30 1337 C 122.924 1.80273 2.94271 0
M  V30 1338 C 122.037 3.07674 3.0325 0
M  V30 1339 C 121.172 3.08922 4.32135 0
M  V30 1340 C 120.211 4.30755 4.34875 0
M  V30 1341 N 119.348 4.29714 5.55239 0
M  V30 1342 H 124.188 2.63472 1.39235 0
M  V30 1343 H 121.725 1.30602 0.676873 0
M  V30 1344 H 123.683 1.84332 3.74269 0
M  V30 1345 H 122.313 0.900258 3.09992 0
M  V30 1346 H 121.365 3.13062 2.16094 0
M  V30 1347 H 122.677 3.97642 3.01135 0
M  V30 1348 H 121.831 3.11738 5.20485 0
M  V30 1349 H 120.57 2.16792 4.36866 0
M  V30 1350 H 119.575 4.28146 3.44922 0
M  V30 1351 H 120.8 5.24117 4.31831 0
M  V30 1352 H 118.746 3.4044 5.60746 0
M  V30 1353 H 118.663 5.13456 5.54886 0
M  V30 1354 H 119.931 4.36683 6.457 0
M  V30 1355 N 124.16 -0.719506 1.40217 0
M  V30 1356 C 125.123 -1.8153 1.39927 0
M  V30 1357 C 126.123 -1.58095 0.293723 0
M  V30 1358 O 127.313 -1.65209 0.552429 0
M  V30 1359 C 124.445 -3.19561 1.18716 0
M  V30 1360 H 125.638 -1.83186 2.37451 0
M  V30 1361 H 123.191 -0.924746 1.26008 0
M  V30 1362 H 123.926 -3.23557 0.219366 0
M  V30 1363 H 123.711 -3.3797 1.98793 0
M  V30 1364 H 125.201 -3.99598 1.21291 0
M  V30 1365 N 125.638 -1.25649 -0.95132 0
M  V30 1366 C 126.601 -1.06399 -2.03007 0
M  V30 1367 C 127.601 -0.0156794 -1.60792 0
M  V30 1368 O 128.791 -0.25817 -1.72276 0
M  V30 1369 C 125.923 -0.616184 -3.35285 0
M  V30 1370 H 127.116 -2.02164 -2.21517 0
M  V30 1371 H 124.669 -1.08103 -1.12887 0
M  V30 1372 H 125.404 0.343917 -3.22471 0
M  V30 1373 H 125.189 -1.37301 -3.67275 0
M  V30 1374 H 126.679 -0.503032 -4.14559 0
M  V30 1375 N 127.117 1.15442 -1.07289 0
M  V30 1376 C 128.027 2.23786 -0.704057 0
M  V30 1377 C 129.043 1.7166 0.284413 0
M  V30 1378 O 130.219 2.00972 0.131205 0
M  V30 1379 C 127.284 3.46535 -0.106792 0
M  V30 1380 C 126.345 4.13654 -1.14842 0
M  V30 1381 C 125.578 5.30544 -0.57956 0
M  V30 1382 O 125.801 5.67187 0.604585 0
M  V30 1383 O 124.735 5.87154 -1.32414 0
M  V30 1384 H 128.561 2.57664 -1.60757 0
M  V30 1385 H 126.146 1.23152 -0.845803 0
M  V30 1386 H 128.028 4.20804 0.224048 0
M  V30 1387 H 126.703 3.14407 0.770049 0
M  V30 1388 H 125.61 3.4131 -1.5316 0
M  V30 1389 H 126.943 4.49861 -1.99714 0
M  V30 1390 N 128.595 0.856903 1.32268 0
M  V30 1391 C 129.525 0.31858 2.31316 0
M  V30 1392 C 130.506 -0.583487 1.59779 0
M  V30 1393 O 131.691 -0.503259 1.87566 0
M  V30 1394 C 128.821 -0.491979 3.43798 0
M  V30 1395 C 127.775 0.315849 4.26833 0
M  V30 1396 C 127.101 -0.619586 5.31098 0
M  V30 1397 C 128.401 1.54282 4.98993 0
M  V30 1398 H 130.095 1.14621 2.76591 0
M  V30 1399 H 127.641 0.552613 1.32974 0
M  V30 1400 H 129.594 -0.879012 4.1213 0
M  V30 1401 H 128.318 -1.35299 2.97257 0
M  V30 1402 H 126.977 0.684664 3.6015 0
M  V30 1403 H 126.625 -1.47751 4.8081 0
M  V30 1404 H 126.325 -0.0830621 5.87541 0
M  V30 1405 H 127.849 -1.00375 6.02293 0
M  V30 1406 H 129.263 1.22796 5.59995 0
M  V30 1407 H 127.66 2.01745 5.65172 0
M  V30 1408 H 128.73 2.30285 4.26728 0
M  V30 1409 N 130.073 -1.45103 0.615059 0
M  V30 1410 C 131.321 -2.01784 0.112955 0
M  V30 1411 C 131.642 -1.48504 -1.26378 0
M  V30 1412 O 130.912 -0.682245 -1.83636 0
M  V30 1413 H 129.492 -0.745993 0.0387668 0
M  V30 1414 H 132.154 -1.77808 0.798141 0
M  V30 1415 H 131.25 -3.12025 0.0684069 0
M  V30 1416 N 131.551 -0.354651 -1.53558 0
M  V30 1417 C 132.8 0.239504 -2.00273 0
M  V30 1418 C 133.113 1.50759 -1.24623 0
M  V30 1419 O 134.319 2.17968 -1.61871 0
M  V30 1420 C 132.775 0.477341 -3.5672 0
M  V30 1421 C 132.383 -0.775488 -4.41237 0
M  V30 1422 C 134.127 1.02975 -4.11821 0
M  V30 1423 C 132.034 -0.507838 -5.89216 0
M  V30 1424 H 130.964 0.0932743 -0.748208 0
M  V30 1425 H 133.615 -0.471701 -1.77334 0
M  V30 1426 H 131.997 1.24953 -3.7577 0
M  V30 1427 H 133.171 -1.54963 -4.33962 0
M  V30 1428 H 131.486 -1.25033 -3.97185 0
M  V30 1429 H 134.083 1.24513 -5.2 0
M  V30 1430 H 134.426 1.98862 -3.65731 0
M  V30 1431 H 134.959 0.317994 -3.96527 0
M  V30 1432 H 131.698 -1.43674 -6.39561 0
M  V30 1433 H 131.218 0.228011 -5.99366 0
M  V30 1434 H 132.897 -0.129238 -6.46871 0
M  V30 1435 N 133.029 1.57378 -0.0835403 0
M  V30 1436 C 134.277 1.93547 0.581718 0
M  V30 1437 C 134.598 0.96524 1.69435 0
M  V30 1438 O 133.868 0.0153369 1.95894 0
M  V30 1439 H 132.448 0.714521 0.217874 0
M  V30 1440 H 135.11 1.94366 -0.144158 0
M  V30 1441 H 134.206 2.95665 0.999423 0
M  V30 1442 N 134.507 -0.190092 1.56449 0
M  V30 1443 C 135.754 -0.909705 1.80916 0
M  V30 1444 C 136.082 -1.83047 0.657583 0
M  V30 1445 O 135.337 -1.92428 -0.356356 0
M  V30 1446 C 135.636 -1.75382 3.1141 0
M  V30 1447 C 135.302 -0.983606 4.40041 0
M  V30 1448 C 133.964 -0.770967 4.74984 0
M  V30 1449 C 136.316 -0.442024 5.19322 0
M  V30 1450 C 133.644 -0.0053448 5.867 0
M  V30 1451 C 135.996 0.310412 6.31838 0
M  V30 1452 C 134.66 0.534023 6.6536 0
M  V30 1453 H 133.93 -0.332885 0.662019 0
M  V30 1454 H 136.577 -0.175762 1.90692 0
M  V30 1455 H 134.882 -2.55659 2.96893 0
M  V30 1456 H 136.579 -2.31331 3.27547 0
M  V30 1457 H 133.169 -1.15936 4.12622 0
M  V30 1458 H 137.353 -0.593693 4.92736 0
M  V30 1459 H 132.609 0.177825 6.11141 0
M  V30 1460 H 136.783 0.737419 6.92485 0
M  V30 1461 H 134.41 1.12918 7.51767 0
M  V30 1462 N 135.985 -1.50799 -0.457987 0
M  V30 1463 C 136.933 -1.71162 -1.575 0
M  V30 1464 C 137.927 -0.577592 -1.59249 0
M  V30 1465 O 139.133 -0.758443 -1.63241 0
M  V30 1466 H 135.508 -0.540468 -0.522875 0
M  V30 1467 H 137.479 -2.64837 -1.37492 0
M  V30 1468 C 136.228 -1.83496 -2.95338 0
M  V30 1469 H 135.551 -2.70153 -2.94716 0
M  V30 1470 H 136.991 -2.01765 -3.72917 0
M  V30 1471 C 135.45 -0.589694 -3.31699 0
M  V30 1472 O 135.98 0.265163 -4.00824 0
M  V30 1473 N 134.186 -0.439845 -2.87252 0
M  V30 1474 H 133.733 -1.13655 -2.31172 0
M  V30 1475 H 133.691 0.392159 -3.11945 0
M  V30 1476 N 137.463 0.71206 -1.40597 0
M  V30 1477 C 138.393 1.83889 -1.43899 0
M  V30 1478 C 139.374 1.67442 -0.299504 0
M  V30 1479 O 140.559 1.87421 -0.508624 0
M  V30 1480 C 137.689 3.21877 -1.30431 0
M  V30 1481 C 136.643 3.53002 -2.42019 0
M  V30 1482 C 135.969 4.90172 -2.13626 0
M  V30 1483 C 137.269 3.53643 -3.84362 0
M  V30 1484 H 138.963 1.81383 -2.38203 0
M  V30 1485 H 136.509 0.871237 -1.14654 0
M  V30 1486 H 138.462 4.00404 -1.31357 0
M  V30 1487 H 137.186 3.24968 -0.326049 0
M  V30 1488 H 135.845 2.76818 -2.40349 0
M  V30 1489 H 135.493 4.89869 -1.14182 0
M  V30 1490 H 135.193 5.11962 -2.88389 0
M  V30 1491 H 136.717 5.71028 -2.1624 0
M  V30 1492 H 138.131 4.22203 -3.87837 0
M  V30 1493 H 136.528 3.86961 -4.58673 0
M  V30 1494 H 137.598 2.52954 -4.13693 0
M  V30 1495 N 138.941 1.26152 0.944643 0
M  V30 1496 C 140.189 1.11271 1.6871 0
M  V30 1497 C 140.51 -0.345166 1.91921 0
M  V30 1498 O 139.78 -1.24387 1.51343 0
M  V30 1499 H 138.36 0.408783 0.625224 0
M  V30 1500 H 141.022 1.58427 1.1352 0
M  V30 1501 H 140.118 1.62879 2.66227 0
M  V30 1502 N 140.419 -1.14872 1.07899 0
M  V30 1503 C 141.649 -1.89386 0.825631 0
M  V30 1504 C 142.057 -1.78565 -0.625406 0
M  V30 1505 O 141.4 -1.13918 -1.44113 0
M  V30 1506 C 141.462 -3.40206 1.16191 0
M  V30 1507 C 141.126 -3.74812 2.61467 0
M  V30 1508 C 142.123 -3.75367 3.59716 0
M  V30 1509 C 139.808 -4.0495 2.97189 0
M  V30 1510 C 141.802 -4.05574 4.9172 0
M  V30 1511 C 139.489 -4.34821 4.29388 0
M  V30 1512 C 140.487 -4.35116 5.26463 0
M  V30 1513 O 140.175 -4.64267 6.56286 0
M  V30 1514 H 139.907 -0.606894 0.297751 0
M  V30 1515 H 142.461 -1.46438 1.44031 0
M  V30 1516 H 140.691 -3.8358 0.490214 0
M  V30 1517 H 142.38 -3.96018 0.890193 0
M  V30 1518 H 143.146 -3.52176 3.33462 0
M  V30 1519 H 139.025 -4.03876 2.22273 0
M  V30 1520 H 142.569 -4.05719 5.67484 0
M  V30 1521 H 138.466 -4.5748 4.55392 0
M  V30 1522 H 139.234 -4.82007 6.61522 0
M  V30 1523 N 141.898 -0.863906 -1.31812 0
M  V30 1524 C 142.861 -0.320212 -2.26952 0
M  V30 1525 C 143.861 0.525369 -1.51975 0
M  V30 1526 O 145.051 0.335547 -1.70938 0
M  V30 1527 C 142.183 0.545919 -3.365 0
M  V30 1528 H 143.376 -1.16004 -2.76556 0
M  V30 1529 H 140.929 -0.638995 -1.42641 0
M  V30 1530 H 141.664 1.40718 -2.92179 0
M  V30 1531 H 141.449 -0.0594674 -3.92055 0
M  V30 1532 H 142.939 0.918796 -4.07367 0
M  V30 1533 N 143.376 1.44774 -0.622745 0
M  V30 1534 C 144.286 2.34433 0.0886031 0
M  V30 1535 C 145.302 1.52131 0.844529 0
M  V30 1536 O 146.478 1.84886 0.798691 0
M  V30 1537 C 143.543 3.29986 1.0635 0
M  V30 1538 C 142.604 4.28195 0.307873 0
M  V30 1539 C 141.837 5.19183 1.23633 0
M  V30 1540 O 142.06 5.13918 2.47476 0
M  V30 1541 O 140.994 5.97515 0.725189 0
M  V30 1542 H 144.82 2.96693 -0.648599 0
M  V30 1543 H 142.405 1.44408 -0.382957 0
M  V30 1544 H 144.287 3.88825 1.6246 0
M  V30 1545 H 142.962 2.70269 1.78146 0
M  V30 1546 H 141.869 3.72927 -0.296064 0
M  V30 1547 H 143.202 4.90808 -0.3699 0
M  V30 1548 N 144.854 0.36279 1.53368 0
M  V30 1549 C 145.784 -0.476976 2.28576 0
M  V30 1550 C 146.765 -1.08631 1.30894 0
M  V30 1551 O 147.95 -1.10409 1.59761 0
M  V30 1552 C 145.08 -1.61828 3.07293 0
M  V30 1553 C 144.034 -1.13633 4.1264 0
M  V30 1554 C 143.36 -2.36766 4.79423 0
M  V30 1555 C 144.66 -0.223061 5.21823 0
M  V30 1556 H 146.354 0.150474 2.99022 0
M  V30 1557 H 143.9 0.0738103 1.43811 0
M  V30 1558 H 145.853 -2.21237 3.58653 0
M  V30 1559 H 144.577 -2.27292 2.34533 0
M  V30 1560 H 143.236 -0.564945 3.62221 0
M  V30 1561 H 142.884 -3.0068 4.03238 0
M  V30 1562 H 142.584 -2.05192 5.50609 0
M  V30 1563 H 144.108 -2.96865 5.33576 0
M  V30 1564 H 145.522 -0.724545 5.68703 0
M  V30 1565 H 143.919 0.001678 6.001 0
M  V30 1566 H 144.989 0.735553 4.79289 0
M  V30 1567 N 146.332 -1.57332 0.0918853 0
M  V30 1568 C 147.578 -1.94524 -0.573425 0
M  V30 1569 C 147.911 -0.973578 -1.68033 0
M  V30 1570 O 147.186 -0.00609226 -1.94499 0
M  V30 1571 C 147.469 -3.41858 -1.13161 0
M  V30 1572 C 147.322 -4.4979 -0.0299747 0
M  V30 1573 C 148.641 -3.90435 -2.03098 0
M  V30 1574 H 145.76 -0.70734 -0.206975 0
M  V30 1575 H 148.402 -1.89309 0.161942 0
M  V30 1576 H 146.552 -3.46433 -1.7583 0
M  V30 1577 H 148.224 -4.57327 0.604112 0
M  V30 1578 H 146.467 -4.291 0.636833 0
M  V30 1579 H 147.138 -5.50069 -0.461287 0
M  V30 1580 H 149.614 -3.87992 -1.50338 0
M  V30 1581 H 148.49 -4.94097 -2.39081 0
M  V30 1582 H 148.751 -3.29541 -2.94712 0
M  V30 1583 N 147.81 0.181792 -1.56548 0
M  V30 1584 C 149.056 0.901431 -1.81665 0
M  V30 1585 C 149.389 1.82347 -0.668075 0
M  V30 1586 O 148.664 1.91669 0.330615 0
M  V30 1587 C 148.947 1.70618 -3.17115 0
M  V30 1588 C 148.8 0.807964 -4.42484 0
M  V30 1589 C 150.119 2.67605 -3.49393 0
M  V30 1590 H 147.238 0.32627 -0.660846 0
M  V30 1591 H 149.88 0.168134 -1.89255 0
M  V30 1592 H 148.03 2.33133 -3.10775 0
M  V30 1593 H 149.702 0.19649 -4.60881 0
M  V30 1594 H 147.945 0.115411 -4.33646 0
M  V30 1595 H 148.616 1.40632 -5.33785 0
M  V30 1596 H 151.092 2.15218 -3.56118 0
M  V30 1597 H 149.968 3.20985 -4.45264 0
M  V30 1598 H 150.229 3.47298 -2.73563 0
M  V30 1599 N 149.288 1.51039 0.449983 0
M  V30 1600 C 150.198 1.74261 1.57067 0
M  V30 1601 C 151.214 0.626363 1.62335 0
M  V30 1602 O 152.39 0.907162 1.79812 0
M  V30 1603 C 149.455 1.85114 2.93144 0
M  V30 1604 C 148.516 3.0893 2.98095 0
M  V30 1605 C 147.749 3.19256 4.27681 0
M  V30 1606 O 147.972 2.35835 5.19363 0
M  V30 1607 O 146.906 4.12144 4.38658 0
M  V30 1608 H 150.732 2.69303 1.40391 0
M  V30 1609 H 148.317 1.35389 0.631688 0
M  V30 1610 H 150.199 1.94311 3.73926 0
M  V30 1611 H 148.874 0.932588 3.09975 0
M  V30 1612 H 147.781 3.0522 2.16314 0
M  V30 1613 H 149.114 4.00433 2.86206 0
M  V30 1614 N 150.766 -0.704594 1.40972 0
M  V30 1615 C 152.014 -1.46169 1.39568 0
M  V30 1616 C 152.335 -1.95 0.00253745 0
M  V30 1617 O 151.605 -1.71095 -0.954114 0
M  V30 1618 H 150.185 -0.542326 0.513704 0
M  V30 1619 H 152.847 -0.834553 1.76128 0
M  V30 1620 H 151.943 -2.32922 2.07735 0
M  V30 1621 N 152.244 -1.26651 -0.937939 0
M  V30 1622 C 153.492 -1.12165 -1.68118 0
M  V30 1623 C 153.813 0.334983 -1.92101 0
M  V30 1624 O 153.083 1.23583 -1.52 0
M  V30 1625 H 151.663 -0.412093 -0.623048 0
M  V30 1626 H 154.325 -1.59027 -1.12678 0
M  V30 1627 H 153.421 -1.64289 -2.6536 0
M  V30 1628 N 153.722 1.14298 -1.08507 0
M  V30 1629 C 154.968 1.85633 -0.816581 0
M  V30 1630 C 155.301 1.82784 0.656021 0
M  V30 1631 O 154.576 1.25926 1.48233 0
M  V30 1632 C 154.859 3.34223 -1.34041 0
M  V30 1633 C 154.712 3.45639 -2.87843 0
M  V30 1634 C 156.031 4.29356 -0.9665 0
M  V30 1635 H 153.15 0.67402 -0.298104 0
M  V30 1636 H 155.792 1.34214 -1.34487 0
M  V30 1637 H 153.942 3.78144 -0.89104 0
M  V30 1638 H 155.614 3.10498 -3.41158 0
M  V30 1639 H 153.857 2.86817 -3.25451 0
M  V30 1640 H 154.528 4.50089 -3.19569 0
M  V30 1641 H 157.004 3.93457 -1.35391 0
M  V30 1642 H 155.88 5.3178 -1.3602 0
M  V30 1643 H 156.141 4.41919 0.126362 0
M  V30 1644 N 155.201 0.870884 1.31352 0
M  V30 1645 C 156.148 0.325425 2.28494 0
M  V30 1646 C 157.118 -0.576615 1.5577 0
M  V30 1647 O 158.303 -0.508059 1.83911 0
M  V30 1648 C 155.443 -0.466283 3.41935 0
M  V30 1649 C 154.556 0.463378 4.29508 0
M  V30 1650 C 153.691 -0.342544 5.30094 0
M  V30 1651 C 152.73 0.583486 6.09313 0
M  V30 1652 N 151.867 -0.186244 7.01853 0
M  V30 1653 H 156.707 1.15901 2.74538 0
M  V30 1654 H 154.244 0.58294 1.35056 0
M  V30 1655 H 156.202 -0.941085 4.06447 0
M  V30 1656 H 154.832 -1.26456 2.97 0
M  V30 1657 H 153.884 1.05663 3.65431 0
M  V30 1658 H 155.196 1.1734 4.84802 0
M  V30 1659 H 154.35 -0.879816 6.00287 0
M  V30 1660 H 153.089 -1.08585 4.75458 0
M  V30 1661 H 152.094 1.13251 5.3801 0
M  V30 1662 H 153.319 1.32566 6.66035 0
M  V30 1663 H 151.265 -0.912348 6.49625 0
M  V30 1664 H 151.182 0.464422 7.54572 0
M  V30 1665 H 152.45 -0.704716 7.76308 0
M  V30 1666 N 156.679 -1.44442 0.630414 0
M  V30 1667 C 158.095 -1.56832 0.295973 0
M  V30 1668 C 158.295 -1.61806 -1.20088 0
M  V30 1669 O 157.351 -1.5607 -1.9849 0
M  V30 1670 C 158.664 -2.84031 0.987264 0
M  V30 1671 C 160.212 -2.97742 0.96534 0
M  V30 1672 C 160.687 -4.27743 1.63708 0
M  V30 1673 N 162.178 -4.34555 1.60364 0
M  V30 1674 C 162.913 -5.33862 2.09234 0
M  V30 1675 N 162.409 -6.39578 2.66292 0
M  V30 1676 N 164.202 -5.25366 1.99867 0
M  V30 1677 H 156.353 -1.39457 1.60205 0
M  V30 1678 H 158.616 -0.668237 0.672431 0
M  V30 1679 H 158.322 -2.86338 2.04215 0
M  V30 1680 H 158.196 -3.73534 0.524588 0
M  V30 1681 H 160.583 -2.94989 -0.0810639 0
M  V30 1682 H 160.664 -2.09589 1.4665 0
M  V30 1683 H 160.308 -4.31255 2.68293 0
M  V30 1684 H 160.238 -5.14752 1.11076 0
M  V30 1685 H 162.729 -3.58772 1.18705 0
M  V30 1686 H 163.042 -7.11637 3.01317 0
M  V30 1687 H 161.387 -6.40265 2.70343 0
M  V30 1688 H 164.578 -4.41688 1.55013 0
M  V30 1689 H 164.751 -6.02606 2.38265 0
M  V30 1690 N 158.157 -0.370918 -1.53173 0
M  V30 1691 C 159.573 -0.0200818 -1.59587 0
M  V30 1692 C 159.773 1.46279 -1.38581 0
M  V30 1693 O 158.829 2.22506 -1.19363 0
M  V30 1694 C 160.142 -0.4808 -2.96831 0
M  V30 1695 C 161.69 -0.435477 -3.09956 0
M  V30 1696 C 162.165 -0.872092 -4.4962 0
M  V30 1697 N 163.656 -0.827364 -4.55751 0
M  V30 1698 C 164.391 -1.13683 -5.62018 0
M  V30 1699 N 163.887 -1.51584 -6.76014 0
M  V30 1700 N 165.68 -1.05927 -5.52029 0
M  V30 1701 H 157.831 -1.33652 -1.65079 0
M  V30 1702 H 160.094 -0.546634 -0.774529 0
M  V30 1703 H 159.8 -1.51577 -3.1736 0
M  V30 1704 H 159.674 0.129796 -3.76977 0
M  V30 1705 H 162.061 0.590371 -2.89134 0
M  V30 1706 H 162.142 -1.08164 -2.31806 0
M  V30 1707 H 161.786 -1.89608 -4.71181 0
M  V30 1708 H 161.716 -0.203127 -5.26208 0
M  V30 1709 H 164.207 -0.548216 -3.73902 0
M  V30 1710 H 164.52 -1.73609 -7.53047 0
M  V30 1711 H 162.865 -1.55454 -6.77391 0
M  V30 1712 H 166.056 -0.762321 -4.61851 0
M  V30 1713 H 166.229 -1.30378 -6.34749 0
M  V30 1714 N 159.635 1.57281 -0.100228 0
M  V30 1715 C 160.882 1.94537 0.562268 0
M  V30 1716 C 161.21 0.982315 1.67871 0
M  V30 1717 O 160.465 0.00280936 1.957 0
M  V30 1718 C 160.764 3.38305 1.15259 0
M  V30 1719 C 160.43 4.50618 0.159409 0
M  V30 1720 C 159.092 4.81066 -0.113741 0
M  V30 1721 C 161.444 5.18615 -0.518461 0
M  V30 1722 C 158.772 5.76835 -1.07137 0
M  V30 1723 C 161.124 6.15412 -1.46459 0
M  V30 1724 C 159.788 6.44262 -1.74592 0
M  V30 1725 H 159.058 0.711863 0.205748 0
M  V30 1726 H 161.705 1.90679 -0.17715 0
M  V30 1727 H 160.01 3.38766 1.96836 0
M  V30 1728 H 161.707 3.64435 1.67297 0
M  V30 1729 H 158.297 4.2689 0.382491 0
M  V30 1730 H 162.481 4.95264 -0.320581 0
M  V30 1731 H 157.737 5.975 -1.29628 0
M  V30 1732 H 161.911 6.67194 -1.99564 0
M  V30 1733 H 159.538 7.1828 -2.48953 0
M  V30 1734 N 161.113 -0.173488 1.56642 0
M  V30 1735 C 162.061 -1.23417 1.97157 0
M  V30 1736 C 163.055 -1.45946 0.860013 0
M  V30 1737 O 164.261 -1.46551 1.04512 0
M  V30 1738 H 160.636 -0.414818 0.62724 0
M  V30 1739 H 162.607 -0.865582 2.8557 0
M  V30 1740 C 161.356 -2.5665 2.34576 0
M  V30 1741 H 160.679 -2.40137 3.19647 0
M  V30 1742 H 162.119 -3.2956 2.6677 0
M  V30 1743 C 160.578 -3.15245 1.18836 0
M  V30 1744 O 161.108 -3.98883 0.474869 0
M  V30 1745 N 159.314 -2.74303 0.959497 0
M  V30 1746 H 158.861 -2.0639 1.54146 0
M  V30 1747 H 158.819 -3.13844 0.186932 0
M  V30 1748 N 162.591 -1.51276 -0.441967 0
M  V30 1749 C 163.819 -1.67516 -1.21434 0
M  V30 1750 C 164.234 -0.37055 -1.85128 0
M  V30 1751 O 163.591 0.650498 -1.70513 0
M  V30 1752 C 163.642 -2.78748 -2.30177 0
M  V30 1753 O 163.363 -4.04154 -1.69089 0
M  V30 1754 C 164.864 -3.06217 -3.20541 0
M  V30 1755 H 162.084 -0.562276 -0.366178 0
M  V30 1756 H 164.628 -1.97666 -0.524244 0
M  V30 1757 H 162.783 -2.5121 -2.94911 0
M  V30 1758 H 163.197 -4.65894 -2.40922 0
M  V30 1759 H 164.671 -3.8764 -3.92987 0
M  V30 1760 H 165.148 -2.18439 -3.81026 0
M  V30 1761 H 165.754 -3.35397 -2.61513 0
M  V30 1762 N 164.069 0.697108 -1.41344 0
M  V30 1763 C 165.294 1.49096 -1.44171 0
M  V30 1764 C 165.719 1.88038 -0.0481568 0
M  V30 1765 O 165.077 1.54525 0.948243 0
M  V30 1766 C 165.125 2.73088 -2.3549 0
M  V30 1767 O 164.229 3.70514 -1.81088 0
M  V30 1768 H 163.57 0.448801 -0.489361 0
M  V30 1769 H 166.1 0.856992 -1.85787 0
M  V30 1770 H 166.11 3.21413 -2.51312 0
M  V30 1771 H 164.785 2.44081 -3.36745 0
M  V30 1772 H 163.362 3.29441 -1.74708 0
M  V30 1773 N 165.547 1.27147 0.931209 0
M  V30 1774 C 166.796 1.12664 1.67302 0
M  V30 1775 C 167.109 -0.327718 1.92835 0
M  V30 1776 O 168.315 -0.593392 2.64936 0
M  V30 1777 C 166.771 1.9683 3.01307 0
M  V30 1778 C 166.379 3.46901 2.83485 0
M  V30 1779 C 168.123 1.90985 3.79111 0
M  V30 1780 C 166.03 4.23279 4.13024 0
M  V30 1781 H 164.96 0.41803 0.627509 0
M  V30 1782 H 167.611 1.51539 1.03481 0
M  V30 1783 H 165.993 1.50797 3.66164 0
M  V30 1784 H 167.167 4.00773 2.27415 0
M  V30 1785 H 165.482 3.54088 2.19113 0
M  V30 1786 H 168.079 2.45328 4.75098 0
M  V30 1787 H 168.422 0.882718 4.06834 0
M  V30 1788 H 168.955 2.34895 3.21044 0
M  V30 1789 H 165.694 5.26503 3.90481 0
M  V30 1790 H 165.214 3.74186 4.6877 0
M  V30 1791 H 166.893 4.32265 4.81411 0
M  V30 1792 N 167.025 -1.13721 1.09112 0
M  V30 1793 C 167.955 -2.21148 0.749385 0
M  V30 1794 C 168.936 -1.6792 -0.271475 0
M  V30 1795 O 170.121 -1.93693 -0.140251 0
M  V30 1796 C 167.251 -3.46905 0.165659 0
M  V30 1797 C 166.205 -4.13203 1.11567 0
M  V30 1798 C 165.531 -5.33248 0.393809 0
M  V30 1799 C 166.831 -4.60912 2.45678 0
M  V30 1800 H 168.525 -2.4999 1.64758 0
M  V30 1801 H 166.071 -1.20156 0.793626 0
M  V30 1802 H 168.024 -4.21313 -0.085466 0
M  V30 1803 H 166.748 -3.17449 -0.767714 0
M  V30 1804 H 165.407 -3.40758 1.35202 0
M  V30 1805 H 165.055 -5.00054 -0.543599 0
M  V30 1806 H 164.755 -5.78552 1.02721 0
M  V30 1807 H 166.279 -6.10413 0.150908 0
M  V30 1808 H 167.693 -5.26759 2.26269 0
M  V30 1809 H 166.09 -5.16944 3.04776 0
M  V30 1810 H 167.16 -3.75603 3.06677 0
M  V30 1811 N 168.503 -0.877838 -1.30888 0
M  V30 1812 C 169.749 -0.493426 -1.96706 0
M  V30 1813 C 170.082 0.953504 -1.6918 0
M  V30 1814 O 169.357 1.67266 -0.992594 0
M  V30 1815 C 169.64 -0.760429 -3.51979 0
M  V30 1816 C 169.493 -2.25747 -3.89048 0
M  V30 1817 C 170.812 -0.232148 -4.39487 0
M  V30 1818 H 167.931 -0.180746 -0.714493 0
M  V30 1819 H 170.573 -1.10052 -1.54882 0
M  V30 1820 H 168.723 -0.243715 -3.87735 0
M  V30 1821 H 170.395 -2.84204 -3.63354 0
M  V30 1822 H 168.638 -2.72694 -3.37373 0
M  V30 1823 H 169.309 -2.39491 -4.97341 0
M  V30 1824 H 171.785 -0.674314 -4.106 0
M  V30 1825 H 170.661 -0.448355 -5.47066 0
M  V30 1826 H 170.922 0.866297 -4.33529 0
M  V30 1827 N 169.982 1.44106 -0.638065 0
M  V30 1828 C 171.259 1.95453 -0.0759321 0
M  V30 1829 C 171.639 1.57984 1.40015 0
M  V30 1830 O 170.987 0.857361 2.11806 0
M  V30 1831 C 171.197 3.47655 -0.306132 0
M  V30 1832 C 172.545 4.24114 -0.203008 0
M  V30 1833 O 173.569 3.55405 -0.237871 0
M  V30 1834 O 172.428 5.46381 -0.113827 0
M  V30 1835 H 169.522 0.826797 0.0183332 0
M  V30 1836 H 172.068 1.54122 -0.710251 0
M  V30 1837 H 170.84 3.68 -1.3301 0
M  V30 1838 H 170.463 3.95949 0.361991 0
M  V30 1839 N 171.46 0.379036 1.52974 0
M  V30 1840 C 172.407 -0.461048 2.26148 0
M  V30 1841 C 173.377 -1.06637 1.27349 0
M  V30 1842 O 174.562 -1.09633 1.56157 0
M  V30 1843 C 171.702 -1.58782 3.06402 0
M  V30 1844 C 170.815 -1.00636 4.20115 0
M  V30 1845 C 169.95 -2.10334 4.87784 0
M  V30 1846 C 168.989 -1.49724 5.93506 0
M  V30 1847 N 168.126 -2.5331 6.54812 0
M  V30 1848 H 172.966 0.169429 2.97518 0
M  V30 1849 H 170.503 0.0953806 1.4679 0
M  V30 1850 H 172.461 -2.25174 3.51215 0
M  V30 1851 H 171.091 -2.18876 2.37261 0
M  V30 1852 H 170.143 -0.232332 3.7969 0
M  V30 1853 H 171.455 -0.523343 4.96047 0
M  V30 1854 H 170.609 -2.84519 5.35849 0
M  V30 1855 H 169.348 -2.61992 4.11353 0
M  V30 1856 H 168.353 -0.740598 5.44789 0
M  V30 1857 H 169.578 -0.988732 6.71864 0
M  V30 1858 H 167.524 -3.04156 5.81227 0
M  V30 1859 H 167.441 -2.09734 7.26325 0
M  V30 1860 H 168.709 -3.27155 7.07524 0
M  V30 1861 N 172.938 -1.57226 0.108567 0
M  V30 1862 C 174.163 -1.99604 -0.563303 0
M  V30 1863 C 174.588 -0.987563 -1.6009 0
M  V30 1864 O 173.946 0.0421687 -1.81251 0
M  V30 1865 C 173.994 -3.40902 -1.17552 0
M  V30 1866 O 173.098 -3.42896 -2.2912 0
M  V30 1867 H 172.439 -0.648704 -0.1417 0
M  V30 1868 H 174.969 -2.03679 0.193961 0
M  V30 1869 H 174.979 -3.78886 -1.51357 0
M  V30 1870 H 173.654 -4.1382 -0.415445 0
M  V30 1871 H 172.231 -3.1672 -1.96832 0
M  V30 1872 N 174.416 0.165178 -1.56732 0
M  V30 1873 C 175.664 0.879068 -1.8198 0
M  V30 1874 C 175.985 1.82514 -0.686561 0
M  V30 1875 O 175.255 1.93694 0.293146 0
M  V30 1876 H 173.835 0.327608 -0.671329 0
M  V30 1877 H 176.497 0.163526 -1.94213 0
M  V30 1878 H 175.593 1.45228 -2.76252 0
M  V30 1879 N 175.894 1.51508 0.433938 0
M  V30 1880 C 176.841 1.73068 1.52696 0
M  V30 1881 C 177.811 0.572441 1.55924 0
M  V30 1882 O 178.996 0.807253 1.72882 0
M  V30 1883 C 176.136 1.86474 2.90381 0
M  V30 1884 C 175.249 3.14037 2.96656 0
M  V30 1885 C 174.384 3.18019 4.25485 0
M  V30 1886 C 173.423 4.39882 4.2564 0
M  V30 1887 N 172.56 4.41394 5.45999 0
M  V30 1888 H 177.4 2.66366 1.33615 0
M  V30 1889 H 174.937 1.32008 0.649018 0
M  V30 1890 H 176.895 1.92229 3.70275 0
M  V30 1891 H 175.525 0.965809 3.08013 0
M  V30 1892 H 174.577 3.17575 2.09404 0
M  V30 1893 H 175.889 4.0394 2.92633 0
M  V30 1894 H 175.043 3.22708 5.13755 0
M  V30 1895 H 173.782 2.2601 4.3217 0
M  V30 1896 H 172.787 4.35366 3.35763 0
M  V30 1897 H 174.012 5.33159 4.20617 0
M  V30 1898 H 171.958 3.52258 5.53399 0
M  V30 1899 H 171.875 5.25111 5.4387 0
M  V30 1900 H 173.143 4.50281 6.36292 0
M  V30 1901 N 177.372 -0.689602 1.41712 0
M  V30 1902 C 178.621 -1.44534 1.40686 0
M  V30 1903 C 178.934 -1.95588 0.0213352 0
M  V30 1904 O 180.14 -2.71271 -0.111534 0
M  V30 1905 C 178.596 -2.61387 2.47396 0
M  V30 1906 C 178.204 -2.17094 3.91885 0
M  V30 1907 C 179.948 -3.38986 2.55517 0
M  V30 1908 C 177.855 -3.3094 4.90135 0
M  V30 1909 H 176.785 -0.542925 0.52321 0
M  V30 1910 H 179.436 -0.748054 1.6756 0
M  V30 1911 H 177.818 -3.33412 2.13664 0
M  V30 1912 H 178.992 -1.52318 4.34897 0
M  V30 1913 H 177.307 -1.52473 3.8748 0
M  V30 1914 H 179.904 -4.23747 3.26102 0
M  V30 1915 H 180.247 -3.84578 1.59391 0
M  V30 1916 H 180.78 -2.74021 2.8837 0
M  V30 1917 H 177.519 -2.90355 5.87685 0
M  V30 1918 H 177.039 -3.94546 4.51767 0
M  V30 1919 H 178.718 -3.9663 5.11169 0
M  V30 1920 N 178.85 -1.27639 -0.924453 0
M  V30 1921 C 180.096 -1.14336 -1.67497 0
M  V30 1922 C 180.429 0.309465 -1.91718 0
M  V30 1923 O 179.704 1.22608 -1.50989 0
M  V30 1924 C 179.987 -1.93096 -3.0395 0
M  V30 1925 C 179.84 -3.46381 -2.8695 0
M  V30 1926 C 181.159 -1.73798 -4.0433 0
M  V30 1927 H 178.278 -0.416728 -0.607871 0
M  V30 1928 H 180.92 -1.56832 -1.07256 0
M  V30 1929 H 179.07 -1.56982 -3.55372 0
M  V30 1930 H 180.742 -3.92343 -2.42621 0
M  V30 1931 H 178.985 -3.72557 -2.22225 0
M  V30 1932 H 179.656 -3.96735 -3.83804 0
M  V30 1933 H 182.132 -2.05293 -3.61931 0
M  V30 1934 H 181.008 -2.31294 -4.97789 0
M  V30 1935 H 181.269 -0.686725 -4.36734 0
M  V30 1936 N 180.328 1.1314 -1.09713 0
M  V30 1937 C 181.576 1.84119 -0.833338 0
M  V30 1938 C 181.897 1.84097 0.642904 0
M  V30 1939 O 181.167 1.29881 1.46655 0
M  V30 1940 H 179.747 0.681766 -0.305293 0
M  V30 1941 H 182.409 1.37038 -1.38588 0
M  V30 1942 H 181.505 2.88543 -1.18951 0
M  V30 1943 N 181.806 0.884767 1.30421 0
M  V30 1944 C 182.753 0.349642 2.28136 0
M  V30 1945 C 183.723 -0.560061 1.56373 0
M  V30 1946 O 184.908 -0.488524 1.8444 0
M  V30 1947 C 182.048 -0.42999 3.42411 0
M  V30 1948 C 181.161 0.508907 4.28992 0
M  V30 1949 C 180.296 -0.286301 5.30428 0
M  V30 1950 C 179.335 0.648079 6.08659 0
M  V30 1951 N 178.472 -0.111792 7.02011 0
M  V30 1952 H 183.312 1.18807 2.73293 0
M  V30 1953 H 180.849 0.597231 1.3443 0
M  V30 1954 H 182.807 -0.897923 4.07423 0
M  V30 1955 H 181.437 -1.23299 2.98324 0
M  V30 1956 H 180.489 1.09533 3.64289 0
M  V30 1957 H 181.801 1.22475 4.8353 0
M  V30 1958 H 180.955 -0.816098 6.01186 0
M  V30 1959 H 179.694 -1.03536 4.76583 0
M  V30 1960 H 178.699 1.18951 5.36778 0
M  V30 1961 H 179.924 1.39623 6.64592 0
M  V30 1962 H 177.87 -0.843395 6.50556 0
M  V30 1963 H 177.787 0.544429 7.54037 0
M  V30 1964 H 179.055 -0.622339 7.77012 0
M  V30 1965 N 183.284 -1.43765 0.645699 0
M  V30 1966 C 184.514 -2.05953 0.163318 0
M  V30 1967 C 184.922 -1.48432 -1.17322 0
M  V30 1968 O 184.265 -0.607295 -1.73371 0
M  V30 1969 C 184.327 -3.59499 -0.0103065 0
M  V30 1970 C 183.991 -4.39563 1.25035 0
M  V30 1971 C 184.988 -4.72108 2.17739 0
M  V30 1972 C 182.673 -4.79697 1.48983 0
M  V30 1973 C 184.667 -5.43688 3.3269 0
M  V30 1974 C 182.354 -5.51023 2.64229 0
M  V30 1975 C 183.352 -5.8294 3.55908 0
M  V30 1976 O 183.04 -6.5281 4.69142 0
M  V30 1977 H 182.772 -0.670798 0.0836986 0
M  V30 1978 H 185.326 -1.85384 0.884407 0
M  V30 1979 H 183.556 -3.78613 -0.78669 0
M  V30 1980 H 185.245 -4.03408 -0.449087 0
M  V30 1981 H 186.011 -4.41627 2.00476 0
M  V30 1982 H 181.89 -4.54266 0.785078 0
M  V30 1983 H 185.434 -5.68517 4.04269 0
M  V30 1984 H 181.331 -5.8092 2.81429 0
M  V30 1985 H 182.099 -6.71288 4.6831 0
M  V30 1986 N 184.763 -0.387143 -1.52771 0
M  V30 1987 C 186.179 -0.037007 -1.59557 0
M  V30 1988 C 186.379 1.44801 -1.40124 0
M  V30 1989 O 185.435 2.21227 -1.21716 0
M  V30 1990 C 186.748 -0.512256 -2.96305 0
M  V30 1991 C 188.296 -0.468328 -3.09476 0
M  V30 1992 C 188.771 -0.919731 -4.4867 0
M  V30 1993 N 190.262 -0.875656 -4.54848 0
M  V30 1994 C 190.997 -1.19637 -5.6078 0
M  V30 1995 N 190.493 -1.58745 -6.74368 0
M  V30 1996 N 192.286 -1.11776 -5.50874 0
M  V30 1997 H 184.437 -1.35395 -1.63652 0
M  V30 1998 H 186.7 -0.554818 -0.768688 0
M  V30 1999 H 186.406 -1.54935 -3.15734 0
M  V30 2000 H 186.28 0.089805 -3.77093 0
M  V30 2001 H 188.667 0.559671 -2.89744 0
M  V30 2002 H 188.748 -1.10616 -2.30646 0
M  V30 2003 H 188.392 -1.94595 -4.69143 0
M  V30 2004 H 188.322 -0.258927 -5.25963 0
M  V30 2005 H 190.813 -0.587843 -3.733 0
M  V30 2006 H 191.126 -1.81586 -7.51163 0
M  V30 2007 H 189.471 -1.6263 -6.75705 0
M  V30 2008 H 192.662 -0.811264 -4.61016 0
M  V30 2009 H 192.835 -1.37103 -6.3333 0
M  V30 2010 N 186.241 1.57166 -0.116904 0
M  V30 2011 C 187.188 2.15202 0.83408 0
M  V30 2012 C 188.158 1.07644 1.26499 0
M  V30 2013 O 189.343 1.35541 1.34288 0
M  V30 2014 C 186.483 2.75405 2.07957 0
M  V30 2015 C 185.596 3.97264 1.69721 0
M  V30 2016 C 184.731 4.45561 2.89221 0
M  V30 2017 C 183.77 5.59956 2.47215 0
M  V30 2018 N 182.907 6.03006 3.59622 0
M  V30 2019 H 187.747 2.96141 0.332335 0
M  V30 2020 H 185.284 1.46309 0.152349 0
M  V30 2021 H 187.242 3.08439 2.80929 0
M  V30 2022 H 185.872 1.97159 2.55594 0
M  V30 2023 H 184.924 3.70404 0.866316 0
M  V30 2024 H 186.236 4.80226 1.34849 0
M  V30 2025 H 185.39 4.80493 3.7042 0
M  V30 2026 H 184.129 3.61544 3.27318 0
M  V30 2027 H 183.134 5.2463 1.64448 0
M  V30 2028 H 184.359 6.45738 2.10238 0
M  V30 2029 H 182.305 5.21931 3.97396 0
M  V30 2030 H 182.222 6.80819 3.28667 0
M  V30 2031 H 183.49 6.42576 4.41267 0
M  V30 2032 N 187.719 -0.156864 1.56817 0
M  V30 2033 C 188.968 -0.869504 1.81996 0
M  V30 2034 C 189.281 -1.82777 0.696545 0
M  V30 2035 O 190.487 -2.58384 0.833658 0
M  V30 2036 C 188.943 -1.59679 3.22538 0
M  V30 2037 C 188.551 -0.681431 4.42787 0
M  V30 2038 C 190.295 -2.2968 3.56997 0
M  V30 2039 C 188.202 -1.40978 5.74351 0
M  V30 2040 H 187.132 -0.328438 0.678708 0
M  V30 2041 H 189.783 -0.1223 1.83092 0
M  V30 2042 H 188.165 -2.38927 3.158 0
M  V30 2043 H 189.339 0.0751166 4.60739 0
M  V30 2044 H 187.654 -0.0903431 4.16302 0
M  V30 2045 H 190.251 -2.84794 4.52544 0
M  V30 2046 H 190.594 -3.05707 2.82576 0
M  V30 2047 H 191.127 -1.57361 3.65352 0
M  V30 2048 H 187.866 -0.691561 6.51842 0
M  V30 2049 H 187.386 -2.13929 5.60352 0
M  V30 2050 H 189.065 -1.95337 6.16808 0
M  V30 2051 N 189.197 -1.51736 -0.425897 0
M  V30 2052 C 190.147 -1.70258 -1.51645 0
M  V30 2053 C 191.131 -0.556488 -1.5097 0
M  V30 2054 O 192.323 -0.812879 -1.5723 0
M  V30 2055 C 189.452 -1.84143 -2.89735 0
M  V30 2056 C 188.538 -3.04572 -2.95122 0
M  V30 2057 N 188.929 -4.2756 -2.70233 0
M  V30 2058 C 187.227 -3.04061 -3.26286 0
M  V30 2059 C 187.928 -5.08908 -2.81757 0
M  V30 2060 N 186.904 -4.43797 -3.13919 0
M  V30 2061 H 190.706 -2.63004 -1.31172 0
M  V30 2062 H 188.22 -1.4954 -0.633375 0
M  V30 2063 H 190.217 -1.95525 -3.68206 0
M  V30 2064 H 188.877 -0.925857 -3.1122 0
M  V30 2065 H 189.888 -4.56315 -2.44943 0
M  V30 2066 H 186.565 -2.22179 -3.53473 0
M  V30 2067 H 187.955 -6.16843 -2.66372 0
M  V30 2068 N 190.675 0.682077 -1.42076 0
M  V30 2069 C 191.605 1.80796 -1.47767 0
M  V30 2070 C 192.586 1.6677 -0.334954 0
M  V30 2071 O 193.771 1.863 -0.548264 0
M  V30 2072 C 190.901 3.19038 -1.37229 0
M  V30 2073 C 189.855 3.47789 -2.49453 0
M  V30 2074 C 189.181 4.8553 -2.23975 0
M  V30 2075 C 190.481 3.45411 -3.91776 0
M  V30 2076 H 192.175 1.7629 -2.41997 0
M  V30 2077 H 189.721 0.846721 -1.16476 0
M  V30 2078 H 191.674 3.97528 -1.39821 0
M  V30 2079 H 190.398 3.24204 -0.394907 0
M  V30 2080 H 189.057 2.71657 -2.46166 0
M  V30 2081 H 188.705 4.87337 -1.24547 0
M  V30 2082 H 188.405 5.0573 -2.99184 0
M  V30 2083 H 189.929 5.66312 -2.28304 0
M  V30 2084 H 191.343 4.13882 -3.96705 0
M  V30 2085 H 189.74 3.77145 -4.66778 0
M  V30 2086 H 190.81 2.44122 -4.18966 0
M  V30 2087 N 192.153 1.28127 0.917671 0
M  V30 2088 C 193.564 1.13622 1.48145 0
M  V30 2089 C 193.915 -0.275207 1.9426 0
M  V30 2090 O 193.04 -1.1691 1.82102 0
M  V30 2091 C 193.635 2.05648 2.69248 0
M  V30 2092 C 192.194 1.95219 3.21818 0
M  V30 2093 C 191.341 1.97618 1.94532 0
M  V30 2094 H 194.292 1.40874 0.730772 0
M  V30 2095 H 194.313 1.61818 3.44377 0
M  V30 2096 H 193.825 3.08365 2.35653 0
M  V30 2097 H 191.926 0.955244 3.60147 0
M  V30 2098 H 192.039 2.81976 3.87333 0
M  V30 2099 H 190.403 1.41973 2.11461 0
M  V30 2100 H 191.186 3.02007 1.63238 0
M  V30 2101 N 193.631 -1.12557 1.10312 0
M  V30 2102 C 194.879 -1.83675 0.843091 0
M  V30 2103 C 195.2 -1.84435 -0.633131 0
M  V30 2104 O 194.47 -1.30657 -1.45964 0
M  V30 2105 H 193.05 -0.680138 0.308904 0
M  V30 2106 H 195.712 -1.36301 1.39313 0
M  V30 2107 H 194.808 -2.87908 1.2048 0
M  V30 2108 N 195.109 -0.891671 -1.2995 0
M  V30 2109 C 196.059 -0.334811 -2.25528 0
M  V30 2110 C 197.043 0.540553 -1.51548 0
M  V30 2111 O 198.235 0.383882 -1.72787 0
M  V30 2112 C 195.364 0.44374 -3.4042 0
M  V30 2113 C 194.45 -0.44609 -4.21747 0
M  V30 2114 N 194.841 -1.54963 -4.81477 0
M  V30 2115 C 193.139 -0.242415 -4.45341 0
M  V30 2116 C 193.84 -2.10015 -5.42465 0
M  V30 2117 N 192.816 -1.39423 -5.25416 0
M  V30 2118 H 196.618 -1.17792 -2.69262 0
M  V30 2119 H 194.132 -0.741822 -1.44467 0
M  V30 2120 H 196.129 0.859362 -4.07947 0
M  V30 2121 H 194.789 1.28421 -2.98225 0
M  V30 2122 H 195.8 -1.93244 -4.80497 0
M  V30 2123 H 192.477 0.560342 -4.13723 0
M  V30 2124 H 193.867 -3.02724 -5.9984 0
M  V30 2125 N 196.587 1.43421 -0.653314 0
M  V30 2126 C 197.534 2.30768 0.0382271 0
M  V30 2127 C 198.504 1.44755 0.814576 0
M  V30 2128 O 199.689 1.73624 0.791162 0
M  V30 2129 C 196.829 3.30336 0.998599 0
M  V30 2130 C 195.942 4.31448 0.218342 0
M  V30 2131 C 195.077 5.18098 1.17252 0
M  V30 2132 C 194.116 6.10902 0.382702 0
M  V30 2133 N 193.253 6.90176 1.28848 0
M  V30 2134 H 198.093 2.89357 -0.712511 0
M  V30 2135 H 195.63 1.42548 -0.363128 0
M  V30 2136 H 197.588 3.86572 1.56901 0
M  V30 2137 H 196.218 2.73397 1.71621 0
M  V30 2138 H 195.27 3.77506 -0.46836 0
M  V30 2139 H 196.582 4.97227 -0.395812 0
M  V30 2140 H 195.736 5.7896 1.81356 0
M  V30 2141 H 194.475 4.52444 1.82058 0
M  V30 2142 H 193.48 5.49128 -0.27169 0
M  V30 2143 H 194.705 6.78598 -0.260957 0
M  V30 2144 H 192.651 6.27171 1.92334 0
M  V30 2145 H 192.568 7.52478 0.728887 0
M  V30 2146 H 193.836 7.55543 1.91766 0
M  V30 2147 N 198.065 0.39524 1.52563 0
M  V30 2148 C 198.975 -0.444232 2.30356 0
M  V30 2149 C 199.991 -1.06615 1.37511 0
M  V30 2150 O 201.167 -1.07067 1.70583 0
M  V30 2151 C 198.232 -1.55315 3.09964 0
M  V30 2152 C 197.293 -0.955734 4.18526 0
M  V30 2153 C 196.526 -2.01181 4.9433 0
M  V30 2154 O 196.749 -3.22781 4.70285 0
M  V30 2155 O 195.683 -1.62579 5.79527 0
M  V30 2156 H 199.509 0.189667 3.03107 0
M  V30 2157 H 197.094 0.1588 1.48554 0
M  V30 2158 H 198.976 -2.19724 3.59582 0
M  V30 2159 H 197.651 -2.17191 2.4002 0
M  V30 2160 H 196.558 -0.274743 3.7309 0
M  V30 2161 H 197.891 -0.381109 4.90722 0
M  V30 2162 N 199.544 -1.57102 0.125237 0
M  V30 2163 C 200.774 -1.99472 -0.538015 0
M  V30 2164 C 201.182 -1.00395 -1.60366 0
M  V30 2165 O 200.525 0.0103875 -1.83697 0
M  V30 2166 C 200.587 -3.38262 -1.21734 0
M  V30 2167 C 200.251 -4.56021 -0.298897 0
M  V30 2168 C 201.248 -5.17817 0.464943 0
M  V30 2169 C 198.933 -5.01869 -0.208149 0
M  V30 2170 C 200.927 -6.23852 1.3072 0
M  V30 2171 C 198.614 -6.07763 0.637736 0
M  V30 2172 C 199.612 -6.68622 1.39403 0
M  V30 2173 O 199.3 -7.7247 2.22586 0
M  V30 2174 H 199.032 -0.659934 -0.146501 0
M  V30 2175 H 201.586 -2.04321 0.210267 0
M  V30 2176 H 199.816 -3.30185 -2.01282 0
M  V30 2177 H 201.505 -3.6488 -1.77813 0
M  V30 2178 H 202.271 -4.83308 0.404741 0
M  V30 2179 H 198.15 -4.54241 -0.786522 0
M  V30 2180 H 201.694 -6.71284 1.898 0
M  V30 2181 H 197.591 -6.41701 0.699309 0
M  V30 2182 H 198.359 -7.89595 2.15596 0
M  V30 2183 N 201.022 0.148545 -1.56898 0
M  V30 2184 C 201.932 1.20293 -2.01412 0
M  V30 2185 C 202.948 1.47107 -0.929273 0
M  V30 2186 O 204.124 1.58807 -1.23863 0
M  V30 2187 C 201.189 2.51682 -2.38447 0
M  V30 2188 C 200.25 2.32529 -3.60872 0
M  V30 2189 C 199.483 3.57653 -3.96132 0
M  V30 2190 O 199.706 4.63771 -3.32073 0
M  V30 2191 O 198.64 3.50408 -4.89385 0
M  V30 2192 H 202.466 0.855025 -2.91416 0
M  V30 2193 H 200.051 0.357151 -1.45068 0
M  V30 2194 H 201.933 3.29147 -2.63135 0
M  V30 2195 H 200.608 2.86006 -1.51599 0
M  V30 2196 H 199.515 1.53019 -3.41373 0
M  V30 2197 H 200.848 2.03121 -4.48333 0
M  V30 2198 N 202.5 1.5196 0.417844 0
M  V30 2199 C 203.463 1.74065 1.49111 0
M  V30 2200 C 204.463 0.610537 1.48758 0
M  V30 2201 O 205.653 0.87832 1.50437 0
M  V30 2202 C 202.785 1.81502 2.88565 0
M  V30 2203 H 203.978 2.69869 1.30807 0
M  V30 2204 H 201.531 1.42244 0.647785 0
M  V30 2205 H 202.266 0.875813 3.1225 0
M  V30 2206 H 202.051 2.63651 2.90225 0
M  V30 2207 H 203.541 2.00376 3.66387 0
M  V30 2208 N 203.978 -0.674533 1.42435 0
M  V30 2209 C 205.208 -1.46071 1.46105 0
M  V30 2210 C 205.616 -1.89067 0.0709605 0
M  V30 2211 O 204.959 -1.58731 -0.924677 0
M  V30 2212 C 205.021 -2.74145 2.32561 0
M  V30 2213 C 204.685 -2.53224 3.8043 0
M  V30 2214 C 205.682 -2.17809 4.72075 0
M  V30 2215 C 203.367 -2.6821 4.24698 0
M  V30 2216 C 205.361 -1.97648 6.05982 0
M  V30 2217 C 203.048 -2.47665 5.58664 0
M  V30 2218 C 204.046 -2.12437 6.49122 0
M  V30 2219 O 203.734 -1.9209 7.80613 0
M  V30 2220 H 203.466 -0.455959 0.499076 0
M  V30 2221 H 206.02 -0.836193 1.87609 0
M  V30 2222 H 204.25 -3.3908 1.85908 0
M  V30 2223 H 205.939 -3.36028 2.27683 0
M  V30 2224 H 206.705 -2.05826 4.39159 0
M  V30 2225 H 202.584 -2.94609 3.54579 0
M  V30 2226 H 206.128 -1.70075 6.7655 0
M  V30 2227 H 202.025 -2.59244 5.91154 0
M  V30 2228 H 202.793 -2.06686 7.91974 0
M  V30 2229 N 205.456 -1.28612 -0.910864 0
M  V30 2230 C 206.872 -1.06381 -1.18976 0
M  V30 2231 C 207.072 0.191998 -2.00583 0
M  V30 2232 O 206.128 0.892869 -2.36187 0
M  V30 2233 C 207.441 -2.31295 -1.92154 0
M  V30 2234 C 208.989 -2.36503 -2.05025 0
M  V30 2235 C 209.464 -3.61191 -2.81612 0
M  V30 2236 N 210.955 -3.61847 -2.89172 0
M  V30 2237 C 211.69 -4.55004 -3.4894 0
M  V30 2238 N 211.186 -5.58482 -4.09963 0
M  V30 2239 N 212.979 -4.42594 -3.46506 0
M  V30 2240 H 205.13 -2.09221 -0.366094 0
M  V30 2241 H 207.393 -0.921003 -0.224629 0
M  V30 2242 H 207.099 -3.228 -1.39618 0
M  V30 2243 H 206.973 -2.37934 -2.9269 0
M  V30 2244 H 209.36 -1.45494 -2.5674 0
M  V30 2245 H 209.441 -2.33857 -1.03657 0
M  V30 2246 H 209.085 -4.52545 -2.30576 0
M  V30 2247 H 209.015 -3.61092 -3.83302 0
M  V30 2248 H 211.506 -2.87022 -2.45819 0
M  V30 2249 H 211.819 -6.25704 -4.53557 0
M  V30 2250 H 210.164 -5.62305 -4.08459 0
M  V30 2251 H 213.355 -3.60953 -2.98045 0
M  V30 2252 H 213.528 -5.15381 -3.92793 0
M  V30 2253 N 206.934 1.1197 -1.10907 0
M  V30 2254 C 208.345 1.65114 -0.871446 0
M  V30 2255 C 208.696 1.86885 0.597353 0
M  V30 2256 O 207.821 1.59896 1.45816 0
M  V30 2257 C 208.416 2.99944 -1.5754 0
M  V30 2258 C 206.975 3.50018 -1.38435 0
M  V30 2259 C 206.122 2.24941 -1.62164 0
M  V30 2260 H 209.073 0.956851 -1.2661 0
M  V30 2261 H 209.094 3.66651 -1.01721 0
M  V30 2262 H 208.606 2.84067 -2.64438 0
M  V30 2263 H 206.707 3.71071 -0.337214 0
M  V30 2264 H 206.82 4.29165 -2.12965 0
M  V30 2265 H 205.184 2.3229 -1.04467 0
M  V30 2266 H 205.967 2.11612 -2.70324 0
M  V30 2267 N 208.412 0.89855 1.29475 0
M  V30 2268 C 209.659 0.523882 1.95606 0
M  V30 2269 C 209.987 -0.929608 1.70847 0
M  V30 2270 O 209.242 -1.67401 1.01367 0
M  V30 2271 C 209.541 0.761398 3.49195 0
M  V30 2272 C 209.207 2.19207 3.94029 0
M  V30 2273 C 207.869 2.58326 4.05982 0
M  V30 2274 C 210.221 3.12379 4.17216 0
M  V30 2275 C 207.549 3.898 4.38489 0
M  V30 2276 C 209.901 4.43401 4.51197 0
M  V30 2277 C 208.565 4.82394 4.61359 0
M  V30 2278 H 207.835 0.191702 0.715773 0
M  V30 2279 H 210.482 1.13699 1.54094 0
M  V30 2280 H 208.787 0.0653622 3.91745 0
M  V30 2281 H 210.484 0.450904 3.98457 0
M  V30 2282 H 207.074 1.87846 3.85242 0
M  V30 2283 H 211.258 2.83371 4.07449 0
M  V30 2284 H 206.514 4.19734 4.44559 0
M  V30 2285 H 210.688 5.15623 4.68087 0
M  V30 2286 H 208.315 5.84306 4.86303 0
M  V30 2287 N 209.89 -1.43072 0.660911 0
M  V30 2288 C 210.822 -2.29108 -0.0647641 0
M  V30 2289 C 211.835 -1.42928 -0.779448 0
M  V30 2290 O 213.024 -1.66788 -0.635921 0
M  V30 2291 C 210.124 -3.20032 -1.11503 0
M  V30 2292 C 209.297 -4.34792 -0.476955 0
M  V30 2293 C 208.356 -5.06534 -1.42513 0
M  V30 2294 O 207.382 -5.61538 -0.930771 0
M  V30 2295 N 208.584 -5.1075 -2.75889 0
M  V30 2296 H 211.349 -2.92029 0.673731 0
M  V30 2297 H 208.91 -1.53846 0.50427 0
M  V30 2298 H 210.902 -3.64892 -1.75032 0
M  V30 2299 H 209.472 -2.58658 -1.75541 0
M  V30 2300 H 208.692 -3.92752 0.337572 0
M  V30 2301 H 209.98 -5.0879 -0.0318525 0
M  V30 2302 H 209.378 -4.67447 -3.18606 0
M  V30 2303 H 207.935 -5.59302 -3.347 0
M  V30 2304 N 211.368 -0.403325 -1.52352 0
M  V30 2305 C 212.318 0.442244 -2.2367 0
M  V30 2306 C 213.302 1.01823 -1.24583 0
M  V30 2307 O 214.494 0.942005 -1.49851 0
M  V30 2308 C 211.623 1.5615 -3.05732 0
M  V30 2309 C 210.709 0.996575 -4.12225 0
M  V30 2310 N 211.1 0.157804 -5.05554 0
M  V30 2311 C 209.398 1.26767 -4.27605 0
M  V30 2312 C 210.099 -0.155853 -5.81491 0
M  V30 2313 N 209.075 0.451775 -5.41719 0
M  V30 2314 H 212.877 -0.204964 -2.93184 0
M  V30 2315 H 210.391 -0.213418 -1.60992 0
M  V30 2316 H 212.388 2.17981 -3.55373 0
M  V30 2317 H 211.048 2.21139 -2.37755 0
M  V30 2318 H 212.059 -0.206049 -5.1749 0
M  V30 2319 H 208.736 1.91757 -3.70858 0
M  V30 2320 H 210.126 -0.836329 -6.66675 0
M  V30 2321 N 212.846 1.57033 -0.133567 0
M  V30 2322 C 213.776 2.1909 0.807567 0
M  V30 2323 C 214.757 1.13517 1.26681 0
M  V30 2324 O 215.942 1.41809 1.32679 0
M  V30 2325 C 213.072 2.80188 2.05212 0
M  V30 2326 C 212.026 3.91471 1.73015 0
M  V30 2327 C 211.352 4.39443 3.04622 0
M  V30 2328 C 212.652 5.12886 0.987168 0
M  V30 2329 H 214.346 2.97988 0.290403 0
M  V30 2330 H 211.892 1.43335 0.138239 0
M  V30 2331 H 213.845 3.22264 2.71521 0
M  V30 2332 H 212.569 1.98601 2.59278 0
M  V30 2333 H 211.228 3.49993 1.0909 0
M  V30 2334 H 210.876 3.54695 3.56651 0
M  V30 2335 H 210.576 5.14495 2.83847 0
M  V30 2336 H 212.1 4.8418 3.72024 0
M  V30 2337 H 213.514 5.51891 1.55208 0
M  V30 2338 H 211.911 5.93615 0.87985 0
M  V30 2339 H 212.981 4.84894 -0.0235286 0
M  V30 2340 N 214.325 -0.140222 1.56975 0
M  V30 2341 C 215.235 -1.19223 2.02047 0
M  V30 2342 C 216.251 -1.46612 0.937062 0
M  V30 2343 O 217.427 -1.58148 1.24704 0
M  V30 2344 C 214.492 -2.50414 2.39778 0
M  V30 2345 C 213.553 -2.30612 3.621 0
M  V30 2346 C 212.786 -3.55547 3.98023 0
M  V30 2347 O 213.009 -4.62004 3.34528 0
M  V30 2348 O 211.943 -3.47808 4.91237 0
M  V30 2349 H 215.769 -0.839559 2.91865 0
M  V30 2350 H 213.354 -0.349453 1.45256 0
M  V30 2351 H 215.236 -3.27747 2.64877 0
M  V30 2352 H 213.911 -2.85198 1.53114 0
M  V30 2353 H 212.818 -1.51207 3.4218 0
M  V30 2354 H 214.151 -2.00741 4.49404 0
M  V30 2355 N 215.803 -1.52179 -0.40978 0
M  V30 2356 C 216.75 -1.75475 -1.49924 0
M  V30 2357 C 217.72 -0.597175 -1.54994 0
M  V30 2358 O 218.905 -0.834655 -1.71575 0
M  V30 2359 C 216.045 -1.9107 -2.87378 0
M  V30 2360 C 215.158 -3.18717 -2.91622 0
M  V30 2361 C 214.293 -3.24747 -4.20372 0
M  V30 2362 C 213.332 -4.46598 -4.18588 0
M  V30 2363 N 212.469 -4.50025 -5.38908 0
M  V30 2364 H 217.309 -2.68458 -1.29361 0
M  V30 2365 H 214.846 -1.33024 -0.627934 0
M  V30 2366 H 216.804 -1.98096 -3.6717 0
M  V30 2367 H 215.434 -1.01469 -3.06437 0
M  V30 2368 H 214.486 -3.20866 -2.04326 0
M  V30 2369 H 215.798 -4.08544 -2.86169 0
M  V30 2370 H 214.952 -3.30841 -5.08556 0
M  V30 2371 H 213.691 -2.32857 -4.28519 0
M  V30 2372 H 212.696 -4.40652 -3.28794 0
M  V30 2373 H 213.921 -5.39783 -4.12081 0
M  V30 2374 H 211.867 -3.61017 -5.47725 0
M  V30 2375 H 211.784 -5.33697 -5.35447 0
M  V30 2376 H 213.052 -4.60347 -6.29048 0
M  V30 2377 N 217.281 0.66697 -1.42791 0
M  V30 2378 C 218.697 0.981027 -1.25889 0
M  V30 2379 C 218.897 2.00793 -0.168695 0
M  V30 2380 O 217.953 2.48321 0.45747 0
M  V30 2381 C 219.266 1.47838 -2.61848 0
M  V30 2382 C 220.814 1.59575 -2.69267 0
M  V30 2383 C 221.289 2.12704 -4.05612 0
M  V30 2384 N 222.78 2.20026 -4.07606 0
M  V30 2385 C 223.515 2.62227 -5.09926 0
M  V30 2386 N 223.011 3.03824 -6.22626 0
M  V30 2387 N 224.804 2.62045 -4.97281 0
M  V30 2388 H 216.955 -0.0127891 -2.12396 0
M  V30 2389 H 219.218 0.0568258 -0.946295 0
M  V30 2390 H 218.924 0.798299 -3.4252 0
M  V30 2391 H 218.798 2.45579 -2.86305 0
M  V30 2392 H 221.185 2.26687 -1.88936 0
M  V30 2393 H 221.266 0.60302 -2.48591 0
M  V30 2394 H 220.91 1.46198 -4.86404 0
M  V30 2395 H 220.84 3.12782 -4.23645 0
M  V30 2396 H 223.331 1.90708 -3.2625 0
M  V30 2397 H 223.644 3.34734 -6.96544 0
M  V30 2398 H 221.989 3.01662 -6.26119 0
M  V30 2399 H 225.18 2.28916 -4.08308 0
M  V30 2400 H 225.353 2.94613 -5.77154 0
M  V30 2401 N 218.759 1.29093 0.90403 0
M  V30 2402 C 219.989 1.19516 1.68522 0
M  V30 2403 C 220.397 -0.24738 1.87576 0
M  V30 2404 O 219.74 -1.17798 1.40959 0
M  V30 2405 C 219.802 1.83249 3.0929 0
M  V30 2406 C 219.466 3.32531 3.13484 0
M  V30 2407 C 220.463 4.28821 2.93953 0
M  V30 2408 C 218.148 3.73656 3.35688 0
M  V30 2409 C 220.142 5.64212 2.96553 0
M  V30 2410 C 217.829 5.0917 3.37919 0
M  V30 2411 C 218.827 6.04258 3.18373 0
M  V30 2412 O 218.515 7.37298 3.20385 0
M  V30 2413 H 218.247 0.415467 0.533257 0
M  V30 2414 H 220.801 1.70912 1.13922 0
M  V30 2415 H 219.031 1.26358 3.65473 0
M  V30 2416 H 220.72 1.68054 3.69476 0
M  V30 2417 H 221.486 3.98382 2.76616 0
M  V30 2418 H 217.365 3.00101 3.49943 0
M  V30 2419 H 220.909 6.38407 2.81216 0
M  V30 2420 H 216.806 5.39256 3.54787 0
M  V30 2421 H 217.574 7.46048 3.36681 0
M  V30 2422 N 220.237 -1.11381 1.11499 0
M  V30 2423 C 221.484 -1.83132 0.864231 0
M  V30 2424 C 221.812 -1.84683 -0.610114 0
M  V30 2425 O 221.067 -1.29589 -1.46646 0
M  V30 2426 C 221.366 -3.30026 1.37177 0
M  V30 2427 C 221.032 -3.48634 2.85946 0
M  V30 2428 C 219.694 -3.53421 3.26569 0
M  V30 2429 C 222.046 -3.54837 3.81759 0
M  V30 2430 C 219.374 -3.61967 4.61733 0
M  V30 2431 C 221.726 -3.64915 5.1674 0
M  V30 2432 C 220.39 -3.67962 5.5692 0
M  V30 2433 H 219.66 -0.670127 0.316245 0
M  V30 2434 H 222.307 -1.31354 1.3935 0
M  V30 2435 H 220.612 -3.84304 0.762753 0
M  V30 2436 H 222.309 -3.84034 1.15408 0
M  V30 2437 H 218.899 -3.45579 2.53521 0
M  V30 2438 H 223.083 -3.50399 3.51474 0
M  V30 2439 H 218.339 -3.62603 4.92269 0
M  V30 2440 H 222.513 -3.68658 5.90816 0
M  V30 2441 H 220.14 -3.74336 6.61647 0
M  V30 2442 N 221.715 -0.905404 -1.28997 0
M  V30 2443 C 222.625 -0.392246 -2.31298 0
M  V30 2444 C 223.641 0.515889 -1.66176 0
M  V30 2445 O 224.817 0.404093 -1.97304 0
M  V30 2446 C 221.882 0.36686 -3.44754 0
M  V30 2447 C 220.943 -0.573485 -4.25452 0
M  V30 2448 C 220.176 0.149488 -5.33491 0
M  V30 2449 O 220.399 1.37255 -5.5364 0
M  V30 2450 O 219.333 -0.510919 -5.99728 0
M  V30 2451 H 223.159 -1.2411 -2.77183 0
M  V30 2452 H 220.744 -0.669926 -1.33538 0
M  V30 2453 H 222.626 0.795907 -4.13816 0
M  V30 2454 H 221.301 1.19169 -3.00966 0
M  V30 2455 H 220.208 -1.05176 -3.59011 0
M  V30 2456 H 221.541 -1.36489 -4.72897 0
M  V30 2457 N 223.193 1.4272 -0.668489 0
M  V30 2458 C 224.604 1.84793 -0.266151 0
M  V30 2459 C 224.955 1.55959 1.19043 0
M  V30 2460 O 224.08 1.01622 1.91055 0
M  V30 2461 C 224.675 3.35436 -0.476271 0
M  V30 2462 C 223.234 3.76182 -0.128113 0
M  V30 2463 C 222.381 2.66344 -0.771777 0
M  V30 2464 H 225.332 1.32656 -0.871098 0
M  V30 2465 H 225.353 3.79515 0.273561 0
M  V30 2466 H 224.865 3.5639 -1.53647 0
M  V30 2467 H 222.966 3.60836 0.928891 0
M  V30 2468 H 223.079 4.75766 -0.564231 0
M  V30 2469 H 221.443 2.53885 -0.203652 0
M  V30 2470 H 222.226 2.90123 -1.83531 0
M  V30 2471 N 224.671 0.411399 1.52136 0
M  V30 2472 C 225.919 -0.163322 2.01439 0
M  V30 2473 C 226.24 -1.45453 1.29879 0
M  V30 2474 O 225.51 -1.91225 0.4254 0
M  V30 2475 H 224.09 -0.0633447 0.744309 0
M  V30 2476 H 226.752 0.548161 1.87033 0
M  V30 2477 H 225.848 -0.357817 3.10042 0
M  V30 2478 N 226.149 -1.5696 0.141893 0
M  V30 2479 C 227.426 -1.87553 -0.555281 0
M  V30 2480 C 227.806 -1.04699 -1.83306 0
M  V30 2481 O 227.154 -0.132346 -2.28116 0
M  V30 2482 C 227.364 -3.39093 -0.825664 0
M  V30 2483 C 228.712 -4.08199 -1.16869 0
M  V30 2484 O 229.736 -3.44242 -0.915185 0
M  V30 2485 O 228.595 -5.21139 -1.6455 0
M  V30 2486 H 225.689 -0.777188 -0.282679 0
M  V30 2487 H 228.235 -1.68763 0.17812 0
M  V30 2488 H 227.007 -3.91221 0.0788633 0
M  V30 2489 H 226.63 -3.63393 -1.61343 0
M  V30 2490 N 227.627 0.131896 -1.57047 0
M  V30 2491 C 228.557 1.16384 -2.02428 0
M  V30 2492 C 229.538 1.43936 -0.90644 0
M  V30 2493 O 230.723 1.54599 -1.17528 0
M  V30 2494 C 227.853 2.49328 -2.4177 0
M  V30 2495 C 226.807 2.36266 -3.56879 0
M  V30 2496 C 226.133 3.74057 -3.8208 0
M  V30 2497 C 227.433 1.834 -4.89042 0
M  V30 2498 H 229.127 0.786433 -2.88887 0
M  V30 2499 H 226.673 0.376855 -1.38981 0
M  V30 2500 H 228.626 3.21759 -2.7212 0
M  V30 2501 H 227.35 2.88934 -1.52266 0
M  V30 2502 H 226.009 1.66286 -3.26718 0
M  V30 2503 H 225.657 4.11125 -2.89803 0
M  V30 2504 H 225.357 3.66174 -4.59554 0
M  V30 2505 H 226.881 4.48012 -4.1487 0
M  V30 2506 H 228.295 2.45636 -5.18011 0
M  V30 2507 H 226.692 1.8637 -5.70426 0
M  V30 2508 H 227.762 0.790662 -4.7841 0
M  V30 2509 N 229.106 1.52395 0.401703 0
M  V30 2510 C 230.354 1.66488 1.14569 0
M  V30 2511 C 230.675 0.400897 1.90835 0
M  V30 2512 O 229.945 -0.584415 1.8698 0
M  V30 2513 H 228.525 0.613672 0.425929 0
M  V30 2514 H 231.187 1.89464 0.457093 0
M  V30 2515 H 230.283 2.50942 1.85566 0
M  V30 2516 N 230.584 -0.659388 1.43143 0
M  V30 2517 C 231.831 -1.41935 1.44433 0
M  V30 2518 C 232.159 -1.94387 0.0663522 0
M  V30 2519 O 231.414 -1.72314 -0.927706 0
M  V30 2520 C 231.713 -2.62206 2.42864 0
M  V30 2521 C 231.379 -2.28208 3.88886 0
M  V30 2522 C 230.041 -2.18647 4.28657 0
M  V30 2523 C 232.393 -2.00887 4.8093 0
M  V30 2524 C 229.721 -1.79914 5.58433 0
M  V30 2525 C 232.073 -1.63653 6.11065 0
M  V30 2526 C 230.737 -1.52614 6.49819 0
M  V30 2527 H 230.007 -0.519376 0.528517 0
M  V30 2528 H 232.654 -0.750453 1.76183 0
M  V30 2529 H 230.959 -3.34199 2.04495 0
M  V30 2530 H 232.656 -3.2041 2.41119 0
M  V30 2531 H 229.246 -2.36557 3.57406 0
M  V30 2532 H 233.43 -2.07198 4.5098 0
M  V30 2533 H 228.686 -1.69948 5.87305 0
M  V30 2534 H 232.86 -1.41543 6.81864 0
M  V30 2535 H 230.487 -1.22371 7.50286 0
M  V30 2536 N 232.062 -1.29571 -0.897171 0
M  V30 2537 C 233.473 -1.15964 -1.46319 0
M  V30 2538 C 233.824 0.244267 -1.94674 0
M  V30 2539 O 232.949 1.13998 -1.83939 0
M  V30 2540 C 233.544 -2.09906 -2.65942 0
M  V30 2541 C 232.103 -2.00314 -3.18671 0
M  V30 2542 C 231.25 -2.00687 -1.91363 0
M  V30 2543 H 234.201 -1.42019 -0.708268 0
M  V30 2544 H 234.222 -1.67276 -3.41759 0
M  V30 2545 H 233.734 -3.12075 -2.30718 0
M  V30 2546 H 231.835 -1.01242 -3.58582 0
M  V30 2547 H 231.948 -2.88102 -3.82798 0
M  V30 2548 H 230.312 -1.45319 -2.09175 0
M  V30 2549 H 231.095 -3.04566 -1.58413 0
M  V30 2550 N 233.54 1.10788 -1.12088 0
M  V30 2551 C 234.786 1.82942 -0.875226 0
M  V30 2552 C 235.119 1.84779 0.597538 0
M  V30 2553 O 234.394 1.30578 1.44152 0
M  V30 2554 C 234.677 3.29789 -1.44606 0
M  V30 2555 C 234.53 3.36307 -2.98693 0
M  V30 2556 C 235.849 4.26064 -1.10261 0
M  V30 2557 H 232.968 0.664195 -0.319397 0
M  V30 2558 H 235.61 1.29867 -1.38689 0
M  V30 2559 H 233.76 3.75118 -1.01089 0
M  V30 2560 H 235.432 2.99487 -3.50864 0
M  V30 2561 H 233.675 2.76318 -3.34411 0
M  V30 2562 H 234.346 4.39694 -3.33726 0
M  V30 2563 H 236.822 3.88951 -1.4784 0
M  V30 2564 H 235.698 5.27183 -1.52869 0
M  V30 2565 H 235.959 4.42098 -0.0142953 0
M  V30 2566 N 235.018 0.912232 1.28515 0
M  V30 2567 C 236.248 0.559604 1.98877 0
M  V30 2568 C 236.656 -0.863113 1.68366 0
M  V30 2569 O 235.999 -1.58304 0.931969 0
M  V30 2570 C 236.061 0.68703 3.52874 0
M  V30 2571 C 235.725 2.07901 4.06972 0
M  V30 2572 C 236.722 3.05157 4.20922 0
M  V30 2573 C 234.407 2.39178 4.417 0
M  V30 2574 C 236.401 4.31806 4.68852 0
M  V30 2575 C 234.088 3.66068 4.89324 0
M  V30 2576 C 235.086 4.62195 5.02856 0
M  V30 2577 O 234.774 5.86829 5.49442 0
M  V30 2578 H 234.506 0.212191 0.641834 0
M  V30 2579 H 237.06 1.22712 1.64715 0
M  V30 2580 H 235.29 -0.0375486 3.86682 0
M  V30 2581 H 236.979 0.341727 4.04459 0
M  V30 2582 H 237.745 2.82311 3.94367 0
M  V30 2583 H 233.624 1.65109 4.30418 0
M  V30 2584 H 237.168 5.06842 4.79329 0
M  V30 2585 H 233.065 3.88739 5.15318 0
M  V30 2586 H 233.833 5.89597 5.6773 0
M  V30 2587 N 236.496 -1.42363 0.676048 0
M  V30 2588 C 237.773 -1.95183 0.127726 0
M  V30 2589 C 238.153 -1.61641 -1.35777 0
M  V30 2590 O 237.501 -0.913216 -2.09458 0
M  V30 2591 C 237.711 -3.46721 0.398199 0
M  V30 2592 C 239.059 -4.23427 0.315383 0
M  V30 2593 O 240.083 -3.54649 0.332016 0
M  V30 2594 O 238.942 -5.45888 0.25865 0
M  V30 2595 H 236.036 -0.826992 0.00359427 0
M  V30 2596 H 238.582 -1.52184 0.750864 0
M  V30 2597 H 237.354 -3.64344 1.4272 0
M  V30 2598 H 236.977 -3.96769 -0.256885 0
M  V30 2599 N 237.974 -0.419461 -1.51915 0
M  V30 2600 C 239.22 0.153166 -2.02221 0
M  V30 2601 C 239.553 1.43907 -1.30401 0
M  V30 2602 O 238.828 1.90055 -0.413438 0
M  V30 2603 C 239.111 0.390291 -3.57979 0
M  V30 2604 C 238.964 -0.913014 -4.40436 0
M  V30 2605 C 240.283 1.16794 -4.2432 0
M  V30 2606 H 237.402 0.0541924 -0.735005 0
M  V30 2607 H 240.044 -0.554955 -1.81715 0
M  V30 2608 H 238.194 0.993491 -3.75582 0
M  V30 2609 H 239.866 -1.54882 -4.34522 0
M  V30 2610 H 238.109 -1.52168 -4.06236 0
M  V30 2611 H 238.78 -0.701361 -5.47526 0
M  V30 2612 H 241.256 0.657161 -4.10878 0
M  V30 2613 H 240.132 1.3026 -5.3322 0
M  V30 2614 H 240.393 2.19132 -3.83971 0
M  V30 2615 N 239.452 1.56882 -0.150215 0
M  V30 2616 C 240.729 1.87844 0.545327 0
M  V30 2617 C 241.109 1.0567 1.82749 0
M  V30 2618 O 240.457 0.144442 2.28043 0
M  V30 2619 C 240.667 3.39526 0.80767 0
M  V30 2620 C 242.015 4.08814 1.14703 0
M  V30 2621 O 243.039 3.44723 0.896917 0
M  V30 2622 O 241.898 5.22004 1.61784 0
M  V30 2623 H 238.992 0.778677 0.278553 0
M  V30 2624 H 241.538 1.68666 -0.187068 0
M  V30 2625 H 240.31 3.91173 -0.0996096 0
M  V30 2626 H 239.933 3.64243 1.59413 0
M  V30 2627 N 240.93 -0.123565 1.57115 0
M  V30 2628 C 241.893 -1.13583 1.99076 0
M  V30 2629 C 242.893 -1.34564 0.880296 0
M  V30 2630 O 244.083 -1.31158 1.14644 0
M  V30 2631 C 241.215 -2.49128 2.32698 0
M  V30 2632 H 242.408 -0.775287 2.89706 0
M  V30 2633 H 239.961 -0.36771 1.51913 0
M  V30 2634 H 240.696 -2.90111 1.44934 0
M  V30 2635 H 240.481 -2.35255 3.13684 0
M  V30 2636 H 241.971 -3.2199 2.65918 0
M  V30 2637 N 242.408 -1.52605 -0.393616 0
M  V30 2638 C 243.371 -1.76415 -1.46323 0
M  V30 2639 C 244.371 -0.634126 -1.47768 0
M  V30 2640 O 245.561 -0.902142 -1.4902 0
M  V30 2641 C 242.693 -1.8607 -2.85641 0
M  V30 2642 H 243.886 -2.71916 -1.26498 0
M  V30 2643 H 241.439 -1.43257 -0.625073 0
M  V30 2644 H 242.174 -0.925378 -3.10817 0
M  V30 2645 H 241.959 -2.68235 -2.85993 0
M  V30 2646 H 243.449 -2.06179 -3.63153 0
M  V30 2647 N 243.887 0.651787 -1.4349 0
M  V30 2648 C 244.834 1.76462 -1.4876 0
M  V30 2649 C 245.804 1.62641 -0.337189 0
M  V30 2650 O 246.989 1.82864 -0.544544 0
M  V30 2651 C 244.129 3.14623 -1.41796 0
M  V30 2652 C 243.242 3.39568 -2.67053 0
M  V30 2653 C 242.377 4.67585 -2.52068 0
M  V30 2654 C 241.416 4.85639 -3.72587 0
M  V30 2655 N 240.553 6.04915 -3.56402 0
M  V30 2656 H 245.393 1.71293 -2.43849 0
M  V30 2657 H 242.93 0.835889 -1.21043 0
M  V30 2658 H 244.888 3.94496 -1.35753 0
M  V30 2659 H 243.518 3.18859 -0.50288 0
M  V30 2660 H 242.57 2.53783 -2.8337 0
M  V30 2661 H 243.882 3.48795 -3.56572 0
M  V30 2662 H 243.036 5.55586 -2.4374 0
M  V30 2663 H 241.775 4.60681 -1.60075 0
M  V30 2664 H 240.78 3.96073 -3.81321 0
M  V30 2665 H 242.005 4.94372 -4.65589 0
M  V30 2666 H 239.951 5.9914 -2.67146 0
M  V30 2667 H 239.868 6.15106 -4.39524 0
M  V30 2668 H 241.136 6.95533 -3.51929 0
M  V30 2669 N 245.365 1.30045 0.890287 0
M  V30 2670 C 246.298 1.10301 1.99772 0
M  V30 2671 C 247.276 0.0121631 1.62595 0
M  V30 2672 O 248.46 0.16469 1.87779 0
M  V30 2673 C 245.587 0.681125 3.31781 0
M  V30 2674 C 244.633 1.77206 3.87944 0
M  V30 2675 S 245.466 3.37335 4.15891 0
M  V30 2676 C 246.622 2.97036 5.50927 0
M  V30 2677 H 246.855 2.04057 2.16213 0
M  V30 2678 H 244.388 1.14299 1.03804 0
M  V30 2679 H 246.346 0.444439 4.08087 0
M  V30 2680 H 245.007 -0.236981 3.13205 0
M  V30 2681 H 244.2 1.42903 4.83316 0
M  V30 2682 H 243.802 1.96275 3.18358 0
M  V30 2683 H 246.094 2.44666 6.31779 0
M  V30 2684 H 247.037 3.91296 5.90164 0
M  V30 2685 H 247.445 2.35057 5.13233 0
M  V30 2686 N 246.843 -1.10192 1.12674 0
M  V30 2687 C 248.091 -1.81845 0.881861 0
M  V30 2688 C 248.412 -1.85737 -0.593867 0
M  V30 2689 O 247.682 -1.33724 -1.4316 0
M  V30 2690 H 246.262 -0.673432 0.323261 0
M  V30 2691 H 248.924 -1.33316 1.42172 0
M  V30 2692 H 248.02 -2.85288 1.2656 0
M  V30 2693 N 248.321 -0.919034 -1.28029 0
M  V30 2694 C 249.254 -0.355887 -2.25408 0
M  V30 2695 C 250.232 0.542874 -1.5327 0
M  V30 2696 O 251.416 0.485338 -1.82145 0
M  V30 2697 C 248.543 0.490759 -3.35126 0
M  V30 2698 C 247.589 -0.343358 -4.25116 0
M  V30 2699 S 248.422 -1.75344 -5.05979 0
M  V30 2700 C 249.578 -0.914244 -6.19187 0
M  V30 2701 H 249.811 -1.18123 -2.72826 0
M  V30 2702 H 247.344 -0.720636 -1.36551 0
M  V30 2703 H 249.302 0.973404 -3.98792 0
M  V30 2704 H 247.963 1.29054 -2.86363 0
M  V30 2705 H 247.156 0.304266 -5.03081 0
M  V30 2706 H 246.758 -0.759851 -3.662 0
M  V30 2707 H 249.05 -0.146282 -6.77342 0
M  V30 2708 H 249.993 -1.66661 -6.88208 0
M  V30 2709 H 250.401 -0.460082 -5.62622 0
M  V30 2710 N 249.799 1.42003 -0.683588 0
M  V30 2711 C 251.046 2.01413 -0.209514 0
M  V30 2712 C 251.374 1.54088 1.1869 0
M  V30 2713 O 250.629 0.737591 1.81268 0
M  V30 2714 C 250.928 3.56827 -0.202357 0
M  V30 2715 C 250.594 4.23617 -1.54464 0
M  V30 2716 C 249.256 4.41577 -1.91215 0
M  V30 2717 C 251.608 4.61178 -2.42826 0
M  V30 2718 C 248.936 4.9437 -3.15935 0
M  V30 2719 C 251.288 5.15355 -3.66867 0
M  V30 2720 C 249.952 5.31528 -4.03776 0
M  V30 2721 H 249.222 0.737023 -0.0766668 0
M  V30 2722 H 251.869 1.70067 -0.880312 0
M  V30 2723 H 250.174 3.87892 0.551969 0
M  V30 2724 H 251.871 4.00588 0.181793 0
M  V30 2725 H 248.461 4.10004 -1.24877 0
M  V30 2726 H 252.645 4.46968 -2.15717 0
M  V30 2727 H 247.901 5.05076 -3.44541 0
M  V30 2728 H 252.075 5.43402 -4.35531 0
M  V30 2729 H 249.702 5.72199 -5.00492 0
M  V30 2730 N 251.277 0.427512 1.51691 0
M  V30 2731 C 252.526 -0.143679 2.01188 0
M  V30 2732 C 252.839 -1.44642 1.31674 0
M  V30 2733 O 254.045 -2.09997 1.72086 0
M  V30 2734 C 252.501 -0.306602 3.58592 0
M  V30 2735 C 252.109 0.985125 4.37035 0
M  V30 2736 C 253.853 -0.832091 4.16265 0
M  V30 2737 C 251.76 0.788382 5.86122 0
M  V30 2738 H 250.69 -0.0574701 0.751807 0
M  V30 2739 H 253.341 0.555772 1.74881 0
M  V30 2740 H 251.723 -1.06882 3.81303 0
M  V30 2741 H 252.897 1.75492 4.26074 0
M  V30 2742 H 251.212 1.4384 3.90767 0
M  V30 2743 H 253.809 -0.995617 5.25349 0
M  V30 2744 H 254.152 -1.81186 3.74803 0
M  V30 2745 H 254.685 -0.128444 3.97593 0
M  V30 2746 H 251.424 1.74025 6.31978 0
M  V30 2747 H 250.944 0.0582143 5.99772 0
M  V30 2748 H 252.623 0.437722 6.45518 0
M  V30 2749 N 252.755 -1.56801 0.158532 0
M  V30 2750 C 253.995 -1.98383 -0.49229 0
M  V30 2751 C 254.359 -1.04184 -1.61275 0
M  V30 2752 O 255.56 -1.34856 -2.32524 0
M  V30 2753 C 253.831 -3.4385 -0.974766 0
M  V30 2754 S 255.39 -4.07459 -1.62857 0
M  V30 2755 H 252.208 -0.693041 -0.158794 0
M  V30 2756 H 254.81 -1.93856 0.252974 0
M  V30 2757 H 253.514 -4.10131 -0.148688 0
M  V30 2758 H 253.045 -3.52115 -1.75438 0
M  V30 2759 H 255.06 -4.01458 -2.91627 0
M  V30 2760 N 254.233 0.115231 -1.57178 0
M  V30 2761 C 255.181 1.16014 -2.01602 0
M  V30 2762 C 256.175 1.42653 -0.913587 0
M  V30 2763 O 257.381 1.42571 -1.09879 0
M  V30 2764 H 253.756 0.391252 -0.642204 0
M  V30 2765 H 255.727 0.758998 -2.88586 0
M  V30 2766 C 254.476 2.47767 -2.4394 0
M  V30 2767 H 253.799 2.28108 -3.28339 0
M  V30 2768 H 255.239 3.19432 -2.78818 0
M  V30 2769 C 253.698 3.10617 -1.30455 0
M  V30 2770 O 254.228 3.96846 -0.622585 0
M  V30 2771 N 252.434 2.70553 -1.06064 0
M  V30 2772 H 251.981 2.00527 -1.61699 0
M  V30 2773 H 251.939 3.12934 -0.303284 0
M  V30 2774 N 255.711 1.52812 0.385517 0
M  V30 2775 C 256.988 1.5861 1.14465 0
M  V30 2776 C 257.368 0.381402 2.07626 0
M  V30 2777 O 256.716 -0.629999 2.19643 0
M  V30 2778 C 256.926 2.92664 1.90128 0
M  V30 2779 C 258.274 3.46526 2.45367 0
M  V30 2780 O 259.298 2.94562 2.0028 0
M  V30 2781 O 258.157 4.37323 3.27736 0
M  V30 2782 H 255.251 0.639855 0.523941 0
M  V30 2783 H 257.797 1.65149 0.390389 0
M  V30 2784 H 256.569 3.71788 1.22022 0
M  V30 2785 H 256.192 2.89527 2.72507 0
M  V30 2786 N 257.189 -0.644168 1.43834 0
M  V30 2787 C 258.605 -0.960875 1.27434 0
M  V30 2788 C 258.805 -2.00499 0.200618 0
M  V30 2789 O 257.861 -2.49018 -0.417906 0
M  V30 2790 C 259.174 -1.43653 2.64167 0
M  V30 2791 C 260.722 -1.55271 2.71772 0
M  V30 2792 C 261.197 -2.06224 4.08944 0
M  V30 2793 N 262.688 -2.13513 4.11055 0
M  V30 2794 C 263.423 -2.54081 5.14033 0
M  V30 2795 N 262.919 -2.9388 6.27381 0
M  V30 2796 N 264.712 -2.54101 5.01387 0
M  V30 2797 H 256.863 0.0465779 2.12349 0
M  V30 2798 H 259.126 -0.0417638 0.94708 0
M  V30 2799 H 258.832 -0.743706 3.43747 0
M  V30 2800 H 258.706 -2.40993 2.90176 0
M  V30 2801 H 261.093 -2.23653 1.92519 0
M  V30 2802 H 261.174 -0.563395 2.49519 0
M  V30 2803 H 260.818 -1.38441 4.88668 0
M  V30 2804 H 260.748 -3.06003 4.28567 0
M  V30 2805 H 263.239 -1.85493 3.29242 0
M  V30 2806 H 263.552 -3.2361 7.01781 0
M  V30 2807 H 261.897 -2.91663 6.30839 0
M  V30 2808 H 265.088 -2.22391 4.11898 0
M  V30 2809 H 265.261 -2.85394 5.81768 0
M  V30 2810 N 258.668 -1.30515 -0.883378 0
M  V30 2811 C 260.084 -1.08881 -1.16692 0
M  V30 2812 C 260.284 0.149409 -2.00945 0
M  V30 2813 O 259.34 0.84257 -2.38027 0
M  V30 2814 C 260.653 -2.35319 -1.87204 0
M  V30 2815 C 262.201 -2.40799 -1.99962 0
M  V30 2816 C 262.676 -3.67083 -2.73887 0
M  V30 2817 N 264.167 -3.679 -2.81432 0
M  V30 2818 C 264.902 -4.62303 -3.3921 0
M  V30 2819 N 264.398 -5.67052 -3.98025 0
M  V30 2820 N 266.191 -4.49845 -3.3704 0
M  V30 2821 H 258.342 -2.09951 -0.321633 0
M  V30 2822 H 260.605 -0.92556 -0.205043 0
M  V30 2823 H 260.311 -3.25689 -1.3274 0
M  V30 2824 H 260.185 -2.44089 -2.87577 0
M  V30 2825 H 262.572 -1.50907 -2.53597 0
M  V30 2826 H 262.653 -2.36003 -0.98673 0
M  V30 2827 H 262.297 -4.57334 -2.20925 0
M  V30 2828 H 262.227 -3.69141 -3.75556 0
M  V30 2829 H 264.718 -2.92171 -2.39676 0
M  V30 2830 H 265.031 -6.35184 -4.40183 0
M  V30 2831 H 263.376 -5.70842 -3.96439 0
M  V30 2832 H 266.567 -3.67194 -2.90321 0
M  V30 2833 H 266.74 -5.23597 -3.81772 0
M  V30 2834 N 260.146 1.09593 -1.13257 0
M  V30 2835 C 261.392 1.82181 -0.904521 0
M  V30 2836 C 261.747 1.83967 0.563358 0
M  V30 2837 O 261.04 1.29566 1.41149 0
M  V30 2838 C 261.234 3.27802 -1.42411 0
M  V30 2839 C 261.063 3.40201 -2.94097 0
M  V30 2840 C 259.833 3.52104 -3.62424 0
M  V30 2841 C 262.031 3.32875 -3.92044 0
M  V30 2842 N 260.013 3.53169 -5.0214 0
M  V30 2843 C 261.384 3.40789 -5.17941 0
M  V30 2844 C 263.439 3.16531 -3.84334 0
M  V30 2845 C 262.142 3.34042 -6.37031 0
M  V30 2846 C 264.168 3.11109 -5.02956 0
M  V30 2847 C 263.53 3.19614 -6.27715 0
M  V30 2848 H 259.629 0.681015 -0.384373 0
M  V30 2849 H 262.213 1.3099 -1.44048 0
M  V30 2850 H 260.384 3.77466 -0.915086 0
M  V30 2851 H 262.116 3.88393 -1.13722 0
M  V30 2852 H 258.871 3.5548 -3.12939 0
M  V30 2853 H 259.295 3.57291 -5.75041 0
M  V30 2854 H 263.937 3.08827 -2.88766 0
M  V30 2855 H 261.655 3.4051 -7.32857 0
M  V30 2856 H 265.241 2.99601 -4.98729 0
M  V30 2857 H 264.121 3.15432 -7.17964 0
M  V30 2858 N 261.624 0.925811 1.2754 0
M  V30 2859 C 263.035 0.610102 1.7645 0
M  V30 2860 C 263.386 -0.874723 1.75622 0
M  V30 2861 O 262.511 -1.68444 1.35851 0
M  V30 2862 C 263.106 1.10073 3.20421 0
M  V30 2863 C 261.665 0.835723 3.67005 0
M  V30 2864 C 260.812 1.26054 2.46993 0
M  V30 2865 H 263.763 1.10579 1.13833 0
M  V30 2866 H 263.784 0.447557 3.77859 0
M  V30 2867 H 263.296 2.18143 3.20991 0
M  V30 2868 H 261.397 -0.231249 3.71882 0
M  V30 2869 H 261.51 1.45193 4.56569 0
M  V30 2870 H 259.874 0.679111 2.45479 0
M  V30 2871 H 260.657 2.34984 2.50275 0
M  V30 2872 N 263.102 -1.41638 0.69111 0
M  V30 2873 C 264.012 -2.34588 0.0233487 0
M  V30 2874 C 265.028 -1.55987 -0.770984 0
M  V30 2875 O 266.204 -1.88486 -0.709569 0
M  V30 2876 C 263.269 -3.34684 -0.904851 0
M  V30 2877 C 262.33 -4.29176 -0.103225 0
M  V30 2878 C 261.563 -5.2449 -0.987216 0
M  V30 2879 O 261.786 -5.2514 -2.22674 0
M  V30 2880 O 260.72 -6.00295 -0.439281 0
M  V30 2881 H 264.546 -2.93261 0.789416 0
M  V30 2882 H 262.131 -1.42417 0.45142 0
M  V30 2883 H 264.013 -3.96133 -1.43724 0
M  V30 2884 H 262.688 -2.78461 -1.65049 0
M  V30 2885 H 261.595 -3.71089 0.473655 0
M  V30 2886 H 262.928 -4.88484 0.60365 0
M  V30 2887 N 264.58 -0.43555 -1.51462 0
M  V30 2888 C 265.543 0.365137 -2.26273 0
M  V30 2889 C 266.543 0.951227 -1.29647 0
M  V30 2890 O 267.733 0.825958 -1.53374 0
M  V30 2891 C 264.865 1.51645 -3.05314 0
M  V30 2892 H 266.058 -0.290474 -2.9849 0
M  V30 2893 H 263.611 -0.188676 -1.55157 0
M  V30 2894 H 264.346 2.20816 -2.3751 0
M  V30 2895 H 264.131 1.10238 -3.76284 0
M  V30 2896 H 265.621 2.08218 -3.61987 0
M  V30 2897 N 266.058 1.56714 -0.166846 0
M  V30 2898 C 267.304 1.97813 0.473473 0
M  V30 2899 C 267.659 1.05095 1.61161 0
M  V30 2900 O 266.952 0.0897541 1.9139 0
M  V30 2901 C 267.146 3.42889 1.00806 0
M  V30 2902 C 266.975 4.49635 -0.0767392 0
M  V30 2903 C 265.745 5.02566 -0.524894 0
M  V30 2904 C 267.943 5.06793 -0.875504 0
M  V30 2905 N 265.925 5.9294 -1.59047 0
M  V30 2906 C 267.296 5.93565 -1.79111 0
M  V30 2907 C 269.351 4.89306 -0.921083 0
M  V30 2908 C 268.054 6.64721 -2.74843 0
M  V30 2909 C 270.08 5.61179 -1.86633 0
M  V30 2910 C 269.442 6.47675 -2.76942 0
M  V30 2911 H 265.541 0.769093 0.141489 0
M  V30 2912 H 268.125 1.92874 -0.266031 0
M  V30 2913 H 266.296 3.48382 1.7171 0
M  V30 2914 H 268.028 3.71008 1.61664 0
M  V30 2915 H 264.783 4.73439 -0.123432 0
M  V30 2916 H 265.207 6.42831 -2.12361 0
M  V30 2917 H 269.849 4.22136 -0.23692 0
M  V30 2918 H 267.567 7.31107 -3.44249 0
M  V30 2919 H 271.153 5.49636 -1.90764 0
M  V30 2920 H 270.033 7.02313 -3.48893 0
M  V30 2921 N 267.536 -0.106894 1.57237 0
M  V30 2922 C 268.952 -0.46078 1.52804 0
M  V30 2923 C 269.152 -1.81184 0.881746 0
M  V30 2924 O 268.208 -2.48102 0.469224 0
M  V30 2925 C 269.521 -0.434127 2.9755 0
M  V30 2926 C 271.069 -0.516821 3.08704 0
M  V30 2927 C 271.544 -0.520436 4.55033 0
M  V30 2928 N 273.035 -0.58153 4.59535 0
M  V30 2929 C 273.77 -0.605973 5.70189 0
M  V30 2930 N 273.266 -0.587331 6.90306 0
M  V30 2931 N 275.059 -0.649895 5.5833 0
M  V30 2932 H 267.21 0.778203 1.9763 0
M  V30 2933 H 269.473 0.288403 0.903066 0
M  V30 2934 H 269.179 0.491197 3.48253 0
M  V30 2935 H 269.053 -1.25748 3.55622 0
M  V30 2936 H 271.44 -1.43256 2.57995 0
M  V30 2937 H 271.521 0.334449 2.53604 0
M  V30 2938 H 271.165 0.391313 5.0639 0
M  V30 2939 H 271.095 -1.38876 5.07958 0
M  V30 2940 H 273.586 -0.60161 3.73081 0
M  V30 2941 H 273.899 -0.60894 7.70397 0
M  V30 2942 H 272.244 -0.554564 6.92784 0
M  V30 2943 H 275.435 -0.661907 4.63397 0
M  V30 2944 H 275.608 -0.665476 6.44574 0
M  V30 2945 N 269.014 -1.53014 -0.377408 0
M  V30 2946 C 270.26 -1.68872 -1.12294 0
M  V30 2947 C 270.593 -0.433224 -1.89306 0
M  V30 2948 O 269.868 0.569258 -1.85983 0
M  V30 2949 C 270.151 -2.93115 -2.09179 0
M  V30 2950 C 270.004 -4.28794 -1.35853 0
M  V30 2951 C 271.323 -3.12928 -3.09458 0
M  V30 2952 H 268.442 -0.614518 -0.406862 0
M  V30 2953 H 271.084 -1.85633 -0.40503 0
M  V30 2954 H 269.234 -2.78956 -2.70399 0
M  V30 2955 H 270.906 -4.54742 -0.775082 0
M  V30 2956 H 269.149 -4.28744 -0.660364 0
M  V30 2957 H 269.82 -5.11837 -2.06706 0
M  V30 2958 H 272.296 -3.26194 -2.58334 0
M  V30 2959 H 271.172 -4.01316 -3.74482 0
M  V30 2960 H 271.433 -2.27669 -3.78971 0
M  V30 2961 N 270.492 0.636531 -1.44174 0
M  V30 2962 C 271.425 1.76139 -1.45087 0
M  V30 2963 C 272.403 1.59611 -0.310326 0
M  V30 2964 O 273.587 1.81568 -0.506477 0
M  V30 2965 C 270.714 3.13648 -1.27839 0
M  V30 2966 C 269.76 3.48838 -2.45386 0
M  V30 2967 S 270.593 3.46927 -4.07924 0
M  V30 2968 C 271.749 4.87064 -3.9309 0
M  V30 2969 H 271.982 1.75096 -2.40268 0
M  V30 2970 H 269.515 0.810666 -1.31406 0
M  V30 2971 H 271.473 3.93002 -1.18575 0
M  V30 2972 H 270.134 3.12235 -0.341787 0
M  V30 2973 H 269.327 4.48886 -2.29167 0
M  V30 2974 H 268.929 2.76935 -2.51362 0
M  V30 2975 H 271.221 5.76153 -3.56446 0
M  V30 2976 H 272.164 5.08337 -4.92949 0
M  V30 2977 H 272.572 4.61384 -3.25246 0
M  V30 2978 N 271.97 1.30982 0.876444 0
M  V30 2979 C 273.218 1.20058 1.62575 0
M  V30 2980 C 273.539 -0.242947 1.93481 0
M  V30 2981 O 272.809 -1.1619 1.57724 0
M  V30 2982 H 271.389 0.44135 0.602677 0
M  V30 2983 H 274.051 1.64222 1.04962 0
M  V30 2984 H 273.147 1.76762 2.57219 0
M  V30 2985 N 273.449 -1.08991 1.13837 0
M  V30 2986 C 274.379 -2.17771 0.842507 0
M  V30 2987 C 275.36 -1.6892 -0.20001 0
M  V30 2988 O 276.545 -1.94113 -0.0579731 0
M  V30 2989 C 273.675 -3.4589 0.312644 0
M  V30 2990 C 272.629 -4.08099 1.28992 0
M  V30 2991 C 271.955 -5.31098 0.619623 0
M  V30 2992 C 273.255 -4.50077 2.65005 0
M  V30 2993 H 274.949 -2.42777 1.75213 0
M  V30 2994 H 272.495 -1.16682 0.843875 0
M  V30 2995 H 274.448 -4.21297 0.0933043 0
M  V30 2996 H 273.172 -3.20419 -0.632382 0
M  V30 2997 H 271.831 -3.34717 1.49533 0
M  V30 2998 H 271.479 -5.0191 -0.33102 0
M  V30 2999 H 271.179 -5.73674 1.27167 0
M  V30 3000 H 272.703 -6.09224 0.409669 0
M  V30 3001 H 274.117 -5.16688 2.48407 0
M  V30 3002 H 272.514 -5.03553 3.26427 0
M  V30 3003 H 273.584 -3.62257 3.22332 0
M  V30 3004 N 274.927 -0.932562 -1.27047 0
M  V30 3005 C 276.343 -0.633544 -1.46487 0
M  V30 3006 C 276.543 0.815746 -1.84249 0
M  V30 3007 O 275.599 1.59319 -1.95892 0
M  V30 3008 C 276.912 -1.58758 -2.55375 0
M  V30 3009 C 278.46 -1.59634 -2.69232 0
M  V30 3010 C 278.935 -2.53747 -3.81283 0
M  V30 3011 N 280.426 -2.51982 -3.88664 0
M  V30 3012 C 281.161 -3.21491 -4.74796 0
M  V30 3013 N 280.657 -4.00395 -5.65381 0
M  V30 3014 N 282.45 -3.10485 -4.68568 0
M  V30 3015 H 274.601 -1.86946 -1.00821 0
M  V30 3016 H 276.864 -0.802897 -0.504044 0
M  V30 3017 H 276.57 -2.62172 -2.34432 0
M  V30 3018 H 276.444 -1.33301 -3.52861 0
M  V30 3019 H 278.831 -0.569488 -2.89553 0
M  V30 3020 H 278.912 -1.89142 -1.72218 0
M  V30 3021 H 278.556 -3.56545 -3.61715 0
M  V30 3022 H 278.486 -2.21532 -4.77735 0
M  V30 3023 H 280.977 -1.94681 -3.23895 0
M  V30 3024 H 281.29 -4.50406 -6.27976 0
M  V30 3025 H 279.635 -4.04498 -5.65161 0
M  V30 3026 H 282.826 -2.48331 -3.96799 0
M  V30 3027 H 282.999 -3.64925 -5.35475 0
M  V30 3028 N 276.405 1.4127 -0.698611 0
M  V30 3029 C 277.653 2.00782 -0.230409 0
M  V30 3030 C 277.974 1.5562 1.17505 0
M  V30 3031 O 277.244 0.78815 1.79346 0
M  V30 3032 H 275.824 0.742464 -0.0821944 0
M  V30 3033 H 278.486 1.72852 -0.90045 0
M  V30 3034 H 277.582 3.11095 -0.25021 0
M  V30 3035 N 277.883 0.443576 1.51229 0
M  V30 3036 C 278.846 -0.353132 2.26463 0
M  V30 3037 C 279.846 -0.944338 1.3015 0
M  V30 3038 O 281.036 -0.817813 1.5381 0
M  V30 3039 C 278.168 -1.50023 3.06114 0
M  V30 3040 H 279.361 0.3063 2.98332 0
M  V30 3041 H 276.914 0.196902 1.55055 0
M  V30 3042 H 277.649 -2.19553 2.38677 0
M  V30 3043 H 277.434 -1.08241 3.76864 0
M  V30 3044 H 278.924 -2.06296 3.63087 0
M  V30 3045 N 279.361 -1.56624 0.175154 0
M  V30 3046 C 280.271 -2.21741 -0.766042 0
M  V30 3047 C 281.287 -1.21023 -1.25018 0
M  V30 3048 O 282.463 -1.53697 -1.3015 0
M  V30 3049 C 279.528 -2.84839 -1.97655 0
M  V30 3050 C 278.589 -4.00769 -1.53892 0
M  V30 3051 C 277.822 -4.60849 -2.69173 0
M  V30 3052 O 278.045 -4.19823 -3.86141 0
M  V30 3053 O 276.979 -5.50655 -2.43028 0
M  V30 3054 H 280.805 -3.02738 -0.241585 0
M  V30 3055 H 278.39 -1.49305 -0.053222 0
M  V30 3056 H 280.272 -3.24834 -2.68442 0
M  V30 3057 H 278.947 -2.06836 -2.48999 0
M  V30 3058 H 277.854 -3.65436 -0.80044 0
M  V30 3059 H 279.187 -4.80376 -1.07236 0
M  V30 3060 N 280.839 0.0985539 -1.57292 0
M  V30 3061 C 282.088 0.801358 -1.85098 0
M  V30 3062 C 282.401 1.80066 -0.763902 0
M  V30 3063 O 283.607 2.55112 -0.928981 0
M  V30 3064 C 282.063 1.47599 -3.28242 0
M  V30 3065 C 281.671 0.516624 -4.45011 0
M  V30 3066 C 283.415 2.16272 -3.65276 0
M  V30 3067 C 281.322 1.19564 -5.79188 0
M  V30 3068 H 280.252 0.303022 -0.69043 0
M  V30 3069 H 282.903 0.0542623 -1.8342 0
M  V30 3070 H 281.285 2.27042 -3.2445 0
M  V30 3071 H 282.459 -0.246065 -4.60143 0
M  V30 3072 H 280.774 -0.064227 -4.1635 0
M  V30 3073 H 283.371 2.67802 -4.62803 0
M  V30 3074 H 283.714 2.95009 -2.93727 0
M  V30 3075 H 284.247 1.43693 -3.70941 0
M  V30 3076 H 280.986 0.449157 -6.53959 0
M  V30 3077 H 280.506 1.92984 -5.67906 0
M  V30 3078 H 282.185 1.7231 -6.23633 0
M  V30 3079 N 282.317 1.53212 0.369288 0
M  V30 3080 C 283.566 1.68436 1.10961 0
M  V30 3081 C 283.879 0.440738 1.9057 0
M  V30 3082 O 285.085 0.473446 2.6734 0
M  V30 3083 C 283.541 2.97744 2.0218 0
M  V30 3084 C 283.149 4.29355 1.279 0
M  V30 3085 C 284.893 3.22334 2.76226 0
M  V30 3086 C 282.8 5.49755 2.17999 0
M  V30 3087 H 281.73 0.627568 0.41794 0
M  V30 3088 H 284.381 1.79713 0.370884 0
M  V30 3089 H 282.763 2.8026 2.79768 0
M  V30 3090 H 283.937 4.57458 0.554007 0
M  V30 3091 H 282.252 4.11179 0.657311 0
M  V30 3092 H 284.849 4.09471 3.43857 0
M  V30 3093 H 285.192 2.38238 3.41392 0
M  V30 3094 H 285.725 3.40475 2.05723 0
M  V30 3095 H 282.464 6.36318 1.57417 0
M  V30 3096 H 281.984 5.25937 2.88359 0
M  V30 3097 H 283.663 5.84401 2.77641 0
M  V30 3098 N 283.795 -0.628877 1.44509 0
M  V30 3099 C 285.035 -1.39993 1.48934 0
M  V30 3100 C 285.399 -1.91627 0.119604 0
M  V30 3101 O 286.6 -2.68772 0.0385283 0
M  V30 3102 C 284.871 -2.53241 2.52198 0
M  V30 3103 S 286.43 -3.41383 2.75687 0
M  V30 3104 H 283.248 -0.477558 0.526744 0
M  V30 3105 H 285.85 -0.727804 1.81448 0
M  V30 3106 H 284.554 -2.13622 3.50419 0
M  V30 3107 H 284.085 -3.25278 2.21264 0
M  V30 3108 H 286.1 -4.50752 2.07453 0
M  V30 3109 N 285.273 -1.31445 -0.869486 0
M  V30 3110 C 286.521 -1.20918 -1.61936 0
M  V30 3111 C 286.842 0.232683 -1.93607 0
M  V30 3112 O 286.112 1.15352 -1.58338 0
M  V30 3113 H 284.692 -0.44454 -0.600328 0
M  V30 3114 H 287.354 -1.64776 -1.0409 0
M  V30 3115 H 286.45 -1.78124 -2.56278 0
M  V30 3116 N 286.751 1.08385 -1.14413 0
M  V30 3117 C 287.999 1.80419 -0.910679 0
M  V30 3118 C 288.32 1.86658 0.564243 0
M  V30 3119 O 287.59 1.35985 1.41014 0
M  V30 3120 H 286.17 0.668204 -0.333934 0
M  V30 3121 H 288.832 1.31037 -1.44275 0
M  V30 3122 H 287.928 2.83238 -1.31082 0
M  V30 3123 N 288.23 0.939286 1.26551 0
M  V30 3124 C 289.46 0.601663 1.97645 0
M  V30 3125 C 289.868 -0.827206 1.70159 0
M  V30 3126 O 289.211 -1.56291 0.965338 0
M  V30 3127 C 289.273 0.761725 3.51337 0
M  V30 3128 C 288.937 2.16487 4.0247 0
M  V30 3129 C 289.934 3.14016 4.14355 0
M  V30 3130 C 287.619 2.48494 4.36527 0
M  V30 3131 C 289.613 4.41654 4.59587 0
M  V30 3132 C 287.3 3.76364 4.81449 0
M  V30 3133 C 288.298 4.72758 4.92939 0
M  V30 3134 O 287.986 5.98352 5.36871 0
M  V30 3135 H 287.718 0.225758 0.637189 0
M  V30 3136 H 290.272 1.26178 1.62075 0
M  V30 3137 H 288.502 0.0444808 3.86674 0
M  V30 3138 H 290.191 0.427442 4.03643 0
M  V30 3139 H 290.957 2.90613 3.8829 0
M  V30 3140 H 286.836 1.74202 4.26819 0
M  V30 3141 H 290.38 5.16896 4.68471 0
M  V30 3142 H 286.277 3.99582 5.06956 0
M  V30 3143 H 287.045 6.01507 5.55096 0
M  V30 3144 N 289.708 -1.40897 0.706093 0
M  V30 3145 C 290.656 -2.32572 0.0361893 0
M  V30 3146 C 291.65 -1.51532 -0.757266 0
M  V30 3147 O 292.856 -1.67396 -0.661703 0
M  V30 3148 H 289.231 -0.751966 -0.00709935 0
M  V30 3149 H 291.202 -2.86733 0.826249 0
M  V30 3150 C 289.951 -3.36418 -0.87854 0
M  V30 3151 H 289.274 -3.98836 -0.277401 0
M  V30 3152 H 290.714 -4.0308 -1.3154 0
M  V30 3153 C 289.173 -2.71141 -1.99961 0
M  V30 3154 O 289.703 -2.56735 -3.0895 0
M  V30 3155 N 287.909 -2.29671 -1.78043 0
M  V30 3156 H 287.456 -2.41588 -0.894042 0
M  V30 3157 H 287.414 -1.86332 -2.53235 0
M  V30 3158 N 291.186 -0.45159 -1.50991 0
M  V30 3159 C 292.414 0.108334 -2.06616 0
M  V30 3160 C 292.829 1.35224 -1.31757 0
M  V30 3161 O 292.186 1.78475 -0.381174 0
M  V30 3162 C 292.237 0.41619 -3.59096 0
M  V30 3163 O 291.958 -0.778361 -4.3113 0
M  V30 3164 C 293.459 1.02523 -4.31282 0
M  V30 3165 H 290.679 0.00159995 -0.670998 0
M  V30 3166 H 293.223 -0.634771 -1.94399 0
M  V30 3167 H 291.378 1.10921 -3.71181 0
M  V30 3168 H 291.792 -0.511181 -5.22003 0
M  V30 3169 H 293.266 1.19053 -5.39009 0
M  V30 3170 H 293.743 2.01013 -3.905 0
M  V30 3171 H 294.349 0.371173 -4.23677 0
M  V30 3172 N 292.664 1.56529 -0.183458 0
M  V30 3173 C 294.075 1.83739 0.331177 0
M  V30 3174 C 294.426 1.10373 1.62211 0
M  V30 3175 O 293.551 0.36071 2.13373 0
M  V30 3176 C 294.146 3.33306 0.607646 0
M  V30 3177 C 292.705 3.60969 1.06668 0
M  V30 3178 C 291.852 2.77086 0.109029 0
M  V30 3179 H 294.803 1.53379 -0.407484 0
M  V30 3180 H 294.824 3.51444 1.45832 0
M  V30 3181 H 294.336 3.86677 -0.332086 0
M  V30 3182 H 292.437 3.13021 2.0211 0
M  V30 3183 H 292.55 4.69231 0.967447 0
M  V30 3184 H 290.914 2.47319 0.608714 0
M  V30 3185 H 291.697 3.33241 -0.82494 0
M  V30 3186 N 294.142 -0.090211 1.57342 0
M  V30 3187 C 295.37 -0.806224 1.90546 0
M  V30 3188 C 295.785 -1.72041 0.777644 0
M  V30 3189 O 295.142 -1.80778 -0.250103 0
M  V30 3190 C 295.193 -1.61546 3.23396 0
M  V30 3191 O 294.914 -0.738043 4.31839 0
M  V30 3192 C 296.415 -2.4341 3.70495 0
M  V30 3193 H 293.635 -0.230256 0.630257 0
M  V30 3194 H 296.179 -0.0659843 2.04394 0
M  V30 3195 H 294.334 -2.30816 3.11131 0
M  V30 3196 H 294.748 -1.29901 5.08159 0
M  V30 3197 H 296.222 -2.95676 4.66133 0
M  V30 3198 H 296.699 -3.22098 2.98579 0
M  V30 3199 H 297.305 -1.79331 3.85643 0
M  V30 3200 N 295.62 -1.53406 -0.361157 0
M  V30 3201 C 296.57 -1.76536 -1.44287 0
M  V30 3202 C 297.554 -0.620019 -1.48474 0
M  V30 3203 O 298.746 -0.878834 -1.53641 0
M  V30 3204 C 295.875 -1.96266 -2.81664 0
M  V30 3205 C 294.961 -3.16815 -2.81938 0
M  V30 3206 N 295.352 -4.38637 -2.51855 0
M  V30 3207 C 293.65 -3.17627 -3.13096 0
M  V30 3208 C 294.351 -5.20401 -2.59919 0
M  V30 3209 N 293.327 -4.56712 -2.94814 0
M  V30 3210 H 297.129 -2.68331 -1.19899 0
M  V30 3211 H 294.643 -1.52091 -0.56938 0
M  V30 3212 H 296.64 -2.10966 -3.59582 0
M  V30 3213 H 295.3 -1.05702 -3.07013 0
M  V30 3214 H 296.311 -4.66293 -2.25369 0
M  V30 3215 H 292.988 -2.36971 -3.43731 0
M  V30 3216 H 294.378 -6.27586 -2.39969 0
M  V30 3217 N 297.098 0.621204 -1.44841 0
M  V30 3218 C 298.046 1.75385 -1.52784 0
M  V30 3219 C 299.04 1.64639 -0.398779 0
M  V30 3220 O 300.246 1.70598 -0.574137 0
M  V30 3221 H 296.621 0.579193 -0.479625 0
M  V30 3222 H 298.592 1.6581 -2.48092 0
M  V30 3223 C 297.341 3.13742 -1.4987 0
M  V30 3224 H 296.664 3.22663 -2.36069 0
M  V30 3225 H 298.104 3.92861 -1.59487 0
M  V30 3226 C 296.563 3.36175 -0.220973 0
M  V30 3227 O 297.093 3.95469 0.704782 0
M  V30 3228 N 295.299 2.90348 -0.120963 0
M  V30 3229 H 294.846 2.42278 -0.875162 0
M  V30 3230 H 294.804 3.05732 0.733168 0
M  V30 3231 N 298.576 1.31904 0.862503 0
M  V30 3232 C 299.987 1.19803 1.43193 0
M  V30 3233 C 300.338 -0.192567 1.95253 0
M  V30 3234 O 299.463 -1.09081 1.86896 0
M  V30 3235 C 300.058 2.16883 2.60283 0
M  V30 3236 C 298.617 2.08692 3.13248 0
M  V30 3237 C 297.764 2.05691 1.85975 0
M  V30 3238 H 300.715 1.43846 0.670365 0
M  V30 3239 H 300.736 1.76278 3.37204 0
M  V30 3240 H 300.248 3.18083 2.22363 0
M  V30 3241 H 298.349 1.10713 3.55771 0
M  V30 3242 H 298.462 2.9815 3.75025 0
M  V30 3243 H 296.826 1.50814 2.05249 0
M  V30 3244 H 297.609 3.08659 1.50282 0
M  V30 3245 N 300.054 -1.07777 1.14986 0
M  V30 3246 C 301.465 -1.61766 0.932127 0
M  V30 3247 C 301.816 -1.88974 -0.527581 0
M  V30 3248 O 300.941 -1.65198 -1.39781 0
M  V30 3249 C 301.536 -2.93891 1.68563 0
M  V30 3250 C 300.095 -3.44639 1.5133 0
M  V30 3251 C 299.242 -2.18767 1.704 0
M  V30 3252 H 302.193 -0.909201 1.30074 0
M  V30 3253 H 302.214 -3.62623 1.15259 0
M  V30 3254 H 301.726 -2.74057 2.74799 0
M  V30 3255 H 299.827 -3.69564 0.474702 0
M  V30 3256 H 299.94 -4.20966 2.28746 0
M  V30 3257 H 298.304 -2.28253 1.13016 0
M  V30 3258 H 299.087 -2.01433 2.77992 0
M  V30 3259 N 301.532 -0.945985 -1.26051 0
M  V30 3260 C 302.778 -0.597002 -1.93814 0
M  V30 3261 C 303.111 0.862484 -1.73997 0
M  V30 3262 O 302.386 1.61769 -1.07986 0
M  V30 3263 C 302.669 -0.945937 -3.47454 0
M  V30 3264 C 302.522 -2.46052 -3.76535 0
M  V30 3265 C 303.841 -0.464785 -4.37639 0
M  V30 3266 H 300.96 -0.218366 -0.703907 0
M  V30 3267 H 303.602 -1.18107 -1.48831 0
M  V30 3268 H 301.752 -0.448902 -3.85898 0
M  V30 3269 H 303.424 -3.03065 -3.47778 0
M  V30 3270 H 301.667 -2.90194 -3.22444 0
M  V30 3271 H 302.338 -2.65517 -4.83947 0
M  V30 3272 H 304.814 -0.891016 -4.06448 0
M  V30 3273 H 303.69 -0.737712 -5.4392 0
M  V30 3274 H 303.951 0.635274 -4.37512 0
M  V30 3275 N 303.011 1.40521 -0.713556 0
M  V30 3276 C 304.422 1.83853 -0.324807 0
M  V30 3277 C 304.773 1.59667 1.14021 0
M  V30 3278 O 303.898 1.07649 1.87725 0
M  V30 3279 C 304.493 3.33751 -0.582746 0
M  V30 3280 C 303.052 3.75584 -0.247727 0
M  V30 3281 C 302.199 2.63753 -0.856121 0
M  V30 3282 H 305.15 1.29817 -0.91286 0
M  V30 3283 H 305.171 3.80194 0.152682 0
M  V30 3284 H 304.683 3.51322 -1.64908 0
M  V30 3285 H 302.784 3.63608 0.813624 0
M  V30 3286 H 302.897 4.7373 -0.715307 0
M  V30 3287 H 301.261 2.53108 -0.28432 0
M  V30 3288 H 302.044 2.84137 -1.92668 0
M  V30 3289 N 304.489 0.459591 1.5075 0
M  V30 3290 C 305.421 -0.37665 2.26084 0
M  V30 3291 C 306.434 -0.967109 1.30961 0
M  V30 3292 O 307.623 -0.857468 1.56556 0
M  V30 3293 C 304.723 -1.54112 3.01832 0
M  V30 3294 C 303.896 -1.06553 4.24223 0
M  V30 3295 C 302.955 -2.1027 4.82362 0
M  V30 3296 O 301.981 -1.68798 5.43595 0
M  V30 3297 N 303.183 -3.42974 4.68347 0
M  V30 3298 H 305.948 0.269124 2.98489 0
M  V30 3299 H 303.509 0.28972 1.59287 0
M  V30 3300 H 305.501 -2.23165 3.37608 0
M  V30 3301 H 304.071 -2.0918 2.32298 0
M  V30 3302 H 303.291 -0.201274 3.93686 0
M  V30 3303 H 304.579 -0.725516 5.03601 0
M  V30 3304 H 303.977 -3.79385 4.19623 0
M  V30 3305 H 302.534 -4.07858 5.08424 0
M  V30 3306 N 305.967 -1.56429 0.191757 0
M  V30 3307 C 306.917 -2.15548 -0.743184 0
M  V30 3308 C 307.901 -1.09531 -1.17863 0
M  V30 3309 O 309.093 -1.35602 -1.13759 0
M  V30 3310 C 306.222 -2.81577 -1.96391 0
M  V30 3311 C 305.308 -3.9478 -1.54951 0
M  V30 3312 N 305.699 -4.98677 -0.845876 0
M  V30 3313 C 303.997 -4.06319 -1.83905 0
M  V30 3314 C 304.698 -5.78183 -0.638724 0
M  V30 3315 N 303.674 -5.30495 -1.18643 0
M  V30 3316 H 307.476 -2.9324 -0.196839 0
M  V30 3317 H 304.99 -1.62398 -0.0081603 0
M  V30 3318 H 306.987 -3.22321 -2.64415 0
M  V30 3319 H 305.647 -2.05371 -2.51501 0
M  V30 3320 H 306.658 -5.15464 -0.501704 0
M  V30 3321 H 303.335 -3.41238 -2.40548 0
M  V30 3322 H 304.725 -6.71851 -0.0807929 0
M  V30 3323 N 307.445 0.0818655 -1.57387 0
M  V30 3324 C 308.722 0.815343 -1.77796 0
M  V30 3325 C 309.102 1.96289 -0.77679 0
M  V30 3326 O 308.45 2.27691 0.192106 0
M  V30 3327 C 308.66 1.29765 -3.23978 0
M  V30 3328 C 310.008 1.7351 -3.8753 0
M  V30 3329 O 311.032 1.39356 -3.27808 0
M  V30 3330 O 309.891 2.36708 -4.92576 0
M  V30 3331 H 306.985 0.389914 -0.729312 0
M  V30 3332 H 309.531 0.0627213 -1.69584 0
M  V30 3333 H 308.303 0.47608 -3.88393 0
M  V30 3334 H 307.926 2.11189 -3.36875 0
M  V30 3335 N 308.923 1.53595 0.353017 0
M  V30 3336 C 309.873 1.77299 1.43349 0
M  V30 3337 C 310.857 0.627884 1.48143 0
M  V30 3338 O 312.049 0.88697 1.53173 0
M  V30 3339 C 309.178 1.97757 2.80619 0
M  V30 3340 C 308.264 3.18305 2.80254 0
M  V30 3341 N 308.655 4.39967 2.49526 0
M  V30 3342 C 306.953 3.19283 3.11407 0
M  V30 3343 C 307.654 5.21772 2.57156 0
M  V30 3344 N 306.63 4.58269 2.92388 0
M  V30 3345 H 310.432 2.68963 1.18474 0
M  V30 3346 H 307.946 1.52391 0.561306 0
M  V30 3347 H 309.943 2.1287 3.58458 0
M  V30 3348 H 308.603 1.07329 3.06448 0
M  V30 3349 H 309.614 4.67482 2.22893 0
M  V30 3350 H 306.291 2.3879 3.4247 0
M  V30 3351 H 307.681 6.2885 2.36638 0
M  V30 3352 N 310.401 -0.613514 1.45168 0
M  V30 3353 C 311.331 -1.7354 1.56225 0
M  V30 3354 C 312.312 -1.64981 0.41414 0
M  V30 3355 O 313.497 -1.83472 0.636526 0
M  V30 3356 C 310.627 -3.12128 1.52295 0
M  V30 3357 C 309.581 -3.35491 2.65762 0
M  V30 3358 C 308.907 -4.74291 2.46885 0
M  V30 3359 C 310.207 -3.26325 4.0781 0
M  V30 3360 H 311.901 -1.64543 2.50132 0
M  V30 3361 H 309.447 -0.790185 1.20383 0
M  V30 3362 H 311.4 -3.90404 1.58628 0
M  V30 3363 H 310.124 -3.2195 0.549139 0
M  V30 3364 H 308.783 -2.59603 2.58847 0
M  V30 3365 H 308.431 -4.80839 1.47657 0
M  V30 3366 H 308.131 -4.9088 3.22972 0
M  V30 3367 H 309.655 -5.54775 2.55063 0
M  V30 3368 H 311.069 -3.94483 4.16 0
M  V30 3369 H 309.466 -3.54445 4.8424 0
M  V30 3370 H 310.536 -2.23855 4.30136 0
M  V30 3371 N 311.879 -1.3236 -0.855495 0
M  V30 3372 C 313.107 -1.2587 -1.64208 0
M  V30 3373 C 313.522 0.173457 -1.88002 0
M  V30 3374 O 312.879 1.11027 -1.44842 0
M  V30 3375 C 312.93 -2.01424 -3.00184 0
M  V30 3376 O 312.651 -3.39051 -2.77445 0
M  V30 3377 C 314.152 -2.01948 -3.94629 0
M  V30 3378 H 311.372 -0.434318 -0.511477 0
M  V30 3379 H 313.916 -1.74469 -1.0668 0
M  V30 3380 H 312.071 -1.56549 -3.5436 0
M  V30 3381 H 312.485 -3.77711 -3.63916 0
M  V30 3382 H 313.959 -2.59297 -4.87308 0
M  V30 3383 H 314.436 -1.00554 -4.27534 0
M  V30 3384 H 315.042 -2.46767 -3.4639 0
M  V30 3385 N 313.357 1.07166 -1.15556 0
M  V30 3386 C 314.582 1.84053 -0.955988 0
M  V30 3387 C 315.007 1.81586 0.490739 0
M  V30 3388 O 314.365 1.21018 1.34997 0
M  V30 3389 C 314.413 3.28957 -1.47714 0
M  V30 3390 O 313.517 4.06795 -0.677593 0
M  V30 3391 H 312.858 0.569842 -0.340847 0
M  V30 3392 H 315.388 1.35178 -1.53584 0
M  V30 3393 H 315.398 3.79788 -1.4908 0
M  V30 3394 H 314.073 3.30068 -2.53037 0
M  V30 3395 H 312.65 3.6561 -0.733721 0
M  V30 3396 N 314.835 0.952656 1.25548 0
M  V30 3397 C 316.082 0.606373 1.93208 0
M  V30 3398 C 316.41 -0.85631 1.74636 0
M  V30 3399 O 315.665 -1.62951 1.08376 0
M  V30 3400 C 315.964 0.908818 3.45652 0
M  V30 3401 C 315.63 2.35722 3.84378 0
M  V30 3402 C 314.292 2.75312 3.9466 0
M  V30 3403 C 316.644 3.29793 4.03591 0
M  V30 3404 C 313.972 4.08047 4.21562 0
M  V30 3405 C 316.324 4.62138 4.31985 0
M  V30 3406 C 314.988 5.01528 4.40484 0
M  V30 3407 H 314.258 0.221888 0.706998 0
M  V30 3408 H 316.905 1.20132 1.49133 0
M  V30 3409 H 315.21 0.231456 3.91116 0
M  V30 3410 H 316.907 0.619498 3.96186 0
M  V30 3411 H 313.497 2.04017 3.76928 0
M  V30 3412 H 317.681 3.00397 3.95064 0
M  V30 3413 H 312.937 4.38212 4.26357 0
M  V30 3414 H 317.111 5.35012 4.45797 0
M  V30 3415 H 314.738 6.04406 4.61083 0
M  V30 3416 N 316.313 -1.40141 0.720998 0
M  V30 3417 C 317.263 -2.27949 0.0482544 0
M  V30 3418 C 318.247 -1.43538 -0.727021 0
M  V30 3419 O 319.439 -1.6658 -0.598332 0
M  V30 3420 C 316.568 -3.32126 -0.868729 0
M  V30 3421 C 315.654 -4.24008 -0.0883515 0
M  V30 3422 N 316.045 -4.97154 0.931226 0
M  V30 3423 C 314.343 -4.4485 -0.320105 0
M  V30 3424 C 315.044 -5.64587 1.4006 0
M  V30 3425 N 314.02 -5.38787 0.721752 0
M  V30 3426 H 317.822 -2.81948 0.829609 0
M  V30 3427 H 315.336 -1.52656 0.554067 0
M  V30 3428 H 317.333 -3.93884 -1.36605 0
M  V30 3429 H 315.993 -2.79687 -1.6494 0
M  V30 3430 H 317.004 -5.01 1.31222 0
M  V30 3431 H 313.681 -4.03378 -1.07668 0
M  V30 3432 H 315.071 -6.33175 2.24808 0
M  V30 3433 N 317.792 -0.46758 -1.50504 0
M  V30 3434 C 318.742 0.34698 -2.25344 0
M  V30 3435 C 319.726 0.964469 -1.2879 0
M  V30 3436 O 320.918 0.8776 -1.53711 0
M  V30 3437 C 318.047 1.43042 -3.1208 0
M  V30 3438 C 317.133 0.82084 -4.16081 0
M  V30 3439 N 317.524 -0.0567602 -5.05768 0
M  V30 3440 C 315.822 1.08517 -4.32597 0
M  V30 3441 C 316.523 -0.402343 -5.80307 0
M  V30 3442 N 315.499 0.221607 -5.43148 0
M  V30 3443 H 319.301 -0.329129 -2.92051 0
M  V30 3444 H 316.815 -0.281508 -1.59942 0
M  V30 3445 H 318.812 2.02712 -3.64299 0
M  V30 3446 H 317.472 2.10856 -2.46921 0
M  V30 3447 H 318.483 -0.425349 -5.1615 0
M  V30 3448 H 315.16 1.75855 -3.78657 0
M  V30 3449 H 316.55 -1.11834 -6.62528 0
M  V30 3450 N 319.27 1.56325 -0.20005 0
M  V30 3451 C 320.2 2.22318 0.713916 0
M  V30 3452 C 321.181 1.18788 1.21752 0
M  V30 3453 O 322.366 1.47309 1.26545 0
M  V30 3454 C 319.496 2.88639 1.93144 0
M  V30 3455 C 318.45 3.98457 1.56255 0
M  V30 3456 C 317.776 4.51967 2.85709 0
M  V30 3457 C 319.076 5.16612 0.768747 0
M  V30 3458 H 320.77 2.98952 0.163755 0
M  V30 3459 H 318.316 1.43792 0.0773219 0
M  V30 3460 H 320.269 3.33491 2.57608 0
M  V30 3461 H 318.993 2.09419 2.50621 0
M  V30 3462 H 317.652 3.54305 0.941471 0
M  V30 3463 H 317.3 3.69503 3.41287 0
M  V30 3464 H 317 5.26071 2.6177 0
M  V30 3465 H 318.524 4.99523 3.51154 0
M  V30 3466 H 319.938 5.57977 1.3166 0
M  V30 3467 H 318.335 5.96812 0.627286 0
M  V30 3468 H 319.405 4.84358 -0.229168 0
M  V30 3469 N 320.748 -0.0735177 1.57428 0
M  V30 3470 C 321.678 -1.0879 2.06608 0
M  V30 3471 C 322.659 -1.40473 0.959237 0
M  V30 3472 O 323.844 -1.5013 1.23185 0
M  V30 3473 C 320.974 -2.40183 2.50857 0
M  V30 3474 C 319.928 -2.22858 3.65402 0
M  V30 3475 C 319.254 -3.59619 3.957 0
M  V30 3476 C 320.554 -1.65123 4.95511 0
M  V30 3477 H 322.248 -0.678673 2.91607 0
M  V30 3478 H 319.794 -0.325013 1.40284 0
M  V30 3479 H 321.747 -3.11437 2.83874 0
M  V30 3480 H 320.471 -2.83083 1.62885 0
M  V30 3481 H 319.13 -1.54045 3.32664 0
M  V30 3482 H 318.778 -4.00086 3.04861 0
M  V30 3483 H 318.478 -3.48866 4.72828 0
M  V30 3484 H 320.002 -4.32306 4.31212 0
M  V30 3485 H 321.416 -2.26241 5.26771 0
M  V30 3486 H 319.813 -1.65071 5.7695 0
M  V30 3487 H 320.883 -0.612559 4.81015 0
M  V30 3488 N 322.226 -1.5378 -0.344866 0
M  V30 3489 C 323.451 -1.75211 -1.10977 0
M  V30 3490 C 323.876 -0.48936 -1.81623 0
M  V30 3491 O 323.234 0.557925 -1.72502 0
M  V30 3492 C 323.282 -2.93147 -2.09993 0
M  V30 3493 O 322.386 -2.63203 -3.17487 0
M  V30 3494 H 321.727 -0.581241 -0.321021 0
M  V30 3495 H 324.257 -2.00738 -0.395661 0
M  V30 3496 H 324.267 -3.19898 -2.53237 0
M  V30 3497 H 322.942 -3.84731 -1.5797 0
M  V30 3498 H 321.519 -2.47336 -2.79069 0
M  V30 3499 N 323.704 0.605807 -1.45491 0
M  V30 3500 C 324.637 1.73022 -1.48791 0
M  V30 3501 C 325.615 1.58917 -0.344112 0
M  V30 3502 O 326.799 1.80453 -0.544876 0
M  V30 3503 C 323.926 3.10865 -1.34463 0
M  V30 3504 C 322.972 3.43554 -2.5273 0
M  V30 3505 S 323.805 3.38196 -4.15191 0
M  V30 3506 C 324.961 4.78616 -4.03333 0
M  V30 3507 H 325.194 1.69961 -2.43928 0
M  V30 3508 H 322.727 0.782611 -1.33096 0
M  V30 3509 H 324.685 3.90398 -1.26884 0
M  V30 3510 H 323.346 3.1144 -0.40794 0
M  V30 3511 H 322.539 4.43924 -2.38637 0
M  V30 3512 H 322.141 2.71541 -2.5718 0
M  V30 3513 H 324.433 5.68463 -3.68587 0
M  V30 3514 H 325.376 4.97767 -5.03621 0
M  V30 3515 H 325.784 4.54381 -3.34959 0
M  V30 3516 N 325.182 1.32811 0.848464 0
M  V30 3517 C 326.114 1.18095 1.96433 0
M  V30 3518 C 327.127 0.114354 1.62398 0
M  V30 3519 O 328.316 0.363892 1.74751 0
M  V30 3520 C 325.416 0.786798 3.2964 0
M  V30 3521 C 324.589 1.943 3.91875 0
M  V30 3522 C 323.648 1.53138 5.03423 0
M  V30 3523 O 322.674 2.24432 5.23086 0
M  V30 3524 N 323.876 0.430915 5.78898 0
M  V30 3525 H 326.641 2.14218 2.09597 0
M  V30 3526 H 324.202 1.2543 1.02367 0
M  V30 3527 H 326.194 0.493715 4.01677 0
M  V30 3528 H 324.764 -0.0834541 3.12489 0
M  V30 3529 H 323.984 2.40224 3.12547 0
M  V30 3530 H 325.272 2.71689 4.30189 0
M  V30 3531 H 324.67 -0.162333 5.65467 0
M  V30 3532 H 323.227 0.197466 6.51501 0
M  V30 3533 N 326.66 -1.06551 1.16123 0
M  V30 3534 C 327.623 -2.12132 0.867906 0
M  V30 3535 C 328.623 -1.60224 -0.135944 0
M  V30 3536 O 329.813 -1.73943 0.0946422 0
M  V30 3537 C 326.945 -3.396 0.297419 0
M  V30 3538 H 328.138 -2.39586 1.80385 0
M  V30 3539 H 325.691 -1.22574 0.969812 0
M  V30 3540 H 326.426 -3.17794 -0.64633 0
M  V30 3541 H 326.211 -3.78581 1.02073 0
M  V30 3542 H 327.701 -4.17455 0.110052 0
M  V30 3543 N 328.138 -0.959301 -1.25041 0
M  V30 3544 C 329.386 -0.615393 -1.92503 0
M  V30 3545 C 329.707 0.850969 -1.75452 0
M  V30 3546 O 328.977 1.60658 -1.12098 0
M  V30 3547 H 327.557 -0.224613 -0.712431 0
M  V30 3548 H 330.219 -1.21855 -1.5211 0
M  V30 3549 H 329.315 -0.848738 -3.00338 0
M  V30 3550 N 329.616 1.39756 -0.72842 0
M  V30 3551 C 330.841 2.05472 -0.282159 0
M  V30 3552 C 331.266 1.54549 1.07221 0
M  V30 3553 O 330.624 0.686372 1.67805 0
M  V30 3554 C 330.672 3.59462 -0.286264 0
M  V30 3555 O 329.776 4.05918 0.728298 0
M  V30 3556 H 329.117 0.651226 -0.129618 0
M  V30 3557 H 331.647 1.78915 -0.992499 0
M  V30 3558 H 331.657 4.07798 -0.128373 0
M  V30 3559 H 330.332 3.95889 -1.27456 0
M  V30 3560 H 328.909 3.69012 0.537081 0
M  V30 3561 N 331.094 0.475555 1.50254 0
M  V30 3562 C 332.324 -0.0753399 2.06463 0
M  V30 3563 C 332.732 -1.33661 1.33908 0
M  V30 3564 O 332.075 -1.79219 0.403257 0
M  V30 3565 C 332.137 -0.424921 3.5698 0
M  V30 3566 C 331.801 0.734965 4.51051 0
M  V30 3567 C 332.798 1.61827 4.94073 0
M  V30 3568 C 330.483 0.926557 4.9368 0
M  V30 3569 C 332.477 2.67754 5.78434 0
M  V30 3570 C 330.164 1.98904 5.77824 0
M  V30 3571 C 331.162 2.8629 6.20103 0
M  V30 3572 O 330.85 3.90708 7.02568 0
M  V30 3573 H 330.582 0.00576308 0.675975 0
M  V30 3574 H 333.136 0.664662 1.94349 0
M  V30 3575 H 331.366 -1.21817 3.67012 0
M  V30 3576 H 333.055 -0.911422 3.95535 0
M  V30 3577 H 333.821 1.48196 4.61804 0
M  V30 3578 H 329.7 0.25584 4.6029 0
M  V30 3579 H 333.244 3.35992 6.11355 0
M  V30 3580 H 329.141 2.12541 6.09505 0
M  V30 3581 H 329.909 3.87751 7.20827 0
M  V30 3582 N 332.573 -1.56217 0.208337 0
M  V30 3583 C 333.505 -2.1695 -0.739276 0
M  V30 3584 C 334.518 -1.13492 -1.1672 0
M  V30 3585 O 335.707 -1.40529 -1.10063 0
M  V30 3586 C 332.807 -2.72755 -2.01142 0
M  V30 3587 C 331.98 -4.0125 -1.74118 0
M  V30 3588 C 331.039 -4.41749 -2.85909 0
M  V30 3589 O 330.065 -5.08912 -2.54946 0
M  V30 3590 N 331.267 -4.06342 -4.14568 0
M  V30 3591 H 334.032 -2.98893 -0.219837 0
M  V30 3592 H 331.593 -1.61878 0.0268445 0
M  V30 3593 H 333.585 -2.96826 -2.75094 0
M  V30 3594 H 332.155 -1.95191 -2.4417 0
M  V30 3595 H 331.375 -3.85173 -0.838775 0
M  V30 3596 H 332.663 -4.851 -1.53477 0
M  V30 3597 H 332.061 -3.52345 -4.42571 0
M  V30 3598 H 330.618 -4.35335 -4.85105 0
M  V30 3599 N 334.051 0.0651679 -1.57465 0
M  V30 3600 C 334.999 1.09542 -2.05191 0
M  V30 3601 C 335.993 1.39675 -0.958509 0
M  V30 3602 O 337.199 1.39003 -1.14359 0
M  V30 3603 H 333.574 0.370623 -0.654326 0
M  V30 3604 H 335.545 0.666802 -2.90854 0
M  V30 3605 C 334.294 2.39881 -2.51699 0
M  V30 3606 H 333.617 2.17547 -3.3543 0
M  V30 3607 H 335.057 3.104 -2.88839 0
M  V30 3608 C 333.516 3.0631 -1.40271 0
M  V30 3609 O 334.046 3.94664 -0.748523 0
M  V30 3610 N 332.252 2.67041 -1.14618 0
M  V30 3611 H 331.799 1.95281 -1.67997 0
M  V30 3612 H 331.757 3.1181 -0.402688 0
M  V30 3613 N 335.529 1.53961 0.336706 0
M  V30 3614 C 336.777 1.71197 1.07405 0
M  V30 3615 C 337.098 0.481475 1.88962 0
M  V30 3616 O 336.368 -0.504585 1.8929 0
M  V30 3617 H 334.948 0.631185 0.399517 0
M  V30 3618 H 337.61 1.91232 0.376323 0
M  V30 3619 H 336.706 2.58587 1.74755 0
M  V30 3620 N 337.007 -0.598083 1.45811 0
M  V30 3621 C 337.97 -1.69018 1.54808 0
M  V30 3622 C 338.97 -1.55037 0.426652 0
M  V30 3623 O 340.16 -1.59932 0.690456 0
M  V30 3624 C 337.292 -3.0835 1.45371 0
M  V30 3625 H 338.485 -1.62403 2.52121 0
M  V30 3626 H 336.038 -0.814626 1.33392 0
M  V30 3627 H 336.773 -3.20534 0.492793 0
M  V30 3628 H 336.558 -3.19907 2.26721 0
M  V30 3629 H 338.048 -3.8788 1.54721 0
M  V30 3630 N 338.485 -1.33259 -0.841409 0
M  V30 3631 C 339.731 -1.25766 -1.59857 0
M  V30 3632 C 340.086 0.175602 -1.91597 0
M  V30 3633 O 339.379 1.117 -1.55672 0
M  V30 3634 C 339.573 -2.06381 -2.9179 0
M  V30 3635 C 339.402 -3.57401 -2.72937 0
M  V30 3636 C 338.172 -4.26718 -2.70628 0
M  V30 3637 C 340.37 -4.51786 -2.45753 0
M  V30 3638 N 338.352 -5.63705 -2.43125 0
M  V30 3639 C 339.723 -5.76643 -2.27777 0
M  V30 3640 C 341.778 -4.40898 -2.31329 0
M  V30 3641 C 340.481 -6.91842 -1.96841 0
M  V30 3642 C 342.507 -5.55911 -2.01786 0
M  V30 3643 C 341.869 -6.79776 -1.8462 0
M  V30 3644 H 337.968 -0.515406 -0.588117 0
M  V30 3645 H 340.552 -1.67772 -0.987955 0
M  V30 3646 H 338.723 -1.667 -3.50807 0
M  V30 3647 H 340.455 -1.90678 -3.56965 0
M  V30 3648 H 337.21 -3.78968 -2.84043 0
M  V30 3649 H 337.634 -6.35911 -2.32265 0
M  V30 3650 H 342.276 -3.45772 -2.43314 0
M  V30 3651 H 339.994 -7.86968 -1.83594 0
M  V30 3652 H 343.58 -5.49421 -1.91384 0
M  V30 3653 H 342.46 -7.67266 -1.62088 0
M  V30 3654 N 339.963 1.05934 -1.16686 0
M  V30 3655 C 341.188 1.83029 -0.975455 0
M  V30 3656 C 341.613 1.82096 0.471452 0
M  V30 3657 O 340.971 1.22443 1.33706 0
M  V30 3658 C 341.019 3.27372 -1.51195 0
M  V30 3659 O 340.123 4.06054 -0.720701 0
M  V30 3660 H 339.464 0.566194 -0.346872 0
M  V30 3661 H 341.994 1.33541 -1.55009 0
M  V30 3662 H 342.004 3.78186 -1.53099 0
M  V30 3663 H 340.679 3.27366 -2.56523 0
M  V30 3664 H 339.256 3.64812 -0.772458 0
M  V30 3665 N 341.441 0.965919 1.2453 0
M  V30 3666 C 342.404 0.499547 2.2369 0
M  V30 3667 C 343.404 -0.40294 1.5567 0
M  V30 3668 O 344.594 -0.19865 1.73064 0
M  V30 3669 C 341.726 -0.276792 3.39774 0
M  V30 3670 H 342.919 1.37613 2.66463 0
M  V30 3671 H 340.472 0.750324 1.37112 0
M  V30 3672 H 341.207 -1.17055 3.02438 0
M  V30 3673 H 340.992 0.370826 3.90343 0
M  V30 3674 H 342.482 -0.592175 4.1338 0
M  V30 3675 N 342.919 -1.39368 0.735821 0
M  V30 3676 C 343.882 -2.2896 0.104874 0
M  V30 3677 C 344.882 -1.46347 -0.666274 0
M  V30 3678 O 346.072 -1.67014 -0.49517 0
M  V30 3679 C 343.204 -3.29857 -0.860656 0
M  V30 3680 H 344.397 -2.86259 0.894205 0
M  V30 3681 H 341.95 -1.48029 0.501704 0
M  V30 3682 H 342.685 -2.77615 -1.67631 0
M  V30 3683 H 342.47 -3.9087 -0.310327 0
M  V30 3684 H 343.96 -3.96893 -1.29867 0
M  V30 3685 N 344.397 -0.483516 -1.5 0
M  V30 3686 C 345.36 0.292965 -2.2732 0
M  V30 3687 C 346.36 0.909499 -1.32608 0
M  V30 3688 O 347.55 0.776745 -1.55924 0
M  V30 3689 C 344.682 1.41854 -3.09984 0
M  V30 3690 H 345.875 -0.385289 -2.97415 0
M  V30 3691 H 343.428 -0.237942 -1.54478 0
M  V30 3692 H 344.163 2.13148 -2.44414 0
M  V30 3693 H 343.948 0.982114 -3.79601 0
M  V30 3694 H 345.438 1.96597 -3.68429 0
M  V30 3695 N 345.875 1.56104 -0.216619 0
M  V30 3696 C 347.123 1.97781 0.415593 0
M  V30 3697 C 347.444 1.10536 1.60645 0
M  V30 3698 O 346.714 0.181303 1.95059 0
M  V30 3699 H 345.294 0.730415 0.156534 0
M  V30 3700 H 347.956 1.92445 -0.308366 0
M  V30 3701 H 347.052 3.03072 0.74525 0
M  V30 3702 N 347.353 -0.0568162 1.57498 0
M  V30 3703 C 348.3 -1.06591 2.04712 0
M  V30 3704 C 349.27 -1.3758 0.930644 0
M  V30 3705 O 350.455 -1.48392 1.19935 0
M  V30 3706 C 347.595 -2.3701 2.50839 0
M  V30 3707 C 346.708 -2.12421 3.76167 0
M  V30 3708 C 345.843 -3.36511 4.11015 0
M  V30 3709 C 344.882 -3.07353 5.2934 0
M  V30 3710 N 344.019 -4.23816 5.59754 0
M  V30 3711 H 348.859 -0.65631 2.90683 0
M  V30 3712 H 346.396 -0.312481 1.43743 0
M  V30 3713 H 348.354 -3.13175 2.7564 0
M  V30 3714 H 346.984 -2.75744 1.67825 0
M  V30 3715 H 346.036 -1.2688 3.58616 0
M  V30 3716 H 347.348 -1.86894 4.62463 0
M  V30 3717 H 346.502 -4.21062 4.36797 0
M  V30 3718 H 345.241 -3.65128 3.23315 0
M  V30 3719 H 344.246 -2.212 5.03339 0
M  V30 3720 H 345.471 -2.80043 6.1867 0
M  V30 3721 H 343.417 -4.52436 4.75014 0
M  V30 3722 H 343.334 -4.01614 6.40501 0
M  V30 3723 H 344.602 -5.0932 5.90096 0
M  V30 3724 N 348.832 -1.54138 -0.328536 0
M  V30 3725 C 350.078 -1.7236 -1.06865 0
M  V30 3726 C 350.411 -0.493231 -1.87832 0
M  V30 3727 O 349.686 0.5098 -1.877 0
M  V30 3728 C 349.969 -2.99621 -1.99747 0
M  V30 3729 C 349.822 -4.32899 -1.22143 0
M  V30 3730 C 351.141 -3.22615 -2.99345 0
M  V30 3731 H 348.26 -0.627151 -0.387105 0
M  V30 3732 H 350.902 -1.86827 -0.345767 0
M  V30 3733 H 349.052 -2.87418 -2.61387 0
M  V30 3734 H 350.724 -4.56978 -0.630017 0
M  V30 3735 H 348.967 -4.30628 -0.523628 0
M  V30 3736 H 349.638 -5.18154 -1.90318 0
M  V30 3737 H 352.114 -3.34248 -2.47826 0
M  V30 3738 H 350.99 -4.13027 -3.61524 0
M  V30 3739 H 351.251 -2.3961 -3.71536 0
M  V30 3740 N 350.31 0.590341 -1.46126 0
M  V30 3741 C 351.558 1.34616 -1.50742 0
M  V30 3742 C 351.879 1.94363 -0.157486 0
M  V30 3743 O 351.149 1.78136 0.815136 0
M  V30 3744 H 349.729 0.499789 -0.555175 0
M  V30 3745 H 352.391 0.691953 -1.82203 0
M  V30 3746 H 351.487 2.15678 -2.25587 0
M  V30 3747 N 351.788 1.33704 0.83433 0
M  V30 3748 C 352.721 1.18675 1.94914 0
M  V30 3749 C 353.699 0.0811145 1.62398 0
M  V30 3750 O 354.883 0.244186 1.86912 0
M  V30 3751 C 352.01 0.821231 3.28593 0
M  V30 3752 C 351.056 1.93501 3.80079 0
M  V30 3753 S 351.889 3.54671 4.01209 0
M  V30 3754 C 353.045 3.20136 5.37833 0
M  V30 3755 H 353.278 2.13043 2.07364 0
M  V30 3756 H 350.811 1.18598 0.988624 0
M  V30 3757 H 352.769 0.617123 4.05835 0
M  V30 3758 H 351.43 -0.103927 3.13928 0
M  V30 3759 H 350.623 1.63273 4.76821 0
M  V30 3760 H 350.225 2.09601 3.09747 0
M  V30 3761 H 352.517 2.71242 6.20833 0
M  V30 3762 H 353.46 4.15975 5.73036 0
M  V30 3763 H 353.868 2.56613 5.02802 0
M  V30 3764 N 353.266 -1.05314 1.17247 0
M  V30 3765 C 354.176 -2.16538 0.90268 0
M  V30 3766 C 355.192 -1.73523 -0.128707 0
M  V30 3767 O 356.368 -2.01337 0.0502701 0
M  V30 3768 C 353.433 -3.44167 0.418356 0
M  V30 3769 C 352.494 -4.01635 1.51618 0
M  V30 3770 C 351.727 -5.23171 1.05487 0
M  V30 3771 O 351.95 -5.70327 -0.0914715 0
M  V30 3772 O 350.884 -5.72848 1.8474 0
M  V30 3773 H 354.71 -2.42145 1.83302 0
M  V30 3774 H 352.295 -1.15037 0.953246 0
M  V30 3775 H 354.177 -4.21112 0.155726 0
M  V30 3776 H 352.852 -3.20063 -0.48385 0
M  V30 3777 H 351.759 -3.26135 1.83268 0
M  V30 3778 H 353.092 -4.30053 2.39405 0
M  V30 3779 N 354.744 -0.972509 -1.24016 0
M  V30 3780 C 355.654 -0.5143 -2.28893 0
M  V30 3781 C 356.67 0.427078 -1.68677 0
M  V30 3782 O 357.846 0.298939 -1.99169 0
M  V30 3783 C 354.911 0.183598 -3.46214 0
M  V30 3784 C 353.972 -0.798202 -4.21814 0
M  V30 3785 C 353.205 -0.133514 -5.33533 0
M  V30 3786 O 353.428 1.07714 -5.60137 0
M  V30 3787 O 352.362 -0.828103 -5.96176 0
M  V30 3788 H 356.188 -1.38629 -2.70214 0
M  V30 3789 H 353.773 -0.739769 -1.29799 0
M  V30 3790 H 355.655 0.575433 -4.17453 0
M  V30 3791 H 354.33 1.03048 -3.0686 0
M  V30 3792 H 353.237 -1.24059 -3.52931 0
M  V30 3793 H 354.57 -1.61364 -4.64997 0
M  V30 3794 N 356.222 1.38976 -0.743202 0
M  V30 3795 C 357.17 2.32394 -0.0978389 0
M  V30 3796 C 358.164 1.53486 0.716824 0
M  V30 3797 O 359.37 1.69092 0.617088 0
M  V30 3798 H 355.745 0.75189 -0.0128402 0
M  V30 3799 H 357.716 2.84441 -0.901981 0
M  V30 3800 C 356.465 3.38629 0.789036 0
M  V30 3801 H 355.788 3.99432 0.171559 0
M  V30 3802 H 357.228 4.06426 1.20807 0
M  V30 3803 C 355.687 2.76347 1.92702 0
M  V30 3804 O 356.217 2.64836 3.02034 0
M  V30 3805 N 354.423 2.34311 1.71891 0
M  V30 3806 H 353.97 2.43873 0.829675 0
M  V30 3807 H 353.928 1.9298 2.48205 0
M  V30 3808 N 357.7 0.491464 1.49741 0
M  V30 3809 C 358.94 -0.0549118 2.04326 0
M  V30 3810 C 359.304 -1.35148 1.36378 0
M  V30 3811 O 360.505 -1.9815 1.81631 0
M  V30 3812 C 358.776 -0.213841 3.5676 0
M  V30 3813 S 360.335 -0.715839 4.32922 0
M  V30 3814 H 357.153 -0.00630513 0.710972 0
M  V30 3815 H 359.755 0.663257 1.83905 0
M  V30 3816 H 358.459 0.73527 4.0376 0
M  V30 3817 H 357.99 -0.957529 3.81569 0
M  V30 3818 H 360.005 -1.9864 4.54705 0
M  V30 3819 N 359.178 -1.55987 0.224894 0
M  V30 3820 C 360.111 -2.16413 -0.723929 0
M  V30 3821 C 361.089 -1.10952 -1.18863 0
M  V30 3822 O 362.273 -1.39225 -1.27077 0
M  V30 3823 C 359.4 -2.74711 -1.98121 0
M  V30 3824 C 358.446 -3.9303 -1.6562 0
M  V30 3825 S 359.279 -5.29817 -0.778058 0
M  V30 3826 C 360.435 -5.91555 -2.04483 0
M  V30 3827 H 360.668 -2.96555 -0.210347 0
M  V30 3828 H 358.201 -1.54397 0.00955457 0
M  V30 3829 H 360.159 -3.08938 -2.70311 0
M  V30 3830 H 358.82 -1.94555 -2.46591 0
M  V30 3831 H 358.013 -4.32334 -2.59043 0
M  V30 3832 H 357.615 -3.59966 -1.01491 0
M  V30 3833 H 359.907 -6.07732 -2.99446 0
M  V30 3834 H 360.85 -6.87498 -1.69563 0
M  V30 3835 H 361.258 -5.20419 -2.18688 0
M  V30 3836 N 360.656 0.0484629 -1.57525 0
M  V30 3837 C 361.586 1.0549 -2.08313 0
M  V30 3838 C 362.567 1.38929 -0.981463 0
M  V30 3839 O 363.752 1.48151 -1.25558 0
M  V30 3840 C 360.882 2.36162 -2.54646 0
M  V30 3841 C 359.836 2.17016 -3.68901 0
M  V30 3842 C 359.162 3.53278 -4.01371 0
M  V30 3843 C 360.462 1.57219 -4.98076 0
M  V30 3844 H 362.156 0.632195 -2.92649 0
M  V30 3845 H 359.702 0.302654 -1.40784 0
M  V30 3846 H 361.655 3.06882 -2.88793 0
M  V30 3847 H 360.379 2.80456 -1.67368 0
M  V30 3848 H 359.038 1.48733 -3.35073 0
M  V30 3849 H 358.686 3.95185 -3.11188 0
M  V30 3850 H 358.386 3.41299 -4.78318 0
M  V30 3851 H 359.91 4.25391 -4.38035 0
M  V30 3852 H 361.324 2.17832 -5.30304 0
M  V30 3853 H 359.721 1.55871 -5.79503 0
M  V30 3854 H 360.791 0.535956 -4.81929 0
M  V30 3855 N 362.134 1.5431 0.320358 0
M  V30 3856 C 363.064 1.86912 1.3995 0
M  V30 3857 C 364.045 0.726211 1.53819 0
M  V30 3858 O 365.23 0.980233 1.67646 0
M  V30 3859 C 362.36 2.09932 2.7667 0
M  V30 3860 C 361.314 3.25776 2.77586 0
M  V30 3861 C 360.64 3.34173 4.17412 0
M  V30 3862 C 361.94 4.6335 2.41048 0
M  V30 3863 H 363.634 2.77292 1.12914 0
M  V30 3864 H 361.18 1.33421 0.541738 0
M  V30 3865 H 363.133 2.31324 3.52232 0
M  V30 3866 H 361.857 1.16304 3.0519 0
M  V30 3867 H 360.516 3.04276 2.04479 0
M  V30 3868 H 360.164 2.38098 4.43078 0
M  V30 3869 H 359.864 4.12033 4.18931 0
M  V30 3870 H 361.388 3.57803 4.94782 0
M  V30 3871 H 362.802 4.84602 3.06324 0
M  V30 3872 H 361.199 5.43782 2.53813 0
M  V30 3873 H 362.269 4.65381 1.36193 0
M  V30 3874 N 363.613 -0.582584 1.46437 0
M  V30 3875 C 364.861 -1.33814 1.51453 0
M  V30 3876 C 365.182 -1.94277 0.167792 0
M  V30 3877 O 364.452 -1.78566 -0.805677 0
M  V30 3878 H 363.032 -0.496838 0.557818 0
M  V30 3879 H 365.694 -0.682281 1.82568 0
M  V30 3880 H 364.79 -2.14479 2.26728 0
M  V30 3881 N 365.091 -1.34144 -0.827227 0
M  V30 3882 C 366.041 -1.21923 -1.92663 0
M  V30 3883 C 367.025 -0.119294 -1.60457 0
M  V30 3884 O 368.217 -0.348539 -1.73534 0
M  V30 3885 C 365.346 -0.972492 -3.29238 0
M  V30 3886 C 364.432 -2.1154 -3.67576 0
M  V30 3887 N 364.823 -3.36627 -3.77512 0
M  V30 3888 C 363.121 -2.02468 -3.97395 0
M  V30 3889 C 363.822 -4.11658 -4.1099 0
M  V30 3890 N 362.798 -3.40207 -4.23981 0
M  V30 3891 H 366.6 -2.16721 -1.98517 0
M  V30 3892 H 364.114 -1.2632 -1.02064 0
M  V30 3893 H 366.111 -0.865847 -4.0781 0
M  V30 3894 H 364.771 -0.0331509 -3.24683 0
M  V30 3895 H 365.782 -3.71234 -3.61118 0
M  V30 3896 H 362.459 -1.16265 -4.00985 0
M  V30 3897 H 363.849 -5.19657 -4.25918 0
M  V30 3898 N 366.569 1.04691 -1.17803 0
M  V30 3899 C 367.794 1.81984 -0.994813 0
M  V30 3900 C 368.219 1.82586 0.452112 0
M  V30 3901 O 367.577 1.23854 1.324 0
M  V30 3902 C 367.625 3.2575 -1.54659 0
M  V30 3903 O 366.729 4.05267 -0.763728 0
M  V30 3904 H 366.07 0.562483 -0.352857 0
M  V30 3905 H 368.6 1.3189 -1.56417 0
M  V30 3906 H 368.61 3.76541 -1.57102 0
M  V30 3907 H 367.285 3.24627 -2.59981 0
M  V30 3908 H 365.862 3.63972 -0.811108 0
M  V30 3909 N 368.047 0.979072 1.23499 0
M  V30 3910 C 369.287 0.655228 1.93613 0
M  V30 3911 C 369.651 -0.796336 1.74707 0
M  V30 3912 O 370.852 -1.23094 2.38959 0
M  V30 3913 C 369.123 1.03337 3.42135 0
M  V30 3914 S 370.682 0.825793 4.3096 0
M  V30 3915 H 367.5 0.240004 0.669267 0
M  V30 3916 H 370.102 1.25843 1.49612 0
M  V30 3917 H 368.806 2.08646 3.53405 0
M  V30 3918 H 368.337 0.421397 3.91137 0
M  V30 3919 H 370.352 -0.290991 4.95346 0
M  V30 3920 N 369.525 -1.3858 0.750561 0
M  V30 3921 C 370.774 -1.99424 0.302172 0
M  V30 3922 C 371.087 -1.60254 -1.12152 0
M  V30 3923 O 372.293 -2.14046 -1.67023 0
M  V30 3924 C 370.749 -3.56558 0.489307 0
M  V30 3925 C 370.357 -4.04682 1.92189 0
M  V30 3926 C 372.101 -4.24374 0.103478 0
M  V30 3927 C 370.008 -5.54446 2.05775 0
M  V30 3928 H 368.938 -0.746046 0.10923 0
M  V30 3929 H 371.589 -1.58383 0.92667 0
M  V30 3930 H 369.971 -3.95472 -0.204329 0
M  V30 3931 H 371.145 -3.77065 2.64875 0
M  V30 3932 H 369.46 -3.4958 2.26236 0
M  V30 3933 H 372.057 -5.34384 0.183787 0
M  V30 3934 H 372.4 -4.05468 -0.943481 0
M  V30 3935 H 372.933 -3.90688 0.748854 0
M  V30 3936 H 369.672 -5.78252 3.08714 0
M  V30 3937 H 369.192 -5.83816 1.37546 0
M  V30 3938 H 370.871 -6.20099 1.84626 0
M  V30 3939 N 371.003 -0.499398 -1.49478 0
M  V30 3940 C 372.249 0.0457576 -2.02748 0
M  V30 3941 C 372.582 1.36793 -1.37846 0
M  V30 3942 O 371.857 1.87596 -0.513601 0
M  V30 3943 C 372.14 0.199986 -3.59544 0
M  V30 3944 C 371.993 -1.1452 -4.34977 0
M  V30 3945 C 373.312 0.94137 -4.29914 0
M  V30 3946 H 370.431 0.0151552 -0.736844 0
M  V30 3947 H 373.073 -0.650498 -1.78518 0
M  V30 3948 H 371.223 0.793007 -3.8032 0
M  V30 3949 H 372.895 -1.77697 -4.25701 0
M  V30 3950 H 371.138 -1.73488 -3.97598 0
M  V30 3951 H 371.809 -0.990607 -5.43039 0
M  V30 3952 H 374.285 0.43844 -4.13784 0
M  V30 3953 H 373.161 1.01812 -5.39375 0
M  V30 3954 H 373.422 1.98471 -3.95046 0
M  V30 3955 N 372.481 1.55866 -0.233164 0
M  V30 3956 C 373.444 2.1953 0.658715 0
M  V30 3957 C 374.444 1.16053 1.11303 0
M  V30 3958 O 375.634 1.41218 1.01996 0
M  V30 3959 C 372.766 2.82791 1.90373 0
M  V30 3960 H 373.959 2.99721 0.10347 0
M  V30 3961 H 371.512 1.56291 0.0164245 0
M  V30 3962 H 372.247 2.06501 2.50056 0
M  V30 3963 H 372.032 3.58578 1.58632 0
M  V30 3964 H 373.522 3.31556 2.53891 0
M  V30 3965 N 373.959 -0.0401083 1.57549 0
M  V30 3966 C 375.37 -0.588097 1.77196 0
M  V30 3967 C 375.721 -1.76209 0.862832 0
M  V30 3968 O 374.846 -2.16331 0.0548389 0
M  V30 3969 C 375.441 -1.07363 3.21339 0
M  V30 3970 C 374 -1.56723 3.42221 0
M  V30 3971 C 373.147 -0.50041 2.72747 0
M  V30 3972 H 376.098 0.186119 1.57605 0
M  V30 3973 H 376.119 -1.94143 3.27244 0
M  V30 3974 H 375.631 -0.218975 3.87482 0
M  V30 3975 H 373.732 -2.4441 2.81237 0
M  V30 3976 H 373.845 -1.62234 4.50796 0
M  V30 3977 H 372.209 -0.952894 2.36203 0
M  V30 3978 H 372.992 0.344599 3.41566 0
M  V30 3979 N 375.437 -1.54477 -0.31217 0
M  V30 3980 C 376.665 -1.77205 -1.068 0
M  V30 3981 C 377.08 -0.526114 -1.81321 0
M  V30 3982 O 376.437 0.503647 -1.75413 0
M  V30 3983 C 376.488 -2.97253 -2.05725 0
M  V30 3984 O 376.209 -4.1703 -1.34228 0
M  V30 3985 C 377.71 -3.32281 -2.93435 0
M  V30 3986 H 374.93 -0.591287 -0.317208 0
M  V30 3987 H 377.474 -2.01398 -0.354834 0
M  V30 3988 H 375.629 -2.753 -2.72559 0
M  V30 3989 H 376.043 -4.84636 -2.00571 0
M  V30 3990 H 377.517 -4.19551 -3.58721 0
M  V30 3991 H 377.994 -2.49945 -3.61143 0
M  V30 3992 H 378.6 -3.56353 -2.32147 0
M  V30 3993 N 376.915 0.57481 -1.46744 0
M  V30 3994 C 378.163 1.33009 -1.52161 0
M  V30 3995 C 378.484 1.94185 -0.178092 0
M  V30 3996 O 377.754 1.7899 0.796196 0
M  V30 3997 H 376.334 0.493873 -0.560445 0
M  V30 3998 H 378.996 0.672589 -1.82927 0
M  V30 3999 H 378.092 2.13273 -2.27862 0
M  V30 4000 N 378.394 1.34581 0.820102 0
M  V30 4001 C 379.304 1.28471 1.96297 0
M  V30 4002 C 380.32 0.191902 1.72939 0
M  V30 4003 O 381.496 0.418879 1.96996 0
M  V30 4004 C 378.561 1.04281 3.30645 0
M  V30 4005 C 377.622 2.22745 3.66992 0
M  V30 4006 C 376.855 1.997 4.9493 0
M  V30 4007 O 377.078 0.956656 5.6232 0
M  V30 4008 O 376.012 2.86723 5.2922 0
M  V30 4009 H 379.838 2.24624 2.04396 0
M  V30 4010 H 377.423 1.14816 0.955913 0
M  V30 4011 H 379.305 0.925841 4.11104 0
M  V30 4012 H 377.98 0.111697 3.23507 0
M  V30 4013 H 376.887 2.40003 2.86966 0
M  V30 4014 H 378.22 3.14257 3.78819 0
M  V30 4015 N 379.872 -1.04064 1.18357 0
M  V30 4016 C 381.121 -1.76662 0.973313 0
M  V30 4017 C 381.434 -1.89154 -0.497991 0
M  V30 4018 O 382.64 -2.58606 -0.826762 0
M  V30 4019 C 381.096 -3.17624 1.69242 0
M  V30 4020 C 380.704 -3.13225 3.20303 0
M  V30 4021 C 382.448 -3.946 1.56497 0
M  V30 4022 C 380.355 -4.49046 3.84853 0
M  V30 4023 H 379.285 -0.662214 0.36054 0
M  V30 4024 H 381.936 -1.16553 1.41731 0
M  V30 4025 H 380.318 -3.78129 1.1762 0
M  V30 4026 H 381.492 -2.62172 3.78949 0
M  V30 4027 H 379.807 -2.49749 3.33189 0
M  V30 4028 H 382.404 -4.95042 2.02084 0
M  V30 4029 H 382.747 -4.13074 0.517243 0
M  V30 4030 H 383.28 -3.4067 2.05399 0
M  V30 4031 H 380.019 -4.35777 4.89672 0
M  V30 4032 H 379.539 -5.00203 3.30994 0
M  V30 4033 H 381.218 -5.17961 3.87718 0
M  V30 4034 N 381.35 -0.985608 -1.22978 0
M  V30 4035 C 382.596 -0.65836 -1.91816 0
M  V30 4036 C 382.929 0.806692 -1.76653 0
M  V30 4037 O 382.204 1.58252 -1.13078 0
M  V30 4038 C 382.487 -1.056 -3.44268 0
M  V30 4039 C 382.34 -2.57906 -3.68516 0
M  V30 4040 C 383.659 -0.603781 -4.35939 0
M  V30 4041 H 380.778 -0.24065 -0.696604 0
M  V30 4042 H 383.42 -1.22783 -1.44998 0
M  V30 4043 H 381.57 -0.571445 -3.84274 0
M  V30 4044 H 383.242 -3.13976 -3.3796 0
M  V30 4045 H 381.485 -3.00305 -3.13048 0
M  V30 4046 H 382.156 -2.80779 -4.75255 0
M  V30 4047 H 384.632 -1.01987 -4.03408 0
M  V30 4048 H 383.508 -0.910383 -5.41298 0
M  V30 4049 H 383.769 0.495761 -4.39312 0
M  V30 4050 N 382.828 1.3818 -0.7579 0
M  V30 4051 C 383.791 2.28764 -0.141286 0
M  V30 4052 C 384.791 1.47388 0.642907 0
M  V30 4053 O 385.981 1.67781 0.468536 0
M  V30 4054 C 383.113 3.31184 0.808069 0
M  V30 4055 H 384.306 2.848 -0.939633 0
M  V30 4056 H 381.859 1.47212 -0.525191 0
M  V30 4057 H 382.594 2.80247 1.63193 0
M  V30 4058 H 382.379 3.91314 0.248104 0
M  V30 4059 H 383.869 3.98909 1.23536 0
M  V30 4060 N 384.306 0.507319 1.49211 0
M  V30 4061 C 385.236 -0.256939 2.32082 0
M  V30 4062 C 386.217 -0.956609 1.40652 0
M  V30 4063 O 387.402 -0.946788 1.69557 0
M  V30 4064 C 384.532 -1.31802 3.21318 0
M  V30 4065 C 383.486 -0.737855 4.21592 0
M  V30 4066 C 382.812 -1.89992 4.99807 0
M  V30 4067 C 384.112 0.275325 5.21574 0
M  V30 4068 H 385.806 0.434798 2.96226 0
M  V30 4069 H 383.352 0.210546 1.42452 0
M  V30 4070 H 385.305 -1.86045 3.78107 0
M  V30 4071 H 384.029 -2.03903 2.5513 0
M  V30 4072 H 382.688 -0.217126 3.65956 0
M  V30 4073 H 382.336 -2.60877 4.30061 0
M  V30 4074 H 382.036 -1.51777 5.6766 0
M  V30 4075 H 383.56 -2.44657 5.59442 0
M  V30 4076 H 384.974 -0.179193 5.7302 0
M  V30 4077 H 383.371 0.573649 5.97352 0
M  V30 4078 H 384.441 1.18903 4.70096 0
M  V30 4079 N 385.784 -1.5574 0.241426 0
M  V30 4080 C 387.012 -2.03208 -0.389134 0
M  V30 4081 C 387.427 -1.12082 -1.51931 0
M  V30 4082 O 386.784 -0.134183 -1.82006 0
M  V30 4083 C 386.835 -3.50064 -0.902087 0
M  V30 4084 O 386.556 -4.37717 0.18305 0
M  V30 4085 C 388.057 -4.13268 -1.60389 0
M  V30 4086 H 385.277 -0.664509 -0.0931053 0
M  V30 4087 H 387.821 -2.0124 0.36369 0
M  V30 4088 H 385.976 -3.52583 -1.60511 0
M  V30 4089 H 386.39 -5.24097 -0.205579 0
M  V30 4090 H 387.864 -5.17733 -1.91458 0
M  V30 4091 H 388.341 -3.59434 -2.52397 0
M  V30 4092 H 388.947 -4.14655 -0.945576 0
M  V30 4093 N 387.262 0.0317525 -1.57568 0
M  V30 4094 C 388.49 0.734949 -1.93407 0
M  V30 4095 C 388.905 1.69036 -0.84096 0
M  V30 4096 O 388.262 1.81582 0.182836 0
M  V30 4097 C 388.313 1.49432 -3.29169 0
M  V30 4098 O 388.034 0.577261 -4.3428 0
M  V30 4099 C 389.535 2.29492 -3.79273 0
M  V30 4100 H 386.755 0.206706 -0.638368 0
M  V30 4101 H 389.299 -0.00992046 -2.04498 0
M  V30 4102 H 387.454 2.1911 -3.19483 0
M  V30 4103 H 387.868 1.10952 -5.1263 0
M  V30 4104 H 389.342 2.78172 -4.76785 0
M  V30 4105 H 389.819 3.10794 -3.10328 0
M  V30 4106 H 390.425 1.64894 -3.92033 0
M  V30 4107 N 388.74 1.54641 0.303973 0
M  V30 4108 C 389.968 1.77768 1.05858 0
M  V30 4109 C 390.383 0.535722 1.8104 0
M  V30 4110 O 389.74 -0.494337 1.75677 0
M  V30 4111 C 389.791 2.9834 2.04146 0
M  V30 4112 O 389.512 4.17736 1.32015 0
M  V30 4113 C 391.013 3.33832 2.91669 0
M  V30 4114 H 388.233 0.592961 0.314067 0
M  V30 4115 H 390.777 2.01583 0.344149 0
M  V30 4116 H 388.932 2.76742 2.71096 0
M  V30 4117 H 389.346 4.85693 1.97998 0
M  V30 4118 H 390.82 4.21448 3.56491 0
M  V30 4119 H 391.297 2.51857 3.59812 0
M  V30 4120 H 391.903 3.57579 2.30254 0
M  V30 4121 N 390.218 -0.567019 1.47046 0
M  V30 4122 C 391.148 -1.68482 1.61667 0
M  V30 4123 C 392.129 -1.6358 0.466418 0
M  V30 4124 O 393.314 -1.81354 0.694574 0
M  V30 4125 C 390.444 -3.07124 1.62148 0
M  V30 4126 C 389.398 -3.26867 2.76301 0
M  V30 4127 C 388.724 -4.66196 2.61849 0
M  V30 4128 C 390.024 -3.13186 4.17986 0
M  V30 4129 H 391.718 -1.56502 2.5524 0
M  V30 4130 H 389.264 -0.751486 1.22836 0
M  V30 4131 H 391.217 -3.8516 1.70968 0
M  V30 4132 H 389.941 -3.2004 0.651287 0
M  V30 4133 H 388.6 -2.51237 2.66975 0
M  V30 4134 H 388.248 -4.75898 1.62879 0
M  V30 4135 H 387.948 -4.80356 3.38425 0
M  V30 4136 H 389.472 -5.46379 2.72584 0
M  V30 4137 H 390.886 -3.81049 4.2834 0
M  V30 4138 H 389.283 -3.3886 4.95272 0
M  V30 4139 H 390.353 -2.10057 4.3704 0
M  V30 4140 N 391.696 -1.35014 -0.812953 0
M  V30 4141 C 392.606 -1.2951 -1.95613 0
M  V30 4142 C 393.622 -0.20107 -1.72834 0
M  V30 4143 O 394.798 -0.42932 -1.96771 0
M  V30 4144 C 391.863 -1.06033 -3.30088 0
M  V30 4145 C 390.924 -2.24688 -3.65805 0
M  V30 4146 C 390.157 -2.02322 -4.93864 0
M  V30 4147 O 390.38 -0.986464 -5.61805 0
M  V30 4148 O 389.314 -2.89525 -5.27692 0
M  V30 4149 H 393.14 -2.25705 -2.03202 0
M  V30 4150 H 390.725 -1.15321 -0.949811 0
M  V30 4151 H 392.607 -0.94763 -4.10607 0
M  V30 4152 H 391.282 -0.128852 -3.23443 0
M  V30 4153 H 390.189 -2.41521 -2.85689 0
M  V30 4154 H 391.522 -3.16261 -3.77147 0
M  V30 4155 N 393.175 1.03435 -1.18907 0
M  V30 4156 C 394.452 1.73778 -0.89781 0
M  V30 4157 C 394.832 2.02458 0.597832 0
M  V30 4158 O 394.18 1.67482 1.55441 0
M  V30 4159 C 394.39 3.01845 -1.75187 0
M  V30 4160 C 395.738 3.7546 -1.9828 0
M  V30 4161 O 396.762 3.11759 -1.72293 0
M  V30 4162 O 395.621 4.89966 -2.42065 0
M  V30 4163 H 392.715 0.75651 -0.334098 0
M  V30 4164 H 395.261 1.09444 -1.29693 0
M  V30 4165 H 394.033 2.76836 -2.76545 0
M  V30 4166 H 393.656 3.73919 -1.35167 0
M  V30 4167 N 394.653 0.992116 1.22453 0
M  V30 4168 C 395.563 0.55065 2.28046 0
M  V30 4169 C 396.579 -0.400189 1.69335 0
M  V30 4170 O 397.755 -0.267215 1.99619 0
M  V30 4171 C 394.82 -0.128496 3.46462 0
M  V30 4172 C 393.881 0.865208 4.20491 0
M  V30 4173 C 393.114 0.218377 5.33253 0
M  V30 4174 O 393.337 -0.987894 5.6178 0
M  V30 4175 O 392.271 0.922845 5.94783 0
M  V30 4176 H 396.097 1.4291 2.67975 0
M  V30 4177 H 393.682 0.760326 1.28606 0
M  V30 4178 H 395.564 -0.508947 4.18315 0
M  V30 4179 H 394.239 -0.981526 3.0846 0
M  V30 4180 H 393.146 1.29658 3.50913 0
M  V30 4181 H 394.479 1.68741 4.62371 0
M  V30 4182 N 396.131 -1.37776 0.765217 0
M  V30 4183 C 397.377 -2.00145 0.327072 0
M  V30 4184 C 397.71 -1.60607 -1.09175 0
M  V30 4185 O 396.985 -0.849127 -1.74986 0
M  V30 4186 C 397.268 -3.57109 0.46319 0
M  V30 4187 C 397.121 -4.06576 1.92395 0
M  V30 4188 C 398.44 -4.39888 -0.136473 0
M  V30 4189 H 395.559 -0.727113 0.120316 0
M  V30 4190 H 398.201 -1.63549 0.967039 0
M  V30 4191 H 396.351 -3.88414 -0.0816358 0
M  V30 4192 H 398.023 -3.85864 2.52798 0
M  V30 4193 H 396.266 -3.59011 2.43503 0
M  V30 4194 H 396.937 -5.15639 1.97028 0
M  V30 4195 H 399.413 -4.14803 0.328317 0
M  V30 4196 H 398.289 -5.48899 -0.0110582 0
M  V30 4197 H 398.55 -4.24758 -1.22608 0
M  V30 4198 N 397.609 -0.515225 -1.4894 0
M  V30 4199 C 398.858 0.0261361 -2.01683 0
M  V30 4200 C 399.171 1.36719 -1.39883 0
M  V30 4201 O 400.377 1.99606 -1.84037 0
M  V30 4202 C 398.833 0.0970111 -3.59769 0
M  V30 4203 C 398.441 -1.23825 -4.30548 0
M  V30 4204 C 400.185 0.587981 -4.20408 0
M  V30 4205 C 398.092 -1.12877 -5.80528 0
M  V30 4206 H 397.022 0.0135398 -0.753878 0
M  V30 4207 H 399.673 -0.656787 -1.71343 0
M  V30 4208 H 398.055 0.844694 -3.86886 0
M  V30 4209 H 399.229 -2.00034 -4.15118 0
M  V30 4210 H 397.544 -1.66379 -3.81716 0
M  V30 4211 H 400.141 0.68763 -5.3026 0
M  V30 4212 H 400.484 1.59026 -3.84729 0
M  V30 4213 H 401.017 -0.103582 -3.97665 0
M  V30 4214 H 397.756 -2.10575 -6.20756 0
M  V30 4215 H 397.276 -0.407799 -5.98412 0
M  V30 4216 H 398.955 -0.813332 -6.41868 0
M  V30 4217 N 399.087 1.5561 -0.249682 0
M  V30 4218 C 400.315 2.03411 0.378352 0
M  V30 4219 C 400.73 1.12886 1.51335 0
M  V30 4220 O 400.087 0.143833 1.81932 0
M  V30 4221 C 400.138 3.50537 0.88351 0
M  V30 4222 O 399.859 4.37614 -0.20626 0
M  V30 4223 C 401.36 4.14113 1.58195 0
M  V30 4224 H 398.58 0.664994 0.08958 0
M  V30 4225 H 401.124 2.01044 -0.374357 0
M  V30 4226 H 399.279 3.5343 1.58639 0
M  V30 4227 H 399.693 5.24199 0.177782 0
M  V30 4228 H 401.167 5.18741 1.8871 0
M  V30 4229 H 401.644 3.60767 2.50487 0
M  V30 4230 H 402.25 4.15151 0.923573 0
M  V30 4231 N 400.565 -0.0233959 1.57583 0
M  V30 4232 C 401.528 -1.00693 2.05897 0
M  V30 4233 C 402.528 -1.28693 0.964092 0
M  V30 4234 O 403.718 -1.23602 1.22753 0
M  V30 4235 C 400.85 -2.33825 2.4807 0
M  V30 4236 H 402.043 -0.589476 2.9405 0
M  V30 4237 H 399.596 -0.270354 1.53944 0
M  V30 4238 H 400.331 -2.80307 1.6309 0
M  V30 4239 H 400.116 -2.1483 3.2801 0
M  V30 4240 H 401.606 -3.04426 2.85857 0
M  V30 4241 N 402.043 -1.548 -0.295768 0
M  V30 4242 C 403.006 -1.85363 -1.34808 0
M  V30 4243 C 404.006 -0.726817 -1.43436 0
M  V30 4244 O 405.196 -0.995088 -1.42981 0
M  V30 4245 C 402.328 -2.03859 -2.73229 0
M  V30 4246 H 403.521 -2.7941 -1.08949 0
M  V30 4247 H 401.074 -1.46942 -0.532702 0
M  V30 4248 H 401.809 -1.12117 -3.04303 0
M  V30 4249 H 401.594 -2.8588 -2.68356 0
M  V30 4250 H 403.084 -2.28857 -3.49305 0
M  V30 4251 N 403.521 0.559213 -1.47345 0
M  V30 4252 C 404.767 1.31843 -1.54095 0
M  V30 4253 C 405.1 1.93149 -0.201726 0
M  V30 4254 O 404.375 1.77759 0.789428 0
M  V30 4255 C 404.658 2.43006 -2.65744 0
M  V30 4256 C 404.511 1.86581 -4.09277 0
M  V30 4257 C 405.83 3.44943 -2.73318 0
M  V30 4258 H 402.949 0.478012 -0.560957 0
M  V30 4259 H 405.591 0.625977 -1.79392 0
M  V30 4260 H 403.741 3.02072 -2.44305 0
M  V30 4261 H 405.413 1.31792 -4.42073 0
M  V30 4262 H 403.656 1.17268 -4.17649 0
M  V30 4263 H 404.327 2.66933 -4.83168 0
M  V30 4264 H 406.803 2.95793 -2.92653 0
M  V30 4265 H 405.679 4.20153 -3.53218 0
M  V30 4266 H 405.94 4.03665 -1.80296 0
M  V30 4267 N 404.999 1.35443 0.805782 0
M  V30 4268 C 406.276 1.19325 1.54987 0
M  V30 4269 C 406.656 -0.227294 2.09873 0
M  V30 4270 O 406.004 -1.2309 1.92512 0
M  V30 4271 C 406.214 2.26196 2.65775 0
M  V30 4272 C 407.562 2.62043 3.34094 0
M  V30 4273 O 408.586 2.25115 2.76046 0
M  V30 4274 O 407.445 3.25542 4.38958 0
M  V30 4275 H 404.539 0.463623 0.684823 0
M  V30 4276 H 407.085 1.47127 0.845674 0
M  V30 4277 H 405.857 3.21471 2.23096 0
M  V30 4278 H 405.48 1.99667 3.43829 0
M  V30 4279 N 406.477 -1.02803 1.19454 0
M  V30 4280 C 407.407 -2.12999 0.956758 0
M  V30 4281 C 408.388 -1.69743 -0.110188 0
M  V30 4282 O 409.573 -1.94148 0.0450038 0
M  V30 4283 C 406.703 -3.43746 0.495553 0
M  V30 4284 C 405.657 -4.00688 1.50443 0
M  V30 4285 C 404.983 -5.27067 0.900275 0
M  V30 4286 C 406.283 -4.35397 2.8849 0
M  V30 4287 H 407.977 -2.33148 1.87836 0
M  V30 4288 H 405.523 -1.12045 0.904539 0
M  V30 4289 H 407.476 -4.2021 0.316493 0
M  V30 4290 H 406.2 -3.23321 -0.461646 0
M  V30 4291 H 404.859 -3.2632 1.67065 0
M  V30 4292 H 404.507 -5.02959 -0.064503 0
M  V30 4293 H 404.207 -5.66127 1.57397 0
M  V30 4294 H 405.731 -6.06196 0.73203 0
M  V30 4295 H 407.145 -5.02795 2.75446 0
M  V30 4296 H 405.542 -4.85541 3.52661 0
M  V30 4297 H 406.612 -3.44662 3.41081 0
M  V30 4298 N 407.956 -0.998596 -1.21925 0
M  V30 4299 C 409.233 -0.593401 -1.86382 0
M  V30 4300 C 409.613 0.92916 -1.89552 0
M  V30 4301 O 408.961 1.81347 -1.39017 0
M  V30 4302 C 409.171 -1.22039 -3.26967 0
M  V30 4303 C 410.519 -1.32449 -4.03413 0
M  V30 4304 O 411.543 -1.17522 -3.36254 0
M  V30 4305 O 410.402 -1.56395 -5.23644 0
M  V30 4306 H 407.496 -0.202385 -0.801854 0
M  V30 4307 H 410.042 -1.09484 -1.29659 0
M  V30 4308 H 408.814 -2.26158 -3.19325 0
M  V30 4309 H 408.437 -0.704906 -3.91301 0
M  V30 4310 N 409.434 1.37368 -0.772513 0
M  V30 4311 C 410.85 1.53059 -0.452231 0
M  V30 4312 C 411.05 1.73065 1.03203 0
M  V30 4313 O 410.106 1.75245 1.81784 0
M  V30 4314 C 411.419 2.72659 -1.26797 0
M  V30 4315 C 412.967 2.86521 -1.25995 0
M  V30 4316 C 413.442 4.09105 -2.05905 0
M  V30 4317 N 414.933 4.16219 -2.03263 0
M  V30 4318 C 415.668 5.10107 -2.61875 0
M  V30 4319 N 415.164 6.09547 -3.29278 0
M  V30 4320 N 416.957 5.02596 -2.51701 0
M  V30 4321 H 409.108 1.22634 -1.7342 0
M  V30 4322 H 411.371 0.597206 -0.736239 0
M  V30 4323 H 411.077 2.64343 -2.31982 0
M  V30 4324 H 410.951 3.66363 -0.897672 0
M  V30 4325 H 413.338 2.94308 -0.216081 0
M  V30 4326 H 413.419 1.93774 -1.66989 0
M  V30 4327 H 413.063 4.0208 -3.10313 0
M  V30 4328 H 412.993 5.00968 -1.62292 0
M  V30 4329 H 415.484 3.45012 -1.54192 0
M  V30 4330 H 415.797 6.77718 -3.71374 0
M  V30 4331 H 414.142 6.09824 -3.33377 0
M  V30 4332 H 417.333 4.23855 -1.98657 0
M  V30 4333 H 417.506 5.75582 -2.97673 0
M  V30 4334 N 410.912 0.523116 1.48665 0
M  V30 4335 C 412.152 -0.0115588 2.04397 0
M  V30 4336 C 412.516 -1.32225 1.39214 0
M  V30 4337 O 413.717 -1.94253 1.85793 0
M  V30 4338 C 411.988 -0.138119 3.57133 0
M  V30 4339 S 413.547 -0.623849 4.34343 0
M  V30 4340 H 410.365 0.00877706 0.710946 0
M  V30 4341 H 412.967 0.702116 1.82457 0
M  V30 4342 H 411.671 0.820748 4.02109 0
M  V30 4343 H 411.202 -0.876377 3.83514 0
M  V30 4344 H 413.217 -1.8895 4.58816 0
M  V30 4345 N 412.39 -1.55475 0.257931 0
M  V30 4346 C 413.806 -1.59307 -0.0966563 0
M  V30 4347 C 414.006 -1.27514 -1.5602 0
M  V30 4348 O 413.062 -1.02774 -2.30637 0
M  V30 4349 C 414.375 -2.99552 0.262481 0
M  V30 4350 C 415.923 -3.1231 0.207683 0
M  V30 4351 C 416.398 -4.54793 0.541012 0
M  V30 4352 N 417.889 -4.6058 0.491921 0
M  V30 4353 C 418.624 -5.68825 0.722857 0
M  V30 4354 N 418.12 -6.85287 1.0175 0
M  V30 4355 N 419.913 -5.58296 0.652815 0
M  V30 4356 H 412.064 -1.74409 1.21224 0
M  V30 4357 H 414.327 -0.812424 0.48854 0
M  V30 4358 H 414.033 -3.27593 1.27967 0
M  V30 4359 H 413.907 -3.75019 -0.40508 0
M  V30 4360 H 416.294 -2.84044 -0.800195 0
M  V30 4361 H 416.375 -2.39095 0.909255 0
M  V30 4362 H 416.019 -4.83783 1.5465 0
M  V30 4363 H 415.949 -5.26285 -0.18216 0
M  V30 4364 H 418.44 -3.7691 0.273366 0
M  V30 4365 H 418.753 -7.63725 1.18084 0
M  V30 4366 H 417.098 -6.86945 1.05509 0
M  V30 4367 H 420.289 -4.66189 0.422592 0
M  V30 4368 H 420.462 -6.42582 0.836182 0
M  V30 4369 N 413.868 0.0150385 -1.57593 0
M  V30 4370 C 414.778 1.02791 -2.10882 0
M  V30 4371 C 415.794 1.38702 -1.0506 0
M  V30 4372 O 416.97 1.47739 -1.36877 0
M  V30 4373 C 414.035 2.30568 -2.58919 0
M  V30 4374 C 413.096 2.01108 -3.79281 0
M  V30 4375 C 412.329 3.22794 -4.25018 0
M  V30 4376 O 412.552 4.33959 -3.70183 0
M  V30 4377 O 411.486 3.07672 -5.17322 0
M  V30 4378 H 415.312 0.604973 -2.97613 0
M  V30 4379 H 412.897 0.23292 -1.47573 0
M  V30 4380 H 414.779 3.05662 -2.90084 0
M  V30 4381 H 413.454 2.72129 -1.75293 0
M  V30 4382 H 412.361 1.23537 -3.53114 0
M  V30 4383 H 413.694 1.64394 -4.63935 0
M  V30 4384 N 415.346 1.54954 0.287554 0
M  V30 4385 C 416.276 1.89839 1.35954 0
M  V30 4386 C 417.257 0.758675 1.52244 0
M  V30 4387 O 418.442 1.01557 1.65529 0
M  V30 4388 C 415.572 2.15753 2.72154 0
M  V30 4389 C 414.526 3.3159 2.70614 0
M  V30 4390 C 413.852 3.42952 4.10229 0
M  V30 4391 C 415.152 4.68359 2.31165 0
M  V30 4392 H 416.846 2.79625 1.07007 0
M  V30 4393 H 414.392 1.3454 0.513316 0
M  V30 4394 H 416.345 2.38743 3.47246 0
M  V30 4395 H 415.069 1.22752 3.02654 0
M  V30 4396 H 413.728 3.08545 1.97979 0
M  V30 4397 H 413.376 2.47443 4.37928 0
M  V30 4398 H 413.076 4.20826 4.10097 0
M  V30 4399 H 414.6 3.68218 4.87081 0
M  V30 4400 H 416.014 4.9099 2.95976 0
M  V30 4401 H 414.411 5.49044 2.42221 0
M  V30 4402 H 415.481 4.68165 1.26291 0
M  V30 4403 N 416.824 -0.551391 1.4764 0
M  V30 4404 C 418.24 -0.877887 1.33287 0
M  V30 4405 C 418.44 -1.98817 0.327721 0
M  V30 4406 O 417.496 -2.51171 -0.258695 0
M  V30 4407 C 418.809 -1.26563 2.72768 0
M  V30 4408 C 420.357 -1.37673 2.81097 0
M  V30 4409 C 420.832 -1.79799 4.21232 0
M  V30 4410 N 422.323 -1.8694 4.23802 0
M  V30 4411 C 423.058 -2.20876 5.29151 0
M  V30 4412 N 422.554 -2.53386 6.448 0
M  V30 4413 N 424.347 -2.217 5.16532 0
M  V30 4414 H 416.498 0.18153 2.11623 0
M  V30 4415 H 418.761 0.0185514 0.947818 0
M  V30 4416 H 418.467 -0.523591 3.47781 0
M  V30 4417 H 418.341 -2.22052 3.04915 0
M  V30 4418 H 420.728 -2.10956 2.06353 0
M  V30 4419 H 420.809 -0.40357 2.52596 0
M  V30 4420 H 420.453 -1.07083 4.96483 0
M  V30 4421 H 420.383 -2.78128 4.4716 0
M  V30 4422 H 422.874 -1.64179 3.40373 0
M  V30 4423 H 423.187 -2.78325 7.20941 0
M  V30 4424 H 421.532 -2.50953 6.48111 0
M  V30 4425 H 424.723 -1.95745 4.25207 0
M  V30 4426 H 424.896 -2.47818 5.98741 0
M  V30 4427 N 418.302 -1.35869 -0.798587 0
M  V30 4428 C 419.212 -1.31578 -1.94228 0
M  V30 4429 C 420.228 -0.21939 -1.72611 0
M  V30 4430 O 421.404 -0.450167 -1.96305 0
M  V30 4431 C 418.469 -1.09528 -3.28944 0
M  V30 4432 C 417.53 -2.28556 -3.63402 0
M  V30 4433 C 416.763 -2.07549 -4.9169 0
M  V30 4434 O 416.986 -1.046 -5.60727 0
M  V30 4435 O 415.92 -2.95106 -5.24591 0
M  V30 4436 H 419.746 -2.27847 -2.00796 0
M  V30 4437 H 417.331 -1.16322 -0.937526 0
M  V30 4438 H 419.213 -0.991127 -4.09579 0
M  V30 4439 H 417.888 -0.16315 -3.23289 0
M  V30 4440 H 416.795 -2.44538 -2.83112 0
M  V30 4441 H 418.128 -3.20244 -3.73771 0
M  V30 4442 N 419.78 1.02168 -1.19998 0
M  V30 4443 C 420.73 2.08969 -0.911921 0
M  V30 4444 C 421.714 1.60404 0.12621 0
M  V30 4445 O 422.906 1.76817 -0.0804706 0
M  V30 4446 C 420.035 3.402 -0.460277 0
M  V30 4447 C 419.121 3.9548 -1.53155 0
M  V30 4448 N 419.512 4.24332 -2.75275 0
M  V30 4449 C 417.81 4.23572 -1.39653 0
M  V30 4450 C 418.511 4.68834 -3.44339 0
M  V30 4451 N 417.487 4.70804 -2.71744 0
M  V30 4452 H 421.289 2.29178 -1.83997 0
M  V30 4453 H 418.803 1.20094 -1.09322 0
M  V30 4454 H 420.8 4.16235 -0.235337 0
M  V30 4455 H 419.46 3.21408 0.4612 0
M  V30 4456 H 420.471 4.13393 -3.11973 0
M  V30 4457 H 417.148 4.14005 -0.539067 0
M  V30 4458 H 418.538 5.00019 -4.4881 0
M  V30 4459 N 421.258 1.00505 1.21394 0
M  V30 4460 C 422.507 0.683159 1.89778 0
M  V30 4461 C 422.82 -0.789471 1.7896 0
M  V30 4462 O 424.026 -1.22344 2.42372 0
M  V30 4463 C 422.482 1.17146 3.40301 0
M  V30 4464 C 422.09 2.67017 3.5973 0
M  V30 4465 C 423.834 0.924461 4.14311 0
M  V30 4466 C 421.741 3.09387 5.04017 0
M  V30 4467 H 420.671 0.25183 0.710702 0
M  V30 4468 H 423.322 1.21622 1.37406 0
M  V30 4469 H 421.704 0.566451 3.91928 0
M  V30 4470 H 422.878 3.32968 3.18542 0
M  V30 4471 H 421.193 2.89732 2.99073 0
M  V30 4472 H 423.79 1.21658 5.20676 0
M  V30 4473 H 424.133 -0.139286 4.16067 0
M  V30 4474 H 424.666 1.49226 3.6875 0
M  V30 4475 H 421.405 4.14989 5.07409 0
M  V30 4476 H 420.925 2.48149 5.46061 0
M  V30 4477 H 422.604 3.01371 5.72525 0
M  V30 4478 N 422.737 -1.36956 0.779787 0
M  V30 4479 C 423.984 -1.99491 0.347766 0
M  V30 4480 C 424.312 -1.61898 -1.07793 0
M  V30 4481 O 423.567 -0.86071 -1.75756 0
M  V30 4482 C 423.866 -3.54585 0.447686 0
M  V30 4483 C 423.532 -4.1197 1.83279 0
M  V30 4484 C 422.194 -4.27356 2.2118 0
M  V30 4485 C 424.546 -4.43354 2.74019 0
M  V30 4486 C 421.874 -4.71432 3.4924 0
M  V30 4487 C 424.226 -4.88858 4.01497 0
M  V30 4488 C 422.89 -5.0245 4.39432 0
M  V30 4489 H 422.16 -0.729991 0.127257 0
M  V30 4490 H 424.807 -1.63599 0.995376 0
M  V30 4491 H 423.112 -3.90773 -0.283447 0
M  V30 4492 H 424.809 -4.00888 0.0945948 0
M  V30 4493 H 421.399 -4.00428 1.52825 0
M  V30 4494 H 425.583 -4.31045 2.45995 0
M  V30 4495 H 420.839 -4.80141 3.78516 0
M  V30 4496 H 425.013 -5.12108 4.71931 0
M  V30 4497 H 422.64 -5.36362 5.38721 0
M  V30 4498 N 424.215 -0.530993 -1.48385 0
M  V30 4499 C 425.163 0.244595 -2.3131 0
M  V30 4500 C 426.157 0.93451 -1.41291 0
M  V30 4501 O 427.363 0.85878 -1.58193 0
M  V30 4502 H 423.738 0.0977472 -0.74562 0
M  V30 4503 H 425.709 -0.474369 -2.94605 0
M  V30 4504 C 424.458 1.2779 -3.23365 0
M  V30 4505 H 423.781 0.756439 -3.92579 0
M  V30 4506 H 425.221 1.79198 -3.84271 0
M  V30 4507 C 423.68 2.31205 -2.45042 0
M  V30 4508 O 424.21 3.37661 -2.17596 0
M  V30 4509 N 422.416 2.04446 -2.0652 0
M  V30 4510 H 421.963 1.17891 -2.2904 0
M  V30 4511 H 421.921 2.73861 -1.54427 0
M  V30 4512 N 425.693 1.55336 -0.266172 0
M  V30 4513 C 426.94 1.99397 0.353158 0
M  V30 4514 C 427.268 1.15451 1.56529 0
M  V30 4515 O 426.523 0.209974 1.9457 0
M  V30 4516 C 426.822 3.48606 0.787957 0
M  V30 4517 C 426.488 4.49773 -0.318541 0
M  V30 4518 C 425.15 4.77158 -0.62239 0
M  V30 4519 C 427.502 5.10212 -1.06459 0
M  V30 4520 C 424.83 5.62251 -1.67602 0
M  V30 4521 C 427.182 5.96449 -2.10788 0
M  V30 4522 C 425.846 6.22158 -2.41817 0
M  V30 4523 H 425.116 0.729644 0.12923 0
M  V30 4524 H 427.763 1.87732 -0.37802 0
M  V30 4525 H 426.068 3.57701 1.59866 0
M  V30 4526 H 427.765 3.80098 1.27775 0
M  V30 4527 H 424.355 4.2854 -0.0715925 0
M  V30 4528 H 428.539 4.89086 -0.843098 0
M  V30 4529 H 423.795 5.80419 -1.92155 0
M  V30 4530 H 427.969 6.42317 -2.69076 0
M  V30 4531 H 425.596 6.87888 -3.23596 0
M  V30 4532 N 427.171 -0.0066808 1.57599 0
M  V30 4533 C 428.118 -1.00024 2.08 0
M  V30 4534 C 429.088 -1.34549 0.973943 0
M  V30 4535 O 430.273 -1.44502 1.24595 0
M  V30 4536 C 427.413 -2.2891 2.58252 0
M  V30 4537 C 426.526 -2.00346 3.82734 0
M  V30 4538 C 425.661 -3.23265 4.21513 0
M  V30 4539 C 424.7 -2.90357 5.3885 0
M  V30 4540 N 423.837 -4.05793 5.72954 0
M  V30 4541 H 428.677 -0.563499 2.92624 0
M  V30 4542 H 426.214 -0.266592 1.44664 0
M  V30 4543 H 428.172 -3.04247 2.85464 0
M  V30 4544 H 426.802 -2.70265 1.76512 0
M  V30 4545 H 425.854 -1.15406 3.62471 0
M  V30 4546 H 427.166 -1.72086 4.68175 0
M  V30 4547 H 426.32 -4.06953 4.49971 0
M  V30 4548 H 425.059 -3.54657 3.34768 0
M  V30 4549 H 424.064 -2.05075 5.10122 0
M  V30 4550 H 425.289 -2.60219 6.27266 0
M  V30 4551 H 423.235 -4.37094 4.89167 0
M  V30 4552 H 423.152 -3.81034 6.52954 0
M  V30 4553 H 424.42 -4.90289 6.06001 0
M  V30 4554 N 428.649 -1.55105 -0.279332 0
M  V30 4555 C 429.581 -1.83952 -1.36727 0
M  V30 4556 C 430.594 -0.723642 -1.45833 0
M  V30 4557 O 431.783 -1.00141 -1.47763 0
M  V30 4558 C 428.883 -1.98183 -2.74912 0
M  V30 4559 C 428.056 -3.28787 -2.88475 0
M  V30 4560 C 427.115 -3.33162 -4.07295 0
M  V30 4561 O 426.141 -4.06576 -3.98353 0
M  V30 4562 N 427.343 -2.60109 -5.18964 0
M  V30 4563 H 430.108 -2.77853 -1.12328 0
M  V30 4564 H 427.669 -1.54945 -0.469442 0
M  V30 4565 H 429.661 -1.98488 -3.52682 0
M  V30 4566 H 428.231 -1.11177 -2.92162 0
M  V30 4567 H 427.451 -3.41075 -1.97641 0
M  V30 4568 H 428.739 -4.14933 -2.94463 0
M  V30 4569 H 428.137 -2.00136 -5.29115 0
M  V30 4570 H 426.694 -2.66143 -5.94988 0
M  V30 4571 N 430.127 0.543554 -1.4793 0
M  V30 4572 C 431.077 1.64527 -1.57844 0
M  V30 4573 C 432.061 1.54869 -0.436408 0
M  V30 4574 O 433.253 1.63119 -0.687101 0
M  V30 4575 C 430.382 3.03281 -1.6086 0
M  V30 4576 C 429.468 3.18093 -2.80495 0
M  V30 4577 N 429.859 3.02923 -4.05057 0
M  V30 4578 C 428.157 3.49121 -2.77543 0
M  V30 4579 C 428.858 3.20791 -4.85251 0
M  V30 4580 N 427.834 3.47749 -4.17818 0
M  V30 4581 H 431.636 1.51388 -2.5191 0
M  V30 4582 H 429.15 0.748671 -1.44113 0
M  V30 4583 H 431.147 3.82403 -1.66054 0
M  V30 4584 H 429.807 3.17521 -0.678996 0
M  V30 4585 H 430.818 2.79966 -4.35705 0
M  V30 4586 H 427.495 3.69804 -1.93781 0
M  V30 4587 H 428.885 3.13915 -5.9406 0
M  V30 4588 N 431.605 1.3629 0.791371 0
M  V30 4589 C 433.021 1.16661 1.08914 0
M  V30 4590 C 433.221 -0.0106266 2.01497 0
M  V30 4591 O 432.277 -0.676596 2.43266 0
M  V30 4592 C 433.59 2.47656 1.70549 0
M  V30 4593 C 435.138 2.54002 1.82899 0
M  V30 4594 C 435.613 3.85078 2.47949 0
M  V30 4595 N 437.104 3.86413 2.5542 0
M  V30 4596 C 437.839 4.84572 3.06557 0
M  V30 4597 N 437.335 5.93124 3.58016 0
M  V30 4598 N 439.128 4.71994 3.05251 0
M  V30 4599 H 431.279 2.11668 0.176238 0
M  V30 4600 H 433.542 0.937486 0.140796 0
M  V30 4601 H 433.248 3.34059 1.09989 0
M  V30 4602 H 433.122 2.63319 2.70079 0
M  V30 4603 H 435.509 1.68018 2.42598 0
M  V30 4604 H 435.59 2.42239 0.821808 0
M  V30 4605 H 435.234 4.71467 1.88895 0
M  V30 4606 H 435.164 3.94135 3.49235 0
M  V30 4607 H 437.655 3.07988 2.18979 0
M  V30 4608 H 437.968 6.63999 3.95381 0
M  V30 4609 H 436.313 5.96796 3.56173 0
M  V30 4610 H 439.504 3.86321 2.64336 0
M  V30 4611 H 439.677 5.48653 3.44796 0
M  V30 4612 N 433.083 -1.0153 1.20538 0
M  V30 4613 C 434.015 -2.10224 0.913155 0
M  V30 4614 C 435.028 -1.62495 -0.0995998 0
M  V30 4615 O 436.217 -1.78014 0.131582 0
M  V30 4616 C 433.317 -3.37111 0.347717 0
M  V30 4617 C 432.49 -4.13971 1.41233 0
M  V30 4618 C 431.549 -5.19158 0.857976 0
M  V30 4619 O 430.575 -5.48 1.53897 0
M  V30 4620 N 431.777 -5.7955 -0.331966 0
M  V30 4621 H 434.542 -2.35879 1.84881 0
M  V30 4622 H 432.103 -1.17931 1.10923 0
M  V30 4623 H 434.095 -4.04683 -0.0373026 0
M  V30 4624 H 432.665 -3.08696 -0.492527 0
M  V30 4625 H 431.885 -3.41351 1.97163 0
M  V30 4626 H 433.173 -4.62103 2.12928 0
M  V30 4627 H 432.571 -5.58455 -0.902478 0
M  V30 4628 H 431.128 -6.48464 -0.65861 0
M  V30 4629 N 434.561 -1.01147 -1.20859 0
M  V30 4630 C 435.972 -0.730205 -1.71828 0
M  V30 4631 C 436.323 0.751662 -1.8123 0
M  V30 4632 O 435.448 1.58686 -1.47132 0
M  V30 4633 C 436.043 -1.31885 -3.12077 0
M  V30 4634 C 434.602 -1.08656 -3.60376 0
M  V30 4635 C 433.749 -1.42769 -2.37723 0
M  V30 4636 H 436.7 -1.18158 -1.05945 0
M  V30 4637 H 436.721 -0.706793 -3.73878 0
M  V30 4638 H 436.233 -2.39737 -3.05201 0
M  V30 4639 H 434.334 -0.0254814 -3.72591 0
M  V30 4640 H 434.447 -1.76301 -4.45483 0
M  V30 4641 H 432.811 -0.846603 -2.40218 0
M  V30 4642 H 433.594 -2.51666 -2.33493 0
M  V30 4643 N 436.039 1.36541 -0.78704 0
M  V30 4644 C 436.971 2.28761 -0.141773 0
M  V30 4645 C 437.984 1.49365 0.647599 0
M  V30 4646 O 439.173 1.71836 0.483173 0
M  V30 4647 C 436.273 3.28771 0.822368 0
M  V30 4648 C 435.446 4.3732 0.0835594 0
M  V30 4649 C 434.505 5.17307 0.963296 0
M  V30 4650 O 433.531 5.67638 0.421419 0
M  V30 4651 N 434.733 5.33515 2.28784 0
M  V30 4652 H 437.498 2.84777 -0.933919 0
M  V30 4653 H 435.059 1.48682 -0.640735 0
M  V30 4654 H 437.051 3.79169 1.41468 0
M  V30 4655 H 435.621 2.73412 1.5154 0
M  V30 4656 H 434.841 3.88118 -0.689809 0
M  V30 4657 H 436.129 5.0701 -0.426358 0
M  V30 4658 H 435.527 4.94234 2.75226 0
M  V30 4659 H 434.084 5.87165 2.82985 0
M  V30 4660 N 437.518 0.538854 1.48102 0
M  V30 4661 C 438.468 -0.23907 2.26743 0
M  V30 4662 C 439.452 -0.901923 1.33245 0
M  V30 4663 O 440.644 -0.803263 1.57723 0
M  V30 4664 C 437.773 -1.2799 3.18549 0
M  V30 4665 C 436.859 -0.621388 4.19523 0
M  V30 4666 N 437.25 0.298004 5.04921 0
M  V30 4667 C 435.548 -0.877533 4.37282 0
M  V30 4668 C 436.249 0.678757 5.77726 0
M  V30 4669 N 435.225 0.0377881 5.43587 0
M  V30 4670 H 439.027 0.468096 2.90148 0
M  V30 4671 H 436.541 0.357497 1.58416 0
M  V30 4672 H 438.538 -1.851 3.73555 0
M  V30 4673 H 437.198 -1.98835 2.567 0
M  V30 4674 H 438.209 0.671126 5.13533 0
M  V30 4675 H 434.886 -1.57588 3.86616 0
M  V30 4676 H 436.276 1.43316 6.56437 0
M  V30 4677 N 438.996 -1.55193 0.274407 0
M  V30 4678 C 440.226 -2.03692 -0.345442 0
M  V30 4679 C 440.634 -1.15224 -1.50067 0
M  V30 4680 O 439.977 -0.164749 -1.8296 0
M  V30 4681 C 440.039 -3.48325 -0.88939 0
M  V30 4682 C 439.703 -4.56794 0.137115 0
M  V30 4683 C 440.7 -5.11028 0.956378 0
M  V30 4684 C 438.385 -5.01568 0.27115 0
M  V30 4685 C 440.379 -6.08552 1.89587 0
M  V30 4686 C 438.066 -5.98918 1.21412 0
M  V30 4687 C 439.064 -6.52291 2.02498 0
M  V30 4688 O 438.752 -7.47738 2.952 0
M  V30 4689 H 438.484 -0.670893 -0.0829332 0
M  V30 4690 H 441.038 -2.01387 0.404056 0
M  V30 4691 H 439.268 -3.47867 -1.68895 0
M  V30 4692 H 440.957 -3.80167 -1.42225 0
M  V30 4693 H 441.723 -4.7725 0.863559 0
M  V30 4694 H 437.602 -4.5967 -0.349987 0
M  V30 4695 H 441.146 -6.50137 2.52918 0
M  V30 4696 H 437.043 -6.32114 1.30776 0
M  V30 4697 H 437.811 -7.65451 2.89874 0
M  V30 4698 N 440.474 -0.00167713 -1.576 0
M  V30 4699 C 441.722 0.681471 -1.90264 0
M  V30 4700 C 442.043 1.7422 -0.875924 0
M  V30 4701 O 441.313 1.95709 0.0864412 0
M  V30 4702 H 439.893 0.254696 -0.702239 0
M  V30 4703 H 442.555 -0.0429996 -1.94853 0
M  V30 4704 H 441.651 1.15166 -2.90075 0
M  V30 4705 N 441.952 1.55251 0.271103 0
M  V30 4706 C 442.882 1.9127 1.33933 0
M  V30 4707 C 443.863 0.77478 1.5143 0
M  V30 4708 O 445.048 1.03307 1.64442 0
M  V30 4709 C 442.178 2.18627 2.69851 0
M  V30 4710 C 441.132 3.34442 2.67081 0
M  V30 4711 C 440.458 3.47284 4.06569 0
M  V30 4712 C 441.758 4.70784 2.26185 0
M  V30 4713 H 443.452 2.80744 1.04035 0
M  V30 4714 H 440.998 1.35077 0.499017 0
M  V30 4715 H 442.951 2.42413 3.44694 0
M  V30 4716 H 441.675 1.25955 3.01335 0
M  V30 4717 H 440.334 3.10627 1.94695 0
M  V30 4718 H 439.982 2.52074 4.35279 0
M  V30 4719 H 439.682 4.25152 4.0561 0
M  V30 4720 H 441.206 3.73363 4.83148 0
M  V30 4721 H 442.62 4.94102 2.90751 0
M  V30 4722 H 441.017 5.51582 2.36384 0
M  V30 4723 H 442.087 4.69478 1.21319 0
M  V30 4724 N 443.43 -0.535701 1.48216 0
M  V30 4725 C 444.679 -1.28828 1.55197 0
M  V30 4726 C 444.992 -1.94263 0.228278 0
M  V30 4727 O 446.198 -2.70927 0.176278 0
M  V30 4728 C 444.654 -2.33727 2.73678 0
M  V30 4729 C 444.262 -1.74386 4.12666 0
M  V30 4730 C 446.006 -3.1003 2.89968 0
M  V30 4731 C 443.913 -2.77192 5.22416 0
M  V30 4732 H 442.843 -0.484484 0.577747 0
M  V30 4733 H 445.494 -0.56646 1.74538 0
M  V30 4734 H 443.876 -3.08919 2.4776 0
M  V30 4735 H 445.05 -1.05421 4.48579 0
M  V30 4736 H 443.365 -1.10595 4.01445 0
M  V30 4737 H 445.962 -3.86842 3.6913 0
M  V30 4738 H 446.305 -3.65542 1.9921 0
M  V30 4739 H 446.838 -2.41952 3.15759 0
M  V30 4740 H 443.577 -2.26507 6.15122 0
M  V30 4741 H 443.097 -3.44502 4.90998 0
M  V30 4742 H 444.776 -3.40285 5.50286 0
M  V30 4743 N 444.908 -1.36708 -0.784132 0
M  V30 4744 C 445.871 -1.31307 -1.87859 0
M  V30 4745 C 446.871 -0.219654 -1.59293 0
M  V30 4746 O 448.061 -0.47476 -1.67606 0
M  V30 4747 C 445.193 -1.03679 -3.24751 0
M  V30 4748 H 446.386 -2.28647 -1.94064 0
M  V30 4749 H 443.939 -1.21558 -0.98252 0
M  V30 4750 H 444.674 -0.0681936 -3.24228 0
M  V30 4751 H 444.459 -1.82811 -3.46876 0
M  V30 4752 H 445.949 -1.02518 -4.04821 0
M  V30 4753 N 446.386 1.0089 -1.21074 0
M  V30 4754 C 447.296 2.13039 -0.982425 0
M  V30 4755 C 448.312 1.73881 0.0642161 0
M  V30 4756 O 449.488 2.01012 -0.12496 0
M  V30 4757 C 446.553 3.42377 -0.545803 0
M  V30 4758 C 445.614 3.95731 -1.6642 0
M  V30 4759 C 444.847 5.18896 -1.24832 0
M  V30 4760 O 445.07 5.70273 -0.120265 0
M  V30 4761 O 444.004 5.65597 -2.05873 0
M  V30 4762 H 447.83 2.35175 -1.92163 0
M  V30 4763 H 445.415 1.1142 -0.995285 0
M  V30 4764 H 447.297 4.20244 -0.311912 0
M  V30 4765 H 445.972 3.21639 0.364727 0
M  V30 4766 H 444.879 3.19108 -1.95246 0
M  V30 4767 H 446.212 4.20872 -2.55201 0
M  V30 4768 N 447.864 1.01787 1.20321 0
M  V30 4769 C 448.794 0.609625 2.25401 0
M  V30 4770 C 449.775 -0.375951 1.65893 0
M  V30 4771 O 450.96 -0.261101 1.92437 0
M  V30 4772 C 448.09 -0.0515995 3.47262 0
M  V30 4773 C 447.044 0.855095 4.19371 0
M  V30 4774 C 446.37 0.0595757 5.34667 0
M  V30 4775 C 447.67 2.16374 4.75373 0
M  V30 4776 H 449.364 1.48803 2.59804 0
M  V30 4777 H 446.91 0.716934 1.24884 0
M  V30 4778 H 448.863 -0.348764 4.19954 0
M  V30 4779 H 447.587 -0.964726 3.12027 0
M  V30 4780 H 446.246 1.13628 3.48546 0
M  V30 4781 H 445.894 -0.85524 4.95676 0
M  V30 4782 H 445.594 0.663406 5.83843 0
M  V30 4783 H 447.118 -0.231105 6.10162 0
M  V30 4784 H 448.532 1.92885 5.39878 0
M  V30 4785 H 446.929 2.71853 5.34991 0
M  V30 4786 H 447.999 2.82589 3.94045 0
M  V30 4787 O 449.381 -1.32008 0.930387 0
M  V30 4788 H 450.072 -1.85615 0.553775 0
M  V30 END ATOM
M  V30 BEGIN BOND
M  V30 END BOND
M  V30 END CTAB
M  END
$$$$
