drugbank_target|Q9BY66 Lysine-specific demethylase 5D (DB00126)
 OpenBabel12092120073D

  0  0  0     0  0            999 V3000
M  V30 BEGIN CTAB
M  V30 COUNTS 24330 24599 0 0 0
M  V30 BEGIN ATOM
M  V30 1 H -0.908 1.98254 -0.117106 0
M  V30 2 N 0 1.576 0 0
M  V30 3 C 0.933 2.03868 1.02534 0
M  V30 4 C 1.911 0.928543 1.3348 0
M  V30 5 O 3.095 1.19667 1.45644 0
M  V30 6 C 0.222 2.43627 2.35294 0
M  V30 7 C -0.732 3.65373 2.2001 0
M  V30 8 S 0.101 5.13292 1.52614 0
M  V30 9 C 1.257 5.56322 2.86805 0
M  V30 10 H 1.49 2.90518 0.631377 0
M  V30 11 H -0.977 1.52953 0.210867 0
M  V30 12 H 0.981 2.67203 3.11629 0
M  V30 13 H -0.358 1.57376 2.7183 0
M  V30 14 H -1.165 3.90944 3.18086 0
M  V30 15 H -1.563 3.418 1.51819 0
M  V30 16 H 0.729 5.58782 3.83104 0
M  V30 17 H 1.672 6.56266 2.65933 0
M  V30 18 H 2.08 4.83886 2.90714 0
M  V30 19 N 1.4781 -0.272755 1.55222 0
M  V30 20 C 2.3881 -1.35918 1.91216 0
M  V30 21 C 3.4041 -1.54026 0.809436 0
M  V30 22 O 4.5801 -1.68148 1.10852 0
M  V30 23 C 1.6451 -2.69834 2.17693 0
M  V30 24 C 0.7061 -2.6047 3.41253 0
M  V30 25 C -0.0609 -3.88 3.66458 0
M  V30 26 O 0.1621 -4.88693 2.94169 0
M  V30 27 O -0.9039 -3.88189 4.59992 0
M  V30 28 H 2.9221 -1.0839 2.83699 0
M  V30 29 H 0.5071 -0.471301 1.41771 0
M  V30 30 H 2.3891 -3.49017 2.36147 0
M  V30 31 H 1.0641 -2.97148 1.28392 0
M  V30 32 H -0.0289 -1.79663 3.28134 0
M  V30 33 H 1.3041 -2.38106 4.30774 0
M  V30 34 N 2.9562 -1.48159 -0.537278 0
M  V30 35 C 4.3672 -1.49429 -1.11928 0
M  V30 36 C 4.7182 -0.26 -1.9447 0
M  V30 37 O 3.8432 0.633489 -2.0692 0
M  V30 38 C 4.4382 -2.70758 -2.03656 0
M  V30 39 C 2.9972 -2.74923 -2.57088 0
M  V30 40 C 2.1442 -2.42835 -1.3389 0
M  V30 41 H 5.0952 -1.55381 -0.322886 0
M  V30 42 H 5.1162 -2.48861 -2.87834 0
M  V30 43 H 4.6282 -3.60575 -1.43553 0
M  V30 44 H 2.7292 -1.89296 -3.20933 0
M  V30 45 H 2.8422 -3.76157 -2.9672 0
M  V30 46 H 1.2062 -1.93836 -1.65226 0
M  V30 47 H 1.9892 -3.34884 -0.755504 0
M  V30 48 N 4.4343 0.785586 -1.36625 0
M  V30 49 C 5.6823 1.54057 -1.30808 0
M  V30 50 C 6.0033 1.94683 0.111157 0
M  V30 51 O 5.2733 1.65241 1.05224 0
M  V30 52 H 3.8533 0.571354 -0.481211 0
M  V30 53 H 6.5153 0.935821 -1.70963 0
M  V30 54 H 5.6113 2.44637 -1.93801 0
M  V30 55 N 5.9124 1.20967 1.01018 0
M  V30 56 C 7.1524 1.03511 1.76252 0
M  V30 57 C 7.5164 -0.42458 1.87247 0
M  V30 58 O 8.7174 -0.719508 2.58991 0
M  V30 59 C 6.9884 1.70726 3.13986 0
M  V30 60 S 8.5474 1.68458 4.05176 0
M  V30 61 H 5.3654 0.371037 0.606508 0
M  V30 62 H 7.9674 1.53628 1.20908 0
M  V30 63 H 6.6714 2.76128 3.03614 0
M  V30 64 H 6.2024 1.20767 3.74405 0
M  V30 65 H 8.2174 0.721987 4.90919 0
M  V30 66 N 7.3905 -1.2043 1.01659 0
M  V30 67 C 8.6675 -1.8548 0.621004 0
M  V30 68 C 9.0475 -1.9091 -0.900919 0
M  V30 69 O 8.3955 -1.41694 -1.79263 0
M  V30 70 C 8.6055 -3.25119 1.2688 0
M  V30 71 C 9.9535 -4.01403 1.38423 0
M  V30 72 O 10.9775 -3.34473 1.22501 0
M  V30 73 O 9.8365 -5.21265 1.64151 0
M  V30 74 H 6.9305 -0.798761 0.214266 0
M  V30 75 H 9.4765 -1.28019 1.11396 0
M  V30 76 H 8.2485 -3.15932 2.30873 0
M  V30 77 H 7.8715 -3.90212 0.762917 0
M  V30 78 N 8.8686 -0.792821 -1.36206 0
M  V30 79 C 9.7786 -0.194808 -2.3379 0
M  V30 80 C 10.7946 0.654869 -1.61206 0
M  V30 81 O 11.9706 0.569856 -1.9317 0
M  V30 82 C 9.0356 0.657721 -3.40404 0
M  V30 83 C 8.0966 -0.210849 -4.28782 0
M  V30 84 C 7.3296 0.601086 -5.30304 0
M  V30 85 O 7.5526 1.83682 -5.40016 0
M  V30 86 O 6.4866 -0.000808277 -6.019 0
M  V30 87 H 10.3126 -1.00172 -2.86704 0
M  V30 88 H 7.8976 -0.554341 -1.38735 0
M  V30 89 H 9.7796 1.14375 -4.05581 0
M  V30 90 H 8.4546 1.44247 -2.89784 0
M  V30 91 H 7.3616 -0.743714 -3.66633 0
M  V30 92 H 8.6946 -0.959195 -4.82763 0
M  V30 93 N 10.3467 1.47872 -0.545128 0
M  V30 94 C 11.5937 2.02493 -0.0165858 0
M  V30 95 C 11.9217 1.42073 1.32836 0
M  V30 96 O 11.1767 0.561459 1.87473 0
M  V30 97 C 11.4757 3.57131 0.13867 0
M  V30 98 C 11.1417 4.36411 -1.13384 0
M  V30 99 C 9.8037 4.57792 -1.48256 0
M  V30 100 C 12.1557 4.82223 -1.97764 0
M  V30 101 C 9.4837 5.22233 -2.67376 0
M  V30 102 C 11.8357 5.47977 -3.16076 0
M  V30 103 C 10.4997 5.67593 -3.51275 0
M  V30 104 H 9.7697 0.740975 -0.00606918 0
M  V30 105 H 12.4167 1.77683 -0.714207 0
M  V30 106 H 10.7217 3.80865 0.919172 0
M  V30 107 H 12.4187 3.97031 0.562782 0
M  V30 108 H 9.0087 4.2004 -0.852297 0
M  V30 109 H 13.1927 4.65493 -1.72132 0
M  V30 110 H 8.4487 5.35616 -2.94831 0
M  V30 111 H 12.6227 5.8244 -3.81755 0
M  V30 112 H 10.2497 6.17298 -4.43675 0
M  V30 113 N 11.8248 0.280983 1.55075 0
M  V30 114 C 12.7548 -0.597469 2.25727 0
M  V30 115 C 13.7358 -1.15417 1.24952 0
M  V30 116 O 14.9208 -1.18722 1.53684 0
M  V30 117 C 12.0508 -1.7789 2.98283 0
M  V30 118 C 11.0048 -1.35347 4.06036 0
M  V30 119 C 10.3308 -2.61846 4.66198 0
M  V30 120 C 11.6308 -0.499354 5.19907 0
M  V30 121 H 13.3248 -0.00824265 2.99399 0
M  V30 122 H 10.8708 -0.0025244 1.44 0
M  V30 123 H 12.8238 -2.39937 3.46422 0
M  V30 124 H 11.5478 -2.39405 2.22155 0
M  V30 125 H 10.2068 -0.756156 3.58717 0
M  V30 126 H 9.8548 -3.21632 3.86732 0
M  V30 127 H 9.5548 -2.3409 5.38958 0
M  V30 128 H 11.0788 -3.24732 5.1709 0
M  V30 129 H 12.4928 -1.02498 5.64063 0
M  V30 130 H 10.8898 -0.316424 5.99265 0
M  V30 131 H 11.9598 0.480459 4.82514 0
M  V30 132 N 13.3029 -1.57598 0.00835791 0
M  V30 133 C 14.7139 -1.7892 -0.53333 0
M  V30 134 C 15.0649 -0.916609 -1.73473 0
M  V30 135 O 14.1899 -0.121336 -2.1606 0
M  V30 136 C 14.7849 -3.24488 -0.974313 0
M  V30 137 C 13.3439 -3.46878 -1.46125 0
M  V30 138 C 12.4909 -2.74157 -0.416302 0
M  V30 139 H 15.4419 -1.56958 0.234495 0
M  V30 140 H 15.4629 -3.3306 -1.83988 0
M  V30 141 H 14.9749 -3.87972 -0.099718 0
M  V30 142 H 13.0759 -2.8862 -2.35646 0
M  V30 143 H 13.1889 -4.55572 -1.48295 0
M  V30 144 H 11.5529 -2.39022 -0.87981 0
M  V30 145 H 12.3359 -3.40345 0.44947 0
M  V30 146 N 14.781 0.264519 -1.55364 0
M  V30 147 C 16.192 0.834936 -1.6699 0
M  V30 148 C 16.543 1.86718 -0.602552 0
M  V30 149 O 15.668 2.14899 0.254425 0
M  V30 150 C 16.263 1.5212 -3.02729 0
M  V30 151 C 14.822 2.03954 -3.16354 0
M  V30 152 C 13.969 0.884498 -2.62815 0
M  V30 153 H 16.92 0.0406869 -1.58648 0
M  V30 154 H 16.941 2.38853 -2.96191 0
M  V30 155 H 16.453 0.769668 -3.80392 0
M  V30 156 H 14.554 2.82041 -2.43482 0
M  V30 157 H 14.667 2.24902 -4.23032 0
M  V30 158 H 13.031 1.2802 -2.20188 0
M  V30 159 H 13.814 0.14634 -3.42988 0
M  V30 160 N 16.2591 1.48442 0.529413 0
M  V30 161 C 17.6701 1.5002 1.11134 0
M  V30 162 C 18.0211 0.27031 1.94329 0
M  V30 163 O 17.1461 -0.622507 2.07253 0
M  V30 164 C 17.7411 2.71834 2.02217 0
M  V30 165 C 16.3001 2.76283 2.55627 0
M  V30 166 C 15.4471 2.43542 1.326 0
M  V30 167 H 18.3981 1.5555 0.314641 0
M  V30 168 H 18.4191 2.50384 2.8651 0
M  V30 169 H 17.9311 3.61331 1.41639 0
M  V30 170 H 16.0321 1.90995 3.19924 0
M  V30 171 H 16.1451 3.77725 2.94721 0
M  V30 172 H 14.5091 1.94709 1.64196 0
M  V30 173 H 15.2921 3.3528 0.737734 0
M  V30 174 N 17.7372 -0.778329 1.37039 0
M  V30 175 C 18.6472 -1.92253 1.34446 0
M  V30 176 C 19.6632 -1.72267 0.244991 0
M  V30 177 O 20.8392 -1.95615 0.479258 0
M  V30 178 C 17.9042 -3.27282 1.144 0
M  V30 179 C 16.9652 -3.59969 2.33925 0
M  V30 180 C 16.1982 -4.88555 2.14825 0
M  V30 181 O 16.4212 -5.59113 1.12912 0
M  V30 182 O 15.3552 -5.20153 3.02861 0
M  V30 183 H 19.1812 -1.97392 2.30803 0
M  V30 184 H 16.7662 -0.920154 1.17701 0
M  V30 185 H 18.6482 -4.08062 1.05182 0
M  V30 186 H 17.3232 -3.23011 0.211124 0
M  V30 187 H 16.2302 -2.7945 2.48714 0
M  V30 188 H 17.5632 -3.68976 3.25757 0
M  V30 189 N 19.2153 -1.21501 -1.00376 0
M  V30 190 C 20.4553 -1.04444 -1.75701 0
M  V30 191 C 20.8193 0.414644 -1.87469 0
M  V30 192 O 22.0203 0.705763 -2.59369 0
M  V30 193 C 20.2913 -1.72389 -3.13077 0
M  V30 194 S 21.8503 -1.70604 -4.04277 0
M  V30 195 H 18.6683 -0.374249 -0.604532 0
M  V30 196 H 21.2703 -1.54267 -1.20091 0
M  V30 197 H 19.9743 -2.77734 -3.02146 0
M  V30 198 H 19.5053 -1.22751 -3.73759 0
M  V30 199 H 21.5203 -0.748012 -4.9053 0
M  V30 200 N 20.6934 1.19889 -1.02296 0
M  V30 201 C 22.1044 1.71124 -0.746568 0
M  V30 202 C 22.4554 1.81939 0.734335 0
M  V30 203 O 21.5804 1.48639 1.57275 0
M  V30 204 C 22.1754 3.10804 -1.34857 0
M  V30 205 C 20.7344 3.59323 -1.1209 0
M  V30 206 C 19.8814 2.3635 -1.45031 0
M  V30 207 H 22.8324 1.04813 -1.19163 0
M  V30 208 H 22.8534 3.73186 -0.742437 0
M  V30 209 H 22.3654 3.029 -2.42638 0
M  V30 210 H 20.4664 3.7255 -0.0610337 0
M  V30 211 H 20.5794 4.4378 -1.80544 0
M  V30 212 H 18.9434 2.39399 -0.869487 0
M  V30 213 H 19.7264 2.31081 -2.53883 0
M  V30 214 N 22.1715 0.800033 1.35784 0
M  V30 215 C 23.4175 0.377901 1.99248 0
M  V30 216 C 23.7505 -1.05052 1.63333 0
M  V30 217 O 23.0255 -1.72768 0.893385 0
M  V30 218 C 23.3085 0.553922 3.55814 0
M  V30 219 C 23.1615 2.0268 4.01548 0
M  V30 220 C 24.4805 -0.0244802 4.40093 0
M  V30 221 H 21.5995 0.138782 0.723815 0
M  V30 222 H 24.2415 1.00835 1.61035 0
M  V30 223 H 22.3915 0.0172398 3.88496 0
M  V30 224 H 24.0635 2.62536 3.79305 0
M  V30 225 H 22.3065 2.5256 3.52698 0
M  V30 226 H 22.9775 2.10087 5.10458 0
M  V30 227 H 25.4535 0.433775 4.13833 0
M  V30 228 H 24.3295 0.128637 5.48749 0
M  V30 229 H 24.5905 -1.11758 4.27741 0
M  V30 230 N 23.6496 -1.47581 0.552962 0
M  V30 231 C 24.8966 -2.02482 0.0273243 0
M  V30 232 C 25.2246 -1.42776 -1.32081 0
M  V30 233 O 24.4796 -0.571393 -1.87173 0
M  V30 234 C 24.7786 -3.57199 -0.119728 0
M  V30 235 C 24.4446 -4.35804 1.15697 0
M  V30 236 C 23.1066 -4.57 1.50681 0
M  V30 237 C 25.4586 -4.81167 2.00319 0
M  V30 238 C 22.7866 -5.20807 2.70142 0
M  V30 239 C 25.1386 -5.46293 3.18978 0
M  V30 240 C 23.8026 -5.65722 3.54281 0
M  V30 241 H 23.0726 -0.740933 0.00999866 0
M  V30 242 H 25.7196 -1.77302 0.72362 0
M  V30 243 H 24.0246 -3.81348 -0.89896 0
M  V30 244 H 25.7216 -3.97324 -0.541718 0
M  V30 245 H 22.3116 -4.19582 0.874561 0
M  V30 246 H 26.4956 -4.64574 1.74599 0
M  V30 247 H 21.7516 -5.34045 2.97668 0
M  V30 248 H 25.9256 -5.80407 3.84838 0
M  V30 249 H 23.5526 -6.14936 4.46942 0
M  V30 250 N 25.1277 -0.289203 -1.54924 0
M  V30 251 C 26.0377 0.601863 -2.26748 0
M  V30 252 C 27.0537 1.15834 -1.2984 0
M  V30 253 O 28.2297 1.18564 -1.62802 0
M  V30 254 C 25.2947 1.76299 -2.98529 0
M  V30 255 C 24.3557 1.24178 -4.10948 0
M  V30 256 C 23.5887 2.34757 -4.79296 0
M  V30 257 O 23.8117 3.54411 -4.46933 0
M  V30 258 O 22.7457 2.02115 -5.66951 0
M  V30 259 H 26.5717 0.0195879 -3.03694 0
M  V30 260 H 24.1567 -0.0560868 -1.49295 0
M  V30 261 H 26.0387 2.43973 -3.43592 0
M  V30 262 H 24.7137 2.33209 -2.24488 0
M  V30 263 H 23.6207 0.531104 -3.70311 0
M  V30 264 H 24.9537 0.718252 -4.86931 0
M  V30 265 N 26.6058 1.57591 -0.0167156 0
M  V30 266 C 28.0168 1.79201 0.523834 0
M  V30 267 C 28.3678 0.925796 1.72984 0
M  V30 268 O 27.4928 0.132792 2.15992 0
M  V30 269 C 28.0878 3.25 0.957091 0
M  V30 270 C 26.6468 3.47648 1.44283 0
M  V30 271 C 25.7938 2.74374 0.401757 0
M  V30 272 H 28.7448 1.56831 -0.242816 0
M  V30 273 H 28.7658 3.34031 1.82219 0
M  V30 274 H 28.2778 3.88019 0.0791415 0
M  V30 275 H 26.3788 2.89866 2.34113 0
M  V30 276 H 26.4918 4.56352 1.45877 0
M  V30 277 H 24.8558 2.39485 0.867121 0
M  V30 278 H 25.6388 3.40102 -0.467513 0
M  V30 279 N 28.0839 -0.256276 1.55502 0
M  V30 280 C 29.3089 -1.00766 1.81276 0
M  V30 281 C 29.7339 -1.78524 0.59252 0
M  V30 282 O 29.0919 -1.75413 -0.45827 0
M  V30 283 C 29.1399 -1.92869 3.04687 0
M  V30 284 O 28.2439 -3.019 2.80945 0
M  V30 285 H 27.5849 -0.287224 0.598664 0
M  V30 286 H 30.1149 -0.280109 2.02674 0
M  V30 287 H 30.1249 -2.34511 3.33869 0
M  V30 288 H 28.7999 -1.35689 3.93143 0
M  V30 289 H 27.3769 -2.64454 2.62904 0
M  V30 290 N 29.562 -1.4872 -0.521534 0
M  V30 291 C 30.808 -1.58378 -1.27624 0
M  V30 292 C 31.163 -0.258028 -1.90662 0
M  V30 293 O 30.456 0.739917 -1.76736 0
M  V30 294 C 30.65 -2.66497 -2.38148 0
M  V30 295 C 30.479 -4.09456 -1.85945 0
M  V30 296 C 29.249 -4.76495 -1.68168 0
M  V30 297 C 31.447 -4.95353 -1.3831 0
M  V30 298 N 29.429 -6.0384 -1.1068 0
M  V30 299 C 30.8 -6.13012 -0.928238 0
M  V30 300 C 32.855 -4.81512 -1.26692 0
M  V30 301 C 31.558 -7.18354 -0.368701 0
M  V30 302 C 33.584 -5.86984 -0.721368 0
M  V30 303 C 32.946 -7.03857 -0.276623 0
M  V30 304 H 29.045 -0.634045 -0.457724 0
M  V30 305 H 31.629 -1.85639 -0.587049 0
M  V30 306 H 29.8 -2.41043 -3.04553 0
M  V30 307 H 31.532 -2.65791 -3.05184 0
M  V30 308 H 28.287 -4.32962 -1.91939 0
M  V30 309 H 28.711 -6.71778 -0.839217 0
M  V30 310 H 33.353 -3.91487 -1.5968 0
M  V30 311 H 31.071 -8.08096 -0.0265122 0
M  V30 312 H 34.657 -5.78329 -0.634531 0
M  V30 313 H 33.537 -7.84077 0.138947 0
M  V30 314 N 31.0401 0.771051 -1.3745 0
M  V30 315 C 32.0031 1.86598 -1.33093 0
M  V30 316 C 33.0031 1.59076 -0.234845 0
M  V30 317 O 34.1931 1.67145 -0.490732 0
M  V30 318 C 31.3251 3.23747 -1.06773 0
M  V30 319 H 32.5181 1.91873 -2.30488 0
M  V30 320 H 30.0711 0.970876 -1.2249 0
M  V30 321 H 30.8061 3.24148 -0.099129 0
M  V30 322 H 30.5911 3.45115 -1.86112 0
M  V30 323 H 32.0811 4.03824 -1.06377 0
M  V30 324 N 32.5182 1.22032 0.997298 0
M  V30 325 C 33.4282 1.00271 2.12092 0
M  V30 326 C 34.4442 -0.047621 1.73935 0
M  V30 327 O 35.6202 0.144136 2.00884 0
M  V30 328 C 32.6852 0.578449 3.4184 0
M  V30 329 C 31.7462 1.70189 3.94125 0
M  V30 330 C 30.9792 1.29778 5.17681 0
M  V30 331 O 31.2022 0.174676 5.70132 0
M  V30 332 O 30.1362 2.11261 5.63607 0
M  V30 333 H 33.9622 1.94398 2.3333 0
M  V30 334 H 31.5472 1.00587 1.10465 0
M  V30 335 H 33.4292 0.351998 4.19927 0
M  V30 336 H 32.1042 -0.334019 3.21972 0
M  V30 337 H 31.0112 1.98282 3.1723 0
M  V30 338 H 32.3442 2.59206 4.18417 0
M  V30 339 N 33.9963 -1.19345 1.0293 0
M  V30 340 C 35.2433 -1.89038 0.726008 0
M  V30 341 C 35.5713 -1.79649 -0.745427 0
M  V30 342 O 34.8263 -1.18354 -1.55855 0
M  V30 343 C 35.1253 -3.39292 1.12319 0
M  V30 344 C 34.7913 -3.68885 2.59297 0
M  V30 345 C 33.4533 -3.76671 2.99453 0
M  V30 346 C 35.8053 -3.82178 3.54386 0
M  V30 347 C 33.1333 -3.9522 4.33611 0
M  V30 348 C 35.4853 -4.0224 4.88248 0
M  V30 349 C 34.1493 -4.08259 5.28092 0
M  V30 350 H 33.4193 -0.691739 0.265665 0
M  V30 351 H 36.0663 -1.41328 1.29223 0
M  V30 352 H 34.3713 -3.88903 0.475584 0
M  V30 353 H 36.0683 -3.91536 0.866037 0
M  V30 354 H 32.6583 -3.63433 2.27189 0
M  V30 355 H 36.8423 -3.75505 3.24514 0
M  V30 356 H 32.0983 -3.98119 4.64016 0
M  V30 357 H 36.2723 -4.11468 5.61843 0
M  V30 358 H 33.8993 -4.22384 6.32057 0
M  V30 359 N 35.4744 -0.807222 -1.35358 0
M  V30 360 C 36.4064 -0.175717 -2.28525 0
M  V30 361 C 37.4194 0.625354 -1.5031 0
M  V30 362 O 38.6084 0.457611 -1.72535 0
M  V30 363 C 35.7084 0.773471 -3.29956 0
M  V30 364 C 34.8814 0.0186296 -4.37396 0
M  V30 365 C 33.9404 0.886395 -5.18681 0
M  V30 366 O 32.9664 0.337106 -5.68201 0
M  V30 367 N 34.1684 2.20839 -5.36852 0
M  V30 368 H 36.9334 -0.976091 -2.83359 0
M  V30 369 H 34.4944 -0.662737 -1.47714 0
M  V30 370 H 36.4864 1.35824 -3.81227 0
M  V30 371 H 35.0564 1.47465 -2.75632 0
M  V30 372 H 34.2764 -0.747349 -3.87051 0
M  V30 373 H 35.5644 -0.501577 -5.06322 0
M  V30 374 H 34.9624 2.67858 -4.98265 0
M  V30 375 H 33.5194 2.74237 -5.91301 0
M  V30 376 N 36.9525 1.47285 -0.560781 0
M  V30 377 C 38.2295 1.9558 0.0277798 0
M  V30 378 C 38.6095 1.5034 1.48192 0
M  V30 379 O 37.9575 0.743882 2.16052 0
M  V30 380 C 38.1675 3.48789 -0.121418 0
M  V30 381 C 39.5155 4.24594 0.0220912 0
M  V30 382 O 40.5395 3.56166 -0.0491439 0
M  V30 383 O 39.3985 5.46217 0.175958 0
M  V30 384 H 36.4925 0.824663 0.0621342 0
M  V30 385 H 39.0385 1.5767 -0.627556 0
M  V30 386 H 37.8105 3.74533 -1.13316 0
M  V30 387 H 37.4335 3.93473 0.571366 0
M  V30 388 N 38.4306 0.297415 1.54768 0
M  V30 389 C 39.8416 -0.195947 1.85669 0
M  V30 390 C 40.1926 -1.53707 1.21937 0
M  V30 391 O 39.3176 -2.10164 0.515754 0
M  V30 392 C 39.9126 -0.362318 3.36857 0
M  V30 393 C 38.4716 -0.799901 3.67802 0
M  V30 394 C 37.6186 0.0938578 2.77141 0
M  V30 395 H 40.5696 0.518538 1.4999 0
M  V30 396 H 40.5906 -1.19745 3.61167 0
M  V30 397 H 40.1026 0.613921 3.83214 0
M  V30 398 H 38.2036 -1.78682 3.26961 0
M  V30 399 H 38.3166 -0.621773 4.75048 0
M  V30 400 H 36.6806 -0.426254 2.51108 0
M  V30 401 H 37.4636 1.06639 3.26318 0
M  V30 402 N 39.9087 -1.5758 0.0250728 0
M  V30 403 C 40.8387 -2.13007 -0.956575 0
M  V30 404 C 41.8197 -1.0452 -1.342 0
M  V30 405 O 43.0047 -1.32332 -1.42133 0
M  V30 406 C 40.1347 -2.65386 -2.24026 0
M  V30 407 C 39.0887 -3.78623 -1.99571 0
M  V30 408 C 38.4147 -4.17414 -3.3417 0
M  V30 409 C 39.7147 -5.04867 -1.33814 0
M  V30 410 H 41.4087 -2.9528 -0.494991 0
M  V30 411 H 38.9547 -1.42042 -0.236651 0
M  V30 412 H 40.9077 -3.02794 -2.93076 0
M  V30 413 H 39.6317 -1.80268 -2.72343 0
M  V30 414 H 38.2907 -3.41646 -1.32941 0
M  V30 415 H 37.9387 -3.29284 -3.80238 0
M  V30 416 H 37.6387 -4.93719 -3.18615 0
M  V30 417 H 39.1627 -4.57402 -4.04495 0
M  V30 418 H 40.5767 -5.39888 -1.92857 0
M  V30 419 H 38.9737 -5.86144 -1.28669 0
M  V30 420 H 40.0437 -4.83904 -0.310561 0
M  V30 421 N 41.3868 0.248026 -1.55636 0
M  V30 422 C 42.6348 0.974295 -1.77065 0
M  V30 423 C 42.9558 1.85897 -0.588849 0
M  V30 424 O 42.2258 1.91868 0.395407 0
M  V30 425 H 40.8058 0.362733 -0.653019 0
M  V30 426 H 43.4678 0.266244 -1.93073 0
M  V30 427 H 42.5638 1.59667 -2.68166 0
M  V30 428 N 42.8649 1.48995 0.513639 0
M  V30 429 C 44.0949 1.61297 1.291 0
M  V30 430 C 44.5029 0.278656 1.87137 0
M  V30 431 O 43.8459 -0.744325 1.67945 0
M  V30 432 C 43.9079 2.61326 2.46879 0
M  V30 433 C 43.5719 4.05993 2.09807 0
M  V30 434 C 44.5689 4.93183 1.64519 0
M  V30 435 C 42.2539 4.51642 2.19829 0
M  V30 436 C 44.2479 6.24056 1.2974 0
M  V30 437 C 41.9349 5.82532 1.84662 0
M  V30 438 C 42.9329 6.68562 1.3969 0
M  V30 439 O 42.6209 7.97014 1.04992 0
M  V30 440 H 42.3529 0.546236 0.39825 0
M  V30 441 H 44.9069 1.95673 0.62459 0
M  V30 442 H 43.1369 2.22104 3.16554 0
M  V30 443 H 44.8259 2.6329 3.08923 0
M  V30 444 H 45.5919 4.59147 1.56233 0
M  V30 445 H 41.4709 3.84855 2.53786 0
M  V30 446 H 45.0149 6.91161 0.945659 0
M  V30 447 H 40.9119 6.16099 1.92594 0
M  V30 448 H 41.6799 8.09913 1.18249 0
M  V30 449 N 44.343 -0.763751 1.37857 0
M  V30 450 C 45.592 -1.51789 1.32827 0
M  V30 451 C 45.905 -1.95426 -0.0823719 0
M  V30 452 O 47.111 -2.70298 -0.255172 0
M  V30 453 C 45.567 -2.74133 2.33193 0
M  V30 454 C 45.175 -2.37562 3.79827 0
M  V30 455 C 46.919 -3.52054 2.37188 0
M  V30 456 C 44.826 -3.56456 4.71904 0
M  V30 457 H 43.756 -0.569896 0.493695 0
M  V30 458 H 46.407 -0.835822 1.63359 0
M  V30 459 H 44.789 -3.4427 1.9569 0
M  V30 460 H 45.963 -1.75157 4.26212 0
M  V30 461 H 44.278 -1.72798 3.78853 0
M  V30 462 H 46.875 -4.40437 3.03182 0
M  V30 463 H 47.218 -3.92486 1.38782 0
M  V30 464 H 47.751 -2.88921 2.7344 0
M  V30 465 H 44.49 -3.21099 5.71468 0
M  V30 466 H 44.01 -4.17938 4.30218 0
M  V30 467 H 45.689 -4.23168 4.89426 0
M  V30 468 N 45.8211 -1.22559 -0.990812 0
M  V30 469 C 46.7841 -0.998863 -2.0629 0
M  V30 470 C 47.7841 0.0354834 -1.60761 0
M  V30 471 O 48.9741 -0.203231 -1.7301 0
M  V30 472 C 46.1061 -0.509203 -3.37076 0
M  V30 473 H 47.2991 -1.95014 -2.27837 0
M  V30 474 H 44.8521 -1.04456 -1.16269 0
M  V30 475 H 45.5871 0.446335 -3.21214 0
M  V30 476 H 45.3721 -1.25547 -3.71457 0
M  V30 477 H 46.8621 -0.370888 -4.1595 0
M  V30 478 N 47.2992 1.18797 -1.03562 0
M  V30 479 C 48.2462 2.22253 -0.622259 0
M  V30 480 C 49.2162 1.61987 0.36736 0
M  V30 481 O 50.4012 1.88986 0.262492 0
M  V30 482 C 47.5412 3.45097 0.0138462 0
M  V30 483 C 46.6542 4.19722 -1.02263 0
M  V30 484 C 45.7892 5.30009 -0.355573 0
M  V30 485 C 44.8282 5.96399 -1.37749 0
M  V30 486 N 43.9652 6.98234 -0.735766 0
M  V30 487 H 48.8052 2.56968 -1.50903 0
M  V30 488 H 46.3422 1.26245 -0.755017 0
M  V30 489 H 48.3002 4.15279 0.399948 0
M  V30 490 H 46.9302 3.11018 0.864158 0
M  V30 491 H 45.9822 3.48418 -1.52673 0
M  V30 492 H 47.2942 4.65227 -1.79903 0
M  V30 493 H 46.4482 6.0664 0.0850095 0
M  V30 494 H 45.1872 4.85592 0.452967 0
M  V30 495 H 44.1922 5.18512 -1.82826 0
M  V30 496 H 45.4172 6.42899 -2.18764 0
M  V30 497 H 43.3632 6.55979 0.0525597 0
M  V30 498 H 43.2802 7.41965 -1.44995 0
M  V30 499 H 44.5482 7.78845 -0.31941 0
M  V30 500 N 48.7773 0.814389 1.34928 0
M  V30 501 C 50.0263 0.394871 1.97797 0
M  V30 502 C 50.3393 -1.04555 1.65311 0
M  V30 503 O 51.5453 -1.56856 2.21604 0
M  V30 504 C 50.0013 0.655103 3.53888 0
M  V30 505 C 49.6093 2.10858 3.95276 0
M  V30 506 C 51.3533 0.301329 4.23429 0
M  V30 507 C 49.2603 2.31415 5.44244 0
M  V30 508 H 48.1903 0.143913 0.740139 0
M  V30 509 H 50.8413 0.999544 1.53888 0
M  V30 510 H 49.2233 -0.0196253 3.95995 0
M  V30 511 H 50.3973 2.82176 3.64298 0
M  V30 512 H 48.7123 2.42297 3.38646 0
M  V30 513 H 51.3093 0.432869 5.32945 0
M  V30 514 H 51.6523 -0.75331 4.09428 0
M  V30 515 H 52.1853 0.930288 3.86769 0
M  V30 516 H 48.9243 3.35353 5.63222 0
M  V30 517 H 48.4443 1.6463 5.76764 0
M  V30 518 H 50.1233 2.13352 6.10811 0
M  V30 519 N 50.2554 -1.46986 0.568584 0
M  V30 520 C 51.6714 -1.57946 0.229189 0
M  V30 521 C 51.8714 -1.56567 -1.26843 0
M  V30 522 O 50.9274 -1.47511 -2.04931 0
M  V30 523 C 52.2404 -2.87963 0.865909 0
M  V30 524 C 53.7884 -3.01568 0.838188 0
M  V30 525 C 54.2634 -4.34301 1.45419 0
M  V30 526 N 55.7544 -4.40965 1.41788 0
M  V30 527 C 56.4894 -5.42256 1.86403 0
M  V30 528 N 55.9854 -6.50297 2.38926 0
M  V30 529 N 57.7784 -5.3337 1.77405 0
M  V30 530 H 49.9294 -1.46126 1.54146 0
M  V30 531 H 52.1924 -0.696156 0.643484 0
M  V30 532 H 51.8984 -2.94742 1.91886 0
M  V30 533 H 51.7724 -3.75423 0.365687 0
M  V30 534 H 54.1594 -2.94379 -0.206106 0
M  V30 535 H 54.2404 -2.1562 1.37629 0
M  V30 536 H 53.8844 -4.42247 2.49761 0
M  V30 537 H 53.8144 -5.19 0.891435 0
M  V30 538 H 56.3054 -3.63484 1.03381 0
M  V30 539 H 56.6184 -7.23777 2.70863 0
M  V30 540 H 54.9634 -6.51155 2.42944 0
M  V30 541 H 58.1544 -4.47865 1.3614 0
M  V30 542 H 58.3274 -6.12169 2.12492 0
M  V30 543 N 51.7335 -0.305618 -1.54608 0
M  V30 544 C 53.1445 0.186098 -1.8577 0
M  V30 545 C 53.4955 1.53058 -1.22751 0
M  V30 546 O 52.6205 2.09888 -0.526893 0
M  V30 547 C 53.2155 0.344449 -3.37044 0
M  V30 548 C 51.7745 0.780384 -3.68221 0
M  V30 549 C 50.9215 -0.108554 -2.77087 0
M  V30 550 H 53.8725 -0.526485 -1.49712 0
M  V30 551 H 53.8935 1.17828 -3.61796 0
M  V30 552 H 53.4055 -0.634235 -3.82883 0
M  V30 553 H 51.5065 1.76945 -3.27904 0
M  V30 554 H 51.6195 0.596572 -4.75371 0
M  V30 555 H 49.9835 0.412931 -2.5133 0
M  V30 556 H 50.7665 -1.08368 -3.25747 0
M  V30 557 N 53.2116 1.57565 -0.0334293 0
M  V30 558 C 54.4606 1.91155 0.643639 0
M  V30 559 C 54.7736 0.91192 1.73042 0
M  V30 560 O 55.9796 1.13923 2.46442 0
M  V30 561 C 54.4356 3.39443 1.1961 0
M  V30 562 C 54.0436 4.47774 0.142381 0
M  V30 563 C 55.7876 3.82094 1.84944 0
M  V30 564 C 53.6946 5.87162 0.706727 0
M  V30 565 H 52.6246 0.713368 0.244176 0
M  V30 566 H 55.2756 1.8323 -0.0994323 0
M  V30 567 H 53.6576 3.42313 1.99092 0
M  V30 568 H 54.8316 4.56469 -0.630296 0
M  V30 569 H 53.1466 4.14352 -0.412446 0
M  V30 570 H 55.7436 4.83591 2.2813 0
M  V30 571 H 56.0866 3.17386 2.69392 0
M  V30 572 H 56.6196 3.81665 1.12145 0
M  V30 573 H 53.3586 6.55424 -0.0997178 0
M  V30 574 H 52.8786 5.82064 1.44779 0
M  V30 575 H 54.5576 6.35866 1.19514 0
M  V30 576 N 54.6897 -0.239769 1.55765 0
M  V30 577 C 55.6527 -1.28038 1.90103 0
M  V30 578 C 56.6527 -1.40723 0.778055 0
M  V30 579 O 57.8427 -1.39301 1.04599 0
M  V30 580 C 54.9747 -2.65702 2.13577 0
M  V30 581 H 56.1677 -0.988048 2.83157 0
M  V30 582 H 53.7207 -0.479382 1.48767 0
M  V30 583 H 54.4557 -3.00063 1.23015 0
M  V30 584 H 54.2407 -2.57875 2.95369 0
M  V30 585 H 55.7307 -3.40828 2.41301 0
M  V30 586 N 56.1678 -1.49265 -0.50573 0
M  V30 587 C 57.0778 -1.68312 -1.63427 0
M  V30 588 C 58.0938 -0.565682 -1.64548 0
M  V30 589 O 59.2698 -0.839801 -1.83055 0
M  V30 590 C 56.3348 -1.74107 -2.99813 0
M  V30 591 C 55.3958 -2.97653 -3.09356 0
M  V30 592 C 54.6288 -3.03163 -4.39236 0
M  V30 593 O 54.8518 -2.16396 -5.27758 0
M  V30 594 O 53.7858 -3.9558 -4.53652 0
M  V30 595 H 57.6118 -2.63907 -1.50289 0
M  V30 596 H 55.1968 -1.32951 -0.681502 0
M  V30 597 H 57.0788 -1.803 -3.80881 0
M  V30 598 H 55.7538 -0.816901 -3.13223 0
M  V30 599 H 54.6608 -2.96981 -2.27493 0
M  V30 600 H 55.9938 -3.89535 -3.00871 0
M  V30 601 N 57.6459 0.756429 -1.3826 0
M  V30 602 C 58.5929 1.87011 -1.35261 0
M  V30 603 C 59.5629 1.64695 -0.215616 0
M  V30 604 O 60.7479 1.864 -0.407399 0
M  V30 605 C 57.8879 3.24275 -1.18068 0
M  V30 606 C 57.0009 3.58442 -2.41129 0
M  V30 607 C 56.1359 4.84994 -2.16689 0
M  V30 608 C 55.1749 5.11939 -3.35537 0
M  V30 609 N 54.3119 6.29685 -3.10549 0
M  V30 610 H 59.1519 1.8891 -2.30472 0
M  V30 611 H 56.6889 0.923373 -1.14509 0
M  V30 612 H 58.6469 4.03479 -1.06116 0
M  V30 613 H 57.2769 3.21711 -0.264973 0
M  V30 614 H 56.3289 2.74103 -2.63764 0
M  V30 615 H 57.6409 3.74283 -3.29717 0
M  V30 616 H 56.7949 5.72135 -2.01857 0
M  V30 617 H 55.5339 4.71286 -1.25462 0
M  V30 618 H 54.5389 4.23268 -3.50891 0
M  V30 619 H 55.7639 5.27546 -4.27635 0
M  V30 620 H 53.7099 6.17306 -2.21967 0
M  V30 621 H 53.6269 6.46014 -3.92686 0
M  V30 622 H 54.8949 7.19722 -2.99367 0
M  V30 623 N 59.124 1.23083 0.984299 0
M  V30 624 C 60.349 1.088 1.76571 0
M  V30 625 C 60.774 -0.356657 1.84688 0
M  V30 626 O 60.132 -1.25788 1.30565 0
M  V30 627 C 60.18 1.71371 3.17277 0
M  V30 628 O 59.284 0.973213 4.00752 0
M  V30 629 H 58.625 0.381599 0.543395 0
M  V30 630 H 61.155 1.63057 1.23587 0
M  V30 631 H 61.165 1.76449 3.67872 0
M  V30 632 H 59.84 2.76493 3.10684 0
M  V30 633 H 58.417 0.999078 3.59267 0
M  V30 634 N 60.6021 -1.18246 1.0419 0
M  V30 635 C 61.8501 -1.87886 0.744543 0
M  V30 636 C 62.1711 -1.8082 -0.730006 0
M  V30 637 O 61.4411 -1.22736 -1.52685 0
M  V30 638 H 60.0211 -0.695556 0.272417 0
M  V30 639 H 62.6831 -1.43494 1.31892 0
M  V30 640 H 61.7791 -2.9389 1.05049 0
M  V30 641 N 62.0802 -0.821533 -1.34494 0
M  V30 642 C 63.3292 -0.405355 -1.97585 0
M  V30 643 C 63.6422 1.03677 -1.65863 0
M  V30 644 O 64.8482 1.55679 -2.22433 0
M  V30 645 C 63.3042 -0.673861 -3.53535 0
M  V30 646 C 62.9122 -2.12951 -3.94152 0
M  V30 647 C 64.6562 -0.32378 -4.23263 0
M  V30 648 C 62.5632 -2.34298 -5.43009 0
M  V30 649 H 61.4932 -0.147836 -0.739365 0
M  V30 650 H 64.1442 -1.00769 -1.53355 0
M  V30 651 H 62.5262 -0.00137554 -3.96 0
M  V30 652 H 63.7002 -2.84104 -3.62797 0
M  V30 653 H 62.0152 -2.44089 -3.37356 0
M  V30 654 H 64.6122 -0.461126 -5.32708 0
M  V30 655 H 64.9552 0.731586 -4.09821 0
M  V30 656 H 65.4882 -0.950786 -3.8627 0
M  V30 657 H 62.2272 -3.38335 -5.61435 0
M  V30 658 H 61.7472 -1.67687 -5.75883 0
M  V30 659 H 63.4262 -2.16588 -6.09671 0
M  V30 660 N 63.5583 1.46682 -0.576371 0
M  V30 661 C 64.7983 2.04306 -0.0621356 0
M  V30 662 C 65.1623 1.4389 1.2712 0
M  V30 663 O 66.3633 1.92675 1.87429 0
M  V30 664 C 64.6343 3.57399 0.00927922 0
M  V30 665 S 66.1933 4.36309 0.466859 0
M  V30 666 H 63.0113 0.710167 -0.0344016 0
M  V30 667 H 65.6133 1.79807 -0.767437 0
M  V30 668 H 64.3173 3.98889 -0.965178 0
M  V30 669 H 63.8483 3.86424 0.737547 0
M  V30 670 H 65.8633 4.6533 1.72287 0
M  V30 671 N 65.0364 0.313813 1.54444 0
M  V30 672 C 65.9834 -0.55655 2.23989 0
M  V30 673 C 66.9534 -1.11943 1.22711 0
M  V30 674 O 68.1384 -1.16158 1.51367 0
M  V30 675 C 65.2784 -1.71635 2.99392 0
M  V30 676 C 64.3914 -1.18364 4.15468 0
M  V30 677 C 63.5264 -2.30834 4.78424 0
M  V30 678 C 62.5654 -1.74762 5.86622 0
M  V30 679 N 61.7024 -2.80855 6.43479 0
M  V30 680 H 66.5424 0.0430893 2.97969 0
M  V30 681 H 64.0794 0.0330359 1.47063 0
M  V30 682 H 66.0374 -2.39868 3.41349 0
M  V30 683 H 64.6674 -2.28742 2.27765 0
M  V30 684 H 63.7194 -0.393163 3.78363 0
M  V30 685 H 65.0314 -0.733262 4.93381 0
M  V30 686 H 64.1854 -3.0699 5.23299 0
M  V30 687 H 62.9244 -2.79204 3.99871 0
M  V30 688 H 61.9294 -0.970995 5.41158 0
M  V30 689 H 63.1544 -1.2728 6.67066 0
M  V30 690 H 61.1004 -3.28535 5.67804 0
M  V30 691 H 61.0174 -2.40351 7.16776 0
M  V30 692 H 62.2854 -3.5687 6.93011 0
M  V30 693 N 66.5145 -1.57545 0.0417849 0
M  V30 694 C 67.7635 -1.91494 -0.633492 0
M  V30 695 C 68.0765 -0.921084 -1.72556 0
M  V30 696 O 69.2825 -1.15228 -2.45835 0
M  V30 697 C 67.7385 -3.40072 -1.17808 0
M  V30 698 C 67.3465 -4.47843 -0.118633 0
M  V30 699 C 69.0905 -3.8307 -1.82915 0
M  V30 700 C 66.9975 -5.87529 -0.675578 0
M  V30 701 H 65.9275 -0.714653 -0.24039 0
M  V30 702 H 68.5785 -1.83175 0.109148 0
M  V30 703 H 66.9605 -3.43364 -1.97274 0
M  V30 704 H 68.1345 -4.56128 0.654494 0
M  V30 705 H 66.4495 -4.14128 0.434414 0
M  V30 706 H 69.0465 -4.84794 -2.25563 0
M  V30 707 H 69.3895 -3.1881 -2.67705 0
M  V30 708 H 69.9225 -3.82255 -1.10119 0
M  V30 709 H 66.6615 -6.55362 0.134475 0
M  V30 710 H 66.1815 -5.82824 -1.4169 0
M  V30 711 H 67.8605 -6.36491 -1.1614 0
M  V30 712 N 67.9926 0.231505 -1.5589 0
M  V30 713 C 69.4086 0.580748 -1.48659 0
M  V30 714 C 69.6086 1.87617 -0.73498 0
M  V30 715 O 68.6646 2.51046 -0.270586 0
M  V30 716 C 69.9776 0.669202 -2.93159 0
M  V30 717 C 71.5256 0.760499 -3.03621 0
M  V30 718 C 72.0006 0.880383 -4.49459 0
M  V30 719 N 73.4916 0.944861 -4.53461 0
M  V30 720 C 74.2266 1.05716 -5.63571 0
M  V30 721 N 73.7226 1.13403 -6.83456 0
M  V30 722 N 75.5156 1.09152 -5.514 0
M  V30 723 H 67.6666 -0.618695 -2.03189 0
M  V30 724 H 69.9296 -0.215728 -0.923128 0
M  V30 725 H 69.6356 -0.212904 -3.51055 0
M  V30 726 H 69.5096 1.5361 -3.44505 0
M  V30 727 H 71.8966 1.63305 -2.45796 0
M  V30 728 H 71.9776 -0.131864 -2.5546 0
M  V30 729 H 71.6216 0.0123284 -5.07899 0
M  V30 730 H 71.5516 1.78802 -4.95316 0
M  V30 731 H 74.0426 0.896176 -3.6712 0
M  V30 732 H 74.3556 1.21921 -7.63122 0
M  V30 733 H 72.7006 1.10333 -6.86186 0
M  V30 734 H 75.8916 1.02805 -4.56671 0
M  V30 735 H 76.0646 1.17558 -6.37247 0
M  V30 736 N 69.4707 1.49531 0.497807 0
M  V30 737 C 70.8817 1.52344 1.07927 0
M  V30 738 C 71.2327 0.311469 1.93712 0
M  V30 739 O 70.3577 -0.578405 2.08527 0
M  V30 740 C 70.9527 2.76062 1.96405 0
M  V30 741 C 69.5117 2.81643 2.49709 0
M  V30 742 C 68.6587 2.46299 1.27404 0
M  V30 743 H 71.6097 1.56182 0.281576 0
M  V30 744 H 71.6307 2.56405 2.81135 0
M  V30 745 H 71.1427 3.64254 1.33943 0
M  V30 746 H 69.2437 1.97739 3.15801 0
M  V30 747 H 69.3567 3.83891 2.86643 0
M  V30 748 H 67.7207 1.98148 1.60029 0
M  V30 749 H 68.5037 3.36769 0.66645 0
M  V30 750 N 70.9488 -0.749086 1.3866 0
M  V30 751 C 72.3598 -1.32664 1.31366 0
M  V30 752 C 72.7108 -1.96179 -0.028484 0
M  V30 753 O 71.8358 -1.9537 -0.93057 0
M  V30 754 C 72.4308 -2.41219 2.37905 0
M  V30 755 C 70.9898 -2.94684 2.34176 0
M  V30 756 C 70.1368 -1.68108 2.20533 0
M  V30 757 H 73.0878 -0.547628 1.48952 0
M  V30 758 H 73.1088 -3.21268 2.0388 0
M  V30 759 H 72.6208 -1.94962 3.35576 0
M  V30 760 H 70.7218 -3.45258 1.401 0
M  V30 761 H 70.8348 -3.48757 3.2849 0
M  V30 762 H 69.1988 -1.91907 1.67463 0
M  V30 763 H 69.9818 -1.23923 3.20153 0
M  V30 764 N 72.4269 -1.23603 -0.977757 0
M  V30 765 C 73.3899 -1.02069 -2.05218 0
M  V30 766 C 74.3899 0.0184305 -1.60789 0
M  V30 767 O 75.5799 -0.221569 -1.72785 0
M  V30 768 C 72.7119 -0.544926 -3.36517 0
M  V30 769 H 73.9049 -1.9742 -2.25755 0
M  V30 770 H 71.4579 -1.05684 -1.15155 0
M  V30 771 H 72.1929 0.412241 -3.21669 0
M  V30 772 H 71.9779 -1.2948 -3.70105 0
M  V30 773 H 73.4679 -0.414985 -4.15533 0
M  V30 774 N 73.905 1.17692 -1.04816 0
M  V30 775 C 75.182 1.83768 -0.669963 0
M  V30 776 C 75.562 1.93232 0.849986 0
M  V30 777 O 74.91 1.46397 1.75443 0
M  V30 778 C 75.12 3.21641 -1.35455 0
M  V30 779 C 76.468 3.97592 -1.49017 0
M  V30 780 O 77.492 3.31107 -1.31326 0
M  V30 781 O 76.351 5.16729 -1.77914 0
M  V30 782 H 73.445 0.792799 -0.235368 0
M  V30 783 H 75.991 1.25021 -1.14751 0
M  V30 784 H 74.763 3.097 -2.39168 0
M  V30 785 H 74.386 3.88052 -0.866107 0
M  V30 786 N 75.3831 0.828654 1.34056 0
M  V30 787 C 76.6291 0.429279 1.98818 0
M  V30 788 C 76.9841 -0.998011 1.64492 0
M  V30 789 O 76.2771 -1.68652 0.909228 0
M  V30 790 C 76.4711 0.575226 3.52741 0
M  V30 791 C 76.3001 2.01515 4.02022 0
M  V30 792 C 75.0701 2.64825 4.30344 0
M  V30 793 C 77.2681 2.98261 4.18981 0
M  V30 794 N 75.2501 3.99998 4.65698 0
M  V30 795 C 76.6211 4.18356 4.57578 0
M  V30 796 C 78.6761 2.94802 4.01243 0
M  V30 797 C 77.3791 5.35454 4.80293 0
M  V30 798 C 79.4051 4.11121 4.25128 0
M  V30 799 C 78.7671 5.29969 4.64018 0
M  V30 800 H 74.8661 0.205304 0.754569 0
M  V30 801 H 77.4501 1.07457 1.62361 0
M  V30 802 H 75.6211 -0.0401962 3.88379 0
M  V30 803 H 77.3531 0.148292 4.04428 0
M  V30 804 H 74.1081 2.16027 4.21461 0
M  V30 805 H 74.5321 4.69653 4.87601 0
M  V30 806 H 79.1741 2.04054 3.70299 0
M  V30 807 H 76.8921 6.26755 5.10102 0
M  V30 808 H 80.4781 4.0985 4.12934 0
M  V30 809 H 79.3581 6.18479 4.82134 0
M  V30 810 N 76.8612 -1.46375 0.584142 0
M  V30 811 C 77.7932 -2.28443 -0.186119 0
M  V30 812 C 78.8062 -1.38596 -0.854115 0
M  V30 813 O 79.9952 -1.63183 -0.723438 0
M  V30 814 C 77.0952 -3.13671 -1.28311 0
M  V30 815 C 76.2682 -4.31652 -0.706758 0
M  V30 816 C 75.3272 -4.98267 -1.69163 0
M  V30 817 O 74.3532 -5.55815 -1.22712 0
M  V30 818 N 75.5552 -4.95408 -3.02575 0
M  V30 819 H 78.3202 -2.9519 0.517986 0
M  V30 820 H 75.8812 -1.56303 0.42201 0
M  V30 821 H 77.8732 -3.55101 -1.94128 0
M  V30 822 H 76.4432 -2.48989 -1.89005 0
M  V30 823 H 75.6632 -3.93989 0.128908 0
M  V30 824 H 76.9512 -5.07906 -0.301506 0
M  V30 825 H 76.3492 -4.49902 -3.42936 0
M  V30 826 H 74.9062 -5.40774 -3.63877 0
M  V30 827 N 78.3393 -0.321999 -1.54275 0
M  V30 828 C 79.7503 0.166384 -1.85957 0
M  V30 829 C 80.1013 1.51747 -1.24367 0
M  V30 830 O 79.2263 2.09317 -0.549124 0
M  V30 831 C 79.8213 0.308681 -3.37391 0
M  V30 832 C 78.3803 0.741286 -3.69028 0
M  V30 833 C 77.5273 -0.137937 -2.76957 0
M  V30 834 H 80.4783 -0.542335 -1.49146 0
M  V30 835 H 80.4993 1.13984 -3.63026 0
M  V30 836 H 80.0113 -0.674809 -3.82188 0
M  V30 837 H 78.1123 1.73458 -3.29762 0
M  V30 838 H 78.2253 0.546118 -4.75977 0
M  V30 839 H 76.5893 0.386251 -2.51754 0
M  V30 840 H 77.3723 -1.11816 -3.2458 0
M  V30 841 N 79.8174 1.5752 -0.0501392 0
M  V30 842 C 81.2284 1.80271 0.485705 0
M  V30 843 C 81.5794 0.96228 1.70981 0
M  V30 844 O 80.7044 0.178578 2.15662 0
M  V30 845 C 81.2994 3.26957 0.887938 0
M  V30 846 C 79.8584 3.5063 1.36877 0
M  V30 847 C 79.0054 2.75165 0.343468 0
M  V30 848 H 81.9564 1.56281 -0.276028 0
M  V30 849 H 81.9774 3.37821 1.75093 0
M  V30 850 H 81.4894 3.881 -0.0031809 0
M  V30 851 H 79.5904 2.94766 2.27911 0
M  V30 852 H 79.7034 4.59343 1.36164 0
M  V30 853 H 78.0674 2.4127 0.816128 0
M  V30 854 H 78.8504 3.39034 -0.539548 0
M  V30 855 N 81.2955 -0.223234 1.56011 0
M  V30 856 C 82.5425 -0.947875 1.78946 0
M  V30 857 C 82.8705 -1.844 0.618608 0
M  V30 858 O 82.1255 -1.91629 -0.397093 0
M  V30 859 C 82.4245 -1.81948 3.0762 0
M  V30 860 C 82.0905 -1.07672 4.37856 0
M  V30 861 C 80.7525 -0.871544 4.73242 0
M  V30 862 C 83.1045 -0.552081 5.18268 0
M  V30 863 C 80.4325 -0.129791 5.86556 0
M  V30 864 C 82.7845 0.17632 6.32354 0
M  V30 865 C 81.4485 0.39277 6.66343 0
M  V30 866 H 80.7185 -0.346852 0.654809 0
M  V30 867 H 83.3655 -0.216171 1.90276 0
M  V30 868 H 81.6705 -2.61899 2.91404 0
M  V30 869 H 83.3675 -2.38227 3.22566 0
M  V30 870 H 79.9575 -1.24662 4.1007 0
M  V30 871 H 84.1415 -0.698076 4.91366 0
M  V30 872 H 79.3975 0.048153 6.11381 0
M  V30 873 H 83.5715 0.590367 6.93893 0
M  V30 874 H 81.1985 0.969466 7.53993 0
M  V30 875 N 82.7736 -1.49793 -0.48987 0
M  V30 876 C 83.7366 -1.66752 -1.57246 0
M  V30 877 C 84.7366 -0.538867 -1.51502 0
M  V30 878 O 85.9266 -0.805545 -1.54456 0
M  V30 879 C 83.0586 -1.67528 -2.96896 0
M  V30 880 H 84.2516 -2.63321 -1.43534 0
M  V30 881 H 81.8046 -1.38992 -0.714914 0
M  V30 882 H 82.5396 -0.725837 -3.16073 0
M  V30 883 H 82.3246 -2.49504 -3.02473 0
M  V30 884 H 83.8146 -1.82667 -3.7553 0
M  V30 885 N 84.2517 0.741722 -1.39055 0
M  V30 886 C 85.4977 1.50336 -1.36113 0
M  V30 887 C 85.8307 1.94148 0.0450796 0
M  V30 888 O 85.1057 1.66301 1.00868 0
M  V30 889 C 85.3887 2.74773 -2.32749 0
M  V30 890 C 85.2417 2.37023 -3.82283 0
M  V30 891 C 86.5607 3.76846 -2.27322 0
M  V30 892 H 83.6797 0.545351 -0.495743 0
M  V30 893 H 86.3217 0.848624 -1.69995 0
M  V30 894 H 84.4717 3.30639 -2.03986 0
M  V30 895 H 86.1437 1.8684 -4.21768 0
M  V30 896 H 84.3867 1.69334 -3.99385 0
M  V30 897 H 85.0577 3.26104 -4.45376 0
M  V30 898 H 87.5337 3.30548 -2.5274 0
M  V30 899 H 86.4097 4.6159 -2.97028 0
M  V30 900 H 86.6707 4.23286 -1.27599 0
M  V30 901 N 85.7298 1.2412 0.971189 0
M  V30 902 C 86.6398 1.04747 2.09917 0
M  V30 903 C 87.6558 -0.0107162 1.73997 0
M  V30 904 O 88.8318 0.186714 2.00533 0
M  V30 905 C 85.8968 0.650828 3.40537 0
M  V30 906 C 84.9578 1.7851 3.90426 0
M  V30 907 C 84.1908 1.40729 5.14812 0
M  V30 908 O 84.4138 0.29557 5.69634 0
M  V30 909 O 83.3478 2.23168 5.58999 0
M  V30 910 H 87.1738 1.99304 2.29154 0
M  V30 911 H 84.7588 1.02908 1.08307 0
M  V30 912 H 86.6408 0.440992 4.19086 0
M  V30 913 H 85.3158 -0.265649 3.22608 0
M  V30 914 H 84.2228 2.04966 3.12953 0
M  V30 915 H 85.5558 2.68023 4.12825 0
M  V30 916 N 87.2079 -1.17134 1.05439 0
M  V30 917 C 88.4539 -1.87733 0.767077 0
M  V30 918 C 88.7869 -1.8098 -0.704253 0
M  V30 919 O 88.0619 -1.21951 -1.5152 0
M  V30 920 C 88.3449 -3.37659 1.25133 0
M  V30 921 C 88.1979 -3.53149 2.78578 0
M  V30 922 C 89.5169 -4.31768 0.852324 0
M  V30 923 H 86.6359 -0.681687 0.280129 0
M  V30 924 H 89.2779 -1.37732 1.30881 0
M  V30 925 H 87.4279 -3.80373 0.790469 0
M  V30 926 H 89.0999 -3.19434 3.32806 0
M  V30 927 H 87.3429 -2.95345 3.17732 0
M  V30 928 H 88.0139 -4.58403 3.07523 0
M  V30 929 H 90.4899 -3.96909 1.24911 0
M  V30 930 H 89.3659 -5.35199 1.21873 0
M  V30 931 H 89.6269 -4.41429 -0.243485 0
M  V30 932 N 88.686 -0.835752 -1.33615 0
M  V30 933 C 89.963 -0.352017 -1.92406 0
M  V30 934 C 90.343 1.16225 -1.76224 0
M  V30 935 O 89.691 1.97526 -1.14873 0
M  V30 936 C 89.901 -0.795485 -3.39813 0
M  V30 937 C 91.249 -0.801703 -4.16963 0
M  V30 938 O 92.273 -0.738889 -3.48452 0
M  V30 939 O 91.132 -0.886607 -5.3926 0
M  V30 940 H 88.226 -0.0989641 -0.821057 0
M  V30 941 H 90.772 -0.921397 -1.42507 0
M  V30 942 H 89.544 -1.83795 -3.45449 0
M  V30 943 H 89.167 -0.202505 -3.97084 0
M  V30 944 N 90.1641 1.46063 -0.591896 0
M  V30 945 C 91.1121 2.32124 0.148739 0
M  V30 946 C 92.1061 1.45035 0.875286 0
M  V30 947 O 93.3121 1.61609 0.792632 0
M  V30 948 H 89.6871 0.749024 0.066832 0
M  V30 949 H 91.6581 2.92392 -0.595783 0
M  V30 950 C 90.4071 3.28373 1.1431 0
M  V30 951 H 89.7301 3.95371 0.59346 0
M  V30 952 H 91.1701 3.91352 1.63155 0
M  V30 953 C 89.6291 2.54393 2.20875 0
M  V30 954 O 90.1591 2.31373 3.28374 0
M  V30 955 N 88.3651 2.14797 1.95731 0
M  V30 956 H 87.9121 2.33719 1.08319 0
M  V30 957 H 87.8701 1.65619 2.67241 0
M  V30 958 N 91.6422 0.330177 1.54103 0
M  V30 959 C 92.8892 -0.270405 2.00686 0
M  V30 960 C 93.2172 -1.51621 1.21825 0
M  V30 961 O 92.4722 -1.93536 0.29025 0
M  V30 962 C 92.7712 -0.643134 3.51566 0
M  V30 963 C 92.4372 0.504251 4.48072 0
M  V30 964 C 91.0992 0.819163 4.74176 0
M  V30 965 C 93.4512 1.27465 5.05373 0
M  V30 966 C 90.7792 1.90708 5.5484 0
M  V30 967 C 93.1312 2.35271 5.87223 0
M  V30 968 C 91.7952 2.67336 6.11627 0
M  V30 969 H 91.0652 -0.0989482 0.734364 0
M  V30 970 H 93.7122 0.455324 1.86008 0
M  V30 971 H 92.0172 -1.44938 3.64006 0
M  V30 972 H 93.7142 -1.11949 3.85056 0
M  V30 973 H 90.3042 0.248733 4.27878 0
M  V30 974 H 94.4882 1.04462 4.85182 0
M  V30 975 H 89.7442 2.15991 5.71977 0
M  V30 976 H 93.9182 2.95405 6.30641 0
M  V30 977 H 91.5452 3.51763 6.73919 0
M  V30 978 N 93.1203 -1.57491 0.0584922 0
M  V30 979 C 94.5363 -1.56792 -0.298091 0
M  V30 980 C 94.7363 -1.06679 -1.70944 0
M  V30 981 O 93.7923 -0.726672 -2.41818 0
M  V30 982 C 95.1053 -3.00461 -0.119879 0
M  V30 983 C 96.6533 -3.1242 -0.190428 0
M  V30 984 C 97.1283 -4.57982 -0.0406567 0
M  V30 985 N 98.6193 -4.63099 -0.0966958 0
M  V30 986 C 99.3543 -5.734 -0.00502943 0
M  V30 987 N 98.8503 -6.9266 0.139402 0
M  V30 988 N 100.643 -5.62067 -0.0611391 0
M  V30 989 H 92.7943 -1.88386 0.98105 0
M  V30 990 H 95.0573 -0.867865 0.381463 0
M  V30 991 H 94.7633 -3.41187 0.85349 0
M  V30 992 H 94.6373 -3.66843 -0.877833 0
M  V30 993 H 97.0243 -2.71589 -1.15427 0
M  V30 994 H 97.1053 -2.48702 0.598405 0
M  V30 995 H 96.7493 -4.995 0.919897 0
M  V30 996 H 96.6793 -5.19715 -0.848727 0
M  V30 997 H 99.1703 -3.77331 -0.207277 0
M  V30 998 H 99.4833 -7.72536 0.201855 0
M  V30 999 H 97.8283 -6.94781 0.174586 0
M  V30 1000 H 101.019 -4.67782 -0.172583 0
M  V30 1001 H 101.192 -6.47999 0.0137562 0
M  V30 1002 N 94.5984 0.214957 -1.56127 0
M  V30 1003 C 95.8454 0.938372 -1.79446 0
M  V30 1004 C 96.1734 1.8407 -0.628378 0
M  V30 1005 O 95.4284 1.91837 0.386925 0
M  V30 1006 C 95.7274 1.80314 -3.0858 0
M  V30 1007 C 95.3934 1.05349 -4.3842 0
M  V30 1008 C 94.0554 0.846435 -4.73697 0
M  V30 1009 C 96.4074 0.524588 -5.18553 0
M  V30 1010 C 93.7354 0.098683 -5.86617 0
M  V30 1011 C 96.0874 -0.209853 -6.32252 0
M  V30 1012 C 94.7514 -0.428102 -6.66126 0
M  V30 1013 H 94.0214 0.343375 -0.656639 0
M  V30 1014 H 96.6684 0.206077 -1.90388 0
M  V30 1015 H 94.9734 2.6035 -2.92789 0
M  V30 1016 H 96.6704 2.36513 -3.23825 0
M  V30 1017 H 93.2604 1.22486 -4.10725 0
M  V30 1018 H 97.4444 0.672008 -4.91729 0
M  V30 1019 H 92.7004 -0.0805753 -6.11347 0
M  V30 1020 H 96.8744 -0.627157 -6.9357 0
M  V30 1021 H 94.5014 -1.00944 -7.53468 0
M  V30 1022 N 96.0765 1.50051 0.48192 0
M  V30 1023 C 97.3045 1.64237 1.25832 0
M  V30 1024 C 97.7195 0.321336 1.86045 0
M  V30 1025 O 97.0765 -0.695478 1.68729 0
M  V30 1026 C 97.1275 2.72548 2.37487 0
M  V30 1027 O 96.8485 3.99529 1.79745 0
M  V30 1028 C 98.3495 2.9761 3.28547 0
M  V30 1029 H 95.5695 0.55237 0.380957 0
M  V30 1030 H 98.1135 1.96207 0.576467 0
M  V30 1031 H 96.2685 2.43303 3.01467 0
M  V30 1032 H 96.6825 4.59342 2.5319 0
M  V30 1033 H 98.1565 3.77084 4.03127 0
M  V30 1034 H 98.6335 2.0826 3.86684 0
M  V30 1035 H 99.2395 3.28345 2.70314 0
M  V30 1036 N 97.5546 -0.734337 1.39446 0
M  V30 1037 C 98.9656 -1.31264 1.32766 0
M  V30 1038 C 99.3166 -1.96198 -0.00767497 0
M  V30 1039 O 98.4416 -1.96346 -0.909796 0
M  V30 1040 C 99.0366 -2.38682 2.4045 0
M  V30 1041 C 97.5956 -2.92184 2.37288 0
M  V30 1042 C 96.7426 -1.6576 2.22304 0
M  V30 1043 H 99.6936 -0.531799 1.49525 0
M  V30 1044 H 99.7146 -3.19087 2.07276 0
M  V30 1045 H 99.2266 -1.91392 3.37625 0
M  V30 1046 H 97.3276 -3.43752 1.43754 0
M  V30 1047 H 97.4406 -3.45253 3.3217 0
M  V30 1048 H 95.8046 -1.9012 1.69489 0
M  V30 1049 H 96.5876 -1.20521 3.21449 0
M  V30 1050 N 99.0327 -1.24633 -0.964593 0
M  V30 1051 C 100.449 -1.01239 -1.2338 0
M  V30 1052 C 100.649 0.2769 -1.99588 0
M  V30 1053 O 99.7047 0.992241 -2.32187 0
M  V30 1054 C 101.018 -2.22937 -2.01791 0
M  V30 1055 C 102.566 -2.27594 -2.14872 0
M  V30 1056 C 103.041 -3.48921 -2.96678 0
M  V30 1057 N 104.532 -3.49257 -3.04259 0
M  V30 1058 C 105.267 -4.39795 -3.67924 0
M  V30 1059 N 104.763 -5.40591 -4.33281 0
M  V30 1060 N 106.556 -4.275 -3.64966 0
M  V30 1061 H 98.7067 -2.0748 -0.454502 0
M  V30 1062 H 100.97 -0.910647 -0.26349 0
M  V30 1063 H 100.676 -3.16587 -1.53184 0
M  V30 1064 H 100.55 -2.25306 -3.02518 0
M  V30 1065 H 102.937 -1.34473 -2.6268 0
M  V30 1066 H 103.018 -2.2925 -1.13482 0
M  V30 1067 H 102.662 -4.42359 -2.49562 0
M  V30 1068 H 102.592 -3.4451 -3.98272 0
M  V30 1069 H 105.083 -2.76337 -2.57771 0
M  V30 1070 H 105.396 -6.05904 -4.79687 0
M  V30 1071 H 103.741 -5.44475 -4.3194 0
M  V30 1072 H 106.932 -3.47987 -3.13086 0
M  V30 1073 H 107.105 -4.98258 -4.14298 0
M  V30 1074 N 100.511 1.16574 -1.06058 0
M  V30 1075 C 101.757 1.87324 -0.777022 0
M  V30 1076 C 102.09 1.81351 0.694645 0
M  V30 1077 O 101.365 1.22753 1.50871 0
M  V30 1078 C 101.648 3.36991 -1.26922 0
M  V30 1079 C 101.501 3.51667 -2.80447 0
M  V30 1080 C 102.82 4.3131 -0.87521 0
M  V30 1081 H 99.9388 0.680191 -0.28374 0
M  V30 1082 H 102.581 1.37036 -1.3161 0
M  V30 1083 H 100.731 3.79949 -0.81063 0
M  V30 1084 H 102.403 3.17664 -3.34495 0
M  V30 1085 H 100.646 2.93656 -3.19294 0
M  V30 1086 H 101.317 4.56766 -3.0995 0
M  V30 1087 H 103.793 3.9624 -1.27014 0
M  V30 1088 H 102.669 5.34545 -1.2471 0
M  V30 1089 H 102.93 4.41552 0.220071 0
M  V30 1090 N 101.989 0.842826 1.3317 0
M  V30 1091 C 102.921 0.236245 2.27979 0
M  V30 1092 C 103.934 -0.585282 1.51915 0
M  V30 1093 O 105.123 -0.411705 1.73687 0
M  V30 1094 C 102.223 -0.685717 3.3189 0
M  V30 1095 C 101.396 0.0973448 4.37292 0
M  V30 1096 C 100.455 -0.748565 5.20848 0
M  V30 1097 O 99.4809 -0.186339 5.68895 0
M  V30 1098 N 100.683 -2.06527 5.42519 0
M  V30 1099 H 103.448 1.05088 2.80672 0
M  V30 1100 H 101.009 0.701667 1.45905 0
M  V30 1101 H 103.001 -1.25669 3.84694 0
M  V30 1102 H 101.571 -1.40105 2.79445 0
M  V30 1103 H 100.791 0.849706 3.84933 0
M  V30 1104 H 102.079 0.635643 5.04814 0
M  V30 1105 H 101.477 -2.54554 5.05192 0
M  V30 1106 H 100.034 -2.58464 5.98364 0
M  V30 1107 N 103.467 -1.45747 0.599634 0
M  V30 1108 C 104.883 -1.57424 0.26264 0
M  V30 1109 C 105.083 -1.59222 -1.23493 0
M  V30 1110 O 104.139 -1.51825 -2.01756 0
M  V30 1111 C 105.452 -2.86061 0.926795 0
M  V30 1112 C 107 -2.99722 0.901967 0
M  V30 1113 C 107.475 -4.31119 1.54598 0
M  V30 1114 N 108.966 -4.37858 1.5111 0
M  V30 1115 C 109.701 -5.3818 1.97863 0
M  V30 1116 N 109.197 -6.45083 2.52666 0
M  V30 1117 N 110.99 -5.29487 1.88679 0
M  V30 1118 H 103.141 -1.42823 1.57211 0
M  V30 1119 H 105.404 -0.68235 0.658105 0
M  V30 1120 H 105.11 -2.90605 1.98095 0
M  V30 1121 H 104.984 -3.74563 0.445238 0
M  V30 1122 H 107.371 -2.9475 -0.143617 0
M  V30 1123 H 107.452 -2.12652 1.42171 0
M  V30 1124 H 107.096 -4.36849 2.59085 0
M  V30 1125 H 107.026 -5.16992 1.00132 0
M  V30 1126 H 109.517 -3.61209 1.11068 0
M  V30 1127 H 109.83 -7.17869 2.86155 0
M  V30 1128 H 108.175 -6.45856 2.56701 0
M  V30 1129 H 111.366 -4.44877 1.4561 0
M  V30 1130 H 111.539 -6.07524 2.25429 0
M  V30 1131 N 104.945 -0.338344 -1.53925 0
M  V30 1132 C 105.875 0.51328 -2.27789 0
M  V30 1133 C 106.856 1.107 -1.29149 0
M  V30 1134 O 108.041 1.12937 -1.57984 0
M  V30 1135 C 105.171 1.66697 -3.04679 0
M  V30 1136 C 104.125 1.20183 -4.1078 0
M  V30 1137 C 103.451 2.44363 -4.75595 0
M  V30 1138 C 104.751 0.30605 -5.21403 0
M  V30 1139 H 106.445 -0.102883 -2.99223 0
M  V30 1140 H 103.991 -0.0509219 -1.4391 0
M  V30 1141 H 105.944 2.26915 -3.55088 0
M  V30 1142 H 104.668 2.30995 -2.30887 0
M  V30 1143 H 103.327 0.622499 -3.61276 0
M  V30 1144 H 102.975 3.07057 -3.98403 0
M  V30 1145 H 102.675 2.13925 -5.47275 0
M  V30 1146 H 104.199 3.05317 -5.28786 0
M  V30 1147 H 105.613 0.814929 -5.67478 0
M  V30 1148 H 104.01 0.0937929 -6.00027 0
M  V30 1149 H 105.08 -0.65921 -4.80398 0
M  V30 1150 N 106.423 1.57458 -0.0668435 0
M  V30 1151 C 107.371 2.13639 0.919851 0
M  V30 1152 C 108.365 1.07204 1.31163 0
M  V30 1153 O 109.571 1.25591 1.28945 0
M  V30 1154 H 105.946 0.683048 0.314562 0
M  V30 1155 H 107.917 2.95415 0.421047 0
M  V30 1156 C 106.666 2.70892 2.17975 0
M  V30 1157 H 105.989 3.5246 1.88711 0
M  V30 1158 H 107.429 3.13803 2.85138 0
M  V30 1159 C 105.888 1.65414 2.93496 0
M  V30 1160 O 106.418 1.07619 3.87015 0
M  V30 1161 N 104.624 1.36564 2.56512 0
M  V30 1162 H 104.171 1.83751 1.80536 0
M  V30 1163 H 104.129 0.66223 3.07347 0
M  V30 1164 N 107.901 -0.206675 1.56239 0
M  V30 1165 C 108.811 -1.27686 1.96808 0
M  V30 1166 C 109.827 -1.50455 0.874035 0
M  V30 1167 O 111.003 -1.63295 1.17884 0
M  V30 1168 C 108.068 -2.60358 2.28942 0
M  V30 1169 C 107.129 -2.45762 3.51994 0
M  V30 1170 C 106.362 -3.72108 3.82585 0
M  V30 1171 O 106.585 -4.75776 3.14631 0
M  V30 1172 O 105.519 -3.6833 4.76043 0
M  V30 1173 H 109.345 -0.962593 2.88041 0
M  V30 1174 H 106.93 -0.410746 1.43643 0
M  V30 1175 H 108.812 -3.38687 2.50737 0
M  V30 1176 H 107.487 -2.91435 1.4088 0
M  V30 1177 H 106.394 -1.65584 3.35459 0
M  V30 1178 H 107.727 -2.19621 4.40486 0
M  V30 1179 N 109.379 -1.50304 -0.473955 0
M  V30 1180 C 110.309 -1.71886 -1.58042 0
M  V30 1181 C 111.29 -0.567799 -1.60344 0
M  V30 1182 O 112.475 -0.806623 -1.76656 0
M  V30 1183 C 109.605 -1.81036 -2.96384 0
M  V30 1184 C 108.559 -2.962 -3.08949 0
M  V30 1185 C 107.885 -2.9049 -4.48909 0
M  V30 1186 C 109.185 -4.36752 -2.86434 0
M  V30 1187 H 110.879 -2.64527 -1.40234 0
M  V30 1188 H 108.425 -1.27295 -0.673201 0
M  V30 1189 H 110.378 -1.94719 -3.73714 0
M  V30 1190 H 109.102 -0.850147 -3.15341 0
M  V30 1191 H 107.761 -2.82164 -2.3405 0
M  V30 1192 H 107.409 -1.92321 -4.64781 0
M  V30 1193 H 107.109 -3.67802 -4.58253 0
M  V30 1194 H 108.633 -3.06218 -5.28264 0
M  V30 1195 H 110.047 -4.5133 -3.53517 0
M  V30 1196 H 108.444 -5.15493 -3.07225 0
M  V30 1197 H 109.514 -4.49321 -1.82316 0
M  V30 1198 N 110.857 0.726932 -1.39834 0
M  V30 1199 C 111.767 1.87131 -1.41489 0
M  V30 1200 C 112.783 1.71239 -0.308757 0
M  V30 1201 O 113.959 1.93701 -0.551529 0
M  V30 1202 C 111.024 3.22811 -1.26468 0
M  V30 1203 C 110.085 3.51039 -2.47124 0
M  V30 1204 C 109.318 4.80245 -2.3281 0
M  V30 1205 O 109.541 5.54537 -1.33585 0
M  V30 1206 O 108.475 5.08554 -3.21957 0
M  V30 1207 H 112.301 1.8869 -2.3797 0
M  V30 1208 H 109.886 0.875837 -1.21035 0
M  V30 1209 H 111.768 4.03877 -1.20255 0
M  V30 1210 H 110.443 3.22005 -0.330862 0
M  V30 1211 H 109.35 2.70027 -2.58914 0
M  V30 1212 H 110.683 3.56632 -3.39227 0
M  V30 1213 N 112.336 1.25143 0.95797 0
M  V30 1214 C 113.299 1.05321 2.03569 0
M  V30 1215 C 114.299 0.007152 1.60798 0
M  V30 1216 O 115.489 0.24903 1.72411 0
M  V30 1217 C 112.621 0.598394 3.35607 0
M  V30 1218 H 113.814 2.00986 2.22586 0
M  V30 1219 H 111.367 1.07502 1.13459 0
M  V30 1220 H 112.102 -0.361014 3.22284 0
M  V30 1221 H 111.887 1.35351 3.67998 0
M  V30 1222 H 113.377 0.48104 4.1482 0
M  V30 1223 N 113.814 -1.1601 1.06675 0
M  V30 1224 C 114.746 -2.20115 0.638921 0
M  V30 1225 C 115.759 -1.59916 -0.305057 0
M  V30 1226 O 116.948 -1.78245 -0.0954446 0
M  V30 1227 C 114.048 -3.38798 -0.0830083 0
M  V30 1228 C 113.221 -4.2855 0.875426 0
M  V30 1229 C 112.28 -5.25849 0.192042 0
M  V30 1230 O 111.306 -5.63102 0.830921 0
M  V30 1231 N 112.508 -5.70648 -1.06493 0
M  V30 1232 H 115.273 -2.57439 1.53444 0
M  V30 1233 H 112.834 -1.31057 0.950557 0
M  V30 1234 H 114.826 -4.00936 -0.550685 0
M  V30 1235 H 113.396 -2.99947 -0.880386 0
M  V30 1236 H 112.616 -3.63617 1.52238 0
M  V30 1237 H 113.904 -4.85393 1.52548 0
M  V30 1238 H 113.302 -5.42482 -1.60405 0
M  V30 1239 H 111.859 -6.34859 -1.47641 0
M  V30 1240 N 115.292 -0.849877 -1.32721 0
M  V30 1241 C 116.52 -0.464754 -2.01613 0
M  V30 1242 C 116.935 0.937191 -1.63897 0
M  V30 1243 O 116.292 1.61081 -0.857856 0
M  V30 1244 C 116.343 -0.588638 -3.56675 0
M  V30 1245 O 116.064 -1.93535 -3.93034 0
M  V30 1246 C 117.565 -0.2019 -4.4284 0
M  V30 1247 H 114.785 -0.183215 -0.645502 0
M  V30 1248 H 117.329 -1.1455 -1.69407 0
M  V30 1249 H 115.484 0.0443159 -3.87375 0
M  V30 1250 H 115.898 -1.92871 -4.87751 0
M  V30 1251 H 117.372 -0.339599 -5.50954 0
M  V30 1252 H 117.849 0.857224 -4.30753 0
M  V30 1253 H 118.455 -0.809733 -4.17521 0
M  V30 1254 N 116.77 1.45427 -0.607355 0
M  V30 1255 C 118.186 1.57283 -0.270985 0
M  V30 1256 C 118.386 1.59875 1.22647 0
M  V30 1257 O 117.442 1.52893 2.00948 0
M  V30 1258 C 118.755 2.85566 -0.941952 0
M  V30 1259 C 120.303 2.9924 -0.917849 0
M  V30 1260 C 120.778 4.30293 -1.56882 0
M  V30 1261 N 122.269 4.37051 -1.5343 0
M  V30 1262 C 123.004 5.37123 -2.00715 0
M  V30 1263 N 122.5 6.43734 -2.56084 0
M  V30 1264 N 124.293 5.28479 -1.91484 0
M  V30 1265 H 116.444 1.41988 -1.57966 0
M  V30 1266 H 118.707 0.67885 -0.661715 0
M  V30 1267 H 118.413 2.8955 -1.99633 0
M  V30 1268 H 118.287 3.74322 -0.465096 0
M  V30 1269 H 120.674 2.94822 0.127984 0
M  V30 1270 H 120.755 2.11895 -1.43297 0
M  V30 1271 H 120.399 4.35469 -2.61398 0
M  V30 1272 H 120.329 5.16454 -1.02873 0
M  V30 1273 H 122.82 3.60615 -1.12982 0
M  V30 1274 H 123.133 7.16341 -2.89958 0
M  V30 1275 H 121.478 6.44485 -2.60122 0
M  V30 1276 H 124.669 4.44098 -1.47967 0
M  V30 1277 H 124.842 6.0632 -2.28648 0
M  V30 1278 N 118.248 0.346503 1.53744 0
M  V30 1279 C 119.494 -0.249473 2.0126 0
M  V30 1280 C 119.827 -1.49965 1.23386 0
M  V30 1281 O 119.102 -1.91811 0.32229 0
M  V30 1282 C 119.385 -0.560643 3.55709 0
M  V30 1283 C 119.238 0.701836 4.44291 0
M  V30 1284 C 120.557 -1.36905 4.18264 0
M  V30 1285 H 117.676 -0.0891987 0.731582 0
M  V30 1286 H 120.318 0.467624 1.84156 0
M  V30 1287 H 118.468 -1.17156 3.70414 0
M  V30 1288 H 120.14 1.33974 4.41417 0
M  V30 1289 H 118.383 1.32612 4.13033 0
M  V30 1290 H 119.054 0.43933 5.50249 0
M  V30 1291 H 121.53 -0.852448 4.07275 0
M  V30 1292 H 120.406 -1.55553 5.26398 0
M  V30 1293 H 120.667 -2.37203 3.73078 0
M  V30 1294 N 119.726 -1.57421 0.075193 0
M  V30 1295 C 120.673 -2.12915 -0.890843 0
M  V30 1296 C 121.643 -1.04252 -1.29309 0
M  V30 1297 O 122.828 -1.31933 -1.37834 0
M  V30 1298 C 119.968 -2.69795 -2.15186 0
M  V30 1299 C 119.081 -3.92624 -1.80194 0
M  V30 1300 C 118.216 -4.37736 -3.00933 0
M  V30 1301 C 117.255 -5.53205 -2.61974 0
M  V30 1302 N 116.392 -5.9326 -3.75483 0
M  V30 1303 H 121.232 -2.95156 -0.410735 0
M  V30 1304 H 118.769 -1.45854 -0.191086 0
M  V30 1305 H 120.727 -3.00883 -2.89008 0
M  V30 1306 H 119.357 -1.90313 -2.60731 0
M  V30 1307 H 118.409 -3.67977 -0.964218 0
M  V30 1308 H 119.721 -4.76482 -1.47534 0
M  V30 1309 H 118.875 -4.70503 -3.8303 0
M  V30 1310 H 117.614 -3.52739 -3.36789 0
M  V30 1311 H 116.619 -5.20086 -1.783 0
M  V30 1312 H 117.844 -6.39936 -2.27284 0
M  V30 1313 H 115.79 -5.11212 -4.11094 0
M  V30 1314 H 115.707 -6.71865 -3.46602 0
M  V30 1315 H 116.975 -6.30651 -4.58148 0
M  V30 1316 N 121.204 0.198386 -1.56346 0
M  V30 1317 C 122.134 1.24865 -1.9731 0
M  V30 1318 C 123.115 1.47651 -0.844576 0
M  V30 1319 O 124.3 1.59444 -1.10866 0
M  V30 1320 C 121.43 2.59358 -2.30977 0
M  V30 1321 C 120.384 2.5119 -3.46537 0
M  V30 1322 C 119.71 3.89926 -3.65871 0
M  V30 1323 C 121.01 2.03977 -4.80823 0
M  V30 1324 H 122.704 0.908252 -2.85291 0
M  V30 1325 H 120.25 0.435462 -1.37258 0
M  V30 1326 H 122.203 3.33011 -2.58228 0
M  V30 1327 H 120.927 2.95132 -1.39874 0
M  V30 1328 H 119.586 1.79993 -3.19371 0
M  V30 1329 H 119.234 4.23046 -2.72105 0
M  V30 1330 H 118.934 3.85336 -4.4361 0
M  V30 1331 H 120.458 4.65205 -3.95495 0
M  V30 1332 H 121.872 2.67386 -5.07127 0
M  V30 1333 H 120.269 2.10397 -5.62008 0
M  V30 1334 H 121.339 0.992861 -4.74626 0
M  V30 1335 N 122.682 1.50554 0.465978 0
M  V30 1336 C 123.63 1.70324 1.58406 0
M  V30 1337 C 124.624 0.569139 1.59553 0
M  V30 1338 O 125.83 0.749776 1.63641 0
M  V30 1339 H 122.205 0.537688 0.525734 0
M  V30 1340 H 124.176 2.64104 1.38894 0
M  V30 1341 C 122.925 1.81928 2.96307 0
M  V30 1342 H 122.248 2.68586 2.96144 0
M  V30 1343 H 123.688 1.99784 3.73982 0
M  V30 1344 C 122.147 0.572095 3.32007 0
M  V30 1345 O 122.677 -0.286416 4.00678 0
M  V30 1346 N 120.883 0.424606 2.87481 0
M  V30 1347 H 120.43 1.12427 2.31771 0
M  V30 1348 H 120.388 -0.408697 3.11732 0
M  V30 1349 N 124.16 -0.719506 1.40217 0
M  V30 1350 C 125.39 -1.50646 1.41384 0
M  V30 1351 C 125.798 -1.89197 0.0107743 0
M  V30 1352 O 125.141 -1.55709 -0.974708 0
M  V30 1353 C 125.203 -2.81405 2.23722 0
M  V30 1354 C 124.867 -2.65199 3.72181 0
M  V30 1355 C 125.864 -2.32717 4.64907 0
M  V30 1356 C 123.549 -2.81586 4.1595 0
M  V30 1357 C 125.543 -2.16827 5.99387 0
M  V30 1358 C 123.23 -2.65313 5.50502 0
M  V30 1359 C 124.228 -2.32981 6.42035 0
M  V30 1360 O 123.916 -2.16827 7.74107 0
M  V30 1361 H 123.648 -0.471606 0.484318 0
M  V30 1362 H 126.202 -0.895456 1.84853 0
M  V30 1363 H 124.432 -3.44823 1.75026 0
M  V30 1364 H 126.121 -3.43102 2.16878 0
M  V30 1365 H 126.887 -2.19694 4.32388 0
M  V30 1366 H 122.766 -3.0574 3.45027 0
M  V30 1367 H 126.31 -1.91513 6.70797 0
M  V30 1368 H 122.207 -2.7792 5.82607 0
M  V30 1369 H 122.975 -2.31778 7.84998 0
M  V30 1370 N 125.638 -1.25649 -0.95132 0
M  V30 1371 C 126.568 -1.08808 -2.06599 0
M  V30 1372 C 127.549 0.00382547 -1.701 0
M  V30 1373 O 128.734 -0.166325 -1.93486 0
M  V30 1374 C 125.864 -0.709542 -3.39975 0
M  V30 1375 C 124.818 -1.75206 -3.90496 0
M  V30 1376 C 124.144 -1.22811 -5.20405 0
M  V30 1377 C 125.444 -3.15153 -4.16504 0
M  V30 1378 H 127.138 -2.02048 -2.20946 0
M  V30 1379 H 124.684 -0.972835 -1.06169 0
M  V30 1380 H 126.637 -0.578649 -4.17408 0
M  V30 1381 H 125.361 0.258556 -3.25575 0
M  V30 1382 H 124.02 -1.87145 -3.15234 0
M  V30 1383 H 123.668 -0.250145 -5.02378 0
M  V30 1384 H 123.368 -1.92492 -5.55176 0
M  V30 1385 H 124.892 -1.10968 -6.00432 0
M  V30 1386 H 126.306 -3.06349 -4.84586 0
M  V30 1387 H 124.703 -3.82333 -4.62538 0
M  V30 1388 H 125.773 -3.61966 -3.22658 0
M  V30 1389 N 127.117 1.15442 -1.07289 0
M  V30 1390 C 128.394 1.82306 -0.708792 0
M  V30 1391 C 128.774 1.94991 0.808807 0
M  V30 1392 O 128.122 1.50085 1.72298 0
M  V30 1393 C 128.332 3.18695 -1.42247 0
M  V30 1394 C 129.68 3.94341 -1.57417 0
M  V30 1395 O 130.704 3.28247 -1.38319 0
M  V30 1396 O 129.563 5.12839 -1.88834 0
M  V30 1397 H 126.657 0.787628 -0.252132 0
M  V30 1398 H 129.203 1.22559 -1.17377 0
M  V30 1399 H 127.975 3.04557 -2.45684 0
M  V30 1400 H 127.598 3.86128 -0.948223 0
M  V30 1401 N 128.595 0.856903 1.32268 0
M  V30 1402 C 129.527 0.260412 2.27716 0
M  V30 1403 C 130.54 -0.569137 1.52528 0
M  V30 1404 O 131.729 -0.39326 1.74114 0
M  V30 1405 C 128.829 -0.650477 3.32599 0
M  V30 1406 C 128.002 0.14372 4.37164 0
M  V30 1407 C 127.061 -0.69328 5.21613 0
M  V30 1408 O 126.087 -0.12599 5.69061 0
M  V30 1409 N 127.289 -2.00761 5.44679 0
M  V30 1410 H 130.054 1.08059 2.79541 0
M  V30 1411 H 127.615 0.717103 1.45152 0
M  V30 1412 H 129.607 -1.21581 3.86005 0
M  V30 1413 H 128.177 -1.37133 2.80915 0
M  V30 1414 H 127.397 0.890486 3.8401 0
M  V30 1415 H 128.685 0.68915 5.04111 0
M  V30 1416 H 128.083 -2.49181 5.07863 0
M  V30 1417 H 126.64 -2.52103 6.01072 0
M  V30 1418 N 130.073 -1.45103 0.615059 0
M  V30 1419 C 131.322 -2.01396 0.110718 0
M  V30 1420 C 131.635 -1.48834 -1.26916 0
M  V30 1421 O 132.841 -1.97152 -1.86664 0
M  V30 1422 C 131.297 -3.59599 0.14723 0
M  V30 1423 C 130.905 -4.21158 1.52743 0
M  V30 1424 C 132.649 -4.23428 -0.30148 0
M  V30 1425 C 130.556 -5.71535 1.51992 0
M  V30 1426 H 129.486 -0.753061 0.0376241 0
M  V30 1427 H 132.137 -1.66494 0.77149 0
M  V30 1428 H 130.519 -3.91724 -0.580339 0
M  V30 1429 H 131.693 -4.00594 2.2773 0
M  V30 1430 H 130.008 -3.69552 1.91886 0
M  V30 1431 H 132.605 -5.33703 -0.326392 0
M  V30 1432 H 132.948 -3.94629 -1.32565 0
M  V30 1433 H 133.481 -3.96047 0.373065 0
M  V30 1434 H 130.22 -6.05044 2.52193 0
M  V30 1435 H 129.74 -5.94268 0.81274 0
M  V30 1436 H 131.419 -6.34873 1.24681 0
M  V30 1437 N 131.551 -0.354651 -1.53558 0
M  V30 1438 C 132.514 0.484566 -2.24019 0
M  V30 1439 C 133.514 1.01861 -1.24422 0
M  V30 1440 O 134.704 0.906097 -1.4878 0
M  V30 1441 C 131.836 1.67615 -2.96847 0
M  V30 1442 H 133.029 -0.131843 -2.9961 0
M  V30 1443 H 130.582 -0.106165 -1.55939 0
M  V30 1444 H 131.317 2.33095 -2.25471 0
M  V30 1445 H 131.102 1.30029 -3.69912 0
M  V30 1446 H 132.592 2.27114 -3.50441 0
M  V30 1447 N 133.029 1.57378 -0.0835403 0
M  V30 1448 C 133.976 2.13384 0.879539 0
M  V30 1449 C 134.946 1.04936 1.28754 0
M  V30 1450 O 136.131 1.32662 1.37133 0
M  V30 1451 C 133.271 2.70932 2.13752 0
M  V30 1452 C 132.384 3.93575 1.7811 0
M  V30 1453 C 131.519 4.39326 2.98607 0
M  V30 1454 C 130.558 5.54587 2.59037 0
M  V30 1455 N 129.695 5.95243 3.72331 0
M  V30 1456 H 134.535 2.9537 0.395076 0
M  V30 1457 H 132.072 1.45953 0.183349 0
M  V30 1458 H 134.03 3.02411 2.87408 0
M  V30 1459 H 132.66 1.91693 2.59718 0
M  V30 1460 H 131.712 3.68483 0.94469 0
M  V30 1461 H 133.024 4.77258 1.45005 0
M  V30 1462 H 132.178 4.72528 3.80529 0
M  V30 1463 H 130.917 3.5452 3.34913 0
M  V30 1464 H 129.922 5.21024 1.75539 0
M  V30 1465 H 131.147 6.41133 2.23887 0
M  V30 1466 H 129.093 5.13385 4.08378 0
M  V30 1467 H 129.01 6.73694 3.43034 0
M  V30 1468 H 130.278 6.33072 4.54797 0
M  V30 1469 N 134.507 -0.190092 1.56449 0
M  V30 1470 C 135.754 -0.909705 1.80916 0
M  V30 1471 C 136.082 -1.83047 0.657583 0
M  V30 1472 O 135.337 -1.92428 -0.356356 0
M  V30 1473 C 135.636 -1.75382 3.1141 0
M  V30 1474 C 135.302 -0.983606 4.40041 0
M  V30 1475 C 133.964 -0.770967 4.74984 0
M  V30 1476 C 136.316 -0.442024 5.19322 0
M  V30 1477 C 133.644 -0.0053448 5.867 0
M  V30 1478 C 135.996 0.310412 6.31838 0
M  V30 1479 C 134.66 0.534023 6.6536 0
M  V30 1480 H 133.93 -0.332885 0.662019 0
M  V30 1481 H 136.577 -0.175762 1.90692 0
M  V30 1482 H 134.882 -2.55659 2.96893 0
M  V30 1483 H 136.579 -2.31331 3.27547 0
M  V30 1484 H 133.169 -1.15936 4.12622 0
M  V30 1485 H 137.353 -0.593693 4.92736 0
M  V30 1486 H 132.609 0.177825 6.11141 0
M  V30 1487 H 136.783 0.737419 6.92485 0
M  V30 1488 H 134.41 1.12918 7.51767 0
M  V30 1489 N 135.985 -1.50799 -0.457987 0
M  V30 1490 C 137.231 -1.63648 -1.20792 0
M  V30 1491 C 137.586 -0.338662 -1.89396 0
M  V30 1492 O 136.879 0.664291 -1.79716 0
M  V30 1493 C 137.073 -2.76358 -2.2663 0
M  V30 1494 C 136.902 -4.16974 -1.68411 0
M  V30 1495 C 135.672 -4.83199 -1.47807 0
M  V30 1496 C 137.87 -5.00774 -1.17176 0
M  V30 1497 N 135.852 -6.07991 -0.849692 0
M  V30 1498 C 137.223 -6.16397 -0.667403 0
M  V30 1499 C 139.278 -4.86452 -1.06155 0
M  V30 1500 C 137.981 -7.19272 -0.0636908 0
M  V30 1501 C 140.007 -5.89515 -0.471759 0
M  V30 1502 C 139.369 -7.04397 0.0221557 0
M  V30 1503 H 135.468 -0.652888 -0.43042 0
M  V30 1504 H 138.052 -1.87962 -0.507785 0
M  V30 1505 H 136.223 -2.53744 -2.94056 0
M  V30 1506 H 137.955 -2.78496 -2.93636 0
M  V30 1507 H 134.71 -4.40714 -1.73403 0
M  V30 1508 H 135.134 -6.74733 -0.553537 0
M  V30 1509 H 139.776 -3.97907 -1.42932 0
M  V30 1510 H 137.494 -8.07481 0.316253 0
M  V30 1511 H 141.08 -5.805 -0.388671 0
M  V30 1512 H 139.96 -7.82782 0.471375 0
M  V30 1513 N 137.463 0.71206 -1.40597 0
M  V30 1514 C 138.373 1.8562 -1.43466 0
M  V30 1515 C 139.389 1.70902 -0.326902 0
M  V30 1516 O 140.565 1.93105 -0.572043 0
M  V30 1517 C 137.63 3.21451 -1.29884 0
M  V30 1518 C 136.691 3.48398 -2.50833 0
M  V30 1519 C 135.924 4.77749 -2.3789 0
M  V30 1520 O 136.147 5.53089 -1.39459 0
M  V30 1521 O 135.081 5.05111 -3.27333 0
M  V30 1522 H 138.907 1.86155 -2.39958 0
M  V30 1523 H 136.492 0.86295 -1.21957 0
M  V30 1524 H 138.374 4.02579 -1.24531 0
M  V30 1525 H 137.049 3.21636 -0.364997 0
M  V30 1526 H 135.956 2.67265 -2.61763 0
M  V30 1527 H 137.289 3.53014 -3.4299 0
M  V30 1528 N 138.941 1.26152 0.944643 0
M  V30 1529 C 140.19 1.10883 1.68487 0
M  V30 1530 C 140.503 -0.348153 1.92477 0
M  V30 1531 O 141.709 -0.621459 2.64292 0
M  V30 1532 C 140.165 1.93624 3.03377 0
M  V30 1533 C 139.773 3.43875 2.87148 0
M  V30 1534 C 141.517 1.86954 3.81115 0
M  V30 1535 C 139.424 4.18875 4.1749 0
M  V30 1536 H 138.354 0.41135 0.631907 0
M  V30 1537 H 141.005 1.50433 1.05082 0
M  V30 1538 H 139.387 1.46904 3.67743 0
M  V30 1539 H 140.561 3.98338 2.31653 0
M  V30 1540 H 138.876 3.51744 2.22856 0
M  V30 1541 H 141.473 2.40275 4.77673 0
M  V30 1542 H 141.816 0.839518 4.07747 0
M  V30 1543 H 142.349 2.31477 3.23517 0
M  V30 1544 H 139.088 5.22332 3.96043 0
M  V30 1545 H 138.608 3.69193 4.72712 0
M  V30 1546 H 140.287 4.27134 4.85968 0
M  V30 1547 N 140.419 -1.14872 1.07899 0
M  V30 1548 C 141.351 -2.19425 0.662231 0
M  V30 1549 C 142.364 -1.60231 -0.288079 0
M  V30 1550 O 143.553 -1.78336 -0.076534 0
M  V30 1551 C 140.653 -3.38867 -0.0470695 0
M  V30 1552 C 139.826 -4.27597 0.920831 0
M  V30 1553 C 138.885 -5.25616 0.247805 0
M  V30 1554 O 137.911 -5.62189 0.890599 0
M  V30 1555 N 139.113 -5.71746 -1.00435 0
M  V30 1556 H 141.878 -2.55797 1.56166 0
M  V30 1557 H 139.439 -1.30042 0.964404 0
M  V30 1558 H 141.431 -4.01497 -0.50813 0
M  V30 1559 H 140.001 -3.00864 -0.848523 0
M  V30 1560 H 139.221 -3.61982 1.56087 0
M  V30 1561 H 140.509 -4.83748 1.57688 0
M  V30 1562 H 139.907 -5.44153 -1.54642 0
M  V30 1563 H 138.464 -6.36389 -1.40899 0
M  V30 1564 N 141.898 -0.863906 -1.31812 0
M  V30 1565 C 143.146 -0.470904 -1.96537 0
M  V30 1566 C 143.467 0.978771 -1.68657 0
M  V30 1567 O 142.737 1.6853 -0.998717 0
M  V30 1568 H 141.317 -0.171148 -0.72713 0
M  V30 1569 H 143.979 -1.10236 -1.60729 0
M  V30 1570 H 143.075 -0.623616 -3.05806 0
M  V30 1571 N 143.376 1.44774 -0.622745 0
M  V30 1572 C 144.601 2.06999 -0.128968 0
M  V30 1573 C 145.026 1.4617 1.1839 0
M  V30 1574 O 144.384 0.560007 1.72434 0
M  V30 1575 C 144.432 3.60595 -0.0188351 0
M  V30 1576 O 143.536 3.99398 1.02739 0
M  V30 1577 H 142.877 0.659047 -0.0809544 0
M  V30 1578 H 145.407 1.85784 -0.85705 0
M  V30 1579 H 145.417 4.07627 0.174476 0
M  V30 1580 H 144.092 4.04252 -0.977384 0
M  V30 1581 H 142.669 3.64011 0.809326 0
M  V30 1582 N 144.854 0.36279 1.53368 0
M  V30 1583 C 146.079 -0.231226 2.06107 0
M  V30 1584 C 146.504 -1.419 1.23474 0
M  V30 1585 O 145.862 -1.79524 0.253128 0
M  V30 1586 C 145.91 -0.605523 3.5548 0
M  V30 1587 O 145.014 -1.70312 3.7559 0
M  V30 1588 H 144.355 -0.034327 0.663112 0
M  V30 1589 H 146.885 0.522584 1.97814 0
M  V30 1590 H 146.895 -0.877314 3.98456 0
M  V30 1591 H 145.57 0.263004 4.15068 0
M  V30 1592 H 144.147 -1.4271 3.44512 0
M  V30 1593 N 146.332 -1.57332 0.0918853 0
M  V30 1594 C 147.262 -2.16872 -0.865371 0
M  V30 1595 C 148.243 -1.10118 -1.29646 0
M  V30 1596 O 149.428 -1.38242 -1.36392 0
M  V30 1597 C 146.558 -2.74649 -2.12569 0
M  V30 1598 C 145.512 -3.86747 -1.83333 0
M  V30 1599 C 144.838 -4.31212 -3.16166 0
M  V30 1600 C 146.138 -5.10089 -1.1228 0
M  V30 1601 H 147.832 -2.97114 -0.369307 0
M  V30 1602 H 145.378 -1.42918 -0.176194 0
M  V30 1603 H 147.331 -3.14952 -2.7997 0
M  V30 1604 H 146.055 -1.91657 -2.64452 0
M  V30 1605 H 144.714 -3.46978 -1.18331 0
M  V30 1606 H 144.362 -3.45115 -3.6593 0
M  V30 1607 H 144.062 -5.06788 -2.97388 0
M  V30 1608 H 145.586 -4.74146 -3.84731 0
M  V30 1609 H 147 -5.47582 -1.69785 0
M  V30 1610 H 145.397 -5.91073 -1.03693 0
M  V30 1611 H 146.467 -4.84786 -0.105041 0
M  V30 1612 N 147.81 0.181792 -1.56548 0
M  V30 1613 C 148.757 1.22521 -1.95595 0
M  V30 1614 C 149.727 1.4454 -0.818373 0
M  V30 1615 O 150.912 1.57454 -1.07763 0
M  V30 1616 C 148.052 2.56193 -2.31212 0
M  V30 1617 C 147.165 2.41641 -3.58097 0
M  V30 1618 C 146.3 3.68108 -3.82975 0
M  V30 1619 C 145.339 3.48445 -5.03242 0
M  V30 1620 N 144.476 4.66956 -5.24306 0
M  V30 1621 H 149.316 0.885226 -2.84548 0
M  V30 1622 H 146.853 0.425718 -1.40805 0
M  V30 1623 H 148.811 3.34088 -2.49882 0
M  V30 1624 H 147.441 2.88208 -1.45382 0
M  V30 1625 H 146.493 1.54976 -3.474 0
M  V30 1626 H 147.805 2.23052 -4.46149 0
M  V30 1627 H 146.959 4.54441 -4.01956 0
M  V30 1628 H 145.698 3.89666 -2.93278 0
M  V30 1629 H 144.703 2.60499 -4.8417 0
M  V30 1630 H 145.928 3.2832 -5.9446 0
M  V30 1631 H 143.874 4.88752 -4.37559 0
M  V30 1632 H 143.791 4.51242 -6.06561 0
M  V30 1633 H 145.059 5.54602 -5.47756 0
M  V30 1634 N 149.288 1.51039 0.449983 0
M  V30 1635 C 150.537 1.62317 1.19733 0
M  V30 1636 C 150.85 0.339101 1.92638 0
M  V30 1637 O 152.056 0.331069 2.69474 0
M  V30 1638 C 150.512 2.86608 2.17678 0
M  V30 1639 C 150.12 4.21972 1.50479 0
M  V30 1640 C 151.864 3.07239 2.92924 0
M  V30 1641 C 149.771 5.37426 2.46834 0
M  V30 1642 H 148.701 0.604532 0.450619 0
M  V30 1643 H 151.352 1.77494 0.465625 0
M  V30 1644 H 149.734 2.65037 2.94231 0
M  V30 1645 H 150.908 4.53878 0.795716 0
M  V30 1646 H 149.223 4.07117 0.874344 0
M  V30 1647 H 151.82 3.90668 3.65079 0
M  V30 1648 H 152.163 2.19807 3.5354 0
M  V30 1649 H 152.696 3.29091 2.23481 0
M  V30 1650 H 149.435 6.27079 1.90926 0
M  V30 1651 H 148.955 5.09912 3.15832 0
M  V30 1652 H 150.634 5.68862 3.08228 0
M  V30 1653 N 150.766 -0.704594 1.40972 0
M  V30 1654 C 152.177 -1.28418 1.3552 0
M  V30 1655 C 152.528 -1.96171 0.0339434 0
M  V30 1656 O 151.653 -1.98231 -0.867944 0
M  V30 1657 C 152.248 -2.33528 2.45459 0
M  V30 1658 C 150.807 -2.87085 2.43433 0
M  V30 1659 C 149.954 -1.61007 2.2577 0
M  V30 1660 H 152.905 -0.499963 1.50619 0
M  V30 1661 H 152.926 -3.14619 2.13998 0
M  V30 1662 H 152.438 -1.84187 3.41609 0
M  V30 1663 H 150.539 -3.40626 1.51013 0
M  V30 1664 H 150.652 -3.3813 3.39419 0
M  V30 1665 H 149.016 -1.86482 1.73483 0
M  V30 1666 H 149.799 -1.13675 3.23933 0
M  V30 1667 N 152.244 -1.26651 -0.937939 0
M  V30 1668 C 153.192 -1.08308 -2.05845 0
M  V30 1669 C 154.186 -0.0090757 -1.69398 0
M  V30 1670 O 155.392 -0.166007 -1.79233 0
M  V30 1671 H 151.767 -0.333416 -0.674046 0
M  V30 1672 H 153.738 -2.03261 -2.18467 0
M  V30 1673 C 152.487 -0.736229 -3.39816 0
M  V30 1674 H 151.81 -1.55453 -3.6834 0
M  V30 1675 H 153.25 -0.64769 -4.19024 0
M  V30 1676 C 151.709 0.558824 -3.32233 0
M  V30 1677 O 152.239 1.59621 -3.68624 0
M  V30 1678 N 150.445 0.550657 -2.85335 0
M  V30 1679 H 149.992 -0.293943 -2.55917 0
M  V30 1680 H 149.95 1.41726 -2.80644 0
M  V30 1681 N 153.722 1.14298 -1.08507 0
M  V30 1682 C 154.968 1.85633 -0.816581 0
M  V30 1683 C 155.301 1.82784 0.656021 0
M  V30 1684 O 154.576 1.25926 1.48233 0
M  V30 1685 C 154.859 3.34223 -1.34041 0
M  V30 1686 C 154.712 3.45639 -2.87843 0
M  V30 1687 C 156.031 4.29356 -0.9665 0
M  V30 1688 H 153.15 0.67402 -0.298104 0
M  V30 1689 H 155.792 1.34214 -1.34487 0
M  V30 1690 H 153.942 3.78144 -0.89104 0
M  V30 1691 H 155.614 3.10498 -3.41158 0
M  V30 1692 H 153.857 2.86817 -3.25451 0
M  V30 1693 H 154.528 4.50089 -3.19569 0
M  V30 1694 H 157.004 3.93457 -1.35391 0
M  V30 1695 H 155.88 5.3178 -1.3602 0
M  V30 1696 H 156.141 4.41919 0.126362 0
M  V30 1697 N 155.201 0.870884 1.31352 0
M  V30 1698 C 156.111 0.330783 2.32256 0
M  V30 1699 C 157.127 -0.559767 1.6475 0
M  V30 1700 O 158.303 -0.456263 1.96164 0
M  V30 1701 C 155.368 -0.458137 3.4366 0
M  V30 1702 C 154.429 0.460482 4.26823 0
M  V30 1703 C 153.662 -0.290881 5.32907 0
M  V30 1704 O 153.885 -1.51885 5.49806 0
M  V30 1705 O 152.819 0.351732 6.00871 0
M  V30 1706 H 156.645 1.16718 2.80376 0
M  V30 1707 H 154.23 0.634285 1.35267 0
M  V30 1708 H 156.112 -0.905343 4.1156 0
M  V30 1709 H 154.787 -1.27106 2.97701 0
M  V30 1710 H 153.694 0.956207 3.61673 0
M  V30 1711 H 155.027 1.23903 4.7635 0
M  V30 1712 N 156.679 -1.44442 0.630414 0
M  V30 1713 C 158.095 -1.56832 0.295973 0
M  V30 1714 C 158.295 -1.61806 -1.20088 0
M  V30 1715 O 157.351 -1.5607 -1.9849 0
M  V30 1716 C 158.664 -2.84031 0.987264 0
M  V30 1717 C 160.212 -2.97742 0.96534 0
M  V30 1718 C 160.687 -4.27743 1.63708 0
M  V30 1719 N 162.178 -4.34555 1.60364 0
M  V30 1720 C 162.913 -5.33862 2.09234 0
M  V30 1721 N 162.409 -6.39578 2.66292 0
M  V30 1722 N 164.202 -5.25366 1.99867 0
M  V30 1723 H 156.353 -1.39457 1.60205 0
M  V30 1724 H 158.616 -0.668237 0.672431 0
M  V30 1725 H 158.322 -2.86338 2.04215 0
M  V30 1726 H 158.196 -3.73534 0.524588 0
M  V30 1727 H 160.583 -2.94989 -0.0810639 0
M  V30 1728 H 160.664 -2.09589 1.4665 0
M  V30 1729 H 160.308 -4.31255 2.68293 0
M  V30 1730 H 160.238 -5.14752 1.11076 0
M  V30 1731 H 162.729 -3.58772 1.18705 0
M  V30 1732 H 163.042 -7.11637 3.01317 0
M  V30 1733 H 161.387 -6.40265 2.70343 0
M  V30 1734 H 164.578 -4.41688 1.55013 0
M  V30 1735 H 164.751 -6.02606 2.38265 0
M  V30 1736 N 158.157 -0.370918 -1.53173 0
M  V30 1737 C 159.104 0.473035 -2.259 0
M  V30 1738 C 160.074 1.07311 -1.26781 0
M  V30 1739 O 161.259 1.1046 -1.55574 0
M  V30 1740 C 158.399 1.60405 -3.05556 0
M  V30 1741 C 157.512 1.02863 -4.19575 0
M  V30 1742 C 156.647 2.12918 -4.86661 0
M  V30 1743 C 155.686 1.52869 -5.92704 0
M  V30 1744 N 154.823 2.56779 -6.53459 0
M  V30 1745 H 159.663 -0.153649 -2.97604 0
M  V30 1746 H 157.2 -0.0875946 -1.46839 0
M  V30 1747 H 159.158 2.27034 -3.50016 0
M  V30 1748 H 157.788 2.20131 -2.36097 0
M  V30 1749 H 156.84 0.252465 -3.79561 0
M  V30 1750 H 158.152 0.549642 -4.95762 0
M  V30 1751 H 157.306 2.87356 -5.34333 0
M  V30 1752 H 156.045 2.6417 -4.09958 0
M  V30 1753 H 155.05 0.769479 -5.44389 0
M  V30 1754 H 156.275 1.02435 -6.7133 0
M  V30 1755 H 154.221 3.07235 -5.79606 0
M  V30 1756 H 154.138 2.13583 -7.25202 0
M  V30 1757 H 155.406 3.30903 -7.05779 0
M  V30 1758 N 159.635 1.57281 -0.100228 0
M  V30 1759 C 160.884 1.93713 0.561984 0
M  V30 1760 C 161.197 0.984492 1.69018 0
M  V30 1761 O 162.403 1.24273 2.41389 0
M  V30 1762 C 160.859 3.4421 1.05106 0
M  V30 1763 C 160.467 4.47975 -0.0476628 0
M  V30 1764 C 162.211 3.89595 1.68571 0
M  V30 1765 C 160.118 5.89631 0.457055 0
M  V30 1766 H 159.048 0.723082 0.2137 0
M  V30 1767 H 161.699 1.82644 -0.177057 0
M  V30 1768 H 160.081 3.50449 1.84395 0
M  V30 1769 H 161.255 4.53385 -0.823333 0
M  V30 1770 H 159.57 4.1223 -0.587816 0
M  V30 1771 H 162.167 4.92832 2.07414 0
M  V30 1772 H 162.51 3.28526 2.55688 0
M  V30 1773 H 163.043 3.86078 0.958562 0
M  V30 1774 H 159.782 6.54411 -0.377616 0
M  V30 1775 H 159.302 5.87681 1.19962 0
M  V30 1776 H 160.981 6.40363 0.92437 0
M  V30 1777 N 161.113 -0.173488 1.56642 0
M  V30 1778 C 162.043 -1.2171 1.99271 0
M  V30 1779 C 163.024 -1.46289 0.867959 0
M  V30 1780 O 164.209 -1.5766 1.13388 0
M  V30 1781 C 161.339 -2.55651 2.35074 0
M  V30 1782 C 160.293 -2.45645 3.50489 0
M  V30 1783 C 159.619 -3.84056 3.72028 0
M  V30 1784 C 160.919 -1.96302 4.84007 0
M  V30 1785 H 162.613 -0.86275 2.867 0
M  V30 1786 H 160.159 -0.413571 1.37933 0
M  V30 1787 H 162.112 -3.2886 2.63494 0
M  V30 1788 H 160.836 -2.92869 1.44552 0
M  V30 1789 H 159.495 -1.7489 3.22194 0
M  V30 1790 H 159.143 -4.18664 2.788 0
M  V30 1791 H 158.843 -3.7823 4.49684 0
M  V30 1792 H 160.367 -4.58854 4.02846 0
M  V30 1793 H 161.781 -2.59284 5.11317 0
M  V30 1794 H 160.178 -2.01429 5.65284 0
M  V30 1795 H 161.248 -0.917226 4.76146 0
M  V30 1796 N 162.591 -1.51276 -0.441967 0
M  V30 1797 C 163.868 -1.54252 -1.20273 0
M  V30 1798 C 164.248 -0.30408 -2.08898 0
M  V30 1799 O 163.596 0.711084 -2.17154 0
M  V30 1800 C 163.806 -2.85406 -2.00859 0
M  V30 1801 C 165.154 -3.37181 -2.58059 0
M  V30 1802 O 166.178 -2.86925 -2.11074 0
M  V30 1803 O 165.037 -4.24858 -3.43741 0
M  V30 1804 H 162.131 -0.619969 -0.547328 0
M  V30 1805 H 164.677 -1.63586 -0.451413 0
M  V30 1806 H 163.449 -3.67003 -1.35736 0
M  V30 1807 H 163.072 -2.79213 -2.83065 0
M  V30 1808 N 164.069 0.697108 -1.41344 0
M  V30 1809 C 164.999 1.82353 -1.45841 0
M  V30 1810 C 165.98 1.67115 -0.317247 0
M  V30 1811 O 167.165 1.86871 -0.528474 0
M  V30 1812 C 164.295 3.20476 -1.33838 0
M  V30 1813 C 163.249 3.50415 -2.4575 0
M  V30 1814 C 162.575 4.87878 -2.18813 0
M  V30 1815 C 163.875 3.49546 -3.88091 0
M  V30 1816 H 165.569 1.78846 -2.40113 0
M  V30 1817 H 163.115 0.859028 -1.15571 0
M  V30 1818 H 165.068 3.98988 -1.35596 0
M  V30 1819 H 163.792 3.24604 -0.360498 0
M  V30 1820 H 162.451 2.74253 -2.43271 0
M  V30 1821 H 162.099 4.8863 -1.19371 0
M  V30 1822 H 161.799 5.08875 -2.93803 0
M  V30 1823 H 163.323 5.68702 -2.22284 0
M  V30 1824 H 164.737 4.18066 -3.92293 0
M  V30 1825 H 163.134 3.82075 -4.62751 0
M  V30 1826 H 164.204 2.48552 -4.16353 0
M  V30 1827 N 165.547 1.27147 0.931209 0
M  V30 1828 C 166.777 1.15914 1.71019 0
M  V30 1829 C 167.185 -0.287112 1.87009 0
M  V30 1830 O 166.528 -1.20761 1.38429 0
M  V30 1831 C 166.59 1.76647 3.13107 0
M  V30 1832 C 166.254 3.25807 3.20467 0
M  V30 1833 C 167.251 4.22489 3.02983 0
M  V30 1834 C 164.936 3.66452 3.43538 0
M  V30 1835 C 166.93 5.57794 3.08454 0
M  V30 1836 C 164.617 5.01888 3.48643 0
M  V30 1837 C 165.615 5.97369 3.31119 0
M  V30 1838 O 165.303 7.30337 3.35952 0
M  V30 1839 H 165.035 0.404062 0.54195 0
M  V30 1840 H 167.589 1.68457 1.17521 0
M  V30 1841 H 165.819 1.18578 3.68071 0
M  V30 1842 H 167.508 1.60179 3.72958 0
M  V30 1843 H 168.274 3.92425 2.85004 0
M  V30 1844 H 164.153 2.92611 3.5623 0
M  V30 1845 H 167.697 6.32298 2.94694 0
M  V30 1846 H 163.594 5.31609 3.66145 0
M  V30 1847 H 164.362 7.38739 3.5243 0
M  V30 1848 N 167.025 -1.13721 1.09112 0
M  V30 1849 C 168.25 -1.89314 0.847053 0
M  V30 1850 C 168.675 -1.78416 -0.595774 0
M  V30 1851 O 168.033 -1.12942 -1.41823 0
M  V30 1852 C 168.081 -3.3701 1.28284 0
M  V30 1853 O 167.185 -4.10054 0.439267 0
M  V30 1854 H 166.526 -0.588745 0.307044 0
M  V30 1855 H 169.056 -1.43902 1.45442 0
M  V30 1856 H 169.066 -3.87834 1.26683 0
M  V30 1857 H 167.741 -3.4426 2.33363 0
M  V30 1858 H 166.318 -3.69266 0.519312 0
M  V30 1859 N 168.503 -0.877838 -1.30888 0
M  V30 1860 C 169.433 -0.35534 -2.3078 0
M  V30 1861 C 170.414 0.557994 -1.60687 0
M  V30 1862 O 171.599 0.473355 -1.88343 0
M  V30 1863 C 168.729 0.437221 -3.44537 0
M  V30 1864 C 167.683 -0.383715 -4.26276 0
M  V30 1865 C 167.009 0.535014 -5.32017 0
M  V30 1866 C 168.309 -1.62201 -4.96476 0
M  V30 1867 H 170.003 -1.19007 -2.74732 0
M  V30 1868 H 167.549 -0.573698 -1.32078 0
M  V30 1869 H 169.502 0.813334 -4.13477 0
M  V30 1870 H 168.226 1.30553 -2.99372 0
M  V30 1871 H 166.885 -0.741874 -3.59015 0
M  V30 1872 H 166.533 1.40083 -4.831 0
M  V30 1873 H 166.233 -0.0104211 -5.87599 0
M  V30 1874 H 167.757 0.907799 -6.03814 0
M  V30 1875 H 169.171 -1.31689 -5.5797 0
M  V30 1876 H 167.568 -2.10711 -5.61891 0
M  V30 1877 H 168.638 -2.37044 -4.23011 0
M  V30 1878 N 169.982 1.44106 -0.638065 0
M  V30 1879 C 171.207 2.0685 -0.150916 0
M  V30 1880 C 171.632 1.47417 1.16833 0
M  V30 1881 O 170.99 0.578264 1.71831 0
M  V30 1882 C 171.038 3.60555 -0.05708 0
M  V30 1883 O 170.142 4.00465 0.984972 0
M  V30 1884 H 169.483 0.658151 -0.0879399 0
M  V30 1885 H 172.013 1.84865 -0.876707 0
M  V30 1886 H 172.023 4.07789 0.131232 0
M  V30 1887 H 170.698 4.03193 -1.02021 0
M  V30 1888 H 169.275 3.64849 0.770672 0
M  V30 1889 N 171.46 0.379036 1.52974 0
M  V30 1890 C 172.407 -0.461048 2.26148 0
M  V30 1891 C 173.377 -1.06637 1.27349 0
M  V30 1892 O 174.562 -1.09633 1.56157 0
M  V30 1893 C 171.702 -1.58782 3.06402 0
M  V30 1894 C 170.815 -1.00636 4.20115 0
M  V30 1895 C 169.95 -2.10334 4.87784 0
M  V30 1896 C 168.989 -1.49724 5.93506 0
M  V30 1897 N 168.126 -2.5331 6.54812 0
M  V30 1898 H 172.966 0.169429 2.97518 0
M  V30 1899 H 170.503 0.0953806 1.4679 0
M  V30 1900 H 172.461 -2.25174 3.51215 0
M  V30 1901 H 171.091 -2.18876 2.37261 0
M  V30 1902 H 170.143 -0.232332 3.7969 0
M  V30 1903 H 171.455 -0.523343 4.96047 0
M  V30 1904 H 170.609 -2.84519 5.35849 0
M  V30 1905 H 169.348 -2.61992 4.11353 0
M  V30 1906 H 168.353 -0.740598 5.44789 0
M  V30 1907 H 169.578 -0.988732 6.71864 0
M  V30 1908 H 167.524 -3.04156 5.81227 0
M  V30 1909 H 167.441 -2.09734 7.26325 0
M  V30 1910 H 168.709 -3.27155 7.07524 0
M  V30 1911 N 172.938 -1.57226 0.108567 0
M  V30 1912 C 174.187 -1.94008 -0.551703 0
M  V30 1913 C 174.5 -0.993442 -1.68494 0
M  V30 1914 O 175.706 -1.25551 -2.40726 0
M  V30 1915 C 174.162 -3.44763 -1.03279 0
M  V30 1916 C 173.77 -4.47943 0.0714193 0
M  V30 1917 C 175.514 -3.90483 -1.66503 0
M  V30 1918 C 173.421 -5.89865 -0.425779 0
M  V30 1919 H 172.351 -0.724206 -0.209863 0
M  V30 1920 H 175.002 -1.82547 0.186741 0
M  V30 1921 H 173.384 -3.51422 -1.82533 0
M  V30 1922 H 174.558 -4.52942 0.847365 0
M  V30 1923 H 172.873 -4.11913 0.609669 0
M  V30 1924 H 175.47 -4.93925 -2.04798 0
M  V30 1925 H 175.813 -3.29877 -2.53942 0
M  V30 1926 H 176.346 -3.86581 -0.938074 0
M  V30 1927 H 173.085 -6.54202 0.412316 0
M  V30 1928 H 172.605 -5.88309 -1.16843 0
M  V30 1929 H 174.284 -6.40844 -0.890397 0
M  V30 1930 N 174.416 0.165178 -1.56732 0
M  V30 1931 C 175.662 0.882112 -1.82611 0
M  V30 1932 C 175.995 1.81628 -0.687378 0
M  V30 1933 O 175.27 1.92009 0.310267 0
M  V30 1934 C 175.553 1.67245 -3.18906 0
M  V30 1935 C 175.406 0.760987 -4.43316 0
M  V30 1936 C 176.725 2.63884 -3.52212 0
M  V30 1937 H 173.844 0.319242 -0.664269 0
M  V30 1938 H 176.486 0.148052 -1.89422 0
M  V30 1939 H 174.636 2.29824 -3.1323 0
M  V30 1940 H 176.308 0.147596 -4.61064 0
M  V30 1941 H 174.551 0.0694102 -4.33744 0
M  V30 1942 H 175.222 1.34962 -5.35247 0
M  V30 1943 H 177.698 2.11429 -3.58381 0
M  V30 1944 H 176.574 3.16245 -4.48643 0
M  V30 1945 H 176.835 3.44377 -2.77231 0
M  V30 1946 N 175.894 1.51508 0.433938 0
M  V30 1947 C 177.143 1.63578 1.18005 0
M  V30 1948 C 177.456 0.359514 1.92268 0
M  V30 1949 O 178.662 0.359632 2.69108 0
M  V30 1950 C 177.118 2.88901 2.14626 0
M  V30 1951 C 176.726 4.23544 1.45995 0
M  V30 1952 C 178.47 3.10328 2.89649 0
M  V30 1953 C 176.377 5.40014 2.4112 0
M  V30 1954 H 175.307 0.609277 0.444182 0
M  V30 1955 H 177.958 1.77978 0.446773 0
M  V30 1956 H 176.34 2.68142 2.91403 0
M  V30 1957 H 177.514 4.54696 0.747532 0
M  V30 1958 H 175.829 4.08021 0.831115 0
M  V30 1959 H 178.426 3.94518 3.60915 0
M  V30 1960 H 178.769 2.23544 3.51189 0
M  V30 1961 H 179.302 3.31443 2.19978 0
M  V30 1962 H 176.041 6.29068 1.84264 0
M  V30 1963 H 175.561 5.13233 3.10406 0
M  V30 1964 H 177.24 5.72099 3.02177 0
M  V30 1965 N 177.372 -0.689602 1.41712 0
M  V30 1966 C 178.282 -1.83314 1.46401 0
M  V30 1967 C 179.298 -1.7036 0.35405 0
M  V30 1968 O 180.474 -1.92171 0.602692 0
M  V30 1969 C 177.539 -3.19344 1.34982 0
M  V30 1970 C 176.6 -3.44363 2.56344 0
M  V30 1971 C 175.833 -4.73904 2.45461 0
M  V30 1972 O 176.056 -5.508 1.48241 0
M  V30 1973 O 174.99 -4.99839 3.35328 0
M  V30 1974 H 178.816 -1.82314 2.42889 0
M  V30 1975 H 176.401 -0.843438 1.23315 0
M  V30 1976 H 178.283 -4.00547 1.3092 0
M  V30 1977 H 176.958 -3.21014 0.41612 0
M  V30 1978 H 175.865 -2.63067 2.65982 0
M  V30 1979 H 177.198 -3.47512 3.48563 0
M  V30 1980 N 178.85 -1.27639 -0.924453 0
M  V30 1981 C 179.76 -1.12466 -2.05885 0
M  V30 1982 C 180.776 -0.053869 -1.73917 0
M  V30 1983 O 181.952 -0.261012 -1.99702 0
M  V30 1984 C 179.017 -0.776768 -3.37886 0
M  V30 1985 C 178.078 -1.92878 -3.83532 0
M  V30 1986 C 177.311 -1.59739 -5.09234 0
M  V30 1987 O 177.534 -0.506782 -5.68144 0
M  V30 1988 O 176.468 -2.43761 -5.50331 0
M  V30 1989 H 180.294 -2.07671 -2.21599 0
M  V30 1990 H 177.879 -1.06857 -1.04413 0
M  V30 1991 H 179.761 -0.596229 -4.17161 0
M  V30 1992 H 178.436 0.145732 -3.23372 0
M  V30 1993 H 177.343 -2.1644 -3.0513 0
M  V30 1994 H 178.676 -2.8316 -4.02593 0
M  V30 1995 N 180.328 1.1314 -1.09713 0
M  V30 1996 C 181.576 1.84119 -0.833338 0
M  V30 1997 C 181.897 1.84097 0.642904 0
M  V30 1998 O 181.167 1.29881 1.46655 0
M  V30 1999 H 179.747 0.681766 -0.305293 0
M  V30 2000 H 182.409 1.37038 -1.38588 0
M  V30 2001 H 181.505 2.88543 -1.18951 0
M  V30 2002 N 181.806 0.884767 1.30421 0
M  V30 2003 C 183.054 0.502112 1.95763 0
M  V30 2004 C 183.375 -0.951815 1.70192 0
M  V30 2005 O 182.645 -1.6692 1.0254 0
M  V30 2006 H 181.225 0.182694 0.724315 0
M  V30 2007 H 183.887 1.1278 1.58955 0
M  V30 2008 H 182.983 0.672188 3.04775 0
M  V30 2009 N 183.284 -1.43765 0.645699 0
M  V30 2010 C 184.514 -2.05953 0.163318 0
M  V30 2011 C 184.922 -1.48432 -1.17322 0
M  V30 2012 O 184.265 -0.607295 -1.73371 0
M  V30 2013 C 184.327 -3.59499 -0.0103065 0
M  V30 2014 C 183.991 -4.39563 1.25035 0
M  V30 2015 C 184.988 -4.72108 2.17739 0
M  V30 2016 C 182.673 -4.79697 1.48983 0
M  V30 2017 C 184.667 -5.43688 3.3269 0
M  V30 2018 C 182.354 -5.51023 2.64229 0
M  V30 2019 C 183.352 -5.8294 3.55908 0
M  V30 2020 O 183.04 -6.5281 4.69142 0
M  V30 2021 H 182.772 -0.670798 0.0836986 0
M  V30 2022 H 185.326 -1.85384 0.884407 0
M  V30 2023 H 183.556 -3.78613 -0.78669 0
M  V30 2024 H 185.245 -4.03408 -0.449087 0
M  V30 2025 H 186.011 -4.41627 2.00476 0
M  V30 2026 H 181.89 -4.54266 0.785078 0
M  V30 2027 H 185.434 -5.68517 4.04269 0
M  V30 2028 H 181.331 -5.8092 2.81429 0
M  V30 2029 H 182.099 -6.71288 4.6831 0
M  V30 2030 N 184.763 -0.387143 -1.52771 0
M  V30 2031 C 185.673 0.456442 -2.30117 0
M  V30 2032 C 186.689 1.07342 -1.36944 0
M  V30 2033 O 187.865 1.07971 -1.70013 0
M  V30 2034 C 184.93 1.56957 -3.09136 0
M  V30 2035 C 183.991 0.977916 -4.18014 0
M  V30 2036 C 183.224 2.038 -4.93256 0
M  V30 2037 O 183.447 3.25271 -4.68567 0
M  V30 2038 O 182.381 1.6565 -5.78657 0
M  V30 2039 H 186.207 -0.17359 -3.03203 0
M  V30 2040 H 183.792 -0.150919 -1.48636 0
M  V30 2041 H 185.674 2.21628 -3.58412 0
M  V30 2042 H 184.349 2.18461 -2.38865 0
M  V30 2043 H 183.256 0.294525 -3.72939 0
M  V30 2044 H 184.589 0.407128 -4.90513 0
M  V30 2045 N 186.241 1.57166 -0.116904 0
M  V30 2046 C 187.204 2.14039 0.819742 0
M  V30 2047 C 188.204 1.07477 1.19605 0
M  V30 2048 O 189.394 1.33263 1.1219 0
M  V30 2049 C 186.526 2.67891 2.10826 0
M  V30 2050 H 187.719 2.98128 0.325511 0
M  V30 2051 H 185.272 1.55739 0.132312 0
M  V30 2052 H 186.007 1.87384 2.64685 0
M  V30 2053 H 185.792 3.45823 1.84793 0
M  V30 2054 H 187.282 3.11809 2.77785 0
M  V30 2055 N 187.719 -0.156864 1.56817 0
M  V30 2056 C 188.968 -0.869504 1.81996 0
M  V30 2057 C 189.281 -1.82777 0.696545 0
M  V30 2058 O 190.487 -2.58384 0.833658 0
M  V30 2059 C 188.943 -1.59679 3.22538 0
M  V30 2060 C 188.551 -0.681431 4.42787 0
M  V30 2061 C 190.295 -2.2968 3.56997 0
M  V30 2062 C 188.202 -1.40978 5.74351 0
M  V30 2063 H 187.132 -0.328438 0.678708 0
M  V30 2064 H 189.783 -0.1223 1.83092 0
M  V30 2065 H 188.165 -2.38927 3.158 0
M  V30 2066 H 189.339 0.0751166 4.60739 0
M  V30 2067 H 187.654 -0.0903431 4.16302 0
M  V30 2068 H 190.251 -2.84794 4.52544 0
M  V30 2069 H 190.594 -3.05707 2.82576 0
M  V30 2070 H 191.127 -1.57361 3.65352 0
M  V30 2071 H 187.866 -0.691561 6.51842 0
M  V30 2072 H 187.386 -2.13929 5.60352 0
M  V30 2073 H 189.065 -1.95337 6.16808 0
M  V30 2074 N 189.197 -1.51736 -0.425897 0
M  V30 2075 C 190.437 -1.66636 -1.18371 0
M  V30 2076 C 190.801 -0.379854 -1.88205 0
M  V30 2077 O 192.002 -0.404758 -2.65735 0
M  V30 2078 C 190.273 -2.84382 -2.16476 0
M  V30 2079 S 191.832 -3.19673 -3.0059 0
M  V30 2080 H 188.65 -0.586957 -0.40125 0
M  V30 2081 H 191.252 -1.89679 -0.473518 0
M  V30 2082 H 189.956 -3.76281 -1.63831 0
M  V30 2083 H 189.487 -2.63562 -2.92059 0
M  V30 2084 H 191.502 -2.66994 -4.18245 0
M  V30 2085 N 190.675 0.682077 -1.42076 0
M  V30 2086 C 191.622 1.79578 -1.44984 0
M  V30 2087 C 192.592 1.6332 -0.302614 0
M  V30 2088 O 193.777 1.83978 -0.505633 0
M  V30 2089 C 190.917 3.1756 -1.35091 0
M  V30 2090 C 190.03 3.45156 -2.59791 0
M  V30 2091 C 189.165 4.72826 -2.42093 0
M  V30 2092 C 188.204 4.93433 -3.62202 0
M  V30 2093 N 187.341 6.12338 -3.43491 0
M  V30 2094 H 192.181 1.76427 -2.40161 0
M  V30 2095 H 189.718 0.861376 -1.19242 0
M  V30 2096 H 191.676 3.97287 -1.27354 0
M  V30 2097 H 190.306 3.19854 -0.435133 0
M  V30 2098 H 189.358 2.59736 -2.77923 0
M  V30 2099 H 190.67 3.5628 -3.49094 0
M  V30 2100 H 189.824 5.60631 -2.319 0
M  V30 2101 H 188.563 4.63973 -1.50268 0
M  V30 2102 H 187.568 4.04073 -3.72834 0
M  V30 2103 H 188.793 5.04136 -4.54998 0
M  V30 2104 H 186.739 6.04672 -2.54377 0
M  V30 2105 H 186.656 6.2429 -4.26377 0
M  V30 2106 H 187.924 7.02841 -3.37097 0
M  V30 2107 N 192.153 1.28127 0.917671 0
M  V30 2108 C 193.43 1.05761 1.64542 0
M  V30 2109 C 193.81 -0.404344 2.07191 0
M  V30 2110 O 193.158 -1.38963 1.81388 0
M  V30 2111 C 193.368 2.02857 2.83989 0
M  V30 2112 C 194.716 2.32786 3.551 0
M  V30 2113 O 195.74 2.0091 2.94132 0
M  V30 2114 O 194.599 2.87169 4.64969 0
M  V30 2115 H 191.693 0.403916 0.721652 0
M  V30 2116 H 194.239 1.39431 0.967322 0
M  V30 2117 H 193.011 3.01407 2.49538 0
M  V30 2118 H 192.634 1.69809 3.59514 0
M  V30 2119 N 193.631 -1.12557 1.10312 0
M  V30 2120 C 195.047 -1.36036 0.834649 0
M  V30 2121 C 195.247 -1.93946 -0.546539 0
M  V30 2122 O 194.303 -2.16484 -1.29966 0
M  V30 2123 C 195.616 -2.30312 1.9333 0
M  V30 2124 C 197.164 -2.43906 1.9616 0
M  V30 2125 C 197.639 -3.41496 3.05195 0
M  V30 2126 N 199.13 -3.49053 3.04494 0
M  V30 2127 C 199.865 -4.24471 3.85502 0
M  V30 2128 N 199.361 -5.02966 4.76442 0
M  V30 2129 N 201.154 -4.19864 3.73725 0
M  V30 2130 H 193.305 -0.733246 1.99342 0
M  V30 2131 H 195.568 -0.385234 0.866198 0
M  V30 2132 H 195.274 -1.94933 2.92735 0
M  V30 2133 H 195.148 -3.30421 1.81939 0
M  V30 2134 H 197.535 -2.78567 0.973886 0
M  V30 2135 H 197.616 -1.4369 2.11629 0
M  V30 2136 H 197.26 -3.07565 4.04186 0
M  V30 2137 H 197.19 -4.41539 2.86968 0
M  V30 2138 H 199.681 -2.93053 2.38596 0
M  V30 2139 H 199.994 -5.57846 5.34815 0
M  V30 2140 H 198.339 -5.02167 4.80472 0
M  V30 2141 H 201.53 -3.57623 3.02032 0
M  V30 2142 H 201.703 -4.78386 4.37093 0
M  V30 2143 N 195.109 -0.891671 -1.2995 0
M  V30 2144 C 196.525 -0.58662 -1.48428 0
M  V30 2145 C 196.725 0.873951 -1.81561 0
M  V30 2146 O 195.781 1.65471 -1.90724 0
M  V30 2147 C 197.094 -1.50553 -2.60296 0
M  V30 2148 C 198.642 -1.50988 -2.74175 0
M  V30 2149 C 199.117 -2.41488 -3.89163 0
M  V30 2150 N 200.608 -2.39489 -3.96483 0
M  V30 2151 C 201.343 -3.06223 -4.84784 0
M  V30 2152 N 200.839 -3.82206 -5.77833 0
M  V30 2153 N 202.632 -2.95421 -4.78208 0
M  V30 2154 H 194.783 -1.83644 -1.06718 0
M  V30 2155 H 197.046 -0.786455 -0.529332 0
M  V30 2156 H 196.752 -2.54581 -2.42654 0
M  V30 2157 H 196.626 -1.22008 -3.56923 0
M  V30 2158 H 199.013 -0.47708 -2.91218 0
M  V30 2159 H 199.094 -1.83567 -1.78148 0
M  V30 2160 H 198.738 -3.44857 -3.72876 0
M  V30 2161 H 198.668 -2.06222 -4.84541 0
M  V30 2162 H 201.159 -1.84278 -3.29924 0
M  V30 2163 H 201.472 -4.302 -6.41988 0
M  V30 2164 H 199.817 -3.86313 -5.77743 0
M  V30 2165 H 203.008 -2.35581 -4.04499 0
M  V30 2166 H 203.181 -3.47704 -5.46814 0
M  V30 2167 N 196.587 1.43421 -0.653314 0
M  V30 2168 C 197.833 2.02641 -0.175593 0
M  V30 2169 C 198.188 1.5062 1.19713 0
M  V30 2170 O 197.481 0.689697 1.78756 0
M  V30 2171 C 197.675 3.57176 -0.126623 0
M  V30 2172 C 197.504 4.24191 -1.49306 0
M  V30 2173 C 196.274 4.60257 -2.08547 0
M  V30 2174 C 198.472 4.53193 -2.43148 0
M  V30 2175 N 196.454 5.12345 -3.38194 0
M  V30 2176 C 197.825 5.06601 -3.57429 0
M  V30 2177 C 199.88 4.35161 -2.41949 0
M  V30 2178 C 198.583 5.43875 -4.70736 0
M  V30 2179 C 200.609 4.73498 -3.54336 0
M  V30 2180 C 199.971 5.27039 -4.67343 0
M  V30 2181 H 196.07 0.77441 -0.108686 0
M  V30 2182 H 198.654 1.74596 -0.861638 0
M  V30 2183 H 196.825 3.84784 0.528766 0
M  V30 2184 H 198.557 4.03078 0.36198 0
M  V30 2185 H 195.312 4.45302 -1.61255 0
M  V30 2186 H 195.736 5.42842 -4.04538 0
M  V30 2187 H 200.378 3.9304 -1.55818 0
M  V30 2188 H 198.096 5.8494 -5.57558 0
M  V30 2189 H 201.682 4.61241 -3.5461 0
M  V30 2190 H 200.562 5.56153 -5.52868 0
M  V30 2191 N 198.065 0.39524 1.52563 0
M  V30 2192 C 199.028 -0.425001 2.25225 0
M  V30 2193 C 200.028 -0.985266 1.27079 0
M  V30 2194 O 201.218 -0.866332 1.5113 0
M  V30 2195 C 198.35 -1.59686 3.01186 0
M  V30 2196 H 199.543 0.211233 2.99155 0
M  V30 2197 H 197.096 0.147472 1.55603 0
M  V30 2198 H 197.831 -2.27035 2.31572 0
M  V30 2199 H 197.616 -1.20176 3.73229 0
M  V30 2200 H 199.106 -2.17743 3.5634 0
M  V30 2201 N 199.544 -1.57102 0.125237 0
M  V30 2202 C 200.96 -1.57915 -0.231322 0
M  V30 2203 C 201.16 -1.13833 -1.66266 0
M  V30 2204 O 200.216 -0.828581 -2.38518 0
M  V30 2205 C 201.529 -3.00699 0.00766489 0
M  V30 2206 C 203.077 -3.12947 -0.0577483 0
M  V30 2207 C 203.552 -4.57742 0.153626 0
M  V30 2208 N 205.043 -4.63092 0.0998073 0
M  V30 2209 C 205.778 -5.72905 0.238174 0
M  V30 2210 N 205.274 -6.91445 0.433057 0
M  V30 2211 N 207.067 -5.6182 0.177308 0
M  V30 2212 H 199.218 -1.84055 1.06007 0
M  V30 2213 H 201.481 -0.850905 0.417929 0
M  V30 2214 H 201.187 -3.3726 0.997431 0
M  V30 2215 H 201.061 -3.70236 -0.721452 0
M  V30 2216 H 203.448 -2.7624 -1.03804 0
M  V30 2217 H 203.529 -2.4594 0.70335 0
M  V30 2218 H 203.173 -4.95149 1.13092 0
M  V30 2219 H 203.103 -5.22848 -0.627534 0
M  V30 2220 H 205.594 -3.77871 -0.047051 0
M  V30 2221 H 205.907 -7.70985 0.529332 0
M  V30 2222 H 204.252 -6.93415 0.469109 0
M  V30 2223 H 207.443 -4.68093 0.0259748 0
M  V30 2224 H 207.616 -6.47357 0.288582 0
M  V30 2225 N 201.022 0.148545 -1.56898 0
M  V30 2226 C 202.268 0.862694 -1.83536 0
M  V30 2227 C 202.601 1.80889 -0.706604 0
M  V30 2228 O 201.876 1.92328 0.289885 0
M  V30 2229 C 202.159 1.63853 -3.20662 0
M  V30 2230 C 202.012 0.713925 -4.44098 0
M  V30 2231 C 203.331 2.60133 -3.54991 0
M  V30 2232 H 200.45 0.312179 -0.667618 0
M  V30 2233 H 203.092 0.127953 -1.89569 0
M  V30 2234 H 201.242 2.26489 -3.1565 0
M  V30 2235 H 202.914 0.098686 -4.61194 0
M  V30 2236 H 201.157 0.0234019 -4.33794 0
M  V30 2237 H 201.828 1.29278 -5.36648 0
M  V30 2238 H 204.304 2.07616 -3.60603 0
M  V30 2239 H 203.18 3.11468 -4.51972 0
M  V30 2240 H 203.441 3.41417 -2.80868 0
M  V30 2241 N 202.5 1.5196 0.417844 0
M  V30 2242 C 203.463 1.74065 1.49111 0
M  V30 2243 C 204.463 0.610537 1.48758 0
M  V30 2244 O 205.653 0.87832 1.50437 0
M  V30 2245 C 202.785 1.81502 2.88565 0
M  V30 2246 H 203.978 2.69869 1.30807 0
M  V30 2247 H 201.531 1.42244 0.647785 0
M  V30 2248 H 202.266 0.875813 3.1225 0
M  V30 2249 H 202.051 2.63651 2.90225 0
M  V30 2250 H 203.541 2.00376 3.66387 0
M  V30 2251 N 203.978 -0.674533 1.42435 0
M  V30 2252 C 204.91 -1.80005 1.41883 0
M  V30 2253 C 205.923 -1.59667 0.31787 0
M  V30 2254 O 207.112 -1.68781 0.580973 0
M  V30 2255 C 204.212 -3.17114 1.19549 0
M  V30 2256 C 203.385 -3.64299 2.42084 0
M  V30 2257 C 202.444 -4.80142 2.15291 0
M  V30 2258 O 201.47 -4.90673 2.88493 0
M  V30 2259 N 202.672 -5.68869 1.1562 0
M  V30 2260 H 205.437 -1.80964 2.38898 0
M  V30 2261 H 202.998 -0.857633 1.37318 0
M  V30 2262 H 204.99 -3.92267 0.995417 0
M  V30 2263 H 203.56 -3.11053 0.310569 0
M  V30 2264 H 202.78 -2.79822 2.77657 0
M  V30 2265 H 204.068 -3.92567 3.23679 0
M  V30 2266 H 203.466 -5.63012 0.550765 0
M  V30 2267 H 202.023 -6.43833 1.016 0
M  V30 2268 N 205.456 -1.28612 -0.910864 0
M  V30 2269 C 206.872 -1.06381 -1.18976 0
M  V30 2270 C 207.072 0.191998 -2.00583 0
M  V30 2271 O 206.128 0.892869 -2.36187 0
M  V30 2272 C 207.441 -2.31295 -1.92154 0
M  V30 2273 C 208.989 -2.36503 -2.05025 0
M  V30 2274 C 209.464 -3.61191 -2.81612 0
M  V30 2275 N 210.955 -3.61847 -2.89172 0
M  V30 2276 C 211.69 -4.55004 -3.4894 0
M  V30 2277 N 211.186 -5.58482 -4.09963 0
M  V30 2278 N 212.979 -4.42594 -3.46506 0
M  V30 2279 H 205.13 -2.09221 -0.366094 0
M  V30 2280 H 207.393 -0.921003 -0.224629 0
M  V30 2281 H 207.099 -3.228 -1.39618 0
M  V30 2282 H 206.973 -2.37934 -2.9269 0
M  V30 2283 H 209.36 -1.45494 -2.5674 0
M  V30 2284 H 209.441 -2.33857 -1.03657 0
M  V30 2285 H 209.085 -4.52545 -2.30576 0
M  V30 2286 H 209.015 -3.61092 -3.83302 0
M  V30 2287 H 211.506 -2.87022 -2.45819 0
M  V30 2288 H 211.819 -6.25704 -4.53557 0
M  V30 2289 H 210.164 -5.62305 -4.08459 0
M  V30 2290 H 213.355 -3.60953 -2.98045 0
M  V30 2291 H 213.528 -5.15381 -3.92793 0
M  V30 2292 N 206.934 1.1197 -1.10907 0
M  V30 2293 C 207.864 2.19928 -0.784473 0
M  V30 2294 C 208.845 1.6833 0.244726 0
M  V30 2295 O 210.03 1.93892 0.109418 0
M  V30 2296 C 207.16 3.46597 -0.220827 0
M  V30 2297 C 206.114 4.11376 -1.18127 0
M  V30 2298 C 205.44 5.32554 -0.478594 0
M  V30 2299 C 206.74 4.56945 -2.52979 0
M  V30 2300 H 208.434 2.47337 -1.68715 0
M  V30 2301 H 205.98 1.18879 -0.812642 0
M  V30 2302 H 207.933 4.21396 0.0184278 0
M  V30 2303 H 206.657 3.1863 0.717113 0
M  V30 2304 H 205.316 3.38564 -1.40606 0
M  V30 2305 H 204.964 5.00856 0.463976 0
M  V30 2306 H 204.664 5.76844 -1.11912 0
M  V30 2307 H 206.188 6.10096 -0.248 0
M  V30 2308 H 207.602 5.23093 -2.3462 0
M  V30 2309 H 205.999 5.1203 -3.12962 0
M  V30 2310 H 207.069 3.70676 -3.12614 0
M  V30 2311 N 208.412 0.89855 1.29475 0
M  V30 2312 C 209.362 0.346767 2.25348 0
M  V30 2313 C 210.346 -0.532509 1.51833 0
M  V30 2314 O 211.538 -0.374714 1.72988 0
M  V30 2315 C 208.667 -0.425681 3.40651 0
M  V30 2316 C 207.753 0.46845 4.21505 0
M  V30 2317 N 208.144 1.57514 4.80648 0
M  V30 2318 C 206.442 0.26603 4.45206 0
M  V30 2319 C 207.143 2.12889 5.41344 0
M  V30 2320 N 206.119 1.42208 5.24669 0
M  V30 2321 H 209.921 1.19219 2.68634 0
M  V30 2322 H 207.435 0.749473 1.44072 0
M  V30 2323 H 209.432 -0.837716 4.08397 0
M  V30 2324 H 208.092 -1.26838 2.98902 0
M  V30 2325 H 209.103 1.95789 4.79465 0
M  V30 2326 H 205.78 -0.538394 4.14014 0
M  V30 2327 H 207.17 3.05901 5.98226 0
M  V30 2328 N 209.89 -1.43072 0.660911 0
M  V30 2329 C 211.12 -2.05769 0.185153 0
M  V30 2330 C 211.528 -1.49668 -1.15742 0
M  V30 2331 O 210.871 -0.625649 -1.72717 0
M  V30 2332 C 210.933 -3.59489 0.0278237 0
M  V30 2333 C 210.597 -4.38212 1.2969 0
M  V30 2334 C 211.594 -4.69772 2.22734 0
M  V30 2335 C 209.279 -4.7809 1.54063 0
M  V30 2336 C 211.273 -5.40129 3.38437 0
M  V30 2337 C 208.96 -5.4819 2.70058 0
M  V30 2338 C 209.958 -5.79132 3.62071 0
M  V30 2339 O 209.646 -6.47798 4.76039 0
M  V30 2340 H 209.378 -0.669873 0.0908086 0
M  V30 2341 H 211.932 -1.84436 0.90402 0
M  V30 2342 H 210.162 -3.79426 -0.746489 0
M  V30 2343 H 211.851 -4.03862 -0.406275 0
M  V30 2344 H 212.617 -4.39476 2.05149 0
M  V30 2345 H 208.496 -4.53408 0.833215 0
M  V30 2346 H 212.04 -5.64198 4.10277 0
M  V30 2347 H 207.937 -5.77902 2.87574 0
M  V30 2348 H 208.705 -6.66283 4.75404 0
M  V30 2349 N 211.368 -0.403325 -1.52352 0
M  V30 2350 C 212.779 0.0675782 -1.86578 0
M  V30 2351 C 213.13 1.44941 -1.32236 0
M  V30 2352 O 212.255 2.06112 -0.659307 0
M  V30 2353 C 212.85 0.129404 -3.38553 0
M  V30 2354 C 211.409 0.544629 -3.72439 0
M  V30 2355 C 210.556 -0.284551 -2.75836 0
M  V30 2356 H 213.507 -0.620631 -1.46061 0
M  V30 2357 H 213.528 0.94581 -3.68558 0
M  V30 2358 H 213.04 -0.87645 -3.78074 0
M  V30 2359 H 211.141 1.55734 -3.38493 0
M  V30 2360 H 211.254 0.293046 -4.78203 0
M  V30 2361 H 209.618 0.252258 -2.53448 0
M  V30 2362 H 210.401 -1.28865 -3.18196 0
M  V30 2363 N 212.846 1.57033 -0.133567 0
M  V30 2364 C 214.257 1.82593 0.389464 0
M  V30 2365 C 214.608 1.05156 1.6564 0
M  V30 2366 O 213.733 0.292644 2.14412 0
M  V30 2367 C 214.328 3.31204 0.713377 0
M  V30 2368 C 212.887 3.57393 1.18098 0
M  V30 2369 C 212.034 2.76598 0.197126 0
M  V30 2370 H 214.985 1.54598 -0.358481 0
M  V30 2371 H 215.006 3.46627 1.56939 0
M  V30 2372 H 214.518 3.87537 -0.2089 0
M  V30 2373 H 212.619 3.06433 2.11966 0
M  V30 2374 H 212.732 4.65915 1.11624 0
M  V30 2375 H 211.096 2.45257 0.687088 0
M  V30 2376 H 211.879 3.35697 -0.718504 0
M  V30 2377 N 214.325 -0.140222 1.56975 0
M  V30 2378 C 215.573 -0.850005 1.83356 0
M  V30 2379 C 215.894 -1.81399 0.71551 0
M  V30 2380 O 215.164 -1.94136 -0.262294 0
M  V30 2381 H 213.744 -0.316886 0.676456 0
M  V30 2382 H 216.406 -0.132608 1.94448 0
M  V30 2383 H 215.502 -1.40814 2.78528 0
M  V30 2384 N 215.803 -1.52179 -0.40978 0
M  V30 2385 C 216.75 -1.75475 -1.49924 0
M  V30 2386 C 217.72 -0.597175 -1.54994 0
M  V30 2387 O 218.905 -0.834655 -1.71575 0
M  V30 2388 C 216.045 -1.9107 -2.87378 0
M  V30 2389 C 215.158 -3.18717 -2.91622 0
M  V30 2390 C 214.293 -3.24747 -4.20372 0
M  V30 2391 C 213.332 -4.46598 -4.18588 0
M  V30 2392 N 212.469 -4.50025 -5.38908 0
M  V30 2393 H 217.309 -2.68458 -1.29361 0
M  V30 2394 H 214.846 -1.33024 -0.627934 0
M  V30 2395 H 216.804 -1.98096 -3.6717 0
M  V30 2396 H 215.434 -1.01469 -3.06437 0
M  V30 2397 H 214.486 -3.20866 -2.04326 0
M  V30 2398 H 215.798 -4.08544 -2.86169 0
M  V30 2399 H 214.952 -3.30841 -5.08556 0
M  V30 2400 H 213.691 -2.32857 -4.28519 0
M  V30 2401 H 212.696 -4.40652 -3.28794 0
M  V30 2402 H 213.921 -5.39783 -4.12081 0
M  V30 2403 H 211.867 -3.61017 -5.47725 0
M  V30 2404 H 211.784 -5.33697 -5.35447 0
M  V30 2405 H 213.052 -4.60347 -6.29048 0
M  V30 2406 N 217.281 0.66697 -1.42791 0
M  V30 2407 C 218.229 1.80157 -1.47127 0
M  V30 2408 C 219.223 1.65825 -0.346199 0
M  V30 2409 O 220.429 1.72338 -0.519572 0
M  V30 2410 H 216.804 0.594158 -0.460956 0
M  V30 2411 H 218.775 1.73619 -2.42692 0
M  V30 2412 C 217.524 3.18351 -1.39813 0
M  V30 2413 H 216.847 3.3001 -2.25684 0
M  V30 2414 H 218.287 3.97736 -1.46908 0
M  V30 2415 C 216.746 3.36707 -0.11391 0
M  V30 2416 O 217.276 3.93027 0.830241 0
M  V30 2417 N 215.482 2.90586 -0.0285295 0
M  V30 2418 H 215.029 2.4494 -0.79764 0
M  V30 2419 H 214.987 3.03245 0.830063 0
M  V30 2420 N 218.759 1.29093 0.90403 0
M  V30 2421 C 220.008 1.16187 1.64874 0
M  V30 2422 C 220.321 -0.286742 1.93487 0
M  V30 2423 O 221.527 -0.537062 2.66135 0
M  V30 2424 C 219.983 2.03177 2.97064 0
M  V30 2425 C 219.591 3.52836 2.76062 0
M  V30 2426 C 221.335 1.98984 3.74974 0
M  V30 2427 C 219.242 4.31945 4.03952 0
M  V30 2428 H 218.172 0.431246 0.618501 0
M  V30 2429 H 220.823 1.53699 1.00243 0
M  V30 2430 H 219.205 1.5853 3.62883 0
M  V30 2431 H 220.379 4.05507 2.18863 0
M  V30 2432 H 218.694 3.58656 2.11553 0
M  V30 2433 H 221.291 2.55351 4.69787 0
M  V30 2434 H 221.634 0.968815 4.0487 0
M  V30 2435 H 222.167 2.41652 3.15989 0
M  V30 2436 H 218.906 5.34667 3.79225 0
M  V30 2437 H 218.426 3.84045 4.60727 0
M  V30 2438 H 220.105 4.42379 4.72133 0
M  V30 2439 N 220.237 -1.11381 1.11499 0
M  V30 2440 C 221.485 -1.8277 0.862524 0
M  V30 2441 C 221.806 -1.85097 -0.613534 0
M  V30 2442 O 221.076 -1.32198 -1.4457 0
M  V30 2443 H 219.656 -0.676823 0.316101 0
M  V30 2444 H 222.318 -1.34816 1.4075 0
M  V30 2445 H 221.414 -2.86614 1.23527 0
M  V30 2446 N 221.715 -0.905404 -1.28997 0
M  V30 2447 C 222.94 -0.549175 -1.99997 0
M  V30 2448 C 223.365 0.860276 -1.67275 0
M  V30 2449 O 222.723 1.57355 -0.900502 0
M  V30 2450 C 222.771 -0.755185 -3.52604 0
M  V30 2451 O 221.875 0.189692 -4.11964 0
M  V30 2452 H 221.216 -0.213899 -0.628604 0
M  V30 2453 H 223.746 -1.21856 -1.64354 0
M  V30 2454 H 223.756 -0.662045 -4.02593 0
M  V30 2455 H 222.431 -1.78271 -3.75755 0
M  V30 2456 H 221.008 0.0485257 -3.72868 0
M  V30 2457 N 223.193 1.4272 -0.668489 0
M  V30 2458 C 224.123 2.335 -0.000100175 0
M  V30 2459 C 225.104 1.50328 0.795964 0
M  V30 2460 O 226.289 1.78949 0.754385 0
M  V30 2461 C 223.419 3.33874 0.956302 0
M  V30 2462 C 222.373 4.27152 0.269278 0
M  V30 2463 C 221.699 5.17684 1.33818 0
M  V30 2464 C 222.999 5.15373 -0.847805 0
M  V30 2465 H 224.693 2.89639 -0.758244 0
M  V30 2466 H 222.239 1.39269 -0.366079 0
M  V30 2467 H 224.192 3.9629 1.43292 0
M  V30 2468 H 222.916 2.76025 1.74579 0
M  V30 2469 H 221.575 3.66123 -0.187042 0
M  V30 2470 H 221.223 4.56165 2.1195 0
M  V30 2471 H 220.923 5.80918 0.883659 0
M  V30 2472 H 222.447 5.82974 1.81586 0
M  V30 2473 H 223.861 5.7151 -0.452681 0
M  V30 2474 H 222.258 5.87407 -1.22773 0
M  V30 2475 H 223.328 4.5415 -1.69929 0
M  V30 2476 N 224.671 0.411399 1.52136 0
M  V30 2477 C 225.601 -0.404015 2.29978 0
M  V30 2478 C 226.582 -1.04412 1.34284 0
M  V30 2479 O 227.767 -1.0527 1.63192 0
M  V30 2480 C 224.897 -1.5197 3.12286 0
M  V30 2481 C 223.851 -1.00448 4.16046 0
M  V30 2482 C 223.177 -2.21393 4.86712 0
M  V30 2483 C 224.477 -0.0569336 5.22269 0
M  V30 2484 H 226.171 0.245529 2.98392 0
M  V30 2485 H 223.717 0.119525 1.43503 0
M  V30 2486 H 225.67 -2.09715 3.6551 0
M  V30 2487 H 224.394 -2.19716 2.41646 0
M  V30 2488 H 223.053 -0.449421 3.63835 0
M  V30 2489 H 222.701 -2.87699 4.12599 0
M  V30 2490 H 222.401 -1.87571 5.56858 0
M  V30 2491 H 223.925 -2.7974 5.4275 0
M  V30 2492 H 225.339 -0.54325 5.7072 0
M  V30 2493 H 223.736 0.192594 5.99791 0
M  V30 2494 H 224.806 0.887663 4.76706 0
M  V30 2495 N 226.149 -1.5696 0.141893 0
M  V30 2496 C 227.565 -1.58151 -0.21456 0
M  V30 2497 C 227.765 -1.1559 -1.65049 0
M  V30 2498 O 226.821 -0.853832 -2.37626 0
M  V30 2499 C 228.134 -3.00674 0.0395576 0
M  V30 2500 C 229.682 -3.1299 -0.0245529 0
M  V30 2501 C 230.157 -4.57554 0.202167 0
M  V30 2502 N 231.648 -4.62961 0.148919 0
M  V30 2503 C 232.383 -5.7262 0.298924 0
M  V30 2504 N 231.879 -6.90947 0.50637 0
M  V30 2505 N 233.672 -5.61601 0.236886 0
M  V30 2506 H 225.823 -1.8292 1.07953 0
M  V30 2507 H 228.086 -0.846425 0.42693 0
M  V30 2508 H 227.792 -3.36183 1.03315 0
M  V30 2509 H 227.666 -3.70981 -0.682143 0
M  V30 2510 H 230.053 -2.77326 -1.00869 0
M  V30 2511 H 230.134 -2.4518 0.729396 0
M  V30 2512 H 229.778 -4.93922 1.18338 0
M  V30 2513 H 229.708 -5.23484 -0.572044 0
M  V30 2514 H 232.199 -3.77899 -0.00697015 0
M  V30 2515 H 232.512 -7.7038 0.611076 0
M  V30 2516 H 230.857 -6.92878 0.542628 0
M  V30 2517 H 234.048 -4.68039 0.0756209 0
M  V30 2518 H 234.221 -6.47015 0.357227 0
M  V30 2519 N 227.627 0.131896 -1.57047 0
M  V30 2520 C 228.852 0.860418 -1.8871 0
M  V30 2521 C 229.277 1.73251 -0.73251 0
M  V30 2522 O 228.635 1.785 0.317429 0
M  V30 2523 C 228.683 1.68047 -3.19049 0
M  V30 2524 O 227.787 2.7862 -3.04047 0
M  V30 2525 H 227.128 0.238743 -0.619595 0
M  V30 2526 H 229.658 0.118169 -2.04258 0
M  V30 2527 H 229.668 2.07238 -3.51449 0
M  V30 2528 H 228.343 1.04018 -4.02682 0
M  V30 2529 H 226.92 2.42726 -2.83088 0
M  V30 2530 N 229.106 1.52395 0.401703 0
M  V30 2531 C 230.056 1.72649 1.48917 0
M  V30 2532 C 231.04 0.580436 1.50066 0
M  V30 2533 O 232.232 0.83779 1.55917 0
M  V30 2534 C 229.361 1.88729 2.86769 0
M  V30 2535 C 228.447 3.09228 2.90239 0
M  V30 2536 N 228.838 4.31805 2.63396 0
M  V30 2537 C 227.136 3.09214 3.21408 0
M  V30 2538 C 227.837 5.13326 2.73625 0
M  V30 2539 N 226.813 4.48735 3.06819 0
M  V30 2540 H 230.615 2.65058 1.26971 0
M  V30 2541 H 228.129 1.50528 0.609504 0
M  V30 2542 H 230.126 2.01358 3.65049 0
M  V30 2543 H 228.786 0.975252 3.09708 0
M  V30 2544 H 229.797 4.60154 2.37653 0
M  V30 2545 H 226.474 2.27774 3.49893 0
M  V30 2546 H 227.864 6.21003 2.56524 0
M  V30 2547 N 230.584 -0.659388 1.43143 0
M  V30 2548 C 231.814 -1.44513 1.47646 0
M  V30 2549 C 232.222 -1.88981 0.0910095 0
M  V30 2550 O 231.565 -1.59702 -0.907789 0
M  V30 2551 C 231.627 -2.71663 2.35456 0
M  V30 2552 C 231.291 -2.49175 3.83094 0
M  V30 2553 C 232.288 -2.1279 4.74359 0
M  V30 2554 C 229.973 -2.63691 4.27519 0
M  V30 2555 C 231.967 -1.9121 6.08044 0
M  V30 2556 C 229.654 -2.41726 5.61259 0
M  V30 2557 C 230.652 -2.0554 6.51339 0
M  V30 2558 O 230.34 -1.838 7.82606 0
M  V30 2559 H 230.072 -0.45064 0.503884 0
M  V30 2560 H 232.626 -0.816248 1.88485 0
M  V30 2561 H 230.856 -3.37089 1.89493 0
M  V30 2562 H 232.545 -3.33595 2.31235 0
M  V30 2563 H 233.311 -2.01157 4.41317 0
M  V30 2564 H 229.19 -2.90832 3.57684 0
M  V30 2565 H 232.734 -1.62889 6.78316 0
M  V30 2566 H 228.631 -2.52959 5.9387 0
M  V30 2567 H 229.399 -1.98275 7.94122 0
M  V30 2568 N 232.062 -1.29571 -0.897171 0
M  V30 2569 C 232.972 -1.16808 -2.03453 0
M  V30 2570 C 233.988 -0.0907471 -1.73763 0
M  V30 2571 O 235.164 -0.303312 -1.99103 0
M  V30 2572 C 232.229 -0.848264 -3.36163 0
M  V30 2573 C 231.29 -2.0097 -3.79354 0
M  V30 2574 C 230.523 -1.70505 -5.05731 0
M  V30 2575 O 230.746 -0.62718 -5.66941 0
M  V30 2576 O 229.68 -2.5538 -5.45036 0
M  V30 2577 H 233.506 -2.12325 -2.17144 0
M  V30 2578 H 231.091 -1.09047 -1.02123 0
M  V30 2579 H 232.973 -0.684581 -4.15802 0
M  V30 2580 H 231.648 0.0771071 -3.23608 0
M  V30 2581 H 230.555 -2.22863 -3.00471 0
M  V30 2582 H 231.888 -2.91636 -3.96496 0
M  V30 2583 N 233.54 1.10788 -1.12088 0
M  V30 2584 C 234.956 1.34691 -0.856186 0
M  V30 2585 C 235.156 1.94791 0.515615 0
M  V30 2586 O 234.212 2.18524 1.26505 0
M  V30 2587 C 235.525 2.27208 -1.9697 0
M  V30 2588 C 237.073 2.40755 -2.00016 0
M  V30 2589 C 237.548 3.36598 -3.1059 0
M  V30 2590 N 239.039 3.44164 -3.10008 0
M  V30 2591 C 239.774 4.18284 -3.92206 0
M  V30 2592 N 239.27 4.95322 -4.84384 0
M  V30 2593 N 241.063 4.13865 -3.80357 0
M  V30 2594 H 233.214 0.70144 -2.00483 0
M  V30 2595 H 235.477 0.371405 -0.872217 0
M  V30 2596 H 235.183 1.90251 -2.958 0
M  V30 2597 H 235.057 3.27485 -1.87172 0
M  V30 2598 H 237.444 2.76982 -1.01808 0
M  V30 2599 H 237.525 1.40305 -2.13888 0
M  V30 2600 H 237.169 3.01096 -4.09028 0
M  V30 2601 H 237.099 4.36918 -2.93956 0
M  V30 2602 H 239.59 2.8922 -2.43228 0
M  V30 2603 H 239.903 5.49267 -5.43623 0
M  V30 2604 H 238.248 4.94459 -4.884 0
M  V30 2605 H 241.439 3.52773 -3.07683 0
M  V30 2606 H 241.612 4.71372 -4.44649 0
M  V30 2607 N 235.018 0.912232 1.28515 0
M  V30 2608 C 236.267 0.540504 1.94323 0
M  V30 2609 C 236.58 -0.920044 1.72611 0
M  V30 2610 O 237.786 -1.39986 2.32629 0
M  V30 2611 C 236.242 0.915803 3.48053 0
M  V30 2612 C 235.85 2.39598 3.78546 0
M  V30 2613 C 237.594 0.614588 4.20027 0
M  V30 2614 C 235.501 2.71148 5.25578 0
M  V30 2615 H 234.431 0.198418 0.727424 0
M  V30 2616 H 237.082 1.11094 1.46049 0
M  V30 2617 H 235.464 0.274168 3.9505 0
M  V30 2618 H 236.638 3.08422 3.42364 0
M  V30 2619 H 234.953 2.66749 3.1974 0
M  V30 2620 H 237.55 0.827002 5.28266 0
M  V30 2621 H 237.893 -0.447531 4.13887 0
M  V30 2622 H 238.426 1.21462 3.78803 0
M  V30 2623 H 235.165 3.76207 5.36794 0
M  V30 2624 H 234.685 2.0696 5.62963 0
M  V30 2625 H 236.364 2.58072 5.93302 0
M  V30 2626 N 236.496 -1.42363 0.676048 0
M  V30 2627 C 237.745 -2.00745 0.196037 0
M  V30 2628 C 238.058 -1.54083 -1.20489 0
M  V30 2629 O 239.264 -2.04891 -1.78134 0
M  V30 2630 C 237.72 -3.58651 0.299616 0
M  V30 2631 C 237.328 -4.143 1.70468 0
M  V30 2632 C 239.072 -4.24326 -0.121619 0
M  V30 2633 C 236.979 -5.64574 1.76096 0
M  V30 2634 H 235.909 -0.750787 0.0695301 0
M  V30 2635 H 238.56 -1.63072 0.841412 0
M  V30 2636 H 236.942 -3.93833 -0.413673 0
M  V30 2637 H 238.116 -3.90575 2.44515 0
M  V30 2638 H 236.431 -3.61081 2.07387 0
M  V30 2639 H 239.028 -5.34607 -0.0997362 0
M  V30 2640 H 239.371 -3.99897 -1.15708 0
M  V30 2641 H 239.904 -3.94108 0.540706 0
M  V30 2642 H 236.643 -5.93804 2.77628 0
M  V30 2643 H 236.163 -5.90286 1.06406 0
M  V30 2644 H 237.842 -6.29013 1.51496 0
M  V30 2645 N 237.974 -0.419461 -1.51915 0
M  V30 2646 C 239.204 0.151915 -2.06041 0
M  V30 2647 C 239.612 1.38539 -1.28855 0
M  V30 2648 O 238.955 1.80592 -0.336463 0
M  V30 2649 C 239.017 0.557119 -3.55157 0
M  V30 2650 C 238.681 -0.567054 -4.53468 0
M  V30 2651 C 239.678 -1.43379 -4.99738 0
M  V30 2652 C 237.363 -0.742693 -4.96779 0
M  V30 2653 C 239.357 -2.46102 -5.87973 0
M  V30 2654 C 237.044 -1.77322 -5.84808 0
M  V30 2655 C 238.042 -2.63078 -6.30301 0
M  V30 2656 O 237.73 -3.64364 -7.16585 0
M  V30 2657 H 237.462 0.0193293 -0.675724 0
M  V30 2658 H 240.016 -0.592073 -1.96682 0
M  V30 2659 H 238.246 1.35355 -3.62238 0
M  V30 2660 H 239.935 1.05759 -3.9188 0
M  V30 2661 H 240.701 -1.30954 -4.66986 0
M  V30 2662 H 236.58 -0.0848307 -4.60922 0
M  V30 2663 H 240.124 -3.13071 -6.23404 0
M  V30 2664 H 236.021 -1.89773 -6.16974 0
M  V30 2665 H 236.789 -3.60731 -7.34721 0
M  V30 2666 N 239.452 1.56882 -0.150215 0
M  V30 2667 C 240.863 1.82995 0.370076 0
M  V30 2668 C 241.214 1.06907 1.64515 0
M  V30 2669 O 240.339 0.315369 2.1409 0
M  V30 2670 C 240.934 3.31942 0.678208 0
M  V30 2671 C 239.493 3.58625 1.14301 0
M  V30 2672 C 238.64 2.76792 0.167778 0
M  V30 2673 H 241.591 1.54209 -0.374858 0
M  V30 2674 H 241.612 3.48272 1.53254 0
M  V30 2675 H 241.124 3.87294 -0.249991 0
M  V30 2676 H 239.225 3.08664 2.08704 0
M  V30 2677 H 239.338 4.67073 1.06676 0
M  V30 2678 H 237.702 2.45972 0.661037 0
M  V30 2679 H 238.485 3.34916 -0.754069 0
M  V30 2680 N 240.93 -0.123565 1.57115 0
M  V30 2681 C 242.16 -0.845233 1.88519 0
M  V30 2682 C 242.568 -1.74168 0.739064 0
M  V30 2683 O 241.911 -1.81244 -0.299355 0
M  V30 2684 C 241.973 -1.73452 3.14888 0
M  V30 2685 C 241.637 -1.01285 4.45635 0
M  V30 2686 C 242.634 -0.355774 5.18681 0
M  V30 2687 C 240.319 -0.99538 4.92339 0
M  V30 2688 C 242.313 0.309114 6.3665 0
M  V30 2689 C 240 -0.32669 6.10226 0
M  V30 2690 C 240.998 0.324406 6.82229 0
M  V30 2691 O 240.686 0.982437 7.97874 0
M  V30 2692 H 240.418 -0.248534 0.628655 0
M  V30 2693 H 242.972 -0.113907 2.05084 0
M  V30 2694 H 241.202 -2.50737 2.94394 0
M  V30 2695 H 242.891 -2.33021 3.32349 0
M  V30 2696 H 243.657 -0.360918 4.83655 0
M  V30 2697 H 239.536 -1.49159 4.36202 0
M  V30 2698 H 243.08 0.8179 6.92789 0
M  V30 2699 H 238.977 -0.319294 6.4471 0
M  V30 2700 H 239.745 0.886454 8.13686 0
M  V30 2701 N 242.408 -1.52605 -0.393616 0
M  V30 2702 C 243.318 -1.79971 -1.50492 0
M  V30 2703 C 244.334 -0.686181 -1.59899 0
M  V30 2704 O 245.51 -0.973274 -1.76322 0
M  V30 2705 C 242.575 -1.95867 -2.86072 0
M  V30 2706 C 241.636 -3.19781 -2.86424 0
M  V30 2707 C 240.869 -3.34909 -4.15538 0
M  V30 2708 O 241.092 -2.54948 -5.10253 0
M  V30 2709 O 240.026 -4.28141 -4.23059 0
M  V30 2710 H 243.852 -2.74328 -1.30299 0
M  V30 2711 H 241.437 -1.3764 -0.581005 0
M  V30 2712 H 243.319 -2.08056 -3.66457 0
M  V30 2713 H 241.994 -1.04699 -3.063 0
M  V30 2714 H 240.901 -3.13038 -2.04837 0
M  V30 2715 H 242.234 -4.1078 -2.71147 0
M  V30 2716 N 243.887 0.651787 -1.4349 0
M  V30 2717 C 244.82 1.77668 -1.43211 0
M  V30 2718 C 245.798 1.59931 -0.29338 0
M  V30 2719 O 246.982 1.82095 -0.487191 0
M  V30 2720 C 244.109 3.14986 -1.24505 0
M  V30 2721 C 243.155 3.51421 -2.41673 0
M  V30 2722 S 243.988 3.51234 -4.04222 0
M  V30 2723 C 245.144 4.91206 -3.87902 0
M  V30 2724 H 245.377 1.77635 -2.38397 0
M  V30 2725 H 242.91 0.824558 -1.30539 0
M  V30 2726 H 244.868 3.94237 -1.144 0
M  V30 2727 H 243.529 3.1258 -0.308651 0
M  V30 2728 H 242.722 4.51291 -2.24393 0
M  V30 2729 H 242.324 2.79585 -2.48411 0
M  V30 2730 H 244.616 5.79902 -3.50315 0
M  V30 2731 H 245.559 5.13537 -4.8753 0
M  V30 2732 H 245.967 4.64808 -3.20334 0
M  V30 2733 N 245.365 1.30045 0.890287 0
M  V30 2734 C 246.612 1.18561 1.64163 0
M  V30 2735 C 246.94 -0.260852 1.92743 0
M  V30 2736 O 246.195 -1.20376 1.54299 0
M  V30 2737 C 246.494 1.95409 2.99249 0
M  V30 2738 C 246.16 3.45066 2.90242 0
M  V30 2739 C 244.822 3.85878 2.87492 0
M  V30 2740 C 247.174 4.4039 2.78758 0
M  V30 2741 C 244.502 5.20314 2.7109 0
M  V30 2742 C 246.854 5.74928 2.63894 0
M  V30 2743 C 245.518 6.14986 2.59516 0
M  V30 2744 H 244.788 0.433846 0.600715 0
M  V30 2745 H 247.435 1.61088 1.03552 0
M  V30 2746 H 245.74 1.45501 3.63781 0
M  V30 2747 H 247.437 1.8392 3.56334 0
M  V30 2748 H 244.027 3.12631 2.93189 0
M  V30 2749 H 248.211 4.09806 2.79952 0
M  V30 2750 H 243.467 5.50449 2.66112 0
M  V30 2751 H 247.641 6.48434 2.53981 0
M  V30 2752 H 245.268 7.19104 2.46565 0
M  V30 2753 N 246.843 -1.10192 1.12674 0
M  V30 2754 C 247.775 -2.16418 0.754701 0
M  V30 2755 C 248.788 -1.61309 -0.21986 0
M  V30 2756 O 249.977 -1.785 -0.000826841 0
M  V30 2757 C 247.077 -3.38762 0.096698 0
M  V30 2758 C 246.25 -4.23307 1.10136 0
M  V30 2759 C 245.309 -5.24092 0.470513 0
M  V30 2760 O 244.335 -5.57906 1.12824 0
M  V30 2761 N 245.537 -5.75491 -0.760948 0
M  V30 2762 H 248.302 -2.48943 1.66875 0
M  V30 2763 H 245.863 -1.25834 1.01869 0
M  V30 2764 H 247.855 -4.03291 -0.337384 0
M  V30 2765 H 246.425 -3.04192 -0.720153 0
M  V30 2766 H 245.645 -3.55036 1.71299 0
M  V30 2767 H 246.933 -4.76624 1.78064 0
M  V30 2768 H 246.331 -5.50222 -1.31424 0
M  V30 2769 H 244.888 -6.41792 -1.13781 0
M  V30 2770 N 248.321 -0.919034 -1.28029 0
M  V30 2771 C 249.546 -0.570357 -1.99403 0
M  V30 2772 C 249.971 0.842486 -1.68178 0
M  V30 2773 O 249.329 1.56391 -0.917141 0
M  V30 2774 C 249.377 -0.792541 -3.51783 0
M  V30 2775 O 248.481 0.145988 -4.12142 0
M  V30 2776 H 247.822 -0.220555 -0.6263 0
M  V30 2777 H 250.352 -1.23592 -1.63053 0
M  V30 2778 H 250.362 -0.704708 -4.01868 0
M  V30 2779 H 249.037 -1.82247 -3.73844 0
M  V30 2780 H 247.614 0.00897528 -3.72899 0
M  V30 2781 N 249.799 1.42003 -0.683588 0
M  V30 2782 C 251.047 2.01015 -0.209101 0
M  V30 2783 C 251.368 1.54365 1.19149 0
M  V30 2784 O 250.638 0.769083 1.80172 0
M  V30 2785 H 249.218 0.743294 -0.074315 0
M  V30 2786 H 251.88 1.73798 -0.882066 0
M  V30 2787 H 250.976 3.11343 -0.2172 0
M  V30 2788 N 251.277 0.427512 1.51691 0
M  V30 2789 C 252.24 -0.377132 2.26076 0
M  V30 2790 C 253.24 -0.958089 1.29141 0
M  V30 2791 O 254.43 -0.83408 1.52934 0
M  V30 2792 C 251.562 -1.53262 3.04506 0
M  V30 2793 H 252.755 0.27464 2.9864 0
M  V30 2794 H 250.308 0.180445 1.55255 0
M  V30 2795 H 251.043 -2.22072 2.36335 0
M  V30 2796 H 250.828 -1.12232 3.75694 0
M  V30 2797 H 252.318 -2.10135 3.60878 0
M  V30 2798 N 252.755 -1.56801 0.158532 0
M  V30 2799 C 253.703 -2.18638 -0.793729 0
M  V30 2800 C 254.697 -1.14669 -1.24689 0
M  V30 2801 O 255.903 -1.32895 -1.21403 0
M  V30 2802 H 252.278 -0.700226 -0.274204 0
M  V30 2803 H 254.249 -2.97367 -0.248095 0
M  V30 2804 C 252.998 -2.83139 -2.0181 0
M  V30 2805 H 252.321 -3.62863 -1.67841 0
M  V30 2806 H 253.761 -3.29894 -2.66357 0
M  V30 2807 C 252.22 -1.82244 -2.83353 0
M  V30 2808 O 252.75 -1.3 -3.80083 0
M  V30 2809 N 250.956 -1.51288 -2.48114 0
M  V30 2810 H 250.503 -1.93964 -1.69516 0
M  V30 2811 H 250.461 -0.840296 -3.02963 0
M  V30 2812 N 254.233 0.115231 -1.57178 0
M  V30 2813 C 255.183 1.14707 -1.97044 0
M  V30 2814 C 256.167 1.36866 -0.845957 0
M  V30 2815 O 257.359 1.37895 -1.10968 0
M  V30 2816 C 254.488 2.47266 -2.38148 0
M  V30 2817 C 253.574 2.28566 -3.57237 0
M  V30 2818 N 253.965 1.79685 -4.72807 0
M  V30 2819 C 252.263 2.59208 -3.62943 0
M  V30 2820 C 252.964 1.74781 -5.54821 0
M  V30 2821 N 251.94 2.19264 -4.97417 0
M  V30 2822 H 255.742 0.761754 -2.83857 0
M  V30 2823 H 253.256 0.322928 -1.59157 0
M  V30 2824 H 255.253 3.219 -2.64927 0
M  V30 2825 H 253.913 2.86552 -1.52702 0
M  V30 2826 H 254.924 1.49177 -4.9595 0
M  V30 2827 H 251.601 3.02154 -2.88113 0
M  V30 2828 H 252.991 1.38212 -6.57531 0
M  V30 2829 N 255.711 1.52812 0.385517 0
M  V30 2830 C 256.957 1.68275 1.13188 0
M  V30 2831 C 257.29 0.423179 1.89533 0
M  V30 2832 O 256.565 -0.579113 1.85679 0
M  V30 2833 C 256.848 2.92001 2.1073 0
M  V30 2834 C 256.701 4.28067 1.38125 0
M  V30 2835 C 258.02 3.11283 3.11113 0
M  V30 2836 H 255.139 0.612352 0.410115 0
M  V30 2837 H 257.781 1.85415 0.414869 0
M  V30 2838 H 255.931 2.77519 2.71874 0
M  V30 2839 H 257.603 4.54324 0.799187 0
M  V30 2840 H 255.846 4.28388 0.683092 0
M  V30 2841 H 256.517 5.10733 2.09417 0
M  V30 2842 H 258.993 3.2482 2.6006 0
M  V30 2843 H 257.869 3.99325 3.76605 0
M  V30 2844 H 258.13 2.25656 3.80173 0
M  V30 2845 N 257.189 -0.644168 1.43834 0
M  V30 2846 C 258.121 -1.76955 1.45669 0
M  V30 2847 C 259.134 -1.58956 0.351666 0
M  V30 2848 O 260.323 -1.6751 0.616644 0
M  V30 2849 C 257.423 -3.14507 1.26248 0
M  V30 2850 C 256.596 -3.59083 2.49757 0
M  V30 2851 C 255.655 -4.75467 2.25427 0
M  V30 2852 O 254.681 -4.84444 2.98836 0
M  V30 2853 N 255.883 -5.66289 1.27661 0
M  V30 2854 H 258.648 -1.75856 2.42682 0
M  V30 2855 H 256.209 -0.828312 1.39106 0
M  V30 2856 H 258.201 -3.90067 1.0784 0
M  V30 2857 H 256.771 -3.10325 0.376478 0
M  V30 2858 H 255.991 -2.7387 2.8353 0
M  V30 2859 H 257.279 -3.85613 3.31934 0
M  V30 2860 H 256.677 -5.61718 0.670064 0
M  V30 2861 H 255.234 -6.41533 1.15234 0
M  V30 2862 N 258.668 -1.30515 -0.883378 0
M  V30 2863 C 259.908 -1.20716 -1.64946 0
M  V30 2864 C 260.272 0.234072 -1.90568 0
M  V30 2865 O 261.473 0.455335 -2.64915 0
M  V30 2866 C 259.744 -2.01444 -2.9522 0
M  V30 2867 S 261.303 -2.0836 -3.86175 0
M  V30 2868 H 258.121 -0.430165 -0.566109 0
M  V30 2869 H 260.723 -1.65011 -1.04841 0
M  V30 2870 H 259.427 -3.05268 -2.74298 0
M  V30 2871 H 258.958 -1.57817 -3.60357 0
M  V30 2872 H 260.973 -1.21215 -4.81167 0
M  V30 2873 N 260.146 1.09593 -1.13257 0
M  V30 2874 C 261.094 2.18271 -0.803783 0
M  V30 2875 C 262.088 1.68054 0.213148 0
M  V30 2876 O 263.294 1.79862 0.0704699 0
M  V30 2877 H 259.669 0.711949 -0.242143 0
M  V30 2878 H 261.64 2.43235 -1.72856 0
M  V30 2879 C 260.389 3.46536 -0.28424 0
M  V30 2880 H 259.712 3.85545 -1.05807 0
M  V30 2881 H 261.152 4.23899 -0.0925945 0
M  V30 2882 C 259.611 3.22036 0.989684 0
M  V30 2883 O 260.141 3.44509 2.06584 0
M  V30 2884 N 258.347 2.7565 0.920086 0
M  V30 2885 H 257.894 2.57562 0.0442019 0
M  V30 2886 H 257.852 2.59635 1.77306 0
M  V30 2887 N 261.624 0.925811 1.2754 0
M  V30 2888 C 262.852 0.581509 1.9856 0
M  V30 2889 C 263.267 -0.840041 1.69082 0
M  V30 2890 O 262.624 -1.55805 0.950312 0
M  V30 2891 C 262.675 0.795589 3.52637 0
M  V30 2892 O 262.396 2.16121 3.81082 0
M  V30 2893 C 263.897 0.459744 4.4091 0
M  V30 2894 H 261.117 0.220538 0.633722 0
M  V30 2895 H 263.661 1.24232 1.6244 0
M  V30 2896 H 261.816 0.18161 3.86974 0
M  V30 2897 H 262.23 2.2098 4.75676 0
M  V30 2898 H 263.704 0.660244 5.48037 0
M  V30 2899 H 264.181 -0.604625 4.35018 0
M  V30 2900 H 264.787 1.05178 4.12089 0
M  V30 2901 N 263.102 -1.41638 0.69111 0
M  V30 2902 C 264.052 -2.28 -0.000107832 0
M  V30 2903 C 265.036 -1.41964 -0.757304 0
M  V30 2904 O 266.228 -1.65274 -0.633532 0
M  V30 2905 C 263.357 -3.30209 -0.938983 0
M  V30 2906 C 262.443 -4.23725 -0.17827 0
M  V30 2907 N 262.834 -4.99017 0.825563 0
M  V30 2908 C 261.132 -4.44071 -0.414392 0
M  V30 2909 C 261.833 -5.67431 1.28052 0
M  V30 2910 N 260.809 -5.40197 0.607304 0
M  V30 2911 H 264.611 -2.83644 0.769617 0
M  V30 2912 H 262.125 -1.53797 0.521562 0
M  V30 2913 H 264.122 -3.90898 -1.44929 0
M  V30 2914 H 262.782 -2.76126 -1.70836 0
M  V30 2915 H 263.793 -5.03671 1.20566 0
M  V30 2916 H 260.47 -4.01004 -1.162 0
M  V30 2917 H 261.86 -6.37801 2.11327 0
M  V30 2918 N 264.58 -0.43555 -1.51462 0
M  V30 2919 C 265.991 0.0279871 -1.86679 0
M  V30 2920 C 266.342 1.42104 -1.35281 0
M  V30 2921 O 265.467 2.04667 -0.702878 0
M  V30 2922 C 266.062 0.0575626 -3.38751 0
M  V30 2923 C 264.621 0.465507 -3.7351 0
M  V30 2924 C 263.768 -0.342996 -2.75171 0
M  V30 2925 H 266.719 -0.651473 -1.44712 0
M  V30 2926 H 266.74 0.867421 -3.70481 0
M  V30 2927 H 266.252 -0.956448 -3.7613 0
M  V30 2928 H 264.353 1.48519 -3.41721 0
M  V30 2929 H 264.466 0.191546 -4.78717 0
M  V30 2930 H 262.83 0.198442 -2.53926 0
M  V30 2931 H 263.613 -1.35585 -3.15391 0
M  V30 2932 N 266.058 1.56714 -0.166846 0
M  V30 2933 C 267.305 1.96747 0.479252 0
M  V30 2934 C 267.633 1.05263 1.63554 0
M  V30 2935 O 266.888 0.0858098 1.95512 0
M  V30 2936 C 267.187 3.42889 1.00806 0
M  V30 2937 C 266.853 4.50889 -0.0318574 0
M  V30 2938 C 265.515 4.8015 -0.317675 0
M  V30 2939 C 267.867 5.15949 -0.737956 0
M  V30 2940 C 265.195 5.71772 -1.31506 0
M  V30 2941 C 267.547 6.08647 -1.72429 0
M  V30 2942 C 266.211 6.36277 -2.0176 0
M  V30 2943 H 265.481 0.719949 0.175371 0
M  V30 2944 H 268.128 1.89756 -0.257864 0
M  V30 2945 H 266.433 3.4681 1.82291 0
M  V30 2946 H 268.13 3.71203 1.51689 0
M  V30 2947 H 264.72 4.28128 0.201088 0
M  V30 2948 H 268.904 4.93458 -0.530351 0
M  V30 2949 H 264.16 5.91465 -1.54853 0
M  V30 2950 H 268.334 6.58129 -2.27682 0
M  V30 2951 H 265.961 7.07075 -2.79194 0
M  V30 2952 N 267.536 -0.106894 1.57237 0
M  V30 2953 C 268.813 -0.843526 1.76477 0
M  V30 2954 C 269.193 -1.97499 0.745464 0
M  V30 2955 O 268.541 -2.27357 -0.228306 0
M  V30 2956 C 268.751 -1.34903 3.21873 0
M  V30 2957 C 270.099 -1.79654 3.8472 0
M  V30 2958 O 271.123 -1.44554 3.2555 0
M  V30 2959 O 269.982 -2.44515 4.88748 0
M  V30 2960 H 267.076 -0.401468 0.723016 0
M  V30 2961 H 269.622 -0.0896927 1.69463 0
M  V30 2962 H 268.394 -0.53781 3.87586 0
M  V30 2963 H 268.017 -2.16522 3.33473 0
M  V30 2964 N 269.014 -1.53014 -0.377408 0
M  V30 2965 C 269.962 -1.7927 -1.48206 0
M  V30 2966 C 270.956 -0.661195 -1.55963 0
M  V30 2967 O 272.162 -0.843908 -1.58991 0
M  V30 2968 H 268.537 -0.567425 -0.493491 0
M  V30 2969 H 270.508 -2.71753 -1.2326 0
M  V30 2970 C 269.257 -1.98894 -2.85196 0
M  V30 2971 H 268.58 -2.85395 -2.79981 0
M  V30 2972 H 270.02 -2.21249 -3.61698 0
M  V30 2973 C 268.479 -0.764691 -3.28107 0
M  V30 2974 O 269.009 0.0523226 -4.01666 0
M  V30 2975 N 267.215 -0.591493 -2.84517 0
M  V30 2976 H 266.762 -1.25749 -2.24822 0
M  V30 2977 H 266.72 0.226253 -3.13585 0
M  V30 2978 N 270.492 0.636531 -1.44174 0
M  V30 2979 C 271.402 1.77754 -1.53103 0
M  V30 2980 C 272.418 1.68928 -0.417034 0
M  V30 2981 O 273.594 1.89801 -0.6736 0
M  V30 2982 C 270.659 3.14115 -1.46741 0
M  V30 2983 C 269.72 3.34612 -2.68948 0
M  V30 2984 C 268.953 4.64467 -2.6288 0
M  V30 2985 O 269.176 5.44919 -1.68581 0
M  V30 2986 O 268.11 4.87049 -3.53648 0
M  V30 2987 H 271.936 1.73174 -2.49489 0
M  V30 2988 H 269.521 0.79709 -1.2636 0
M  V30 2989 H 271.403 3.95412 -1.45696 0
M  V30 2990 H 270.078 3.19249 -0.534975 0
M  V30 2991 H 268.985 2.53014 -2.75562 0
M  V30 2992 H 270.318 3.34336 -3.61221 0
M  V30 2993 N 271.97 1.30982 0.876444 0
M  V30 2994 C 273.216 1.20474 1.63138 0
M  V30 2995 C 273.549 -0.238096 1.92735 0
M  V30 2996 O 272.824 -1.1692 1.55435 0
M  V30 2997 C 273.107 2.04244 2.96574 0
M  V30 2998 C 272.96 3.56793 2.73896 0
M  V30 2999 C 274.279 1.88684 3.97601 0
M  V30 3000 H 271.398 0.439001 0.591985 0
M  V30 3001 H 274.04 1.60704 1.01361 0
M  V30 3002 H 272.19 1.70063 3.493 0
M  V30 3003 H 273.862 4.01077 2.27892 0
M  V30 3004 H 272.105 3.80548 2.08245 0
M  V30 3005 H 272.776 4.10706 3.68815 0
M  V30 3006 H 275.252 2.18584 3.54062 0
M  V30 3007 H 274.128 2.4961 4.88862 0
M  V30 3008 H 274.389 0.848343 4.33884 0
M  V30 3009 N 273.449 -1.08991 1.13837 0
M  V30 3010 C 274.396 -2.15748 0.819835 0
M  V30 3011 C 275.366 -1.64636 -0.220026 0
M  V30 3012 O 276.551 -1.90582 -0.0912757 0
M  V30 3013 C 273.691 -3.4382 0.296913 0
M  V30 3014 C 272.804 -4.0881 1.39636 0
M  V30 3015 C 271.939 -5.24655 0.831314 0
M  V30 3016 C 270.978 -5.81575 1.90886 0
M  V30 3017 N 270.115 -6.88774 1.36142 0
M  V30 3018 H 274.955 -2.42338 1.73426 0
M  V30 3019 H 272.492 -1.18935 0.865613 0
M  V30 3020 H 274.45 -4.17193 -0.0244339 0
M  V30 3021 H 273.08 -3.17535 -0.580628 0
M  V30 3022 H 272.132 -3.33258 1.83422 0
M  V30 3023 H 273.444 -4.47141 2.21058 0
M  V30 3024 H 272.598 -6.04942 0.461515 0
M  V30 3025 H 271.337 -4.87698 -0.013932 0
M  V30 3026 H 270.342 -4.99946 2.28767 0
M  V30 3027 H 271.567 -6.20592 2.75758 0
M  V30 3028 H 269.513 -6.53788 0.538254 0
M  V30 3029 H 269.43 -7.25898 2.11208 0
M  V30 3030 H 270.698 -7.72806 1.01933 0
M  V30 3031 N 274.927 -0.932562 -1.27047 0
M  V30 3032 C 276.204 -0.49377 -1.89265 0
M  V30 3033 C 276.584 1.02833 -1.8436 0
M  V30 3034 O 275.932 1.88461 -1.29209 0
M  V30 3035 C 276.142 -1.04536 -3.32976 0
M  V30 3036 C 277.49 -1.10879 -4.09867 0
M  V30 3037 O 278.514 -0.995327 -3.42011 0
M  V30 3038 O 277.373 -1.28417 -5.31198 0
M  V30 3039 H 274.467 -0.159596 -0.811454 0
M  V30 3040 H 277.013 -1.02457 -1.3528 0
M  V30 3041 H 275.785 -2.08913 -3.30864 0
M  V30 3042 H 275.408 -0.496494 -3.94488 0
M  V30 3043 N 276.405 1.4127 -0.698611 0
M  V30 3044 C 277.352 2.30773 -0.0352094 0
M  V30 3045 C 278.322 1.47273 0.768111 0
M  V30 3046 O 279.507 1.76053 0.735524 0
M  V30 3047 C 276.647 3.33346 0.893 0
M  V30 3048 C 275.76 4.31924 0.0809695 0
M  V30 3049 C 274.895 5.21566 1.0071 0
M  V30 3050 C 273.934 6.11811 0.188155 0
M  V30 3051 N 273.071 6.93926 1.06825 0
M  V30 3052 H 277.911 2.86943 -0.804207 0
M  V30 3053 H 275.448 1.4132 -0.408294 0
M  V30 3054 H 277.406 3.91368 1.44523 0
M  V30 3055 H 276.036 2.78719 1.62836 0
M  V30 3056 H 275.088 3.75825 -0.588224 0
M  V30 3057 H 276.4 4.95716 -0.553801 0
M  V30 3058 H 275.554 5.84437 1.62845 0
M  V30 3059 H 274.293 4.58008 1.67572 0
M  V30 3060 H 273.298 5.47986 -0.446254 0
M  V30 3061 H 274.523 6.77425 -0.476716 0
M  V30 3062 H 272.469 6.32973 1.72283 0
M  V30 3063 H 272.386 7.54416 0.489123 0
M  V30 3064 H 273.654 7.61262 1.67632 0
M  V30 3065 N 277.883 0.443576 1.51229 0
M  V30 3066 C 278.793 -0.370721 2.31652 0
M  V30 3067 C 279.809 -1.02186 1.40833 0
M  V30 3068 O 280.985 -1.01586 1.73903 0
M  V30 3069 C 278.05 -1.45376 3.14749 0
M  V30 3070 C 277.111 -0.822099 4.21355 0
M  V30 3071 C 276.344 -1.85353 5.0048 0
M  V30 3072 O 276.567 -3.07656 4.80316 0
M  V30 3073 O 275.501 -1.4406 5.84406 0
M  V30 3074 H 279.327 0.286002 3.0235 0
M  V30 3075 H 276.912 0.20598 1.47973 0
M  V30 3076 H 278.794 -2.08173 3.66391 0
M  V30 3077 H 277.469 -2.09445 2.46809 0
M  V30 3078 H 276.376 -0.155909 3.73775 0
M  V30 3079 H 277.709 -0.224797 4.91686 0
M  V30 3080 N 279.361 -1.56624 0.175154 0
M  V30 3081 C 280.591 -2.01082 -0.474283 0
M  V30 3082 C 280.999 -1.05447 -1.57091 0
M  V30 3083 O 280.342 -0.0480595 -1.83637 0
M  V30 3084 C 280.404 -3.41963 -1.10911 0
M  V30 3085 C 280.068 -4.56742 -0.153666 0
M  V30 3086 C 281.065 -5.16076 0.629448 0
M  V30 3087 C 278.75 -5.02277 -0.0483776 0
M  V30 3088 C 280.744 -6.19377 1.50501 0
M  V30 3089 C 278.431 -6.05427 0.830768 0
M  V30 3090 C 279.429 -6.63849 1.60605 0
M  V30 3091 O 279.117 -7.64998 2.47049 0
M  V30 3092 H 278.849 -0.664261 -0.125432 0
M  V30 3093 H 281.403 -2.03549 0.275163 0
M  V30 3094 H 279.633 -3.36422 -1.90676 0
M  V30 3095 H 281.322 -3.70352 -1.66114 0
M  V30 3096 H 282.088 -4.81776 0.558297 0
M  V30 3097 H 277.967 -4.56513 -0.641611 0
M  V30 3098 H 281.511 -6.64906 2.1106 0
M  V30 3099 H 277.408 -6.39151 0.903107 0
M  V30 3100 H 278.176 -7.82336 2.40607 0
M  V30 3101 N 280.839 0.0985539 -1.57292 0
M  V30 3102 C 281.786 1.11981 -2.01814 0
M  V30 3103 C 282.756 1.39999 -0.89384 0
M  V30 3104 O 283.941 1.5152 -1.15958 0
M  V30 3105 C 281.081 2.43577 -2.44467 0
M  V30 3106 C 280.194 2.2232 -3.70402 0
M  V30 3107 C 279.329 3.4729 -4.01949 0
M  V30 3108 C 278.368 3.2128 -5.21005 0
M  V30 3109 N 277.505 4.38507 -5.48321 0
M  V30 3110 H 282.345 0.733149 -2.88841 0
M  V30 3111 H 279.882 0.350482 -1.42864 0
M  V30 3112 H 281.84 3.20373 -2.6724 0
M  V30 3113 H 280.47 2.80097 -1.60455 0
M  V30 3114 H 279.522 1.36343 -3.55126 0
M  V30 3115 H 280.834 1.99089 -4.57345 0
M  V30 3116 H 279.988 4.32495 -4.25479 0
M  V30 3117 H 278.727 3.73572 -3.13521 0
M  V30 3118 H 277.732 2.34468 -4.97298 0
M  V30 3119 H 278.957 2.96348 -6.11028 0
M  V30 3120 H 276.903 4.64871 -4.62851 0
M  V30 3121 H 276.82 4.18455 -6.29628 0
M  V30 3122 H 278.088 5.24787 -5.76385 0
M  V30 3123 N 282.317 1.53212 0.369288 0
M  V30 3124 C 283.728 1.60943 0.946276 0
M  V30 3125 C 284.079 0.47452 1.90375 0
M  V30 3126 O 283.204 -0.399597 2.12679 0
M  V30 3127 C 283.799 2.91715 1.72302 0
M  V30 3128 C 282.358 3.01792 2.24941 0
M  V30 3129 C 281.505 2.56211 1.06072 0
M  V30 3130 H 284.456 1.58007 0.148198 0
M  V30 3131 H 284.477 2.79309 2.58393 0
M  V30 3132 H 283.989 3.74295 1.0259 0
M  V30 3133 H 282.09 2.23791 2.97906 0
M  V30 3134 H 282.203 4.06803 2.53077 0
M  V30 3135 H 280.567 2.10998 1.4266 0
M  V30 3136 H 281.35 3.41206 0.378639 0
M  V30 3137 N 283.795 -0.628877 1.44509 0
M  V30 3138 C 284.745 -1.7345 1.47983 0
M  V30 3139 C 285.729 -1.5715 0.345373 0
M  V30 3140 O 286.921 -1.66848 0.590829 0
M  V30 3141 C 284.05 -3.12143 1.42904 0
M  V30 3142 C 283.136 -3.33906 2.61472 0
M  V30 3143 N 283.527 -3.26024 3.86706 0
M  V30 3144 C 281.825 -3.64709 2.56716 0
M  V30 3145 C 282.526 -3.48536 4.65722 0
M  V30 3146 N 281.502 -3.71517 3.96832 0
M  V30 3147 H 285.304 -1.65818 2.42655 0
M  V30 3148 H 282.818 -0.831419 1.39503 0
M  V30 3149 H 284.815 -3.91433 1.43476 0
M  V30 3150 H 283.475 -3.2094 0.492717 0
M  V30 3151 H 284.486 -3.04893 4.18641 0
M  V30 3152 H 281.163 -3.80473 1.71891 0
M  V30 3153 H 282.553 -3.48016 5.74747 0
M  V30 3154 N 285.273 -1.31445 -0.869486 0
M  V30 3155 C 286.498 -1.24256 -1.66058 0
M  V30 3156 C 286.923 0.188928 -1.87149 0
M  V30 3157 O 286.281 1.13522 -1.4136 0
M  V30 3158 C 286.329 -1.9924 -3.00559 0
M  V30 3159 O 285.433 -1.33007 -3.90362 0
M  V30 3160 H 284.774 -0.428973 -0.506831 0
M  V30 3161 H 287.304 -1.73521 -1.08404 0
M  V30 3162 H 287.314 -2.08854 -3.50491 0
M  V30 3163 H 285.989 -3.03342 -2.84528 0
M  V30 3164 H 284.566 -1.31848 -3.48813 0
M  V30 3165 N 286.751 1.08385 -1.14413 0
M  V30 3166 C 288 1.80153 -0.907076 0
M  V30 3167 C 288.313 1.87176 0.567851 0
M  V30 3168 O 289.519 2.55359 0.922172 0
M  V30 3169 C 287.975 3.23687 -1.57336 0
M  V30 3170 C 287.583 3.24897 -3.08457 0
M  V30 3171 C 289.327 4.00136 -1.41744 0
M  V30 3172 C 287.234 4.6302 -3.67921 0
M  V30 3173 H 286.164 0.675139 -0.335714 0
M  V30 3174 H 288.815 1.21733 -1.37307 0
M  V30 3175 H 287.197 3.82234 -1.03505 0
M  V30 3176 H 288.371 2.76055 -3.68958 0
M  V30 3177 H 286.686 2.61943 -3.2369 0
M  V30 3178 H 289.283 5.02201 -1.83572 0
M  V30 3179 H 289.626 4.14709 -0.363576 0
M  V30 3180 H 290.159 3.48058 -1.92614 0
M  V30 3181 H 286.898 4.5365 -4.73161 0
M  V30 3182 H 286.418 5.12143 -3.12201 0
M  V30 3183 H 288.097 5.31994 -3.68227 0
M  V30 3184 N 288.23 0.939286 1.26551 0
M  V30 3185 C 289.641 0.628782 1.75793 0
M  V30 3186 C 289.992 -0.856046 1.7654 0
M  V30 3187 O 289.117 -1.66994 1.3763 0
M  V30 3188 C 289.712 1.13465 3.19235 0
M  V30 3189 C 288.271 0.874601 3.66098 0
M  V30 3190 C 287.418 1.28667 2.45642 0
M  V30 3191 H 290.369 1.1178 1.12654 0
M  V30 3192 H 290.39 0.487609 3.77363 0
M  V30 3193 H 289.902 2.21535 3.1866 0
M  V30 3194 H 288.003 -0.191793 3.72106 0
M  V30 3195 H 288.116 1.50028 4.55004 0
M  V30 3196 H 286.48 0.705109 2.44745 0
M  V30 3197 H 287.263 2.37625 2.47769 0
M  V30 3198 N 289.708 -1.40897 0.706093 0
M  V30 3199 C 290.638 -2.33418 0.0620085 0
M  V30 3200 C 291.619 -1.52385 -0.755827 0
M  V30 3201 O 292.804 -1.80886 -0.706674 0
M  V30 3202 C 289.934 -3.36293 -0.867445 0
M  V30 3203 C 288.888 -4.27716 -0.155932 0
M  V30 3204 C 288.214 -5.2105 -1.20046 0
M  V30 3205 C 289.514 -5.12944 0.984149 0
M  V30 3206 H 291.208 -2.87527 0.83477 0
M  V30 3207 H 288.754 -1.38249 0.402875 0
M  V30 3208 H 290.707 -3.99949 -1.32735 0
M  V30 3209 H 289.431 -2.80556 -1.67199 0
M  V30 3210 H 288.09 -3.65498 0.284047 0
M  V30 3211 H 287.738 -4.61624 -1.99781 0
M  V30 3212 H 287.438 -5.83056 -0.729328 0
M  V30 3213 H 288.962 -5.87584 -1.66066 0
M  V30 3214 H 290.376 -5.70109 0.604048 0
M  V30 3215 H 288.773 -5.83945 1.38304 0
M  V30 3216 H 289.843 -4.49485 1.81911 0
M  V30 3217 N 291.186 -0.45159 -1.50991 0
M  V30 3218 C 292.602 -0.104647 -1.59257 0
M  V30 3219 C 292.802 1.38728 -1.4614 0
M  V30 3220 O 291.858 2.15866 -1.30989 0
M  V30 3221 C 293.171 -0.637468 -2.93865 0
M  V30 3222 C 294.719 -0.599166 -3.07212 0
M  V30 3223 C 295.194 -1.1092 -4.44366 0
M  V30 3224 N 296.685 -1.06778 -4.50725 0
M  V30 3225 C 297.42 -1.43314 -5.55201 0
M  V30 3226 N 296.916 -1.87204 -6.67028 0
M  V30 3227 N 298.709 -1.3504 -5.45638 0
M  V30 3228 H 290.86 -1.42214 -1.57762 0
M  V30 3229 H 293.123 -0.586921 -0.744465 0
M  V30 3230 H 292.829 -1.68187 -3.08879 0
M  V30 3231 H 292.703 -0.0702139 -3.77135 0
M  V30 3232 H 295.09 0.436277 -2.91857 0
M  V30 3233 H 295.171 -1.20299 -2.25747 0
M  V30 3234 H 294.815 -2.14318 -4.60467 0
M  V30 3235 H 294.745 -0.481773 -5.24392 0
M  V30 3236 H 297.236 -0.745643 -3.70471 0
M  V30 3237 H 297.549 -2.13282 -7.42786 0
M  V30 3238 H 295.894 -1.91142 -6.68199 0
M  V30 3239 H 299.085 -1.00607 -4.57161 0
M  V30 3240 H 299.258 -1.63841 -6.26945 0
M  V30 3241 N 292.664 1.56529 -0.183458 0
M  V30 3242 C 293.596 2.15747 0.773697 0
M  V30 3243 C 294.609 1.1162 1.1851 0
M  V30 3244 O 295.798 1.3876 1.12285 0
M  V30 3245 C 292.898 2.6952 2.05456 0
M  V30 3246 C 292.071 3.98429 1.8048 0
M  V30 3247 C 291.13 4.37145 2.92901 0
M  V30 3248 O 290.156 5.04791 2.6301 0
M  V30 3249 N 291.358 3.99695 4.2098 0
M  V30 3250 H 294.123 2.98505 0.26736 0
M  V30 3251 H 291.684 1.619 -0.0010878 0
M  V30 3252 H 293.676 2.92412 2.79781 0
M  V30 3253 H 292.246 1.91282 2.47245 0
M  V30 3254 H 291.466 3.8379 0.899947 0
M  V30 3255 H 292.754 4.82597 1.61175 0
M  V30 3256 H 292.152 3.4526 4.48121 0
M  V30 3257 H 290.709 4.27562 4.9197 0
M  V30 3258 N 294.142 -0.090211 1.57342 0
M  V30 3259 C 295.367 -0.810082 1.90925 0
M  V30 3260 C 295.792 -1.71248 0.778187 0
M  V30 3261 O 295.15 -1.79278 -0.269991 0
M  V30 3262 C 295.198 -1.59529 3.23393 0
M  V30 3263 O 294.302 -2.70461 3.11327 0
M  V30 3264 H 293.643 -0.222231 0.625707 0
M  V30 3265 H 296.173 -0.0639716 2.045 0
M  V30 3266 H 296.183 -1.97847 3.5682 0
M  V30 3267 H 294.858 -0.933055 4.05299 0
M  V30 3268 H 293.435 -2.35135 2.89423 0
M  V30 3269 N 295.62 -1.53406 -0.361157 0
M  V30 3270 C 296.866 -1.70054 -1.10496 0
M  V30 3271 C 297.199 -0.453278 -1.88836 0
M  V30 3272 O 296.474 0.5495 -1.86576 0
M  V30 3273 C 296.757 -2.95317 -2.06058 0
M  V30 3274 C 296.61 -4.3021 -1.31298 0
M  V30 3275 C 297.929 -3.16193 -3.06121 0
M  V30 3276 H 295.048 -0.618799 -0.400321 0
M  V30 3277 H 297.69 -1.86052 -0.385318 0
M  V30 3278 H 295.84 -2.81809 -2.67425 0
M  V30 3279 H 297.512 -4.55538 -0.726807 0
M  V30 3280 H 295.755 -4.29421 -0.614853 0
M  V30 3281 H 296.426 -5.14 -2.01265 0
M  V30 3282 H 298.902 -3.28916 -2.5486 0
M  V30 3283 H 297.778 -4.05266 -3.70204 0
M  V30 3284 H 298.039 -2.31676 -3.76535 0
M  V30 3285 N 297.098 0.621204 -1.44841 0
M  V30 3286 C 298.03 1.74615 -1.48466 0
M  V30 3287 C 299.043 1.58377 -0.37691 0
M  V30 3288 O 300.232 1.66508 -0.643215 0
M  V30 3289 C 297.332 3.12459 -1.31236 0
M  V30 3290 C 296.505 3.55064 -2.55438 0
M  V30 3291 C 295.564 4.71821 -2.32963 0
M  V30 3292 O 294.59 4.79628 -3.06505 0
M  V30 3293 N 295.792 5.64186 -1.36654 0
M  V30 3294 H 298.557 1.71973 -2.45449 0
M  V30 3295 H 296.118 0.806077 -1.40407 0
M  V30 3296 H 298.11 3.88302 -1.14032 0
M  V30 3297 H 296.68 3.09686 -0.4258 0
M  V30 3298 H 295.9 2.69324 -2.87851 0
M  V30 3299 H 297.188 3.80284 -3.38026 0
M  V30 3300 H 296.586 5.6058 -0.759344 0
M  V30 3301 H 295.143 6.39618 -1.25425 0
M  V30 3302 N 298.576 1.31904 0.862503 0
M  V30 3303 C 299.987 1.19803 1.43193 0
M  V30 3304 C 300.338 -0.192567 1.95253 0
M  V30 3305 O 299.463 -1.09081 1.86896 0
M  V30 3306 C 300.058 2.16883 2.60283 0
M  V30 3307 C 298.617 2.08692 3.13248 0
M  V30 3308 C 297.764 2.05691 1.85975 0
M  V30 3309 H 300.715 1.43846 0.670365 0
M  V30 3310 H 300.736 1.76278 3.37204 0
M  V30 3311 H 300.248 3.18083 2.22363 0
M  V30 3312 H 298.349 1.10713 3.55771 0
M  V30 3313 H 298.462 2.9815 3.75025 0
M  V30 3314 H 296.826 1.50814 2.05249 0
M  V30 3315 H 297.609 3.08659 1.50282 0
M  V30 3316 N 300.054 -1.07777 1.14986 0
M  V30 3317 C 301.279 -1.84558 0.946213 0
M  V30 3318 C 301.704 -1.81323 -0.500362 0
M  V30 3319 O 301.062 -1.20301 -1.35637 0
M  V30 3320 C 301.11 -3.29736 1.45968 0
M  V30 3321 O 300.214 -4.07149 0.65601 0
M  V30 3322 H 299.555 -0.571641 0.33782 0
M  V30 3323 H 302.085 -1.35991 1.52865 0
M  V30 3324 H 302.095 -3.80574 1.47063 0
M  V30 3325 H 300.77 -3.31406 2.51283 0
M  V30 3326 H 299.347 -3.65994 0.714322 0
M  V30 3327 N 301.532 -0.945985 -1.26051 0
M  V30 3328 C 302.479 -0.45809 -2.26208 0
M  V30 3329 C 303.449 0.484816 -1.58867 0
M  V30 3330 O 304.634 0.399969 -1.86561 0
M  V30 3331 C 301.774 0.266131 -3.44072 0
M  V30 3332 C 300.887 -0.713005 -4.26075 0
M  V30 3333 C 300.022 0.0329013 -5.3119 0
M  V30 3334 C 299.061 -0.93774 -6.04874 0
M  V30 3335 N 298.198 -0.223274 -7.01745 0
M  V30 3336 H 303.038 -1.3171 -2.67313 0
M  V30 3337 H 300.575 -0.66069 -1.31428 0
M  V30 3338 H 302.533 0.702514 -4.11243 0
M  V30 3339 H 301.163 1.08925 -3.03867 0
M  V30 3340 H 300.215 -1.26789 -3.58648 0
M  V30 3341 H 301.527 -1.45406 -4.77136 0
M  V30 3342 H 300.681 0.528335 -6.04395 0
M  V30 3343 H 299.42 0.806801 -4.8098 0
M  V30 3344 H 298.425 -1.44425 -5.30492 0
M  V30 3345 H 299.65 -1.71172 -6.57173 0
M  V30 3346 H 297.596 0.532046 -6.53839 0
M  V30 3347 H 297.513 -0.90357 -7.50581 0
M  V30 3348 H 298.781 0.250907 -7.79096 0
M  V30 3349 N 303.011 1.40521 -0.713556 0
M  V30 3350 C 304.258 2.00923 -0.25219 0
M  V30 3351 C 304.586 1.56571 1.15395 0
M  V30 3352 O 303.841 0.775874 1.79663 0
M  V30 3353 C 304.14 3.56317 -0.278 0
M  V30 3354 C 303.806 4.20246 -1.63415 0
M  V30 3355 C 302.468 4.37422 -2.00538 0
M  V30 3356 C 304.82 4.55923 -2.52554 0
M  V30 3357 C 302.148 4.87558 -3.2635 0
M  V30 3358 C 304.5 5.07458 -3.77716 0
M  V30 3359 C 303.164 5.22843 -4.14959 0
M  V30 3360 H 302.434 0.735231 -0.0922829 0
M  V30 3361 H 305.081 1.68161 -0.916188 0
M  V30 3362 H 303.386 3.88976 0.469567 0
M  V30 3363 H 305.083 4.00883 0.0967819 0
M  V30 3364 H 301.673 4.07263 -1.33546 0
M  V30 3365 H 305.857 4.42291 -2.25149 0
M  V30 3366 H 301.113 4.97654 -3.55176 0
M  V30 3367 H 305.287 5.34041 -4.4696 0
M  V30 3368 H 302.914 5.61454 -5.12516 0
M  V30 3369 N 304.489 0.459591 1.5075 0
M  V30 3370 C 305.714 -0.0996819 2.0716 0
M  V30 3371 C 306.139 -1.33761 1.32249 0
M  V30 3372 O 305.497 -1.77551 0.366786 0
M  V30 3373 C 305.545 -0.378226 3.58611 0
M  V30 3374 O 304.649 -1.46081 3.85661 0
M  V30 3375 H 303.99 0.00791392 0.663953 0
M  V30 3376 H 306.52 0.647329 1.9409 0
M  V30 3377 H 306.53 -0.622135 4.03229 0
M  V30 3378 H 305.205 0.526439 4.12555 0
M  V30 3379 H 303.782 -1.20511 3.5289 0
M  V30 3380 N 305.967 -1.56429 0.191757 0
M  V30 3381 C 307.192 -2.02309 -0.456706 0
M  V30 3382 C 307.617 -1.07103 -1.5463 0
M  V30 3383 O 306.975 -0.0539677 -1.8122 0
M  V30 3384 C 307.023 -3.46654 -0.993159 0
M  V30 3385 O 306.127 -3.54559 -2.10622 0
M  V30 3386 H 305.468 -0.655303 -0.107114 0
M  V30 3387 H 307.998 -2.02364 0.301653 0
M  V30 3388 H 308.008 -3.86377 -1.31061 0
M  V30 3389 H 306.683 -4.1544 -0.195504 0
M  V30 3390 H 305.26 -3.26708 -1.79767 0
M  V30 3391 N 307.445 0.0818655 -1.57387 0
M  V30 3392 C 308.675 0.794954 -1.90694 0
M  V30 3393 C 309.083 1.72147 -0.784982 0
M  V30 3394 O 308.426 1.81974 0.251196 0
M  V30 3395 C 308.488 1.65042 -3.19376 0
M  V30 3396 C 308.152 0.894337 -4.48164 0
M  V30 3397 C 309.149 0.21813 -5.19442 0
M  V30 3398 C 306.834 0.864495 -4.94805 0
M  V30 3399 C 308.828 -0.477802 -6.35607 0
M  V30 3400 C 306.515 0.164785 -6.10878 0
M  V30 3401 C 307.513 -0.505173 -6.81129 0
M  V30 3402 O 307.201 -1.19363 -7.94989 0
M  V30 3403 H 306.933 0.231779 -0.635023 0
M  V30 3404 H 309.487 0.059493 -2.05314 0
M  V30 3405 H 307.717 2.42844 -3.00938 0
M  V30 3406 H 309.406 2.24127 -3.38411 0
M  V30 3407 H 310.172 0.232558 -4.84442 0
M  V30 3408 H 306.051 1.37542 -4.40004 0
M  V30 3409 H 309.595 -1.00129 -6.90377 0
M  V30 3410 H 305.492 0.148249 -6.4533 0
M  V30 3411 H 306.26 -1.10188 -8.11049 0
M  V30 3412 N 308.923 1.53595 0.353017 0
M  V30 3413 C 310.148 1.7462 1.11904 0
M  V30 3414 C 310.573 0.479721 1.8188 0
M  V30 3415 O 309.931 -0.567066 1.72204 0
M  V30 3416 C 309.979 2.92029 2.11545 0
M  V30 3417 O 309.083 2.61516 3.18878 0
M  V30 3418 H 308.424 0.579531 0.324099 0
M  V30 3419 H 310.954 2.00525 0.406301 0
M  V30 3420 H 310.964 3.18551 2.5493 0
M  V30 3421 H 309.639 3.83888 1.60008 0
M  V30 3422 H 308.216 2.45852 2.80377 0
M  V30 3423 N 310.401 -0.613514 1.45168 0
M  V30 3424 C 311.817 -0.933629 1.29443 0
M  V30 3425 C 312.017 -2.00028 0.243101 0
M  V30 3426 O 311.073 -2.49848 -0.364992 0
M  V30 3427 C 312.386 -1.38018 2.67155 0
M  V30 3428 C 313.934 -1.49471 2.75004 0
M  V30 3429 C 314.409 -1.97503 4.13227 0
M  V30 3430 N 315.9 -2.04746 4.15491 0
M  V30 3431 C 316.635 -2.43121 5.19307 0
M  V30 3432 N 316.131 -2.80506 6.33473 0
M  V30 3433 N 317.924 -2.43408 5.06664 0
M  V30 3434 H 310.075 0.0916097 2.12202 0
M  V30 3435 H 312.338 -0.0216655 0.947752 0
M  V30 3436 H 312.044 -0.670625 3.45247 0
M  V30 3437 H 311.918 -2.34784 2.95222 0
M  V30 3438 H 314.305 -2.19519 1.9722 0
M  V30 3439 H 314.386 -0.510342 2.50657 0
M  V30 3440 H 314.03 -1.28045 4.91495 0
M  V30 3441 H 313.96 -2.96843 4.34962 0
M  V30 3442 H 316.451 -1.78468 3.33103 0
M  V30 3443 H 316.764 -3.08652 7.08487 0
M  V30 3444 H 315.109 -2.78216 6.36884 0
M  V30 3445 H 318.3 -2.13604 4.16523 0
M  V30 3446 H 318.473 -2.72989 5.87691 0
M  V30 3447 N 311.879 -1.3236 -0.855495 0
M  V30 3448 C 313.295 -1.11332 -1.14356 0
M  V30 3449 C 313.495 0.106751 -2.01217 0
M  V30 3450 O 312.551 0.791891 -2.39761 0
M  V30 3451 C 313.864 -2.39237 -1.82171 0
M  V30 3452 C 315.412 -2.44986 -1.9481 0
M  V30 3453 C 315.887 -3.7281 -2.66039 0
M  V30 3454 N 317.378 -3.73787 -2.73565 0
M  V30 3455 C 318.113 -4.69394 -3.29327 0
M  V30 3456 N 317.609 -5.75367 -3.85907 0
M  V30 3457 N 319.402 -4.56893 -3.27423 0
M  V30 3458 H 311.553 -2.10586 -0.277027 0
M  V30 3459 H 313.816 -0.929701 -0.185364 0
M  V30 3460 H 313.522 -3.28431 -1.25802 0
M  V30 3461 H 313.396 -2.50134 -2.82335 0
M  V30 3462 H 315.783 -1.56252 -2.50338 0
M  V30 3463 H 315.864 -2.38043 -0.936448 0
M  V30 3464 H 315.508 -4.61918 -2.11174 0
M  V30 3465 H 315.438 -3.77024 -3.67642 0
M  V30 3466 H 317.929 -2.97189 -2.33424 0
M  V30 3467 H 318.242 -6.44378 -4.26611 0
M  V30 3468 H 316.587 -5.79123 -3.84242 0
M  V30 3469 H 319.778 -3.73269 -2.82467 0
M  V30 3470 H 319.951 -5.31577 -3.7058 0
M  V30 3471 N 313.357 1.07166 -1.15556 0
M  V30 3472 C 314.32 2.12589 -0.856644 0
M  V30 3473 C 315.32 1.6015 0.14444 0
M  V30 3474 O 316.51 1.7399 -0.0854163 0
M  V30 3475 C 313.642 3.39753 -0.279405 0
M  V30 3476 H 314.835 2.40539 -1.79112 0
M  V30 3477 H 312.388 1.23086 -0.963298 0
M  V30 3478 H 313.123 3.17447 0.663174 0
M  V30 3479 H 312.908 3.79117 -1.00063 0
M  V30 3480 H 314.398 4.17507 -0.0879113 0
M  V30 3481 N 314.835 0.952656 1.25548 0
M  V30 3482 C 315.782 0.47008 2.25962 0
M  V30 3483 C 316.752 -0.476384 1.59122 0
M  V30 3484 O 317.937 -0.39007 1.8677 0
M  V30 3485 C 315.077 -0.247881 3.44209 0
M  V30 3486 C 314.19 0.735591 4.25691 0
M  V30 3487 C 313.325 -0.0047306 5.312 0
M  V30 3488 C 312.364 0.969805 6.04368 0
M  V30 3489 N 311.501 0.260486 7.01617 0
M  V30 3490 H 316.341 1.33126 2.66611 0
M  V30 3491 H 313.878 0.66765 1.31076 0
M  V30 3492 H 315.836 -0.680695 4.1161 0
M  V30 3493 H 314.466 -1.07312 3.0444 0
M  V30 3494 H 313.518 1.28689 3.57971 0
M  V30 3495 H 314.83 1.47934 4.76358 0
M  V30 3496 H 313.984 -0.496275 6.04667 0
M  V30 3497 H 312.723 -0.781282 4.81401 0
M  V30 3498 H 311.728 1.47237 5.29718 0
M  V30 3499 H 312.953 1.74655 6.56256 0
M  V30 3500 H 310.899 -0.497364 6.54112 0
M  V30 3501 H 310.816 0.943362 7.50091 0
M  V30 3502 H 312.084 -0.209587 7.79218 0
M  V30 3503 N 316.313 -1.40141 0.720998 0
M  V30 3504 C 317.729 -1.54632 0.395113 0
M  V30 3505 C 317.929 -1.69115 -1.09555 0
M  V30 3506 O 316.985 -1.68377 -1.88163 0
M  V30 3507 C 318.298 -2.77177 1.1659 0
M  V30 3508 C 319.846 -2.91 1.15274 0
M  V30 3509 C 320.321 -4.16465 1.90579 0
M  V30 3510 N 321.812 -4.23476 1.87675 0
M  V30 3511 C 322.547 -5.19475 2.42762 0
M  V30 3512 N 322.043 -6.21348 3.06428 0
M  V30 3513 N 323.836 -5.11592 2.32874 0
M  V30 3514 H 315.987 -1.28986 1.68749 0
M  V30 3515 H 318.25 -0.62412 0.713567 0
M  V30 3516 H 317.956 -2.72771 2.22011 0
M  V30 3517 H 317.83 -3.69442 0.76108 0
M  V30 3518 H 320.217 -2.94907 0.106702 0
M  V30 3519 H 320.298 -1.99838 1.59682 0
M  V30 3520 H 319.942 -4.1332 2.95176 0
M  V30 3521 H 319.872 -5.06646 1.43587 0
M  V30 3522 H 322.363 -3.50497 1.41281 0
M  V30 3523 H 322.676 -6.91034 3.45965 0
M  V30 3524 H 321.021 -6.21777 3.10514 0
M  V30 3525 H 324.212 -4.30936 1.82789 0
M  V30 3526 H 324.385 -5.86233 2.76106 0
M  V30 3527 N 317.792 -0.46758 -1.50504 0
M  V30 3528 C 318.722 0.318381 -2.31319 0
M  V30 3529 C 319.703 0.993564 -1.38066 0
M  V30 3530 O 320.888 0.991411 -1.66987 0
M  V30 3531 C 318.018 1.40275 -3.17711 0
M  V30 3532 C 316.972 0.849373 -4.19487 0
M  V30 3533 C 316.298 2.03177 -4.94594 0
M  V30 3534 C 317.598 -0.136942 -5.2212 0
M  V30 3535 H 319.292 -0.356106 -2.97275 0
M  V30 3536 H 316.838 -0.172703 -1.42961 0
M  V30 3537 H 318.791 1.96004 -3.73042 0
M  V30 3538 H 317.515 2.10596 -2.49634 0
M  V30 3539 H 316.174 0.314076 -3.65252 0
M  V30 3540 H 315.822 2.72187 -4.22993 0
M  V30 3541 H 315.522 1.66774 -5.63436 0
M  V30 3542 H 317.046 2.59403 -5.52759 0
M  V30 3543 H 318.46 0.331056 -5.72343 0
M  V30 3544 H 316.857 -0.41507 -5.98663 0
M  V30 3545 H 317.927 -1.06398 -4.73083 0
M  V30 3546 N 319.27 1.56325 -0.20005 0
M  V30 3547 C 320.202 2.16555 0.750771 0
M  V30 3548 C 321.215 1.12871 1.1732 0
M  V30 3549 O 322.404 1.39943 1.10807 0
M  V30 3550 C 319.504 2.71684 2.02586 0
M  V30 3551 C 318.677 4.00321 1.76244 0
M  V30 3552 C 317.736 4.40227 2.88248 0
M  V30 3553 O 316.762 5.07552 2.57642 0
M  V30 3554 N 317.964 4.04138 4.16717 0
M  V30 3555 H 320.729 2.98772 0.235685 0
M  V30 3556 H 318.29 1.6189 -0.0182594 0
M  V30 3557 H 320.282 2.95363 2.76664 0
M  V30 3558 H 318.852 1.93893 2.45202 0
M  V30 3559 H 318.072 3.84723 0.85919 0
M  V30 3560 H 319.36 4.84279 1.56048 0
M  V30 3561 H 318.758 3.49993 4.44434 0
M  V30 3562 H 317.315 4.32756 4.87407 0
M  V30 3563 N 320.748 -0.0735177 1.57428 0
M  V30 3564 C 322.159 -0.625551 1.75908 0
M  V30 3565 C 322.51 -1.78 0.825261 0
M  V30 3566 O 321.635 -2.16398 0.00893964 0
M  V30 3567 C 322.23 -1.14155 3.18989 0
M  V30 3568 C 320.789 -1.63946 3.38819 0
M  V30 3569 C 319.936 -0.558151 2.71625 0
M  V30 3570 H 322.887 0.152647 1.57964 0
M  V30 3571 H 322.908 -2.0104 3.23053 0
M  V30 3572 H 322.42 -0.301116 3.8693 0
M  V30 3573 H 320.521 -2.50321 2.7599 0
M  V30 3574 H 320.634 -1.71759 4.47253 0
M  V30 3575 H 318.998 -1.00278 2.34129 0
M  V30 3576 H 319.781 0.272071 3.4222 0
M  V30 3577 N 322.226 -1.5378 -0.344866 0
M  V30 3578 C 323.503 -1.61589 -1.10219 0
M  V30 3579 C 323.883 -0.436316 -2.06542 0
M  V30 3580 O 323.231 0.571543 -2.21237 0
M  V30 3581 C 323.441 -2.97602 -1.82301 0
M  V30 3582 C 324.789 -3.5291 -2.36093 0
M  V30 3583 O 325.813 -2.99768 -1.924 0
M  V30 3584 O 324.672 -4.45859 -3.16026 0
M  V30 3585 H 321.766 -0.653522 -0.506792 0
M  V30 3586 H 324.312 -1.66126 -0.346465 0
M  V30 3587 H 323.084 -3.74893 -1.12121 0
M  V30 3588 H 322.707 -2.9665 -2.64735 0
M  V30 3589 N 323.704 0.605807 -1.45491 0
M  V30 3590 C 325.115 1.18777 -1.44045 0
M  V30 3591 C 325.466 1.95471 -0.169001 0
M  V30 3592 O 324.591 2.0374 0.729324 0
M  V30 3593 C 325.186 2.16064 -2.60963 0
M  V30 3594 C 323.745 2.69633 -2.62631 0
M  V30 3595 C 322.892 1.45072 -2.36325 0
M  V30 3596 H 325.843 0.395017 -1.53705 0
M  V30 3597 H 325.864 2.9913 -2.35163 0
M  V30 3598 H 325.376 1.60217 -3.53486 0
M  V30 3599 H 323.477 3.29414 -1.74119 0
M  V30 3600 H 323.59 3.13944 -3.61906 0
M  V30 3601 H 321.954 1.74089 -1.85917 0
M  V30 3602 H 322.737 0.910899 -3.30995 0
M  V30 3603 N 325.182 1.32811 0.848464 0
M  V30 3604 C 326.092 1.24278 1.98978 0
M  V30 3605 C 327.108 0.155176 1.73307 0
M  V30 3606 O 328.284 0.376999 1.9784 0
M  V30 3607 C 325.349 0.972444 3.32783 0
M  V30 3608 C 324.41 2.14911 3.71634 0
M  V30 3609 C 323.643 1.89157 4.99054 0
M  V30 3610 O 323.866 0.837165 5.64223 0
M  V30 3611 O 322.8 2.75433 5.35183 0
M  V30 3612 H 326.626 2.20238 2.09115 0
M  V30 3613 H 324.211 1.12762 0.980052 0
M  V30 3614 H 326.093 0.838432 4.12975 0
M  V30 3615 H 324.768 0.043051 3.23671 0
M  V30 3616 H 323.675 2.33862 2.91992 0
M  V30 3617 H 325.008 3.06151 3.85399 0
M  V30 3618 N 326.66 -1.06551 1.16123 0
M  V30 3619 C 328.071 -1.60768 0.949232 0
M  V30 3620 C 328.422 -1.89523 -0.507508 0
M  V30 3621 O 327.547 -1.66671 -1.38021 0
M  V30 3622 C 328.142 -2.92086 1.71671 0
M  V30 3623 C 326.701 -3.43015 1.54977 0
M  V30 3624 C 325.848 -2.16947 1.72711 0
M  V30 3625 H 328.799 -0.895354 1.31031 0
M  V30 3626 H 328.82 -3.6138 1.19099 0
M  V30 3627 H 328.332 -2.71127 2.7769 0
M  V30 3628 H 326.433 -3.69039 0.513873 0
M  V30 3629 H 326.546 -4.18516 2.33198 0
M  V30 3630 H 324.91 -2.27041 1.15431 0
M  V30 3631 H 325.693 -1.98473 2.80113 0
M  V30 3632 N 328.138 -0.959301 -1.25041 0
M  V30 3633 C 329.366 -0.633949 -1.96948 0
M  V30 3634 C 329.781 0.794916 -1.7125 0
M  V30 3635 O 329.138 1.53231 -0.991287 0
M  V30 3636 C 329.189 -0.888805 -3.50403 0
M  V30 3637 O 328.91 -2.26149 -3.75218 0
M  V30 3638 C 330.411 -0.576482 -4.39536 0
M  V30 3639 H 327.631 -0.237263 -0.627652 0
M  V30 3640 H 330.175 -1.28495 -1.59089 0
M  V30 3641 H 328.33 -0.284145 -3.86357 0
M  V30 3642 H 328.744 -2.33514 -4.6965 0
M  V30 3643 H 330.218 -0.805314 -5.46094 0
M  V30 3644 H 330.695 0.489075 -4.36468 0
M  V30 3645 H 331.301 -1.16067 -4.09156 0
M  V30 3646 N 329.616 1.39756 -0.72842 0
M  V30 3647 C 330.526 2.34444 -0.0855374 0
M  V30 3648 C 331.542 1.57976 0.729356 0
M  V30 3649 O 332.718 1.90301 0.659346 0
M  V30 3650 C 329.783 3.36965 0.815798 0
M  V30 3651 C 328.844 4.29299 -0.0105996 0
M  V30 3652 C 328.077 5.26923 0.84781 0
M  V30 3653 O 328.3 5.30859 2.08673 0
M  V30 3654 O 327.234 6.01249 0.279969 0
M  V30 3655 H 331.06 2.91065 -0.866892 0
M  V30 3656 H 328.645 1.4117 -0.48902 0
M  V30 3657 H 330.527 3.99804 1.33171 0
M  V30 3658 H 329.202 2.82739 1.57608 0
M  V30 3659 H 328.109 3.69703 -0.571877 0
M  V30 3660 H 329.442 4.86712 -0.73295 0
M  V30 3661 N 331.094 0.475555 1.50254 0
M  V30 3662 C 332.004 -0.321501 2.32387 0
M  V30 3663 C 333.02 -0.991755 1.42969 0
M  V30 3664 O 334.196 -0.978747 1.76018 0
M  V30 3665 C 331.261 -1.38667 3.17762 0
M  V30 3666 C 330.322 -0.732538 4.23004 0
M  V30 3667 C 329.555 -1.74695 5.04299 0
M  V30 3668 O 329.778 -2.97399 4.86734 0
M  V30 3669 O 328.712 -1.31631 5.8733 0
M  V30 3670 H 332.538 0.350071 3.01676 0
M  V30 3671 H 330.123 0.237321 1.47503 0
M  V30 3672 H 332.005 -2.00354 3.70724 0
M  V30 3673 H 330.68 -2.04163 2.51196 0
M  V30 3674 H 329.587 -0.0765902 3.74022 0
M  V30 3675 H 330.92 -0.120452 4.92053 0
M  V30 3676 N 332.573 -1.56217 0.208337 0
M  V30 3677 C 333.85 -1.89739 -0.475234 0
M  V30 3678 C 334.23 -1.1238 -1.78701 0
M  V30 3679 O 333.578 -0.228979 -2.2735 0
M  V30 3680 C 333.788 -3.42289 -0.681101 0
M  V30 3681 C 335.136 -4.12789 -0.994507 0
M  V30 3682 O 336.16 -3.47814 -0.768357 0
M  V30 3683 O 335.019 -5.27649 -1.42299 0
M  V30 3684 H 332.113 -0.788478 -0.249461 0
M  V30 3685 H 334.659 -1.67855 0.249538 0
M  V30 3686 H 333.431 -3.90534 0.244722 0
M  V30 3687 H 333.054 -3.69909 -1.45785 0
M  V30 3688 N 334.051 0.0651679 -1.57465 0
M  V30 3689 C 335.3 0.761916 -1.86756 0
M  V30 3690 C 335.613 1.78406 -0.801925 0
M  V30 3691 O 336.819 2.53084 -0.982885 0
M  V30 3692 C 335.275 1.40603 -3.31299 0
M  V30 3693 C 334.883 0.422115 -4.46007 0
M  V30 3694 C 336.627 2.08476 -3.69781 0
M  V30 3695 C 334.534 1.07252 -5.81593 0
M  V30 3696 H 333.464 0.288308 -0.696702 0
M  V30 3697 H 336.115 0.015344 -1.83494 0
M  V30 3698 H 334.497 2.20109 -3.29193 0
M  V30 3699 H 335.671 -0.343613 -4.59517 0
M  V30 3700 H 333.986 -0.152527 -4.16121 0
M  V30 3701 H 336.583 2.57925 -4.68379 0
M  V30 3702 H 336.926 2.88712 -2.99919 0
M  V30 3703 H 337.459 1.35792 -3.73905 0
M  V30 3704 H 334.198 0.310342 -6.54765 0
M  V30 3705 H 333.718 1.80895 -5.71872 0
M  V30 3706 H 335.397 1.59043 -6.27148 0
M  V30 3707 N 335.529 1.53961 0.336706 0
M  V30 3708 C 336.439 1.85432 1.43708 0
M  V30 3709 C 337.455 0.745053 1.57242 0
M  V30 3710 O 338.631 1.03804 1.72588 0
M  V30 3711 C 335.696 2.06349 2.78605 0
M  V30 3712 C 334.757 3.30191 2.74358 0
M  V30 3713 C 333.99 3.50101 4.02822 0
M  V30 3714 O 334.213 2.7371 5.00439 0
M  V30 3715 O 333.147 4.43547 4.06878 0
M  V30 3716 H 336.973 2.78975 1.20028 0
M  V30 3717 H 334.558 1.39701 0.52952 0
M  V30 3718 H 336.44 2.21513 3.58483 0
M  V30 3719 H 335.115 1.15995 3.02203 0
M  V30 3720 H 334.022 3.20425 1.93078 0
M  V30 3721 H 335.355 4.2056 2.55715 0
M  V30 3722 N 337.007 -0.598083 1.45811 0
M  V30 3723 C 337.954 -1.7082 1.55207 0
M  V30 3724 C 338.924 -1.61278 0.39732 0
M  V30 3725 O 340.109 -1.80717 0.612038 0
M  V30 3726 C 337.249 -3.09144 1.53376 0
M  V30 3727 C 336.362 -3.29423 2.79472 0
M  V30 3728 C 335.497 -4.57907 2.69248 0
M  V30 3729 C 334.536 -4.71476 3.90354 0
M  V30 3730 N 333.673 -5.9127 3.78608 0
M  V30 3731 H 338.513 -1.62125 2.50039 0
M  V30 3732 H 336.05 -0.790389 1.24062 0
M  V30 3733 H 338.008 -3.89186 1.50301 0
M  V30 3734 H 336.638 -3.16773 0.620876 0
M  V30 3735 H 335.69 -2.43091 2.92594 0
M  V30 3736 H 337.002 -3.3532 3.69272 0
M  V30 3737 H 336.156 -5.46157 2.64192 0
M  V30 3738 H 334.895 -4.54423 1.77063 0
M  V30 3739 H 333.9 -3.81648 3.95759 0
M  V30 3740 H 335.125 -4.76751 4.83617 0
M  V30 3741 H 333.071 -5.88813 2.89199 0
M  V30 3742 H 332.988 -5.98369 4.6205 0
M  V30 3743 H 334.256 -6.81992 3.77501 0
M  V30 3744 N 338.485 -1.33259 -0.841409 0
M  V30 3745 C 339.435 -1.19872 -1.93945 0
M  V30 3746 C 340.419 -0.102269 -1.60575 0
M  V30 3747 O 341.611 -0.330114 -1.73894 0
M  V30 3748 C 338.74 -0.937517 -3.30251 0
M  V30 3749 C 337.826 -2.07629 -3.69799 0
M  V30 3750 N 338.217 -3.32604 -3.81062 0
M  V30 3751 C 336.515 -1.98242 -3.9952 0
M  V30 3752 C 337.216 -4.07275 -4.15333 0
M  V30 3753 N 336.192 -3.35691 -4.27566 0
M  V30 3754 H 339.994 -2.14604 -2.00805 0
M  V30 3755 H 337.508 -1.2523 -1.03398 0
M  V30 3756 H 339.505 -0.822545 -4.08705 0
M  V30 3757 H 338.165 0.00128798 -3.247 0
M  V30 3758 H 339.176 -3.67382 -3.65035 0
M  V30 3759 H 335.853 -1.12005 -4.02195 0
M  V30 3760 H 337.243 -5.1511 -4.31406 0
M  V30 3761 N 339.963 1.05934 -1.16686 0
M  V30 3762 C 341.374 1.60263 -0.957745 0
M  V30 3763 C 341.725 1.89789 0.49745 0
M  V30 3764 O 340.85 1.67401 1.37135 0
M  V30 3765 C 341.445 2.91172 -1.73218 0
M  V30 3766 C 340.004 3.42188 -1.56794 0
M  V30 3767 C 339.151 2.16028 -1.73859 0
M  V30 3768 H 342.102 0.888392 -1.31504 0
M  V30 3769 H 342.123 3.60744 -1.21014 0
M  V30 3770 H 341.635 2.6965 -2.79124 0
M  V30 3771 H 339.736 3.68762 -0.533437 0
M  V30 3772 H 339.849 4.17273 -2.35414 0
M  V30 3773 H 338.213 2.26426 -1.16633 0
M  V30 3774 H 338.996 1.96985 -2.81161 0
M  V30 3775 N 341.441 0.965919 1.2453 0
M  V30 3776 C 342.351 0.502154 2.29163 0
M  V30 3777 C 343.367 -0.436017 1.68448 0
M  V30 3778 O 344.543 -0.309497 1.99008 0
M  V30 3779 C 341.608 -0.201956 3.46111 0
M  V30 3780 C 340.669 0.775821 4.22232 0
M  V30 3781 C 339.902 0.105217 5.33596 0
M  V30 3782 O 340.125 -1.10683 5.59558 0
M  V30 3783 O 339.059 0.796475 5.96607 0
M  V30 3784 H 342.885 1.37194 2.70946 0
M  V30 3785 H 340.47 0.732875 1.30189 0
M  V30 3786 H 342.352 -0.597564 4.17142 0
M  V30 3787 H 341.027 -1.04673 3.06309 0
M  V30 3788 H 339.934 1.22185 3.53584 0
M  V30 3789 H 341.267 1.58896 4.65846 0
M  V30 3790 N 342.919 -1.39368 0.735821 0
M  V30 3791 C 343.849 -2.33234 0.111506 0
M  V30 3792 C 344.83 -1.53954 -0.723334 0
M  V30 3793 O 346.015 -1.82344 -0.668147 0
M  V30 3794 C 343.145 -3.38057 -0.795917 0
M  V30 3795 C 342.099 -4.2795 -0.065172 0
M  V30 3796 C 341.425 -5.23479 -1.08967 0
M  V30 3797 C 342.725 -5.10741 1.09273 0
M  V30 3798 H 344.419 -2.85692 0.895571 0
M  V30 3799 H 341.965 -1.37364 0.432109 0
M  V30 3800 H 343.918 -4.02675 -1.24221 0
M  V30 3801 H 342.642 -2.8404 -1.61211 0
M  V30 3802 H 341.301 -3.64813 0.361511 0
M  V30 3803 H 340.949 -4.65758 -1.89944 0
M  V30 3804 H 340.649 -5.84472 -0.605489 0
M  V30 3805 H 342.173 -5.90974 -1.53565 0
M  V30 3806 H 343.587 -5.68699 0.724841 0
M  V30 3807 H 341.984 -5.8088 1.50659 0
M  V30 3808 H 343.054 -4.45525 1.91404 0
M  V30 3809 N 344.397 -0.483516 -1.5 0
M  V30 3810 C 345.344 0.304164 -2.28787 0
M  V30 3811 C 346.314 0.976114 -1.34392 0
M  V30 3812 O 347.499 0.986156 -1.63339 0
M  V30 3813 C 344.639 1.37298 -3.16612 0
M  V30 3814 C 343.752 0.714561 -4.26049 0
M  V30 3815 C 342.887 1.76232 -5.01114 0
M  V30 3816 C 341.926 1.08483 -6.0241 0
M  V30 3817 N 341.063 2.076 -6.70706 0
M  V30 3818 H 345.903 -0.373981 -2.95644 0
M  V30 3819 H 343.44 -0.196275 -1.45785 0
M  V30 3820 H 345.398 2.00445 -3.65893 0
M  V30 3821 H 344.028 2.02012 -2.51776 0
M  V30 3822 H 343.08 -0.0297798 -3.80388 0
M  V30 3823 H 344.392 0.180383 -4.98474 0
M  V30 3824 H 343.546 2.46929 -5.54176 0
M  V30 3825 H 342.285 2.33033 -4.28424 0
M  V30 3826 H 341.29 0.363545 -5.48597 0
M  V30 3827 H 342.515 0.523551 -6.77079 0
M  V30 3828 H 340.461 2.63394 -6.00799 0
M  V30 3829 H 340.378 1.59201 -7.39047 0
M  V30 3830 H 341.646 2.77639 -7.2838 0
M  V30 3831 N 345.875 1.56104 -0.216619 0
M  V30 3832 C 346.822 2.2007 0.695531 0
M  V30 3833 C 347.792 1.15471 1.19397 0
M  V30 3834 O 348.977 1.43807 1.25396 0
M  V30 3835 C 346.117 2.88073 1.90021 0
M  V30 3836 C 345.23 4.07253 1.44113 0
M  V30 3837 C 344.365 4.63052 2.603 0
M  V30 3838 C 343.404 5.74545 2.11103 0
M  V30 3839 N 342.541 6.24656 3.20545 0
M  V30 3840 H 347.381 2.97655 0.143327 0
M  V30 3841 H 344.918 1.46982 0.0589934 0
M  V30 3842 H 346.876 3.25681 2.60745 0
M  V30 3843 H 345.506 2.13015 2.42538 0
M  V30 3844 H 344.558 3.75164 0.628999 0
M  V30 3845 H 345.87 4.8783 1.04036 0
M  V30 3846 H 345.024 5.03078 3.39113 0
M  V30 3847 H 343.763 3.81628 3.03663 0
M  V30 3848 H 342.768 5.34027 1.3075 0
M  V30 3849 H 343.993 6.57801 1.68746 0
M  V30 3850 H 341.939 5.46148 3.63399 0
M  V30 3851 H 341.856 7.00343 2.84704 0
M  V30 3852 H 343.124 6.69338 3.99508 0
M  V30 3853 N 347.353 -0.0568162 1.57498 0
M  V30 3854 C 348.283 -1.06593 2.0775 0
M  V30 3855 C 349.264 -1.39448 0.974082 0
M  V30 3856 O 350.449 -1.48815 1.24771 0
M  V30 3857 C 347.579 -2.37509 2.5339 0
M  V30 3858 C 346.533 -2.1897 3.67745 0
M  V30 3859 C 345.859 -3.55402 3.99492 0
M  V30 3860 C 347.159 -1.59859 4.97235 0
M  V30 3861 H 348.853 -0.647706 2.9231 0
M  V30 3862 H 346.399 -0.310116 1.40621 0
M  V30 3863 H 348.352 -3.08409 2.87162 0
M  V30 3864 H 347.076 -2.8134 1.65878 0
M  V30 3865 H 345.735 -1.50508 3.3428 0
M  V30 3866 H 345.383 -3.9683 3.09088 0
M  V30 3867 H 345.083 -3.43831 4.76502 0
M  V30 3868 H 346.607 -4.27708 4.35773 0
M  V30 3869 H 348.021 -2.20642 5.29141 0
M  V30 3870 H 346.418 -1.58942 5.78669 0
M  V30 3871 H 347.488 -0.561506 4.81638 0
M  V30 3872 N 348.832 -1.54138 -0.328536 0
M  V30 3873 C 349.764 -1.79509 -1.4251 0
M  V30 3874 C 350.777 -0.67688 -1.48061 0
M  V30 3875 O 351.966 -0.953898 -1.50874 0
M  V30 3876 C 349.066 -1.89337 -2.81078 0
M  V30 3877 C 348.239 -3.19443 -2.98789 0
M  V30 3878 C 347.298 -3.20036 -4.17688 0
M  V30 3879 O 346.324 -3.93697 -4.11086 0
M  V30 3880 N 347.526 -2.43467 -5.26976 0
M  V30 3881 H 350.291 -2.74139 -1.21111 0
M  V30 3882 H 347.852 -1.53373 -0.518499 0
M  V30 3883 H 349.844 -1.87167 -3.58818 0
M  V30 3884 H 348.414 -1.01826 -2.95551 0
M  V30 3885 H 347.634 -3.34614 -2.08391 0
M  V30 3886 H 348.922 -4.05354 -3.07515 0
M  V30 3887 H 348.32 -1.83201 -5.35214 0
M  V30 3888 H 346.877 -2.4708 -6.03154 0
M  V30 3889 N 350.31 0.590341 -1.46126 0
M  V30 3890 C 351.559 1.34499 -1.50309 0
M  V30 3891 C 351.872 1.94977 -0.156021 0
M  V30 3892 O 353.078 2.71395 -0.0756037 0
M  V30 3893 C 351.534 2.43723 -2.64815 0
M  V30 3894 C 351.142 1.89582 -4.0591 0
M  V30 3895 C 352.886 3.20579 -2.78262 0
M  V30 3896 C 350.793 2.9639 -5.11769 0
M  V30 3897 H 349.723 0.505593 -0.559368 0
M  V30 3898 H 352.374 0.630848 -1.72315 0
M  V30 3899 H 350.756 3.17902 -2.36124 0
M  V30 3900 H 351.93 1.21997 -4.44357 0
M  V30 3901 H 350.245 1.25418 -3.97063 0
M  V30 3902 H 352.842 4.00276 -3.54519 0
M  V30 3903 H 353.185 3.72684 -1.85505 0
M  V30 3904 H 353.718 2.53505 -3.06562 0
M  V30 3905 H 350.457 2.49181 -6.06291 0
M  V30 3906 H 349.977 3.62487 -4.77873 0
M  V30 3907 H 351.656 3.60474 -5.37278 0
M  V30 3908 N 351.788 1.33704 0.83433 0
M  V30 3909 C 353.018 1.28281 1.6195 0
M  V30 3910 C 353.426 -0.147603 1.88623 0
M  V30 3911 O 352.769 -1.1016 1.47005 0
M  V30 3912 C 352.831 1.99386 2.99141 0
M  V30 3913 C 352.495 3.48681 2.95416 0
M  V30 3914 C 353.492 4.438 2.70809 0
M  V30 3915 C 351.177 3.90925 3.15409 0
M  V30 3916 C 353.171 5.79138 2.66229 0
M  V30 3917 C 350.858 5.26366 3.10454 0
M  V30 3918 C 351.856 6.20284 2.85895 0
M  V30 3919 O 351.544 7.53245 2.80852 0
M  V30 3920 H 351.276 0.44315 0.510484 0
M  V30 3921 H 353.83 1.76711 1.04702 0
M  V30 3922 H 352.06 1.45554 3.58261 0
M  V30 3923 H 353.749 1.87403 3.60049 0
M  V30 3924 H 354.515 4.12485 2.5511 0
M  V30 3925 H 350.394 3.18229 3.33543 0
M  V30 3926 H 353.938 6.52416 2.4698 0
M  V30 3927 H 349.835 5.57304 3.25703 0
M  V30 3928 H 350.603 7.62846 2.96661 0
M  V30 3929 N 353.266 -1.05314 1.17247 0
M  V30 3930 C 354.514 -1.77941 0.958194 0
M  V30 3931 C 354.835 -1.88089 -0.514556 0
M  V30 3932 O 354.105 -1.39676 -1.37359 0
M  V30 3933 H 352.685 -0.659116 0.351533 0
M  V30 3934 H 355.347 -1.27166 1.47699 0
M  V30 3935 H 354.443 -2.79663 1.38546 0
M  V30 3936 N 354.744 -0.972509 -1.24016 0
M  V30 3937 C 356.155 -0.67517 -1.74064 0
M  V30 3938 C 356.506 0.808939 -1.78747 0
M  V30 3939 O 355.631 1.63286 -1.42009 0
M  V30 3940 C 356.226 -1.21889 -3.16115 0
M  V30 3941 C 354.785 -0.971358 -3.6365 0
M  V30 3942 C 353.932 -1.35134 -2.42145 0
M  V30 3943 H 356.883 -1.14727 -1.09651 0
M  V30 3944 H 356.904 -0.587489 -3.75937 0
M  V30 3945 H 356.416 -2.29906 -3.12674 0
M  V30 3946 H 354.517 0.0930686 -3.72484 0
M  V30 3947 H 354.63 -1.62039 -4.50866 0
M  V30 3948 H 352.994 -0.769751 -2.4279 0
M  V30 3949 H 353.777 -2.4411 -2.41381 0
M  V30 3950 N 356.222 1.38976 -0.743202 0
M  V30 3951 C 357.47 1.99948 -0.29417 0
M  V30 3952 C 357.791 1.59279 1.12495 0
M  V30 3953 O 357.061 0.844808 1.76748 0
M  V30 3954 H 355.641 0.739473 -0.105774 0
M  V30 3955 H 358.303 1.699 -0.954986 0
M  V30 3956 H 357.399 3.10142 -0.349056 0
M  V30 3957 N 357.7 0.491464 1.49741 0
M  V30 3958 C 359.111 0.0413169 1.86654 0
M  V30 3959 C 359.462 -1.36985 1.40462 0
M  V30 3960 O 358.587 -2.01917 0.778354 0
M  V30 3961 C 359.182 0.0682023 3.38731 0
M  V30 3962 C 357.741 -0.32656 3.74981 0
M  V30 3963 C 356.888 0.444888 2.73708 0
M  V30 3964 H 359.839 0.704733 1.42194 0
M  V30 3965 H 359.86 -0.729322 3.73445 0
M  V30 3966 H 359.372 1.09539 3.72321 0
M  V30 3967 H 357.473 -1.35734 3.46997 0
M  V30 3968 H 357.586 -0.013741 4.79098 0
M  V30 3969 H 355.95 -0.104062 2.54487 0
M  V30 3970 H 356.733 1.47197 3.10142 0
M  V30 3971 N 359.178 -1.55987 0.224894 0
M  V30 3972 C 360.125 -2.20436 -0.68385 0
M  V30 3973 C 361.095 -1.16102 -1.18783 0
M  V30 3974 O 362.28 -1.4447 -1.24632 0
M  V30 3975 C 359.42 -2.89076 -1.88491 0
M  V30 3976 C 358.533 -4.08012 -1.41951 0
M  V30 3977 C 357.668 -4.64426 -2.5784 0
M  V30 3978 C 356.707 -5.75656 -2.08053 0
M  V30 3979 N 355.844 -6.26347 -3.17227 0
M  V30 3980 H 360.684 -2.97727 -0.12754 0
M  V30 3981 H 358.221 -1.47011 -0.0511978 0
M  V30 3982 H 360.179 -3.27059 -2.59014 0
M  V30 3983 H 358.809 -2.14298 -2.41405 0
M  V30 3984 H 357.861 -3.75492 -0.609095 0
M  V30 3985 H 359.173 -4.88375 -1.01447 0
M  V30 3986 H 358.327 -5.04869 -3.3644 0
M  V30 3987 H 357.066 -3.83233 -3.01635 0
M  V30 3988 H 356.071 -5.34712 -1.27916 0
M  V30 3989 H 357.296 -6.58686 -1.65255 0
M  V30 3990 H 355.242 -5.48067 -3.60497 0
M  V30 3991 H 355.159 -7.01843 -2.80986 0
M  V30 3992 H 356.427 -6.71447 -3.95953 0
M  V30 3993 N 360.656 0.0484629 -1.57525 0
M  V30 3994 C 361.589 1.08755 -2.00618 0
M  V30 3995 C 362.567 1.36272 -0.887058 0
M  V30 3996 O 363.751 1.49255 -1.15131 0
M  V30 3997 C 360.878 2.42675 -2.36277 0
M  V30 3998 C 359.924 2.31142 -3.58435 0
M  V30 3999 S 360.757 1.68326 -5.08357 0
M  V30 4000 C 361.913 3.03776 -5.47239 0
M  V30 4001 H 362.146 0.720415 -2.88439 0
M  V30 4002 H 359.679 0.257801 -1.52233 0
M  V30 4003 H 361.637 3.19699 -2.57494 0
M  V30 4004 H 360.298 2.76541 -1.48942 0
M  V30 4005 H 359.491 3.29957 -3.80978 0
M  V30 4006 H 359.093 1.62258 -3.36969 0
M  V30 4007 H 361.385 4.00106 -5.46737 0
M  V30 4008 H 362.328 2.85988 -6.47778 0
M  V30 4009 H 362.736 3.05456 -4.74718 0
M  V30 4010 N 362.134 1.5431 0.320358 0
M  V30 4011 C 363.067 1.78769 1.41834 0
M  V30 4012 C 364.045 0.63783 1.49568 0
M  V30 4013 O 365.229 0.875628 1.66928 0
M  V30 4014 C 362.356 1.90712 2.79905 0
M  V30 4015 C 361.402 3.13023 2.89687 0
M  V30 4016 S 362.235 4.71554 2.53766 0
M  V30 4017 C 363.391 4.86408 3.93902 0
M  V30 4018 H 363.624 2.71619 1.20874 0
M  V30 4019 H 361.157 1.45474 0.517377 0
M  V30 4020 H 363.115 1.98279 3.59438 0
M  V30 4021 H 361.776 0.988343 2.98145 0
M  V30 4022 H 360.969 3.18124 3.90913 0
M  V30 4023 H 360.571 3.03803 2.18128 0
M  V30 4024 H 362.863 4.69241 4.88691 0
M  V30 4025 H 363.806 5.88508 3.93782 0
M  V30 4026 H 364.214 4.14689 3.83005 0
M  V30 4027 N 363.613 -0.582584 1.46437 0
M  V30 4028 C 364.861 -1.33814 1.51453 0
M  V30 4029 C 365.182 -1.94277 0.167792 0
M  V30 4030 O 364.452 -1.78566 -0.805677 0
M  V30 4031 H 363.032 -0.496838 0.557818 0
M  V30 4032 H 365.694 -0.682281 1.82568 0
M  V30 4033 H 364.79 -2.14479 2.26728 0
M  V30 4034 N 365.091 -1.34144 -0.827227 0
M  V30 4035 C 366.021 -1.28005 -1.95287 0
M  V30 4036 C 367.002 -0.158321 -1.69362 0
M  V30 4037 O 368.187 -0.349987 -1.9102 0
M  V30 4038 C 365.317 -1.03036 -3.31664 0
M  V30 4039 C 364.271 -2.11628 -3.72019 0
M  V30 4040 C 363.597 -1.71854 -5.0633 0
M  V30 4041 C 364.897 -3.53417 -3.8457 0
M  V30 4042 H 366.591 -2.22187 -2.00682 0
M  V30 4043 H 364.137 -1.0696 -0.964135 0
M  V30 4044 H 366.09 -0.973863 -4.09993 0
M  V30 4045 H 364.814 -0.0529391 -3.26557 0
M  V30 4046 H 363.473 -2.16339 -2.95961 0
M  V30 4047 H 363.121 -0.727841 -4.97706 0
M  V30 4048 H 362.821 -2.44531 -5.34302 0
M  V30 4049 H 364.345 -1.67692 -5.87122 0
M  V30 4050 H 365.759 -3.51142 -4.5318 0
M  V30 4051 H 364.156 -4.24679 -4.2399 0
M  V30 4052 H 365.226 -3.91072 -2.86689 0
M  V30 4053 N 366.569 1.04691 -1.17803 0
M  V30 4054 C 367.817 1.7743 -0.967617 0
M  V30 4055 C 368.138 1.88359 0.504574 0
M  V30 4056 O 367.408 1.40402 1.36617 0
M  V30 4057 H 365.988 0.657242 -0.355024 0
M  V30 4058 H 368.65 1.2638 -1.48371 0
M  V30 4059 H 367.746 2.78924 -1.40027 0
M  V30 4060 N 368.047 0.979072 1.23499 0
M  V30 4061 C 368.977 0.537606 2.27227 0
M  V30 4062 C 369.958 -0.428539 1.64613 0
M  V30 4063 O 371.143 -0.322191 1.91509 0
M  V30 4064 C 368.273 -0.162052 3.46922 0
M  V30 4065 C 367.227 0.721242 4.21879 0
M  V30 4066 C 366.553 -0.110555 5.34586 0
M  V30 4067 C 367.853 2.01141 4.82016 0
M  V30 4068 H 369.547 1.40462 2.64406 0
M  V30 4069 H 367.093 0.67684 1.27102 0
M  V30 4070 H 369.046 -0.482192 4.18632 0
M  V30 4071 H 367.77 -1.06351 3.08799 0
M  V30 4072 H 366.429 1.02482 3.51984 0
M  V30 4073 H 366.077 -1.0125 4.92704 0
M  V30 4074 H 365.777 0.477325 5.85658 0
M  V30 4075 H 367.301 -0.425107 6.09118 0
M  V30 4076 H 368.715 1.75612 5.45741 0
M  V30 4077 H 367.112 2.54695 5.43369 0
M  V30 4078 H 368.182 2.69909 4.02836 0
M  V30 4079 N 369.525 -1.3858 0.750561 0
M  V30 4080 C 370.458 -2.28095 0.0693139 0
M  V30 4081 C 371.436 -1.45217 -0.731491 0
M  V30 4082 O 372.62 -1.74587 -0.71076 0
M  V30 4083 C 369.747 -3.26282 -0.90871 0
M  V30 4084 C 368.793 -4.26056 -0.194507 0
M  V30 4085 S 369.626 -5.24026 1.10257 0
M  V30 4086 C 370.782 -6.2577 0.127542 0
M  V30 4087 H 371.015 -2.85526 0.8284 0
M  V30 4088 H 368.548 -1.44536 0.543014 0
M  V30 4089 H 370.506 -3.83367 -1.46766 0
M  V30 4090 H 369.167 -2.6784 -1.64075 0
M  V30 4091 H 368.36 -4.95249 -0.93512 0
M  V30 4092 H 367.962 -3.72852 0.292837 0
M  V30 4093 H 370.254 -6.73796 -0.707516 0
M  V30 4094 H 371.197 -7.03712 0.787044 0
M  V30 4095 H 371.605 -5.63938 -0.251803 0
M  V30 4096 N 371.003 -0.499398 -1.49478 0
M  V30 4097 C 371.966 0.268838 -2.27618 0
M  V30 4098 C 372.966 0.895383 -1.33565 0
M  V30 4099 O 374.156 0.760164 -1.56739 0
M  V30 4100 C 371.288 1.38559 -3.11471 0
M  V30 4101 H 372.481 -0.416812 -2.96989 0
M  V30 4102 H 370.034 -0.254313 -1.54217 0
M  V30 4103 H 370.769 2.10544 -2.46661 0
M  V30 4104 H 370.554 0.941797 -3.80621 0
M  V30 4105 H 372.044 1.92678 -3.70493 0
M  V30 4106 N 372.481 1.55866 -0.233164 0
M  V30 4107 C 373.428 2.20796 0.67215 0
M  V30 4108 C 374.398 1.16731 1.18166 0
M  V30 4109 O 375.583 1.45129 1.23864 0
M  V30 4110 C 372.723 2.90072 1.86955 0
M  V30 4111 C 371.836 4.08759 1.39786 0
M  V30 4112 C 370.971 4.65787 2.55374 0
M  V30 4113 C 370.01 5.76752 2.04998 0
M  V30 4114 N 369.147 6.28021 3.13901 0
M  V30 4115 H 373.987 2.9779 0.111749 0
M  V30 4116 H 371.524 1.47036 0.0434007 0
M  V30 4117 H 373.482 3.28428 2.57276 0
M  V30 4118 H 372.112 2.15575 2.40265 0
M  V30 4119 H 371.164 3.7581 0.589173 0
M  V30 4120 H 372.476 4.88906 0.98856 0
M  V30 4121 H 371.63 5.06646 3.33758 0
M  V30 4122 H 370.369 3.84828 2.99598 0
M  V30 4123 H 369.374 5.35383 1.25079 0
M  V30 4124 H 370.599 6.59553 1.61759 0
M  V30 4125 H 368.545 5.49971 3.57586 0
M  V30 4126 H 368.462 7.03323 2.7726 0
M  V30 4127 H 369.73 6.73538 3.92386 0
M  V30 4128 N 373.959 -0.0401083 1.57549 0
M  V30 4129 C 375.236 -0.767917 1.79896 0
M  V30 4130 C 375.616 -1.9416 0.82856 0
M  V30 4131 O 374.964 -2.2812 -0.131671 0
M  V30 4132 C 375.174 -1.2113 3.27305 0
M  V30 4133 C 376.522 -1.63175 3.91994 0
M  V30 4134 O 377.546 -1.30616 3.31388 0
M  V30 4135 O 376.405 -2.23565 4.98679 0
M  V30 4136 H 373.499 -0.370441 0.739393 0
M  V30 4137 H 376.045 -0.017737 1.69691 0
M  V30 4138 H 374.817 -0.372937 3.89519 0
M  V30 4139 H 374.44 -2.02183 3.42356 0
M  V30 4140 N 375.437 -1.54477 -0.31217 0
M  V30 4141 C 376.384 -1.84655 -1.38461 0
M  V30 4142 C 377.354 -0.694536 -1.50882 0
M  V30 4143 O 378.539 -0.942081 -1.6592 0
M  V30 4144 C 375.679 -2.0896 -2.74645 0
M  V30 4145 C 374.792 -3.36618 -2.70763 0
M  V30 4146 C 373.927 -3.50824 -3.98868 0
M  V30 4147 C 372.966 -4.72315 -3.89339 0
M  V30 4148 N 372.103 -4.83387 -5.09197 0
M  V30 4149 H 376.943 -2.76142 -1.12026 0
M  V30 4150 H 374.48 -1.36748 -0.542065 0
M  V30 4151 H 376.438 -2.21045 -3.53829 0
M  V30 4152 H 375.068 -1.20752 -2.99364 0
M  V30 4153 H 374.12 -3.33211 -1.83506 0
M  V30 4154 H 375.432 -4.25917 -2.59608 0
M  V30 4155 H 374.586 -3.62513 -4.86486 0
M  V30 4156 H 373.325 -2.59638 -4.12843 0
M  V30 4157 H 372.33 -4.6067 -3.00105 0
M  V30 4158 H 373.555 -5.64897 -3.76919 0
M  V30 4159 H 371.501 -3.9512 -5.23657 0
M  V30 4160 H 371.418 -5.66669 -5.00422 0
M  V30 4161 H 372.686 -4.9942 -5.98498 0
M  V30 4162 N 376.915 0.57481 -1.46744 0
M  V30 4163 C 378.192 1.3352 -1.4294 0
M  V30 4164 C 378.572 2.10775 -0.117009 0
M  V30 4165 O 377.92 2.09966 0.901474 0
M  V30 4166 C 378.13 2.25456 -2.66403 0
M  V30 4167 C 379.478 2.87035 -3.12883 0
M  V30 4168 O 380.502 2.35766 -2.67007 0
M  V30 4169 O 379.361 3.80179 -3.92589 0
M  V30 4170 H 376.455 0.600318 -0.568812 0
M  V30 4171 H 379.001 0.595171 -1.58921 0
M  V30 4172 H 377.773 1.67851 -3.53471 0
M  V30 4173 H 377.396 3.06785 -2.52921 0
M  V30 4174 N 378.394 1.34581 0.820102 0
M  V30 4175 C 379.341 1.2639 1.93117 0
M  V30 4176 C 380.311 0.138554 1.65521 0
M  V30 4177 O 381.496 0.320004 1.88097 0
M  V30 4178 C 378.636 1.02812 3.29429 0
M  V30 4179 C 377.749 2.24146 3.693 0
M  V30 4180 C 376.884 1.93829 4.94574 0
M  V30 4181 C 375.923 3.1129 5.27034 0
M  V30 4182 N 375.06 2.80838 6.43486 0
M  V30 4183 H 379.9 2.21408 1.99455 0
M  V30 4184 H 377.437 1.10077 0.975784 0
M  V30 4185 H 379.395 0.871788 4.0799 0
M  V30 4186 H 378.025 0.114612 3.22596 0
M  V30 4187 H 377.077 2.50691 2.86109 0
M  V30 4188 H 378.389 3.11899 3.89257 0
M  V30 4189 H 377.543 1.74948 5.80929 0
M  V30 4190 H 376.282 1.03341 4.76626 0
M  V30 4191 H 375.287 3.30764 4.39175 0
M  V30 4192 H 376.512 4.02561 5.4692 0
M  V30 4193 H 374.458 1.92929 6.26988 0
M  V30 4194 H 374.375 3.62123 6.63629 0
M  V30 4195 H 375.643 2.65467 7.32903 0
M  V30 4196 N 379.872 -1.04064 1.18357 0
M  V30 4197 C 381.1 -1.80916 1.00384 0
M  V30 4198 C 381.515 -1.83414 -0.447738 0
M  V30 4199 O 380.872 -1.26962 -1.31099 0
M  V30 4200 C 380.923 -3.26516 1.55144 0
M  V30 4201 O 380.644 -3.2424 2.94618 0
M  V30 4202 C 382.145 -4.20013 1.41789 0
M  V30 4203 H 379.365 -0.569728 0.354474 0
M  V30 4204 H 381.909 -1.31151 1.56906 0
M  V30 4205 H 380.064 -3.73512 1.02798 0
M  V30 4206 H 380.478 -4.15452 3.20156 0
M  V30 4207 H 381.952 -5.20111 1.84901 0
M  V30 4208 H 382.429 -4.37667 0.36661 0
M  V30 4209 H 383.035 -3.78881 1.93207 0
M  V30 4210 N 381.35 -0.985608 -1.22978 0
M  V30 4211 C 382.596 -0.65836 -1.91816 0
M  V30 4212 C 382.929 0.806692 -1.76653 0
M  V30 4213 O 382.204 1.58252 -1.13078 0
M  V30 4214 C 382.487 -1.056 -3.44268 0
M  V30 4215 C 382.34 -2.57906 -3.68516 0
M  V30 4216 C 383.659 -0.603781 -4.35939 0
M  V30 4217 H 380.778 -0.24065 -0.696604 0
M  V30 4218 H 383.42 -1.22783 -1.44998 0
M  V30 4219 H 381.57 -0.571445 -3.84274 0
M  V30 4220 H 383.242 -3.13976 -3.3796 0
M  V30 4221 H 381.485 -3.00305 -3.13048 0
M  V30 4222 H 382.156 -2.80779 -4.75255 0
M  V30 4223 H 384.632 -1.01987 -4.03408 0
M  V30 4224 H 383.508 -0.910383 -5.41298 0
M  V30 4225 H 383.769 0.495761 -4.39312 0
M  V30 4226 N 382.828 1.3818 -0.7579 0
M  V30 4227 C 383.778 2.27741 -0.108674 0
M  V30 4228 C 384.762 1.45415 0.688709 0
M  V30 4229 O 385.954 1.68108 0.553956 0
M  V30 4230 C 383.083 3.34313 0.780367 0
M  V30 4231 C 382.169 4.24093 -0.0240977 0
M  V30 4232 N 382.56 4.9451 -1.06271 0
M  V30 4233 C 380.858 4.45542 0.202049 0
M  V30 4234 C 381.559 5.60675 -1.54979 0
M  V30 4235 N 380.535 5.36684 -0.864348 0
M  V30 4236 H 384.337 2.79649 -0.904071 0
M  V30 4237 H 381.851 1.51133 -0.594346 0
M  V30 4238 H 383.848 3.97368 1.26114 0
M  V30 4239 H 382.508 2.83962 1.57467 0
M  V30 4240 H 383.519 4.97345 -1.44459 0
M  V30 4241 H 380.196 4.06091 0.96935 0
M  V30 4242 H 381.586 6.26992 -2.41517 0
M  V30 4243 N 384.306 0.507319 1.49211 0
M  V30 4244 C 385.253 -0.267728 2.29242 0
M  V30 4245 C 386.223 -0.954609 1.35928 0
M  V30 4246 O 387.408 -0.960046 1.64887 0
M  V30 4247 C 384.548 -1.32243 3.18756 0
M  V30 4248 C 383.661 -0.64669 4.27132 0
M  V30 4249 C 382.796 -1.68238 5.03855 0
M  V30 4250 C 381.835 -0.98885 6.0406 0
M  V30 4251 N 380.972 -1.96903 6.73924 0
M  V30 4252 H 385.812 0.420968 2.95012 0
M  V30 4253 H 383.349 0.219443 1.45454 0
M  V30 4254 H 385.307 -1.94599 3.69036 0
M  V30 4255 H 383.937 -1.97981 2.54958 0
M  V30 4256 H 382.989 0.0902926 3.80293 0
M  V30 4257 H 384.301 -0.101058 4.98698 0
M  V30 4258 H 383.455 -2.38081 5.58034 0
M  V30 4259 H 382.194 -2.26187 4.32077 0
M  V30 4260 H 381.199 -0.276222 5.49106 0
M  V30 4261 H 382.424 -0.415767 6.77826 0
M  V30 4262 H 380.37 -2.53803 6.04913 0
M  V30 4263 H 380.287 -1.47423 7.41487 0
M  V30 4264 H 381.555 -2.66015 7.32705 0
M  V30 4265 N 385.784 -1.5574 0.241426 0
M  V30 4266 C 386.731 -2.21149 -0.660432 0
M  V30 4267 C 387.701 -1.17356 -1.17545 0
M  V30 4268 O 388.886 -1.45784 -1.23093 0
M  V30 4269 C 386.026 -2.91059 -1.85414 0
M  V30 4270 C 385.139 -4.09495 -1.37616 0
M  V30 4271 C 384.274 -4.67135 -2.529 0
M  V30 4272 C 383.313 -5.77831 -2.01936 0
M  V30 4273 N 382.45 -6.29677 -3.10566 0
M  V30 4274 H 387.29 -2.97845 -0.095955 0
M  V30 4275 H 384.827 -1.47057 -0.0356024 0
M  V30 4276 H 386.785 -3.29788 -2.5553 0
M  V30 4277 H 385.415 -2.16846 -2.39118 0
M  V30 4278 H 384.467 -3.76117 -0.569235 0
M  V30 4279 H 385.779 -4.89423 -0.962618 0
M  V30 4280 H 384.933 -5.08409 -3.31067 0
M  V30 4281 H 383.672 -3.86411 -2.97553 0
M  V30 4282 H 382.677 -5.36039 -1.22238 0
M  V30 4283 H 383.902 -6.60402 -1.58259 0
M  V30 4284 H 381.848 -5.5186 -3.54664 0
M  V30 4285 H 381.765 -7.04783 -2.73526 0
M  V30 4286 H 383.033 -6.75609 -3.88809 0
M  V30 4287 N 387.262 0.0317525 -1.57568 0
M  V30 4288 C 388.508 0.724175 -1.8943 0
M  V30 4289 C 388.841 1.75149 -0.838836 0
M  V30 4290 O 388.116 1.93948 0.146422 0
M  V30 4291 C 388.399 1.39615 -3.31933 0
M  V30 4292 C 388.252 0.382537 -4.4817 0
M  V30 4293 C 389.571 2.33084 -3.73309 0
M  V30 4294 H 386.69 0.261797 -0.688935 0
M  V30 4295 H 389.332 -0.013017 -1.89996 0
M  V30 4296 H 387.482 2.02451 -3.31581 0
M  V30 4297 H 389.154 -0.243689 -4.60656 0
M  V30 4298 H 387.397 -0.29844 -4.32772 0
M  V30 4299 H 388.068 0.891145 -5.44759 0
M  V30 4300 H 390.544 1.80295 -3.7501 0
M  V30 4301 H 389.42 2.77084 -4.73831 0
M  V30 4302 H 389.681 3.19643 -3.05419 0
M  V30 4303 N 388.74 1.54641 0.303973 0
M  V30 4304 C 389.968 1.77768 1.05858 0
M  V30 4305 C 390.383 0.535722 1.8104 0
M  V30 4306 O 389.74 -0.494337 1.75677 0
M  V30 4307 C 389.791 2.9834 2.04146 0
M  V30 4308 O 389.512 4.17736 1.32015 0
M  V30 4309 C 391.013 3.33832 2.91669 0
M  V30 4310 H 388.233 0.592961 0.314067 0
M  V30 4311 H 390.777 2.01583 0.344149 0
M  V30 4312 H 388.932 2.76742 2.71096 0
M  V30 4313 H 389.346 4.85693 1.97998 0
M  V30 4314 H 390.82 4.21448 3.56491 0
M  V30 4315 H 391.297 2.51857 3.59812 0
M  V30 4316 H 391.903 3.57579 2.30254 0
M  V30 4317 N 390.218 -0.567019 1.47046 0
M  V30 4318 C 391.458 -1.3355 1.54738 0
M  V30 4319 C 391.822 -1.90947 0.200772 0
M  V30 4320 O 393.023 -2.68367 0.152489 0
M  V30 4321 C 391.294 -2.42317 2.62712 0
M  V30 4322 S 392.853 -3.29383 2.89918 0
M  V30 4323 H 389.671 -0.454788 0.546525 0
M  V30 4324 H 392.273 -0.650191 1.84371 0
M  V30 4325 H 390.977 -1.98568 3.59164 0
M  V30 4326 H 390.508 -3.15601 2.34861 0
M  V30 4327 H 392.523 -4.41548 2.26384 0
M  V30 4328 N 391.696 -1.35014 -0.812953 0
M  V30 4329 C 393.107 -1.25035 -1.38648 0
M  V30 4330 C 393.458 0.119967 -1.95833 0
M  V30 4331 O 392.583 1.02069 -1.90816 0
M  V30 4332 C 393.178 -2.26394 -2.52054 0
M  V30 4333 C 391.737 -2.20175 -3.05287 0
M  V30 4334 C 390.884 -2.12451 -1.78213 0
M  V30 4335 H 393.835 -1.46235 -0.616516 0
M  V30 4336 H 393.856 -1.88672 -3.30429 0
M  V30 4337 H 393.368 -3.26116 -2.10404 0
M  V30 4338 H 391.469 -1.23841 -3.51417 0
M  V30 4339 H 391.582 -3.11863 -3.63701 0
M  V30 4340 H 389.946 -1.58328 -1.9951 0
M  V30 4341 H 390.729 -3.14024 -1.38723 0
M  V30 4342 N 393.175 1.03435 -1.18907 0
M  V30 4343 C 394.586 1.58195 -0.991523 0
M  V30 4344 C 394.937 1.90801 0.457081 0
M  V30 4345 O 394.062 1.70272 1.33553 0
M  V30 4346 C 394.657 2.87432 -1.79355 0
M  V30 4347 C 393.216 3.38785 -1.64017 0
M  V30 4348 C 392.363 2.12292 -1.78402 0
M  V30 4349 H 395.314 0.860299 -1.33359 0
M  V30 4350 H 395.335 3.58096 -1.28638 0
M  V30 4351 H 394.847 2.63669 -2.84781 0
M  V30 4352 H 392.948 3.67547 -0.611536 0
M  V30 4353 H 393.061 4.12186 -2.44212 0
M  V30 4354 H 391.425 2.23901 -1.2141 0
M  V30 4355 H 392.208 1.90977 -2.85277 0
M  V30 4356 N 394.653 0.992116 1.22453 0
M  V30 4357 C 395.881 0.685944 1.95198 0
M  V30 4358 C 396.296 -0.749233 1.73297 0
M  V30 4359 O 395.653 -1.50549 1.03156 0
M  V30 4360 C 395.704 0.981395 3.47924 0
M  V30 4361 O 395.425 2.36018 3.6909 0
M  V30 4362 C 396.926 0.692815 4.37853 0
M  V30 4363 H 394.146 0.253821 0.621141 0
M  V30 4364 H 396.69 1.32668 1.55626 0
M  V30 4365 H 394.845 0.386481 3.85467 0
M  V30 4366 H 395.259 2.45884 4.63294 0
M  V30 4367 H 396.733 0.949818 5.43767 0
M  V30 4368 H 397.21 -0.373181 4.37612 0
M  V30 4369 H 397.816 1.26874 4.05935 0
M  V30 4370 N 396.131 -1.37776 0.765217 0
M  V30 4371 C 397.377 -2.00145 0.327072 0
M  V30 4372 C 397.71 -1.60607 -1.09175 0
M  V30 4373 O 396.985 -0.849127 -1.74986 0
M  V30 4374 C 397.268 -3.57109 0.46319 0
M  V30 4375 C 397.121 -4.06576 1.92395 0
M  V30 4376 C 398.44 -4.39888 -0.136473 0
M  V30 4377 H 395.559 -0.727113 0.120316 0
M  V30 4378 H 398.201 -1.63549 0.967039 0
M  V30 4379 H 396.351 -3.88414 -0.0816358 0
M  V30 4380 H 398.023 -3.85864 2.52798 0
M  V30 4381 H 396.266 -3.59011 2.43503 0
M  V30 4382 H 396.937 -5.15639 1.97028 0
M  V30 4383 H 399.413 -4.14803 0.328317 0
M  V30 4384 H 398.289 -5.48899 -0.0110582 0
M  V30 4385 H 398.55 -4.24758 -1.22608 0
M  V30 4386 N 397.609 -0.515225 -1.4894 0
M  V30 4387 C 398.837 0.0206034 -2.0689 0
M  V30 4388 C 399.252 1.29514 -1.37374 0
M  V30 4389 O 398.609 1.76698 -0.456529 0
M  V30 4390 C 398.66 0.26351 -3.60538 0
M  V30 4391 O 398.381 -0.960517 -4.27441 0
M  V30 4392 C 399.882 0.841383 -4.35242 0
M  V30 4393 H 397.102 -0.0268608 -0.670462 0
M  V30 4394 H 399.646 -0.716651 -1.91532 0
M  V30 4395 H 397.801 0.950777 -3.75552 0
M  V30 4396 H 398.215 -0.73212 -5.19365 0
M  V30 4397 H 399.689 0.96085 -5.43573 0
M  V30 4398 H 400.166 1.8427 -3.98674 0
M  V30 4399 H 400.772 0.191143 -4.2487 0
M  V30 4400 N 399.087 1.5561 -0.249682 0
M  V30 4401 C 400.333 1.99306 0.374841 0
M  V30 4402 C 400.666 1.13767 1.57387 0
M  V30 4403 O 399.941 0.201711 1.93451 0
M  V30 4404 C 400.224 3.51507 0.781986 0
M  V30 4405 C 400.077 4.4781 -0.422629 0
M  V30 4406 C 401.396 4.08884 1.62793 0
M  V30 4407 H 398.515 0.724572 0.134773 0
M  V30 4408 H 401.157 1.86719 -0.351549 0
M  V30 4409 H 399.307 3.62363 1.4009 0
M  V30 4410 H 400.979 4.48931 -1.06108 0
M  V30 4411 H 399.222 4.20518 -1.06524 0
M  V30 4412 H 399.893 5.51919 -0.0943766 0
M  V30 4413 H 402.369 4.01147 1.10547 0
M  V30 4414 H 401.245 5.1564 1.88166 0
M  V30 4415 H 401.506 3.57515 2.60068 0
M  V30 4416 N 400.565 -0.0233959 1.57583 0
M  V30 4417 C 401.512 -1.02224 2.06927 0
M  V30 4418 C 402.482 -1.35575 0.959617 0
M  V30 4419 O 403.667 -1.45815 1.23055 0
M  V30 4420 C 400.807 -2.31636 2.5581 0
M  V30 4421 C 399.92 -2.04394 3.80588 0
M  V30 4422 C 399.055 -3.27717 4.18061 0
M  V30 4423 C 398.094 -2.96056 5.3574 0
M  V30 4424 N 397.231 -4.11847 5.68618 0
M  V30 4425 H 402.071 -0.594504 2.9201 0
M  V30 4426 H 399.608 -0.281921 1.44373 0
M  V30 4427 H 401.566 -3.07258 2.82221 0
M  V30 4428 H 400.196 -2.72122 1.73636 0
M  V30 4429 H 399.248 -1.19244 3.61227 0
M  V30 4430 H 400.56 -1.77042 4.66323 0
M  V30 4431 H 399.714 -4.11702 4.4563 0
M  V30 4432 H 398.453 -3.58188 3.30988 0
M  V30 4433 H 397.458 -2.10474 5.07918 0
M  V30 4434 H 398.683 -2.66857 6.24471 0
M  V30 4435 H 396.629 -4.42258 4.84504 0
M  V30 4436 H 396.546 -3.87938 6.48876 0
M  V30 4437 H 397.814 -4.96689 6.00766 0
M  V30 4438 N 402.043 -1.548 -0.295768 0
M  V30 4439 C 403.32 -1.65014 -1.05023 0
M  V30 4440 C 403.7 -0.501805 -2.05049 0
M  V30 4441 O 403.048 0.500869 -2.22943 0
M  V30 4442 C 403.258 -3.03252 -1.72741 0
M  V30 4443 C 404.606 -3.60242 -2.24746 0
M  V30 4444 O 405.63 -3.05737 -1.82765 0
M  V30 4445 O 404.489 -4.55687 -3.01681 0
M  V30 4446 H 401.583 -0.669314 -0.485744 0
M  V30 4447 H 404.129 -1.67144 -0.293438 0
M  V30 4448 H 402.901 -3.7827 -1.00138 0
M  V30 4449 H 402.524 -3.04922 -2.55163 0
M  V30 4450 N 403.521 0.559213 -1.47345 0
M  V30 4451 C 404.431 1.69388 -1.62311 0
M  V30 4452 C 405.447 1.6648 -0.505993 0
M  V30 4453 O 406.623 1.85964 -0.773262 0
M  V30 4454 C 403.688 3.05894 -1.63185 0
M  V30 4455 C 402.749 3.19885 -2.86307 0
M  V30 4456 C 401.982 4.49879 -2.87131 0
M  V30 4457 O 402.205 5.35217 -1.97229 0
M  V30 4458 O 401.139 4.67618 -3.78968 0
M  V30 4459 H 404.965 1.59706 -2.58317 0
M  V30 4460 H 402.55 0.728989 -1.30407 0
M  V30 4461 H 404.432 3.87133 -1.66451 0
M  V30 4462 H 403.107 3.15964 -0.70345 0
M  V30 4463 H 402.014 2.38052 -2.88587 0
M  V30 4464 H 403.347 3.14718 -3.78435 0
M  V30 4465 N 404.999 1.35443 0.805782 0
M  V30 4466 C 405.931 1.24285 1.92577 0
M  V30 4467 C 406.944 0.165962 1.61952 0
M  V30 4468 O 408.133 0.419303 1.73505 0
M  V30 4469 C 405.233 0.891272 3.2697 0
M  V30 4470 C 404.406 2.06669 3.85495 0
M  V30 4471 C 403.465 1.69077 4.98297 0
M  V30 4472 O 402.491 2.4096 5.15681 0
M  V30 4473 N 403.693 0.614869 5.77234 0
M  V30 4474 H 406.458 2.20777 2.02676 0
M  V30 4475 H 404.019 1.28623 0.983243 0
M  V30 4476 H 406.011 0.621256 3.99903 0
M  V30 4477 H 404.581 0.016004 3.12596 0
M  V30 4478 H 403.801 2.50046 3.04747 0
M  V30 4479 H 405.089 2.85237 4.21328 0
M  V30 4480 H 404.487 0.017648 5.65697 0
M  V30 4481 H 403.044 0.404636 6.50543 0
M  V30 4482 N 406.477 -1.02803 1.19454 0
M  V30 4483 C 407.702 -1.80378 1.02364 0
M  V30 4484 C 408.127 -1.83282 -0.423007 0
M  V30 4485 O 407.485 -1.25945 -1.30413 0
M  V30 4486 C 407.533 -3.23248 1.59821 0
M  V30 4487 O 406.637 -4.04 0.828105 0
M  V30 4488 H 405.978 -0.556799 0.361761 0
M  V30 4489 H 408.508 -1.29385 1.58495 0
M  V30 4490 H 408.518 -3.73994 1.63073 0
M  V30 4491 H 407.193 -3.2045 2.65113 0
M  V30 4492 H 405.77 -3.62635 0.86891 0
M  V30 4493 N 407.956 -0.998596 -1.21925 0
M  V30 4494 C 409.204 -0.676325 -1.90448 0
M  V30 4495 C 409.525 0.794719 -1.78071 0
M  V30 4496 O 408.795 1.5701 -1.17152 0
M  V30 4497 H 407.375 -0.247165 -0.704925 0
M  V30 4498 H 410.037 -1.26633 -1.48156 0
M  V30 4499 H 409.133 -0.943858 -2.97486 0
M  V30 4500 N 409.434 1.37368 -0.772513 0
M  V30 4501 C 410.682 1.99279 -0.336516 0
M  V30 4502 C 411.003 1.6163 1.09091 0
M  V30 4503 O 410.273 0.882109 1.74916 0
M  V30 4504 H 408.853 0.737063 -0.121435 0
M  V30 4505 H 411.515 1.67836 -0.990809 0
M  V30 4506 H 410.611 3.09332 -0.414763 0
M  V30 4507 N 410.912 0.523116 1.48665 0
M  V30 4508 C 412.16 -0.0134497 2.02096 0
M  V30 4509 C 412.481 -1.35418 1.40311 0
M  V30 4510 O 411.751 -1.87543 0.566074 0
M  V30 4511 H 410.331 -0.00795915 0.746958 0
M  V30 4512 H 412.993 0.685388 1.82451 0
M  V30 4513 H 412.089 -0.126849 3.11842 0
M  V30 4514 N 412.39 -1.55475 0.257931 0
M  V30 4515 C 413.338 -2.23244 -0.653076 0
M  V30 4516 C 414.332 -1.22366 -1.17144 0
M  V30 4517 O 415.538 -1.40347 -1.12706 0
M  V30 4518 H 411.913 -0.716247 -0.229117 0
M  V30 4519 H 413.884 -2.98343 -0.0584788 0
M  V30 4520 C 412.633 -2.95401 -1.83395 0
M  V30 4521 H 411.956 -3.72802 -1.44424 0
M  V30 4522 H 413.396 -3.46165 -2.44838 0
M  V30 4523 C 411.855 -1.99895 -2.71189 0
M  V30 4524 O 412.385 -1.53909 -3.71046 0
M  V30 4525 N 410.591 -1.6676 -2.3799 0
M  V30 4526 H 410.138 -2.04352 -1.56837 0
M  V30 4527 H 410.096 -1.03127 -2.97005 0
M  V30 4528 N 413.868 0.0150385 -1.57593 0
M  V30 4529 C 415.114 0.704043 -1.90187 0
M  V30 4530 C 415.447 1.74249 -0.857366 0
M  V30 4531 O 414.722 1.94092 0.125843 0
M  V30 4532 C 415.005 1.36087 -3.33395 0
M  V30 4533 C 414.858 0.334981 -4.48551 0
M  V30 4534 C 416.177 2.29112 -3.7576 0
M  V30 4535 H 413.296 0.254475 -0.691673 0
M  V30 4536 H 415.938 -0.0331678 -1.89971 0
M  V30 4537 H 414.088 1.98922 -3.3371 0
M  V30 4538 H 415.76 -0.292534 -4.60372 0
M  V30 4539 H 414.003 -0.344325 -4.32431 0
M  V30 4540 H 414.674 0.833316 -5.45674 0
M  V30 4541 H 417.15 1.76308 -3.76902 0
M  V30 4542 H 416.026 2.72043 -4.76743 0
M  V30 4543 H 416.287 3.16385 -3.08793 0
M  V30 4544 N 415.346 1.54954 0.287554 0
M  V30 4545 C 416.571 1.79209 1.04397 0
M  V30 4546 C 416.996 0.556431 1.79682 0
M  V30 4547 O 416.354 -0.493518 1.74454 0
M  V30 4548 C 416.402 3.00739 1.98969 0
M  V30 4549 O 415.506 2.74805 3.075 0
M  V30 4550 H 414.847 0.592755 0.299227 0
M  V30 4551 H 417.377 2.02068 0.320886 0
M  V30 4552 H 417.387 3.29077 2.4119 0
M  V30 4553 H 416.062 3.90329 1.43582 0
M  V30 4554 H 414.639 2.57523 2.69697 0
M  V30 4555 N 416.824 -0.551391 1.4764 0
M  V30 4556 C 418.049 -1.33837 1.58437 0
M  V30 4557 C 418.474 -1.866 0.237063 0
M  V30 4558 O 417.832 -1.6328 -0.787994 0
M  V30 4559 C 417.88 -2.48014 2.61766 0
M  V30 4560 O 416.984 -3.50419 2.1744 0
M  V30 4561 H 416.325 -0.397299 0.532024 0
M  V30 4562 H 418.855 -0.665759 1.93465 0
M  V30 4563 H 418.865 -2.94503 2.82369 0
M  V30 4564 H 417.54 -2.08969 3.5959 0
M  V30 4565 H 416.117 -3.10196 2.06961 0
M  V30 4566 N 418.302 -1.35869 -0.798587 0
M  V30 4567 C 419.53 -1.32722 -1.58722 0
M  V30 4568 C 419.945 0.0935631 -1.88568 0
M  V30 4569 O 419.302 1.04784 -1.49421 0
M  V30 4570 C 419.353 -2.13974 -2.91371 0
M  V30 4571 O 419.074 -3.50514 -2.62815 0
M  V30 4572 C 420.575 -2.18504 -3.85708 0
M  V30 4573 H 417.795 -0.45562 -0.492596 0
M  V30 4574 H 420.339 -1.78837 -0.991843 0
M  V30 4575 H 418.494 -1.71438 -3.47402 0
M  V30 4576 H 418.908 -3.92806 -3.47568 0
M  V30 4577 H 420.382 -2.79732 -4.75872 0
M  V30 4578 H 420.859 -1.18597 -4.22885 0
M  V30 4579 H 421.465 -2.61236 -3.35612 0
M  V30 4580 N 419.78 1.02168 -1.19998 0
M  V30 4581 C 420.71 2.12488 -0.96804 0
M  V30 4582 C 421.691 1.69799 0.101185 0
M  V30 4583 O 422.876 1.94121 -0.0552993 0
M  V30 4584 C 420.006 3.43479 -0.513776 0
M  V30 4585 C 418.96 3.99884 -1.52566 0
M  V30 4586 C 418.286 5.26582 -0.928214 0
M  V30 4587 C 419.586 4.33861 -2.90795 0
M  V30 4588 H 421.28 2.32149 -1.89069 0
M  V30 4589 H 418.826 1.11564 -0.910468 0
M  V30 4590 H 420.779 4.20036 -0.338774 0
M  V30 4591 H 419.503 3.23561 0.444493 0
M  V30 4592 H 418.162 3.25429 -1.68794 0
M  V30 4593 H 417.81 5.02986 0.0378289 0
M  V30 4594 H 417.51 5.65284 -1.60397 0
M  V30 4595 H 419.034 6.05799 -0.764167 0
M  V30 4596 H 420.448 5.01327 -2.78109 0
M  V30 4597 H 418.845 4.83664 -3.55231 0
M  V30 4598 H 419.915 3.42848 -3.42904 0
M  V30 4599 N 421.258 1.00505 1.21394 0
M  V30 4600 C 422.188 0.585684 2.26035 0
M  V30 4601 C 423.169 -0.393525 1.65485 0
M  V30 4602 O 424.354 -0.281497 1.92149 0
M  V30 4603 C 421.484 -0.0884283 3.47187 0
M  V30 4604 C 420.438 0.810567 4.20254 0
M  V30 4605 C 419.764 0.00286382 5.347 0
M  V30 4606 C 421.064 2.1132 4.77641 0
M  V30 4607 H 422.758 1.46039 2.61368 0
M  V30 4608 H 420.304 0.703648 1.25638 0
M  V30 4609 H 422.257 -0.393286 4.19561 0
M  V30 4610 H 420.981 -0.997766 3.10986 0
M  V30 4611 H 419.64 1.09925 3.49731 0
M  V30 4612 H 419.288 -0.907765 4.94741 0
M  V30 4613 H 418.988 0.601444 5.84514 0
M  V30 4614 H 420.512 -0.295808 6.09883 0
M  V30 4615 H 421.926 1.87148 5.41893 0
M  V30 4616 H 420.323 2.66164 5.37845 0
M  V30 4617 H 421.393 2.78393 3.9702 0
M  V30 4618 N 422.737 -1.36956 0.779787 0
M  V30 4619 C 423.684 -2.30175 0.169697 0
M  V30 4620 C 424.654 -1.51501 -0.68094 0
M  V30 4621 O 425.839 -1.80042 -0.631629 0
M  V30 4622 C 422.979 -3.37985 -0.697131 0
M  V30 4623 C 422.092 -4.31661 0.170992 0
M  V30 4624 C 421.227 -5.2655 -0.701298 0
M  V30 4625 C 420.266 -6.11867 0.168869 0
M  V30 4626 N 419.403 -6.98973 -0.661855 0
M  V30 4627 H 424.243 -2.81767 0.970135 0
M  V30 4628 H 421.78 -1.38699 0.489994 0
M  V30 4629 H 423.738 -3.99128 -1.2146 0
M  V30 4630 H 422.368 -2.87739 -1.46309 0
M  V30 4631 H 421.42 -3.71756 0.80634 0
M  V30 4632 H 422.732 -4.91644 0.841875 0
M  V30 4633 H 421.886 -5.92937 -1.28494 0
M  V30 4634 H 420.625 -4.66998 -1.40584 0
M  V30 4635 H 419.63 -5.44452 0.764986 0
M  V30 4636 H 420.855 -6.73493 0.870863 0
M  V30 4637 H 418.801 -6.41941 -1.35086 0
M  V30 4638 H 418.718 -7.55984 -0.0484447 0
M  V30 4639 H 419.986 -7.6974 -1.22963 0
M  V30 4640 N 424.215 -0.530993 -1.48385 0
M  V30 4641 C 425.147 0.268353 -2.27624 0
M  V30 4642 C 426.16 0.903525 -1.35426 0
M  V30 4643 O 427.349 0.781796 -1.60469 0
M  V30 4644 C 424.449 1.39535 -3.08842 0
M  V30 4645 C 423.622 0.861913 -4.28824 0
M  V30 4646 C 422.681 1.87016 -4.91845 0
M  V30 4647 O 421.707 1.4267 -5.5103 0
M  V30 4648 N 422.909 3.20238 -4.84178 0
M  V30 4649 H 425.674 -0.41123 -2.96865 0
M  V30 4650 H 423.235 -0.365387 -1.57723 0
M  V30 4651 H 425.227 2.06803 -3.47871 0
M  V30 4652 H 423.797 1.97859 -2.42014 0
M  V30 4653 H 423.017 0.0132126 -3.94198 0
M  V30 4654 H 424.305 0.484415 -5.06489 0
M  V30 4655 H 423.703 3.58932 -4.37246 0
M  V30 4656 H 422.26 3.83136 -5.27305 0
M  V30 4657 N 425.693 1.55336 -0.266172 0
M  V30 4658 C 426.643 2.18848 0.639497 0
M  V30 4659 C 427.627 1.1503 1.12503 0
M  V30 4660 O 428.819 1.40875 1.0716 0
M  V30 4661 C 425.948 2.90626 1.82733 0
M  V30 4662 C 425.034 4.01723 1.35939 0
M  V30 4663 N 425.425 5.02145 0.606988 0
M  V30 4664 C 423.723 4.1463 1.6431 0
M  V30 4665 C 424.424 5.80572 0.362138 0
M  V30 4666 N 423.4 5.35551 0.931971 0
M  V30 4667 H 427.202 2.93845 0.0567057 0
M  V30 4668 H 424.716 1.62252 -0.0693312 0
M  V30 4669 H 426.713 3.34569 2.48735 0
M  V30 4670 H 425.373 2.17137 2.41416 0
M  V30 4671 H 426.384 5.17271 0.255198 0
M  V30 4672 H 423.061 3.52326 2.23993 0
M  V30 4673 H 424.451 6.71472 -0.239848 0
M  V30 4674 N 427.171 -0.0066808 1.57599 0
M  V30 4675 C 428.101 -0.999296 2.11036 0
M  V30 4676 C 429.082 -1.36278 1.01795 0
M  V30 4677 O 430.267 -1.4477 1.29442 0
M  V30 4678 C 427.397 -2.29328 2.60818 0
M  V30 4679 C 426.351 -2.07159 3.74525 0
M  V30 4680 C 425.677 -3.42512 4.10596 0
M  V30 4681 C 426.977 -1.43959 5.02069 0
M  V30 4682 H 428.671 -0.554382 2.94223 0
M  V30 4683 H 426.217 -0.265221 1.41536 0
M  V30 4684 H 428.17 -2.99117 2.96828 0
M  V30 4685 H 426.894 -2.7592 1.74745 0
M  V30 4686 H 425.553 -1.39797 3.38899 0
M  V30 4687 H 425.201 -3.86795 3.21556 0
M  V30 4688 H 424.901 -3.28498 4.87199 0
M  V30 4689 H 426.425 -4.13628 4.4916 0
M  V30 4690 H 427.839 -2.03696 5.35893 0
M  V30 4691 H 426.236 -1.40452 5.83432 0
M  V30 4692 H 427.306 -0.407992 4.83181 0
M  V30 4693 N 428.649 -1.55105 -0.279332 0
M  V30 4694 C 429.874 -1.7976 -1.03446 0
M  V30 4695 C 430.299 -0.565952 -1.79384 0
M  V30 4696 O 429.657 0.484259 -1.74713 0
M  V30 4697 C 429.705 -3.0179 -1.97371 0
M  V30 4698 O 428.809 -2.76432 -3.06038 0
M  V30 4699 H 428.15 -0.594334 -0.29608 0
M  V30 4700 H 430.68 -2.02235 -0.310165 0
M  V30 4701 H 430.69 -3.30351 -2.39441 0
M  V30 4702 H 429.365 -3.91085 -1.4151 0
M  V30 4703 H 427.942 -2.58949 -2.68328 0
M  V30 4704 N 430.127 0.543554 -1.4793 0
M  V30 4705 C 431.057 1.65888 -1.64327 0
M  V30 4706 C 432.038 1.62818 -0.492383 0
M  V30 4707 O 433.223 1.80226 -0.723338 0
M  V30 4708 C 430.353 3.04506 -1.67013 0
M  V30 4709 C 429.307 3.2243 -2.81466 0
M  V30 4710 C 428.633 4.61972 -2.69233 0
M  V30 4711 C 429.933 3.06496 -4.22915 0
M  V30 4712 H 431.627 1.52421 -2.57698 0
M  V30 4713 H 429.173 0.731849 -1.24016 0
M  V30 4714 H 431.126 3.82391 -1.77074 0
M  V30 4715 H 429.85 3.18964 -0.70212 0
M  V30 4716 H 428.509 2.46957 -2.70938 0
M  V30 4717 H 428.157 4.73247 -1.7043 0
M  V30 4718 H 427.857 4.74911 -3.46025 0
M  V30 4719 H 429.381 5.41974 -2.81242 0
M  V30 4720 H 430.795 3.74186 -4.34348 0
M  V30 4721 H 429.192 3.30938 -5.006 0
M  V30 4722 H 430.262 2.03077 -4.40327 0
M  V30 4723 N 431.605 1.3629 0.791371 0
M  V30 4724 C 432.515 1.32606 1.93527 0
M  V30 4725 C 433.531 0.228541 1.72493 0
M  V30 4726 O 434.707 0.460571 1.96063 0
M  V30 4727 C 431.772 1.11271 3.28359 0
M  V30 4728 C 430.833 2.3048 3.62185 0
M  V30 4729 C 430.066 2.10154 4.90583 0
M  V30 4730 O 430.289 1.07572 5.60165 0
M  V30 4731 O 429.223 2.97884 5.23019 0
M  V30 4732 H 433.049 2.28909 1.99585 0
M  V30 4733 H 430.634 1.16818 0.931344 0
M  V30 4734 H 432.516 1.01283 4.09047 0
M  V30 4735 H 431.191 0.180292 3.23198 0
M  V30 4736 H 430.098 2.46036 2.81811 0
M  V30 4737 H 431.431 3.22221 3.72068 0
M  V30 4738 N 433.083 -1.0153 1.20538 0
M  V30 4739 C 434.494 -1.56598 1.01657 0
M  V30 4740 C 434.845 -1.91505 -0.426668 0
M  V30 4741 O 433.97 -1.72375 -1.30827 0
M  V30 4742 C 434.565 -2.84542 1.83905 0
M  V30 4743 C 433.124 -3.36133 1.69386 0
M  V30 4744 C 432.271 -2.09427 1.81757 0
M  V30 4745 H 435.222 -0.838974 1.34711 0
M  V30 4746 H 435.243 -3.56004 1.34319 0
M  V30 4747 H 434.755 -2.59105 2.8894 0
M  V30 4748 H 432.856 -3.66528 0.669933 0
M  V30 4749 H 432.969 -4.08248 2.50739 0
M  V30 4750 H 431.333 -2.21941 1.24957 0
M  V30 4751 H 432.116 -1.86414 2.88279 0
M  V30 4752 N 434.561 -1.01147 -1.20859 0
M  V30 4753 C 435.801 -0.706331 -1.91808 0
M  V30 4754 C 436.165 0.749736 -1.76757 0
M  V30 4755 O 437.366 1.16716 -2.42138 0
M  V30 4756 C 435.637 -1.12371 -3.39275 0
M  V30 4757 S 437.196 -0.939764 -4.28619 0
M  V30 4758 H 434.014 -0.257665 -0.662669 0
M  V30 4759 H 436.616 -1.29766 -1.46223 0
M  V30 4760 H 435.32 -2.17943 -3.47749 0
M  V30 4761 H 434.851 -0.524952 -3.89882 0
M  V30 4762 H 436.866 0.159556 -4.95943 0
M  V30 4763 N 436.039 1.36541 -0.78704 0
M  V30 4764 C 437.267 2.03561 -0.370199 0
M  V30 4765 C 437.682 1.59347 1.01263 0
M  V30 4766 O 437.039 0.781781 1.64907 0
M  V30 4767 C 437.09 3.59033 -0.421614 0
M  V30 4768 O 436.811 4.01634 -1.7499 0
M  V30 4769 C 438.312 4.433 0.00489763 0
M  V30 4770 H 435.532 0.653346 -0.152904 0
M  V30 4771 H 438.076 1.74566 -1.06522 0
M  V30 4772 H 436.231 3.86746 0.224971 0
M  V30 4773 H 436.645 4.96217 -1.69909 0
M  V30 4774 H 438.119 5.51939 -0.0822184 0
M  V30 4775 H 438.596 4.26285 1.05723 0
M  V30 4776 H 439.202 4.20843 -0.614085 0
M  V30 4777 N 437.518 0.538854 1.48102 0
M  V30 4778 C 438.465 -0.219042 2.29758 0
M  V30 4779 C 439.435 -0.925562 1.37922 0
M  V30 4780 O 440.62 -0.924855 1.66886 0
M  V30 4781 C 437.76 -1.25452 3.2149 0
M  V30 4782 C 436.873 -0.555943 4.28408 0
M  V30 4783 C 436.008 -1.57512 5.0731 0
M  V30 4784 C 435.047 -0.860498 6.06021 0
M  V30 4785 N 434.184 -1.82564 6.77949 0
M  V30 4786 H 439.024 0.483449 2.94052 0
M  V30 4787 H 436.561 0.250247 1.44956 0
M  V30 4788 H 438.519 -1.86727 3.7308 0
M  V30 4789 H 437.149 -1.92528 2.591 0
M  V30 4790 H 436.201 0.170938 3.80016 0
M  V30 4791 H 437.513 0.00474616 4.988 0
M  V30 4792 H 436.667 -2.26191 5.62959 0
M  V30 4793 H 435.406 -2.16972 4.36778 0
M  V30 4794 H 434.411 -0.159686 5.49568 0
M  V30 4795 H 435.636 -0.271897 6.78555 0
M  V30 4796 H 433.582 -2.40915 6.10161 0
M  V30 4797 H 433.499 -1.31662 7.44447 0
M  V30 4798 H 434.767 -2.50414 7.38182 0
M  V30 4799 N 438.996 -1.55193 0.274407 0
M  V30 4800 C 440.224 -2.03987 -0.345943 0
M  V30 4801 C 440.639 -1.15279 -1.4952 0
M  V30 4802 O 439.996 -0.172759 -1.8168 0
M  V30 4803 C 440.047 -3.51898 -0.827631 0
M  V30 4804 O 439.768 -4.37231 0.275855 0
M  V30 4805 C 441.269 -4.16577 -1.51587 0
M  V30 4806 H 438.489 -0.666335 -0.0789892 0
M  V30 4807 H 441.033 -2.00423 0.406294 0
M  V30 4808 H 439.188 -3.55909 -1.52996 0
M  V30 4809 H 439.602 -5.24415 -0.0943638 0
M  V30 4810 H 441.076 -5.21678 -1.80433 0
M  V30 4811 H 441.553 -3.64707 -2.44716 0
M  V30 4812 H 442.159 -4.16568 -0.857409 0
M  V30 4813 N 440.474 -0.00167713 -1.576 0
M  V30 4814 C 441.702 0.693759 -1.94922 0
M  V30 4815 C 442.117 1.67215 -0.876626 0
M  V30 4816 O 441.474 1.81929 0.144279 0
M  V30 4817 C 441.525 1.42416 -3.32265 0
M  V30 4818 O 441.246 0.485014 -4.35407 0
M  V30 4819 C 442.747 2.21395 -3.84056 0
M  V30 4820 H 439.967 0.193118 -0.642609 0
M  V30 4821 H 442.511 -0.0532952 -2.04431 0
M  V30 4822 H 440.666 2.12284 -3.24059 0
M  V30 4823 H 441.08 1.00053 -5.14868 0
M  V30 4824 H 442.554 2.67996 -4.82578 0
M  V30 4825 H 443.031 3.04142 -3.16851 0
M  V30 4826 H 443.637 1.56542 -3.95443 0
M  V30 4827 N 441.952 1.55251 0.271103 0
M  V30 4828 C 442.885 1.83191 1.36075 0
M  V30 4829 C 443.863 0.685091 1.47463 0
M  V30 4830 O 445.047 0.928292 1.64058 0
M  V30 4831 C 442.174 1.99521 2.73696 0
M  V30 4832 C 441.22 3.22081 2.79582 0
M  V30 4833 S 442.053 4.79388 2.38636 0
M  V30 4834 C 443.209 4.98693 3.78228 0
M  V30 4835 H 443.442 2.75327 1.12171 0
M  V30 4836 H 440.975 1.47046 0.470833 0
M  V30 4837 H 442.933 2.09613 3.52948 0
M  V30 4838 H 441.594 1.0827 2.9485 0
M  V30 4839 H 440.787 3.304 3.80594 0
M  V30 4840 H 440.389 3.10589 2.08352 0
M  V30 4841 H 442.681 4.84551 4.73515 0
M  V30 4842 H 443.624 6.00738 3.7486 0
M  V30 4843 H 444.032 4.26665 3.69618 0
M  V30 4844 N 443.43 -0.535701 1.48216 0
M  V30 4845 C 444.362 -1.65662 1.58394 0
M  V30 4846 C 445.375 -1.5591 0.468607 0
M  V30 4847 O 446.564 -1.62475 0.7392 0
M  V30 4848 C 443.664 -3.04276 1.4923 0
M  V30 4849 C 442.837 -3.39567 2.75705 0
M  V30 4850 C 441.896 -4.57436 2.60075 0
M  V30 4851 O 440.922 -4.60942 3.33948 0
M  V30 4852 N 442.124 -5.55259 1.69315 0
M  V30 4853 H 444.889 -1.5737 2.55058 0
M  V30 4854 H 442.45 -0.722845 1.44867 0
M  V30 4855 H 444.442 -3.80994 1.36477 0
M  V30 4856 H 443.012 -3.06677 0.605632 0
M  V30 4857 H 442.232 -2.52083 3.03064 0
M  V30 4858 H 443.52 -3.59929 3.59623 0
M  V30 4859 H 442.918 -5.552 1.08489 0
M  V30 4860 H 441.475 -6.31218 1.62504 0
M  V30 4861 N 444.908 -1.36708 -0.784132 0
M  V30 4862 C 445.838 -1.34153 -1.91116 0
M  V30 4863 C 446.819 -0.212121 -1.68772 0
M  V30 4864 O 448.004 -0.410581 -1.8981 0
M  V30 4865 C 445.134 -1.13535 -3.28218 0
M  V30 4866 C 444.088 -2.23356 -3.65097 0
M  V30 4867 C 443.414 -1.87875 -5.00607 0
M  V30 4868 C 444.714 -3.65473 -3.73131 0
M  V30 4869 H 446.408 -2.28459 -1.93512 0
M  V30 4870 H 443.954 -1.09973 -0.929618 0
M  V30 4871 H 445.907 -1.10381 -4.06687 0
M  V30 4872 H 444.631 -0.156804 -3.26223 0
M  V30 4873 H 443.29 -2.25645 -2.88929 0
M  V30 4874 H 442.938 -0.885814 -4.95139 0
M  V30 4875 H 442.638 -2.61406 -5.26252 0
M  V30 4876 H 444.162 -1.86286 -5.81489 0
M  V30 4877 H 445.576 -3.65382 -4.41779 0
M  V30 4878 H 443.973 -4.37953 -4.10265 0
M  V30 4879 H 445.043 -3.99995 -2.74102 0
M  V30 4880 N 446.386 1.0089 -1.21074 0
M  V30 4881 C 447.802 1.2695 -0.967257 0
M  V30 4882 C 448.002 1.9846 0.348673 0
M  V30 4883 O 447.058 2.28459 1.0753 0
M  V30 4884 C 448.371 2.09697 -2.15517 0
M  V30 4885 C 449.919 2.22937 -2.197 0
M  V30 4886 C 450.394 3.09064 -3.37999 0
M  V30 4887 N 451.885 3.16653 -3.38061 0
M  V30 4888 C 452.62 3.8354 -4.26245 0
M  V30 4889 N 452.116 4.52488 -5.2462 0
M  V30 4890 N 453.909 3.80141 -4.14064 0
M  V30 4891 H 446.06 0.529005 -2.05707 0
M  V30 4892 H 448.323 0.296148 -0.900556 0
M  V30 4893 H 448.029 1.64497 -3.10859 0
M  V30 4894 H 447.903 3.10444 -2.14253 0
M  V30 4895 H 450.29 2.67357 -1.24916 0
M  V30 4896 H 450.371 1.21673 -2.2501 0
M  V30 4897 H 450.015 2.65347 -4.33074 0
M  V30 4898 H 449.945 4.10433 -3.29928 0
M  V30 4899 H 452.436 2.67566 -2.66865 0
M  V30 4900 H 452.749 5.01219 -5.88217 0
M  V30 4901 H 451.094 4.51288 -5.28549 0
M  V30 4902 H 454.285 3.25427 -3.36474 0
M  V30 4903 H 454.458 4.31992 -4.82998 0
M  V30 4904 N 447.864 1.01787 1.20321 0
M  V30 4905 C 448.811 0.589197 2.23153 0
M  V30 4906 C 449.781 -0.391367 1.61423 0
M  V30 4907 O 450.966 -0.290518 1.88575 0
M  V30 4908 C 448.106 -0.0650747 3.45039 0
M  V30 4909 C 447.219 0.960207 4.21194 0
M  V30 4910 C 446.354 0.276854 5.30478 0
M  V30 4911 C 445.393 1.2888 5.98378 0
M  V30 4912 N 444.53 0.632031 6.99249 0
M  V30 4913 H 449.37 1.47071 2.59179 0
M  V30 4914 H 446.907 0.736192 1.27352 0
M  V30 4915 H 448.865 -0.461552 4.14639 0
M  V30 4916 H 447.495 -0.910233 3.09701 0
M  V30 4917 H 446.547 1.47484 3.50646 0
M  V30 4918 H 447.859 1.72977 4.67847 0
M  V30 4919 H 447.013 -0.175056 6.06447 0
M  V30 4920 H 445.752 -0.525004 4.84866 0
M  V30 4921 H 444.757 1.75109 5.21169 0
M  V30 4922 H 445.982 2.09196 6.46076 0
M  V30 4923 H 443.928 -0.149935 6.55829 0
M  V30 4924 H 443.845 1.33964 7.44036 0
M  V30 4925 H 445.113 0.203755 7.79234 0
M  V30 4926 N 449.342 -1.36122 0.79427 0
M  V30 4927 C 450.29 -2.31871 0.184023 0
M  V30 4928 C 451.284 -1.56041 -0.659365 0
M  V30 4929 O 452.49 -1.71266 -0.553906 0
M  V30 4930 H 448.865 -0.750896 0.0407373 0
M  V30 4931 H 450.836 -2.80898 1.00693 0
M  V30 4932 C 449.585 -3.41324 -0.662813 0
M  V30 4933 H 448.908 -3.99793 -0.0231944 0
M  V30 4934 H 450.348 -4.10629 -1.05639 0
M  V30 4935 C 448.807 -2.83308 -1.82313 0
M  V30 4936 O 449.337 -2.75863 -2.91997 0
M  V30 4937 N 447.543 -2.40529 -1.63077 0
M  V30 4938 H 447.09 -2.46785 -0.738591 0
M  V30 4939 H 447.048 -2.02059 -2.40872 0
M  V30 4940 N 450.82 -0.546701 -1.47814 0
M  V30 4941 C 451.77 0.227042 -2.26867 0
M  V30 4942 C 452.754 0.894844 -1.33721 0
M  V30 4943 O 453.946 0.794887 -1.58147 0
M  V30 4944 C 451.075 1.26299 -3.19223 0
M  V30 4945 C 450.161 0.59913 -4.19847 0
M  V30 4946 N 450.552 -0.324777 -5.04756 0
M  V30 4947 C 448.85 0.854331 -4.37741 0
M  V30 4948 C 449.551 -0.709386 -5.77358 0
M  V30 4949 N 448.527 -0.0666153 -5.43559 0
M  V30 4950 H 452.329 -0.483476 -2.89896 0
M  V30 4951 H 449.843 -0.365893 -1.58224 0
M  V30 4952 H 451.84 1.83116 -3.74532 0
M  V30 4953 H 450.5 1.97471 -2.57751 0
M  V30 4954 H 451.511 -0.698351 -5.1317 0
M  V30 4955 H 448.188 1.55536 -3.87447 0
M  V30 4956 H 449.578 -1.46796 -6.55668 0
M  V30 4957 N 452.299 1.55045 -0.282633 0
M  V30 4958 C 453.524 2.04628 0.337977 0
M  V30 4959 C 453.949 1.15937 1.48123 0
M  V30 4960 O 453.307 0.159532 1.80597 0
M  V30 4961 C 453.355 3.51854 0.78936 0
M  V30 4962 O 452.459 3.66236 1.89592 0
M  V30 4963 H 451.8 0.660434 0.0687261 0
M  V30 4964 H 454.33 2.00261 -0.419124 0
M  V30 4965 H 454.34 3.93361 1.08311 0
M  V30 4966 H 453.015 4.15873 -0.0470419 0
M  V30 4967 H 451.592 3.36633 1.60413 0
M  V30 4968 N 453.777 0.010035 1.57597 0
M  V30 4969 C 455.002 -0.687021 1.95691 0
M  V30 4970 C 455.427 -1.65952 0.885519 0
M  V30 4971 O 454.785 -1.80633 -0.15543 0
M  V30 4972 C 454.833 -1.3864 3.32884 0
M  V30 4973 O 453.937 -2.50115 3.27897 0
M  V30 4974 H 453.278 -0.181989 0.638573 0
M  V30 4975 H 455.808 0.0662122 2.04493 0
M  V30 4976 H 455.818 -1.74754 3.6868 0
M  V30 4977 H 454.493 -0.673411 4.10412 0
M  V30 4978 H 453.07 -2.16253 3.03791 0
M  V30 4979 N 455.255 -1.55392 -0.262866 0
M  V30 4980 C 456.218 -1.88181 -1.30846 0
M  V30 4981 C 457.218 -0.757079 -1.41862 0
M  V30 4982 O 458.408 -1.02519 -1.40838 0
M  V30 4983 C 455.54 -2.09609 -2.68844 0
M  V30 4984 H 456.733 -2.81659 -1.02997 0
M  V30 4985 H 454.286 -1.48039 -0.501414 0
M  V30 4986 H 455.021 -1.18547 -3.01856 0
M  V30 4987 H 454.806 -2.91508 -2.62231 0
M  V30 4988 H 456.296 -2.36215 -3.44372 0
M  V30 4989 N 456.733 0.527833 -1.48498 0
M  V30 4990 C 457.665 1.6482 -1.5927 0
M  V30 4991 C 458.678 1.55659 -0.476869 0
M  V30 4992 O 459.867 1.62081 -0.747806 0
M  V30 4993 C 456.967 3.0348 -1.50842 0
M  V30 4994 C 456.14 3.381 -2.77502 0
M  V30 4995 C 455.199 4.5605 -2.62497 0
M  V30 4996 O 454.225 4.59165 -3.36387 0
M  V30 4997 N 455.427 5.54353 -1.72257 0
M  V30 4998 H 458.192 1.56015 -2.55889 0
M  V30 4999 H 455.753 0.715152 -1.45249 0
M  V30 5000 H 457.745 3.80264 -1.38496 0
M  V30 5001 H 456.315 3.06352 -0.621887 0
M  V30 5002 H 455.535 2.50473 -3.04396 0
M  V30 5003 H 456.823 3.58017 -3.61527 0
M  V30 5004 H 456.221 5.54617 -1.11431 0
M  V30 5005 H 454.778 6.30347 -1.65849 0
M  V30 5006 N 458.211 1.37122 0.776871 0
M  V30 5007 C 459.458 1.32047 1.53524 0
M  V30 5008 C 459.786 -0.0965631 1.9426 0
M  V30 5009 O 459.041 -1.06866 1.63945 0
M  V30 5010 C 459.34 2.20068 2.81611 0
M  V30 5011 C 459.006 3.68423 2.59953 0
M  V30 5012 C 457.668 4.08854 2.53755 0
M  V30 5013 C 460.02 4.62431 2.40431 0
M  V30 5014 C 457.348 5.41417 2.26018 0
M  V30 5015 C 459.7 5.95225 2.14219 0
M  V30 5016 C 458.364 6.34767 2.06462 0
M  V30 5017 H 457.634 0.483196 0.561785 0
M  V30 5018 H 460.281 1.69284 0.895268 0
M  V30 5019 H 458.586 1.75809 3.50141 0
M  V30 5020 H 460.283 2.13458 3.39465 0
M  V30 5021 H 456.873 3.36354 2.65638 0
M  V30 5022 H 461.057 4.32057 2.44213 0
M  V30 5023 H 456.313 5.71022 2.18504 0
M  V30 5024 H 460.487 6.67626 1.98112 0
M  V30 5025 H 458.114 7.37413 1.84733 0
M  V30 5026 N 459.689 -1.00246 1.21608 0
M  V30 5027 C 460.938 -1.73476 1.02902 0
M  V30 5028 C 461.251 -1.90643 -0.437561 0
M  V30 5029 O 462.457 -2.61105 -0.74407 0
M  V30 5030 C 460.913 -3.12079 1.79261 0
M  V30 5031 C 460.521 -3.02877 3.30106 0
M  V30 5032 C 462.265 -3.89421 1.68972 0
M  V30 5033 C 460.172 -4.36575 3.98944 0
M  V30 5034 H 459.102 -0.650408 0.381425 0
M  V30 5035 H 461.753 -1.11985 1.45367 0
M  V30 5036 H 460.135 -3.74196 1.2959 0
M  V30 5037 H 461.309 -2.49983 3.87098 0
M  V30 5038 H 459.624 -2.39022 3.40965 0
M  V30 5039 H 462.221 -4.88362 2.17731 0
M  V30 5040 H 462.564 -4.1122 0.648397 0
M  V30 5041 H 463.097 -3.33963 2.16133 0
M  V30 5042 H 459.836 -4.19978 5.03288 0
M  V30 5043 H 459.356 -4.8942 3.4674 0
M  V30 5044 H 461.035 -5.05364 4.04 0
M  V30 5045 N 461.167 -1.02423 -1.1978 0
M  V30 5046 C 462.444 -0.632802 -1.85081 0
M  V30 5047 C 462.824 0.888745 -1.9148 0
M  V30 5048 O 462.172 1.78357 -1.42832 0
M  V30 5049 C 462.382 -1.28947 -3.24305 0
M  V30 5050 C 463.73 -1.40976 -4.00513 0
M  V30 5051 O 464.754 -1.24628 -3.33686 0
M  V30 5052 O 463.613 -1.67467 -5.20209 0
M  V30 5053 H 460.707 -0.219348 -0.79738 0
M  V30 5054 H 463.253 -1.12209 -1.27307 0
M  V30 5055 H 462.025 -2.3288 -3.14456 0
M  V30 5056 H 461.648 -0.787748 -3.89718 0
M  V30 5057 N 462.645 1.35699 -0.801477 0
M  V30 5058 C 463.87 2.03687 -0.390678 0
M  V30 5059 C 464.295 1.60015 0.988778 0
M  V30 5060 O 463.653 0.774357 1.63931 0
M  V30 5061 C 463.701 3.57439 -0.476404 0
M  V30 5062 O 462.805 4.09208 0.512106 0
M  V30 5063 H 462.146 0.64344 -0.163956 0
M  V30 5064 H 464.676 1.73403 -1.08594 0
M  V30 5065 H 464.686 4.06544 -0.344357 0
M  V30 5066 H 463.361 3.88576 -1.48262 0
M  V30 5067 H 461.938 3.7134 0.340721 0
M  V30 5068 N 464.123 0.554532 1.47522 0
M  V30 5069 C 465.353 0.0342074 2.06572 0
M  V30 5070 C 465.761 -1.26375 1.40805 0
M  V30 5071 O 465.104 -1.7683 0.49769 0
M  V30 5072 C 465.166 -0.235096 3.5873 0
M  V30 5073 C 464.83 0.973024 4.46521 0
M  V30 5074 C 465.827 1.8779 4.848 0
M  V30 5075 C 463.512 1.18694 4.88075 0
M  V30 5076 C 465.506 2.98039 5.63428 0
M  V30 5077 C 463.193 2.29254 5.66468 0
M  V30 5078 C 464.191 3.18757 6.04055 0
M  V30 5079 O 463.879 4.27401 6.8087 0
M  V30 5080 H 463.611 0.041587 0.67472 0
M  V30 5081 H 466.165 0.766748 1.90552 0
M  V30 5082 H 464.395 -1.02191 3.72953 0
M  V30 5083 H 466.084 -0.700477 3.9981 0
M  V30 5084 H 466.85 1.72467 4.53299 0
M  V30 5085 H 462.729 0.49947 4.58286 0
M  V30 5086 H 466.273 3.67926 5.92685 0
M  V30 5087 H 462.17 2.4455 5.97382 0
M  V30 5088 H 462.938 4.25415 6.9926 0
M  V30 5089 N 465.601 -1.54893 0.290851 0
M  V30 5090 C 466.85 -1.99111 -0.322113 0
M  V30 5091 C 467.163 -1.18283 -1.55784 0
M  V30 5092 O 468.369 -1.5272 -2.24475 0
M  V30 5093 C 466.825 -3.54442 -0.624438 0
M  V30 5094 C 466.433 -4.44066 0.592373 0
M  V30 5095 C 468.177 -4.07211 -1.19916 0
M  V30 5096 C 466.084 -5.90812 0.263762 0
M  V30 5097 H 465.014 -0.743712 -0.124133 0
M  V30 5098 H 467.665 -1.79132 0.39797 0
M  V30 5099 H 466.047 -3.70281 -1.40384 0
M  V30 5100 H 467.221 -4.39999 1.36886 0
M  V30 5101 H 465.536 -4.02015 1.08502 0
M  V30 5102 H 468.133 -5.14407 -1.45909 0
M  V30 5103 H 468.476 -3.57196 -2.13815 0
M  V30 5104 H 469.009 -3.94873 -0.481687 0
M  V30 5105 H 465.748 -6.44955 1.17105 0
M  V30 5106 H 465.268 -5.97911 -0.475655 0
M  V30 5107 H 466.947 -6.46852 -0.138354 0
M  V30 5108 N 467.08 -0.0183926 -1.57589 0
M  V30 5109 C 468.32 0.666846 -1.93216 0
M  V30 5110 C 468.684 1.69905 -0.894215 0
M  V30 5111 O 469.885 2.436 -1.13633 0
M  V30 5112 C 468.156 1.27684 -3.33814 0
M  V30 5113 S 469.715 1.98464 -3.91353 0
M  V30 5114 H 466.533 0.219826 -0.676164 0
M  V30 5115 H 469.135 -0.0794893 -1.95338 0
M  V30 5116 H 467.839 0.513006 -4.07181 0
M  V30 5117 H 467.37 2.06071 -3.3511 0
M  V30 5118 H 469.385 3.26189 -3.73918 0
M  V30 5119 N 468.558 1.5553 0.254621 0
M  V30 5120 C 469.49 1.86104 1.33783 0
M  V30 5121 C 470.503 0.746752 1.44663 0
M  V30 5122 O 471.692 1.0248 1.46151 0
M  V30 5123 C 468.792 2.02532 2.71724 0
M  V30 5124 C 467.965 3.33335 2.83208 0
M  V30 5125 C 467.024 3.396 4.01943 0
M  V30 5126 O 466.05 4.12862 3.91834 0
M  V30 5127 N 467.252 2.68332 5.1476 0
M  V30 5128 H 470.017 2.79605 1.07893 0
M  V30 5129 H 467.578 1.55672 0.444732 0
M  V30 5130 H 469.57 2.04074 3.4948 0
M  V30 5131 H 468.14 1.15811 2.90356 0
M  V30 5132 H 467.36 3.44176 1.92189 0
M  V30 5133 H 468.648 4.19565 2.87824 0
M  V30 5134 H 468.046 2.08528 5.25864 0
M  V30 5135 H 466.603 2.75575 5.90679 0
M  V30 5136 N 470.036 -0.519951 1.48776 0
M  V30 5137 C 471.282 -1.27711 1.57536 0
M  V30 5138 C 471.615 -1.92547 0.252866 0
M  V30 5139 O 470.89 -1.7979 -0.742021 0
M  V30 5140 C 471.173 -2.35875 2.72094 0
M  V30 5141 C 471.026 -1.75664 4.1408 0
M  V30 5142 C 472.345 -3.37575 2.82367 0
M  V30 5143 H 469.464 -0.462971 0.573434 0
M  V30 5144 H 472.106 -0.578194 1.80989 0
M  V30 5145 H 470.256 -2.95488 2.52228 0
M  V30 5146 H 471.928 -1.20025 4.45412 0
M  V30 5147 H 470.171 -1.06154 4.20611 0
M  V30 5148 H 470.842 -2.54029 4.90075 0
M  V30 5149 H 473.318 -2.87929 3.00393 0
M  V30 5150 H 472.194 -4.1064 3.64233 0
M  V30 5151 H 472.455 -3.98743 1.90936 0
M  V30 5152 N 471.514 -1.37532 -0.769588 0
M  V30 5153 C 472.754 -1.34261 -1.54122 0
M  V30 5154 C 473.118 0.0717222 -1.91866 0
M  V30 5155 O 474.319 0.22918 -2.67821 0
M  V30 5156 C 472.59 -2.2574 -2.77086 0
M  V30 5157 S 474.149 -2.40339 -3.67127 0
M  V30 5158 H 470.967 -0.476595 -0.527615 0
M  V30 5159 H 473.569 -1.73303 -0.90479 0
M  V30 5160 H 472.273 -3.27417 -2.4744 0
M  V30 5161 H 471.804 -1.87789 -3.45686 0
M  V30 5162 H 473.819 -1.61558 -4.69163 0
M  V30 5163 N 472.992 0.995999 -1.22138 0
M  V30 5164 C 474.217 1.77601 -1.0711 0
M  V30 5165 C 474.642 1.84339 0.374264 0
M  V30 5166 O 474 1.29359 1.27028 0
M  V30 5167 C 474.048 3.18897 -1.68336 0
M  V30 5168 O 473.152 4.01663 -0.934928 0
M  V30 5169 H 472.493 0.547011 -0.376397 0
M  V30 5170 H 475.023 1.25137 -1.6187 0
M  V30 5171 H 475.033 3.69539 -1.72931 0
M  V30 5172 H 473.708 3.13308 -2.73516 0
M  V30 5173 H 472.285 3.60204 -0.964751 0
M  V30 5174 N 474.47 1.03057 1.19235 0
M  V30 5175 C 475.886 0.747947 1.40989 0
M  V30 5176 C 476.086 -0.666752 1.90149 0
M  V30 5177 O 475.142 -1.43249 2.07933 0
M  V30 5178 C 476.455 1.7855 2.41951 0
M  V30 5179 C 478.003 1.80524 2.55695 0
M  V30 5180 C 478.478 2.83243 3.59913 0
M  V30 5181 N 479.969 2.8207 3.67411 0
M  V30 5182 C 480.704 3.58204 4.47747 0
M  V30 5183 N 480.2 4.44057 5.31775 0
M  V30 5184 N 481.993 3.46738 4.42413 0
M  V30 5185 H 474.144 1.94367 0.856468 0
M  V30 5186 H 476.407 0.840412 0.438647 0
M  V30 5187 H 476.113 2.79973 2.12857 0
M  V30 5188 H 475.987 1.6092 3.41152 0
M  V30 5189 H 478.374 0.79778 2.84112 0
M  V30 5190 H 478.455 2.02229 1.56643 0
M  V30 5191 H 478.099 3.84161 3.32239 0
M  V30 5192 H 478.029 2.58795 4.5862 0
M  V30 5193 H 480.52 2.19803 3.074 0
M  V30 5194 H 480.833 4.98884 5.90199 0
M  V30 5195 H 479.178 4.48129 5.3123 0
M  V30 5196 H 482.369 2.79077 3.75811 0
M  V30 5197 H 482.542 4.06322 5.04783 0
M  V30 5198 N 475.948 -1.35272 0.808662 0
M  V30 5199 C 477.196 -1.98316 0.389233 0
M  V30 5200 C 477.517 -1.64465 -1.04767 0
M  V30 5201 O 476.787 -0.928175 -1.72516 0
M  V30 5202 H 475.367 -0.733585 0.140935 0
M  V30 5203 H 478.029 -1.6515 1.03496 0
M  V30 5204 H 477.125 -3.08123 0.496631 0
M  V30 5205 N 477.426 -0.562348 -1.47226 0
M  V30 5206 C 478.703 0.0256985 -1.95583 0
M  V30 5207 C 479.083 1.48032 -1.50498 0
M  V30 5208 O 478.431 2.15973 -0.746181 0
M  V30 5209 C 478.641 -0.125129 -3.48776 0
M  V30 5210 C 479.989 0.0175728 -4.24596 0
M  V30 5211 O 481.013 -0.0529341 -3.56161 0
M  V30 5212 O 479.872 0.170145 -5.46235 0
M  V30 5213 H 476.966 0.0612565 -0.824728 0
M  V30 5214 H 479.512 -0.629233 -1.57603 0
M  V30 5215 H 478.284 -1.13715 -3.74412 0
M  V30 5216 H 477.907 0.567178 -3.93534 0
M  V30 5217 N 478.904 1.54736 -0.299062 0
M  V30 5218 C 479.814 2.27127 0.587413 0
M  V30 5219 C 480.83 1.30575 1.15005 0
M  V30 5220 O 482.006 1.63554 1.17525 0
M  V30 5221 C 479.071 2.99645 1.74395 0
M  V30 5222 C 478.132 4.11731 1.21559 0
M  V30 5223 C 477.365 4.80781 2.317 0
M  V30 5224 O 477.588 4.4918 3.51558 0
M  V30 5225 O 476.522 5.68226 1.98501 0
M  V30 5226 H 480.348 3.037 0.000250109 0
M  V30 5227 H 477.933 1.49256 -0.0655919 0
M  V30 5228 H 479.815 3.45138 2.4178 0
M  V30 5229 H 478.49 2.25969 2.31775 0
M  V30 5230 H 477.397 3.70641 0.507514 0
M  V30 5231 H 478.73 4.87379 0.687233 0
M  V30 5232 N 480.382 0.0267497 1.57577 0
M  V30 5233 C 481.659 -0.690926 1.82991 0
M  V30 5234 C 482.039 -1.90471 0.910164 0
M  V30 5235 O 481.387 -2.28474 -0.0347985 0
M  V30 5236 C 481.597 -1.07139 3.32148 0
M  V30 5237 C 482.945 -1.46402 3.98562 0
M  V30 5238 O 483.969 -1.16443 3.36629 0
M  V30 5239 O 482.828 -2.02214 5.07712 0
M  V30 5240 H 479.922 -0.338747 0.75444 0
M  V30 5241 H 482.468 0.0542506 1.69613 0
M  V30 5242 H 481.24 -0.207394 3.9075 0
M  V30 5243 H 480.863 -1.87481 3.50623 0
M  V30 5244 N 481.861 -1.55662 -0.24637 0
M  V30 5245 C 483.138 -1.68272 -0.997198 0
M  V30 5246 C 483.518 -0.566785 -2.03349 0
M  V30 5247 O 482.866 0.429688 -2.24424 0
M  V30 5248 C 483.076 -3.08594 -1.63006 0
M  V30 5249 C 484.424 -3.6721 -2.13171 0
M  V30 5250 O 485.448 -3.11397 -1.72946 0
M  V30 5251 O 484.307 -4.65054 -2.87031 0
M  V30 5252 H 481.401 -0.684429 -0.464205 0
M  V30 5253 H 483.947 -1.67993 -0.240114 0
M  V30 5254 H 482.719 -3.81264 -0.880527 0
M  V30 5255 H 482.342 -3.12886 -2.45333 0
M  V30 5256 N 483.339 0.512053 -1.4905 0
M  V30 5257 C 484.286 1.6148 -1.64902 0
M  V30 5258 C 485.256 1.58687 -0.490673 0
M  V30 5259 O 486.441 1.76842 -0.71636 0
M  V30 5260 C 483.581 2.99676 -1.71139 0
M  V30 5261 C 482.694 3.12568 -2.98203 0
M  V30 5262 C 481.829 4.4143 -2.95487 0
M  V30 5263 C 480.868 4.47916 -4.17179 0
M  V30 5264 N 480.005 5.68191 -4.12437 0
M  V30 5265 H 484.845 1.47271 -2.59066 0
M  V30 5266 H 482.382 0.716713 -1.28459 0
M  V30 5267 H 484.34 3.79761 -1.72736 0
M  V30 5268 H 482.97 3.12614 -0.804508 0
M  V30 5269 H 482.022 2.25618 -3.06269 0
M  V30 5270 H 483.334 3.1322 -3.88194 0
M  V30 5271 H 482.488 5.29825 -2.95585 0
M  V30 5272 H 481.227 4.43326 -2.03256 0
M  V30 5273 H 480.232 3.57925 -4.17337 0
M  V30 5274 H 481.457 4.47744 -5.1059 0
M  V30 5275 H 479.403 5.7095 -3.23036 0
M  V30 5276 H 479.32 5.70413 -4.96151 0
M  V30 5277 H 480.588 6.58823 -4.16621 0
M  V30 5278 N 484.817 1.37938 0.762283 0
M  V30 5279 C 485.747 1.37176 1.88958 0
M  V30 5280 C 486.728 0.238945 1.68413 0
M  V30 5281 O 487.913 0.440726 1.89133 0
M  V30 5282 C 485.043 1.18742 3.2637 0
M  V30 5283 C 483.997 2.29136 3.61498 0
M  V30 5284 C 483.323 1.95816 4.97554 0
M  V30 5285 C 484.623 3.71363 3.6727 0
M  V30 5286 H 486.317 2.31509 1.89853 0
M  V30 5287 H 483.863 1.11438 0.912005 0
M  V30 5288 H 485.816 1.16837 4.04879 0
M  V30 5289 H 484.54 0.208683 3.25933 0
M  V30 5290 H 483.199 2.30213 2.85303 0
M  V30 5291 H 482.847 0.964475 4.93667 0
M  V30 5292 H 482.547 2.69745 5.22026 0
M  V30 5293 H 484.071 1.95513 5.78452 0
M  V30 5294 H 485.485 3.72364 4.35911 0
M  V30 5295 H 483.882 4.44425 4.03245 0
M  V30 5296 H 484.952 4.04305 2.67704 0
M  V30 5297 N 486.295 -0.989507 1.22664 0
M  V30 5298 C 487.225 -2.09847 1.02404 0
M  V30 5299 C 488.206 -1.70007 -0.0561303 0
M  V30 5300 O 489.391 -1.93906 0.106748 0
M  V30 5301 C 486.521 -3.41996 0.604663 0
M  V30 5302 C 485.475 -3.95699 1.63115 0
M  V30 5303 C 484.801 -5.23936 1.0675 0
M  V30 5304 C 486.101 -4.25999 3.02196 0
M  V30 5305 H 487.795 -2.27054 1.95158 0
M  V30 5306 H 485.341 -1.09111 0.939727 0
M  V30 5307 H 487.294 -4.1899 0.45002 0
M  V30 5308 H 486.018 -3.24626 -0.35855 0
M  V30 5309 H 484.677 -3.2084 1.77362 0
M  V30 5310 H 484.325 -5.02909 0.0955422 0
M  V30 5311 H 484.025 -5.60833 1.75328 0
M  V30 5312 H 485.549 -6.0356 0.924516 0
M  V30 5313 H 486.963 -4.93777 2.91303 0
M  V30 5314 H 485.36 -4.74076 3.67929 0
M  V30 5315 H 486.43 -3.33636 3.51873 0
M  V30 5316 N 487.773 -1.03688 -1.18687 0
M  V30 5317 C 489.02 -0.73803 -1.88572 0
M  V30 5318 C 489.348 0.733973 -1.8012 0
M  V30 5319 O 488.603 1.55098 -1.19344 0
M  V30 5320 C 488.902 -1.14477 -3.3857 0
M  V30 5321 C 488.568 -2.61641 -3.67226 0
M  V30 5322 C 487.23 -3.01846 -3.74757 0
M  V30 5323 C 489.582 -3.56812 -3.79914 0
M  V30 5324 C 486.91 -4.36118 -3.92451 0
M  V30 5325 C 489.262 -4.90799 -3.99123 0
M  V30 5326 C 487.926 -5.3068 -4.04888 0
M  V30 5327 H 487.196 -0.270064 -0.690034 0
M  V30 5328 H 489.843 -1.3012 -1.40503 0
M  V30 5329 H 488.148 -0.500337 -3.88592 0
M  V30 5330 H 489.845 -0.89095 -3.90977 0
M  V30 5331 H 486.435 -2.29498 -3.61979 0
M  V30 5332 H 490.619 -3.26899 -3.73431 0
M  V30 5333 H 485.875 -4.66542 -3.95157 0
M  V30 5334 H 490.049 -5.64451 -4.07882 0
M  V30 5335 H 487.676 -6.34733 -4.18351 0
M  V30 5336 N 489.251 1.34841 -0.815825 0
M  V30 5337 C 490.491 2.00321 -0.406297 0
M  V30 5338 C 490.855 1.63293 1.00992 0
M  V30 5339 O 492.056 2.21563 1.52195 0
M  V30 5340 C 490.327 3.52421 -0.594469 0
M  V30 5341 S 491.886 4.37926 -0.276735 0
M  V30 5342 H 488.704 0.694155 -0.153848 0
M  V30 5343 H 491.306 1.64263 -1.06009 0
M  V30 5344 H 490.01 3.76858 -1.625 0
M  V30 5345 H 489.541 3.9333 0.0743157 0
M  V30 5346 H 491.556 4.87743 0.912215 0
M  V30 5347 N 490.729 0.570148 1.46925 0
M  V30 5348 C 492.006 -0.0153259 1.95594 0
M  V30 5349 C 492.386 -1.47232 1.51281 0
M  V30 5350 O 491.734 -2.15574 0.757624 0
M  V30 5351 C 491.944 0.143624 3.48704 0
M  V30 5352 C 493.292 0.00494484 4.246 0
M  V30 5353 O 494.316 0.0718214 3.56128 0
M  V30 5354 O 493.175 -0.141175 5.46318 0
M  V30 5355 H 490.269 -0.0568819 0.825041 0
M  V30 5356 H 492.815 0.637583 1.57267 0
M  V30 5357 H 491.587 1.15699 3.73804 0
M  V30 5358 H 491.21 -0.5463 3.93829 0
M  V30 5359 N 492.207 -1.54576 0.307264 0
M  V30 5360 C 493.455 -1.99867 -0.299574 0
M  V30 5361 C 493.776 -1.19714 -1.53927 0
M  V30 5362 O 493.046 -0.29472 -1.9367 0
M  V30 5363 H 491.626 -0.738299 -0.113683 0
M  V30 5364 H 494.288 -1.9032 0.420042 0
M  V30 5365 H 493.384 -3.06901 -0.567283 0
M  V30 5366 N 493.685 -0.035106 -1.57561 0
M  V30 5367 C 494.925 0.646316 -1.93913 0
M  V30 5368 C 495.289 1.68947 -0.912185 0
M  V30 5369 O 496.49 2.42381 -1.1621 0
M  V30 5370 C 494.761 1.24136 -3.35149 0
M  V30 5371 S 496.32 1.94302 -3.93436 0
M  V30 5372 H 493.138 0.212642 -0.678457 0
M  V30 5373 H 495.74 -0.100203 -1.95243 0
M  V30 5374 H 494.444 0.46979 -4.07702 0
M  V30 5375 H 493.975 2.02505 -3.37276 0
M  V30 5376 H 495.99 3.22205 -3.77357 0
M  V30 5377 N 495.163 1.55791 0.238111 0
M  V30 5378 C 496.44 1.68798 0.98826 0
M  V30 5379 C 496.82 0.577562 2.03045 0
M  V30 5380 O 496.168 -0.41778 2.24648 0
M  V30 5381 C 496.378 3.09454 1.61367 0
M  V30 5382 C 497.726 3.68335 2.11221 0
M  V30 5383 O 498.75 3.1231 1.71292 0
M  V30 5384 O 497.609 4.6657 2.84561 0
M  V30 5385 H 494.703 0.686881 0.460568 0
M  V30 5386 H 497.249 1.68118 0.231202 0
M  V30 5387 H 496.021 3.81726 0.860295 0
M  V30 5388 H 495.644 3.14182 2.4367 0
M  V30 5389 N 496.642 -0.504142 1.49319 0
M  V30 5390 C 497.919 -1.26548 1.49147 0
M  V30 5391 C 498.299 -2.09977 0.21744 0
M  V30 5392 O 497.647 -2.14028 -0.800269 0
M  V30 5393 C 497.857 -2.12489 2.76857 0
M  V30 5394 C 499.205 -2.7178 3.26222 0
M  V30 5395 O 500.229 -2.22758 2.77952 0
M  V30 5396 O 499.088 -3.61015 4.10281 0
M  V30 5397 H 496.182 -0.572495 0.596806 0
M  V30 5398 H 498.728 -0.51867 1.61579 0
M  V30 5399 H 497.5 -1.50796 3.61077 0
M  V30 5400 H 497.123 -2.94368 2.6727 0
M  V30 5401 N 498.12 -1.38341 -0.754957 0
M  V30 5402 C 499.068 -1.35573 -1.89005 0
M  V30 5403 C 500.062 -0.241824 -1.67665 0
M  V30 5404 O 501.268 -0.410785 -1.7525 0
M  V30 5405 H 497.643 -0.422898 -0.621821 0
M  V30 5406 H 499.614 -2.31359 -1.88455 0
M  V30 5407 C 498.363 -1.19631 -3.26471 0
M  V30 5408 H 497.686 -2.04605 -3.43477 0
M  V30 5409 H 499.126 -1.21748 -4.06144 0
M  V30 5410 C 497.585 0.0968705 -3.36761 0
M  V30 5411 O 498.115 1.07439 -3.87066 0
M  V30 5412 N 496.321 0.153242 -2.90196 0
M  V30 5413 H 495.868 -0.642908 -2.49448 0
M  V30 5414 H 495.826 1.01807 -2.9746 0
M  V30 5415 N 499.598 0.982988 -1.23187 0
M  V30 5416 C 500.828 1.75666 -1.08743 0
M  V30 5417 C 501.236 1.85662 0.364195 0
M  V30 5418 O 500.579 1.33317 1.26382 0
M  V30 5419 C 500.641 3.20144 -1.63549 0
M  V30 5420 C 500.305 3.33665 -3.12277 0
M  V30 5421 C 501.302 3.20194 -4.096 0
M  V30 5422 C 498.987 3.58397 -3.51933 0
M  V30 5423 C 500.981 3.31256 -5.44563 0
M  V30 5424 C 498.668 3.69098 -4.87042 0
M  V30 5425 C 499.666 3.55537 -5.83166 0
M  V30 5426 O 499.354 3.65864 -7.1582 0
M  V30 5427 H 499.086 0.558194 -0.381307 0
M  V30 5428 H 501.64 1.24387 -1.63454 0
M  V30 5429 H 499.87 3.72659 -1.03256 0
M  V30 5430 H 501.559 3.79262 -1.4462 0
M  V30 5431 H 502.325 3.00987 -3.80305 0
M  V30 5432 H 498.204 3.68025 -2.77631 0
M  V30 5433 H 501.748 3.20588 -6.19572 0
M  V30 5434 H 497.645 3.87814 -5.16014 0
M  V30 5435 H 498.413 3.82675 -7.23534 0
M  V30 5436 N 501.076 1.04316 1.18135 0
M  V30 5437 C 502.026 0.606731 2.19779 0
M  V30 5438 C 503.01 -0.352144 1.56999 0
M  V30 5439 O 504.202 -0.170795 1.76174 0
M  V30 5440 C 501.331 -0.0262443 3.4329 0
M  V30 5441 C 500.417 0.955928 4.13186 0
M  V30 5442 N 500.808 2.12395 4.59045 0
M  V30 5443 C 499.106 0.782473 4.39082 0
M  V30 5444 C 499.807 2.74458 5.12882 0
M  V30 5445 N 498.783 2.02316 5.04548 0
M  V30 5446 H 502.585 1.49679 2.5293 0
M  V30 5447 H 500.099 0.912088 1.34368 0
M  V30 5448 H 502.096 -0.356617 4.15372 0
M  V30 5449 H 500.756 -0.911811 3.11635 0
M  V30 5450 H 501.767 2.50272 4.53414 0
M  V30 5451 H 498.444 -0.0527906 4.17467 0
M  V30 5452 H 499.834 3.73459 5.5855 0
M  V30 5453 N 502.554 -1.34406 0.822964 0
M  V30 5454 C 503.803 -1.97542 0.407458 0
M  V30 5455 C 504.116 -1.65973 -1.035 0
M  V30 5456 O 505.322 -2.22598 -1.55442 0
M  V30 5457 C 503.778 -3.53463 0.677623 0
M  V30 5458 C 503.386 -3.93925 2.1337 0
M  V30 5459 C 505.13 -4.23229 0.328284 0
M  V30 5460 C 503.037 -5.42759 2.34876 0
M  V30 5461 H 501.967 -0.739207 0.148623 0
M  V30 5462 H 504.618 -1.53248 1.00932 0
M  V30 5463 H 503 -3.96 0.00558965 0
M  V30 5464 H 504.174 -3.62494 2.8449 0
M  V30 5465 H 502.489 -3.37097 2.44448 0
M  V30 5466 H 505.086 -5.32659 0.466794 0
M  V30 5467 H 505.429 -4.09899 -0.727224 0
M  V30 5468 H 505.962 -3.86169 0.954896 0
M  V30 5469 H 502.701 -5.61075 3.38932 0
M  V30 5470 H 502.221 -5.75704 1.68299 0
M  V30 5471 H 503.9 -6.0944 2.17236 0
M  V30 5472 N 504.032 -0.577932 -1.46621 0
M  V30 5473 C 505.279 -0.0616879 -2.02406 0
M  V30 5474 C 505.607 1.29638 -1.44997 0
M  V30 5475 O 504.862 1.86176 -0.60308 0
M  V30 5476 C 505.161 0.0590832 -3.57351 0
M  V30 5477 C 504.827 -1.23077 -4.33777 0
M  V30 5478 C 503.489 -1.58416 -4.54376 0
M  V30 5479 C 505.841 -2.08457 -4.77698 0
M  V30 5480 C 503.169 -2.78943 -5.16147 0
M  V30 5481 C 505.521 -3.28204 -5.408 0
M  V30 5482 C 504.185 -3.63832 -5.59627 0
M  V30 5483 H 503.455 -0.0225732 -0.740656 0
M  V30 5484 H 506.102 -0.753609 -1.76048 0
M  V30 5485 H 504.407 0.834104 -3.82818 0
M  V30 5486 H 506.104 0.474202 -3.98186 0
M  V30 5487 H 502.694 -0.945652 -4.18038 0
M  V30 5488 H 506.878 -1.82459 -4.61544 0
M  V30 5489 H 502.134 -3.06689 -5.28916 0
M  V30 5490 H 506.308 -3.94634 -5.73792 0
M  V30 5491 H 503.935 -4.57315 -6.07262 0
M  V30 5492 N 505.51 1.54411 -0.315457 0
M  V30 5493 C 506.75 2.02329 0.290236 0
M  V30 5494 C 507.114 1.19878 1.49977 0
M  V30 5495 O 508.315 1.57562 2.17779 0
M  V30 5496 C 506.586 3.51912 0.623937 0
M  V30 5497 S 508.145 4.21775 1.21044 0
M  V30 5498 H 504.963 0.705499 0.0882739 0
M  V30 5499 H 507.565 1.90328 -0.446694 0
M  V30 5500 H 506.269 4.09546 -0.264624 0
M  V30 5501 H 505.8 3.67977 1.39128 0
M  V30 5502 H 507.815 4.28757 2.49764 0
M  V30 5503 N 506.988 0.0434614 1.5754 0
M  V30 5504 C 507.918 -0.931651 2.14109 0
M  V30 5505 C 508.899 -1.32971 1.06079 0
M  V30 5506 O 510.084 -1.40579 1.33982 0
M  V30 5507 C 507.214 -2.20914 2.67982 0
M  V30 5508 C 506.168 -1.95139 3.80926 0
M  V30 5509 C 505.494 -3.29276 4.21285 0
M  V30 5510 C 506.794 -1.27913 5.06395 0
M  V30 5511 H 508.488 -0.460497 2.95837 0
M  V30 5512 H 506.034 -0.220058 1.42309 0
M  V30 5513 H 507.987 -2.89522 3.06194 0
M  V30 5514 H 506.711 -2.70221 1.83434 0
M  V30 5515 H 505.37 -1.28945 3.43175 0
M  V30 5516 H 505.018 -3.76369 3.33699 0
M  V30 5517 H 504.718 -3.12831 4.97404 0
M  V30 5518 H 506.242 -3.99129 4.62091 0
M  V30 5519 H 507.656 -1.86544 5.42102 0
M  V30 5520 H 506.053 -1.2182 5.87605 0
M  V30 5521 H 507.123 -0.254066 4.84234 0
M  V30 5522 N 508.466 -1.55915 -0.229846 0
M  V30 5523 C 509.396 -1.94754 -1.28815 0
M  V30 5524 C 510.377 -0.814657 -1.49323 0
M  V30 5525 O 511.562 -1.07631 -1.61645 0
M  V30 5526 C 508.692 -2.25705 -2.63959 0
M  V30 5527 C 507.646 -3.41406 -2.5812 0
M  V30 5528 C 506.972 -3.57941 -3.97218 0
M  V30 5529 C 508.272 -4.76616 -2.13623 0
M  V30 5530 H 509.966 -2.83404 -0.965547 0
M  V30 5531 H 507.512 -1.36353 -0.463028 0
M  V30 5532 H 509.465 -2.51467 -3.38146 0
M  V30 5533 H 508.189 -1.339 -2.9789 0
M  V30 5534 H 506.848 -3.1568 -1.86391 0
M  V30 5535 H 506.496 -2.63526 -4.28443 0
M  V30 5536 H 506.196 -4.35757 -3.94195 0
M  V30 5537 H 507.72 -3.86042 -4.73079 0
M  V30 5538 H 509.134 -5.01637 -2.77549 0
M  V30 5539 H 507.531 -5.57655 -2.21677 0
M  V30 5540 H 508.601 -4.7253 -1.08829 0
M  V30 5541 N 509.944 0.496216 -1.49584 0
M  V30 5542 C 511.355 1.07765 -1.52459 0
M  V30 5543 C 511.706 1.93679 -0.31353 0
M  V30 5544 O 510.831 2.08588 0.576186 0
M  V30 5545 C 511.426 1.96111 -2.76271 0
M  V30 5546 C 509.985 2.49409 -2.81908 0
M  V30 5547 C 509.132 1.27142 -2.46435 0
M  V30 5548 H 512.083 0.279914 -1.56212 0
M  V30 5549 H 512.104 2.80862 -2.56704 0
M  V30 5550 H 511.616 1.33555 -3.64396 0
M  V30 5551 H 509.717 3.1559 -1.98074 0
M  V30 5552 H 509.83 2.86234 -3.84196 0
M  V30 5553 H 508.194 1.59818 -1.98319 0
M  V30 5554 H 508.977 0.662866 -3.3684 0
M  V30 5555 N 511.423 1.38739 0.74761 0
M  V30 5556 C 512.834 1.31507 1.32524 0
M  V30 5557 C 513.185 -0.0263963 1.96182 0
M  V30 5558 O 512.31 -0.92849 1.95469 0
M  V30 5559 C 512.905 2.38162 2.40966 0
M  V30 5560 C 511.464 2.34489 2.94434 0
M  V30 5561 C 510.611 2.20712 1.67873 0
M  V30 5562 H 513.562 1.4901 0.546043 0
M  V30 5563 H 513.583 2.04222 3.21051 0
M  V30 5564 H 513.095 3.35783 1.94605 0
M  V30 5565 H 511.196 1.40467 3.45108 0
M  V30 5566 H 511.309 3.28861 3.48407 0
M  V30 5567 H 509.673 1.67667 1.91729 0
M  V30 5568 H 510.456 3.20285 1.23582 0
M  V30 5569 N 512.901 -0.976442 1.23707 0
M  V30 5570 C 513.831 -2.08749 1.04624 0
M  V30 5571 C 514.812 -1.70057 -0.0380956 0
M  V30 5572 O 515.997 -1.93782 0.127308 0
M  V30 5573 C 513.127 -3.41335 0.640902 0
M  V30 5574 C 512.081 -3.93947 1.67302 0
M  V30 5575 C 511.407 -5.22774 1.12301 0
M  V30 5576 C 512.707 -4.22769 3.06697 0
M  V30 5577 H 514.401 -2.24972 1.97555 0
M  V30 5578 H 511.947 -1.08108 0.951247 0
M  V30 5579 H 513.9 -4.18489 0.494434 0
M  V30 5580 H 512.624 -3.24988 -0.324099 0
M  V30 5581 H 511.283 -3.18941 1.80755 0
M  V30 5582 H 510.931 -5.0278 0.148877 0
M  V30 5583 H 510.631 -5.58942 1.81267 0
M  V30 5584 H 512.155 -6.02546 0.988479 0
M  V30 5585 H 513.569 -4.90659 2.96524 0
M  V30 5586 H 511.966 -4.70147 3.72937 0
M  V30 5587 H 513.036 -3.29885 3.55392 0
M  V30 5588 N 514.379 -1.04941 -1.1758 0
M  V30 5589 C 515.79 -0.784501 -1.69418 0
M  V30 5590 C 516.141 0.693625 -1.8353 0
M  V30 5591 O 515.266 1.53925 -1.52106 0
M  V30 5592 C 515.861 -1.41746 -3.07723 0
M  V30 5593 C 514.42 -1.20066 -3.56737 0
M  V30 5594 C 513.567 -1.5026 -2.33061 0
M  V30 5595 H 516.518 -1.21469 -1.02133 0
M  V30 5596 H 516.539 -0.825381 -3.7144 0
M  V30 5597 H 516.051 -2.49325 -2.9742 0
M  V30 5598 H 514.152 -0.144006 -3.72322 0
M  V30 5599 H 514.265 -1.90384 -4.39648 0
M  V30 5600 H 512.629 -0.922598 -2.37403 0
M  V30 5601 H 513.412 -2.58967 -2.25368 0
M  V30 5602 N 515.857 1.33968 -0.830081 0
M  V30 5603 C 516.767 2.33164 -0.259207 0
M  V30 5604 C 517.783 1.62951 0.610164 0
M  V30 5605 O 518.959 1.94668 0.516369 0
M  V30 5606 C 516.024 3.42088 0.563598 0
M  V30 5607 C 515.085 4.28037 -0.329014 0
M  V30 5608 C 514.318 5.3176 0.454616 0
M  V30 5609 O 514.541 5.44876 1.6872 0
M  V30 5610 O 513.475 6.01669 -0.166794 0
M  V30 5611 H 517.301 2.83832 -1.08041 0
M  V30 5612 H 514.886 1.37154 -0.59239 0
M  V30 5613 H 516.768 4.08581 1.03147 0
M  V30 5614 H 515.443 2.93651 1.36201 0
M  V30 5615 H 514.35 3.64443 -0.844538 0
M  V30 5616 H 515.683 4.79934 -1.09196 0
M  V30 5617 N 517.335 0.585699 1.46312 0
M  V30 5618 C 518.584 0.0701192 2.01578 0
M  V30 5619 C 518.897 -1.29889 1.46247 0
M  V30 5620 O 520.103 -1.90598 1.93351 0
M  V30 5621 C 518.559 0.0747499 3.59822 0
M  V30 5622 C 518.167 1.44226 4.24149 0
M  V30 5623 C 519.911 -0.38673 4.22735 0
M  V30 5624 C 517.818 1.40446 5.74481 0
M  V30 5625 H 516.748 0.0224441 0.753666 0
M  V30 5626 H 519.399 0.737789 1.68015 0
M  V30 5627 H 517.781 -0.659144 3.90476 0
M  V30 5628 H 518.955 2.19612 4.05101 0
M  V30 5629 H 517.27 1.84401 3.73343 0
M  V30 5630 H 519.867 -0.433853 5.32937 0
M  V30 5631 H 520.21 -1.40489 3.91878 0
M  V30 5632 H 520.743 0.293195 3.96718 0
M  V30 5633 H 517.482 2.39952 6.10003 0
M  V30 5634 H 517.002 0.692845 5.95785 0
M  V30 5635 H 518.681 1.11865 6.37256 0
M  V30 5636 N 518.813 -1.54241 0.323641 0
M  V30 5637 C 520.224 -1.85975 -0.164405 0
M  V30 5638 C 520.575 -1.24529 -1.51615 0
M  V30 5639 O 519.7 -0.551351 -2.09258 0
M  V30 5640 C 520.295 -3.37424 -0.305091 0
M  V30 5641 C 518.854 -3.69107 -0.737358 0
M  V30 5642 C 518.001 -2.76942 0.140884 0
M  V30 5643 H 520.952 -1.49088 0.543922 0
M  V30 5644 H 520.973 -3.63147 -1.13598 0
M  V30 5645 H 520.485 -3.82116 0.678876 0
M  V30 5646 H 518.586 -3.29947 -1.73107 0
M  V30 5647 H 518.699 -4.76035 -0.541053 0
M  V30 5648 H 517.063 -2.51795 -0.383572 0
M  V30 5649 H 517.846 -3.24461 1.12162 0
M  V30 5650 N 520.291 -0.0518155 -1.57515 0
M  V30 5651 C 521.707 0.304735 -1.56664 0
M  V30 5652 C 521.907 1.71395 -1.05953 0
M  V30 5653 O 520.963 2.42123 -0.716414 0
M  V30 5654 C 522.276 0.132614 -3.00407 0
M  V30 5655 C 523.824 0.20367 -3.12337 0
M  V30 5656 C 524.299 0.0600706 -4.57961 0
M  V30 5657 N 525.79 0.116326 -4.63054 0
M  V30 5658 C 526.525 0.0293363 -5.73392 0
M  V30 5659 N 526.021 -0.110038 -6.92713 0
M  V30 5660 N 527.814 0.0849651 -5.62036 0
M  V30 5661 H 519.965 -0.973056 -1.888 0
M  V30 5662 H 522.228 -0.377781 -0.869474 0
M  V30 5663 H 521.934 -0.839019 -3.41546 0
M  V30 5664 H 521.808 0.893376 -3.66468 0
M  V30 5665 H 524.195 1.16578 -2.71097 0
M  V30 5666 H 524.276 -0.587857 -2.48954 0
M  V30 5667 H 523.92 -0.898715 -4.99886 0
M  V30 5668 H 523.85 0.87075 -5.19351 0
M  V30 5669 H 526.341 0.22327 -3.7724 0
M  V30 5670 H 526.654 -0.169104 -7.72615 0
M  V30 5671 H 524.999 -0.145132 -6.94848 0
M  V30 5672 H 528.19 0.192411 -4.67704 0
M  V30 5673 H 528.363 0.0137131 -6.47999 0
M  V30 5674 N 521.769 1.56035 0.221574 0
M  V30 5675 C 523.017 1.78693 0.944102 0
M  V30 5676 C 523.338 0.620317 1.8487 0
M  V30 5677 O 522.608 -0.362784 1.92512 0
M  V30 5678 H 521.188 0.659082 0.351597 0
M  V30 5679 H 523.85 1.93497 0.233435 0
M  V30 5680 H 522.946 2.70837 1.55093 0
M  V30 5681 N 523.247 -0.488276 1.49845 0
M  V30 5682 C 524.496 -1.23826 1.59217 0
M  V30 5683 C 524.809 -1.93439 0.289966 0
M  V30 5684 O 526.015 -2.70229 0.262382 0
M  V30 5685 C 524.471 -2.24902 2.80976 0
M  V30 5686 C 524.079 -1.6117 4.18005 0
M  V30 5687 C 525.823 -3.00648 2.99685 0
M  V30 5688 C 523.73 -2.60431 5.3097 0
M  V30 5689 H 522.66 -0.465858 0.592868 0
M  V30 5690 H 525.311 -0.510645 1.76252 0
M  V30 5691 H 523.693 -3.0088 2.57463 0
M  V30 5692 H 524.867 -0.910968 4.51706 0
M  V30 5693 H 523.182 -0.97767 4.0476 0
M  V30 5694 H 525.779 -3.74903 3.81251 0
M  V30 5695 H 526.122 -3.5902 2.10738 0
M  V30 5696 H 526.655 -2.31784 3.23297 0
M  V30 5697 H 523.394 -2.06823 6.22017 0
M  V30 5698 H 522.914 -3.28707 5.01709 0
M  V30 5699 H 524.593 -3.22606 5.60834 0
M  V30 5700 N 524.725 -1.39134 -0.740242 0
M  V30 5701 C 525.971 -1.37278 -1.50088 0
M  V30 5702 C 526.326 0.0329967 -1.92372 0
M  V30 5703 O 525.619 0.998447 -1.63529 0
M  V30 5704 C 525.813 -2.27457 -2.75678 0
M  V30 5705 C 525.642 -3.76662 -2.45674 0
M  V30 5706 C 524.412 -4.45617 -2.38229 0
M  V30 5707 C 526.61 -4.6877 -2.11563 0
M  V30 5708 N 524.592 -5.80187 -2.00641 0
M  V30 5709 C 525.963 -5.91951 -1.84376 0
M  V30 5710 C 528.018 -4.56843 -1.97987 0
M  V30 5711 C 526.721 -7.04538 -1.4498 0
M  V30 5712 C 528.747 -5.69347 -1.59994 0
M  V30 5713 C 528.109 -6.91597 -1.33687 0
M  V30 5714 H 524.208 -0.557611 -0.548265 0
M  V30 5715 H 526.792 -1.74638 -0.860784 0
M  V30 5716 H 524.963 -1.92263 -3.37475 0
M  V30 5717 H 526.695 -2.16631 -3.41838 0
M  V30 5718 H 523.45 -3.98993 -2.5515 0
M  V30 5719 H 523.874 -6.51387 -1.84454 0
M  V30 5720 H 528.516 -3.62868 -2.16995 0
M  V30 5721 H 526.234 -7.98419 -1.24712 0
M  V30 5722 H 529.82 -5.62104 -1.50102 0
M  V30 5723 H 528.7 -7.77176 -1.04728 0
M  V30 5724 N 526.204 0.969867 -1.24223 0
M  V30 5725 C 527.62 1.23809 -1.00716 0
M  V30 5726 C 527.82 1.99469 0.285358 0
M  V30 5727 O 526.876 2.31764 1.00207 0
M  V30 5728 C 528.189 2.02734 -2.2208 0
M  V30 5729 C 529.737 2.15834 -2.26681 0
M  V30 5730 C 530.212 2.98154 -3.47661 0
M  V30 5731 N 531.703 3.05737 -3.47964 0
M  V30 5732 C 532.438 3.69785 -4.38231 0
M  V30 5733 N 531.934 4.35569 -5.3875 0
M  V30 5734 N 533.727 3.66775 -4.25949 0
M  V30 5735 H 525.878 0.463294 -2.07286 0
M  V30 5736 H 528.141 0.267348 -0.909521 0
M  V30 5737 H 527.847 1.54524 -3.15935 0
M  V30 5738 H 527.721 3.0347 -2.24021 0
M  V30 5739 H 530.108 2.63248 -1.33359 0
M  V30 5740 H 530.189 1.14453 -2.28767 0
M  V30 5741 H 529.833 2.51435 -4.41297 0
M  V30 5742 H 529.763 3.99729 -3.42818 0
M  V30 5743 H 532.254 2.58941 -2.75242 0
M  V30 5744 H 532.567 4.82251 -6.03866 0
M  V30 5745 H 530.912 4.34244 -5.42639 0
M  V30 5746 H 534.103 3.14558 -3.46657 0
M  V30 5747 H 534.276 4.16407 -4.96497 0
M  V30 5748 N 527.682 1.05563 1.17022 0
M  V30 5749 C 528.922 0.777033 1.89054 0
M  V30 5750 C 529.286 -0.683617 1.79418 0
M  V30 5751 O 530.487 -1.07648 2.46303 0
M  V30 5752 C 528.758 1.24886 3.34871 0
M  V30 5753 S 530.317 1.0982 4.24835 0
M  V30 5754 H 527.135 0.282082 0.652649 0
M  V30 5755 H 529.737 1.35103 1.41306 0
M  V30 5756 H 528.441 2.30699 3.3942 0
M  V30 5757 H 527.972 0.669292 3.87665 0
M  V30 5758 H 529.987 0.02462 4.96194 0
M  V30 5759 N 529.16 -1.33526 0.837174 0
M  V30 5760 C 530.571 -1.80182 0.489017 0
M  V30 5761 C 530.922 -1.69285 -0.991826 0
M  V30 5762 O 530.047 -1.24113 -1.77271 0
M  V30 5763 C 530.642 -3.27149 0.880866 0
M  V30 5764 C 529.201 -3.71828 0.584872 0
M  V30 5765 C 528.348 -2.54974 1.09011 0
M  V30 5766 H 531.299 -1.21071 1.02603 0
M  V30 5767 H 531.32 -3.80024 0.190239 0
M  V30 5768 H 530.832 -3.35048 1.95869 0
M  V30 5769 H 528.933 -3.69457 -0.48295 0
M  V30 5770 H 529.046 -4.65366 1.13892 0
M  V30 5771 H 527.41 -2.4952 0.511047 0
M  V30 5772 H 528.193 -2.65637 2.17467 0
M  V30 5773 N 530.638 -0.59345 -1.46 0
M  V30 5774 C 531.585 0.133618 -2.30413 0
M  V30 5775 C 532.555 0.873736 -1.41262 0
M  V30 5776 O 533.74 0.862279 -1.70204 0
M  V30 5777 C 530.88 1.13434 -3.25924 0
M  V30 5778 C 529.993 0.39656 -4.30176 0
M  V30 5779 C 529.128 1.38575 -5.12806 0
M  V30 5780 C 528.167 0.634984 -6.08797 0
M  V30 5781 N 527.304 1.57276 -6.84258 0
M  V30 5782 H 532.144 -0.592252 -2.92055 0
M  V30 5783 H 529.681 -0.303874 -1.43927 0
M  V30 5784 H 531.639 1.72752 -3.79753 0
M  V30 5785 H 530.269 1.82779 -2.66067 0
M  V30 5786 H 529.321 -0.311861 -3.79119 0
M  V30 5787 H 530.633 -0.189869 -4.98438 0
M  V30 5788 H 529.787 2.05141 -5.70966 0
M  V30 5789 H 528.526 2.00611 -4.44529 0
M  V30 5790 H 527.531 -0.0443925 -5.49782 0
M  V30 5791 H 528.756 0.0198678 -6.79097 0
M  V30 5792 H 526.702 2.18103 -6.18682 0
M  V30 5793 H 526.619 1.03941 -7.48821 0
M  V30 5794 H 527.887 2.22844 -7.46968 0
M  V30 5795 N 532.116 1.54067 -0.331816 0
M  V30 5796 C 533.356 2.02625 0.26876 0
M  V30 5797 C 533.72 1.21462 1.48697 0
M  V30 5798 O 534.921 1.59863 2.16096 0
M  V30 5799 C 533.192 3.52554 0.586577 0
M  V30 5800 S 534.751 4.23035 1.16563 0
M  V30 5801 H 531.569 0.706395 0.0807862 0
M  V30 5802 H 534.171 1.89844 -0.466856 0
M  V30 5803 H 532.875 4.09242 -0.308046 0
M  V30 5804 H 532.406 3.69432 1.35217 0
M  V30 5805 H 534.421 4.31382 2.45203 0
M  V30 5806 N 533.594 0.0601682 1.57485 0
M  V30 5807 C 534.843 -0.611101 1.9222 0
M  V30 5808 C 535.156 -1.71469 0.941159 0
M  V30 5809 O 536.362 -2.44473 1.18089 0
M  V30 5810 C 534.818 -1.13832 3.41424 0
M  V30 5811 C 534.426 -0.0663596 4.47951 0
M  V30 5812 C 536.17 -1.78432 3.85178 0
M  V30 5813 C 534.077 -0.606965 5.88277 0
M  V30 5814 H 533.007 -0.232033 0.71741 0
M  V30 5815 H 535.658 0.130518 1.83035 0
M  V30 5816 H 534.04 -1.93254 3.45643 0
M  V30 5817 H 535.214 0.707682 4.55333 0
M  V30 5818 H 533.529 0.482715 4.13593 0
M  V30 5819 H 536.126 -2.1989 4.87394 0
M  V30 5820 H 536.469 -2.63966 3.21913 0
M  V30 5821 H 537.002 -1.05651 3.83514 0
M  V30 5822 H 533.741 0.21095 6.5516 0
M  V30 5823 H 533.261 -1.34879 5.84438 0
M  V30 5824 H 534.94 -1.08704 6.37803 0
M  V30 5825 N 535.072 -1.5615 -0.213296 0
M  V30 5826 C 536.002 -1.96109 -1.26742 0
M  V30 5827 C 536.983 -0.830448 -1.48451 0
M  V30 5828 O 538.168 -1.09339 -1.60495 0
M  V30 5829 C 535.298 -2.28492 -2.61551 0
M  V30 5830 C 534.252 -3.44124 -2.54485 0
M  V30 5831 C 533.578 -3.62134 -3.93399 0
M  V30 5832 C 534.878 -4.78855 -2.08556 0
M  V30 5833 H 536.572 -2.84412 -0.935434 0
M  V30 5834 H 534.118 -1.36836 -0.44854 0
M  V30 5835 H 536.071 -2.55039 -3.3546 0
M  V30 5836 H 534.795 -1.37052 -2.96453 0
M  V30 5837 H 533.454 -3.17639 -1.83033 0
M  V30 5838 H 533.102 -2.68055 -4.25623 0
M  V30 5839 H 532.802 -4.39913 -3.89551 0
M  V30 5840 H 534.326 -3.91038 -4.68958 0
M  V30 5841 H 535.74 -5.04552 -2.72213 0
M  V30 5842 H 534.137 -5.59975 -2.1575 0
M  V30 5843 H 535.207 -4.73657 -1.03811 0
M  V30 5844 N 536.55 0.480323 -1.50102 0
M  V30 5845 C 537.513 1.56181 -1.6775 0
M  V30 5846 C 538.513 1.51156 -0.548503 0
M  V30 5847 O 539.703 1.5394 -0.815363 0
M  V30 5848 C 536.835 2.95823 -1.69415 0
M  V30 5849 H 538.028 1.41855 -2.6423 0
M  V30 5850 H 535.581 0.70605 -1.39444 0
M  V30 5851 H 536.316 3.15604 -0.745948 0
M  V30 5852 H 536.101 3.00878 -2.51425 0
M  V30 5853 H 537.591 3.74359 -1.85054 0
M  V30 5854 N 538.028 1.39524 0.732853 0
M  V30 5855 C 538.938 1.40695 1.87729 0
M  V30 5856 C 539.954 0.301496 1.71368 0
M  V30 5857 O 541.13 0.543313 1.93933 0
M  V30 5858 C 538.195 1.25098 3.23344 0
M  V30 5859 C 537.256 2.45634 3.52083 0
M  V30 5860 C 536.489 2.30772 4.81228 0
M  V30 5861 O 536.712 1.31233 5.55098 0
M  V30 5862 O 535.646 3.19799 5.09914 0
M  V30 5863 H 539.472 2.37168 1.89697 0
M  V30 5864 H 537.057 1.20663 0.880959 0
M  V30 5865 H 538.939 1.18541 4.04383 0
M  V30 5866 H 537.614 0.317209 3.22142 0
M  V30 5867 H 536.521 2.57767 2.71122 0
M  V30 5868 H 537.854 3.37712 3.58066 0
M  V30 5869 N 539.506 -0.963266 1.24736 0
M  V30 5870 C 540.746 -1.72172 1.10165 0
M  V30 5871 C 541.11 -1.88731 -0.352784 0
M  V30 5872 O 542.311 -2.61549 -0.620107 0
M  V30 5873 C 540.582 -3.0724 1.82589 0
M  V30 5874 S 542.141 -3.98449 1.83803 0
M  V30 5875 H 538.959 -0.591901 0.393922 0
M  V30 5876 H 541.561 -1.14955 1.58132 0
M  V30 5877 H 540.265 -2.92851 2.87518 0
M  V30 5878 H 539.796 -3.69521 1.34973 0
M  V30 5879 H 541.811 -4.87805 0.908883 0
M  V30 5880 N 540.985 -1.06182 -1.16461 0
M  V30 5881 C 541.932 -0.671613 -2.20812 0
M  V30 5882 C 542.902 0.331186 -1.62765 0
M  V30 5883 O 544.087 0.22033 -1.89524 0
M  V30 5884 C 541.227 -0.063029 -3.45042 0
M  V30 5885 C 540.34 -1.11587 -4.1734 0
M  V30 5886 C 539.475 -0.473546 -5.29085 0
M  V30 5887 C 538.514 -1.51 -5.93182 0
M  V30 5888 N 537.651 -0.891118 -6.96422 0
M  V30 5889 H 542.491 -1.56589 -2.53542 0
M  V30 5890 H 540.028 -0.782951 -1.24532 0
M  V30 5891 H 541.986 0.307344 -4.16066 0
M  V30 5892 H 540.616 0.794663 -3.12866 0
M  V30 5893 H 539.668 -1.60396 -3.44931 0
M  V30 5894 H 540.98 -1.90221 -4.61104 0
M  V30 5895 H 540.134 -0.0501432 -6.06679 0
M  V30 5896 H 538.873 0.344687 -4.8648 0
M  V30 5897 H 537.878 -1.94331 -5.14311 0
M  V30 5898 H 539.103 -2.33031 -6.37866 0
M  V30 5899 H 537.049 -0.0935753 -6.55933 0
M  V30 5900 H 536.966 -1.61486 -7.38551 0
M  V30 5901 H 538.234 -0.492822 -7.77941 0
M  V30 5902 N 542.463 1.3308 -0.844243 0
M  V30 5903 C 543.395 2.27954 -0.238671 0
M  V30 5904 C 544.408 1.51978 0.583665 0
M  V30 5905 O 545.597 1.73731 0.409857 0
M  V30 5906 C 542.697 3.31963 0.682185 0
M  V30 5907 C 541.87 4.37281 -0.101998 0
M  V30 5908 C 540.929 5.20928 0.743022 0
M  V30 5909 O 539.955 5.68914 0.180285 0
M  V30 5910 N 541.157 5.42738 2.0595 0
M  V30 5911 H 543.922 2.8056 -1.05386 0
M  V30 5912 H 541.483 1.4583 -0.70322 0
M  V30 5913 H 543.475 3.84828 1.25259 0
M  V30 5914 H 542.045 2.79594 1.39808 0
M  V30 5915 H 541.265 3.84843 -0.853802 0
M  V30 5916 H 542.553 5.04746 -0.641015 0
M  V30 5917 H 541.951 5.05463 2.54016 0
M  V30 5918 H 540.508 5.98639 2.57827 0
M  V30 5919 N 543.941 0.601185 1.45683 0
M  V30 5920 C 545.352 0.179659 1.85834 0
M  V30 5921 C 545.703 -1.26189 1.50236 0
M  V30 5922 O 544.828 -1.95587 0.925987 0
M  V30 5923 C 545.423 0.319277 3.37292 0
M  V30 5924 C 543.982 -0.0475092 3.7637 0
M  V30 5925 C 543.129 0.646692 2.69654 0
M  V30 5926 H 546.08 0.808268 1.36575 0
M  V30 5927 H 546.101 -0.4503 3.77826 0
M  V30 5928 H 545.613 1.36855 3.6317 0
M  V30 5929 H 543.714 -1.0962 3.5611 0
M  V30 5930 H 543.827 0.34168 4.7788 0
M  V30 5931 H 542.191 0.0849971 2.54558 0
M  V30 5932 H 542.974 1.69797 2.98369 0
M  V30 5933 N 545.419 -1.53889 0.339982 0
M  V30 5934 C 546.83 -1.86139 -0.144671 0
M  V30 5935 C 547.181 -1.2613 -1.50285 0
M  V30 5936 O 546.306 -0.573515 -2.08662 0
M  V30 5937 C 546.901 -3.37728 -0.269285 0
M  V30 5938 C 545.46 -3.69868 -0.698168 0
M  V30 5939 C 544.607 -2.76777 0.170249 0
M  V30 5940 H 547.558 -1.48503 0.559704 0
M  V30 5941 H 547.579 -3.64331 -1.0974 0
M  V30 5942 H 547.091 -3.81375 0.719366 0
M  V30 5943 H 545.192 -3.31764 -1.69597 0
M  V30 5944 H 545.305 -4.76582 -0.490533 0
M  V30 5945 H 543.669 -2.52188 -0.356844 0
M  V30 5946 H 544.452 -3.23253 1.15597 0
M  V30 5947 N 546.897 -0.0685191 -1.57451 0
M  V30 5948 C 547.807 0.914677 -2.16034 0
M  V30 5949 C 548.823 1.32938 -1.12265 0
M  V30 5950 O 549.999 1.40275 -1.44516 0
M  V30 5951 C 547.064 2.16519 -2.70777 0
M  V30 5952 C 546.125 1.80721 -3.89408 0
M  V30 5953 C 545.358 2.9981 -4.41531 0
M  V30 5954 O 545.581 4.13727 -3.92666 0
M  V30 5955 O 544.515 2.79817 -5.32903 0
M  V30 5956 H 548.341 0.446364 -3.00402 0
M  V30 5957 H 545.926 0.154367 -1.486 0
M  V30 5958 H 547.808 2.89856 -3.05878 0
M  V30 5959 H 546.483 2.62454 -1.89471 0
M  V30 5960 H 545.39 1.04646 -3.59166 0
M  V30 5961 H 546.723 1.39571 -4.71997 0
M  V30 5962 N 548.375 1.56261 0.205012 0
M  V30 5963 C 549.338 1.92908 1.23771 0
M  V30 5964 C 550.338 0.809208 1.38955 0
M  V30 5965 O 551.528 1.07676 1.36936 0
M  V30 5966 C 548.66 2.19442 2.60879 0
M  V30 5967 H 549.853 2.85287 0.924728 0
M  V30 5968 H 547.406 1.49798 0.446125 0
M  V30 5969 H 548.141 1.29668 2.97248 0
M  V30 5970 H 547.926 3.0104 2.51232 0
M  V30 5971 H 549.416 2.48833 3.35368 0
M  V30 5972 N 549.853 -0.472356 1.50355 0
M  V30 5973 C 551.1 -1.22453 1.61281 0
M  V30 5974 C 551.428 -1.91972 0.31256 0
M  V30 5975 O 550.683 -1.82696 -0.701475 0
M  V30 5976 C 550.982 -2.29257 2.74182 0
M  V30 5977 C 550.648 -1.76999 4.14708 0
M  V30 5978 C 549.31 -1.62467 4.52944 0
M  V30 5979 C 551.662 -1.38215 5.0254 0
M  V30 5980 C 548.99 -1.07574 5.76754 0
M  V30 5981 C 551.342 -0.847638 6.26895 0
M  V30 5982 C 550.006 -0.688946 6.63935 0
M  V30 5983 H 549.276 -0.448087 0.590168 0
M  V30 5984 H 551.923 -0.520744 1.84284 0
M  V30 5985 H 550.228 -3.05538 2.45263 0
M  V30 5986 H 551.925 -2.87212 2.7984 0
M  V30 5987 H 548.515 -1.89276 3.84542 0
M  V30 5988 H 552.699 -1.48276 4.73633 0
M  V30 5989 H 547.955 -0.940237 6.04127 0
M  V30 5990 H 552.129 -0.538455 6.94315 0
M  V30 5991 H 549.756 -0.261435 7.5975 0
M  V30 5992 N 551.331 -1.39911 -0.725443 0
M  V30 5993 C 552.579 -1.37382 -1.48224 0
M  V30 5994 C 552.9 0.0264107 -1.94982 0
M  V30 5995 O 552.17 0.979408 -1.6966 0
M  V30 5996 H 550.75 -0.505596 -0.549892 0
M  V30 5997 H 553.412 -1.7487 -0.860608 0
M  V30 5998 H 552.508 -2.04254 -2.3598 0
M  V30 5999 N 552.809 0.956637 -1.25245 0
M  V30 6000 C 554.056 1.701 -1.09874 0
M  V30 6001 C 554.384 1.91128 0.36062 0
M  V30 6002 O 553.639 1.47837 1.28229 0
M  V30 6003 C 553.938 3.08996 -1.79601 0
M  V30 6004 C 553.604 3.07774 -3.29523 0
M  V30 6005 C 552.266 3.07149 -3.70423 0
M  V30 6006 C 554.618 3.01257 -4.25316 0
M  V30 6007 C 551.946 2.97752 -5.0553 0
M  V30 6008 C 554.298 2.93403 -5.60444 0
M  V30 6009 C 552.962 2.91111 -6.00675 0
M  V30 6010 H 552.232 0.62244 -0.402056 0
M  V30 6011 H 554.879 1.1178 -1.55491 0
M  V30 6012 H 553.184 3.70848 -1.26408 0
M  V30 6013 H 554.881 3.65407 -1.65162 0
M  V30 6014 H 551.471 3.09032 -2.9698 0
M  V30 6015 H 555.655 3.00861 -3.9471 0
M  V30 6016 H 550.911 2.94346 -5.35883 0
M  V30 6017 H 555.085 2.87321 -6.34366 0
M  V30 6018 H 552.712 2.83586 -7.05325 0
M  V30 6019 N 554.287 1.06798 1.15896 0
M  V30 6020 C 555.197 0.694564 2.24083 0
M  V30 6021 C 556.213 -0.291687 1.71538 0
M  V30 6022 O 557.389 -0.139723 2.00915 0
M  V30 6023 C 554.454 0.0921014 3.46578 0
M  V30 6024 C 553.515 1.13087 4.14137 0
M  V30 6025 C 552.748 0.557064 5.30785 0
M  V30 6026 O 552.971 -0.628623 5.66925 0
M  V30 6027 O 551.905 1.29924 5.8771 0
M  V30 6028 H 555.731 1.59663 2.58344 0
M  V30 6029 H 553.316 0.840575 1.2351 0
M  V30 6030 H 555.198 -0.241884 4.20705 0
M  V30 6031 H 553.873 -0.78337 3.14078 0
M  V30 6032 H 552.78 1.51712 3.41957 0
M  V30 6033 H 554.113 1.97805 4.50704 0
M  V30 6034 N 555.766 -1.3263 0.851289 0
M  V30 6035 C 556.698 -2.27824 0.250757 0
M  V30 6036 C 557.711 -1.52285 -0.575598 0
M  V30 6037 O 558.9 -1.73946 -0.400638 0
M  V30 6038 C 556 -3.3232 -0.664571 0
M  V30 6039 C 555.173 -4.37221 0.125187 0
M  V30 6040 C 554.232 -5.21314 -0.715385 0
M  V30 6041 O 553.258 -5.69002 -0.150111 0
M  V30 6042 N 554.46 -5.43823 -2.03069 0
M  V30 6043 H 557.225 -2.79997 1.06873 0
M  V30 6044 H 554.786 -1.45455 0.710943 0
M  V30 6045 H 556.778 -3.85486 -1.23216 0
M  V30 6046 H 555.348 -2.80331 -1.38323 0
M  V30 6047 H 554.568 -3.84384 0.874199 0
M  V30 6048 H 555.856 -5.04399 0.667774 0
M  V30 6049 H 555.254 -5.06803 -2.51332 0
M  V30 6050 H 553.811 -5.99998 -2.54648 0
M  V30 6051 N 557.244 -0.608902 -1.45362 0
M  V30 6052 C 558.207 0.0992563 -2.28985 0
M  V30 6053 C 559.207 0.793841 -1.39838 0
M  V30 6054 O 560.397 0.641804 -1.61946 0
M  V30 6055 C 557.529 1.15073 -3.20891 0
M  V30 6056 H 558.722 -0.635964 -2.93079 0
M  V30 6057 H 556.275 -0.368007 -1.51906 0
M  V30 6058 H 557.01 1.91667 -2.616 0
M  V30 6059 H 556.795 0.656867 -3.86559 0
M  V30 6060 H 558.285 1.64665 -3.83765 0
M  V30 6061 N 558.722 1.53707 -0.348139 0
M  V30 6062 C 559.95 2.05406 0.248224 0
M  V30 6063 C 560.365 1.22282 1.43849 0
M  V30 6064 O 559.722 0.259244 1.80649 0
M  V30 6065 C 559.773 3.55446 0.658793 0
M  V30 6066 O 559.494 4.35417 -0.484149 0
M  V30 6067 C 560.995 4.23335 1.31539 0
M  V30 6068 H 558.215 0.669344 0.0471075 0
M  V30 6069 H 560.759 1.98257 -0.501456 0
M  V30 6070 H 558.914 3.62803 1.35841 0
M  V30 6071 H 559.328 5.24268 -0.155949 0
M  V30 6072 H 560.802 5.29692 1.55338 0
M  V30 6073 H 561.279 3.75967 2.27036 0
M  V30 6074 H 561.885 4.20184 0.657683 0
M  V30 6075 N 560.2 0.0768682 1.57412 0
M  V30 6076 C 561.132 -0.918248 2.10002 0
M  V30 6077 C 562.145 -1.25808 1.03325 0
M  V30 6078 O 563.334 -1.21438 1.30824 0
M  V30 6079 C 560.434 -2.23263 2.54964 0
M  V30 6080 C 559.607 -2.07088 3.8527 0
M  V30 6081 C 558.666 -3.21876 4.16272 0
M  V30 6082 O 557.692 -2.96643 4.8579 0
M  V30 6083 N 558.894 -4.4712 3.70221 0
M  V30 6084 H 561.659 -0.469209 2.96004 0
M  V30 6085 H 559.22 -0.108725 1.61535 0
M  V30 6086 H 561.212 -2.9897 2.72762 0
M  V30 6087 H 559.782 -2.59649 1.74072 0
M  V30 6088 H 559.002 -1.15818 3.76802 0
M  V30 6089 H 560.29 -1.93537 4.70554 0
M  V30 6090 H 559.688 -4.70506 3.1407 0
M  V30 6091 H 558.245 -5.19837 3.93209 0
M  V30 6092 N 561.678 -1.56367 -0.196722 0
M  V30 6093 C 562.588 -1.97617 -1.2643 0
M  V30 6094 C 563.604 -0.883598 -1.49895 0
M  V30 6095 O 564.78 -1.18921 -1.62541 0
M  V30 6096 C 561.845 -2.30595 -2.58895 0
M  V30 6097 C 560.906 -3.53551 -2.43516 0
M  V30 6098 C 560.139 -3.84946 -3.69665 0
M  V30 6099 O 560.362 -3.17655 -4.73763 0
M  V30 6100 O 559.296 -4.78379 -3.65291 0
M  V30 6101 H 563.122 -2.88648 -0.944233 0
M  V30 6102 H 560.707 -1.43901 -0.401592 0
M  V30 6103 H 562.589 -2.52889 -3.37083 0
M  V30 6104 H 561.264 -1.42732 -2.90533 0
M  V30 6105 H 560.171 -3.36507 -1.63445 0
M  V30 6106 H 561.504 -4.41875 -2.16812 0
M  V30 6107 N 563.156 0.464375 -1.50603 0
M  V30 6108 C 564.386 1.23727 -1.65454 0
M  V30 6109 C 564.794 1.86119 -0.340032 0
M  V30 6110 O 564.137 1.70301 0.688706 0
M  V30 6111 C 564.199 2.38153 -2.69301 0
M  V30 6112 C 563.863 1.96345 -4.12671 0
M  V30 6113 C 564.86 1.48215 -4.98326 0
M  V30 6114 C 562.545 2.04861 -4.58625 0
M  V30 6115 C 564.539 1.09152 -6.27985 0
M  V30 6116 C 562.226 1.65409 -5.88288 0
M  V30 6117 C 563.224 1.17634 -6.72794 0
M  V30 6118 O 562.912 0.787312 -8.00035 0
M  V30 6119 H 562.644 0.380075 -0.559034 0
M  V30 6120 H 565.198 0.559919 -1.97621 0
M  V30 6121 H 563.428 3.09081 -2.32392 0
M  V30 6122 H 565.117 3.00099 -2.73304 0
M  V30 6123 H 565.883 1.41052 -4.64036 0
M  V30 6124 H 561.762 2.40996 -3.92991 0
M  V30 6125 H 565.306 0.717909 -6.93896 0
M  V30 6126 H 561.203 1.72233 -6.22098 0
M  V30 6127 H 561.971 0.915567 -8.13363 0
M  V30 6128 N 564.634 1.40294 0.718013 0
M  V30 6129 C 565.859 1.41941 1.5122 0
M  V30 6130 C 566.284 0.0202371 1.88089 0
M  V30 6131 O 565.642 -0.971078 1.53101 0
M  V30 6132 C 565.69 2.3141 2.76554 0
M  V30 6133 O 564.794 1.75567 3.73162 0
M  V30 6134 H 564.135 0.482644 0.456016 0
M  V30 6135 H 566.665 1.84494 0.884478 0
M  V30 6136 H 566.675 2.46513 3.25108 0
M  V30 6137 H 565.35 3.33085 2.49053 0
M  V30 6138 H 563.927 1.69798 3.31999 0
M  V30 6139 N 566.112 -0.949982 1.2575 0
M  V30 6140 C 567.042 -2.06483 1.09028 0
M  V30 6141 C 568.023 -1.701 -0.00201532 0
M  V30 6142 O 569.208 -1.93469 0.168383 0
M  V30 6143 C 566.338 -3.39899 0.71316 0
M  V30 6144 C 565.292 -3.90309 1.75621 0
M  V30 6145 C 564.618 -5.20274 1.23365 0
M  V30 6146 C 565.918 -4.16169 3.15596 0
M  V30 6147 H 567.612 -2.20731 2.02283 0
M  V30 6148 H 565.158 -1.06066 0.973964 0
M  V30 6149 H 567.111 -4.17346 0.58309 0
M  V30 6150 H 565.835 -3.25602 -0.255091 0
M  V30 6151 H 564.494 -3.15035 1.8748 0
M  V30 6152 H 564.142 -5.02351 0.255491 0
M  V30 6153 H 563.842 -5.54971 1.93082 0
M  V30 6154 H 565.366 -6.00314 1.11607 0
M  V30 6155 H 566.78 -4.84259 3.06864 0
M  V30 6156 H 565.177 -4.62131 3.82825 0
M  V30 6157 H 566.247 -3.22273 3.6231 0
M  V30 6158 N 567.59 -1.07411 -1.15328 0
M  V30 6159 C 568.522 -0.652924 -2.19703 0
M  V30 6160 C 569.535 0.294869 -1.60107 0
M  V30 6161 O 570.724 0.0840932 -1.78302 0
M  V30 6162 C 567.824 0.061434 -3.38844 0
M  V30 6163 C 566.997 -0.902696 -4.27984 0
M  V30 6164 C 566.056 -0.225521 -5.25717 0
M  V30 6165 O 565.082 -0.86676 -5.62562 0
M  V30 6166 N 566.284 1.02858 -5.71315 0
M  V30 6167 H 569.049 -1.55081 -2.56457 0
M  V30 6168 H 566.61 -0.958883 -1.30449 0
M  V30 6169 H 568.602 0.525145 -4.01278 0
M  V30 6170 H 567.172 0.861269 -3.00501 0
M  V30 6171 H 566.392 -1.54551 -3.6264 0
M  V30 6172 H 567.68 -1.55636 -4.84412 0
M  V30 6173 H 567.078 1.56948 -5.43492 0
M  V30 6174 H 565.635 1.43596 -6.35786 0
M  V30 6175 N 569.068 1.32177 -0.85831 0
M  V30 6176 C 570.293 2.01847 -0.476718 0
M  V30 6177 C 570.718 1.64065 0.920021 0
M  V30 6178 O 570.076 0.843189 1.60499 0
M  V30 6179 C 570.124 3.55097 -0.627578 0
M  V30 6180 O 569.228 4.11012 0.338086 0
M  V30 6181 H 568.569 0.635907 -0.191099 0
M  V30 6182 H 571.099 1.68641 -1.15851 0
M  V30 6183 H 571.109 4.04718 -0.516476 0
M  V30 6184 H 569.784 3.81938 -1.64609 0
M  V30 6185 H 568.361 3.72451 0.182917 0
M  V30 6186 N 570.547 0.616602 1.45037 0
M  V30 6187 C 571.794 0.115331 2.02171 0
M  V30 6188 C 572.122 -1.25748 1.48383 0
M  V30 6189 O 571.377 -1.84511 0.652229 0
M  V30 6190 C 571.676 0.0356829 3.57382 0
M  V30 6191 C 571.342 1.34535 4.30362 0
M  V30 6192 C 570.004 1.70408 4.50016 0
M  V30 6193 C 572.356 2.21049 4.72003 0
M  V30 6194 C 569.684 2.92529 5.0857 0
M  V30 6195 C 572.036 3.42427 5.31908 0
M  V30 6196 C 570.7 3.78541 5.49784 0
M  V30 6197 H 569.97 0.0422024 0.739797 0
M  V30 6198 H 572.617 0.80002 1.73988 0
M  V30 6199 H 570.922 -0.732314 3.84895 0
M  V30 6200 H 572.619 -0.368463 3.99304 0
M  V30 6201 H 569.209 1.05615 4.15383 0
M  V30 6202 H 573.393 1.94632 4.56544 0
M  V30 6203 H 568.649 3.20605 5.20598 0
M  V30 6204 H 572.823 4.09709 5.63127 0
M  V30 6205 H 570.45 4.73255 5.94923 0
M  V30 6206 N 572.025 -1.5352 0.356285 0
M  V30 6207 C 573.273 -2.00719 -0.235837 0
M  V30 6208 C 573.594 -1.24551 -1.5004 0
M  V30 6209 O 572.864 -0.356185 -1.92635 0
M  V30 6210 H 571.444 -0.741542 -0.0901366 0
M  V30 6211 H 574.106 -1.88887 0.480378 0
M  V30 6212 H 573.202 -3.08551 -0.469357 0
M  V30 6213 N 573.503 -0.0852151 -1.57369 0
M  V30 6214 C 574.413 0.891712 -2.16992 0
M  V30 6215 C 575.429 1.3174 -1.13669 0
M  V30 6216 O 576.605 1.38735 -1.45995 0
M  V30 6217 C 573.67 2.13635 -2.73059 0
M  V30 6218 C 572.731 1.7658 -3.91303 0
M  V30 6219 C 571.964 2.95111 -4.44686 0
M  V30 6220 O 572.187 4.09539 -3.97032 0
M  V30 6221 O 571.121 2.74149 -5.35841 0
M  V30 6222 H 574.947 0.414477 -3.00858 0
M  V30 6223 H 572.532 0.138598 -1.48756 0
M  V30 6224 H 574.414 2.86595 -3.08935 0
M  V30 6225 H 573.089 2.6043 -1.92244 0
M  V30 6226 H 571.996 1.00831 -3.60255 0
M  V30 6227 H 573.329 1.34557 -4.7345 0
M  V30 6228 N 574.981 1.5647 0.188427 0
M  V30 6229 C 575.914 1.90146 1.26173 0
M  V30 6230 C 576.892 0.762294 1.43624 0
M  V30 6231 O 578.076 1.01395 1.58907 0
M  V30 6232 C 575.203 2.13748 2.62735 0
M  V30 6233 C 574.249 3.36448 2.62116 0
M  V30 6234 S 575.082 4.91364 2.12889 0
M  V30 6235 C 576.238 5.18041 3.51261 0
M  V30 6236 H 576.471 2.80886 0.974192 0
M  V30 6237 H 574.004 1.49335 0.392226 0
M  V30 6238 H 575.962 2.28028 3.41341 0
M  V30 6239 H 574.623 1.23747 2.88696 0
M  V30 6240 H 573.816 3.50109 3.62546 0
M  V30 6241 H 573.418 3.21196 1.91596 0
M  V30 6242 H 575.71 5.0897 4.47164 0
M  V30 6243 H 576.653 6.19764 3.42489 0
M  V30 6244 H 577.061 4.45657 3.46482 0
M  V30 6245 N 576.459 -0.456382 1.50847 0
M  V30 6246 C 577.422 -1.53493 1.70213 0
M  V30 6247 C 578.422 -1.50264 0.572481 0
M  V30 6248 O 579.612 -1.52623 0.839751 0
M  V30 6249 C 576.744 -2.93091 1.741 0
M  V30 6250 H 577.937 -1.37633 2.66453 0
M  V30 6251 H 575.49 -0.683776 1.4055 0
M  V30 6252 H 576.225 -3.14378 0.796063 0
M  V30 6253 H 576.01 -2.9684 2.5618 0
M  V30 6254 H 577.5 -3.71368 1.90987 0
M  V30 6255 N 577.937 -1.40673 -0.710563 0
M  V30 6256 C 579.214 -1.29718 -1.46398 0
M  V30 6257 C 579.594 0.082177 -2.1094 0
M  V30 6258 O 578.942 1.09536 -2.00534 0
M  V30 6259 C 579.152 -2.43967 -2.49562 0
M  V30 6260 C 580.5 -2.84436 -3.15248 0
M  V30 6261 O 581.524 -2.43597 -2.59883 0
M  V30 6262 O 580.383 -3.55008 -4.1549 0
M  V30 6263 H 577.477 -0.509697 -0.651258 0
M  V30 6264 H 580.023 -1.52603 -0.742312 0
M  V30 6265 H 578.795 -3.36076 -2.0042 0
M  V30 6266 H 578.418 -2.22879 -3.29258 0
M  V30 6267 N 579.415 0.9433 -1.26252 0
M  V30 6268 C 580.64 1.72898 -1.14547 0
M  V30 6269 C 581.065 1.85761 0.295743 0
M  V30 6270 O 580.423 1.3463 1.21427 0
M  V30 6271 C 580.471 3.11471 -1.8171 0
M  V30 6272 O 579.575 3.97336 -1.10445 0
M  V30 6273 H 578.916 0.530555 -0.399259 0
M  V30 6274 H 581.446 1.18159 -1.67032 0
M  V30 6275 H 581.456 3.61872 -1.88449 0
M  V30 6276 H 580.131 3.01425 -2.86558 0
M  V30 6277 H 578.708 3.55788 -1.11666 0
M  V30 6278 N 580.893 1.08022 1.14757 0
M  V30 6279 C 582.14 0.807509 1.85703 0
M  V30 6280 C 582.468 -0.666617 1.8272 0
M  V30 6281 O 581.723 -1.50562 1.25018 0
M  V30 6282 C 582.022 1.26964 3.34088 0
M  V30 6283 C 581.688 2.7509 3.57262 0
M  V30 6284 C 580.35 3.15547 3.63296 0
M  V30 6285 C 582.702 3.70667 3.66409 0
M  V30 6286 C 580.03 4.50384 3.75994 0
M  V30 6287 C 582.382 5.05274 3.80632 0
M  V30 6288 C 581.046 5.45342 3.84913 0
M  V30 6289 H 580.316 0.295488 0.679535 0
M  V30 6290 H 582.963 1.35245 1.35577 0
M  V30 6291 H 581.268 0.644216 3.86467 0
M  V30 6292 H 582.965 1.03544 3.87401 0
M  V30 6293 H 579.555 2.42775 3.53212 0
M  V30 6294 H 583.739 3.40533 3.61041 0
M  V30 6295 H 578.995 4.80886 3.77569 0
M  V30 6296 H 583.169 5.79201 3.86652 0
M  V30 6297 H 580.796 6.49823 3.94505 0
M  V30 6298 N 582.371 -1.3172 0.865308 0
M  V30 6299 C 583.318 -2.2863 0.315736 0
M  V30 6300 C 584.288 -1.55524 -0.583213 0
M  V30 6301 O 585.473 -1.83694 -0.51585 0
M  V30 6302 C 582.613 -3.41735 -0.480773 0
M  V30 6303 C 581.726 -4.297 0.445167 0
M  V30 6304 C 580.861 -5.29944 -0.365012 0
M  V30 6305 C 579.9 -6.09554 0.557651 0
M  V30 6306 N 579.037 -7.01768 -0.215994 0
M  V30 6307 H 583.877 -2.75026 1.14736 0
M  V30 6308 H 581.414 -1.35302 0.577209 0
M  V30 6309 H 583.372 -4.06045 -0.958306 0
M  V30 6310 H 582.002 -2.96461 -1.27714 0
M  V30 6311 H 581.054 -3.65875 1.04113 0
M  V30 6312 H 582.366 -4.85295 1.15284 0
M  V30 6313 H 581.52 -5.99908 -0.905255 0
M  V30 6314 H 580.259 -4.74994 -1.106 0
M  V30 6315 H 579.264 -5.38485 1.10969 0
M  V30 6316 H 580.489 -6.66591 1.29742 0
M  V30 6317 H 578.435 -6.49232 -0.939878 0
M  V30 6318 H 578.352 -7.54762 0.432431 0
M  V30 6319 H 579.62 -7.76002 -0.737618 0
M  V30 6320 N 583.85 -0.624285 -1.44708 0
M  V30 6321 C 585.075 -0.131171 -2.06985 0
M  V30 6322 C 585.5 1.18234 -1.46295 0
M  V30 6323 O 584.858 1.72375 -0.561842 0
M  V30 6324 C 584.906 -0.0226724 -3.60593 0
M  V30 6325 O 584.01 1.02314 -3.99507 0
M  V30 6326 H 583.351 -0.0816556 -0.65896 0
M  V30 6327 H 585.88 -0.859027 -1.85693 0
M  V30 6328 H 585.891 0.170138 -4.07645 0
M  V30 6329 H 584.566 -0.981685 -4.04148 0
M  V30 6330 H 583.143 0.805452 -3.64097 0
M  V30 6331 N 585.328 1.53329 -0.364422 0
M  V30 6332 C 586.605 1.93557 0.281962 0
M  V30 6333 C 586.985 1.29786 1.6649 0
M  V30 6334 O 586.333 0.456512 2.23893 0
M  V30 6335 C 586.543 3.47405 0.333331 0
M  V30 6336 C 587.891 4.20699 0.574231 0
M  V30 6337 O 588.915 3.53779 0.414588 0
M  V30 6338 O 587.774 5.39287 0.885002 0
M  V30 6339 H 584.868 0.809573 0.168881 0
M  V30 6340 H 587.414 1.64494 -0.417121 0
M  V30 6341 H 586.186 3.86091 -0.636326 0
M  V30 6342 H 585.809 3.82697 1.07836 0
M  V30 6343 N 586.806 0.0935595 1.57322 0
M  V30 6344 C 588.036 -0.578095 1.98347 0
M  V30 6345 C 588.444 -1.62357 0.971441 0
M  V30 6346 O 587.787 -1.83639 -0.0473959 0
M  V30 6347 C 587.849 -1.28525 3.3574 0
M  V30 6348 C 587.513 -0.390714 4.55327 0
M  V30 6349 C 588.51 0.360522 5.18648 0
M  V30 6350 C 586.195 -0.309221 5.01347 0
M  V30 6351 C 588.189 1.18125 6.26359 0
M  V30 6352 C 585.876 0.515157 6.08925 0
M  V30 6353 C 586.874 1.25904 6.71295 0
M  V30 6354 O 586.562 2.06978 7.76798 0
M  V30 6355 H 586.294 -0.159767 0.656849 0
M  V30 6356 H 588.848 0.169058 2.04703 0
M  V30 6357 H 587.078 -2.07894 3.26063 0
M  V30 6358 H 588.767 -1.85128 3.61223 0
M  V30 6359 H 589.533 0.307285 4.84026 0
M  V30 6360 H 585.412 -0.877881 4.52564 0
M  V30 6361 H 588.956 1.76236 6.74971 0
M  V30 6362 H 584.853 0.56988 6.42979 0
M  V30 6363 H 585.621 1.99644 7.93779 0
M  V30 6364 N 588.284 -1.56567 -0.180126 0
M  V30 6365 C 589.531 -1.81492 -0.898167 0
M  V30 6366 C 589.859 -0.669225 -1.82624 0
M  V30 6367 O 589.114 0.344096 -1.92651 0
M  V30 6368 C 589.413 -3.1252 -1.73395 0
M  V30 6369 C 589.079 -4.40658 -0.955567 0
M  V30 6370 C 587.741 -4.75465 -0.740707 0
M  V30 6371 C 590.093 -5.19593 -0.408948 0
M  V30 6372 C 587.421 -5.86691 0.0320128 0
M  V30 6373 C 589.773 -6.31627 0.350638 0
M  V30 6374 C 588.437 -6.65007 0.576378 0
M  V30 6375 H 587.707 -0.664125 -0.328662 0
M  V30 6376 H 590.354 -1.908 -0.163616 0
M  V30 6377 H 588.659 -2.98515 -2.53763 0
M  V30 6378 H 590.356 -3.29013 -2.29241 0
M  V30 6379 H 586.946 -4.13352 -1.13306 0
M  V30 6380 H 591.13 -4.93104 -0.562307 0
M  V30 6381 H 586.386 -6.11016 0.216735 0
M  V30 6382 H 590.56 -6.92001 0.781497 0
M  V30 6383 H 588.187 -7.51033 1.17703 0
M  V30 6384 N 589.762 0.448376 -1.51087 0
M  V30 6385 C 590.71 1.56407 -1.72161 0
M  V30 6386 C 591.704 1.58878 -0.587721 0
M  V30 6387 O 592.91 1.62755 -0.768822 0
M  V30 6388 H 589.285 0.519423 -0.543786 0
M  V30 6389 H 591.256 1.35803 -2.65707 0
M  V30 6390 C 590.005 2.94163 -1.85373 0
M  V30 6391 H 589.328 2.9299 -2.72024 0
M  V30 6392 H 590.768 3.71625 -2.04135 0
M  V30 6393 C 589.227 3.31317 -0.610803 0
M  V30 6394 O 589.757 4.00985 0.239636 0
M  V30 6395 N 587.963 2.86966 -0.458127 0
M  V30 6396 H 587.51 2.30443 -1.15124 0
M  V30 6397 H 587.468 3.12188 0.372289 0
M  V30 6398 N 591.24 1.41047 0.703093 0
M  V30 6399 C 592.173 1.36713 1.82715 0
M  V30 6400 C 593.151 0.235533 1.60885 0
M  V30 6401 O 594.335 0.421227 1.83733 0
M  V30 6402 C 591.462 1.13069 3.1927 0
M  V30 6403 C 590.508 2.28846 3.59905 0
M  V30 6404 S 591.341 3.91297 3.65578 0
M  V30 6405 C 592.497 3.69941 5.04871 0
M  V30 6406 H 592.73 2.31838 1.86114 0
M  V30 6407 H 590.263 1.27481 0.871083 0
M  V30 6408 H 592.221 1.00113 3.98105 0
M  V30 6409 H 590.882 0.195763 3.13489 0
M  V30 6410 H 590.075 2.07977 4.59088 0
M  V30 6411 H 589.677 2.3817 2.88359 0
M  V30 6412 H 591.969 3.29181 5.92154 0
M  V30 6413 H 592.912 4.68699 5.30779 0
M  V30 6414 H 593.32 3.03369 4.76054 0
M  V30 6415 N 592.718 -0.936591 1.26751 0
M  V30 6416 C 594.129 -1.49816 1.1141 0
M  V30 6417 C 594.48 -1.9383 -0.304015 0
M  V30 6418 O 593.605 -1.80346 -1.196 0
M  V30 6419 C 594.2 -2.72271 2.01629 0
M  V30 6420 C 592.759 -3.2468 1.9042 0
M  V30 6421 C 591.906 -1.97444 1.94708 0
M  V30 6422 H 594.857 -0.751604 1.39773 0
M  V30 6423 H 594.878 -3.46741 1.56688 0
M  V30 6424 H 594.39 -2.40205 3.04833 0
M  V30 6425 H 592.491 -3.61525 0.901674 0
M  V30 6426 H 592.604 -3.91476 2.76195 0
M  V30 6427 H 590.968 -2.13545 1.38818 0
M  V30 6428 H 591.751 -1.67703 2.9955 0
M  V30 6429 N 594.196 -1.08629 -1.14182 0
M  V30 6430 C 595.442 -0.818556 -1.85546 0
M  V30 6431 C 595.775 0.654076 -1.82854 0
M  V30 6432 O 595.05 1.48099 -1.26083 0
M  V30 6433 C 595.333 -1.34397 -3.3408 0
M  V30 6434 C 595.186 -2.8821 -3.45333 0
M  V30 6435 C 596.505 -0.971069 -4.29253 0
M  V30 6436 H 593.624 -0.298821 -0.673702 0
M  V30 6437 H 596.266 -1.34629 -1.34071 0
M  V30 6438 H 594.416 -0.895064 -3.78049 0
M  V30 6439 H 596.088 -3.41488 -3.10134 0
M  V30 6440 H 594.331 -3.25756 -2.86471 0
M  V30 6441 H 595.002 -3.20047 -4.49749 0
M  V30 6442 H 597.478 -1.35809 -3.93313 0
M  V30 6443 H 596.354 -1.36586 -5.31635 0
M  V30 6444 H 596.615 0.121659 -4.41933 0
M  V30 6445 N 595.674 1.31259 -0.872281 0
M  V30 6446 C 596.624 2.26 -0.301295 0
M  V30 6447 C 597.608 1.50729 0.562991 0
M  V30 6448 O 598.8 1.72198 0.40949 0
M  V30 6449 C 595.929 3.39724 0.494227 0
M  V30 6450 C 595.015 4.22363 -0.383432 0
M  V30 6451 N 595.406 4.83724 -1.47799 0
M  V30 6452 C 593.704 4.45652 -0.176278 0
M  V30 6453 C 594.405 5.45523 -2.01939 0
M  V30 6454 N 593.381 5.27428 -1.31608 0
M  V30 6455 H 597.183 2.70981 -1.13782 0
M  V30 6456 H 594.697 1.45552 -0.720294 0
M  V30 6457 H 596.694 4.06626 0.919828 0
M  V30 6458 H 595.354 2.96286 1.32834 0
M  V30 6459 H 596.365 4.83313 -1.8609 0
M  V30 6460 H 593.042 4.12845 0.621698 0
M  V30 6461 H 594.432 6.04268 -2.93786 0
M  V30 6462 N 597.152 0.631951 1.44375 0
M  V30 6463 C 598.085 -0.121822 2.27875 0
M  V30 6464 C 599.063 -0.850457 1.38586 0
M  V30 6465 O 600.247 -0.854378 1.68026 0
M  V30 6466 C 597.374 -1.17859 3.17533 0
M  V30 6467 C 596.42 -0.550391 4.22934 0
M  V30 6468 S 597.253 0.660145 5.31415 0
M  V30 6469 C 598.409 -0.396613 6.24642 0
M  V30 6470 H 598.642 0.586537 2.91457 0
M  V30 6471 H 596.175 0.420146 1.48574 0
M  V30 6472 H 598.133 -1.78335 3.69739 0
M  V30 6473 H 596.794 -1.85915 2.53169 0
M  V30 6474 H 595.987 -1.34631 4.85685 0
M  V30 6475 H 595.589 -0.0202306 3.73995 0
M  V30 6476 H 597.881 -1.26893 6.65511 0
M  V30 6477 H 598.824 0.195345 7.0783 0
M  V30 6478 H 599.232 -0.72288 5.59852 0
M  V30 6479 N 598.631 -1.53133 0.372548 0
M  V30 6480 C 599.877 -2.01654 -0.215277 0
M  V30 6481 C 600.21 -1.25914 -1.47849 0
M  V30 6482 O 599.485 -0.3548 -1.91237 0
M  V30 6483 C 599.768 -3.56609 -0.500187 0
M  V30 6484 C 599.621 -4.43036 0.777145 0
M  V30 6485 C 600.94 -4.20528 -1.29786 0
M  V30 6486 H 598.059 -0.732991 -0.0767686 0
M  V30 6487 H 600.701 -1.83335 0.498814 0
M  V30 6488 H 598.851 -3.7235 -1.10852 0
M  V30 6489 H 600.523 -4.39079 1.41447 0
M  V30 6490 H 598.766 -4.10723 1.39604 0
M  V30 6491 H 599.437 -5.49424 0.532662 0
M  V30 6492 H 601.913 -4.08663 -0.783198 0
M  V30 6493 H 600.789 -5.28962 -1.46596 0
M  V30 6494 H 601.05 -3.77051 -2.30836 0
M  V30 6495 N 600.109 -0.101901 -1.5727 0
M  V30 6496 C 601.52 0.426173 -1.81771 0
M  V30 6497 C 601.871 1.67725 -1.01797 0
M  V30 6498 O 600.996 2.14958 -0.249386 0
M  V30 6499 C 601.591 0.779962 -3.297 0
M  V30 6500 C 600.15 1.25275 -3.54941 0
M  V30 6501 C 599.297 0.252814 -2.76145 0
M  V30 6502 H 602.248 -0.32726 -1.55289 0
M  V30 6503 H 602.269 1.63891 -3.43395 0
M  V30 6504 H 601.781 -0.130778 -3.8788 0
M  V30 6505 H 599.882 2.18097 -3.021 0
M  V30 6506 H 599.995 1.20988 -4.63572 0
M  V30 6507 H 598.359 0.736362 -2.43823 0
M  V30 6508 H 599.142 -0.650724 -3.37076 0
M  V30 6509 N 601.587 1.56661 0.17182 0
M  V30 6510 C 602.815 1.861 0.904115 0
M  V30 6511 C 603.23 0.687227 1.75848 0
M  V30 6512 O 602.587 -0.343671 1.79235 0
M  V30 6513 C 602.638 3.14568 1.78127 0
M  V30 6514 O 602.359 4.27422 0.961366 0
M  V30 6515 C 603.86 3.5735 2.62327 0
M  V30 6516 H 601.08 0.617445 0.262684 0
M  V30 6517 H 603.624 2.03775 0.172068 0
M  V30 6518 H 601.779 2.98721 2.46666 0
M  V30 6519 H 602.193 5.00725 1.56123 0
M  V30 6520 H 603.667 4.50144 3.1949 0
M  V30 6521 H 604.144 2.81445 3.37173 0
M  V30 6522 H 604.75 3.75807 1.99121 0
M  V30 6523 N 603.065 -0.440357 1.51323 0
M  V30 6524 C 603.975 -1.55955 1.75258 0
M  V30 6525 C 604.991 -1.61933 0.636687 0
M  V30 6526 O 606.167 -1.79231 0.918593 0
M  V30 6527 C 603.232 -2.9196 1.86977 0
M  V30 6528 C 602.293 -2.96122 3.10822 0
M  V30 6529 C 601.526 -4.2564 3.21973 0
M  V30 6530 O 601.749 -5.17851 2.39137 0
M  V30 6531 O 600.683 -4.36025 4.14929 0
M  V30 6532 H 604.509 -1.38673 2.70191 0
M  V30 6533 H 602.094 -0.623055 1.35788 0
M  V30 6534 H 603.976 -3.72682 1.96688 0
M  V30 6535 H 602.651 -3.09375 0.952307 0
M  V30 6536 H 601.558 -2.14366 3.06591 0
M  V30 6537 H 602.891 -2.83651 4.02247 0
M  V30 6538 N 604.543 -1.41418 -0.695603 0
M  V30 6539 C 605.473 -1.46035 -1.82197 0
M  V30 6540 C 606.454 -0.319025 -1.67082 0
M  V30 6541 O 607.639 -0.530462 -1.86815 0
M  V30 6542 C 604.769 -1.34179 -3.20333 0
M  V30 6543 C 603.723 -2.46123 -3.50154 0
M  V30 6544 C 603.049 -2.19332 -4.87645 0
M  V30 6545 C 604.349 -3.88463 -3.49133 0
M  V30 6546 H 606.043 -2.40303 -1.78591 0
M  V30 6547 H 603.589 -1.15663 -0.857797 0
M  V30 6548 H 605.542 -1.36021 -3.98844 0
M  V30 6549 H 604.266 -0.363952 -3.24566 0
M  V30 6550 H 602.925 -2.43563 -2.73994 0
M  V30 6551 H 602.573 -1.19891 -4.88503 0
M  V30 6552 H 602.273 -2.94344 -5.08562 0
M  V30 6553 H 603.797 -2.22889 -5.68465 0
M  V30 6554 H 605.211 -3.92738 -4.17648 0
M  V30 6555 H 603.608 -4.63158 -3.81582 0
M  V30 6556 H 604.678 -4.16617 -2.48109 0
M  V30 6557 N 606.021 0.929856 -1.27246 0
M  V30 6558 C 607.267 1.6798 -1.13625 0
M  V30 6559 C 607.6 1.91586 0.317589 0
M  V30 6560 O 606.875 1.50467 1.23247 0
M  V30 6561 C 607.158 3.04766 -1.91806 0
M  V30 6562 C 607.011 2.88415 -3.45162 0
M  V30 6563 C 608.33 4.05063 -1.72082 0
M  V30 6564 H 605.449 0.609632 -0.414147 0
M  V30 6565 H 608.091 1.0792 -1.56376 0
M  V30 6566 H 606.241 3.56034 -1.55474 0
M  V30 6567 H 607.913 2.44282 -3.91311 0
M  V30 6568 H 606.156 2.23802 -3.71611 0
M  V30 6569 H 606.827 3.85482 -3.95105 0
M  V30 6570 H 609.303 3.62798 -2.03757 0
M  V30 6571 H 608.179 4.98765 -2.29182 0
M  V30 6572 H 608.44 4.37021 -0.668206 0
M  V30 6573 N 607.499 1.09233 1.13605 0
M  V30 6574 C 608.409 0.741939 2.22559 0
M  V30 6575 C 609.425 -0.255236 1.72118 0
M  V30 6576 O 610.601 -0.0970747 2.01166 0
M  V30 6577 C 607.666 0.165595 3.46304 0
M  V30 6578 C 606.727 1.21846 4.11645 0
M  V30 6579 C 605.96 0.669526 5.29484 0
M  V30 6580 O 606.183 -0.508228 5.68131 0
M  V30 6581 O 605.117 1.42361 5.84822 0
M  V30 6582 H 608.943 1.65107 2.54899 0
M  V30 6583 H 606.528 0.866584 1.21699 0
M  V30 6584 H 608.41 -0.152592 4.21124 0
M  V30 6585 H 607.085 -0.716573 3.15669 0
M  V30 6586 H 605.992 1.58931 3.38662 0
M  V30 6587 H 607.325 2.07321 4.46407 0
M  V30 6588 N 608.977 -1.30795 0.87923 0
M  V30 6589 C 609.924 -2.28282 0.339968 0
M  V30 6590 C 610.894 -1.56134 -0.566685 0
M  V30 6591 O 612.079 -1.84231 -0.496338 0
M  V30 6592 C 609.219 -3.42225 -0.444501 0
M  V30 6593 C 608.332 -4.29204 0.490717 0
M  V30 6594 C 607.467 -5.30302 -0.308784 0
M  V30 6595 C 606.506 -6.08929 0.622272 0
M  V30 6596 N 605.643 -7.01957 -0.14155 0
M  V30 6597 H 610.483 -2.73794 1.17647 0
M  V30 6598 H 608.02 -1.34682 0.591527 0
M  V30 6599 H 609.978 -4.07038 -0.915186 0
M  V30 6600 H 608.608 -2.97799 -1.24562 0
M  V30 6601 H 607.66 -3.6475 1.07988 0
M  V30 6602 H 608.972 -4.84045 1.20425 0
M  V30 6603 H 608.126 -6.00835 -0.841575 0
M  V30 6604 H 606.865 -4.7614 -1.05556 0
M  V30 6605 H 605.87 -5.37278 1.16674 0
M  V30 6606 H 607.095 -6.65178 1.36804 0
M  V30 6607 H 605.041 -6.50192 -0.870966 0
M  V30 6608 H 604.958 -7.54261 0.51246 0
M  V30 6609 H 606.226 -7.76741 -0.655271 0
M  V30 6610 N 610.455 -0.639598 -1.44038 0
M  V30 6611 C 611.365 0.0612377 -2.3452 0
M  V30 6612 C 612.381 0.826717 -1.53106 0
M  V30 6613 O 613.557 0.777059 -1.85806 0
M  V30 6614 C 610.622 1.02492 -3.31204 0
M  V30 6615 C 609.683 0.25788 -4.28525 0
M  V30 6616 C 608.916 1.17566 -5.2059 0
M  V30 6617 O 609.139 2.41461 -5.16771 0
M  V30 6618 O 608.073 0.655407 -5.98321 0
M  V30 6619 H 611.899 -0.68318 -2.95916 0
M  V30 6620 H 609.484 -0.399784 -1.43952 0
M  V30 6621 H 611.366 1.57911 -3.90694 0
M  V30 6622 H 610.041 1.7498 -2.7233 0
M  V30 6623 H 608.948 -0.339566 -3.72556 0
M  V30 6624 H 610.281 -0.427154 -4.90343 0
M  V30 6625 N 611.933 1.52934 -0.380664 0
M  V30 6626 C 613.18 2.01467 0.204278 0
M  V30 6627 C 613.508 1.26744 1.47533 0
M  V30 6628 O 612.763 0.353723 1.92477 0
M  V30 6629 C 613.062 3.5349 0.527199 0
M  V30 6630 C 612.728 4.46171 -0.651295 0
M  V30 6631 C 611.39 4.71227 -0.974619 0
M  V30 6632 C 613.742 5.00909 -1.44012 0
M  V30 6633 C 611.07 5.4827 -2.08847 0
M  V30 6634 C 613.422 5.7917 -2.5445 0
M  V30 6635 C 612.086 6.02507 -2.87301 0
M  V30 6636 H 611.356 0.73722 0.0747504 0
M  V30 6637 H 614.003 1.84411 -0.516234 0
M  V30 6638 H 612.308 3.68574 1.32892 0
M  V30 6639 H 614.005 3.88529 0.992283 0
M  V30 6640 H 610.595 4.26829 -0.389276 0
M  V30 6641 H 614.779 4.81485 -1.20357 0
M  V30 6642 H 610.035 5.64567 -2.34679 0
M  V30 6643 H 614.209 6.20588 -3.1598 0
M  V30 6644 H 611.836 6.61989 -3.7373 0
M  V30 6645 N 613.412 0.11024 1.57214 0
M  V30 6646 C 614.658 -0.544479 1.95977 0
M  V30 6647 C 615.013 -1.64845 0.992171 0
M  V30 6648 O 614.306 -1.91589 0.0206981 0
M  V30 6649 C 614.5 -1.13102 3.39032 0
M  V30 6650 C 614.329 -0.0854079 4.49619 0
M  V30 6651 C 613.099 0.343373 5.04132 0
M  V30 6652 C 615.297 0.692232 5.0962 0
M  V30 6653 N 613.279 1.37567 5.98288 0
M  V30 6654 C 614.65 1.57596 5.99636 0
M  V30 6655 C 616.705 0.744085 4.92309 0
M  V30 6656 C 615.408 2.50701 6.74197 0
M  V30 6657 C 617.434 1.6628 5.67543 0
M  V30 6658 C 616.796 2.53412 6.57238 0
M  V30 6659 H 612.895 -0.169124 0.763493 0
M  V30 6660 H 615.479 0.196326 1.93708 0
M  V30 6661 H 613.65 -1.84158 3.41965 0
M  V30 6662 H 615.382 -1.74934 3.64939 0
M  V30 6663 H 612.137 -0.0473277 4.73576 0
M  V30 6664 H 612.561 1.89048 6.50069 0
M  V30 6665 H 617.203 0.0845825 4.22715 0
M  V30 6666 H 614.921 3.17669 7.43043 0
M  V30 6667 H 618.507 1.70825 5.56156 0
M  V30 6668 H 617.387 3.23347 7.14434 0
M  V30 6669 N 614.89 -1.56749 -0.16351 0
M  V30 6670 C 616.306 -1.51043 -0.515567 0
M  V30 6671 C 616.506 -0.815855 -1.84245 0
M  V30 6672 O 615.562 -0.379477 -2.49632 0
M  V30 6673 C 616.875 -2.95791 -0.541114 0
M  V30 6674 C 618.423 -3.0664 -0.627776 0
M  V30 6675 C 618.898 -4.52861 -0.684141 0
M  V30 6676 N 620.389 -4.5714 -0.746818 0
M  V30 6677 C 621.124 -5.67634 -0.811137 0
M  V30 6678 N 620.62 -6.8774 -0.835811 0
M  V30 6679 N 622.413 -5.55624 -0.850756 0
M  V30 6680 H 614.564 -2.00307 0.70645 0
M  V30 6681 H 616.827 -0.912876 0.255659 0
M  V30 6682 H 616.533 -3.49797 0.365329 0
M  V30 6683 H 616.407 -3.50858 -1.38487 0
M  V30 6684 H 618.794 -2.52663 -1.52464 0
M  V30 6685 H 618.875 -2.54645 0.242805 0
M  V30 6686 H 618.519 -5.07472 0.2085 0
M  V30 6687 H 618.449 -5.02621 -1.57098 0
M  V30 6688 H 620.94 -3.70669 -0.735717 0
M  V30 6689 H 621.253 -7.67701 -0.886279 0
M  V30 6690 H 619.598 -6.90334 -0.803958 0
M  V30 6691 H 622.789 -4.60709 -0.828535 0
M  V30 6692 H 622.962 -6.41756 -0.897418 0
M  V30 6693 N 616.368 0.432326 -1.51554 0
M  V30 6694 C 617.298 1.53242 -1.76179 0
M  V30 6695 C 618.279 1.58717 -0.611801 0
M  V30 6696 O 619.464 1.74364 -0.855033 0
M  V30 6697 C 616.594 2.91278 -1.89141 0
M  V30 6698 C 615.548 3.00663 -3.04608 0
M  V30 6699 C 614.874 4.40728 -3.02759 0
M  V30 6700 C 616.174 2.74281 -4.44485 0
M  V30 6701 H 617.868 1.32886 -2.68294 0
M  V30 6702 H 615.414 0.637841 -1.29103 0
M  V30 6703 H 617.367 3.68203 -2.04951 0
M  V30 6704 H 616.091 3.12877 -0.936785 0
M  V30 6705 H 614.75 2.26179 -2.88511 0
M  V30 6706 H 614.398 4.59301 -2.05065 0
M  V30 6707 H 614.098 4.47936 -3.80299 0
M  V30 6708 H 615.622 5.19619 -3.20669 0
M  V30 6709 H 617.036 3.40936 -4.60907 0
M  V30 6710 H 615.433 2.92893 -5.23769 0
M  V30 6711 H 616.503 1.69856 -4.54177 0
M  V30 6712 N 617.846 1.41785 0.688094 0
M  V30 6713 C 619.092 1.41753 1.4503 0
M  V30 6714 C 619.425 0.0290745 1.94178 0
M  V30 6715 O 618.7 -0.944456 1.7003 0
M  V30 6716 C 618.983 2.43069 2.65686 0
M  V30 6717 C 618.836 3.91053 2.22256 0
M  V30 6718 C 620.155 2.41543 3.67893 0
M  V30 6719 H 617.274 0.516202 0.526027 0
M  V30 6720 H 619.916 1.73111 0.783105 0
M  V30 6721 H 618.066 2.1646 3.2261 0
M  V30 6722 H 619.738 4.28594 1.70602 0
M  V30 6723 H 617.981 4.05559 1.53963 0
M  V30 6724 H 618.652 4.57501 3.08863 0
M  V30 6725 H 621.128 2.65175 3.20658 0
M  V30 6726 H 620.004 3.14434 4.49914 0
M  V30 6727 H 620.265 1.43666 4.18106 0
M  V30 6728 N 619.324 -0.923095 1.27737 0
M  V30 6729 C 620.549 -1.71054 1.17283 0
M  V30 6730 C 620.974 -1.86208 -0.266153 0
M  V30 6731 O 620.332 -1.36545 -1.1927 0
M  V30 6732 C 620.38 -3.0854 1.86642 0
M  V30 6733 O 619.484 -3.95528 1.16752 0
M  V30 6734 H 618.825 -0.524136 0.407649 0
M  V30 6735 H 621.355 -1.15487 1.6889 0
M  V30 6736 H 621.365 -3.58828 1.94182 0
M  V30 6737 H 620.04 -2.96828 2.91317 0
M  V30 6738 H 618.617 -3.53967 1.17312 0
M  V30 6739 N 620.802 -1.09834 -1.13024 0
M  V30 6740 C 622.027 -0.85909 -1.88771 0
M  V30 6741 C 622.452 0.584402 -1.78791 0
M  V30 6742 O 621.81 1.41101 -1.13842 0
M  V30 6743 C 621.858 -1.30427 -3.36186 0
M  V30 6744 O 620.962 -0.465368 -4.09766 0
M  V30 6745 H 620.303 -0.310786 -0.586778 0
M  V30 6746 H 622.833 -1.46355 -1.42973 0
M  V30 6747 H 622.843 -1.2915 -3.8702 0
M  V30 6748 H 621.518 -2.3555 -3.42767 0
M  V30 6749 H 620.095 -0.542814 -3.68928 0
M  V30 6750 N 622.28 1.30327 -0.886154 0
M  V30 6751 C 623.529 1.95373 -0.501243 0
M  V30 6752 C 623.842 1.70722 0.954634 0
M  V30 6753 O 625.048 2.29761 1.44644 0
M  V30 6754 C 623.504 3.49828 -0.845493 0
M  V30 6755 C 623.112 3.83296 -2.31922 0
M  V30 6756 C 624.856 4.2118 -0.529838 0
M  V30 6757 C 622.763 5.30935 -2.60504 0
M  V30 6758 H 621.693 0.731274 -0.183722 0
M  V30 6759 H 624.344 1.48258 -1.08129 0
M  V30 6760 H 622.726 3.95522 -0.19452 0
M  V30 6761 H 623.9 3.48508 -3.01461 0
M  V30 6762 H 622.215 3.2505 -2.60253 0
M  V30 6763 H 624.812 5.29825 -0.720401 0
M  V30 6764 H 625.155 4.12902 0.530828 0
M  V30 6765 H 625.688 3.81173 -1.13806 0
M  V30 6766 H 622.427 5.44265 -3.65316 0
M  V30 6767 H 621.947 5.67019 -1.95575 0
M  V30 6768 H 623.626 5.98381 -2.46066 0
M  V30 6769 N 623.758 0.647228 1.43697 0
M  V30 6770 C 624.668 -0.0487997 2.34549 0
M  V30 6771 C 625.684 -0.818586 1.53542 0
M  V30 6772 O 626.86 -0.767195 1.86215 0
M  V30 6773 C 623.925 -1.00734 3.31743 0
M  V30 6774 C 622.986 -0.23515 4.28655 0
M  V30 6775 C 622.219 -1.14803 5.21206 0
M  V30 6776 O 622.442 -2.38717 5.18045 0
M  V30 6777 O 621.376 -0.623667 5.9866 0
M  V30 6778 H 625.202 0.698863 2.9555 0
M  V30 6779 H 622.787 0.407412 1.43738 0
M  V30 6780 H 624.669 -1.55837 3.91526 0
M  V30 6781 H 623.344 -1.73534 2.73254 0
M  V30 6782 H 622.251 0.359319 3.7237 0
M  V30 6783 H 623.584 0.453152 4.9011 0
M  V30 6784 N 625.236 -1.5273 0.388769 0
M  V30 6785 C 626.146 -2.30165 -0.453993 0
M  V30 6786 C 627.162 -1.37058 -1.07197 0
M  V30 6787 O 628.338 -1.70127 -1.0779 0
M  V30 6788 C 625.403 -3.09303 -1.56628 0
M  V30 6789 C 624.464 -4.18117 -0.973467 0
M  V30 6790 C 623.697 -4.93472 -2.03275 0
M  V30 6791 O 623.92 -4.68913 -3.24772 0
M  V30 6792 O 622.854 -5.78833 -1.65034 0
M  V30 6793 H 626.68 -3.03185 0.176816 0
M  V30 6794 H 624.265 -1.4862 0.152501 0
M  V30 6795 H 626.147 -3.58648 -2.21246 0
M  V30 6796 H 624.822 -2.39098 -2.18206 0
M  V30 6797 H 623.729 -3.7297 -0.290556 0
M  V30 6798 H 625.062 -4.90556 -0.401908 0
M  V30 6799 N 626.714 -0.118576 -1.57153 0
M  V30 6800 C 627.991 0.583062 -1.86708 0
M  V30 6801 C 628.371 1.84841 -1.01967 0
M  V30 6802 O 627.719 2.28288 -0.0984673 0
M  V30 6803 C 627.929 0.875912 -3.3783 0
M  V30 6804 C 629.277 1.22916 -4.0642 0
M  V30 6805 O 630.301 0.966188 -3.42846 0
M  V30 6806 O 629.16 1.72269 -5.18638 0
M  V30 6807 H 626.254 0.294185 -0.772906 0
M  V30 6808 H 628.8 -0.153048 -1.69008 0
M  V30 6809 H 627.572 -0.0207776 -3.91294 0
M  V30 6810 H 627.195 1.66719 -3.60958 0
M  V30 6811 N 628.193 1.56834 0.155195 0
M  V30 6812 C 629.439 1.83169 0.870467 0
M  V30 6813 C 629.772 0.698929 1.81187 0
M  V30 6814 O 629.047 -0.298035 1.92203 0
M  V30 6815 C 629.33 3.19965 1.65211 0
M  V30 6816 C 629.183 4.43792 0.732744 0
M  V30 6817 C 630.502 3.53885 2.61636 0
M  V30 6818 H 627.621 0.666288 0.315006 0
M  V30 6819 H 630.263 1.89513 0.135988 0
M  V30 6820 H 628.413 3.14687 2.27825 0
M  V30 6821 H 630.085 4.61148 0.118236 0
M  V30 6822 H 628.328 4.3378 0.0417906 0
M  V30 6823 H 628.999 5.36095 1.31552 0
M  V30 6824 H 631.475 3.5972 2.09143 0
M  V30 6825 H 630.351 4.50648 3.13381 0
M  V30 6826 H 630.612 2.79418 3.42605 0
M  V30 6827 N 629.671 -0.424282 1.51781 0
M  V30 6828 C 630.899 -1.1947 1.68921 0
M  V30 6829 C 631.314 -1.84683 0.39213 0
M  V30 6830 O 630.671 -1.71261 -0.630554 0
M  V30 6831 C 630.722 -2.26909 2.81416 0
M  V30 6832 O 630.443 -1.64361 4.061 0
M  V30 6833 C 631.944 -3.16945 3.09937 0
M  V30 6834 H 629.164 -0.359591 0.566511 0
M  V30 6835 H 631.708 -0.501139 1.98265 0
M  V30 6836 H 629.863 -2.91959 2.54635 0
M  V30 6837 H 630.277 -2.35468 4.68674 0
M  V30 6838 H 631.751 -3.88437 3.922 0
M  V30 6839 H 632.228 -3.78451 2.22871 0
M  V30 6840 H 632.834 -2.57581 3.38426 0
M  V30 6841 N 631.149 -1.42148 -0.680565 0
M  V30 6842 C 632.395 -1.42521 -1.44277 0
M  V30 6843 C 632.728 -0.0393718 -1.9416 0
M  V30 6844 O 632.003 0.935425 -1.70529 0
M  V30 6845 C 632.286 -2.44475 -2.64394 0
M  V30 6846 C 632.139 -3.92226 -2.20179 0
M  V30 6847 C 633.458 -2.43491 -3.66606 0
M  V30 6848 H 630.577 -0.518985 -0.523282 0
M  V30 6849 H 633.219 -1.73524 -0.773914 0
M  V30 6850 H 631.369 -2.18168 -3.21458 0
M  V30 6851 H 633.041 -4.29493 -1.68327 0
M  V30 6852 H 631.284 -4.0637 -1.5181 0
M  V30 6853 H 631.955 -4.59133 -3.06433 0
M  V30 6854 H 634.431 -2.66872 -3.19247 0
M  V30 6855 H 633.307 -3.16816 -4.4824 0
M  V30 6856 H 633.568 -1.45881 -4.17338 0
M  V30 6857 N 632.627 0.916307 -1.28225 0
M  V30 6858 C 633.537 2.05165 -1.13775 0
M  V30 6859 C 634.553 1.73879 -0.0649418 0
M  V30 6860 O 635.729 1.99531 -0.273722 0
M  V30 6861 C 632.794 3.37385 -0.798267 0
M  V30 6862 C 631.855 3.82296 -1.95316 0
M  V30 6863 C 631.088 5.08206 -1.62978 0
M  V30 6864 O 631.311 5.6781 -0.542948 0
M  V30 6865 O 630.245 5.48768 -2.47261 0
M  V30 6866 H 634.071 2.20273 -2.09078 0
M  V30 6867 H 631.656 1.0373 -1.07519 0
M  V30 6868 H 633.538 4.16773 -0.62278 0
M  V30 6869 H 632.213 3.23458 0.125139 0
M  V30 6870 H 631.12 3.03746 -2.18378 0
M  V30 6871 H 632.453 4.00782 -2.85718 0
M  V30 6872 N 634.105 1.10431 1.1244 0
M  V30 6873 C 635.335 0.867612 1.87499 0
M  V30 6874 C 635.743 -0.585475 1.79913 0
M  V30 6875 O 635.086 -1.41539 1.171 0
M  V30 6876 C 635.148 1.2374 3.37533 0
M  V30 6877 C 634.812 2.69751 3.68895 0
M  V30 6878 C 635.809 3.67988 3.67261 0
M  V30 6879 C 633.494 3.06135 3.98229 0
M  V30 6880 C 635.488 5.00632 3.9452 0
M  V30 6881 C 633.175 4.38967 4.25149 0
M  V30 6882 C 634.173 5.36025 4.23281 0
M  V30 6883 O 633.861 6.66465 4.49533 0
M  V30 6884 H 633.593 0.311196 0.600111 0
M  V30 6885 H 636.147 1.47257 1.43194 0
M  V30 6886 H 634.377 0.575537 3.82393 0
M  V30 6887 H 636.066 0.978187 3.93937 0
M  V30 6888 H 636.832 3.41224 3.44661 0
M  V30 6889 H 632.711 2.31214 3.98825 0
M  V30 6890 H 636.255 5.7638 3.92978 0
M  V30 6891 H 632.152 4.6547 4.47223 0
M  V30 6892 H 632.92 6.72095 4.67152 0
M  V30 6893 N 635.583 -1.29855 0.893053 0
M  V30 6894 C 636.831 -1.9544 0.514566 0
M  V30 6895 C 637.152 -1.70795 -0.940959 0
M  V30 6896 O 636.422 -1.03601 -1.66264 0
M  V30 6897 H 635.002 -0.723137 0.187302 0
M  V30 6898 H 637.664 -1.58234 1.13789 0
M  V30 6899 H 636.76 -3.04341 0.691581 0
M  V30 6900 N 637.061 -0.65484 -1.43351 0
M  V30 6901 C 638.024 0.0263562 -2.29185 0
M  V30 6902 C 639.024 0.748951 -1.42293 0
M  V30 6903 O 640.214 0.589957 -1.63906 0
M  V30 6904 C 637.346 1.04806 -3.2439 0
M  V30 6905 H 638.539 -0.728883 -2.90908 0
M  V30 6906 H 636.092 -0.416149 -1.50658 0
M  V30 6907 H 636.827 1.83247 -2.67565 0
M  V30 6908 H 636.612 0.533554 -3.88453 0
M  V30 6909 H 638.102 1.52372 -3.88809 0
M  V30 6910 N 638.539 1.52521 -0.396863 0
M  V30 6911 C 639.816 1.94112 0.240842 0
M  V30 6912 C 640.196 1.33288 1.637 0
M  V30 6913 O 639.544 0.503901 2.22875 0
M  V30 6914 C 639.754 3.48033 0.259567 0
M  V30 6915 C 641.102 4.21822 0.484866 0
M  V30 6916 O 642.126 3.54579 0.339453 0
M  V30 6917 O 640.985 5.41042 0.770412 0
M  V30 6918 H 638.079 0.812973 0.151671 0
M  V30 6919 H 640.625 1.63572 -0.451918 0
M  V30 6920 H 639.397 3.84655 -0.718078 0
M  V30 6921 H 639.02 3.84899 0.996937 0
M  V30 6922 N 640.017 0.126909 1.57088 0
M  V30 6923 C 641.266 -0.529024 1.94639 0
M  V30 6924 C 641.579 -1.67323 1.01304 0
M  V30 6925 O 642.785 -2.39245 1.28352 0
M  V30 6926 C 641.241 -0.992483 3.45945 0
M  V30 6927 C 640.849 0.123691 4.47829 0
M  V30 6928 C 642.593 -1.61934 3.924 0
M  V30 6929 C 640.5 -0.356911 5.90322 0
M  V30 6930 H 639.43 -0.201397 0.726605 0
M  V30 6931 H 642.081 0.208032 1.82317 0
M  V30 6932 H 640.463 -1.7842 3.53528 0
M  V30 6933 H 641.637 0.900168 4.51922 0
M  V30 6934 H 639.952 0.657699 4.11173 0
M  V30 6935 H 642.549 -1.9902 4.96281 0
M  V30 6936 H 642.892 -2.50075 3.32819 0
M  V30 6937 H 643.425 -0.892894 3.8765 0
M  V30 6938 H 640.164 0.488636 6.53676 0
M  V30 6939 H 639.684 -1.0997 5.89633 0
M  V30 6940 H 641.363 -0.815547 6.41839 0
M  V30 6941 N 641.495 -1.56914 -0.146875 0
M  V30 6942 C 642.445 -1.94693 -1.18653 0
M  V30 6943 C 643.429 -0.81821 -1.38543 0
M  V30 6944 O 644.621 -1.08167 -1.40103 0
M  V30 6945 C 641.75 -2.33117 -2.52014 0
M  V30 6946 C 640.836 -3.5256 -2.35717 0
M  V30 6947 N 641.227 -4.69091 -1.89175 0
M  V30 6948 C 639.525 -3.57647 -2.66467 0
M  V30 6949 C 640.226 -5.51187 -1.85924 0
M  V30 6950 N 639.202 -4.92899 -2.29242 0
M  V30 6951 H 643.004 -2.82264 -0.81879 0
M  V30 6952 H 640.518 -1.58474 -0.354929 0
M  V30 6953 H 642.515 -2.58387 -3.27172 0
M  V30 6954 H 641.175 -1.46898 -2.89571 0
M  V30 6955 H 642.186 -4.92844 -1.59139 0
M  V30 6956 H 638.863 -2.81967 -3.07898 0
M  V30 6957 H 640.253 -6.54613 -1.51431 0
M  V30 6958 N 642.974 0.416227 -1.52004 0
M  V30 6959 C 644.199 1.19029 -1.69843 0
M  V30 6960 C 644.624 1.83708 -0.404103 0
M  V30 6961 O 643.982 1.69711 0.637787 0
M  V30 6962 C 644.03 2.23439 -2.83032 0
M  V30 6963 O 643.134 3.29419 -2.48106 0
M  V30 6964 H 642.475 0.347785 -0.565634 0
M  V30 6965 H 645.005 0.488871 -1.98674 0
M  V30 6966 H 645.015 2.67884 -3.07737 0
M  V30 6967 H 643.69 1.75745 -3.76944 0
M  V30 6968 H 642.267 2.90303 -2.34048 0
M  V30 6969 N 644.452 1.42507 0.673017 0
M  V30 6970 C 645.399 1.46124 1.78651 0
M  V30 6971 C 646.369 0.313007 1.63124 0
M  V30 6972 O 647.554 0.517337 1.83653 0
M  V30 6973 C 644.694 1.3711 3.16694 0
M  V30 6974 C 643.807 2.61983 3.43495 0
M  V30 6975 C 642.942 2.45098 4.71275 0
M  V30 6976 C 641.981 3.65336 4.91117 0
M  V30 6977 N 641.118 3.47383 6.10139 0
M  V30 6978 H 645.958 2.4128 1.74895 0
M  V30 6979 H 643.495 1.19788 0.853766 0
M  V30 6980 H 645.453 1.29881 3.96468 0
M  V30 6981 H 644.083 0.45549 3.1957 0
M  V30 6982 H 643.135 2.79571 2.57961 0
M  V30 6983 H 644.447 3.51355 3.5405 0
M  V30 6984 H 643.601 2.35466 5.59143 0
M  V30 6985 H 642.34 1.53219 4.63007 0
M  V30 6986 H 641.345 3.754 4.0169 0
M  V30 6987 H 642.57 4.58199 5.01229 0
M  V30 6988 H 640.516 2.58222 6.0304 0
M  V30 6989 H 640.433 4.30344 6.21563 0
M  V30 6990 H 641.701 3.41565 7.00681 0
M  V30 6991 N 645.93 -0.909495 1.28709 0
M  V30 6992 C 646.84 -2.04558 1.14861 0
M  V30 6993 C 647.856 -1.73842 0.0741621 0
M  V30 6994 O 649.032 -1.99383 0.2843 0
M  V30 6995 C 646.097 -3.36957 0.816148 0
M  V30 6996 C 645.158 -3.81255 1.97341 0
M  V30 6997 C 644.391 -5.07335 1.65671 0
M  V30 6998 O 644.614 -5.67514 0.573053 0
M  V30 6999 O 643.548 -5.47449 2.50167 0
M  V30 7000 H 647.374 -2.19161 2.10243 0
M  V30 7001 H 644.959 -1.03159 1.08068 0
M  V30 7002 H 646.841 -4.16436 0.644873 0
M  V30 7003 H 645.516 -3.2352 -0.107983 0
M  V30 7004 H 644.423 -3.02584 2.19986 0
M  V30 7005 H 645.756 -3.99261 2.87839 0
M  V30 7006 N 647.408 -1.11026 -1.11852 0
M  V30 7007 C 648.655 -0.85646 -1.83497 0
M  V30 7008 C 648.983 0.617938 -1.84423 0
M  V30 7009 O 648.238 1.47194 -1.28966 0
M  V30 7010 C 648.537 -1.35777 -3.30604 0
M  V30 7011 C 648.203 -2.84465 -3.49843 0
M  V30 7012 C 646.865 -3.25068 -3.54802 0
M  V30 7013 C 649.217 -3.80251 -3.56453 0
M  V30 7014 C 646.545 -4.60194 -3.63921 0
M  V30 7015 C 648.897 -5.15188 -3.67102 0
M  V30 7016 C 647.561 -5.55356 -3.70319 0
M  V30 7017 H 646.831 -0.313401 -0.671462 0
M  V30 7018 H 649.478 -1.38792 -1.31943 0
M  V30 7019 H 647.783 -0.746455 -3.84624 0
M  V30 7020 H 649.48 -1.13779 -3.8452 0
M  V30 7021 H 646.07 -2.52054 -3.46651 0
M  V30 7022 H 650.254 -3.49986 -3.51886 0
M  V30 7023 H 645.51 -4.90728 -3.64686 0
M  V30 7024 H 649.684 -5.89248 -3.71159 0
M  V30 7025 H 647.311 -6.60054 -3.77138 0
M  V30 7026 N 648.886 1.2938 -0.899927 0
M  V30 7027 C 650.134 1.95164 -0.524924 0
M  V30 7028 C 650.455 1.71292 0.931888 0
M  V30 7029 O 649.725 1.04481 1.65712 0
M  V30 7030 H 648.305 0.722133 -0.191135 0
M  V30 7031 H 650.967 1.57628 -1.14627 0
M  V30 7032 H 650.063 3.0397 -0.707711 0
M  V30 7033 N 650.364 0.662433 1.43002 0
M  V30 7034 C 651.589 0.186003 2.06564 0
M  V30 7035 C 652.014 -1.14314 1.49379 0
M  V30 7036 O 651.372 -1.70824 0.607346 0
M  V30 7037 C 651.42 0.118269 3.60406 0
M  V30 7038 O 650.524 -0.916859 4.02079 0
M  V30 7039 H 649.865 0.0990981 0.656563 0
M  V30 7040 H 652.395 0.907958 1.8335 0
M  V30 7041 H 652.405 -0.0619981 4.07953 0
M  V30 7042 H 651.08 1.08849 4.01403 0
M  V30 7043 H 649.657 -0.708635 3.66105 0
M  V30 7044 N 651.842 -1.52309 0.404946 0
M  V30 7045 C 653.09 -2.01368 -0.17186 0
M  V30 7046 C 653.411 -1.29261 -1.46002 0
M  V30 7047 O 652.681 -0.41729 -1.91404 0
M  V30 7048 H 651.261 -0.744034 -0.0664993 0
M  V30 7049 H 653.923 -1.87263 0.540228 0
M  V30 7050 H 653.019 -3.09888 -0.370957 0
M  V30 7051 N 653.32 -0.135238 -1.57019 0
M  V30 7052 C 654.567 0.518794 -1.95742 0
M  V30 7053 C 654.895 1.65642 -1.01947 0
M  V30 7054 O 654.15 1.95645 -0.0464016 0
M  V30 7055 C 654.449 1.07694 -3.40788 0
M  V30 7056 C 654.115 0.058992 -4.50861 0
M  V30 7057 C 652.777 -0.220872 -4.80693 0
M  V30 7058 C 655.129 -0.633856 -5.17331 0
M  V30 7059 C 652.457 -1.19959 -5.74305 0
M  V30 7060 C 654.809 -1.60131 -6.11997 0
M  V30 7061 C 653.473 -1.889 -6.40213 0
M  V30 7062 H 652.743 0.18984 -0.716269 0
M  V30 7063 H 655.39 -0.219581 -1.90237 0
M  V30 7064 H 653.695 1.89241 -3.43067 0
M  V30 7065 H 655.392 1.59137 -3.68071 0
M  V30 7066 H 651.982 0.287304 -4.27636 0
M  V30 7067 H 656.166 -0.430823 -4.94427 0
M  V30 7068 H 651.422 -1.42905 -5.94465 0
M  V30 7069 H 655.596 -2.14376 -6.62583 0
M  V30 7070 H 653.223 -2.64891 -7.12556 0
M  V30 7071 N 654.798 1.5699 0.138552 0
M  V30 7072 C 656.209 1.73171 0.697754 0
M  V30 7073 C 656.56 0.750952 1.8126 0
M  V30 7074 O 655.685 -0.080549 2.1625 0
M  V30 7075 C 656.28 3.13996 1.27248 0
M  V30 7076 C 654.839 3.3175 1.77816 0
M  V30 7077 C 653.986 2.69084 0.669991 0
M  V30 7078 H 656.937 1.5846 -0.0871979 0
M  V30 7079 H 656.958 3.14463 2.14227 0
M  V30 7080 H 656.47 3.85354 0.460855 0
M  V30 7081 H 654.571 2.65403 2.61519 0
M  V30 7082 H 654.684 4.39768 1.90107 0
M  V30 7083 H 653.048 2.29782 1.09874 0
M  V30 7084 H 653.831 3.43053 -0.130329 0
M  V30 7085 N 656.276 -0.40816 1.52223 0
M  V30 7086 C 657.522 -1.15673 1.66576 0
M  V30 7087 C 657.855 -1.90141 0.394996 0
M  V30 7088 O 657.13 -1.84798 -0.606613 0
M  V30 7089 C 657.413 -2.15042 2.88841 0
M  V30 7090 C 657.266 -1.44465 4.25969 0
M  V30 7091 C 658.585 -3.15699 3.0663 0
M  V30 7092 H 655.704 -0.41916 0.606196 0
M  V30 7093 H 658.346 -0.442348 1.84779 0
M  V30 7094 H 656.496 -2.75964 2.73452 0
M  V30 7095 H 658.168 -0.866544 4.53088 0
M  V30 7096 H 656.411 -0.746612 4.27327 0
M  V30 7097 H 657.082 -2.16976 5.07568 0
M  V30 7098 H 659.558 -2.64854 3.20923 0
M  V30 7099 H 658.434 -3.82491 3.9369 0
M  V30 7100 H 658.695 -3.83481 2.19987 0
M  V30 7101 N 657.755 -1.42862 -0.66545 0
M  V30 7102 C 658.98 -1.47456 -1.45848 0
M  V30 7103 C 659.405 -0.0900312 -1.87884 0
M  V30 7104 O 658.763 0.913587 -1.56599 0
M  V30 7105 C 658.811 -2.41514 -2.67774 0
M  V30 7106 O 657.915 -1.89296 -3.66389 0
M  V30 7107 H 657.256 -0.499236 -0.437789 0
M  V30 7108 H 659.786 -1.8765 -0.815394 0
M  V30 7109 H 659.796 -2.58409 -3.15735 0
M  V30 7110 H 658.471 -3.42099 -2.36519 0
M  V30 7111 H 657.048 -1.82003 -3.25468 0
M  V30 7112 N 659.233 0.902656 -1.29189 0
M  V30 7113 C 660.181 2.0278 -1.13943 0
M  V30 7114 C 661.175 1.69308 -0.055787 0
M  V30 7115 O 662.381 1.78707 -0.215371 0
M  V30 7116 H 658.756 0.664595 -0.351877 0
M  V30 7117 H 660.727 2.12778 -2.09208 0
M  V30 7118 C 659.476 3.37657 -0.82966 0
M  V30 7119 H 658.799 3.63913 -1.65551 0
M  V30 7120 H 660.239 4.17078 -0.762998 0
M  V30 7121 C 658.698 3.33648 0.466991 0
M  V30 7122 O 659.228 3.72886 1.49395 0
M  V30 7123 N 657.434 2.86745 0.471761 0
M  V30 7124 H 656.981 2.55009 -0.364406 0
M  V30 7125 H 656.939 2.84446 1.33933 0
M  V30 7126 N 660.711 1.11618 1.11262 0
M  V30 7127 C 661.936 0.889013 1.8738 0
M  V30 7128 C 662.361 -0.555884 1.79698 0
M  V30 7129 O 661.719 -1.39272 1.16073 0
M  V30 7130 C 661.767 1.35759 3.34069 0
M  V30 7131 O 660.871 0.530499 4.08974 0
M  V30 7132 H 660.212 0.320082 0.581759 0
M  V30 7133 H 662.742 1.48611 1.40627 0
M  V30 7134 H 662.752 1.35291 3.84916 0
M  V30 7135 H 661.427 2.40973 3.38976 0
M  V30 7136 H 660.004 0.601439 3.68018 0
M  V30 7137 N 662.189 -1.289 0.906776 0
M  V30 7138 C 663.136 -2.2751 0.388313 0
M  V30 7139 C 664.106 -1.57301 -0.533439 0
M  V30 7140 O 665.291 -1.85243 -0.457148 0
M  V30 7141 C 662.431 -3.43091 -0.37181 0
M  V30 7142 C 661.544 -4.28066 0.581647 0
M  V30 7143 C 660.679 -5.30837 -0.19623 0
M  V30 7144 C 659.718 -6.07472 0.751294 0
M  V30 7145 N 658.855 -7.021 0.00737727 0
M  V30 7146 H 663.695 -2.71237 1.23428 0
M  V30 7147 H 661.232 -1.33397 0.619962 0
M  V30 7148 H 663.19 -4.08888 -0.828641 0
M  V30 7149 H 661.82 -3.00374 -1.18218 0
M  V30 7150 H 660.872 -3.62378 1.157 0
M  V30 7151 H 662.184 -4.81382 1.30665 0
M  V30 7152 H 661.338 -6.02485 -0.71394 0
M  V30 7153 H 660.077 -4.78272 -0.954324 0
M  V30 7154 H 659.082 -5.34682 1.28044 0
M  V30 7155 H 660.307 -6.62126 1.50883 0
M  V30 7156 H 658.253 -6.51894 -0.732854 0
M  V30 7157 H 658.17 -7.53004 0.672334 0
M  V30 7158 H 659.438 -7.77956 -0.490365 0
M  V30 7159 N 663.667 -0.670007 -1.42649 0
M  V30 7160 C 664.599 0.0501746 -2.29145 0
M  V30 7161 C 665.612 0.770331 -1.43422 0
M  V30 7162 O 666.801 0.625288 -1.6719 0
M  V30 7163 C 663.901 1.09463 -3.20735 0
M  V30 7164 C 663.074 0.44926 -4.35087 0
M  V30 7165 C 662.133 1.39285 -5.07431 0
M  V30 7166 O 661.159 0.894997 -5.6212 0
M  V30 7167 N 662.361 2.72631 -5.12496 0
M  V30 7168 H 665.126 -0.692312 -2.91594 0
M  V30 7169 H 662.687 -0.514056 -1.53522 0
M  V30 7170 H 664.679 1.72705 -3.65999 0
M  V30 7171 H 663.249 1.73891 -2.59771 0
M  V30 7172 H 662.469 -0.362573 -3.92529 0
M  V30 7173 H 663.757 -0.000544776 -5.088 0
M  V30 7174 H 663.155 3.15623 -4.69467 0
M  V30 7175 H 661.712 3.31132 -5.61422 0
M  V30 7176 N 665.145 1.52092 -0.413018 0
M  V30 7177 C 666.093 2.28681 0.425199 0
M  V30 7178 C 667.087 1.3353 1.04241 0
M  V30 7179 O 668.293 1.50973 0.980166 0
M  V30 7180 H 664.668 0.735661 0.155906 0
M  V30 7181 H 666.639 2.97418 -0.241926 0
M  V30 7182 C 665.388 3.1235 1.5275 0
M  V30 7183 H 664.711 3.85439 1.06191 0
M  V30 7184 H 666.151 3.69038 2.08774 0
M  V30 7185 C 664.61 2.26161 2.49706 0
M  V30 7186 O 665.14 1.90452 3.53682 0
M  V30 7187 N 663.346 1.89854 2.20008 0
M  V30 7188 H 662.893 2.19092 1.35486 0
M  V30 7189 H 662.851 1.3248 2.85125 0
M  V30 7190 N 666.623 0.143563 1.56945 0
M  V30 7191 C 667.553 -0.7936 2.196 0
M  V30 7192 C 668.534 -1.25955 1.14321 0
M  V30 7193 O 669.719 -1.31773 1.42651 0
M  V30 7194 C 666.849 -2.03424 2.81489 0
M  V30 7195 C 665.803 -1.70519 3.92565 0
M  V30 7196 C 665.129 -3.01817 4.41373 0
M  V30 7197 C 666.429 -0.95449 5.13504 0
M  V30 7198 H 668.123 -0.271423 2.98167 0
M  V30 7199 H 665.669 -0.12911 1.4342 0
M  V30 7200 H 667.622 -2.69463 3.23987 0
M  V30 7201 H 666.346 -2.58008 2.00248 0
M  V30 7202 H 665.005 -1.06859 3.5068 0
M  V30 7203 H 664.653 -3.54386 3.56959 0
M  V30 7204 H 664.353 -2.80565 5.16292 0
M  V30 7205 H 665.877 -3.68934 4.86539 0
M  V30 7206 H 667.291 -1.5169 5.52868 0
M  V30 7207 H 665.688 -0.842035 5.94163 0
M  V30 7208 H 666.758 0.0544033 4.84869 0
M  V30 7209 N 668.101 -1.57061 -0.130224 0
M  V30 7210 C 669.326 -1.88802 -0.858409 0
M  V30 7211 C 669.751 -0.734353 -1.73173 0
M  V30 7212 O 669.109 0.315529 -1.78533 0
M  V30 7213 C 669.157 -3.19228 -1.67708 0
M  V30 7214 O 668.261 -3.04343 -2.78297 0
M  V30 7215 H 667.602 -0.619849 -0.238083 0
M  V30 7216 H 670.132 -2.04271 -0.115995 0
M  V30 7217 H 670.142 -3.51669 -2.06864 0
M  V30 7218 H 668.817 -4.02793 -1.0359 0
M  V30 7219 H 667.394 -2.83346 -2.42425 0
M  V30 7220 N 669.579 0.400081 -1.52437 0
M  V30 7221 C 670.99 0.97851 -1.59003 0
M  V30 7222 C 671.341 1.91293 -0.436068 0
M  V30 7223 O 670.466 2.1183 0.442365 0
M  V30 7224 C 671.061 1.78145 -2.88184 0
M  V30 7225 C 669.62 2.30976 -2.97199 0
M  V30 7226 C 668.767 1.11212 -2.54022 0
M  V30 7227 H 671.718 0.180002 -1.57676 0
M  V30 7228 H 671.739 2.63968 -2.74046 0
M  V30 7229 H 671.251 1.1011 -3.72152 0
M  V30 7230 H 669.352 3.02355 -2.17744 0
M  V30 7231 H 669.465 2.61221 -4.01622 0
M  V30 7232 H 667.829 1.46882 -2.08081 0
M  V30 7233 H 668.612 0.447307 -3.40373 0
M  V30 7234 N 671.057 1.43213 0.657864 0
M  V30 7235 C 671.967 1.50448 1.80007 0
M  V30 7236 C 672.983 0.39191 1.69529 0
M  V30 7237 O 674.159 0.645349 1.90781 0
M  V30 7238 C 671.224 1.42062 3.16258 0
M  V30 7239 C 670.285 2.63951 3.38568 0
M  V30 7240 C 669.518 2.55956 4.68318 0
M  V30 7241 O 669.741 1.60473 5.47361 0
M  V30 7242 O 668.675 3.46378 4.92245 0
M  V30 7243 H 672.501 2.4689 1.76858 0
M  V30 7244 H 670.086 1.25163 0.81576 0
M  V30 7245 H 671.968 1.3981 3.97531 0
M  V30 7246 H 670.643 0.487524 3.20008 0
M  V30 7247 H 669.55 2.71776 2.57077 0
M  V30 7248 H 670.883 3.56217 3.39662 0
M  V30 7249 N 672.536 -0.895792 1.29666 0
M  V30 7250 C 673.446 -2.03329 1.17024 0
M  V30 7251 C 674.462 -1.73753 0.0925962 0
M  V30 7252 O 675.638 -1.99071 0.305431 0
M  V30 7253 C 672.703 -3.36072 0.851841 0
M  V30 7254 C 671.764 -3.7914 2.01373 0
M  V30 7255 C 670.997 -5.05549 1.71043 0
M  V30 7256 O 671.22 -5.66874 0.633213 0
M  V30 7257 O 670.154 -5.44764 2.5596 0
M  V30 7258 H 673.98 -2.16918 2.12556 0
M  V30 7259 H 671.565 -1.02007 1.09156 0
M  V30 7260 H 673.447 -4.15729 0.689006 0
M  V30 7261 H 672.122 -3.23616 -0.0736634 0
M  V30 7262 H 671.029 -3.00233 2.23183 0
M  V30 7263 H 672.362 -3.96186 2.92058 0
M  V30 7264 N 674.014 -1.12206 -1.10668 0
M  V30 7265 C 674.961 -0.787716 -2.16942 0
M  V30 7266 C 675.931 0.244442 -1.64291 0
M  V30 7267 O 677.116 0.119558 -1.90425 0
M  V30 7268 C 674.256 -0.24584 -3.44223 0
M  V30 7269 C 673.369 -1.33552 -4.10838 0
M  V30 7270 C 672.504 -0.753337 -5.25831 0
M  V30 7271 C 671.543 -1.82231 -5.84344 0
M  V30 7272 N 670.68 -1.25902 -6.90719 0
M  V30 7273 H 675.52 -1.69809 -2.44885 0
M  V30 7274 H 673.057 -0.847862 -1.20207 0
M  V30 7275 H 675.015 0.0863639 -4.17111 0
M  V30 7276 H 673.645 0.627702 -3.16638 0
M  V30 7277 H 672.697 -1.78454 -3.35944 0
M  V30 7278 H 674.009 -2.14396 -4.50373 0
M  V30 7279 H 673.163 -0.37166 -6.05561 0
M  V30 7280 H 671.902 0.0863297 -4.87624 0
M  V30 7281 H 670.907 -2.2132 -5.03287 0
M  V30 7282 H 672.132 -2.66515 -6.24617 0
M  V30 7283 H 670.078 -0.44114 -6.54515 0
M  V30 7284 H 669.995 -2.00408 -7.28953 0
M  V30 7285 H 671.263 -0.904498 -7.74235 0
M  V30 7286 N 675.492 1.28418 -0.913599 0
M  V30 7287 C 676.402 2.31043 -0.406965 0
M  V30 7288 C 677.418 1.66501 0.505298 0
M  V30 7289 O 678.594 1.97558 0.391522 0
M  V30 7290 C 675.659 3.4498 0.344901 0
M  V30 7291 C 674.72 4.25078 -0.600563 0
M  V30 7292 C 673.953 5.33575 0.115516 0
M  V30 7293 O 674.176 5.54503 1.33727 0
M  V30 7294 O 673.11 5.9939 -0.549095 0
M  V30 7295 H 676.936 2.76387 -1.25873 0
M  V30 7296 H 674.521 1.33109 -0.678415 0
M  V30 7297 H 676.403 4.14314 0.769542 0
M  V30 7298 H 675.078 3.01719 1.1725 0
M  V30 7299 H 673.985 3.58334 -1.0746 0
M  V30 7300 H 675.318 4.72018 -1.39497 0
M  V30 7301 N 676.97 0.677563 1.42291 0
M  V30 7302 C 678.2 0.209155 2.05539 0
M  V30 7303 C 678.608 -1.13987 1.51009 0
M  V30 7304 O 677.951 -1.71976 0.645764 0
M  V30 7305 C 678.013 0.0697758 3.59432 0
M  V30 7306 C 677.677 1.34795 4.36668 0
M  V30 7307 C 678.674 2.28201 4.67141 0
M  V30 7308 C 676.359 1.59632 4.76259 0
M  V30 7309 C 678.353 3.44718 5.36142 0
M  V30 7310 C 676.04 2.76437 5.45 0
M  V30 7311 C 677.038 3.68805 5.74867 0
M  V30 7312 O 676.726 4.83567 6.42198 0
M  V30 7313 H 676.458 0.0986202 0.668768 0
M  V30 7314 H 679.012 0.925483 1.83368 0
M  V30 7315 H 677.242 -0.702157 3.80272 0
M  V30 7316 H 678.931 -0.359115 4.04308 0
M  V30 7317 H 679.697 2.10264 4.37052 0
M  V30 7318 H 675.576 0.886073 4.52404 0
M  V30 7319 H 679.12 4.16833 5.59371 0
M  V30 7320 H 675.017 2.94299 5.74507 0
M  V30 7321 H 675.785 4.83147 6.6069 0
M  V30 7322 N 678.448 -1.51871 0.421078 0
M  V30 7323 C 679.411 -2.25914 -0.386712 0
M  V30 7324 C 680.411 -1.28733 -0.963555 0
M  V30 7325 O 681.601 -1.52579 -0.840556 0
M  V30 7326 C 678.733 -3.03853 -1.54551 0
M  V30 7327 H 679.926 -2.98754 0.261978 0
M  V30 7328 H 677.479 -1.5533 0.173862 0
M  V30 7329 H 678.214 -2.35392 -2.23072 0
M  V30 7330 H 677.999 -3.75215 -1.13824 0
M  V30 7331 H 679.489 -3.59984 -2.11663 0
M  V30 7332 N 679.926 -0.151884 -1.56866 0
M  V30 7333 C 681.154 0.504813 -2.00647 0
M  V30 7334 C 681.569 1.58098 -1.03201 0
M  V30 7335 O 680.926 1.82476 -0.0297814 0
M  V30 7336 C 680.977 1.10099 -3.44326 0
M  V30 7337 O 680.698 0.0678021 -4.38048 0
M  V30 7338 C 682.199 1.83782 -4.03409 0
M  V30 7339 H 679.419 0.130989 -0.65809 0
M  V30 7340 H 681.963 -0.247903 -2.02992 0
M  V30 7341 H 680.118 1.8043 -3.42817 0
M  V30 7342 H 680.532 0.505237 -5.22061 0
M  V30 7343 H 682.006 2.2078 -5.05925 0
M  V30 7344 H 682.483 2.72557 -3.44397 0
M  V30 7345 H 683.089 1.18138 -4.08563 0
M  V30 7346 N 681.404 1.57128 0.121893 0
M  V30 7347 C 682.629 1.89254 0.848385 0
M  V30 7348 C 683.054 0.743527 1.72781 0
M  V30 7349 O 682.412 -0.306056 1.78698 0
M  V30 7350 C 682.46 3.20113 1.66012 0
M  V30 7351 O 681.564 3.05815 2.76679 0
M  V30 7352 H 680.905 0.621103 0.234793 0
M  V30 7353 H 683.435 2.0433 0.10516 0
M  V30 7354 H 683.445 3.52761 2.04996 0
M  V30 7355 H 682.12 4.03336 1.01452 0
M  V30 7356 H 680.697 2.84627 2.40918 0
M  V30 7357 N 682.882 -0.391992 1.52647 0
M  V30 7358 C 684.13 -1.13507 1.67214 0
M  V30 7359 C 684.451 -1.90575 0.41304 0
M  V30 7360 O 683.721 -1.87348 -0.572498 0
M  V30 7361 H 682.301 -0.422013 0.616372 0
M  V30 7362 H 684.963 -0.44502 1.89751 0
M  V30 7363 H 684.059 -1.83964 2.52118 0
M  V30 7364 N 684.36 -1.4356 -0.65026 0
M  V30 7365 C 685.606 -1.46545 -1.41054 0
M  V30 7366 C 685.961 -0.0894113 -1.92192 0
M  V30 7367 O 685.254 0.892427 -1.69547 0
M  V30 7368 C 685.448 -2.44528 -2.60654 0
M  V30 7369 C 685.277 -3.91524 -2.21222 0
M  V30 7370 C 684.047 -4.59866 -2.09408 0
M  V30 7371 C 686.245 -4.81276 -1.81323 0
M  V30 7372 N 684.227 -5.91772 -1.63337 0
M  V30 7373 C 685.598 -6.02478 -1.46356 0
M  V30 7374 C 687.653 -4.6851 -1.68532 0
M  V30 7375 C 686.356 -7.12332 -0.998805 0
M  V30 7376 C 688.382 -5.78369 -1.23461 0
M  V30 7377 C 687.744 -6.98699 -0.894337 0
M  V30 7378 H 683.843 -0.59135 -0.511693 0
M  V30 7379 H 686.427 -1.79759 -0.747978 0
M  V30 7380 H 684.598 -2.13336 -3.24565 0
M  V30 7381 H 686.33 -2.37932 -3.27369 0
M  V30 7382 H 683.085 -4.14412 -2.29259 0
M  V30 7383 H 683.509 -6.61799 -1.42655 0
M  V30 7384 H 688.151 -3.75933 -1.93479 0
M  V30 7385 H 685.869 -8.04734 -0.736835 0
M  V30 7386 H 689.455 -5.70512 -1.1405 0
M  V30 7387 H 688.335 -7.82263 -0.550901 0
M  V30 7388 N 685.838 0.888903 -1.30139 0
M  V30 7389 C 686.786 2.0156 -1.16088 0
M  V30 7390 C 687.78 1.69239 -0.0737413 0
M  V30 7391 O 688.986 1.78468 -0.234313 0
M  V30 7392 H 685.361 0.660825 -0.358907 0
M  V30 7393 H 687.332 2.10547 -2.11453 0
M  V30 7394 C 686.081 3.36758 -0.865426 0
M  V30 7395 H 685.404 3.62137 -1.69402 0
M  V30 7396 H 686.844 4.16246 -0.807192 0
M  V30 7397 C 685.303 3.34124 0.431577 0
M  V30 7398 O 685.833 3.7445 1.45431 0
M  V30 7399 N 684.039 2.87229 0.441321 0
M  V30 7400 H 683.586 2.54609 -0.391433 0
M  V30 7401 H 683.544 2.8585 1.30909 0
M  V30 7402 N 687.317 1.12792 1.10072 0
M  V30 7403 C 688.247 0.821688 2.18565 0
M  V30 7404 C 689.228 -0.21612 1.68721 0
M  V30 7405 O 690.413 -0.0764932 1.94049 0
M  V30 7406 C 687.543 0.279624 3.46172 0
M  V30 7407 C 686.497 1.25092 4.09312 0
M  V30 7408 C 685.823 0.568916 5.31665 0
M  V30 7409 C 687.123 2.60699 4.52585 0
M  V30 7410 H 688.817 1.72888 2.44438 0
M  V30 7411 H 686.363 0.832702 1.17482 0
M  V30 7412 H 688.316 0.053099 4.21367 0
M  V30 7413 H 687.04 -0.662929 3.19801 0
M  V30 7414 H 685.699 1.46332 3.36129 0
M  V30 7415 H 685.347 -0.378898 5.01571 0
M  V30 7416 H 685.047 1.21687 5.74862 0
M  V30 7417 H 686.571 0.351517 6.09587 0
M  V30 7418 H 687.985 2.43465 5.19035 0
M  V30 7419 H 686.382 3.21608 5.06644 0
M  V30 7420 H 687.452 3.1886 3.65317 0
M  V30 7421 N 688.795 -1.27931 0.920396 0
M  V30 7422 C 689.743 -2.29061 0.404191 0
M  V30 7423 C 690.737 -1.61615 -0.507634 0
M  V30 7424 O 691.943 -1.75765 -0.388144 0
M  V30 7425 H 688.318 -0.743594 0.112123 0
M  V30 7426 H 690.289 -2.70021 1.27008 0
M  V30 7427 C 689.038 -3.46088 -0.334466 0
M  V30 7428 H 688.361 -3.98194 0.35797 0
M  V30 7429 H 689.801 -4.18829 -0.660196 0
M  V30 7430 C 688.26 -2.99396 -1.54479 0
M  V30 7431 O 688.79 -3.02439 -2.64374 0
M  V30 7432 N 686.996 -2.54978 -1.39408 0
M  V30 7433 H 686.543 -2.52701 -0.500009 0
M  V30 7434 H 686.501 -2.24098 -2.20516 0
M  V30 7435 N 690.273 -0.685099 -1.4193 0
M  V30 7436 C 691.519 -0.211971 -2.01689 0
M  V30 7437 C 691.852 1.18189 -1.54094 0
M  V30 7438 O 691.127 1.79559 -0.747572 0
M  V30 7439 C 691.41 -0.258019 -3.59174 0
M  V30 7440 C 691.263 -1.68807 -4.16922 0
M  V30 7441 C 692.582 0.388044 -4.38386 0
M  V30 7442 H 689.701 -0.0784987 -0.732808 0
M  V30 7443 H 692.343 -0.871837 -1.68816 0
M  V30 7444 H 690.493 0.303832 -3.8731 0
M  V30 7445 H 692.165 -2.30296 -3.99702 0
M  V30 7446 H 690.408 -2.22553 -3.72361 0
M  V30 7447 H 691.079 -1.6719 -5.26072 0
M  V30 7448 H 693.555 -0.0903432 -4.16002 0
M  V30 7449 H 692.431 0.325232 -5.47936 0
M  V30 7450 H 692.692 1.4672 -4.17044 0
M  V30 7451 N 691.751 1.51645 -0.429126 0
M  V30 7452 C 692.684 2.24083 0.431492 0
M  V30 7453 C 693.662 1.25691 1.03153 0
M  V30 7454 O 694.846 1.54802 1.07557 0
M  V30 7455 C 691.973 2.9849 1.60067 0
M  V30 7456 C 691.019 4.11474 1.12211 0
M  V30 7457 S 691.852 5.35453 0.0708449 0
M  V30 7458 C 693.008 6.13395 1.24488 0
M  V30 7459 H 693.241 2.96733 -0.183525 0
M  V30 7460 H 690.774 1.52916 -0.213574 0
M  V30 7461 H 692.732 3.4196 2.27099 0
M  V30 7462 H 691.393 2.25445 2.18708 0
M  V30 7463 H 690.586 4.62784 1.99618 0
M  V30 7464 H 690.188 3.70223 0.530149 0
M  V30 7465 H 692.48 6.41984 2.16479 0
M  V30 7466 H 693.423 7.0388 0.771921 0
M  V30 7467 H 693.831 5.44761 1.47973 0
M  V30 7468 N 693.229 0.160201 1.56784 0
M  V30 7469 C 694.64 -0.358417 1.83227 0
M  V30 7470 C 694.991 -1.63831 1.07952 0
M  V30 7471 O 694.116 -2.13885 0.328995 0
M  V30 7472 C 694.711 -0.657058 3.32368 0
M  V30 7473 C 693.27 -1.12015 3.59346 0
M  V30 7474 C 692.417 -0.15015 2.76893 0
M  V30 7475 H 695.368 0.384669 1.53967 0
M  V30 7476 H 695.389 -1.51033 3.49241 0
M  V30 7477 H 694.901 0.274647 3.87127 0
M  V30 7478 H 693.002 -2.06734 3.09987 0
M  V30 7479 H 693.115 -1.037 4.67743 0
M  V30 7480 H 691.479 -0.645361 2.46388 0
M  V30 7481 H 692.262 0.775379 3.34429 0
M  V30 7482 N 694.707 -1.5719 -0.113559 0
M  V30 7483 C 695.953 -1.85412 -0.821597 0
M  V30 7484 C 696.286 -0.746722 -1.7927 0
M  V30 7485 O 695.561 0.246971 -1.92926 0
M  V30 7486 C 695.844 -3.24233 -1.56669 0
M  V30 7487 C 695.697 -4.45578 -0.614823 0
M  V30 7488 C 697.016 -3.60697 -2.52161 0
M  V30 7489 H 694.135 -0.674406 -0.29723 0
M  V30 7490 H 696.777 -1.89807 -0.085694 0
M  V30 7491 H 694.927 -3.20617 -2.19401 0
M  V30 7492 H 696.599 -4.613 0.00407137 0
M  V30 7493 H 694.842 -4.33738 0.0732332 0
M  V30 7494 H 695.513 -5.39395 -1.17292 0
M  V30 7495 H 697.989 -3.65139 -1.99532 0
M  V30 7496 H 696.865 -4.58798 -3.01323 0
M  V30 7497 H 697.126 -2.88403 -3.35076 0
M  V30 7498 N 696.185 0.383891 -1.52853 0
M  V30 7499 C 697.115 1.47559 -1.80965 0
M  V30 7500 C 698.096 1.5669 -0.661986 0
M  V30 7501 O 699.281 1.71556 -0.910072 0
M  V30 7502 C 696.411 2.85114 -1.98312 0
M  V30 7503 C 695.365 2.9082 -3.14019 0
M  V30 7504 C 694.691 4.30873 -3.16627 0
M  V30 7505 C 695.991 2.60001 -4.52986 0
M  V30 7506 H 697.685 1.24283 -2.72386 0
M  V30 7507 H 695.231 0.596445 -1.31067 0
M  V30 7508 H 697.184 3.61496 -2.16561 0
M  V30 7509 H 695.908 3.09738 -1.03585 0
M  V30 7510 H 694.567 2.16886 -2.9556 0
M  V30 7511 H 694.215 4.52545 -2.19573 0
M  V30 7512 H 693.915 4.3561 -3.94357 0
M  V30 7513 H 695.439 5.09154 -3.37038 0
M  V30 7514 H 696.853 3.261 -4.71521 0
M  V30 7515 H 695.25 2.76081 -5.32822 0
M  V30 7516 H 696.32 1.5532 -4.59351 0
M  V30 7517 N 697.663 1.43903 0.642637 0
M  V30 7518 C 698.94 1.36556 1.40043 0
M  V30 7519 C 699.32 0.0185588 2.11092 0
M  V30 7520 O 698.668 -0.998438 2.05532 0
M  V30 7521 C 698.878 2.55596 2.37638 0
M  V30 7522 C 700.226 2.99153 3.01318 0
M  V30 7523 O 701.25 2.55719 2.47965 0
M  V30 7524 O 700.109 3.74427 3.98078 0
M  V30 7525 H 697.203 0.540189 0.626198 0
M  V30 7526 H 699.749 1.55971 0.668657 0
M  V30 7527 H 698.521 3.45256 1.84158 0
M  V30 7528 H 698.144 2.38334 3.18249 0
M  V30 7529 N 699.141 -0.881989 1.30609 0
M  V30 7530 C 700.073 -1.99375 1.13058 0
M  V30 7531 C 701.086 -1.62636 0.0729879 0
M  V30 7532 O 702.275 -1.75621 0.319301 0
M  V30 7533 C 699.375 -3.31536 0.702651 0
M  V30 7534 C 698.548 -3.96693 1.84265 0
M  V30 7535 C 697.607 -5.07158 1.40277 0
M  V30 7536 O 696.633 -5.28628 2.11048 0
M  V30 7537 N 697.835 -5.79808 0.283449 0
M  V30 7538 H 700.6 -2.14981 2.08814 0
M  V30 7539 H 698.161 -1.05526 1.22784 0
M  V30 7540 H 700.153 -4.02804 0.391331 0
M  V30 7541 H 698.723 -3.12175 -0.162954 0
M  V30 7542 H 697.943 -3.1856 2.32192 0
M  V30 7543 H 699.231 -4.36964 2.60653 0
M  V30 7544 H 698.629 -5.64871 -0.306189 0
M  V30 7545 H 697.186 -6.51792 0.0315985 0
M  V30 7546 N 700.619 -1.13374 -1.09472 0
M  V30 7547 C 701.844 -0.918711 -1.85942 0
M  V30 7548 C 702.269 0.527225 -1.8056 0
M  V30 7549 O 701.627 1.37408 -1.18274 0
M  V30 7550 C 701.675 -1.41056 -3.31867 0
M  V30 7551 O 700.779 -0.595496 -4.08078 0
M  V30 7552 H 700.12 -0.329297 -0.576593 0
M  V30 7553 H 702.65 -1.50829 -1.38245 0
M  V30 7554 H 702.66 -1.41398 -3.82715 0
M  V30 7555 H 701.335 -2.46335 -3.35099 0
M  V30 7556 H 699.912 -0.659911 -3.67014 0
M  V30 7557 N 702.098 1.27442 -0.927168 0
M  V30 7558 C 703.344 1.94679 -0.568164 0
M  V30 7559 C 703.677 1.72697 0.888219 0
M  V30 7560 O 702.952 1.05573 1.63354 0
M  V30 7561 C 703.235 3.4882 -0.894253 0
M  V30 7562 C 703.088 3.80146 -2.40435 0
M  V30 7563 C 704.407 4.38281 -0.399766 0
M  V30 7564 H 701.526 0.707071 -0.207892 0
M  V30 7565 H 704.168 1.50568 -1.15885 0
M  V30 7566 H 702.318 3.86522 -0.391566 0
M  V30 7567 H 703.99 3.52238 -2.97869 0
M  V30 7568 H 702.233 3.26716 -2.85375 0
M  V30 7569 H 702.904 4.87835 -2.58304 0
M  V30 7570 H 705.38 4.07726 -0.83058 0
M  V30 7571 H 704.256 5.44955 -0.656885 0
M  V30 7572 H 704.517 4.36521 0.700153 0
M  V30 7573 N 703.576 0.692616 1.41565 0
M  V30 7574 C 704.506 0.0397325 2.33466 0
M  V30 7575 C 705.487 -0.770334 1.51657 0
M  V30 7576 O 706.672 -0.723903 1.80203 0
M  V30 7577 C 703.802 -0.899495 3.3545 0
M  V30 7578 C 702.756 -0.196738 4.27548 0
M  V30 7579 C 702.082 -1.25012 5.19881 0
M  V30 7580 C 703.382 0.935158 5.1386 0
M  V30 7581 H 705.076 0.807296 2.88311 0
M  V30 7582 H 702.622 0.389665 1.38628 0
M  V30 7583 H 704.575 -1.36545 3.98665 0
M  V30 7584 H 703.299 -1.69869 2.78948 0
M  V30 7585 H 701.958 0.249158 3.65752 0
M  V30 7586 H 701.606 -2.04177 4.59696 0
M  V30 7587 H 701.306 -0.784931 5.82334 0
M  V30 7588 H 702.83 -1.71665 5.85972 0
M  V30 7589 H 704.244 0.549619 5.70659 0
M  V30 7590 H 702.641 1.32726 5.85238 0
M  V30 7591 H 703.711 1.77613 4.512 0
M  V30 7592 N 705.054 -1.51416 0.437162 0
M  V30 7593 C 706.294 -2.03995 -0.128538 0
M  V30 7594 C 706.658 -1.31417 -1.39977 0
M  V30 7595 O 707.859 -1.74369 -2.0457 0
M  V30 7596 C 706.13 -3.55757 -0.342317 0
M  V30 7597 S 707.689 -4.3006 -0.871446 0
M  V30 7598 H 704.507 -0.710283 -0.0319322 0
M  V30 7599 H 707.109 -1.86177 0.596526 0
M  V30 7600 H 705.813 -4.06148 0.589233 0
M  V30 7601 H 705.344 -3.77869 -1.09447 0
M  V30 7602 H 707.359 -4.47248 -2.14903 0
M  V30 7603 N 706.532 -0.168513 -1.56696 0
M  V30 7604 C 707.482 0.7751 -2.14421 0
M  V30 7605 C 708.466 1.19476 -1.07769 0
M  V30 7606 O 709.658 1.15759 -1.33898 0
M  V30 7607 C 706.787 2.00549 -2.7863 0
M  V30 7608 C 705.873 1.60795 -3.92436 0
M  V30 7609 N 706.264 0.919812 -4.97366 0
M  V30 7610 C 704.562 1.89917 -4.03544 0
M  V30 7611 C 705.263 0.724485 -5.77171 0
M  V30 7612 N 704.239 1.26505 -5.28675 0
M  V30 7613 H 708.041 0.240349 -2.92916 0
M  V30 7614 H 705.555 0.0322675 -1.62368 0
M  V30 7615 H 707.552 2.6917 -3.1836 0
M  V30 7616 H 706.212 2.54522 -2.01615 0
M  V30 7617 H 707.223 0.578169 -5.14663 0
M  V30 7618 H 703.9 2.45587 -3.37629 0
M  V30 7619 H 705.29 0.180521 -6.71657 0
M  V30 7620 N 708.01 1.57248 0.105221 0
M  V30 7621 C 709.259 1.84756 0.809198 0
M  V30 7622 C 709.572 0.756262 1.80389 0
M  V30 7623 O 710.778 0.918158 2.55504 0
M  V30 7624 C 709.234 3.27613 1.48989 0
M  V30 7625 C 708.842 4.44788 0.535484 0
M  V30 7626 C 710.586 3.64356 2.17819 0
M  V30 7627 C 708.493 5.78676 1.22019 0
M  V30 7628 H 707.423 0.689139 0.305946 0
M  V30 7629 H 710.074 1.83395 0.0620371 0
M  V30 7630 H 708.456 3.23485 2.28415 0
M  V30 7631 H 709.63 4.60243 -0.226557 0
M  V30 7632 H 707.945 4.16374 -0.0465769 0
M  V30 7633 H 710.542 4.61663 2.69761 0
M  V30 7634 H 710.885 2.92474 2.96251 0
M  V30 7635 H 711.418 3.70328 1.45264 0
M  V30 7636 H 708.157 6.53763 0.476875 0
M  V30 7637 H 707.677 5.67083 1.9539 0
M  V30 7638 H 709.356 6.22897 1.74952 0
M  V30 7639 N 709.488 -0.375779 1.53054 0
M  V30 7640 C 710.436 -1.48015 1.79428 0
M  V30 7641 C 711.43 -1.55893 0.662854 0
M  V30 7642 O 712.636 -1.58901 0.845599 0
M  V30 7643 H 709.011 -0.492887 0.56795 0
M  V30 7644 H 710.982 -1.22971 2.71884 0
M  V30 7645 C 709.731 -2.84984 1.99197 0
M  V30 7646 H 709.054 -2.79677 2.85693 0
M  V30 7647 H 710.494 -3.61462 2.21633 0
M  V30 7648 C 708.953 -3.28025 0.768183 0
M  V30 7649 O 709.483 -4.01671 -0.0480482 0
M  V30 7650 N 707.689 -2.84454 0.594521 0
M  V30 7651 H 707.236 -2.24688 1.25988 0
M  V30 7652 H 707.194 -3.13609 -0.222916 0
M  V30 7653 N 710.966 -1.44241 -0.634997 0
M  V30 7654 C 711.929 -1.50457 -1.72903 0
M  V30 7655 C 712.929 -0.387058 -1.56072 0
M  V30 7656 O 714.119 -0.649531 -1.61638 0
M  V30 7657 C 711.251 -1.37477 -3.1195 0
M  V30 7658 H 712.444 -2.47907 -1.68767 0
M  V30 7659 H 709.997 -1.31276 -0.84831 0
M  V30 7660 H 710.732 -0.41106 -3.21684 0
M  V30 7661 H 710.517 -2.18506 -3.25573 0
M  V30 7662 H 712.007 -1.44799 -3.91692 0
M  V30 7663 N 712.444 0.87505 -1.31075 0
M  V30 7664 C 713.721 1.60976 -1.11113 0
M  V30 7665 C 714.101 2.08409 0.336006 0
M  V30 7666 O 713.449 1.85858 1.32924 0
M  V30 7667 C 713.659 2.77166 -2.12085 0
M  V30 7668 C 715.007 3.47254 -2.44335 0
M  V30 7669 O 716.031 2.87367 -2.10472 0
M  V30 7670 O 714.89 4.55276 -3.02301 0
M  V30 7671 H 711.984 0.707982 -0.427424 0
M  V30 7672 H 714.53 0.920957 -1.42536 0
M  V30 7673 H 713.302 2.39494 -3.09449 0
M  V30 7674 H 712.925 3.53737 -1.81538 0
M  V30 7675 N 713.922 1.13953 1.08869 0
M  V30 7676 C 715.171 0.899431 1.80536 0
M  V30 7677 C 715.484 -0.575781 1.86933 0
M  V30 7678 O 716.69 -0.932988 2.54966 0
M  V30 7679 C 715.146 1.55963 3.24351 0
M  V30 7680 C 714.754 3.07077 3.26202 0
M  V30 7681 C 716.498 1.40046 4.00733 0
M  V30 7682 C 714.405 3.65955 4.64576 0
M  V30 7683 H 713.335 0.332849 0.676556 0
M  V30 7684 H 715.986 1.3679 1.22314 0
M  V30 7685 H 714.368 1.01883 3.82669 0
M  V30 7686 H 715.542 3.67785 2.77617 0
M  V30 7687 H 713.857 3.22576 2.63312 0
M  V30 7688 H 716.454 1.81441 5.02974 0
M  V30 7689 H 716.797 0.345993 4.1486 0
M  V30 7690 H 717.33 1.91137 3.48872 0
M  V30 7691 H 714.069 4.71234 4.55652 0
M  V30 7692 H 713.589 3.10027 5.13462 0
M  V30 7693 H 715.268 3.65968 5.33551 0
M  V30 7694 N 715.4 -1.26948 0.933913 0
M  V30 7695 C 716.625 -1.98724 0.593589 0
M  V30 7696 C 717.05 -1.6915 -0.822801 0
M  V30 7697 O 716.408 -0.93533 -1.5531 0
M  V30 7698 C 716.456 -3.50834 0.833542 0
M  V30 7699 O 715.56 -4.12284 -0.0978788 0
M  V30 7700 H 714.901 -0.623683 0.227849 0
M  V30 7701 H 717.431 -1.61599 1.25486 0
M  V30 7702 H 717.441 -4.01018 0.75156 0
M  V30 7703 H 716.116 -3.71691 1.86597 0
M  V30 7704 H 714.693 -3.72884 0.0345443 0
M  V30 7705 N 716.879 -0.700114 -1.41195 0
M  V30 7706 C 718.127 -0.232546 -2.00758 0
M  V30 7707 C 718.448 1.1734 -1.55745 0
M  V30 7708 O 717.718 1.79262 -0.790058 0
M  V30 7709 H 716.298 -0.0829845 -0.742376 0
M  V30 7710 H 718.96 -0.902289 -1.72756 0
M  V30 7711 H 718.056 -0.253521 -3.11069 0
M  V30 7712 N 718.357 1.51182 -0.445186 0
M  V30 7713 C 719.29 2.24528 0.4077 0
M  V30 7714 C 720.268 1.26778 1.01814 0
M  V30 7715 O 721.452 1.55934 1.05909 0
M  V30 7716 C 718.579 3.00171 1.56892 0
M  V30 7717 C 717.625 4.12641 1.0784 0
M  V30 7718 S 718.458 5.35498 0.014049 0
M  V30 7719 C 719.614 6.14681 1.17975 0
M  V30 7720 H 719.847 2.96522 -0.214987 0
M  V30 7721 H 717.38 1.52681 -0.229781 0
M  V30 7722 H 719.338 3.44349 2.23459 0
M  V30 7723 H 717.999 2.27752 2.16304 0
M  V30 7724 H 717.192 4.64875 1.94698 0
M  V30 7725 H 716.794 3.70765 0.490852 0
M  V30 7726 H 719.086 6.44244 2.09658 0
M  V30 7727 H 720.029 7.04659 0.697222 0
M  V30 7728 H 720.437 5.46299 1.42187 0
M  V30 7729 N 719.835 0.176821 1.56605 0
M  V30 7730 C 720.782 -0.751312 2.18229 0
M  V30 7731 C 721.752 -1.22297 1.12395 0
M  V30 7732 O 722.937 -1.29015 1.40569 0
M  V30 7733 C 720.077 -1.97291 2.83143 0
M  V30 7734 C 719.19 -1.54431 4.03454 0
M  V30 7735 C 718.325 -2.72 4.56278 0
M  V30 7736 C 717.364 -2.25657 5.68986 0
M  V30 7737 N 716.501 -3.36338 6.16296 0
M  V30 7738 H 721.341 -0.219033 2.97194 0
M  V30 7739 H 718.878 -0.0963803 1.46784 0
M  V30 7740 H 720.836 -2.68949 3.1894 0
M  V30 7741 H 719.466 -2.4788 2.06773 0
M  V30 7742 H 718.518 -0.724273 3.73441 0
M  V30 7743 H 719.83 -1.16417 4.85024 0
M  V30 7744 H 718.984 -3.51806 4.94285 0
M  V30 7745 H 717.723 -3.13277 3.73777 0
M  V30 7746 H 716.728 -1.44299 5.30526 0
M  V30 7747 H 717.953 -1.85432 6.53293 0
M  V30 7748 H 715.899 -3.7718 5.36723 0
M  V30 7749 H 715.816 -3.02435 6.9287 0
M  V30 7750 H 717.084 -4.16413 6.58954 0
M  V30 7751 N 721.313 -1.57302 -0.09688 0
M  V30 7752 C 722.559 -1.86273 -0.801885 0
M  V30 7753 C 722.892 -0.765694 -1.78468 0
M  V30 7754 O 722.167 0.226495 -1.93177 0
M  V30 7755 C 722.45 -3.25876 -1.53221 0
M  V30 7756 C 722.303 -4.46205 -0.567529 0
M  V30 7757 C 723.622 -3.63352 -2.48321 0
M  V30 7758 H 720.741 -0.67752 -0.29006 0
M  V30 7759 H 723.383 -1.89887 -0.0655577 0
M  V30 7760 H 721.533 -3.22926 -2.15988 0
M  V30 7761 H 723.205 -4.6127 0.0529982 0
M  V30 7762 H 721.448 -4.33636 0.119233 0
M  V30 7763 H 722.119 -5.40608 -1.11564 0
M  V30 7764 H 724.595 -3.67234 -1.95648 0
M  V30 7765 H 723.471 -4.61968 -2.9644 0
M  V30 7766 H 723.732 -2.91941 -3.31998 0
M  V30 7767 N 722.791 0.367657 -1.53252 0
M  V30 7768 C 724.202 0.944563 -1.61043 0
M  V30 7769 C 724.553 1.90325 -0.476546 0
M  V30 7770 O 723.678 2.12721 0.397333 0
M  V30 7771 C 724.273 1.71992 -2.91898 0
M  V30 7772 C 722.832 2.2462 -3.02031 0
M  V30 7773 C 721.979 1.05799 -2.56324 0
M  V30 7774 H 724.93 0.146516 -1.58022 0
M  V30 7775 H 724.951 2.58095 -2.79584 0
M  V30 7776 H 724.463 1.02192 -3.74404 0
M  V30 7777 H 722.564 2.97668 -2.24108 0
M  V30 7778 H 722.677 2.52644 -4.07073 0
M  V30 7779 H 721.041 1.42435 -2.1115 0
M  V30 7780 H 721.824 0.375008 -3.41246 0
M  V30 7781 N 724.269 1.44576 0.627338 0
M  V30 7782 C 725.515 1.4877 1.38705 0
M  V30 7783 C 725.87 0.119976 1.92026 0
M  V30 7784 O 725.163 -0.865341 1.70946 0
M  V30 7785 C 725.357 2.48644 2.56731 0
M  V30 7786 C 725.186 3.94994 2.14965 0
M  V30 7787 C 723.956 4.63139 2.02065 0
M  V30 7788 C 726.154 4.841 1.73643 0
M  V30 7789 N 724.136 5.94296 1.53902 0
M  V30 7790 C 725.507 6.0473 1.36753 0
M  V30 7791 C 727.562 4.71131 1.61058 0
M  V30 7792 C 726.265 7.13831 0.885353 0
M  V30 7793 C 728.291 5.8026 1.14244 0
M  V30 7794 C 727.653 7.00034 0.783067 0
M  V30 7795 H 723.752 0.599415 0.50222 0
M  V30 7796 H 726.336 1.80926 0.719285 0
M  V30 7797 H 724.507 2.18472 3.2113 0
M  V30 7798 H 726.239 2.4311 3.23542 0
M  V30 7799 H 722.994 4.18007 2.22637 0
M  V30 7800 H 723.418 6.63985 1.32108 0
M  V30 7801 H 728.06 3.78964 1.87473 0
M  V30 7802 H 725.778 8.05804 0.608716 0
M  V30 7803 H 729.364 5.72254 1.0496 0
M  V30 7804 H 728.244 7.8304 0.426381 0
M  V30 7805 N 725.747 -0.868086 1.31537 0
M  V30 7806 C 726.677 -1.99131 1.21939 0
M  V30 7807 C 727.658 -1.69768 0.106166 0
M  V30 7808 O 728.843 -1.92006 0.291081 0
M  V30 7809 C 725.973 -3.34676 0.927879 0
M  V30 7810 C 724.927 -3.7835 2.00088 0
M  V30 7811 C 724.253 -5.11375 1.56203 0
M  V30 7812 C 725.553 -3.95256 3.41424 0
M  V30 7813 H 727.247 -2.07419 2.15911 0
M  V30 7814 H 724.793 -0.996569 1.03945 0
M  V30 7815 H 726.746 -4.12793 0.847327 0
M  V30 7816 H 725.47 -3.26565 -0.0475042 0
M  V30 7817 H 724.129 -3.02474 2.07135 0
M  V30 7818 H 723.777 -4.99709 0.57445 0
M  V30 7819 H 723.477 -5.41568 2.27985 0
M  V30 7820 H 725.001 -5.92001 1.49558 0
M  V30 7821 H 726.415 -4.63764 3.3704 0
M  V30 7822 H 724.812 -4.36849 4.1144 0
M  V30 7823 H 725.882 -2.98579 3.82072 0
M  V30 7824 N 727.225 -1.14528 -1.08264 0
M  V30 7825 C 728.455 -0.936604 -1.8415 0
M  V30 7826 C 728.863 0.518298 -1.81962 0
M  V30 7827 O 728.206 1.37096 -1.22272 0
M  V30 7828 C 728.268 -1.36182 -3.32708 0
M  V30 7829 C 727.932 -2.83257 -3.58629 0
M  V30 7830 C 728.929 -3.81366 -3.5335 0
M  V30 7831 C 726.614 -3.20704 -3.86593 0
M  V30 7832 C 728.608 -5.14929 -3.75668 0
M  V30 7833 C 726.295 -4.54443 -4.08564 0
M  V30 7834 C 727.293 -5.51365 -4.03095 0
M  V30 7835 O 726.981 -6.8269 -4.24488 0
M  V30 7836 H 726.713 -0.333254 -0.588148 0
M  V30 7837 H 729.267 -1.5247 -1.3763 0
M  V30 7838 H 727.497 -0.717063 -3.79994 0
M  V30 7839 H 729.186 -1.12372 -3.90035 0
M  V30 7840 H 729.952 -3.53781 -3.31759 0
M  V30 7841 H 725.831 -2.45857 -3.89969 0
M  V30 7842 H 729.375 -5.90568 -3.71315 0
M  V30 7843 H 725.272 -4.81747 -4.29639 0
M  V30 7844 H 726.04 -6.8897 -4.41886 0
M  V30 7845 N 728.703 1.26451 -0.940633 0
M  V30 7846 C 729.949 1.94065 -0.58878 0
M  V30 7847 C 730.282 1.7363 0.869853 0
M  V30 7848 O 729.557 1.073 1.62225 0
M  V30 7849 C 729.84 3.47852 -0.931199 0
M  V30 7850 C 729.693 3.77575 -2.44453 0
M  V30 7851 C 731.012 4.37832 -0.446229 0
M  V30 7852 H 728.131 0.704827 -0.21538 0
M  V30 7853 H 730.773 1.4933 -1.17475 0
M  V30 7854 H 728.923 3.86085 -0.432539 0
M  V30 7855 H 730.595 3.49059 -3.01588 0
M  V30 7856 H 728.838 3.23671 -2.88825 0
M  V30 7857 H 729.509 4.85068 -2.63464 0
M  V30 7858 H 731.985 4.06822 -0.873778 0
M  V30 7859 H 730.861 5.44228 -0.714648 0
M  V30 7860 H 731.122 4.37239 0.653815 0
M  V30 7861 N 730.181 0.707592 1.40822 0
M  V30 7862 C 731.429 0.243189 2.00632 0
M  V30 7863 C 731.75 -1.16512 1.56365 0
M  V30 7864 O 731.02 -1.78841 0.799553 0
M  V30 7865 H 729.6 0.0869203 0.741926 0
M  V30 7866 H 732.262 0.911438 1.72275 0
M  V30 7867 H 731.358 0.270014 3.1093 0
M  V30 7868 N 731.66 -1.50943 0.453197 0
M  V30 7869 C 732.593 -2.24742 -0.395787 0
M  V30 7870 C 733.571 -1.27316 -1.01141 0
M  V30 7871 O 734.755 -1.56494 -1.05081 0
M  V30 7872 C 731.882 -3.00999 -1.55298 0
M  V30 7873 C 730.928 -4.13207 -1.0565 0
M  V30 7874 S 731.761 -5.35498 0.01435 0
M  V30 7875 C 732.917 -6.15298 -1.14714 0
M  V30 7876 H 733.15 -2.96403 0.23071 0
M  V30 7877 H 730.683 -1.52557 0.237874 0
M  V30 7878 H 732.641 -3.45529 -2.2163 0
M  V30 7879 H 731.302 -2.28896 -2.15094 0
M  V30 7880 H 730.495 -4.65901 -1.9223 0
M  V30 7881 H 730.097 -3.7102 -0.471182 0
M  V30 7882 H 732.389 -6.45346 -2.06239 0
M  V30 7883 H 733.332 -7.05019 -0.659842 0
M  V30 7884 H 733.74 -5.47046 -1.39288 0
M  V30 7885 N 733.138 -0.185124 -1.56509 0
M  V30 7886 C 734.384 0.456934 -1.97585 0
M  V30 7887 C 734.717 1.61957 -1.07161 0
M  V30 7888 O 733.992 1.9412 -0.121546 0
M  V30 7889 C 734.275 0.926666 -3.47973 0
M  V30 7890 C 734.128 -0.237097 -4.49175 0
M  V30 7891 C 735.447 1.79561 -4.01803 0
M  V30 7892 H 732.566 0.164619 -0.71838 0
M  V30 7893 H 735.208 -0.274039 -1.88013 0
M  V30 7894 H 733.358 1.54954 -3.56261 0
M  V30 7895 H 735.03 -0.87454 -4.52934 0
M  V30 7896 H 733.273 -0.890446 -4.24563 0
M  V30 7897 H 733.944 0.133924 -5.51838 0
M  V30 7898 H 736.42 1.27039 -3.96232 0
M  V30 7899 H 735.296 2.09327 -5.07418 0
M  V30 7900 H 735.557 2.74629 -3.46455 0
M  V30 7901 N 734.616 1.57351 0.0885366 0
M  V30 7902 C 735.863 1.86419 0.790824 0
M  V30 7903 C 736.191 0.774561 1.78412 0
M  V30 7904 O 735.446 -0.23119 1.9433 0
M  V30 7905 C 735.745 3.22098 1.5488 0
M  V30 7906 C 735.411 4.4548 0.697025 0
M  V30 7907 C 734.073 4.78975 0.462237 0
M  V30 7908 C 736.425 5.21094 0.105315 0
M  V30 7909 C 733.753 5.85507 -0.374016 0
M  V30 7910 C 736.105 6.28509 -0.718298 0
M  V30 7911 C 734.769 6.60515 -0.963116 0
M  V30 7912 H 734.039 0.682157 0.289383 0
M  V30 7913 H 736.686 1.91429 0.0520961 0
M  V30 7914 H 734.991 3.12803 2.35927 0
M  V30 7915 H 736.688 3.41819 2.09669 0
M  V30 7916 H 733.278 4.19255 0.890137 0
M  V30 7917 H 737.462 4.95544 0.273856 0
M  V30 7918 H 732.718 6.08713 -0.572606 0
M  V30 7919 H 736.892 6.86268 -1.18362 0
M  V30 7920 H 734.519 7.42893 -1.6129 0
M  V30 7921 N 736.094 -0.359525 1.53444 0
M  V30 7922 C 737.319 -1.12644 1.74144 0
M  V30 7923 C 737.744 -1.82082 0.472007 0
M  V30 7924 O 737.102 -1.71962 -0.57436 0
M  V30 7925 C 737.15 -2.12781 2.9113 0
M  V30 7926 O 736.254 -3.19984 2.60162 0
M  V30 7927 H 735.595 -0.326553 0.578152 0
M  V30 7928 H 738.125 -0.414798 2.00351 0
M  V30 7929 H 738.135 -2.56278 3.17467 0
M  V30 7930 H 736.81 -1.61634 3.83207 0
M  V30 7931 H 735.387 -2.81417 2.44661 0
M  V30 7932 N 737.572 -1.44907 -0.619662 0
M  V30 7933 C 738.535 -1.52282 -1.71297 0
M  V30 7934 C 739.535 -0.40359 -1.55653 0
M  V30 7935 O 740.725 -0.666638 -1.6094 0
M  V30 7936 C 737.857 -1.40778 -3.10474 0
M  V30 7937 H 739.05 -2.49683 -1.66128 0
M  V30 7938 H 736.603 -1.32168 -0.834339 0
M  V30 7939 H 737.338 -0.445156 -3.2123 0
M  V30 7940 H 737.123 -2.21947 -3.23237 0
M  V30 7941 H 738.613 -1.48946 -3.90135 0
M  V30 7942 N 739.05 0.861098 -1.31996 0
M  V30 7943 C 740.297 1.61481 -1.22188 0
M  V30 7944 C 740.625 1.93276 0.217853 0
M  V30 7945 O 739.88 1.56942 1.16909 0
M  V30 7946 C 740.179 2.94822 -2.02027 0
M  V30 7947 C 739.845 2.82483 -3.51446 0
M  V30 7948 C 738.507 2.78825 -3.92186 0
M  V30 7949 C 740.859 2.68878 -4.46491 0
M  V30 7950 C 738.187 2.59433 -5.26224 0
M  V30 7951 C 740.539 2.51022 -5.80664 0
M  V30 7952 C 739.203 2.45753 -6.20614 0
M  V30 7953 H 738.473 0.590902 -0.447119 0
M  V30 7954 H 741.12 0.999376 -1.63355 0
M  V30 7955 H 739.425 3.6045 -1.53569 0
M  V30 7956 H 741.122 3.52149 -1.91812 0
M  V30 7957 H 737.712 2.86152 -3.19085 0
M  V30 7958 H 741.896 2.70754 -4.1594 0
M  V30 7959 H 737.152 2.53784 -5.5624 0
M  V30 7960 H 741.326 2.39473 -6.53931 0
M  V30 7961 H 738.953 2.30485 -7.24417 0
M  V30 7962 N 740.528 1.15101 1.07655 0
M  V30 7963 C 741.768 0.934462 1.81789 0
M  V30 7964 C 742.132 -0.529101 1.84566 0
M  V30 7965 O 743.333 -0.863868 2.5454 0
M  V30 7966 C 741.604 1.52817 3.23082 0
M  V30 7967 S 743.163 1.45429 4.14 0
M  V30 7968 H 739.981 0.336379 0.626395 0
M  V30 7969 H 742.583 1.46593 1.29347 0
M  V30 7970 H 741.287 2.58635 3.18647 0
M  V30 7971 H 740.818 0.995432 3.80598 0
M  V30 7972 H 742.833 0.445058 4.942 0
M  V30 7973 N 742.006 -1.2595 0.947325 0
M  V30 7974 C 743.252 -1.94081 0.608604 0
M  V30 7975 C 743.607 -1.72899 -0.844021 0
M  V30 7976 O 742.9 -1.05908 -1.59669 0
M  V30 7977 C 743.094 -3.46034 0.894158 0
M  V30 7978 C 742.923 -3.81994 2.37299 0
M  V30 7979 C 741.693 -4.04431 3.02925 0
M  V30 7980 C 743.891 -3.90069 3.35188 0
M  V30 7981 N 741.873 -4.27325 4.40757 0
M  V30 7982 C 743.244 -4.17567 4.58299 0
M  V30 7983 C 745.299 -3.72721 3.30127 0
M  V30 7984 C 744.002 -4.2952 5.76979 0
M  V30 7985 C 746.028 -3.8591 4.48138 0
M  V30 7986 C 745.39 -4.13812 5.70034 0
M  V30 7987 H 741.489 -0.73273 0.273187 0
M  V30 7988 H 744.073 -1.51898 1.218 0
M  V30 7989 H 742.244 -3.87131 0.313758 0
M  V30 7990 H 743.976 -4.01396 0.516082 0
M  V30 7991 H 740.731 -4.0003 2.53521 0
M  V30 7992 H 741.155 -4.42792 5.12118 0
M  V30 7993 H 745.797 -3.50172 2.36938 0
M  V30 7994 H 743.515 -4.50888 6.70616 0
M  V30 7995 H 747.101 -3.73882 4.45762 0
M  V30 7996 H 745.981 -4.23791 6.59827 0
M  V30 7997 N 743.484 -0.715051 -1.40445 0
M  V30 7998 C 744.434 -0.038591 -2.27967 0
M  V30 7999 C 745.418 0.733099 -1.43229 0
M  V30 8000 O 746.61 0.605388 -1.66325 0
M  V30 8001 C 743.739 0.882801 -3.31755 0
M  V30 8002 C 742.825 0.106325 -4.23967 0
M  V30 8003 N 743.216 -0.910143 -4.97544 0
M  V30 8004 C 741.514 0.33896 -4.4471 0
M  V30 8005 C 742.215 -1.37665 -5.65175 0
M  V30 8006 N 741.191 -0.698905 -5.39088 0
M  V30 8007 H 744.993 -0.81765 -2.82297 0
M  V30 8008 H 742.507 -0.547591 -1.5289 0
M  V30 8009 H 744.504 1.38273 -3.93302 0
M  V30 8010 H 743.164 1.66124 -2.78985 0
M  V30 8011 H 744.175 -1.29097 -5.01552 0
M  V30 8012 H 740.852 1.09377 -4.02918 0
M  V30 8013 H 742.242 -2.22122 -6.34123 0
M  V30 8014 N 744.962 1.50701 -0.461195 0
M  V30 8015 C 746.211 2.01458 0.0988277 0
M  V30 8016 C 746.524 1.34863 1.41673 0
M  V30 8017 O 747.73 1.76721 2.06111 0
M  V30 8018 C 746.186 3.59186 0.226648 0
M  V30 8019 C 745.794 4.34732 -1.08223 0
M  V30 8020 C 747.538 4.18015 0.73916 0
M  V30 8021 C 745.445 5.8422 -0.918747 0
M  V30 8022 H 744.375 0.7529 0.040709 0
M  V30 8023 H 747.026 1.736 -0.594589 0
M  V30 8024 H 745.408 3.83589 0.983621 0
M  V30 8025 H 746.582 4.22059 -1.84939 0
M  V30 8026 H 744.897 3.87466 -1.52509 0
M  V30 8027 H 747.494 5.27436 0.878347 0
M  V30 8028 H 747.837 3.78746 1.72793 0
M  V30 8029 H 748.37 3.9778 0.0398469 0
M  V30 8030 H 745.109 6.27944 -1.88059 0
M  V30 8031 H 744.629 5.99493 -0.191801 0
M  V30 8032 H 746.308 6.44382 -0.581405 0
M  V30 8033 N 746.441 0.193421 1.56409 0
M  V30 8034 C 747.351 -0.740112 2.2262 0
M  V30 8035 C 748.367 -1.23597 1.22474 0
M  V30 8036 O 749.543 -1.28348 1.55206 0
M  V30 8037 C 746.608 -1.94317 2.87127 0
M  V30 8038 C 745.669 -1.49205 4.02538 0
M  V30 8039 C 744.902 -2.63776 4.63959 0
M  V30 8040 O 745.125 -3.81215 4.24301 0
M  V30 8041 O 744.059 -2.36585 5.53454 0
M  V30 8042 H 747.885 -0.206238 3.02999 0
M  V30 8043 H 745.47 -0.0357938 1.49357 0
M  V30 8044 H 747.352 -2.64633 3.27944 0
M  V30 8045 H 746.027 -2.46568 2.09728 0
M  V30 8046 H 744.934 -0.757738 3.66346 0
M  V30 8047 H 746.267 -1.01622 4.81595 0
M  V30 8048 N 747.919 -1.57396 -0.0801906 0
M  V30 8049 C 749.196 -1.77883 -0.813451 0
M  V30 8050 C 749.576 -0.778879 -1.96206 0
M  V30 8051 O 748.924 0.189683 -2.27711 0
M  V30 8052 C 749.134 -3.24116 -1.2942 0
M  V30 8053 C 750.482 -3.87714 -1.73098 0
M  V30 8054 O 751.506 -3.27956 -1.39007 0
M  V30 8055 O 750.365 -4.92828 -2.36184 0
M  V30 8056 H 747.459 -0.729727 -0.389138 0
M  V30 8057 H 750.005 -1.69591 -0.0609166 0
M  V30 8058 H 748.777 -3.88443 -0.471947 0
M  V30 8059 H 748.4 -3.371 -2.1083 0
M  V30 8060 N 749.397 0.351382 -1.53633 0
M  V30 8061 C 750.347 1.4316 -1.77452 0
M  V30 8062 C 751.331 1.48076 -0.62946 0
M  V30 8063 O 752.523 1.53078 -0.888599 0
M  V30 8064 C 749.652 2.80409 -1.98055 0
M  V30 8065 C 748.738 2.79915 -3.18604 0
M  V30 8066 N 749.129 2.49057 -4.40232 0
M  V30 8067 C 747.427 3.11067 -3.19614 0
M  V30 8068 C 748.128 2.566 -5.22045 0
M  V30 8069 N 747.104 2.919 -4.5858 0
M  V30 8070 H 750.906 1.18188 -2.69089 0
M  V30 8071 H 748.42 0.559684 -1.52451 0
M  V30 8072 H 750.417 3.58231 -2.13251 0
M  V30 8073 H 749.077 3.06334 -1.07655 0
M  V30 8074 H 750.088 2.22395 -4.67719 0
M  V30 8075 H 746.765 3.42215 -2.39154 0
M  V30 8076 H 748.155 2.35968 -6.29101 0
M  V30 8077 N 750.875 1.45233 0.611969 0
M  V30 8078 C 752.121 1.50233 1.37119 0
M  V30 8079 C 752.476 0.140336 1.91888 0
M  V30 8080 O 751.769 -0.847161 1.71854 0
M  V30 8081 C 751.963 2.51353 2.54079 0
M  V30 8082 C 751.792 3.97251 2.10764 0
M  V30 8083 C 750.562 4.65256 1.97141 0
M  V30 8084 C 752.76 4.85914 1.68499 0
M  V30 8085 N 750.742 5.95895 1.4759 0
M  V30 8086 C 752.113 6.06147 1.30331 0
M  V30 8087 C 754.168 4.72813 1.56051 0
M  V30 8088 C 752.871 7.14729 0.809591 0
M  V30 8089 C 754.897 5.8144 1.08083 0
M  V30 8090 C 754.259 7.00825 0.708775 0
M  V30 8091 H 750.358 0.604708 0.495835 0
M  V30 8092 H 752.942 1.81679 0.700055 0
M  V30 8093 H 751.113 2.21866 3.18795 0
M  V30 8094 H 752.845 2.46528 3.20945 0
M  V30 8095 H 749.6 4.20345 2.18191 0
M  V30 8096 H 750.024 6.65349 1.25059 0
M  V30 8097 H 754.666 3.80931 1.83443 0
M  V30 8098 H 752.384 8.06404 0.523215 0
M  V30 8099 H 755.97 5.73335 0.988842 0
M  V30 8100 H 754.85 7.83448 0.343305 0
M  V30 8101 N 752.353 -0.854086 1.3245 0
M  V30 8102 C 753.578 -1.64597 1.26185 0
M  V30 8103 C 754.003 -1.87357 -0.167074 0
M  V30 8104 O 753.361 -1.42675 -1.11864 0
M  V30 8105 C 753.409 -2.98213 2.02734 0
M  V30 8106 O 752.513 -3.88784 1.37554 0
M  V30 8107 H 751.854 -0.50179 0.434859 0
M  V30 8108 H 754.384 -1.06372 1.74775 0
M  V30 8109 H 754.394 -3.4803 2.1293 0
M  V30 8110 H 753.069 -2.80969 3.06642 0
M  V30 8111 H 751.646 -3.4725 1.3591 0
M  V30 8112 N 753.831 -1.1567 -1.07043 0
M  V30 8113 C 755.061 -0.956083 -1.83146 0
M  V30 8114 C 755.469 0.498969 -1.82502 0
M  V30 8115 O 754.812 1.35791 -1.23719 0
M  V30 8116 C 754.874 -1.39704 -3.31245 0
M  V30 8117 C 754.538 -2.87045 -3.55604 0
M  V30 8118 C 755.535 -3.85092 -3.49285 0
M  V30 8119 C 753.22 -3.24787 -3.8317 0
M  V30 8120 C 755.214 -5.18885 -3.70185 0
M  V30 8121 C 752.901 -4.58751 -4.03721 0
M  V30 8122 C 753.899 -5.55609 -3.97224 0
M  V30 8123 O 753.587 -6.87154 -4.17223 0
M  V30 8124 H 753.319 -0.339473 -0.58458 0
M  V30 8125 H 755.873 -1.53922 -1.36005 0
M  V30 8126 H 754.103 -0.757326 -3.79212 0
M  V30 8127 H 755.792 -1.16503 -3.88821 0
M  V30 8128 H 756.558 -3.5728 -3.27988 0
M  V30 8129 H 752.437 -2.49979 -3.87339 0
M  V30 8130 H 755.981 -5.94473 -3.6503 0
M  V30 8131 H 751.878 -4.86277 -4.24505 0
M  V30 8132 H 752.646 -6.93618 -4.34553 0
M  V30 8133 N 755.309 1.25446 -0.953992 0
M  V30 8134 C 756.534 1.97755 -0.625129 0
M  V30 8135 C 756.959 1.70437 0.795787 0
M  V30 8136 O 756.317 0.95992 1.53803 0
M  V30 8137 C 756.365 3.49463 -0.889251 0
M  V30 8138 O 755.469 4.12387 0.0322757 0
M  V30 8139 H 754.81 0.61998 -0.237742 0
M  V30 8140 H 757.34 1.59582 -1.28041 0
M  V30 8141 H 757.35 3.99772 -0.815263 0
M  V30 8142 H 756.025 3.68676 -1.92487 0
M  V30 8143 H 754.602 3.72782 -0.0938625 0
M  V30 8144 N 756.787 0.722489 1.40064 0
M  V30 8145 C 758.036 0.261932 1.99992 0
M  V30 8146 C 758.349 -1.15358 1.57961 0
M  V30 8147 O 759.555 -1.71301 2.10637 0
M  V30 8148 C 758.011 0.41737 3.57472 0
M  V30 8149 C 757.619 1.83997 4.08472 0
M  V30 8150 C 759.363 0.0179561 4.24496 0
M  V30 8151 C 757.27 1.94563 5.5848 0
M  V30 8152 H 756.2 0.0941768 0.748095 0
M  V30 8153 H 758.851 0.894572 1.60218 0
M  V30 8154 H 757.233 -0.283965 3.94981 0
M  V30 8155 H 758.407 2.57224 3.82325 0
M  V30 8156 H 756.722 2.19147 3.54067 0
M  V30 8157 H 759.319 0.076085 5.34646 0
M  V30 8158 H 759.662 -1.02498 4.03485 0
M  V30 8159 H 760.195 0.669988 3.92117 0
M  V30 8160 H 756.934 2.97001 5.84355 0
M  V30 8161 H 756.454 1.25756 5.86469 0
M  V30 8162 H 758.133 1.72095 6.23692 0
M  V30 8163 N 758.265 -1.50454 0.469181 0
M  V30 8164 C 759.213 -2.30101 -0.340033 0
M  V30 8165 C 760.207 -1.37306 -0.992135 0
M  V30 8166 O 761.413 -1.54506 -0.923458 0
M  V30 8167 H 757.788 -0.740941 -0.128495 0
M  V30 8168 H 759.759 -2.96315 0.352144 0
M  V30 8169 C 758.508 -3.17804 -1.41052 0
M  V30 8170 H 757.831 -3.89115 -0.918124 0
M  V30 8171 H 759.271 -3.76533 -1.94934 0
M  V30 8172 C 757.73 -2.35272 -2.4114 0
M  V30 8173 O 758.26 -2.03448 -3.4637 0
M  V30 8174 N 756.466 -1.97889 -2.1281 0
M  V30 8175 H 756.013 -2.2397 -1.27261 0
M  V30 8176 H 755.971 -1.42971 -2.80012 0
M  V30 8177 N 759.743 -0.201713 -1.56304 0
M  V30 8178 C 760.973 0.440084 -2.01858 0
M  V30 8179 C 761.381 1.55279 -1.08098 0
M  V30 8180 O 760.724 1.83529 -0.0792216 0
M  V30 8181 C 760.786 1.05091 -3.43797 0
M  V30 8182 C 760.45 0.0761208 -4.56937 0
M  V30 8183 C 761.447 -0.716951 -5.14933 0
M  V30 8184 C 759.132 -0.0368815 -5.02286 0
M  V30 8185 C 761.126 -1.60993 -6.16733 0
M  V30 8186 C 758.813 -0.933409 -6.03929 0
M  V30 8187 C 759.811 -1.71849 -6.61027 0
M  V30 8188 O 759.499 -2.59998 -7.60695 0
M  V30 8189 H 759.231 0.114139 -0.666294 0
M  V30 8190 H 761.785 -0.309672 -2.03052 0
M  V30 8191 H 760.015 1.84938 -3.3961 0
M  V30 8192 H 761.704 1.59804 -3.73118 0
M  V30 8193 H 762.47 -0.63999 -4.80759 0
M  V30 8194 H 758.349 0.564034 -4.57537 0
M  V30 8195 H 761.893 -2.22315 -6.61227 0
M  V30 8196 H 757.79 -1.01146 -6.37526 0
M  V30 8197 H 758.558 -2.53851 -7.7814 0
M  V30 8198 N 761.222 1.57436 0.0718424 0
M  V30 8199 C 762.152 2.06724 1.08571 0
M  V30 8200 C 763.133 0.960731 1.40371 0
M  V30 8201 O 764.318 1.23345 1.49999 0
M  V30 8202 C 761.448 2.51112 2.39916 0
M  V30 8203 C 760.402 3.65639 2.22469 0
M  V30 8204 C 759.728 3.96082 3.59198 0
M  V30 8205 C 761.028 4.95687 1.64596 0
M  V30 8206 H 762.722 2.91679 0.675569 0
M  V30 8207 H 760.268 1.40319 0.32352 0
M  V30 8208 H 762.221 2.84206 3.11135 0
M  V30 8209 H 760.945 1.63186 2.8291 0
M  V30 8210 H 759.604 3.32828 1.53691 0
M  V30 8211 H 759.252 3.05287 3.99761 0
M  V30 8212 H 758.952 4.73199 3.48362 0
M  V30 8213 H 760.476 4.31672 4.31847 0
M  V30 8214 H 761.89 5.27011 2.25681 0
M  V30 8215 H 760.287 5.77126 1.64457 0
M  V30 8216 H 761.357 4.8108 0.60744 0
M  V30 8217 N 762.7 -0.34323 1.53817 0
M  V30 8218 C 763.65 -1.42217 1.78208 0
M  V30 8219 C 764.634 -1.4774 0.637304 0
M  V30 8220 O 765.826 -1.52605 0.896705 0
M  V30 8221 C 762.955 -2.79354 1.9954 0
M  V30 8222 C 762.041 -2.78222 3.20084 0
M  V30 8223 N 762.432 -2.46719 4.41547 0
M  V30 8224 C 760.73 -3.09368 3.21259 0
M  V30 8225 C 761.431 -2.53828 5.23399 0
M  V30 8226 N 760.407 -2.89464 4.60121 0
M  V30 8227 H 764.209 -1.16759 2.69712 0
M  V30 8228 H 761.723 -0.551592 1.52746 0
M  V30 8229 H 763.72 -3.57095 2.15148 0
M  V30 8230 H 762.38 -3.05759 1.09278 0
M  V30 8231 H 763.391 -2.19912 4.68891 0
M  V30 8232 H 760.068 -3.40942 2.40966 0
M  V30 8233 H 761.458 -2.32629 6.30344 0
M  V30 8234 N 764.178 -1.45556 -0.604258 0
M  V30 8235 C 765.424 -1.50958 -1.3632 0
M  V30 8236 C 765.779 -0.15051 -1.9181 0
M  V30 8237 O 765.072 0.838035 -1.72301 0
M  V30 8238 C 765.266 -2.52697 -2.52743 0
M  V30 8239 C 765.095 -3.98364 -2.08654 0
M  V30 8240 C 763.865 -4.66295 -1.94671 0
M  V30 8241 C 766.063 -4.86801 -1.6592 0
M  V30 8242 N 764.045 -5.96669 -1.44428 0
M  V30 8243 C 765.416 -6.06829 -1.27115 0
M  V30 8244 C 767.471 -4.73634 -1.53542 0
M  V30 8245 C 766.174 -7.15149 -0.771676 0
M  V30 8246 C 768.2 -5.82005 -1.04998 0
M  V30 8247 C 767.562 -7.01191 -0.671599 0
M  V30 8248 H 763.661 -0.607329 -0.492621 0
M  V30 8249 H 766.245 -1.82048 -0.69041 0
M  V30 8250 H 764.416 -2.23554 -3.17614 0
M  V30 8251 H 766.148 -2.48227 -3.19633 0
M  V30 8252 H 762.903 -4.21496 -2.15959 0
M  V30 8253 H 763.327 -6.66003 -1.21528 0
M  V30 8254 H 767.969 -3.81898 -1.81421 0
M  V30 8255 H 765.687 -8.06671 -0.480442 0
M  V30 8256 H 769.273 -5.73851 -0.958423 0
M  V30 8257 H 768.153 -7.83619 -0.301752 0
M  V30 8258 N 765.656 0.84705 -1.32902 0
M  V30 8259 C 766.904 1.5986 -1.2365 0
M  V30 8260 C 767.225 1.93974 0.199789 0
M  V30 8261 O 766.495 1.60273 1.12648 0
M  V30 8262 H 765.075 0.592696 -0.454665 0
M  V30 8263 H 767.737 1.01278 -1.66519 0
M  V30 8264 H 766.833 2.53218 -1.82448 0
M  V30 8265 N 767.134 1.16236 1.06428 0
M  V30 8266 C 768.044 0.881976 2.1739 0
M  V30 8267 C 769.06 -0.145259 1.73393 0
M  V30 8268 O 770.236 0.0310558 2.01376 0
M  V30 8269 C 767.301 0.385496 3.4455 0
M  V30 8270 C 766.362 1.47779 4.03063 0
M  V30 8271 C 765.595 1.0049 5.24154 0
M  V30 8272 O 765.818 -0.145889 5.70213 0
M  V30 8273 O 764.752 1.79265 5.74585 0
M  V30 8274 H 768.578 1.80983 2.43883 0
M  V30 8275 H 766.163 0.942226 1.15942 0
M  V30 8276 H 768.045 0.115536 4.21242 0
M  V30 8277 H 766.72 -0.514369 3.19587 0
M  V30 8278 H 765.627 1.80147 3.27869 0
M  V30 8279 H 766.96 2.35291 4.32318 0
M  V30 8280 N 768.612 -1.24939 0.960631 0
M  V30 8281 C 770.023 -1.74701 0.658529 0
M  V30 8282 C 770.374 -1.77967 -0.825959 0
M  V30 8283 O 769.499 -1.40444 -1.64634 0
M  V30 8284 C 770.094 -3.17263 1.18867 0
M  V30 8285 C 768.653 -3.64561 0.936614 0
M  V30 8286 C 767.8 -2.43423 1.32817 0
M  V30 8287 H 770.751 -1.10741 1.13676 0
M  V30 8288 H 770.772 -3.76481 0.551589 0
M  V30 8289 H 770.284 -3.14854 2.26912 0
M  V30 8290 H 768.385 -3.72378 -0.128608 0
M  V30 8291 H 768.498 -4.52392 1.57729 0
M  V30 8292 H 766.862 -2.43513 0.746548 0
M  V30 8293 H 767.645 -2.437 2.41796 0
M  V30 8294 N 770.09 -0.729906 -1.39679 0
M  V30 8295 C 771.037 -0.0866063 -2.30637 0
M  V30 8296 C 772.007 0.735115 -1.48947 0
M  V30 8297 O 773.192 0.696125 -1.77648 0
M  V30 8298 C 770.332 0.818524 -3.35252 0
M  V30 8299 C 769.445 -0.0152635 -4.31997 0
M  V30 8300 C 768.58 0.890669 -5.2368 0
M  V30 8301 C 767.619 0.0518246 -6.12078 0
M  V30 8302 N 766.756 0.913411 -6.96133 0
M  V30 8303 H 771.596 -0.867925 -2.85081 0
M  V30 8304 H 769.133 -0.439673 -1.40376 0
M  V30 8305 H 771.091 1.3577 -3.9449 0
M  V30 8306 H 769.721 1.56587 -2.82277 0
M  V30 8307 H 768.773 -0.671794 -3.74421 0
M  V30 8308 H 770.085 -0.664086 -4.9436 0
M  V30 8309 H 769.239 1.49787 -5.87919 0
M  V30 8310 H 767.978 1.57328 -4.61627 0
M  V30 8311 H 766.983 -0.568209 -5.46856 0
M  V30 8312 H 768.208 -0.627497 -6.76195 0
M  V30 8313 H 766.154 1.58141 -6.36653 0
M  V30 8314 H 766.071 0.320952 -7.55318 0
M  V30 8315 H 767.339 1.50633 -7.64807 0
M  V30 8316 N 771.568 1.50203 -0.477153 0
M  V30 8317 C 772.796 2.0677 0.0732489 0
M  V30 8318 C 773.211 1.34033 1.32968 0
M  V30 8319 O 772.568 0.411412 1.77802 0
M  V30 8320 C 772.619 3.59751 0.35518 0
M  V30 8321 O 772.34 4.29747 -0.851425 0
M  V30 8322 C 773.841 4.3296 0.951877 0
M  V30 8323 H 771.061 0.670929 -0.00978923 0
M  V30 8324 H 773.605 1.93293 -0.667676 0
M  V30 8325 H 771.76 3.7301 1.04605 0
M  V30 8326 H 772.174 5.2106 -0.599708 0
M  V30 8327 H 773.648 5.40952 1.09888 0
M  V30 8328 H 774.125 3.93856 1.94356 0
M  V30 8329 H 774.731 4.24246 0.299208 0
M  V30 8330 N 773.046 0.209999 1.56195 0
M  V30 8331 C 774.292 -0.418742 1.99043 0
M  V30 8332 C 774.647 -1.58201 1.095 0
M  V30 8333 O 773.94 -1.91069 0.1425 0
M  V30 8334 C 774.134 -0.91312 3.45539 0
M  V30 8335 C 773.963 0.200706 4.49252 0
M  V30 8336 C 772.733 0.663287 5.00928 0
M  V30 8337 C 774.931 1.01493 5.04186 0
M  V30 8338 N 772.913 1.75338 5.88328 0
M  V30 8339 C 774.284 1.95411 5.884 0
M  V30 8340 C 776.339 1.05567 4.8658 0
M  V30 8341 C 775.042 2.93069 6.56889 0
M  V30 8342 C 777.068 2.02037 5.55819 0
M  V30 8343 C 776.43 2.94697 6.39791 0
M  V30 8344 H 772.529 -0.120226 0.772703 0
M  V30 8345 H 775.113 0.319119 1.92067 0
M  V30 8346 H 773.284 -1.62038 3.52985 0
M  V30 8347 H 775.016 -1.51371 3.75325 0
M  V30 8348 H 771.771 0.253945 4.72919 0
M  V30 8349 H 772.195 2.30007 6.3673 0
M  V30 8350 H 776.837 0.353242 4.21322 0
M  V30 8351 H 774.555 3.6428 7.21336 0
M  V30 8352 H 778.141 2.05849 5.44167 0
M  V30 8353 H 777.021 3.68128 6.92425 0
M  V30 8354 N 774.524 -1.57472 -0.0634922 0
M  V30 8355 C 775.754 -1.91608 -0.772645 0
M  V30 8356 C 776.162 -0.805019 -1.71219 0
M  V30 8357 O 775.505 0.229941 -1.82255 0
M  V30 8358 C 775.567 -3.21281 -1.61304 0
M  V30 8359 C 775.231 -4.49177 -0.841973 0
M  V30 8360 C 776.228 -5.19661 -0.157494 0
M  V30 8361 C 773.913 -4.9578 -0.80669 0
M  V30 8362 C 775.907 -6.35006 0.551948 0
M  V30 8363 C 773.594 -6.11028 -0.0934812 0
M  V30 8364 C 774.592 -6.80493 0.58463 0
M  V30 8365 O 774.28 -7.93542 1.28633 0
M  V30 8366 H 774.012 -0.637685 -0.224352 0
M  V30 8367 H 776.566 -2.05369 -0.0355279 0
M  V30 8368 H 774.796 -3.03752 -2.39315 0
M  V30 8369 H 776.485 -3.41003 -2.20162 0
M  V30 8370 H 777.251 -4.84681 -0.176006 0
M  V30 8371 H 773.13 -4.41579 -1.32397 0
M  V30 8372 H 776.674 -6.89161 1.0818 0
M  V30 8373 H 772.571 -6.45459 -0.0729258 0
M  V30 8374 H 773.339 -8.09708 1.19646 0
M  V30 8375 N 776.003 0.335068 -1.53997 0
M  V30 8376 C 777.251 1.07223 -1.71312 0
M  V30 8377 C 777.572 1.88911 -0.483486 0
M  V30 8378 O 776.842 1.89344 0.50257 0
M  V30 8379 H 775.422 0.398846 -0.63161 0
M  V30 8380 H 778.084 0.374288 -1.91272 0
M  V30 8381 H 777.18 1.7448 -2.58772 0
M  V30 8382 N 777.481 1.45874 0.596531 0
M  V30 8383 C 778.727 1.5069 1.35722 0
M  V30 8384 C 779.06 0.152506 1.936 0
M  V30 8385 O 778.335 -0.834411 1.75692 0
M  V30 8386 C 778.618 2.59474 2.4969 0
M  V30 8387 C 778.471 4.04396 1.96937 0
M  V30 8388 C 779.79 2.64451 3.51787 0
M  V30 8389 H 776.909 0.548611 0.492133 0
M  V30 8390 H 779.551 1.77741 0.671428 0
M  V30 8391 H 777.701 2.36539 3.08191 0
M  V30 8392 H 779.373 4.38576 1.43 0
M  V30 8393 H 777.616 4.14529 1.27859 0
M  V30 8394 H 778.287 4.76218 2.79143 0
M  V30 8395 H 780.763 2.85031 3.03145 0
M  V30 8396 H 779.639 3.42411 4.29006 0
M  V30 8397 H 779.9 1.69965 4.08123 0
M  V30 8398 N 778.959 -0.83999 1.33349 0
M  V30 8399 C 780.37 -1.41139 1.22216 0
M  V30 8400 C 780.721 -1.95551 -0.159398 0
M  V30 8401 O 779.846 -1.88721 -1.05893 0
M  V30 8402 C 780.441 -2.56564 2.21269 0
M  V30 8403 C 779 -3.09661 2.13979 0
M  V30 8404 C 778.147 -1.82457 2.08818 0
M  V30 8405 H 781.098 -0.645853 1.44964 0
M  V30 8406 H 781.119 -3.34163 1.81976 0
M  V30 8407 H 780.631 -2.16932 3.21811 0
M  V30 8408 H 778.732 -3.53841 1.16736 0
M  V30 8409 H 778.845 -3.6991 3.04472 0
M  V30 8410 H 777.209 -2.0266 1.54276 0
M  V30 8411 H 777.992 -1.45022 3.11165 0
M  V30 8412 N 780.437 -1.16799 -1.0581 0
M  V30 8413 C 781.662 -0.977402 -1.82925 0
M  V30 8414 C 782.087 0.469514 -1.82146 0
M  V30 8415 O 781.445 1.33576 -1.22585 0
M  V30 8416 C 781.493 -1.51543 -3.27211 0
M  V30 8417 O 780.597 -0.725021 -4.05977 0
M  V30 8418 H 779.938 -0.347474 -0.565825 0
M  V30 8419 H 782.468 -1.55151 -1.33376 0
M  V30 8420 H 782.478 -1.53502 -3.78023 0
M  V30 8421 H 781.153 -2.56872 -3.27093 0
M  V30 8422 H 779.73 -0.77634 -3.64729 0
M  V30 8423 N 781.915 1.24427 -0.967243 0
M  V30 8424 C 782.845 2.2773 -0.515899 0
M  V30 8425 C 783.826 1.64197 0.444227 0
M  V30 8426 O 785.011 1.91193 0.340451 0
M  V30 8427 C 782.141 3.46751 0.195149 0
M  V30 8428 C 781.095 4.22548 -0.680953 0
M  V30 8429 C 780.421 5.34456 0.161561 0
M  V30 8430 C 781.721 4.83914 -1.96532 0
M  V30 8431 H 783.415 2.65735 -1.37933 0
M  V30 8432 H 780.961 1.27742 -0.664681 0
M  V30 8433 H 782.914 4.18153 0.522117 0
M  V30 8434 H 781.638 3.07771 1.09292 0
M  V30 8435 H 780.297 3.52946 -0.991186 0
M  V30 8436 H 779.945 4.91716 1.05947 0
M  V30 8437 H 779.645 5.86087 -0.421418 0
M  V30 8438 H 781.169 6.08685 0.483211 0
M  V30 8439 H 782.583 5.47392 -1.70396 0
M  V30 8440 H 780.98 5.45775 -2.49499 0
M  V30 8441 H 782.05 4.05393 -2.66053 0
M  V30 8442 N 783.393 0.737304 1.3929 0
M  V30 8443 C 784.356 0.10731 2.28949 0
M  V30 8444 C 785.356 -0.664716 1.46418 0
M  V30 8445 O 786.546 -0.493392 1.67067 0
M  V30 8446 C 783.678 -0.857145 3.29948 0
M  V30 8447 H 784.871 0.89725 2.86163 0
M  V30 8448 H 782.424 0.503279 1.47976 0
M  V30 8449 H 783.159 -1.67336 2.77794 0
M  V30 8450 H 782.944 -0.306167 3.90903 0
M  V30 8451 H 784.434 -1.29444 3.97031 0
M  V30 8452 N 784.871 -1.49948 0.485112 0
M  V30 8453 C 785.834 -2.27351 -0.290546 0
M  V30 8454 C 786.834 -1.32704 -0.908087 0
M  V30 8455 O 788.024 -1.56007 -0.775085 0
M  V30 8456 C 785.156 -3.10135 -1.41524 0
M  V30 8457 H 786.349 -2.97374 0.388454 0
M  V30 8458 H 783.902 -1.54453 0.239586 0
M  V30 8459 H 784.637 -2.44641 -2.12888 0
M  V30 8460 H 784.422 -3.79705 -0.978074 0
M  V30 8461 H 785.912 -3.68638 -1.96204 0
M  V30 8462 N 786.349 -0.21828 -1.56081 0
M  V30 8463 C 787.259 0.704602 -2.23769 0
M  V30 8464 C 788.275 1.21633 -1.24425 0
M  V30 8465 O 789.451 1.25862 -1.57228 0
M  V30 8466 C 786.516 1.89725 -2.90182 0
M  V30 8467 C 785.577 1.42782 -4.0486 0
M  V30 8468 C 784.81 2.56361 -4.68097 0
M  V30 8469 O 785.033 3.74417 -4.30312 0
M  V30 8470 O 783.967 2.2775 -5.57148 0
M  V30 8471 H 787.793 0.158007 -3.03289 0
M  V30 8472 H 785.378 0.0120279 -1.49395 0
M  V30 8473 H 787.26 2.59382 -3.32113 0
M  V30 8474 H 785.935 2.432 -2.13624 0
M  V30 8475 H 784.842 0.699359 -3.67505 0
M  V30 8476 H 786.175 0.939474 -4.83151 0
M  V30 8477 N 787.827 1.57504 0.0551401 0
M  V30 8478 C 788.777 2.0128 1.071 0
M  V30 8479 C 789.761 0.897592 1.33537 0
M  V30 8480 O 790.953 1.16151 1.33558 0
M  V30 8481 C 788.082 2.47414 2.37994 0
M  V30 8482 C 787.168 3.65703 2.14761 0
M  V30 8483 N 787.559 4.79323 1.61504 0
M  V30 8484 C 785.857 3.72574 2.45162 0
M  V30 8485 C 786.558 5.61089 1.53472 0
M  V30 8486 N 785.534 5.05426 2.00114 0
M  V30 8487 H 789.336 2.86558 0.652829 0
M  V30 8488 H 786.85 1.60274 0.26193 0
M  V30 8489 H 788.847 2.77023 3.11551 0
M  V30 8490 H 787.507 1.6353 2.80514 0
M  V30 8491 H 788.518 5.01284 1.30134 0
M  V30 8492 H 785.195 2.99439 2.90934 0
M  V30 8493 H 786.585 6.62328 1.13008 0
M  V30 8494 N 789.305 -0.326896 1.54172 0
M  V30 8495 C 790.235 -1.40741 1.86317 0
M  V30 8496 C 791.216 -1.54125 0.719684 0
M  V30 8497 O 792.401 -1.6806 0.973117 0
M  V30 8498 C 789.531 -2.77557 2.08757 0
M  V30 8499 C 788.485 -2.78965 3.24596 0
M  V30 8500 C 787.811 -4.18824 3.32401 0
M  V30 8501 C 789.111 -2.4301 4.62324 0
M  V30 8502 H 790.805 -1.14088 2.76811 0
M  V30 8503 H 788.351 -0.547389 1.3319 0
M  V30 8504 H 790.304 -3.53209 2.29829 0
M  V30 8505 H 789.028 -3.0568 1.15009 0
M  V30 8506 H 787.687 -2.05767 3.03406 0
M  V30 8507 H 787.335 -4.44083 2.36218 0
M  V30 8508 H 787.035 -4.20673 4.10253 0
M  V30 8509 H 788.559 -4.96294 3.55703 0
M  V30 8510 H 789.973 -3.08375 4.83299 0
M  V30 8511 H 788.37 -2.56116 5.42701 0
M  V30 8512 H 789.44 -1.38165 4.64799 0
M  V30 8513 N 790.784 -1.46188 -0.588786 0
M  V30 8514 C 791.694 -1.58865 -1.72624 0
M  V30 8515 C 792.71 -0.472348 -1.67466 0
M  V30 8516 O 793.886 -0.735638 -1.87484 0
M  V30 8517 C 790.951 -1.56989 -3.0912 0
M  V30 8518 C 790.012 -2.79804 -3.25589 0
M  V30 8519 C 789.245 -2.78009 -4.55573 0
M  V30 8520 O 789.468 -1.86406 -5.39082 0
M  V30 8521 O 788.402 -3.6947 -4.75159 0
M  V30 8522 H 792.228 -2.55047 -1.64878 0
M  V30 8523 H 789.813 -1.28912 -0.755115 0
M  V30 8524 H 791.695 -1.58618 -3.90408 0
M  V30 8525 H 790.37 -0.639648 -3.17317 0
M  V30 8526 H 789.277 -2.83732 -2.43818 0
M  V30 8527 H 790.61 -3.72017 -3.22279 0
M  V30 8528 N 792.262 0.832906 -1.33792 0
M  V30 8529 C 793.172 1.97514 -1.26592 0
M  V30 8530 C 794.188 1.73114 -0.175391 0
M  V30 8531 O 795.364 1.97387 -0.400062 0
M  V30 8532 C 792.429 3.31625 -1.01121 0
M  V30 8533 C 791.49 3.69101 -2.19233 0
M  V30 8534 C 790.723 4.96813 -1.94968 0
M  V30 8535 O 790.946 5.63208 -0.902955 0
M  V30 8536 O 789.88 5.31932 -2.8166 0
M  V30 8537 H 793.706 2.0653 -2.22664 0
M  V30 8538 H 791.291 0.966826 -1.13898 0
M  V30 8539 H 793.173 4.11968 -0.886571 0
M  V30 8540 H 791.848 3.23599 -0.080822 0
M  V30 8541 H 790.755 2.89243 -2.37253 0
M  V30 8542 H 792.088 3.818 -3.10628 0
M  V30 8543 N 793.74 1.17359 1.05189 0
M  V30 8544 C 794.986 0.963413 1.78455 0
M  V30 8545 C 795.319 -0.506703 1.87473 0
M  V30 8546 O 794.594 -1.37611 1.37453 0
M  V30 8547 C 794.877 1.60519 3.22344 0
M  V30 8548 C 794.73 3.14741 3.21338 0
M  V30 8549 C 796.049 1.3091 4.20179 0
M  V30 8550 H 793.168 0.351412 0.647826 0
M  V30 8551 H 795.81 1.44858 1.22948 0
M  V30 8552 H 793.96 1.19265 3.69741 0
M  V30 8553 H 795.632 3.65053 2.82017 0
M  V30 8554 H 793.875 3.4749 2.59679 0
M  V30 8555 H 794.546 3.54775 4.22894 0
M  V30 8556 H 797.022 1.66635 3.81277 0
M  V30 8557 H 795.898 1.784 5.191 0
M  V30 8558 H 796.159 0.229908 4.41502 0
M  V30 8559 N 795.218 -1.23913 0.973828 0
M  V30 8560 C 796.151 -2.23647 0.45355 0
M  V30 8561 C 797.129 -1.55485 -0.475724 0
M  V30 8562 O 798.313 -1.84083 -0.405689 0
M  V30 8563 C 795.44 -3.36942 -0.344594 0
M  V30 8564 C 794.486 -4.23221 0.527859 0
M  V30 8565 S 795.319 -4.97877 1.97177 0
M  V30 8566 C 796.475 -6.14627 1.18258 0
M  V30 8567 H 796.708 -2.67433 1.29873 0
M  V30 8568 H 794.241 -1.33289 0.779322 0
M  V30 8569 H 796.199 -4.02647 -0.799103 0
M  V30 8570 H 794.86 -2.91703 -1.16482 0
M  V30 8571 H 794.053 -5.03928 -0.0852555 0
M  V30 8572 H 793.655 -3.6255 0.918344 0
M  V30 8573 H 795.947 -6.76066 0.440629 0
M  V30 8574 H 796.89 -6.80311 1.96425 0
M  V30 8575 H 797.298 -5.6009 0.704256 0
M  V30 8576 N 796.696 -0.74468 -1.38897 0
M  V30 8577 C 797.643 -0.111064 -2.30533 0
M  V30 8578 C 798.613 0.719276 -1.49719 0
M  V30 8579 O 799.798 0.677244 -1.78376 0
M  V30 8580 C 796.938 0.78292 -3.36102 0
M  V30 8581 C 796.051 -0.0610817 -4.31957 0
M  V30 8582 C 795.186 0.835075 -5.24595 0
M  V30 8583 C 794.225 -0.0130974 -6.12099 0
M  V30 8584 N 793.362 0.839525 -6.97063 0
M  V30 8585 H 798.202 -0.898113 -2.84144 0
M  V30 8586 H 795.739 -0.454537 -1.39901 0
M  V30 8587 H 797.697 1.31578 -3.95908 0
M  V30 8588 H 796.327 1.53585 -2.83922 0
M  V30 8589 H 795.379 -0.711469 -3.73687 0
M  V30 8590 H 796.691 -0.716482 -4.93627 0
M  V30 8591 H 795.845 1.43542 -5.89475 0
M  V30 8592 H 794.584 1.52423 -4.63269 0
M  V30 8593 H 793.589 -0.626179 -5.46223 0
M  V30 8594 H 794.814 -0.699181 -6.75491 0
M  V30 8595 H 792.76 1.5138 -6.38295 0
M  V30 8596 H 792.677 0.240823 -7.55616 0
M  V30 8597 H 793.945 1.42513 -7.66362 0
M  V30 8598 N 798.174 1.49689 -0.493057 0
M  V30 8599 C 799.107 2.25712 0.336062 0
M  V30 8600 C 800.085 1.29953 0.977294 0
M  V30 8601 O 801.269 1.59225 1.00895 0
M  V30 8602 C 798.396 3.0501 1.47263 0
M  V30 8603 C 797.442 4.15863 0.946575 0
M  V30 8604 S 798.275 5.35272 -0.156323 0
M  V30 8605 C 799.431 6.18123 0.983601 0
M  V30 8606 H 799.664 2.95688 -0.309215 0
M  V30 8607 H 797.197 1.51872 -0.278238 0
M  V30 8608 H 799.155 3.51284 2.12391 0
M  V30 8609 H 797.816 2.34519 2.08949 0
M  V30 8610 H 797.009 4.70834 1.7981 0
M  V30 8611 H 796.611 3.72139 0.372647 0
M  V30 8612 H 798.903 6.50588 1.89056 0
M  V30 8613 H 799.846 7.06521 0.472687 0
M  V30 8614 H 800.254 5.50547 1.24735 0
M  V30 8615 N 799.652 0.226554 1.55963 0
M  V30 8616 C 800.582 -0.676079 2.23498 0
M  V30 8617 C 801.563 -1.19718 1.20837 0
M  V30 8618 O 802.748 -1.24027 1.49436 0
M  V30 8619 C 799.878 -1.88217 2.91876 0
M  V30 8620 C 798.832 -1.4947 4.01052 0
M  V30 8621 C 798.158 -2.77997 4.56751 0
M  V30 8622 C 799.458 -0.680951 5.17842 0
M  V30 8623 H 801.152 -0.112989 2.99187 0
M  V30 8624 H 798.698 -0.0529046 1.43903 0
M  V30 8625 H 800.651 -2.51911 3.37815 0
M  V30 8626 H 799.375 -2.47031 2.13643 0
M  V30 8627 H 798.034 -0.881199 3.55852 0
M  V30 8628 H 797.682 -3.34966 3.75243 0
M  V30 8629 H 797.382 -2.52803 5.30438 0
M  V30 8630 H 798.906 -3.42625 5.05411 0
M  V30 8631 H 800.32 -1.22171 5.60131 0
M  V30 8632 H 798.717 -0.525898 5.97791 0
M  V30 8633 H 799.787 0.311346 4.83899 0
M  V30 8634 N 801.13 -1.57531 -0.0467866 0
M  V30 8635 C 802.358 -1.92696 -0.753371 0
M  V30 8636 C 802.773 -0.824792 -1.69831 0
M  V30 8637 O 802.13 0.200155 -1.81399 0
M  V30 8638 C 802.181 -3.27728 -1.52566 0
M  V30 8639 O 801.902 -4.3371 -0.618674 0
M  V30 8640 C 803.403 -3.77066 -2.33101 0
M  V30 8641 H 800.623 -0.636367 -0.212788 0
M  V30 8642 H 803.167 -2.04498 -0.00959361 0
M  V30 8643 H 801.322 -3.17378 -2.22148 0
M  V30 8644 H 801.736 -5.11548 -1.15839 0
M  V30 8645 H 803.21 -4.74109 -2.82709 0
M  V30 8646 H 803.687 -3.07348 -3.13741 0
M  V30 8647 H 804.293 -3.90442 -1.68628 0
M  V30 8648 N 802.608 0.318715 -1.54344 0
M  V30 8649 C 804.019 0.89285 -1.63967 0
M  V30 8650 C 804.37 1.88712 -0.536855 0
M  V30 8651 O 803.495 2.13877 0.329457 0
M  V30 8652 C 804.09 1.62618 -2.97222 0
M  V30 8653 C 802.649 2.14897 -3.09025 0
M  V30 8654 C 801.796 0.975909 -2.5956 0
M  V30 8655 H 804.747 0.0961687 -1.58408 0
M  V30 8656 H 804.768 2.4907 -2.87653 0
M  V30 8657 H 804.28 0.902286 -3.77466 0
M  V30 8658 H 802.381 2.90387 -2.33465 0
M  V30 8659 H 802.494 2.39565 -4.14904 0
M  V30 8660 H 800.858 1.35646 -2.15574 0
M  V30 8661 H 801.641 0.266253 -3.42266 0
M  V30 8662 N 804.086 1.46499 0.581025 0
M  V30 8663 C 804.996 1.59778 1.71779 0
M  V30 8664 C 806.012 0.481223 1.67213 0
M  V30 8665 O 807.188 0.74557 1.87091 0
M  V30 8666 C 804.253 1.58626 3.08283 0
M  V30 8667 C 803.314 2.81527 3.241 0
M  V30 8668 C 802.547 2.80421 4.54092 0
M  V30 8669 O 802.77 1.89262 5.38085 0
M  V30 8670 O 801.704 3.71984 4.73193 0
M  V30 8671 H 805.53 2.55918 1.63523 0
M  V30 8672 H 803.115 1.29311 0.748267 0
M  V30 8673 H 804.997 1.60686 3.89561 0
M  V30 8674 H 803.672 0.656467 3.16973 0
M  V30 8675 H 802.579 2.85021 2.42309 0
M  V30 8676 H 803.912 3.73721 3.20302 0
M  V30 8677 N 805.565 -0.825799 1.34232 0
M  V30 8678 C 806.495 -1.95151 1.28212 0
M  V30 8679 C 807.476 -1.69345 0.160123 0
M  V30 8680 O 808.661 -1.90983 0.352019 0
M  V30 8681 C 805.791 -3.31554 1.03388 0
M  V30 8682 C 804.745 -3.71793 2.12023 0
M  V30 8683 C 804.071 -5.06147 1.72392 0
M  V30 8684 C 805.371 -3.84193 3.53826 0
M  V30 8685 H 807.065 -2.00445 2.22401 0
M  V30 8686 H 804.611 -0.962996 1.07063 0
M  V30 8687 H 806.564 -4.09889 0.978225 0
M  V30 8688 H 805.288 -3.26551 0.0564142 0
M  V30 8689 H 803.947 -2.95731 2.16654 0
M  V30 8690 H 803.595 -4.97628 0.733137 0
M  V30 8691 H 803.295 -5.34041 2.451 0
M  V30 8692 H 804.819 -5.86943 1.68317 0
M  V30 8693 H 806.233 -4.52806 3.51624 0
M  V30 8694 H 804.63 -4.23538 4.2513 0
M  V30 8695 H 805.7 -2.86272 3.91377 0
M  V30 8696 N 807.043 -1.17915 -1.04565 0
M  V30 8697 C 808.29 -0.971424 -1.77678 0
M  V30 8698 C 808.618 0.499401 -1.87979 0
M  V30 8699 O 807.873 1.38695 -1.38066 0
M  V30 8700 C 808.172 -1.56528 -3.213 0
M  V30 8701 C 807.838 -3.06138 -3.31044 0
M  V30 8702 C 806.5 -3.46974 -3.33411 0
M  V30 8703 C 808.852 -4.02151 -3.31548 0
M  V30 8704 C 806.18 -4.82406 -3.33918 0
M  V30 8705 C 808.532 -5.37492 -3.33595 0
M  V30 8706 C 807.196 -5.77782 -3.34251 0
M  V30 8707 H 806.466 -0.355469 -0.650171 0
M  V30 8708 H 809.113 -1.46902 -1.22849 0
M  V30 8709 H 807.418 -0.98955 -3.79098 0
M  V30 8710 H 809.115 -1.38003 -3.76505 0
M  V30 8711 H 805.705 -2.73589 -3.29919 0
M  V30 8712 H 809.889 -3.71656 -3.28916 0
M  V30 8713 H 805.145 -5.12927 -3.3274 0
M  V30 8714 H 809.319 -6.1166 -3.32934 0
M  V30 8715 H 806.946 -6.82702 -3.34397 0
M  V30 8716 N 808.521 1.23394 -0.980386 0
M  V30 8717 C 809.798 1.87242 -0.565667 0
M  V30 8718 C 810.178 1.88151 0.957197 0
M  V30 8719 O 809.526 1.36309 1.8339 0
M  V30 8720 C 809.736 3.28743 -1.17172 0
M  V30 8721 C 811.084 4.05335 -1.26446 0
M  V30 8722 O 812.108 3.37962 -1.12517 0
M  V30 8723 O 810.967 5.25908 -1.48604 0
M  V30 8724 H 808.061 0.80477 -0.190459 0
M  V30 8725 H 810.607 1.3127 -1.07547 0
M  V30 8726 H 809.379 3.22647 -2.21392 0
M  V30 8727 H 809.002 3.92305 -0.646739 0
M  V30 8728 N 809.999 0.752036 1.385 0
M  V30 8729 C 811.224 0.316993 2.04963 0
M  V30 8730 C 811.649 -1.04582 1.56346 0
M  V30 8731 O 811.007 -1.66616 0.714755 0
M  V30 8732 C 811.055 0.347235 3.58924 0
M  V30 8733 O 810.159 -0.659296 4.07096 0
M  V30 8734 H 809.5 0.140652 0.648932 0
M  V30 8735 H 812.03 1.02272 1.77205 0
M  V30 8736 H 812.04 0.19757 4.07521 0
M  V30 8737 H 810.715 1.34157 3.93668 0
M  V30 8738 H 809.292 -0.474371 3.6987 0
M  V30 8739 N 811.477 -1.49425 0.500989 0
M  V30 8740 C 812.409 -2.27037 -0.314159 0
M  V30 8741 C 813.422 -1.33578 -0.930626 0
M  V30 8742 O 814.611 -1.58861 -0.813968 0
M  V30 8743 C 811.711 -3.05968 -1.45729 0
M  V30 8744 C 810.884 -4.27 -0.948135 0
M  V30 8745 C 809.943 -4.87977 -1.96888 0
M  V30 8746 O 808.969 -5.48044 -1.53743 0
M  V30 8747 N 810.171 -4.77627 -3.29928 0
M  V30 8748 H 812.936 -2.97634 0.351336 0
M  V30 8749 H 810.497 -1.58427 0.333536 0
M  V30 8750 H 812.489 -3.43634 -2.1377 0
M  V30 8751 H 811.059 -2.37978 -2.02695 0
M  V30 8752 H 810.279 -3.94091 -0.0926311 0
M  V30 8753 H 811.567 -5.0541 -0.586362 0
M  V30 8754 H 810.965 -4.29926 -3.67669 0
M  V30 8755 H 809.522 -5.19478 -3.93682 0
M  V30 8756 N 812.955 -0.234822 -1.55841 0
M  V30 8757 C 814.366 0.270588 -1.84729 0
M  V30 8758 C 814.717 1.58494 -1.15646 0
M  V30 8759 O 813.842 2.12071 -0.430667 0
M  V30 8760 C 814.437 0.497733 -3.35124 0
M  V30 8761 C 812.996 0.947428 -3.64281 0
M  V30 8762 C 812.143 0.01787 -2.77294 0
M  V30 8763 H 815.094 -0.457691 -1.51957 0
M  V30 8764 H 815.115 1.34199 -3.56049 0
M  V30 8765 H 814.627 -0.459037 -3.85376 0
M  V30 8766 H 812.728 1.91709 -3.19497 0
M  V30 8767 H 812.841 0.812651 -4.72158 0
M  V30 8768 H 811.205 0.527071 -2.49187 0
M  V30 8769 H 811.988 -0.934056 -3.30349 0
M  V30 8770 N 814.433 1.57553 0.0384317 0
M  V30 8771 C 815.71 1.79977 0.766002 0
M  V30 8772 C 816.09 0.830625 1.94072 0
M  V30 8773 O 815.438 -0.129243 2.28134 0
M  V30 8774 C 815.648 3.27434 1.20781 0
M  V30 8775 C 816.996 3.92167 1.62758 0
M  V30 8776 O 818.02 3.31527 1.30263 0
M  V30 8777 O 816.879 4.98917 2.23035 0
M  V30 8778 H 813.973 0.739787 0.369654 0
M  V30 8779 H 816.519 1.69693 0.0159312 0
M  V30 8780 H 815.291 3.89558 0.368792 0
M  V30 8781 H 814.914 3.42571 2.01819 0
M  V30 8782 N 815.911 -0.310526 1.54511 0
M  V30 8783 C 816.841 -1.38757 1.878 0
M  V30 8784 C 817.822 -1.53353 0.735991 0
M  V30 8785 O 819.007 -1.67018 0.990887 0
M  V30 8786 C 816.137 -2.75327 2.11689 0
M  V30 8787 C 815.091 -2.75506 3.27537 0
M  V30 8788 C 814.417 -4.15275 3.36824 0
M  V30 8789 C 815.717 -2.38093 4.64875 0
M  V30 8790 H 817.411 -1.11146 2.78005 0
M  V30 8791 H 814.957 -0.533232 1.33763 0
M  V30 8792 H 816.91 -3.50752 2.33562 0
M  V30 8793 H 815.634 -3.04443 1.18245 0
M  V30 8794 H 814.293 -2.02538 3.05572 0
M  V30 8795 H 813.941 -4.41553 2.40915 0
M  V30 8796 H 813.641 -4.16299 4.14692 0
M  V30 8797 H 815.165 -4.92493 3.60947 0
M  V30 8798 H 816.579 -3.03232 4.86542 0
M  V30 8799 H 814.976 -2.50345 5.45387 0
M  V30 8800 H 816.046 -1.33227 4.66239 0
M  V30 8801 N 817.389 -1.46805 -0.573248 0
M  V30 8802 C 818.319 -1.60951 -1.69165 0
M  V30 8803 C 819.3 -0.45948 -1.63777 0
M  V30 8804 O 820.485 -0.68688 -1.81647 0
M  V30 8805 C 817.615 -1.60844 -3.07809 0
M  V30 8806 C 816.569 -2.74913 -3.28035 0
M  V30 8807 C 815.895 -2.59871 -4.67302 0
M  V30 8808 C 817.195 -4.16654 -3.14955 0
M  V30 8809 H 818.889 -2.54574 -1.57582 0
M  V30 8810 H 816.435 -1.22516 -0.756686 0
M  V30 8811 H 818.388 -1.69334 -3.85881 0
M  V30 8812 H 817.112 -0.637714 -3.20314 0
M  V30 8813 H 815.771 -2.65908 -2.52366 0
M  V30 8814 H 815.419 -1.60861 -4.76585 0
M  V30 8815 H 815.119 -3.36386 -4.81786 0
M  V30 8816 H 816.643 -2.70265 -5.4753 0
M  V30 8817 H 818.057 -4.26721 -3.82861 0
M  V30 8818 H 816.454 -4.93831 -3.40956 0
M  V30 8819 H 817.524 -4.36146 -2.11908 0
M  V30 8820 N 818.867 0.818669 -1.34668 0
M  V30 8821 C 819.817 1.91882 -1.23147 0
M  V30 8822 C 820.801 1.60378 -0.129509 0
M  V30 8823 O 821.993 1.73309 -0.359581 0
M  V30 8824 C 819.122 3.28612 -0.993436 0
M  V30 8825 C 818.208 3.66221 -2.13876 0
M  V30 8826 N 818.599 3.75361 -3.39024 0
M  V30 8827 C 816.897 3.96098 -2.04994 0
M  V30 8828 C 817.598 4.0836 -4.14266 0
M  V30 8829 N 816.574 4.21806 -3.429 0
M  V30 8830 H 820.376 1.97133 -2.17981 0
M  V30 8831 H 817.89 1.01257 -1.26967 0
M  V30 8832 H 819.887 4.0725 -0.891797 0
M  V30 8833 H 818.547 3.24655 -0.053824 0
M  V30 8834 H 819.558 3.58747 -3.73525 0
M  V30 8835 H 816.235 4.00236 -1.18816 0
M  V30 8836 H 817.625 4.226 -5.22359 0
M  V30 8837 N 820.346 1.18468 1.03938 0
M  V30 8838 C 821.278 0.870615 2.12021 0
M  V30 8839 C 822.291 -0.132318 1.62261 0
M  V30 8840 O 823.48 0.0956901 1.78243 0
M  V30 8841 C 820.58 0.279727 3.37744 0
M  V30 8842 C 819.753 1.32863 4.16733 0
M  V30 8843 C 818.812 0.753204 5.20781 0
M  V30 8844 O 817.838 1.42825 5.5099 0
M  V30 8845 N 819.04 -0.448664 5.78764 0
M  V30 8846 H 821.805 1.80091 2.39556 0
M  V30 8847 H 819.366 1.08524 1.20142 0
M  V30 8848 H 821.358 -0.118829 4.04526 0
M  V30 8849 H 819.928 -0.554621 3.07641 0
M  V30 8850 H 819.148 1.90245 3.45254 0
M  V30 8851 H 820.436 2.03574 4.66299 0
M  V30 8852 H 819.834 -1.01481 5.56523 0
M  V30 8853 H 818.391 -0.789125 6.47005 0
M  V30 8854 N 821.824 -1.22873 0.986916 0
M  V30 8855 C 822.754 -2.2688 0.552064 0
M  V30 8856 C 823.735 -1.64883 -0.418048 0
M  V30 8857 O 824.92 -1.9171 -0.30999 0
M  V30 8858 C 822.05 -3.47018 -0.139959 0
M  V30 8859 C 821.004 -4.21411 0.748091 0
M  V30 8860 C 820.33 -5.34645 -0.0765132 0
M  V30 8861 C 821.63 -4.80726 2.04206 0
M  V30 8862 H 823.324 -2.63507 1.42143 0
M  V30 8863 H 820.87 -1.26668 0.68492 0
M  V30 8864 H 822.823 -4.18931 -0.455527 0
M  V30 8865 H 821.547 -3.0947 -1.04382 0
M  V30 8866 H 820.206 -3.51325 1.04721 0
M  V30 8867 H 819.854 -4.93339 -0.981109 0
M  V30 8868 H 819.554 -5.85342 0.514606 0
M  V30 8869 H 821.078 -6.09377 -0.386313 0
M  V30 8870 H 822.492 -5.44612 1.79083 0
M  V30 8871 H 820.889 -5.41737 2.5815 0
M  V30 8872 H 821.959 -4.01109 2.72469 0
M  V30 8873 N 823.302 -0.75937 -1.38099 0
M  V30 8874 C 824.548 -0.318584 -2.00282 0
M  V30 8875 C 824.881 1.09854 -1.60143 0
M  V30 8876 O 824.156 1.75344 -0.841702 0
M  V30 8877 C 824.439 -0.448047 -3.57302 0
M  V30 8878 C 824.292 -1.9067 -4.07388 0
M  V30 8879 C 825.611 0.155119 -4.39827 0
M  V30 8880 H 822.73 -0.117233 -0.727616 0
M  V30 8881 H 825.372 -0.960097 -1.63958 0
M  V30 8882 H 823.522 0.0981003 -3.88376 0
M  V30 8883 H 825.194 -2.5116 -3.86932 0
M  V30 8884 H 823.437 -2.41979 -3.6004 0
M  V30 8885 H 824.108 -1.94841 -5.1647 0
M  V30 8886 H 826.584 -0.31073 -4.14938 0
M  V30 8887 H 825.46 0.0343264 -5.48889 0
M  V30 8888 H 825.721 1.24407 -4.24235 0
M  V30 8889 N 824.78 1.49157 -0.508906 0
M  V30 8890 C 826.008 2.06879 0.0293734 0
M  V30 8891 C 826.423 1.36823 1.30095 0
M  V30 8892 O 825.78 0.449034 1.7689 0
M  V30 8893 C 825.831 3.60423 0.278791 0
M  V30 8894 O 825.552 4.27844 -0.942389 0
M  V30 8895 C 827.053 4.34881 0.859825 0
M  V30 8896 H 824.273 0.67057 -0.0240184 0
M  V30 8897 H 826.817 1.91834 -0.708526 0
M  V30 8898 H 824.972 3.75145 0.966689 0
M  V30 8899 H 825.386 5.19671 -0.710097 0
M  V30 8900 H 826.86 5.43161 0.983884 0
M  V30 8901 H 827.337 3.9789 1.85958 0
M  V30 8902 H 827.943 4.24785 0.209152 0
M  V30 8903 N 826.258 0.243083 1.55714 0
M  V30 8904 C 827.188 -0.652336 2.24203 0
M  V30 8905 C 828.169 -1.1843 1.221 0
M  V30 8906 O 829.354 -1.22435 1.50743 0
M  V30 8907 C 826.484 -1.85111 2.93856 0
M  V30 8908 C 825.438 -1.45208 4.02615 0
M  V30 8909 C 824.764 -2.73137 4.59674 0
M  V30 8910 C 826.064 -0.625988 5.18535 0
M  V30 8911 H 827.758 -0.0812504 2.9929 0
M  V30 8912 H 825.304 -0.0376388 1.43951 0
M  V30 8913 H 827.257 -2.48314 3.40468 0
M  V30 8914 H 825.981 -2.44751 2.16251 0
M  V30 8915 H 824.64 -0.843406 3.56766 0
M  V30 8916 H 824.288 -3.30967 3.78774 0
M  V30 8917 H 823.988 -2.47163 5.33089 0
M  V30 8918 H 825.512 -3.37245 5.09017 0
M  V30 8919 H 826.926 -1.16223 5.61396 0
M  V30 8920 H 825.323 -0.462465 5.98315 0
M  V30 8921 H 826.393 0.362652 4.83542 0
M  V30 8922 N 827.736 -1.57571 -0.0300757 0
M  V30 8923 C 828.669 -2.01874 -1.06406 0
M  V30 8924 C 829.647 -0.902901 -1.35227 0
M  V30 8925 O 830.831 -1.16865 -1.47901 0
M  V30 8926 C 827.958 -2.39093 -2.39901 0
M  V30 8927 C 827.004 -3.61108 -2.26943 0
M  V30 8928 S 827.837 -5.10287 -1.62382 0
M  V30 8929 C 828.993 -5.50747 -2.97369 0
M  V30 8930 H 829.226 -2.89261 -0.686703 0
M  V30 8931 H 826.759 -1.52523 -0.240017 0
M  V30 8932 H 828.717 -2.61207 -3.16672 0
M  V30 8933 H 827.378 -1.52159 -2.74784 0
M  V30 8934 H 826.571 -3.84803 -3.25489 0
M  V30 8935 H 826.173 -3.3884 -1.58314 0
M  V30 8936 H 828.465 -5.51369 -3.93698 0
M  V30 8937 H 829.408 -6.51071 -2.78409 0
M  V30 8938 H 829.816 -4.7825 -2.99895 0
M  V30 8939 N 829.214 0.302327 -1.54673 0
M  V30 8940 C 830.162 1.39286 -1.86285 0
M  V30 8941 C 831.156 1.52553 -0.736478 0
M  V30 8942 O 832.362 1.54686 -0.92045 0
M  V30 8943 H 828.737 0.465228 -0.590819 0
M  V30 8944 H 830.708 1.09859 -2.77441 0
M  V30 8945 C 829.457 2.75155 -2.12567 0
M  V30 8946 H 828.78 2.65728 -2.98712 0
M  V30 8947 H 830.22 3.50476 -2.38627 0
M  V30 8948 C 828.679 3.23987 -0.923813 0
M  V30 8949 O 829.209 4.01443 -0.143649 0
M  V30 8950 N 827.415 2.81293 -0.72956 0
M  V30 8951 H 826.962 2.18421 -1.36565 0
M  V30 8952 H 826.92 3.14315 0.0730351 0
M  V30 8953 N 830.692 1.47107 0.565454 0
M  V30 8954 C 832.103 1.47266 1.1476 0
M  V30 8955 C 832.454 0.222841 1.9493 0
M  V30 8956 O 831.579 -0.672862 2.05673 0
M  V30 8957 C 832.174 2.66822 2.08785 0
M  V30 8958 C 830.733 2.69967 2.62288 0
M  V30 8959 C 829.88 2.40236 1.38499 0
M  V30 8960 H 832.831 1.54736 0.352479 0
M  V30 8961 H 832.852 2.43323 2.92531 0
M  V30 8962 H 832.364 3.5777 1.50408 0
M  V30 8963 H 830.465 1.83137 3.24487 0
M  V30 8964 H 830.578 3.70426 3.03845 0
M  V30 8965 H 828.942 1.90648 1.68895 0
M  V30 8966 H 829.725 3.33381 0.819274 0
M  V30 8967 N 832.17 -0.811516 1.35101 0
M  V30 8968 C 833.118 -1.94449 1.27642 0
M  V30 8969 C 834.112 -1.68522 0.172287 0
M  V30 8970 O 835.318 -1.76799 0.337967 0
M  V30 8971 H 831.693 -0.638776 0.396824 0
M  V30 8972 H 833.664 -1.97861 2.23369 0
M  V30 8973 C 832.413 -3.31139 1.06029 0
M  V30 8974 H 831.736 -3.51644 1.90227 0
M  V30 8975 H 833.176 -4.10831 1.0485 0
M  V30 8976 C 831.635 -3.36072 -0.236039 0
M  V30 8977 O 832.165 -3.82292 -1.23353 0
M  V30 8978 N 830.371 -2.89314 -0.273107 0
M  V30 8979 H 829.918 -2.51893 0.539211 0
M  V30 8980 H 829.876 -2.92996 -1.1402 0
M  V30 8981 N 833.648 -1.19017 -1.03309 0
M  V30 8982 C 834.876 -1.01534 -1.80273 0
M  V30 8983 C 835.291 0.43605 -1.83696 0
M  V30 8984 O 834.648 1.30288 -1.27794 0
M  V30 8985 C 834.699 -1.5722 -3.25522 0
M  V30 8986 O 834.42 -2.96677 -3.22358 0
M  V30 8987 C 835.921 -1.4446 -4.19102 0
M  V30 8988 H 833.141 -0.358094 -0.567459 0
M  V30 8989 H 835.685 -1.57738 -1.3015 0
M  V30 8990 H 833.84 -1.05174 -3.7285 0
M  V30 8991 H 834.254 -3.22795 -4.13405 0
M  V30 8992 H 835.728 -1.88209 -5.18923 0
M  V30 8993 H 836.205 -0.394471 -4.37425 0
M  V30 8994 H 836.811 -1.95616 -3.77643 0
M  V30 8995 N 835.127 1.22348 -0.993418 0
M  V30 8996 C 836.057 2.26584 -0.564088 0
M  V30 8997 C 837.038 1.65102 0.409298 0
M  V30 8998 O 838.223 1.91872 0.299819 0
M  V30 8999 C 835.353 3.47087 0.121554 0
M  V30 9000 C 834.307 4.21009 -0.770429 0
M  V30 9001 C 833.633 5.34678 0.0481586 0
M  V30 9002 C 834.933 4.79636 -2.06752 0
M  V30 9003 H 836.627 2.62749 -1.43538 0
M  V30 9004 H 834.173 1.26303 -0.691628 0
M  V30 9005 H 836.126 4.19166 0.433303 0
M  V30 9006 H 834.85 3.1002 1.0274 0
M  V30 9007 H 833.509 3.50764 -1.06583 0
M  V30 9008 H 833.157 4.93852 0.954933 0
M  V30 9009 H 832.857 5.85061 -0.545641 0
M  V30 9010 H 834.381 6.09573 0.353991 0
M  V30 9011 H 835.795 5.43654 -1.81969 0
M  V30 9012 H 834.192 5.4036 -2.61019 0
M  V30 9013 H 835.262 3.99659 -2.74592 0
M  V30 9014 N 836.605 0.766683 1.37694 0
M  V30 9015 C 837.538 0.0959288 2.27998 0
M  V30 9016 C 838.516 -0.714493 1.46061 0
M  V30 9017 O 839.7 -0.690337 1.75404 0
M  V30 9018 C 836.827 -0.87057 3.27321 0
M  V30 9019 C 835.873 -0.144771 4.26254 0
M  V30 9020 S 836.706 1.16365 5.22704 0
M  V30 9021 C 837.862 0.200564 6.25579 0
M  V30 9022 H 838.095 0.861666 2.84539 0
M  V30 9023 H 835.628 0.559845 1.43893 0
M  V30 9024 H 837.586 -1.42282 3.85053 0
M  V30 9025 H 836.247 -1.60938 2.69737 0
M  V30 9026 H 835.44 -0.877259 4.96307 0
M  V30 9027 H 835.042 0.33633 3.72485 0
M  V30 9028 H 837.334 -0.628833 6.74575 0
M  V30 9029 H 838.277 0.869117 7.02746 0
M  V30 9030 H 838.685 -0.185972 5.64194 0
M  V30 9031 N 838.083 -1.48885 0.516809 0
M  V30 9032 C 839.308 -2.0739 -0.0205201 0
M  V30 9033 C 839.733 -1.37259 -1.28614 0
M  V30 9034 O 839.091 -0.434304 -1.76021 0
M  V30 9035 C 839.139 -3.59793 -0.24104 0
M  V30 9036 O 838.243 -3.90957 -1.31251 0
M  V30 9037 H 837.584 -0.663167 0.0332564 0
M  V30 9038 H 840.114 -1.91477 0.720956 0
M  V30 9039 H 840.124 -4.0531 -0.467737 0
M  V30 9040 H 838.799 -4.10244 0.68356 0
M  V30 9041 H 837.376 -3.57234 -1.06951 0
M  V30 9042 N 839.561 -0.251338 -1.55583 0
M  V30 9043 C 840.511 0.660351 -2.18228 0
M  V30 9044 C 841.495 1.13596 -1.13951 0
M  V30 9045 O 842.687 1.08499 -1.39846 0
M  V30 9046 C 839.816 1.85498 -2.88869 0
M  V30 9047 C 838.902 1.39767 -4.00407 0
M  V30 9048 N 839.293 0.654876 -5.01543 0
M  V30 9049 C 837.591 1.68259 -4.13044 0
M  V30 9050 C 838.292 0.417521 -5.802 0
M  V30 9051 N 837.268 0.983032 -5.34638 0
M  V30 9052 H 841.07 0.0847425 -2.93778 0
M  V30 9053 H 838.584 -0.0538456 -1.62311 0
M  V30 9054 H 840.581 2.51916 -3.3218 0
M  V30 9055 H 839.241 2.43477 -2.14823 0
M  V30 9056 H 840.252 0.304545 -5.17004 0
M  V30 9057 H 836.929 2.27344 -3.50172 0
M  V30 9058 H 838.319 -0.175764 -6.7167 0
M  V30 9059 N 841.039 1.57585 0.0217189 0
M  V30 9060 C 842.287 1.89231 0.709641 0
M  V30 9061 C 842.608 0.849964 1.75501 0
M  V30 9062 O 841.878 -0.115485 1.95559 0
M  V30 9063 H 840.458 0.69838 0.265092 0
M  V30 9064 H 843.12 1.94895 -0.0140688 0
M  V30 9065 H 842.216 2.88333 1.19459 0
M  V30 9066 N 842.517 -0.29412 1.54831 0
M  V30 9067 C 843.763 -1.02999 1.74697 0
M  V30 9068 C 844.096 -1.86687 0.534949 0
M  V30 9069 O 843.371 -1.88789 -0.467863 0
M  V30 9070 C 843.654 -1.93024 3.03996 0
M  V30 9071 C 843.507 -1.1247 4.35512 0
M  V30 9072 C 844.826 -2.92085 3.29203 0
M  V30 9073 H 841.945 -0.373039 0.635618 0
M  V30 9074 H 844.587 -0.304065 1.87551 0
M  V30 9075 H 842.737 -2.5492 2.93169 0
M  V30 9076 H 844.409 -0.528067 4.58268 0
M  V30 9077 H 842.652 -0.427574 4.31688 0
M  V30 9078 H 843.323 -1.78728 5.22265 0
M  V30 9079 H 845.799 -2.40319 3.39685 0
M  V30 9080 H 844.675 -3.52234 4.20978 0
M  V30 9081 H 844.936 -3.66107 2.47827 0
M  V30 9082 N 843.995 -1.47404 -0.557645 0
M  V30 9083 C 845.406 -1.47872 -1.13977 0
M  V30 9084 C 845.757 -0.233176 -1.94809 0
M  V30 9085 O 844.882 0.661945 -2.06027 0
M  V30 9086 C 845.477 -2.67926 -2.07368 0
M  V30 9087 C 844.036 -2.71354 -2.60852 0
M  V30 9088 C 843.183 -2.40967 -1.37223 0
M  V30 9089 H 846.134 -1.54921 -0.344268 0
M  V30 9090 H 846.155 -2.44871 -2.91236 0
M  V30 9091 H 845.667 -3.58562 -1.48509 0
M  V30 9092 H 843.768 -1.84855 -3.23511 0
M  V30 9093 H 843.881 -3.72032 -3.01876 0
M  V30 9094 H 842.245 -1.91541 -1.67882 0
M  V30 9095 H 843.028 -3.33811 -0.801583 0
M  V30 9096 N 845.473 0.80434 -1.35529 0
M  V30 9097 C 846.719 1.56385 -1.29118 0
M  V30 9098 C 847.052 1.9374 0.133536 0
M  V30 9099 O 846.327 1.6153 1.08344 0
M  V30 9100 C 846.61 2.85097 -2.19981 0
M  V30 9101 C 846.463 2.54204 -3.7108 0
M  V30 9102 C 847.782 3.86817 -2.09907 0
M  V30 9103 H 844.901 0.567382 -0.470368 0
M  V30 9104 H 847.543 0.925235 -1.6595 0
M  V30 9105 H 845.693 3.39594 -1.88701 0
M  V30 9106 H 847.365 2.05872 -4.12813 0
M  V30 9107 H 845.608 1.87364 -3.91251 0
M  V30 9108 H 846.279 3.46068 -4.30048 0
M  V30 9109 H 848.755 3.41725 -2.37409 0
M  V30 9110 H 847.631 4.7465 -2.75678 0
M  V30 9111 H 847.892 4.28663 -1.08171 0
M  V30 9112 N 846.951 1.19563 1.02676 0
M  V30 9113 C 848.197 1.00105 1.76371 0
M  V30 9114 C 848.53 -0.466823 1.88506 0
M  V30 9115 O 847.805 -1.34665 1.40341 0
M  V30 9116 C 848.088 1.67321 3.18866 0
M  V30 9117 C 847.941 3.21486 3.1459 0
M  V30 9118 C 849.26 1.39794 4.17308 0
M  V30 9119 H 846.379 0.365075 0.640226 0
M  V30 9120 H 849.021 1.47433 1.19848 0
M  V30 9121 H 847.171 1.27081 3.67128 0
M  V30 9122 H 848.843 3.70953 2.7421 0
M  V30 9123 H 847.086 3.5292 2.52249 0
M  V30 9124 H 847.757 3.63665 4.15273 0
M  V30 9125 H 850.233 1.74685 3.77657 0
M  V30 9126 H 849.109 1.89371 5.15199 0
M  V30 9127 H 849.37 0.323505 4.40915 0
M  V30 9128 N 848.429 -1.21819 0.999893 0
M  V30 9129 C 849.845 -1.42847 0.711824 0
M  V30 9130 C 850.045 -1.88391 -0.714928 0
M  V30 9131 O 849.101 -2.0422 -1.48494 0
M  V30 9132 C 850.414 -2.46417 1.72334 0
M  V30 9133 C 851.962 -2.60207 1.73958 0
M  V30 9134 C 852.437 -3.67005 2.73992 0
M  V30 9135 N 853.928 -3.7447 2.72628 0
M  V30 9136 C 854.663 -4.56718 3.46693 0
M  V30 9137 N 854.159 -5.42904 4.3038 0
M  V30 9138 N 855.952 -4.51094 3.35366 0
M  V30 9139 H 848.103 -0.905656 1.92124 0
M  V30 9140 H 850.366 -0.459893 0.828977 0
M  V30 9141 H 850.072 -2.19914 2.74465 0
M  V30 9142 H 849.946 -3.45137 1.52186 0
M  V30 9143 H 852.333 -2.8605 0.725217 0
M  V30 9144 H 852.414 -1.61739 1.98177 0
M  V30 9145 H 852.058 -3.41908 3.75582 0
M  V30 9146 H 851.988 -4.65058 2.4704 0
M  V30 9147 H 854.479 -3.12895 2.11909 0
M  V30 9148 H 854.792 -6.02704 4.83702 0
M  V30 9149 H 853.137 -5.42463 4.34464 0
M  V30 9150 H 856.328 -3.82791 2.69423 0
M  V30 9151 H 856.501 -5.1496 3.93344 0
M  V30 9152 N 849.908 -0.773975 -1.37286 0
M  V30 9153 C 851.136 -0.350758 -2.03905 0
M  V30 9154 C 851.551 1.02779 -1.58373 0
M  V30 9155 O 850.908 1.65646 -0.766009 0
M  V30 9156 C 850.959 -0.387335 -3.59419 0
M  V30 9157 O 850.68 -1.7115 -4.03286 0
M  V30 9158 C 852.181 0.047198 -4.43275 0
M  V30 9159 H 849.401 -0.146663 -0.654775 0
M  V30 9160 H 851.945 -1.04852 -1.75574 0
M  V30 9161 H 850.1 0.261865 -3.86514 0
M  V30 9162 H 850.514 -1.65166 -4.97816 0
M  V30 9163 H 851.988 -0.0295474 -5.51992 0
M  V30 9164 H 852.465 1.09786 -4.25257 0
M  V30 9165 H 853.071 -0.573899 -4.2141 0
M  V30 9166 N 851.386 1.48609 -0.524698 0
M  V30 9167 C 852.334 2.31205 0.254398 0
M  V30 9168 C 853.328 1.40894 0.940491 0
M  V30 9169 O 854.534 1.57827 0.865478 0
M  V30 9170 H 850.909 0.745199 0.100907 0
M  V30 9171 H 852.88 2.94804 -0.461876 0
M  V30 9172 C 851.629 3.2282 1.2916 0
M  V30 9173 H 850.952 3.92255 0.773074 0
M  V30 9174 H 852.392 3.83508 1.80825 0
M  V30 9175 C 850.851 2.4406 2.32242 0
M  V30 9176 O 851.381 2.16163 3.3858 0
M  V30 9177 N 849.587 2.05651 2.05319 0
M  V30 9178 H 849.134 2.28539 1.18861 0
M  V30 9179 H 849.092 1.53265 2.74513 0
M  V30 9180 N 852.864 0.259585 1.55447 0
M  V30 9181 C 853.796 -0.667548 2.19263 0
M  V30 9182 C 854.809 -1.12925 1.17268 0
M  V30 9183 O 855.998 -1.05384 1.44071 0
M  V30 9184 C 853.098 -1.92066 2.7922 0
M  V30 9185 C 852.271 -1.60832 4.06758 0
M  V30 9186 C 851.33 -2.71231 4.50911 0
M  V30 9187 O 850.356 -2.38077 5.17019 0
M  V30 9188 N 851.558 -4.00984 4.19752 0
M  V30 9189 H 854.323 -0.121449 2.99454 0
M  V30 9190 H 851.884 0.0800519 1.61702 0
M  V30 9191 H 853.876 -2.65186 3.0571 0
M  V30 9192 H 852.446 -2.37621 2.03113 0
M  V30 9193 H 851.666 -0.711685 3.87722 0
M  V30 9194 H 852.954 -1.37445 4.89884 0
M  V30 9195 H 852.352 -4.30748 3.66706 0
M  V30 9196 H 850.909 -4.7053 4.51048 0
M  V30 9197 N 854.342 -1.57594 -0.0133615 0
M  V30 9198 C 855.582 -1.91834 -0.705639 0
M  V30 9199 C 855.946 -0.859801 -1.71672 0
M  V30 9200 O 857.147 -1.08702 -2.4584 0
M  V30 9201 C 855.418 -3.31174 -1.34383 0
M  V30 9202 S 856.977 -3.87275 -2.06309 0
M  V30 9203 H 853.795 -0.671598 -0.233404 0
M  V30 9204 H 856.397 -1.95459 0.0401173 0
M  V30 9205 H 855.101 -4.06065 -0.594939 0
M  V30 9206 H 854.632 -3.3089 -2.12781 0
M  V30 9207 H 856.647 -3.67271 -3.33657 0
M  V30 9208 N 855.82 0.285905 -1.54985 0
M  V30 9209 C 856.783 1.33625 -1.86218 0
M  V30 9210 C 857.783 1.42971 -0.735936 0
M  V30 9211 O 858.973 1.42345 -1.00417 0
M  V30 9212 C 856.105 2.71926 -2.05595 0
M  V30 9213 H 857.298 1.07167 -2.80099 0
M  V30 9214 H 854.851 0.523335 -1.47278 0
M  V30 9215 H 855.586 3.03583 -1.14053 0
M  V30 9216 H 855.371 2.6653 -2.87583 0
M  V30 9217 H 856.861 3.47841 -2.31077 0
M  V30 9218 N 857.298 1.47698 0.54982 0
M  V30 9219 C 858.546 1.54397 1.30407 0
M  V30 9220 C 858.867 0.211026 1.93855 0
M  V30 9221 O 858.137 -0.765701 1.80316 0
M  V30 9222 H 856.717 0.568747 0.484289 0
M  V30 9223 H 859.379 1.84042 0.641444 0
M  V30 9224 H 858.475 2.31449 2.09375 0
M  V30 9225 N 858.776 -0.797141 1.35954 0
M  V30 9226 C 859.686 -1.94088 1.31784 0
M  V30 9227 C 860.702 -1.72588 0.221227 0
M  V30 9228 O 861.878 -1.96256 0.452255 0
M  V30 9229 C 858.943 -3.28828 1.09878 0
M  V30 9230 C 858.004 -3.63158 2.28942 0
M  V30 9231 C 857.237 -4.91469 2.08072 0
M  V30 9232 O 857.46 -5.60616 1.05196 0
M  V30 9233 O 856.394 -5.24277 2.95664 0
M  V30 9234 H 860.22 -2.00554 2.28061 0
M  V30 9235 H 857.805 -0.936288 1.16422 0
M  V30 9236 H 859.687 -4.09473 0.995485 0
M  V30 9237 H 858.362 -3.23271 0.16659 0
M  V30 9238 H 857.269 -2.82851 2.44839 0
M  V30 9239 H 858.602 -3.7343 3.20641 0
M  V30 9240 N 860.254 -1.20106 -1.0204 0
M  V30 9241 C 861.501 -1.00889 -1.75578 0
M  V30 9242 C 861.829 0.459415 -1.88996 0
M  V30 9243 O 861.084 1.35735 -1.40977 0
M  V30 9244 C 861.383 -1.63308 -3.17908 0
M  V30 9245 C 861.049 -3.13091 -3.24476 0
M  V30 9246 C 859.711 -3.53968 -3.25976 0
M  V30 9247 C 862.063 -4.09093 -3.22944 0
M  V30 9248 C 859.391 -4.89381 -3.2361 0
M  V30 9249 C 861.743 -5.44447 -3.22119 0
M  V30 9250 C 860.407 -5.84742 -3.2192 0
M  V30 9251 H 859.677 -0.36918 -0.642485 0
M  V30 9252 H 862.324 -1.49475 -1.19706 0
M  V30 9253 H 860.629 -1.06974 -3.76914 0
M  V30 9254 H 862.326 -1.45958 -3.73493 0
M  V30 9255 H 858.916 -2.80526 -3.24042 0
M  V30 9256 H 863.1 -3.78549 -3.20958 0
M  V30 9257 H 858.356 -5.1987 -3.21785 0
M  V30 9258 H 862.53 -6.18584 -3.19885 0
M  V30 9259 H 860.157 -6.89642 -3.19841 0
M  V30 9260 N 861.732 1.21287 -1.00634 0
M  V30 9261 C 862.978 1.90671 -0.690822 0
M  V30 9262 C 863.311 1.77996 0.776592 0
M  V30 9263 O 862.586 1.15748 1.5631 0
M  V30 9264 C 862.869 3.42426 -1.11428 0
M  V30 9265 C 862.722 3.64086 -2.64124 0
M  V30 9266 C 864.041 4.34851 -0.677686 0
M  V30 9267 H 861.16 0.692419 -0.252439 0
M  V30 9268 H 863.802 1.42893 -1.25226 0
M  V30 9269 H 861.952 3.83249 -0.636586 0
M  V30 9270 H 863.624 3.32582 -3.19667 0
M  V30 9271 H 861.867 3.07906 -3.05576 0
M  V30 9272 H 862.538 4.7042 -2.88806 0
M  V30 9273 H 865.014 4.01619 -1.0882 0
M  V30 9274 H 863.89 5.39675 -1.00213 0
M  V30 9275 H 864.151 4.4009 0.421125 0
M  V30 9276 N 863.21 0.781244 1.36873 0
M  V30 9277 C 864.459 0.34652 1.98701 0
M  V30 9278 C 864.772 -1.08555 1.62712 0
M  V30 9279 O 865.978 -1.62213 2.17713 0
M  V30 9280 C 864.434 0.568611 3.5538 0
M  V30 9281 C 864.042 2.01156 4.003 0
M  V30 9282 C 865.786 0.197983 4.24038 0
M  V30 9283 C 863.693 2.18074 5.49725 0
M  V30 9284 H 862.623 0.125821 0.743428 0
M  V30 9285 H 865.274 0.961721 1.56279 0
M  V30 9286 H 863.656 -0.116185 3.9583 0
M  V30 9287 H 864.83 2.73209 3.71071 0
M  V30 9288 H 863.145 2.33967 3.44454 0
M  V30 9289 H 865.742 0.302778 5.33842 0
M  V30 9290 H 866.085 -0.852927 4.07469 0
M  V30 9291 H 866.618 0.835696 3.88923 0
M  V30 9292 H 863.357 3.21519 5.71232 0
M  V30 9293 H 862.877 1.50517 5.80607 0
M  V30 9294 H 864.556 1.98393 6.15832 0
M  V30 9295 N 864.689 -1.48329 0.532571 0
M  V30 9296 C 865.917 -2.069 0.00354299 0
M  V30 9297 C 866.332 -1.38876 -1.27902 0
M  V30 9298 O 865.689 -0.477119 -1.76153 0
M  V30 9299 C 865.74 -3.60821 -0.221416 0
M  V30 9300 O 865.461 -4.26291 1.01034 0
M  V30 9301 C 866.962 -4.36194 -0.790531 0
M  V30 9302 H 864.182 -0.670103 0.0346836 0
M  V30 9303 H 866.726 -1.90682 0.738955 0
M  V30 9304 H 864.881 -3.76636 -0.906884 0
M  V30 9305 H 865.295 -5.18475 0.792683 0
M  V30 9306 H 866.769 -5.44657 -0.897347 0
M  V30 9307 H 867.246 -4.00798 -1.79605 0
M  V30 9308 H 867.852 -4.25064 -0.141546 0
M  V30 9309 N 866.167 -0.267825 -1.55308 0
M  V30 9310 C 867.414 0.351036 -1.99434 0
M  V30 9311 C 867.742 1.56406 -1.15618 0
M  V30 9312 O 866.997 1.94548 -0.212045 0
M  V30 9313 C 867.296 0.784247 -3.48689 0
M  V30 9314 C 866.962 -0.323328 -4.49739 0
M  V30 9315 C 865.624 -0.627467 -4.77091 0
M  V30 9316 C 867.976 -1.07002 -5.10098 0
M  V30 9317 C 865.304 -1.682 -5.62073 0
M  V30 9318 C 867.656 -2.11422 -5.96224 0
M  V30 9319 C 866.32 -2.42479 -6.21901 0
M  V30 9320 H 865.59 0.128453 -0.729781 0
M  V30 9321 H 868.237 -0.380018 -1.87692 0
M  V30 9322 H 866.542 1.59485 -3.57871 0
M  V30 9323 H 868.239 1.2737 -3.80234 0
M  V30 9324 H 864.829 -0.0761528 -4.28532 0
M  V30 9325 H 869.013 -0.848302 -4.88996 0
M  V30 9326 H 864.269 -1.92772 -5.80215 0
M  V30 9327 H 868.443 -2.69759 -6.4203 0
M  V30 9328 H 866.07 -3.24328 -6.87543 0
M  V30 9329 N 867.645 1.57599 0.00500368 0
M  V30 9330 C 869.056 1.78462 0.54848 0
M  V30 9331 C 869.407 0.901869 1.74243 0
M  V30 9332 O 868.532 0.103014 2.16155 0
M  V30 9333 C 869.127 3.2365 1.00179 0
M  V30 9334 C 867.686 3.45627 1.49061 0
M  V30 9335 C 866.833 2.73794 0.439531 0
M  V30 9336 H 869.784 1.57151 -0.22118 0
M  V30 9337 H 869.805 3.31488 1.86805 0
M  V30 9338 H 869.317 3.87873 0.132607 0
M  V30 9339 H 867.418 2.86612 2.38085 0
M  V30 9340 H 867.531 4.54298 1.52152 0
M  V30 9341 H 865.895 2.38267 0.900043 0
M  V30 9342 H 866.678 3.40714 -0.420599 0
M  V30 9343 N 869.123 -0.277682 1.55134 0
M  V30 9344 C 870.539 -0.624625 1.46869 0
M  V30 9345 C 870.739 -1.89717 0.678958 0
M  V30 9346 O 869.795 -2.51739 0.195939 0
M  V30 9347 C 871.108 -0.755937 2.91043 0
M  V30 9348 C 872.656 -0.850299 3.01229 0
M  V30 9349 C 873.131 -1.01343 4.46647 0
M  V30 9350 N 874.622 -1.07906 4.50456 0
M  V30 9351 C 875.357 -1.224 5.60184 0
M  V30 9352 N 874.853 -1.33642 6.79788 0
M  V30 9353 N 876.646 -1.25473 5.47917 0
M  V30 9354 H 868.797 0.558102 2.04937 0
M  V30 9355 H 871.06 0.188228 0.929125 0
M  V30 9356 H 870.766 0.108593 3.51532 0
M  V30 9357 H 870.64 -1.6377 3.39793 0
M  V30 9358 H 873.027 -1.7053 2.40839 0
M  V30 9359 H 873.108 0.0559681 2.55739 0
M  V30 9360 H 872.752 -0.163102 5.07638 0
M  V30 9361 H 872.682 -1.93427 4.89789 0
M  V30 9362 H 875.173 -1.00477 3.64298 0
M  V30 9363 H 875.486 -1.44522 7.59166 0
M  V30 9364 H 873.831 -1.30655 6.82608 0
M  V30 9365 H 877.022 -1.16317 4.53418 0
M  V30 9366 H 877.195 -1.36424 6.33476 0
M  V30 9367 N 870.601 -1.47988 -0.541979 0
M  V30 9368 C 871.564 -1.61148 -1.62984 0
M  V30 9369 C 872.564 -0.48553 -1.53295 0
M  V30 9370 O 873.754 -0.751012 -1.5718 0
M  V30 9371 C 870.886 -1.57038 -3.02576 0
M  V30 9372 H 872.079 -2.58138 -1.52659 0
M  V30 9373 H 869.632 -1.36405 -0.763106 0
M  V30 9374 H 870.367 -0.614807 -3.18419 0
M  V30 9375 H 870.152 -2.38769 -3.11018 0
M  V30 9376 H 871.642 -1.69416 -3.81691 0
M  V30 9377 N 872.079 0.78992 -1.36375 0
M  V30 9378 C 873.309 1.57644 -1.33536 0
M  V30 9379 C 873.717 1.89007 0.0855075 0
M  V30 9380 O 873.06 1.50547 1.05267 0
M  V30 9381 C 873.122 2.92424 -2.09113 0
M  V30 9382 C 872.786 2.83793 -3.58205 0
M  V30 9383 C 873.783 2.56072 -4.52464 0
M  V30 9384 C 871.468 3.02386 -4.01084 0
M  V30 9385 C 873.462 2.47044 -5.87578 0
M  V30 9386 C 871.149 2.9298 -5.36289 0
M  V30 9387 C 872.147 2.65347 -6.29349 0
M  V30 9388 O 871.835 2.55935 -7.62071 0
M  V30 9389 H 871.567 0.495639 -0.459694 0
M  V30 9390 H 874.121 0.988354 -1.80058 0
M  V30 9391 H 872.351 3.53282 -1.57254 0
M  V30 9392 H 874.04 3.53693 -1.99139 0
M  V30 9393 H 874.806 2.4141 -4.2065 0
M  V30 9394 H 870.685 3.229 -3.29023 0
M  V30 9395 H 874.229 2.25396 -6.60184 0
M  V30 9396 H 870.126 3.07204 -5.67711 0
M  V30 9397 H 870.894 2.7142 -7.72187 0
M  V30 9398 N 873.557 1.20646 1.01402 0
M  V30 9399 C 874.507 0.925209 2.08384 0
M  V30 9400 C 875.491 -0.115994 1.60481 0
M  V30 9401 O 876.683 0.0917276 1.76762 0
M  V30 9402 C 873.812 0.48193 3.399 0
M  V30 9403 C 872.898 1.5567 3.94497 0
M  V30 9404 N 873.289 2.77971 4.2257 0
M  V30 9405 C 871.587 1.42347 4.22674 0
M  V30 9406 C 872.288 3.47317 4.66632 0
M  V30 9407 N 871.264 2.74736 4.69064 0
M  V30 9408 H 875.066 1.85452 2.28002 0
M  V30 9409 H 872.58 1.10084 1.19395 0
M  V30 9410 H 874.577 0.261835 4.16077 0
M  V30 9411 H 873.237 -0.440725 3.21695 0
M  V30 9412 H 874.248 3.14598 4.11398 0
M  V30 9413 H 870.925 0.565417 4.13654 0
M  V30 9414 H 872.315 4.51985 4.97151 0
M  V30 9415 N 875.035 -1.20752 1.01276 0
M  V30 9416 C 876.26 -1.94547 0.718769 0
M  V30 9417 C 876.685 -1.7404 -0.713563 0
M  V30 9418 O 876.043 -1.03221 -1.49047 0
M  V30 9419 C 876.091 -3.44823 1.05497 0
M  V30 9420 O 875.195 -4.12072 0.164516 0
M  V30 9421 H 874.536 -0.607931 0.267051 0
M  V30 9422 H 877.066 -1.53292 1.35509 0
M  V30 9423 H 877.076 -3.95427 1.00507 0
M  V30 9424 H 875.751 -3.59072 2.09858 0
M  V30 9425 H 874.328 -3.71909 0.271615 0
M  V30 9426 N 876.513 -0.788492 -1.36457 0
M  V30 9427 C 877.761 -0.359749 -1.98872 0
M  V30 9428 C 878.082 1.07197 -1.62892 0
M  V30 9429 O 877.352 1.73875 -0.902463 0
M  V30 9430 H 875.932 -0.130029 -0.735596 0
M  V30 9431 H 878.594 -1.01033 -1.66668 0
M  V30 9432 H 877.69 -0.450835 -3.08827 0
M  V30 9433 N 877.991 1.48044 -0.54043 0
M  V30 9434 C 879.238 2.02497 -0.0101567 0
M  V30 9435 C 879.566 1.41651 1.33286 0
M  V30 9436 O 878.821 0.555504 1.8765 0
M  V30 9437 C 879.12 3.57085 0.150008 0
M  V30 9438 C 878.786 4.36769 -1.11998 0
M  V30 9439 C 877.448 4.58261 -1.46801 0
M  V30 9440 C 879.8 4.82848 -1.96232 0
M  V30 9441 C 877.128 5.23079 -2.65717 0
M  V30 9442 C 879.48 5.48977 -3.14335 0
M  V30 9443 C 878.144 5.68705 -3.49472 0
M  V30 9444 H 877.414 0.740991 -0.00371661 0
M  V30 9445 H 880.061 1.77909 -0.708562 0
M  V30 9446 H 878.366 3.80572 0.931259 0
M  V30 9447 H 880.063 3.96851 0.575384 0
M  V30 9448 H 876.653 4.20309 -0.838957 0
M  V30 9449 H 880.837 4.66038 -1.70654 0
M  V30 9450 H 876.093 5.36549 -2.93129 0
M  V30 9451 H 880.267 5.83649 -3.79904 0
M  V30 9452 H 877.894 6.18703 -4.41713 0
M  V30 9453 N 879.47 0.276058 1.55163 0
M  V30 9454 C 880.418 -0.626978 2.2399 0
M  V30 9455 C 881.412 -1.15708 1.23725 0
M  V30 9456 O 882.618 -1.1106 1.41653 0
M  V30 9457 H 878.993 -0.220742 0.718872 0
M  V30 9458 H 880.964 -0.0236569 2.98391 0
M  V30 9459 C 879.713 -1.79935 2.97521 0
M  V30 9460 H 879.036 -1.40064 3.74463 0
M  V30 9461 H 880.476 -2.40781 3.48999 0
M  V30 9462 C 878.935 -2.68838 2.03046 0
M  V30 9463 O 879.465 -3.69224 1.58229 0
M  V30 9464 N 877.671 -2.36028 1.69527 0
M  V30 9465 H 877.218 -1.54442 2.06169 0
M  V30 9466 H 877.176 -2.95782 1.06586 0
M  V30 9467 N 880.948 -1.576 0.00335426 0
M  V30 9468 C 881.88 -2.0549 -1.01521 0
M  V30 9469 C 882.893 -0.973441 -1.30491 0
M  V30 9470 O 884.082 -1.25017 -1.27409 0
M  V30 9471 C 881.182 -2.44272 -2.34914 0
M  V30 9472 C 880.355 -3.75191 -2.24835 0
M  V30 9473 C 879.414 -4.00804 -3.40944 0
M  V30 9474 O 878.44 -4.71423 -3.18981 0
M  V30 9475 N 879.642 -3.48961 -4.63904 0
M  V30 9476 H 882.407 -2.93493 -0.60678 0
M  V30 9477 H 879.968 -1.60851 -0.18396 0
M  V30 9478 H 881.96 -2.58518 -3.11369 0
M  V30 9479 H 880.53 -1.6177 -2.67487 0
M  V30 9480 H 879.75 -3.70989 -1.3327 0
M  V30 9481 H 881.038 -4.61013 -2.15277 0
M  V30 9482 H 880.436 -2.9178 -4.84645 0
M  V30 9483 H 878.993 -3.68531 -5.37613 0
M  V30 9484 N 882.426 0.269451 -1.5528 0
M  V30 9485 C 883.674 0.998604 -1.75705 0
M  V30 9486 C 883.995 1.86691 -0.563175 0
M  V30 9487 O 883.265 1.91305 0.421811 0
M  V30 9488 H 881.845 0.371698 -0.647958 0
M  V30 9489 H 884.507 0.292826 -1.92688 0
M  V30 9490 H 883.603 1.63348 -2.6594 0
M  V30 9491 N 883.904 1.48273 0.534124 0
M  V30 9492 C 885.134 1.59503 1.31311 0
M  V30 9493 C 885.542 0.25284 1.87503 0
M  V30 9494 O 884.885 -0.767399 1.66903 0
M  V30 9495 C 884.947 2.57899 2.50456 0
M  V30 9496 C 884.611 4.03063 2.15382 0
M  V30 9497 C 885.608 4.90869 1.713 0
M  V30 9498 C 883.293 4.4857 2.26032 0
M  V30 9499 C 885.287 6.22209 1.38328 0
M  V30 9500 C 882.974 5.79932 1.92672 0
M  V30 9501 C 883.972 6.66574 1.4889 0
M  V30 9502 O 883.66 7.95492 1.15966 0
M  V30 9503 H 883.392 0.540695 0.405739 0
M  V30 9504 H 885.946 1.94794 0.651497 0
M  V30 9505 H 884.176 2.1772 3.19585 0
M  V30 9506 H 885.865 2.59008 3.12522 0
M  V30 9507 H 886.631 4.56951 1.62545 0
M  V30 9508 H 882.51 3.81321 2.59066 0
M  V30 9509 H 886.054 6.89792 1.04082 0
M  V30 9510 H 881.951 6.13386 2.01066 0
M  V30 9511 H 882.719 8.08207 1.29399 0
M  V30 9512 N 885.382 -0.782676 1.36792 0
M  V30 9513 C 886.33 -1.91698 1.31737 0
M  V30 9514 C 887.324 -1.68118 0.207994 0
M  V30 9515 O 888.53 -1.76042 0.375393 0
M  V30 9516 H 884.905 -0.630215 0.410284 0
M  V30 9517 H 886.876 -1.93078 2.27516 0
M  V30 9518 C 885.625 -3.28816 1.13029 0
M  V30 9519 H 884.948 -3.4753 1.97643 0
M  V30 9520 H 886.388 -4.08515 1.13541 0
M  V30 9521 C 884.847 -3.36497 -0.1647 0
M  V30 9522 O 885.377 -3.84822 -1.15216 0
M  V30 9523 N 883.583 -2.89828 -0.211678 0
M  V30 9524 H 883.13 -2.50693 0.59252 0
M  V30 9525 H 883.088 -2.95349 -1.07779 0
M  V30 9526 N 886.86 -1.21182 -1.00761 0
M  V30 9527 C 888.107 -1.02746 -1.74498 0
M  V30 9528 C 888.435 0.439344 -1.89473 0
M  V30 9529 O 887.69 1.34232 -1.42409 0
M  V30 9530 C 887.989 -1.6667 -3.16158 0
M  V30 9531 C 887.655 -3.16515 -3.21137 0
M  V30 9532 C 886.317 -3.57405 -3.22203 0
M  V30 9533 C 888.669 -4.12495 -3.18587 0
M  V30 9534 C 885.997 -4.92786 -3.18401 0
M  V30 9535 C 888.349 -5.47833 -3.16326 0
M  V30 9536 C 887.013 -5.88124 -3.157 0
M  V30 9537 H 886.283 -0.375974 -0.638533 0
M  V30 9538 H 888.93 -1.50736 -1.18114 0
M  V30 9539 H 887.235 -1.10966 -3.75758 0
M  V30 9540 H 888.932 -1.49911 -3.71924 0
M  V30 9541 H 885.522 -2.83947 -3.21048 0
M  V30 9542 H 889.706 -3.81932 -3.16925 0
M  V30 9543 H 884.962 -5.23253 -3.16253 0
M  V30 9544 H 889.136 -6.21942 -3.13306 0
M  V30 9545 H 886.763 -6.92995 -3.12508 0
M  V30 9546 N 888.338 1.20213 -1.01915 0
M  V30 9547 C 889.301 2.21307 -0.596327 0
M  V30 9548 C 890.301 1.57274 0.334879 0
M  V30 9549 O 891.491 1.73764 0.12322 0
M  V30 9550 C 888.623 3.40657 0.128808 0
M  V30 9551 H 889.816 2.60228 -1.49068 0
M  V30 9552 H 887.369 1.33721 -0.809226 0
M  V30 9553 H 888.104 3.07241 1.03796 0
M  V30 9554 H 887.889 3.88361 -0.540183 0
M  V30 9555 H 889.379 4.15564 0.411892 0
M  V30 9556 N 889.816 0.795718 1.36037 0
M  V30 9557 C 890.726 0.199784 2.33748 0
M  V30 9558 C 891.742 -0.651436 1.61345 0
M  V30 9559 O 892.918 -0.565743 1.93291 0
M  V30 9560 C 889.983 -0.650475 3.40543 0
M  V30 9561 C 889.044 0.219974 4.28736 0
M  V30 9562 C 888.277 -0.589798 5.30431 0
M  V30 9563 O 888.5 -1.82532 5.40406 0
M  V30 9564 O 887.434 0.0136187 6.01898 0
M  V30 9565 H 891.26 1.00782 2.8649 0
M  V30 9566 H 888.845 0.557293 1.38617 0
M  V30 9567 H 890.727 -1.13512 4.05824 0
M  V30 9568 H 889.402 -1.4363 2.9009 0
M  V30 9569 H 888.309 0.751516 3.66474 0
M  V30 9570 H 889.642 0.969468 4.82558 0
M  V30 9571 N 891.294 -1.47756 0.548274 0
M  V30 9572 C 892.257 -2.28379 -0.193857 0
M  V30 9573 C 893.257 -1.36436 -0.850986 0
M  V30 9574 O 894.447 -1.59154 -0.70822 0
M  V30 9575 C 891.579 -3.15858 -1.28243 0
M  V30 9576 H 892.772 -2.95458 0.514231 0
M  V30 9577 H 890.325 -1.53298 0.304879 0
M  V30 9578 H 891.06 -2.5345 -2.0232 0
M  V30 9579 H 890.845 -3.83512 -0.816148 0
M  V30 9580 H 892.335 -3.76627 -1.80393 0
M  V30 9581 N 892.772 -0.284283 -1.55015 0
M  V30 9582 C 894.018 0.330352 -2.00091 0
M  V30 9583 C 894.351 1.54814 -1.17244 0
M  V30 9584 O 893.626 1.92954 -0.244753 0
M  V30 9585 C 893.909 0.703492 -3.53161 0
M  V30 9586 C 893.762 -0.522275 -4.46758 0
M  V30 9587 C 895.081 1.53645 -4.12409 0
M  V30 9588 H 892.2 0.118599 -0.727395 0
M  V30 9589 H 894.842 -0.393054 -1.8589 0
M  V30 9590 H 892.992 1.31983 -3.65394 0
M  V30 9591 H 894.664 -1.16082 -4.46456 0
M  V30 9592 H 892.907 -1.15865 -4.1804 0
M  V30 9593 H 893.578 -0.217295 -5.51572 0
M  V30 9594 H 896.054 1.01583 -4.0351 0
M  V30 9595 H 894.93 1.76633 -5.19704 0
M  V30 9596 H 895.191 2.5204 -3.63219 0
M  V30 9597 N 894.251 1.57596 -0.0117121 0
M  V30 9598 C 895.199 2.1029 0.994035 0
M  V30 9599 C 896.193 1.02549 1.34833 0
M  V30 9600 O 897.399 1.21003 1.3326 0
M  V30 9601 H 893.774 0.671624 0.338268 0
M  V30 9602 H 895.745 2.93761 0.524147 0
M  V30 9603 C 894.494 2.63099 2.27319 0
M  V30 9604 H 893.817 3.45642 2.00927 0
M  V30 9605 H 895.257 3.03635 2.95942 0
M  V30 9606 C 893.716 1.55044 2.99104 0
M  V30 9607 O 894.246 0.940127 3.90544 0
M  V30 9608 N 892.452 1.27506 2.61133 0
M  V30 9609 H 891.999 1.77322 1.86855 0
M  V30 9610 H 891.957 0.554292 3.09475 0
M  V30 9611 N 895.729 -0.261212 1.5542 0
M  V30 9612 C 896.976 -0.99123 1.76581 0
M  V30 9613 C 897.304 -1.85854 0.573457 0
M  V30 9614 O 896.559 -1.90604 -0.443705 0
M  V30 9615 C 896.858 -1.89395 3.03091 0
M  V30 9616 C 896.524 -1.18318 4.351 0
M  V30 9617 C 895.186 -0.986688 4.70975 0
M  V30 9618 C 897.538 -0.678299 5.16767 0
M  V30 9619 C 894.866 -0.272788 5.86065 0
M  V30 9620 C 897.218 0.0220646 6.32596 0
M  V30 9621 C 895.882 0.230161 6.67103 0
M  V30 9622 H 895.152 -0.362717 0.646156 0
M  V30 9623 H 897.799 -0.262506 1.89692 0
M  V30 9624 H 896.104 -2.68927 2.8493 0
M  V30 9625 H 897.801 -2.46022 3.16661 0
M  V30 9626 H 894.391 -1.34625 4.06908 0
M  V30 9627 H 898.575 -0.817691 4.89518 0
M  V30 9628 H 893.831 -0.10095 6.11317 0
M  V30 9629 H 898.005 0.420981 6.95126 0
M  V30 9630 H 895.632 0.785312 7.56133 0
M  V30 9631 N 897.207 -1.48554 -0.526253 0
M  V30 9632 C 898.447 -1.58362 -1.29232 0
M  V30 9633 C 898.811 -0.253353 -1.90321 0
M  V30 9634 O 900.012 -0.226439 -2.67845 0
M  V30 9635 C 898.283 -2.69294 -2.3498 0
M  V30 9636 S 899.842 -2.98891 -3.21262 0
M  V30 9637 H 896.66 -0.558859 -0.439543 0
M  V30 9638 H 899.262 -1.86094 -0.599099 0
M  V30 9639 H 897.966 -3.64504 -1.88587 0
M  V30 9640 H 897.497 -2.43475 -3.09004 0
M  V30 9641 H 899.512 -2.38475 -4.35137 0
M  V30 9642 N 898.685 0.775411 -1.37205 0
M  V30 9643 C 899.913 1.56446 -1.35397 0
M  V30 9644 C 900.328 1.887 0.0615437 0
M  V30 9645 O 899.685 1.51178 1.02233 0
M  V30 9646 C 899.736 2.87697 -2.18889 0
M  V30 9647 O 899.457 2.56828 -3.54924 0
M  V30 9648 C 900.958 3.81944 -2.25019 0
M  V30 9649 H 898.178 0.484792 -0.463916 0
M  V30 9650 H 900.722 0.961346 -1.80495 0
M  V30 9651 H 898.877 3.44442 -1.7731 0
M  V30 9652 H 899.291 3.40851 -3.98649 0
M  V30 9653 H 900.765 4.71055 -2.87769 0
M  V30 9654 H 901.242 4.20811 -1.25757 0
M  V30 9655 H 901.848 3.3113 -2.66895 0
M  V30 9656 N 900.163 1.21714 1.00117 0
M  V30 9657 C 901.126 0.981338 2.07129 0
M  V30 9658 C 902.126 -0.0491116 1.60725 0
M  V30 9659 O 903.316 0.188555 1.73177 0
M  V30 9660 C 900.448 0.480608 3.37495 0
M  V30 9661 H 901.641 1.93075 2.29482 0
M  V30 9662 H 899.194 1.03467 1.17151 0
M  V30 9663 H 899.929 -0.473552 3.20824 0
M  V30 9664 H 899.714 1.22393 3.72508 0
M  V30 9665 H 901.204 0.33561 4.16249 0
M  V30 9666 N 901.641 -1.19671 1.02551 0
M  V30 9667 C 902.918 -1.85014 0.634771 0
M  V30 9668 C 903.298 -1.91574 -0.886706 0
M  V30 9669 O 902.646 -1.43022 -1.78205 0
M  V30 9670 C 902.856 -3.24167 1.29292 0
M  V30 9671 C 904.204 -4.00363 1.41402 0
M  V30 9672 O 905.228 -3.33553 1.24983 0
M  V30 9673 O 904.087 -5.2003 1.6802 0
M  V30 9674 H 901.181 -0.797147 0.220196 0
M  V30 9675 H 903.727 -1.27188 1.12345 0
M  V30 9676 H 902.499 -3.14208 2.33215 0
M  V30 9677 H 902.122 -3.89634 0.791895 0
M  V30 9678 N 903.119 -0.802921 -1.35613 0
M  V30 9679 C 904.365 -0.391259 -1.99601 0
M  V30 9680 C 904.72 1.02922 -1.62557 0
M  V30 9681 O 904.013 1.70357 -0.876878 0
M  V30 9682 C 904.207 -0.507806 -3.53774 0
M  V30 9683 C 904.036 -1.93807 -4.05794 0
M  V30 9684 C 902.806 -2.56564 -4.3532 0
M  V30 9685 C 905.004 -2.90211 -4.24596 0
M  V30 9686 N 902.986 -3.91038 -4.73247 0
M  V30 9687 C 904.357 -4.09548 -4.65479 0
M  V30 9688 C 906.412 -2.87091 -4.06796 0
M  V30 9689 C 905.115 -5.26191 -4.90424 0
M  V30 9690 C 907.141 -4.02933 -4.32896 0
M  V30 9691 C 906.503 -5.21017 -4.74047 0
M  V30 9692 H 902.602 -0.190867 -0.758349 0
M  V30 9693 H 905.186 -1.04338 -1.64382 0
M  V30 9694 H 903.357 0.114306 -3.88232 0
M  V30 9695 H 905.089 -0.0710855 -4.04638 0
M  V30 9696 H 901.844 -2.07945 -4.25507 0
M  V30 9697 H 902.268 -4.60262 -4.96475 0
M  V30 9698 H 906.91 -1.96951 -3.74126 0
M  V30 9699 H 904.628 -6.16906 -5.2197 0
M  V30 9700 H 908.214 -4.01895 -4.2068 0
M  V30 9701 H 907.094 -6.09165 -4.93849 0
M  V30 9702 N 904.597 1.47463 -0.556102 0
M  V30 9703 C 905.527 2.32801 0.180497 0
M  V30 9704 C 906.508 1.43721 0.909848 0
M  V30 9705 O 907.693 1.72578 0.89053 0
M  V30 9706 C 904.823 3.25478 1.21167 0
M  V30 9707 C 903.777 4.2379 0.598846 0
M  V30 9708 C 903.103 5.05783 1.73457 0
M  V30 9709 C 904.403 5.20387 -0.446659 0
M  V30 9710 H 906.097 2.94636 -0.531956 0
M  V30 9711 H 903.643 1.41683 -0.257267 0
M  V30 9712 H 905.596 3.8402 1.73513 0
M  V30 9713 H 904.32 2.61695 1.95405 0
M  V30 9714 H 902.979 3.66472 0.0966897 0
M  V30 9715 H 902.627 4.38405 2.46596 0
M  V30 9716 H 902.327 5.72343 1.33031 0
M  V30 9717 H 903.851 5.67183 2.26131 0
M  V30 9718 H 905.265 5.73299 -0.00930019 0
M  V30 9719 H 903.662 5.95143 -0.769735 0
M  V30 9720 H 904.732 4.65932 -1.34295 0
M  V30 9721 N 906.075 0.2925 1.54862 0
M  V30 9722 C 907.486 -0.201841 1.85606 0
M  V30 9723 C 907.837 -1.54093 1.21449 0
M  V30 9724 O 906.962 -2.10327 0.509079 0
M  V30 9725 C 907.557 -0.373011 3.3674 0
M  V30 9726 C 906.116 -0.811574 3.67547 0
M  V30 9727 C 905.263 0.0850583 2.7717 0
M  V30 9728 H 908.214 0.513774 1.50153 0
M  V30 9729 H 908.235 -1.20892 3.60785 0
M  V30 9730 H 907.747 0.601751 3.83407 0
M  V30 9731 H 905.848 -1.79719 3.26392 0
M  V30 9732 H 905.961 -0.636853 4.74848 0
M  V30 9733 H 904.325 -0.434224 2.50971 0
M  V30 9734 H 905.108 1.05602 3.26654 0
M  V30 9735 N 907.553 -1.57587 0.0200696 0
M  V30 9736 C 908.516 -2.08595 -0.949767 0
M  V30 9737 C 909.516 -0.999215 -1.25985 0
M  V30 9738 O 910.706 -1.26115 -1.2017 0
M  V30 9739 C 907.838 -2.54424 -2.26895 0
M  V30 9740 H 909.031 -2.95563 -0.508161 0
M  V30 9741 H 906.584 -1.54631 -0.227798 0
M  V30 9742 H 907.319 -1.70758 -2.75703 0
M  V30 9743 H 907.104 -3.3381 -2.05702 0
M  V30 9744 H 908.594 -2.94144 -2.96427 0
M  V30 9745 N 909.032 0.252966 -1.55557 0
M  V30 9746 C 910.28 0.979912 -1.76754 0
M  V30 9747 C 910.601 1.86083 -0.582944 0
M  V30 9748 O 909.871 1.91742 0.401497 0
M  V30 9749 H 908.451 0.364805 -0.651864 0
M  V30 9750 H 911.113 0.272372 -1.92987 0
M  V30 9751 H 910.209 1.60518 -2.67657 0
M  V30 9752 N 910.51 1.48831 0.518367 0
M  V30 9753 C 911.926 1.35209 0.847979 0
M  V30 9754 C 912.126 0.371927 1.98038 0
M  V30 9755 O 911.182 -0.202681 2.51685 0
M  V30 9756 C 912.495 2.7552 1.20455 0
M  V30 9757 C 914.043 2.84094 1.31377 0
M  V30 9758 C 914.518 4.25132 1.70372 0
M  V30 9759 N 916.009 4.27861 1.77453 0
M  V30 9760 C 916.744 5.3394 2.09035 0
M  V30 9761 N 916.24 6.50285 2.3896 0
M  V30 9762 N 918.033 5.21343 2.10139 0
M  V30 9763 H 910.184 2.11166 -0.228624 0
M  V30 9764 H 912.447 0.94717 -0.0396599 0
M  V30 9765 H 912.153 3.48861 0.445991 0
M  V30 9766 H 912.027 3.09785 2.15204 0
M  V30 9767 H 914.414 2.11001 2.06307 0
M  V30 9768 H 914.495 2.53433 0.347203 0
M  V30 9769 H 914.139 4.98745 0.959975 0
M  V30 9770 H 914.069 4.53245 2.68098 0
M  V30 9771 H 916.56 3.43945 1.56557 0
M  V30 9772 H 916.873 7.26961 2.62196 0
M  V30 9773 H 915.218 6.5354 2.36454 0
M  V30 9774 H 918.409 4.29462 1.86225 0
M  V30 9775 H 918.582 6.04112 2.34419 0
M  V30 9776 N 911.988 -0.768124 1.37614 0
M  V30 9777 C 912.92 -1.89076 1.29548 0
M  V30 9778 C 913.933 -1.61433 0.21056 0
M  V30 9779 O 915.122 -1.72283 0.466992 0
M  V30 9780 C 912.222 -3.24388 0.981102 0
M  V30 9781 C 911.395 -3.79649 2.17222 0
M  V30 9782 C 910.454 -4.93444 1.82754 0
M  V30 9783 O 909.48 -5.0884 2.5509 0
M  V30 9784 N 910.682 -5.75319 0.773819 0
M  V30 9785 H 913.447 -1.9651 2.26283 0
M  V30 9786 H 911.008 -0.947399 1.31286 0
M  V30 9787 H 913 -3.98038 0.731301 0
M  V30 9788 H 911.57 -3.12433 0.102203 0
M  V30 9789 H 910.79 -2.97735 2.58355 0
M  V30 9790 H 912.078 -4.13302 2.96748 0
M  V30 9791 H 911.476 -5.65433 0.173644 0
M  V30 9792 H 910.033 -6.4918 0.583882 0
M  V30 9793 N 913.466 -1.22244 -0.994698 0
M  V30 9794 C 914.706 -1.05747 -1.7492 0
M  V30 9795 C 915.07 0.4007 -1.87772 0
M  V30 9796 O 916.271 0.686469 -2.59887 0
M  V30 9797 C 914.542 -1.7471 -3.11787 0
M  V30 9798 S 916.101 -1.73604 -4.02998 0
M  V30 9799 H 912.919 -0.378731 -0.601734 0
M  V30 9800 H 915.521 -1.55155 -1.18942 0
M  V30 9801 H 914.225 -2.79972 -3.00073 0
M  V30 9802 H 913.756 -1.25525 -3.72836 0
M  V30 9803 H 915.771 -0.784445 -4.8996 0
M  V30 9804 N 914.944 1.19125 -1.03184 0
M  V30 9805 C 916.193 1.8821 -0.725264 0
M  V30 9806 C 916.506 1.80674 0.749411 0
M  V30 9807 O 917.712 2.45037 1.16915 0
M  V30 9808 C 916.168 3.37607 -1.24697 0
M  V30 9809 C 915.776 3.53693 -2.74964 0
M  V30 9810 C 917.52 4.12149 -1.01652 0
M  V30 9811 C 915.427 4.97001 -3.20538 0
M  V30 9812 H 914.357 0.704916 -0.267599 0
M  V30 9813 H 917.008 1.34663 -1.24652 0
M  V30 9814 H 915.39 3.90569 -0.653614 0
M  V30 9815 H 916.564 3.11046 -3.39981 0
M  V30 9816 H 914.879 2.92544 -2.96322 0
M  V30 9817 H 917.476 5.17837 -1.33226 0
M  V30 9818 H 917.819 4.16274 0.0465712 0
M  V30 9819 H 918.352 3.65334 -1.57403 0
M  V30 9820 H 915.091 4.9804 -4.26189 0
M  V30 9821 H 914.611 5.40398 -2.60251 0
M  V30 9822 H 916.29 5.65669 -3.14049 0
M  V30 9823 N 916.422 0.810101 1.35185 0
M  V30 9824 C 917.332 0.224565 2.33523 0
M  V30 9825 C 918.348 -0.634287 1.62027 0
M  V30 9826 O 919.524 -0.545211 1.9388 0
M  V30 9827 C 916.589 -0.614319 3.41214 0
M  V30 9828 C 915.65 0.265435 4.28479 0
M  V30 9829 C 914.883 -0.533506 5.31027 0
M  V30 9830 O 915.106 -1.7679 5.42311 0
M  V30 9831 O 914.04 0.0774573 6.0185 0
M  V30 9832 H 917.866 1.03815 2.85405 0
M  V30 9833 H 915.451 0.571964 1.38018 0
M  V30 9834 H 917.333 -1.09201 4.07005 0
M  V30 9835 H 916.008 -1.40545 2.91597 0
M  V30 9836 H 914.915 0.790343 3.65656 0
M  V30 9837 H 916.248 1.0206 4.81503 0
M  V30 9838 N 917.9 -1.47166 0.563914 0
M  V30 9839 C 918.85 -2.27116 -0.20055 0
M  V30 9840 C 919.834 -1.34756 -0.879177 0
M  V30 9841 O 921.026 -1.59064 -0.776377 0
M  V30 9842 C 918.155 -3.20676 -1.22565 0
M  V30 9843 C 917.241 -4.20517 -0.550092 0
M  V30 9844 N 917.632 -5.04343 0.383662 0
M  V30 9845 C 915.93 -4.38708 -0.803186 0
M  V30 9846 C 916.631 -5.76491 0.776718 0
M  V30 9847 N 915.607 -5.43444 0.130047 0
M  V30 9848 H 919.409 -2.89312 0.517275 0
M  V30 9849 H 916.923 -1.57787 0.384334 0
M  V30 9850 H 918.92 -3.76643 -1.78733 0
M  V30 9851 H 917.58 -2.60038 -1.94449 0
M  V30 9852 H 918.591 -5.1232 0.758192 0
M  V30 9853 H 915.268 -3.89235 -1.51003 0
M  V30 9854 H 916.658 -6.5391 1.54437 0
M  V30 9855 N 919.378 -0.300708 -1.54705 0
M  V30 9856 C 920.608 0.310819 -2.04249 0
M  V30 9857 C 921.016 1.4809 -1.17754 0
M  V30 9858 O 920.359 1.82654 -0.195779 0
M  V30 9859 C 920.421 0.83014 -3.49784 0
M  V30 9860 C 920.085 -0.214628 -4.56496 0
M  V30 9861 C 921.082 -1.04298 -5.09331 0
M  V30 9862 C 918.767 -0.356242 -5.01035 0
M  V30 9863 C 920.761 -1.99889 -6.05246 0
M  V30 9864 C 918.448 -1.3156 -5.96771 0
M  V30 9865 C 919.446 -2.1354 -6.4876 0
M  V30 9866 O 919.134 -3.07849 -7.4262 0
M  V30 9867 H 918.866 0.0715341 -0.672204 0
M  V30 9868 H 921.42 -0.438179 -2.00672 0
M  V30 9869 H 919.65 1.62966 -3.50684 0
M  V30 9870 H 921.339 1.35752 -3.82526 0
M  V30 9871 H 922.105 -0.944439 -4.75716 0
M  V30 9872 H 917.984 0.271916 -4.60197 0
M  V30 9873 H 921.528 -2.63917 -6.45751 0
M  V30 9874 H 917.425 -1.41486 -6.29803 0
M  V30 9875 H 918.193 -3.02824 -7.60421 0
M  V30 9876 N 920.856 1.57574 -0.0284266 0
M  V30 9877 C 922.272 1.56194 0.327958 0
M  V30 9878 C 922.472 1.03397 1.72949 0
M  V30 9879 O 921.528 0.680392 2.4316 0
M  V30 9880 C 922.841 3.00177 0.177196 0
M  V30 9881 C 924.389 3.12 0.250014 0
M  V30 9882 C 924.864 4.57821 0.128049 0
M  V30 9883 N 926.355 4.6283 0.185054 0
M  V30 9884 C 927.09 5.73286 0.114454 0
M  V30 9885 N 926.586 6.928 -0.00719225 0
M  V30 9886 N 928.379 5.61848 0.16839 0
M  V30 9887 H 920.53 1.90224 -0.944921 0
M  V30 9888 H 922.793 0.874987 -0.364832 0
M  V30 9889 H 922.499 3.42753 -0.788224 0
M  V30 9890 H 922.373 3.65101 0.94768 0
M  V30 9891 H 924.76 2.69337 1.20589 0
M  V30 9892 H 924.841 2.49799 -0.550835 0
M  V30 9893 H 924.485 5.01165 -0.824407 0
M  V30 9894 H 924.415 5.18001 0.947753 0
M  V30 9895 H 926.906 3.76867 0.279247 0
M  V30 9896 H 927.219 7.72781 -0.0543903 0
M  V30 9897 H 925.564 6.94987 -0.0419648 0
M  V30 9898 H 928.755 4.67367 0.261821 0
M  V30 9899 H 928.928 6.47907 0.109908 0
M  V30 9900 N 922.334 -0.244713 1.55689 0
M  V30 9901 C 923.75 -0.593331 1.48161 0
M  V30 9902 C 923.95 -1.88234 0.719047 0
M  V30 9903 O 923.006 -2.51266 0.249292 0
M  V30 9904 C 924.319 -0.694032 2.92581 0
M  V30 9905 C 925.867 -0.786213 3.02965 0
M  V30 9906 C 926.342 -0.918457 4.48696 0
M  V30 9907 N 927.833 -0.983272 4.52643 0
M  V30 9908 C 928.568 -1.1049 5.62654 0
M  V30 9909 N 928.064 -1.19193 6.8247 0
M  V30 9910 N 929.857 -1.13823 5.50455 0
M  V30 9911 H 922.008 0.601446 2.03707 0
M  V30 9912 H 924.271 0.207894 0.924924 0
M  V30 9913 H 923.977 0.183133 3.51223 0
M  V30 9914 H 923.851 -1.56525 3.4319 0
M  V30 9915 H 926.238 -1.65383 2.44402 0
M  V30 9916 H 926.319 0.110202 2.55563 0
M  V30 9917 H 925.963 -0.0553881 5.0787 0
M  V30 9918 H 925.893 -1.82994 4.93782 0
M  V30 9919 H 928.384 -0.927269 3.66347 0
M  V30 9920 H 928.697 -1.28387 7.62061 0
M  V30 9921 H 927.042 -1.16147 6.85226 0
M  V30 9922 H 930.233 -1.06673 4.55783 0
M  V30 9923 H 930.406 -1.22957 6.36228 0
M  V30 9924 N 923.813 -1.49104 -0.510467 0
M  V30 9925 C 924.743 -1.67981 -1.62187 0
M  V30 9926 C 925.724 -0.528529 -1.6168 0
M  V30 9927 O 926.909 -0.763305 -1.7857 0
M  V30 9928 C 924.039 -1.73755 -3.0071 0
M  V30 9929 C 922.993 -2.88579 -3.1608 0
M  V30 9930 C 922.319 -2.79457 -4.5586 0
M  V30 9931 C 923.619 -4.29638 -2.97 0
M  V30 9932 H 925.313 -2.61029 -1.46643 0
M  V30 9933 H 922.859 -1.25615 -0.704042 0
M  V30 9934 H 924.812 -1.85548 -3.78352 0
M  V30 9935 H 923.536 -0.772996 -3.17321 0
M  V30 9936 H 922.195 -2.76372 -2.40861 0
M  V30 9937 H 921.843 -1.80929 -4.69333 0
M  V30 9938 H 921.543 -3.56518 -4.67086 0
M  V30 9939 H 923.067 -2.93245 -5.35574 0
M  V30 9940 H 924.481 -4.42575 -3.64418 0
M  V30 9941 H 922.878 -5.07847 -3.19704 0
M  V30 9942 H 923.948 -4.44741 -1.93219 0
M  V30 9943 N 925.291 0.760815 -1.38019 0
M  V30 9944 C 926.707 1.06289 -1.19058 0
M  V30 9945 C 926.907 2.01471 -0.0342603 0
M  V30 9946 O 925.963 2.44713 0.62224 0
M  V30 9947 C 927.276 1.6499 -2.51394 0
M  V30 9948 C 928.824 1.77196 -2.58013 0
M  V30 9949 C 929.299 2.3931 -3.90506 0
M  V30 9950 N 930.79 2.46749 -3.92007 0
M  V30 9951 C 931.525 2.95687 -4.91281 0
M  V30 9952 N 931.021 3.44715 -6.00952 0
M  V30 9953 N 932.814 2.94661 -4.78677 0
M  V30 9954 H 924.965 0.129045 -2.12008 0
M  V30 9955 H 927.228 0.119878 -0.94039 0
M  V30 9956 H 926.934 1.0252 -3.36426 0
M  V30 9957 H 926.808 2.64146 -2.6927 0
M  V30 9958 H 929.195 2.38796 -1.7338 0
M  V30 9959 H 929.276 0.767645 -2.4401 0
M  V30 9960 H 928.92 1.78346 -4.75558 0
M  V30 9961 H 928.85 3.40369 -4.01817 0
M  V30 9962 H 931.341 2.12064 -3.12789 0
M  V30 9963 H 931.654 3.80492 -6.72641 0
M  V30 9964 H 929.999 3.42791 -6.04582 0
M  V30 9965 H 933.19 2.55665 -3.92113 0
M  V30 9966 H 933.363 3.32489 -5.56197 0
M  V30 9967 N 926.769 1.22769 0.988202 0
M  V30 9968 C 928.185 0.988665 1.2529 0
M  V30 9969 C 928.385 -0.314938 1.99024 0
M  V30 9970 O 927.441 -1.03637 2.30251 0
M  V30 9971 C 928.754 2.19046 2.06009 0
M  V30 9972 C 930.302 2.23452 2.19176 0
M  V30 9973 C 930.777 3.43196 3.03283 0
M  V30 9974 N 932.268 3.43387 3.10869 0
M  V30 9975 C 933.003 4.32693 3.7625 0
M  V30 9976 N 932.499 5.32224 4.43519 0
M  V30 9977 N 934.292 4.20457 3.73058 0
M  V30 9978 H 926.443 2.06575 0.494014 0
M  V30 9979 H 928.706 0.905452 0.28082 0
M  V30 9980 H 928.412 3.13607 1.59197 0
M  V30 9981 H 928.286 2.19492 3.06763 0
M  V30 9982 H 930.673 1.29436 2.65199 0
M  V30 9983 H 930.754 2.27042 1.17836 0
M  V30 9984 H 930.398 4.37515 2.57959 0
M  V30 9985 H 930.328 3.36847 4.04774 0
M  V30 9986 H 932.819 2.71368 2.62998 0
M  V30 9987 H 933.132 5.9664 4.91163 0
M  V30 9988 H 931.477 5.36133 4.42252 0
M  V30 9989 H 934.668 3.41949 3.19669 0
M  V30 9990 H 934.841 4.90261 4.23731 0
M  V30 9991 N 928.247 -1.18576 1.03814 0
M  V30 9992 C 929.477 -1.92158 0.758864 0
M  V30 9993 C 929.885 -1.76267 -0.687498 0
M  V30 9994 O 929.228 -1.08806 -1.4801 0
M  V30 9995 C 929.29 -3.44063 1.04217 0
M  V30 9996 C 928.954 -3.8373 2.48193 0
M  V30 9997 C 929.951 -3.87722 3.46363 0
M  V30 9998 C 927.636 -4.151 2.82838 0
M  V30 9999 C 929.63 -4.2253 4.77229 0
M  V30 10000 C 927.317 -4.49578 4.13911 0
M  V30 10001 C 928.315 -4.53269 5.10917 0
M  V30 10002 O 928.003 -4.86945 6.39641 0
M  V30 10003 H 927.735 -0.61694 0.276335 0
M  V30 10004 H 930.289 -1.51388 1.38819 0
M  V30 10005 H 928.519 -3.85061 0.355709 0
M  V30 10006 H 930.208 -3.9889 0.751091 0
M  V30 10007 H 930.974 -3.63627 3.20936 0
M  V30 10008 H 926.853 -4.11406 2.08006 0
M  V30 10009 H 930.397 -4.25326 5.52941 0
M  V30 10010 H 926.294 -4.73133 4.39107 0
M  V30 10011 H 927.062 -5.04857 6.44253 0
M  V30 10012 N 929.725 -0.817259 -1.34754 0
M  V30 10013 C 930.965 -0.408429 -2.00278 0
M  V30 10014 C 931.329 1.00818 -1.634 0
M  V30 10015 O 932.53 1.51959 -2.21725 0
M  V30 10016 C 930.801 -0.598219 -3.52358 0
M  V30 10017 S 932.36 -0.281395 -4.37897 0
M  V30 10018 H 929.178 -0.154587 -0.693991 0
M  V30 10019 H 931.78 -1.06184 -1.6415 0
M  V30 10020 H 930.484 -1.62901 -3.76685 0
M  V30 10021 H 930.015 0.0701299 -3.93337 0
M  V30 10022 H 932.03 0.907024 -4.8784 0
M  V30 10023 N 931.203 1.46865 -0.571711 0
M  V30 10024 C 932.449 2.0273 -0.0531858 0
M  V30 10025 C 932.782 1.44353 1.29907 0
M  V30 10026 O 932.057 0.604488 1.84868 0
M  V30 10027 C 932.34 3.60092 0.0243831 0
M  V30 10028 C 932.193 4.28874 -1.35599 0
M  V30 10029 C 933.512 4.33994 0.730563 0
M  V30 10030 H 930.631 0.736706 -0.0208018 0
M  V30 10031 H 933.273 1.75132 -0.736794 0
M  V30 10032 H 931.423 3.83736 0.606565 0
M  V30 10033 H 933.095 4.16527 -1.98249 0
M  V30 10034 H 931.338 3.88664 -1.92674 0
M  V30 10035 H 932.009 5.37561 -1.25429 0
M  V30 10036 H 934.485 4.1543 0.236098 0
M  V30 10037 H 933.361 5.43699 0.753836 0
M  V30 10038 H 933.622 4.04257 1.78967 0
M  V30 10039 N 932.681 0.308908 1.54543 0
M  V30 10040 C 933.928 -0.298036 2.00295 0
M  V30 10041 C 934.256 -1.53285 1.19724 0
M  V30 10042 O 933.511 -1.93917 0.263551 0
M  V30 10043 C 933.81 -0.691522 3.50646 0
M  V30 10044 C 933.476 0.442454 4.48724 0
M  V30 10045 C 932.138 0.753739 4.7526 0
M  V30 10046 C 934.49 1.20488 5.07082 0
M  V30 10047 C 931.818 1.83044 5.57415 0
M  V30 10048 C 934.17 2.27156 5.90409 0
M  V30 10049 C 932.834 2.58882 6.15253 0
M  V30 10050 H 932.104 -0.109059 0.73293 0
M  V30 10051 H 934.751 0.429647 1.86618 0
M  V30 10052 H 933.056 -1.49941 3.61974 0
M  V30 10053 H 934.753 -1.17244 3.83477 0
M  V30 10054 H 931.343 0.189744 4.2818 0
M  V30 10055 H 935.527 0.977653 4.86575 0
M  V30 10056 H 930.783 2.08088 5.749 0
M  V30 10057 H 934.957 2.86687 6.34652 0
M  V30 10058 H 932.584 3.42443 6.78702 0
M  V30 10059 N 934.159 -1.57557 0.0367827 0
M  V30 10060 C 935.384 -1.96828 -0.653707 0
M  V30 10061 C 935.809 -0.913559 -1.64425 0
M  V30 10062 O 935.167 0.124749 -1.8087 0
M  V30 10063 C 935.215 -3.35189 -1.32969 0
M  V30 10064 O 934.319 -3.32095 -2.44513 0
M  V30 10065 H 933.66 -0.64157 -0.171124 0
M  V30 10066 H 936.19 -2.04351 0.100912 0
M  V30 10067 H 936.2 -3.71593 -1.68472 0
M  V30 10068 H 934.875 -4.11496 -0.603654 0
M  V30 10069 H 933.452 -3.07418 -2.11065 0
M  V30 10070 N 935.637 0.236453 -1.55816 0
M  V30 10071 C 936.587 1.29603 -1.87582 0
M  V30 10072 C 937.571 1.42999 -0.737566 0
M  V30 10073 O 938.763 1.46065 -0.999701 0
M  V30 10074 C 935.892 2.64945 -2.1831 0
M  V30 10075 C 934.978 2.55511 -3.38489 0
M  V30 10076 N 935.369 2.15716 -4.57494 0
M  V30 10077 C 933.667 2.86502 -3.41808 0
M  V30 10078 C 934.368 2.17169 -5.39641 0
M  V30 10079 N 933.344 2.5708 -4.78969 0
M  V30 10080 H 937.146 0.979016 -2.77115 0
M  V30 10081 H 934.66 0.445058 -1.56183 0
M  V30 10082 H 936.657 3.41426 -2.39236 0
M  V30 10083 H 935.317 2.97504 -1.30082 0
M  V30 10084 H 936.328 1.87089 -4.82927 0
M  V30 10085 H 933.005 3.23533 -2.6388 0
M  V30 10086 H 934.395 1.88653 -6.44872 0
M  V30 10087 N 937.115 1.49373 0.502552 0
M  V30 10088 C 938.025 1.68659 1.63068 0
M  V30 10089 C 939.041 0.569182 1.64427 0
M  V30 10090 O 940.217 0.843695 1.82876 0
M  V30 10091 C 937.282 1.74745 2.99441 0
M  V30 10092 C 936.343 2.98311 3.08721 0
M  V30 10093 C 935.576 3.04097 4.38589 0
M  V30 10094 O 935.799 2.17519 5.27297 0
M  V30 10095 O 934.733 3.96544 4.52809 0
M  V30 10096 H 938.559 2.64226 1.49727 0
M  V30 10097 H 936.144 1.33096 0.67867 0
M  V30 10098 H 938.026 1.8111 3.80496 0
M  V30 10099 H 936.701 0.823565 3.13048 0
M  V30 10100 H 935.608 2.97465 2.2686 0
M  V30 10101 H 936.941 3.90174 3.00041 0
M  V30 10102 N 938.594 -0.753485 1.38421 0
M  V30 10103 C 939.504 -1.89797 1.37892 0
M  V30 10104 C 940.52 -1.71797 0.276023 0
M  V30 10105 O 941.696 -1.94718 0.514464 0
M  V30 10106 C 938.761 -3.25166 1.20284 0
M  V30 10107 C 937.822 -3.55691 2.4038 0
M  V30 10108 C 937.055 -4.84601 2.23602 0
M  V30 10109 O 937.278 -5.56985 1.22979 0
M  V30 10110 O 936.212 -5.14605 3.12194 0
M  V30 10111 H 940.038 -1.93197 2.34326 0
M  V30 10112 H 937.623 -0.898775 1.19342 0
M  V30 10113 H 939.505 -4.06099 1.12525 0
M  V30 10114 H 938.18 -3.22577 0.269352 0
M  V30 10115 H 937.087 -2.74919 2.53714 0
M  V30 10116 H 938.42 -3.6304 3.32359 0
M  V30 10117 N 940.072 -1.23292 -0.981677 0
M  V30 10118 C 941.002 -1.03738 -2.09191 0
M  V30 10119 C 941.983 0.0453041 -1.7004 0
M  V30 10120 O 943.168 -0.119092 -1.93834 0
M  V30 10121 C 940.298 -0.626426 -3.41604 0
M  V30 10122 C 939.252 -1.65631 -3.94652 0
M  V30 10123 C 938.578 -1.10084 -5.23245 0
M  V30 10124 C 939.878 -3.04903 -4.24066 0
M  V30 10125 H 941.572 -1.966 -2.25807 0
M  V30 10126 H 939.118 -0.946656 -1.0851 0
M  V30 10127 H 941.071 -0.476689 -4.18695 0
M  V30 10128 H 939.795 0.337873 -3.24848 0
M  V30 10129 H 938.454 -1.79402 -3.19704 0
M  V30 10130 H 938.102 -0.127562 -5.02838 0
M  V30 10131 H 937.802 -1.78896 -5.59705 0
M  V30 10132 H 939.326 -0.962928 -6.02959 0
M  V30 10133 H 940.74 -2.94441 -4.91912 0
M  V30 10134 H 939.137 -3.70941 -4.71724 0
M  V30 10135 H 940.207 -3.53991 -3.31389 0
M  V30 10136 N 941.55 1.18024 -1.04442 0
M  V30 10137 C 942.799 1.8743 -0.745185 0
M  V30 10138 C 943.112 1.81459 0.730206 0
M  V30 10139 O 944.318 2.46263 1.1431 0
M  V30 10140 C 942.774 3.36266 -1.28271 0
M  V30 10141 C 942.382 3.50757 -2.787 0
M  V30 10142 C 944.126 4.11048 -1.06018 0
M  V30 10143 C 942.033 4.93573 -3.25791 0
M  V30 10144 H 940.963 0.702038 -0.27506 0
M  V30 10145 H 943.614 1.33333 -1.26073 0
M  V30 10146 H 941.996 3.89853 -0.695002 0
M  V30 10147 H 943.17 3.07423 -3.43261 0
M  V30 10148 H 941.485 2.89385 -2.99408 0
M  V30 10149 H 944.082 5.16395 -1.38711 0
M  V30 10150 H 944.425 4.163 0.00241716 0
M  V30 10151 H 944.958 3.63644 -1.61269 0
M  V30 10152 H 941.697 4.93491 -4.31447 0
M  V30 10153 H 941.217 5.37607 -2.65968 0
M  V30 10154 H 942.896 5.62307 -3.20031 0
M  V30 10155 N 943.028 0.824394 1.34319 0
M  V30 10156 C 944.268 0.419044 2.00058 0
M  V30 10157 C 944.632 -0.999504 1.63933 0
M  V30 10158 O 945.833 -1.50781 2.22527 0
M  V30 10159 C 944.104 0.616897 3.52036 0
M  V30 10160 S 945.663 0.304614 4.37741 0
M  V30 10161 H 942.481 0.158265 0.693162 0
M  V30 10162 H 945.083 1.07053 1.63585 0
M  V30 10163 H 943.787 1.64896 3.75816 0
M  V30 10164 H 943.318 -0.0492693 3.93369 0
M  V30 10165 H 945.333 -0.88114 4.88314 0
M  V30 10166 N 944.506 -1.46559 0.579492 0
M  V30 10167 C 945.453 -2.30275 -0.155598 0
M  V30 10168 C 946.423 -1.40422 -0.887175 0
M  V30 10169 O 947.608 -1.69373 -0.878481 0
M  V30 10170 C 944.748 -3.24827 -1.16539 0
M  V30 10171 C 943.861 -4.29778 -0.43759 0
M  V30 10172 C 942.996 -5.11461 -1.43462 0
M  V30 10173 C 942.035 -6.08164 -0.693048 0
M  V30 10174 N 941.172 -6.82726 -1.63799 0
M  V30 10175 H 946.012 -2.92607 0.564356 0
M  V30 10176 H 943.549 -1.44211 0.290126 0
M  V30 10177 H 945.507 -3.78088 -1.76368 0
M  V30 10178 H 944.137 -2.64311 -1.8531 0
M  V30 10179 H 943.189 -3.794 0.27567 0
M  V30 10180 H 944.501 -4.98597 0.142298 0
M  V30 10181 H 943.655 -5.68982 -2.1058 0
M  V30 10182 H 942.394 -4.42595 -2.04844 0
M  V30 10183 H 941.399 -5.49799 -0.00807093 0
M  V30 10184 H 942.624 -6.79047 -0.0846678 0
M  V30 10185 H 940.57 -6.16572 -2.23997 0
M  V30 10186 H 940.487 -7.47795 -1.11082 0
M  V30 10187 H 941.755 -7.44807 -2.29962 0
M  V30 10188 N 945.984 -0.3171 -1.54377 0
M  V30 10189 C 946.917 0.594178 -2.20329 0
M  V30 10190 C 947.895 1.12067 -1.17812 0
M  V30 10191 O 949.079 1.18588 -1.46524 0
M  V30 10192 C 946.206 1.81463 -2.85987 0
M  V30 10193 C 945.252 1.41996 -4.02168 0
M  V30 10194 S 946.085 0.462159 -5.33502 0
M  V30 10195 C 947.241 1.69004 -6.02651 0
M  V30 10196 H 947.474 0.0339261 -2.97281 0
M  V30 10197 H 945.007 -0.101196 -1.54068 0
M  V30 10198 H 946.965 2.51494 -3.2444 0
M  V30 10199 H 945.626 2.34606 -2.08851 0
M  V30 10200 H 944.819 2.32921 -4.4695 0
M  V30 10201 H 944.421 0.799423 -3.65356 0
M  V30 10202 H 946.713 2.62839 -6.24437 0
M  V30 10203 H 947.656 1.28451 -6.96352 0
M  V30 10204 H 948.064 1.87408 -5.32483 0
M  V30 10205 N 947.462 1.57535 -0.0451378 0
M  V30 10206 C 948.425 2.1008 0.916461 0
M  V30 10207 C 949.425 1.01913 1.2438 0
M  V30 10208 O 950.615 1.2801 1.18148 0
M  V30 10209 C 947.747 2.58001 2.22818 0
M  V30 10210 H 948.94 2.96334 0.461076 0
M  V30 10211 H 946.493 1.54974 0.203169 0
M  V30 10212 H 947.228 1.75123 2.72951 0
M  V30 10213 H 947.013 3.3704 2.00366 0
M  V30 10214 H 948.503 2.98822 2.9171 0
M  V30 10215 N 948.94 -0.228186 1.55939 0
M  V30 10216 C 949.903 -1.26621 1.91049 0
M  V30 10217 C 950.903 -1.40141 0.788491 0
M  V30 10218 O 952.093 -1.3852 1.05631 0
M  V30 10219 C 949.225 -2.64108 2.15545 0
M  V30 10220 H 950.418 -0.966978 2.83883 0
M  V30 10221 H 947.971 -0.468313 1.49119 0
M  V30 10222 H 948.706 -2.99141 1.25241 0
M  V30 10223 H 948.491 -2.55673 2.97277 0
M  V30 10224 H 949.981 -3.39025 2.43827 0
M  V30 10225 N 950.418 -1.49637 -0.494624 0
M  V30 10226 C 951.665 -1.59445 -1.24834 0
M  V30 10227 C 951.993 -0.284028 -1.92415 0
M  V30 10228 O 951.248 0.728519 -1.81634 0
M  V30 10229 C 951.547 -2.70749 -2.33302 0
M  V30 10230 C 951.213 -4.12034 -1.83135 0
M  V30 10231 C 949.875 -4.50482 -1.69173 0
M  V30 10232 C 952.227 -5.00432 -1.4566 0
M  V30 10233 C 949.555 -5.75093 -1.16124 0
M  V30 10234 C 951.907 -6.25568 -0.940608 0
M  V30 10235 C 950.571 -6.62839 -0.787432 0
M  V30 10236 H 949.841 -0.583451 -0.456799 0
M  V30 10237 H 952.488 -1.8349 -0.548044 0
M  V30 10238 H 950.793 -2.407 -3.09145 0
M  V30 10239 H 952.49 -2.75546 -2.91334 0
M  V30 10240 H 949.08 -3.8169 -1.94964 0
M  V30 10241 H 953.264 -4.71379 -1.55291 0
M  V30 10242 H 948.52 -6.02665 -1.02982 0
M  V30 10243 H 952.694 -6.93439 -0.641467 0
M  V30 10244 H 950.321 -7.59279 -0.374191 0
M  V30 10245 N 951.896 0.746133 -1.38819 0
M  V30 10246 C 953.307 1.32384 -1.31648 0
M  V30 10247 C 953.658 1.96185 0.0243086 0
M  V30 10248 O 952.783 1.95567 0.92641 0
M  V30 10249 C 953.378 2.40712 -2.38418 0
M  V30 10250 C 951.937 2.94185 -2.34803 0
M  V30 10251 C 951.084 1.67639 -2.20891 0
M  V30 10252 H 954.035 0.544457 -1.49068 0
M  V30 10253 H 954.056 3.20833 -2.04564 0
M  V30 10254 H 953.568 1.94247 -3.3599 0
M  V30 10255 H 951.669 3.44959 -1.40834 0
M  V30 10256 H 951.782 3.48057 -3.29231 0
M  V30 10257 H 950.146 1.9155 -1.67871 0
M  V30 10258 H 950.929 1.23242 -3.20416 0
M  V30 10259 N 953.375 1.23811 0.975125 0
M  V30 10260 C 954.285 1.0408 2.10249 0
M  V30 10261 C 955.301 -0.0162404 1.73992 0
M  V30 10262 O 956.477 0.180346 2.00591 0
M  V30 10263 C 953.542 0.640013 3.40741 0
M  V30 10264 C 952.603 1.7727 3.90991 0
M  V30 10265 C 951.836 1.39094 5.15256 0
M  V30 10266 O 952.059 0.277483 5.69725 0
M  V30 10267 O 950.993 2.21392 5.59704 0
M  V30 10268 H 954.819 1.98575 2.29786 0
M  V30 10269 H 952.404 1.02563 1.08633 0
M  V30 10270 H 954.286 0.427684 4.19224 0
M  V30 10271 H 952.961 -0.27589 3.22522 0
M  V30 10272 H 951.868 2.03971 3.13602 0
M  V30 10273 H 953.201 2.66711 4.13674 0
M  V30 10274 N 954.853 -1.17469 1.05066 0
M  V30 10275 C 956.081 -1.9162 0.780334 0
M  V30 10276 C 956.496 -1.76745 -0.663817 0
M  V30 10277 O 955.853 -1.10377 -1.45338 0
M  V30 10278 C 955.904 -3.42723 1.14992 0
M  V30 10279 O 955.625 -3.57139 2.53739 0
M  V30 10280 C 957.126 -4.33952 0.905549 0
M  V30 10281 H 954.346 -0.608022 0.283814 0
M  V30 10282 H 956.89 -1.4897 1.401 0
M  V30 10283 H 955.045 -3.83124 0.57403 0
M  V30 10284 H 955.459 -4.5075 2.68189 0
M  V30 10285 H 956.933 -5.38487 1.21391 0
M  V30 10286 H 957.41 -4.38911 -0.159295 0
M  V30 10287 H 958.016 -3.99263 1.46522 0
M  V30 10288 N 956.331 -0.831506 -1.3388 0
M  V30 10289 C 957.261 -0.274378 -2.31882 0
M  V30 10290 C 958.242 0.613872 -1.58637 0
M  V30 10291 O 959.427 0.538961 -1.86571 0
M  V30 10292 C 956.557 0.557498 -3.42796 0
M  V30 10293 C 955.511 -0.234337 -4.27358 0
M  V30 10294 C 954.837 0.720825 -5.29819 0
M  V30 10295 C 956.137 -1.44732 -5.01847 0
M  V30 10296 H 957.831 -1.09322 -2.78728 0
M  V30 10297 H 955.377 -0.527136 -1.34005 0
M  V30 10298 H 957.33 0.957501 -4.10378 0
M  V30 10299 H 956.054 1.40947 -2.94621 0
M  V30 10300 H 954.713 -0.61581 -3.61391 0
M  V30 10301 H 954.361 1.569 -4.77903 0
M  V30 10302 H 954.061 0.195171 -5.87276 0
M  V30 10303 H 955.585 1.1185 -6.00268 0
M  V30 10304 H 956.999 -1.12087 -5.62236 0
M  V30 10305 H 955.396 -1.90923 -5.68919 0
M  V30 10306 H 956.466 -2.22099 -4.31045 0
M  V30 10307 N 957.809 1.4625 -0.587256 0
M  V30 10308 C 959.086 1.95599 -0.00750181 0
M  V30 10309 C 959.466 1.52989 1.45457 0
M  V30 10310 O 958.814 0.782731 2.14676 0
M  V30 10311 C 959.024 3.48513 -0.184309 0
M  V30 10312 C 960.372 4.24565 -0.0544972 0
M  V30 10313 O 961.396 3.5602 -0.113378 0
M  V30 10314 O 960.255 5.46445 0.0774075 0
M  V30 10315 H 957.349 0.825649 0.0472495 0
M  V30 10316 H 959.895 1.56512 -0.655893 0
M  V30 10317 H 958.667 3.72428 -1.20053 0
M  V30 10318 H 958.29 3.9444 0.500301 0
M  V30 10319 N 959.287 0.325282 1.54207 0
M  V30 10320 C 960.217 -0.532574 2.27345 0
M  V30 10321 C 961.198 -1.11791 1.28206 0
M  V30 10322 O 962.383 -1.14272 1.57021 0
M  V30 10323 C 959.513 -1.69274 3.03255 0
M  V30 10324 C 958.467 -1.23662 4.09746 0
M  V30 10325 C 957.793 -2.48386 4.73506 0
M  V30 10326 C 959.093 -0.350244 5.21124 0
M  V30 10327 H 960.787 0.0775108 2.993 0
M  V30 10328 H 958.333 0.0387193 1.43948 0
M  V30 10329 H 960.286 -2.29917 3.53152 0
M  V30 10330 H 959.01 -2.32944 2.28921 0
M  V30 10331 H 957.669 -0.653106 3.60735 0
M  V30 10332 H 957.317 -3.10424 3.95786 0
M  V30 10333 H 957.017 -2.18558 5.45441 0
M  V30 10334 H 958.541 -3.09789 5.26178 0
M  V30 10335 H 959.955 -0.863011 5.66767 0
M  V30 10336 H 958.352 -0.14466 5.99926 0
M  V30 10337 H 959.422 0.618457 4.8094 0
M  V30 10338 N 960.765 -1.57509 0.0534917 0
M  V30 10339 C 961.713 -2.12851 -0.937931 0
M  V30 10340 C 962.707 -1.06088 -1.32067 0
M  V30 10341 O 963.913 -1.24494 -1.30005 0
M  V30 10342 H 960.288 -0.680357 -0.320342 0
M  V30 10343 H 962.259 -2.95047 -0.446077 0
M  V30 10344 C 961.008 -2.69034 -2.20264 0
M  V30 10345 H 960.331 -3.50848 -1.91693 0
M  V30 10346 H 961.771 -3.11375 -2.87788 0
M  V30 10347 C 960.23 -1.62919 -2.94888 0
M  V30 10348 O 960.76 -1.04334 -3.87914 0
M  V30 10349 N 958.966 -1.34385 -2.57661 0
M  V30 10350 H 958.513 -1.82214 -1.82088 0
M  V30 10351 H 958.471 -0.636149 -3.07897 0
M  V30 10352 N 962.243 0.219913 -1.56058 0
M  V30 10353 C 963.173 1.27572 -1.9557 0
M  V30 10354 C 964.154 1.48801 -0.824148 0
M  V30 10355 O 965.339 1.60957 -1.08658 0
M  V30 10356 C 962.469 2.62517 -2.27381 0
M  V30 10357 C 961.423 2.55941 -3.43042 0
M  V30 10358 C 960.749 3.94931 -3.60463 0
M  V30 10359 C 962.049 2.10584 -4.77966 0
M  V30 10360 H 963.743 0.947482 -2.84013 0
M  V30 10361 H 961.289 0.454337 -1.36645 0
M  V30 10362 H 963.242 3.36538 -2.53615 0
M  V30 10363 H 961.966 2.97031 -1.35794 0
M  V30 10364 H 960.625 1.84377 -3.1686 0
M  V30 10365 H 960.273 4.26756 -2.66249 0
M  V30 10366 H 959.973 3.91413 -4.38258 0
M  V30 10367 H 961.497 4.70611 -3.89046 0
M  V30 10368 H 962.911 2.74349 -5.03394 0
M  V30 10369 H 961.308 2.18122 -5.59055 0
M  V30 10370 H 962.378 1.05818 -4.73213 0
M  V30 10371 N 963.721 1.49897 0.486681 0
M  V30 10372 C 964.684 1.67086 1.56891 0
M  V30 10373 C 965.684 0.54209 1.51387 0
M  V30 10374 O 966.874 0.80883 1.54284 0
M  V30 10375 C 964.006 1.68159 2.96539 0
M  V30 10376 H 965.199 2.63626 1.42974 0
M  V30 10377 H 962.752 1.39143 0.711954 0
M  V30 10378 H 963.487 0.732562 3.15918 0
M  V30 10379 H 963.272 2.50147 3.01942 0
M  V30 10380 H 964.762 1.83466 3.7514 0
M  V30 10381 N 965.199 -0.738761 1.39212 0
M  V30 10382 C 966.445 -1.50046 1.36433 0
M  V30 10383 C 966.778 -1.94157 -0.0409474 0
M  V30 10384 O 966.053 -1.66515 -1.00514 0
M  V30 10385 C 966.336 -2.74277 2.33333 0
M  V30 10386 C 966.189 -2.36209 3.82786 0
M  V30 10387 C 967.508 -3.76361 2.28123 0
M  V30 10388 H 964.627 -0.544294 0.496903 0
M  V30 10389 H 967.269 -0.845005 1.70175 0
M  V30 10390 H 965.419 -3.30204 2.04689 0
M  V30 10391 H 967.091 -1.85942 4.22165 0
M  V30 10392 H 965.334 -1.68483 3.99745 0
M  V30 10393 H 966.005 -3.25156 4.46069 0
M  V30 10394 H 968.481 -3.30009 2.53443 0
M  V30 10395 H 967.357 -4.60957 2.9801 0
M  V30 10396 H 967.618 -4.23013 1.28499 0
M  V30 10397 N 966.677 -1.24326 -0.968545 0
M  V30 10398 C 967.64 -1.03591 -2.04454 0
M  V30 10399 C 968.64 0.0064809 -1.60799 0
M  V30 10400 O 969.83 -0.234404 -1.72616 0
M  V30 10401 C 966.962 -0.56992 -3.36102 0
M  V30 10402 H 968.155 -1.99092 -2.24282 0
M  V30 10403 H 965.708 -1.06537 -1.14366 0
M  V30 10404 H 966.443 0.388325 -3.21967 0
M  V30 10405 H 966.228 -1.32227 -3.69132 0
M  V30 10406 H 967.718 -0.445854 -4.15213 0
M  V30 10407 N 968.156 1.1691 -1.05688 0
M  V30 10408 C 969.402 1.8757 -0.771071 0
M  V30 10409 C 969.735 1.8113 0.700399 0
M  V30 10410 O 969.01 1.22273 1.5126 0
M  V30 10411 C 969.293 3.37392 -1.25851 0
M  V30 10412 C 969.146 3.52556 -2.79329 0
M  V30 10413 C 970.465 4.31585 -0.861512 0
M  V30 10414 H 967.584 0.681089 -0.281579 0
M  V30 10415 H 970.226 1.37453 -1.31174 0
M  V30 10416 H 968.376 3.80204 -0.798563 0
M  V30 10417 H 970.048 3.18725 -3.33485 0
M  V30 10418 H 968.291 2.94668 -3.1836 0
M  V30 10419 H 968.962 4.57748 -3.08498 0
M  V30 10420 H 971.438 3.96642 -1.25756 0
M  V30 10421 H 970.314 5.34939 -1.23012 0
M  V30 10422 H 970.575 4.4148 0.234089 0
M  V30 10423 N 969.634 0.838594 1.33437 0
M  V30 10424 C 970.584 0.243681 2.26694 0
M  V30 10425 C 971.568 -0.601168 1.49247 0
M  V30 10426 O 972.76 -0.453181 1.711 0
M  V30 10427 C 969.889 -0.580525 3.38356 0
M  V30 10428 C 968.975 0.275819 4.23202 0
M  V30 10429 N 969.366 1.3544 4.87329 0
M  V30 10430 C 967.664 0.0628047 4.45956 0
M  V30 10431 C 968.365 1.87991 5.50486 0
M  V30 10432 N 967.341 1.18143 5.30607 0
M  V30 10433 H 971.143 1.06849 2.73789 0
M  V30 10434 H 968.657 0.683019 1.47338 0
M  V30 10435 H 970.654 -1.02301 4.04153 0
M  V30 10436 H 969.314 -1.40331 2.92809 0
M  V30 10437 H 970.325 1.73729 4.87892 0
M  V30 10438 H 967.002 -0.726563 4.11129 0
M  V30 10439 H 968.392 2.78312 6.11549 0
M  V30 10440 N 971.112 -1.45937 0.595003 0
M  V30 10441 C 972.059 -2.30427 -0.131165 0
M  V30 10442 C 973.029 -1.41355 -0.872232 0
M  V30 10443 O 974.214 -1.70296 -0.860467 0
M  V30 10444 C 971.354 -3.26045 -1.13087 0
M  V30 10445 C 970.467 -4.30218 -0.391982 0
M  V30 10446 C 969.602 -5.12953 -1.3803 0
M  V30 10447 C 968.641 -6.08865 -0.628505 0
M  V30 10448 N 967.778 -6.84425 -1.56548 0
M  V30 10449 H 972.618 -2.91992 0.595359 0
M  V30 10450 H 970.155 -1.43895 0.305405 0
M  V30 10451 H 972.113 -3.79937 -1.72348 0
M  V30 10452 H 970.743 -2.66261 -1.82496 0
M  V30 10453 H 969.795 -3.79086 0.315895 0
M  V30 10454 H 971.107 -4.98418 0.195173 0
M  V30 10455 H 970.261 -5.71184 -2.04534 0
M  V30 10456 H 969 -4.44743 -2.00138 0
M  V30 10457 H 968.005 -5.49777 0.0502431 0
M  V30 10458 H 969.23 -6.79099 -0.012641 0
M  V30 10459 H 967.176 -6.18913 -2.17444 0
M  V30 10460 H 967.093 -7.48931 -1.03145 0
M  V30 10461 H 968.361 -7.47204 -2.22049 0
M  V30 10462 N 972.59 -0.333456 -1.54032 0
M  V30 10463 C 973.5 0.536674 -2.28379 0
M  V30 10464 C 974.516 1.12068 -1.33104 0
M  V30 10465 O 975.692 1.13853 -1.66131 0
M  V30 10466 C 972.757 1.67677 -3.03456 0
M  V30 10467 C 971.818 1.12357 -4.14336 0
M  V30 10468 C 971.051 2.20933 -4.85823 0
M  V30 10469 O 971.274 3.41466 -4.569 0
M  V30 10470 O 970.208 1.85795 -5.72507 0
M  V30 10471 H 974.034 -0.0674003 -3.03625 0
M  V30 10472 H 971.619 -0.098823 -1.49073 0
M  V30 10473 H 973.501 2.34032 -3.50438 0
M  V30 10474 H 972.176 2.26684 -2.31076 0
M  V30 10475 H 971.083 0.424827 -3.7168 0
M  V30 10476 H 972.416 0.578497 -4.88789 0
M  V30 10477 N 974.068 1.57479 -0.061844 0
M  V30 10478 C 975.001 2.07734 0.94455 0
M  V30 10479 C 975.979 0.980207 1.29733 0
M  V30 10480 O 977.163 1.2529 1.40836 0
M  V30 10481 C 974.29 2.52673 2.25553 0
M  V30 10482 C 973.336 3.73725 2.05503 0
M  V30 10483 S 974.169 5.18886 1.32354 0
M  V30 10484 C 975.325 5.67148 2.64753 0
M  V30 10485 H 975.558 2.92772 0.516888 0
M  V30 10486 H 973.091 1.53663 0.150684 0
M  V30 10487 H 975.049 2.79226 3.00904 0
M  V30 10488 H 973.71 1.67921 2.65445 0
M  V30 10489 H 972.903 4.03125 3.025 0
M  V30 10490 H 972.505 3.47494 1.3829 0
M  V30 10491 H 974.797 5.73385 3.60882 0
M  V30 10492 H 975.74 6.66196 2.39976 0
M  V30 10493 H 976.148 4.94921 2.71502 0
M  V30 10494 N 975.546 -0.211634 1.56173 0
M  V30 10495 C 976.793 -0.93455 1.79645 0
M  V30 10496 C 977.121 -1.83936 0.632294 0
M  V30 10497 O 976.376 -1.91919 -0.382841 0
M  V30 10498 C 976.675 -1.79657 3.08963 0
M  V30 10499 C 976.341 -1.04415 4.38644 0
M  V30 10500 C 975.003 -0.836351 4.73876 0
M  V30 10501 C 977.355 -0.51355 5.18664 0
M  V30 10502 C 974.683 -0.0861976 5.86637 0
M  V30 10503 C 977.035 0.223309 6.32206 0
M  V30 10504 C 975.699 0.442279 6.66033 0
M  V30 10505 H 974.969 -0.341976 0.657368 0
M  V30 10506 H 977.616 -0.202024 1.90431 0
M  V30 10507 H 975.921 -2.59726 2.93342 0
M  V30 10508 H 977.618 -2.35823 3.24328 0
M  V30 10509 H 974.208 -1.21611 4.10985 0
M  V30 10510 H 978.392 -0.661541 4.91871 0
M  V30 10511 H 973.648 0.0935866 6.11328 0
M  V30 10512 H 977.822 0.641917 6.93435 0
M  V30 10513 H 975.449 1.02547 7.53252 0
M  V30 10514 N 977.024 -1.50153 -0.478725 0
M  V30 10515 C 978.273 -1.60002 -1.22809 0
M  V30 10516 C 978.586 -0.302277 -1.9325 0
M  V30 10517 O 979.792 -0.279583 -2.70057 0
M  V30 10518 C 978.248 -2.82402 -2.23108 0
M  V30 10519 C 977.856 -4.19023 -1.58505 0
M  V30 10520 C 979.6 -3.01593 -2.98734 0
M  V30 10521 C 977.507 -5.32618 -2.57045 0
M  V30 10522 H 976.437 -0.595822 -0.462073 0
M  V30 10523 H 979.088 -1.76573 -0.499412 0
M  V30 10524 H 977.47 -2.59373 -2.99235 0
M  V30 10525 H 978.644 -4.52277 -0.882187 0
M  V30 10526 H 976.959 -4.05374 -0.951877 0
M  V30 10527 H 979.556 -3.8363 -3.72468 0
M  V30 10528 H 979.899 -2.1302 -3.57671 0
M  V30 10529 H 980.432 -3.24766 -2.29721 0
M  V30 10530 H 977.171 -6.23321 -2.02858 0
M  V30 10531 H 976.691 -5.03792 -3.25505 0
M  V30 10532 H 978.37 -5.62877 -3.19028 0
M  V30 10533 N 978.502 0.731368 -1.39602 0
M  V30 10534 C 979.435 1.85433 -1.33004 0
M  V30 10535 C 980.413 1.61327 -0.20307 0
M  V30 10536 O 981.597 1.84545 -0.384124 0
M  V30 10537 C 978.724 3.21483 -1.06613 0
M  V30 10538 C 977.77 3.64443 -2.21549 0
M  V30 10539 S 978.603 3.73387 -3.83852 0
M  V30 10540 C 979.759 5.12222 -3.59694 0
M  V30 10541 H 979.992 1.90747 -2.28041 0
M  V30 10542 H 977.525 0.89659 -1.25701 0
M  V30 10543 H 979.483 4.00041 -0.920719 0
M  V30 10544 H 978.144 3.1382 -0.132563 0
M  V30 10545 H 977.337 4.63185 -1.98686 0
M  V30 10546 H 976.939 2.93099 -2.32312 0
M  V30 10547 H 979.231 5.98666 -3.17184 0
M  V30 10548 H 980.174 5.40115 -4.5791 0
M  V30 10549 H 980.582 4.8207 -2.93716 0
M  V30 10550 N 979.98 1.24838 0.961938 0
M  V30 10551 C 981.226 1.09313 1.70817 0
M  V30 10552 C 981.559 -0.366244 1.90715 0
M  V30 10553 O 980.834 -1.27036 1.47282 0
M  V30 10554 C 981.117 1.83988 3.09549 0
M  V30 10555 C 980.97 3.3771 2.97106 0
M  V30 10556 C 982.289 1.61718 4.09311 0
M  V30 10557 H 979.408 0.398498 0.619974 0
M  V30 10558 H 982.05 1.53579 1.11864 0
M  V30 10559 H 980.2 1.46363 3.59875 0
M  V30 10560 H 981.872 3.84967 2.54161 0
M  V30 10561 H 980.115 3.65795 2.33187 0
M  V30 10562 H 980.786 3.85166 3.95412 0
M  V30 10563 H 983.262 1.94458 3.67866 0
M  V30 10564 H 982.138 2.16415 5.04436 0
M  V30 10565 H 982.399 0.55677 4.3858 0
M  V30 10566 N 981.458 -1.16348 1.06306 0
M  V30 10567 C 982.39 -2.20316 0.631929 0
M  V30 10568 C 983.403 -1.59819 -0.310133 0
M  V30 10569 O 984.592 -1.78213 -0.101103 0
M  V30 10570 C 981.692 -3.3877 -0.0937645 0
M  V30 10571 C 980.865 -4.28826 0.861816 0
M  V30 10572 C 979.924 -5.25908 0.175346 0
M  V30 10573 O 978.95 -5.63363 0.813039 0
M  V30 10574 N 980.152 -5.70307 -1.08305 0
M  V30 10575 H 982.917 -2.57925 1.52626 0
M  V30 10576 H 980.478 -1.31358 0.946392 0
M  V30 10577 H 982.47 -4.00759 -0.563412 0
M  V30 10578 H 981.04 -2.99666 -0.889904 0
M  V30 10579 H 980.26 -3.64098 1.51083 0
M  V30 10580 H 981.548 -4.85875 1.51007 0
M  V30 10581 H 980.946 -5.4197 -1.62127 0
M  V30 10582 H 979.503 -6.34387 -1.49656 0
M  V30 10583 N 982.937 -0.845659 -1.3299 0
M  V30 10584 C 983.847 -0.2864 -2.32845 0
M  V30 10585 C 984.863 0.591105 -1.63652 0
M  V30 10586 O 986.039 0.493615 -1.95257 0
M  V30 10587 C 983.104 0.523636 -3.42723 0
M  V30 10588 C 982.165 -0.378945 -4.27624 0
M  V30 10589 C 981.398 0.392526 -5.32255 0
M  V30 10590 O 981.621 1.6235 -5.46808 0
M  V30 10591 O 980.555 -0.237 -6.01433 0
M  V30 10592 H 984.381 -1.11346 -2.82552 0
M  V30 10593 H 981.966 -0.608356 -1.36453 0
M  V30 10594 H 983.848 0.983718 -4.09757 0
M  V30 10595 H 982.523 1.32764 -2.95221 0
M  V30 10596 H 981.43 -0.887012 -3.63432 0
M  V30 10597 H 982.763 -1.1479 -4.78627 0
M  V30 10598 N 984.415 1.45619 -0.602734 0
M  V30 10599 C 985.325 2.34288 0.120902 0
M  V30 10600 C 986.341 1.50952 0.865414 0
M  V30 10601 O 987.517 1.83768 0.824094 0
M  V30 10602 C 984.582 3.28489 1.10888 0
M  V30 10603 C 983.643 4.2773 0.366853 0
M  V30 10604 C 982.876 5.17429 1.30776 0
M  V30 10605 O 983.099 5.10459 2.54535 0
M  V30 10606 O 982.033 5.96459 0.807464 0
M  V30 10607 H 985.859 2.97559 -0.60765 0
M  V30 10608 H 983.444 1.44922 -0.363019 0
M  V30 10609 H 985.326 3.86549 1.67803 0
M  V30 10610 H 984.001 2.67789 1.81854 0
M  V30 10611 H 982.908 3.73299 -0.244643 0
M  V30 10612 H 984.241 4.91271 -0.302226 0
M  V30 10613 N 985.893 0.34162 1.53853 0
M  V30 10614 C 987.309 -0.0103769 1.59597 0
M  V30 10615 C 987.509 -1.48897 1.35764 0
M  V30 10616 O 986.565 -2.24743 1.15095 0
M  V30 10617 C 987.878 0.424067 2.97695 0
M  V30 10618 C 989.426 0.376247 3.1073 0
M  V30 10619 C 989.901 0.786129 4.51203 0
M  V30 10620 N 991.392 0.74024 4.57247 0
M  V30 10621 C 992.127 1.02937 5.64085 0
M  V30 10622 N 991.623 1.38655 6.78783 0
M  V30 10623 N 993.416 0.953734 5.5395 0
M  V30 10624 H 985.567 1.30477 1.67599 0
M  V30 10625 H 987.83 0.531753 0.78482 0
M  V30 10626 H 987.536 1.45493 3.20195 0
M  V30 10627 H 987.41 -0.201713 3.7666 0
M  V30 10628 H 989.797 -0.645441 2.87955 0
M  V30 10629 H 989.878 1.0372 2.33828 0
M  V30 10630 H 989.522 1.80582 4.74713 0
M  V30 10631 H 989.452 0.102671 5.265 0
M  V30 10632 H 991.943 0.476763 3.7488 0
M  V30 10633 H 992.256 1.59206 7.56223 0
M  V30 10634 H 990.601 1.42498 6.80235 0
M  V30 10635 H 993.792 0.674044 4.63222 0
M  V30 10636 H 993.965 1.18241 6.37121 0
M  V30 10637 N 987.371 -1.57444 0.0701946 0
M  V30 10638 C 988.787 -1.57009 -0.286431 0
M  V30 10639 C 988.987 -1.07946 -1.70147 0
M  V30 10640 O 988.043 -0.744622 -2.41271 0
M  V30 10641 C 989.356 -3.00542 -0.0975466 0
M  V30 10642 C 990.904 -3.12553 -0.167205 0
M  V30 10643 C 991.379 -4.58 -0.00662047 0
M  V30 10644 N 992.87 -4.63158 -0.0622778 0
M  V30 10645 C 993.605 -5.73388 0.0375831 0
M  V30 10646 N 993.101 -6.92537 0.190873 0
M  V30 10647 N 994.894 -5.62097 -0.0193672 0
M  V30 10648 H 987.045 -1.87651 0.995023 0
M  V30 10649 H 989.308 -0.865006 0.387902 0
M  V30 10650 H 989.014 -3.40543 0.878822 0
M  V30 10651 H 988.888 -3.67485 -0.850547 0
M  V30 10652 H 991.275 -2.72439 -1.13406 0
M  V30 10653 H 991.356 -2.48251 0.616871 0
M  V30 10654 H 991 -4.98803 0.956992 0
M  V30 10655 H 990.93 -5.20332 -0.810081 0
M  V30 10656 H 993.421 -3.77475 -0.179229 0
M  V30 10657 H 993.734 -7.72365 0.25926 0
M  V30 10658 H 992.079 -6.94632 0.226214 0
M  V30 10659 H 995.27 -4.67897 -0.137815 0
M  V30 10660 H 995.443 -6.4797 0.0619121 0
M  V30 10661 N 988.849 0.203349 -1.56283 0
M  V30 10662 C 989.779 1.2549 -1.96912 0
M  V30 10663 C 990.76 1.47919 -0.839884 0
M  V30 10664 O 991.945 1.59795 -1.10359 0
M  V30 10665 C 989.075 2.6009 -2.30153 0
M  V30 10666 C 988.029 2.52289 -3.45738 0
M  V30 10667 C 987.355 3.91086 -3.64632 0
M  V30 10668 C 988.655 2.05503 -4.80173 0
M  V30 10669 H 990.349 0.917306 -2.85002 0
M  V30 10670 H 987.895 0.439818 -1.37119 0
M  V30 10671 H 989.848 3.33829 -2.5717 0
M  V30 10672 H 988.572 2.95574 -1.38937 0
M  V30 10673 H 987.231 1.81006 -3.18798 0
M  V30 10674 H 986.879 4.23908 -2.7076 0
M  V30 10675 H 986.579 3.86742 -4.42385 0
M  V30 10676 H 988.103 4.66459 -3.94016 0
M  V30 10677 H 989.517 2.68995 -5.06275 0
M  V30 10678 H 987.914 2.1218 -5.61337 0
M  V30 10679 H 988.984 1.00793 -4.74309 0
M  V30 10680 N 990.327 1.50405 0.470755 0
M  V30 10681 C 991.743 1.37838 0.804534 0
M  V30 10682 C 991.943 0.434743 1.96754 0
M  V30 10683 O 990.999 -0.122507 2.52203 0
M  V30 10684 C 992.312 2.79212 1.11629 0
M  V30 10685 C 993.86 2.88129 1.22272 0
M  V30 10686 C 994.335 4.30337 1.5676 0
M  V30 10687 N 995.826 4.3329 1.63751 0
M  V30 10688 C 996.561 5.4032 1.91942 0
M  V30 10689 N 996.057 6.57558 2.18151 0
M  V30 10690 N 997.85 5.27764 1.93446 0
M  V30 10691 H 990.001 2.10332 -0.295689 0
M  V30 10692 H 992.264 0.945429 -0.0697733 0
M  V30 10693 H 991.97 3.50103 0.334778 0
M  V30 10694 H 991.844 3.16475 2.0524 0
M  V30 10695 H 994.231 2.17457 1.9949 0
M  V30 10696 H 994.312 2.54409 0.2664 0
M  V30 10697 H 993.956 5.01547 0.800817 0
M  V30 10698 H 993.886 4.61545 2.53543 0
M  V30 10699 H 996.377 3.48752 1.45535 0
M  V30 10700 H 996.69 7.34935 2.38936 0
M  V30 10701 H 995.035 6.60732 2.15542 0
M  V30 10702 H 998.226 4.35169 1.72468 0
M  V30 10703 H 998.399 6.11264 2.15081 0
M  V30 10704 N 991.805 -0.723954 1.39988 0
M  V30 10705 C 992.752 -1.83803 1.39589 0
M  V30 10706 C 993.722 -1.64146 0.253996 0
M  V30 10707 O 994.907 -1.85398 0.450793 0
M  V30 10708 C 992.047 -3.21431 1.25604 0
M  V30 10709 C 991.16 -3.52717 2.49429 0
M  V30 10710 C 990.295 -4.79805 2.27949 0
M  V30 10711 C 989.334 -5.03968 3.47394 0
M  V30 10712 N 988.471 -6.22266 3.25161 0
M  V30 10713 H 993.311 -1.83479 2.34818 0
M  V30 10714 H 990.848 -0.896396 1.16633 0
M  V30 10715 H 992.806 -4.00892 1.15504 0
M  V30 10716 H 991.436 -3.21005 0.339986 0
M  V30 10717 H 990.488 -2.67872 2.7009 0
M  V30 10718 H 991.8 -3.66486 3.38363 0
M  V30 10719 H 990.954 -5.67268 2.15155 0
M  V30 10720 H 989.693 -4.68229 1.36428 0
M  V30 10721 H 988.698 -4.14963 3.60674 0
M  V30 10722 H 989.923 -5.17422 4.39831 0
M  V30 10723 H 987.869 -6.11957 2.36314 0
M  V30 10724 H 987.786 -6.36673 4.07656 0
M  V30 10725 H 989.054 -7.12539 3.16083 0
M  V30 10726 N 993.283 -1.25346 -0.955304 0
M  V30 10727 C 994.246 -1.05754 -2.03344 0
M  V30 10728 C 995.246 -0.0105743 -1.60797 0
M  V30 10729 O 996.436 -0.252699 -1.72357 0
M  V30 10730 C 993.568 -0.605536 -3.35479 0
M  V30 10731 H 994.761 -2.01459 -2.22158 0
M  V30 10732 H 992.314 -1.07744 -1.1323 0
M  V30 10733 H 993.049 0.354154 -3.2236 0
M  V30 10734 H 992.834 -1.36134 -3.67709 0
M  V30 10735 H 994.324 -0.489867 -4.14717 0
M  V30 10736 N 994.761 1.15782 -1.06922 0
M  V30 10737 C 995.691 2.22538 -0.707045 0
M  V30 10738 C 996.672 1.67371 0.303471 0
M  V30 10739 O 997.857 1.9339 0.177189 0
M  V30 10740 C 994.987 3.47158 -0.0994269 0
M  V30 10741 C 993.941 4.15257 -1.03661 0
M  V30 10742 C 993.267 5.33902 -0.291974 0
M  V30 10743 C 994.567 4.65516 -2.36837 0
M  V30 10744 H 996.261 2.53089 -1.59958 0
M  V30 10745 H 993.807 1.21649 -0.770552 0
M  V30 10746 H 995.76 4.21073 0.165852 0
M  V30 10747 H 994.484 3.15926 0.828155 0
M  V30 10748 H 993.143 3.43276 -1.28674 0
M  V30 10749 H 992.791 4.98926 0.638928 0
M  V30 10750 H 992.491 5.80407 -0.916613 0
M  V30 10751 H 994.015 6.1059 -0.0343915 0
M  V30 10752 H 995.429 5.30981 -2.16175 0
M  V30 10753 H 993.826 5.22666 -2.94856 0
M  V30 10754 H 994.896 3.81387 -2.99453 0
M  V30 10755 N 996.239 0.8527 1.3254 0
M  V30 10756 C 997.169 0.311234 2.31416 0
M  V30 10757 C 998.15 -0.588557 1.59593 0
M  V30 10758 O 999.335 -0.509211 1.87405 0
M  V30 10759 C 996.465 -0.502892 3.4364 0
M  V30 10760 C 995.419 0.302296 4.26931 0
M  V30 10761 C 994.745 -0.636445 5.30899 0
M  V30 10762 C 996.045 1.52697 4.99481 0
M  V30 10763 H 997.739 1.13742 2.76953 0
M  V30 10764 H 995.285 0.548389 1.33149 0
M  V30 10765 H 997.238 -0.892092 4.11849 0
M  V30 10766 H 995.962 -1.36242 2.96826 0
M  V30 10767 H 994.621 0.673226 3.60365 0
M  V30 10768 H 994.269 -1.49277 4.80339 0
M  V30 10769 H 993.969 -0.101716 5.87512 0
M  V30 10770 H 995.493 -1.02286 6.01972 0
M  V30 10771 H 996.907 1.21017 5.60382 0
M  V30 10772 H 995.304 1.9995 5.65809 0
M  V30 10773 H 996.374 2.28929 4.27457 0
M  V30 10774 N 997.718 -1.45297 0.610449 0
M  V30 10775 C 998.628 -2.34349 -0.108475 0
M  V30 10776 C 999.644 -1.51409 -0.857397 0
M  V30 10777 O 1000.82 -1.84202 -0.814337 0
M  V30 10778 C 997.885 -3.29072 -1.09144 0
M  V30 10779 C 996.946 -4.27918 -0.344165 0
M  V30 10780 C 996.179 -5.18116 -1.28031 0
M  V30 10781 O 996.402 -5.11802 -2.51824 0
M  V30 10782 O 995.336 -5.96879 -0.775821 0
M  V30 10783 H 999.162 -2.97232 0.623421 0
M  V30 10784 H 996.747 -1.44728 0.3707 0
M  V30 10785 H 998.629 -3.87433 -1.65751 0
M  V30 10786 H 997.304 -2.68749 -1.80431 0
M  V30 10787 H 996.211 -3.73164 0.264437 0
M  V30 10788 H 997.544 -4.91104 0.328275 0
M  V30 10789 N 999.196 -0.349774 -1.5367 0
M  V30 10790 C 1000.14 0.504121 -2.25227 0
M  V30 10791 C 1001.11 1.09048 -1.2529 0
M  V30 10792 O 1002.3 1.12594 -1.54037 0
M  V30 10793 C 999.438 1.64601 -3.03316 0
M  V30 10794 C 998.551 1.08635 -4.18118 0
M  V30 10795 C 997.686 2.19605 -4.83681 0
M  V30 10796 C 996.725 1.61023 -5.90541 0
M  V30 10797 N 995.862 2.6576 -6.49858 0
M  V30 10798 H 1000.7 -0.112621 -2.97787 0
M  V30 10799 H 998.239 -0.0673503 -1.46946 0
M  V30 10800 H 1000.2 2.31836 -3.46854 0
M  V30 10801 H 998.827 2.23364 -2.33041 0
M  V30 10802 H 997.879 0.304748 -3.79177 0
M  V30 10803 H 999.191 0.617911 -4.94958 0
M  V30 10804 H 998.345 2.94693 -5.30322 0
M  V30 10805 H 997.084 2.69795 -4.06278 0
M  V30 10806 H 996.089 0.844428 -5.43277 0
M  V30 10807 H 997.314 1.11677 -6.69855 0
M  V30 10808 H 995.26 3.15193 -5.75317 0
M  V30 10809 H 995.177 2.23557 -7.2219 0
M  V30 10810 H 996.445 3.40598 -7.01151 0
M  V30 10811 N 1000.67 1.57404 -0.0785433 0
M  V30 10812 C 1001.92 1.93361 0.58786 0
M  V30 10813 C 1002.24 0.959856 1.6974 0
M  V30 10814 O 1001.51 0.0091173 1.95898 0
M  V30 10815 H 1000.09 0.713825 0.220141 0
M  V30 10816 H 1002.75 1.94411 -0.137986 0
M  V30 10817 H 1001.85 2.95346 1.00881 0
M  V30 10818 N 1002.15 -0.195058 1.56388 0
M  V30 10819 C 1003.4 -0.9168 1.80894 0
M  V30 10820 C 1003.73 -1.82907 0.652592 0
M  V30 10821 O 1003.01 -1.91382 -0.346853 0
M  V30 10822 C 1003.29 -1.733 3.15657 0
M  V30 10823 C 1003.14 -0.845449 4.41783 0
M  V30 10824 C 1004.46 -2.70557 3.47112 0
M  V30 10825 H 1001.58 -0.331861 0.658056 0
M  V30 10826 H 1004.22 -0.184174 1.89105 0
M  V30 10827 H 1002.37 -2.3576 3.08787 0
M  V30 10828 H 1004.04 -0.235557 4.60698 0
M  V30 10829 H 1002.29 -0.152172 4.33533 0
M  V30 10830 H 1002.96 -1.45152 5.32574 0
M  V30 10831 H 1005.43 -2.1823 3.54281 0
M  V30 10832 H 1004.31 -3.24749 4.42526 0
M  V30 10833 H 1004.57 -3.49605 2.70608 0
M  V30 10834 N 1003.63 -1.50653 -0.462772 0
M  V30 10835 C 1004.86 -1.65826 -1.23731 0
M  V30 10836 C 1005.27 -0.345002 -1.85621 0
M  V30 10837 O 1004.63 0.673935 -1.69601 0
M  V30 10838 C 1004.68 -2.7555 -2.33997 0
M  V30 10839 O 1004.4 -4.01785 -1.74643 0
M  V30 10840 C 1005.9 -3.0177 -3.2473 0
M  V30 10841 H 1003.12 -0.557177 -0.373892 0
M  V30 10842 H 1005.67 -1.96925 -0.551434 0
M  V30 10843 H 1003.82 -2.47122 -2.98345 0
M  V30 10844 H 1004.24 -4.62529 -2.4732 0
M  V30 10845 H 1005.71 -3.82188 -3.98292 0
M  V30 10846 H 1006.19 -2.13167 -3.84001 0
M  V30 10847 H 1006.79 -3.31761 -2.66111 0
M  V30 10848 N 1005.11 0.71652 -1.4037 0
M  V30 10849 C 1006.02 1.86074 -1.42876 0
M  V30 10850 C 1007.03 1.71005 -0.321475 0
M  V30 10851 O 1008.21 1.93286 -0.565909 0
M  V30 10852 C 1005.28 3.21862 -1.28863 0
M  V30 10853 C 1004.34 3.49193 -2.49726 0
M  V30 10854 C 1003.57 4.78502 -2.36372 0
M  V30 10855 O 1003.79 5.53529 -1.37703 0
M  V30 10856 O 1002.73 5.06147 -3.25728 0
M  V30 10857 H 1006.55 1.86916 -2.39366 0
M  V30 10858 H 1004.14 0.866818 -1.21683 0
M  V30 10859 H 1006.02 4.02972 -1.23253 0
M  V30 10860 H 1004.69 3.2175 -0.354783 0
M  V30 10861 H 1003.6 2.68095 -2.60913 0
M  V30 10862 H 1004.93 3.54101 -3.41868 0
M  V30 10863 N 1006.59 1.25851 0.948643 0
M  V30 10864 C 1007.55 1.0683 2.0278 0
M  V30 10865 C 1008.55 0.0191016 1.60789 0
M  V30 10866 O 1009.74 0.261836 1.72221 0
M  V30 10867 C 1006.87 0.623318 3.35153 0
M  V30 10868 H 1008.06 2.02635 2.21086 0
M  V30 10869 H 1005.62 1.08343 1.12657 0
M  V30 10870 H 1006.35 -0.337053 3.22544 0
M  V30 10871 H 1006.14 1.38082 3.66982 0
M  V30 10872 H 1007.63 0.511854 4.14451 0
M  V30 10873 N 1008.06 -1.15214 1.07534 0
M  V30 10874 C 1008.97 -2.23636 0.708818 0
M  V30 10875 C 1009.99 -1.7172 -0.280759 0
M  V30 10876 O 1011.17 -2.01 -0.126927 0
M  V30 10877 C 1008.23 -3.46512 0.114167 0
M  V30 10878 C 1007.29 -4.13409 1.15722 0
M  V30 10879 C 1006.53 -5.30419 0.59085 0
M  V30 10880 O 1006.75 -5.67314 -0.592512 0
M  V30 10881 O 1005.68 -5.86871 1.33663 0
M  V30 10882 H 1009.51 -2.57322 1.61305 0
M  V30 10883 H 1007.09 -1.22972 0.848422 0
M  V30 10884 H 1008.98 -4.20851 -0.215091 0
M  V30 10885 H 1007.65 -3.1457 -0.763356 0
M  V30 10886 H 1006.56 -3.40984 1.53886 0
M  V30 10887 H 1007.89 -4.49435 2.00671 0
M  V30 10888 N 1009.54 -0.859717 -1.32086 0
M  V30 10889 C 1010.96 -0.55025 -1.49815 0
M  V30 10890 C 1011.16 0.917966 -1.79376 0
M  V30 10891 O 1010.21 1.70073 -1.86632 0
M  V30 10892 C 1011.53 -1.44161 -2.6389 0
M  V30 10893 C 1013.08 -1.44257 -2.77775 0
M  V30 10894 C 1013.55 -2.31926 -3.94936 0
M  V30 10895 N 1015.04 -2.2975 -4.02206 0
M  V30 10896 C 1015.78 -2.9431 -4.92107 0
M  V30 10897 N 1015.27 -3.68001 -5.86981 0
M  V30 10898 N 1017.07 -2.83671 -4.8527 0
M  V30 10899 H 1009.22 -1.80987 -1.11164 0
M  V30 10900 H 1011.48 -0.773313 -0.548353 0
M  V30 10901 H 1011.19 -2.48588 -2.4879 0
M  V30 10902 H 1011.06 -1.13268 -3.59792 0
M  V30 10903 H 1013.45 -0.405923 -2.92295 0
M  V30 10904 H 1013.53 -1.79169 -1.82571 0
M  V30 10905 H 1013.17 -3.35661 -3.81174 0
M  V30 10906 H 1013.1 -1.94344 -4.89426 0
M  V30 10907 H 1015.59 -1.76177 -3.3432 0
M  V30 10908 H 1015.91 -4.14417 -6.52287 0
M  V30 10909 H 1014.25 -3.72109 -5.86992 0
M  V30 10910 H 1017.44 -2.25647 -4.10123 0
M  V30 10911 H 1017.61 -3.34267 -5.5513 0
M  V30 10912 N 1011.02 1.44971 -0.618145 0
M  V30 10913 C 1011.93 2.34403 0.0960457 0
M  V30 10914 C 1012.95 1.51862 0.849355 0
M  V30 10915 O 1014.12 1.84632 0.804557 0
M  V30 10916 C 1011.19 3.29646 1.07397 0
M  V30 10917 C 1010.25 4.28095 0.321466 0
M  V30 10918 C 1009.48 5.18787 1.25281 0
M  V30 10919 O 1009.7 5.1313 2.49106 0
M  V30 10920 O 1008.64 5.97282 0.744156 0
M  V30 10921 H 1012.46 2.96898 -0.639176 0
M  V30 10922 H 1010.05 1.44529 -0.37837 0
M  V30 10923 H 1011.93 3.88307 1.63694 0
M  V30 10924 H 1010.61 2.69702 1.79004 0
M  V30 10925 H 1009.51 3.73019 -0.284223 0
M  V30 10926 H 1010.85 4.90923 -0.354315 0
M  V30 10927 N 1012.5 0.357919 1.53482 0
M  V30 10928 C 1013.46 -0.479797 2.24122 0
M  V30 10929 C 1014.46 -1.01596 1.24639 0
M  V30 10930 O 1015.65 -0.902928 1.48973 0
M  V30 10931 C 1012.78 -1.66983 2.97203 0
M  V30 10932 H 1013.98 0.138219 2.99581 0
M  V30 10933 H 1011.53 0.109484 1.55916 0
M  V30 10934 H 1012.26 -2.32615 2.25966 0
M  V30 10935 H 1012.05 -1.29242 3.70188 0
M  V30 10936 H 1013.54 -2.26367 3.50924 0
M  V30 10937 N 1013.98 -1.5736 0.0868897 0
M  V30 10938 C 1015.22 -1.94054 -0.578741 0
M  V30 10939 C 1015.55 -0.968047 -1.68698 0
M  V30 10940 O 1014.81 0.0137824 -1.95695 0
M  V30 10941 C 1015.11 -3.37316 -1.18123 0
M  V30 10942 C 1014.77 -4.50467 -0.197607 0
M  V30 10943 C 1013.43 -4.81145 0.072952 0
M  V30 10944 C 1015.79 -5.19036 0.474473 0
M  V30 10945 C 1013.11 -5.77723 1.02242 0
M  V30 10946 C 1015.47 -6.16632 1.41236 0
M  V30 10947 C 1014.13 -6.45719 1.69124 0
M  V30 10948 H 1013.4 -0.710093 -0.211776 0
M  V30 10949 H 1016.05 -1.90822 0.160978 0
M  V30 10950 H 1014.35 -3.37085 -1.99701 0
M  V30 10951 H 1016.05 -3.63003 -1.7038 0
M  V30 10952 H 1012.64 -4.2655 -0.418669 0
M  V30 10953 H 1016.82 -4.95518 0.278581 0
M  V30 10954 H 1012.08 -5.98578 1.24557 0
M  V30 10955 H 1016.25 -6.68862 1.939 0
M  V30 10956 H 1013.88 -7.20365 2.42855 0
M  V30 10957 N 1015.45 0.186762 -1.56489 0
M  V30 10958 C 1016.36 1.25169 -1.98419 0
M  V30 10959 C 1017.38 1.49329 -0.893124 0
M  V30 10960 O 1018.56 1.61781 -1.19954 0
M  V30 10961 C 1015.62 2.57422 -2.32239 0
M  V30 10962 C 1014.68 2.4126 -3.55095 0
M  V30 10963 C 1013.92 3.67206 -3.87292 0
M  V30 10964 O 1014.14 4.71731 -3.20665 0
M  V30 10965 O 1013.07 3.62238 -4.80695 0
M  V30 10966 H 1016.9 0.925834 -2.89244 0
M  V30 10967 H 1014.48 0.392421 -1.44154 0
M  V30 10968 H 1016.37 3.35466 -2.5503 0
M  V30 10969 H 1015.04 2.89618 -1.44579 0
M  V30 10970 H 1013.95 1.61299 -3.37541 0
M  V30 10971 H 1015.28 2.13994 -4.43247 0
M  V30 10972 N 1016.93 1.50896 0.454776 0
M  V30 10973 C 1017.86 1.73885 1.5584 0
M  V30 10974 C 1018.84 0.588172 1.59607 0
M  V30 10975 O 1020.03 0.829054 1.75614 0
M  V30 10976 C 1017.16 1.84796 2.94054 0
M  V30 10977 C 1016.11 3.00111 3.05152 0
M  V30 10978 C 1015.44 2.96183 4.45174 0
M  V30 10979 C 1016.74 4.40365 2.80849 0
M  V30 10980 H 1018.43 2.66292 1.36854 0
M  V30 10981 H 1015.98 1.28142 0.656936 0
M  V30 10982 H 1017.93 1.99462 3.71204 0
M  V30 10983 H 1016.66 0.890235 3.14233 0
M  V30 10984 H 1015.31 2.85121 2.30438 0
M  V30 10985 H 1014.96 1.98224 4.62295 0
M  V30 10986 H 1014.66 3.73608 4.53532 0
M  V30 10987 H 1016.19 3.1292 5.24322 0
M  V30 10988 H 1017.6 4.55795 3.47741 0
M  V30 10989 H 1016 5.19363 3.00636 0
M  V30 10990 H 1017.07 4.51606 1.76579 0
M  V30 10991 N 1018.41 -0.709066 1.40748 0
M  V30 10992 C 1019.34 -1.83583 1.4429 0
M  V30 10993 C 1020.32 -1.67378 0.303067 0
M  V30 10994 O 1021.51 -1.87312 0.512612 0
M  V30 10995 C 1018.64 -3.21599 1.31116 0
M  V30 10996 C 1017.59 -3.52486 2.4277 0
M  V30 10997 C 1016.92 -4.89716 2.14668 0
M  V30 10998 C 1018.22 -3.52824 3.85113 0
M  V30 10999 H 1019.91 -1.80876 2.38588 0
M  V30 11000 H 1017.46 -0.868795 1.14839 0
M  V30 11001 H 1019.41 -4.00123 1.32209 0
M  V30 11002 H 1018.13 -3.24898 0.332965 0
M  V30 11003 H 1016.79 -2.76305 2.40937 0
M  V30 11004 H 1016.44 -4.89625 1.15224 0
M  V30 11005 H 1016.14 -5.11347 2.89478 0
M  V30 11006 H 1017.66 -5.70566 2.17455 0
M  V30 11007 H 1019.08 -4.21377 3.88734 0
M  V30 11008 H 1017.48 -3.85984 4.59496 0
M  V30 11009 H 1018.55 -2.52073 4.14231 0
M  V30 11010 N 1019.89 -1.26353 -0.941956 0
M  V30 11011 C 1021.3 -1.10774 -1.50287 0
M  V30 11012 C 1021.65 0.312229 -1.937 0
M  V30 11013 O 1020.78 1.20364 -1.79838 0
M  V30 11014 C 1021.37 -2.00473 -2.73123 0
M  V30 11015 C 1019.93 -1.89042 -3.25485 0
M  V30 11016 C 1019.08 -1.93869 -1.98267 0
M  V30 11017 H 1022.03 -1.39454 -0.757523 0
M  V30 11018 H 1022.05 -1.55216 -3.47402 0
M  V30 11019 H 1021.56 -3.03812 -2.41495 0
M  V30 11020 H 1019.66 -0.886341 -3.61904 0
M  V30 11021 H 1019.78 -2.74533 -3.92643 0
M  V30 11022 H 1018.14 -1.37912 -2.14132 0
M  V30 11023 H 1018.92 -2.98837 -1.68972 0
M  V30 11024 N 1021.37 1.14642 -1.08144 0
M  V30 11025 C 1022.64 1.81774 -0.72232 0
M  V30 11026 C 1023.02 1.95587 0.794294 0
M  V30 11027 O 1022.37 1.51361 1.71178 0
M  V30 11028 C 1022.58 3.1763 -1.44611 0
M  V30 11029 C 1023.93 3.93161 -1.60343 0
M  V30 11030 O 1024.95 3.2721 -1.40755 0
M  V30 11031 O 1023.81 5.11422 -1.9264 0
M  V30 11032 H 1020.91 0.785733 -0.257978 0
M  V30 11033 H 1023.45 1.21683 -1.18285 0
M  V30 11034 H 1022.23 3.02723 -2.4794 0
M  V30 11035 H 1021.85 3.85412 -0.976892 0
M  V30 11036 N 1022.85 0.866709 1.31628 0
M  V30 11037 C 1024.12 0.396828 1.91532 0
M  V30 11038 C 1024.5 -1.12081 1.78889 0
M  V30 11039 O 1023.85 -1.94791 1.19452 0
M  V30 11040 C 1024.06 0.874578 3.37864 0
M  V30 11041 C 1025.41 0.8988 4.14978 0
M  V30 11042 O 1026.43 0.820014 3.46633 0
M  V30 11043 O 1025.29 1.01223 5.37044 0
M  V30 11044 H 1022.39 0.1181 0.818524 0
M  V30 11045 H 1024.93 0.954407 1.40318 0
M  V30 11046 H 1023.7 1.91807 3.41066 0
M  V30 11047 H 1023.33 0.295126 3.96503 0
M  V30 11048 N 1024.32 -1.44642 0.625825 0
M  V30 11049 C 1025.23 -2.34451 -0.0836134 0
M  V30 11050 C 1026.25 -1.5231 -0.841289 0
M  V30 11051 O 1027.43 -1.85056 -0.794754 0
M  V30 11052 C 1024.49 -3.30211 -1.05648 0
M  V30 11053 C 1023.55 -4.28259 -0.298759 0
M  V30 11054 C 1022.78 -5.19444 -1.22528 0
M  V30 11055 O 1023.01 -5.14444 -2.46382 0
M  V30 11056 O 1021.94 -5.97668 -0.71247 0
M  V30 11057 H 1025.77 -2.96555 0.654912 0
M  V30 11058 H 1023.35 -1.44327 0.386029 0
M  V30 11059 H 1025.23 -3.8917 -1.61632 0
M  V30 11060 H 1023.91 -2.70648 -1.77571 0
M  V30 11061 H 1022.82 -3.72863 0.304001 0
M  V30 11062 H 1024.15 -4.90728 0.380345 0
M  V30 11063 N 1025.8 -0.366053 -1.5329 0
M  V30 11064 C 1027.22 -0.0150149 -1.59593 0
M  V30 11065 C 1027.42 1.46719 -1.38116 0
M  V30 11066 O 1026.47 2.22884 -1.18656 0
M  V30 11067 C 1027.79 -0.471374 -2.96982 0
M  V30 11068 C 1029.33 -0.425634 -3.10092 0
M  V30 11069 C 1029.81 -0.857812 -4.49895 0
M  V30 11070 N 1031.3 -0.81289 -4.56011 0
M  V30 11071 C 1032.04 -1.11898 -5.62376 0
M  V30 11072 N 1031.53 -1.49436 -6.76491 0
M  V30 11073 N 1033.32 -1.04174 -5.52362 0
M  V30 11074 H 1025.48 -1.33127 -1.65502 0
M  V30 11075 H 1027.74 -0.544172 -0.776261 0
M  V30 11076 H 1027.44 -1.50569 -3.1784 0
M  V30 11077 H 1027.32 0.141764 -3.76934 0
M  V30 11078 H 1029.71 0.599548 -2.88945 0
M  V30 11079 H 1029.79 -1.07427 -2.32149 0
M  V30 11080 H 1029.43 -1.88111 -4.7178 0
M  V30 11081 H 1029.36 -0.186419 -5.2627 0
M  V30 11082 H 1031.85 -0.536343 -3.74075 0
M  V30 11083 H 1032.16 -1.71217 -7.53594 0
M  V30 11084 H 1030.51 -1.53302 -6.77882 0
M  V30 11085 H 1033.7 -0.747654 -4.62091 0
M  V30 11086 H 1033.87 -1.28362 -6.35159 0
M  V30 11087 N 1027.28 1.57312 -0.0952337 0
M  V30 11088 C 1028.21 2.11059 0.893678 0
M  V30 11089 C 1029.22 1.04787 1.24594 0
M  V30 11090 O 1030.41 1.32233 1.19903 0
M  V30 11091 C 1027.51 2.57552 2.20272 0
M  V30 11092 C 1026.69 3.87661 2.02578 0
M  V30 11093 C 1025.75 4.2 3.16996 0
M  V30 11094 O 1024.77 4.89219 2.90953 0
M  V30 11095 N 1025.97 3.75414 4.42769 0
M  V30 11096 H 1028.74 2.96532 0.434632 0
M  V30 11097 H 1026.3 1.6165 0.0898661 0
M  V30 11098 H 1028.29 2.76232 2.95766 0
M  V30 11099 H 1026.86 1.7709 2.576 0
M  V30 11100 H 1026.08 3.78128 1.11413 0
M  V30 11101 H 1027.37 4.7278 1.88032 0
M  V30 11102 H 1026.77 3.1954 4.66809 0
M  V30 11103 H 1025.32 3.99249 5.15212 0
M  V30 11104 N 1028.76 -0.17846 1.56586 0
M  V30 11105 C 1030 -0.90281 1.83381 0
M  V30 11106 C 1030.36 -1.79738 0.675139 0
M  V30 11107 O 1031.56 -2.55879 0.823368 0
M  V30 11108 C 1029.83 -1.68353 3.15265 0
M  V30 11109 S 1031.39 -2.45762 3.6352 0
M  V30 11110 H 1028.21 -0.302508 0.643436 0
M  V30 11111 H 1030.81 -0.164961 1.94803 0
M  V30 11112 H 1029.52 -1.01725 3.97593 0
M  V30 11113 H 1029.05 -2.46289 3.06766 0
M  V30 11114 H 1031.06 -3.70312 3.30278 0
M  V30 11115 N 1030.24 -1.51135 -0.446768 0
M  V30 11116 C 1031.48 -1.62571 -1.19388 0
M  V30 11117 C 1031.8 -0.3432 -1.92566 0
M  V30 11118 O 1033 -0.336804 -2.69403 0
M  V30 11119 C 1031.46 -2.87071 -2.17068 0
M  V30 11120 C 1031.07 -4.22291 -1.49581 0
M  V30 11121 C 1032.81 -3.07862 -2.9227 0
M  V30 11122 C 1030.72 -5.3795 -2.45689 0
M  V30 11123 H 1029.65 -0.60549 -0.449331 0
M  V30 11124 H 1032.3 -1.77593 -0.461846 0
M  V30 11125 H 1030.68 -2.65662 -2.93666 0
M  V30 11126 H 1031.86 -4.54046 -0.786054 0
M  V30 11127 H 1030.17 -4.07302 -0.865677 0
M  V30 11128 H 1032.77 -3.91444 -3.64246 0
M  V30 11129 H 1033.11 -2.20559 -3.53072 0
M  V30 11130 H 1033.64 -3.29566 -2.2278 0
M  V30 11131 H 1030.38 -6.27484 -1.89591 0
M  V30 11132 H 1029.9 -5.10583 -3.14746 0
M  V30 11133 H 1031.58 -5.69517 -3.07017 0
M  V30 11134 N 1031.71 0.701592 -1.41122 0
M  V30 11135 C 1032.66 1.81559 -1.42495 0
M  V30 11136 C 1033.63 1.63722 -0.280078 0
M  V30 11137 O 1034.82 1.84658 -0.480231 0
M  V30 11138 C 1031.96 3.19392 -1.30702 0
M  V30 11139 C 1031.07 3.48704 -2.55009 0
M  V30 11140 C 1030.2 4.76118 -2.35554 0
M  V30 11141 C 1029.24 4.98378 -3.55367 0
M  V30 11142 N 1028.38 6.17014 -3.3502 0
M  V30 11143 H 1033.22 1.7972 -2.37707 0
M  V30 11144 H 1030.76 0.877727 -1.18044 0
M  V30 11145 H 1032.71 3.99004 -1.21867 0
M  V30 11146 H 1031.34 3.20423 -0.391012 0
M  V30 11147 H 1030.4 2.63542 -2.74317 0
M  V30 11148 H 1031.71 3.61057 -3.44151 0
M  V30 11149 H 1030.86 5.63774 -2.24152 0
M  V30 11150 H 1029.6 4.66 -1.43859 0
M  V30 11151 H 1028.61 4.09172 -3.6723 0
M  V30 11152 H 1029.83 5.10359 -4.48007 0
M  V30 11153 H 1027.78 6.0812 -2.4602 0
M  V30 11154 H 1027.69 6.30107 -4.17733 0
M  V30 11155 H 1028.96 7.0742 -3.27379 0
M  V30 11156 N 1033.19 1.2685 0.935242 0
M  V30 11157 C 1034.43 1.13972 1.69675 0
M  V30 11158 C 1034.8 -0.310655 1.8947 0
M  V30 11159 O 1036 -0.561692 2.62866 0
M  V30 11160 C 1034.27 1.89387 3.03096 0
M  V30 11161 S 1035.83 1.92633 3.94256 0
M  V30 11162 H 1032.64 0.407009 0.582979 0
M  V30 11163 H 1035.25 1.60653 1.11404 0
M  V30 11164 H 1033.95 2.9397 2.86374 0
M  V30 11165 H 1033.48 1.43171 3.66423 0
M  V30 11166 H 1035.5 1.01732 4.85659 0
M  V30 11167 N 1034.67 -1.14067 1.0875 0
M  V30 11168 C 1035.62 -2.19261 0.720633 0
M  V30 11169 C 1036.59 -1.63462 -0.294847 0
M  V30 11170 O 1037.77 -1.89967 -0.178058 0
M  V30 11171 C 1034.91 -3.44816 0.139873 0
M  V30 11172 C 1034.03 -4.1475 1.20856 0
M  V30 11173 C 1033.16 -5.27899 0.591285 0
M  V30 11174 C 1032.2 -5.89672 1.64176 0
M  V30 11175 N 1031.34 -6.94264 1.04603 0
M  V30 11176 H 1036.18 -2.49991 1.62198 0
M  V30 11177 H 1033.71 -1.22757 0.810497 0
M  V30 11178 H 1035.67 -4.16648 -0.214587 0
M  V30 11179 H 1034.3 -3.14558 -0.724774 0
M  V30 11180 H 1033.35 -3.41272 1.6804 0
M  V30 11181 H 1034.67 -4.56753 2.00446 0
M  V30 11182 H 1033.82 -6.06417 0.185271 0
M  V30 11183 H 1032.56 -4.87128 -0.236236 0
M  V30 11184 H 1031.56 -5.09854 2.05739 0
M  V30 11185 H 1032.79 -6.32517 2.47182 0
M  V30 11186 H 1030.73 -6.55562 0.239664 0
M  V30 11187 H 1030.65 -7.34771 1.77898 0
M  V30 11188 H 1031.92 -7.7665 0.665989 0
M  V30 11189 N 1036.15 -0.873678 -1.31166 0
M  V30 11190 C 1037.38 -0.501043 -2.00742 0
M  V30 11191 C 1037.79 0.907477 -1.65561 0
M  V30 11192 O 1037.15 1.59507 -0.886771 0
M  V30 11193 C 1037.2 -0.652877 -3.55556 0
M  V30 11194 O 1036.92 -2.00593 -3.89479 0
M  V30 11195 C 1038.42 -0.281742 -4.42404 0
M  V30 11196 H 1035.64 -0.194829 -0.642092 0
M  V30 11197 H 1038.19 -1.17587 -1.67313 0
M  V30 11198 H 1036.34 -0.0255627 -3.87392 0
M  V30 11199 H 1036.75 -2.01638 -4.84193 0
M  V30 11200 H 1038.23 -0.43892 -5.50252 0
M  V30 11201 H 1038.71 0.779389 -4.32229 0
M  V30 11202 H 1039.31 -0.88491 -4.15992 0
M  V30 11203 N 1037.63 1.44308 -0.633487 0
M  V30 11204 C 1038.85 2.06384 -0.146063 0
M  V30 11205 C 1039.27 1.47357 1.18031 0
M  V30 11206 O 1038.63 0.597334 1.72448 0
M  V30 11207 C 1038.68 3.61489 -0.0276722 0
M  V30 11208 O 1038.4 4.18318 -1.3016 0
M  V30 11209 C 1039.9 4.40604 0.488168 0
M  V30 11210 H 1037.12 0.666122 -0.0807632 0
M  V30 11211 H 1039.66 1.85139 -0.868557 0
M  V30 11212 H 1037.82 3.81988 0.645273 0
M  V30 11213 H 1038.23 5.11783 -1.14797 0
M  V30 11214 H 1039.71 5.49545 0.520013 0
M  V30 11215 H 1040.18 4.12218 1.51568 0
M  V30 11216 H 1040.79 4.2503 -0.151608 0
M  V30 11217 N 1039.1 0.374177 1.53094 0
M  V30 11218 C 1040.34 -0.21278 2.03289 0
M  V30 11219 C 1040.71 -1.45291 1.25517 0
M  V30 11220 O 1041.91 -2.11605 1.65761 0
M  V30 11221 C 1040.18 -0.48913 3.54037 0
M  V30 11222 S 1041.74 -1.04853 4.26088 0
M  V30 11223 H 1038.56 -0.0612752 0.708355 0
M  V30 11224 H 1041.16 0.519031 1.88484 0
M  V30 11225 H 1039.86 0.420786 4.08237 0
M  V30 11226 H 1039.39 -1.24978 3.7302 0
M  V30 11227 H 1041.41 -2.33213 4.3798 0
M  V30 11228 N 1040.58 -1.57259 0.103575 0
M  V30 11229 C 1041.83 -1.94657 -0.558126 0
M  V30 11230 C 1042.16 -0.985886 -1.67662 0
M  V30 11231 O 1041.41 -0.0069745 -1.95699 0
M  V30 11232 C 1041.71 -3.38549 -1.14538 0
M  V30 11233 C 1041.38 -4.50651 -0.149818 0
M  V30 11234 C 1040.04 -4.8104 0.12398 0
M  V30 11235 C 1042.39 -5.18503 0.529497 0
M  V30 11236 C 1039.72 -5.76606 1.08364 0
M  V30 11237 C 1042.07 -6.15099 1.47769 0
M  V30 11238 C 1040.74 -6.43889 1.75963 0
M  V30 11239 H 1040.01 -0.712299 -0.204233 0
M  V30 11240 H 1042.65 -1.90641 0.181208 0
M  V30 11241 H 1040.96 -3.39185 -1.96115 0
M  V30 11242 H 1042.65 -3.6479 -1.66521 0
M  V30 11243 H 1039.24 -4.2697 -0.373404 0
M  V30 11244 H 1043.43 -4.95194 0.331121 0
M  V30 11245 H 1038.68 -5.97223 1.30899 0
M  V30 11246 H 1042.86 -6.66767 2.00983 0
M  V30 11247 H 1040.49 -7.17749 2.50481 0
M  V30 11248 N 1042.06 0.170153 -1.56679 0
M  V30 11249 C 1042.99 1.21285 -1.9953 0
M  V30 11250 C 1043.97 1.46104 -0.871071 0
M  V30 11251 O 1045.16 1.57419 -1.13724 0
M  V30 11252 C 1042.29 2.5515 -2.35618 0
M  V30 11253 C 1041.24 2.44898 -3.51011 0
M  V30 11254 C 1040.57 3.83263 -3.72845 0
M  V30 11255 C 1041.87 1.95271 -4.84424 0
M  V30 11256 H 1043.56 0.856646 -2.86883 0
M  V30 11257 H 1041.11 0.410634 -1.38021 0
M  V30 11258 H 1043.06 3.28299 -2.64193 0
M  V30 11259 H 1041.78 2.92561 -1.45175 0
M  V30 11260 H 1040.44 1.74203 -3.22566 0
M  V30 11261 H 1040.09 4.18069 -2.79691 0
M  V30 11262 H 1039.79 3.77272 -4.50488 0
M  V30 11263 H 1041.31 4.57996 -4.03822 0
M  V30 11264 H 1042.73 2.58195 -5.11867 0
M  V30 11265 H 1041.13 2.00225 -5.65712 0
M  V30 11266 H 1042.2 0.90709 -4.7634 0
M  V30 11267 N 1043.54 1.5137 0.438746 0
M  V30 11268 C 1044.76 1.68058 1.21537 0
M  V30 11269 C 1045.19 0.376787 1.84288 0
M  V30 11270 O 1044.55 -0.662911 1.68746 0
M  V30 11271 C 1044.59 2.79684 2.27616 0
M  V30 11272 O 1043.7 2.43189 3.33066 0
M  V30 11273 H 1043.04 0.560408 0.356144 0
M  V30 11274 H 1045.57 1.97926 0.518311 0
M  V30 11275 H 1045.58 3.03726 2.72423 0
M  V30 11276 H 1044.25 3.74293 1.81321 0
M  V30 11277 H 1042.83 2.29713 2.93746 0
M  V30 11278 N 1045.02 -0.694098 1.41492 0
M  V30 11279 C 1045.98 -1.78976 1.43179 0
M  V30 11280 C 1046.98 -1.57539 0.322191 0
M  V30 11281 O 1048.17 -1.64185 0.582138 0
M  V30 11282 C 1045.3 -3.17368 1.2446 0
M  V30 11283 H 1046.49 -1.78874 2.40716 0
M  V30 11284 H 1044.05 -0.901867 1.27656 0
M  V30 11285 H 1044.78 -3.23109 0.277691 0
M  V30 11286 H 1044.57 -3.3433 2.04856 0
M  V30 11287 H 1046.06 -3.97345 1.28479 0
M  V30 11288 N 1046.49 -1.27344 -0.928501 0
M  V30 11289 C 1047.42 -1.12517 -2.04602 0
M  V30 11290 C 1048.41 -0.0268563 -1.70079 0
M  V30 11291 O 1049.59 -0.201197 -1.93155 0
M  V30 11292 C 1046.72 -0.770749 -3.3864 0
M  V30 11293 C 1045.67 -1.8222 -3.87272 0
M  V30 11294 C 1045 -1.32178 -5.18105 0
M  V30 11295 C 1046.3 -3.22614 -4.10752 0
M  V30 11296 H 1047.99 -2.06 -2.17265 0
M  V30 11297 H 1045.54 -0.991827 -1.04397 0
M  V30 11298 H 1047.49 -0.653843 -4.16297 0
M  V30 11299 H 1046.22 0.19979 -3.25988 0
M  V30 11300 H 1044.88 -1.928 -3.11807 0
M  V30 11301 H 1044.52 -0.340719 -5.01845 0
M  V30 11302 H 1044.22 -2.02474 -5.51614 0
M  V30 11303 H 1045.75 -1.2178 -5.98333 0
M  V30 11304 H 1047.16 -3.1504 -4.78981 0
M  V30 11305 H 1045.56 -3.90614 -4.55566 0
M  V30 11306 H 1046.63 -3.67727 -3.16077 0
M  V30 11307 N 1047.97 1.13488 -1.09353 0
M  V30 11308 C 1048.94 2.17066 -0.735863 0
M  V30 11309 C 1049.94 1.59086 0.234181 0
M  V30 11310 O 1051.13 1.74196 0.012463 0
M  V30 11311 C 1048.26 3.40786 -0.0880975 0
M  V30 11312 H 1049.45 2.50221 -1.65316 0
M  V30 11313 H 1047 1.28304 -0.89263 0
M  V30 11314 H 1047.74 3.1322 0.840462 0
M  V30 11315 H 1047.52 3.8414 -0.786073 0
M  V30 11316 H 1049.01 4.17342 0.146775 0
M  V30 11317 N 1049.45 0.880621 1.30701 0
M  V30 11318 C 1050.69 0.503519 1.98101 0
M  V30 11319 C 1051.06 -0.929075 1.68024 0
M  V30 11320 O 1052.26 -1.41208 2.28722 0
M  V30 11321 C 1050.53 0.765652 3.49102 0
M  V30 11322 S 1052.09 0.490001 4.36056 0
M  V30 11323 H 1048.9 0.187522 0.685825 0
M  V30 11324 H 1051.51 1.13895 1.58897 0
M  V30 11325 H 1050.21 1.80688 3.68484 0
M  V30 11326 H 1049.74 0.117616 3.93224 0
M  V30 11327 H 1051.76 -0.673236 4.91612 0
M  V30 11328 N 1050.93 -1.4397 0.641131 0
M  V30 11329 C 1052.16 -2.06004 0.156779 0
M  V30 11330 C 1052.57 -1.48059 -1.17793 0
M  V30 11331 O 1051.91 -0.601788 -1.73563 0
M  V30 11332 C 1051.97 -3.59493 -0.0217203 0
M  V30 11333 C 1051.64 -4.39957 1.23639 0
M  V30 11334 C 1052.63 -4.72797 2.16239 0
M  V30 11335 C 1050.32 -4.80168 1.4746 0
M  V30 11336 C 1052.31 -5.44741 3.30962 0
M  V30 11337 C 1050 -5.51859 2.62478 0
M  V30 11338 C 1051 -5.84067 3.54055 0
M  V30 11339 O 1050.69 -6.54296 4.67067 0
M  V30 11340 H 1050.42 -0.671061 0.0815685 0
M  V30 11341 H 1052.97 -1.85664 0.878517 0
M  V30 11342 H 1051.2 -3.78362 -0.798707 0
M  V30 11343 H 1052.89 -4.03263 -0.461893 0
M  V30 11344 H 1053.66 -4.42261 1.99073 0
M  V30 11345 H 1049.54 -4.54513 0.770652 0
M  V30 11346 H 1053.08 -5.69798 4.02462 0
M  V30 11347 H 1048.98 -5.81811 2.79583 0
M  V30 11348 H 1049.74 -6.72772 4.66177 0
M  V30 11349 N 1052.41 -0.382291 -1.52893 0
M  V30 11350 C 1053.68 0.259354 -1.93873 0
M  V30 11351 C 1054.06 1.64964 -1.3172 0
M  V30 11352 O 1053.41 2.23345 -0.482611 0
M  V30 11353 C 1053.62 0.292765 -3.4777 0
M  V30 11354 C 1054.97 0.525095 -4.21341 0
M  V30 11355 O 1055.99 0.373272 -3.54239 0
M  V30 11356 O 1054.85 0.822004 -5.40283 0
M  V30 11357 H 1051.95 0.159422 -0.811489 0
M  V30 11358 H 1054.49 -0.436289 -1.63996 0
M  V30 11359 H 1053.27 -0.681341 -3.85323 0
M  V30 11360 H 1052.89 1.03362 -3.8393 0
M  V30 11361 N 1053.89 1.57202 -0.111913 0
M  V30 11362 C 1055.13 1.96834 0.550967 0
M  V30 11363 C 1055.49 0.993502 1.64297 0
M  V30 11364 O 1056.69 1.27894 2.36425 0
M  V30 11365 C 1054.96 3.40805 1.07641 0
M  V30 11366 S 1056.52 4.02445 1.74881 0
M  V30 11367 H 1053.34 0.688021 0.179298 0
M  V30 11368 H 1055.94 1.94522 -0.195312 0
M  V30 11369 H 1054.64 4.09508 0.270377 0
M  V30 11370 H 1054.18 3.46752 1.85814 0
M  V30 11371 H 1056.19 3.92623 3.03416 0
M  V30 11372 N 1055.36 -0.161842 1.56767 0
M  V30 11373 C 1056.77 -0.723385 1.72116 0
M  V30 11374 C 1057.13 -1.82355 0.723961 0
M  V30 11375 O 1056.25 -2.16107 -0.112643 0
M  V30 11376 C 1056.85 -1.31895 3.12072 0
M  V30 11377 C 1055.4 -1.82722 3.29074 0
M  V30 11378 C 1054.55 -0.709863 2.6806 0
M  V30 11379 H 1057.5 0.0636647 1.58572 0
M  V30 11380 H 1057.52 -2.18871 3.11249 0
M  V30 11381 H 1057.04 -0.51801 3.84627 0
M  V30 11382 H 1055.14 -2.6543 2.61491 0
M  V30 11383 H 1055.25 -1.96614 4.36898 0
M  V30 11384 H 1053.61 -1.13273 2.28126 0
M  V30 11385 H 1054.4 0.0793884 3.43208 0
M  V30 11386 N 1056.84 -1.516 -0.430713 0
M  V30 11387 C 1058.12 -1.55142 -1.19123 0
M  V30 11388 C 1058.5 -0.319596 -2.08667 0
M  V30 11389 O 1057.85 0.694927 -2.17676 0
M  V30 11390 C 1058.06 -2.86891 -1.98732 0
M  V30 11391 C 1059.4 -3.39089 -2.55546 0
M  V30 11392 O 1060.43 -2.88486 -2.08936 0
M  V30 11393 O 1059.29 -4.27401 -3.40574 0
M  V30 11394 H 1056.38 -0.624019 -0.542705 0
M  V30 11395 H 1058.93 -1.63917 -0.439244 0
M  V30 11396 H 1057.7 -3.68002 -1.33005 0
M  V30 11397 H 1057.32 -2.81309 -2.80982 0
M  V30 11398 N 1058.32 0.686584 -1.41858 0
M  V30 11399 C 1059.57 1.44379 -1.41418 0
M  V30 11400 C 1059.89 1.94981 -0.0273696 0
M  V30 11401 O 1059.16 1.72296 0.932248 0
M  V30 11402 H 1057.74 0.53574 -0.520568 0
M  V30 11403 H 1060.4 0.812056 -1.77177 0
M  V30 11404 H 1059.5 2.30258 -2.10684 0
M  V30 11405 N 1059.8 1.27835 0.921735 0
M  V30 11406 C 1060.73 1.136 2.04003 0
M  V30 11407 C 1061.71 0.0358756 1.70062 0
M  V30 11408 O 1062.89 0.211438 1.93046 0
M  V30 11409 C 1060.02 0.788697 3.38226 0
M  V30 11410 C 1058.98 1.84272 3.863 0
M  V30 11411 C 1058.3 1.34923 5.17397 0
M  V30 11412 C 1059.6 3.24788 4.09035 0
M  V30 11413 H 1061.3 2.07149 2.1617 0
M  V30 11414 H 1058.84 0.997349 1.0387 0
M  V30 11415 H 1060.8 0.675911 4.15944 0
M  V30 11416 H 1059.52 -0.182499 3.2609 0
M  V30 11417 H 1058.18 1.94451 3.1078 0
M  V30 11418 H 1057.83 0.367328 5.01657 0
M  V30 11419 H 1057.53 2.05397 5.50532 0
M  V30 11420 H 1059.05 1.24951 5.97678 0
M  V30 11421 H 1060.47 3.17575 4.77304 0
M  V30 11422 H 1058.86 3.93025 4.53488 0
M  V30 11423 H 1059.93 3.69398 3.14122 0
M  V30 11424 N 1061.28 -1.12907 1.09954 0
M  V30 11425 C 1062.52 -1.84579 0.840155 0
M  V30 11426 C 1062.85 -1.83605 -0.632692 0
M  V30 11427 O 1062.13 -1.27803 -1.46617 0
M  V30 11428 C 1062.41 -3.32489 1.38286 0
M  V30 11429 C 1062.27 -3.41946 2.92221 0
M  V30 11430 C 1063.58 -4.28091 1.0211 0
M  V30 11431 H 1060.7 -0.670169 0.306663 0
M  V30 11432 H 1063.35 -1.3249 1.36185 0
M  V30 11433 H 1061.5 -3.76978 0.939123 0
M  V30 11434 H 1063.17 -3.06128 3.45085 0
M  V30 11435 H 1061.41 -2.8265 3.29077 0
M  V30 11436 H 1062.08 -4.45983 3.25274 0
M  V30 11437 H 1064.56 -3.91701 1.4039 0
M  V30 11438 H 1063.43 -5.30005 1.42781 0
M  V30 11439 H 1063.69 -4.42044 -0.0700753 0
M  V30 11440 N 1062.75 -0.88754 -1.30232 0
M  V30 11441 C 1063.99 -0.514017 -1.97831 0
M  V30 11442 C 1064.36 0.920151 -1.68515 0
M  V30 11443 O 1065.56 1.39993 -2.29468 0
M  V30 11444 C 1063.83 -0.784155 -3.48692 0
M  V30 11445 S 1065.39 -0.513119 -4.3579 0
M  V30 11446 H 1062.21 -0.191157 -0.684821 0
M  V30 11447 H 1064.81 -1.14736 -1.58291 0
M  V30 11448 H 1063.51 -1.82639 -3.6752 0
M  V30 11449 H 1063.04 -0.138468 -3.93156 0
M  V30 11450 H 1065.06 0.647155 -4.91962 0
M  V30 11451 N 1064.23 1.43628 -0.648757 0
M  V30 11452 C 1065.16 2.33478 0.0320785 0
M  V30 11453 C 1066.14 1.49217 0.816605 0
M  V30 11454 O 1067.33 1.77892 0.778974 0
M  V30 11455 C 1064.46 3.32525 1.00222 0
M  V30 11456 C 1063.41 4.2674 0.328119 0
M  V30 11457 C 1062.74 5.15791 1.4094 0
M  V30 11458 C 1064.04 5.16493 -0.776701 0
M  V30 11459 H 1065.73 2.90657 -0.718257 0
M  V30 11460 H 1063.28 1.3976 -0.346852 0
M  V30 11461 H 1065.23 3.94277 1.4874 0
M  V30 11462 H 1063.96 2.73593 1.78366 0
M  V30 11463 H 1062.61 3.66346 -0.136569 0
M  V30 11464 H 1062.26 4.53201 2.18216 0
M  V30 11465 H 1061.96 5.79645 0.963631 0
M  V30 11466 H 1063.49 5.80416 1.89603 0
M  V30 11467 H 1064.9 5.7208 -0.373878 0
M  V30 11468 H 1063.3 5.89043 -1.14667 0
M  V30 11469 H 1064.37 4.56448 -1.63654 0
M  V30 11470 N 1065.71 0.390394 1.52688 0
M  V30 11471 C 1066.94 -0.194013 2.06491 0
M  V30 11472 C 1067.36 -1.3965 1.26014 0
M  V30 11473 O 1066.72 -1.79038 0.285468 0
M  V30 11474 C 1066.77 -0.541306 3.56514 0
M  V30 11475 O 1065.87 -1.63509 3.78601 0
M  V30 11476 H 1065.21 -0.0223608 0.663623 0
M  V30 11477 H 1067.74 0.558179 1.96839 0
M  V30 11478 H 1067.75 -0.805301 3.99974 0
M  V30 11479 H 1066.43 0.337828 4.14526 0
M  V30 11480 H 1065 -1.36473 3.4703 0
M  V30 11481 N 1067.19 -1.57141 0.120249 0
M  V30 11482 C 1068.14 -2.11936 -0.84067 0
M  V30 11483 C 1069.12 -1.04044 -1.22734 0
M  V30 11484 O 1070.31 -1.30275 -1.19822 0
M  V30 11485 C 1067.44 -2.72332 -2.09023 0
M  V30 11486 C 1066.53 -3.87306 -1.72786 0
M  V30 11487 N 1066.92 -4.94302 -1.07232 0
M  V30 11488 C 1065.22 -3.97513 -2.02236 0
M  V30 11489 C 1065.92 -5.7467 -0.901626 0
M  V30 11490 N 1064.9 -5.24535 -1.42702 0
M  V30 11491 H 1068.7 -2.92038 -0.330308 0
M  V30 11492 H 1066.21 -1.62192 -0.0821814 0
M  V30 11493 H 1068.21 -3.09932 -2.78833 0
M  V30 11494 H 1066.87 -1.93693 -2.60601 0
M  V30 11495 H 1067.88 -5.12641 -0.736158 0
M  V30 11496 H 1064.56 -3.29917 -2.55853 0
M  V30 11497 H 1065.95 -6.70785 -0.386974 0
M  V30 11498 N 1068.67 0.153526 -1.5685 0
M  V30 11499 C 1069.92 0.865628 -1.82181 0
M  V30 11500 C 1070.23 1.82629 -0.700434 0
M  V30 11501 O 1071.43 2.58206 -0.839155 0
M  V30 11502 C 1069.89 1.58993 -3.22877 0
M  V30 11503 C 1069.5 0.672006 -4.42931 0
M  V30 11504 C 1071.24 2.2892 -3.57486 0
M  V30 11505 C 1069.15 1.39755 -5.7465 0
M  V30 11506 H 1068.08 0.326993 -0.679406 0
M  V30 11507 H 1070.73 0.118403 -1.83118 0
M  V30 11508 H 1069.11 2.38255 -3.16308 0
M  V30 11509 H 1070.29 -0.0849226 -4.60722 0
M  V30 11510 H 1068.6 0.0814825 -4.1632 0
M  V30 11511 H 1071.2 2.8383 -4.5315 0
M  V30 11512 H 1071.54 3.05105 -2.83226 0
M  V30 11513 H 1072.07 1.56583 -3.65686 0
M  V30 11514 H 1068.81 0.677686 -6.51987 0
M  V30 11515 H 1068.33 2.12736 -5.60806 0
M  V30 11516 H 1070.01 1.94024 -6.17223 0
M  V30 11517 N 1070.14 1.51827 0.422667 0
M  V30 11518 C 1071.09 1.74791 1.53463 0
M  V30 11519 C 1072.09 0.614602 1.57858 0
M  V30 11520 O 1073.29 0.796336 1.61426 0
M  V30 11521 H 1069.67 0.552524 0.510118 0
M  V30 11522 H 1071.64 2.67974 1.31273 0
M  V30 11523 C 1070.39 1.90339 2.90975 0
M  V30 11524 H 1069.71 2.76958 2.8833 0
M  V30 11525 H 1071.15 2.10413 3.68106 0
M  V30 11526 C 1069.61 0.66695 3.30232 0
M  V30 11527 O 1070.14 -0.171542 4.01334 0
M  V30 11528 N 1068.35 0.506768 2.86147 0
M  V30 11529 H 1067.89 1.19019 2.28456 0
M  V30 11530 H 1067.85 -0.319247 3.12775 0
M  V30 11531 N 1071.62 -0.679052 1.4222 0
M  V30 11532 C 1072.9 -1.43473 1.32947 0
M  V30 11533 C 1073.28 -2.11071 -0.0351689 0
M  V30 11534 O 1072.63 -2.02925 -1.05042 0
M  V30 11535 C 1072.84 -2.44065 2.49466 0
M  V30 11536 C 1074.19 -3.08834 2.91387 0
M  V30 11537 O 1075.21 -2.54392 2.49325 0
M  V30 11538 O 1074.07 -4.07478 3.64175 0
M  V30 11539 H 1071.16 -0.639743 0.524078 0
M  V30 11540 H 1073.71 -0.708134 1.54219 0
M  V30 11541 H 1072.48 -1.92884 3.40457 0
M  V30 11542 H 1072.1 -3.24212 2.30158 0
M  V30 11543 N 1073.1 -1.28322 -0.914942 0
M  V30 11544 C 1074.03 -1.14681 -2.03398 0
M  V30 11545 C 1075.01 -0.0448939 -1.70041 0
M  V30 11546 O 1076.2 -0.221672 -1.92931 0
M  V30 11547 C 1073.33 -0.806623 -3.37803 0
M  V30 11548 C 1072.28 -1.86318 -3.85318 0
M  V30 11549 C 1071.61 -1.37665 -5.16674 0
M  V30 11550 C 1072.91 -3.26953 -4.07307 0
M  V30 11551 H 1074.6 -2.08293 -2.15068 0
M  V30 11552 H 1072.15 -1.00284 -1.03339 0
M  V30 11553 H 1074.1 -0.69796 -4.1558 0
M  V30 11554 H 1072.82 0.165203 -3.26182 0
M  V30 11555 H 1071.48 -1.96096 -3.09745 0
M  V30 11556 H 1071.13 -0.393927 -5.01455 0
M  V30 11557 H 1070.83 -2.08313 -5.49435 0
M  V30 11558 H 1072.35 -1.28119 -5.97007 0
M  V30 11559 H 1073.77 -3.20102 -4.75613 0
M  V30 11560 H 1072.17 -3.95424 -4.51398 0
M  V30 11561 H 1073.24 -3.71059 -3.12159 0
M  V30 11562 N 1074.58 1.12322 -1.10551 0
M  V30 11563 C 1075.82 1.85497 -0.858492 0
M  V30 11564 C 1076.18 1.8222 0.604966 0
M  V30 11565 O 1077.38 2.5075 0.968382 0
M  V30 11566 C 1075.65 3.29124 -1.39327 0
M  V30 11567 S 1077.21 4.19659 -1.28186 0
M  V30 11568 H 1074.03 0.639768 -0.31019 0
M  V30 11569 H 1076.63 1.35298 -1.41119 0
M  V30 11570 H 1075.34 3.29069 -2.45238 0
M  V30 11571 H 1074.87 3.84388 -0.837203 0
M  V30 11572 H 1076.88 4.95618 -0.240325 0
M  V30 11573 N 1076.06 0.894434 1.2976 0
M  V30 11574 C 1077 0.366586 2.2787 0
M  V30 11575 C 1077.97 -0.548425 1.56785 0
M  V30 11576 O 1079.16 -0.474804 1.84798 0
M  V30 11577 C 1076.3 -0.404531 3.42721 0
M  V30 11578 C 1075.41 0.540774 4.28602 0
M  V30 11579 C 1074.55 -0.246875 5.30626 0
M  V30 11580 C 1073.59 0.693294 6.08161 0
M  V30 11581 N 1072.72 -0.059619 7.02075 0
M  V30 11582 H 1077.56 1.20834 2.72402 0
M  V30 11583 H 1075.1 0.607205 1.33983 0
M  V30 11584 H 1077.06 -0.86762 4.08079 0
M  V30 11585 H 1075.69 -1.21078 2.99232 0
M  V30 11586 H 1074.74 1.12237 3.63465 0
M  V30 11587 H 1076.05 1.26065 4.82606 0
M  V30 11588 H 1075.21 -0.771398 6.01776 0
M  V30 11589 H 1073.94 -0.999918 4.77339 0
M  V30 11590 H 1072.95 1.22936 5.35879 0
M  V30 11591 H 1074.17 1.44558 6.63536 0
M  V30 11592 H 1072.12 -0.795026 6.51165 0
M  V30 11593 H 1072.04 0.60045 7.53612 0
M  V30 11594 H 1073.31 -0.564577 7.77453 0
M  V30 11595 N 1077.53 -1.43282 0.656365 0
M  V30 11596 C 1078.77 -2.03652 0.174681 0
M  V30 11597 C 1079.14 -1.5068 -1.18994 0
M  V30 11598 O 1080.34 -2.02716 -1.76521 0
M  V30 11599 C 1078.61 -3.56906 0.18778 0
M  V30 11600 S 1080.17 -4.3822 -0.225599 0
M  V30 11601 H 1076.99 -0.70719 0.0735029 0
M  V30 11602 H 1079.59 -1.75303 0.865403 0
M  V30 11603 H 1078.29 -3.92961 1.18363 0
M  V30 11604 H 1077.82 -3.89903 -0.523378 0
M  V30 11605 H 1079.84 -4.74121 -1.46369 0
M  V30 11606 N 1079.01 -0.398486 -1.52479 0
M  V30 11607 C 1080.24 0.183059 -2.06591 0
M  V30 11608 C 1080.66 1.3898 -1.26753 0
M  V30 11609 O 1080.02 1.78885 -0.294959 0
M  V30 11610 C 1080.07 0.522392 -3.56796 0
M  V30 11611 O 1079.17 1.61499 -3.79462 0
M  V30 11612 H 1078.51 0.0188411 -0.663733 0
M  V30 11613 H 1081.04 -0.56861 -1.9654 0
M  V30 11614 H 1081.05 0.784078 -4.00395 0
M  V30 11615 H 1079.73 -0.359807 -4.14341 0
M  V30 11616 H 1078.31 1.3463 -3.47749 0
M  V30 11617 N 1080.49 1.57075 -0.12858 0
M  V30 11618 C 1081.72 2.00305 0.537839 0
M  V30 11619 C 1082.14 1.00787 1.58819 0
M  V30 11620 O 1081.5 -0.0190839 1.8129 0
M  V30 11621 C 1081.55 3.42371 1.13201 0
M  V30 11622 O 1080.65 3.45786 2.24735 0
M  V30 11623 H 1079.99 0.650456 0.133428 0
M  V30 11624 H 1082.52 2.03415 -0.219882 0
M  V30 11625 H 1082.53 3.80783 1.4652 0
M  V30 11626 H 1081.21 4.14315 0.362713 0
M  V30 11627 H 1079.78 3.19201 1.92783 0
M  V30 11628 N 1081.97 -0.145205 1.5693 0
M  V30 11629 C 1083.19 -0.876386 1.87974 0
M  V30 11630 C 1083.62 -1.73866 0.717795 0
M  V30 11631 O 1082.98 -1.78224 -0.332551 0
M  V30 11632 C 1083.03 -1.70746 3.17613 0
M  V30 11633 O 1082.13 -2.81188 3.01674 0
M  V30 11634 H 1081.47 -0.243987 0.617549 0
M  V30 11635 H 1084 -0.135482 2.04151 0
M  V30 11636 H 1084.01 -2.1021 3.49679 0
M  V30 11637 H 1082.69 -1.07429 4.01786 0
M  V30 11638 H 1081.26 -2.45117 2.81019 0
M  V30 11639 N 1083.45 -1.52049 -0.414609 0
M  V30 11640 C 1084.86 -1.40729 -0.752822 0
M  V30 11641 C 1085.06 -0.507468 -1.95005 0
M  V30 11642 O 1084.12 0.0288189 -2.52484 0
M  V30 11643 C 1085.43 -2.83163 -1.01189 0
M  V30 11644 C 1086.98 -2.92469 -1.11494 0
M  V30 11645 C 1087.46 -4.35859 -1.4068 0
M  V30 11646 N 1088.95 -4.39069 -1.47557 0
M  V30 11647 C 1089.68 -5.47072 -1.71756 0
M  V30 11648 N 1089.18 -6.65201 -1.93595 0
M  V30 11649 N 1090.97 -5.3458 -1.73726 0
M  V30 11650 H 1083.12 -2.09089 0.373549 0
M  V30 11651 H 1085.38 -0.942188 0.104814 0
M  V30 11652 H 1085.09 -3.51104 -0.204609 0
M  V30 11653 H 1084.96 -3.23874 -1.93353 0
M  V30 11654 H 1087.35 -2.24711 -1.91282 0
M  V30 11655 H 1087.43 -2.55222 -0.171794 0
M  V30 11656 H 1087.08 -5.04174 -0.614119 0
M  V30 11657 H 1087.01 -4.70637 -2.36238 0
M  V30 11658 H 1089.5 -3.53913 -1.32491 0
M  V30 11659 H 1089.81 -7.43297 -2.11495 0
M  V30 11660 H 1088.16 -6.68276 -1.90871 0
M  V30 11661 H 1091.35 -4.41271 -1.56198 0
M  V30 11662 H 1091.52 -6.18826 -1.92246 0
M  V30 11663 N 1084.93 0.6715 -1.42579 0
M  V30 11664 C 1085.86 1.79703 -1.42266 0
M  V30 11665 C 1086.87 1.59599 -0.321268 0
M  V30 11666 O 1088.06 1.68657 -0.584564 0
M  V30 11667 C 1085.16 3.16859 -1.20224 0
M  V30 11668 C 1084.33 3.63783 -2.42859 0
M  V30 11669 C 1083.39 4.79683 -2.16312 0
M  V30 11670 O 1082.42 4.90058 -2.89537 0
M  V30 11671 N 1083.62 5.68622 -1.16831 0
M  V30 11672 H 1086.38 1.80455 -2.39282 0
M  V30 11673 H 1083.95 0.854708 -1.375 0
M  V30 11674 H 1085.94 3.92054 -1.00376 0
M  V30 11675 H 1084.51 3.10987 -0.317188 0
M  V30 11676 H 1083.73 2.7923 -2.78252 0
M  V30 11677 H 1085.02 3.91877 -3.24514 0
M  V30 11678 H 1084.41 5.62894 -0.562746 0
M  V30 11679 H 1082.97 6.43615 -1.0297 0
M  V30 11680 N 1086.4 1.28806 0.908124 0
M  V30 11681 C 1087.63 1.1898 1.689 0
M  V30 11682 C 1088.04 -0.253334 1.87496 0
M  V30 11683 O 1087.38 -1.18245 1.40584 0
M  V30 11684 C 1087.45 1.82266 3.0987 0
M  V30 11685 C 1087.11 3.31534 3.14538 0
M  V30 11686 C 1088.11 4.27886 2.95313 0
M  V30 11687 C 1085.79 3.72589 3.36872 0
M  V30 11688 C 1087.79 5.63267 2.98343 0
M  V30 11689 C 1085.47 5.08095 3.39534 0
M  V30 11690 C 1086.47 6.03244 3.2029 0
M  V30 11691 O 1086.16 7.36277 3.22724 0
M  V30 11692 H 1085.89 0.413772 0.534574 0
M  V30 11693 H 1088.45 1.7055 1.14464 0
M  V30 11694 H 1086.68 1.25197 3.65872 0
M  V30 11695 H 1088.36 1.6688 3.70008 0
M  V30 11696 H 1089.13 3.97502 2.77879 0
M  V30 11697 H 1085.01 2.98989 3.50894 0
M  V30 11698 H 1088.55 6.37511 2.83241 0
M  V30 11699 H 1084.45 5.38126 3.56497 0
M  V30 11700 H 1085.22 7.44976 3.39048 0
M  V30 11701 N 1087.88 -1.11734 1.11145 0
M  V30 11702 C 1088.81 -2.1976 0.789152 0
M  V30 11703 C 1089.79 -1.68382 -0.241143 0
M  V30 11704 O 1090.98 -1.93914 -0.105292 0
M  V30 11705 C 1088.11 -3.46549 0.228204 0
M  V30 11706 C 1087.06 -4.11123 1.19002 0
M  V30 11707 C 1086.39 -5.32451 0.489928 0
M  V30 11708 C 1087.69 -4.56406 2.53951 0
M  V30 11709 H 1089.38 -2.46978 1.69241 0
M  V30 11710 H 1086.93 -1.18705 0.81517 0
M  V30 11711 H 1088.88 -4.21399 -0.00945908 0
M  V30 11712 H 1087.6 -3.18782 -0.71033 0
M  V30 11713 H 1086.26 -3.38264 1.41326 0
M  V30 11714 H 1085.91 -5.00953 -0.453315 0
M  V30 11715 H 1085.61 -5.76605 1.1314 0
M  V30 11716 H 1087.14 -6.10042 0.260984 0
M  V30 11717 H 1088.55 -5.22592 2.35733 0
M  V30 11718 H 1086.95 -5.11363 3.14051 0
M  V30 11719 H 1088.02 -3.7001 3.13402 0
M  V30 11720 N 1089.36 -0.901303 -1.29284 0
M  V30 11721 C 1090.78 -0.597634 -1.47988 0
M  V30 11722 C 1090.98 0.860434 -1.82205 0
M  V30 11723 O 1090.03 1.64049 -1.91948 0
M  V30 11724 C 1091.34 -1.52484 -2.5917 0
M  V30 11725 C 1092.89 -1.53021 -2.73045 0
M  V30 11726 C 1093.37 -2.44373 -3.87357 0
M  V30 11727 N 1094.86 -2.42429 -3.94693 0
M  V30 11728 C 1095.59 -3.09817 -4.82495 0
M  V30 11729 N 1095.09 -3.86489 -5.74976 0
M  V30 11730 N 1096.88 -2.98966 -4.76 0
M  V30 11731 H 1089.03 -1.84432 -1.0535 0
M  V30 11732 H 1091.3 -0.790367 -0.523473 0
M  V30 11733 H 1091 -2.56378 -2.40756 0
M  V30 11734 H 1090.88 -1.24657 -3.56006 0
M  V30 11735 H 1093.26 -0.498709 -2.90855 0
M  V30 11736 H 1093.34 -1.84886 -1.76779 0
M  V30 11737 H 1092.99 -3.47618 -3.70302 0
M  V30 11738 H 1092.92 -2.09817 -4.82995 0
M  V30 11739 H 1095.41 -1.86724 -3.28546 0
M  V30 11740 H 1095.72 -4.34959 -6.38773 0
M  V30 11741 H 1094.07 -3.90596 -5.74857 0
M  V30 11742 H 1097.26 -2.38581 -4.02737 0
M  V30 11743 H 1097.43 -3.51758 -5.44215 0
M  V30 11744 N 1090.84 1.42931 -0.663954 0
M  V30 11745 C 1092.07 2.05729 -0.189532 0
M  V30 11746 C 1092.48 1.49914 1.15423 0
M  V30 11747 O 1091.82 0.629324 1.72584 0
M  V30 11748 C 1091.88 3.59482 -0.0354748 0
M  V30 11749 C 1091.54 4.37935 -1.30622 0
M  V30 11750 C 1092.54 4.69297 -2.23733 0
M  V30 11751 C 1090.23 4.77761 -1.5508 0
M  V30 11752 C 1092.22 5.39407 -3.39586 0
M  V30 11753 C 1089.91 5.47613 -2.71224 0
M  V30 11754 C 1090.91 5.7836 -3.63302 0
M  V30 11755 O 1090.59 6.46783 -4.77417 0
M  V30 11756 H 1090.33 0.669678 -0.0922342 0
M  V30 11757 H 1092.88 1.84243 -0.907943 0
M  V30 11758 H 1091.11 3.79584 0.738412 0
M  V30 11759 H 1092.8 4.03947 0.397679 0
M  V30 11760 H 1093.56 4.39038 -2.06084 0
M  V30 11761 H 1089.44 4.53229 -0.842863 0
M  V30 11762 H 1092.99 5.63323 -4.11476 0
M  V30 11763 H 1088.88 5.77289 -2.88804 0
M  V30 11764 H 1089.65 6.6527 -4.76821 0
M  V30 11765 N 1092.32 0.406567 1.52266 0
M  V30 11766 C 1093.73 0.0573228 1.59497 0
M  V30 11767 C 1093.93 -1.43005 1.41957 0
M  V30 11768 O 1092.99 -2.19659 1.24523 0
M  V30 11769 C 1094.3 0.549947 2.95628 0
M  V30 11770 C 1095.85 0.5077 3.08855 0
M  V30 11771 C 1096.32 0.976792 4.47463 0
M  V30 11772 N 1097.81 0.933508 4.53696 0
M  V30 11773 C 1098.55 1.26769 5.59211 0
M  V30 11774 N 1098.05 1.6732 6.72292 0
M  V30 11775 N 1099.84 1.18782 5.49406 0
M  V30 11776 H 1091.99 1.37468 1.61914 0
M  V30 11777 H 1094.25 0.564562 0.76156 0
M  V30 11778 H 1093.96 1.58943 3.13736 0
M  V30 11779 H 1093.83 -0.0417767 3.77177 0
M  V30 11780 H 1096.22 -0.522728 2.90433 0
M  V30 11781 H 1096.3 1.13545 2.29219 0
M  V30 11782 H 1095.94 2.00554 4.66627 0
M  V30 11783 H 1095.87 0.325885 5.25591 0
M  V30 11784 H 1098.37 0.635333 3.72521 0
M  V30 11785 H 1098.68 1.91137 7.4879 0
M  V30 11786 H 1097.02 1.71221 6.73579 0
M  V30 11787 H 1100.21 0.869906 4.59946 0
M  V30 11788 H 1100.39 1.45157 6.31533 0
M  V30 11789 N 1093.79 -1.57004 0.136909 0
M  V30 11790 C 1095.02 -1.99866 -0.523177 0
M  V30 11791 C 1095.43 -1.01584 -1.59616 0
M  V30 11792 O 1094.78 -0.00326426 -1.837 0
M  V30 11793 C 1094.84 -3.39157 -1.19217 0
M  V30 11794 C 1094.5 -4.56231 -0.265 0
M  V30 11795 C 1095.5 -5.17457 0.503412 0
M  V30 11796 C 1093.18 -5.02009 -0.170846 0
M  V30 11797 C 1095.18 -6.22863 1.35353 0
M  V30 11798 C 1092.86 -6.07273 0.682884 0
M  V30 11799 C 1093.86 -6.67568 1.44369 0
M  V30 11800 O 1093.55 -7.70795 2.28321 0
M  V30 11801 H 1093.28 -0.661005 -0.141593 0
M  V30 11802 H 1095.84 -2.04159 0.225445 0
M  V30 11803 H 1094.07 -3.31672 -1.98823 0
M  V30 11804 H 1095.76 -3.66191 -1.75096 0
M  V30 11805 H 1096.52 -4.82994 0.440648 0
M  V30 11806 H 1092.4 -4.54813 -0.752744 0
M  V30 11807 H 1095.94 -6.69855 1.94783 0
M  V30 11808 H 1091.84 -6.41163 0.746978 0
M  V30 11809 H 1092.61 -7.87971 2.21458 0
M  V30 11810 N 1095.27 0.136881 -1.57004 0
M  V30 11811 C 1096.5 0.862436 -1.88068 0
M  V30 11812 C 1096.92 1.74274 -0.726227 0
M  V30 11813 O 1096.27 1.79956 0.30366 0
M  V30 11814 C 1096.32 1.71076 -3.18458 0
M  V30 11815 O 1096.04 0.865918 -4.29457 0
M  V30 11816 C 1097.55 2.54302 -3.63105 0
M  V30 11817 H 1094.77 0.248865 -0.623143 0
M  V30 11818 H 1097.31 0.126633 -2.04108 0
M  V30 11819 H 1095.46 2.39951 -3.04142 0
M  V30 11820 H 1095.88 1.4493 -5.04079 0
M  V30 11821 H 1097.35 3.09384 -4.57149 0
M  V30 11822 H 1097.83 3.3082 -2.88886 0
M  V30 11823 H 1098.44 1.907 -3.80149 0
M  V30 11824 N 1096.75 1.52266 0.40654 0
M  V30 11825 C 1097.68 1.78755 1.50229 0
M  V30 11826 C 1098.66 0.638652 1.57655 0
M  V30 11827 O 1099.85 0.884505 1.72888 0
M  V30 11828 C 1096.98 1.94057 2.88026 0
M  V30 11829 C 1095.93 3.09667 2.95449 0
M  V30 11830 C 1095.26 3.10196 4.35526 0
M  V30 11831 C 1096.56 4.49077 2.66697 0
M  V30 11832 H 1098.25 2.70511 1.28313 0
M  V30 11833 H 1095.8 1.30167 0.615836 0
M  V30 11834 H 1097.75 2.11171 3.64671 0
M  V30 11835 H 1096.47 0.989755 3.11242 0
M  V30 11836 H 1095.13 2.92308 2.2125 0
M  V30 11837 H 1094.78 2.12831 4.55754 0
M  V30 11838 H 1094.48 3.87847 4.41416 0
M  V30 11839 H 1096 3.29443 5.14101 0
M  V30 11840 H 1097.42 4.66628 3.33064 0
M  V30 11841 H 1095.82 5.28665 2.8396 0
M  V30 11842 H 1096.89 4.56995 1.62122 0
M  V30 11843 N 1098.23 -0.663929 1.42933 0
M  V30 11844 C 1099.51 -1.42054 1.34462 0
M  V30 11845 C 1099.89 -2.11096 -0.0127801 0
M  V30 11846 O 1099.23 -2.04027 -1.02884 0
M  V30 11847 C 1099.44 -2.41406 2.5204 0
M  V30 11848 C 1100.79 -3.05726 2.94647 0
M  V30 11849 O 1101.82 -2.51733 2.52009 0
M  V30 11850 O 1100.67 -4.03593 3.68477 0
M  V30 11851 H 1097.77 -0.634149 0.530834 0
M  V30 11852 H 1100.31 -0.691738 1.54962 0
M  V30 11853 H 1099.09 -1.89263 3.42484 0
M  V30 11854 H 1098.71 -3.21752 2.33584 0
M  V30 11855 N 1099.71 -1.29285 -0.901281 0
M  V30 11856 C 1100.62 -1.16161 -2.03823 0
M  V30 11857 C 1101.63 -0.0852298 -1.73791 0
M  V30 11858 O 1102.81 -0.29699 -1.99198 0
M  V30 11859 C 1099.87 -0.837586 -3.3643 0
M  V30 11860 C 1098.93 -1.99764 -3.7999 0
M  V30 11861 C 1098.17 -1.68898 -5.0627 0
M  V30 11862 O 1098.39 -0.609177 -5.67138 0
M  V30 11863 O 1097.32 -2.53648 -5.45845 0
M  V30 11864 H 1101.15 -2.11635 -2.17817 0
M  V30 11865 H 1098.74 -1.08722 -1.02468 0
M  V30 11866 H 1100.62 -0.671376 -4.16017 0
M  V30 11867 H 1099.29 0.0873811 -3.23582 0
M  V30 11868 H 1098.2 -2.21908 -3.01177 0
M  V30 11869 H 1099.53 -2.90376 -3.9742 0
M  V30 11870 N 1101.18 1.11143 -1.11736 0
M  V30 11871 C 1102.11 2.19339 -0.800795 0
M  V30 11872 C 1103.1 1.68508 0.23221 0
M  V30 11873 O 1104.28 1.93967 0.0950063 0
M  V30 11874 C 1101.41 3.46424 -0.246579 0
M  V30 11875 C 1100.36 4.10487 -1.21181 0
M  V30 11876 C 1099.69 5.32183 -0.518158 0
M  V30 11877 C 1100.99 4.55052 -2.56368 0
M  V30 11878 H 1102.68 2.46077 -1.70548 0
M  V30 11879 H 1100.23 1.18271 -0.821454 0
M  V30 11880 H 1102.18 4.21398 -0.0128889 0
M  V30 11881 H 1100.91 3.19154 0.693415 0
M  V30 11882 H 1099.57 3.3751 -1.43118 0
M  V30 11883 H 1099.21 5.01187 0.426742 0
M  V30 11884 H 1098.91 5.75997 -1.16196 0
M  V30 11885 H 1100.44 6.09895 -0.293333 0
M  V30 11886 H 1101.85 5.21335 -2.38501 0
M  V30 11887 H 1100.25 5.0969 -3.16758 0
M  V30 11888 H 1101.32 3.68343 -3.1536 0
M  V30 11889 N 1102.66 0.908147 1.28804 0
M  V30 11890 C 1104.07 0.585727 1.77274 0
M  V30 11891 C 1104.42 -0.898842 1.744 0
M  V30 11892 O 1103.55 -1.70301 1.33516 0
M  V30 11893 C 1104.14 1.05647 3.21907 0
M  V30 11894 C 1102.7 0.785066 3.68122 0
M  V30 11895 C 1101.85 1.22638 2.48707 0
M  V30 11896 H 1104.8 1.09 1.15346 0
M  V30 11897 H 1104.82 0.395442 3.7844 0
M  V30 11898 H 1104.33 2.13698 3.23967 0
M  V30 11899 H 1102.44 -0.282477 3.71528 0
M  V30 11900 H 1102.55 1.38888 4.58527 0
M  V30 11901 H 1100.91 0.645217 2.46392 0
M  V30 11902 H 1101.7 2.31512 2.5349 0
M  V30 11903 N 1104.14 -1.42577 0.671525 0
M  V30 11904 C 1105.37 -2.05924 0.200731 0
M  V30 11905 C 1105.78 -1.50434 -1.14083 0
M  V30 11906 O 1105.14 -0.642845 -1.70803 0
M  V30 11907 C 1105.19 -3.61289 0.123505 0
M  V30 11908 O 1104.91 -4.1472 1.41205 0
M  V30 11909 C 1106.41 -4.41743 -0.371178 0
M  V30 11910 H 1103.63 -0.663746 0.0983958 0
M  V30 11911 H 1106.18 -1.82771 0.917338 0
M  V30 11912 H 1104.33 -3.83565 -0.543769 0
M  V30 11913 H 1104.75 -5.0856 1.28325 0
M  V30 11914 H 1106.22 -5.50731 -0.374128 0
M  V30 11915 H 1106.7 -4.16092 -1.40585 0
M  V30 11916 H 1107.3 -4.24478 0.264244 0
M  V30 11917 N 1105.62 -0.414636 -1.52048 0
M  V30 11918 C 1106.55 0.452854 -2.23662 0
M  V30 11919 C 1107.53 1.04348 -1.24701 0
M  V30 11920 O 1108.71 1.09029 -1.53769 0
M  V30 11921 C 1105.84 1.62908 -2.96949 0
M  V30 11922 C 1104.89 1.16132 -4.10385 0
M  V30 11923 S 1105.72 0.121936 -5.35361 0
M  V30 11924 C 1106.88 1.30336 -6.12179 0
M  V30 11925 H 1107.11 -0.155202 -2.96895 0
M  V30 11926 H 1104.64 -0.198972 -1.53113 0
M  V30 11927 H 1106.6 2.30351 -3.39777 0
M  V30 11928 H 1105.26 2.20849 -2.23348 0
M  V30 11929 H 1104.45 2.04025 -4.60858 0
M  V30 11930 H 1104.06 0.565452 -3.69701 0
M  V30 11931 H 1106.35 2.22596 -6.39889 0
M  V30 11932 H 1107.29 0.839052 -7.03111 0
M  V30 11933 H 1107.7 1.53165 -5.43324 0
M  V30 11934 N 1107.1 1.56929 -0.145233 0
M  V30 11935 C 1108.03 2.19685 0.791263 0
M  V30 11936 C 1109.01 1.14455 1.25833 0
M  V30 11937 O 1110.19 1.42791 1.31622 0
M  V30 11938 C 1107.32 2.81705 2.03124 0
M  V30 11939 C 1106.28 3.92746 1.70101 0
M  V30 11940 C 1105.6 4.41694 3.01347 0
M  V30 11941 C 1106.9 5.13606 0.949025 0
M  V30 11942 H 1108.6 2.98196 0.26825 0
M  V30 11943 H 1106.14 1.43434 0.127584 0
M  V30 11944 H 1108.1 3.24273 2.69119 0
M  V30 11945 H 1106.82 2.00523 2.57795 0
M  V30 11946 H 1105.48 3.50794 1.06486 0
M  V30 11947 H 1105.13 3.57336 3.54006 0
M  V30 11948 H 1104.83 5.1659 2.80016 0
M  V30 11949 H 1106.35 4.86931 3.68416 0
M  V30 11950 H 1107.76 5.53029 1.51102 0
M  V30 11951 H 1106.16 5.94252 0.835711 0
M  V30 11952 H 1107.23 4.84863 -0.0595631 0
M  V30 11953 N 1108.58 -0.128553 1.57075 0
M  V30 11954 C 1109.53 -1.16373 1.96065 0
M  V30 11955 C 1110.51 -1.37579 0.834323 0
M  V30 11956 O 1111.7 -1.38831 1.09795 0
M  V30 11957 C 1108.83 -2.49276 2.36043 0
M  V30 11958 C 1107.92 -2.31586 3.55287 0
M  V30 11959 N 1108.31 -1.83688 4.71267 0
M  V30 11960 C 1106.61 -2.62275 3.60732 0
M  V30 11961 C 1107.31 -1.79479 5.53319 0
M  V30 11962 N 1106.28 -2.23474 4.95541 0
M  V30 11963 H 1110.08 -0.785792 2.832 0
M  V30 11964 H 1107.6 -0.33641 1.58877 0
M  V30 11965 H 1109.6 -3.24134 2.62188 0
M  V30 11966 H 1108.26 -2.87837 1.50267 0
M  V30 11967 H 1109.27 -1.53376 4.94668 0
M  V30 11968 H 1105.94 -3.04586 2.85541 0
M  V30 11969 H 1107.33 -1.43781 6.56336 0
M  V30 11970 N 1110.05 -1.5248 -0.398459 0
M  V30 11971 C 1111 -1.76585 -1.48615 0
M  V30 11972 C 1111.97 -0.608677 -1.54546 0
M  V30 11973 O 1113.16 -0.847383 -1.7095 0
M  V30 11974 C 1110.3 -1.93201 -2.8595 0
M  V30 11975 C 1109.41 -3.20875 -2.89246 0
M  V30 11976 C 1108.54 -3.27862 -4.17947 0
M  V30 11977 C 1107.58 -4.49697 -4.15258 0
M  V30 11978 N 1106.72 -4.54017 -5.35549 0
M  V30 11979 H 1111.56 -2.69412 -1.27362 0
M  V30 11980 H 1109.1 -1.33487 -0.618031 0
M  V30 11981 H 1111.05 -2.00819 -3.65688 0
M  V30 11982 H 1109.68 -1.03743 -3.05675 0
M  V30 11983 H 1108.74 -3.22376 -2.01935 0
M  V30 11984 H 1110.05 -4.1066 -2.83125 0
M  V30 11985 H 1109.2 -3.34611 -5.06083 0
M  V30 11986 H 1107.94 -2.36035 -4.26777 0
M  V30 11987 H 1106.95 -4.43083 -3.25511 0
M  V30 11988 H 1108.17 -5.42831 -4.08059 0
M  V30 11989 H 1106.12 -3.65078 -5.45027 0
M  V30 11990 H 1106.03 -5.37661 -5.31466 0
M  V30 11991 H 1107.3 -4.65009 -6.25609 0
M  V30 11992 N 1111.53 0.65634 -1.43283 0
M  V30 11993 C 1112.46 1.78101 -1.51004 0
M  V30 11994 C 1113.44 1.66138 -0.36498 0
M  V30 11995 O 1114.63 1.85281 -0.581778 0
M  V30 11996 C 1111.76 3.16511 -1.42961 0
M  V30 11997 C 1110.71 3.43233 -2.55685 0
M  V30 11998 C 1110.04 4.81411 -2.32696 0
M  V30 11999 C 1111.34 3.38288 -3.97943 0
M  V30 12000 H 1113.03 1.71896 -2.45137 0
M  V30 12001 H 1110.58 0.825575 -1.17984 0
M  V30 12002 H 1112.53 3.94941 -1.46968 0
M  V30 12003 H 1111.25 3.23439 -0.45332 0
M  V30 12004 H 1109.91 2.67173 -2.51026 0
M  V30 12005 H 1109.56 4.85011 -1.33317 0
M  V30 12006 H 1109.26 5.00251 -3.08257 0
M  V30 12007 H 1110.79 5.62102 -2.38481 0
M  V30 12008 H 1112.2 4.06659 -4.04106 0
M  V30 12009 H 1110.6 3.68664 -4.73505 0
M  V30 12010 H 1111.67 2.36525 -4.23301 0
M  V30 12011 N 1113.01 1.29761 0.894412 0
M  V30 12012 C 1113.96 1.15341 1.99912 0
M  V30 12013 C 1114.93 0.0453488 1.66038 0
M  V30 12014 O 1116.11 0.213829 1.89598 0
M  V30 12015 C 1113.25 0.841432 3.34685 0
M  V30 12016 C 1112.36 2.03046 3.81309 0
M  V30 12017 C 1111.5 1.65739 5.04682 0
M  V30 12018 C 1110.54 2.81191 5.43689 0
M  V30 12019 N 1109.68 2.44244 6.58247 0
M  V30 12020 H 1114.52 2.09854 2.11578 0
M  V30 12021 H 1112.05 1.04421 1.03608 0
M  V30 12022 H 1114.01 0.641211 4.12243 0
M  V30 12023 H 1112.64 -0.066797 3.22731 0
M  V30 12024 H 1111.69 2.34222 2.9974 0
M  V30 12025 H 1113 2.89538 4.06164 0
M  V30 12026 H 1112.16 1.42036 5.8984 0
M  V30 12027 H 1110.9 0.764019 4.81678 0
M  V30 12028 H 1109.9 3.0557 4.57064 0
M  V30 12029 H 1111.13 3.712 5.68672 0
M  V30 12030 H 1109.07 1.57402 6.36837 0
M  V30 12031 H 1108.99 3.24269 6.82924 0
M  V30 12032 H 1110.26 2.23875 7.46659 0
M  V30 12033 N 1114.49 -1.10549 1.12324 0
M  V30 12034 C 1115.74 -1.81851 0.872531 0
M  V30 12035 C 1116.05 -1.86058 -0.603468 0
M  V30 12036 O 1117.26 -2.53553 -0.970736 0
M  V30 12037 C 1115.71 -3.26631 1.51131 0
M  V30 12038 C 1115.32 -3.30725 3.02201 0
M  V30 12039 C 1117.06 -4.02768 1.34082 0
M  V30 12040 C 1114.97 -4.69957 3.59018 0
M  V30 12041 H 1113.9 -0.681422 0.322769 0
M  V30 12042 H 1116.55 -1.24332 1.34959 0
M  V30 12043 H 1114.93 -3.8414 0.961913 0
M  V30 12044 H 1116.11 -2.83046 3.63623 0
M  V30 12045 H 1114.42 -2.68072 3.18632 0
M  V30 12046 H 1117.02 -5.05612 1.73955 0
M  V30 12047 H 1117.36 -4.15328 0.284369 0
M  V30 12048 H 1117.9 -3.51671 1.85937 0
M  V30 12049 H 1114.63 -4.62597 4.64418 0
M  V30 12050 H 1114.15 -5.18008 3.02371 0
M  V30 12051 H 1115.83 -5.38925 3.58007 0
M  V30 12052 N 1115.97 -0.914965 -1.28321 0
M  V30 12053 C 1117.38 -0.613297 -1.47346 0
M  V30 12054 C 1117.58 0.84106 -1.83108 0
M  V30 12055 O 1116.64 1.62004 -1.93678 0
M  V30 12056 C 1117.95 -1.55224 -2.57538 0
M  V30 12057 C 1119.5 -1.55909 -2.71407 0
M  V30 12058 C 1119.97 -2.48468 -3.84744 0
M  V30 12059 N 1121.46 -2.46602 -3.92099 0
M  V30 12060 C 1122.2 -3.14917 -4.79182 0
M  V30 12061 N 1121.7 -3.92566 -5.70845 0
M  V30 12062 N 1123.49 -3.03998 -4.72802 0
M  V30 12063 H 1115.64 -1.85539 -1.03388 0
M  V30 12064 H 1117.9 -0.795875 -0.515061 0
M  V30 12065 H 1117.61 -2.58917 -2.38023 0
M  V30 12066 H 1117.48 -1.28426 -3.54664 0
M  V30 12067 H 1119.87 -0.52953 -2.9031 0
M  V30 12068 H 1119.95 -1.86751 -1.74808 0
M  V30 12069 H 1119.59 -3.51526 -3.66595 0
M  V30 12070 H 1119.52 -2.14928 -4.80743 0
M  V30 12071 H 1122.02 -1.90199 -3.26547 0
M  V30 12072 H 1122.33 -4.41709 -6.34123 0
M  V30 12073 H 1120.67 -3.96671 -5.70681 0
M  V30 12074 H 1123.86 -2.42839 -4.00184 0
M  V30 12075 H 1124.04 -3.57511 -5.40454 0
M  V30 12076 N 1117.44 1.42219 -0.679077 0
M  V30 12077 C 1118.41 2.29197 -0.0125475 0
M  V30 12078 C 1119.41 1.43544 0.724691 0
M  V30 12079 O 1120.6 1.64884 0.562052 0
M  V30 12080 C 1117.73 3.26122 0.992846 0
M  V30 12081 H 1118.92 2.89629 -0.778154 0
M  V30 12082 H 1116.47 1.4993 -0.44166 0
M  V30 12083 H 1117.21 2.70637 1.78679 0
M  V30 12084 H 1116.99 3.89302 0.467544 0
M  V30 12085 H 1118.48 3.91339 1.45751 0
M  V30 12086 N 1118.92 0.422693 1.51826 0
M  V30 12087 C 1119.83 -0.40261 2.31119 0
M  V30 12088 C 1120.85 -1.04117 1.39412 0
M  V30 12089 O 1122.02 -1.03973 1.72486 0
M  V30 12090 C 1119.09 -1.49699 3.12716 0
M  V30 12091 C 1118.15 -0.880088 4.20182 0
M  V30 12092 C 1117.38 -1.92232 4.97878 0
M  V30 12093 O 1117.61 -3.14246 4.76031 0
M  V30 12094 O 1116.54 -1.521 5.82365 0
M  V30 12095 H 1120.37 0.244308 3.02716 0
M  V30 12096 H 1117.95 0.185569 1.48243 0
M  V30 12097 H 1119.83 -2.13202 3.63487 0
M  V30 12098 H 1118.51 -2.12826 2.43899 0
M  V30 12099 H 1117.41 -0.207404 3.73525 0
M  V30 12100 H 1118.75 -0.292535 4.9133 0
M  V30 12101 N 1120.4 -1.5685 0.153553 0
M  V30 12102 C 1121.62 -2.01135 -0.505904 0
M  V30 12103 C 1122.05 -1.03301 -1.57196 0
M  V30 12104 O 1121.41 -0.00976022 -1.81297 0
M  V30 12105 C 1121.46 -3.44129 -1.0774 0
M  V30 12106 O 1120.56 -3.49318 -2.19205 0
M  V30 12107 H 1119.9 -0.652496 -0.123062 0
M  V30 12108 H 1122.43 -2.03039 0.252216 0
M  V30 12109 H 1122.44 -3.83066 -1.40444 0
M  V30 12110 H 1121.12 -4.1484 -0.296754 0
M  V30 12111 H 1119.69 -3.22227 -1.8768 0
M  V30 12112 N 1121.88 0.120221 -1.57141 0
M  V30 12113 C 1123.12 0.828222 -1.84788 0
M  V30 12114 C 1123.45 1.79936 -0.738459 0
M  V30 12115 O 1122.71 1.93824 0.270295 0
M  V30 12116 C 1123.01 1.61338 -3.18912 0
M  V30 12117 C 1122.67 0.786637 -4.43985 0
M  V30 12118 C 1121.33 0.558645 -4.77946 0
M  V30 12119 C 1123.69 0.210281 -5.20776 0
M  V30 12120 C 1121.01 -0.255975 -5.86141 0
M  V30 12121 C 1123.37 -0.591523 -6.29828 0
M  V30 12122 C 1122.03 -0.829843 -6.62322 0
M  V30 12123 H 1121.3 0.303068 -0.676188 0
M  V30 12124 H 1123.95 0.0906538 -1.91285 0
M  V30 12125 H 1122.25 2.42182 -3.07986 0
M  V30 12126 H 1123.95 2.16513 -3.37525 0
M  V30 12127 H 1120.54 0.974426 -4.17376 0
M  V30 12128 H 1124.72 0.373641 -4.94892 0
M  V30 12129 H 1119.98 -0.449849 -6.09743 0
M  V30 12130 H 1124.15 -1.04512 -6.88513 0
M  V30 12131 H 1121.78 -1.4629 -7.45992 0
M  V30 12132 N 1123.36 1.52689 0.390367 0
M  V30 12133 C 1124.63 1.58246 1.14968 0
M  V30 12134 C 1125.01 0.374808 2.07746 0
M  V30 12135 O 1124.36 -0.636969 2.19442 0
M  V30 12136 C 1124.57 2.92059 1.91056 0
M  V30 12137 C 1125.92 3.45745 2.46466 0
M  V30 12138 O 1126.94 2.93924 2.01214 0
M  V30 12139 O 1125.8 4.3628 3.29122 0
M  V30 12140 H 1122.9 0.638189 0.52597 0
M  V30 12141 H 1125.44 1.65024 0.39563 0
M  V30 12142 H 1124.21 3.71399 1.23201 0
M  V30 12143 H 1123.84 2.8866 2.73425 0
M  V30 12144 N 1124.83 -0.648732 1.43629 0
M  V30 12145 C 1126.06 -1.4362 1.48932 0
M  V30 12146 C 1126.48 -1.88487 0.108599 0
M  V30 12147 O 1125.83 -1.59768 -0.882066 0
M  V30 12148 C 1125.89 -2.66822 2.43903 0
M  V30 12149 O 1125.61 -2.2383 3.76606 0
M  V30 12150 C 1127.11 -3.60134 2.58493 0
M  V30 12151 H 1124.33 -0.441055 0.505679 0
M  V30 12152 H 1126.87 -0.794936 1.88417 0
M  V30 12153 H 1125.03 -3.27079 2.07601 0
M  V30 12154 H 1125.44 -3.03575 4.27718 0
M  V30 12155 H 1126.91 -4.43234 3.29011 0
M  V30 12156 H 1127.39 -4.07779 1.63134 0
M  V30 12157 H 1128 -3.05756 2.95624 0
M  V30 12158 N 1126.31 -1.30234 -0.887518 0
M  V30 12159 C 1127.56 -1.20096 -1.6416 0
M  V30 12160 C 1127.91 0.24253 -1.90865 0
M  V30 12161 O 1127.21 1.17078 -1.51668 0
M  V30 12162 C 1127.4 -1.96046 -2.98832 0
M  V30 12163 C 1127.23 -3.47633 -2.85274 0
M  V30 12164 C 1126 -4.16989 -2.85392 0
M  V30 12165 C 1128.2 -4.42911 -2.61409 0
M  V30 12166 N 1126.18 -5.54854 -2.62699 0
M  V30 12167 C 1127.55 -5.68321 -2.47813 0
M  V30 12168 C 1129.61 -4.32535 -2.46613 0
M  V30 12169 C 1128.31 -6.84532 -2.20927 0
M  V30 12170 C 1130.33 -5.4851 -2.21112 0
M  V30 12171 C 1129.7 -6.729 -2.08291 0
M  V30 12172 H 1125.8 -0.494513 -0.605789 0
M  V30 12173 H 1128.38 -1.64213 -1.04605 0
M  V30 12174 H 1126.55 -1.54324 -3.56425 0
M  V30 12175 H 1128.28 -1.78072 -3.63418 0
M  V30 12176 H 1125.04 -3.68798 -2.97128 0
M  V30 12177 H 1125.46 -6.27395 -2.54371 0
M  V30 12178 H 1130.1 -3.37047 -2.55262 0
M  V30 12179 H 1127.82 -7.80063 -2.11015 0
M  V30 12180 H 1131.41 -5.42389 -2.1049 0
M  V30 12181 H 1130.29 -7.61125 -1.88833 0
M  V30 12182 N 1127.79 1.09952 -1.12909 0
M  V30 12183 C 1128.75 2.14615 -0.804548 0
M  V30 12184 C 1129.75 1.5975 0.18345 0
M  V30 12185 O 1130.94 1.74147 -0.0429623 0
M  V30 12186 C 1128.08 3.40333 -0.196471 0
M  V30 12187 H 1129.27 2.44835 -1.73193 0
M  V30 12188 H 1126.82 1.25399 -0.932997 0
M  V30 12189 H 1127.56 3.15735 0.740388 0
M  V30 12190 H 1127.34 3.81444 -0.907886 0
M  V30 12191 H 1128.83 4.17598 0.0139264 0
M  V30 12192 N 1129.27 0.921757 1.27833 0
M  V30 12193 C 1130.22 0.406628 2.29018 0
M  V30 12194 C 1131.21 -0.505914 1.61669 0
M  V30 12195 O 1132.42 -0.386273 1.75807 0
M  V30 12196 H 1128.79 0.112914 0.743475 0
M  V30 12197 H 1130.76 1.27295 2.69886 0
M  V30 12198 C 1129.51 -0.330783 3.46123 0
M  V30 12199 H 1128.83 0.362207 3.98156 0
M  V30 12200 H 1130.27 -0.655738 4.18899 0
M  V30 12201 C 1128.73 -1.54161 2.9956 0
M  V30 12202 O 1129.26 -2.64052 3.0272 0
M  V30 12203 N 1127.47 -1.39137 2.55126 0
M  V30 12204 H 1127.02 -0.497319 2.52754 0
M  V30 12205 H 1126.97 -2.20278 2.24333 0
M  V30 12206 N 1130.75 -1.41857 0.686609 0
M  V30 12207 C 1131.69 -2.30795 0.015643 0
M  V30 12208 C 1132.66 -1.46616 -0.780569 0
M  V30 12209 O 1133.85 -1.75423 -0.750424 0
M  V30 12210 C 1130.99 -3.32577 -0.921229 0
M  V30 12211 C 1130.1 -4.3184 -0.117585 0
M  V30 12212 C 1129.24 -5.20693 -1.05128 0
M  V30 12213 C 1128.28 -6.11629 -0.240018 0
M  V30 12214 N 1127.41 -6.92995 -1.12704 0
M  V30 12215 H 1132.25 -2.87615 0.77985 0
M  V30 12216 H 1129.79 -1.41661 0.396298 0
M  V30 12217 H 1131.75 -3.90129 -1.47836 0
M  V30 12218 H 1130.38 -2.77328 -1.65193 0
M  V30 12219 H 1129.43 -3.7631 0.55634 0
M  V30 12220 H 1130.74 -4.96168 0.511753 0
M  V30 12221 H 1129.9 -5.83035 -1.67795 0
M  V30 12222 H 1128.63 -4.5657 -1.71449 0
M  V30 12223 H 1127.64 -5.48345 0.399779 0
M  V30 12224 H 1128.86 -6.77805 0.419266 0
M  V30 12225 H 1126.81 -6.31489 -1.77644 0
M  V30 12226 H 1126.73 -7.53974 -0.553065 0
M  V30 12227 H 1128 -7.59813 -1.7408 0
M  V30 12228 N 1132.22 -0.430739 -1.51599 0
M  V30 12229 C 1133.47 0.138133 -2.02329 0
M  V30 12230 C 1133.8 1.42934 -1.31466 0
M  V30 12231 O 1133.08 1.89743 -0.427551 0
M  V30 12232 C 1133.36 0.363677 -3.58259 0
M  V30 12233 C 1133.21 -0.94572 -4.39746 0
M  V30 12234 C 1134.53 1.13637 -4.25176 0
M  V30 12235 H 1131.65 0.0487287 -0.735387 0
M  V30 12236 H 1134.29 -0.568444 -1.81297 0
M  V30 12237 H 1132.44 0.965552 -3.7631 0
M  V30 12238 H 1134.12 -1.58107 -4.33359 0
M  V30 12239 H 1132.36 -1.55183 -4.05094 0
M  V30 12240 H 1133.03 -0.742031 -5.4699 0
M  V30 12241 H 1135.51 0.626608 -4.11355 0
M  V30 12242 H 1134.38 1.26294 -5.34173 0
M  V30 12243 H 1134.64 2.16273 -3.85588 0
M  V30 12244 N 1133.7 1.56767 -0.161869 0
M  V30 12245 C 1135.12 1.58412 0.194403 0
M  V30 12246 C 1135.32 1.17682 1.63564 0
M  V30 12247 O 1134.37 0.884024 2.36519 0
M  V30 12248 C 1135.69 3.00599 -0.0778438 0
M  V30 12249 C 1137.24 3.12996 -0.015307 0
M  V30 12250 C 1137.71 4.57259 -0.260418 0
M  V30 12251 N 1139.2 4.62733 -0.207863 0
M  V30 12252 C 1139.94 5.72193 -0.371821 0
M  V30 12253 N 1139.43 6.90246 -0.594318 0
M  V30 12254 N 1141.23 5.61253 -0.308384 0
M  V30 12255 H 1133.38 1.81531 -1.10274 0
M  V30 12256 H 1135.64 0.840919 -0.437675 0
M  V30 12257 H 1135.35 3.3484 -1.07587 0
M  V30 12258 H 1135.22 3.71819 0.634845 0
M  V30 12259 H 1137.61 2.78588 0.97329 0
M  V30 12260 H 1137.69 2.44232 -0.760559 0
M  V30 12261 H 1137.33 4.92375 -1.24618 0
M  V30 12262 H 1137.26 5.2417 0.505334 0
M  V30 12263 H 1139.75 3.77878 -0.0411541 0
M  V30 12264 H 1140.07 7.6954 -0.70913 0
M  V30 12265 H 1138.41 6.92131 -0.630819 0
M  V30 12266 H 1141.6 4.67905 -0.135217 0
M  V30 12267 H 1141.77 6.46507 -0.439592 0
M  V30 12268 N 1135.18 -0.111886 1.57202 0
M  V30 12269 C 1136.43 -0.819623 1.85499 0
M  V30 12270 C 1136.76 -1.7919 0.748629 0
M  V30 12271 O 1136.03 -1.92952 -0.244918 0
M  V30 12272 C 1136.32 -1.56324 3.24399 0
M  V30 12273 C 1136.17 -0.610081 4.45643 0
M  V30 12274 C 1137.49 -2.51777 3.60966 0
M  V30 12275 H 1134.61 -0.296512 0.674722 0
M  V30 12276 H 1137.25 -0.0836741 1.89816 0
M  V30 12277 H 1135.4 -2.1906 3.2085 0
M  V30 12278 H 1137.07 0.00898038 4.61299 0
M  V30 12279 H 1135.32 0.0778488 4.3373 0
M  V30 12280 H 1135.99 -1.16718 5.39519 0
M  V30 12281 H 1138.46 -1.99143 3.65351 0
M  V30 12282 H 1137.34 -3.00835 4.59118 0
M  V30 12283 H 1137.6 -3.34769 2.8876 0
M  V30 12284 N 1136.66 -1.52894 -0.382264 0
M  V30 12285 C 1137.62 -1.77497 -1.45008 0
M  V30 12286 C 1138.62 -0.64509 -1.47293 0
M  V30 12287 O 1139.81 -0.913192 -1.48346 0
M  V30 12288 C 1136.94 -1.88188 -2.8425 0
M  V30 12289 H 1138.14 -2.72849 -1.24473 0
M  V30 12290 H 1135.69 -1.43717 -0.61441 0
M  V30 12291 H 1136.42 -0.948451 -3.10121 0
M  V30 12292 H 1136.21 -2.70353 -2.83992 0
M  V30 12293 H 1137.7 -2.08873 -3.6161 0
M  V30 12294 N 1138.14 0.641106 -1.43971 0
M  V30 12295 C 1139.07 1.76489 -1.52885 0
M  V30 12296 C 1140.05 1.65742 -0.38258 0
M  V30 12297 O 1141.23 1.84653 -0.601397 0
M  V30 12298 C 1138.36 3.14977 -1.4631 0
M  V30 12299 C 1137.32 3.40502 -2.59311 0
M  V30 12300 C 1136.64 4.78916 -2.37789 0
M  V30 12301 C 1137.94 3.34048 -4.01509 0
M  V30 12302 H 1139.64 1.69286 -2.46946 0
M  V30 12303 H 1137.18 0.813015 -1.18853 0
M  V30 12304 H 1139.14 3.9336 -1.51149 0
M  V30 12305 H 1137.86 3.2294 -0.487599 0
M  V30 12306 H 1136.52 2.64495 -2.53846 0
M  V30 12307 H 1136.17 4.8357 -1.38454 0
M  V30 12308 H 1135.87 4.96954 -3.13545 0
M  V30 12309 H 1137.39 5.59541 -2.4443 0
M  V30 12310 H 1138.81 4.0235 -4.08396 0
M  V30 12311 H 1137.2 3.63622 -4.77388 0
M  V30 12312 H 1138.27 2.32022 -4.25786 0
M  V30 12313 N 1139.62 1.30703 0.880598 0
M  V30 12314 C 1140.53 1.19389 2.01949 0
M  V30 12315 C 1141.54 0.112868 1.73634 0
M  V30 12316 O 1142.72 0.328643 1.98701 0
M  V30 12317 C 1139.78 0.891004 3.35055 0
M  V30 12318 C 1138.84 2.05784 3.76764 0
M  V30 12319 C 1138.08 1.76931 5.03519 0
M  V30 12320 O 1138.3 0.699326 5.66097 0
M  V30 12321 O 1137.23 2.623 5.4174 0
M  V30 12322 H 1141.06 2.15073 2.14423 0
M  V30 12323 H 1138.64 1.10339 1.00726 0
M  V30 12324 H 1140.53 0.737476 4.14897 0
M  V30 12325 H 1139.2 -0.0358909 3.2368 0
M  V30 12326 H 1138.11 2.26672 2.97608 0
M  V30 12327 H 1139.44 2.96661 3.9275 0
M  V30 12328 N 1141.09 -1.09351 1.1349 0
M  V30 12329 C 1142.34 -1.81812 0.898452 0
M  V30 12330 C 1142.67 -1.85525 -0.573959 0
M  V30 12331 O 1141.95 -1.32403 -1.42477 0
M  V30 12332 C 1142.23 -3.27921 1.48794 0
M  V30 12333 C 1142.08 -3.32476 3.02952 0
M  V30 12334 C 1143.4 -4.24625 1.15678 0
M  V30 12335 H 1140.52 -0.660074 0.327829 0
M  V30 12336 H 1143.16 -1.28091 1.40331 0
M  V30 12337 H 1141.31 -3.738 1.05858 0
M  V30 12338 H 1142.99 -2.94994 3.54649 0
M  V30 12339 H 1141.23 -2.72037 3.37903 0
M  V30 12340 H 1141.9 -4.35409 3.39298 0
M  V30 12341 H 1144.38 -3.87036 1.52781 0
M  V30 12342 H 1143.25 -5.25194 1.59571 0
M  V30 12343 H 1143.51 -4.42044 0.0705933 0
M  V30 12344 N 1142.57 -0.928524 -1.27343 0
M  V30 12345 C 1143.48 -0.433901 -2.30553 0
M  V30 12346 C 1144.5 0.485832 -1.6708 0
M  V30 12347 O 1145.67 0.36844 -1.98001 0
M  V30 12348 C 1142.74 0.304617 -3.45359 0
M  V30 12349 C 1141.8 -0.650131 -4.24349 0
M  V30 12350 C 1141.03 0.0532372 -5.33673 0
M  V30 12351 O 1141.26 1.27246 -5.56026 0
M  V30 12352 O 1140.19 -0.619009 -5.98709 0
M  V30 12353 H 1144.02 -1.2909 -2.74899 0
M  V30 12354 H 1141.6 -0.693903 -1.32308 0
M  V30 12355 H 1143.48 0.721137 -4.15184 0
M  V30 12356 H 1142.16 1.13721 -3.03066 0
M  V30 12357 H 1141.06 -1.11635 -3.57055 0
M  V30 12358 H 1142.4 -1.44996 -4.70358 0
M  V30 12359 N 1144.05 1.41491 -0.694123 0
M  V30 12360 C 1145.33 1.95004 -0.152571 0
M  V30 12361 C 1145.71 1.63357 1.33707 0
M  V30 12362 O 1145.05 0.939815 2.08278 0
M  V30 12363 C 1145.26 3.46186 -0.44232 0
M  V30 12364 C 1146.61 4.22991 -0.369279 0
M  V30 12365 O 1147.64 3.54198 -0.377152 0
M  V30 12366 O 1146.5 5.45514 -0.328145 0
M  V30 12367 H 1143.59 0.826879 -0.0141253 0
M  V30 12368 H 1146.14 1.51216 -0.770183 0
M  V30 12369 H 1144.91 3.62497 -1.47348 0
M  V30 12370 H 1144.53 3.97064 0.206337 0
M  V30 12371 N 1145.53 0.438773 1.51369 0
M  V30 12372 C 1146.78 -0.126962 2.01701 0
M  V30 12373 C 1147.1 -1.43086 1.32481 0
M  V30 12374 O 1146.37 -1.90427 0.459823 0
M  V30 12375 H 1144.95 -0.0499092 0.745331 0
M  V30 12376 H 1147.61 0.581808 1.86013 0
M  V30 12377 H 1146.7 -0.301836 3.10637 0
M  V30 12378 N 1147.01 -1.56678 0.170181 0
M  V30 12379 C 1148.42 -1.58512 -0.185999 0
M  V30 12380 C 1148.62 -1.18548 -1.62937 0
M  V30 12381 O 1147.68 -0.896554 -2.36047 0
M  V30 12382 C 1148.99 -3.00554 0.0937842 0
M  V30 12383 C 1150.54 -3.12984 0.0319057 0
M  V30 12384 C 1151.01 -4.57115 0.284664 0
M  V30 12385 N 1152.5 -4.62617 0.2324 0
M  V30 12386 C 1153.24 -5.71988 0.40216 0
M  V30 12387 N 1152.74 -6.89921 0.630915 0
M  V30 12388 N 1154.53 -5.61082 0.338144 0
M  V30 12389 H 1146.68 -1.80944 1.11235 0
M  V30 12390 H 1148.94 -0.838586 0.442128 0
M  V30 12391 H 1148.65 -3.34265 1.09362 0
M  V30 12392 H 1148.52 -3.72151 -0.615118 0
M  V30 12393 H 1150.91 -2.791 -0.958502 0
M  V30 12394 H 1150.99 -2.43825 0.773501 0
M  V30 12395 H 1150.63 -4.91707 1.27227 0
M  V30 12396 H 1150.56 -5.2443 -0.477529 0
M  V30 12397 H 1153.06 -3.7785 0.0611933 0
M  V30 12398 H 1153.37 -7.69153 0.749931 0
M  V30 12399 H 1151.71 -6.91787 0.667516 0
M  V30 12400 H 1154.9 -4.67826 0.16003 0
M  V30 12401 H 1155.08 -6.46265 0.473872 0
M  V30 12402 N 1148.48 0.103547 -1.57259 0
M  V30 12403 C 1149.43 1.12621 -2.01458 0
M  V30 12404 C 1150.4 1.40282 -0.889391 0
M  V30 12405 O 1151.59 1.51887 -1.15477 0
M  V30 12406 C 1148.73 2.44352 -2.43692 0
M  V30 12407 C 1147.84 2.23495 -3.69695 0
M  V30 12408 C 1146.97 3.48565 -4.00844 0
M  V30 12409 C 1146.01 3.22932 -5.19982 0
M  V30 12410 N 1145.15 4.40246 -5.46926 0
M  V30 12411 H 1149.99 0.742315 -2.88606 0
M  V30 12412 H 1147.53 0.355016 -1.42752 0
M  V30 12413 H 1149.48 3.2122 -2.66221 0
M  V30 12414 H 1148.11 2.80605 -1.59565 0
M  V30 12415 H 1147.17 1.3747 -3.54692 0
M  V30 12416 H 1148.48 2.0054 -4.56711 0
M  V30 12417 H 1147.63 4.33844 -4.24104 0
M  V30 12418 H 1146.37 3.74565 -3.12333 0
M  V30 12419 H 1145.38 2.36045 -4.96551 0
M  V30 12420 H 1146.6 2.98286 -6.10084 0
M  V30 12421 H 1144.55 4.66338 -4.61373 0
M  V30 12422 H 1144.46 4.20452 -6.28296 0
M  V30 12423 H 1145.73 5.26614 -5.74716 0
M  V30 12424 N 1149.96 1.53094 0.37415 0
M  V30 12425 C 1151.38 1.42676 0.715246 0
M  V30 12426 C 1151.58 0.558992 1.93591 0
M  V30 12427 O 1150.63 0.0381328 2.52471 0
M  V30 12428 C 1151.95 2.85746 0.936459 0
M  V30 12429 C 1153.49 2.95322 1.03701 0
M  V30 12430 C 1153.97 4.39436 1.29075 0
M  V30 12431 N 1155.46 4.42826 1.35864 0
M  V30 12432 C 1156.2 5.51433 1.57191 0
M  V30 12433 N 1155.69 6.701 1.75891 0
M  V30 12434 N 1157.48 5.38998 1.59491 0
M  V30 12435 H 1149.64 2.08025 -0.428854 0
M  V30 12436 H 1151.9 0.939078 -0.129758 0
M  V30 12437 H 1151.6 3.51523 0.111448 0
M  V30 12438 H 1151.48 3.28887 1.84698 0
M  V30 12439 H 1153.87 2.29704 1.85257 0
M  V30 12440 H 1153.95 2.55588 0.104066 0
M  V30 12441 H 1153.59 5.05625 0.480231 0
M  V30 12442 H 1153.52 4.76735 2.23677 0
M  V30 12443 H 1156.01 3.57301 1.23061 0
M  V30 12444 H 1156.32 7.48643 1.91713 0
M  V30 12445 H 1154.67 6.73102 1.73086 0
M  V30 12446 H 1157.86 4.45257 1.44444 0
M  V30 12447 H 1158.03 6.23705 1.75771 0
M  V30 12448 N 1151.44 -0.633461 1.44309 0
M  V30 12449 C 1152.66 -1.42527 1.50668 0
M  V30 12450 C 1153.09 -1.87637 0.131861 0
M  V30 12451 O 1152.45 -1.58595 -0.878477 0
M  V30 12452 C 1152.5 -2.62328 2.47419 0
M  V30 12453 O 1151.6 -3.62081 1.97411 0
M  V30 12454 H 1150.94 -0.426559 0.508864 0
M  V30 12455 H 1153.47 -0.773392 1.8942 0
M  V30 12456 H 1153.48 -3.09901 2.65378 0
M  V30 12457 H 1152.16 -2.2884 3.47283 0
M  V30 12458 H 1150.73 -3.21333 1.89208 0
M  V30 12459 N 1152.92 -1.31168 -0.873655 0
M  V30 12460 C 1154.17 -1.20642 -1.6264 0
M  V30 12461 C 1154.49 0.236286 -1.93059 0
M  V30 12462 O 1153.75 1.18401 -1.55819 0
M  V30 12463 C 1154.05 -1.99204 -2.96736 0
M  V30 12464 C 1153.71 -3.48734 -2.85824 0
M  V30 12465 C 1152.38 -3.89507 -2.82555 0
M  V30 12466 C 1154.73 -4.43905 -2.73127 0
M  V30 12467 C 1152.06 -5.23724 -2.64442 0
M  V30 12468 C 1154.41 -5.78242 -2.56551 0
M  V30 12469 C 1153.07 -6.18241 -2.51663 0
M  V30 12470 H 1152.34 -0.44146 -0.595142 0
M  V30 12471 H 1154.99 -1.62394 -1.01492 0
M  V30 12472 H 1153.29 -1.50122 -3.61899 0
M  V30 12473 H 1154.99 -1.88443 -3.53963 0
M  V30 12474 H 1151.58 -3.1634 -2.89184 0
M  V30 12475 H 1155.76 -4.13338 -2.7471 0
M  V30 12476 H 1151.02 -5.53794 -2.59081 0
M  V30 12477 H 1155.19 -6.51616 -2.45702 0
M  V30 12478 H 1152.82 -7.22185 -2.37387 0
M  V30 12479 N 1154.4 1.08748 -1.14068 0
M  V30 12480 C 1155.31 2.19123 -0.837998 0
M  V30 12481 C 1156.32 1.73065 0.180164 0
M  V30 12482 O 1157.5 2.01398 0.00952285 0
M  V30 12483 C 1154.56 3.45257 -0.316 0
M  V30 12484 C 1153.62 4.05959 -1.39628 0
M  V30 12485 C 1152.86 5.26072 -0.899095 0
M  V30 12486 O 1153.08 5.69804 0.260744 0
M  V30 12487 O 1152.01 5.7808 -1.67652 0
M  V30 12488 H 1155.84 2.4748 -1.76033 0
M  V30 12489 H 1153.43 1.17816 -0.918675 0
M  V30 12490 H 1155.31 4.21389 -0.0306425 0
M  V30 12491 H 1153.98 3.18486 0.578654 0
M  V30 12492 H 1152.89 3.31432 -1.73505 0
M  V30 12493 H 1154.22 4.36971 -2.26533 0
M  V30 12494 N 1155.87 0.935264 1.26849 0
M  V30 12495 C 1156.78 0.446122 2.30319 0
M  V30 12496 C 1157.8 -0.476965 1.67335 0
M  V30 12497 O 1158.98 -0.357934 1.98194 0
M  V30 12498 C 1156.04 -0.286297 3.45516 0
M  V30 12499 C 1155.1 0.672626 4.23998 0
M  V30 12500 C 1154.34 -0.0249345 5.33694 0
M  V30 12501 O 1154.56 -1.24296 5.56693 0
M  V30 12502 O 1153.49 0.650752 5.98372 0
M  V30 12503 H 1157.32 1.30546 2.74211 0
M  V30 12504 H 1154.9 0.70091 1.31938 0
M  V30 12505 H 1156.79 -0.699109 4.1556 0
M  V30 12506 H 1155.46 -1.12112 3.03665 0
M  V30 12507 H 1154.37 1.13527 3.56458 0
M  V30 12508 H 1155.7 1.47489 4.69583 0
M  V30 12509 N 1157.35 -1.41121 0.701616 0
M  V30 12510 C 1158.28 -2.33436 0.0545974 0
M  V30 12511 C 1159.26 -1.52144 -0.760662 0
M  V30 12512 O 1160.45 -1.80661 -0.712414 0
M  V30 12513 C 1157.58 -3.36015 -0.878117 0
M  V30 12514 C 1156.53 -4.27664 -0.169511 0
M  V30 12515 C 1155.86 -5.20666 -1.21699 0
M  V30 12516 C 1157.16 -5.13254 0.967859 0
M  V30 12517 H 1158.85 -2.87791 0.825637 0
M  V30 12518 H 1156.4 -1.38377 0.398484 0
M  V30 12519 H 1158.35 -3.99526 -1.34004 0
M  V30 12520 H 1157.08 -2.80024 -1.68089 0
M  V30 12521 H 1155.73 -3.65586 0.272441 0
M  V30 12522 H 1155.38 -4.60987 -2.01246 0
M  V30 12523 H 1155.08 -5.82822 -0.747836 0
M  V30 12524 H 1156.61 -5.87053 -1.6793 0
M  V30 12525 H 1158.02 -5.70298 0.585944 0
M  V30 12526 H 1156.42 -5.84381 1.3645 0
M  V30 12527 H 1157.49 -4.5006 1.80483 0
M  V30 12528 N 1158.83 -0.446794 -1.51134 0
M  V30 12529 C 1160.25 -0.0995905 -1.59289 0
M  V30 12530 C 1160.45 1.39191 -1.45699 0
M  V30 12531 O 1159.5 2.1628 -1.30303 0
M  V30 12532 C 1160.82 -0.628135 -2.94066 0
M  V30 12533 C 1162.36 -0.589409 -3.074 0
M  V30 12534 C 1162.84 -1.09509 -4.44715 0
M  V30 12535 N 1164.33 -1.05347 -4.51061 0
M  V30 12536 C 1165.06 -1.41551 -5.55654 0
M  V30 12537 N 1164.56 -1.85086 -6.67619 0
M  V30 12538 N 1166.35 -1.33307 -5.46064 0
M  V30 12539 H 1158.5 -1.41713 -1.58213 0
M  V30 12540 H 1160.77 -0.584555 -0.746324 0
M  V30 12541 H 1160.47 -1.67205 -3.09411 0
M  V30 12542 H 1160.35 -0.0582398 -3.77155 0
M  V30 12543 H 1162.73 0.445541 -2.91717 0
M  V30 12544 H 1162.82 -1.19582 -2.26128 0
M  V30 12545 H 1162.46 -2.12855 -4.61146 0
M  V30 12546 H 1162.39 -0.465122 -5.24542 0
M  V30 12547 H 1164.88 -0.733877 -3.70706 0
M  V30 12548 H 1165.19 -2.10923 -7.43459 0
M  V30 12549 H 1163.54 -1.8902 -6.68802 0
M  V30 12550 H 1166.73 -0.991547 -4.57478 0
M  V30 12551 H 1166.9 -1.6185 -6.27462 0
M  V30 12552 N 1160.31 1.56586 -0.178487 0
M  V30 12553 C 1161.27 2.17091 0.73512 0
M  V30 12554 C 1162.27 1.12088 1.15295 0
M  V30 12555 O 1163.46 1.37563 1.06874 0
M  V30 12556 C 1160.59 2.75957 2.00151 0
M  V30 12557 H 1161.79 2.99176 0.208272 0
M  V30 12558 H 1159.34 1.56138 0.0710967 0
M  V30 12559 H 1160.07 1.97626 2.57127 0
M  V30 12560 H 1159.86 3.52809 1.7108 0
M  V30 12561 H 1161.35 3.2247 2.65335 0
M  V30 12562 N 1161.79 -0.095206 1.57312 0
M  V30 12563 C 1162.72 -1.11627 2.05089 0
M  V30 12564 C 1163.7 -1.41782 0.939787 0
M  V30 12565 O 1164.88 -1.51813 1.21105 0
M  V30 12566 C 1162.01 -2.43618 2.47523 0
M  V30 12567 C 1160.97 -2.27872 3.62296 0
M  V30 12568 C 1160.29 -3.65038 3.90706 0
M  V30 12569 C 1161.59 -1.71936 4.93189 0
M  V30 12570 H 1163.29 -0.718795 2.90644 0
M  V30 12571 H 1160.83 -0.344315 1.39823 0
M  V30 12572 H 1162.79 -3.1532 2.79556 0
M  V30 12573 H 1161.51 -2.85301 1.58968 0
M  V30 12574 H 1160.17 -1.58615 3.3051 0
M  V30 12575 H 1159.82 -4.04249 2.99319 0
M  V30 12576 H 1159.52 -3.55349 4.67976 0
M  V30 12577 H 1161.04 -4.38208 4.25213 0
M  V30 12578 H 1162.45 -2.33479 5.23603 0
M  V30 12579 H 1160.85 -1.73006 5.74621 0
M  V30 12580 H 1161.92 -0.678789 4.80125 0
M  V30 12581 N 1163.26 -1.53291 -0.366026 0
M  V30 12582 C 1164.17 -1.82656 -1.47221 0
M  V30 12583 C 1165.19 -0.71491 -1.58635 0
M  V30 12584 O 1166.37 -1.00492 -1.74538 0
M  V30 12585 C 1163.43 -2.00995 -2.82492 0
M  V30 12586 C 1162.49 -3.24895 -2.8061 0
M  V30 12587 C 1161.73 -3.4235 -4.09429 0
M  V30 12588 O 1161.95 -2.6411 -5.05571 0
M  V30 12589 O 1160.88 -4.35702 -4.15268 0
M  V30 12590 H 1164.71 -2.76634 -1.2533 0
M  V30 12591 H 1162.29 -1.38665 -0.556084 0
M  V30 12592 H 1164.18 -2.14632 -3.62645 0
M  V30 12593 H 1162.85 -1.10207 -3.04362 0
M  V30 12594 H 1161.76 -3.16682 -1.99157 0
M  V30 12595 H 1163.09 -4.15604 -2.63694 0
M  V30 12596 N 1164.74 0.6258 -1.44643 0
M  V30 12597 C 1165.97 1.41726 -1.51422 0
M  V30 12598 C 1166.39 1.87565 -0.14181 0
M  V30 12599 O 1165.75 1.59059 0.870054 0
M  V30 12600 C 1165.8 2.61012 -2.48807 0
M  V30 12601 O 1164.9 3.61029 -1.99328 0
M  V30 12602 H 1164.24 0.423855 -0.511119 0
M  V30 12603 H 1166.77 0.763336 -1.89827 0
M  V30 12604 H 1166.78 3.08489 -2.67018 0
M  V30 12605 H 1165.46 2.26995 -3.48491 0
M  V30 12606 H 1164.04 3.20325 -1.90909 0
M  V30 12607 N 1166.22 1.31629 0.866686 0
M  V30 12608 C 1167.13 1.21524 2.00671 0
M  V30 12609 C 1168.15 0.131277 1.73504 0
M  V30 12610 O 1169.32 0.349699 1.98341 0
M  V30 12611 C 1166.39 0.926491 3.34091 0
M  V30 12612 C 1165.45 2.09769 3.7456 0
M  V30 12613 C 1164.68 1.82262 5.01614 0
M  V30 12614 O 1164.9 0.759329 5.65323 0
M  V30 12615 O 1163.84 2.68031 5.38928 0
M  V30 12616 H 1167.66 2.17335 2.1213 0
M  V30 12617 H 1165.25 1.11401 0.995499 0
M  V30 12618 H 1167.13 0.78144 4.14091 0
M  V30 12619 H 1165.81 -0.00155829 3.237 0
M  V30 12620 H 1164.71 2.29816 2.95187 0
M  V30 12621 H 1166.05 3.0081 3.89582 0
M  V30 12622 N 1167.7 -1.08142 1.14644 0
M  V30 12623 C 1168.66 -2.13308 0.83859 0
M  V30 12624 C 1169.66 -1.60022 -0.158012 0
M  V30 12625 O 1170.85 -1.74057 0.0706621 0
M  V30 12626 C 1167.98 -3.39978 0.250591 0
M  V30 12627 H 1169.18 -2.42049 1.77066 0
M  V30 12628 H 1166.73 -1.23899 0.952828 0
M  V30 12629 H 1167.47 -3.16873 -0.690064 0
M  V30 12630 H 1167.25 -3.79952 0.968456 0
M  V30 12631 H 1168.74 -4.17567 0.0525115 0
M  V30 12632 N 1169.18 -0.941978 -1.26351 0
M  V30 12633 C 1170.59 -0.644413 -1.46012 0
M  V30 12634 C 1170.79 0.802031 -1.84851 0
M  V30 12635 O 1169.85 1.57859 -1.9707 0
M  V30 12636 C 1171.16 -1.60652 -2.54188 0
M  V30 12637 C 1172.71 -1.6163 -2.68038 0
M  V30 12638 C 1173.19 -2.56573 -3.79387 0
M  V30 12639 N 1174.68 -2.54863 -3.8678 0
M  V30 12640 C 1175.41 -3.2501 -4.72394 0
M  V30 12641 N 1174.91 -4.04586 -5.6239 0
M  V30 12642 N 1176.7 -3.13958 -4.66247 0
M  V30 12643 H 1168.85 -1.8769 -0.994293 0
M  V30 12644 H 1171.11 -0.806621 -0.498063 0
M  V30 12645 H 1170.82 -2.63907 -2.32478 0
M  V30 12646 H 1170.69 -1.3592 -3.5186 0
M  V30 12647 H 1173.08 -0.59099 -2.89122 0
M  V30 12648 H 1173.16 -1.90417 -1.70807 0
M  V30 12649 H 1172.81 -3.59223 -3.59056 0
M  V30 12650 H 1172.74 -2.25077 -4.76076 0
M  V30 12651 H 1175.23 -1.97082 -3.22439 0
M  V30 12652 H 1175.54 -4.55061 -6.24612 0
M  V30 12653 H 1173.89 -4.08687 -5.62139 0
M  V30 12654 H 1177.08 -2.51273 -3.94943 0
M  V30 12655 H 1177.25 -3.68894 -5.32749 0
M  V30 12656 N 1170.66 1.40747 -0.709091 0
M  V30 12657 C 1171.57 2.3454 -0.0532205 0
M  V30 12658 C 1172.58 1.56956 0.751057 0
M  V30 12659 O 1173.76 1.89375 0.685509 0
M  V30 12660 C 1170.82 3.35809 0.862157 0
M  V30 12661 C 1169.88 4.29273 0.0485632 0
M  V30 12662 C 1169.12 5.25705 0.920345 0
M  V30 12663 O 1169.34 5.27933 2.15969 0
M  V30 12664 O 1168.27 6.00806 0.3628 0
M  V30 12665 H 1172.1 2.92232 -0.826698 0
M  V30 12666 H 1169.68 1.4183 -0.469519 0
M  V30 12667 H 1171.57 3.97931 1.38668 0
M  V30 12668 H 1170.24 2.8054 1.61489 0
M  V30 12669 H 1169.15 3.70456 -0.520873 0
M  V30 12670 H 1170.48 4.87676 -0.665807 0
M  V30 12671 N 1172.13 0.454803 1.50895 0
M  V30 12672 C 1173.55 0.108037 1.59234 0
M  V30 12673 C 1173.75 -1.38416 1.46435 0
M  V30 12674 O 1172.81 -2.15586 1.31449 0
M  V30 12675 C 1174.12 0.643721 2.93729 0
M  V30 12676 C 1175.67 0.605703 3.07083 0
M  V30 12677 C 1176.14 1.11865 4.44128 0
M  V30 12678 N 1177.63 1.07738 4.50496 0
M  V30 12679 C 1178.37 1.44495 5.54895 0
M  V30 12680 N 1177.86 1.88624 6.66628 0
M  V30 12681 N 1179.66 1.36201 5.45349 0
M  V30 12682 H 1171.81 1.4255 1.57459 0
M  V30 12683 H 1174.07 0.588504 0.743214 0
M  V30 12684 H 1173.78 1.68844 3.0852 0
M  V30 12685 H 1173.65 0.0782404 3.77119 0
M  V30 12686 H 1176.04 -0.430065 2.91949 0
M  V30 12687 H 1176.12 1.2078 2.2549 0
M  V30 12688 H 1175.76 2.15297 4.6001 0
M  V30 12689 H 1175.69 0.492933 5.24288 0
M  V30 12690 H 1178.18 0.753526 3.70311 0
M  V30 12691 H 1178.5 2.14863 7.4233 0
M  V30 12692 H 1176.84 1.92564 6.6779 0
M  V30 12693 H 1180.03 1.01579 4.56946 0
M  V30 12694 H 1180.21 1.65175 6.26595 0
M  V30 12695 N 1173.61 -1.56489 0.186789 0
M  V30 12696 C 1175.03 -1.58701 -0.169176 0
M  V30 12697 C 1175.23 -1.2027 -1.61671 0
M  V30 12698 O 1174.28 -0.92154 -2.35083 0
M  V30 12699 C 1175.6 -3.00437 0.125657 0
M  V30 12700 C 1177.14 -3.12932 0.0651 0
M  V30 12701 C 1177.62 -4.56787 0.333131 0
M  V30 12702 N 1179.11 -4.62344 0.281453 0
M  V30 12703 C 1179.85 -5.71529 0.462805 0
M  V30 12704 N 1179.34 -6.89213 0.704054 0
M  V30 12705 N 1181.13 -5.60692 0.397636 0
M  V30 12706 H 1173.29 -1.79754 1.13148 0
M  V30 12707 H 1175.55 -0.83385 0.450997 0
M  V30 12708 H 1175.25 -3.33086 1.12901 0
M  V30 12709 H 1175.13 -3.72782 -0.575612 0
M  V30 12710 H 1177.52 -2.80101 -0.928845 0
M  V30 12711 H 1177.6 -2.42991 0.799318 0
M  V30 12712 H 1177.24 -4.9033 1.32436 0
M  V30 12713 H 1177.17 -5.24907 -0.421879 0
M  V30 12714 H 1179.66 -3.77764 0.101266 0
M  V30 12715 H 1179.97 -7.68314 0.831468 0
M  V30 12716 H 1178.32 -6.9104 0.740851 0
M  V30 12717 H 1181.51 -4.6763 0.20964 0
M  V30 12718 H 1181.68 -6.45726 0.54239 0
M  V30 12719 N 1175.09 0.086862 -1.5736 0
M  V30 12720 C 1176.34 0.78884 -1.86504 0
M  V30 12721 C 1176.66 1.78329 -0.77646 0
M  V30 12722 O 1175.92 1.94354 0.229122 0
M  V30 12723 C 1176.22 1.54537 -3.22263 0
M  V30 12724 C 1175.88 0.692284 -4.45554 0
M  V30 12725 C 1174.55 0.45714 -4.79024 0
M  V30 12726 C 1176.9 0.0997695 -5.21105 0
M  V30 12727 C 1174.23 -0.380247 -5.85466 0
M  V30 12728 C 1176.58 -0.724986 -6.28432 0
M  V30 12729 C 1175.24 -0.970144 -6.60412 0
M  V30 12730 H 1174.51 0.288657 -0.682465 0
M  V30 12731 H 1177.16 0.050059 -1.91435 0
M  V30 12732 H 1175.46 2.35594 -3.13053 0
M  V30 12733 H 1177.16 2.09305 -3.42042 0
M  V30 12734 H 1173.75 0.885675 -4.19349 0
M  V30 12735 H 1177.94 0.268583 -4.95573 0
M  V30 12736 H 1173.19 -0.579084 -6.08651 0
M  V30 12737 H 1177.37 -1.19093 -6.86141 0
M  V30 12738 H 1174.99 -1.6208 -7.42721 0
M  V30 12739 N 1176.57 1.53483 0.357892 0
M  V30 12740 C 1177.98 1.61641 0.934289 0
M  V30 12741 C 1178.33 0.488655 1.90017 0
M  V30 12742 O 1177.45 -0.38378 2.1297 0
M  V30 12743 C 1178.05 2.92987 1.7013 0
M  V30 12744 C 1176.61 3.03456 2.22692 0
M  V30 12745 C 1175.76 2.56992 1.04165 0
M  V30 12746 H 1178.71 1.58112 0.136452 0
M  V30 12747 H 1178.73 2.81221 2.5631 0
M  V30 12748 H 1178.24 3.75047 0.998056 0
M  V30 12749 H 1176.34 2.25999 2.96235 0
M  V30 12750 H 1176.45 4.08673 2.50046 0
M  V30 12751 H 1174.82 2.12052 1.41088 0
M  V30 12752 H 1175.6 3.41477 0.353272 0
M  V30 12753 N 1178.05 -0.61812 1.44973 0
M  V30 12754 C 1178.99 -1.75059 1.53157 0
M  V30 12755 C 1179.99 -1.64554 0.402282 0
M  V30 12756 O 1181.19 -1.70475 0.577767 0
M  V30 12757 H 1177.57 -0.57817 0.480856 0
M  V30 12758 H 1179.54 -1.65281 2.48445 0
M  V30 12759 C 1178.29 -3.13423 1.50538 0
M  V30 12760 H 1177.61 -3.2216 2.36755 0
M  V30 12761 H 1179.05 -3.92521 1.60323 0
M  V30 12762 C 1177.51 -3.36127 0.228127 0
M  V30 12763 O 1178.04 -3.95618 -0.696364 0
M  V30 12764 N 1176.25 -2.90322 0.127142 0
M  V30 12765 H 1175.79 -2.42091 0.880317 0
M  V30 12766 H 1175.75 -3.05887 -0.726659 0
M  V30 12767 N 1179.52 -1.32087 -0.859693 0
M  V30 12768 C 1180.75 -1.25486 -1.6513 0
M  V30 12769 C 1181.17 0.175015 -1.87284 0
M  V30 12770 O 1180.53 1.12468 -1.42199 0
M  V30 12771 C 1180.58 -2.01469 -2.9907 0
M  V30 12772 O 1179.68 -1.35904 -3.89363 0
M  V30 12773 H 1179.02 -0.432728 -0.503629 0
M  V30 12774 H 1181.55 -1.74322 -1.07112 0
M  V30 12775 H 1181.56 -2.11452 -3.4893 0
M  V30 12776 H 1180.24 -3.05448 -2.82266 0
M  V30 12777 H 1178.82 -1.34437 -3.47823 0
M  V30 12778 N 1181 1.07532 -1.15215 0
M  V30 12779 C 1181.91 2.18222 -0.861192 0
M  V30 12780 C 1182.93 1.73246 0.161798 0
M  V30 12781 O 1184.1 2.01397 -0.0118386 0
M  V30 12782 C 1181.17 3.44902 -0.352601 0
M  V30 12783 C 1180.23 4.04455 -1.43926 0
M  V30 12784 C 1179.46 5.25089 -0.954841 0
M  V30 12785 O 1179.69 5.70048 0.200294 0
M  V30 12786 O 1178.62 5.76269 -1.73774 0
M  V30 12787 H 1182.45 2.45599 -1.78648 0
M  V30 12788 H 1180.03 1.16835 -0.93112 0
M  V30 12789 H 1181.91 4.21333 -0.0753347 0
M  V30 12790 H 1180.59 3.19082 0.544841 0
M  V30 12791 H 1179.49 3.29573 -1.7701 0
M  V30 12792 H 1180.83 4.34544 -2.31155 0
M  V30 12793 N 1182.48 0.948665 1.2585 0
M  V30 12794 C 1183.41 0.482036 2.2847 0
M  V30 12795 C 1184.39 -0.468553 1.63519 0
M  V30 12796 O 1185.58 -0.368796 1.90666 0
M  V30 12797 C 1182.71 -0.246603 3.46423 0
M  V30 12798 C 1181.66 0.61815 4.23513 0
M  V30 12799 C 1180.99 -0.240884 5.34157 0
M  V30 12800 C 1182.29 1.89327 4.86778 0
M  V30 12801 H 1183.98 1.33973 2.67753 0
M  V30 12802 H 1181.53 0.645645 1.28715 0
M  V30 12803 H 1183.48 -0.584135 4.17332 0
M  V30 12804 H 1182.2 -1.13849 3.06114 0
M  V30 12805 H 1180.86 0.938682 3.54379 0
M  V30 12806 H 1180.51 -1.13235 4.90089 0
M  V30 12807 H 1180.21 0.334367 5.86648 0
M  V30 12808 H 1181.73 -0.573517 6.07901 0
M  V30 12809 H 1183.15 1.62252 5.49861 0
M  V30 12810 H 1181.55 2.41369 5.49419 0
M  V30 12811 H 1182.62 2.60006 4.09298 0
M  V30 12812 N 1183.96 -1.40369 0.716545 0
M  V30 12813 C 1184.89 -2.33365 0.0793533 0
M  V30 12814 C 1185.87 -1.52943 -0.744482 0
M  V30 12815 O 1187.05 -1.81406 -0.693212 0
M  V30 12816 C 1184.18 -3.36928 -0.842429 0
M  V30 12817 C 1183.14 -4.2782 -0.124142 0
M  V30 12818 C 1182.46 -5.21928 -1.1617 0
M  V30 12819 C 1183.76 -5.12199 1.02224 0
M  V30 12820 H 1185.46 -2.86899 0.856115 0
M  V30 12821 H 1183 -1.37946 0.413138 0
M  V30 12822 H 1184.96 -4.00925 -1.29759 0
M  V30 12823 H 1183.68 -2.81791 -1.6511 0
M  V30 12824 H 1182.34 -3.65277 0.311201 0
M  V30 12825 H 1181.99 -4.63096 -1.96345 0
M  V30 12826 H 1181.69 -5.83582 -0.685978 0
M  V30 12827 H 1183.21 -5.88802 -1.61694 0
M  V30 12828 H 1184.63 -5.69644 0.646399 0
M  V30 12829 H 1183.02 -5.82901 1.4264 0
M  V30 12830 H 1184.09 -4.4812 1.85246 0
M  V30 12831 N 1185.44 -0.462799 -1.50652 0
M  V30 12832 C 1186.37 0.371837 -2.26164 0
M  V30 12833 C 1187.38 0.96432 -1.31167 0
M  V30 12834 O 1188.57 0.854134 -1.56738 0
M  V30 12835 C 1185.67 1.53469 -3.0216 0
M  V30 12836 C 1184.84 1.0565 -4.24449 0
M  V30 12837 C 1183.9 2.09243 -4.82808 0
M  V30 12838 O 1182.93 1.67641 -5.43953 0
M  V30 12839 N 1184.13 3.41976 -4.69076 0
M  V30 12840 H 1186.9 -0.275476 -2.98431 0
M  V30 12841 H 1184.46 -0.293109 -1.59225 0
M  V30 12842 H 1186.45 2.22446 -3.38083 0
M  V30 12843 H 1185.02 2.08685 -2.32743 0
M  V30 12844 H 1184.24 0.192895 -3.93728 0
M  V30 12845 H 1185.53 0.714796 -5.03754 0
M  V30 12846 H 1184.92 3.78491 -4.20429 0
M  V30 12847 H 1183.48 4.06775 -5.09291 0
M  V30 12848 N 1186.91 1.56388 -0.195085 0
M  V30 12849 C 1188.33 1.58788 0.160758 0
M  V30 12850 C 1188.53 1.21125 1.61031 0
M  V30 12851 O 1187.59 0.933994 2.34591 0
M  V30 12852 C 1188.9 3.00366 -0.141588 0
M  V30 12853 C 1190.45 3.12893 -0.0816947 0
M  V30 12854 C 1190.92 4.56604 -0.35735 0
M  V30 12855 N 1192.41 4.62188 -0.305968 0
M  V30 12856 C 1193.15 5.71276 -0.493108 0
M  V30 12857 N 1192.64 6.8883 -0.740595 0
M  V30 12858 N 1194.44 5.60473 -0.427365 0
M  V30 12859 H 1186.59 1.79151 -1.14099 0
M  V30 12860 H 1188.85 0.831446 -0.455413 0
M  V30 12861 H 1188.56 3.32483 -1.14666 0
M  V30 12862 H 1188.43 3.73082 0.555834 0
M  V30 12863 H 1190.82 2.80589 0.913978 0
M  V30 12864 H 1190.9 2.42564 -0.812193 0
M  V30 12865 H 1190.54 4.8962 -1.35034 0
M  V30 12866 H 1190.47 5.25124 0.394036 0
M  V30 12867 H 1192.96 3.77705 -0.121298 0
M  V30 12868 H 1193.28 7.67862 -0.872201 0
M  V30 12869 H 1191.62 6.90637 -0.777488 0
M  V30 12870 H 1194.81 4.67513 -0.234436 0
M  V30 12871 H 1194.99 6.45429 -0.576627 0
M  V30 12872 N 1188.39 -0.0785156 1.57404 0
M  V30 12873 C 1189.32 -1.09446 2.06262 0
M  V30 12874 C 1190.3 -1.40777 0.954772 0
M  V30 12875 O 1191.49 -1.5052 1.22708 0
M  V30 12876 C 1188.62 -2.40979 2.50093 0
M  V30 12877 C 1187.57 -2.24017 3.64692 0
M  V30 12878 C 1186.9 -3.60873 3.94556 0
M  V30 12879 C 1188.2 -1.66696 4.94985 0
M  V30 12880 H 1189.89 -0.687928 2.9139 0
M  V30 12881 H 1187.44 -0.329466 1.4018 0
M  V30 12882 H 1189.39 -3.12337 2.82884 0
M  V30 12883 H 1188.12 -2.83599 1.61985 0
M  V30 12884 H 1186.77 -1.55101 3.32174 0
M  V30 12885 H 1186.42 -4.01051 3.0359 0
M  V30 12886 H 1186.12 -3.50365 4.71718 0
M  V30 12887 H 1187.65 -4.33673 4.29837 0
M  V30 12888 H 1189.06 -2.27913 5.2605 0
M  V30 12889 H 1187.46 -1.66902 5.76423 0
M  V30 12890 H 1188.53 -0.627827 4.80818 0
M  V30 12891 N 1189.87 -1.5367 -0.349747 0
M  V30 12892 C 1190.82 -1.81223 -1.42922 0
M  V30 12893 C 1191.79 -0.657536 -1.52531 0
M  V30 12894 O 1192.97 -0.90134 -1.68168 0
M  V30 12895 C 1190.11 -2.022 -2.79659 0
M  V30 12896 C 1189.23 -3.29915 -2.78891 0
M  V30 12897 C 1188.36 -3.40993 -4.07305 0
M  V30 12898 C 1187.4 -4.6268 -4.00741 0
M  V30 12899 N 1186.54 -4.70826 -5.20833 0
M  V30 12900 H 1191.38 -2.73328 -1.18727 0
M  V30 12901 H 1188.91 -1.35386 -0.57525 0
M  V30 12902 H 1190.87 -2.12351 -3.59114 0
M  V30 12903 H 1189.5 -1.13416 -3.0222 0
M  V30 12904 H 1188.55 -3.28637 -1.91577 0
M  V30 12905 H 1189.87 -4.19459 -2.69917 0
M  V30 12906 H 1189.02 -3.50542 -4.95182 0
M  V30 12907 H 1187.76 -2.49493 -4.19052 0
M  V30 12908 H 1186.76 -4.53215 -3.11249 0
M  V30 12909 H 1187.99 -5.55538 -3.90582 0
M  V30 12910 H 1185.93 -3.82233 -5.33136 0
M  V30 12911 H 1185.85 -5.54297 -5.14092 0
M  V30 12912 H 1187.12 -4.84677 -6.10499 0
M  V30 12913 N 1191.35 0.610423 -1.45298 0
M  V30 12914 C 1192.3 1.74245 -1.54083 0
M  V30 12915 C 1193.29 1.64338 -0.411003 0
M  V30 12916 O 1194.5 1.70167 -0.586799 0
M  V30 12917 H 1190.87 0.575612 -0.483916 0
M  V30 12918 H 1192.84 1.63961 -2.49318 0
M  V30 12919 C 1191.59 3.1262 -1.52198 0
M  V30 12920 H 1190.91 3.209 -2.3846 0
M  V30 12921 H 1192.35 3.91665 -1.62403 0
M  V30 12922 C 1190.81 3.36001 -0.24595 0
M  V30 12923 O 1191.34 3.95982 0.675374 0
M  V30 12924 N 1189.55 2.9025 -0.142537 0
M  V30 12925 H 1189.1 2.41621 -0.893143 0
M  V30 12926 H 1189.05 3.06268 0.710427 0
M  V30 12927 N 1192.83 1.32541 0.852676 0
M  V30 12928 C 1194.07 1.24532 1.62083 0
M  V30 12929 C 1194.43 -0.189531 1.91062 0
M  V30 12930 O 1195.63 -0.393382 2.65906 0
M  V30 12931 C 1193.9 2.0828 2.90438 0
M  V30 12932 S 1195.46 2.17317 3.81207 0
M  V30 12933 H 1192.28 0.443261 0.555915 0
M  V30 12934 H 1194.88 1.67413 1.00961 0
M  V30 12935 H 1193.59 3.11587 2.67099 0
M  V30 12936 H 1193.12 1.66184 3.56576 0
M  V30 12937 H 1195.13 1.32412 4.78207 0
M  V30 12938 N 1194.3 -1.0692 1.15784 0
M  V30 12939 C 1195.23 -2.16216 0.881649 0
M  V30 12940 C 1196.22 -1.69253 -0.16951 0
M  V30 12941 O 1197.4 -1.94186 -0.0229511 0
M  V30 12942 C 1194.53 -3.4527 0.374982 0
M  V30 12943 C 1193.48 -4.05706 1.36332 0
M  V30 12944 C 1192.81 -5.29894 0.715317 0
M  V30 12945 C 1194.11 -4.45224 2.7308 0
M  V30 12946 H 1195.8 -2.39577 1.79563 0
M  V30 12947 H 1193.35 -1.15141 0.864784 0
M  V30 12948 H 1195.3 -4.2106 0.169279 0
M  V30 12949 H 1194.03 -3.21508 -0.574485 0
M  V30 12950 H 1192.69 -3.31965 1.55546 0
M  V30 12951 H 1192.33 -5.02425 -0.240436 0
M  V30 12952 H 1192.03 -5.71287 1.37494 0
M  V30 12953 H 1193.56 -6.08386 0.519489 0
M  V30 12954 H 1194.97 -5.12124 2.57686 0
M  V30 12955 H 1193.37 -4.97583 3.35457 0
M  V30 12956 H 1194.44 -3.56384 3.28813 0
M  V30 12957 N 1195.78 -0.955326 -1.25345 0
M  V30 12958 C 1197.01 -0.627233 -1.97688 0
M  V30 12959 C 1197.43 0.793973 -1.70522 0
M  V30 12960 O 1196.79 1.537 -0.961556 0
M  V30 12961 C 1196.84 -0.892969 -3.49369 0
M  V30 12962 O 1195.94 0.0278871 -4.12391 0
M  V30 12963 H 1195.28 -0.238402 -0.619726 0
M  V30 12964 H 1197.81 -1.28211 -1.59446 0
M  V30 12965 H 1197.82 -0.819517 -3.99685 0
M  V30 12966 H 1196.5 -1.92879 -3.6847 0
M  V30 12967 H 1195.08 -0.0978295 -3.72772 0
M  V30 12968 N 1197.26 1.39987 -0.723979 0
M  V30 12969 C 1198.17 2.3447 -0.0780936 0
M  V30 12970 C 1199.19 1.57744 0.734368 0
M  V30 12971 O 1200.36 1.90091 0.665385 0
M  V30 12972 C 1197.43 3.36705 0.826492 0
M  V30 12973 C 1196.49 4.293 0.00303036 0
M  V30 12974 C 1195.72 5.26651 0.864535 0
M  V30 12975 O 1195.95 5.30194 2.10357 0
M  V30 12976 O 1194.88 6.01157 0.299057 0
M  V30 12977 H 1198.71 2.91338 -0.857646 0
M  V30 12978 H 1196.29 1.41324 -0.484536 0
M  V30 12979 H 1198.17 3.9938 1.34439 0
M  V30 12980 H 1196.85 2.82237 1.58505 0
M  V30 12981 H 1195.75 3.69883 -0.560136 0
M  V30 12982 H 1197.09 4.86942 -0.717494 0
M  V30 12983 N 1198.74 0.470782 1.50404 0
M  V30 12984 C 1199.99 -0.0844409 2.02624 0
M  V30 12985 C 1200.32 -1.39398 1.3521 0
M  V30 12986 O 1199.59 -1.88542 0.477707 0
M  V30 12987 C 1199.88 -0.268563 3.59097 0
M  V30 12988 C 1199.73 1.06198 4.37084 0
M  V30 12989 C 1201.05 -1.02324 4.28039 0
M  V30 12990 H 1198.17 -0.0292141 0.736421 0
M  V30 12991 H 1200.81 0.616312 1.79726 0
M  V30 12992 H 1198.96 -0.865441 3.78738 0
M  V30 12993 H 1200.63 1.69541 4.29015 0
M  V30 12994 H 1198.87 1.65868 4.00837 0
M  V30 12995 H 1199.55 0.886795 5.4483 0
M  V30 12996 H 1202.02 -0.517325 4.12872 0
M  V30 12997 H 1200.9 -1.12087 5.37334 0
M  V30 12998 H 1201.16 -2.05974 3.91187 0
M  V30 12999 N 1200.22 -1.56282 0.203376 0
M  V30 13000 C 1201.13 -2.23086 -0.725922 0
M  V30 13001 C 1202.14 -1.23258 -1.22814 0
M  V30 13002 O 1203.32 -1.5602 -1.27357 0
M  V30 13003 C 1200.38 -2.88358 -1.92485 0
M  V30 13004 C 1199.45 -4.03479 -1.46639 0
M  V30 13005 C 1198.68 -4.65629 -2.60816 0
M  V30 13006 O 1198.9 -4.2672 -3.78506 0
M  V30 13007 O 1197.84 -5.54949 -2.33056 0
M  V30 13008 H 1201.66 -3.03124 -0.18694 0
M  V30 13009 H 1199.25 -1.49377 -0.0262829 0
M  V30 13010 H 1201.13 -3.29623 -2.62539 0
M  V30 13011 H 1199.8 -2.11294 -2.45228 0
M  V30 13012 H 1198.71 -3.66821 -0.734396 0
M  V30 13013 H 1200.04 -4.82232 -0.985535 0
M  V30 13014 N 1201.7 0.070167 -1.57444 0
M  V30 13015 C 1202.66 1.06761 -2.02817 0
M  V30 13016 C 1203.66 1.31498 -0.925462 0
M  V30 13017 O 1204.85 1.27192 -1.19029 0
M  V30 13018 C 1201.98 2.41086 -2.41019 0
M  V30 13019 H 1203.17 0.67651 -2.9217 0
M  V30 13020 H 1200.73 0.315936 -1.53074 0
M  V30 13021 H 1201.46 2.85025 -1.54697 0
M  V30 13022 H 1201.25 2.24472 -3.21488 0
M  V30 13023 H 1202.74 3.12778 -2.76694 0
M  V30 13024 N 1203.17 1.53854 0.341593 0
M  V30 13025 C 1204.41 1.72909 1.09004 0
M  V30 13026 C 1204.78 0.48304 1.85824 0
M  V30 13027 O 1205.98 0.550651 2.63099 0
M  V30 13028 C 1204.25 2.95884 2.00468 0
M  V30 13029 S 1205.81 3.3576 2.82508 0
M  V30 13030 H 1202.63 0.608187 0.368279 0
M  V30 13031 H 1205.23 1.92001 0.368222 0
M  V30 13032 H 1203.93 3.84742 1.42836 0
M  V30 13033 H 1203.46 2.79263 2.77084 0
M  V30 13034 H 1205.48 2.89647 4.02888 0
M  V30 13035 N 1204.65 -0.602709 1.4562 0
M  V30 13036 C 1205.9 -1.35769 1.49163 0
M  V30 13037 C 1206.21 -1.95102 0.139485 0
M  V30 13038 O 1207.42 -2.71449 0.0525919 0
M  V30 13039 C 1205.88 -2.45959 2.62739 0
M  V30 13040 C 1205.48 -1.93017 4.04288 0
M  V30 13041 C 1207.23 -3.22926 2.75534 0
M  V30 13042 C 1205.13 -3.00718 5.09237 0
M  V30 13043 H 1204.06 -0.510317 0.555061 0
M  V30 13044 H 1206.72 -0.645434 1.71774 0
M  V30 13045 H 1205.1 -3.19892 2.3342 0
M  V30 13046 H 1206.27 -1.2576 4.43307 0
M  V30 13047 H 1204.59 -1.2878 3.95986 0
M  V30 13048 H 1207.18 -4.03267 3.51112 0
M  V30 13049 H 1207.53 -3.74243 1.82339 0
M  V30 13050 H 1208.06 -2.56095 3.04402 0
M  V30 13051 H 1204.8 -2.54312 6.04157 0
M  V30 13052 H 1204.32 -3.66526 4.74783 0
M  V30 13053 H 1206 -3.65016 5.34202 0
M  V30 13054 N 1206.13 -1.32992 -0.845635 0
M  V30 13055 C 1207.09 -1.22607 -1.9365 0
M  V30 13056 C 1208.09 -0.146812 -1.60128 0
M  V30 13057 O 1209.28 -0.397863 -1.69596 0
M  V30 13058 C 1206.41 -0.887677 -3.2914 0
M  V30 13059 H 1207.61 -2.19563 -2.04285 0
M  V30 13060 H 1205.16 -1.16952 -1.03691 0
M  V30 13061 H 1205.9 0.0796777 -3.24202 0
M  V30 13062 H 1205.68 -1.66808 -3.54849 0
M  V30 13063 H 1207.17 -0.83958 -4.09073 0
M  V30 13064 N 1207.61 1.06304 -1.1635 0
M  V30 13065 C 1208.54 2.13732 -0.827721 0
M  V30 13066 C 1209.55 1.61962 0.164983 0
M  V30 13067 O 1210.74 1.784 -0.0597591 0
M  V30 13068 C 1207.84 3.38239 -0.211623 0
M  V30 13069 C 1207.01 4.19325 -1.2444 0
M  V30 13070 C 1206.07 5.22193 -0.648127 0
M  V30 13071 O 1205.1 5.53755 -1.31695 0
M  V30 13072 N 1206.3 5.77742 0.565179 0
M  V30 13073 H 1209.07 2.43136 -1.75228 0
M  V30 13074 H 1206.63 1.22304 -1.06081 0
M  V30 13075 H 1208.62 4.04204 0.200306 0
M  V30 13076 H 1207.19 3.06461 0.616491 0
M  V30 13077 H 1206.41 3.49017 -1.83251 0
M  V30 13078 H 1207.7 4.70306 -1.94138 0
M  V30 13079 H 1207.1 5.54366 1.12673 0
M  V30 13080 H 1205.65 6.45284 0.919321 0
M  V30 13081 N 1209.09 0.96196 1.24836 0
M  V30 13082 C 1210.33 0.621634 1.93038 0
M  V30 13083 C 1210.66 -0.840257 1.75081 0
M  V30 13084 O 1209.94 -1.60381 1.10038 0
M  V30 13085 C 1210.22 0.990107 3.46221 0
M  V30 13086 C 1210.08 2.50827 3.73371 0
M  V30 13087 C 1211.39 0.520478 4.37011 0
M  V30 13088 H 1208.51 0.227312 0.701069 0
M  V30 13089 H 1211.16 1.19993 1.47315 0
M  V30 13090 H 1209.31 0.498008 3.85295 0
M  V30 13091 H 1210.98 3.07469 3.4389 0
M  V30 13092 H 1209.22 2.94277 3.18722 0
M  V30 13093 H 1209.89 2.71659 4.80526 0
M  V30 13094 H 1212.37 0.942703 4.05281 0
M  V30 13095 H 1211.24 0.806918 5.42937 0
M  V30 13096 H 1211.5 -0.579507 4.38285 0
M  V30 13097 N 1210.56 -1.39601 0.731392 0
M  V30 13098 C 1211.49 -2.33268 0.1041 0
M  V30 13099 C 1212.47 -1.53724 -0.728219 0
M  V30 13100 O 1213.66 -1.82131 -0.673933 0
M  V30 13101 C 1210.79 -3.37802 -0.806646 0
M  V30 13102 C 1209.74 -4.27928 -0.0787588 0
M  V30 13103 C 1209.07 -5.23131 -1.10628 0
M  V30 13104 C 1210.37 -5.11086 1.07651 0
M  V30 13105 H 1212.06 -2.85975 0.886496 0
M  V30 13106 H 1209.61 -1.375 0.427746 0
M  V30 13107 H 1211.56 -4.02278 -1.25499 0
M  V30 13108 H 1210.29 -2.83527 -1.62112 0
M  V30 13109 H 1208.95 -3.64926 0.349926 0
M  V30 13110 H 1208.59 -4.65152 -1.91422 0
M  V30 13111 H 1208.29 -5.84277 -0.624043 0
M  V30 13112 H 1209.82 -5.90483 -1.5544 0
M  V30 13113 H 1211.23 -5.68927 0.706781 0
M  V30 13114 H 1209.63 -5.81356 1.48814 0
M  V30 13115 H 1210.7 -4.46131 1.89988 0
M  V30 13116 N 1212.04 -0.478751 -1.50152 0
M  V30 13117 C 1213.29 0.0734397 -2.01967 0
M  V30 13118 C 1213.61 1.39523 -1.36229 0
M  V30 13119 O 1212.88 1.89141 -0.510149 0
M  V30 13120 H 1211.46 0.0301305 -0.746392 0
M  V30 13121 H 1214.12 -0.630921 -1.84406 0
M  V30 13122 H 1213.22 0.21937 -3.11328 0
M  V30 13123 N 1213.52 1.56172 -0.211661 0
M  V30 13124 C 1214.45 2.22843 0.697375 0
M  V30 13125 C 1215.43 1.19689 1.20866 0
M  V30 13126 O 1216.62 1.48245 1.25447 0
M  V30 13127 C 1213.75 2.90067 1.90993 0
M  V30 13128 C 1212.7 3.99608 1.5329 0
M  V30 13129 C 1212.03 4.54078 2.82343 0
M  V30 13130 C 1213.33 5.17169 0.730333 0
M  V30 13131 H 1215.02 2.99065 0.141533 0
M  V30 13132 H 1212.57 1.43846 0.0666337 0
M  V30 13133 H 1214.52 3.35396 2.55123 0
M  V30 13134 H 1213.24 2.11276 2.49058 0
M  V30 13135 H 1211.9 3.54995 0.915115 0
M  V30 13136 H 1211.55 3.72029 3.38531 0
M  V30 13137 H 1211.25 5.28001 2.57853 0
M  V30 13138 H 1212.77 5.02119 3.47432 0
M  V30 13139 H 1214.19 5.5894 1.2751 0
M  V30 13140 H 1212.59 5.97262 0.582916 0
M  V30 13141 H 1213.66 4.84174 -0.265157 0
M  V30 13142 N 1215 -0.0618163 1.57479 0
M  V30 13143 C 1216.24 -0.760193 1.88013 0
M  V30 13144 C 1216.58 -1.76718 0.805258 0
M  V30 13145 O 1215.85 -1.93633 -0.183408 0
M  V30 13146 C 1216.14 -1.45924 3.29208 0
M  V30 13147 C 1215.99 -0.467994 4.47359 0
M  V30 13148 C 1217.31 -2.40166 3.68793 0
M  V30 13149 H 1214.43 -0.274896 0.683814 0
M  V30 13150 H 1217.07 -0.0232433 1.89986 0
M  V30 13151 H 1215.22 -2.08741 3.27657 0
M  V30 13152 H 1216.89 0.155735 4.61037 0
M  V30 13153 H 1215.13 0.215797 4.33263 0
M  V30 13154 H 1215.8 -0.994942 5.42959 0
M  V30 13155 H 1218.28 -1.87419 3.71501 0
M  V30 13156 H 1217.16 -2.86076 4.68457 0
M  V30 13157 H 1217.42 -3.25413 2.99264 0
M  V30 13158 N 1216.48 -1.54033 -0.333429 0
M  V30 13159 C 1217.7 -1.76031 -1.09672 0
M  V30 13160 C 1218.13 -0.502844 -1.81254 0
M  V30 13161 O 1217.48 0.54509 -1.72912 0
M  V30 13162 C 1217.53 -2.947 -2.07809 0
M  V30 13163 O 1216.64 -2.65555 -3.15522 0
M  V30 13164 H 1215.98 -0.583611 -0.316692 0
M  V30 13165 H 1218.51 -2.01026 -0.380732 0
M  V30 13166 H 1218.52 -3.21771 -2.50853 0
M  V30 13167 H 1217.19 -3.85895 -1.55106 0
M  V30 13168 H 1215.77 -2.49403 -2.77223 0
M  V30 13169 N 1217.95 0.594978 -1.45938 0
M  V30 13170 C 1219.2 1.35093 -1.50314 0
M  V30 13171 C 1219.52 1.94412 -0.151315 0
M  V30 13172 O 1218.79 1.77876 0.820787 0
M  V30 13173 H 1217.37 0.501549 -0.553586 0
M  V30 13174 H 1220.04 0.697735 -1.81983 0
M  V30 13175 H 1219.13 2.16393 -2.24901 0
M  V30 13176 N 1219.43 1.33438 0.838571 0
M  V30 13177 C 1220.36 1.19552 1.9555 0
M  V30 13178 C 1221.38 0.12642 1.62308 0
M  V30 13179 O 1222.57 0.376868 1.74476 0
M  V30 13180 C 1219.67 0.811273 3.29046 0
M  V30 13181 C 1218.84 1.97207 3.9042 0
M  V30 13182 C 1217.9 1.56875 5.02271 0
M  V30 13183 O 1216.92 2.28314 5.21403 0
M  V30 13184 N 1218.13 0.473924 5.78562 0
M  V30 13185 H 1220.89 2.15769 2.07999 0
M  V30 13186 H 1218.45 1.26187 1.01432 0
M  V30 13187 H 1220.44 0.523553 4.01299 0
M  V30 13188 H 1219.01 -0.0602291 3.12542 0
M  V30 13189 H 1218.23 2.4254 3.10754 0
M  V30 13190 H 1219.52 2.74878 4.28158 0
M  V30 13191 H 1218.92 -0.120306 5.65572 0
M  V30 13192 H 1217.48 0.245877 6.51336 0
M  V30 13193 N 1220.91 -1.05686 1.16912 0
M  V30 13194 C 1222.16 -1.78862 0.955839 0
M  V30 13195 C 1222.49 -1.87257 -0.514645 0
M  V30 13196 O 1221.76 -1.36869 -1.38193 0
M  V30 13197 C 1222.05 -3.23021 1.59152 0
M  V30 13198 C 1221.9 -3.22669 3.13376 0
M  V30 13199 C 1223.22 -4.2073 1.29128 0
M  V30 13200 H 1220.34 -0.64931 0.348663 0
M  V30 13201 H 1222.98 -1.23561 1.44335 0
M  V30 13202 H 1221.13 -3.70243 1.17697 0
M  V30 13203 H 1222.8 -2.83562 3.63855 0
M  V30 13204 H 1221.05 -2.61149 3.46386 0
M  V30 13205 H 1221.72 -4.24394 3.52979 0
M  V30 13206 H 1224.19 -3.8198 1.65017 0
M  V30 13207 H 1223.07 -5.19851 1.76198 0
M  V30 13208 H 1223.33 -4.41595 0.21119 0
M  V30 13209 N 1222.39 -0.968567 -1.24324 0
M  V30 13210 C 1223.35 -0.504307 -2.23583 0
M  V30 13211 C 1224.35 0.399626 -1.55755 0
M  V30 13212 O 1225.54 0.194966 -1.73106 0
M  V30 13213 C 1222.67 0.26956 -3.39833 0
M  V30 13214 H 1223.87 -1.3818 -2.6617 0
M  V30 13215 H 1221.42 -0.753241 -1.36952 0
M  V30 13216 H 1222.15 1.16411 -3.02686 0
M  V30 13217 H 1221.94 -0.379133 -3.90263 0
M  V30 13218 H 1223.43 0.583376 -4.13505 0
M  V30 13219 N 1223.87 1.39211 -0.738786 0
M  V30 13220 C 1225.28 1.54116 -0.414773 0
M  V30 13221 C 1225.48 1.70497 1.07392 0
M  V30 13222 O 1224.54 1.7076 1.86003 0
M  V30 13223 C 1225.85 2.7567 -1.2011 0
M  V30 13224 C 1227.4 2.89508 -1.1897 0
M  V30 13225 C 1227.87 4.14005 -1.95868 0
M  V30 13226 N 1229.37 4.21052 -1.93053 0
M  V30 13227 C 1230.1 5.16341 -2.49358 0
M  V30 13228 N 1229.6 6.17396 -3.14316 0
M  V30 13229 N 1231.39 5.08585 -2.3937 0
M  V30 13230 H 1223.54 1.26827 -1.70378 0
M  V30 13231 H 1225.8 0.614983 -0.721457 0
M  V30 13232 H 1225.51 2.69922 -2.25467 0
M  V30 13233 H 1225.38 3.68443 -0.808065 0
M  V30 13234 H 1227.77 2.94747 -0.144248 0
M  V30 13235 H 1227.85 1.97788 -1.62214 0
M  V30 13236 H 1227.5 4.09527 -3.00416 0
M  V30 13237 H 1227.43 5.04776 -1.50028 0
M  V30 13238 H 1229.92 3.48669 -1.45733 0
M  V30 13239 H 1230.23 6.86572 -3.54737 0
M  V30 13240 H 1228.57 6.17772 -3.18407 0
M  V30 13241 H 1231.77 4.28573 -1.88262 0
M  V30 13242 H 1231.94 5.8267 -2.83549 0
M  V30 13243 N 1225.34 0.486708 1.49896 0
M  V30 13244 C 1226.28 -0.345627 2.25567 0
M  V30 13245 C 1227.26 -0.982794 1.29537 0
M  V30 13246 O 1228.44 -1.01569 1.58796 0
M  V30 13247 C 1225.57 -1.48555 3.04383 0
M  V30 13248 C 1224.61 -0.964196 4.15458 0
M  V30 13249 S 1225.45 0.133631 5.35333 0
M  V30 13250 C 1226.6 -1.00979 6.17701 0
M  V30 13251 H 1226.83 0.296677 2.95816 0
M  V30 13252 H 1224.37 0.271798 1.51989 0
M  V30 13253 H 1226.33 -2.13878 3.50381 0
M  V30 13254 H 1224.99 -2.09942 2.33631 0
M  V30 13255 H 1224.18 -1.81804 4.70067 0
M  V30 13256 H 1223.78 -0.388419 3.71978 0
M  V30 13257 H 1226.07 -1.91812 6.4978 0
M  V30 13258 H 1227.02 -0.502633 7.06314 0
M  V30 13259 H 1227.42 -1.27067 5.50013 0
M  V30 13260 N 1226.82 -1.56058 0.219941 0
M  V30 13261 C 1228.1 -1.90087 -0.46112 0
M  V30 13262 C 1228.48 -1.13705 -1.77861 0
M  V30 13263 O 1227.83 -0.245868 -2.27173 0
M  V30 13264 C 1228.04 -3.42786 -0.655644 0
M  V30 13265 C 1229.39 -4.13517 -0.963803 0
M  V30 13266 O 1230.41 -3.48376 -0.742488 0
M  V30 13267 O 1229.27 -5.28692 -1.38374 0
M  V30 13268 H 1226.36 -0.790311 -0.243595 0
M  V30 13269 H 1228.91 -1.67665 0.262005 0
M  V30 13270 H 1227.68 -3.90341 0.273738 0
M  V30 13271 H 1227.3 -3.70982 -1.43032 0
M  V30 13272 N 1228.3 0.053464 -1.57509 0
M  V30 13273 C 1229.53 0.761533 -1.92375 0
M  V30 13274 C 1229.94 1.70179 -0.817585 0
M  V30 13275 O 1229.3 1.81313 0.207843 0
M  V30 13276 C 1229.35 1.53954 -3.27078 0
M  V30 13277 O 1229.07 0.637054 -4.33443 0
M  V30 13278 C 1230.57 2.34697 -3.76075 0
M  V30 13279 H 1227.79 0.215483 -0.635459 0
M  V30 13280 H 1230.34 0.0182624 -2.04492 0
M  V30 13281 H 1228.49 2.23492 -3.16434 0
M  V30 13282 H 1228.91 1.18006 -5.11053 0
M  V30 13283 H 1230.38 2.84716 -4.72906 0
M  V30 13284 H 1230.86 3.15041 -3.06016 0
M  V30 13285 H 1231.46 1.70281 -3.89724 0
M  V30 13286 N 1229.78 1.54207 0.325255 0
M  V30 13287 C 1231.19 1.63587 0.899793 0
M  V30 13288 C 1231.54 0.528851 1.88938 0
M  V30 13289 O 1230.67 -0.33852 2.13736 0
M  V30 13290 C 1231.26 2.9653 1.63877 0
M  V30 13291 C 1229.82 3.08111 2.16205 0
M  V30 13292 C 1228.97 2.59144 0.986903 0
M  V30 13293 H 1231.92 1.58366 0.102883 0
M  V30 13294 H 1231.94 2.86595 2.50287 0
M  V30 13295 H 1231.45 3.7708 0.918279 0
M  V30 13296 H 1229.55 2.32232 2.91375 0
M  V30 13297 H 1229.67 4.13885 2.41322 0
M  V30 13298 H 1228.03 2.14997 1.36558 0
M  V30 13299 H 1228.81 3.4215 0.28076 0
M  V30 13300 N 1231.26 -0.58723 1.46251 0
M  V30 13301 C 1232.19 -1.71103 1.52501 0
M  V30 13302 C 1233.2 -1.57454 0.413772 0
M  V30 13303 O 1234.39 -1.64962 0.681902 0
M  V30 13304 C 1231.49 -3.0931 1.38493 0
M  V30 13305 C 1230.66 -3.49005 2.63655 0
M  V30 13306 C 1229.72 -4.66255 2.43911 0
M  V30 13307 O 1228.75 -4.72344 3.17616 0
M  V30 13308 N 1229.95 -5.60843 1.49784 0
M  V30 13309 H 1232.72 -1.66198 2.49396 0
M  V30 13310 H 1230.28 -0.773087 1.4225 0
M  V30 13311 H 1232.27 -3.85535 1.23064 0
M  V30 13312 H 1230.84 -3.08608 0.497963 0
M  V30 13313 H 1230.06 -2.62533 2.94058 0
M  V30 13314 H 1231.35 -3.72291 3.4681 0
M  V30 13315 H 1230.75 -5.58656 0.889972 0
M  V30 13316 H 1229.3 -6.36517 1.4032 0
M  V30 13317 N 1232.74 -1.33881 -0.831482 0
M  V30 13318 C 1233.67 -1.27384 -1.95693 0
M  V30 13319 C 1234.65 -0.152943 -1.69411 0
M  V30 13320 O 1235.83 -0.34392 -1.9113 0
M  V30 13321 C 1232.96 -1.01982 -3.31989 0
M  V30 13322 C 1231.92 -2.10445 -3.72689 0
M  V30 13323 C 1231.24 -1.70245 -5.06873 0
M  V30 13324 C 1232.54 -3.52194 -3.8569 0
M  V30 13325 H 1234.24 -2.21549 -2.01386 0
M  V30 13326 H 1231.78 -1.06653 -0.967526 0
M  V30 13327 H 1233.73 -0.960841 -4.103 0
M  V30 13328 H 1232.46 -0.0425709 -3.26572 0
M  V30 13329 H 1231.12 -2.15398 -2.96647 0
M  V30 13330 H 1230.77 -0.712036 -4.97935 0
M  V30 13331 H 1230.47 -2.42834 -5.35075 0
M  V30 13332 H 1231.99 -1.65827 -5.87651 0
M  V30 13333 H 1233.4 -3.49701 -4.54293 0
M  V30 13334 H 1231.8 -4.23331 -4.25336 0
M  V30 13335 H 1232.87 -3.9016 -2.87929 0
M  V30 13336 N 1234.21 1.05064 -1.1747 0
M  V30 13337 C 1235.44 1.81761 -0.988464 0
M  V30 13338 C 1235.86 1.83028 0.463272 0
M  V30 13339 O 1235.21 1.25846 1.32171 0
M  V30 13340 C 1235.26 3.2782 -1.5237 0
M  V30 13341 O 1234.99 3.26726 -2.91859 0
M  V30 13342 C 1236.49 4.212 -1.38223 0
M  V30 13343 H 1233.71 0.572712 -0.349631 0
M  V30 13344 H 1236.25 1.32477 -1.55789 0
M  V30 13345 H 1234.41 3.7437 -0.996272 0
M  V30 13346 H 1234.82 4.18151 -3.16623 0
M  V30 13347 H 1236.29 5.2166 -1.80485 0
M  V30 13348 H 1236.77 4.37962 -0.329491 0
M  V30 13349 H 1237.38 3.80506 -1.89988 0
M  V30 13350 N 1235.69 0.975146 1.23809 0
M  V30 13351 C 1236.62 0.530389 2.27396 0
M  V30 13352 C 1237.6 -0.433763 1.64476 0
M  V30 13353 O 1238.79 -0.32827 1.91405 0
M  V30 13354 C 1235.92 -0.173066 3.46869 0
M  V30 13355 C 1234.87 0.707844 4.22106 0
M  V30 13356 C 1234.2 -0.127527 5.34548 0
M  V30 13357 C 1235.5 1.99609 4.82652 0
M  V30 13358 H 1237.19 1.39622 2.64851 0
M  V30 13359 H 1234.74 0.672802 1.27316 0
M  V30 13360 H 1236.69 -0.495481 4.18477 0
M  V30 13361 H 1235.41 -1.0733 3.0846 0
M  V30 13362 H 1234.07 1.01364 3.52308 0
M  V30 13363 H 1233.72 -1.02814 4.9238 0
M  V30 13364 H 1233.42 0.458728 5.85807 0
M  V30 13365 H 1234.95 -0.444443 6.0898 0
M  V30 13366 H 1236.36 1.73878 5.46296 0
M  V30 13367 H 1234.76 2.52969 5.44175 0
M  V30 13368 H 1235.83 2.68629 4.03691 0
M  V30 13369 N 1237.17 -1.38817 0.746158 0
M  V30 13370 C 1238.4 -2.0457 0.309605 0
M  V30 13371 C 1238.81 -1.5627 -1.05948 0
M  V30 13372 O 1238.17 -0.73248 -1.67156 0
M  V30 13373 C 1238.22 -3.60126 0.314843 0
M  V30 13374 O 1237.94 -4.06652 1.6299 0
M  V30 13375 C 1239.44 -4.4309 -0.136497 0
M  V30 13376 H 1236.66 -0.657597 0.133441 0
M  V30 13377 H 1239.21 -1.77651 1.01293 0
M  V30 13378 H 1237.36 -3.85908 -0.339685 0
M  V30 13379 H 1237.78 -5.01042 1.55103 0
M  V30 13380 H 1239.25 -5.5194 -0.0816714 0
M  V30 13381 H 1239.73 -4.22959 -1.18332 0
M  V30 13382 H 1240.33 -4.22481 0.488879 0
M  V30 13383 N 1238.65 -0.49465 -1.49636 0
M  V30 13384 C 1239.56 0.291881 -2.32777 0
M  V30 13385 C 1240.57 0.973468 -1.44221 0
M  V30 13386 O 1241.75 0.956252 -1.77251 0
M  V30 13387 C 1238.81 1.34609 -3.19502 0
M  V30 13388 C 1237.88 0.678611 -4.23903 0
M  V30 13389 C 1237.11 1.68259 -5.06483 0
M  V30 13390 O 1237.33 2.91176 -4.90482 0
M  V30 13391 O 1236.27 1.24141 -5.88959 0
M  V30 13392 H 1240.09 -0.388459 -3.01205 0
M  V30 13393 H 1237.68 -0.256086 -1.47189 0
M  V30 13394 H 1239.56 1.95617 -3.73245 0
M  V30 13395 H 1238.23 2.00947 -2.53775 0
M  V30 13396 H 1237.14 0.0289541 -3.74089 0
M  V30 13397 H 1238.47 0.0577817 -4.92166 0
M  V30 13398 N 1240.13 1.55939 -0.228214 0
M  V30 13399 C 1241.06 2.2357 0.6737 0
M  V30 13400 C 1242.04 1.20964 1.1959 0
M  V30 13401 O 1243.22 1.49568 1.23867 0
M  V30 13402 C 1240.35 2.92076 1.87906 0
M  V30 13403 C 1239.31 4.01211 1.49043 0
M  V30 13404 C 1238.63 4.57047 2.77511 0
M  V30 13405 C 1239.93 5.17914 0.67544 0
M  V30 13406 H 1241.63 2.99199 0.109806 0
M  V30 13407 H 1239.17 1.43908 0.0513732 0
M  V30 13408 H 1241.12 3.38083 2.51551 0
M  V30 13409 H 1239.85 2.13906 2.46803 0
M  V30 13410 H 1238.51 3.55945 0.877411 0
M  V30 13411 H 1238.16 3.75599 3.34566 0
M  V30 13412 H 1237.86 5.30707 2.52239 0
M  V30 13413 H 1239.38 5.05776 3.42087 0
M  V30 13414 H 1240.79 5.60261 1.21575 0
M  V30 13415 H 1239.19 5.97847 0.519536 0
M  V30 13416 H 1240.26 4.83866 -0.316495 0
M  V30 13417 N 1241.6 -0.0451101 1.57535 0
M  V30 13418 C 1243.02 -0.400463 1.54494 0
M  V30 13419 C 1243.22 -1.77584 0.952166 0
M  V30 13420 O 1242.28 -2.46069 0.566221 0
M  V30 13421 C 1243.59 -0.31703 2.99024 0
M  V30 13422 C 1245.14 -0.395284 3.10494 0
M  V30 13423 C 1245.61 -0.341475 4.56725 0
M  V30 13424 N 1247.1 -0.400755 4.61463 0
M  V30 13425 C 1247.84 -0.381757 5.72128 0
M  V30 13426 N 1247.33 -0.315995 6.92079 0
M  V30 13427 N 1249.13 -0.4303 5.60451 0
M  V30 13428 H 1241.28 0.855156 1.94424 0
M  V30 13429 H 1243.54 0.323618 0.891053 0
M  V30 13430 H 1243.25 0.627477 3.46057 0
M  V30 13431 H 1243.12 -1.11696 3.60283 0
M  V30 13432 H 1245.51 -1.33022 2.63418 0
M  V30 13433 H 1245.59 0.433709 2.52096 0
M  V30 13434 H 1245.23 0.589725 5.04465 0
M  V30 13435 H 1245.16 -1.18836 5.13016 0
M  V30 13436 H 1247.65 -0.454745 3.75154 0
M  V30 13437 H 1247.97 -0.306158 7.72193 0
M  V30 13438 H 1246.31 -0.282281 6.94427 0
M  V30 13439 H 1249.5 -0.479555 4.65637 0
M  V30 13440 H 1249.68 -0.412025 6.46689 0
M  V30 13441 N 1243.08 -1.54377 -0.317073 0
M  V30 13442 C 1244.33 -1.73149 -1.05581 0
M  V30 13443 C 1244.66 -0.507176 -1.8746 0
M  V30 13444 O 1243.94 0.495837 -1.88074 0
M  V30 13445 C 1244.22 -3.01098 -1.97515 0
M  V30 13446 C 1244.07 -4.33794 -1.18922 0
M  V30 13447 C 1245.39 -3.24831 -2.9694 0
M  V30 13448 H 1242.51 -0.630011 -0.382434 0
M  V30 13449 H 1245.15 -1.87079 -0.331873 0
M  V30 13450 H 1243.3 -2.89352 -2.59244 0
M  V30 13451 H 1244.97 -4.57433 -0.596039 0
M  V30 13452 H 1243.22 -4.31005 -0.491612 0
M  V30 13453 H 1243.89 -5.19554 -1.86462 0
M  V30 13454 H 1246.36 -3.3608 -2.45335 0
M  V30 13455 H 1245.24 -4.15702 -3.58445 0
M  V30 13456 H 1245.5 -2.42365 -3.69745 0
M  V30 13457 N 1244.56 0.579466 -1.4656 0
M  V30 13458 C 1245.49 1.69846 -1.60233 0
M  V30 13459 C 1246.47 1.6397 -0.452533 0
M  V30 13460 O 1247.66 1.81936 -0.679174 0
M  V30 13461 C 1244.79 3.08488 -1.59538 0
M  V30 13462 C 1243.74 3.29197 -2.7352 0
M  V30 13463 C 1243.07 4.684 -2.57887 0
M  V30 13464 C 1244.37 3.16718 -4.15315 0
M  V30 13465 H 1246.06 1.5866 -2.53904 0
M  V30 13466 H 1243.61 0.761873 -1.22194 0
M  V30 13467 H 1245.56 3.86595 -1.67696 0
M  V30 13468 H 1244.28 3.20581 -0.62413 0
M  V30 13469 H 1242.94 2.53491 -2.64836 0
M  V30 13470 H 1242.59 4.77262 -1.58839 0
M  V30 13471 H 1242.29 4.83208 -3.34341 0
M  V30 13472 H 1243.81 5.48671 -2.67942 0
M  V30 13473 H 1245.23 3.84666 -4.25094 0
M  V30 13474 H 1243.63 3.43047 -4.92381 0
M  V30 13475 H 1244.7 2.13755 -4.35244 0
M  V30 13476 N 1246.04 1.3432 0.824371 0
M  V30 13477 C 1246.97 1.2842 1.95014 0
M  V30 13478 C 1247.95 0.161925 1.69328 0
M  V30 13479 O 1249.13 0.354052 1.90945 0
M  V30 13480 C 1246.26 1.03741 3.31444 0
M  V30 13481 C 1245.22 2.12419 3.71567 0
M  V30 13482 C 1244.54 1.72931 5.05963 0
M  V30 13483 C 1245.84 3.54235 3.83817 0
M  V30 13484 H 1247.54 2.22614 2.00209 0
M  V30 13485 H 1245.08 1.07165 0.961856 0
M  V30 13486 H 1247.04 0.982586 4.09784 0
M  V30 13487 H 1245.76 0.0598892 3.26545 0
M  V30 13488 H 1244.42 2.16968 2.955 0
M  V30 13489 H 1244.07 0.738433 4.9755 0
M  V30 13490 H 1243.77 2.45668 5.3378 0
M  V30 13491 H 1245.29 1.68941 5.86763 0
M  V30 13492 H 1246.71 3.52106 4.52432 0
M  V30 13493 H 1245.1 4.25581 4.23085 0
M  V30 13494 H 1246.17 3.91682 2.85856 0
M  V30 13495 N 1247.52 -1.0444 1.18026 0
M  V30 13496 C 1248.43 -2.15862 0.918747 0
M  V30 13497 C 1249.44 -1.73614 -0.115808 0
M  V30 13498 O 1250.62 -2.01294 0.0652312 0
M  V30 13499 C 1247.68 -3.43846 0.443922 0
M  V30 13500 C 1246.74 -4.00497 1.54599 0
M  V30 13501 C 1245.98 -5.22373 1.09372 0
M  V30 13502 O 1246.2 -5.70379 -0.049085 0
M  V30 13503 O 1245.13 -5.71459 1.88992 0
M  V30 13504 H 1248.96 -2.40776 1.85097 0
M  V30 13505 H 1246.55 -1.14326 0.961769 0
M  V30 13506 H 1248.43 -4.20985 0.187017 0
M  V30 13507 H 1247.1 -3.20414 -0.460051 0
M  V30 13508 H 1246.01 -3.24764 1.85686 0
M  V30 13509 H 1247.34 -4.28262 2.42595 0
M  V30 13510 N 1248.99 -0.981699 -1.2329 0
M  V30 13511 C 1249.93 -0.481042 -2.24095 0
M  V30 13512 C 1250.94 0.417818 -1.57347 0
M  V30 13513 O 1252.13 0.221746 -1.77117 0
M  V30 13514 C 1249.23 0.323324 -3.37354 0
M  V30 13515 C 1248.4 -0.568975 -4.33684 0
M  V30 13516 C 1247.46 0.181761 -5.25886 0
M  V30 13517 O 1246.49 -0.429059 -5.67581 0
M  V30 13518 N 1247.69 1.46737 -5.61648 0
M  V30 13519 H 1250.45 -1.34781 -2.67683 0
M  V30 13520 H 1248.01 -0.855117 -1.37475 0
M  V30 13521 H 1250.01 0.833934 -3.96015 0
M  V30 13522 H 1248.58 1.09111 -2.9294 0
M  V30 13523 H 1247.8 -1.2604 -3.73507 0
M  V30 13524 H 1249.08 -1.17704 -4.94998 0
M  V30 13525 H 1248.48 1.98513 -5.29725 0
M  V30 13526 H 1247.04 1.92339 -6.22775 0
M  V30 13527 N 1250.47 1.3842 -0.753509 0
M  V30 13528 C 1251.41 2.28079 -0.0741683 0
M  V30 13529 C 1252.38 1.45372 0.728398 0
M  V30 13530 O 1253.57 1.74737 0.707043 0
M  V30 13531 C 1250.69 3.26475 0.901764 0
M  V30 13532 C 1249.74 4.26097 0.185438 0
M  V30 13533 S 1250.57 5.23791 -1.11372 0
M  V30 13534 C 1251.73 6.25741 -0.140861 0
M  V30 13535 H 1251.96 2.85349 -0.834475 0
M  V30 13536 H 1249.5 1.4442 -0.546089 0
M  V30 13537 H 1251.45 3.83678 1.4595 0
M  V30 13538 H 1250.11 2.68189 1.63504 0
M  V30 13539 H 1249.31 4.95447 0.924578 0
M  V30 13540 H 1248.91 3.72789 -0.300772 0
M  V30 13541 H 1251.2 6.73945 0.693174 0
M  V30 13542 H 1252.14 7.03543 -0.80202 0
M  V30 13543 H 1252.55 5.6399 0.2398 0
M  V30 13544 N 1251.95 0.502579 1.49372 0
M  V30 13545 C 1253.2 -0.0412993 2.02058 0
M  V30 13546 C 1253.52 -1.37338 1.38431 0
M  V30 13547 O 1252.79 -1.88305 0.540175 0
M  V30 13548 H 1251.37 -0.0182522 0.746777 0
M  V30 13549 H 1254.03 0.660179 1.83378 0
M  V30 13550 H 1253.13 -0.169812 3.11638 0
M  V30 13551 N 1253.43 -1.55816 0.23648 0
M  V30 13552 C 1254.65 -2.03534 -0.398575 0
M  V30 13553 C 1255.08 -1.11488 -1.51499 0
M  V30 13554 O 1254.44 -0.105848 -1.80991 0
M  V30 13555 C 1254.48 -3.49356 -0.893467 0
M  V30 13556 O 1253.59 -3.60446 -2.00381 0
M  V30 13557 H 1252.93 -0.658102 -0.0883021 0
M  V30 13558 H 1255.46 -2.01417 0.359488 0
M  V30 13559 H 1255.47 -3.89972 -1.19941 0
M  V30 13560 H 1254.14 -4.1583 -0.0764388 0
M  V30 13561 H 1252.72 -3.31723 -1.70336 0
M  V30 13562 N 1254.91 0.036755 -1.57557 0
M  V30 13563 C 1255.84 1.03939 -2.09091 0
M  V30 13564 C 1256.82 1.38196 -0.991761 0
M  V30 13565 O 1258 1.47214 -1.26656 0
M  V30 13566 C 1255.13 2.34263 -2.56394 0
M  V30 13567 C 1254.09 2.14269 -3.70504 0
M  V30 13568 C 1253.41 3.50286 -4.03985 0
M  V30 13569 C 1254.71 1.53514 -4.9923 0
M  V30 13570 H 1256.41 0.610429 -2.93111 0
M  V30 13571 H 1253.95 0.292183 -1.41005 0
M  V30 13572 H 1255.91 3.04727 -2.91066 0
M  V30 13573 H 1254.63 2.79205 -1.69447 0
M  V30 13574 H 1253.29 1.46239 -3.36169 0
M  V30 13575 H 1252.94 3.92861 -3.14116 0
M  V30 13576 H 1252.64 3.37735 -4.80842 0
M  V30 13577 H 1254.16 4.22124 -4.41184 0
M  V30 13578 H 1255.57 2.13885 -5.31908 0
M  V30 13579 H 1253.97 1.51561 -5.80646 0
M  V30 13580 H 1255.04 0.500126 -4.82314 0
M  V30 13581 N 1256.39 1.54543 0.308881 0
M  V30 13582 C 1257.8 1.64532 0.882392 0
M  V30 13583 C 1258.15 0.54886 1.88367 0
M  V30 13584 O 1257.27 -0.315832 2.14083 0
M  V30 13585 C 1257.87 2.98251 1.60722 0
M  V30 13586 C 1256.43 3.10387 2.12925 0
M  V30 13587 C 1255.57 2.60176 0.959362 0
M  V30 13588 H 1258.52 1.58466 0.0860803 0
M  V30 13589 H 1258.55 2.89233 2.47233 0
M  V30 13590 H 1258.06 3.78033 0.878233 0
M  V30 13591 H 1256.16 2.35309 2.88895 0
M  V30 13592 H 1256.27 4.16421 2.36918 0
M  V30 13593 H 1254.64 2.16434 1.3427 0
M  V30 13594 H 1255.42 3.42429 0.244454 0
M  V30 13595 N 1257.86 -0.571685 1.46866 0
M  V30 13596 C 1259.1 -1.34041 1.54313 0
M  V30 13597 C 1259.47 -1.9101 0.194708 0
M  V30 13598 O 1260.67 -2.68414 0.143968 0
M  V30 13599 C 1258.94 -2.4315 2.61941 0
M  V30 13600 S 1260.5 -3.30301 2.88871 0
M  V30 13601 H 1257.32 -0.45652 0.545078 0
M  V30 13602 H 1259.92 -0.656041 1.84164 0
M  V30 13603 H 1258.62 -1.99707 3.58532 0
M  V30 13604 H 1258.15 -3.16345 2.33858 0
M  V30 13605 H 1260.17 -4.42265 2.24981 0
M  V30 13606 N 1259.34 -1.34755 -0.817236 0
M  V30 13607 C 1260.3 -1.26687 -1.91006 0
M  V30 13608 C 1261.3 -0.180745 -1.59781 0
M  V30 13609 O 1262.49 -0.433748 -1.68714 0
M  V30 13610 C 1259.63 -0.957293 -3.27183 0
M  V30 13611 H 1260.82 -2.23846 -1.99582 0
M  V30 13612 H 1258.37 -1.19125 -1.01187 0
M  V30 13613 H 1259.11 0.0108917 -3.24298 0
M  V30 13614 H 1258.89 -1.74297 -3.5123 0
M  V30 13615 H 1260.38 -0.926161 -4.072 0
M  V30 13616 N 1260.82 1.03812 -1.18578 0
M  V30 13617 C 1261.75 2.11436 -0.858502 0
M  V30 13618 C 1262.73 1.61594 0.180604 0
M  V30 13619 O 1263.91 1.88408 0.058995 0
M  V30 13620 C 1261.04 3.37514 -0.283154 0
M  V30 13621 C 1260.09 4.0621 -1.29985 0
M  V30 13622 S 1260.92 4.52936 -2.85673 0
M  V30 13623 C 1262.08 5.82245 -2.29656 0
M  V30 13624 H 1262.31 2.38871 -1.76997 0
M  V30 13625 H 1259.84 1.16617 -1.01192 0
M  V30 13626 H 1261.8 4.10478 0.0422898 0
M  V30 13627 H 1260.46 3.08189 0.60647 0
M  V30 13628 H 1259.65 4.96845 -0.84621 0
M  V30 13629 H 1259.26 3.39374 -1.57166 0
M  V30 13630 H 1261.55 6.56321 -1.68074 0
M  V30 13631 H 1262.49 6.32375 -3.18602 0
M  V30 13632 H 1262.9 5.37472 -1.72581 0
M  V30 13633 N 1262.3 0.988223 1.22768 0
M  V30 13634 C 1263.25 0.505913 2.22316 0
M  V30 13635 C 1264.23 -0.423346 1.55231 0
M  V30 13636 O 1265.42 -0.250927 1.75212 0
M  V30 13637 C 1262.55 -0.182707 3.42813 0
M  V30 13638 C 1261.64 0.766582 4.17114 0
M  V30 13639 N 1262.03 1.91248 4.6825 0
M  V30 13640 C 1260.33 0.581503 4.42193 0
M  V30 13641 C 1261.03 2.50793 5.2486 0
M  V30 13642 N 1260 1.79106 5.13247 0
M  V30 13643 H 1263.81 1.37994 2.5949 0
M  V30 13644 H 1261.32 0.849888 1.38386 0
M  V30 13645 H 1263.32 -0.545595 4.13315 0
M  V30 13646 H 1261.98 -1.05292 3.07154 0
M  V30 13647 H 1262.99 2.29342 4.64352 0
M  V30 13648 H 1259.67 -0.243039 4.16792 0
M  V30 13649 H 1261.06 3.47609 5.74994 0
M  V30 13650 N 1263.78 -1.38018 0.760839 0
M  V30 13651 C 1264.71 -2.2899 0.0980916 0
M  V30 13652 C 1265.72 -1.48102 -0.675985 0
M  V30 13653 O 1266.91 -1.70883 -0.515878 0
M  V30 13654 C 1264.01 -3.27142 -0.884959 0
M  V30 13655 C 1263.18 -4.37081 -0.167 0
M  V30 13656 C 1262.24 -5.15375 -1.06184 0
M  V30 13657 O 1261.27 -5.6673 -0.529667 0
M  V30 13658 N 1262.47 -5.29052 -2.38924 0
M  V30 13659 H 1265.23 -2.86508 0.879403 0
M  V30 13660 H 1262.8 -1.49877 0.612245 0
M  V30 13661 H 1264.79 -3.764 -1.48678 0
M  V30 13662 H 1263.36 -2.70471 -1.5673 0
M  V30 13663 H 1262.58 -3.89363 0.615617 0
M  V30 13664 H 1263.87 -5.07732 0.329525 0
M  V30 13665 H 1263.26 -4.88892 -2.84607 0
M  V30 13666 H 1261.82 -5.81658 -2.94139 0
M  V30 13667 N 1265.25 -0.510493 -1.49103 0
M  V30 13668 C 1266.5 0.0325393 -2.01674 0
M  V30 13669 C 1266.82 1.37162 -1.39448 0
M  V30 13670 O 1268.02 2.00189 -1.83402 0
M  V30 13671 C 1266.48 0.108433 -3.59737 0
M  V30 13672 C 1266.09 -1.22458 -4.30939 0
M  V30 13673 C 1267.83 0.601326 -4.20219 0
M  V30 13674 C 1265.74 -1.11033 -5.80884 0
M  V30 13675 H 1264.67 0.0159333 -0.753832 0
M  V30 13676 H 1267.32 -0.651344 -1.71551 0
M  V30 13677 H 1265.7 0.856974 -3.86616 0
M  V30 13678 H 1266.87 -1.98715 -4.15751 0
M  V30 13679 H 1265.19 -1.65166 -3.82242 0
M  V30 13680 H 1267.79 0.704462 -5.30039 0
M  V30 13681 H 1268.13 1.60247 -3.84222 0
M  V30 13682 H 1268.66 -0.0909561 -3.97696 0
M  V30 13683 H 1265.4 -2.08603 -6.21422 0
M  V30 13684 H 1264.92 -0.388798 -5.98539 0
M  V30 13685 H 1266.6 -0.792949 -6.42123 0
M  V30 13686 N 1266.73 1.55688 -0.24474 0
M  V30 13687 C 1267.98 1.98498 0.379852 0
M  V30 13688 C 1268.3 1.13416 1.58625 0
M  V30 13689 O 1267.57 0.216456 1.947 0
M  V30 13690 H 1266.15 0.73312 0.143334 0
M  V30 13691 H 1268.81 1.91858 -0.343027 0
M  V30 13692 H 1267.91 3.04367 0.690463 0
M  V30 13693 N 1268.21 -0.0283989 1.57574 0
M  V30 13694 C 1269.49 -0.754527 1.80461 0
M  V30 13695 C 1269.87 -1.93539 0.842966 0
M  V30 13696 O 1269.21 -2.28212 -0.114714 0
M  V30 13697 C 1269.42 -1.18694 3.28196 0
M  V30 13698 C 1270.77 -1.60257 3.93196 0
M  V30 13699 O 1271.8 -1.2815 3.32349 0
M  V30 13700 O 1270.66 -2.19853 5.00327 0
M  V30 13701 H 1267.75 -0.364936 0.742126 0
M  V30 13702 H 1270.3 -0.00512589 1.69699 0
M  V30 13703 H 1269.07 -0.34398 3.89785 0
M  V30 13704 H 1268.69 -1.99633 3.43849 0
M  V30 13705 N 1269.69 -1.54705 -0.300681 0
M  V30 13706 C 1270.93 -1.74259 -1.03738 0
M  V30 13707 C 1271.27 -0.52703 -1.86912 0
M  V30 13708 O 1270.54 0.475862 -1.88589 0
M  V30 13709 C 1270.82 -3.03175 -1.94311 0
M  V30 13710 C 1270.68 -4.35031 -1.14315 0
M  V30 13711 C 1272 -3.27962 -2.93478 0
M  V30 13712 H 1269.12 -0.634031 -0.37573 0
M  V30 13713 H 1271.76 -1.87421 -0.312012 0
M  V30 13714 H 1269.91 -2.92086 -2.5616 0
M  V30 13715 H 1271.58 -4.5804 -0.547489 0
M  V30 13716 H 1269.82 -4.31503 -0.44587 0
M  V30 13717 H 1270.49 -5.21502 -1.80941 0
M  V30 13718 H 1272.97 -3.38663 -2.41757 0
M  V30 13719 H 1271.85 -4.19481 -3.54016 0
M  V30 13720 H 1272.11 -2.46273 -3.67154 0
M  V30 13721 N 1271.17 0.563888 -1.47167 0
M  V30 13722 C 1272.11 1.67151 -1.59152 0
M  V30 13723 C 1273.08 1.60307 -0.434852 0
M  V30 13724 O 1274.27 1.7924 -0.654049 0
M  V30 13725 C 1271.41 3.0548 -1.60549 0
M  V30 13726 C 1270.52 3.2281 -2.87085 0
M  V30 13727 C 1269.66 4.51498 -2.79862 0
M  V30 13728 C 1268.7 4.62237 -4.01252 0
M  V30 13729 N 1267.83 5.82273 -3.92305 0
M  V30 13730 H 1272.67 1.56245 -2.53755 0
M  V30 13731 H 1270.21 0.761219 -1.25872 0
M  V30 13732 H 1272.17 3.85572 -1.59343 0
M  V30 13733 H 1270.8 3.15237 -0.69464 0
M  V30 13734 H 1269.85 2.36196 -2.98188 0
M  V30 13735 H 1271.16 3.2661 -3.76997 0
M  V30 13736 H 1270.32 5.39842 -2.76867 0
M  V30 13737 H 1269.05 4.50166 -1.87621 0
M  V30 13738 H 1268.06 3.72307 -4.04558 0
M  V30 13739 H 1269.28 4.65334 -4.94612 0
M  V30 13740 H 1267.23 5.81902 -3.02862 0
M  V30 13741 H 1267.15 5.87422 -4.7589 0
M  V30 13742 H 1268.42 6.72996 -3.93315 0
M  V30 13743 N 1272.64 1.35187 0.810078 0
M  V30 13744 C 1273.92 1.18832 1.55365 0
M  V30 13745 C 1274.3 -0.233956 2.098 0
M  V30 13746 O 1273.65 -1.23701 1.92121 0
M  V30 13747 C 1273.86 2.25351 2.66492 0
M  V30 13748 C 1275.21 2.60981 3.34924 0
M  V30 13749 O 1276.23 2.24238 2.7676 0
M  V30 13750 O 1275.09 3.24147 4.3999 0
M  V30 13751 H 1272.18 0.461446 0.686292 0
M  V30 13752 H 1274.73 1.46858 0.850341 0
M  V30 13753 H 1273.5 3.20762 2.24115 0
M  V30 13754 H 1273.13 1.98575 3.44462 0
M  V30 13755 N 1274.12 -1.03182 1.19127 0
M  V30 13756 C 1275.37 -1.76794 0.993563 0
M  V30 13757 C 1275.7 -1.88306 -0.474809 0
M  V30 13758 O 1274.98 -1.39769 -1.35258 0
M  V30 13759 C 1275.26 -3.19573 1.65968 0
M  V30 13760 C 1275.11 -3.1595 3.2015 0
M  V30 13761 C 1276.43 -4.17897 1.38023 0
M  V30 13762 H 1273.55 -0.641768 0.362357 0
M  V30 13763 H 1276.19 -1.20472 1.46924 0
M  V30 13764 H 1274.34 -3.67663 1.25524 0
M  V30 13765 H 1276.01 -2.7578 3.69788 0
M  V30 13766 H 1274.26 -2.53743 3.51848 0
M  V30 13767 H 1274.93 -4.16811 3.61901 0
M  V30 13768 H 1277.4 -3.78394 1.73082 0
M  V30 13769 H 1276.28 -5.15997 1.87186 0
M  V30 13770 H 1276.54 -4.41048 0.304812 0
M  V30 13771 N 1275.6 -0.99472 -1.22242 0
M  V30 13772 C 1276.53 -0.566499 -2.26524 0
M  V30 13773 C 1277.51 0.407541 -1.65146 0
M  V30 13774 O 1278.7 0.297777 -1.91903 0
M  V30 13775 C 1275.83 0.11786 -3.471 0
M  V30 13776 C 1274.78 -0.774908 -4.20927 0
M  V30 13777 C 1274.11 0.0424687 -5.34683 0
M  V30 13778 C 1275.41 -2.07263 -4.79416 0
M  V30 13779 H 1277.1 -1.43818 -2.62596 0
M  V30 13780 H 1274.65 -0.692971 -1.2623 0
M  V30 13781 H 1276.6 0.428842 -4.19212 0
M  V30 13782 H 1275.32 1.0241 -3.10129 0
M  V30 13783 H 1273.98 -1.06956 -3.50651 0
M  V30 13784 H 1273.63 0.949677 -4.93954 0
M  V30 13785 H 1273.33 -0.551867 -5.85003 0
M  V30 13786 H 1274.85 0.347504 -6.0961 0
M  V30 13787 H 1276.27 -1.82548 -5.4346 0
M  V30 13788 H 1274.67 -2.61594 -5.40082 0
M  V30 13789 H 1275.74 -2.75017 -3.99366 0
M  V30 13790 N 1277.08 1.37613 -0.768148 0
M  V30 13791 C 1277.99 2.34103 -0.152649 0
M  V30 13792 C 1279 1.6 0.683811 0
M  V30 13793 O 1280.18 1.92112 0.604572 0
M  V30 13794 C 1277.25 3.39164 0.718954 0
M  V30 13795 C 1276.31 4.29092 -0.13355 0
M  V30 13796 C 1275.54 5.29135 0.696547 0
M  V30 13797 O 1275.76 5.36618 1.93383 0
M  V30 13798 O 1274.7 6.01804 0.107652 0
M  V30 13799 H 1278.52 2.88462 -0.949899 0
M  V30 13800 H 1276.11 1.39711 -0.529252 0
M  V30 13801 H 1277.99 4.03454 1.21665 0
M  V30 13802 H 1276.66 2.87137 1.49445 0
M  V30 13803 H 1275.57 3.67914 -0.677528 0
M  V30 13804 H 1276.9 4.84413 -0.872048 0
M  V30 13805 N 1278.56 0.518393 1.4883 0
M  V30 13806 C 1279.49 -0.287642 2.27388 0
M  V30 13807 C 1280.5 -0.914974 1.34655 0
M  V30 13808 O 1281.69 -0.795373 1.598 0
M  V30 13809 C 1278.79 -1.42149 3.07647 0
M  V30 13810 C 1277.96 -0.898238 4.28078 0
M  V30 13811 C 1277.02 -1.91179 4.90242 0
M  V30 13812 O 1276.05 -1.47337 5.498 0
M  V30 13813 N 1277.25 -3.24331 4.81445 0
M  V30 13814 H 1280.02 0.386047 2.97203 0
M  V30 13815 H 1277.58 0.352002 1.58027 0
M  V30 13816 H 1279.57 -2.09745 3.46106 0
M  V30 13817 H 1278.14 -1.99903 2.40328 0
M  V30 13818 H 1277.36 -0.0466326 3.94172 0
M  V30 13819 H 1278.65 -0.527338 5.0606 0
M  V30 13820 H 1278.04 -3.62627 4.34187 0
M  V30 13821 H 1276.6 -3.87593 5.24037 0
M  V30 13822 N 1280.03 -1.55556 0.252993 0
M  V30 13823 C 1281.28 -1.99385 -0.370599 0
M  V30 13824 C 1281.61 -1.14101 -1.57145 0
M  V30 13825 O 1280.89 -0.205828 -1.93408 0
M  V30 13826 C 1281.17 -3.51672 -0.774503 0
M  V30 13827 C 1281.02 -4.47719 0.432159 0
M  V30 13828 C 1282.34 -4.0923 -1.61923 0
M  V30 13829 H 1279.46 -0.724858 -0.133231 0
M  V30 13830 H 1282.1 -1.86644 0.355522 0
M  V30 13831 H 1280.25 -3.62661 -1.39318 0
M  V30 13832 H 1281.93 -4.48704 1.07063 0
M  V30 13833 H 1280.17 -4.2029 1.07419 0
M  V30 13834 H 1280.84 -5.51898 0.106123 0
M  V30 13835 H 1283.32 -4.01381 -1.09693 0
M  V30 13836 H 1282.19 -5.16039 -1.87068 0
M  V30 13837 H 1282.45 -3.58067 -2.59307 0
M  V30 13838 N 1281.51 0.0200419 -1.57587 0
M  V30 13839 C 1282.42 1.0346 -2.10555 0
M  V30 13840 C 1283.44 1.39035 -1.0462 0
M  V30 13841 O 1284.61 1.48172 -1.36407 0
M  V30 13842 C 1281.68 2.31389 -2.58186 0
M  V30 13843 C 1280.74 2.02311 -3.7864 0
M  V30 13844 C 1279.97 3.24141 -4.23991 0
M  V30 13845 O 1280.2 4.35132 -3.68803 0
M  V30 13846 O 1279.13 3.09312 -5.16342 0
M  V30 13847 H 1282.96 0.614419 -2.9742 0
M  V30 13848 H 1280.54 0.237604 -1.47498 0
M  V30 13849 H 1282.42 3.06582 -2.89112 0
M  V30 13850 H 1281.1 2.72684 -1.74428 0
M  V30 13851 H 1280.01 1.24658 -3.5272 0
M  V30 13852 H 1281.34 1.65866 -4.6341 0
M  V30 13853 N 1282.99 1.54862 0.292472 0
M  V30 13854 C 1283.95 1.8565 1.34413 0
M  V30 13855 C 1284.95 0.729868 1.43281 0
M  V30 13856 O 1286.14 0.998128 1.42769 0
M  V30 13857 C 1283.28 2.0444 2.72795 0
M  V30 13858 H 1284.47 2.79642 1.08354 0
M  V30 13859 H 1282.02 1.47055 0.529574 0
M  V30 13860 H 1282.76 1.12765 3.04063 0
M  V30 13861 H 1282.54 2.86451 2.67747 0
M  V30 13862 H 1284.03 2.296 3.48817 0
M  V30 13863 N 1284.47 -0.556076 1.47464 0
M  V30 13864 C 1285.7 -1.33664 1.57536 0
M  V30 13865 C 1286.11 -1.87858 0.224977 0
M  V30 13866 O 1285.45 -1.65746 -0.792091 0
M  V30 13867 C 1285.51 -2.54257 2.54152 0
M  V30 13868 C 1285.18 -2.21342 3.99821 0
M  V30 13869 C 1286.17 -1.78568 4.88272 0
M  V30 13870 C 1283.86 -2.32666 4.45165 0
M  V30 13871 C 1285.85 -1.47549 6.20087 0
M  V30 13872 C 1283.54 -2.0126 5.77008 0
M  V30 13873 C 1284.54 -1.58769 6.6429 0
M  V30 13874 O 1284.22 -1.27762 7.93683 0
M  V30 13875 H 1283.96 -0.413721 0.534613 0
M  V30 13876 H 1286.51 -0.680342 1.93805 0
M  V30 13877 H 1284.74 -3.22782 2.12952 0
M  V30 13878 H 1286.43 -3.16332 2.5434 0
M  V30 13879 H 1287.2 -1.69311 4.54487 0
M  V30 13880 H 1283.07 -2.64698 3.77433 0
M  V30 13881 H 1286.62 -1.1431 6.88171 0
M  V30 13882 H 1282.52 -2.10149 6.10334 0
M  V30 13883 H 1283.28 -1.41383 8.06197 0
M  V30 13884 N 1285.95 -1.35615 -0.802897 0
M  V30 13885 C 1286.88 -1.24695 -1.92312 0
M  V30 13886 C 1287.89 -0.169409 -1.61916 0
M  V30 13887 O 1289.08 -0.422995 -1.73416 0
M  V30 13888 C 1286.18 -0.898229 -3.2678 0
M  V30 13889 C 1285.35 -2.07489 -3.85054 0
M  V30 13890 C 1284.41 -1.70137 -4.97936 0
M  V30 13891 O 1283.44 -2.42057 -5.15167 0
M  V30 13892 N 1284.64 -0.627153 -5.77102 0
M  V30 13893 H 1287.41 -2.21208 -2.02205 0
M  V30 13894 H 1284.97 -1.28832 -0.980503 0
M  V30 13895 H 1286.96 -0.629766 -3.9977 0
M  V30 13896 H 1285.53 -0.0226571 -3.12592 0
M  V30 13897 H 1284.75 -2.50694 -3.04214 0
M  V30 13898 H 1286.04 -2.86133 -4.2072 0
M  V30 13899 H 1285.44 -0.0296879 -5.65692 0
M  V30 13900 H 1283.99 -0.41848 -6.50455 0
M  V30 13901 N 1287.43 1.02549 -1.19673 0
M  V30 13902 C 1288.39 2.09064 -0.939407 0
M  V30 13903 C 1289.39 1.60593 0.0814837 0
M  V30 13904 O 1290.58 1.73521 -0.153626 0
M  V30 13905 C 1287.71 3.38395 -0.412513 0
M  V30 13906 H 1288.9 2.33325 -1.88413 0
M  V30 13907 H 1286.46 1.19211 -1.01086 0
M  V30 13908 H 1287.19 3.19805 0.538094 0
M  V30 13909 H 1286.98 3.74898 -1.14863 0
M  V30 13910 H 1288.47 4.16841 -0.251678 0
M  V30 13911 N 1288.9 1.00119 1.21713 0
M  V30 13912 C 1289.81 0.567582 2.27631 0
M  V30 13913 C 1290.83 -0.387593 1.69628 0
M  V30 13914 O 1292.01 -0.252372 1.99813 0
M  V30 13915 C 1289.07 -0.102745 3.46548 0
M  V30 13916 C 1288.13 0.896433 4.19836 0
M  V30 13917 C 1287.36 0.258 5.33076 0
M  V30 13918 O 1287.59 -0.946118 5.62499 0
M  V30 13919 O 1286.52 0.967021 5.94081 0
M  V30 13920 H 1290.35 1.44898 2.66905 0
M  V30 13921 H 1287.93 0.769862 1.28037 0
M  V30 13922 H 1289.81 -0.477846 4.18682 0
M  V30 13923 H 1288.49 -0.958576 3.09181 0
M  V30 13924 H 1287.4 1.32262 3.49939 0
M  V30 13925 H 1288.73 1.72173 4.61104 0
M  V30 13926 N 1290.38 -1.37203 0.775435 0
M  V30 13927 C 1291.34 -2.28566 0.170406 0
M  V30 13928 C 1292.34 -1.48195 -0.624085 0
M  V30 13929 O 1293.53 -1.68364 -0.447132 0
M  V30 13930 C 1290.67 -3.32186 -0.765829 0
M  V30 13931 H 1291.86 -2.8358 0.975824 0
M  V30 13932 H 1289.41 -1.46531 0.543895 0
M  V30 13933 H 1290.15 -2.82303 -1.59611 0
M  V30 13934 H 1289.93 -3.91598 -0.198251 0
M  V30 13935 H 1291.42 -4.0045 -1.18446 0
M  V30 13936 N 1291.86 -0.526279 -1.48553 0
M  V30 13937 C 1293.28 -0.183886 -1.58537 0
M  V30 13938 C 1293.48 1.31272 -1.52872 0
M  V30 13939 O 1292.53 2.09069 -1.41585 0
M  V30 13940 C 1293.84 -0.78313 -2.90323 0
M  V30 13941 C 1295.39 -0.751527 -3.03844 0
M  V30 13942 C 1295.87 -1.32928 -4.38285 0
M  V30 13943 N 1297.36 -1.29109 -4.44843 0
M  V30 13944 C 1298.09 -1.70806 -5.47369 0
M  V30 13945 N 1297.59 -2.20215 -6.56869 0
M  V30 13946 N 1299.38 -1.62065 -5.3823 0
M  V30 13947 H 1291.53 -1.499 -1.50478 0
M  V30 13948 H 1293.8 -0.623294 -0.714289 0
M  V30 13949 H 1293.5 -1.83371 -3.00113 0
M  V30 13950 H 1293.38 -0.25808 -3.76316 0
M  V30 13951 H 1295.76 0.290282 -2.93669 0
M  V30 13952 H 1295.84 -1.314 -2.19471 0
M  V30 13953 H 1295.49 -2.37 -4.49214 0
M  V30 13954 H 1295.42 -0.742516 -5.21339 0
M  V30 13955 H 1297.91 -0.929348 -3.66294 0
M  V30 13956 H 1298.22 -2.50035 -7.31233 0
M  V30 13957 H 1296.57 -2.24206 -6.57842 0
M  V30 13958 H 1299.76 -1.23265 -4.51579 0
M  V30 13959 H 1299.93 -1.94883 -6.18001 0
M  V30 13960 N 1293.34 1.5542 -0.261239 0
M  V30 13961 C 1294.25 2.25627 0.642625 0
M  V30 13962 C 1295.26 1.27732 1.18155 0
M  V30 13963 O 1296.44 1.60639 1.21479 0
M  V30 13964 C 1293.5 2.95303 1.8165 0
M  V30 13965 C 1292.57 4.08644 1.31563 0
M  V30 13966 C 1291.8 4.74988 2.43355 0
M  V30 13967 O 1292.02 4.40474 3.62407 0
M  V30 13968 O 1290.96 5.63217 2.12299 0
M  V30 13969 H 1294.78 3.03609 0.0743091 0
M  V30 13970 H 1292.37 1.49372 -0.0291754 0
M  V30 13971 H 1294.25 3.3914 2.50125 0
M  V30 13972 H 1292.92 2.2025 2.37217 0
M  V30 13973 H 1291.83 3.69294 0.597746 0
M  V30 13974 H 1293.16 4.85558 0.805878 0
M  V30 13975 N 1294.82 -0.0116844 1.57596 0
M  V30 13976 C 1295.78 -0.991601 2.0664 0
M  V30 13977 C 1296.78 -1.27973 0.973629 0
M  V30 13978 O 1297.97 -1.22686 1.23668 0
M  V30 13979 C 1295.1 -2.31975 2.49801 0
M  V30 13980 H 1296.29 -0.567607 2.9448 0
M  V30 13981 H 1293.85 -0.258906 1.54141 0
M  V30 13982 H 1294.58 -2.79087 1.65169 0
M  V30 13983 H 1294.37 -2.12386 3.29598 0
M  V30 13984 H 1295.86 -3.02294 2.88112 0
M  V30 13985 N 1296.29 -1.55015 -0.284256 0
M  V30 13986 C 1297.22 -1.90128 -1.3555 0
M  V30 13987 C 1298.2 -0.761914 -1.52082 0
M  V30 13988 O 1299.39 -1.01909 -1.65312 0
M  V30 13989 C 1296.52 -2.16332 -2.71695 0
M  V30 13990 C 1295.47 -3.32166 -2.69907 0
M  V30 13991 C 1294.8 -3.43824 -4.09498 0
M  V30 13992 C 1296.1 -4.6885 -2.30168 0
M  V30 13993 H 1297.79 -2.79852 -1.06411 0
M  V30 13994 H 1295.34 -1.34649 -0.510451 0
M  V30 13995 H 1297.29 -2.39482 -3.46737 0
M  V30 13996 H 1296.02 -1.23395 -3.02392 0
M  V30 13997 H 1294.68 -3.08965 -1.97322 0
M  V30 13998 H 1294.32 -2.48375 -4.374 0
M  V30 13999 H 1294.02 -4.21698 -4.092 0
M  V30 14000 H 1295.55 -3.69254 -4.86296 0
M  V30 14001 H 1296.96 -4.91619 -2.9493 0
M  V30 14002 H 1295.36 -5.49558 -2.41052 0
M  V30 14003 H 1296.43 -4.68433 -1.25294 0
M  V30 14004 N 1297.77 0.548248 -1.47757 0
M  V30 14005 C 1298.73 1.63666 -1.60456 0
M  V30 14006 C 1299.73 1.53499 -0.479028 0
M  V30 14007 O 1300.92 1.57497 -0.744342 0
M  V30 14008 C 1298.06 3.03239 -1.55754 0
M  V30 14009 H 1299.25 1.53752 -2.57488 0
M  V30 14010 H 1296.8 0.768881 -1.36081 0
M  V30 14011 H 1297.54 3.18677 -0.601303 0
M  V30 14012 H 1297.32 3.12027 -2.37448 0
M  V30 14013 H 1298.81 3.82406 -1.67797 0
M  V30 14014 N 1299.25 1.36039 0.795694 0
M  V30 14015 C 1300.48 1.33059 1.58439 0
M  V30 14016 C 1300.89 -0.0895496 1.88588 0
M  V30 14017 O 1300.25 -1.04466 1.49643 0
M  V30 14018 C 1300.3 2.14594 2.90915 0
M  V30 14019 O 1300.02 3.51072 2.62069 0
M  V30 14020 C 1301.52 2.19324 3.85242 0
M  V30 14021 H 1298.74 0.456668 0.491625 0
M  V30 14022 H 1301.29 1.79048 0.988035 0
M  V30 14023 H 1299.44 1.72177 3.47036 0
M  V30 14024 H 1299.86 3.93545 3.46732 0
M  V30 14025 H 1301.33 2.80744 4.75276 0
M  V30 14026 H 1301.81 1.19496 4.22631 0
M  V30 14027 H 1302.41 2.6195 3.35056 0
M  V30 14028 N 1300.73 -1.01913 1.20215 0
M  V30 14029 C 1301.66 -2.12282 0.97256 0
M  V30 14030 C 1302.64 -1.6982 -0.0975709 0
M  V30 14031 O 1303.82 -1.94109 0.0594307 0
M  V30 14032 C 1300.95 -3.43369 0.521085 0
M  V30 14033 C 1299.91 -3.99559 1.53417 0
M  V30 14034 C 1299.23 -5.26383 0.93942 0
M  V30 14035 C 1300.53 -4.33241 2.91718 0
M  V30 14036 H 1302.23 -2.31746 1.89563 0
M  V30 14037 H 1299.77 -1.1137 0.912841 0
M  V30 14038 H 1301.73 -4.19963 0.347713 0
M  V30 14039 H 1300.45 -3.23655 -0.437605 0
M  V30 14040 H 1299.11 -3.25069 1.69486 0
M  V30 14041 H 1298.76 -5.02993 -0.0271236 0
M  V30 14042 H 1298.46 -5.64942 1.616 0
M  V30 14043 H 1299.98 -6.05635 0.777059 0
M  V30 14044 H 1301.4 -5.00734 2.79175 0
M  V30 14045 H 1299.79 -4.82907 3.56259 0
M  V30 14046 H 1300.86 -3.42118 3.43633 0
M  V30 14047 N 1302.21 -1.00763 -1.2118 0
M  V30 14048 C 1303.62 -0.724746 -1.72059 0
M  V30 14049 C 1303.97 0.757413 -1.80991 0
M  V30 14050 O 1303.09 1.59152 -1.46627 0
M  V30 14051 C 1303.69 -1.30893 -3.12494 0
M  V30 14052 C 1302.25 -1.07511 -3.60719 0
M  V30 14053 C 1301.39 -1.42014 -2.38175 0
M  V30 14054 H 1304.35 -1.17821 -1.0632 0
M  V30 14055 H 1304.37 -0.694919 -3.741 0
M  V30 14056 H 1303.88 -2.38767 -3.05961 0
M  V30 14057 H 1301.98 -0.0136518 -3.72597 0
M  V30 14058 H 1302.09 -1.74885 -4.4604 0
M  V30 14059 H 1300.46 -0.838972 -2.40486 0
M  V30 14060 H 1301.24 -2.50924 -2.34291 0
M  V30 14061 N 1303.68 1.3679 -0.7827 0
M  V30 14062 C 1304.91 2.04206 -0.362571 0
M  V30 14063 C 1305.33 1.58637 1.01074 0
M  V30 14064 O 1304.69 0.751692 1.64983 0
M  V30 14065 C 1304.74 3.58062 -0.4271 0
M  V30 14066 O 1303.84 4.08463 0.56845 0
M  V30 14067 H 1303.19 0.645638 -0.155073 0
M  V30 14068 H 1305.72 1.74883 -1.06194 0
M  V30 14069 H 1305.73 4.0698 -0.288298 0
M  V30 14070 H 1304.4 3.90582 -1.42893 0
M  V30 14071 H 1302.98 3.70835 0.391863 0
M  V30 14072 N 1305.16 0.53415 1.48272 0
M  V30 14073 C 1306.39 0.00368464 2.074 0
M  V30 14074 C 1306.81 -1.27003 1.38751 0
M  V30 14075 O 1306.17 -1.75502 0.454817 0
M  V30 14076 C 1306.22 -0.199034 3.6005 0
M  V30 14077 O 1305.32 -1.26679 3.92462 0
M  V30 14078 H 1304.66 0.0409936 0.662733 0
M  V30 14079 H 1307.19 0.743253 1.90622 0
M  V30 14080 H 1307.2 -0.420404 4.05828 0
M  V30 14081 H 1305.88 0.731391 4.09418 0
M  V30 14082 H 1304.46 -1.02775 3.58457 0
M  V30 14083 N 1306.64 -1.55279 0.269478 0
M  V30 14084 C 1308.05 -1.85286 -0.229372 0
M  V30 14085 C 1308.4 -1.19148 -1.55879 0
M  V30 14086 O 1307.53 -0.4778 -2.11059 0
M  V30 14087 C 1308.12 -3.3615 -0.42296 0
M  V30 14088 C 1306.68 -3.66301 -0.866047 0
M  V30 14089 C 1305.83 -2.77265 0.0439028 0
M  V30 14090 H 1308.78 -1.509 0.491427 0
M  V30 14091 H 1308.8 -3.5895 -1.26234 0
M  V30 14092 H 1308.31 -3.84258 0.544768 0
M  V30 14093 H 1306.41 -3.23688 -1.84545 0
M  V30 14094 H 1306.53 -4.73851 -0.707274 0
M  V30 14095 H 1304.89 -2.50299 -0.471433 0
M  V30 14096 H 1305.67 -3.28186 1.00741 0
M  V30 14097 N 1308.12 0.00332656 -1.576 0
M  V30 14098 C 1309.37 0.687508 -1.90047 0
M  V30 14099 C 1309.69 1.74497 -0.870388 0
M  V30 14100 O 1308.96 1.95681 0.0926544 0
M  V30 14101 H 1307.54 0.256924 -0.701426 0
M  V30 14102 H 1310.2 -0.0368129 -1.94865 0
M  V30 14103 H 1309.3 1.16086 -2.89707 0
M  V30 14104 N 1309.6 1.55164 0.276031 0
M  V30 14105 C 1310.53 1.90844 1.34539 0
M  V30 14106 C 1311.51 0.769968 1.51676 0
M  V30 14107 O 1312.69 1.02785 1.64769 0
M  V30 14108 C 1309.82 2.17769 2.70543 0
M  V30 14109 C 1308.78 3.33592 2.68142 0
M  V30 14110 C 1308.1 3.45991 4.07669 0
M  V30 14111 C 1309.4 4.70064 2.27678 0
M  V30 14112 H 1311.1 2.80412 1.04926 0
M  V30 14113 H 1308.64 1.34918 0.503303 0
M  V30 14114 H 1310.6 2.41317 3.45462 0
M  V30 14115 H 1309.32 1.24997 3.01734 0
M  V30 14116 H 1307.98 3.10007 1.95681 0
M  V30 14117 H 1307.63 2.50691 4.36077 0
M  V30 14118 H 1307.33 4.23862 4.06958 0
M  V30 14119 H 1308.85 3.71828 4.84331 0
M  V30 14120 H 1310.26 4.93176 2.92319 0
M  V30 14121 H 1308.66 5.50829 2.38134 0
M  V30 14122 H 1309.73 4.69091 1.22808 0
M  V30 14123 N 1311.07 -0.540404 1.48045 0
M  V30 14124 C 1312 -1.65538 1.6468 0
M  V30 14125 C 1312.99 -1.62713 0.495847 0
M  V30 14126 O 1314.17 -1.80072 0.727172 0
M  V30 14127 C 1311.3 -3.0415 1.67661 0
M  V30 14128 C 1310.25 -3.2183 2.82152 0
M  V30 14129 C 1309.58 -4.61397 2.70216 0
M  V30 14130 C 1310.88 -3.05596 4.23567 0
M  V30 14131 H 1312.57 -1.51873 2.58021 0
M  V30 14132 H 1310.12 -0.729208 1.24171 0
M  V30 14133 H 1312.07 -3.82013 1.77887 0
M  V30 14134 H 1310.8 -3.18814 0.708907 0
M  V30 14135 H 1309.46 -2.4638 2.71463 0
M  V30 14136 H 1309.1 -4.72883 1.71437 0
M  V30 14137 H 1308.8 -4.74174 3.47035 0
M  V30 14138 H 1310.33 -5.41374 2.82395 0
M  V30 14139 H 1311.74 -3.73261 4.35143 0
M  V30 14140 H 1310.14 -3.29871 5.01303 0
M  V30 14141 H 1311.21 -2.0214 4.40758 0
M  V30 14142 N 1312.55 -1.36459 -0.788468 0
M  V30 14143 C 1313.97 -1.16893 -1.08666 0
M  V30 14144 C 1314.17 0.00633808 -2.01499 0
M  V30 14145 O 1313.22 0.671417 -2.4341 0
M  V30 14146 C 1314.54 -2.48018 -1.70022 0
M  V30 14147 C 1316.09 -2.5439 -1.82358 0
M  V30 14148 C 1316.56 -3.85605 -2.47129 0
M  V30 14149 N 1318.05 -3.86956 -2.54597 0
M  V30 14150 C 1318.79 -4.85224 -3.05525 0
M  V30 14151 N 1318.28 -5.93885 -3.56753 0
M  V30 14152 N 1320.08 -4.72643 -3.04246 0
M  V30 14153 H 1312.23 -2.11705 -0.171733 0
M  V30 14154 H 1314.49 -0.937784 -0.1388 0
M  V30 14155 H 1314.2 -3.34292 -1.09277 0
M  V30 14156 H 1314.07 -2.63894 -2.69518 0
M  V30 14157 H 1316.46 -1.68534 -2.4224 0
M  V30 14158 H 1316.54 -2.42414 -0.816651 0
M  V30 14159 H 1316.18 -4.71868 -1.87891 0
M  V30 14160 H 1316.11 -3.94878 -3.48395 0
M  V30 14161 H 1318.6 -3.08453 -2.18323 0
M  V30 14162 H 1318.92 -6.64839 -3.93966 0
M  V30 14163 H 1317.26 -5.97553 -3.54902 0
M  V30 14164 H 1320.45 -3.86883 -2.63513 0
M  V30 14165 H 1320.62 -5.49385 -3.43627 0
M  V30 14166 N 1314.03 1.01274 -1.20754 0
M  V30 14167 C 1315.26 1.7906 -1.04653 0
M  V30 14168 C 1315.68 1.83806 0.399632 0
M  V30 14169 O 1315.04 1.27596 1.28798 0
M  V30 14170 C 1315.09 3.21187 -1.63925 0
M  V30 14171 O 1314.19 4.02913 -0.879486 0
M  V30 14172 H 1313.53 0.552147 -0.368823 0
M  V30 14173 H 1316.06 1.27356 -1.6013 0
M  V30 14174 H 1316.07 3.71887 -1.67822 0
M  V30 14175 H 1314.75 3.17048 -2.69172 0
M  V30 14176 H 1313.32 3.61499 -0.915019 0
M  V30 14177 N 1315.51 1.01404 1.20644 0
M  V30 14178 C 1316.44 0.602465 2.25594 0
M  V30 14179 C 1317.42 -0.381216 1.65773 0
M  V30 14180 O 1318.61 -0.267209 1.92353 0
M  V30 14181 C 1315.74 -0.0626245 3.47244 0
M  V30 14182 C 1314.69 0.841776 4.1964 0
M  V30 14183 C 1314.02 0.0426002 5.34683 0
M  V30 14184 C 1315.32 2.14864 4.76058 0
M  V30 14185 H 1317.01 1.47977 2.60275 0
M  V30 14186 H 1314.56 0.712966 1.25111 0
M  V30 14187 H 1316.51 -0.362095 4.19841 0
M  V30 14188 H 1315.23 -0.974627 3.11719 0
M  V30 14189 H 1313.89 1.12521 3.48905 0
M  V30 14190 H 1313.54 -0.870973 4.95402 0
M  V30 14191 H 1313.24 0.644866 5.84051 0
M  V30 14192 H 1314.76 -0.250476 6.10086 0
M  V30 14193 H 1316.18 1.9117 5.40488 0
M  V30 14194 H 1314.57 2.70153 5.35852 0
M  V30 14195 H 1315.64 2.81336 3.9494 0
M  V30 14196 N 1316.99 -1.36373 0.789944 0
M  V30 14197 C 1317.92 -2.32616 0.202944 0
M  V30 14198 C 1318.9 -1.56674 -0.662364 0
M  V30 14199 O 1320.08 -1.84826 -0.596078 0
M  V30 14200 C 1317.21 -3.4092 -0.662646 0
M  V30 14201 C 1316.17 -4.27877 0.102811 0
M  V30 14202 C 1315.49 -5.27352 -0.883407 0
M  V30 14203 C 1316.79 -5.0606 1.29231 0
M  V30 14204 H 1318.49 -2.81958 1.00699 0
M  V30 14205 H 1316.03 -1.35562 0.48568 0
M  V30 14206 H 1317.99 -4.07239 -1.08324 0
M  V30 14207 H 1316.71 -2.90147 -1.4994 0
M  V30 14208 H 1315.37 -3.63114 0.504389 0
M  V30 14209 H 1315.02 -4.72853 -1.71521 0
M  V30 14210 H 1314.72 -5.86398 -0.375669 0
M  V30 14211 H 1316.24 -5.96545 -1.30256 0
M  V30 14212 H 1317.66 -5.65417 0.947446 0
M  V30 14213 H 1316.05 -5.74521 1.73338 0
M  V30 14214 H 1317.12 -4.37671 2.08739 0
M  V30 14215 N 1318.47 -0.542005 -1.47987 0
M  V30 14216 C 1319.38 0.217677 -2.33588 0
M  V30 14217 C 1320.39 0.927093 -1.47245 0
M  V30 14218 O 1321.57 0.899378 -1.80203 0
M  V30 14219 C 1318.63 1.24376 -3.23622 0
M  V30 14220 C 1317.69 0.543407 -4.25847 0
M  V30 14221 C 1316.93 1.5206 -5.11579 0
M  V30 14222 O 1317.15 2.75425 -4.99497 0
M  V30 14223 O 1316.08 1.05341 -5.9261 0
M  V30 14224 H 1319.91 -0.484089 -2.99817 0
M  V30 14225 H 1317.49 -0.302783 -1.463 0
M  V30 14226 H 1319.38 1.83644 -3.7928 0
M  V30 14227 H 1318.05 1.92772 -2.6004 0
M  V30 14228 H 1316.96 -0.090074 -3.73992 0
M  V30 14229 H 1318.29 -0.0988264 -4.92101 0
M  V30 14230 N 1319.94 1.55134 -0.277709 0
M  V30 14231 C 1321.36 1.59417 0.0763615 0
M  V30 14232 C 1321.56 1.29491 1.54384 0
M  V30 14233 O 1320.62 1.05703 2.2931 0
M  V30 14234 C 1321.93 2.99194 -0.300607 0
M  V30 14235 C 1323.48 3.1202 -0.247438 0
M  V30 14236 C 1323.95 4.54068 -0.598884 0
M  V30 14237 N 1325.44 4.59917 -0.550534 0
M  V30 14238 C 1326.18 5.67859 -0.795235 0
M  V30 14239 N 1325.67 6.83936 -1.10469 0
M  V30 14240 N 1327.47 5.5742 -0.723859 0
M  V30 14241 H 1319.62 1.72851 -1.23435 0
M  V30 14242 H 1321.88 0.806137 -0.498846 0
M  V30 14243 H 1321.59 3.25937 -1.32129 0
M  V30 14244 H 1321.46 3.75504 0.35729 0
M  V30 14245 H 1323.85 2.8504 0.763959 0
M  V30 14246 H 1323.93 2.37917 -0.939629 0
M  V30 14247 H 1323.57 4.81774 -1.60798 0
M  V30 14248 H 1323.5 5.26474 0.115126 0
M  V30 14249 H 1325.99 3.76531 -0.321341 0
M  V30 14250 H 1326.31 7.62159 -1.278 0
M  V30 14251 H 1324.65 6.85545 -1.14249 0
M  V30 14252 H 1327.84 4.65613 -0.481925 0
M  V30 14253 H 1328.02 6.41465 -0.917944 0
M  V30 14254 N 1321.42 0.00503138 1.57599 0
M  V30 14255 C 1322.67 -0.67742 1.90409 0
M  V30 14256 C 1322.99 -1.74033 0.87963 0
M  V30 14257 O 1322.26 -1.95727 -0.0822757 0
M  V30 14258 H 1320.84 -0.2532 0.702779 0
M  V30 14259 H 1323.5 0.0471466 1.94843 0
M  V30 14260 H 1322.6 -1.14548 2.90319 0
M  V30 14261 N 1322.9 -1.55308 -0.267798 0
M  V30 14262 C 1323.83 -1.84963 -1.35356 0
M  V30 14263 C 1324.84 -0.73446 -1.45291 0
M  V30 14264 O 1326.03 -1.01237 -1.47015 0
M  V30 14265 C 1323.13 -2.00221 -2.73432 0
M  V30 14266 C 1322.31 -3.30922 -2.86024 0
M  V30 14267 C 1321.37 -3.3618 -4.04808 0
M  V30 14268 O 1320.39 -4.09525 -3.9532 0
M  V30 14269 N 1321.59 -2.63958 -5.17017 0
M  V30 14270 H 1324.36 -2.7868 -1.1026 0
M  V30 14271 H 1321.92 -1.55289 -0.457914 0
M  V30 14272 H 1323.91 -2.01103 -3.51197 0
M  V30 14273 H 1322.48 -1.13346 -2.91327 0
M  V30 14274 H 1321.7 -3.42534 -1.951 0
M  V30 14275 H 1322.99 -4.17109 -2.91371 0
M  V30 14276 H 1322.39 -2.04062 -5.27613 0
M  V30 14277 H 1320.94 -2.70558 -5.92994 0
M  V30 14278 N 1324.38 0.532545 -1.4833 0
M  V30 14279 C 1325.31 1.65325 -1.58746 0
M  V30 14280 C 1326.32 1.5581 -0.471925 0
M  V30 14281 O 1327.51 1.62317 -0.742656 0
M  V30 14282 C 1324.61 3.03957 -1.49877 0
M  V30 14283 C 1323.78 3.38979 -2.76427 0
M  V30 14284 C 1322.84 4.56881 -2.61048 0
M  V30 14285 O 1321.87 4.6023 -3.34928 0
M  V30 14286 N 1323.07 5.54898 -1.70496 0
M  V30 14287 H 1325.84 1.56827 -2.55393 0
M  V30 14288 H 1323.4 0.71976 -1.45021 0
M  V30 14289 H 1325.39 3.80702 -1.37288 0
M  V30 14290 H 1323.96 3.06548 -0.612158 0
M  V30 14291 H 1323.18 2.51438 -3.03599 0
M  V30 14292 H 1324.47 3.59163 -3.60388 0
M  V30 14293 H 1323.87 5.54968 -1.0967 0
M  V30 14294 H 1322.42 6.3087 -1.63847 0
M  V30 14295 N 1325.86 1.36875 0.78122 0
M  V30 14296 C 1326.79 1.34559 1.9083 0
M  V30 14297 C 1327.77 0.215713 1.68727 0
M  V30 14298 O 1328.95 0.41462 1.89722 0
M  V30 14299 C 1326.08 1.14233 3.27976 0
M  V30 14300 C 1325.04 2.24132 3.64621 0
M  V30 14301 C 1324.36 1.8894 5.00206 0
M  V30 14302 C 1325.66 3.66266 3.72353 0
M  V30 14303 H 1327.36 2.28871 1.93025 0
M  V30 14304 H 1324.9 1.10171 0.927275 0
M  V30 14305 H 1326.85 1.11246 4.06451 0
M  V30 14306 H 1325.58 0.163747 3.26189 0
M  V30 14307 H 1324.24 2.26259 2.88448 0
M  V30 14308 H 1323.89 0.896351 4.94949 0
M  V30 14309 H 1323.59 2.62525 5.25694 0
M  V30 14310 H 1325.11 1.87523 5.81092 0
M  V30 14311 H 1326.52 3.66321 4.41001 0
M  V30 14312 H 1324.92 4.38825 4.09332 0
M  V30 14313 H 1325.99 4.00578 2.7325 0
M  V30 14314 N 1327.33 -1.00632 1.21289 0
M  V30 14315 C 1328.58 -1.74044 1.02728 0
M  V30 14316 C 1328.9 -1.89963 -0.440351 0
M  V30 14317 O 1328.17 -1.44958 -1.31772 0
M  V30 14318 H 1326.75 -0.644813 0.377127 0
M  V30 14319 H 1329.41 -1.21272 1.52575 0
M  V30 14320 H 1328.51 -2.74011 1.49413 0
M  V30 14321 N 1328.81 -1.02043 -1.20104 0
M  V30 14322 C 1330.06 -0.713027 -1.89852 0
M  V30 14323 C 1330.39 0.755767 -1.7889 0
M  V30 14324 O 1329.67 1.54948 -1.17564 0
M  V30 14325 C 1329.95 -1.15417 -3.41103 0
M  V30 14326 C 1329.8 -2.68355 -3.60979 0
M  V30 14327 C 1331.12 -0.728389 -4.34031 0
M  V30 14328 H 1328.24 -0.260502 -0.689426 0
M  V30 14329 H 1330.88 -1.26885 -1.41422 0
M  V30 14330 H 1329.03 -0.68127 -3.8248 0
M  V30 14331 H 1330.7 -3.23526 -3.28829 0
M  V30 14332 H 1328.95 -3.09148 -3.04319 0
M  V30 14333 H 1329.62 -2.94276 -4.67018 0
M  V30 14334 H 1332.09 -1.13499 -4.00321 0
M  V30 14335 H 1330.97 -1.06504 -5.38468 0
M  V30 14336 H 1331.23 0.369736 -4.40551 0
M  V30 14337 N 1330.29 1.35952 -0.797165 0
M  V30 14338 C 1331.2 2.33726 -0.202271 0
M  V30 14339 C 1332.22 1.61415 0.649719 0
M  V30 14340 O 1333.39 1.93351 0.563686 0
M  V30 14341 C 1330.46 3.40612 0.64685 0
M  V30 14342 C 1329.52 4.28712 -0.224536 0
M  V30 14343 C 1328.75 5.30493 0.584153 0
M  V30 14344 O 1328.97 5.40599 1.81957 0
M  V30 14345 O 1327.91 6.01897 -0.0200239 0
M  V30 14346 H 1331.73 2.86383 -1.01087 0
M  V30 14347 H 1329.32 1.38557 -0.558768 0
M  V30 14348 H 1331.2 4.05944 1.1308 0
M  V30 14349 H 1329.88 2.90243 1.43321 0
M  V30 14350 H 1328.78 3.66394 -0.755415 0
M  V30 14351 H 1330.12 4.82454 -0.974603 0
M  V30 14352 N 1331.77 0.549846 1.47697 0
M  V30 14353 C 1333.01 0.0230845 2.02787 0
M  V30 14354 C 1333.35 -1.32035 1.42409 0
M  V30 14355 O 1332.62 -1.85745 0.576978 0
M  V30 14356 C 1332.91 -0.0778363 3.60016 0
M  V30 14357 C 1332.76 1.29217 4.3084 0
M  V30 14358 C 1334.08 -0.794909 4.32862 0
M  V30 14359 H 1331.2 0.00986307 0.736934 0
M  V30 14360 H 1333.84 0.710714 1.76207 0
M  V30 14361 H 1331.99 -0.663464 3.82793 0
M  V30 14362 H 1333.66 1.92044 4.19424 0
M  V30 14363 H 1331.9 1.86883 3.91481 0
M  V30 14364 H 1332.57 1.17435 5.39364 0
M  V30 14365 H 1335.05 -0.297743 4.15033 0
M  V30 14366 H 1333.93 -0.834466 5.4252 0
M  V30 14367 H 1334.19 -1.84948 4.01555 0
M  V30 14368 N 1333.25 -1.54984 0.285932 0
M  V30 14369 C 1334.66 -1.85519 -0.209707 0
M  V30 14370 C 1335.01 -1.20794 -1.54606 0
M  V30 14371 O 1334.13 -0.500159 -2.10541 0
M  V30 14372 C 1334.73 -3.36579 -0.387283 0
M  V30 14373 C 1333.29 -3.67199 -0.827148 0
M  V30 14374 C 1332.43 -2.77203 0.073308 0
M  V30 14375 H 1335.39 -1.5037 0.507404 0
M  V30 14376 H 1335.41 -3.60269 -1.2242 0
M  V30 14377 H 1334.92 -3.83658 0.585493 0
M  V30 14378 H 1333.02 -3.25627 -1.81101 0
M  V30 14379 H 1333.13 -4.74574 -0.656976 0
M  V30 14380 H 1331.5 -2.50785 -0.444859 0
M  V30 14381 H 1332.28 -3.27099 1.04216 0
M  V30 14382 N 1334.72 -0.0133892 -1.57594 0
M  V30 14383 C 1335.63 0.989701 -2.12702 0
M  V30 14384 C 1336.65 1.36785 -1.07545 0
M  V30 14385 O 1337.83 1.45246 -1.39519 0
M  V30 14386 C 1334.89 2.2586 -2.63036 0
M  V30 14387 C 1333.95 1.94234 -3.82847 0
M  V30 14388 C 1333.19 3.15075 -4.30771 0
M  V30 14389 O 1333.41 4.27212 -3.7795 0
M  V30 14390 O 1332.34 2.98291 -5.22787 0
M  V30 14391 H 1336.17 0.551194 -2.98656 0
M  V30 14392 H 1333.75 0.206264 -1.47969 0
M  V30 14393 H 1335.64 3.0038 -2.9555 0
M  V30 14394 H 1334.31 2.68923 -1.80173 0
M  V30 14395 H 1333.22 1.17148 -3.55285 0
M  V30 14396 H 1334.55 1.55999 -4.66824 0
M  V30 14397 N 1336.2 1.55448 0.259558 0
M  V30 14398 C 1337.17 1.88459 1.30445 0
M  V30 14399 C 1338.17 0.760096 1.41701 0
M  V30 14400 O 1339.36 1.02819 1.4062 0
M  V30 14401 C 1336.49 2.10181 2.68397 0
M  V30 14402 H 1337.68 2.81877 1.02398 0
M  V30 14403 H 1335.23 1.48145 0.498262 0
M  V30 14404 H 1335.97 1.19189 3.01603 0
M  V30 14405 H 1335.75 2.92066 2.6161 0
M  V30 14406 H 1337.24 2.36947 3.43869 0
M  V30 14407 N 1337.68 -0.524672 1.4861 0
M  V30 14408 C 1338.63 -1.62504 1.59927 0
M  V30 14409 C 1339.61 -1.543 0.456094 0
M  V30 14410 O 1340.81 -1.62231 0.707818 0
M  V30 14411 C 1337.94 -3.01207 1.64709 0
M  V30 14412 C 1337.02 -3.14495 2.84523 0
M  V30 14413 N 1337.41 -2.97741 4.08882 0
M  V30 14414 C 1335.71 -3.45559 2.81967 0
M  V30 14415 C 1336.41 -3.14585 4.89297 0
M  V30 14416 N 1335.39 -3.424 4.22212 0
M  V30 14417 H 1339.19 -1.48168 2.53818 0
M  V30 14418 H 1336.7 -0.730258 1.45055 0
M  V30 14419 H 1338.7 -3.80257 1.7091 0
M  V30 14420 H 1337.36 -3.16631 0.719376 0
M  V30 14421 H 1338.37 -2.74395 4.39235 0
M  V30 14422 H 1335.05 -3.67307 1.98474 0
M  V30 14423 H 1336.44 -3.06324 5.98009 0
M  V30 14424 N 1339.16 -1.37287 -0.77395 0
M  V30 14425 C 1340.09 -1.28746 -1.89624 0
M  V30 14426 C 1341.1 -0.203715 -1.6152 0
M  V30 14427 O 1342.29 -0.459684 -1.72479 0
M  V30 14428 C 1339.39 -0.967342 -3.24801 0
M  V30 14429 C 1338.57 -2.1561 -3.80567 0
M  V30 14430 C 1337.62 -1.80661 -4.94215 0
M  V30 14431 O 1336.65 -2.5293 -5.09917 0
M  V30 14432 N 1337.85 -0.749424 -5.75642 0
M  V30 14433 H 1340.62 -2.25447 -1.97468 0
M  V30 14434 H 1338.18 -1.30883 -0.952956 0
M  V30 14435 H 1340.17 -0.714421 -3.98344 0
M  V30 14436 H 1338.74 -0.0889573 -3.12473 0
M  V30 14437 H 1337.96 -2.57091 -2.98828 0
M  V30 14438 H 1339.25 -2.94993 -4.14556 0
M  V30 14439 H 1338.65 -0.149673 -5.65502 0
M  V30 14440 H 1337.2 -0.556358 -6.49421 0
M  V30 14441 N 1340.64 0.999871 -1.21821 0
M  V30 14442 C 1341.57 2.10708 -1.00621 0
M  V30 14443 C 1342.55 1.69954 0.0705417 0
M  V30 14444 O 1343.73 1.9399 -0.0903042 0
M  V30 14445 C 1340.86 3.42496 -0.575646 0
M  V30 14446 C 1339.82 3.97068 -1.59754 0
M  V30 14447 C 1339.14 5.24822 -1.02304 0
M  V30 14448 C 1340.44 4.28545 -2.98574 0
M  V30 14449 H 1342.14 2.28701 -1.93226 0
M  V30 14450 H 1339.68 1.09903 -0.930443 0
M  V30 14451 H 1341.64 4.19357 -0.414481 0
M  V30 14452 H 1340.36 3.2431 0.386059 0
M  V30 14453 H 1339.02 3.22332 -1.74636 0
M  V30 14454 H 1338.67 5.02972 -0.0529016 0
M  V30 14455 H 1338.37 5.62299 -1.70567 0
M  V30 14456 H 1339.89 6.04322 -0.873312 0
M  V30 14457 H 1341.3 4.96229 -2.87106 0
M  V30 14458 H 1339.7 4.77178 -3.63897 0
M  V30 14459 H 1340.77 3.36607 -3.49032 0
M  V30 14460 N 1342.11 1.02678 1.19562 0
M  V30 14461 C 1343.05 0.563882 2.22155 0
M  V30 14462 C 1344.06 -0.359132 1.58789 0
M  V30 14463 O 1345.25 -0.155857 1.77818 0
M  V30 14464 C 1342.35 -0.197894 3.38322 0
M  V30 14465 C 1341.52 0.729542 4.31273 0
M  V30 14466 C 1340.58 0.013543 5.26198 0
M  V30 14467 O 1339.61 0.639417 5.65597 0
M  V30 14468 N 1340.81 -1.25791 5.66707 0
M  V30 14469 H 1343.57 1.44623 2.62496 0
M  V30 14470 H 1341.13 0.90555 1.34207 0
M  V30 14471 H 1343.13 -0.686381 3.98837 0
M  V30 14472 H 1341.7 -0.981632 2.96787 0
M  V30 14473 H 1340.92 1.39816 3.68572 0
M  V30 14474 H 1342.2 1.35994 4.90289 0
M  V30 14475 H 1341.6 -1.78716 5.36728 0
M  V30 14476 H 1340.16 -1.69093 6.29485 0
M  V30 14477 N 1343.59 -1.35528 0.804364 0
M  V30 14478 C 1344.52 -2.28562 0.170893 0
M  V30 14479 C 1345.54 -1.50178 -0.628526 0
M  V30 14480 O 1346.73 -1.72438 -0.461252 0
M  V30 14481 C 1343.83 -3.29792 -0.780434 0
M  V30 14482 C 1343 -4.37391 -0.0278619 0
M  V30 14483 C 1342.06 -5.18492 -0.897341 0
M  V30 14484 O 1341.08 -5.68128 -0.349098 0
M  V30 14485 N 1342.29 -5.36385 -2.21971 0
M  V30 14486 H 1345.05 -2.83565 0.970108 0
M  V30 14487 H 1342.61 -1.47854 0.659617 0
M  V30 14488 H 1344.6 -3.80939 -1.36628 0
M  V30 14489 H 1343.17 -2.7532 -1.48046 0
M  V30 14490 H 1342.39 -3.87208 0.739178 0
M  V30 14491 H 1343.68 -5.06426 0.490889 0
M  V30 14492 H 1343.08 -4.97699 -2.6891 0
M  V30 14493 H 1341.64 -5.90721 -2.75485 0
M  V30 14494 N 1345.07 -0.557671 -1.47404 0
M  V30 14495 C 1346 0.227253 -2.28071 0
M  V30 14496 C 1347.02 0.878951 -1.37034 0
M  V30 14497 O 1348.21 0.752725 -1.61853 0
M  V30 14498 C 1345.31 1.33942 -3.11308 0
M  V30 14499 C 1344.48 0.784425 -4.30309 0
M  V30 14500 C 1343.54 1.78114 -4.95138 0
M  V30 14501 O 1342.56 1.32708 -5.53514 0
M  V30 14502 N 1343.77 3.11453 -4.89875 0
M  V30 14503 H 1346.53 -0.464709 -2.96075 0
M  V30 14504 H 1344.09 -0.393777 -1.57038 0
M  V30 14505 H 1346.08 2.00495 -3.51545 0
M  V30 14506 H 1344.65 1.93461 -2.45543 0
M  V30 14507 H 1343.87 -0.0578917 -3.94157 0
M  V30 14508 H 1345.16 0.39298 -5.0728 0
M  V30 14509 H 1344.56 3.50987 -4.43649 0
M  V30 14510 H 1343.12 3.73563 -5.34129 0
M  V30 14511 N 1346.55 1.54831 -0.294147 0
M  V30 14512 C 1347.8 2.00298 0.317605 0
M  V30 14513 C 1348.13 1.18228 1.54064 0
M  V30 14514 O 1347.4 0.257034 1.92794 0
M  V30 14515 C 1347.69 3.53602 0.680991 0
M  V30 14516 C 1347.54 4.46416 -0.550711 0
M  V30 14517 C 1348.86 4.13379 1.51016 0
M  V30 14518 H 1345.98 0.728135 0.113965 0
M  V30 14519 H 1348.62 1.85636 -0.404883 0
M  V30 14520 H 1346.77 3.66227 1.29654 0
M  V30 14521 H 1348.44 4.45707 -1.18922 0
M  V30 14522 H 1346.68 4.17294 -1.18524 0
M  V30 14523 H 1347.36 5.51423 -0.252412 0
M  V30 14524 H 1349.83 4.04148 0.99012 0
M  V30 14525 H 1348.71 5.20818 1.73321 0
M  V30 14526 H 1348.97 3.64817 2.49722 0
M  V30 14527 N 1348.03 0.0217466 1.57585 0
M  V30 14528 C 1348.94 -0.978407 2.13224 0
M  V30 14529 C 1349.95 -1.36212 1.08269 0
M  V30 14530 O 1351.13 -1.44504 1.40288 0
M  V30 14531 C 1348.19 -2.24462 2.6423 0
M  V30 14532 C 1347.26 -1.92201 3.83871 0
M  V30 14533 C 1346.49 -3.12786 4.32436 0
M  V30 14534 O 1346.71 -4.25201 3.8021 0
M  V30 14535 O 1345.65 -2.95514 5.24362 0
M  V30 14536 H 1349.47 -0.535347 2.98944 0
M  V30 14537 H 1347.06 -0.198414 1.48077 0
M  V30 14538 H 1348.94 -2.98809 2.97138 0
M  V30 14539 H 1347.61 -2.67964 1.81596 0
M  V30 14540 H 1346.52 -1.15262 3.55901 0
M  V30 14541 H 1347.85 -1.53521 4.67645 0
M  V30 14542 N 1349.51 -1.55583 -0.251311 0
M  V30 14543 C 1350.44 -1.86388 -1.33387 0
M  V30 14544 C 1351.45 -0.749829 -1.44504 0
M  V30 14545 O 1352.64 -1.0279 -1.45933 0
M  V30 14546 C 1349.74 -2.0311 -2.71293 0
M  V30 14547 C 1348.91 -3.33937 -2.82498 0
M  V30 14548 C 1347.97 -3.40455 -4.01219 0
M  V30 14549 O 1347 -4.13695 -3.90954 0
M  V30 14550 N 1348.2 -2.69427 -5.14188 0
M  V30 14551 H 1350.96 -2.79834 -1.07298 0
M  V30 14552 H 1348.53 -1.55766 -0.441418 0
M  V30 14553 H 1350.52 -2.04817 -3.49045 0
M  V30 14554 H 1349.09 -1.16429 -2.90109 0
M  V30 14555 H 1348.31 -3.44584 -1.91456 0
M  V30 14556 H 1349.6 -4.20176 -2.86931 0
M  V30 14557 H 1348.99 -2.09647 -5.25419 0
M  V30 14558 H 1347.55 -2.76832 -5.90091 0
M  V30 14559 N 1350.98 0.516783 -1.48886 0
M  V30 14560 C 1351.95 1.60226 -1.63891 0
M  V30 14561 C 1352.95 1.52448 -0.511479 0
M  V30 14562 O 1354.14 1.55882 -0.777582 0
M  V30 14563 C 1351.27 2.99867 -1.62151 0
M  V30 14564 H 1352.46 1.48256 -2.60692 0
M  V30 14565 H 1350.01 0.739844 -1.37681 0
M  V30 14566 H 1350.75 3.1733 -0.668764 0
M  V30 14567 H 1350.53 3.0692 -2.44013 0
M  V30 14568 H 1352.02 3.7876 -1.7587 0
M  V30 14569 N 1352.46 1.37696 0.766659 0
M  V30 14570 C 1353.39 1.2975 1.88938 0
M  V30 14571 C 1354.41 0.212278 1.6141 0
M  V30 14572 O 1355.6 0.468825 1.72233 0
M  V30 14573 C 1352.7 0.984553 3.24283 0
M  V30 14574 C 1351.87 2.17625 3.79418 0
M  V30 14575 C 1350.93 1.83279 4.9325 0
M  V30 14576 O 1349.95 2.55631 5.08568 0
M  V30 14577 N 1351.16 0.779941 5.75237 0
M  V30 14578 H 1353.92 2.26492 1.96269 0
M  V30 14579 H 1351.48 1.31387 0.946001 0
M  V30 14580 H 1353.47 0.735536 3.9796 0
M  V30 14581 H 1352.04 0.105527 3.12422 0
M  V30 14582 H 1351.26 2.58672 2.9746 0
M  V30 14583 H 1352.55 2.97187 4.12986 0
M  V30 14584 H 1351.95 0.179661 5.65415 0
M  V30 14585 H 1350.51 0.59079 6.49117 0
M  V30 14586 N 1353.94 -0.993397 1.22349 0
M  V30 14587 C 1355.19 -1.73635 1.05936 0
M  V30 14588 C 1355.54 -1.88166 -0.401414 0
M  V30 14589 O 1354.83 -1.41338 -1.2936 0
M  V30 14590 C 1355.03 -3.14191 1.70349 0
M  V30 14591 C 1354.86 -3.13367 3.22539 0
M  V30 14592 C 1353.63 -3.19289 3.91641 0
M  V30 14593 C 1355.82 -2.97559 4.1948 0
M  V30 14594 N 1353.81 -3.08213 5.30922 0
M  V30 14595 C 1355.18 -2.94506 5.45588 0
M  V30 14596 C 1357.23 -2.81947 4.10378 0
M  V30 14597 C 1355.94 -2.7744 6.63641 0
M  V30 14598 C 1357.96 -2.66241 5.28081 0
M  V30 14599 C 1357.32 -2.63875 6.53107 0
M  V30 14600 H 1353.42 -0.64505 0.44208 0
M  V30 14601 H 1356.01 -1.17981 1.54882 0
M  V30 14602 H 1354.18 -3.6809 1.23954 0
M  V30 14603 H 1355.91 -3.77046 1.47032 0
M  V30 14604 H 1352.66 -3.26951 3.42637 0
M  V30 14605 H 1353.09 -3.05986 6.03905 0
M  V30 14606 H 1357.73 -2.82574 3.14502 0
M  V30 14607 H 1355.45 -2.75558 7.59666 0
M  V30 14608 H 1359.03 -2.55144 5.2287 0
M  V30 14609 H 1357.91 -2.5187 7.42652 0
M  V30 14610 N 1355.42 -1.03311 -1.19015 0
M  V30 14611 C 1356.35 -0.638279 -2.24607 0
M  V30 14612 C 1357.33 0.354795 -1.66359 0
M  V30 14613 O 1358.51 0.236574 -1.92754 0
M  V30 14614 C 1355.64 0.00737316 -3.47299 0
M  V30 14615 C 1354.6 -0.908431 -4.18248 0
M  V30 14616 C 1353.92 -0.127658 -5.34548 0
M  V30 14617 C 1355.22 -2.2241 -4.72579 0
M  V30 14618 H 1356.92 -1.52099 -2.57888 0
M  V30 14619 H 1354.46 -0.732779 -1.23961 0
M  V30 14620 H 1356.42 0.295256 -4.20364 0
M  V30 14621 H 1355.14 0.924912 -3.1323 0
M  V30 14622 H 1353.8 -1.18058 -3.47071 0
M  V30 14623 H 1353.45 0.792048 -4.96725 0
M  V30 14624 H 1353.15 -0.737702 -5.82951 0
M  V30 14625 H 1354.67 0.153385 -6.10407 0
M  V30 14626 H 1356.09 -1.99745 -5.37378 0
M  V30 14627 H 1354.48 -2.78644 -5.31486 0
M  V30 14628 H 1355.55 -2.87584 -3.90415 0
M  V30 14629 N 1356.9 1.35099 -0.81154 0
M  V30 14630 C 1358.17 1.93009 -0.317289 0
M  V30 14631 C 1358.55 1.74101 1.19382 0
M  V30 14632 O 1357.9 1.11295 1.99564 0
M  V30 14633 C 1358.11 3.41191 -0.734123 0
M  V30 14634 C 1359.46 4.1834 -0.726437 0
M  V30 14635 O 1360.48 3.49727 -0.67598 0
M  V30 14636 O 1359.34 5.4077 -0.789291 0
M  V30 14637 H 1356.44 0.822707 -0.084153 0
M  V30 14638 H 1358.98 1.44145 -0.895569 0
M  V30 14639 H 1357.75 3.48705 -1.7754 0
M  V30 14640 H 1357.38 3.97384 -0.130919 0
M  V30 14641 N 1358.37 0.56548 1.47106 0
M  V30 14642 C 1359.28 -0.180488 2.33905 0
M  V30 14643 C 1360.3 -0.90355 1.48701 0
M  V30 14644 O 1361.48 -0.870595 1.81611 0
M  V30 14645 C 1358.54 -1.19212 3.2556 0
M  V30 14646 C 1357.6 -0.475589 4.26658 0
M  V30 14647 C 1356.83 -1.43902 5.13934 0
M  V30 14648 O 1357.06 -2.67443 5.03816 0
M  V30 14649 O 1355.99 -0.958998 5.94211 0
M  V30 14650 H 1359.82 0.531726 2.99009 0
M  V30 14651 H 1357.4 0.32602 1.45799 0
M  V30 14652 H 1359.28 -1.77586 3.82153 0
M  V30 14653 H 1357.96 -1.8861 2.63074 0
M  V30 14654 H 1356.87 0.149561 3.73801 0
M  V30 14655 H 1358.2 0.177103 4.91881 0
M  V30 14656 N 1359.85 -1.54672 0.302354 0
M  V30 14657 C 1361.1 -2.00463 -0.306978 0
M  V30 14658 C 1361.43 -1.19043 -1.53435 0
M  V30 14659 O 1360.71 -0.267255 -1.92655 0
M  V30 14660 C 1360.99 -3.53958 -0.662229 0
M  V30 14661 C 1360.84 -4.46118 0.574378 0
M  V30 14662 C 1362.16 -4.14174 -1.48821 0
M  V30 14663 H 1359.28 -0.728729 -0.110102 0
M  V30 14664 H 1361.92 -1.85419 0.414722 0
M  V30 14665 H 1360.07 -3.66909 -1.2771 0
M  V30 14666 H 1361.74 -4.45071 1.21284 0
M  V30 14667 H 1359.99 -4.1666 1.20736 0
M  V30 14668 H 1360.66 -5.51281 0.281651 0
M  V30 14669 H 1363.13 -4.04668 -0.968674 0
M  V30 14670 H 1362.01 -5.2173 -1.70556 0
M  V30 14671 H 1362.27 -3.66136 -2.47784 0
M  V30 14672 N 1361.33 -0.0301034 -1.57571 0
M  V30 14673 C 1362.28 0.951421 -2.10277 0
M  V30 14674 C 1363.25 1.3224 -1.00508 0
M  V30 14675 O 1364.43 1.41554 -1.27934 0
M  V30 14676 C 1361.57 2.2282 -2.63525 0
M  V30 14677 C 1360.69 1.91359 -3.87306 0
M  V30 14678 C 1359.82 3.13339 -4.28943 0
M  V30 14679 C 1358.86 2.77701 -5.4548 0
M  V30 14680 N 1358 3.9231 -5.82269 0
M  V30 14681 H 1362.84 0.495049 -2.93859 0
M  V30 14682 H 1360.37 0.232756 -1.45247 0
M  V30 14683 H 1362.33 2.97502 -2.92487 0
M  V30 14684 H 1360.96 2.66072 -1.82772 0
M  V30 14685 H 1360.01 1.06915 -3.65066 0
M  V30 14686 H 1361.33 1.61112 -4.72064 0
M  V30 14687 H 1360.48 3.9634 -4.59347 0
M  V30 14688 H 1359.22 3.46747 -3.42954 0
M  V30 14689 H 1358.22 1.93113 -5.14769 0
M  V30 14690 H 1359.45 2.45508 -6.33169 0
M  V30 14691 H 1357.39 4.25559 -4.99235 0
M  V30 14692 H 1357.31 3.65691 -6.61669 0
M  V30 14693 H 1358.58 4.76012 -6.17279 0
M  V30 14694 N 1362.81 1.55714 0.243056 0
M  V30 14695 C 1363.74 1.87093 1.32396 0
M  V30 14696 C 1364.75 0.757482 1.44104 0
M  V30 14697 O 1365.94 1.03563 1.45386 0
M  V30 14698 C 1363.04 2.04546 2.70212 0
M  V30 14699 C 1362.22 3.3543 2.80723 0
M  V30 14700 C 1361.27 3.42578 3.99408 0
M  V30 14701 O 1360.3 4.15762 3.88755 0
M  V30 14702 N 1361.5 2.7215 5.12752 0
M  V30 14703 H 1364.27 2.80399 1.05813 0
M  V30 14704 H 1361.83 1.55998 0.433151 0
M  V30 14705 H 1363.82 2.06665 3.47954 0
M  V30 14706 H 1362.39 1.17966 2.89487 0
M  V30 14707 H 1361.61 3.45594 1.89626 0
M  V30 14708 H 1362.9 4.21692 2.84698 0
M  V30 14709 H 1362.3 2.1243 5.24299 0
M  V30 14710 H 1360.85 2.79957 5.88615 0
M  V30 14711 N 1364.29 -0.50888 1.49158 0
M  V30 14712 C 1365.25 -1.59354 1.64739 0
M  V30 14713 C 1366.25 -1.52175 0.519557 0
M  V30 14714 O 1367.44 -1.55468 0.785838 0
M  V30 14715 C 1364.57 -2.99002 1.63739 0
M  V30 14716 H 1365.76 -1.46871 2.61474 0
M  V30 14717 H 1363.32 -0.732532 1.38071 0
M  V30 14718 H 1364.05 -3.1697 0.685583 0
M  V30 14719 H 1363.84 -3.05622 2.45637 0
M  V30 14720 H 1365.33 -3.77822 1.77877 0
M  V30 14721 N 1365.76 -1.381 -0.759346 0
M  V30 14722 C 1366.69 -1.37578 -1.88665 0
M  V30 14723 C 1367.68 -0.242529 -1.68362 0
M  V30 14724 O 1368.86 -0.444751 -1.89039 0
M  V30 14725 C 1365.99 -1.19437 -3.26117 0
M  V30 14726 C 1364.94 -2.29905 -3.61009 0
M  V30 14727 C 1364.27 -1.96874 -4.97136 0
M  V30 14728 C 1365.57 -3.72143 -3.66479 0
M  V30 14729 H 1367.26 -2.31912 -1.89359 0
M  V30 14730 H 1364.81 -1.11632 -0.909631 0
M  V30 14731 H 1366.76 -1.17698 -4.0463 0
M  V30 14732 H 1365.49 -0.21562 -3.25887 0
M  V30 14733 H 1364.15 -2.3082 -2.84812 0
M  V30 14734 H 1363.79 -0.974979 -4.9346 0
M  V30 14735 H 1363.49 -2.70855 -5.21451 0
M  V30 14736 H 1365.02 -1.96744 -5.78035 0
M  V30 14737 H 1366.43 -3.73291 -4.35117 0
M  V30 14738 H 1364.83 -4.45282 -4.02299 0
M  V30 14739 H 1365.9 -4.04874 -2.66843 0
M  V30 14740 N 1367.24 0.986894 -1.22875 0
M  V30 14741 C 1368.21 2.0597 -1.00544 0
M  V30 14742 C 1369.21 1.60771 0.0303509 0
M  V30 14743 O 1370.4 1.72945 -0.208753 0
M  V30 14744 C 1367.53 3.36911 -0.519962 0
M  V30 14745 H 1368.72 2.27213 -1.9574 0
M  V30 14746 H 1366.27 1.15935 -1.04827 0
M  V30 14747 H 1367.01 3.21355 0.436078 0
M  V30 14748 H 1366.79 3.71054 -1.26732 0
M  V30 14749 H 1368.28 4.15829 -0.384166 0
M  V30 14750 N 1368.72 1.0394 1.18466 0
M  V30 14751 C 1370.13 0.77011 1.70077 0
M  V30 14752 C 1370.48 -0.70916 1.82935 0
M  V30 14753 O 1369.61 -1.55209 1.50795 0
M  V30 14754 C 1370.2 1.39132 3.08914 0
M  V30 14755 C 1368.76 1.17037 3.57742 0
M  V30 14756 C 1367.91 1.48279 2.34326 0
M  V30 14757 H 1370.86 1.20598 1.03159 0
M  V30 14758 H 1370.88 0.793861 3.72126 0
M  V30 14759 H 1370.39 2.46795 2.99523 0
M  V30 14760 H 1368.49 0.112435 3.7243 0
M  V30 14761 H 1368.61 1.8665 4.41247 0
M  V30 14762 H 1366.97 0.902438 2.38177 0
M  V30 14763 H 1367.75 2.57047 2.27556 0
M  V30 14764 N 1370.2 -1.34667 0.818693 0
M  V30 14765 C 1371.42 -2.03173 0.416585 0
M  V30 14766 C 1371.85 -1.61261 -0.968321 0
M  V30 14767 O 1371.21 -0.79517 -1.62932 0
M  V30 14768 C 1371.25 -3.56803 0.521884 0
M  V30 14769 O 1370.36 -4.09827 -0.459953 0
M  V30 14770 H 1369.7 -0.6413 0.172136 0
M  V30 14771 H 1372.23 -1.72006 1.10794 0
M  V30 14772 H 1372.24 -4.06073 0.3961 0
M  V30 14773 H 1370.91 -3.86656 1.53198 0
M  V30 14774 H 1369.49 -3.71744 -0.293405 0
M  V30 14775 N 1371.68 -0.573274 -1.46804 0
M  V30 14776 C 1372.64 0.155066 -2.28675 0
M  V30 14777 C 1373.64 0.827706 -1.37861 0
M  V30 14778 O 1374.83 0.681105 -1.60333 0
M  V30 14779 C 1371.96 1.22864 -3.1799 0
M  V30 14780 H 1373.15 -0.564305 -2.94543 0
M  V30 14781 H 1370.71 -0.330855 -1.52758 0
M  V30 14782 H 1371.44 1.97989 -2.56848 0
M  V30 14783 H 1371.23 0.750936 -3.84842 0
M  V30 14784 H 1372.72 1.73974 -3.79635 0
M  V30 14785 N 1373.15 1.5451 -0.310553 0
M  V30 14786 C 1374.1 2.2059 0.576555 0
M  V30 14787 C 1375.09 1.18205 1.09163 0
M  V30 14788 O 1376.28 1.43887 1.03081 0
M  V30 14789 C 1373.41 2.95741 1.74334 0
M  V30 14790 C 1372.5 4.05452 1.24378 0
M  V30 14791 N 1372.89 5.03677 0.462921 0
M  V30 14792 C 1371.18 4.19166 1.52367 0
M  V30 14793 C 1371.89 5.81371 0.195709 0
M  V30 14794 N 1370.86 5.38001 0.778203 0
M  V30 14795 H 1374.66 2.93887 -0.0274771 0
M  V30 14796 H 1372.18 1.61987 -0.115773 0
M  V30 14797 H 1374.17 3.41556 2.39051 0
M  V30 14798 H 1372.83 2.23962 2.35098 0
M  V30 14799 H 1373.85 5.1779 0.106943 0
M  V30 14800 H 1370.52 3.58597 2.1381 0
M  V30 14801 H 1371.91 6.70509 -0.432064 0
M  V30 14802 N 1374.63 0.0384594 1.57553 0
M  V30 14803 C 1376.05 -0.318006 1.564 0
M  V30 14804 C 1376.25 -1.72287 1.04496 0
M  V30 14805 O 1375.31 -2.42722 0.695861 0
M  V30 14806 C 1376.62 -0.158079 3.00284 0
M  V30 14807 C 1378.17 -0.230143 3.12153 0
M  V30 14808 C 1378.64 -0.0988948 4.57893 0
M  V30 14809 N 1380.13 -0.15558 4.62939 0
M  V30 14810 C 1380.87 -0.077948 5.73347 0
M  V30 14811 N 1380.36 0.0513054 6.92781 0
M  V30 14812 N 1382.16 -0.132612 5.61944 0
M  V30 14813 H 1374.31 0.957014 1.89618 0
M  V30 14814 H 1376.57 0.370396 0.872646 0
M  V30 14815 H 1376.28 0.810032 3.42245 0
M  V30 14816 H 1376.15 -0.924413 3.65697 0
M  V30 14817 H 1378.54 -1.18872 2.70099 0
M  V30 14818 H 1378.62 0.56673 2.49443 0
M  V30 14819 H 1378.26 0.856301 5.00629 0
M  V30 14820 H 1378.19 -0.91475 5.18594 0
M  V30 14821 H 1380.68 -0.255245 3.77037 0
M  V30 14822 H 1381 0.103595 7.72731 0
M  V30 14823 H 1379.34 0.0862166 6.94947 0
M  V30 14824 H 1382.53 -0.232056 4.67524 0
M  V30 14825 H 1382.71 -0.0686506 6.47964 0
M  V30 14826 N 1376.11 -1.55841 -0.234795 0
M  V30 14827 C 1377.36 -1.77886 -0.959217 0
M  V30 14828 C 1377.68 -0.604621 -1.8539 0
M  V30 14829 O 1376.95 0.379092 -1.92197 0
M  V30 14830 H 1375.53 -0.656077 -0.357172 0
M  V30 14831 H 1378.19 -1.93292 -0.249831 0
M  V30 14832 H 1377.29 -2.69512 -1.57383 0
M  V30 14833 N 1377.59 0.500963 -1.49426 0
M  V30 14834 C 1378.81 1.28383 -1.62888 0
M  V30 14835 C 1379.24 1.85688 -0.300262 0
M  V30 14836 O 1378.6 1.6586 0.73212 0
M  V30 14837 C 1378.65 2.38987 -2.70033 0
M  V30 14838 O 1377.75 3.42837 -2.29208 0
M  V30 14839 H 1377.09 0.379012 -0.545202 0
M  V30 14840 H 1379.62 0.59971 -1.95613 0
M  V30 14841 H 1379.63 2.84749 -2.92202 0
M  V30 14842 H 1378.31 1.96643 -3.66475 0
M  V30 14843 H 1376.88 3.02993 -2.1737 0
M  V30 14844 N 1379.07 1.38501 0.752011 0
M  V30 14845 C 1380 1.38577 1.87933 0
M  V30 14846 C 1380.98 0.251454 1.68231 0
M  V30 14847 O 1382.16 0.45477 1.888 0
M  V30 14848 C 1379.29 1.21164 3.25479 0
M  V30 14849 C 1378.25 2.31816 3.59785 0
M  V30 14850 C 1377.57 1.99508 4.96085 0
M  V30 14851 C 1378.87 3.74082 3.645 0
M  V30 14852 H 1380.57 2.32913 1.88127 0
M  V30 14853 H 1378.11 1.12113 0.903698 0
M  V30 14854 H 1380.07 1.19842 4.04 0
M  V30 14855 H 1378.79 0.232899 3.25769 0
M  V30 14856 H 1377.45 2.32327 2.83584 0
M  V30 14857 H 1377.1 1.00114 4.92936 0
M  V30 14858 H 1376.8 2.73617 5.20007 0
M  V30 14859 H 1378.32 1.99807 5.76983 0
M  V30 14860 H 1379.74 3.75593 4.33131 0
M  V30 14861 H 1378.13 4.47409 3.99931 0
M  V30 14862 H 1379.2 4.06284 2.64692 0
M  V30 14863 N 1380.55 -0.980364 1.23396 0
M  V30 14864 C 1381.79 -1.72421 1.06765 0
M  V30 14865 C 1382.12 -1.90151 -0.394515 0
M  V30 14866 O 1381.4 -1.4538 -1.29209 0
M  V30 14867 C 1381.68 -3.12246 1.79372 0
M  V30 14868 C 1381.54 -3.02087 3.33262 0
M  V30 14869 C 1382.85 -4.11667 1.55624 0
M  V30 14870 H 1379.97 -0.625822 0.389251 0
M  V30 14871 H 1382.62 -1.14132 1.51901 0
M  V30 14872 H 1380.77 -3.62008 1.41004 0
M  V30 14873 H 1382.44 -2.59848 3.81152 0
M  V30 14874 H 1380.68 -2.38592 3.62293 0
M  V30 14875 H 1381.35 -4.01087 3.79254 0
M  V30 14876 H 1383.83 -3.70712 1.88975 0
M  V30 14877 H 1382.7 -5.07593 2.08902 0
M  V30 14878 H 1382.96 -4.39358 0.491601 0
M  V30 14879 N 1382.02 -1.04567 -1.17913 0
M  V30 14880 C 1383.27 -0.747179 -1.8735 0
M  V30 14881 C 1383.59 0.728274 -1.81537 0
M  V30 14882 O 1384.79 1.14048 -2.46385 0
M  V30 14883 C 1383.25 -1.28629 -3.36129 0
M  V30 14884 C 1382.86 -2.79073 -3.5046 0
M  V30 14885 C 1384.6 -1.06455 -4.10935 0
M  V30 14886 C 1382.51 -3.26316 -4.93226 0
M  V30 14887 H 1381.44 -0.275807 -0.701745 0
M  V30 14888 H 1384.09 -1.26215 -1.33199 0
M  V30 14889 H 1382.47 -0.699151 -3.89779 0
M  V30 14890 H 1383.64 -3.43587 -3.07057 0
M  V30 14891 H 1381.96 -2.99716 -2.89066 0
M  V30 14892 H 1384.56 -1.3926 -5.16247 0
M  V30 14893 H 1384.9 -0.00201298 -4.163 0
M  V30 14894 H 1385.43 -1.61656 -3.63472 0
M  V30 14895 H 1382.17 -4.31972 -4.93032 0
M  V30 14896 H 1381.69 -2.6654 -5.37323 0
M  V30 14897 H 1383.37 -3.2063 -5.61966 0
M  V30 14898 N 1383.5 1.34231 -0.825823 0
M  V30 14899 C 1384.43 2.27366 -0.194964 0
M  V30 14900 C 1385.41 1.49029 0.650315 0
M  V30 14901 O 1386.6 1.7824 0.613424 0
M  V30 14902 C 1383.72 3.30796 0.727439 0
M  V30 14903 C 1382.77 4.26481 -0.0406869 0
M  V30 14904 S 1383.6 5.17151 -1.38981 0
M  V30 14905 C 1384.76 6.24115 -0.472354 0
M  V30 14906 H 1384.99 2.80524 -0.984559 0
M  V30 14907 H 1382.52 1.41323 -0.621875 0
M  V30 14908 H 1384.48 3.90875 1.25406 0
M  V30 14909 H 1383.14 2.76479 1.49058 0
M  V30 14910 H 1382.34 4.99651 0.660652 0
M  V30 14911 H 1381.94 3.7067 -0.497956 0
M  V30 14912 H 1384.23 6.76671 0.334956 0
M  V30 14913 H 1385.17 6.98303 -1.17383 0
M  V30 14914 H 1385.58 5.64469 -0.0594964 0
M  V30 14915 N 1384.98 0.581051 1.46498 0
M  V30 14916 C 1385.91 -0.19094 2.28403 0
M  V30 14917 C 1386.92 -0.857039 1.38415 0
M  V30 14918 O 1388.11 -0.726881 1.6303 0
M  V30 14919 C 1385.21 -1.28972 3.134 0
M  V30 14920 C 1384.39 -0.715867 4.31502 0
M  V30 14921 C 1383.45 -1.70215 4.97909 0
M  V30 14922 O 1382.47 -1.23885 5.55555 0
M  V30 14923 N 1383.67 -3.0362 4.94768 0
M  V30 14924 H 1386.44 0.511754 2.95298 0
M  V30 14925 H 1384 0.41871 1.56392 0
M  V30 14926 H 1385.99 -1.94877 3.5469 0
M  V30 14927 H 1384.56 -1.8953 2.4859 0
M  V30 14928 H 1383.78 0.120591 3.94016 0
M  V30 14929 H 1385.07 -0.312226 5.07841 0
M  V30 14930 H 1384.47 -3.43885 4.49177 0
M  V30 14931 H 1383.02 -3.65018 5.40005 0
M  V30 14932 N 1386.46 -1.54343 0.318742 0
M  V30 14933 C 1387.71 -2.00084 -0.284713 0
M  V30 14934 C 1388.03 -1.20855 -1.53033 0
M  V30 14935 O 1387.3 -0.309104 -1.93446 0
M  V30 14936 H 1385.88 -0.739123 -0.108193 0
M  V30 14937 H 1388.54 -1.90002 0.434174 0
M  V30 14938 H 1387.63 -3.07314 -0.544459 0
M  V30 14939 N 1387.94 -0.0468143 -1.5753 0
M  V30 14940 C 1388.87 0.927092 -2.14306 0
M  V30 14941 C 1389.85 1.32745 -1.06362 0
M  V30 14942 O 1391.03 1.40293 -1.34281 0
M  V30 14943 C 1388.16 2.20343 -2.68452 0
M  V30 14944 C 1387.12 1.94328 -3.81341 0
M  V30 14945 C 1386.44 3.28379 -4.21985 0
M  V30 14946 C 1387.74 1.26835 -5.06666 0
M  V30 14947 H 1389.44 0.454199 -2.95935 0
M  V30 14948 H 1386.98 0.217029 -1.42355 0
M  V30 14949 H 1388.93 2.8887 -3.0681 0
M  V30 14950 H 1387.66 2.6983 -1.84009 0
M  V30 14951 H 1386.32 1.28214 -3.43448 0
M  V30 14952 H 1385.97 3.75658 -3.34499 0
M  V30 14953 H 1385.67 3.11772 -4.98068 0
M  V30 14954 H 1387.19 3.98145 -4.6294 0
M  V30 14955 H 1388.6 1.85389 -5.42498 0
M  V30 14956 H 1387 1.20569 -5.87863 0
M  V30 14957 H 1388.07 0.243759 -4.84287 0
M  V30 14958 N 1389.41 1.55964 0.226527 0
M  V30 14959 C 1390.34 1.95028 1.284 0
M  V30 14960 C 1391.33 0.817833 1.49149 0
M  V30 14961 O 1392.51 1.07975 1.61416 0
M  V30 14962 C 1389.64 2.26266 2.63478 0
M  V30 14963 C 1388.59 3.41954 2.57393 0
M  V30 14964 C 1387.92 3.58786 3.96456 0
M  V30 14965 C 1389.22 4.77069 2.12608 0
M  V30 14966 H 1390.91 2.83608 0.959513 0
M  V30 14967 H 1388.46 1.36451 0.460125 0
M  V30 14968 H 1390.41 2.52186 3.3761 0
M  V30 14969 H 1389.14 1.34533 2.97604 0
M  V30 14970 H 1387.8 3.16076 1.85719 0
M  V30 14971 H 1387.44 2.64437 4.27881 0
M  V30 14972 H 1387.14 4.36595 3.93267 0
M  V30 14973 H 1388.67 3.87048 4.72256 0
M  V30 14974 H 1390.08 5.02226 2.76481 0
M  V30 14975 H 1388.48 5.58126 2.2049 0
M  V30 14976 H 1389.55 4.7276 1.07823 0
M  V30 14977 N 1390.89 -0.493031 1.4969 0
M  V30 14978 C 1392.14 -1.24849 1.59814 0
M  V30 14979 C 1392.47 -1.92059 0.287555 0
M  V30 14980 O 1391.75 -1.81099 -0.709471 0
M  V30 14981 C 1392.03 -2.30929 2.76304 0
M  V30 14982 C 1391.88 -1.68167 4.17181 0
M  V30 14983 C 1393.2 -3.32427 2.8841 0
M  V30 14984 H 1390.32 -0.452553 0.581691 0
M  V30 14985 H 1392.96 -0.545455 1.82002 0
M  V30 14986 H 1391.11 -2.9089 2.57517 0
M  V30 14987 H 1392.78 -1.11971 4.47504 0
M  V30 14988 H 1391.03 -0.985496 4.22458 0
M  V30 14989 H 1391.7 -2.45148 4.94577 0
M  V30 14990 H 1394.17 -2.82464 3.05537 0
M  V30 14991 H 1393.05 -4.04004 3.71581 0
M  V30 14992 H 1393.31 -3.95234 1.98097 0
M  V30 14993 N 1392.37 -1.38898 -0.744656 0
M  V30 14994 C 1393.3 -1.31228 -1.86693 0
M  V30 14995 C 1394.28 -0.187667 -1.61513 0
M  V30 14996 O 1395.47 -0.366497 -1.84903 0
M  V30 14997 C 1392.59 -1.03541 -3.22486 0
M  V30 14998 C 1391.64 -2.18061 -3.6654 0
M  V30 14999 S 1392.47 -3.80271 -3.77033 0
M  V30 15000 C 1393.63 -3.5479 -5.15631 0
M  V30 15001 H 1393.86 -2.26211 -1.92914 0
M  V30 15002 H 1391.39 -1.24839 -0.908544 0
M  V30 15003 H 1393.35 -0.882504 -4.00902 0
M  V30 15004 H 1392.01 -0.102611 -3.13932 0
M  V30 15005 H 1391.21 -1.94257 -4.65059 0
M  V30 15006 H 1390.81 -2.29505 -2.95302 0
M  V30 15007 H 1393.1 -3.11457 -6.01665 0
M  V30 15008 H 1394.04 -4.52735 -5.4446 0
M  V30 15009 H 1394.45 -2.89103 -4.8485 0
M  V30 15010 N 1393.85 0.973806 -1.23914 0
M  V30 15011 C 1395.1 1.71259 -1.07307 0
M  V30 15012 C 1395.42 1.91064 0.389831 0
M  V30 15013 O 1394.69 1.48401 1.27883 0
M  V30 15014 H 1393.27 0.634588 -0.39409 0
M  V30 15015 H 1395.93 1.17184 -1.55737 0
M  V30 15016 H 1395.03 2.69953 -1.56626 0
M  V30 15017 N 1395.33 1.05191 1.17357 0
M  V30 15018 C 1396.29 0.65713 2.19578 0
M  V30 15019 C 1397.29 -0.29138 1.58138 0
M  V30 15020 O 1398.48 -0.075254 1.74037 0
M  V30 15021 C 1395.61 -0.0348162 3.40882 0
M  V30 15022 H 1396.8 1.56188 2.56018 0
M  V30 15023 H 1394.36 0.845795 1.31438 0
M  V30 15024 H 1395.09 -0.952835 3.09986 0
M  V30 15025 H 1394.88 0.647076 3.86724 0
M  V30 15026 H 1396.37 -0.297135 4.16542 0
M  V30 15027 N 1396.8 -1.33791 0.83293 0
M  V30 15028 C 1397.75 -2.29332 0.25989 0
M  V30 15029 C 1398.72 -1.54056 -0.620965 0
M  V30 15030 O 1399.91 -1.82382 -0.560492 0
M  V30 15031 C 1397.05 -3.40461 -0.563964 0
M  V30 15032 C 1396.16 -4.30658 0.34025 0
M  V30 15033 C 1395.29 -5.28897 -0.494134 0
M  V30 15034 C 1394.33 -6.10733 0.408842 0
M  V30 15035 N 1393.47 -7.01032 -0.38706 0
M  V30 15036 H 1398.31 -2.77743 1.07996 0
M  V30 15037 H 1395.85 -1.3667 0.544043 0
M  V30 15038 H 1397.81 -4.03587 -1.05704 0
M  V30 15039 H 1396.44 -2.93258 -1.34905 0
M  V30 15040 H 1395.49 -3.68305 0.9516 0
M  V30 15041 H 1396.8 -4.87962 1.03415 0
M  V30 15042 H 1395.95 -5.97522 -1.05128 0
M  V30 15043 H 1394.69 -4.72155 -1.2215 0
M  V30 15044 H 1393.7 -5.41031 0.978046 0
M  V30 15045 H 1394.92 -6.69557 1.13448 0
M  V30 15046 H 1392.87 -6.46747 -1.09792 0
M  V30 15047 H 1392.79 -7.55592 0.248249 0
M  V30 15048 H 1394.05 -7.73973 -0.926631 0
M  V30 15049 N 1398.28 -0.588812 -1.46187 0
M  V30 15050 C 1399.53 -0.0744093 -2.01563 0
M  V30 15051 C 1399.84 1.29578 -1.46523 0
M  V30 15052 O 1401.05 1.90186 -1.93756 0
M  V30 15053 C 1399.51 -0.082408 -3.59806 0
M  V30 15054 C 1399.11 -1.45129 -4.23842 0
M  V30 15055 C 1400.86 0.377732 -4.22816 0
M  V30 15056 C 1398.77 -1.41668 -5.74181 0
M  V30 15057 H 1397.7 -0.0240481 -0.753616 0
M  V30 15058 H 1400.35 -0.741364 -1.67857 0
M  V30 15059 H 1398.73 0.650832 -3.90615 0
M  V30 15060 H 1399.9 -2.20474 -4.04633 0
M  V30 15061 H 1398.22 -1.85196 -3.7295 0
M  V30 15062 H 1400.81 0.42251 -5.33028 0
M  V30 15063 H 1401.16 1.39655 -3.92176 0
M  V30 15064 H 1401.69 -0.301638 -3.96655 0
M  V30 15065 H 1398.43 -2.4125 -6.09491 0
M  V30 15066 H 1397.95 -0.705524 -5.95636 0
M  V30 15067 H 1399.63 -1.13221 -6.37016 0
M  V30 15068 N 1399.76 1.54172 -0.326923 0
M  V30 15069 C 1400.72 2.2311 0.524855 0
M  V30 15070 C 1401.72 1.22567 1.04087 0
M  V30 15071 O 1402.91 1.47123 0.932759 0
M  V30 15072 C 1400.05 2.93778 1.72937 0
M  V30 15073 H 1401.24 2.99799 -0.0778327 0
M  V30 15074 H 1398.79 1.56105 -0.0780484 0
M  V30 15075 H 1399.53 2.21234 2.3712 0
M  V30 15076 H 1399.31 3.67509 1.36674 0
M  V30 15077 H 1400.8 3.46292 2.33392 0
M  V30 15078 N 1401.24 0.0551678 1.57503 0
M  V30 15079 C 1402.46 -0.630692 1.97578 0
M  V30 15080 C 1402.89 -1.63348 0.932686 0
M  V30 15081 O 1402.25 -1.81004 -0.103632 0
M  V30 15082 C 1402.29 -1.29049 3.36718 0
M  V30 15083 O 1401.4 -2.40621 3.34926 0
M  V30 15084 H 1400.74 -0.163625 0.643524 0
M  V30 15085 H 1403.27 0.124753 2.04219 0
M  V30 15086 H 1403.28 -1.64124 3.73534 0
M  V30 15087 H 1401.95 -0.55559 4.12172 0
M  V30 15088 H 1400.53 -2.07463 3.0986 0
M  V30 15089 N 1402.72 -1.56081 -0.218252 0
M  V30 15090 C 1403.94 -1.83681 -0.963119 0
M  V30 15091 C 1404.37 -0.635909 -1.77025 0
M  V30 15092 O 1403.72 0.415327 -1.76479 0
M  V30 15093 C 1403.77 -3.09302 -1.85376 0
M  V30 15094 O 1402.88 -2.88228 -2.94955 0
M  V30 15095 H 1402.22 -0.605495 -0.272529 0
M  V30 15096 H 1404.75 -2.03297 -0.230567 0
M  V30 15097 H 1404.76 -3.39493 -2.26294 0
M  V30 15098 H 1403.43 -3.96337 -1.26054 0
M  V30 15099 H 1402.01 -2.69279 -2.57959 0
M  V30 15100 N 1404.2 0.485086 -1.49949 0
M  V30 15101 C 1405.61 1.06629 -1.53255 0
M  V30 15102 C 1405.96 1.9344 -0.327915 0
M  V30 15103 O 1405.08 2.09011 0.560669 0
M  V30 15104 C 1405.68 1.94053 -2.77721 0
M  V30 15105 C 1404.24 2.47307 -2.83754 0
M  V30 15106 C 1403.38 1.25307 -2.47373 0
M  V30 15107 H 1406.33 0.268297 -1.56416 0
M  V30 15108 H 1406.36 2.78946 -2.58784 0
M  V30 15109 H 1405.87 1.30843 -3.65379 0
M  V30 15110 H 1403.97 3.1411 -2.00414 0
M  V30 15111 H 1404.08 2.83371 -3.86313 0
M  V30 15112 H 1402.45 1.5834 -1.99501 0
M  V30 15113 H 1403.23 0.637815 -3.37323 0
M  V30 15114 N 1405.67 1.39291 0.737279 0
M  V30 15115 C 1406.9 1.39844 1.53162 0
M  V30 15116 C 1407.32 -0.00568546 1.88099 0
M  V30 15117 O 1406.68 -0.992085 1.51748 0
M  V30 15118 C 1406.73 2.27577 2.79716 0
M  V30 15119 O 1405.83 1.70408 3.75546 0
M  V30 15120 H 1405.17 0.476314 0.462624 0
M  V30 15121 H 1407.7 1.83258 0.909819 0
M  V30 15122 H 1407.71 2.42009 3.28475 0
M  V30 15123 H 1406.39 3.29621 2.53619 0
M  V30 15124 H 1404.97 1.65206 3.34307 0
M  V30 15125 N 1407.15 -0.967221 1.24429 0
M  V30 15126 C 1408.4 -1.71279 1.08588 0
M  V30 15127 C 1408.73 -1.90558 -0.374325 0
M  V30 15128 O 1408.01 -1.46742 -1.27659 0
M  V30 15129 C 1408.29 -3.10326 1.82674 0
M  V30 15130 C 1408.14 -2.98535 3.36447 0
M  V30 15131 C 1409.46 -4.09993 1.59981 0
M  V30 15132 H 1406.58 -0.621658 0.395867 0
M  V30 15133 H 1409.22 -1.12514 1.53103 0
M  V30 15134 H 1407.37 -3.60492 1.44836 0
M  V30 15135 H 1409.04 -2.55791 3.83886 0
M  V30 15136 H 1407.29 -2.34736 3.64803 0
M  V30 15137 H 1407.96 -3.97041 3.83487 0
M  V30 15138 H 1410.43 -3.68687 1.92897 0
M  V30 15139 H 1409.31 -5.05349 2.14274 0
M  V30 15140 H 1409.57 -4.38812 0.538173 0
M  V30 15141 N 1408.63 -1.05812 -1.16797 0
M  V30 15142 C 1409.91 -0.685551 -1.83193 0
M  V30 15143 C 1410.29 0.833539 -1.93947 0
M  V30 15144 O 1409.63 1.74193 -1.47882 0
M  V30 15145 C 1409.84 -1.38183 -3.20479 0
M  V30 15146 C 1411.19 -1.52389 -3.96311 0
M  V30 15147 O 1412.22 -1.34134 -3.2998 0
M  V30 15148 O 1411.08 -1.82297 -5.15199 0
M  V30 15149 H 1408.17 -0.242095 -0.790771 0
M  V30 15150 H 1410.72 -1.15809 -1.24041 0
M  V30 15151 H 1409.49 -2.41791 -3.07657 0
M  V30 15152 H 1409.11 -0.899043 -3.87302 0
M  V30 15153 N 1410.11 1.33347 -0.840014 0
M  V30 15154 C 1411.05 2.29191 -0.272048 0
M  V30 15155 C 1412.02 1.54383 0.612787 0
M  V30 15156 O 1413.21 1.82676 0.550812 0
M  V30 15157 C 1410.35 3.40755 0.545901 0
M  V30 15158 C 1409.46 4.30471 -0.363084 0
M  V30 15159 C 1408.6 5.29151 0.466078 0
M  V30 15160 C 1407.64 6.10508 -0.441225 0
M  V30 15161 N 1406.77 7.01228 0.349877 0
M  V30 15162 H 1411.61 2.77166 -1.09467 0
M  V30 15163 H 1409.15 1.36379 -0.551284 0
M  V30 15164 H 1411.11 4.04142 1.03562 0
M  V30 15165 H 1409.74 2.9397 1.33348 0
M  V30 15166 H 1408.79 3.67795 -0.971119 0
M  V30 15167 H 1410.1 4.87406 -1.06002 0
M  V30 15168 H 1409.26 5.98072 1.01957 0
M  V30 15169 H 1408 4.72796 1.19644 0
M  V30 15170 H 1407 5.40504 -1.00672 0
M  V30 15171 H 1408.23 6.68946 -1.16997 0
M  V30 15172 H 1406.17 6.4732 1.0636 0
M  V30 15173 H 1406.09 7.5545 -0.288317 0
M  V30 15174 H 1407.36 7.74453 0.885573 0
M  V30 15175 N 1411.59 0.596556 1.45873 0
M  V30 15176 C 1412.55 -0.118666 2.28893 0
M  V30 15177 C 1413.55 -0.805668 1.3916 0
M  V30 15178 O 1414.74 -0.655511 1.61396 0
M  V30 15179 C 1411.87 -1.17789 3.19904 0
M  V30 15180 H 1413.06 0.611093 2.93608 0
M  V30 15181 H 1410.62 0.355115 1.52212 0
M  V30 15182 H 1411.35 -1.93878 2.59965 0
M  V30 15183 H 1411.14 -0.689616 3.85988 0
M  V30 15184 H 1412.63 -1.67912 3.82355 0
M  V30 15185 N 1413.06 -1.53996 0.335095 0
M  V30 15186 C 1414.48 -1.59591 -0.0171422 0
M  V30 15187 C 1414.68 -1.35132 -1.49471 0
M  V30 15188 O 1413.74 -1.14141 -2.25229 0
M  V30 15189 C 1415.05 -2.97872 0.411443 0
M  V30 15190 C 1416.6 -3.10887 0.363072 0
M  V30 15191 C 1417.07 -4.51532 0.766995 0
M  V30 15192 N 1418.56 -4.57557 0.72085 0
M  V30 15193 C 1419.3 -5.64516 1.00544 0
M  V30 15194 N 1418.79 -6.79365 1.35777 0
M  V30 15195 N 1420.59 -5.54349 0.930243 0
M  V30 15196 H 1412.74 -1.68151 1.29766 0
M  V30 15197 H 1415 -0.787067 0.528422 0
M  V30 15198 H 1414.71 -3.20809 1.44134 0
M  V30 15199 H 1414.58 -3.76571 -0.217678 0
M  V30 15200 H 1416.97 -2.87679 -0.657642 0
M  V30 15201 H 1417.05 -2.34266 1.02728 0
M  V30 15202 H 1416.69 -4.75474 1.78568 0
M  V30 15203 H 1416.62 -5.26539 0.0803511 0
M  V30 15204 H 1419.11 -3.75079 0.460867 0
M  V30 15205 H 1419.43 -7.56891 1.55999 0
M  V30 15206 H 1417.77 -6.80833 1.39614 0
M  V30 15207 H 1420.96 -4.63503 0.654402 0
M  V30 15208 H 1421.14 -6.37616 1.15539 0
M  V30 15209 N 1414.54 -0.0635198 -1.57472 0
M  V30 15210 C 1415.5 0.891881 -2.11135 0
M  V30 15211 C 1416.5 1.23182 -1.03358 0
M  V30 15212 O 1417.69 1.16646 -1.2938 0
M  V30 15213 C 1414.83 2.19792 -2.60584 0
M  V30 15214 H 1416.02 0.426461 -2.96852 0
M  V30 15215 H 1413.57 0.185069 -1.552 0
M  V30 15216 H 1414.31 2.70889 -1.78297 0
M  V30 15217 H 1414.09 1.96419 -3.39355 0
M  V30 15218 H 1415.58 2.88203 -3.02206 0
M  V30 15219 N 1416.02 1.56195 0.209972 0
M  V30 15220 C 1416.93 1.96539 1.28101 0
M  V30 15221 C 1417.95 0.870858 1.50639 0
M  V30 15222 O 1419.12 1.17539 1.63544 0
M  V30 15223 C 1416.19 2.28392 2.60841 0
M  V30 15224 C 1415.25 3.51474 2.46505 0
M  V30 15225 C 1414.48 3.81798 3.72915 0
M  V30 15226 O 1414.7 3.13627 4.76439 0
M  V30 15227 O 1413.64 4.75264 3.69334 0
M  V30 15228 H 1417.46 2.87838 0.968671 0
M  V30 15229 H 1415.05 1.43556 0.413777 0
M  V30 15230 H 1416.93 2.50022 3.39215 0
M  V30 15231 H 1415.61 1.40264 2.91732 0
M  V30 15232 H 1414.51 3.35109 1.66292 0
M  V30 15233 H 1415.85 4.40021 2.2055 0
M  V30 15234 N 1417.5 -0.477127 1.50204 0
M  V30 15235 C 1418.43 -1.58405 1.71552 0
M  V30 15236 C 1419.41 -1.60463 0.564413 0
M  V30 15237 O 1420.59 -1.76826 0.802893 0
M  V30 15238 C 1417.72 -2.96765 1.8041 0
M  V30 15239 C 1416.68 -3.09573 2.95548 0
M  V30 15240 C 1416 -4.49522 2.89542 0
M  V30 15241 C 1417.3 -2.87356 4.36147 0
M  V30 15242 H 1419 -1.40792 2.64231 0
M  V30 15243 H 1416.54 -0.675886 1.27153 0
M  V30 15244 H 1418.5 -3.74125 1.9393 0
M  V30 15245 H 1417.22 -3.1552 0.843489 0
M  V30 15246 H 1415.88 -2.34645 2.81669 0
M  V30 15247 H 1415.53 -4.65186 1.91339 0
M  V30 15248 H 1415.23 -4.59028 3.66834 0
M  V30 15249 H 1416.75 -5.28909 3.05102 0
M  V30 15250 H 1418.17 -3.54469 4.50583 0
M  V30 15251 H 1416.56 -3.08313 5.14843 0
M  V30 15252 H 1417.63 -1.83264 4.48935 0
M  V30 15253 N 1418.98 -1.3968 -0.729882 0
M  V30 15254 C 1419.91 -1.34713 -1.85432 0
M  V30 15255 C 1420.92 -0.254999 -1.60791 0
M  V30 15256 O 1422.11 -0.514324 -1.7093 0
M  V30 15257 C 1419.21 -1.07019 -3.21559 0
M  V30 15258 C 1418.38 -2.27609 -3.73515 0
M  V30 15259 C 1417.44 -1.96292 -4.88217 0
M  V30 15260 O 1416.47 -2.69025 -5.01612 0
M  V30 15261 N 1417.67 -0.932181 -5.72967 0
M  V30 15262 H 1420.44 -2.31616 -1.90195 0
M  V30 15263 H 1418 -1.33849 -0.910834 0
M  V30 15264 H 1419.99 -0.84079 -3.9587 0
M  V30 15265 H 1418.56 -0.188323 -3.12032 0
M  V30 15266 H 1417.78 -2.66468 -2.90497 0
M  V30 15267 H 1419.07 -3.08033 -4.04961 0
M  V30 15268 H 1418.46 -0.329507 -5.6474 0
M  V30 15269 H 1417.02 -0.762684 -6.47322 0
M  V30 15270 N 1420.45 0.960609 -1.2494 0
M  V30 15271 C 1421.36 2.0902 -1.06527 0
M  V30 15272 C 1422.38 1.74 -0.00406641 0
M  V30 15273 O 1423.56 2.00367 -0.203744 0
M  V30 15274 C 1420.62 3.39971 -0.679736 0
M  V30 15275 C 1419.68 3.88895 -1.81821 0
M  V30 15276 C 1418.92 5.13597 -1.45098 0
M  V30 15277 O 1419.14 5.69362 -0.343954 0
M  V30 15278 O 1418.07 5.57083 -2.27909 0
M  V30 15279 H 1421.9 2.27453 -2.01243 0
M  V30 15280 H 1419.48 1.07429 -1.03824 0
M  V30 15281 H 1421.37 4.18696 -0.47658 0
M  V30 15282 H 1420.04 3.22822 0.238231 0
M  V30 15283 H 1418.95 3.11201 -2.07617 0
M  V30 15284 H 1420.28 4.10533 -2.7152 0
M  V30 15285 N 1421.93 1.0643 1.16234 0
M  V30 15286 C 1422.86 0.697605 2.22836 0
M  V30 15287 C 1423.84 -0.310563 1.67241 0
M  V30 15288 O 1425.03 -0.185385 1.93313 0
M  V30 15289 C 1422.16 0.0847097 3.47197 0
M  V30 15290 C 1421.11 1.019 4.15693 0
M  V30 15291 C 1420.44 0.269339 5.34021 0
M  V30 15292 C 1421.74 2.34861 4.66516 0
M  V30 15293 H 1423.43 1.58883 2.53765 0
M  V30 15294 H 1420.98 0.765388 1.21975 0
M  V30 15295 H 1422.93 -0.1837 4.20999 0
M  V30 15296 H 1421.66 -0.84154 3.15572 0
M  V30 15297 H 1420.31 1.27218 3.43818 0
M  V30 15298 H 1419.96 -0.660072 4.9865 0
M  V30 15299 H 1419.66 0.892001 5.8079 0
M  V30 15300 H 1421.19 0.00850775 6.10599 0
M  V30 15301 H 1422.6 2.13922 5.31893 0
M  V30 15302 H 1421 2.92637 5.23912 0
M  V30 15303 H 1422.07 2.97834 3.82653 0
M  V30 15304 N 1423.41 -1.329 0.847073 0
M  V30 15305 C 1424.34 -2.31546 0.301422 0
M  V30 15306 C 1425.32 -1.59342 -0.595317 0
M  V30 15307 O 1426.51 -1.87188 -0.517151 0
M  V30 15308 C 1423.64 -3.43423 -0.517454 0
M  V30 15309 C 1422.59 -4.27055 0.284195 0
M  V30 15310 C 1421.92 -5.30624 -0.658944 0
M  V30 15311 C 1423.22 -5.00123 1.50578 0
M  V30 15312 H 1424.91 -2.77433 1.12567 0
M  V30 15313 H 1422.46 -1.3338 0.542739 0
M  V30 15314 H 1424.41 -4.11467 -0.909543 0
M  V30 15315 H 1423.13 -2.96246 -1.37499 0
M  V30 15316 H 1421.79 -3.60648 0.657944 0
M  V30 15317 H 1421.44 -4.79702 -1.51311 0
M  V30 15318 H 1421.14 -5.87464 -0.12662 0
M  V30 15319 H 1422.66 -6.01533 -1.04837 0
M  V30 15320 H 1424.08 -5.6089 1.18641 0
M  V30 15321 H 1422.48 -5.66652 1.97549 0
M  V30 15322 H 1423.55 -4.28424 2.27115 0
M  V30 15323 N 1424.89 -0.604284 -1.45555 0
M  V30 15324 C 1426.12 -0.104452 -2.06636 0
M  V30 15325 C 1426.53 1.20976 -1.44949 0
M  V30 15326 O 1425.89 1.73616 -0.562468 0
M  V30 15327 C 1425.94 0.0451646 -3.61472 0
M  V30 15328 O 1425.66 -1.21705 -4.20856 0
M  V30 15329 C 1427.16 0.57684 -4.39531 0
M  V30 15330 H 1424.38 -0.067326 -0.667614 0
M  V30 15331 H 1426.93 -0.831079 -1.86851 0
M  V30 15332 H 1425.08 0.722104 -3.80611 0
M  V30 15333 H 1425.49 -1.04462 -5.13992 0
M  V30 15334 H 1426.97 0.630627 -5.48386 0
M  V30 15335 H 1427.45 1.59842 -4.09081 0
M  V30 15336 H 1428.05 -0.0659444 -4.25249 0
M  V30 15337 N 1426.37 1.53816 -0.343257 0
M  V30 15338 C 1427.62 2.0009 0.254346 0
M  V30 15339 C 1427.93 1.23502 1.51679 0
M  V30 15340 O 1429.13 1.60251 2.19162 0
M  V30 15341 C 1427.59 3.56357 0.503775 0
M  V30 15342 C 1427.2 4.418 -0.742754 0
M  V30 15343 C 1428.94 4.11046 1.06025 0
M  V30 15344 C 1426.85 5.89576 -0.46414 0
M  V30 15345 H 1425.78 0.747496 0.0988189 0
M  V30 15346 H 1428.43 1.77679 -0.45854 0
M  V30 15347 H 1426.81 3.74833 1.27736 0
M  V30 15348 H 1427.99 4.35099 -1.51742 0
M  V30 15349 H 1426.3 3.98101 -1.22085 0
M  V30 15350 H 1428.9 5.19063 1.28365 0
M  V30 15351 H 1429.24 3.64247 2.01568 0
M  V30 15352 H 1429.77 3.9628 0.347384 0
M  V30 15353 H 1426.51 6.40608 -1.38928 0
M  V30 15354 H 1426.03 5.99181 0.272441 0
M  V30 15355 H 1427.71 6.46949 -0.0812761 0
M  V30 15356 N 1427.84 0.0718701 1.57436 0
M  V30 15357 C 1428.81 -0.880671 2.11605 0
M  V30 15358 C 1429.81 -1.22632 1.0401 0
M  V30 15359 O 1431 -1.15958 1.29997 0
M  V30 15360 C 1428.13 -2.18407 2.61746 0
M  V30 15361 H 1429.32 -0.410712 2.97074 0
M  V30 15362 H 1426.88 -0.176836 1.55296 0
M  V30 15363 H 1427.61 -2.6994 1.79731 0
M  V30 15364 H 1427.4 -1.94616 3.40392 0
M  V30 15365 H 1428.89 -2.86596 3.03731 0
M  V30 15366 N 1429.32 -1.56304 -0.201686 0
M  V30 15367 C 1430.23 -1.97215 -1.27057 0
M  V30 15368 C 1431.25 -0.878834 -1.50175 0
M  V30 15369 O 1432.42 -1.18405 -1.62918 0
M  V30 15370 C 1429.49 -2.29772 -2.59626 0
M  V30 15371 C 1428.55 -3.52776 -2.44637 0
M  V30 15372 C 1427.78 -3.83771 -3.70885 0
M  V30 15373 O 1428.01 -3.16149 -4.7477 0
M  V30 15374 O 1426.94 -4.77216 -3.66808 0
M  V30 15375 H 1430.77 -2.88347 -0.953393 0
M  V30 15376 H 1428.35 -1.43773 -0.406158 0
M  V30 15377 H 1430.23 -2.51817 -3.37885 0
M  V30 15378 H 1428.91 -1.41809 -2.90984 0
M  V30 15379 H 1427.82 -3.35986 -1.64512 0
M  V30 15380 H 1429.15 -4.41184 -2.18214 0
M  V30 15381 N 1430.8 0.469154 -1.50455 0
M  V30 15382 C 1432.22 0.803067 -1.37924 0
M  V30 15383 C 1432.42 1.96708 -0.436837 0
M  V30 15384 O 1431.47 2.52216 0.119823 0
M  V30 15385 C 1432.79 1.11332 -2.79331 0
M  V30 15386 C 1434.33 1.21965 -2.88259 0
M  V30 15387 C 1434.81 1.56302 -4.30504 0
M  V30 15388 N 1436.3 1.6329 -4.33464 0
M  V30 15389 C 1437.03 1.91367 -5.40524 0
M  V30 15390 N 1436.53 2.17451 -6.57789 0
M  V30 15391 N 1438.32 1.92885 -5.2797 0
M  V30 15392 H 1430.47 -0.297928 -2.103 0
M  V30 15393 H 1432.74 -0.0707794 -0.945354 0
M  V30 15394 H 1432.44 0.331052 -3.50138 0
M  V30 15395 H 1432.32 2.04903 -3.16693 0
M  V30 15396 H 1434.7 1.99259 -2.17669 0
M  V30 15397 H 1434.79 0.263692 -2.54437 0
M  V30 15398 H 1434.43 0.795479 -5.01632 0
M  V30 15399 H 1434.36 2.53052 -4.61814 0
M  V30 15400 H 1436.85 1.45164 -3.48907 0
M  V30 15401 H 1437.16 2.38154 -7.35189 0
M  V30 15402 H 1435.51 2.14839 -6.60961 0
M  V30 15403 H 1438.7 1.72005 -4.35353 0
M  V30 15404 H 1438.87 2.1443 -6.11493 0
M  V30 15405 N 1432.28 1.40065 0.722464 0
M  V30 15406 C 1433.52 1.39178 1.48328 0
M  V30 15407 C 1433.88 -0.00849644 1.92398 0
M  V30 15408 O 1433.17 -0.977541 1.64787 0
M  V30 15409 C 1433.37 2.30949 2.72759 0
M  V30 15410 C 1433.2 3.7976 2.40857 0
M  V30 15411 C 1431.97 4.48615 2.32535 0
M  V30 15412 C 1434.16 4.71426 2.05576 0
M  V30 15413 N 1432.15 5.82695 1.93236 0
M  V30 15414 C 1433.52 5.94251 1.76822 0
M  V30 15415 C 1435.57 4.59327 1.92153 0
M  V30 15416 C 1434.27 7.06327 1.35996 0
M  V30 15417 C 1436.3 5.71338 1.5273 0
M  V30 15418 C 1435.66 6.93244 1.24869 0
M  V30 15419 H 1431.76 0.564547 0.541119 0
M  V30 15420 H 1434.35 1.7572 0.838475 0
M  V30 15421 H 1432.52 1.96545 3.35 0
M  V30 15422 H 1434.25 2.20967 3.39051 0
M  V30 15423 H 1431 4.0221 2.50048 0
M  V30 15424 H 1431.43 6.53684 1.76144 0
M  V30 15425 H 1436.07 3.65602 2.12356 0
M  V30 15426 H 1433.79 7.99942 1.14535 0
M  V30 15427 H 1437.37 5.6397 1.42932 0
M  V30 15428 H 1436.25 7.78446 0.948221 0
M  V30 15429 N 1433.76 -0.95397 1.25448 0
M  V30 15430 C 1434.67 -2.08452 1.07634 0
M  V30 15431 C 1435.68 -1.73995 0.013294 0
M  V30 15432 O 1436.86 -2.00256 0.214367 0
M  V30 15433 C 1433.92 -3.39606 0.697756 0
M  V30 15434 C 1432.99 -3.87926 1.83881 0
M  V30 15435 C 1432.22 -5.12821 1.47819 0
M  V30 15436 O 1432.44 -5.69172 0.374143 0
M  V30 15437 O 1431.38 -5.55866 2.3086 0
M  V30 15438 H 1435.2 -2.26382 2.02447 0
M  V30 15439 H 1432.79 -1.06877 1.04392 0
M  V30 15440 H 1434.67 -4.18438 0.498778 0
M  V30 15441 H 1433.34 -3.22944 -0.221108 0
M  V30 15442 H 1432.25 -3.10095 2.09265 0
M  V30 15443 H 1433.58 -4.09087 2.73694 0
M  V30 15444 N 1435.24 -1.07045 -1.15668 0
M  V30 15445 C 1436.15 -0.699332 -2.23934 0
M  V30 15446 C 1437.16 0.288036 -1.71599 0
M  V30 15447 O 1438.34 0.135447 -2.00944 0
M  V30 15448 C 1435.4 -0.0994775 -3.46557 0
M  V30 15449 C 1434.46 -1.13968 -4.13896 0
M  V30 15450 C 1433.7 -0.56836 -5.30665 0
M  V30 15451 O 1433.92 0.616556 -5.67058 0
M  V30 15452 O 1432.85 -1.31174 -5.87432 0
M  V30 15453 H 1436.68 -1.60212 -2.58003 0
M  V30 15454 H 1434.26 -0.843202 -1.23331 0
M  V30 15455 H 1436.15 0.23293 -4.20756 0
M  V30 15456 H 1434.82 0.776684 -3.14244 0
M  V30 15457 H 1433.73 -1.5244 -3.41633 0
M  V30 15458 H 1435.06 -1.98764 -4.50282 0
M  V30 15459 N 1436.71 1.32449 -0.85411 0
M  V30 15460 C 1437.66 2.2889 -0.296341 0
M  V30 15461 C 1438.63 1.55024 0.596378 0
M  V30 15462 O 1439.82 1.8325 0.531406 0
M  V30 15463 C 1436.96 3.41315 0.509729 0
M  V30 15464 C 1436.07 4.30062 -0.40872 0
M  V30 15465 C 1435.2 5.29616 0.409928 0
M  V30 15466 C 1434.24 6.10005 -0.505953 0
M  V30 15467 N 1433.38 7.01559 0.275483 0
M  V30 15468 H 1438.22 2.75989 -1.12401 0
M  V30 15469 H 1435.76 1.35787 -0.565717 0
M  V30 15470 H 1437.71 4.05218 0.992697 0
M  V30 15471 H 1436.34 2.95367 1.30223 0
M  V30 15472 H 1435.4 3.66745 -1.01007 0
M  V30 15473 H 1436.71 4.86255 -1.11165 0
M  V30 15474 H 1435.86 5.99119 0.956083 0
M  V30 15475 H 1434.6 4.74039 1.14623 0
M  V30 15476 H 1433.61 5.39406 -1.064 0
M  V30 15477 H 1434.83 6.67667 -1.24086 0
M  V30 15478 H 1432.78 6.48412 0.994887 0
M  V30 15479 H 1432.69 7.55102 -0.368426 0
M  V30 15480 H 1433.96 7.75349 0.803382 0
M  V30 15481 N 1438.19 0.611994 1.45232 0
M  V30 15482 C 1439.15 -0.0943825 2.29006 0
M  V30 15483 C 1440.15 -0.790863 1.40007 0
M  V30 15484 O 1441.34 -0.638356 1.62082 0
M  V30 15485 C 1438.48 -1.1439 3.21135 0
M  V30 15486 H 1439.67 0.6422 2.92943 0
M  V30 15487 H 1437.22 0.37124 1.51827 0
M  V30 15488 H 1437.96 -1.9111 2.62007 0
M  V30 15489 H 1437.74 -0.648638 3.86698 0
M  V30 15490 H 1439.23 -1.63848 3.84114 0
M  V30 15491 N 1439.67 -1.53632 0.351409 0
M  V30 15492 C 1440.62 -2.22041 -0.517867 0
M  V30 15493 C 1441.6 -1.21057 -1.0599 0
M  V30 15494 O 1442.8 -1.46569 -0.992298 0
M  V30 15495 C 1439.92 -3.00259 -1.66432 0
M  V30 15496 C 1439.01 -4.08607 -1.13584 0
M  V30 15497 N 1439.4 -5.04727 -0.329217 0
M  V30 15498 C 1437.7 -4.23059 -1.412 0
M  V30 15499 C 1438.4 -5.81685 -0.0415005 0
M  V30 15500 N 1437.38 -5.39875 -0.635288 0
M  V30 15501 H 1441.18 -2.93711 0.105386 0
M  V30 15502 H 1438.69 -1.61623 0.15868 0
M  V30 15503 H 1440.69 -3.47774 -2.29911 0
M  V30 15504 H 1439.35 -2.30117 -2.29077 0
M  V30 15505 H 1440.36 -5.17891 0.0303777 0
M  V30 15506 H 1437.04 -3.64139 -2.04227 0
M  V30 15507 H 1438.43 -6.69128 0.609686 0
M  V30 15508 N 1441.15 -0.0802183 -1.57396 0
M  V30 15509 C 1442.39 0.586962 -1.93807 0
M  V30 15510 C 1442.72 1.69107 -0.960887 0
M  V30 15511 O 1441.98 1.95688 0.0220779 0
M  V30 15512 C 1442.28 1.19551 -3.36812 0
M  V30 15513 C 1441.94 0.216701 -4.50379 0
M  V30 15514 C 1440.6 -0.0525552 -4.81171 0
M  V30 15515 C 1442.96 -0.452467 -5.19232 0
M  V30 15516 C 1440.28 -0.997923 -5.78151 0
M  V30 15517 C 1442.64 -1.38621 -6.17225 0
M  V30 15518 C 1441.3 -1.66385 -6.4643 0
M  V30 15519 H 1440.57 0.214785 -0.709189 0
M  V30 15520 H 1443.22 -0.152888 -1.90889 0
M  V30 15521 H 1441.52 2.01129 -3.36236 0
M  V30 15522 H 1443.22 1.71918 -3.62278 0
M  V30 15523 H 1439.81 0.436747 -4.26369 0
M  V30 15524 H 1443.99 -0.257573 -4.95631 0
M  V30 15525 H 1439.25 -1.22019 -5.991 0
M  V30 15526 H 1443.42 -1.91063 -6.69677 0
M  V30 15527 H 1441.05 -2.39799 -7.21388 0
M  V30 15528 N 1442.63 1.56409 0.193394 0
M  V30 15529 C 1443.87 1.82511 0.920268 0
M  V30 15530 C 1444.23 0.657957 1.80374 0
M  V30 15531 O 1445.43 0.798914 2.56653 0
M  V30 15532 C 1443.7 3.13644 1.71354 0
M  V30 15533 S 1445.26 3.61158 2.4922 0
M  V30 15534 H 1442.08 0.64052 0.308634 0
M  V30 15535 H 1444.68 1.94637 0.183542 0
M  V30 15536 H 1443.38 3.96604 1.05514 0
M  V30 15537 H 1442.92 3.04402 2.49205 0
M  V30 15538 H 1444.93 3.26729 3.73447 0
M  V30 15539 N 1444.1 -0.461169 1.50702 0
M  V30 15540 C 1445.03 -1.56576 1.73223 0
M  V30 15541 C 1446.01 -1.59855 0.581401 0
M  V30 15542 O 1447.2 -1.75964 0.821602 0
M  V30 15543 C 1444.33 -2.94835 1.83548 0
M  V30 15544 C 1443.28 -3.06421 2.98815 0
M  V30 15545 C 1442.61 -4.46425 2.94293 0
M  V30 15546 C 1443.91 -2.82714 4.3917 0
M  V30 15547 H 1445.6 -1.37982 2.65709 0
M  V30 15548 H 1443.15 -0.662362 1.27862 0
M  V30 15549 H 1445.1 -3.72047 1.97887 0
M  V30 15550 H 1443.83 -3.14608 0.876906 0
M  V30 15551 H 1442.49 -2.31644 2.84142 0
M  V30 15552 H 1442.13 -4.63131 1.96262 0
M  V30 15553 H 1441.83 -4.55111 3.71682 0
M  V30 15554 H 1443.36 -5.25644 3.10695 0
M  V30 15555 H 1444.77 -3.4967 4.54317 0
M  V30 15556 H 1443.17 -3.02835 5.18084 0
M  V30 15557 H 1444.24 -1.78492 4.50853 0
M  V30 15558 N 1445.58 -1.40446 -0.715026 0
M  V30 15559 C 1446.49 -1.43074 -1.85922 0
M  V30 15560 C 1447.51 -0.323294 -1.7097 0
M  V30 15561 O 1448.68 -0.567966 -1.93226 0
M  V30 15562 C 1445.75 -1.29206 -3.21725 0
M  V30 15563 C 1444.81 -2.50097 -3.48927 0
M  V30 15564 C 1444.04 -2.36881 -4.7825 0
M  V30 15565 O 1444.27 -1.38292 -5.53382 0
M  V30 15566 O 1443.2 -3.26266 -5.058 0
M  V30 15567 H 1447.03 -2.39565 -1.86661 0
M  V30 15568 H 1444.61 -1.21775 -0.865522 0
M  V30 15569 H 1446.49 -1.23681 -4.02841 0
M  V30 15570 H 1445.17 -0.358207 -3.21712 0
M  V30 15571 H 1444.07 -2.61199 -2.67817 0
M  V30 15572 H 1445.41 -3.42244 -3.53737 0
M  V30 15573 N 1447.06 0.947303 -1.25952 0
M  V30 15574 C 1448.02 2.02667 -1.07046 0
M  V30 15575 C 1449.02 1.60787 -0.0208127 0
M  V30 15576 O 1450.21 1.72193 -0.263668 0
M  V30 15577 C 1447.34 3.35087 -0.626885 0
M  V30 15578 H 1448.54 2.20871 -2.0287 0
M  V30 15579 H 1446.09 1.12541 -1.08462 0
M  V30 15580 H 1446.83 3.22579 0.333621 0
M  V30 15581 H 1446.61 3.66835 -1.38473 0
M  V30 15582 H 1448.1 4.14397 -0.516264 0
M  V30 15583 N 1448.54 1.07657 1.15099 0
M  V30 15584 C 1449.95 0.802696 1.37945 0
M  V30 15585 C 1450.15 -0.591622 1.92619 0
M  V30 15586 O 1449.21 -1.34979 2.13394 0
M  V30 15587 C 1450.52 1.87907 2.34759 0
M  V30 15588 C 1452.07 1.90418 2.48415 0
M  V30 15589 C 1452.55 2.97148 3.48521 0
M  V30 15590 N 1454.04 2.96271 3.56059 0
M  V30 15591 C 1454.77 3.75498 4.33346 0
M  V30 15592 N 1454.27 4.64583 5.1394 0
M  V30 15593 N 1456.06 3.63831 4.28466 0
M  V30 15594 H 1448.21 1.97578 0.779537 0
M  V30 15595 H 1450.48 0.856978 0.405331 0
M  V30 15596 H 1450.18 2.8811 2.01707 0
M  V30 15597 H 1450.06 1.74183 3.34575 0
M  V30 15598 H 1452.44 0.908655 2.80762 0
M  V30 15599 H 1452.52 2.0822 1.48586 0
M  V30 15600 H 1452.17 3.96903 3.16908 0
M  V30 15601 H 1452.1 2.76593 4.48112 0
M  V30 15602 H 1454.59 2.31697 2.98538 0
M  V30 15603 H 1454.9 5.2166 5.70167 0
M  V30 15604 H 1453.25 4.6863 5.13236 0
M  V30 15605 H 1456.44 2.93609 3.6457 0
M  V30 15606 H 1456.61 4.25818 4.8845 0
M  V30 15607 N 1450.02 -1.31994 0.861122 0
M  V30 15608 C 1450.95 -2.27632 0.267681 0
M  V30 15609 C 1451.96 -1.52709 -0.564265 0
M  V30 15610 O 1453.15 -1.74239 -0.3877 0
M  V30 15611 C 1450.25 -3.32805 -0.639856 0
M  V30 15612 C 1449.42 -4.37116 0.157676 0
M  V30 15613 C 1448.48 -5.21832 -0.676624 0
M  V30 15614 O 1447.51 -5.69098 -0.107822 0
M  V30 15615 N 1448.71 -5.45317 -1.99022 0
M  V30 15616 H 1451.48 -2.79195 1.0895 0
M  V30 15617 H 1449.04 -1.44923 0.721733 0
M  V30 15618 H 1451.03 -3.86391 -1.20348 0
M  V30 15619 H 1449.6 -2.81351 -1.36236 0
M  V30 15620 H 1448.82 -3.83724 0.902741 0
M  V30 15621 H 1450.11 -5.03889 0.70524 0
M  V30 15622 H 1449.5 -5.08656 -2.47558 0
M  V30 15623 H 1448.06 -6.01874 -2.50182 0
M  V30 15624 N 1451.49 -0.619688 -1.44906 0
M  V30 15625 C 1452.44 0.0920359 -2.30616 0
M  V30 15626 C 1453.41 0.848114 -1.42815 0
M  V30 15627 O 1454.6 0.831439 -1.71732 0
M  V30 15628 C 1451.74 1.07537 -3.27917 0
M  V30 15629 C 1450.85 0.318904 -4.30821 0
M  V30 15630 C 1449.98 1.29303 -5.15222 0
M  V30 15631 C 1449.02 0.525071 -6.09844 0
M  V30 15632 N 1448.16 1.44909 -6.86983 0
M  V30 15633 H 1453 -0.644834 -2.9094 0
M  V30 15634 H 1450.54 -0.329785 -1.43356 0
M  V30 15635 H 1452.5 1.65874 -3.82808 0
M  V30 15636 H 1451.13 1.7795 -2.6932 0
M  V30 15637 H 1450.18 -0.380192 -3.78495 0
M  V30 15638 H 1451.49 -0.279742 -4.98015 0
M  V30 15639 H 1450.64 1.94809 -5.74573 0
M  V30 15640 H 1449.38 1.92561 -4.48076 0
M  V30 15641 H 1448.39 -0.14355 -5.49613 0
M  V30 15642 H 1449.61 -0.102625 -6.79022 0
M  V30 15643 H 1447.56 2.06908 -6.22515 0
M  V30 15644 H 1447.48 0.90418 -7.50574 0
M  V30 15645 H 1448.74 2.09335 -7.50866 0
M  V30 15646 N 1452.97 1.53444 -0.359552 0
M  V30 15647 C 1453.92 2.22312 0.506084 0
M  V30 15648 C 1454.91 1.21618 1.05347 0
M  V30 15649 O 1456.1 1.47093 0.984511 0
M  V30 15650 C 1453.23 3.01137 1.64837 0
M  V30 15651 C 1452.31 4.09203 1.11416 0
M  V30 15652 N 1452.7 5.04895 0.302445 0
M  V30 15653 C 1451 4.23801 1.38954 0
M  V30 15654 C 1451.7 5.81699 0.0106517 0
M  V30 15655 N 1450.68 5.40204 0.606648 0
M  V30 15656 H 1454.48 2.93651 -0.120961 0
M  V30 15657 H 1452 1.61536 -0.167249 0
M  V30 15658 H 1453.99 3.48988 2.28063 0
M  V30 15659 H 1452.65 2.31328 2.27854 0
M  V30 15660 H 1453.66 5.17868 -0.0578423 0
M  V30 15661 H 1450.34 3.65217 2.02293 0
M  V30 15662 H 1451.73 6.68795 -0.645163 0
M  V30 15663 N 1454.45 0.0885642 1.57351 0
M  V30 15664 C 1455.86 -0.441569 1.81403 0
M  V30 15665 C 1456.21 -1.68582 1.00372 0
M  V30 15666 O 1455.34 -2.15162 0.231153 0
M  V30 15667 C 1455.93 -0.807886 3.29027 0
M  V30 15668 C 1454.49 -1.2828 3.53866 0
M  V30 15669 C 1453.64 -0.276217 2.75921 0
M  V30 15670 H 1456.59 0.314083 1.55561 0
M  V30 15671 H 1456.61 -1.66797 3.41993 0
M  V30 15672 H 1456.12 0.0978886 3.87977 0
M  V30 15673 H 1454.22 -2.2065 3.0024 0
M  V30 15674 H 1454.34 -1.24914 4.62529 0
M  V30 15675 H 1452.7 -0.757007 2.4319 0
M  V30 15676 H 1453.48 0.622123 3.37616 0
M  V30 15677 N 1455.93 -1.56509 -0.185096 0
M  V30 15678 C 1457.34 -1.71024 -0.748856 0
M  V30 15679 C 1457.69 -0.69681 -1.83409 0
M  V30 15680 O 1456.82 0.144711 -2.15916 0
M  V30 15681 C 1457.41 -3.1008 -1.36513 0
M  V30 15682 C 1455.97 -3.26325 -1.87587 0
M  V30 15683 C 1455.12 -2.66977 -0.749579 0
M  V30 15684 H 1458.07 -1.58649 0.0401175 0
M  V30 15685 H 1458.09 -3.07965 -2.23468 0
M  V30 15686 H 1457.6 -3.83816 -0.575051 0
M  V30 15687 H 1455.7 -2.57522 -2.69283 0
M  V30 15688 H 1455.81 -4.33931 -2.03078 0
M  V30 15689 H 1454.18 -2.26419 -1.16647 0
M  V30 15690 H 1454.96 -3.43288 0.0284301 0
M  V30 15691 N 1457.41 0.45317 -1.50944 0
M  V30 15692 C 1458.37 1.5313 -1.7054 0
M  V30 15693 C 1459.37 1.50142 -0.575678 0
M  V30 15694 O 1460.56 1.52444 -0.842997 0
M  V30 15695 C 1457.69 2.92719 -1.74723 0
M  V30 15696 H 1458.88 1.37066 -2.66745 0
M  V30 15697 H 1456.44 0.680783 -1.40695 0
M  V30 15698 H 1457.17 3.14208 -0.802753 0
M  V30 15699 H 1456.96 2.96295 -2.56811 0
M  V30 15700 H 1458.45 3.7096 -1.91777 0
M  V30 15701 N 1458.88 1.40823 0.707568 0
M  V30 15702 C 1460.11 1.42866 1.49656 0
M  V30 15703 C 1460.53 0.0305663 1.88775 0
M  V30 15704 O 1459.88 -0.947376 1.55984 0
M  V30 15705 C 1459.94 2.32661 2.76679 0
M  V30 15706 O 1459.66 3.67028 2.39211 0
M  V30 15707 C 1461.16 2.4338 3.70514 0
M  V30 15708 H 1458.38 0.487009 0.461588 0
M  V30 15709 H 1460.92 1.84969 0.872167 0
M  V30 15710 H 1459.08 1.93898 3.35384 0
M  V30 15711 H 1459.49 4.14799 3.21002 0
M  V30 15712 H 1460.96 3.10401 4.56459 0
M  V30 15713 H 1461.44 1.46132 4.14176 0
M  V30 15714 H 1462.05 2.82728 3.17718 0
M  V30 15715 N 1460.36 -0.94061 1.26453 0
M  V30 15716 C 1461.29 -2.05667 1.10559 0
M  V30 15717 C 1462.27 -1.70097 0.0106258 0
M  V30 15718 O 1463.46 -1.93338 0.182756 0
M  V30 15719 C 1460.59 -3.3936 0.7384 0
M  V30 15720 C 1459.54 -3.88993 1.78517 0
M  V30 15721 C 1458.87 -5.19343 1.27228 0
M  V30 15722 C 1460.17 -4.13812 3.1868 0
M  V30 15723 H 1461.86 -2.19221 2.03918 0
M  V30 15724 H 1459.41 -1.05339 0.98182 0
M  V30 15725 H 1461.36 -4.16902 0.61409 0
M  V30 15726 H 1460.09 -3.25783 -0.230887 0
M  V30 15727 H 1458.74 -3.13633 1.89816 0
M  V30 15728 H 1458.39 -5.02147 0.292816 0
M  V30 15729 H 1458.09 -5.53521 1.97201 0
M  V30 15730 H 1459.62 -5.99468 1.16065 0
M  V30 15731 H 1461.03 -4.81966 3.10455 0
M  V30 15732 H 1459.43 -4.59273 3.86249 0
M  V30 15733 H 1460.5 -3.19571 3.64695 0
M  V30 15734 N 1461.84 -1.08266 -1.14527 0
M  V30 15735 C 1462.75 -0.723043 -2.2318 0
M  V30 15736 C 1463.77 0.269819 -1.71895 0
M  V30 15737 O 1464.94 0.114126 -2.01076 0
M  V30 15738 C 1462.01 -0.136229 -3.46432 0
M  V30 15739 C 1461.07 -1.18352 -4.12664 0
M  V30 15740 C 1460.3 -0.624612 -5.30032 0
M  V30 15741 O 1460.52 0.556377 -5.6768 0
M  V30 15742 O 1459.46 -1.37397 -5.86008 0
M  V30 15743 H 1463.28 -1.6294 -2.56289 0
M  V30 15744 H 1460.87 -0.856235 -1.22429 0
M  V30 15745 H 1462.75 0.18829 -4.20979 0
M  V30 15746 H 1461.43 0.74331 -3.1505 0
M  V30 15747 H 1460.33 -1.56054 -3.39997 0
M  V30 15748 H 1461.67 -2.03528 -4.48148 0
M  V30 15749 N 1463.32 1.31536 -0.86811 0
M  V30 15750 C 1464.28 2.26849 -0.327456 0
M  V30 15751 C 1465.28 1.52142 0.520514 0
M  V30 15752 O 1466.47 1.71044 0.330088 0
M  V30 15753 C 1463.6 3.36673 0.535174 0
M  V30 15754 H 1464.8 2.76184 -1.16886 0
M  V30 15755 H 1462.35 1.42437 -0.643545 0
M  V30 15756 H 1463.09 2.92627 1.39785 0
M  V30 15757 H 1462.87 3.92034 -0.0719835 0
M  V30 15758 H 1464.36 4.07658 0.905786 0
M  V30 15759 N 1464.8 0.627364 1.44575 0
M  V30 15760 C 1466.05 0.127824 2.01295 0
M  V30 15761 C 1466.36 -1.25647 1.49907 0
M  V30 15762 O 1467.57 -1.84982 1.9873 0
M  V30 15763 C 1466.02 0.177775 3.59461 0
M  V30 15764 C 1465.63 1.56315 4.19845 0
M  V30 15765 C 1467.37 -0.265497 4.23669 0
M  V30 15766 C 1465.28 1.56842 5.70223 0
M  V30 15767 H 1464.21 0.0440205 0.752714 0
M  V30 15768 H 1466.86 0.785607 1.65833 0
M  V30 15769 H 1465.24 -0.547038 3.92203 0
M  V30 15770 H 1466.42 2.31125 3.98645 0
M  V30 15771 H 1464.73 1.95019 3.67909 0
M  V30 15772 H 1467.33 -0.281038 5.33961 0
M  V30 15773 H 1467.67 -1.29208 3.95741 0
M  V30 15774 H 1468.21 0.406698 3.95716 0
M  V30 15775 H 1464.94 2.57325 6.0288 0
M  V30 15776 H 1464.46 0.863198 5.93556 0
M  V30 15777 H 1466.14 1.30071 6.33791 0
M  V30 15778 N 1466.28 -1.53251 0.367684 0
M  V30 15779 C 1467.52 -2.00469 -0.222481 0
M  V30 15780 C 1467.84 -1.259 -1.49695 0
M  V30 15781 O 1469.04 -1.63717 -2.16585 0
M  V30 15782 C 1467.5 -3.57113 -0.447018 0
M  V30 15783 C 1467.11 -4.40562 0.812946 0
M  V30 15784 C 1468.85 -4.12681 -0.994725 0
M  V30 15785 C 1466.76 -5.88763 0.557877 0
M  V30 15786 H 1465.69 -0.748974 -0.0869144 0
M  V30 15787 H 1468.34 -1.76927 0.48675 0
M  V30 15788 H 1466.72 -3.76818 -1.21756 0
M  V30 15789 H 1467.9 -4.3263 1.58644 0
M  V30 15790 H 1466.21 -3.96108 1.28403 0
M  V30 15791 H 1468.81 -5.2104 -1.20091 0
M  V30 15792 H 1469.15 -3.67408 -1.95748 0
M  V30 15793 H 1469.68 -3.96783 -0.284295 0
M  V30 15794 H 1466.42 -6.38317 1.49102 0
M  V30 15795 H 1465.94 -5.99539 -0.177082 0
M  V30 15796 H 1467.62 -6.46738 0.18419 0
M  V30 15797 N 1467.75 -0.0969077 -1.57302 0
M  V30 15798 C 1469.17 0.25974 -1.57472 0
M  V30 15799 C 1469.37 1.6829 -1.10818 0
M  V30 15800 O 1468.43 2.39972 -0.785466 0
M  V30 15801 C 1469.74 0.0465211 -3.00664 0
M  V30 15802 C 1471.29 0.114131 -3.12792 0
M  V30 15803 C 1471.76 -0.0711175 -4.57945 0
M  V30 15804 N 1473.25 -0.0163438 -4.63197 0
M  V30 15805 C 1473.99 -0.1349 -5.73241 0
M  V30 15806 N 1473.48 -0.308391 -6.92113 0
M  V30 15807 N 1475.28 -0.0760411 -5.62049 0
M  V30 15808 H 1467.43 -1.02673 -1.85935 0
M  V30 15809 H 1469.69 -0.402528 -0.858298 0
M  V30 15810 H 1469.4 -0.936496 -3.39002 0
M  V30 15811 H 1469.27 0.78805 -3.68876 0
M  V30 15812 H 1471.66 1.08765 -2.74325 0
M  V30 15813 H 1471.74 -0.658918 -2.47168 0
M  V30 15814 H 1471.38 -1.04152 -4.97106 0
M  V30 15815 H 1471.31 0.721647 -5.21632 0
M  V30 15816 H 1473.8 0.115134 -3.77725 0
M  V30 15817 H 1474.12 -0.390318 -7.71814 0
M  V30 15818 H 1472.46 -0.344082 -6.94148 0
M  V30 15819 H 1475.65 0.0583778 -4.68064 0
M  V30 15820 H 1475.83 -0.171884 -6.47772 0
M  V30 15821 N 1469.23 1.56605 0.176793 0
M  V30 15822 C 1470.14 1.99211 1.23903 0
M  V30 15823 C 1471.16 0.902614 1.48758 0
M  V30 15824 O 1472.33 1.20982 1.61014 0
M  V30 15825 C 1469.4 2.33873 2.55938 0
M  V30 15826 C 1468.46 3.56624 2.38994 0
M  V30 15827 C 1467.69 3.89623 3.64733 0
M  V30 15828 O 1467.92 3.23662 4.6968 0
M  V30 15829 O 1466.85 4.82992 3.5917 0
M  V30 15830 H 1470.68 2.89827 0.907398 0
M  V30 15831 H 1468.26 1.44401 0.383234 0
M  V30 15832 H 1470.14 2.57161 3.33836 0
M  V30 15833 H 1468.82 1.46421 2.88691 0
M  V30 15834 H 1467.72 3.38561 1.59146 0
M  V30 15835 H 1469.06 4.446 2.11167 0
M  V30 15836 N 1470.71 -0.445159 1.51182 0
M  V30 15837 C 1471.94 -1.21787 1.67259 0
M  V30 15838 C 1472.35 -1.85206 0.366641 0
M  V30 15839 O 1471.71 -1.70376 -0.654095 0
M  V30 15840 C 1471.76 -2.30765 2.78262 0
M  V30 15841 O 1471.48 -1.69942 4.03796 0
M  V30 15842 C 1472.98 -3.21186 3.05539 0
M  V30 15843 H 1470.2 -0.367364 0.561502 0
M  V30 15844 H 1472.75 -0.528415 1.97555 0
M  V30 15845 H 1470.9 -2.9544 2.50587 0
M  V30 15846 H 1471.32 -2.41905 4.65384 0
M  V30 15847 H 1472.79 -3.93805 3.8681 0
M  V30 15848 H 1473.27 -3.81487 2.17634 0
M  V30 15849 H 1473.87 -2.62221 3.34844 0
M  V30 15850 N 1472.19 -1.41197 -0.700089 0
M  V30 15851 C 1473.1 -1.45038 -1.84394 0
M  V30 15852 C 1474.11 -0.34141 -1.70618 0
M  V30 15853 O 1475.29 -0.588428 -1.92612 0
M  V30 15854 C 1472.35 -1.32611 -3.20336 0
M  V30 15855 C 1471.42 -2.53784 -3.46254 0
M  V30 15856 C 1470.65 -2.4194 -4.75711 0
M  V30 15857 O 1470.87 -1.44153 -5.51884 0
M  V30 15858 O 1469.81 -3.31613 -5.02311 0
M  V30 15859 H 1473.63 -2.41531 -1.8411 0
M  V30 15860 H 1471.22 -1.22686 -0.852558 0
M  V30 15861 H 1473.1 -1.27947 -4.01507 0
M  V30 15862 H 1471.77 -0.392309 -3.21314 0
M  V30 15863 H 1470.68 -2.64024 -2.65032 0
M  V30 15864 H 1472.01 -3.45977 -3.50087 0
M  V30 15865 N 1473.67 0.933891 -1.2695 0
M  V30 15866 C 1474.61 2.05498 -1.08964 0
M  V30 15867 C 1475.61 1.69394 -0.0144837 0
M  V30 15868 O 1476.81 1.79179 -0.171729 0
M  V30 15869 H 1473.19 0.672978 -0.335566 0
M  V30 15870 H 1475.16 2.17817 -2.03957 0
M  V30 15871 C 1473.91 3.39579 -0.747074 0
M  V30 15872 H 1473.23 3.67842 -1.56628 0
M  V30 15873 H 1474.67 4.18815 -0.661064 0
M  V30 15874 C 1473.13 3.3241 0.548214 0
M  V30 15875 O 1473.66 3.69132 1.58443 0
M  V30 15876 N 1471.87 2.85509 0.541545 0
M  V30 15877 H 1471.41 2.55822 -0.302112 0
M  V30 15878 H 1471.37 2.81095 1.4083 0
M  V30 15879 N 1475.14 1.08871 1.13951 0
M  V30 15880 C 1476.39 0.816198 1.84448 0
M  V30 15881 C 1476.71 -0.660396 1.84114 0
M  V30 15882 O 1477.91 -1.04825 2.50448 0
M  V30 15883 C 1476.37 1.41015 3.31123 0
M  V30 15884 C 1475.98 2.91888 3.39861 0
M  V30 15885 C 1477.72 1.21633 4.06701 0
M  V30 15886 C 1475.63 3.44397 4.80775 0
M  V30 15887 H 1474.56 0.301662 0.691025 0
M  V30 15888 H 1477.21 1.31072 1.28423 0
M  V30 15889 H 1475.59 0.843333 3.86916 0
M  V30 15890 H 1476.76 3.54747 2.94094 0
M  V30 15891 H 1475.08 3.10238 2.77743 0
M  V30 15892 H 1477.68 1.58324 5.10723 0
M  V30 15893 H 1478.02 0.156519 4.16006 0
M  V30 15894 H 1478.55 1.75035 3.57222 0
M  V30 15895 H 1475.29 4.49973 4.7666 0
M  V30 15896 H 1474.81 2.86299 5.27061 0
M  V30 15897 H 1476.49 3.41266 5.49679 0
M  V30 15898 N 1476.62 -1.31073 0.875073 0
M  V30 15899 C 1478.03 -1.78707 0.540422 0
M  V30 15900 C 1478.38 -1.72056 -0.942935 0
M  V30 15901 O 1477.51 -1.29139 -1.73643 0
M  V30 15902 C 1478.1 -3.24491 0.974203 0
M  V30 15903 C 1476.66 -3.70001 0.691127 0
M  V30 15904 C 1475.81 -2.51748 1.16269 0
M  V30 15905 H 1478.76 -1.18083 1.06029 0
M  V30 15906 H 1478.78 -3.79323 0.299003 0
M  V30 15907 H 1478.29 -3.29301 2.05384 0
M  V30 15908 H 1476.39 -3.70688 -0.376937 0
M  V30 15909 H 1476.51 -4.61913 1.27173 0
M  V30 15910 H 1474.87 -2.47954 0.582302 0
M  V30 15911 H 1475.65 -2.59299 2.24986 0
M  V30 15912 N 1478.1 -0.635022 -1.4424 0
M  V30 15913 C 1479.35 -0.141276 -2.02307 0
M  V30 15914 C 1479.68 1.23508 -1.49865 0
M  V30 15915 O 1478.95 1.82065 -0.684291 0
M  V30 15916 C 1479.24 -0.132196 -3.59857 0
M  V30 15917 C 1479.09 -1.54117 -4.22573 0
M  V30 15918 C 1480.41 0.541186 -4.3676 0
M  V30 15919 H 1477.53 -0.0528117 -0.735105 0
M  V30 15920 H 1480.17 -0.812239 -1.71763 0
M  V30 15921 H 1478.32 0.439156 -3.8601 0
M  V30 15922 H 1479.99 -2.16171 -4.07514 0
M  V30 15923 H 1478.24 -2.09389 -3.79919 0
M  V30 15924 H 1478.91 -1.48682 -5.31599 0
M  V30 15925 H 1481.38 0.0552603 -4.16063 0
M  V30 15926 H 1480.26 0.516742 -5.46462 0
M  V30 15927 H 1480.52 1.61222 -4.11655 0
M  V30 15928 N 1479.58 1.53054 -0.375806 0
M  V30 15929 C 1480.53 2.22837 0.482477 0
M  V30 15930 C 1481.51 1.22728 1.04051 0
M  V30 15931 O 1482.7 1.48129 0.968854 0
M  V30 15932 C 1479.83 3.02869 1.61634 0
M  V30 15933 C 1478.92 4.10362 1.07069 0
M  V30 15934 N 1479.31 5.05187 0.248878 0
M  V30 15935 C 1477.61 4.25251 1.34452 0
M  V30 15936 C 1478.31 5.81678 -0.0510458 0
M  V30 15937 N 1477.29 5.40817 0.549318 0
M  V30 15938 H 1481.09 2.93506 -0.1521 0
M  V30 15939 H 1478.6 1.6135 -0.184373 0
M  V30 15940 H 1480.6 3.51387 2.24349 0
M  V30 15941 H 1479.26 2.33732 2.25387 0
M  V30 15942 H 1480.27 5.17777 -0.112766 0
M  V30 15943 H 1476.95 3.67342 1.98408 0
M  V30 15944 H 1478.34 6.68073 -0.716061 0
M  V30 15945 N 1481.06 0.105248 1.57248 0
M  V30 15946 C 1481.99 -0.846915 2.176 0
M  V30 15947 C 1482.97 -1.28706 1.11216 0
M  V30 15948 O 1484.15 -1.35213 1.39396 0
M  V30 15949 C 1481.28 -2.10228 2.76445 0
M  V30 15950 C 1480.24 -1.80041 3.8829 0
M  V30 15951 C 1479.56 -3.12491 4.33882 0
M  V30 15952 C 1480.86 -1.07943 5.11024 0
M  V30 15953 H 1482.56 -0.344052 2.97417 0
M  V30 15954 H 1480.1 -0.164045 1.43063 0
M  V30 15955 H 1482.06 -2.77284 3.17319 0
M  V30 15956 H 1480.78 -2.62815 1.93897 0
M  V30 15957 H 1479.44 -1.15379 3.4797 0
M  V30 15958 H 1479.09 -3.62985 3.48211 0
M  V30 15959 H 1478.79 -2.93072 5.09296 0
M  V30 15960 H 1480.31 -3.80688 4.77398 0
M  V30 15961 H 1481.72 -1.65127 5.49004 0
M  V30 15962 H 1480.12 -0.986674 5.91933 0
M  V30 15963 H 1481.19 -0.0638511 4.84858 0
M  V30 15964 N 1482.53 -1.56697 -0.168486 0
M  V30 15965 C 1483.95 -1.71808 -0.730674 0
M  V30 15966 C 1484.3 -0.716224 -1.8266 0
M  V30 15967 O 1483.42 0.121803 -2.16057 0
M  V30 15968 C 1484.02 -3.1151 -1.33217 0
M  V30 15969 C 1482.58 -3.28297 -1.84115 0
M  V30 15970 C 1481.72 -2.67757 -0.72122 0
M  V30 15971 H 1484.67 -1.58598 0.0569421 0
M  V30 15972 H 1484.69 -3.10318 -2.20189 0
M  V30 15973 H 1484.21 -3.84404 -0.53431 0
M  V30 15974 H 1482.31 -2.60364 -2.66536 0
M  V30 15975 H 1482.42 -4.3606 -1.98464 0
M  V30 15976 H 1480.78 -2.27644 -1.14239 0
M  V30 15977 H 1481.57 -3.43239 0.0648388 0
M  V30 15978 N 1484.01 0.437135 -1.51416 0
M  V30 15979 C 1484.96 1.55124 -1.73319 0
M  V30 15980 C 1485.95 1.58437 -0.599511 0
M  V30 15981 O 1487.16 1.62179 -0.780896 0
M  V30 15982 H 1483.54 0.515368 -0.547632 0
M  V30 15983 H 1485.51 1.33824 -2.66709 0
M  V30 15984 C 1484.26 2.92778 -1.87554 0
M  V30 15985 H 1483.58 2.9096 -2.74194 0
M  V30 15986 H 1485.02 3.70097 -2.06891 0
M  V30 15987 C 1483.48 3.30854 -0.635408 0
M  V30 15988 O 1484.01 4.01152 0.20983 0
M  V30 15989 N 1482.21 2.86618 -0.47944 0
M  V30 15990 H 1481.76 2.29582 -1.16834 0
M  V30 15991 H 1481.72 3.12456 0.349078 0
M  V30 15992 N 1485.49 1.41566 0.692592 0
M  V30 15993 C 1486.74 1.40381 1.44831 0
M  V30 15994 C 1487.05 0.0172068 1.95592 0
M  V30 15995 O 1488.26 -0.11726 2.71247 0
M  V30 15996 C 1486.71 2.46844 2.61908 0
M  V30 15997 C 1486.32 3.91426 2.17921 0
M  V30 15998 C 1488.07 2.548 3.39525 0
M  V30 15999 C 1485.97 4.89436 3.31974 0
M  V30 16000 H 1484.9 0.522062 0.544028 0
M  V30 16001 H 1487.55 1.67402 0.751589 0
M  V30 16002 H 1485.94 2.12959 3.33863 0
M  V30 16003 H 1487.11 4.34575 1.53236 0
M  V30 16004 H 1485.43 3.87158 1.5329 0
M  V30 16005 H 1488.02 3.25207 4.24434 0
M  V30 16006 H 1488.37 1.58579 3.84913 0
M  V30 16007 H 1488.9 2.87791 2.74629 0
M  V30 16008 H 1485.64 5.87071 2.91595 0
M  V30 16009 H 1485.16 4.50933 3.95499 0
M  V30 16010 H 1486.84 5.10331 3.97708 0
M  V30 16011 N 1486.97 -0.927146 1.27443 0
M  V30 16012 C 1487.9 -2.03209 1.06013 0
M  V30 16013 C 1488.91 -1.62792 0.016041 0
M  V30 16014 O 1490.1 -1.76631 0.25766 0
M  V30 16015 C 1487.2 -3.33791 0.586225 0
M  V30 16016 C 1486.38 -4.02897 1.70273 0
M  V30 16017 C 1485.43 -5.11755 1.22447 0
M  V30 16018 O 1484.46 -5.35688 1.92423 0
M  V30 16019 N 1485.66 -5.80444 0.0804162 0
M  V30 16020 H 1488.43 -2.22155 2.01165 0
M  V30 16021 H 1485.99 -1.09757 1.19017 0
M  V30 16022 H 1487.98 -4.03926 0.250161 0
M  V30 16023 H 1486.55 -3.11414 -0.272076 0
M  V30 16024 H 1485.77 -3.26489 2.20905 0
M  V30 16025 H 1487.06 -4.45816 2.45205 0
M  V30 16026 H 1486.46 -5.63454 -0.503635 0
M  V30 16027 H 1485.01 -6.51504 -0.196466 0
M  V30 16028 N 1488.45 -1.09474 -1.13372 0
M  V30 16029 C 1489.41 -0.738173 -2.16988 0
M  V30 16030 C 1490.41 0.232488 -1.5911 0
M  V30 16031 O 1491.6 0.0106093 -1.74197 0
M  V30 16032 C 1488.73 -0.091724 -3.40777 0
M  V30 16033 H 1489.92 -1.65582 -2.50045 0
M  V30 16034 H 1487.48 -0.893994 -1.28209 0
M  V30 16035 H 1488.21 0.837129 -3.13309 0
M  V30 16036 H 1488 -0.790161 -3.84056 0
M  V30 16037 H 1489.49 0.142334 -4.17357 0
M  V30 16038 N 1489.92 1.30607 -0.882012 0
M  V30 16039 C 1490.85 2.30666 -0.362706 0
M  V30 16040 C 1491.84 1.60865 0.552861 0
M  V30 16041 O 1493.02 1.88493 0.467339 0
M  V30 16042 C 1490.15 3.44675 0.42622 0
M  V30 16043 C 1489.1 4.26152 -0.397322 0
M  V30 16044 C 1488.43 5.32185 0.518027 0
M  V30 16045 C 1489.73 4.95955 -1.63785 0
M  V30 16046 H 1491.42 2.74351 -1.19883 0
M  V30 16047 H 1488.97 1.31895 -0.577912 0
M  V30 16048 H 1490.92 4.13734 0.80013 0
M  V30 16049 H 1489.65 2.99787 1.29597 0
M  V30 16050 H 1488.31 3.58776 -0.753332 0
M  V30 16051 H 1487.95 4.83545 1.3854 0
M  V30 16052 H 1487.65 5.87593 -0.0291802 0
M  V30 16053 H 1489.18 6.04101 0.888518 0
M  V30 16054 H 1490.59 5.57547 -1.3347 0
M  V30 16055 H 1488.99 5.61215 -2.12504 0
M  V30 16056 H 1490.06 4.22252 -2.38394 0
M  V30 16057 N 1491.4 0.642663 1.43901 0
M  V30 16058 C 1492.35 -0.0553351 2.30734 0
M  V30 16059 C 1493.32 -0.825286 1.44147 0
M  V30 16060 O 1494.5 -0.804012 1.73033 0
M  V30 16061 C 1491.64 -1.02306 3.29587 0
M  V30 16062 C 1490.76 -0.250323 4.31274 0
M  V30 16063 C 1489.89 -1.2109 5.17214 0
M  V30 16064 C 1488.93 -0.427984 6.10602 0
M  V30 16065 N 1488.07 -1.33961 6.89202 0
M  V30 16066 H 1492.91 0.691038 2.89877 0
M  V30 16067 H 1490.45 0.352549 1.42813 0
M  V30 16068 H 1492.4 -1.59763 3.85398 0
M  V30 16069 H 1491.03 -1.73643 2.72117 0
M  V30 16070 H 1490.09 0.440359 3.77843 0
M  V30 16071 H 1491.4 0.358937 4.97507 0
M  V30 16072 H 1490.55 -1.85644 5.776 0
M  V30 16073 H 1489.29 -1.85408 4.51082 0
M  V30 16074 H 1488.3 0.230971 5.49315 0
M  V30 16075 H 1489.52 0.210639 6.78773 0
M  V30 16076 H 1487.47 -1.96978 6.25728 0
M  V30 16077 H 1487.38 -0.784655 7.51917 0
M  V30 16078 H 1488.65 -1.97363 7.54101 0
M  V30 16079 N 1492.88 -1.52852 0.383918 0
M  V30 16080 C 1493.79 -2.3002 -0.461298 0
M  V30 16081 C 1494.81 -1.36717 -1.07631 0
M  V30 16082 O 1495.98 -1.69784 -1.08329 0
M  V30 16083 C 1493.05 -3.08804 -1.57609 0
M  V30 16084 C 1492.11 -4.17806 -0.986737 0
M  V30 16085 C 1491.34 -4.92825 -2.04841 0
M  V30 16086 O 1491.57 -4.67879 -3.26259 0
M  V30 16087 O 1490.5 -5.78306 -1.66871 0
M  V30 16088 H 1494.33 -3.03239 0.167189 0
M  V30 16089 H 1491.91 -1.48667 0.147781 0
M  V30 16090 H 1493.79 -3.57943 -2.22384 0
M  V30 16091 H 1492.47 -2.38404 -2.18964 0
M  V30 16092 H 1491.37 -3.72876 -0.302396 0
M  V30 16093 H 1492.71 -4.90426 -0.417481 0
M  V30 16094 N 1494.36 -0.113586 -1.5719 0
M  V30 16095 C 1495.32 0.824258 -2.13866 0
M  V30 16096 C 1496.32 1.19831 -1.07224 0
M  V30 16097 O 1497.51 1.12471 -1.33026 0
M  V30 16098 C 1494.64 2.11391 -2.67445 0
M  V30 16099 H 1495.84 0.331803 -2.98059 0
M  V30 16100 H 1493.39 0.135599 -1.55711 0
M  V30 16101 H 1494.13 2.65079 -1.86824 0
M  V30 16102 H 1493.91 1.85523 -3.45433 0
M  V30 16103 H 1495.4 2.78443 -3.11222 0
M  V30 16104 N 1495.84 1.56784 0.160173 0
M  V30 16105 C 1496.77 2.00298 1.20012 0
M  V30 16106 C 1497.75 0.880356 1.45546 0
M  V30 16107 O 1498.93 1.14724 1.56691 0
M  V30 16108 C 1496.06 2.37238 2.53645 0
M  V30 16109 C 1495.02 3.52563 2.42658 0
M  V30 16110 C 1494.34 3.75278 3.80881 0
M  V30 16111 C 1495.64 4.85657 1.92183 0
M  V30 16112 H 1497.34 2.87423 0.838362 0
M  V30 16113 H 1494.88 1.3828 0.401838 0
M  V30 16114 H 1496.84 2.66278 3.2661 0
M  V30 16115 H 1495.56 1.47035 2.9163 0
M  V30 16116 H 1494.22 3.23669 1.72146 0
M  V30 16117 H 1493.87 2.82347 4.1628 0
M  V30 16118 H 1493.57 4.52882 3.74396 0
M  V30 16119 H 1495.09 4.0673 4.55415 0
M  V30 16120 H 1496.51 5.13501 2.54931 0
M  V30 16121 H 1494.9 5.66975 1.96619 0
M  V30 16122 H 1495.97 4.76908 0.876742 0
M  V30 16123 N 1497.32 -0.429099 1.51646 0
M  V30 16124 C 1498.54 -1.20006 1.68541 0
M  V30 16125 C 1498.96 -1.84806 0.386264 0
M  V30 16126 O 1498.32 -1.7106 -0.635988 0
M  V30 16127 C 1498.37 -2.27801 2.80694 0
M  V30 16128 O 1498.09 -1.65649 4.05576 0
M  V30 16129 C 1499.59 -3.17927 3.08929 0
M  V30 16130 H 1496.81 -0.361388 0.565367 0
M  V30 16131 H 1499.35 -0.507432 1.98104 0
M  V30 16132 H 1497.51 -2.92766 2.53706 0
M  V30 16133 H 1497.92 -2.36955 4.67924 0
M  V30 16134 H 1499.4 -3.8968 3.90965 0
M  V30 16135 H 1499.87 -3.79157 2.21668 0
M  V30 16136 H 1500.48 -2.58654 3.37606 0
M  V30 16137 N 1498.79 -1.41931 -0.685074 0
M  V30 16138 C 1499.74 -1.44604 -1.79884 0
M  V30 16139 C 1500.71 -0.299166 -1.63384 0
M  V30 16140 O 1501.9 -0.501749 -1.84085 0
M  V30 16141 C 1499.04 -1.3442 -3.17845 0
M  V30 16142 C 1498.15 -2.59061 -3.45704 0
M  V30 16143 C 1497.28 -2.41094 -4.73336 0
M  V30 16144 C 1496.32 -3.61159 -4.94197 0
M  V30 16145 N 1495.46 -3.42198 -6.13062 0
M  V30 16146 H 1500.3 -2.39788 -1.76934 0
M  V30 16147 H 1497.84 -1.1906 -0.863891 0
M  V30 16148 H 1499.79 -1.26515 -3.97555 0
M  V30 16149 H 1498.42 -0.42838 -3.19945 0
M  V30 16150 H 1497.48 -2.77374 -2.60322 0
M  V30 16151 H 1498.79 -3.48341 -3.57016 0
M  V30 16152 H 1497.94 -2.30717 -5.61119 0
M  V30 16153 H 1496.68 -1.49288 -4.64289 0
M  V30 16154 H 1495.69 -3.7198 -4.04859 0
M  V30 16155 H 1496.91 -4.53933 -5.05096 0
M  V30 16156 H 1494.86 -2.531 -6.05208 0
M  V30 16157 H 1494.77 -4.25059 -6.25189 0
M  V30 16158 H 1496.04 -3.35612 -7.03551 0
M  V30 16159 N 1500.27 0.920374 -1.27933 0
M  V30 16160 C 1501.23 2.0035 -1.11321 0
M  V30 16161 C 1502.23 1.60706 -0.0549132 0
M  V30 16162 O 1503.42 1.71595 -0.300134 0
M  V30 16163 C 1500.56 3.33681 -0.69782 0
M  V30 16164 H 1501.75 2.16518 -2.07509 0
M  V30 16165 H 1499.3 1.10216 -1.10825 0
M  V30 16166 H 1500.04 3.23214 0.265122 0
M  V30 16167 H 1499.82 3.63815 -1.46223 0
M  V30 16168 H 1501.31 4.13208 -0.604048 0
M  V30 16169 N 1501.75 1.10074 1.1279 0
M  V30 16170 C 1502.68 0.704023 2.1812 0
M  V30 16171 C 1503.69 -0.25742 1.60752 0
M  V30 16172 O 1504.88 -0.0424559 1.7845 0
M  V30 16173 C 1501.98 0.0176666 3.38895 0
M  V30 16174 C 1501.16 1.00234 4.2576 0
M  V30 16175 C 1500.22 0.348158 5.25047 0
M  V30 16176 O 1499.24 0.997821 5.60386 0
M  V30 16177 N 1500.44 -0.894955 5.7356 0
M  V30 16178 H 1503.21 1.61024 2.52767 0
M  V30 16179 H 1500.77 0.989068 1.28176 0
M  V30 16180 H 1502.76 -0.431346 4.02395 0
M  V30 16181 H 1501.33 -0.7909 3.02429 0
M  V30 16182 H 1500.55 1.62972 3.58934 0
M  V30 16183 H 1501.84 1.669 4.80647 0
M  V30 16184 H 1501.24 -1.4422 5.47007 0
M  V30 16185 H 1499.79 -1.28718 6.38964 0
M  V30 16186 N 1503.23 -1.30138 0.888926 0
M  V30 16187 C 1504.19 -2.26299 0.363504 0
M  V30 16188 C 1505.19 -1.52951 -0.496244 0
M  V30 16189 O 1506.38 -1.71548 -0.302834 0
M  V30 16190 C 1503.51 -3.37482 -0.481544 0
M  V30 16191 H 1504.71 -2.7429 1.21265 0
M  V30 16192 H 1502.26 -1.41395 0.666124 0
M  V30 16193 H 1502.99 -2.94814 -1.35112 0
M  V30 16194 H 1502.78 -3.9187 0.134344 0
M  V30 16195 H 1504.27 -4.09048 -0.840816 0
M  V30 16196 N 1504.71 -0.650285 -1.43559 0
M  V30 16197 C 1505.95 -0.171315 -2.02677 0
M  V30 16198 C 1506.31 1.20031 -1.50367 0
M  V30 16199 O 1505.6 1.78901 -0.685922 0
M  V30 16200 C 1505.79 -0.119084 -3.57202 0
M  V30 16201 C 1505.62 -1.4841 -4.24505 0
M  V30 16202 C 1504.39 -2.07575 -4.60696 0
M  V30 16203 C 1506.59 -2.42191 -4.53705 0
M  V30 16204 N 1504.57 -3.37112 -5.13058 0
M  V30 16205 C 1505.94 -3.56359 -5.07354 0
M  V30 16206 C 1508 -2.4103 -4.35671 0
M  V30 16207 C 1506.7 -4.69587 -5.44868 0
M  V30 16208 C 1508.73 -3.53336 -4.74244 0
M  V30 16209 C 1508.09 -4.66229 -5.28024 0
M  V30 16210 H 1504.19 -0.107051 -0.774638 0
M  V30 16211 H 1506.77 -0.857951 -1.74778 0
M  V30 16212 H 1504.94 0.536887 -3.84671 0
M  V30 16213 H 1506.68 0.370487 -4.03001 0
M  V30 16214 H 1503.43 -1.60315 -4.45641 0
M  V30 16215 H 1503.85 -4.03392 -5.43695 0
M  V30 16216 H 1508.5 -1.54988 -3.93368 0
M  V30 16217 H 1506.21 -5.56322 -5.86115 0
M  V30 16218 H 1509.8 -3.53636 -4.61988 0
M  V30 16219 H 1508.68 -5.51693 -5.57319 0
M  V30 16220 N 1506.18 1.52647 -0.392018 0
M  V30 16221 C 1507.43 2.00798 0.19056 0
M  V30 16222 C 1507.75 1.28265 1.47673 0
M  V30 16223 O 1508.95 1.67142 2.13953 0
M  V30 16224 C 1507.41 3.57779 0.390148 0
M  V30 16225 C 1507.02 4.39213 -0.882933 0
M  V30 16226 C 1508.76 4.14211 0.928945 0
M  V30 16227 C 1506.67 5.87801 -0.651474 0
M  V30 16228 H 1505.6 0.750262 0.0749879 0
M  V30 16229 H 1508.25 1.7613 -0.514835 0
M  V30 16230 H 1506.63 3.78707 1.15746 0
M  V30 16231 H 1507.8 4.30051 -1.65507 0
M  V30 16232 H 1506.12 3.94015 -1.34688 0
M  V30 16233 H 1508.72 5.22884 1.11787 0
M  V30 16234 H 1509.06 3.70475 1.89878 0
M  V30 16235 H 1509.59 3.97185 0.221135 0
M  V30 16236 H 1506.33 6.35864 -1.59239 0
M  V30 16237 H 1505.85 5.99744 0.0816786 0
M  V30 16238 H 1507.53 6.46363 -0.287057 0
M  V30 16239 N 1507.66 0.121921 1.57128 0
M  V30 16240 C 1508.63 -0.812905 2.143 0
M  V30 16241 C 1509.63 -1.19261 1.07858 0
M  V30 16242 O 1510.82 -1.11764 1.33621 0
M  V30 16243 C 1507.95 -2.09969 2.68562 0
M  V30 16244 H 1509.14 -0.315992 2.98231 0
M  V30 16245 H 1506.69 -0.12734 1.5578 0
M  V30 16246 H 1507.43 -2.64085 1.88228 0
M  V30 16247 H 1507.21 -1.83688 3.46412 0
M  V30 16248 H 1508.7 -2.76788 3.12695 0
M  V30 16249 N 1509.14 -1.56867 -0.151857 0
M  V30 16250 C 1510.42 -1.7399 -0.893694 0
M  V30 16251 C 1510.8 -0.688628 -1.99552 0
M  V30 16252 O 1510.15 0.293289 -2.2661 0
M  V30 16253 C 1510.36 -3.1788 -1.44061 0
M  V30 16254 C 1511.7 -3.7942 -1.90592 0
M  V30 16255 O 1512.73 -3.21279 -1.53813 0
M  V30 16256 O 1511.59 -4.81549 -2.58404 0
M  V30 16257 H 1508.68 -0.711229 -0.421998 0
M  V30 16258 H 1511.23 -1.69137 -0.138162 0
M  V30 16259 H 1510 -3.85888 -0.648529 0
M  V30 16260 H 1509.62 -3.27139 -2.25978 0
M  V30 16261 N 1510.62 0.421051 -1.51871 0
M  V30 16262 C 1511.86 1.17082 -1.65589 0
M  V30 16263 C 1512.2 1.90469 -0.378861 0
M  V30 16264 O 1511.47 1.84277 0.622259 0
M  V30 16265 C 1511.76 2.17483 -2.87007 0
M  V30 16266 C 1511.61 1.48071 -4.24729 0
M  V30 16267 C 1512.93 3.18288 -3.03942 0
M  V30 16268 H 1510.05 0.424284 -0.602621 0
M  V30 16269 H 1512.69 0.457998 -1.84397 0
M  V30 16270 H 1510.84 2.78273 -2.71102 0
M  V30 16271 H 1512.51 0.904926 -4.52337 0
M  V30 16272 H 1510.75 0.782814 -4.26678 0
M  V30 16273 H 1511.42 2.21272 -5.0571 0
M  V30 16274 H 1513.9 2.67565 -3.18666 0
M  V30 16275 H 1512.78 3.85815 -3.90433 0
M  V30 16276 H 1513.04 3.85333 -2.16728 0
M  V30 16277 N 1512.1 1.42293 0.677538 0
M  V30 16278 C 1513.37 1.331 1.43331 0
M  V30 16279 C 1513.75 -0.0329227 2.11074 0
M  V30 16280 O 1513.1 -1.04826 2.03036 0
M  V30 16281 C 1513.31 2.49725 2.438 0
M  V30 16282 C 1514.66 2.91716 3.08524 0
M  V30 16283 O 1515.68 2.49596 2.54127 0
M  V30 16284 O 1514.54 3.64609 4.07091 0
M  V30 16285 H 1511.64 0.524758 0.639185 0
M  V30 16286 H 1514.18 1.54294 0.706493 0
M  V30 16287 H 1512.95 3.40663 1.92522 0
M  V30 16288 H 1512.58 2.30503 3.23966 0
M  V30 16289 N 1513.57 -0.913576 1.28419 0
M  V30 16290 C 1514.48 -2.04922 1.14211 0
M  V30 16291 C 1515.5 -1.73865 0.0686424 0
M  V30 16292 O 1516.68 -1.99473 0.277968 0
M  V30 16293 C 1513.74 -3.37214 0.805445 0
M  V30 16294 C 1512.8 -3.81879 1.96129 0
M  V30 16295 C 1512.04 -5.07858 1.6406 0
M  V30 16296 O 1512.26 -5.67693 0.555032 0
M  V30 16297 O 1511.19 -5.4824 2.48428 0
M  V30 16298 H 1515.02 -2.19827 2.09547 0
M  V30 16299 H 1512.6 -1.03501 1.0774 0
M  V30 16300 H 1514.49 -4.16639 0.631648 0
M  V30 16301 H 1513.16 -3.23484 -0.118254 0
M  V30 16302 H 1512.07 -3.03281 2.19024 0
M  V30 16303 H 1513.4 -4.00173 2.8657 0
M  V30 16304 N 1515.05 -1.1067 -1.12204 0
M  V30 16305 C 1516.3 -0.845439 -1.83126 0
M  V30 16306 C 1516.61 0.631022 -1.85142 0
M  V30 16307 O 1517.82 1.00827 -2.52084 0
M  V30 16308 C 1516.28 -1.46265 -3.28838 0
M  V30 16309 C 1515.88 -2.97258 -3.35174 0
M  V30 16310 C 1517.63 -1.28088 -4.04714 0
M  V30 16311 C 1515.54 -3.52002 -4.75235 0
M  V30 16312 H 1514.47 -0.312617 -0.686139 0
M  V30 16313 H 1517.12 -1.33098 -1.26321 0
M  V30 16314 H 1515.5 -0.904781 -3.85525 0
M  V30 16315 H 1516.67 -3.59381 -2.88413 0
M  V30 16316 H 1514.99 -3.14617 -2.72773 0
M  V30 16317 H 1517.58 -1.6643 -5.08139 0
M  V30 16318 H 1517.93 -0.222682 -4.15704 0
M  V30 16319 H 1518.46 -1.80696 -3.54392 0
M  V30 16320 H 1515.2 -4.57499 -4.69441 0
M  V30 16321 H 1514.72 -2.94648 -5.22439 0
M  V30 16322 H 1516.4 -3.49967 -5.4418 0
M  V30 16323 N 1516.53 1.29665 -0.895815 0
M  V30 16324 C 1517.46 2.26842 -0.327939 0
M  V30 16325 C 1518.48 1.54151 0.523578 0
M  V30 16326 O 1519.66 1.75205 0.341367 0
M  V30 16327 C 1516.76 3.34384 0.551393 0
M  V30 16328 C 1515.94 4.36544 -0.273514 0
M  V30 16329 C 1515 5.23442 0.538031 0
M  V30 16330 O 1514.02 5.69184 -0.0431025 0
M  V30 16331 N 1515.22 5.50402 1.84493 0
M  V30 16332 H 1517.99 2.76208 -1.16315 0
M  V30 16333 H 1515.55 1.42958 -0.759903 0
M  V30 16334 H 1517.54 3.89446 1.10062 0
M  V30 16335 H 1516.11 2.84864 1.28728 0
M  V30 16336 H 1515.33 3.81196 -1.00416 0
M  V30 16337 H 1516.62 5.01842 -0.838589 0
M  V30 16338 H 1516.02 5.15041 2.33985 0
M  V30 16339 H 1514.58 6.08295 2.34137 0
M  V30 16340 N 1518.01 0.657889 1.43212 0
M  V30 16341 C 1518.96 -0.0427288 2.32561 0
M  V30 16342 C 1519.95 -0.808236 1.48875 0
M  V30 16343 O 1521.16 -0.718109 1.65055 0
M  V30 16344 H 1517.53 -0.0326049 0.751293 0
M  V30 16345 H 1519.5 0.728503 2.89371 0
M  V30 16346 C 1518.25 -0.99216 3.33244 0
M  V30 16347 H 1517.57 -0.412542 3.97666 0
M  V30 16348 H 1519.01 -1.45138 3.98385 0
M  V30 16349 C 1517.47 -2.09044 2.64201 0
M  V30 16350 O 1518 -3.17481 2.46107 0
M  V30 16351 N 1516.21 -1.85732 2.23499 0
M  V30 16352 H 1515.76 -0.975483 2.38416 0
M  V30 16353 H 1515.71 -2.5941 1.77634 0
M  V30 16354 N 1519.49 -1.52437 0.400108 0
M  V30 16355 C 1520.73 -2.01312 -0.178252 0
M  V30 16356 C 1521.06 -1.28797 -1.46411 0
M  V30 16357 O 1520.33 -0.411211 -1.91536 0
M  V30 16358 H 1518.91 -0.743819 -0.0688613 0
M  V30 16359 H 1521.57 -1.87434 0.53428 0
M  V30 16360 H 1520.66 -3.09768 -0.380793 0
M  V30 16361 N 1520.96 -0.130252 -1.57061 0
M  V30 16362 C 1522.24 0.569171 -1.87136 0
M  V30 16363 C 1522.62 1.84078 -1.03337 0
M  V30 16364 O 1521.97 2.28208 -0.11543 0
M  V30 16365 C 1522.18 0.850782 -3.38471 0
M  V30 16366 C 1523.53 1.19892 -4.07322 0
M  V30 16367 O 1524.55 0.940682 -3.43554 0
M  V30 16368 O 1523.41 1.6841 -5.19904 0
M  V30 16369 H 1520.5 0.288433 -0.775071 0
M  V30 16370 H 1523.05 -0.165603 -1.6889 0
M  V30 16371 H 1521.82 -0.0498562 -3.91268 0
M  V30 16372 H 1521.45 1.64032 -3.62187 0
M  V30 16373 N 1522.44 1.56945 0.143535 0
M  V30 16374 C 1523.39 1.94945 1.18239 0
M  V30 16375 C 1524.38 0.821157 1.38368 0
M  V30 16376 O 1525.57 1.08465 1.39873 0
M  V30 16377 C 1522.7 2.33653 2.51518 0
M  V30 16378 C 1521.78 3.53061 2.34966 0
M  V30 16379 N 1522.18 4.69493 1.88176 0
M  V30 16380 C 1520.47 3.58213 2.65706 0
M  V30 16381 C 1521.17 5.51581 1.84751 0
M  V30 16382 N 1520.15 4.93386 2.28192 0
M  V30 16383 H 1523.95 2.82438 0.81278 0
M  V30 16384 H 1521.47 1.58549 0.351555 0
M  V30 16385 H 1523.46 2.59083 3.26621 0
M  V30 16386 H 1522.12 1.47513 2.89257 0
M  V30 16387 H 1523.13 4.93182 1.5809 0
M  V30 16388 H 1519.81 2.82622 3.07297 0
M  V30 16389 H 1521.2 6.54934 1.50038 0
M  V30 16390 N 1523.92 -0.412991 1.52093 0
M  V30 16391 C 1525.15 -1.1804 1.69558 0
M  V30 16392 C 1525.56 -1.84858 0.403007 0
M  V30 16393 O 1524.9 -1.72541 -0.630506 0
M  V30 16394 C 1524.96 -2.28876 2.7723 0
M  V30 16395 C 1524.63 -1.82226 4.19098 0
M  V30 16396 C 1525.63 -1.31216 5.03069 0
M  V30 16397 C 1523.31 -1.89177 4.65314 0
M  V30 16398 C 1525.3 -0.877743 6.31328 0
M  V30 16399 C 1522.99 -1.45347 5.93563 0
M  V30 16400 C 1523.99 -0.947302 6.76399 0
M  V30 16401 O 1523.68 -0.515315 8.02247 0
M  V30 16402 H 1523.41 -0.360882 0.571612 0
M  V30 16403 H 1525.96 -0.492521 1.99408 0
M  V30 16404 H 1524.19 -3.01015 2.42748 0
M  V30 16405 H 1525.88 -2.9065 2.83333 0
M  V30 16406 H 1526.65 -1.25221 4.68556 0
M  V30 16407 H 1522.53 -2.27518 4.00945 0
M  V30 16408 H 1526.07 -0.481977 6.95933 0
M  V30 16409 H 1521.97 -1.51019 6.27585 0
M  V30 16410 H 1522.74 -0.638973 8.16002 0
M  V30 16411 N 1525.4 -1.4265 -0.669982 0
M  V30 16412 C 1526.81 -1.38614 -1.25072 0
M  V30 16413 C 1527.16 -0.0818051 -1.96029 0
M  V30 16414 O 1526.29 0.81931 -2.0029 0
M  V30 16415 C 1526.88 -2.51085 -2.27469 0
M  V30 16416 C 1525.44 -2.50366 -2.81059 0
M  V30 16417 C 1524.59 -2.29632 -1.5545 0
M  V30 16418 H 1527.54 -1.51794 -0.463058 0
M  V30 16419 H 1527.56 -2.21612 -3.09303 0
M  V30 16420 H 1527.07 -3.46002 -1.75796 0
M  V30 16421 H 1525.17 -1.5928 -3.36839 0
M  V30 16422 H 1525.29 -3.47569 -3.29746 0
M  V30 16423 H 1523.65 -1.77982 -1.82193 0
M  V30 16424 H 1524.43 -3.26611 -1.05736 0
M  V30 16425 N 1526.88 0.906753 -1.28902 0
M  V30 16426 C 1528.12 1.67094 -1.17724 0
M  V30 16427 C 1528.48 1.90115 0.268373 0
M  V30 16428 O 1529.68 2.64052 0.502998 0
M  V30 16429 C 1527.95 2.98802 -1.96092 0
M  V30 16430 S 1529.51 3.89867 -2.01368 0
M  V30 16431 H 1526.33 0.573768 -0.419894 0
M  V30 16432 H 1528.93 1.07797 -1.63095 0
M  V30 16433 H 1527.64 2.79755 -3.00276 0
M  V30 16434 H 1527.17 3.63143 -1.51298 0
M  V30 16435 H 1529.18 4.83273 -1.12525 0
M  V30 16436 N 1528.36 1.11264 1.11616 0
M  V30 16437 C 1529.29 0.79149 2.19676 0
M  V30 16438 C 1530.27 -0.239351 1.68408 0
M  V30 16439 O 1531.45 -0.103228 1.93925 0
M  V30 16440 C 1528.58 0.231891 3.46525 0
M  V30 16441 C 1527.54 1.19439 4.10997 0
M  V30 16442 C 1526.86 0.495593 5.32398 0
M  V30 16443 C 1528.16 2.54437 4.56135 0
M  V30 16444 H 1529.86 1.69503 2.46797 0
M  V30 16445 H 1527.4 0.816433 1.18619 0
M  V30 16446 H 1529.35 -0.00497468 4.214 0
M  V30 16447 H 1528.08 -0.706938 3.18857 0
M  V30 16448 H 1526.74 1.41686 3.38113 0
M  V30 16449 H 1526.39 -0.447984 5.01001 0
M  V30 16450 H 1526.09 1.13753 5.76484 0
M  V30 16451 H 1527.61 0.267476 6.10014 0
M  V30 16452 H 1529.02 2.36289 5.22341 0
M  V30 16453 H 1527.42 3.14595 5.11028 0
M  V30 16454 H 1528.49 3.13795 3.69676 0
M  V30 16455 N 1529.83 -1.29188 0.902679 0
M  V30 16456 C 1531.11 -1.90365 0.449496 0
M  V30 16457 C 1531.49 -1.81911 -1.07105 0
M  V30 16458 O 1530.84 -1.24778 -1.91423 0
M  V30 16459 C 1531.05 -3.35324 0.967418 0
M  V30 16460 C 1532.4 -4.12342 1.0129 0
M  V30 16461 O 1533.42 -3.44239 0.915293 0
M  V30 16462 O 1532.28 -5.34048 1.15994 0
M  V30 16463 H 1529.37 -0.814956 0.140628 0
M  V30 16464 H 1531.92 -1.37633 0.992739 0
M  V30 16465 H 1530.69 -3.35646 2.0114 0
M  V30 16466 H 1530.31 -3.95539 0.404358 0
M  V30 16467 N 1531.31 -0.665475 -1.42861 0
M  V30 16468 C 1532.59 -0.113252 -1.95272 0
M  V30 16469 C 1532.97 1.36972 -1.6063 0
M  V30 16470 O 1532.32 2.10129 -0.897662 0
M  V30 16471 C 1532.53 -0.372482 -3.47007 0
M  V30 16472 C 1533.87 -0.283982 -4.23649 0
M  V30 16473 O 1534.9 -0.305714 -3.54886 0
M  V30 16474 O 1533.76 -0.218171 -5.46064 0
M  V30 16475 H 1530.85 0.00253712 -0.826996 0
M  V30 16476 H 1533.4 -0.739561 -1.52737 0
M  V30 16477 H 1532.17 -1.40015 -3.65392 0
M  V30 16478 H 1531.79 0.286294 -3.96568 0
M  V30 16479 N 1532.79 1.52222 -0.408187 0
M  V30 16480 C 1533.72 2.29892 0.408868 0
M  V30 16481 C 1534.7 1.34063 1.04695 0
M  V30 16482 O 1535.89 1.6297 1.05615 0
M  V30 16483 C 1533.02 3.11964 1.52629 0
M  V30 16484 C 1531.97 4.15833 1.01326 0
M  V30 16485 C 1531.3 4.86244 2.2242 0
M  V30 16486 C 1532.6 5.22256 0.0679573 0
M  V30 16487 H 1534.29 2.98443 -0.23923 0
M  V30 16488 H 1531.84 1.43528 -0.116496 0
M  V30 16489 H 1533.79 3.65067 2.10486 0
M  V30 16490 H 1532.51 2.41181 2.20225 0
M  V30 16491 H 1531.17 3.63739 0.4571 0
M  V30 16492 H 1530.82 4.11991 2.88569 0
M  V30 16493 H 1530.52 5.56461 1.88746 0
M  V30 16494 H 1532.04 5.42159 2.80885 0
M  V30 16495 H 1533.46 5.70604 0.555295 0
M  V30 16496 H 1531.85 5.9983 -0.179934 0
M  V30 16497 H 1532.92 4.76892 -0.877599 0
M  V30 16498 N 1534.27 0.138579 1.5699 0
M  V30 16499 C 1535.18 -0.817548 2.19894 0
M  V30 16500 C 1536.19 -1.27806 1.18075 0
M  V30 16501 O 1537.37 -1.33699 1.5062 0
M  V30 16502 C 1534.43 -2.04244 2.80152 0
M  V30 16503 C 1533.5 -1.63197 3.97071 0
M  V30 16504 C 1532.73 -2.79847 4.54446 0
M  V30 16505 O 1532.95 -3.95827 4.10703 0
M  V30 16506 O 1531.89 -2.55804 5.44838 0
M  V30 16507 H 1535.71 -0.312123 3.02092 0
M  V30 16508 H 1533.3 -0.0880281 1.4914 0
M  V30 16509 H 1535.18 -2.75945 3.18485 0
M  V30 16510 H 1533.85 -2.53755 2.00973 0
M  V30 16511 H 1532.76 -0.885448 3.6347 0
M  V30 16512 H 1534.09 -1.1841 4.77745 0
M  V30 16513 N 1535.75 -1.57019 -0.13521 0
M  V30 16514 C 1536.99 -1.83626 -0.844147 0
M  V30 16515 C 1537.31 -0.721298 -1.81169 0
M  V30 16516 O 1536.58 0.256095 -1.94219 0
M  V30 16517 H 1535.16 -0.677464 -0.314725 0
M  V30 16518 H 1537.83 -1.9449 -0.126399 0
M  V30 16519 H 1536.92 -2.78976 -1.39925 0
M  V30 16520 N 1537.22 0.404919 -1.52309 0
M  V30 16521 C 1538.15 1.50039 -1.78915 0
M  V30 16522 C 1539.14 1.57587 -0.640329 0
M  V30 16523 O 1540.32 1.72793 -0.886344 0
M  V30 16524 C 1537.45 2.87819 -1.94364 0
M  V30 16525 C 1536.4 2.9512 -3.09981 0
M  V30 16526 C 1535.73 4.35195 -3.10659 0
M  V30 16527 C 1537.03 2.66219 -4.4936 0
M  V30 16528 H 1538.72 1.28025 -2.70647 0
M  V30 16529 H 1536.27 0.61445 -1.30233 0
M  V30 16530 H 1538.22 3.64446 -2.11559 0
M  V30 16531 H 1536.95 3.11136 -0.993067 0
M  V30 16532 H 1535.61 2.20939 -2.92543 0
M  V30 16533 H 1535.25 4.55528 -2.13316 0
M  V30 16534 H 1534.95 4.41003 -3.88317 0
M  V30 16535 H 1536.48 5.1375 -3.29989 0
M  V30 16536 H 1537.89 3.32567 -4.66982 0
M  V30 16537 H 1536.29 2.83398 -5.28967 0
M  V30 16538 H 1537.36 1.61636 -4.57167 0
M  V30 16539 N 1538.7 1.43003 0.662408 0
M  V30 16540 C 1539.95 1.44346 1.4245 0
M  V30 16541 C 1540.28 0.064094 1.94094 0
M  V30 16542 O 1539.56 -0.913633 1.71706 0
M  V30 16543 C 1539.84 2.47822 2.61259 0
M  V30 16544 C 1539.69 3.94998 2.15166 0
M  V30 16545 C 1541.01 2.48139 3.63476 0
M  V30 16546 H 1538.13 0.525606 0.51663 0
M  V30 16547 H 1540.77 1.74495 0.751754 0
M  V30 16548 H 1538.92 2.22244 3.18653 0
M  V30 16549 H 1540.59 4.31601 1.62843 0
M  V30 16550 H 1538.84 4.0827 1.46622 0
M  V30 16551 H 1539.51 4.62998 3.00561 0
M  V30 16552 H 1541.98 2.70916 3.15823 0
M  V30 16553 H 1540.86 3.22498 4.44169 0
M  V30 16554 H 1541.12 1.51184 4.15447 0
M  V30 16555 N 1540.18 -0.899904 1.29381 0
M  V30 16556 C 1541.14 -1.98554 1.14494 0
M  V30 16557 C 1542.14 -1.60599 0.0804732 0
M  V30 16558 O 1543.33 -1.71096 0.327395 0
M  V30 16559 C 1540.47 -3.32529 0.750818 0
M  V30 16560 H 1541.66 -2.13189 2.10928 0
M  V30 16561 H 1539.21 -1.08438 1.12565 0
M  V30 16562 H 1539.95 -3.23595 -0.213668 0
M  V30 16563 H 1539.73 -3.61443 1.51992 0
M  V30 16564 H 1541.22 -4.12195 0.669709 0
M  V30 16565 N 1541.66 -1.11854 -1.11024 0
M  V30 16566 C 1542.9 -0.871362 -1.83126 0
M  V30 16567 C 1543.24 0.601437 -1.84652 0
M  V30 16568 O 1542.51 1.44427 -1.30273 0
M  V30 16569 C 1542.8 -1.4391 -3.30094 0
M  V30 16570 C 1542.65 -2.97983 -3.36937 0
M  V30 16571 C 1543.97 -1.09361 -4.26296 0
M  V30 16572 H 1541.09 -0.317994 -0.664867 0
M  V30 16573 H 1543.73 -1.38414 -1.3016 0
M  V30 16574 H 1541.88 -1.00297 -3.7533 0
M  V30 16575 H 1543.55 -3.50231 -3.00227 0
M  V30 16576 H 1541.79 -3.33827 -2.77023 0
M  V30 16577 H 1542.46 -3.32797 -4.40398 0
M  V30 16578 H 1544.94 -1.47018 -3.89262 0
M  V30 16579 H 1543.82 -1.51756 -5.27505 0
M  V30 16580 H 1544.08 -0.0049637 -4.421 0
M  V30 16581 N 1543.14 1.28707 -0.909517 0
M  V30 16582 C 1544.38 1.94768 -0.539413 0
M  V30 16583 C 1544.71 1.7198 0.919133 0
M  V30 16584 O 1543.98 1.0571 1.64931 0
M  V30 16585 H 1542.56 0.720693 -0.196496 0
M  V30 16586 H 1545.22 1.56772 -1.15795 0
M  V30 16587 H 1544.31 3.03436 -0.730281 0
M  V30 16588 N 1544.61 0.673042 1.42506 0
M  V30 16589 C 1546.03 0.342429 1.55883 0
M  V30 16590 C 1546.23 -1.15229 1.65302 0
M  V30 16591 O 1545.29 -1.93767 1.61897 0
M  V30 16592 C 1546.6 1.0712 2.80973 0
M  V30 16593 C 1548.15 1.05336 2.94743 0
M  V30 16594 C 1548.62 1.76342 4.22691 0
M  V30 16595 N 1550.11 1.73201 4.29599 0
M  V30 16596 C 1550.85 2.25 5.27411 0
M  V30 16597 N 1550.34 2.85173 6.31386 0
M  V30 16598 N 1552.14 2.15385 5.19197 0
M  V30 16599 H 1544.29 1.64277 1.34636 0
M  V30 16600 H 1546.55 0.691984 0.647968 0
M  V30 16601 H 1546.26 2.1263 2.80145 0
M  V30 16602 H 1546.13 0.635313 3.71811 0
M  V30 16603 H 1548.52 0.00659669 2.95099 0
M  V30 16604 H 1548.6 1.52811 2.0514 0
M  V30 16605 H 1548.24 2.80985 4.23096 0
M  V30 16606 H 1548.17 1.26317 5.11225 0
M  V30 16607 H 1550.66 1.2931 3.55088 0
M  V30 16608 H 1550.98 3.22323 7.02373 0
M  V30 16609 H 1549.32 2.89242 6.31953 0
M  V30 16610 H 1552.51 1.68065 4.36889 0
M  V30 16611 H 1552.69 2.5606 5.95262 0
M  V30 16612 N 1546.09 -1.52004 0.416254 0
M  V30 16613 C 1547.37 -1.94403 -0.216103 0
M  V30 16614 C 1547.75 -1.35362 -1.61989 0
M  V30 16615 O 1547.1 -0.532242 -2.22215 0
M  V30 16616 C 1547.31 -3.48336 -0.215225 0
M  V30 16617 C 1548.66 -4.22406 -0.431109 0
M  V30 16618 O 1549.68 -3.54982 -0.294271 0
M  V30 16619 O 1548.54 -5.4198 -0.70145 0
M  V30 16620 H 1545.63 -0.814838 -0.141306 0
M  V30 16621 H 1548.18 -1.62983 0.472712 0
M  V30 16622 H 1546.95 -3.83709 0.767004 0
M  V30 16623 H 1546.57 -3.86137 -0.947841 0
M  V30 16624 N 1547.57 -0.146903 -1.56914 0
M  V30 16625 C 1548.5 0.788924 -2.19769 0
M  V30 16626 C 1549.48 1.25712 -1.14589 0
M  V30 16627 O 1550.67 1.3147 -1.42931 0
M  V30 16628 C 1547.8 2.02824 -2.81921 0
M  V30 16629 C 1546.75 1.69683 -3.92927 0
M  V30 16630 C 1546.08 3.00877 -4.42015 0
M  V30 16631 C 1547.38 0.943559 -5.13706 0
M  V30 16632 H 1549.07 0.265076 -2.98224 0
M  V30 16633 H 1546.62 0.126057 -1.43447 0
M  V30 16634 H 1548.57 2.68773 -3.2456 0
M  V30 16635 H 1547.29 2.57581 -2.00797 0
M  V30 16636 H 1545.95 1.06112 -3.50907 0
M  V30 16637 H 1545.6 3.53625 -3.57713 0
M  V30 16638 H 1545.3 2.79466 -5.16888 0
M  V30 16639 H 1546.82 3.67897 -4.87323 0
M  V30 16640 H 1548.24 1.50513 -5.5319 0
M  V30 16641 H 1546.64 0.829387 -5.94341 0
M  V30 16642 H 1547.71 -0.0647228 -4.84857 0
M  V30 16643 N 1549.05 1.57088 0.126881 0
M  V30 16644 C 1550.46 1.73685 0.684865 0
M  V30 16645 C 1550.81 0.764401 1.80697 0
M  V30 16646 O 1549.94 -0.0644761 2.16304 0
M  V30 16647 C 1550.53 3.14933 1.24911 0
M  V30 16648 C 1549.09 3.33063 1.75346 0
M  V30 16649 C 1548.24 2.69575 0.649976 0
M  V30 16650 H 1551.19 1.58391 -0.0989715 0
M  V30 16651 H 1551.21 3.16047 2.11884 0
M  V30 16652 H 1550.72 3.85686 0.432204 0
M  V30 16653 H 1548.82 2.67339 2.59539 0
M  V30 16654 H 1548.93 4.41169 1.86833 0
M  V30 16655 H 1547.3 2.30592 1.08163 0
M  V30 16656 H 1548.08 3.42946 -0.15582 0
M  V30 16657 N 1550.53 -0.396836 1.52522 0
M  V30 16658 C 1551.77 -1.14432 1.67431 0
M  V30 16659 C 1552.11 -1.89842 0.409115 0
M  V30 16660 O 1551.38 -1.85244 -0.592863 0
M  V30 16661 C 1551.66 -2.12889 2.90431 0
M  V30 16662 C 1551.52 -1.41295 4.27031 0
M  V30 16663 C 1552.84 -3.13412 3.08967 0
M  V30 16664 H 1549.95 -0.414643 0.609295 0
M  V30 16665 H 1552.6 -0.428604 1.85103 0
M  V30 16666 H 1550.75 -2.73924 2.75495 0
M  V30 16667 H 1552.42 -0.832848 4.53719 0
M  V30 16668 H 1550.66 -0.714834 4.2787 0
M  V30 16669 H 1551.33 -2.13198 5.09167 0
M  V30 16670 H 1553.81 -2.62462 3.22883 0
M  V30 16671 H 1552.68 -3.79555 3.96522 0
M  V30 16672 H 1552.95 -3.81836 2.22831 0
M  V30 16673 N 1552.01 -1.43353 -0.654814 0
M  V30 16674 C 1553.25 -1.44599 -1.41193 0
M  V30 16675 C 1553.57 -0.0707955 -1.94871 0
M  V30 16676 O 1552.84 0.893637 -1.7433 0
M  V30 16677 H 1551.42 -0.532373 -0.524011 0
M  V30 16678 H 1554.09 -1.78942 -0.772388 0
M  V30 16679 H 1553.18 -2.15761 -2.25508 0
M  V30 16680 N 1553.48 0.89303 -1.29857 0
M  V30 16681 C 1554.41 2.01422 -1.18117 0
M  V30 16682 C 1555.39 1.6994 -0.0737487 0
M  V30 16683 O 1556.58 1.92527 -0.254387 0
M  V30 16684 C 1553.71 3.36385 -0.863842 0
M  V30 16685 C 1552.66 3.821 -1.92831 0
M  V30 16686 C 1551.99 5.14263 -1.46415 0
M  V30 16687 C 1553.29 4.01699 -3.33819 0
M  V30 16688 H 1554.98 2.11502 -2.11913 0
M  V30 16689 H 1552.53 1.01622 -1.02024 0
M  V30 16690 H 1554.48 4.14335 -0.768397 0
M  V30 16691 H 1553.21 3.26415 0.109816 0
M  V30 16692 H 1551.87 3.06372 -2.01325 0
M  V30 16693 H 1551.51 5.00714 -0.478983 0
M  V30 16694 H 1551.21 5.45821 -2.17609 0
M  V30 16695 H 1552.74 5.94747 -1.38234 0
M  V30 16696 H 1554.15 4.70111 -3.28129 0
M  V30 16697 H 1552.55 4.44621 -4.03029 0
M  V30 16698 H 1553.62 3.05816 -3.76304 0
M  V30 16699 N 1554.96 1.12442 1.10429 0
M  V30 16700 C 1555.87 0.805377 2.20343 0
M  V30 16701 C 1556.89 -0.205836 1.72778 0
M  V30 16702 O 1558.06 -0.0394195 2.01361 0
M  V30 16703 C 1555.13 0.264711 3.45688 0
M  V30 16704 C 1554.19 1.33586 4.07987 0
M  V30 16705 C 1553.42 0.8209 5.27349 0
M  V30 16706 O 1553.65 -0.345303 5.69354 0
M  V30 16707 O 1552.58 1.59052 5.80505 0
M  V30 16708 H 1556.41 1.7234 2.50065 0
M  V30 16709 H 1553.99 0.901084 1.19167 0
M  V30 16710 H 1555.87 -0.0319164 4.21388 0
M  V30 16711 H 1554.55 -0.625869 3.17592 0
M  V30 16712 H 1553.45 1.68566 3.33971 0
M  V30 16713 H 1554.79 2.20021 4.40286 0
M  V30 16714 N 1556.44 -1.28223 0.91633 0
M  V30 16715 C 1557.35 -2.30956 0.411882 0
M  V30 16716 C 1558.37 -1.66609 -0.501753 0
M  V30 16717 O 1559.54 -1.97641 -0.387317 0
M  V30 16718 C 1556.61 -3.45053 -0.337558 0
M  V30 16719 C 1555.67 -4.2495 0.609609 0
M  V30 16720 C 1554.9 -5.33598 -0.104159 0
M  V30 16721 O 1555.12 -5.54786 -1.32546 0
M  V30 16722 O 1554.06 -5.99272 0.561851 0
M  V30 16723 H 1557.88 -2.76118 1.26461 0
M  V30 16724 H 1555.47 -1.32964 0.681246 0
M  V30 16725 H 1557.35 -4.14477 -0.760722 0
M  V30 16726 H 1556.03 -3.01968 -1.16607 0
M  V30 16727 H 1554.93 -3.58104 1.08222 0
M  V30 16728 H 1556.27 -4.7172 1.40502 0
M  V30 16729 N 1557.92 -0.68059 -1.42147 0
M  V30 16730 C 1558.85 -0.0199376 -2.33491 0
M  V30 16731 C 1559.83 0.783164 -1.50999 0
M  V30 16732 O 1561.01 0.739154 -1.79583 0
M  V30 16733 C 1558.14 0.927902 -3.34675 0
M  V30 16734 C 1557.1 0.232979 -4.27365 0
M  V30 16735 C 1556.42 1.29415 -5.18802 0
M  V30 16736 C 1557.72 -0.891559 -5.14634 0
M  V30 16737 H 1559.42 -0.782823 -2.88985 0
M  V30 16738 H 1556.96 -0.377898 -1.38953 0
M  V30 16739 H 1558.92 1.3992 -3.97493 0
M  V30 16740 H 1557.64 1.72228 -2.77498 0
M  V30 16741 H 1556.3 -0.21814 -3.6595 0
M  V30 16742 H 1555.95 2.08067 -4.57949 0
M  V30 16743 H 1555.65 0.834274 -5.81647 0
M  V30 16744 H 1557.17 1.76627 -5.84496 0
M  V30 16745 H 1558.59 -0.501219 -5.71105 0
M  V30 16746 H 1556.98 -1.27759 -5.86343 0
M  V30 16747 H 1558.05 -1.73781 -4.5269 0
M  V30 16748 N 1559.4 1.51781 -0.424309 0
M  V30 16749 C 1560.81 1.59419 -0.0759329 0
M  V30 16750 C 1561.01 1.43616 1.41339 0
M  V30 16751 O 1560.07 1.27078 2.18191 0
M  V30 16752 C 1561.38 2.94966 -0.584411 0
M  V30 16753 C 1562.93 3.08241 -0.54371 0
M  V30 16754 C 1563.4 4.46292 -1.02895 0
M  V30 16755 N 1564.89 4.52575 -0.986392 0
M  V30 16756 C 1565.63 5.57694 -1.33286 0
M  V30 16757 N 1565.13 6.70293 -1.75154 0
M  V30 16758 N 1566.92 5.47983 -1.25186 0
M  V30 16759 H 1559.07 1.60299 -1.39349 0
M  V30 16760 H 1561.33 0.75492 -0.573411 0
M  V30 16761 H 1561.04 3.11859 -1.62593 0
M  V30 16762 H 1560.91 3.772 -0.00224435 0
M  V30 16763 H 1563.3 2.91024 0.488798 0
M  V30 16764 H 1563.38 2.27878 -1.16212 0
M  V30 16765 H 1563.02 4.64255 -2.05986 0
M  V30 16766 H 1562.95 5.25175 -0.387202 0
M  V30 16767 H 1565.45 3.71754 -0.678765 0
M  V30 16768 H 1565.76 7.46508 -1.99863 0
M  V30 16769 H 1564.1 6.71535 -1.79071 0
M  V30 16770 H 1567.29 4.58899 -0.923525 0
M  V30 16771 H 1567.47 6.29796 -1.52517 0
M  V30 16772 N 1560.87 0.155222 1.56834 0
M  V30 16773 C 1561.81 -0.812448 2.14317 0
M  V30 16774 C 1562.82 -1.20502 1.09467 0
M  V30 16775 O 1564.01 -1.14767 1.36714 0
M  V30 16776 C 1561.11 -2.10279 2.65774 0
M  V30 16777 C 1560.28 -1.8763 3.95112 0
M  V30 16778 C 1559.34 -3.0073 4.31796 0
M  V30 16779 O 1558.37 -2.72064 4.9997 0
M  V30 16780 N 1559.57 -4.28114 3.92044 0
M  V30 16781 H 1562.33 -0.321106 2.97975 0
M  V30 16782 H 1559.89 -0.0280861 1.61876 0
M  V30 16783 H 1561.89 -2.85005 2.87323 0
M  V30 16784 H 1560.46 -2.50652 1.86796 0
M  V30 16785 H 1559.68 -0.968958 3.82106 0
M  V30 16786 H 1560.96 -1.69845 4.79614 0
M  V30 16787 H 1560.36 -4.54269 3.37129 0
M  V30 16788 H 1558.92 -4.99594 4.18627 0
M  V30 16789 N 1562.35 -1.57153 -0.118549 0
M  V30 16790 C 1563.28 -2.03409 -1.1466 0
M  V30 16791 C 1564.26 -0.918636 -1.43161 0
M  V30 16792 O 1565.45 -1.18838 -1.53594 0
M  V30 16793 C 1562.58 -2.43879 -2.47265 0
M  V30 16794 C 1561.53 -3.58873 -2.33225 0
M  V30 16795 C 1560.86 -3.85244 -3.70798 0
M  V30 16796 C 1562.16 -4.90582 -1.79239 0
M  V30 16797 H 1563.85 -2.89545 -0.761862 0
M  V30 16798 H 1561.4 -1.39296 -0.365034 0
M  V30 16799 H 1563.35 -2.74844 -3.19435 0
M  V30 16800 H 1562.07 -1.54715 -2.8763 0
M  V30 16801 H 1560.73 -3.28119 -1.63504 0
M  V30 16802 H 1560.38 -2.93285 -4.08648 0
M  V30 16803 H 1560.08 -4.62649 -3.62257 0
M  V30 16804 H 1561.61 -4.18661 -4.44472 0
M  V30 16805 H 1563.02 -5.20079 -2.41227 0
M  V30 16806 H 1561.42 -5.71989 -1.81518 0
M  V30 16807 H 1562.49 -4.79065 -0.74999 0
M  V30 16808 N 1563.83 0.388742 -1.5273 0
M  V30 16809 C 1564.74 1.49916 -1.8045 0
M  V30 16810 C 1565.76 1.59679 -0.691282 0
M  V30 16811 O 1566.93 1.7601 -0.978898 0
M  V30 16812 C 1564 2.85445 -1.96779 0
M  V30 16813 C 1563.06 2.85402 -3.20693 0
M  V30 16814 C 1562.29 4.14466 -3.36234 0
M  V30 16815 O 1562.51 5.09436 -2.56576 0
M  V30 16816 O 1561.45 4.2169 -4.29489 0
M  V30 16817 H 1565.27 1.29423 -2.74743 0
M  V30 16818 H 1562.86 0.576607 -1.37825 0
M  V30 16819 H 1564.74 3.65791 -2.09224 0
M  V30 16820 H 1563.42 3.05964 -1.05676 0
M  V30 16821 H 1562.32 2.03836 -3.1369 0
M  V30 16822 H 1563.66 2.69835 -4.11643 0
M  V30 16823 N 1565.31 1.43698 0.647203 0
M  V30 16824 C 1566.24 1.52135 1.77136 0
M  V30 16825 C 1567.22 0.375551 1.65902 0
M  V30 16826 O 1568.4 0.593564 1.84907 0
M  V30 16827 C 1565.53 1.44974 3.15594 0
M  V30 16828 C 1564.49 2.57866 3.41598 0
M  V30 16829 C 1563.81 2.35757 4.7992 0
M  V30 16830 C 1565.11 4.00089 3.35747 0
M  V30 16831 H 1566.81 2.46227 1.70332 0
M  V30 16832 H 1564.35 1.18507 0.818046 0
M  V30 16833 H 1566.31 1.4948 3.93997 0
M  V30 16834 H 1565.03 0.473905 3.23143 0
M  V30 16835 H 1563.69 2.52722 2.65569 0
M  V30 16836 H 1563.34 1.36403 4.84152 0
M  V30 16837 H 1563.04 3.11436 4.98278 0
M  V30 16838 H 1564.56 2.42055 5.60572 0
M  V30 16839 H 1565.98 4.06687 4.04078 0
M  V30 16840 H 1564.37 4.75842 3.65642 0
M  V30 16841 H 1565.44 4.24798 2.33825 0
M  V30 16842 N 1566.79 -0.886131 1.30328 0
M  V30 16843 C 1567.72 -1.99733 1.12425 0
M  V30 16844 C 1568.73 -1.62659 0.067824 0
M  V30 16845 O 1569.92 -1.75721 0.313723 0
M  V30 16846 C 1567.02 -3.31757 0.692122 0
M  V30 16847 C 1566.19 -3.97276 1.83004 0
M  V30 16848 C 1565.25 -5.076 1.38666 0
M  V30 16849 O 1564.28 -5.29295 2.09368 0
M  V30 16850 N 1565.48 -5.79895 0.265039 0
M  V30 16851 H 1568.25 -2.15643 2.0813 0
M  V30 16852 H 1565.81 -1.05915 1.22449 0
M  V30 16853 H 1567.8 -4.02926 0.37854 0
M  V30 16854 H 1566.37 -3.12122 -0.172864 0
M  V30 16855 H 1565.59 -3.19295 2.3118 0
M  V30 16856 H 1566.88 -4.37789 2.59264 0
M  V30 16857 H 1566.27 -5.64771 -0.324121 0
M  V30 16858 H 1564.83 -6.51799 0.0109044 0
M  V30 16859 N 1568.26 -1.13026 -1.09832 0
M  V30 16860 C 1569.51 -0.890736 -1.82191 0
M  V30 16861 C 1569.84 0.581818 -1.8528 0
M  V30 16862 O 1569.12 1.43037 -1.31798 0
M  V30 16863 C 1569.4 -1.47403 -3.28549 0
M  V30 16864 C 1569.25 -3.0154 -3.33757 0
M  V30 16865 C 1570.57 -1.13876 -4.25112 0
M  V30 16866 H 1567.69 -0.325028 -0.661457 0
M  V30 16867 H 1570.33 -1.39787 -1.28684 0
M  V30 16868 H 1568.48 -1.04272 -3.74245 0
M  V30 16869 H 1570.16 -3.53395 -2.96495 0
M  V30 16870 H 1568.4 -3.36746 -2.73467 0
M  V30 16871 H 1569.07 -3.37449 -4.36843 0
M  V30 16872 H 1571.55 -1.51139 -3.87681 0
M  V30 16873 H 1570.42 -1.57343 -5.25865 0
M  V30 16874 H 1570.68 -0.051854 -4.4207 0
M  V30 16875 N 1569.74 1.27735 -0.923117 0
M  V30 16876 C 1570.67 2.29395 -0.435907 0
M  V30 16877 C 1571.65 1.62542 0.501403 0
M  V30 16878 O 1572.84 1.89884 0.407135 0
M  V30 16879 C 1569.97 3.45856 0.316348 0
M  V30 16880 C 1568.92 4.24672 -0.532697 0
M  V30 16881 C 1568.25 5.33563 0.348454 0
M  V30 16882 C 1569.55 4.90494 -1.79481 0
M  V30 16883 H 1571.24 2.70398 -1.28551 0
M  V30 16884 H 1568.79 1.29989 -0.619581 0
M  V30 16885 H 1570.74 4.1607 0.668098 0
M  V30 16886 H 1569.47 3.03758 1.19994 0
M  V30 16887 H 1568.12 3.56198 -0.867093 0
M  V30 16888 H 1567.77 4.87708 1.23086 0
M  V30 16889 H 1567.47 5.87202 -0.216104 0
M  V30 16890 H 1569 6.06622 0.695878 0
M  V30 16891 H 1570.41 5.53019 -1.5114 0
M  V30 16892 H 1568.81 5.5417 -2.30251 0
M  V30 16893 H 1569.88 4.14454 -2.51707 0
M  V30 16894 N 1571.22 0.688118 1.41784 0
M  V30 16895 C 1572.45 0.22475 2.05676 0
M  V30 16896 C 1572.86 -1.1232 1.51755 0
M  V30 16897 O 1572.22 -1.70041 0.662735 0
M  V30 16898 C 1572.27 0.165661 3.6112 0
M  V30 16899 O 1571.99 1.46035 4.13044 0
M  V30 16900 C 1573.49 -0.319599 4.42146 0
M  V30 16901 H 1570.71 0.106135 0.662553 0
M  V30 16902 H 1573.26 0.938605 1.81688 0
M  V30 16903 H 1571.41 -0.498968 3.84173 0
M  V30 16904 H 1571.83 1.34252 5.07027 0
M  V30 16905 H 1573.3 -0.30983 5.5113 0
M  V30 16906 H 1573.78 -1.3572 4.17704 0
M  V30 16907 H 1574.38 0.313764 4.24141 0
M  V30 16908 N 1572.7 -1.51554 0.432352 0
M  V30 16909 C 1573.66 -2.26195 -0.369912 0
M  V30 16910 C 1574.66 -1.29446 -0.953961 0
M  V30 16911 O 1575.85 -1.53199 -0.829193 0
M  V30 16912 C 1572.98 -3.04993 -1.52289 0
M  V30 16913 H 1574.18 -2.98551 0.284173 0
M  V30 16914 H 1571.73 -1.55197 0.1854 0
M  V30 16915 H 1572.46 -2.37043 -2.21317 0
M  V30 16916 H 1572.25 -3.76051 -1.11032 0
M  V30 16917 H 1573.74 -3.61547 -2.08982 0
M  V30 16918 N 1574.18 -0.163538 -1.56749 0
M  V30 16919 C 1575.13 0.781904 -2.14173 0
M  V30 16920 C 1576.11 1.19818 -1.07389 0
M  V30 16921 O 1577.3 1.16184 -1.3353 0
M  V30 16922 C 1574.43 2.01433 -2.77992 0
M  V30 16923 C 1573.52 1.6204 -3.91923 0
M  V30 16924 N 1573.91 0.935598 -4.97072 0
M  V30 16925 C 1572.21 1.91197 -4.02939 0
M  V30 16926 C 1572.91 0.742806 -5.76938 0
M  V30 16927 N 1571.88 1.28183 -5.28271 0
M  V30 16928 H 1575.69 0.249647 -2.92838 0
M  V30 16929 H 1573.2 0.0374224 -1.62357 0
M  V30 16930 H 1575.2 2.7018 -3.17504 0
M  V30 16931 H 1573.86 2.55161 -2.00806 0
M  V30 16932 H 1574.87 0.594507 -5.14476 0
M  V30 16933 H 1571.54 2.46657 -3.36848 0
M  V30 16934 H 1572.93 0.201845 -6.71597 0
M  V30 16935 N 1575.65 1.57214 0.110213 0
M  V30 16936 C 1576.88 1.8988 0.834297 0
M  V30 16937 C 1577.3 0.756347 1.72224 0
M  V30 16938 O 1576.66 -0.292768 1.78921 0
M  V30 16939 C 1576.71 3.21338 1.63629 0
M  V30 16940 O 1575.81 3.07862 2.74399 0
M  V30 16941 H 1575.16 0.62283 0.23017 0
M  V30 16942 H 1577.69 2.04402 0.0899726 0
M  V30 16943 H 1577.7 3.54275 2.02369 0
M  V30 16944 H 1576.37 4.04079 0.984521 0
M  V30 16945 H 1574.95 2.8641 2.38797 0
M  V30 16946 N 1577.13 -0.380637 1.52934 0
M  V30 16947 C 1578.38 -1.12306 1.69585 0
M  V30 16948 C 1578.73 -1.87427 0.434626 0
M  V30 16949 O 1578.03 -1.82864 -0.571955 0
M  V30 16950 C 1578.22 -2.1227 2.87535 0
M  V30 16951 C 1578.05 -1.46969 4.25006 0
M  V30 16952 C 1576.82 -1.23021 4.90096 0
M  V30 16953 C 1579.02 -0.915348 5.06089 0
M  V30 16954 N 1577 -0.539124 6.11528 0
M  V30 16955 C 1578.37 -0.352792 6.18995 0
M  V30 16956 C 1580.43 -0.81257 4.91225 0
M  V30 16957 C 1579.13 0.302501 7.18664 0
M  V30 16958 C 1581.15 -0.171084 5.91152 0
M  V30 16959 C 1580.52 0.380664 7.03371 0
M  V30 16960 H 1576.62 -0.39663 0.67395 0
M  V30 16961 H 1579.2 -0.411454 1.90303 0
M  V30 16962 H 1577.37 -2.80759 2.68382 0
M  V30 16963 H 1579.1 -2.7908 2.93081 0
M  V30 16964 H 1575.86 -1.50746 4.48969 0
M  V30 16965 H 1576.28 -0.209381 6.76676 0
M  V30 16966 H 1580.92 -1.22493 4.04667 0
M  V30 16967 H 1578.64 0.72685 8.04825 0
M  V30 16968 H 1582.23 -0.0926928 5.81726 0
M  V30 16969 H 1581.11 0.8692 7.79368 0
M  V30 16970 N 1578.61 -1.44039 -0.639573 0
M  V30 16971 C 1580.03 -1.2774 -0.956802 0
M  V30 16972 C 1580.23 -0.207018 -2.00434 0
M  V30 16973 O 1579.28 0.409954 -2.4915 0
M  V30 16974 C 1580.6 -2.64624 -1.42809 0
M  V30 16975 C 1582.14 -2.72266 -1.54402 0
M  V30 16976 C 1582.62 -4.09601 -2.04918 0
M  V30 16977 N 1584.11 -4.11735 -2.122 0
M  V30 16978 C 1584.84 -5.14842 -2.52439 0
M  V30 16979 N 1584.34 -6.28316 -2.91875 0
M  V30 16980 N 1586.13 -5.02196 -2.52499 0
M  V30 16981 H 1578.28 -2.12333 0.0533569 0
M  V30 16982 H 1580.55 -0.947208 -0.0387401 0
M  V30 16983 H 1580.25 -3.43983 -0.732728 0
M  V30 16984 H 1580.13 -2.90944 -2.40066 0
M  V30 16985 H 1582.51 -1.93232 -2.23037 0
M  V30 16986 H 1582.6 -2.49697 -0.555426 0
M  V30 16987 H 1582.24 -4.89108 -1.3688 0
M  V30 16988 H 1582.17 -4.29542 -3.04633 0
M  V30 16989 H 1584.66 -3.29833 -1.84441 0
M  V30 16990 H 1584.97 -7.0281 -3.21368 0
M  V30 16991 H 1583.32 -6.31767 -2.89647 0
M  V30 16992 H 1586.51 -4.12606 -2.21075 0
M  V30 16993 H 1586.68 -5.82677 -2.83535 0
M  V30 16994 N 1580.09 0.879207 -1.30796 0
M  V30 16995 C 1581 2.01822 -1.19604 0
M  V30 16996 C 1582.01 1.73621 -0.114715 0
M  V30 16997 O 1583.19 1.98665 -0.330757 0
M  V30 16998 C 1580.26 3.3496 -0.894569 0
M  V30 16999 C 1579.32 3.76545 -2.06185 0
M  V30 17000 C 1578.55 5.0333 -1.77467 0
M  V30 17001 O 1578.77 5.66022 -0.70535 0
M  V30 17002 O 1577.71 5.41461 -2.62876 0
M  V30 17003 H 1581.53 2.14194 -2.15301 0
M  V30 17004 H 1579.12 1.00608 -1.10446 0
M  V30 17005 H 1581 4.14818 -0.741891 0
M  V30 17006 H 1579.67 3.23684 0.0324464 0
M  V30 17007 H 1578.58 2.97367 -2.26988 0
M  V30 17008 H 1579.91 3.92434 -2.97079 0
M  V30 17009 N 1581.57 1.13606 1.09231 0
M  V30 17010 C 1582.51 0.815279 2.15921 0
M  V30 17011 C 1583.48 -0.223501 1.64589 0
M  V30 17012 O 1584.67 -0.0952982 1.90562 0
M  V30 17013 C 1581.81 0.289655 3.43882 0
M  V30 17014 C 1580.92 1.38773 4.09104 0
M  V30 17015 C 1580.06 0.820238 5.24829 0
M  V30 17016 C 1579.1 1.89658 5.81976 0
M  V30 17017 N 1578.23 1.34688 6.8906 0
M  V30 17018 H 1583.07 1.72914 2.42703 0
M  V30 17019 H 1580.61 0.863101 1.19117 0
M  V30 17020 H 1582.57 -0.0332398 4.17187 0
M  V30 17021 H 1581.2 -0.587329 3.17412 0
M  V30 17022 H 1580.25 1.82718 3.33644 0
M  V30 17023 H 1581.56 2.20114 4.47606 0
M  V30 17024 H 1580.72 0.448745 6.05038 0
M  V30 17025 H 1579.46 -0.0242261 4.87694 0
M  V30 17026 H 1578.46 2.27712 5.00427 0
M  V30 17027 H 1579.69 2.74448 6.21172 0
M  V30 17028 H 1577.63 0.524453 6.539 0
M  V30 17029 H 1577.55 2.09675 7.26342 0
M  V30 17030 H 1578.82 1.00302 7.7302 0
M  V30 17031 N 1583.05 -1.27244 0.929878 0
M  V30 17032 C 1584.01 -2.25028 0.435315 0
M  V30 17033 C 1585.01 -1.54453 -0.447332 0
M  V30 17034 O 1586.2 -1.72424 -0.248105 0
M  V30 17035 C 1583.33 -3.38843 -0.373933 0
M  V30 17036 H 1584.52 -2.70293 1.2993 0
M  V30 17037 H 1582.08 -1.39204 0.710771 0
M  V30 17038 H 1582.81 -2.98963 -1.25664 0
M  V30 17039 H 1582.6 -3.91244 0.258946 0
M  V30 17040 H 1584.09 -4.11516 -0.710255 0
M  V30 17041 N 1584.52 -0.695628 -1.41417 0
M  V30 17042 C 1585.75 -0.234163 -2.06074 0
M  V30 17043 C 1586.17 1.10796 -1.52006 0
M  V30 17044 O 1585.53 1.6936 -0.64705 0
M  V30 17045 C 1585.58 -0.202353 -3.60032 0
M  V30 17046 O 1584.68 0.822767 -4.04109 0
M  V30 17047 H 1584.02 -0.114395 -0.654072 0
M  V30 17048 H 1586.55 -0.950503 -1.81181 0
M  V30 17049 H 1586.56 -0.0332321 -4.07986 0
M  V30 17050 H 1585.24 -1.18188 -3.98754 0
M  V30 17051 H 1583.82 0.622995 -3.67659 0
M  V30 17052 N 1586 1.51322 -0.440383 0
M  V30 17053 C 1586.95 2.27823 0.369526 0
M  V30 17054 C 1587.92 1.31543 1.01418 0
M  V30 17055 O 1589.1 1.60449 1.03251 0
M  V30 17056 C 1586.24 3.12553 1.46304 0
M  V30 17057 C 1585.36 4.23829 0.836217 0
M  V30 17058 C 1584.49 4.95865 1.90504 0
M  V30 17059 C 1583.53 5.99058 1.25681 0
M  V30 17060 N 1582.67 6.64489 2.26712 0
M  V30 17061 H 1587.51 2.96593 -0.289205 0
M  V30 17062 H 1585.04 1.46287 -0.154466 0
M  V30 17063 H 1587 3.60006 2.10836 0
M  V30 17064 H 1585.63 2.4589 2.09136 0
M  V30 17065 H 1584.68 3.80318 0.0791116 0
M  V30 17066 H 1586 4.97753 0.322989 0
M  V30 17067 H 1585.15 5.46881 2.6269 0
M  V30 17068 H 1583.89 4.21578 2.452 0
M  V30 17069 H 1582.89 5.47331 0.520422 0
M  V30 17070 H 1584.12 6.75303 0.717138 0
M  V30 17071 H 1582.07 5.93014 2.80483 0
M  V30 17072 H 1581.98 7.34188 1.80289 0
M  V30 17073 H 1583.25 7.20134 2.98373 0
M  V30 17074 N 1587.48 0.171848 1.5666 0
M  V30 17075 C 1588.71 -0.479221 2.01274 0
M  V30 17076 C 1589.12 -1.56771 1.05206 0
M  V30 17077 O 1588.48 -1.82423 0.0530164 0
M  V30 17078 C 1588.53 -1.05705 3.457 0
M  V30 17079 O 1588.25 -0.0120133 4.38098 0
M  V30 17080 C 1589.75 -1.78629 4.05717 0
M  V30 17081 H 1586.97 -0.122598 0.659705 0
M  V30 17082 H 1589.52 0.273733 2.0266 0
M  V30 17083 H 1587.67 -1.7605 3.45087 0
M  V30 17084 H 1588.09 -0.438714 5.22662 0
M  V30 17085 H 1589.56 -2.14319 5.08696 0
M  V30 17086 H 1590.04 -2.68149 3.4784 0
M  V30 17087 H 1590.64 -1.12925 4.10034 0
M  V30 17088 N 1588.96 -1.5727 -0.101874 0
M  V30 17089 C 1590.2 -1.85742 -0.8066 0
M  V30 17090 C 1590.53 -0.759408 -1.79062 0
M  V30 17091 O 1589.79 0.247657 -1.94127 0
M  V30 17092 C 1590.09 -3.20773 -1.57605 0
M  V30 17093 C 1589.75 -4.44873 -0.734768 0
M  V30 17094 C 1588.41 -4.78566 -0.502829 0
M  V30 17095 C 1590.77 -5.20986 -0.14949 0
M  V30 17096 C 1588.09 -5.85803 0.324363 0
M  V30 17097 C 1590.45 -6.29095 0.664987 0
M  V30 17098 C 1589.11 -6.61308 0.907082 0
M  V30 17099 H 1588.38 -0.679679 -0.295156 0
M  V30 17100 H 1591.03 -1.91378 -0.0683238 0
M  V30 17101 H 1589.33 -3.10791 -2.38571 0
M  V30 17102 H 1591.03 -3.40029 -2.12559 0
M  V30 17103 H 1587.62 -4.18485 -0.92565 0
M  V30 17104 H 1591.8 -4.95294 -0.315859 0
M  V30 17105 H 1587.06 -6.09176 0.520978 0
M  V30 17106 H 1591.23 -6.87246 1.1254 0
M  V30 17107 H 1588.86 -7.44234 1.54986 0
M  V30 17108 N 1590.44 0.372521 -1.53134 0
M  V30 17109 C 1591.37 1.4621 -1.82057 0
M  V30 17110 C 1592.35 1.56194 -0.673612 0
M  V30 17111 O 1593.53 1.70875 -0.922797 0
M  V30 17112 C 1590.66 2.83632 -2.00425 0
M  V30 17113 C 1589.62 2.88478 -3.16171 0
M  V30 17114 C 1588.94 4.28508 -3.19821 0
M  V30 17115 C 1590.24 2.56628 -4.54906 0
M  V30 17116 H 1591.94 1.22256 -2.73302 0
M  V30 17117 H 1589.48 0.586688 -1.31507 0
M  V30 17118 H 1591.43 3.59876 -2.19242 0
M  V30 17119 H 1590.16 3.0896 -1.05884 0
M  V30 17120 H 1588.82 2.14684 -2.97164 0
M  V30 17121 H 1588.47 4.509 -2.2293 0
M  V30 17122 H 1588.17 4.32667 -3.97584 0
M  V30 17123 H 1589.69 5.06635 -3.40813 0
M  V30 17124 H 1591.1 3.22587 -4.73931 0
M  V30 17125 H 1589.5 2.72114 -5.34859 0
M  V30 17126 H 1590.57 1.51902 -4.60493 0
M  V30 17127 N 1591.91 1.44376 0.631925 0
M  V30 17128 C 1592.86 1.51181 1.74393 0
M  V30 17129 C 1593.83 0.359599 1.62161 0
M  V30 17130 O 1595.02 0.569725 1.82096 0
M  V30 17131 C 1592.16 1.46124 3.12637 0
M  V30 17132 C 1591.27 2.71714 3.35851 0
M  V30 17133 C 1590.4 2.58496 4.64062 0
M  V30 17134 C 1589.44 3.79252 4.80452 0
M  V30 17135 N 1588.58 3.64715 5.99939 0
M  V30 17136 H 1593.42 2.4619 1.67912 0
M  V30 17137 H 1590.96 1.22184 0.819108 0
M  V30 17138 H 1592.91 1.41183 3.92585 0
M  V30 17139 H 1591.54 0.546831 3.18135 0
M  V30 17140 H 1590.6 2.86845 2.49848 0
M  V30 17141 H 1591.91 3.61351 3.43841 0
M  V30 17142 H 1591.06 2.51383 5.5217 0
M  V30 17143 H 1589.8 1.66417 4.58428 0
M  V30 17144 H 1588.81 3.8675 3.90774 0
M  V30 17145 H 1590.03 4.72367 4.879 0
M  V30 17146 H 1587.98 2.75388 5.95397 0
M  V30 17147 H 1587.89 4.47969 6.08982 0
M  V30 17148 H 1589.16 3.61493 6.90611 0
M  V30 17149 N 1593.39 -0.872258 1.31261 0
M  V30 17150 C 1594.34 -1.97926 1.18718 0
M  V30 17151 C 1595.31 -1.65937 0.0735242 0
M  V30 17152 O 1596.49 -1.89208 0.245979 0
M  V30 17153 C 1593.63 -3.33208 0.898117 0
M  V30 17154 C 1592.75 -3.77808 2.09488 0
M  V30 17155 C 1591.88 -5.01796 1.74281 0
M  V30 17156 C 1590.92 -5.38838 2.90379 0
M  V30 17157 N 1590.06 -6.54007 2.55382 0
M  V30 17158 H 1594.9 -2.07986 2.13415 0
M  V30 17159 H 1592.43 -1.01821 1.06165 0
M  V30 17160 H 1594.39 -4.11095 0.711089 0
M  V30 17161 H 1593.02 -3.22798 -0.0120097 0
M  V30 17162 H 1592.07 -2.95722 2.39276 0
M  V30 17163 H 1593.39 -4.01191 2.96391 0
M  V30 17164 H 1592.54 -5.87344 1.52027 0
M  V30 17165 H 1591.28 -4.80312 0.845665 0
M  V30 17166 H 1590.28 -4.51811 3.13284 0
M  V30 17167 H 1591.51 -5.62289 3.80799 0
M  V30 17168 H 1589.46 -6.34073 1.68188 0
M  V30 17169 H 1589.37 -6.77322 3.35814 0
M  V30 17170 H 1590.64 -7.42752 2.36516 0
M  V30 17171 N 1594.87 -1.14184 -1.08627 0
M  V30 17172 C 1595.82 -0.822297 -2.1758 0
M  V30 17173 C 1596.81 0.198863 -1.68229 0
M  V30 17174 O 1598.02 0.0551869 -1.79915 0
M  V30 17175 H 1594.39 -0.248183 -0.709866 0
M  V30 17176 H 1596.36 -1.74916 -2.41758 0
M  V30 17177 C 1595.11 -0.313671 -3.46282 0
M  V30 17178 H 1594.44 -1.09078 -3.84632 0
M  V30 17179 H 1595.88 -0.128604 -4.23805 0
M  V30 17180 C 1594.33 0.962289 -3.22865 0
M  V30 17181 O 1594.86 2.03649 -3.46251 0
M  V30 17182 N 1593.07 0.896635 -2.76421 0
M  V30 17183 H 1592.62 0.0223186 -2.5759 0
M  V30 17184 H 1592.58 1.75093 -2.61132 0
M  V30 17185 N 1596.35 1.26749 -0.936613 0
M  V30 17186 C 1597.57 1.98597 -0.597817 0
M  V30 17187 C 1598 1.69324 0.8192 0
M  V30 17188 O 1597.36 0.938634 1.55111 0
M  V30 17189 C 1597.4 3.50656 -0.841007 0
M  V30 17190 O 1596.51 4.12304 0.0891038 0
M  V30 17191 H 1595.85 0.623197 -0.229176 0
M  V30 17192 H 1598.38 1.61332 -1.2583 0
M  V30 17193 H 1598.39 4.00857 -0.760093 0
M  V30 17194 H 1597.06 3.71293 -1.87388 0
M  V30 17195 H 1595.64 3.72876 -0.0424804 0
M  V30 17196 N 1597.83 0.703118 1.41046 0
M  V30 17197 C 1599.07 0.241543 2.02968 0
M  V30 17198 C 1599.43 -1.13975 1.54511 0
M  V30 17199 O 1600.63 -1.69761 2.0841 0
M  V30 17200 C 1598.9 0.305021 3.56096 0
M  V30 17201 S 1600.46 -0.0813994 4.38724 0
M  V30 17202 H 1597.28 0.0967141 0.704391 0
M  V30 17203 H 1599.88 0.922571 1.72363 0
M  V30 17204 H 1598.59 1.31219 3.88857 0
M  V30 17205 H 1598.12 -0.394903 3.91413 0
M  V30 17206 H 1600.13 -1.30702 4.78677 0
M  V30 17207 N 1599.3 -1.51086 0.448402 0
M  V30 17208 C 1600.53 -2.06293 -0.112531 0
M  V30 17209 C 1600.94 -1.31478 -1.36052 0
M  V30 17210 O 1600.29 -0.370897 -1.79917 0
M  V30 17211 C 1600.35 -3.56156 -0.489178 0
M  V30 17212 C 1600.01 -4.52302 0.653568 0
M  V30 17213 C 1601.01 -4.96909 1.52898 0
M  V30 17214 C 1598.69 -4.9527 0.837448 0
M  V30 17215 C 1600.69 -5.83165 2.57288 0
M  V30 17216 C 1598.37 -5.81314 1.8846 0
M  V30 17217 C 1599.37 -6.25161 2.75069 0
M  V30 17218 O 1599.06 -7.09495 3.77985 0
M  V30 17219 H 1598.79 -0.67597 -0.00641865 0
M  V30 17220 H 1601.35 -1.95515 0.629533 0
M  V30 17221 H 1599.58 -3.64757 -1.28411 0
M  V30 17222 H 1601.27 -3.93828 -0.982548 0
M  V30 17223 H 1602.03 -4.64399 1.3985 0
M  V30 17224 H 1597.91 -4.60676 0.172857 0
M  V30 17225 H 1601.45 -6.1731 3.24921 0
M  V30 17226 H 1597.35 -6.13236 2.01523 0
M  V30 17227 H 1598.12 -7.27697 3.74699 0
M  V30 17228 N 1600.78 -0.180154 -1.56567 0
M  V30 17229 C 1602.01 0.46854 -2.01525 0
M  V30 17230 C 1602.43 1.56211 -1.06036 0
M  V30 17231 O 1601.78 1.82392 -0.06269 0
M  V30 17232 C 1601.83 1.0387 -3.46256 0
M  V30 17233 O 1601.55 -0.0112203 -4.38099 0
M  V30 17234 C 1603.06 1.76475 -4.06659 0
M  V30 17235 H 1600.28 0.119098 -0.660346 0
M  V30 17236 H 1602.82 -0.284477 -2.02512 0
M  V30 17237 H 1600.97 1.74217 -3.46016 0
M  V30 17238 H 1601.39 0.41099 -5.22887 0
M  V30 17239 H 1602.86 2.11618 -5.09825 0
M  V30 17240 H 1603.34 2.66301 -3.49257 0
M  V30 17241 H 1603.95 1.10749 -4.10627 0
M  V30 17242 N 1602.26 1.57322 0.0935319 0
M  V30 17243 C 1603.19 2.05208 1.11409 0
M  V30 17244 C 1604.17 0.941295 1.41681 0
M  V30 17245 O 1605.36 1.21266 1.51684 0
M  V30 17246 C 1602.49 2.47782 2.43354 0
M  V30 17247 C 1601.44 3.62538 2.27486 0
M  V30 17248 C 1600.77 3.91095 3.64622 0
M  V30 17249 C 1602.07 4.93371 1.71412 0
M  V30 17250 H 1603.76 2.9072 0.715702 0
M  V30 17251 H 1601.31 1.3986 0.342827 0
M  V30 17252 H 1603.26 2.79891 3.15022 0
M  V30 17253 H 1601.98 1.59272 2.85132 0
M  V30 17254 H 1600.64 3.30679 1.58263 0
M  V30 17255 H 1600.29 2.99749 4.0393 0
M  V30 17256 H 1599.99 4.68353 3.5485 0
M  V30 17257 H 1601.51 4.25679 4.37755 0
M  V30 17258 H 1602.93 5.23851 2.32922 0
M  V30 17259 H 1601.33 5.74804 1.72395 0
M  V30 17260 H 1602.4 4.80197 0.67368 0
M  V30 17261 N 1603.74 -0.364395 1.53329 0
M  V30 17262 C 1604.67 -1.45243 1.8283 0
M  V30 17263 C 1605.65 -1.55834 0.681886 0
M  V30 17264 O 1606.83 -1.70383 0.931845 0
M  V30 17265 C 1603.96 -2.82565 2.01926 0
M  V30 17266 C 1602.92 -2.86797 3.17697 0
M  V30 17267 C 1602.24 -4.26806 3.22089 0
M  V30 17268 C 1603.54 -2.54212 4.56261 0
M  V30 17269 H 1605.24 -1.20804 2.73946 0
M  V30 17270 H 1602.78 -0.579705 1.31816 0
M  V30 17271 H 1604.74 -3.58709 2.21147 0
M  V30 17272 H 1603.46 -3.08394 1.07521 0
M  V30 17273 H 1602.12 -2.13105 2.98298 0
M  V30 17274 H 1601.77 -4.49712 2.25318 0
M  V30 17275 H 1601.47 -4.30553 3.99873 0
M  V30 17276 H 1602.99 -5.04821 3.43495 0
M  V30 17277 H 1604.41 -3.20069 4.75635 0
M  V30 17278 H 1602.8 -2.69273 5.36295 0
M  V30 17279 H 1603.87 -1.49458 4.61292 0
M  V30 17280 N 1605.22 -1.44709 -0.62426 0
M  V30 17281 C 1606.13 -1.54608 -1.76447 0
M  V30 17282 C 1607.14 -0.43137 -1.68568 0
M  V30 17283 O 1608.32 -0.6897 -1.89222 0
M  V30 17284 C 1605.38 -1.49404 -3.12857 0
M  V30 17285 C 1604.44 -2.71782 -3.32315 0
M  V30 17286 C 1603.68 -2.66817 -4.62217 0
M  V30 17287 O 1603.9 -1.73205 -5.43467 0
M  V30 17288 O 1602.83 -3.57773 -4.84027 0
M  V30 17289 H 1606.66 -2.50951 -1.71048 0
M  V30 17290 H 1604.25 -1.27033 -0.786326 0
M  V30 17291 H 1606.13 -1.4905 -3.9416 0
M  V30 17292 H 1604.8 -0.562078 -3.18783 0
M  V30 17293 H 1603.71 -2.77702 -2.50664 0
M  V30 17294 H 1605.04 -3.64048 -3.31255 0
M  V30 17295 N 1606.69 0.865285 -1.31722 0
M  V30 17296 C 1607.94 1.62108 -1.21855 0
M  V30 17297 C 1608.27 1.9293 0.221714 0
M  V30 17298 O 1607.55 1.56423 1.15595 0
M  V30 17299 C 1607.83 2.94828 -2.06756 0
M  V30 17300 C 1607.68 2.70855 -3.59107 0
M  V30 17301 C 1609 3.95983 -1.92055 0
M  V30 17302 H 1606.12 0.588234 -0.444015 0
M  V30 17303 H 1608.76 0.999922 -1.6156 0
M  V30 17304 H 1606.91 3.47843 -1.73025 0
M  V30 17305 H 1608.59 2.24477 -4.02999 0
M  V30 17306 H 1606.83 2.05004 -3.82303 0
M  V30 17307 H 1607.5 3.65312 -4.13825 0
M  V30 17308 H 1609.98 3.52193 -2.21584 0
M  V30 17309 H 1608.85 4.86724 -2.53754 0
M  V30 17310 H 1609.11 4.33148 -0.885174 0
M  V30 17311 N 1608.17 1.14759 1.0802 0
M  V30 17312 C 1609.1 0.860977 2.17047 0
M  V30 17313 C 1610.08 -0.185652 1.69084 0
M  V30 17314 O 1611.27 -0.0414797 1.94156 0
M  V30 17315 C 1608.4 0.342018 3.45612 0
M  V30 17316 C 1607.35 1.32455 4.06989 0
M  V30 17317 C 1606.68 0.664721 5.30552 0
M  V30 17318 C 1607.98 2.68819 4.4781 0
M  V30 17319 H 1609.67 1.77269 2.4128 0
M  V30 17320 H 1607.22 0.853757 1.15961 0
M  V30 17321 H 1609.17 0.129093 4.21202 0
M  V30 17322 H 1607.9 -0.605138 3.20945 0
M  V30 17323 H 1606.55 1.52371 3.33435 0
M  V30 17324 H 1606.2 -0.288367 5.02173 0
M  V30 17325 H 1605.9 1.32036 5.72573 0
M  V30 17326 H 1607.43 0.461412 6.08854 0
M  V30 17327 H 1608.84 2.52787 5.14559 0
M  V30 17328 H 1607.24 3.30694 5.00761 0
M  V30 17329 H 1608.31 3.25398 3.59506 0
M  V30 17330 N 1609.65 -1.26251 0.943322 0
M  V30 17331 C 1610.89 -1.95409 0.599542 0
M  V30 17332 C 1611.25 -1.72356 -0.846017 0
M  V30 17333 O 1612.46 -2.35337 -1.29884 0
M  V30 17334 C 1610.73 -3.44953 0.935013 0
M  V30 17335 S 1612.29 -4.33147 0.702101 0
M  V30 17336 H 1609.1 -0.675863 0.22075 0
M  V30 17337 H 1611.71 -1.53153 1.21509 0
M  V30 17338 H 1610.41 -3.59232 1.98445 0
M  V30 17339 H 1609.94 -3.92182 0.309268 0
M  V30 17340 H 1611.96 -4.9431 -0.432655 0
M  V30 17341 N 1611.13 -0.710588 -1.40671 0
M  V30 17342 C 1612.54 -0.320926 -1.83921 0
M  V30 17343 C 1612.89 1.14358 -1.59426 0
M  V30 17344 O 1612.02 1.87952 -1.07252 0
M  V30 17345 C 1612.61 -0.5757 -3.33873 0
M  V30 17346 C 1611.17 -0.239799 -3.75635 0
M  V30 17347 C 1610.32 -0.850552 -2.63934 0
M  V30 17348 H 1613.27 -0.910118 -1.3001 0
M  V30 17349 H 1613.29 0.160707 -3.8016 0
M  V30 17350 H 1612.8 -1.64166 -3.51669 0
M  V30 17351 H 1610.9 0.821297 -3.63436 0
M  V30 17352 H 1611.02 -0.705306 -4.7388 0
M  V30 17353 H 1609.38 -0.278977 -2.53168 0
M  V30 17354 H 1610.16 -1.92068 -2.84543 0
M  V30 17355 N 1612.61 1.50847 -0.456408 0
M  V30 17356 C 1613.85 2.04143 0.102549 0
M  V30 17357 C 1614.21 1.33189 1.38292 0
M  V30 17358 O 1615.41 1.7696 2.02333 0
M  V30 17359 C 1613.68 3.56164 0.296985 0
M  V30 17360 S 1615.24 4.31134 0.816609 0
M  V30 17361 H 1612.06 0.710632 0.0228845 0
M  V30 17362 H 1614.66 1.85402 -0.620186 0
M  V30 17363 H 1613.37 4.05365 -0.640906 0
M  V30 17364 H 1612.9 3.79232 1.04626 0
M  V30 17365 H 1614.91 4.49949 2.0919 0
M  V30 17366 N 1614.09 0.188454 1.56469 0
M  V30 17367 C 1615.05 -0.721282 2.17555 0
M  V30 17368 C 1616.05 -1.14579 1.1282 0
M  V30 17369 O 1617.24 -1.05996 1.38241 0
M  V30 17370 C 1614.37 -1.9839 2.77226 0
M  V30 17371 H 1615.56 -0.189218 2.99302 0
M  V30 17372 H 1613.12 -0.0611533 1.5618 0
M  V30 17373 H 1613.85 -2.55864 1.99259 0
M  V30 17374 H 1613.64 -1.68831 3.53891 0
M  V30 17375 H 1615.13 -2.63277 3.24153 0
M  V30 17376 N 1615.56 -1.5737 -0.0851874 0
M  V30 17377 C 1616.84 -1.77624 -0.819094 0
M  V30 17378 C 1617.22 -0.772645 -1.96452 0
M  V30 17379 O 1616.57 0.196912 -2.2765 0
M  V30 17380 C 1616.78 -3.23704 -1.30449 0
M  V30 17381 C 1618.13 -3.87163 -1.74328 0
M  V30 17382 O 1619.15 -3.27513 -1.40048 0
M  V30 17383 O 1618.01 -4.92075 -2.37748 0
M  V30 17384 H 1615.1 -0.728487 -0.391453 0
M  V30 17385 H 1617.65 -1.6957 -0.0663006 0
M  V30 17386 H 1616.42 -3.88292 -0.484277 0
M  V30 17387 H 1616.04 -3.36429 -2.119 0
M  V30 17388 N 1617.04 0.356258 -1.53521 0
M  V30 17389 C 1618 1.41975 -1.79933 0
M  V30 17390 C 1619 1.46177 -0.669997 0
M  V30 17391 O 1620.19 1.46774 -0.938239 0
M  V30 17392 C 1617.33 2.81015 -1.92985 0
M  V30 17393 H 1618.52 1.19824 -2.74922 0
M  V30 17394 H 1616.07 0.589928 -1.4474 0
M  V30 17395 H 1616.81 3.08466 -1.00095 0
M  V30 17396 H 1616.59 2.79363 -2.75135 0
M  V30 17397 H 1618.08 3.58013 -2.1498 0
M  V30 17398 N 1618.52 1.45038 0.616577 0
M  V30 17399 C 1619.77 1.48292 1.3731 0
M  V30 17400 C 1620.09 0.122437 1.94615 0
M  V30 17401 O 1619.36 -0.847103 1.76638 0
M  V30 17402 H 1617.94 0.546079 0.509712 0
M  V30 17403 H 1620.6 1.80927 0.724673 0
M  V30 17404 H 1619.7 2.21664 2.19708 0
M  V30 17405 N 1620 -0.858287 1.32179 0
M  V30 17406 C 1621.22 -1.64997 1.25662 0
M  V30 17407 C 1621.65 -1.87303 -0.173021 0
M  V30 17408 O 1621.01 -1.42319 -1.12317 0
M  V30 17409 C 1621.05 -2.98855 2.01787 0
M  V30 17410 O 1620.16 -3.89218 1.36319 0
M  V30 17411 H 1619.5 -0.503169 0.433264 0
M  V30 17412 H 1622.03 -1.06926 1.74436 0
M  V30 17413 H 1622.04 -3.48704 2.11824 0
M  V30 17414 H 1620.71 -2.81941 3.05748 0
M  V30 17415 H 1619.29 -3.4768 1.34807 0
M  V30 17416 N 1621.48 -1.1533 -1.07409 0
M  V30 17417 C 1622.75 -0.838341 -1.76724 0
M  V30 17418 C 1623.13 0.666169 -2.00313 0
M  V30 17419 O 1622.48 1.61033 -1.62113 0
M  V30 17420 C 1622.69 -1.64846 -3.07615 0
M  V30 17421 C 1624.04 -1.85429 -3.8197 0
M  V30 17422 O 1625.06 -1.61617 -3.17424 0
M  V30 17423 O 1623.92 -2.25305 -4.97896 0
M  V30 17424 H 1621.02 -0.308242 -0.767408 0
M  V30 17425 H 1623.56 -1.25905 -1.1378 0
M  V30 17426 H 1622.33 -2.66995 -2.86058 0
M  V30 17427 H 1621.96 -1.22405 -3.78289 0
M  V30 17428 N 1622.95 1.25748 -0.950004 0
M  V30 17429 C 1624.18 1.97952 -0.618848 0
M  V30 17430 C 1624.6 1.70184 0.801194 0
M  V30 17431 O 1623.96 0.955032 1.54107 0
M  V30 17432 C 1624.01 3.49744 -0.878151 0
M  V30 17433 O 1623.11 4.12375 0.0453685 0
M  V30 17434 H 1622.45 0.620731 -0.235773 0
M  V30 17435 H 1624.98 1.59988 -1.27534 0
M  V30 17436 H 1624.99 4.00029 -0.802567 0
M  V30 17437 H 1623.67 3.69285 -1.91315 0
M  V30 17438 H 1622.25 3.7281 -0.0820265 0
M  V30 17439 N 1624.43 0.718038 1.40292 0
M  V30 17440 C 1625.66 0.268326 2.05153 0
M  V30 17441 C 1626.07 -1.09075 1.54104 0
M  V30 17442 O 1625.43 -1.68597 0.698654 0
M  V30 17443 C 1625.48 0.242222 3.60688 0
M  V30 17444 O 1625.2 1.54764 4.09853 0
M  V30 17445 C 1626.7 -0.225741 4.42725 0
M  V30 17446 H 1623.92 0.120165 0.660153 0
M  V30 17447 H 1626.47 0.976933 1.79656 0
M  V30 17448 H 1624.62 -0.417367 3.85145 0
M  V30 17449 H 1625.04 1.44976 5.04066 0
M  V30 17450 H 1626.51 -0.192857 5.51663 0
M  V30 17451 H 1626.99 -1.26829 4.20489 0
M  V30 17452 H 1627.59 0.40366 4.2338 0
M  V30 17453 N 1625.91 -1.50602 0.464402 0
M  V30 17454 C 1626.86 -2.28382 -0.333234 0
M  V30 17455 C 1627.83 -1.3314 -0.993125 0
M  V30 17456 O 1629.01 -1.62072 -1.00685 0
M  V30 17457 C 1626.15 -3.14841 -1.41313 0
M  V30 17458 C 1625.27 -4.25106 -0.768684 0
M  V30 17459 C 1624.4 -4.98833 -1.82591 0
M  V30 17460 C 1623.44 -6.00982 -1.16135 0
M  V30 17461 N 1622.58 -6.68012 -2.16112 0
M  V30 17462 H 1627.42 -2.96096 0.336354 0
M  V30 17463 H 1624.95 -1.46022 0.17772 0
M  V30 17464 H 1626.91 -3.63314 -2.05082 0
M  V30 17465 H 1625.54 -2.49186 -2.05197 0
M  V30 17466 H 1624.59 -3.80395 -0.0185964 0
M  V30 17467 H 1625.91 -4.98204 -0.243759 0
M  V30 17468 H 1625.06 -5.50991 -2.53957 0
M  V30 17469 H 1623.8 -4.25426 -2.38462 0
M  V30 17470 H 1622.8 -5.4809 -0.43328 0
M  V30 17471 H 1624.03 -6.76358 -0.609612 0
M  V30 17472 H 1621.97 -5.97401 -2.71013 0
M  V30 17473 H 1621.89 -7.36963 -1.68586 0
M  V30 17474 H 1623.16 -7.2479 -2.86879 0
M  V30 17475 N 1627.39 -0.19675 -1.56367 0
M  V30 17476 C 1628.8 0.159068 -1.58805 0
M  V30 17477 C 1629 1.60902 -1.21297 0
M  V30 17478 O 1628.06 2.34491 -0.93649 0
M  V30 17479 C 1629.37 -0.144784 -3.00351 0
M  V30 17480 C 1630.92 -0.0850243 -3.12884 0
M  V30 17481 C 1631.4 -0.362209 -4.56565 0
M  V30 17482 N 1632.89 -0.310887 -4.62156 0
M  V30 17483 C 1633.62 -0.499187 -5.71223 0
M  V30 17484 N 1633.12 -0.747925 -6.88751 0
M  V30 17485 N 1634.91 -0.433329 -5.60427 0
M  V30 17486 H 1627.06 -1.1429 -1.79029 0
M  V30 17487 H 1629.33 -0.456298 -0.830961 0
M  V30 17488 H 1629.03 -1.15019 -3.3236 0
M  V30 17489 H 1628.91 0.551864 -3.73141 0
M  V30 17490 H 1631.29 0.910992 -2.80687 0
M  V30 17491 H 1631.37 -0.814774 -2.42477 0
M  V30 17492 H 1631.02 -1.35555 -4.89477 0
M  V30 17493 H 1630.95 0.388448 -5.25165 0
M  V30 17494 H 1633.44 -0.125318 -3.77692 0
M  V30 17495 H 1633.75 -0.880372 -7.67769 0
M  V30 17496 H 1632.1 -0.784838 -6.90554 0
M  V30 17497 H 1635.29 -0.239411 -4.67487 0
M  V30 17498 H 1635.46 -0.583495 -6.45368 0
M  V30 17499 N 1628.87 1.57413 0.0768405 0
M  V30 17500 C 1630.09 1.91607 0.793833 0
M  V30 17501 C 1630.52 0.792708 1.70581 0
M  V30 17502 O 1629.87 -0.25475 1.79501 0
M  V30 17503 C 1629.92 3.24736 1.56776 0
M  V30 17504 O 1629.03 3.13613 2.67807 0
M  V30 17505 H 1628.37 0.627572 0.216908 0
M  V30 17506 H 1630.9 2.04547 0.0465957 0
M  V30 17507 H 1630.91 3.58488 1.94809 0
M  V30 17508 H 1629.58 4.06077 0.898588 0
M  V30 17509 H 1628.16 2.91411 2.32668 0
M  V30 17510 N 1630.34 -0.348112 1.53707 0
M  V30 17511 C 1631.76 -0.690926 1.43869 0
M  V30 17512 C 1631.96 -1.92614 0.59177 0
M  V30 17513 O 1631.02 -2.5237 0.0809797 0
M  V30 17514 C 1632.33 -0.887824 2.87295 0
M  V30 17515 C 1633.88 -0.986731 2.9704 0
M  V30 17516 C 1634.35 -1.21598 4.41563 0
M  V30 17517 N 1635.84 -1.28328 4.45069 0
M  V30 17518 C 1636.58 -1.47809 5.54022 0
M  V30 17519 N 1636.07 -1.64492 6.72989 0
M  V30 17520 N 1637.87 -1.5032 5.41628 0
M  V30 17521 H 1630.02 0.464101 2.07268 0
M  V30 17522 H 1632.28 0.145678 0.93674 0
M  V30 17523 H 1631.99 -0.0517672 3.51662 0
M  V30 17524 H 1631.86 -1.79089 3.31974 0
M  V30 17525 H 1634.25 -1.81331 2.32815 0
M  V30 17526 H 1634.33 -0.0606692 2.55728 0
M  V30 17527 H 1633.97 -0.394341 5.06367 0
M  V30 17528 H 1633.9 -2.15553 4.80463 0
M  V30 17529 H 1636.39 -1.16979 3.59339 0
M  V30 17530 H 1636.71 -1.78979 7.51789 0
M  V30 17531 H 1635.05 -1.61636 6.75943 0
M  V30 17532 H 1638.24 -1.36865 4.47644 0
M  V30 17533 H 1638.42 -1.6516 6.26599 0
M  V30 17534 N 1631.82 -1.45363 -0.608876 0
M  V30 17535 C 1633.07 -1.50525 -1.36799 0
M  V30 17536 C 1633.42 -0.14442 -1.91857 0
M  V30 17537 O 1632.72 0.843502 -1.72034 0
M  V30 17538 C 1632.91 -2.51893 -2.53544 0
M  V30 17539 C 1632.74 -3.97699 -2.09918 0
M  V30 17540 C 1631.51 -4.65675 -1.96151 0
M  V30 17541 C 1633.71 -4.86272 -1.67464 0
M  V30 17542 N 1631.69 -5.96207 -1.46321 0
M  V30 17543 C 1633.06 -6.06423 -1.29041 0
M  V30 17544 C 1635.12 -4.73144 -1.55045 0
M  V30 17545 C 1633.82 -7.149 -0.794378 0
M  V30 17546 C 1635.84 -5.81668 -1.06846 0
M  V30 17547 C 1635.21 -7.00974 -0.693858 0
M  V30 17548 H 1631.31 -0.605762 -0.494546 0
M  V30 17549 H 1633.89 -1.81828 -0.696187 0
M  V30 17550 H 1632.06 -2.22544 -3.18322 0
M  V30 17551 H 1633.79 -2.47211 -3.2042 0
M  V30 17552 H 1630.55 -4.20808 -2.17296 0
M  V30 17553 H 1630.97 -6.65614 -1.23642 0
M  V30 17554 H 1635.61 -3.81321 -1.82632 0
M  V30 17555 H 1633.33 -8.06514 -0.506051 0
M  V30 17556 H 1636.92 -5.73544 -0.976637 0
M  V30 17557 H 1635.8 -7.83519 -0.326629 0
M  V30 17558 N 1633.3 0.851265 -1.32632 0
M  V30 17559 C 1634.23 1.96408 -1.16187 0
M  V30 17560 C 1635.21 1.62488 -0.0604559 0
M  V30 17561 O 1636.4 1.87207 -0.220397 0
M  V30 17562 C 1633.52 3.29611 -0.779378 0
M  V30 17563 C 1632.57 3.82509 -1.88652 0
M  V30 17564 S 1633.4 4.05687 -3.4954 0
M  V30 17565 C 1634.56 5.4186 -3.1327 0
M  V30 17566 H 1634.79 2.10056 -2.10389 0
M  V30 17567 H 1632.32 1.00363 -1.17332 0
M  V30 17568 H 1634.28 4.06587 -0.565463 0
M  V30 17569 H 1632.94 3.1377 0.143841 0
M  V30 17570 H 1632.14 4.78858 -1.57196 0
M  V30 17571 H 1631.74 3.12388 -2.05645 0
M  V30 17572 H 1634.03 6.24233 -2.63325 0
M  V30 17573 H 1634.97 5.7828 -4.08654 0
M  V30 17574 H 1635.38 5.06025 -2.50199 0
M  V30 17575 N 1634.78 1.15898 1.06796 0
M  V30 17576 C 1635.69 0.87507 2.17669 0
M  V30 17577 C 1636.7 -0.150763 1.73346 0
M  V30 17578 O 1637.88 0.0246621 2.01385 0
M  V30 17579 C 1634.95 0.374555 3.44671 0
M  V30 17580 C 1634.01 1.46498 4.0353 0
M  V30 17581 C 1633.24 0.988256 5.2447 0
M  V30 17582 O 1633.46 -0.163992 5.70164 0
M  V30 17583 O 1632.4 1.7744 5.75151 0
M  V30 17584 H 1636.22 1.80208 2.44456 0
M  V30 17585 H 1633.81 0.93854 1.1624 0
M  V30 17586 H 1635.69 0.102161 4.21276 0
M  V30 17587 H 1634.36 -0.524513 3.19422 0
M  V30 17588 H 1633.27 1.79105 3.28439 0
M  V30 17589 H 1634.6 2.33917 4.33063 0
M  V30 17590 N 1636.26 -1.25243 0.956659 0
M  V30 17591 C 1637.2 -2.25811 0.477292 0
M  V30 17592 C 1638.17 -1.59273 -0.471301 0
M  V30 17593 O 1639.36 -1.86894 -0.384105 0
M  V30 17594 C 1636.5 -3.44286 -0.236891 0
M  V30 17595 C 1635.61 -4.25454 0.749177 0
M  V30 17596 C 1634.75 -5.31199 0.012228 0
M  V30 17597 C 1633.79 -6.04056 0.989094 0
M  V30 17598 N 1632.92 -7.0153 0.282883 0
M  V30 17599 H 1637.76 -2.66185 1.33977 0
M  V30 17600 H 1635.3 -1.30862 0.671832 0
M  V30 17601 H 1637.26 -4.11825 -0.66755 0
M  V30 17602 H 1635.89 -3.04781 -1.06339 0
M  V30 17603 H 1634.94 -3.57558 1.29831 0
M  V30 17604 H 1636.25 -4.75883 1.49454 0
M  V30 17605 H 1635.41 -6.04822 -0.476968 0
M  V30 17606 H 1634.14 -4.81648 -0.76591 0
M  V30 17607 H 1633.15 -5.29245 1.48927 0
M  V30 17608 H 1634.37 -6.55695 1.76749 0
M  V30 17609 H 1632.32 -6.54267 -0.476479 0
M  V30 17610 H 1632.24 -7.49786 0.967304 0
M  V30 17611 H 1633.51 -7.79281 -0.184709 0
M  V30 17612 N 1637.73 -0.725468 -1.3991 0
M  V30 17613 C 1638.7 -0.0878956 -2.29031 0
M  V30 17614 C 1639.7 0.677105 -1.45849 0
M  V30 17615 O 1640.89 0.507538 -1.66642 0
M  V30 17616 C 1638.02 0.885087 -3.2921 0
M  V30 17617 H 1639.21 -0.872957 -2.86914 0
M  V30 17618 H 1636.77 -0.490715 -1.48397 0
M  V30 17619 H 1637.5 1.69685 -2.76365 0
M  V30 17620 H 1637.29 0.339297 -3.90629 0
M  V30 17621 H 1638.78 1.32806 -3.9592 0
M  V30 17622 N 1639.21 1.50354 -0.472382 0
M  V30 17623 C 1640.14 2.3142 0.310995 0
M  V30 17624 C 1641.12 1.38383 0.989151 0
M  V30 17625 O 1642.31 1.67303 0.986074 0
M  V30 17626 C 1639.44 3.18157 1.3926 0
M  V30 17627 C 1638.39 4.19756 0.835977 0
M  V30 17628 C 1637.72 4.9524 2.01597 0
M  V30 17629 C 1639.02 5.22074 -0.15361 0
M  V30 17630 H 1640.71 2.97159 -0.365595 0
M  V30 17631 H 1638.26 1.42905 -0.177266 0
M  V30 17632 H 1640.21 3.73666 1.94813 0
M  V30 17633 H 1638.94 2.50305 2.09798 0
M  V30 17634 H 1637.59 3.65351 0.302414 0
M  V30 17635 H 1637.24 4.2386 2.70836 0
M  V30 17636 H 1636.94 5.63966 1.64974 0
M  V30 17637 H 1638.47 5.53584 2.57637 0
M  V30 17638 H 1639.88 5.72446 0.312783 0
M  V30 17639 H 1638.28 5.98527 -0.43418 0
M  V30 17640 H 1639.35 4.72741 -1.07908 0
M  V30 17641 N 1640.69 0.205039 1.56261 0
M  V30 17642 C 1641.94 -0.430245 1.97467 0
M  V30 17643 C 1642.26 -1.6146 1.09342 0
M  V30 17644 O 1641.53 -1.95188 0.166836 0
M  V30 17645 H 1640.11 -0.161945 0.729234 0
M  V30 17646 H 1642.77 0.294089 1.92668 0
M  V30 17647 H 1641.87 -0.767699 3.02511 0
M  V30 17648 N 1642.17 -1.57451 -0.0684915 0
M  V30 17649 C 1643.1 -2.06954 -1.0813 0
M  V30 17650 C 1644.08 -0.963716 -1.40166 0
M  V30 17651 O 1645.27 -1.23664 -1.49736 0
M  V30 17652 C 1642.4 -2.51622 -2.39381 0
M  V30 17653 C 1641.35 -3.66111 -2.2169 0
M  V30 17654 C 1640.68 -3.96846 -3.58354 0
M  V30 17655 C 1641.98 -4.96036 -1.63541 0
M  V30 17656 H 1643.67 -2.91822 -0.66936 0
M  V30 17657 H 1641.22 -1.40387 -0.320533 0
M  V30 17658 H 1643.17 -2.84867 -3.1053 0
M  V30 17659 H 1641.89 -1.63788 -2.82562 0
M  V30 17660 H 1640.55 -3.33155 -1.52982 0
M  V30 17661 H 1640.2 -3.06137 -3.9911 0
M  V30 17662 H 1639.9 -4.73939 -3.47354 0
M  V30 17663 H 1641.42 -4.3259 -4.30927 0
M  V30 17664 H 1642.84 -5.27491 -2.24559 0
M  V30 17665 H 1641.23 -5.77474 -1.63228 0
M  V30 17666 H 1642.3 -4.81208 -0.597199 0
M  V30 17667 N 1643.65 0.339955 -1.5389 0
M  V30 17668 C 1644.88 1.09816 -1.74997 0
M  V30 17669 C 1645.29 1.82725 -0.490746 0
M  V30 17670 O 1644.63 1.75352 0.547467 0
M  V30 17671 C 1644.69 2.15388 -2.87834 0
M  V30 17672 C 1644.35 1.62022 -4.27315 0
M  V30 17673 C 1645.35 1.07064 -5.08757 0
M  V30 17674 C 1643.04 1.6676 -4.7381 0
M  V30 17675 C 1645.03 0.575529 -6.34796 0
M  V30 17676 C 1642.72 1.16861 -5.99822 0
M  V30 17677 C 1643.72 0.623505 -6.80148 0
M  V30 17678 O 1643.4 0.131966 -8.03792 0
M  V30 17679 H 1643.14 0.333199 -0.588179 0
M  V30 17680 H 1645.69 0.39682 -2.0153 0
M  V30 17681 H 1643.92 2.89091 -2.56834 0
M  V30 17682 H 1645.61 2.76801 -2.96877 0
M  V30 17683 H 1646.37 1.02723 -4.73997 0
M  V30 17684 H 1642.25 2.08129 -4.11343 0
M  V30 17685 H 1645.8 0.149389 -6.9744 0
M  V30 17686 H 1641.69 1.20904 -6.34076 0
M  V30 17687 H 1642.46 0.24892 -8.18121 0
M  V30 17688 N 1645.13 1.45684 0.601159 0
M  V30 17689 C 1646.06 1.50861 1.7255 0
M  V30 17690 C 1647.07 0.398728 1.57842 0
M  V30 17691 O 1648.26 0.66613 1.65605 0
M  V30 17692 C 1645.36 1.35535 3.10618 0
M  V30 17693 C 1644.53 2.60313 3.51505 0
M  V30 17694 C 1643.59 2.39451 4.68561 0
M  V30 17695 O 1642.62 3.13094 4.75353 0
M  V30 17696 N 1643.82 1.44426 5.62247 0
M  V30 17697 H 1646.58 2.47799 1.6857 0
M  V30 17698 H 1644.15 1.41505 0.786626 0
M  V30 17699 H 1646.14 1.19379 3.86692 0
M  V30 17700 H 1644.71 0.468492 3.09069 0
M  V30 17701 H 1643.93 2.9154 2.65327 0
M  V30 17702 H 1645.22 3.43242 3.75583 0
M  V30 17703 H 1644.61 0.836624 5.59479 0
M  V30 17704 H 1643.17 1.34239 6.37827 0
M  V30 17705 N 1646.6 -0.84422 1.33082 0
M  V30 17706 C 1647.84 -1.61287 1.25562 0
M  V30 17707 C 1648.21 -1.91179 -0.177361 0
M  V30 17708 O 1649.41 -2.66151 -0.376442 0
M  V30 17709 C 1647.68 -2.89106 2.10125 0
M  V30 17710 S 1649.24 -3.79816 2.1974 0
M  V30 17711 H 1646.06 -0.553081 0.446791 0
M  V30 17712 H 1648.66 -0.998931 1.68052 0
M  V30 17713 H 1647.36 -2.65109 3.13281 0
M  V30 17714 H 1646.89 -3.55511 1.68451 0
M  V30 17715 H 1648.91 -4.77354 1.35454 0
M  V30 17716 N 1648.08 -1.16463 -1.0618 0
M  V30 17717 C 1649.36 -0.857038 -1.75824 0
M  V30 17718 C 1649.74 0.644886 -2.01009 0
M  V30 17719 O 1649.09 1.59305 -1.63812 0
M  V30 17720 C 1649.3 -1.681 -3.05849 0
M  V30 17721 C 1650.64 -1.8947 -3.79982 0
M  V30 17722 O 1651.67 -1.64975 -3.15692 0
M  V30 17723 O 1650.53 -2.30573 -4.95478 0
M  V30 17724 H 1647.62 -0.316364 -0.764096 0
M  V30 17725 H 1650.17 -1.27105 -1.12438 0
M  V30 17726 H 1648.94 -2.70014 -2.8321 0
M  V30 17727 H 1648.56 -1.2641 -3.7697 0
M  V30 17728 N 1649.56 1.24734 -0.963288 0
M  V30 17729 C 1650.79 1.96745 -0.640234 0
M  V30 17730 C 1651.2 1.71503 0.789445 0
M  V30 17731 O 1650.56 0.996174 1.52914 0
M  V30 17732 C 1650.61 3.50118 -0.899987 0
M  V30 17733 O 1650.33 3.74494 -2.27346 0
M  V30 17734 C 1651.83 4.39349 -0.590511 0
M  V30 17735 H 1649.05 0.626892 -0.239266 0
M  V30 17736 H 1651.6 1.58678 -1.29002 0
M  V30 17737 H 1649.75 3.86264 -0.296478 0
M  V30 17738 H 1650.17 4.68902 -2.35013 0
M  V30 17739 H 1651.64 5.45834 -0.822744 0
M  V30 17740 H 1652.12 4.36622 0.475138 0
M  V30 17741 H 1652.72 4.08783 -1.17373 0
M  V30 17742 N 1651.04 0.732878 1.39523 0
M  V30 17743 C 1651.95 0.0930216 2.34416 0
M  V30 17744 C 1652.96 -0.724309 1.58208 0
M  V30 17745 O 1654.14 -0.653267 1.90511 0
M  V30 17746 C 1651.2 -0.805036 3.37224 0
M  V30 17747 C 1650.27 0.0243049 4.29293 0
M  V30 17748 C 1649.5 -0.830984 5.27191 0
M  V30 17749 O 1649.72 -2.06977 5.31523 0
M  V30 17750 O 1648.66 -0.260772 6.01335 0
M  V30 17751 H 1652.48 0.876179 2.90786 0
M  V30 17752 H 1650.07 0.493525 1.41013 0
M  V30 17753 H 1651.95 -1.31894 4.00228 0
M  V30 17754 H 1650.62 -1.56704 2.83241 0
M  V30 17755 H 1649.53 0.583677 3.69519 0
M  V30 17756 H 1650.86 0.748485 4.86476 0
M  V30 17757 N 1652.52 -1.50101 0.480349 0
M  V30 17758 C 1653.45 -2.31581 -0.298718 0
M  V30 17759 C 1654.43 -1.38905 -0.981798 0
M  V30 17760 O 1655.61 -1.67823 -0.977188 0
M  V30 17761 C 1652.74 -3.18891 -1.37571 0
M  V30 17762 C 1651.7 -4.20194 -0.813704 0
M  V30 17763 C 1651.02 -4.96302 -1.98968 0
M  V30 17764 C 1652.32 -5.21985 0.181295 0
M  V30 17765 H 1654.02 -2.96961 0.381349 0
M  V30 17766 H 1651.56 -1.42809 0.184842 0
M  V30 17767 H 1653.51 -3.74694 -1.92828 0
M  V30 17768 H 1652.24 -2.51414 -2.08467 0
M  V30 17769 H 1650.9 -3.65506 -0.283034 0
M  V30 17770 H 1650.55 -4.2529 -2.68584 0
M  V30 17771 H 1650.25 -5.64833 -1.61981 0
M  V30 17772 H 1651.77 -5.54943 -2.54698 0
M  V30 17773 H 1653.18 -5.72604 -0.28242 0
M  V30 17774 H 1651.58 -5.98289 0.465916 0
M  V30 17775 H 1652.65 -4.72162 1.10413 0
M  V30 17776 N 1653.99 -0.213323 -1.5615 0
M  V30 17777 C 1654.92 0.695003 -2.22917 0
M  V30 17778 C 1655.9 1.20738 -1.19818 0
M  V30 17779 O 1657.09 1.25289 -1.48379 0
M  V30 17780 C 1654.22 1.90685 -2.9027 0
M  V30 17781 C 1653.17 1.52865 -3.9977 0
M  V30 17782 C 1652.5 2.81859 -4.54378 0
M  V30 17783 C 1653.8 0.724829 -5.17246 0
M  V30 17784 H 1655.49 0.138351 -2.9908 0
M  V30 17785 H 1653.04 0.0651029 -1.43853 0
M  V30 17786 H 1654.99 2.54766 -3.35667 0
M  V30 17787 H 1653.72 2.48833 -2.11541 0
M  V30 17788 H 1652.38 0.911336 -3.55092 0
M  V30 17789 H 1652.02 3.38135 -3.72389 0
M  V30 17790 H 1651.72 2.57291 -5.28275 0
M  V30 17791 H 1653.25 3.46897 -5.02489 0
M  V30 17792 H 1654.66 1.26915 -5.59076 0
M  V30 17793 H 1653.06 0.57656 -5.97324 0
M  V30 17794 H 1654.13 -0.270309 -4.84146 0
M  V30 17795 N 1655.47 1.57485 0.0601405 0
M  V30 17796 C 1656.72 1.87445 0.755575 0
M  V30 17797 C 1657.04 0.806915 1.77522 0
M  V30 17798 O 1656.31 -0.163139 1.9522 0
M  V30 17799 H 1654.89 0.691708 0.282044 0
M  V30 17800 H 1657.55 1.94871 0.0334616 0
M  V30 17801 H 1656.65 2.85334 1.26455 0
M  V30 17802 N 1656.95 -0.331789 1.54068 0
M  V30 17803 C 1657.88 -1.41332 1.8587 0
M  V30 17804 C 1658.86 -1.54353 0.714787 0
M  V30 17805 O 1660.05 -1.68368 0.967777 0
M  V30 17806 C 1657.18 -2.78218 2.07875 0
M  V30 17807 C 1656.13 -2.79994 3.23709 0
M  V30 17808 C 1655.46 -4.19878 3.31069 0
M  V30 17809 C 1656.76 -2.44476 4.6155 0
M  V30 17810 H 1658.45 -1.14966 2.76447 0
M  V30 17811 H 1656 -0.551615 1.33016 0
M  V30 17812 H 1657.95 -3.53937 2.28706 0
M  V30 17813 H 1656.67 -3.06044 1.14038 0
M  V30 17814 H 1655.33 -2.0673 3.02751 0
M  V30 17815 H 1654.98 -4.44831 2.34807 0
M  V30 17816 H 1654.68 -4.21974 4.08915 0
M  V30 17817 H 1656.2 -4.97421 3.54125 0
M  V30 17818 H 1657.62 -3.09908 4.82317 0
M  V30 17819 H 1656.02 -2.57837 5.41886 0
M  V30 17820 H 1657.09 -1.3964 4.64358 0
M  V30 17821 N 1658.43 -1.46001 -0.593424 0
M  V30 17822 C 1659.65 -1.54541 -1.38318 0
M  V30 17823 C 1660.08 -0.183555 -1.87202 0
M  V30 17824 O 1659.44 0.834407 -1.60958 0
M  V30 17825 C 1659.48 -2.54559 -2.55405 0
M  V30 17826 O 1658.59 -2.07321 -3.56499 0
M  V30 17827 H 1657.93 -0.520434 -0.412364 0
M  V30 17828 H 1660.46 -1.9148 -0.720862 0
M  V30 17829 H 1660.47 -2.73823 -3.02465 0
M  V30 17830 H 1659.14 -3.53461 -2.19176 0
M  V30 17831 H 1657.72 -1.97997 -3.15993 0
M  V30 17832 N 1659.91 0.83715 -1.33527 0
M  V30 17833 C 1660.87 1.92865 -1.23837 0
M  V30 17834 C 1661.87 1.60032 -0.157005 0
M  V30 17835 O 1663.06 1.69339 -0.408654 0
M  V30 17836 C 1660.19 3.28568 -0.908617 0
M  V30 17837 H 1661.38 2.02883 -2.20859 0
M  V30 17838 H 1658.94 1.02944 -1.1761 0
M  V30 17839 H 1659.67 3.24246 0.0590328 0
M  V30 17840 H 1659.46 3.53779 -1.69064 0
M  V30 17841 H 1660.95 4.0853 -0.86561 0
M  V30 17842 N 1661.38 1.17024 1.05561 0
M  V30 17843 C 1662.32 0.841314 2.13201 0
M  V30 17844 C 1663.33 -0.154667 1.62064 0
M  V30 17845 O 1664.52 0.0711173 1.78358 0
M  V30 17846 C 1661.62 0.233156 3.38097 0
M  V30 17847 C 1660.79 1.27108 4.18524 0
M  V30 17848 C 1659.85 0.681364 5.2177 0
M  V30 17849 O 1658.88 1.35219 5.52906 0
M  V30 17850 N 1660.08 -0.528381 5.7809 0
M  V30 17851 H 1662.84 1.76773 2.42015 0
M  V30 17852 H 1660.4 1.06858 1.21626 0
M  V30 17853 H 1662.4 -0.174565 4.04323 0
M  V30 17854 H 1660.97 -0.596965 3.06847 0
M  V30 17855 H 1660.19 1.85469 3.47843 0
M  V30 17856 H 1661.47 1.97129 4.6906 0
M  V30 17857 H 1660.87 -1.09141 5.55072 0
M  V30 17858 H 1659.43 -0.878214 6.45857 0
M  V30 17859 N 1662.86 -1.24221 0.969889 0
M  V30 17860 C 1664.14 -1.87715 0.549772 0
M  V30 17861 C 1664.52 -1.87333 -0.973114 0
M  V30 17862 O 1663.87 -1.3475 -1.84539 0
M  V30 17863 C 1664.08 -3.29724 1.14381 0
M  V30 17864 C 1665.43 -4.06393 1.23005 0
M  V30 17865 O 1666.45 -3.38904 1.09648 0
M  V30 17866 O 1665.31 -5.27149 1.4414 0
M  V30 17867 H 1662.4 -0.806356 0.183629 0
M  V30 17868 H 1664.95 -1.32177 1.0643 0
M  V30 17869 H 1663.72 -3.24513 2.18649 0
M  V30 17870 H 1663.34 -3.92839 0.613456 0
M  V30 17871 N 1664.34 -0.740267 -1.39132 0
M  V30 17872 C 1665.27 -0.118951 -2.33197 0
M  V30 17873 C 1666.25 0.718416 -1.54184 0
M  V30 17874 O 1667.44 0.662322 -1.82557 0
M  V30 17875 C 1664.57 0.78512 -3.38309 0
M  V30 17876 C 1663.52 0.0515093 -4.27969 0
M  V30 17877 C 1662.85 1.07295 -5.23824 0
M  V30 17878 C 1664.15 -1.10903 -5.1039 0
M  V30 17879 H 1665.84 -0.904687 -2.85405 0
M  V30 17880 H 1663.39 -0.436493 -1.37225 0
M  V30 17881 H 1665.34 1.22935 -4.03069 0
M  V30 17882 H 1664.06 1.60303 -2.84553 0
M  V30 17883 H 1662.72 -0.373156 -3.64696 0
M  V30 17884 H 1662.37 1.88456 -4.66362 0
M  V30 17885 H 1662.07 0.586827 -5.84662 0
M  V30 17886 H 1663.59 1.51677 -5.91461 0
M  V30 17887 H 1665.01 -0.742993 -5.68465 0
M  V30 17888 H 1663.41 -1.52513 -5.80396 0
M  V30 17889 H 1664.48 -1.92825 -4.44912 0
M  V30 17890 N 1665.82 1.49844 -0.488302 0
M  V30 17891 C 1667.23 1.58954 -0.14348 0
M  V30 17892 C 1667.43 1.49482 1.3512 0
M  V30 17893 O 1666.49 1.36218 2.12605 0
M  V30 17894 C 1667.8 2.92222 -0.708991 0
M  V30 17895 C 1669.35 3.05658 -0.673957 0
M  V30 17896 C 1669.83 4.41526 -1.21731 0
M  V30 17897 N 1671.32 4.47985 -1.17746 0
M  V30 17898 C 1672.05 5.51539 -1.5682 0
M  V30 17899 N 1671.55 6.62261 -2.03426 0
M  V30 17900 N 1673.34 5.4218 -1.48315 0
M  V30 17901 H 1665.49 1.54244 -1.46022 0
M  V30 17902 H 1667.76 0.72992 -0.604914 0
M  V30 17903 H 1667.46 3.04683 -1.75674 0
M  V30 17904 H 1667.34 3.76851 -0.162226 0
M  V30 17905 H 1669.72 2.92835 0.364925 0
M  V30 17906 H 1669.8 2.22744 -1.25772 0
M  V30 17907 H 1669.45 4.551 -2.25491 0
M  V30 17908 H 1669.38 5.2306 -0.609598 0
M  V30 17909 H 1671.87 3.68541 -0.835828 0
M  V30 17910 H 1672.18 7.3736 -2.31345 0
M  V30 17911 H 1670.53 6.63335 -2.07392 0
M  V30 17912 H 1673.72 4.54569 -1.11733 0
M  V30 17913 H 1673.89 6.2276 -1.79092 0
M  V30 17914 N 1667.3 0.221601 1.56034 0
M  V30 17915 C 1668.57 -0.459097 1.90136 0
M  V30 17916 C 1668.95 -1.7774 1.13894 0
M  V30 17917 O 1668.3 -2.27147 0.248285 0
M  V30 17918 C 1668.51 -0.651996 3.42856 0
M  V30 17919 C 1669.86 -0.959402 4.13619 0
M  V30 17920 O 1670.88 -0.73878 3.48454 0
M  V30 17921 O 1669.74 -1.37811 5.28839 0
M  V30 17922 H 1666.84 -0.242753 0.790569 0
M  V30 17923 H 1669.38 0.263789 1.67637 0
M  V30 17924 H 1668.15 0.277892 3.90312 0
M  V30 17925 H 1667.78 -1.42637 3.71134 0
M  V30 17926 N 1668.77 -1.57515 -0.0517878 0
M  V30 17927 C 1670.19 -1.76755 -0.601218 0
M  V30 17928 C 1670.54 -0.849744 -1.76844 0
M  V30 17929 O 1669.66 -0.0387987 -2.16365 0
M  V30 17930 C 1670.26 -3.20534 -1.09743 0
M  V30 17931 C 1668.82 -3.41049 -1.59256 0
M  V30 17932 C 1667.96 -2.72369 -0.520618 0
M  V30 17933 H 1670.91 -1.57739 0.174429 0
M  V30 17934 H 1670.93 -3.25796 -1.96563 0
M  V30 17935 H 1670.45 -3.87309 -0.247696 0
M  V30 17936 H 1668.55 -2.79417 -2.46489 0
M  V30 17937 H 1668.66 -4.49581 -1.65572 0
M  V30 17938 H 1667.02 -2.3549 -0.97038 0
M  V30 17939 H 1667.81 -3.41812 0.319266 0
M  V30 17940 N 1670.25 0.323614 -1.54242 0
M  V30 17941 C 1671.5 1.05947 -1.72104 0
M  V30 17942 C 1671.82 1.88547 -0.497512 0
M  V30 17943 O 1671.09 1.89712 0.488485 0
M  V30 17944 H 1669.67 0.394141 -0.634557 0
M  V30 17945 H 1672.33 0.360063 -1.91545 0
M  V30 17946 H 1671.43 1.72552 -2.60062 0
M  V30 17947 N 1671.73 1.46313 0.585673 0
M  V30 17948 C 1672.96 1.55273 1.37496 0
M  V30 17949 C 1673.38 0.193481 1.87102 0
M  V30 17950 O 1672.74 -0.825859 1.61398 0
M  V30 17951 C 1672.79 2.5591 2.54052 0
M  V30 17952 O 1671.89 2.09208 3.55395 0
M  V30 17953 H 1671.23 0.522614 0.409598 0
M  V30 17954 H 1673.76 1.9186 0.710697 0
M  V30 17955 H 1673.77 2.75424 3.01008 0
M  V30 17956 H 1672.45 3.54619 2.17298 0
M  V30 17957 H 1671.02 1.9967 3.14939 0
M  V30 17958 N 1673.21 -0.830057 1.33969 0
M  V30 17959 C 1674.46 -1.58821 1.26111 0
M  V30 17960 C 1674.79 -1.9345 -0.170484 0
M  V30 17961 O 1674.06 -1.59433 -1.11407 0
M  V30 17962 C 1674.35 -2.89243 2.14501 0
M  V30 17963 C 1674.2 -2.61239 3.66162 0
M  V30 17964 C 1675.52 -3.90752 2.02487 0
M  V30 17965 H 1672.64 -0.576255 0.459455 0
M  V30 17966 H 1675.28 -0.956736 1.64154 0
M  V30 17967 H 1673.43 -3.43133 1.82186 0
M  V30 17968 H 1675.1 -2.13713 4.08809 0
M  V30 17969 H 1673.34 -1.94796 3.87604 0
M  V30 17970 H 1674.02 -3.54212 4.23365 0
M  V30 17971 H 1676.49 -3.46194 2.30844 0
M  V30 17972 H 1675.37 -4.79825 2.6657 0
M  V30 17973 H 1675.63 -4.30649 0.999704 0
M  V30 17974 N 1674.69 -1.17582 -1.04939 0
M  V30 17975 C 1675.94 -0.960189 -1.77379 0
M  V30 17976 C 1676.25 0.512001 -1.8878 0
M  V30 17977 O 1677.46 0.845912 -2.57986 0
M  V30 17978 C 1675.91 -1.66882 -3.18871 0
M  V30 17979 C 1675.52 -3.17972 -3.15591 0
M  V30 17980 C 1677.26 -1.53567 -3.95749 0
M  V30 17981 C 1675.17 -3.81513 -4.51887 0
M  V30 17982 H 1674.1 -0.35562 -0.664869 0
M  V30 17983 H 1676.75 -1.40863 -1.17601 0
M  V30 17984 H 1675.13 -1.14813 -3.78991 0
M  V30 17985 H 1676.31 -3.76995 -2.64974 0
M  V30 17986 H 1674.62 -3.31328 -2.52212 0
M  V30 17987 H 1677.22 -1.98408 -4.96526 0
M  V30 17988 H 1677.56 -0.486603 -4.13446 0
M  V30 17989 H 1678.1 -2.02868 -3.42183 0
M  V30 17990 H 1674.83 -4.86428 -4.39395 0
M  V30 17991 H 1674.35 -3.27276 -5.02643 0
M  V30 17992 H 1676.03 -3.83867 -5.20822 0
M  V30 17993 N 1676.17 1.23705 -0.976463 0
M  V30 17994 C 1677.41 1.92299 -0.64412 0
M  V30 17995 C 1677.74 1.7605 0.819767 0
M  V30 17996 O 1677.02 1.11902 1.59086 0
M  V30 17997 C 1677.3 3.45042 -1.03044 0
M  V30 17998 C 1677.16 3.70418 -2.55167 0
M  V30 17999 C 1678.47 4.36374 -0.571444 0
M  V30 18000 H 1675.59 0.698369 -0.235478 0
M  V30 18001 H 1678.24 1.45904 -1.21704 0
M  V30 18002 H 1676.39 3.84687 -0.54294 0
M  V30 18003 H 1678.06 3.40278 -3.11462 0
M  V30 18004 H 1676.3 3.15266 -2.97976 0
M  V30 18005 H 1676.97 4.77323 -2.77248 0
M  V30 18006 H 1679.45 4.04153 -0.989936 0
M  V30 18007 H 1678.32 5.41958 -0.870226 0
M  V30 18008 H 1678.58 4.38932 0.528318 0
M  V30 18009 N 1677.64 0.747635 1.38738 0
M  V30 18010 C 1678.61 0.124321 2.28863 0
M  V30 18011 C 1679.61 -0.653816 1.46908 0
M  V30 18012 O 1680.8 -0.480963 1.67429 0
M  V30 18013 C 1677.93 -0.832601 3.30576 0
M  V30 18014 H 1679.12 0.918492 2.85489 0
M  V30 18015 H 1676.67 0.514262 1.47598 0
M  V30 18016 H 1677.41 -1.65267 2.79029 0
M  V30 18017 H 1677.19 -0.277109 3.9112 0
M  V30 18018 H 1678.68 -1.2649 3.97982 0
M  V30 18019 N 1679.12 -1.49583 0.496242 0
M  V30 18020 C 1680.37 -2.02438 -0.049963 0
M  V30 18021 C 1680.7 -1.37632 -1.37433 0
M  V30 18022 O 1679.95 -0.499552 -1.89217 0
M  V30 18023 C 1680.25 -3.56482 -0.255949 0
M  V30 18024 C 1679.92 -4.39901 0.989824 0
M  V30 18025 C 1678.58 -4.62417 1.33132 0
M  V30 18026 C 1680.93 -4.88461 1.81811 0
M  V30 18027 C 1678.26 -5.30737 2.50071 0
M  V30 18028 C 1680.61 -5.58067 2.97899 0
M  V30 18029 C 1679.27 -5.7883 3.32434 0
M  V30 18030 H 1678.54 -0.740774 -0.0182828 0
M  V30 18031 H 1681.19 -1.79934 0.655434 0
M  V30 18032 H 1679.5 -3.77639 -1.04383 0
M  V30 18033 H 1681.19 -3.94967 -0.692943 0
M  V30 18034 H 1677.78 -4.22614 0.713811 0
M  V30 18035 H 1681.97 -4.70898 1.56743 0
M  V30 18036 H 1677.22 -5.45015 2.77072 0
M  V30 18037 H 1681.4 -5.9467 3.6241 0
M  V30 18038 H 1679.02 -6.31544 4.23151 0
M  V30 18039 N 1680.6 -0.229873 -1.55915 0
M  V30 18040 C 1681.55 0.676809 -2.20653 0
M  V30 18041 C 1682.52 1.18412 -1.16481 0
M  V30 18042 O 1683.7 1.2417 -1.44867 0
M  V30 18043 C 1680.84 1.87567 -2.89677 0
M  V30 18044 C 1679.95 1.40648 -4.08463 0
M  V30 18045 C 1679.09 2.56356 -4.65247 0
M  V30 18046 C 1678.13 2.06215 -5.76318 0
M  V30 18047 N 1677.27 3.15226 -6.27357 0
M  V30 18048 H 1682.11 0.118035 -2.97766 0
M  V30 18049 H 1679.64 0.0465042 -1.47026 0
M  V30 18050 H 1681.6 2.57968 -3.27884 0
M  V30 18051 H 1680.23 2.40719 -2.15067 0
M  V30 18052 H 1679.28 0.597104 -3.75684 0
M  V30 18053 H 1680.59 0.998877 -4.88696 0
M  V30 18054 H 1679.75 3.34827 -5.05941 0
M  V30 18055 H 1678.49 3.0041 -3.84194 0
M  V30 18056 H 1677.49 1.26209 -5.35118 0
M  V30 18057 H 1678.72 1.63151 -6.59211 0
M  V30 18058 H 1676.66 3.58746 -5.49215 0
M  V30 18059 H 1676.58 2.78744 -7.02736 0
M  V30 18060 H 1677.85 3.93807 -6.72708 0
M  V30 18061 N 1682.08 1.5754 0.0434337 0
M  V30 18062 C 1682.99 2.08996 1.06574 0
M  V30 18063 C 1684 1.02544 1.40573 0
M  V30 18064 O 1685.18 1.34192 1.50181 0
M  V30 18065 C 1682.24 2.54723 2.35196 0
M  V30 18066 C 1681.31 3.75595 2.0791 0
M  V30 18067 C 1680.54 4.19132 3.304 0
M  V30 18068 O 1680.76 3.62303 4.40559 0
M  V30 18069 O 1679.7 5.11694 3.16944 0
M  V30 18070 H 1683.52 2.96475 0.658503 0
M  V30 18071 H 1681.11 1.47129 0.259475 0
M  V30 18072 H 1682.99 2.84529 3.1084 0
M  V30 18073 H 1681.66 1.70361 2.75243 0
M  V30 18074 H 1680.57 3.5083 1.2988 0
M  V30 18075 H 1681.9 4.60897 1.72727 0
M  V30 18076 N 1683.56 -0.31543 1.54411 0
M  V30 18077 C 1684.8 -1.05033 1.72663 0
M  V30 18078 C 1685.12 -1.8828 0.507504 0
M  V30 18079 O 1684.39 -1.89968 -0.478418 0
M  V30 18080 H 1682.97 -0.39077 0.636638 0
M  V30 18081 H 1685.64 -0.3499 1.91733 0
M  V30 18082 H 1684.73 -1.71171 2.60973 0
M  V30 18083 N 1685.03 -1.46622 -0.577906 0
M  V30 18084 C 1685.94 -1.60143 -1.71439 0
M  V30 18085 C 1686.96 -0.484781 -1.6711 0
M  V30 18086 O 1688.14 -0.749551 -1.86932 0
M  V30 18087 C 1685.2 -1.59282 -3.07945 0
M  V30 18088 C 1684.26 -2.82216 -3.235 0
M  V30 18089 C 1683.5 -2.81387 -4.53495 0
M  V30 18090 O 1683.72 -1.90407 -5.37681 0
M  V30 18091 O 1682.65 -3.72991 -4.724 0
M  V30 18092 H 1686.48 -2.56265 -1.62978 0
M  V30 18093 H 1684.06 -1.2947 -0.745514 0
M  V30 18094 H 1685.95 -1.61515 -3.89218 0
M  V30 18095 H 1684.62 -0.663212 -3.16833 0
M  V30 18096 H 1683.53 -2.85536 -2.41702 0
M  V30 18097 H 1684.86 -3.74402 -3.19506 0
M  V30 18098 N 1686.51 0.822941 -1.34408 0
M  V30 18099 C 1687.44 1.94142 -1.21826 0
M  V30 18100 C 1688.46 1.6215 -0.145353 0
M  V30 18101 O 1689.65 1.74025 -0.397205 0
M  V30 18102 C 1686.75 3.28077 -0.849619 0
M  V30 18103 C 1685.92 3.88092 -2.0175 0
M  V30 18104 C 1684.98 5.00406 -1.62726 0
M  V30 18105 O 1684 5.18703 -2.34383 0
M  V30 18106 N 1685.21 5.7797 -0.541413 0
M  V30 18107 H 1687.97 2.05467 -2.18182 0
M  V30 18108 H 1685.53 0.999521 -1.27362 0
M  V30 18109 H 1687.52 4.00661 -0.57035 0
M  V30 18110 H 1686.09 3.12591 0.0237499 0
M  V30 18111 H 1685.31 3.07902 -2.46151 0
M  V30 18112 H 1686.6 4.24921 -2.79856 0
M  V30 18113 H 1686 5.65674 0.0542929 0
M  V30 18114 H 1684.56 6.51005 -0.321874 0
M  V30 18115 N 1687.99 1.18137 1.04314 0
M  V30 18116 C 1688.94 0.906125 2.12269 0
M  V30 18117 C 1689.91 -0.153492 1.65389 0
M  V30 18118 O 1691.09 -0.0143887 1.90795 0
M  V30 18119 C 1688.23 0.435247 3.42344 0
M  V30 18120 C 1687.35 1.56 4.0285 0
M  V30 18121 C 1686.48 1.0421 5.20878 0
M  V30 18122 C 1685.52 2.14171 5.73409 0
M  V30 18123 N 1684.66 1.63792 6.82727 0
M  V30 18124 H 1689.5 1.83052 2.35151 0
M  V30 18125 H 1687.03 0.912846 1.1535 0
M  V30 18126 H 1688.99 0.143733 4.16952 0
M  V30 18127 H 1687.62 -0.452175 3.19617 0
M  V30 18128 H 1686.67 1.96705 3.25594 0
M  V30 18129 H 1687.99 2.389 4.37868 0
M  V30 18130 H 1687.14 0.704959 6.0259 0
M  V30 18131 H 1685.88 0.182643 4.87358 0
M  V30 18132 H 1684.88 2.48732 4.90319 0
M  V30 18133 H 1686.11 3.00547 6.08973 0
M  V30 18134 H 1684.05 0.801323 6.51087 0
M  V30 18135 H 1683.97 2.40293 7.16795 0
M  V30 18136 H 1685.24 1.32998 7.6807 0
M  V30 18137 N 1689.47 -1.23186 0.98301 0
M  V30 18138 C 1690.38 -2.28448 0.533727 0
M  V30 18139 C 1691.39 -1.69034 -0.412732 0
M  V30 18140 O 1692.57 -1.99416 -0.282007 0
M  V30 18141 C 1689.64 -3.46357 -0.154179 0
M  V30 18142 C 1688.7 -4.21121 0.834009 0
M  V30 18143 C 1687.93 -5.334 0.178836 0
M  V30 18144 O 1688.15 -5.61032 -1.02952 0
M  V30 18145 O 1687.09 -5.95451 0.878722 0
M  V30 18146 H 1690.91 -2.69027 1.40919 0
M  V30 18147 H 1688.5 -1.29166 0.75077 0
M  V30 18148 H 1690.38 -4.17926 -0.539947 0
M  V30 18149 H 1689.05 -3.07724 -1.00437 0
M  V30 18150 H 1687.96 -3.51864 1.27053 0
M  V30 18151 H 1689.29 -4.6361 1.65309 0
M  V30 18152 N 1690.95 -0.754982 -1.38339 0
M  V30 18153 C 1691.89 -0.128193 -2.30444 0
M  V30 18154 C 1692.86 0.70813 -1.50249 0
M  V30 18155 O 1694.05 0.663969 -1.78875 0
M  V30 18156 C 1691.19 0.757921 -3.36674 0
M  V30 18157 C 1690.3 -0.093181 -4.31899 0
M  V30 18158 C 1689.44 0.796067 -5.25201 0
M  V30 18159 C 1688.48 -0.0585854 -6.12072 0
M  V30 18160 N 1687.61 0.7877 -6.97667 0
M  V30 18161 H 1692.45 -0.919204 -2.83469 0
M  V30 18162 H 1689.99 -0.464921 -1.3956 0
M  V30 18163 H 1691.95 1.28632 -3.96875 0
M  V30 18164 H 1690.58 1.5147 -2.85055 0
M  V30 18165 H 1689.63 -0.73922 -3.73148 0
M  V30 18166 H 1690.94 -0.753146 -4.93081 0
M  V30 18167 H 1690.1 1.39158 -5.90525 0
M  V30 18168 H 1688.83 1.48976 -4.64389 0
M  V30 18169 H 1687.84 -0.666754 -5.45742 0
M  V30 18170 H 1689.06 -0.749361 -6.74953 0
M  V30 18171 H 1687.01 1.46632 -6.39402 0
M  V30 18172 H 1686.93 0.184662 -7.55774 0
M  V30 18173 H 1688.2 1.36814 -7.674 0
M  V30 18174 N 1692.42 1.49318 -0.504168 0
M  V30 18175 C 1693.33 2.32958 0.277053 0
M  V30 18176 C 1694.35 1.44838 0.964266 0
M  V30 18177 O 1695.53 1.77856 0.944947 0
M  V30 18178 C 1692.59 3.20352 1.32572 0
M  V30 18179 C 1691.65 4.24326 0.651606 0
M  V30 18180 C 1690.89 5.07544 1.65031 0
M  V30 18181 O 1691.11 4.92326 2.88047 0
M  V30 18182 O 1690.04 5.89737 1.20388 0
M  V30 18183 H 1693.87 3.00952 -0.40763 0
M  V30 18184 H 1691.45 1.47023 -0.265453 0
M  V30 18185 H 1693.34 3.74483 1.93237 0
M  V30 18186 H 1692.01 2.5505 1.99327 0
M  V30 18187 H 1690.92 3.741 0.00513384 0
M  V30 18188 H 1692.25 4.92193 0.0264424 0
M  V30 18189 N 1693.9 0.238138 1.5579 0
M  V30 18190 C 1695.15 -0.388263 1.98335 0
M  V30 18191 C 1695.47 -1.59104 1.12743 0
M  V30 18192 O 1694.74 -1.9479 0.208201 0
M  V30 18193 H 1693.32 -0.14644 0.732505 0
M  V30 18194 H 1695.98 0.334891 1.92001 0
M  V30 18195 H 1695.08 -0.703359 3.04071 0
M  V30 18196 N 1695.38 -1.57561 -0.0350783 0
M  V30 18197 C 1696.63 -1.88177 -0.726105 0
M  V30 18198 C 1696.94 -0.835856 -1.76841 0
M  V30 18199 O 1698.15 -1.03105 -2.51161 0
M  V30 18200 C 1696.6 -3.33924 -1.34249 0
M  V30 18201 C 1696.21 -4.46732 -0.336845 0
M  V30 18202 C 1697.96 -3.73696 -2.01374 0
M  V30 18203 C 1695.86 -5.83536 -0.961234 0
M  V30 18204 H 1694.79 -0.702082 -0.274948 0
M  V30 18205 H 1697.44 -1.83489 0.0197081 0
M  V30 18206 H 1695.83 -3.33337 -2.13781 0
M  V30 18207 H 1697 -4.58777 0.431323 0
M  V30 18208 H 1695.32 -4.15753 0.231983 0
M  V30 18209 H 1697.91 -4.7322 -2.48931 0
M  V30 18210 H 1698.26 -3.05379 -2.8293 0
M  V30 18211 H 1698.79 -3.76431 -1.28626 0
M  V30 18212 H 1695.53 -6.55238 -0.185217 0
M  V30 18213 H 1695.05 -5.75223 -1.69938 0
M  V30 18214 H 1696.73 -6.30071 -1.47035 0
M  V30 18215 N 1696.86 0.307236 -1.54576 0
M  V30 18216 C 1697.79 1.38357 -1.88095 0
M  V30 18217 C 1698.77 1.53196 -0.739253 0
M  V30 18218 O 1699.95 1.66807 -0.99444 0
M  V30 18219 C 1697.08 2.74876 -2.12274 0
M  V30 18220 C 1696.04 2.74809 -3.28122 0
M  V30 18221 C 1695.36 4.14557 -3.37707 0
M  V30 18222 C 1696.66 2.37103 -4.65381 0
M  V30 18223 H 1698.36 1.10554 -2.78241 0
M  V30 18224 H 1695.9 0.530383 -1.33877 0
M  V30 18225 H 1697.86 3.50254 -2.34308 0
M  V30 18226 H 1696.58 3.04191 -1.18893 0
M  V30 18227 H 1695.24 2.01887 -3.06002 0
M  V30 18228 H 1694.89 4.41039 -2.41854 0
M  V30 18229 H 1694.59 4.15415 -4.15577 0
M  V30 18230 H 1696.11 4.91724 -3.61994 0
M  V30 18231 H 1697.53 3.02196 -4.87186 0
M  V30 18232 H 1695.92 2.49184 -5.45919 0
M  V30 18233 H 1696.99 1.32235 -4.66521 0
M  V30 18234 N 1698.34 1.46926 0.570122 0
M  V30 18235 C 1699.27 1.54487 1.69311 0
M  V30 18236 C 1700.28 0.432119 1.5696 0
M  V30 18237 O 1701.47 0.701107 1.64155 0
M  V30 18238 C 1698.57 1.42093 3.07673 0
M  V30 18239 C 1697.74 2.6771 3.45905 0
M  V30 18240 C 1696.8 2.49336 4.63377 0
M  V30 18241 O 1695.83 3.23107 4.68605 0
M  V30 18242 N 1697.03 1.56319 5.59057 0
M  V30 18243 H 1699.8 2.51319 1.63276 0
M  V30 18244 H 1697.36 1.43142 0.756434 0
M  V30 18245 H 1699.35 1.27554 3.84073 0
M  V30 18246 H 1697.92 0.533945 3.08006 0
M  V30 18247 H 1697.14 2.97102 2.59083 0
M  V30 18248 H 1698.43 3.51131 3.68218 0
M  V30 18249 H 1697.82 0.955109 5.57579 0
M  V30 18250 H 1696.38 1.47738 6.34836 0
M  V30 18251 N 1699.82 -0.815801 1.34842 0
M  V30 18252 C 1700.75 -1.94193 1.29659 0
M  V30 18253 C 1701.73 -1.69221 0.172703 0
M  V30 18254 O 1702.91 -1.90716 0.366203 0
M  V30 18255 C 1700.04 -3.30777 1.0585 0
M  V30 18256 C 1699 -3.70207 2.1478 0
M  V30 18257 C 1698.32 -5.04852 1.76149 0
M  V30 18258 C 1699.62 -3.81553 3.56671 0
M  V30 18259 H 1701.32 -1.98787 2.23884 0
M  V30 18260 H 1698.86 -0.955013 1.07775 0
M  V30 18261 H 1700.81 -4.0915 1.00866 0
M  V30 18262 H 1699.54 -3.265 0.0806804 0
M  V30 18263 H 1698.2 -2.94113 2.18845 0
M  V30 18264 H 1697.85 -4.9707 0.770099 0
M  V30 18265 H 1697.55 -5.32205 2.49062 0
M  V30 18266 H 1699.07 -5.85676 1.72674 0
M  V30 18267 H 1700.48 -4.50181 3.54979 0
M  V30 18268 H 1698.88 -4.20367 4.28266 0
M  V30 18269 H 1699.95 -2.83356 3.93494 0
M  V30 18270 N 1701.29 -1.18689 -1.03686 0
M  V30 18271 C 1702.71 -0.937386 -1.29171 0
M  V30 18272 C 1702.91 0.394863 -1.97593 0
M  V30 18273 O 1701.97 1.12829 -2.25889 0
M  V30 18274 C 1703.28 -2.10568 -2.14666 0
M  V30 18275 C 1704.83 -2.14441 -2.28 0
M  V30 18276 C 1705.3 -3.30699 -3.16863 0
M  V30 18277 N 1706.79 -3.30584 -3.24451 0
M  V30 18278 C 1707.53 -4.17184 -3.93376 0
M  V30 18279 N 1707.02 -5.13924 -4.646 0
M  V30 18280 N 1708.82 -4.05086 -3.89694 0
M  V30 18281 H 1700.97 -2.04417 -0.576836 0
M  V30 18282 H 1703.23 -0.893404 -0.31707 0
M  V30 18283 H 1702.94 -3.06938 -1.71702 0
M  V30 18284 H 1702.81 -2.06955 -3.15356 0
M  V30 18285 H 1705.2 -1.18647 -2.70198 0
M  V30 18286 H 1705.28 -2.22111 -1.26888 0
M  V30 18287 H 1704.92 -4.26768 -2.75375 0
M  V30 18288 H 1704.85 -3.20266 -4.18016 0
M  V30 18289 H 1707.34 -2.60552 -2.73717 0
M  V30 18290 H 1707.66 -5.76368 -5.14801 0
M  V30 18291 H 1706 -5.1788 -4.63492 0
M  V30 18292 H 1709.19 -3.28793 -3.33186 0
M  V30 18293 H 1709.37 -4.72792 -4.43139 0
M  V30 18294 N 1702.77 1.22662 -0.989529 0
M  V30 18295 C 1704.19 1.43445 -0.699687 0
M  V30 18296 C 1704.39 1.87778 0.730875 0
M  V30 18297 O 1703.44 2.02953 1.5022 0
M  V30 18298 C 1704.76 2.47869 -1.70239 0
M  V30 18299 C 1706.3 2.61672 -1.71746 0
M  V30 18300 C 1706.78 3.69315 -2.7087 0
M  V30 18301 N 1708.27 3.76768 -2.69444 0
M  V30 18302 C 1709.01 4.59641 -3.42808 0
M  V30 18303 N 1708.5 5.46533 -4.25762 0
M  V30 18304 N 1710.29 4.53921 -3.3153 0
M  V30 18305 H 1702.45 0.921912 -1.91349 0
M  V30 18306 H 1704.71 0.466905 -0.825048 0
M  V30 18307 H 1704.41 2.22233 -2.7259 0
M  V30 18308 H 1704.29 3.46415 -1.49254 0
M  V30 18309 H 1706.68 2.86655 -0.70094 0
M  V30 18310 H 1706.76 1.63413 -1.96799 0
M  V30 18311 H 1706.4 3.4508 -3.72669 0
M  V30 18312 H 1706.33 4.67136 -2.43088 0
M  V30 18313 H 1708.82 3.1468 -2.09249 0
M  V30 18314 H 1709.13 6.06783 -4.78575 0
M  V30 18315 H 1707.48 5.46126 -4.2985 0
M  V30 18316 H 1710.67 3.85062 -2.66168 0
M  V30 18317 H 1710.84 5.18277 -3.88964 0
M  V30 18318 N 1704.25 0.762308 1.37937 0
M  V30 18319 C 1705.48 0.333458 2.04195 0
M  V30 18320 C 1705.89 -1.04118 1.57496 0
M  V30 18321 O 1705.25 -1.66289 0.751938 0
M  V30 18322 C 1705.3 0.35685 3.59734 0
M  V30 18323 O 1705.02 1.67725 4.04722 0
M  V30 18324 C 1706.52 -0.0847776 4.43219 0
M  V30 18325 H 1703.74 0.141107 0.655995 0
M  V30 18326 H 1706.29 1.03359 1.76457 0
M  V30 18327 H 1704.44 -0.294625 3.86278 0
M  V30 18328 H 1704.86 1.60939 4.99198 0
M  V30 18329 H 1706.33 -0.017252 5.51997 0
M  V30 18330 H 1706.81 -1.13387 4.24311 0
M  V30 18331 H 1707.41 0.538151 4.21882 0
M  V30 18332 N 1705.73 -1.49049 0.51208 0
M  V30 18333 C 1706.68 -2.30981 -0.273991 0
M  V30 18334 C 1707.67 -1.40092 -0.952402 0
M  V30 18335 O 1708.88 -1.57088 -0.878828 0
M  V30 18336 H 1705.25 -0.744317 -0.107221 0
M  V30 18337 H 1707.22 -2.95185 0.436866 0
M  V30 18338 C 1705.97 -3.21714 -1.31892 0
M  V30 18339 H 1705.29 -3.91585 -0.806302 0
M  V30 18340 H 1706.73 -3.81961 -1.8407 0
M  V30 18341 C 1705.19 -2.42082 -2.34303 0
M  V30 18342 O 1705.72 -2.13285 -3.40401 0
M  V30 18343 N 1703.93 -2.03903 -2.07055 0
M  V30 18344 H 1703.48 -2.27523 -1.20794 0
M  V30 18345 H 1703.43 -1.50932 -2.75802 0
M  V30 18346 N 1707.21 -0.246397 -1.55662 0
M  V30 18347 C 1708.43 0.385607 -2.03784 0
M  V30 18348 C 1708.86 1.50786 -1.12451 0
M  V30 18349 O 1708.21 1.8092 -0.117371 0
M  V30 18350 C 1708.26 0.871204 -3.49918 0
M  V30 18351 O 1707.37 1.98082 -3.61715 0
M  V30 18352 H 1706.71 0.0841099 -0.658651 0
M  V30 18353 H 1709.24 -0.372306 -2.01184 0
M  V30 18354 H 1709.25 1.17455 -3.90728 0
M  V30 18355 H 1707.92 0.0499597 -4.1587 0
M  V30 18356 H 1706.5 1.6822 -3.32801 0
M  V30 18357 N 1708.68 1.57577 0.026722 0
M  V30 18358 C 1709.65 2.05684 1.01127 0
M  V30 18359 C 1710.65 0.961373 1.28896 0
M  V30 18360 O 1711.84 1.22491 1.23861 0
M  V30 18361 C 1708.97 2.47576 2.34348 0
M  V30 18362 H 1710.16 2.93925 0.595681 0
M  V30 18363 H 1707.71 1.53887 0.273603 0
M  V30 18364 H 1708.45 1.62498 2.80651 0
M  V30 18365 H 1708.23 3.27556 2.15521 0
M  V30 18366 H 1709.72 2.85214 3.05029 0
M  V30 18367 N 1710.16 -0.299034 1.54737 0
M  V30 18368 C 1711.11 -1.36887 1.85824 0
M  V30 18369 C 1712.08 -1.50287 0.70733 0
M  V30 18370 O 1713.26 -1.65114 0.956143 0
M  V30 18371 C 1710.4 -2.7286 2.11286 0
M  V30 18372 C 1709.52 -2.67893 3.38906 0
M  V30 18373 C 1708.65 -3.95873 3.542 0
M  V30 18374 C 1707.69 -3.85312 4.75606 0
M  V30 18375 N 1706.83 -5.05072 4.87695 0
M  V30 18376 H 1711.67 -1.09676 2.77083 0
M  V30 18377 H 1709.2 -0.530427 1.37204 0
M  V30 18378 H 1711.16 -3.51938 2.24043 0
M  V30 18379 H 1709.79 -2.98327 1.23291 0
M  V30 18380 H 1708.84 -1.80669 3.34758 0
M  V30 18381 H 1710.16 -2.5598 4.28107 0
M  V30 18382 H 1709.31 -4.83389 3.66633 0
M  V30 18383 H 1708.05 -4.10622 2.63136 0
M  V30 18384 H 1707.05 -2.9618 4.63203 0
M  V30 18385 H 1708.28 -3.72106 5.68079 0
M  V30 18386 H 1706.23 -5.20281 3.99554 0
M  V30 18387 H 1706.14 -4.9559 5.709 0
M  V30 18388 H 1707.41 -5.94233 5.04487 0
M  V30 18389 N 1711.64 -1.47227 -0.562322 0
M  V30 18390 C 1713.05 -1.47509 -1.14446 0
M  V30 18391 C 1713.4 -0.22699 -1.94883 0
M  V30 18392 O 1712.53 0.668483 -2.05816 0
M  V30 18393 C 1713.12 -2.67266 -2.08217 0
M  V30 18394 C 1711.68 -2.70524 -2.61713 0
M  V30 18395 C 1710.83 -2.4053 -1.37988 0
M  V30 18396 H 1713.78 -1.54811 -0.349185 0
M  V30 18397 H 1713.8 -2.43945 -2.92012 0
M  V30 18398 H 1713.31 -3.58089 -1.49646 0
M  V30 18399 H 1711.41 -1.83827 -3.24096 0
M  V30 18400 H 1711.53 -3.71072 -3.03056 0
M  V30 18401 H 1709.89 -1.91007 -1.68489 0
M  V30 18402 H 1710.67 -3.33554 -0.812177 0
M  V30 18403 N 1713.12 0.808639 -1.35273 0
M  V30 18404 C 1714.34 1.60219 -1.31699 0
M  V30 18405 C 1714.77 1.87816 0.103386 0
M  V30 18406 O 1714.13 1.46389 1.06957 0
M  V30 18407 C 1714.17 2.9116 -2.12739 0
M  V30 18408 O 1713.28 3.83891 -1.5067 0
M  V30 18409 H 1712.62 0.486742 -0.45164 0
M  V30 18410 H 1715.15 1.00378 -1.78284 0
M  V30 18411 H 1715.16 3.40602 -2.2462 0
M  V30 18412 H 1713.83 2.70399 -3.16002 0
M  V30 18413 H 1712.41 3.42437 -1.47618 0
M  V30 18414 N 1714.6 1.19237 1.03055 0
M  V30 18415 C 1716.01 0.996569 1.57878 0
M  V30 18416 C 1716.36 -0.450987 1.90946 0
M  V30 18417 O 1715.48 -1.33009 1.70697 0
M  V30 18418 C 1716.08 1.80272 2.86858 0
M  V30 18419 C 1714.64 1.65097 3.3826 0
M  V30 18420 C 1713.78 1.79079 2.11721 0
M  V30 18421 H 1716.74 1.33633 0.856037 0
M  V30 18422 H 1716.76 1.29781 3.57683 0
M  V30 18423 H 1716.27 2.85621 2.62759 0
M  V30 18424 H 1714.37 0.623267 3.6735 0
M  V30 18425 H 1714.48 2.45527 4.11404 0
M  V30 18426 H 1712.85 1.22124 2.23512 0
M  V30 18427 H 1713.63 2.85885 1.90065 0
M  V30 18428 N 1716.07 -1.22136 0.99602 0
M  V30 18429 C 1717 -2.26463 0.568909 0
M  V30 18430 C 1717.99 -1.65189 -0.405783 0
M  V30 18431 O 1719.17 -1.91935 -0.295735 0
M  V30 18432 C 1716.3 -3.47112 -0.114166 0
M  V30 18433 C 1715.25 -4.20844 0.779387 0
M  V30 18434 C 1714.58 -5.34687 -0.0367787 0
M  V30 18435 C 1715.88 -4.79195 2.07773 0
M  V30 18436 H 1717.57 -2.62443 1.44097 0
M  V30 18437 H 1715.12 -1.26156 0.694314 0
M  V30 18438 H 1717.07 -4.19258 -0.424381 0
M  V30 18439 H 1715.8 -3.10238 -1.02079 0
M  V30 18440 H 1714.46 -3.50537 1.07329 0
M  V30 18441 H 1714.1 -4.94054 -0.94442 0
M  V30 18442 H 1713.8 -5.84944 0.558092 0
M  V30 18443 H 1715.33 -6.09647 -0.341016 0
M  V30 18444 H 1716.74 -5.43266 1.83126 0
M  V30 18445 H 1715.14 -5.39803 2.62169 0
M  V30 18446 H 1716.21 -3.99073 2.75442 0
M  V30 18447 N 1717.55 -0.769612 -1.37531 0
M  V30 18448 C 1718.52 -0.160716 -2.28636 0
M  V30 18449 C 1719.52 0.630362 -1.47929 0
M  V30 18450 O 1720.71 0.454265 -1.68173 0
M  V30 18451 C 1717.84 0.779904 -3.31859 0
M  V30 18452 H 1719.03 -0.963794 -2.83991 0
M  V30 18453 H 1716.58 -0.537678 -1.46761 0
M  V30 18454 H 1717.32 1.60807 -2.81623 0
M  V30 18455 H 1717.1 0.21485 -3.91511 0
M  V30 18456 H 1718.59 1.20143 -3.99944 0
M  V30 18457 N 1719.03 1.48775 -0.519977 0
M  V30 18458 C 1720.44 1.86541 -0.0769625 0
M  V30 18459 C 1720.79 1.43053 1.34277 0
M  V30 18460 O 1719.92 0.816781 2.00394 0
M  V30 18461 C 1720.51 3.38539 -0.132891 0
M  V30 18462 C 1719.07 3.75536 0.254875 0
M  V30 18463 C 1718.22 2.72808 -0.497088 0
M  V30 18464 H 1721.17 1.40822 -0.731765 0
M  V30 18465 H 1721.19 3.7477 0.657856 0
M  V30 18466 H 1720.7 3.70161 -1.1663 0
M  V30 18467 H 1718.8 3.49527 1.29081 0
M  V30 18468 H 1718.92 4.79037 -0.0777747 0
M  V30 18469 H 1717.28 2.5464 0.0554331 0
M  V30 18470 H 1718.06 3.07274 -1.53094 0
M  V30 18471 N 1720.51 0.254649 1.55529 0
M  V30 18472 C 1721.73 -0.374795 2.03985 0
M  V30 18473 C 1722.16 -1.50188 1.13249 0
M  V30 18474 O 1721.52 -1.80855 0.126963 0
M  V30 18475 C 1721.56 -0.852635 3.50375 0
M  V30 18476 O 1720.67 -1.9616 3.6276 0
M  V30 18477 H 1720.01 -0.0806157 0.659088 0
M  V30 18478 H 1722.54 0.38297 2.00984 0
M  V30 18479 H 1722.55 -1.15381 3.91345 0
M  V30 18480 H 1721.22 -0.0279044 4.15891 0
M  V30 18481 H 1719.8 -1.66453 3.33688 0
M  V30 18482 N 1721.99 -1.57589 -0.0183649 0
M  V30 18483 C 1722.92 -2.1029 -1.01492 0
M  V30 18484 C 1723.9 -1.00782 -1.37029 0
M  V30 18485 O 1725.08 -1.28365 -1.45726 0
M  V30 18486 C 1722.21 -2.59111 -2.31255 0
M  V30 18487 C 1721.17 -3.72979 -2.0993 0
M  V30 18488 C 1720.49 -4.08046 -3.45547 0
M  V30 18489 C 1721.79 -5.00988 -1.47677 0
M  V30 18490 H 1723.49 -2.93804 -0.57618 0
M  V30 18491 H 1721.03 -1.41336 -0.275708 0
M  V30 18492 H 1722.99 -2.94602 -3.0131 0
M  V30 18493 H 1721.71 -1.72694 -2.77208 0
M  V30 18494 H 1720.37 -3.37853 -1.42306 0
M  V30 18495 H 1720.02 -3.1868 -3.89169 0
M  V30 18496 H 1719.72 -4.8475 -3.32101 0
M  V30 18497 H 1721.24 -4.46081 -4.16947 0
M  V30 18498 H 1722.65 -5.34368 -2.07663 0
M  V30 18499 H 1721.05 -5.82375 -1.44774 0
M  V30 18500 H 1722.12 -4.82865 -0.443804 0
M  V30 18501 N 1723.46 0.290824 -1.54893 0
M  V30 18502 C 1724.4 1.38393 -1.81446 0
M  V30 18503 C 1725.38 1.48322 -0.666282 0
M  V30 18504 O 1726.56 1.65225 -0.907354 0
M  V30 18505 C 1723.69 2.76211 -1.96024 0
M  V30 18506 C 1722.73 2.83655 -3.18499 0
M  V30 18507 S 1723.57 2.44713 -4.76315 0
M  V30 18508 C 1724.72 3.84539 -4.93843 0
M  V30 18509 H 1724.95 1.15664 -2.73878 0
M  V30 18510 H 1722.49 0.489495 -1.46435 0
M  V30 18511 H 1724.45 3.55585 -2.05108 0
M  V30 18512 H 1723.11 2.96203 -1.04511 0
M  V30 18513 H 1722.3 3.84765 -3.25533 0
M  V30 18514 H 1721.9 2.12285 -3.07914 0
M  V30 18515 H 1724.19 4.79639 -4.7849 0
M  V30 18516 H 1725.14 3.82469 -5.95922 0
M  V30 18517 H 1725.54 3.75014 -4.2193 0
M  V30 18518 N 1724.94 1.47523 0.554506 0
M  V30 18519 C 1725.91 1.59761 1.64345 0
M  V30 18520 C 1726.91 0.472516 1.53701 0
M  V30 18521 O 1728.1 0.737659 1.57811 0
M  V30 18522 C 1725.23 1.54467 3.03896 0
M  V30 18523 H 1726.42 2.56834 1.54842 0
M  V30 18524 H 1723.97 1.35753 0.774643 0
M  V30 18525 H 1724.71 0.587789 3.18929 0
M  V30 18526 H 1724.49 2.36123 3.13031 0
M  V30 18527 H 1725.98 1.66174 3.83113 0
M  V30 18528 N 1726.42 -0.801453 1.357 0
M  V30 18529 C 1727.65 -1.59518 1.32547 0
M  V30 18530 C 1728.07 -1.87868 -0.0934243 0
M  V30 18531 O 1727.43 -1.46955 -1.06179 0
M  V30 18532 C 1727.48 -2.90028 2.14281 0
M  V30 18533 O 1726.58 -3.83086 1.52704 0
M  V30 18534 H 1725.92 -0.48434 0.454215 0
M  V30 18535 H 1728.45 -0.994315 1.78814 0
M  V30 18536 H 1728.46 -3.39406 2.26423 0
M  V30 18537 H 1727.14 -2.6872 3.17431 0
M  V30 18538 H 1725.71 -3.4165 1.49432 0
M  V30 18539 N 1727.9 -1.19782 -1.02421 0
M  V30 18540 C 1729.12 -1.02939 -1.80051 0
M  V30 18541 C 1729.55 0.417153 -1.83416 0
M  V30 18542 O 1728.91 1.3001 -1.26361 0
M  V30 18543 C 1728.95 -1.60853 -3.22736 0
M  V30 18544 O 1728.06 -0.840999 -4.03734 0
M  V30 18545 H 1727.4 -0.363537 -0.555641 0
M  V30 18546 H 1729.93 -1.58908 -1.28878 0
M  V30 18547 H 1729.94 -1.64266 -3.73471 0
M  V30 18548 H 1728.61 -2.66135 -3.19602 0
M  V30 18549 H 1727.19 -0.880482 -3.62356 0
M  V30 18550 N 1729.38 1.21606 -1.00248 0
M  V30 18551 C 1730.79 1.72365 -0.717446 0
M  V30 18552 C 1731.14 1.80668 0.765078 0
M  V30 18553 O 1730.26 1.45951 1.59772 0
M  V30 18554 C 1730.86 3.13046 -1.29567 0
M  V30 18555 C 1729.42 3.61172 -1.05981 0
M  V30 18556 C 1728.57 2.38775 -1.41003 0
M  V30 18557 H 1731.52 1.06818 -1.17369 0
M  V30 18558 H 1731.54 3.74392 -0.679054 0
M  V30 18559 H 1731.05 3.0697 -2.37467 0
M  V30 18560 H 1729.15 3.726 0.00214307 0
M  V30 18561 H 1729.26 4.46778 -1.72993 0
M  V30 18562 H 1727.63 2.40839 -0.82877 0
M  V30 18563 H 1728.41 2.35352 -2.49928 0
M  V30 18564 N 1730.86 0.776895 1.37121 0
M  V30 18565 C 1732.08 0.355097 2.0383 0
M  V30 18566 C 1732.5 -1.02441 1.58591 0
M  V30 18567 O 1731.86 -1.65482 0.769533 0
M  V30 18568 C 1731.91 0.394984 3.59336 0
M  V30 18569 O 1731.63 1.72008 4.0292 0
M  V30 18570 C 1733.13 -0.0377636 4.43284 0
M  V30 18571 H 1730.35 0.148056 0.654462 0
M  V30 18572 H 1732.89 1.05225 1.75351 0
M  V30 18573 H 1731.05 -0.253638 3.86569 0
M  V30 18574 H 1731.46 1.66225 4.97463 0
M  V30 18575 H 1732.94 0.0412956 5.51985 0
M  V30 18576 H 1733.41 -1.08881 4.2549 0
M  V30 18577 H 1734.02 0.582867 4.21287 0
M  V30 18578 N 1732.33 -1.48497 0.527859 0
M  V30 18579 C 1733.56 -2.07399 -0.00510725 0
M  V30 18580 C 1733.98 -1.38211 -1.2759 0
M  V30 18581 O 1733.34 -0.447373 -1.75694 0
M  V30 18582 C 1733.39 -3.59963 -0.214295 0
M  V30 18583 O 1732.49 -3.91921 -1.28342 0
M  V30 18584 H 1731.83 -0.662901 0.0381838 0
M  V30 18585 H 1734.36 -1.90936 0.735166 0
M  V30 18586 H 1734.37 -4.05646 -0.437604 0
M  V30 18587 H 1733.05 -4.09725 0.714028 0
M  V30 18588 H 1731.63 -3.58019 -1.04293 0
M  V30 18589 N 1733.81 -0.262893 -1.55392 0
M  V30 18590 C 1735.06 0.357939 -1.98499 0
M  V30 18591 C 1735.37 1.5789 -1.15456 0
M  V30 18592 O 1736.58 2.2719 -1.4865 0
M  V30 18593 C 1735.04 0.688205 -3.53259 0
M  V30 18594 C 1734.64 -0.512257 -4.45062 0
M  V30 18595 C 1736.39 1.27234 -4.04984 0
M  V30 18596 C 1734.29 -0.157257 -5.91191 0
M  V30 18597 H 1733.22 0.137514 -0.741354 0
M  V30 18598 H 1735.88 -0.365626 -1.79821 0
M  V30 18599 H 1734.26 1.47034 -3.67692 0
M  V30 18600 H 1735.43 -1.28935 -4.42394 0
M  V30 18601 H 1733.75 -1.0124 -4.03905 0
M  V30 18602 H 1736.34 1.55155 -5.11694 0
M  V30 18603 H 1736.69 2.20217 -3.53285 0
M  V30 18604 H 1737.22 0.552763 -3.93941 0
M  V30 18605 H 1733.96 -1.05464 -6.4696 0
M  V30 18606 H 1733.48 0.583319 -5.96957 0
M  V30 18607 H 1735.16 0.254892 -6.46498 0
M  V30 18608 N 1735.29 1.57597 0.0100073 0
M  V30 18609 C 1736.53 1.91983 0.701555 0
M  V30 18610 C 1736.89 0.863453 1.71489 0
M  V30 18611 O 1738.09 1.09225 2.45608 0
M  V30 18612 C 1736.37 3.31459 1.33678 0
M  V30 18613 S 1737.92 3.87714 2.05484 0
M  V30 18614 H 1734.74 0.672093 0.231975 0
M  V30 18615 H 1737.34 1.9545 -0.0442772 0
M  V30 18616 H 1736.05 4.06191 0.586295 0
M  V30 18617 H 1735.58 3.31342 2.12076 0
M  V30 18618 H 1737.59 3.6798 3.32874 0
M  V30 18619 N 1736.77 -0.282606 1.55045 0
M  V30 18620 C 1738.01 -1.01698 1.75458 0
M  V30 18621 C 1738.35 -1.86284 0.548808 0
M  V30 18622 O 1737.62 -1.89131 -0.45382 0
M  V30 18623 C 1737.9 -1.90759 3.05423 0
M  V30 18624 C 1737.76 -1.0923 4.36336 0
M  V30 18625 C 1739.08 -2.8963 3.31364 0
M  V30 18626 H 1736.2 -0.368305 0.638373 0
M  V30 18627 H 1738.84 -0.290118 1.87772 0
M  V30 18628 H 1736.99 -2.52734 2.95055 0
M  V30 18629 H 1738.66 -0.493996 4.58647 0
M  V30 18630 H 1736.9 -0.395481 4.31994 0
M  V30 18631 H 1737.57 -1.74842 5.23578 0
M  V30 18632 H 1740.05 -2.37788 3.41462 0
M  V30 18633 H 1738.93 -3.49096 4.23584 0
M  V30 18634 H 1739.19 -3.64255 2.50541 0
M  V30 18635 N 1738.25 -1.47815 -0.546675 0
M  V30 18636 C 1739.49 -1.56566 -1.31402 0
M  V30 18637 C 1739.85 -0.227101 -1.90652 0
M  V30 18638 O 1741.05 -0.189506 -2.68131 0
M  V30 18639 C 1739.32 -2.6603 -2.38669 0
M  V30 18640 S 1740.88 -2.94436 -3.25351 0
M  V30 18641 H 1737.7 -0.552748 -0.447203 0
M  V30 18642 H 1740.3 -1.85251 -0.624688 0
M  V30 18643 H 1739 -3.6187 -1.93593 0
M  V30 18644 H 1738.54 -2.39193 -3.1233 0
M  V30 18645 H 1740.55 -2.32455 -4.38382 0
M  V30 18646 N 1739.72 0.794246 -1.36123 0
M  V30 18647 C 1740.97 1.54885 -1.29827 0
M  V30 18648 C 1741.29 1.94608 0.123517 0
M  V30 18649 O 1740.56 1.6457 1.06272 0
M  V30 18650 H 1739.14 0.574398 -0.477573 0
M  V30 18651 H 1741.8 0.946658 -1.70365 0
M  V30 18652 H 1740.9 2.45863 -1.92244 0
M  V30 18653 N 1741.2 1.20323 1.01785 0
M  V30 18654 C 1742.13 0.908716 2.10416 0
M  V30 18655 C 1743.15 -0.103029 1.62474 0
M  V30 18656 O 1744.34 0.127825 1.78042 0
M  V30 18657 C 1741.44 0.340601 3.37184 0
M  V30 18658 C 1740.61 1.40358 4.14268 0
M  V30 18659 C 1739.67 0.847016 5.19338 0
M  V30 18660 O 1738.69 1.5274 5.48324 0
M  V30 18661 N 1739.9 -0.344198 5.79479 0
M  V30 18662 H 1742.66 1.84383 2.36269 0
M  V30 18663 H 1740.22 1.10673 1.18165 0
M  V30 18664 H 1742.21 -0.0458443 4.04674 0
M  V30 18665 H 1740.78 -0.499042 3.08591 0
M  V30 18666 H 1740 1.96442 3.41766 0
M  V30 18667 H 1741.29 2.11952 4.62551 0
M  V30 18668 H 1740.69 -0.914263 5.58263 0
M  V30 18669 H 1739.25 -0.672296 6.48324 0
M  V30 18670 N 1742.68 -1.21073 1.00892 0
M  V30 18671 C 1743.93 -1.90524 0.694879 0
M  V30 18672 C 1744.26 -1.78161 -0.772802 0
M  V30 18673 O 1743.53 -1.1608 -1.56063 0
M  V30 18674 C 1743.82 -3.42188 1.12156 0
M  V30 18675 C 1743.67 -3.63523 2.64898 0
M  V30 18676 C 1744.99 -4.34706 0.68694 0
M  V30 18677 H 1742.11 -0.69188 0.253912 0
M  V30 18678 H 1744.75 -1.42626 1.2553 0
M  V30 18679 H 1742.9 -3.83113 0.644742 0
M  V30 18680 H 1744.57 -3.31901 3.20374 0
M  V30 18681 H 1742.81 -3.07255 3.0623 0
M  V30 18682 H 1743.49 -4.69805 2.89806 0
M  V30 18683 H 1745.96 -4.01386 1.09674 0
M  V30 18684 H 1744.84 -5.3946 1.01361 0
M  V30 18685 H 1745.1 -4.40178 -0.411757 0
M  V30 18686 N 1744.16 -0.784156 -1.36707 0
M  V30 18687 C 1745.57 -0.417967 -1.81961 0
M  V30 18688 C 1745.92 1.05746 -1.65264 0
M  V30 18689 O 1745.05 1.82003 -1.17064 0
M  V30 18690 C 1745.64 -0.751869 -3.30352 0
M  V30 18691 C 1744.2 -0.438578 -3.73836 0
M  V30 18692 C 1743.35 -0.989262 -2.59054 0
M  V30 18693 H 1746.3 -0.977754 -1.25003 0
M  V30 18694 H 1746.32 -0.041034 -3.80478 0
M  V30 18695 H 1745.83 -1.82576 -3.42473 0
M  V30 18696 H 1743.93 0.627493 -3.67278 0
M  V30 18697 H 1744.04 -0.955508 -4.69475 0
M  V30 18698 H 1742.41 -0.412783 -2.51333 0
M  V30 18699 H 1743.19 -2.06881 -2.73962 0
M  V30 18700 N 1745.64 1.48215 -0.535727 0
M  V30 18701 C 1746.6 2.28206 0.213212 0
M  V30 18702 C 1747.6 1.3571 0.862522 0
M  V30 18703 O 1748.79 1.58547 0.721688 0
M  V30 18704 C 1745.92 3.1476 1.30917 0
M  V30 18705 H 1747.11 2.95884 -0.489163 0
M  V30 18706 H 1744.67 1.53551 -0.291872 0
M  V30 18707 H 1745.4 2.51726 2.04462 0
M  V30 18708 H 1745.19 3.82806 0.848633 0
M  V30 18709 H 1746.68 3.75085 1.83579 0
M  V30 18710 N 1747.11 0.27113 1.5525 0
M  V30 18711 C 1748.36 -0.346106 1.99114 0
M  V30 18712 C 1748.68 -1.56677 1.16092 0
M  V30 18713 O 1747.95 -1.94305 0.249472 0
M  V30 18714 H 1746.53 -0.13087 0.735447 0
M  V30 18715 H 1749.2 0.375542 1.91248 0
M  V30 18716 H 1748.29 -0.638703 3.05495 0
M  V30 18717 N 1748.59 -1.576 -0.00164943 0
M  V30 18718 C 1749.84 -1.90778 -0.68786 0
M  V30 18719 C 1750.17 -0.872138 -1.73515 0
M  V30 18720 O 1749.45 0.109349 -1.94192 0
M  V30 18721 C 1749.73 -3.34539 -1.3325 0
M  V30 18722 C 1749.58 -4.48819 -0.296862 0
M  V30 18723 C 1750.9 -3.77693 -2.25911 0
M  V30 18724 H 1748.02 -0.69381 -0.24859 0
M  V30 18725 H 1750.66 -1.89936 0.0493059 0
M  V30 18726 H 1748.81 -3.35388 -1.9608 0
M  V30 18727 H 1750.48 -4.60106 0.331635 0
M  V30 18728 H 1748.73 -4.32123 0.38105 0
M  V30 18729 H 1749.4 -5.46362 -0.786927 0
M  V30 18730 H 1751.87 -3.78386 -1.73099 0
M  V30 18731 H 1750.75 -4.79037 -2.67983 0
M  V30 18732 H 1751.01 -3.11469 -3.1375 0
M  V30 18733 N 1750.07 0.274379 -1.55193 0
M  V30 18734 C 1751.32 1.00418 -1.75387 0
M  V30 18735 C 1751.64 1.86868 -0.557244 0
M  V30 18736 O 1750.91 1.9117 0.427883 0
M  V30 18737 H 1749.49 0.373753 -0.646775 0
M  V30 18738 H 1752.15 0.298942 -1.92594 0
M  V30 18739 H 1751.25 1.64191 -2.6542 0
M  V30 18740 N 1751.55 1.48103 0.538828 0
M  V30 18741 C 1752.79 1.559 1.29704 0
M  V30 18742 C 1753.13 0.228359 1.92853 0
M  V30 18743 O 1752.4 -0.764825 1.78831 0
M  V30 18744 C 1752.69 2.69072 2.39316 0
M  V30 18745 C 1752.54 4.11812 1.80916 0
M  V30 18746 C 1753.86 2.78051 3.41138 0
M  V30 18747 H 1750.98 0.5675 0.470226 0
M  V30 18748 H 1753.62 1.80239 0.601163 0
M  V30 18749 H 1751.77 2.4845 2.98672 0
M  V30 18750 H 1753.44 4.4385 1.25679 0
M  V30 18751 H 1751.68 4.19227 1.11494 0
M  V30 18752 H 1752.35 4.86805 2.6024 0
M  V30 18753 H 1754.83 2.96707 2.91726 0
M  V30 18754 H 1753.71 3.58982 4.15239 0
M  V30 18755 H 1753.97 1.85849 4.01139 0
M  V30 18756 N 1753.03 -0.787016 1.36542 0
M  V30 18757 C 1753.96 -1.91399 1.33749 0
M  V30 18758 C 1754.94 -1.68817 0.208559 0
M  V30 18759 O 1756.12 -1.89896 0.406574 0
M  V30 18760 C 1753.25 -3.28457 1.12842 0
M  V30 18761 C 1752.21 -3.65568 2.22585 0
M  V30 18762 C 1751.53 -5.01002 1.86818 0
M  V30 18763 C 1752.83 -3.73902 3.64684 0
M  V30 18764 H 1754.53 -1.93993 2.2805 0
M  V30 18765 H 1752.07 -0.931937 1.09777 0
M  V30 18766 H 1754.03 -4.06919 1.09522 0
M  V30 18767 H 1752.75 -3.26256 0.149918 0
M  V30 18768 H 1751.41 -2.89405 2.25035 0
M  V30 18769 H 1751.06 -4.95325 0.875361 0
M  V30 18770 H 1750.76 -5.26802 2.60294 0
M  V30 18771 H 1752.28 -5.81881 1.85058 0
M  V30 18772 H 1753.69 -4.4255 3.64448 0
M  V30 18773 H 1752.09 -4.11188 4.37086 0
M  V30 18774 H 1753.16 -2.74946 3.99416 0
M  V30 18775 N 1754.5 -1.20861 -1.01145 0
M  V30 18776 C 1755.44 -0.919862 -2.09931 0
M  V30 18777 C 1756.45 0.0944116 -1.62526 0
M  V30 18778 O 1757.64 -0.137265 -1.77971 0
M  V30 18779 C 1754.74 -0.358478 -3.36999 0
M  V30 18780 C 1753.91 -1.42553 -4.13518 0
M  V30 18781 C 1752.97 -0.874546 -5.18882 0
M  V30 18782 O 1752 -1.55646 -5.47506 0
M  V30 18783 N 1753.2 0.313462 -5.79653 0
M  V30 18784 H 1755.96 -1.85633 -2.35288 0
M  V30 18785 H 1753.52 -1.11299 -1.17577 0
M  V30 18786 H 1755.52 0.0243829 -4.04693 0
M  V30 18787 H 1754.09 0.482669 -3.08851 0
M  V30 18788 H 1753.31 -1.98251 -3.4072 0
M  V30 18789 H 1754.59 -2.14402 -4.61421 0
M  V30 18790 H 1753.99 0.884644 -5.5874 0
M  V30 18791 H 1752.55 0.637904 -6.48671 0
M  V30 18792 N 1755.98 1.20536 -1.01532 0
M  V30 18793 C 1757.22 1.91582 -0.712451 0
M  V30 18794 C 1757.59 1.76995 0.744089 0
M  V30 18795 O 1758.79 2.4251 1.15942 0
M  V30 18796 C 1757.06 3.38914 -1.13454 0
M  V30 18797 S 1758.62 4.28316 -0.953443 0
M  V30 18798 H 1755.44 0.661843 -0.259779 0
M  V30 18799 H 1758.04 1.45808 -1.30232 0
M  V30 18800 H 1756.74 3.47051 -2.19052 0
M  V30 18801 H 1756.27 3.89712 -0.537396 0
M  V30 18802 H 1758.29 4.95992 0.143722 0
M  V30 18803 N 1757.46 0.791395 1.36289 0
M  V30 18804 C 1758.74 0.288602 1.93459 0
M  V30 18805 C 1759.12 -1.21953 1.7231 0
M  V30 18806 O 1758.47 -2.01194 1.0832 0
M  V30 18807 C 1758.68 0.683392 3.42244 0
M  V30 18808 C 1760.02 0.664255 4.19372 0
M  V30 18809 O 1761.05 0.623988 3.50692 0
M  V30 18810 O 1759.91 0.708926 5.41882 0
M  V30 18811 H 1757 0.0719305 0.823866 0
M  V30 18812 H 1759.55 0.874071 1.45458 0
M  V30 18813 H 1758.32 1.72344 3.51302 0
M  V30 18814 H 1757.94 0.0719128 3.97535 0
M  V30 18815 N 1758.94 -1.47929 0.54358 0
M  V30 18816 C 1759.87 -2.3264 -0.200228 0
M  V30 18817 C 1760.85 -1.42945 -0.922 0
M  V30 18818 O 1762.04 -1.71817 -0.905129 0
M  V30 18819 C 1759.17 -3.24439 -1.23922 0
M  V30 18820 C 1758.12 -4.23267 -0.634753 0
M  V30 18821 C 1757.45 -5.04295 -1.77739 0
M  V30 18822 C 1758.75 -5.20747 0.402524 0
M  V30 18823 H 1760.44 -2.95077 0.506957 0
M  V30 18824 H 1757.99 -1.41896 0.245246 0
M  V30 18825 H 1759.94 -3.82535 -1.76763 0
M  V30 18826 H 1758.66 -2.60029 -1.97616 0
M  V30 18827 H 1757.32 -3.66377 -0.127756 0
M  V30 18828 H 1756.97 -4.36299 -2.50304 0
M  V30 18829 H 1756.67 -5.71195 -1.37879 0
M  V30 18830 H 1758.19 -5.65246 -2.30932 0
M  V30 18831 H 1759.61 -5.73287 -0.039305 0
M  V30 18832 H 1758 -5.95774 0.719251 0
M  V30 18833 H 1759.07 -4.67054 1.3034 0
M  V30 18834 N 1760.42 -0.27936 -1.55104 0
M  V30 18835 C 1761.66 0.337344 -2.01597 0
M  V30 18836 C 1762.02 1.52732 -1.16348 0
M  V30 18837 O 1763.22 2.21394 -1.5244 0
M  V30 18838 C 1761.49 0.705839 -3.50361 0
M  V30 18839 S 1763.05 1.30847 -4.18837 0
M  V30 18840 H 1759.87 0.104703 -0.703248 0
M  V30 18841 H 1762.47 -0.402184 -1.91318 0
M  V30 18842 H 1761.18 -0.169038 -4.10052 0
M  V30 18843 H 1760.71 1.47672 -3.64632 0
M  V30 18844 H 1762.72 2.59696 -4.22815 0
M  V30 18845 N 1761.9 1.57599 -0.0067085 0
M  V30 18846 C 1762.83 2.05706 1.01084 0
M  V30 18847 C 1763.84 0.976216 1.30284 0
M  V30 18848 O 1765.03 1.25288 1.27142 0
M  V30 18849 C 1762.13 2.44771 2.34393 0
M  V30 18850 C 1761.3 3.75668 2.24036 0
M  V30 18851 C 1760.36 4.01528 3.4009 0
M  V30 18852 O 1759.39 4.72101 3.17977 0
M  V30 18853 N 1760.59 3.49947 4.6316 0
M  V30 18854 H 1763.35 2.93622 0.600532 0
M  V30 18855 H 1760.92 1.6089 0.180536 0
M  V30 18856 H 1762.91 2.5918 3.10818 0
M  V30 18857 H 1761.48 1.62339 2.67142 0
M  V30 18858 H 1760.7 3.71272 1.3248 0
M  V30 18859 H 1761.99 4.6147 2.14295 0
M  V30 18860 H 1761.38 2.92811 4.84023 0
M  V30 18861 H 1759.94 3.69675 5.36828 0
M  V30 18862 N 1763.37 -0.266145 1.55336 0
M  V30 18863 C 1764.65 -1.01852 1.6699 0
M  V30 18864 C 1765.03 -2.04053 0.54088 0
M  V30 18865 O 1764.38 -2.23859 -0.458193 0
M  V30 18866 C 1764.59 -1.66917 3.06496 0
M  V30 18867 C 1765.94 -2.17824 3.64469 0
M  V30 18868 O 1766.96 -1.76892 3.09173 0
M  V30 18869 O 1765.82 -2.92922 4.61367 0
M  V30 18870 H 1762.91 -0.472871 0.67847 0
M  V30 18871 H 1765.46 -0.261458 1.67674 0
M  V30 18872 H 1764.23 -0.928941 3.80114 0
M  V30 18873 H 1763.85 -2.49292 3.0974 0
M  V30 18874 N 1764.85 -1.48386 -0.530967 0
M  V30 18875 C 1766.1 -1.57564 -1.28628 0
M  V30 18876 C 1766.45 -0.245916 -1.90822 0
M  V30 18877 O 1765.75 0.751124 -1.76263 0
M  V30 18878 C 1765.94 -2.64979 -2.39835 0
M  V30 18879 C 1765.77 -4.08267 -1.88541 0
M  V30 18880 C 1764.54 -4.75418 -1.71191 0
M  V30 18881 C 1766.74 -4.94465 -1.41453 0
M  V30 18882 N 1764.72 -6.03125 -1.14512 0
M  V30 18883 C 1766.09 -6.1241 -0.967144 0
M  V30 18884 C 1768.14 -4.80698 -1.29747 0
M  V30 18885 C 1766.85 -7.18106 -0.414308 0
M  V30 18886 C 1768.87 -5.86514 -0.758626 0
M  V30 18887 C 1768.24 -7.03667 -0.321311 0
M  V30 18888 H 1764.33 -0.631125 -0.461741 0
M  V30 18889 H 1766.92 -1.85262 -0.598825 0
M  V30 18890 H 1765.09 -2.39105 -3.06078 0
M  V30 18891 H 1766.82 -2.63848 -3.06865 0
M  V30 18892 H 1763.58 -4.31735 -1.94684 0
M  V30 18893 H 1764 -6.71232 -0.881857 0
M  V30 18894 H 1768.64 -3.90465 -1.62162 0
M  V30 18895 H 1766.36 -8.08063 -0.0778242 0
M  V30 18896 H 1769.95 -5.77915 -0.671241 0
M  V30 18897 H 1768.83 -7.84149 0.0891564 0
M  V30 18898 N 1766.33 0.779763 -1.36958 0
M  V30 18899 C 1767.58 1.53803 -1.31723 0
M  V30 18900 C 1767.9 1.94239 0.100663 0
M  V30 18901 O 1767.16 1.6372 1.07212 0
M  V30 18902 C 1767.46 2.82075 -2.19473 0
M  V30 18903 C 1767.12 2.6073 -3.67873 0
M  V30 18904 C 1765.79 2.54617 -4.08318 0
M  V30 18905 C 1768.14 2.41407 -4.61922 0
M  V30 18906 C 1765.47 2.2716 -5.40939 0
M  V30 18907 C 1767.82 2.15475 -5.94772 0
M  V30 18908 C 1766.48 2.07801 -6.3433 0
M  V30 18909 H 1765.75 0.562804 -0.482009 0
M  V30 18910 H 1768.4 0.898839 -1.69095 0
M  V30 18911 H 1766.7 3.50511 -1.75069 0
M  V30 18912 H 1768.4 3.39915 -2.12741 0
M  V30 18913 H 1764.99 2.66347 -3.35793 0
M  V30 18914 H 1769.18 2.45125 -4.31541 0
M  V30 18915 H 1764.43 2.19708 -5.7056 0
M  V30 18916 H 1768.61 1.9952 -6.67207 0
M  V30 18917 H 1766.23 1.86289 -7.37021 0
M  V30 18918 N 1767.81 1.21396 1.00503 0
M  V30 18919 C 1768.76 0.940669 2.07691 0
M  V30 18920 C 1769.74 -0.104065 1.60563 0
M  V30 18921 O 1770.93 0.104861 1.76689 0
M  V30 18922 C 1768.06 0.507176 3.39533 0
M  V30 18923 C 1767.15 1.58598 3.93329 0
M  V30 18924 N 1767.54 2.81104 4.20493 0
M  V30 18925 C 1765.84 1.45484 4.21605 0
M  V30 18926 C 1766.54 3.50775 4.64038 0
M  V30 18927 N 1765.51 2.78214 4.67009 0
M  V30 18928 H 1769.32 1.87141 2.26617 0
M  V30 18929 H 1766.83 1.10969 1.18574 0
M  V30 18930 H 1768.83 0.292749 4.15871 0
M  V30 18931 H 1767.49 -0.416806 3.22014 0
M  V30 18932 H 1768.5 3.17647 4.09049 0
M  V30 18933 H 1765.18 0.596142 4.13222 0
M  V30 18934 H 1766.57 4.55667 4.93779 0
M  V30 18935 N 1769.29 -1.19996 1.0217 0
M  V30 18936 C 1770.53 -1.89121 0.712579 0
M  V30 18937 C 1770.85 -1.79556 -0.760561 0
M  V30 18938 O 1770.12 -1.2013 -1.54744 0
M  V30 18939 H 1768.7 -0.700075 0.260585 0
M  V30 18940 H 1771.37 -1.4571 1.2944 0
M  V30 18941 H 1770.46 -2.95629 1.00051 0
M  V30 18942 N 1770.76 -0.798611 -1.35867 0
M  V30 18943 C 1771.7 -0.161203 -2.28632 0
M  V30 18944 C 1772.71 0.634886 -1.4991 0
M  V30 18945 O 1773.9 0.468557 -1.72241 0
M  V30 18946 C 1771 0.794407 -3.29458 0
M  V30 18947 C 1770.17 0.0464031 -4.37375 0
M  V30 18948 C 1769.23 0.919313 -5.18107 0
M  V30 18949 O 1768.26 0.373179 -5.67975 0
M  V30 18950 N 1769.46 2.24243 -5.35439 0
M  V30 18951 H 1772.22 -0.958079 -2.83973 0
M  V30 18952 H 1769.78 -0.653344 -1.48132 0
M  V30 18953 H 1771.78 1.38242 -3.80357 0
M  V30 18954 H 1770.35 1.49212 -2.7469 0
M  V30 18955 H 1769.57 -0.722757 -3.87518 0
M  V30 18956 H 1770.85 -0.469417 -5.0663 0
M  V30 18957 H 1770.25 2.71017 -4.96554 0
M  V30 18958 H 1768.81 2.77986 -5.89548 0
M  V30 18959 N 1772.24 1.47639 -0.551417 0
M  V30 18960 C 1773.48 2.04382 -0.0274854 0
M  V30 18961 C 1773.85 1.41714 1.29542 0
M  V30 18962 O 1775.05 1.8947 1.90669 0
M  V30 18963 C 1773.32 3.57332 0.0698769 0
M  V30 18964 S 1774.88 4.35455 0.540771 0
M  V30 18965 H 1771.69 0.710648 -0.0223553 0
M  V30 18966 H 1774.3 1.81083 -0.73684 0
M  V30 18967 H 1773 4.00468 -0.897406 0
M  V30 18968 H 1772.53 3.85118 0.802962 0
M  V30 18969 H 1774.55 4.62342 1.80152 0
M  V30 18970 N 1773.72 0.287581 1.54954 0
M  V30 18971 C 1774.97 -0.326093 2.00161 0
M  V30 18972 C 1775.3 -1.54564 1.17574 0
M  V30 18973 O 1774.57 -1.92901 0.248859 0
M  V30 18974 C 1774.86 -0.695974 3.5331 0
M  V30 18975 C 1774.71 0.531783 4.46645 0
M  V30 18976 C 1776.03 -1.52767 4.12735 0
M  V30 18977 H 1773.15 -0.117051 0.727646 0
M  V30 18978 H 1775.79 0.39701 1.85806 0
M  V30 18979 H 1773.94 -1.31205 3.65674 0
M  V30 18980 H 1775.61 1.17032 4.46208 0
M  V30 18981 H 1773.86 1.16754 4.17793 0
M  V30 18982 H 1774.53 0.229034 5.51525 0
M  V30 18983 H 1777 -1.00724 4.03725 0
M  V30 18984 H 1775.88 -1.75527 5.20078 0
M  V30 18985 H 1776.14 -2.51267 3.63755 0
M  V30 18986 N 1775.2 -1.57593 0.0150662 0
M  V30 18987 C 1776.42 -1.95909 -0.68077 0
M  V30 18988 C 1776.85 -0.890813 -1.65669 0
M  V30 18989 O 1776.21 0.149663 -1.80681 0
M  V30 18990 C 1776.25 -3.33324 -1.37576 0
M  V30 18991 O 1775.36 -3.28694 -2.49066 0
M  V30 18992 H 1774.7 -0.639151 -0.179949 0
M  V30 18993 H 1777.23 -2.04471 0.0727403 0
M  V30 18994 H 1777.24 -3.69236 -1.73577 0
M  V30 18995 H 1775.91 -4.10625 -0.660305 0
M  V30 18996 H 1774.49 -3.0448 -2.15282 0
M  V30 18997 N 1776.68 0.257904 -1.55475 0
M  V30 18998 C 1777.92 0.988933 -1.77054 0
M  V30 18999 C 1778.26 1.85387 -0.578375 0
M  V30 19000 O 1777.53 1.8983 0.423673 0
M  V30 19001 C 1777.81 1.85876 -3.08419 0
M  V30 19002 C 1777.67 1.02274 -4.38018 0
M  V30 19003 C 1778.99 2.84322 -3.3593 0
M  V30 19004 H 1776.1 0.358103 -0.644152 0
M  V30 19005 H 1778.75 0.260209 -1.8821 0
M  V30 19006 H 1776.9 2.48008 -2.99039 0
M  V30 19007 H 1778.57 0.420967 -4.59375 0
M  V30 19008 H 1776.81 0.326705 -4.32568 0
M  V30 19009 H 1777.48 1.6649 -5.26294 0
M  V30 19010 H 1779.96 2.32325 -3.45202 0
M  V30 19011 H 1778.83 3.42313 -4.29084 0
M  V30 19012 H 1779.1 3.60223 -2.56304 0
M  V30 19013 N 1778.15 1.48666 0.52309 0
M  V30 19014 C 1779.57 1.50492 1.10495 0
M  V30 19015 C 1779.92 0.278579 1.94212 0
M  V30 19016 O 1779.04 -0.613679 2.07516 0
M  V30 19017 C 1779.64 2.72692 2.01058 0
M  V30 19018 C 1778.2 2.77368 2.54448 0
M  V30 19019 C 1777.34 2.44104 1.31562 0
M  V30 19020 H 1780.29 1.55682 0.308017 0
M  V30 19021 H 1780.31 2.51601 2.85442 0
M  V30 19022 H 1779.83 3.61931 1.401 0
M  V30 19023 H 1777.93 1.92356 3.19108 0
M  V30 19024 H 1778.04 3.78976 2.93111 0
M  V30 19025 H 1776.4 1.95407 1.63366 0
M  V30 19026 H 1777.19 3.35591 0.723455 0
M  V30 19027 N 1779.63 -0.772489 1.37369 0
M  V30 19028 C 1780.58 -1.87592 1.29589 0
M  V30 19029 C 1781.57 -1.59846 0.183869 0
M  V30 19030 O 1782.76 -1.71989 0.418198 0
M  V30 19031 C 1779.89 -3.25051 1.1044 0
M  V30 19032 C 1778.97 -3.58751 2.26183 0
M  V30 19033 N 1779.36 -3.63638 3.51569 0
M  V30 19034 C 1777.66 -3.88912 2.1832 0
M  V30 19035 C 1778.36 -3.94064 4.27888 0
M  V30 19036 N 1777.34 -4.09925 3.57019 0
M  V30 19037 H 1781.14 -1.89621 2.24546 0
M  V30 19038 H 1778.66 -0.968896 1.30331 0
M  V30 19039 H 1780.65 -4.03989 1.02951 0
M  V30 19040 H 1779.31 -3.24286 0.163986 0
M  V30 19041 H 1780.32 -3.45862 3.85487 0
M  V30 19042 H 1777 -3.95973 1.32332 0
M  V30 19043 H 1778.39 -4.04627 5.36401 0
M  V30 19044 N 1781.11 -1.21927 -0.998575 0
M  V30 19045 C 1782.04 -1.00845 -2.106 0
M  V30 19046 C 1783.02 0.068733 -1.69961 0
M  V30 19047 O 1784.21 -0.0923686 -1.9398 0
M  V30 19048 C 1781.34 -0.57929 -3.42435 0
M  V30 19049 C 1780.29 -1.60177 -3.96897 0
M  V30 19050 C 1779.62 -1.02863 -5.24713 0
M  V30 19051 C 1780.92 -2.9903 -4.28227 0
M  V30 19052 H 1782.61 -1.93469 -2.28495 0
M  V30 19053 H 1780.16 -0.931612 -1.09804 0
M  V30 19054 H 1782.11 -0.418944 -4.19312 0
M  V30 19055 H 1780.83 0.382608 -3.24351 0
M  V30 19056 H 1779.49 -1.74979 -3.22146 0
M  V30 19057 H 1779.14 -0.058254 -5.02966 0
M  V30 19058 H 1778.84 -1.71166 -5.62117 0
M  V30 19059 H 1780.36 -0.879743 -6.04229 0
M  V30 19060 H 1781.78 -2.87634 -4.95923 0
M  V30 19061 H 1780.18 -3.64404 -4.76791 0
M  V30 19062 H 1781.25 -3.4939 -3.36236 0
M  V30 19063 N 1782.59 1.19452 -1.02805 0
M  V30 19064 C 1783.52 2.24875 -0.628752 0
M  V30 19065 C 1784.5 1.66207 0.361844 0
M  V30 19066 O 1785.68 1.92652 0.244743 0
M  V30 19067 C 1782.81 3.47293 0.0220954 0
M  V30 19068 C 1781.77 4.1863 -0.890693 0
M  V30 19069 C 1781.09 5.34597 -0.104997 0
M  V30 19070 C 1782.39 4.73518 -2.20405 0
M  V30 19071 H 1784.09 2.5853 -1.51005 0
M  V30 19072 H 1781.63 1.24271 -0.727518 0
M  V30 19073 H 1783.59 4.20235 0.313073 0
M  V30 19074 H 1782.31 3.12835 0.938182 0
M  V30 19075 H 1780.97 3.47568 -1.16585 0
M  V30 19076 H 1780.62 4.96385 0.813098 0
M  V30 19077 H 1780.32 5.83258 -0.712983 0
M  V30 19078 H 1781.84 6.10337 0.179259 0
M  V30 19079 H 1783.26 5.3822 -1.97465 0
M  V30 19080 H 1781.65 5.32663 -2.76388 0
M  V30 19081 H 1782.72 3.9163 -2.85926 0
M  V30 19082 N 1784.07 0.805805 1.35442 0
M  V30 19083 C 1785.29 0.398252 2.03031 0
M  V30 19084 C 1785.71 -0.990542 1.60729 0
M  V30 19085 O 1785.07 -1.63813 0.804461 0
M  V30 19086 C 1785.12 0.471116 3.58417 0
M  V30 19087 O 1784.84 1.80516 3.99181 0
M  V30 19088 C 1786.34 0.056272 4.43264 0
M  V30 19089 H 1783.56 0.161905 0.651174 0
M  V30 19090 H 1786.1 1.08921 1.73079 0
M  V30 19091 H 1784.26 -0.171584 3.8702 0
M  V30 19092 H 1784.67 1.76739 4.93825 0
M  V30 19093 H 1786.15 0.15837 5.51773 0
M  V30 19094 H 1786.62 -0.998308 4.27704 0
M  V30 19095 H 1787.23 0.672097 4.19956 0
M  V30 19096 N 1785.54 -1.47344 0.559239 0
M  V30 19097 C 1786.77 -2.07364 0.0388864 0
M  V30 19098 C 1787.19 -1.40886 -1.2463 0
M  V30 19099 O 1786.55 -0.48454 -1.74705 0
M  V30 19100 C 1786.6 -3.60336 -0.137894 0
M  V30 19101 O 1785.7 -3.94555 -1.2 0
M  V30 19102 H 1785.05 -0.661942 0.0522363 0
M  V30 19103 H 1787.58 -1.89333 0.7755 0
M  V30 19104 H 1787.59 -4.06483 -0.351462 0
M  V30 19105 H 1786.26 -4.08118 0.800776 0
M  V30 19106 H 1784.84 -3.6015 -0.966757 0
M  V30 19107 N 1787.02 -0.295795 -1.54799 0
M  V30 19108 C 1788.43 0.19789 -1.85648 0
M  V30 19109 C 1788.78 1.53834 -1.21776 0
M  V30 19110 O 1787.91 2.10218 -0.513554 0
M  V30 19111 C 1788.5 0.365844 -3.36819 0
M  V30 19112 C 1787.06 0.80375 -3.67718 0
M  V30 19113 C 1786.21 -0.0909572 -2.77151 0
M  V30 19114 H 1789.16 -0.516968 -1.50044 0
M  V30 19115 H 1789.18 1.20123 -3.61041 0
M  V30 19116 H 1788.69 -0.60991 -3.83278 0
M  V30 19117 H 1786.8 1.79024 -3.26774 0
M  V30 19118 H 1786.91 0.626745 -4.74983 0
M  V30 19119 H 1785.27 0.428882 -2.51063 0
M  V30 19120 H 1786.06 -1.06297 -3.26429 0
M  V30 19121 N 1788.5 1.57583 -0.0234236 0
M  V30 19122 C 1789.45 2.09872 0.960327 0
M  V30 19123 C 1790.42 0.999466 1.32665 0
M  V30 19124 O 1791.6 1.27332 1.42095 0
M  V30 19125 C 1788.74 2.62578 2.23935 0
M  V30 19126 C 1787.86 3.86491 1.92999 0
M  V30 19127 C 1786.99 4.27611 3.15154 0
M  V30 19128 C 1786.03 5.44298 2.80011 0
M  V30 19129 N 1785.17 5.80601 3.94775 0
M  V30 19130 H 1790.01 2.93647 0.507502 0
M  V30 19131 H 1787.54 1.45147 0.238911 0
M  V30 19132 H 1789.5 2.91223 2.98739 0
M  V30 19133 H 1788.13 1.81643 2.66844 0
M  V30 19134 H 1787.18 3.6461 1.08462 0
M  V30 19135 H 1788.5 4.71377 1.63112 0
M  V30 19136 H 1787.65 4.57663 3.98284 0
M  V30 19137 H 1786.39 3.41481 3.48198 0
M  V30 19138 H 1785.39 5.13946 1.95293 0
M  V30 19139 H 1786.62 6.32122 2.4819 0
M  V30 19140 H 1784.57 4.97427 4.27671 0
M  V30 19141 H 1784.48 6.60113 3.68492 0
M  V30 19142 H 1785.75 6.15255 4.78624 0
M  V30 19143 N 1789.98 -0.249655 1.5561 0
M  V30 19144 C 1791.39 -0.818934 1.67781 0
M  V30 19145 C 1791.74 -1.86134 0.620374 0
M  V30 19146 O 1790.87 -2.15133 -0.233869 0
M  V30 19147 C 1791.46 -1.49219 3.0417 0
M  V30 19148 C 1790.02 -2.0092 3.18289 0
M  V30 19149 C 1789.17 -0.859333 2.63649 0
M  V30 19150 H 1792.12 -0.0255186 1.58679 0
M  V30 19151 H 1792.14 -2.36011 2.98461 0
M  V30 19152 H 1791.65 -0.733268 3.8111 0
M  V30 19153 H 1789.75 -2.79701 2.46167 0
M  V30 19154 H 1789.87 -2.20848 4.25163 0
M  V30 19155 H 1788.23 -1.2591 2.21402 0
M  V30 19156 H 1789.01 -0.113545 3.43112 0
M  V30 19157 N 1791.46 -1.48941 -0.515198 0
M  V30 19158 C 1792.68 -1.61656 -1.29931 0
M  V30 19159 C 1793.11 -0.282529 -1.85966 0
M  V30 19160 O 1792.47 0.747914 -1.65154 0
M  V30 19161 C 1792.51 -2.6774 -2.41553 0
M  V30 19162 O 1791.62 -2.25926 -3.45009 0
M  V30 19163 H 1790.96 -0.541561 -0.384197 0
M  V30 19164 H 1793.49 -1.95032 -0.618349 0
M  V30 19165 H 1793.5 -2.89471 -2.87525 0
M  V30 19166 H 1792.17 -3.64582 -2.00131 0
M  V30 19167 H 1790.75 -2.14469 -3.05053 0
M  V30 19168 N 1792.94 0.765193 -1.37777 0
M  V30 19169 C 1793.87 1.89247 -1.36777 0
M  V30 19170 C 1794.85 1.68463 -0.235389 0
M  V30 19171 O 1796.03 1.89225 -0.436733 0
M  V30 19172 C 1793.16 3.2662 -1.18053 0
M  V30 19173 C 1792.12 3.61981 -2.28372 0
M  V30 19174 C 1791.44 4.97967 -1.94765 0
M  V30 19175 C 1792.74 3.68053 -3.70587 0
M  V30 19176 H 1794.44 1.90341 -2.31108 0
M  V30 19177 H 1791.98 0.914355 -1.11245 0
M  V30 19178 H 1793.93 4.05125 -1.15982 0
M  V30 19179 H 1792.66 3.25976 -0.201803 0
M  V30 19180 H 1791.32 2.85788 -2.2961 0
M  V30 19181 H 1790.97 4.93869 -0.954052 0
M  V30 19182 H 1790.67 5.22594 -2.68642 0
M  V30 19183 H 1792.19 5.78864 -1.94292 0
M  V30 19184 H 1793.6 4.36696 -3.71443 0
M  V30 19185 H 1792 4.04183 -4.43572 0
M  V30 19186 H 1793.07 2.68556 -4.03739 0
M  V30 19187 N 1794.41 1.22455 0.992094 0
M  V30 19188 C 1795.64 1.07594 1.76723 0
M  V30 19189 C 1796.06 -0.37345 1.8507 0
M  V30 19190 O 1795.41 -1.25876 1.32142 0
M  V30 19191 C 1795.46 1.68178 3.19998 0
M  V30 19192 O 1795.19 3.07447 3.12102 0
M  V30 19193 C 1796.69 1.58602 4.13957 0
M  V30 19194 H 1793.91 0.377148 0.554978 0
M  V30 19195 H 1796.45 1.62065 1.24721 0
M  V30 19196 H 1794.61 1.17768 3.69066 0
M  V30 19197 H 1795.02 3.36641 4.0221 0
M  V30 19198 H 1796.49 2.05714 5.12236 0
M  V30 19199 H 1796.97 0.542712 4.35834 0
M  V30 19200 H 1797.58 2.08321 3.70786 0
M  V30 19201 N 1795.89 -1.18905 1.03437 0
M  V30 19202 C 1797.12 -1.93219 0.753743 0
M  V30 19203 C 1797.54 -1.75299 -0.682055 0
M  V30 19204 O 1796.9 -1.05892 -1.47161 0
M  V30 19205 C 1796.95 -3.42864 1.117 0
M  V30 19206 O 1796.05 -4.11708 0.238816 0
M  V30 19207 H 1795.39 -0.603015 0.277973 0
M  V30 19208 H 1797.92 -1.50823 1.38252 0
M  V30 19209 H 1797.93 -3.9355 1.07623 0
M  V30 19210 H 1796.61 -3.55228 2.163 0
M  V30 19211 H 1795.18 -3.71359 0.338652 0
M  V30 19212 N 1797.37 -0.812977 -1.35013 0
M  V30 19213 C 1798.59 -0.407969 -2.03348 0
M  V30 19214 C 1799.02 0.975148 -1.60849 0
M  V30 19215 O 1798.38 1.63267 -0.788256 0
M  V30 19216 C 1798.43 -0.506754 -3.57022 0
M  V30 19217 O 1797.53 0.477322 -4.09628 0
M  V30 19218 H 1796.87 -0.169416 -0.642023 0
M  V30 19219 H 1799.4 -1.10064 -1.72474 0
M  V30 19220 H 1799.41 -0.378883 -4.06237 0
M  V30 19221 H 1798.09 -1.51557 -3.87302 0
M  V30 19222 H 1796.66 0.309161 -3.71616 0
M  V30 19223 N 1798.85 1.47045 -0.567045 0
M  V30 19224 C 1800.26 1.86202 -0.13627 0
M  V30 19225 C 1800.61 1.47252 1.29658 0
M  V30 19226 O 1799.73 0.880121 1.97694 0
M  V30 19227 C 1800.33 3.37945 -0.240528 0
M  V30 19228 C 1798.89 3.76157 0.135272 0
M  V30 19229 C 1798.04 2.71089 -0.583628 0
M  V30 19230 H 1800.99 1.38423 -0.776196 0
M  V30 19231 H 1801.01 3.76673 0.538293 0
M  V30 19232 H 1800.52 3.66263 -1.28348 0
M  V30 19233 H 1798.62 3.53456 1.17896 0
M  V30 19234 H 1798.73 4.78547 -0.230137 0
M  V30 19235 H 1797.1 2.54687 -0.0256067 0
M  V30 19236 H 1797.88 3.02247 -1.62792 0
M  V30 19237 N 1800.33 0.304 1.5464 0
M  V30 19238 C 1801.26 -0.563854 2.2659 0
M  V30 19239 C 1802.24 -1.13547 1.26653 0
M  V30 19240 O 1803.42 -1.16425 1.55431 0
M  V30 19241 C 1800.55 -1.73437 3.00894 0
M  V30 19242 C 1799.51 -1.29297 4.08003 0
M  V30 19243 C 1798.83 -2.54888 4.70038 0
M  V30 19244 C 1800.13 -0.422027 5.20592 0
M  V30 19245 H 1801.83 0.0362569 2.99378 0
M  V30 19246 H 1799.37 0.0188781 1.43988 0
M  V30 19247 H 1801.32 -2.34762 3.4995 0
M  V30 19248 H 1800.05 -2.36076 2.25689 0
M  V30 19249 H 1798.71 -0.702757 3.59801 0
M  V30 19250 H 1798.36 -3.15848 3.9147 0
M  V30 19251 H 1798.06 -2.26054 5.42378 0
M  V30 19252 H 1799.58 -3.17011 5.21859 0
M  V30 19253 H 1800.99 -0.941036 5.65524 0
M  V30 19254 H 1799.39 -0.227323 5.99669 0
M  V30 19255 H 1800.46 0.55212 4.81746 0
M  V30 19256 N 1801.8 -1.57568 0.0317802 0
M  V30 19257 C 1802.73 -2.13412 -0.947499 0
M  V30 19258 C 1803.71 -1.05091 -1.33753 0
M  V30 19259 O 1804.9 -1.32936 -1.41568 0
M  V30 19260 C 1802.03 -2.66337 -2.22895 0
M  V30 19261 C 1800.98 -3.79469 -1.97958 0
M  V30 19262 C 1800.31 -4.18833 -3.3239 0
M  V30 19263 C 1801.61 -5.05432 -1.31664 0
M  V30 19264 H 1803.3 -2.95488 -0.482417 0
M  V30 19265 H 1800.85 -1.42142 -0.230603 0
M  V30 19266 H 1802.8 -3.04039 -2.91784 0
M  V30 19267 H 1801.53 -1.81426 -2.71574 0
M  V30 19268 H 1800.19 -3.42209 -1.31485 0
M  V30 19269 H 1799.83 -3.30899 -3.78833 0
M  V30 19270 H 1799.53 -4.95071 -3.16511 0
M  V30 19271 H 1801.06 -4.5912 -4.02544 0
M  V30 19272 H 1802.47 -5.40704 -1.90558 0
M  V30 19273 H 1800.87 -5.86686 -1.26173 0
M  V30 19274 H 1801.94 -4.84032 -0.28996 0
M  V30 19275 N 1803.28 0.241399 -1.5574 0
M  V30 19276 C 1804.25 1.28236 -1.89969 0
M  V30 19277 C 1805.25 1.40804 -0.776582 0
M  V30 19278 O 1806.44 1.3941 -1.04453 0
M  V30 19279 C 1803.57 2.65926 -2.13299 0
M  V30 19280 H 1804.76 0.991011 -2.83053 0
M  V30 19281 H 1802.31 0.480939 -1.48717 0
M  V30 19282 H 1803.05 3.00192 -1.22701 0
M  V30 19283 H 1802.83 2.58184 -2.95099 0
M  V30 19284 H 1804.32 3.4108 -2.40944 0
M  V30 19285 N 1804.76 1.49212 0.507292 0
M  V30 19286 C 1806.01 1.59591 1.26105 0
M  V30 19287 C 1806.36 0.276243 1.90407 0
M  V30 19288 O 1805.65 -0.722987 1.77436 0
M  V30 19289 C 1805.85 2.68761 2.35589 0
M  V30 19290 C 1805.68 4.11215 1.82022 0
M  V30 19291 C 1804.45 4.78081 1.63606 0
M  V30 19292 C 1806.65 4.96653 1.33568 0
M  V30 19293 N 1804.63 6.04871 1.04902 0
M  V30 19294 C 1806 6.13871 0.869593 0
M  V30 19295 C 1808.05 4.82701 1.22083 0
M  V30 19296 C 1806.76 7.18674 0.300011 0
M  V30 19297 C 1808.78 5.87647 0.66522 0
M  V30 19298 C 1808.14 7.04089 0.209323 0
M  V30 19299 H 1804.24 0.638391 0.451642 0
M  V30 19300 H 1806.83 1.86192 0.569275 0
M  V30 19301 H 1805 2.43944 3.02235 0
M  V30 19302 H 1806.73 2.68697 3.02629 0
M  V30 19303 H 1803.49 4.34778 1.87791 0
M  V30 19304 H 1803.91 6.7255 0.774958 0
M  V30 19305 H 1808.55 3.92996 1.5593 0
M  V30 19306 H 1806.27 8.08084 -0.0507413 0
M  V30 19307 H 1809.86 5.7891 0.579215 0
M  V30 19308 H 1808.74 7.83908 -0.213896 0
M  V30 19309 N 1806.24 -0.757876 1.38181 0
M  V30 19310 C 1807.48 -1.51822 1.35358 0
M  V30 19311 C 1807.84 -1.92314 -0.0574579 0
M  V30 19312 O 1807.13 -1.62246 -1.01916 0
M  V30 19313 C 1807.33 -2.78548 2.23933 0
M  V30 19314 C 1807.16 -2.50444 3.73508 0
M  V30 19315 C 1805.93 -2.43877 4.42552 0
M  V30 19316 C 1808.12 -2.17507 4.66042 0
M  V30 19317 N 1806.11 -2.08003 5.77588 0
M  V30 19318 C 1807.48 -1.91888 5.89558 0
M  V30 19319 C 1809.53 -2.0378 4.54288 0
M  V30 19320 C 1808.23 -1.53928 7.02637 0
M  V30 19321 C 1810.26 -1.67221 5.67266 0
M  V30 19322 C 1809.62 -1.42472 6.89841 0
M  V30 19323 H 1805.72 -0.555312 0.550593 0
M  V30 19324 H 1808.31 -0.882923 1.7353 0
M  V30 19325 H 1806.48 -3.39893 1.87956 0
M  V30 19326 H 1808.21 -3.44565 2.12267 0
M  V30 19327 H 1804.96 -2.60203 3.95716 0
M  V30 19328 H 1805.39 -1.92723 6.48989 0
M  V30 19329 H 1810.03 -2.21592 3.60079 0
M  V30 19330 H 1807.75 -1.34856 7.96768 0
M  V30 19331 H 1811.33 -1.57238 5.60149 0
M  V30 19332 H 1810.21 -1.14602 7.75781 0
M  V30 19333 N 1807.72 -1.22979 -0.985586 0
M  V30 19334 C 1808.63 -1.02294 -2.11124 0
M  V30 19335 C 1809.64 0.030991 -1.73972 0
M  V30 19336 O 1810.82 -0.163333 -2.00737 0
M  V30 19337 C 1807.88 -0.611102 -3.41272 0
M  V30 19338 C 1806.94 -1.73949 -3.9248 0
M  V30 19339 C 1806.18 -1.34721 -5.16417 0
M  V30 19340 O 1806.4 -0.229171 -5.69939 0
M  V30 19341 O 1805.33 -2.16639 -5.61561 0
M  V30 19342 H 1809.16 -1.9662 -2.31461 0
M  V30 19343 H 1806.75 -1.01639 -1.09499 0
M  V30 19344 H 1808.63 -0.392127 -4.19572 0
M  V30 19345 H 1807.3 0.303224 -3.22277 0
M  V30 19346 H 1806.21 -2.01305 -3.1532 0
M  V30 19347 H 1807.54 -2.63194 -4.1592 0
M  V30 19348 N 1809.19 1.18355 -1.04066 0
M  V30 19349 C 1810.44 1.88872 -0.754914 0
M  V30 19350 C 1810.8 1.78835 0.709639 0
M  V30 19351 O 1810.09 1.17782 1.51122 0
M  V30 19352 C 1810.28 3.38203 -1.15557 0
M  V30 19353 C 1810.11 3.62774 -2.65753 0
M  V30 19354 C 1808.88 3.80139 -3.329 0
M  V30 19355 C 1811.08 3.63357 -3.63973 0
M  V30 19356 N 1809.06 3.92449 -4.72077 0
M  V30 19357 C 1810.43 3.81381 -4.88824 0
M  V30 19358 C 1812.49 3.46446 -3.57603 0
M  V30 19359 C 1811.19 3.84244 -6.0807 0
M  V30 19360 C 1813.22 3.50592 -4.76277 0
M  V30 19361 C 1812.58 3.69112 -5.99946 0
M  V30 19362 H 1808.68 0.70975 -0.328297 0
M  V30 19363 H 1811.26 1.42162 -1.33034 0
M  V30 19364 H 1809.43 3.83608 -0.608224 0
M  V30 19365 H 1811.16 3.96288 -0.820842 0
M  V30 19366 H 1807.92 3.7952 -2.83304 0
M  V30 19367 H 1808.34 4.02427 -5.4441 0
M  V30 19368 H 1812.99 3.31073 -2.62965 0
M  V30 19369 H 1810.7 3.98405 -7.03064 0
M  V30 19370 H 1814.29 3.38781 -4.72989 0
M  V30 19371 H 1813.17 3.72211 -6.90238 0
M  V30 19372 N 1810.67 0.820125 1.3458 0
M  V30 19373 C 1811.95 0.329573 1.92803 0
M  V30 19374 C 1812.33 -1.18271 1.74858 0
M  V30 19375 O 1811.68 -1.98851 1.12564 0
M  V30 19376 C 1811.89 0.755833 3.40717 0
M  V30 19377 C 1813.24 0.75306 4.17869 0
M  V30 19378 O 1814.26 0.698235 3.49289 0
M  V30 19379 O 1813.12 0.823708 5.40257 0
M  V30 19380 H 1810.21 0.0893898 0.822155 0
M  V30 19381 H 1812.76 0.904729 1.43571 0
M  V30 19382 H 1811.53 1.79757 3.47568 0
M  V30 19383 H 1811.15 0.15622 3.97293 0
M  V30 19384 N 1812.15 -1.46743 0.574835 0
M  V30 19385 C 1813.38 -2.06805 0.0627992 0
M  V30 19386 C 1813.79 -1.42482 -1.23872 0
M  V30 19387 O 1813.15 -0.527375 -1.74714 0
M  V30 19388 C 1813.2 -3.61307 -0.117983 0
M  V30 19389 O 1812.92 -4.23222 1.13201 0
M  V30 19390 C 1814.42 -4.3828 -0.665277 0
M  V30 19391 H 1811.64 -0.668835 0.0538616 0
M  V30 19392 H 1814.19 -1.88488 0.793265 0
M  V30 19393 H 1812.34 -3.79078 -0.798641 0
M  V30 19394 H 1812.76 -5.15992 0.940853 0
M  V30 19395 H 1814.23 -5.47004 -0.740985 0
M  V30 19396 H 1814.71 -4.05777 -1.68052 0
M  V30 19397 H 1815.31 -4.25295 -0.0197462 0
M  V30 19398 N 1813.63 -0.312197 -1.54477 0
M  V30 19399 C 1814.58 0.558894 -2.23931 0
M  V30 19400 C 1815.55 1.12071 -1.22594 0
M  V30 19401 O 1816.73 1.16316 -1.51245 0
M  V30 19402 C 1813.87 1.71948 -2.99212 0
M  V30 19403 C 1812.98 1.18799 -4.15344 0
M  V30 19404 C 1812.12 2.31334 -4.78182 0
M  V30 19405 C 1811.16 1.75375 -5.86438 0
M  V30 19406 N 1810.29 2.81528 -6.43184 0
M  V30 19407 H 1815.13 -0.0399708 -2.97973 0
M  V30 19408 H 1812.67 -0.0314967 -1.47066 0
M  V30 19409 H 1814.63 2.40225 -3.41098 0
M  V30 19410 H 1813.26 2.28981 -2.27525 0
M  V30 19411 H 1812.31 0.397122 -3.78321 0
M  V30 19412 H 1813.62 0.738426 -4.93304 0
M  V30 19413 H 1812.78 3.07537 -5.22978 0
M  V30 19414 H 1811.52 2.79622 -3.99578 0
M  V30 19415 H 1810.52 0.976658 -5.41056 0
M  V30 19416 H 1811.75 1.27978 -6.66932 0
M  V30 19417 H 1809.69 3.29129 -5.6746 0
M  V30 19418 H 1809.61 2.41101 -7.16524 0
M  V30 19419 H 1810.88 3.57595 -6.92637 0
M  V30 19420 N 1815.11 1.57549 -0.040136 0
M  V30 19421 C 1816.35 1.9225 0.636094 0
M  V30 19422 C 1816.68 0.917539 1.71498 0
M  V30 19423 O 1815.94 -0.0718721 1.95568 0
M  V30 19424 C 1816.24 3.3366 1.28084 0
M  V30 19425 C 1815.9 4.49682 0.331249 0
M  V30 19426 C 1814.56 4.81149 0.0699171 0
M  V30 19427 C 1816.92 5.20216 -0.320179 0
M  V30 19428 C 1814.24 5.80503 -0.850464 0
M  V30 19429 C 1816.6 6.20553 -1.22868 0
M  V30 19430 C 1815.26 6.50455 -1.4988 0
M  V30 19431 H 1814.53 0.703493 0.232763 0
M  V30 19432 H 1817.18 1.91216 -0.104258 0
M  V30 19433 H 1815.48 3.31008 2.0962 0
M  V30 19434 H 1817.18 3.57785 1.81082 0
M  V30 19435 H 1813.77 4.25119 0.545114 0
M  V30 19436 H 1817.95 4.96126 -0.131354 0
M  V30 19437 H 1813.21 6.02012 -1.06733 0
M  V30 19438 H 1817.38 6.74323 -1.73958 0
M  V30 19439 H 1815.01 7.27257 -2.21362 0
M  V30 19440 N 1816.58 -0.233136 1.55866 0
M  V30 19441 C 1817.51 -1.29225 1.94482 0
M  V30 19442 C 1818.5 -1.49495 0.811503 0
M  V30 19443 O 1819.68 -1.61872 1.07289 0
M  V30 19444 C 1816.81 -2.64435 2.25147 0
M  V30 19445 C 1815.76 -2.5884 3.4086 0
M  V30 19446 C 1815.09 -3.97973 3.57102 0
M  V30 19447 C 1816.39 -2.14629 4.76164 0
M  V30 19448 H 1818.08 -0.971527 2.83199 0
M  V30 19449 H 1815.63 -0.465905 1.36255 0
M  V30 19450 H 1817.58 -3.38676 2.50752 0
M  V30 19451 H 1816.31 -2.98172 1.33271 0
M  V30 19452 H 1814.97 -1.87057 3.15286 0
M  V30 19453 H 1814.61 -4.28998 2.62621 0
M  V30 19454 H 1814.31 -3.95114 4.34924 0
M  V30 19455 H 1815.84 -4.73893 3.85043 0
M  V30 19456 H 1817.25 -2.78607 5.0105 0
M  V30 19457 H 1815.65 -2.22853 5.57186 0
M  V30 19458 H 1816.72 -1.09826 4.72299 0
M  V30 19459 N 1818.06 -1.49479 -0.499372 0
M  V30 19460 C 1819.3 -1.60667 -1.26355 0
M  V30 19461 C 1819.67 -0.28764 -1.89833 0
M  V30 19462 O 1820.87 -0.274714 -2.67393 0
M  V30 19463 C 1819.14 -2.73489 -2.30084 0
M  V30 19464 S 1820.7 -3.04637 -3.15819 0
M  V30 19465 H 1817.52 -0.566696 -0.429391 0
M  V30 19466 H 1820.12 -1.87145 -0.565436 0
M  V30 19467 H 1818.82 -3.67846 -1.81982 0
M  V30 19468 H 1818.35 -2.49009 -3.04562 0
M  V30 19469 H 1820.37 -2.46284 -4.30765 0
M  V30 19470 N 1819.54 0.750537 -1.38581 0
M  V30 19471 C 1820.95 1.32802 -1.31227 0
M  V30 19472 C 1821.3 1.96176 0.0305372 0
M  V30 19473 O 1820.43 1.95272 0.932614 0
M  V30 19474 C 1821.02 2.41468 -2.37652 0
M  V30 19475 C 1819.58 2.94929 -2.33867 0
M  V30 19476 C 1818.73 1.68339 -2.20357 0
M  V30 19477 H 1821.68 0.549187 -1.48895 0
M  V30 19478 H 1821.7 3.21481 -2.03544 0
M  V30 19479 H 1821.21 1.95313 -3.35372 0
M  V30 19480 H 1819.31 3.45404 -1.39738 0
M  V30 19481 H 1819.43 3.491 -3.28125 0
M  V30 19482 H 1817.79 1.92082 -1.67262 0
M  V30 19483 H 1818.57 1.24258 -3.20023 0
M  V30 19484 N 1821.02 1.235 0.979051 0
M  V30 19485 C 1821.95 1.04183 2.08969 0
M  V30 19486 C 1822.93 -0.041685 1.70049 0
M  V30 19487 O 1824.12 0.123217 1.93809 0
M  V30 19488 C 1821.25 0.633696 3.4147 0
M  V30 19489 C 1820.2 1.66471 3.94299 0
M  V30 19490 C 1819.53 1.11198 5.2301 0
M  V30 19491 C 1820.83 3.05804 4.23416 0
M  V30 19492 H 1822.52 1.9708 2.25388 0
M  V30 19493 H 1820.07 0.948963 1.08308 0
M  V30 19494 H 1822.02 0.485599 4.18593 0
M  V30 19495 H 1820.74 -0.330958 3.24919 0
M  V30 19496 H 1819.4 1.80082 3.19321 0
M  V30 19497 H 1819.05 0.138264 5.0281 0
M  V30 19498 H 1818.75 1.80087 5.59323 0
M  V30 19499 H 1820.27 0.975759 6.02753 0
M  V30 19500 H 1821.69 2.95487 4.91284 0
M  V30 19501 H 1820.08 3.71944 4.70933 0
M  V30 19502 H 1821.15 3.54695 3.30635 0
M  V30 19503 N 1822.5 -1.17802 1.04693 0
M  V30 19504 C 1823.74 -1.89625 0.762995 0
M  V30 19505 C 1824.1 -1.78906 -0.696901 0
M  V30 19506 O 1825.3 -2.45498 -1.09472 0
M  V30 19507 C 1823.57 -3.35787 1.224 0
M  V30 19508 S 1825.13 -4.25638 1.06667 0
M  V30 19509 H 1821.95 -0.654723 0.277235 0
M  V30 19510 H 1824.55 -1.42304 1.34052 0
M  V30 19511 H 1823.26 -3.41121 2.28176 0
M  V30 19512 H 1822.79 -3.8815 0.640532 0
M  V30 19513 H 1824.8 -4.96199 -0.0121683 0
M  V30 19514 N 1823.98 -0.827251 -1.34143 0
M  V30 19515 C 1824.91 -0.197383 -2.27345 0
M  V30 19516 C 1825.89 0.648729 -1.49098 0
M  V30 19517 O 1827.07 0.611527 -1.78305 0
M  V30 19518 C 1824.2 0.723918 -3.30873 0
M  V30 19519 C 1823.24 -0.0452254 -4.26476 0
M  V30 19520 S 1824.08 -1.39531 -5.17002 0
M  V30 19521 C 1825.23 -0.478996 -6.24064 0
M  V30 19522 H 1825.47 -0.987544 -2.80419 0
M  V30 19523 H 1823 -0.623379 -1.41256 0
M  V30 19524 H 1824.96 1.2499 -3.91009 0
M  V30 19525 H 1823.62 1.48764 -2.76637 0
M  V30 19526 H 1822.81 0.655335 -4.99721 0
M  V30 19527 H 1822.41 -0.5019 -3.70617 0
M  V30 19528 H 1824.7 0.327755 -6.76707 0
M  V30 19529 H 1825.65 -1.18126 -6.98178 0
M  V30 19530 H 1826.06 -0.0655033 -5.64462 0
M  V30 19531 N 1825.45 1.46436 -0.582609 0
M  V30 19532 C 1826.87 1.5772 -0.244278 0
M  V30 19533 C 1827.07 1.57772 1.2534 0
M  V30 19534 O 1826.13 1.49463 2.03512 0
M  V30 19535 C 1827.44 2.87122 -0.893398 0
M  V30 19536 C 1828.99 3.00753 -0.866979 0
M  V30 19537 C 1829.46 4.32891 -1.49564 0
M  V30 19538 N 1830.95 4.3959 -1.45998 0
M  V30 19539 C 1831.69 5.40449 -1.91578 0
M  V30 19540 N 1831.18 6.47983 -2.45132 0
M  V30 19541 N 1832.98 5.3165 -1.82496 0
M  V30 19542 H 1825.13 1.44646 -1.55536 0
M  V30 19543 H 1827.39 0.689972 -0.650109 0
M  V30 19544 H 1827.1 2.92894 -1.94695 0
M  V30 19545 H 1826.97 3.75056 -0.40156 0
M  V30 19546 H 1829.36 2.94563 0.177954 0
M  V30 19547 H 1829.44 2.14295 -1.39684 0
M  V30 19548 H 1829.08 4.39839 -2.53977 0
M  V30 19549 H 1829.01 5.18124 -0.94101 0
M  V30 19550 H 1831.5 3.62479 -1.06851 0
M  V30 19551 H 1831.82 7.21154 -2.7777 0
M  V30 19552 H 1830.16 6.48803 -2.49157 0
M  V30 19553 H 1833.35 4.46543 -1.40416 0
M  V30 19554 H 1833.53 6.1011 -2.18334 0
M  V30 19555 N 1826.93 0.320385 1.54309 0
M  V30 19556 C 1828.16 -0.28794 2.05391 0
M  V30 19557 C 1828.58 -1.45249 1.19517 0
M  V30 19558 O 1827.94 -1.80154 0.203556 0
M  V30 19559 C 1827.99 -0.703261 3.53676 0
M  V30 19560 O 1827.09 -1.80598 3.70753 0
M  V30 19561 H 1826.43 -0.052589 0.661914 0
M  V30 19562 H 1828.96 0.46787 1.99179 0
M  V30 19563 H 1828.97 -0.986793 3.95887 0
M  V30 19564 H 1827.65 0.148514 4.15635 0
M  V30 19565 H 1826.22 -1.5215 3.40448 0
M  V30 19566 N 1828.41 -1.57525 0.0484906 0
M  V30 19567 C 1829.83 -1.56599 -0.308041 0
M  V30 19568 C 1830.03 -1.05591 -1.71618 0
M  V30 19569 O 1829.08 -0.711302 -2.42274 0
M  V30 19570 C 1830.39 -3.00379 -0.138955 0
M  V30 19571 C 1831.94 -3.12293 -0.210262 0
M  V30 19572 C 1832.42 -4.57947 -0.0697369 0
M  V30 19573 N 1833.91 -4.63028 -0.1261 0
M  V30 19574 C 1834.64 -5.73385 -0.0414392 0
M  V30 19575 N 1834.14 -6.92734 0.0954164 0
M  V30 19576 N 1835.93 -5.62017 -0.0968281 0
M  V30 19577 H 1828.08 -1.89005 0.969069 0
M  V30 19578 H 1830.35 -0.87027 0.375944 0
M  V30 19579 H 1830.05 -3.41722 0.831808 0
M  V30 19580 H 1829.93 -3.66278 -0.901109 0
M  V30 19581 H 1832.31 -2.7085 -1.1715 0
M  V30 19582 H 1832.39 -2.49077 0.582601 0
M  V30 19583 H 1832.04 -5.00074 0.888161 0
M  V30 19584 H 1831.97 -5.19166 -0.881711 0
M  V30 19585 H 1834.46 -3.77192 -0.231232 0
M  V30 19586 H 1834.77 -7.72649 0.152796 0
M  V30 19587 H 1833.12 -6.94878 0.130465 0
M  V30 19588 H 1836.31 -4.67663 -0.202283 0
M  V30 19589 H 1836.48 -6.47994 -0.0273908 0
M  V30 19590 N 1829.89 0.224867 -1.55988 0
M  V30 19591 C 1831.3 0.574415 -1.48905 0
M  V30 19592 C 1831.5 1.87303 -0.74296 0
M  V30 19593 O 1830.56 2.50929 -0.28127 0
M  V30 19594 C 1831.87 0.656717 -2.93441 0
M  V30 19595 C 1833.42 0.747568 -3.03941 0
M  V30 19596 C 1833.9 0.861243 -4.4983 0
M  V30 19597 N 1835.39 0.92555 -4.53859 0
M  V30 19598 C 1836.12 1.03316 -5.64015 0
M  V30 19599 N 1835.62 1.10492 -6.83932 0
M  V30 19600 N 1837.41 1.06804 -5.5186 0
M  V30 19601 H 1829.56 -0.627339 -2.02924 0
M  V30 19602 H 1831.82 -0.219656 -0.922201 0
M  V30 19603 H 1831.53 -0.227845 -3.50961 0
M  V30 19604 H 1831.4 1.52142 -3.45156 0
M  V30 19605 H 1833.79 1.62257 -2.46489 0
M  V30 19606 H 1833.87 -0.142737 -2.55401 0
M  V30 19607 H 1833.52 -0.00929123 -5.07899 0
M  V30 19608 H 1833.45 1.76692 -4.96072 0
M  V30 19609 H 1835.94 0.880541 -3.67498 0
M  V30 19610 H 1836.25 1.18672 -7.63634 0
M  V30 19611 H 1834.6 1.07411 -6.8665 0
M  V30 19612 H 1837.79 1.0086 -4.57105 0
M  V30 19613 H 1837.96 1.14845 -6.37742 0
M  V30 19614 N 1831.37 1.49742 0.491438 0
M  V30 19615 C 1832.78 1.52802 1.07278 0
M  V30 19616 C 1833.13 0.319712 1.93578 0
M  V30 19617 O 1832.25 -0.569524 2.08771 0
M  V30 19618 C 1832.85 2.76896 1.95228 0
M  V30 19619 C 1831.41 2.82703 2.48508 0
M  V30 19620 C 1830.55 2.4684 1.26355 0
M  V30 19621 H 1833.5 1.56301 0.274925 0
M  V30 19622 H 1833.53 2.57599 2.80041 0
M  V30 19623 H 1833.04 3.64821 1.32391 0
M  V30 19624 H 1831.14 1.99081 3.14956 0
M  V30 19625 H 1831.25 3.85108 2.85006 0
M  V30 19626 H 1829.62 1.98828 1.59184 0
M  V30 19627 H 1830.4 3.3705 0.652109 0
M  V30 19628 N 1832.84 -0.743177 1.38977 0
M  V30 19629 C 1834.26 -1.04764 1.20402 0
M  V30 19630 C 1834.46 -2.01411 0.0599139 0
M  V30 19631 O 1833.52 -2.45485 -0.591026 0
M  V30 19632 C 1834.83 -1.61775 2.53474 0
M  V30 19633 C 1836.38 -1.73896 2.60248 0
M  V30 19634 C 1836.85 -2.34318 3.93522 0
M  V30 19635 N 1838.34 -2.41737 3.95117 0
M  V30 19636 C 1839.08 -2.89407 4.95006 0
M  V30 19637 N 1838.57 -3.37034 6.05293 0
M  V30 19638 N 1840.37 -2.88542 4.8239 0
M  V30 19639 H 1832.52 -0.102036 2.12155 0
M  V30 19640 H 1834.78 -0.107893 0.94184 0
M  V30 19641 H 1834.49 -0.982274 3.37704 0
M  V30 19642 H 1834.36 -2.60696 2.72612 0
M  V30 19643 H 1836.75 -2.36568 1.76407 0
M  V30 19644 H 1836.83 -0.736509 2.44968 0
M  V30 19645 H 1836.47 -1.72276 4.7779 0
M  V30 19646 H 1836.4 -3.35224 4.06119 0
M  V30 19647 H 1838.89 -2.08064 3.15464 0
M  V30 19648 H 1839.21 -3.71895 6.77432 0
M  V30 19649 H 1837.55 -3.35064 6.08898 0
M  V30 19650 H 1840.74 -2.50651 3.95337 0
M  V30 19651 H 1840.92 -3.25379 5.60386 0
M  V30 19652 N 1834.32 -1.24018 -0.972487 0
M  V30 19653 C 1835.25 -1.0529 -2.08414 0
M  V30 19654 C 1836.23 0.0326663 -1.70069 0
M  V30 19655 O 1837.42 -0.133494 -1.93741 0
M  V30 19656 C 1834.55 -0.651796 -3.41129 0
M  V30 19657 C 1833.5 -1.68559 -3.9341 0
M  V30 19658 C 1832.83 -1.1397 -5.22413 0
M  V30 19659 C 1834.13 -3.08046 -4.21788 0
M  V30 19660 H 1835.82 -1.98272 -2.2434 0
M  V30 19661 H 1833.37 -0.954694 -1.07804 0
M  V30 19662 H 1835.32 -0.507792 -4.18329 0
M  V30 19663 H 1834.05 0.313722 -3.2509 0
M  V30 19664 H 1832.7 -1.81773 -3.18362 0
M  V30 19665 H 1832.35 -0.164928 -5.0273 0
M  V30 19666 H 1832.05 -1.83051 -5.5836 0
M  V30 19667 H 1833.58 -1.00771 -6.02227 0
M  V30 19668 H 1834.99 -2.98088 -4.8971 0
M  V30 19669 H 1833.39 -3.74436 -4.68954 0
M  V30 19670 H 1834.46 -3.56444 -3.28749 0
M  V30 19671 N 1835.8 1.17245 -1.05316 0
M  V30 19672 C 1836.71 2.24948 -0.666011 0
M  V30 19673 C 1837.73 1.71153 0.313478 0
M  V30 19674 O 1838.9 2.00721 0.165262 0
M  V30 19675 C 1835.97 3.46667 -0.0480198 0
M  V30 19676 C 1835.03 4.15542 -1.07812 0
M  V30 19677 C 1834.26 5.3145 -0.48952 0
M  V30 19678 O 1834.48 5.6608 0.700668 0
M  V30 19679 O 1833.42 5.89315 -1.22439 0
M  V30 19680 H 1837.24 2.60353 -1.56365 0
M  V30 19681 H 1834.83 1.24569 -0.8248 0
M  V30 19682 H 1836.71 4.20364 0.295366 0
M  V30 19683 H 1835.39 3.13056 0.823248 0
M  V30 19684 H 1834.29 3.43858 -1.47351 0
M  V30 19685 H 1835.63 4.53183 -1.92057 0
M  V30 19686 N 1837.28 0.834353 1.33702 0
M  V30 19687 C 1838.51 0.441228 2.02141 0
M  V30 19688 C 1838.92 -0.956226 1.62794 0
M  V30 19689 O 1838.28 -1.6207 0.839027 0
M  V30 19690 C 1838.33 0.547035 3.57337 0
M  V30 19691 O 1838.05 1.88942 3.95262 0
M  V30 19692 C 1839.55 0.150282 4.43045 0
M  V30 19693 H 1836.77 0.175681 0.647593 0
M  V30 19694 H 1839.32 1.12568 1.7073 0
M  V30 19695 H 1837.47 -0.0894532 3.87297 0
M  V30 19696 H 1837.88 1.87174 4.89965 0
M  V30 19697 H 1839.36 0.275374 5.51313 0
M  V30 19698 H 1839.84 -0.907361 4.29725 0
M  V30 19699 H 1840.44 0.761025 4.18436 0
M  V30 19700 N 1838.76 -1.46125 0.590367 0
M  V30 19701 C 1840.01 -2.01555 0.0765543 0
M  V30 19702 C 1840.32 -1.46661 -1.29422 0
M  V30 19703 O 1841.52 -1.93958 -1.8998 0
M  V30 19704 C 1839.98 -3.59797 0.0862369 0
M  V30 19705 C 1839.59 -4.23687 1.4558 0
M  V30 19706 C 1841.33 -4.22856 -0.373232 0
M  V30 19707 C 1839.24 -5.7403 1.42279 0
M  V30 19708 H 1838.17 -0.75359 0.0248501 0
M  V30 19709 H 1840.82 -1.67778 0.743149 0
M  V30 19710 H 1839.2 -3.90684 -0.646675 0
M  V30 19711 H 1840.38 -4.04398 2.20905 0
M  V30 19712 H 1838.69 -3.72753 1.85592 0
M  V30 19713 H 1841.29 -5.33073 -0.416837 0
M  V30 19714 H 1841.63 -3.92325 -1.39237 0
M  V30 19715 H 1842.16 -3.96622 0.305859 0
M  V30 19716 H 1838.9 -6.09234 2.41898 0
M  V30 19717 H 1838.42 -5.95561 0.711862 0
M  V30 19718 H 1840.1 -6.36896 1.13899 0
M  V30 19719 N 1840.23 -0.328564 -1.54137 0
M  V30 19720 C 1841.16 0.527734 -2.27458 0
M  V30 19721 C 1842.15 1.11518 -1.28444 0
M  V30 19722 O 1843.33 1.13938 -1.57264 0
M  V30 19723 C 1840.46 1.68628 -3.03615 0
M  V30 19724 C 1839.41 1.22789 -4.10008 0
M  V30 19725 C 1838.74 2.47378 -4.74034 0
M  V30 19726 C 1840.04 0.339152 -5.21198 0
M  V30 19727 H 1841.73 -0.0838808 -2.99282 0
M  V30 19728 H 1839.28 -0.0417829 -1.43939 0
M  V30 19729 H 1841.23 2.29165 -3.5364 0
M  V30 19730 H 1839.96 2.32456 -2.29416 0
M  V30 19731 H 1838.62 0.645427 -3.60874 0
M  V30 19732 H 1838.26 3.09581 -3.96445 0
M  V30 19733 H 1837.96 2.17396 -5.45905 0
M  V30 19734 H 1839.49 3.08668 -5.26836 0
M  V30 19735 H 1840.9 0.850947 -5.6695 0
M  V30 19736 H 1839.3 0.131892 -5.99955 0
M  V30 19737 H 1840.37 -0.628692 -4.80807 0
M  V30 19738 N 1841.71 1.57497 -0.0568439 0
M  V30 19739 C 1842.68 2.10755 0.900823 0
M  V30 19740 C 1843.68 1.02835 1.23619 0
M  V30 19741 O 1844.87 1.28885 1.17194 0
M  V30 19742 C 1842 2.5965 2.20895 0
M  V30 19743 H 1843.19 2.96669 0.439041 0
M  V30 19744 H 1840.74 1.55121 0.191646 0
M  V30 19745 H 1841.48 1.77147 2.71642 0
M  V30 19746 H 1841.26 3.3852 1.97855 0
M  V30 19747 H 1842.75 3.00982 2.89482 0
M  V30 19748 N 1843.19 -0.216591 1.56105 0
M  V30 19749 C 1844.12 -1.27155 1.95841 0
M  V30 19750 C 1845.1 -1.48626 0.827313 0
M  V30 19751 O 1846.29 -1.60725 1.09 0
M  V30 19752 C 1843.42 -2.62032 2.27939 0
M  V30 19753 C 1842.37 -2.55211 3.43586 0
M  V30 19754 C 1841.7 -3.94163 3.61303 0
M  V30 19755 C 1843 -2.09566 4.78413 0
M  V30 19756 H 1844.69 -0.941435 2.84214 0
M  V30 19757 H 1842.24 -0.451427 1.36741 0
M  V30 19758 H 1844.19 -3.35997 2.5433 0
M  V30 19759 H 1842.91 -2.96742 1.36426 0
M  V30 19760 H 1841.57 -1.83703 3.17252 0
M  V30 19761 H 1841.22 -4.26188 2.67156 0
M  V30 19762 H 1840.92 -3.90479 4.3909 0
M  V30 19763 H 1842.44 -4.69782 3.90047 0
M  V30 19764 H 1843.86 -2.73277 5.03977 0
M  V30 19765 H 1842.26 -2.16931 5.59518 0
M  V30 19766 H 1843.33 -1.0481 4.73437 0
M  V30 19767 N 1844.67 -1.5 -0.48349 0
M  V30 19768 C 1845.6 -1.70879 -1.5913 0
M  V30 19769 C 1846.58 -0.557606 -1.60701 0
M  V30 19770 O 1847.76 -0.79539 -1.77164 0
M  V30 19771 C 1844.89 -1.7915 -2.97527 0
M  V30 19772 C 1843.85 -2.94233 -3.10823 0
M  V30 19773 C 1843.17 -2.87634 -4.50745 0
M  V30 19774 C 1844.47 -4.34925 -2.89202 0
M  V30 19775 H 1846.17 -2.63632 -1.41911 0
M  V30 19776 H 1843.71 -1.26865 -0.68127 0
M  V30 19777 H 1845.67 -1.92342 -3.74943 0
M  V30 19778 H 1844.39 -0.830106 -3.15875 0
M  V30 19779 H 1843.05 -2.80672 -2.35837 0
M  V30 19780 H 1842.7 -1.89365 -4.65993 0
M  V30 19781 H 1842.4 -3.64885 -4.60579 0
M  V30 19782 H 1843.92 -3.02857 -5.30198 0
M  V30 19783 H 1845.34 -4.49076 -3.56376 0
M  V30 19784 H 1843.73 -5.13531 -3.10492 0
M  V30 19785 H 1844.8 -4.48154 -1.85165 0
M  V30 19786 N 1846.15 0.735796 -1.39369 0
M  V30 19787 C 1847.39 1.49756 -1.36752 0
M  V30 19788 C 1847.73 1.94165 0.036815 0
M  V30 19789 O 1847 1.66728 1.00159 0
M  V30 19790 C 1847.28 2.73779 -2.33916 0
M  V30 19791 C 1847.14 2.35394 -3.83288 0
M  V30 19792 C 1848.46 3.75875 -2.28924 0
M  V30 19793 H 1845.57 0.543236 -0.49806 0
M  V30 19794 H 1848.22 0.841381 -1.70355 0
M  V30 19795 H 1846.37 3.29768 -2.05391 0
M  V30 19796 H 1848.04 1.85043 -4.2256 0
M  V30 19797 H 1846.28 1.67632 -4.00102 0
M  V30 19798 H 1846.95 3.24206 -4.4676 0
M  V30 19799 H 1849.43 3.29469 -2.54144 0
M  V30 19800 H 1848.3 4.60321 -2.98991 0
M  V30 19801 H 1848.57 4.22739 -1.29399 0
M  V30 19802 N 1847.63 1.24532 0.965897 0
M  V30 19803 C 1848.59 1.04026 2.04233 0
M  V30 19804 C 1849.59 -0.00305855 1.608 0
M  V30 19805 O 1850.78 0.238077 1.72565 0
M  V30 19806 C 1847.91 0.577072 3.3598 0
M  V30 19807 H 1849.1 1.99569 2.23858 0
M  V30 19808 H 1846.66 1.0678 1.14139 0
M  V30 19809 H 1847.39 -0.381471 3.22049 0
M  V30 19810 H 1847.18 1.33012 3.6885 0
M  V30 19811 H 1848.67 0.45469 4.15117 0
M  V30 19812 N 1849.1 -1.16685 1.05936 0
M  V30 19813 C 1850.03 -2.23129 0.688153 0
M  V30 19814 C 1851.01 -1.67108 -0.31765 0
M  V30 19815 O 1852.2 -1.93233 -0.193578 0
M  V30 19816 C 1849.33 -3.47229 0.069991 0
M  V30 19817 C 1848.28 -4.16121 1.00137 0
M  V30 19818 C 1847.61 -5.34131 0.246699 0
M  V30 19819 C 1848.91 -4.67508 2.32882 0
M  V30 19820 H 1850.6 -2.54436 1.57806 0
M  V30 19821 H 1848.15 -1.22298 0.76021 0
M  V30 19822 H 1850.1 -4.20918 -0.201545 0
M  V30 19823 H 1848.83 -3.15212 -0.854909 0
M  V30 19824 H 1847.49 -3.44355 1.25759 0
M  V30 19825 H 1847.13 -4.98366 -0.681204 0
M  V30 19826 H 1846.83 -5.81163 0.867373 0
M  V30 19827 H 1848.36 -6.10598 -0.0173762 0
M  V30 19828 H 1849.77 -5.32795 2.11666 0
M  V30 19829 H 1848.17 -5.25147 2.90414 0
M  V30 19830 H 1849.24 -3.83912 2.96209 0
M  V30 19831 N 1850.58 -0.841432 -1.33258 0
M  V30 19832 C 1851.51 -0.233859 -2.28004 0
M  V30 19833 C 1852.53 0.586872 -1.51854 0
M  V30 19834 O 1853.72 0.413523 -1.73644 0
M  V30 19835 C 1850.82 0.68919 -3.31818 0
M  V30 19836 C 1849.99 -0.0927681 -4.37302 0
M  V30 19837 C 1849.05 0.754015 -5.2077 0
M  V30 19838 O 1848.07 0.192293 -5.68875 0
M  V30 19839 N 1849.28 2.07095 -5.42302 0
M  V30 19840 H 1852.04 -1.04794 -2.80782 0
M  V30 19841 H 1849.6 -0.70014 -1.45978 0
M  V30 19842 H 1851.59 1.26071 -3.84562 0
M  V30 19843 H 1850.16 1.40397 -2.79298 0
M  V30 19844 H 1849.38 -0.845677 -3.85022 0
M  V30 19845 H 1850.67 -0.63036 -5.0488 0
M  V30 19846 H 1850.07 2.55082 -5.04925 0
M  V30 19847 H 1848.63 2.5909 -5.98093 0
M  V30 19848 N 1852.06 1.4581 -0.598108 0
M  V30 19849 C 1853.48 1.57452 -0.260993 0
M  V30 19850 C 1853.68 1.59093 1.2366 0
M  V30 19851 O 1852.73 1.51614 2.01915 0
M  V30 19852 C 1854.04 2.86158 -0.923801 0
M  V30 19853 C 1855.59 2.99817 -0.89883 0
M  V30 19854 C 1856.07 4.3128 -1.54147 0
M  V30 19855 N 1857.56 4.38016 -1.50652 0
M  V30 19856 C 1858.29 5.38387 -1.973 0
M  V30 19857 N 1857.79 6.45347 -2.51991 0
M  V30 19858 N 1859.58 5.29684 -1.88124 0
M  V30 19859 H 1851.73 1.42988 -1.57061 0
M  V30 19860 H 1854 0.683038 -0.657391 0
M  V30 19861 H 1853.7 2.90812 -1.97791 0
M  V30 19862 H 1853.58 3.74609 -0.441318 0
M  V30 19863 H 1855.96 2.94735 0.146702 0
M  V30 19864 H 1856.04 2.12801 -1.41949 0
M  V30 19865 H 1855.69 4.3712 -2.58628 0
M  V30 19866 H 1855.62 5.17097 -0.995911 0
M  V30 19867 H 1858.11 3.61326 -1.1069 0
M  V30 19868 H 1858.42 7.18168 -2.85403 0
M  V30 19869 H 1856.77 6.46124 -2.56025 0
M  V30 19870 H 1859.96 4.45029 -1.45144 0
M  V30 19871 H 1860.13 6.0776 -2.24793 0
M  V30 19872 N 1853.54 0.336733 1.53961 0
M  V30 19873 C 1854.47 -0.515664 2.27735 0
M  V30 19874 C 1855.45 -1.10835 1.29033 0
M  V30 19875 O 1856.63 -1.13102 1.57866 0
M  V30 19876 C 1853.76 -1.67015 3.04505 0
M  V30 19877 C 1852.72 -1.20613 4.10654 0
M  V30 19878 C 1852.04 -2.44861 4.75339 0
M  V30 19879 C 1853.34 -0.311507 5.2137 0
M  V30 19880 H 1855.04 0.0997513 2.99234 0
M  V30 19881 H 1852.58 0.0494157 1.43915 0
M  V30 19882 H 1854.54 -2.27286 3.54851 0
M  V30 19883 H 1853.26 -2.31236 2.30646 0
M  V30 19884 H 1851.92 -0.62628 3.61211 0
M  V30 19885 H 1851.57 -3.07474 3.98081 0
M  V30 19886 H 1851.27 -2.14498 5.47051 0
M  V30 19887 H 1852.79 -3.0587 5.28466 0
M  V30 19888 H 1854.21 -0.820868 5.67393 0
M  V30 19889 H 1852.6 -0.100073 6.00017 0
M  V30 19890 H 1853.67 0.654181 4.80467 0
M  V30 19891 N 1855.02 -1.57465 0.0651956 0
M  V30 19892 C 1856.43 -1.80728 -0.468449 0
M  V30 19893 C 1856.78 -0.978581 -1.70054 0
M  V30 19894 O 1855.9 -0.199186 -2.15481 0
M  V30 19895 C 1856.5 -3.27791 -0.856641 0
M  V30 19896 C 1855.06 -3.51923 -1.33519 0
M  V30 19897 C 1854.2 -2.7548 -0.317147 0
M  V30 19898 H 1857.15 -1.5601 0.290955 0
M  V30 19899 H 1857.18 -3.39479 -1.71855 0
M  V30 19900 H 1856.69 -3.88079 0.0402823 0
M  V30 19901 H 1854.79 -2.96932 -2.25083 0
M  V30 19902 H 1854.9 -4.60624 -1.31767 0
M  V30 19903 H 1853.27 -2.4204 -0.793026 0
M  V30 19904 H 1854.05 -3.38502 0.571935 0
M  V30 19905 N 1856.49 0.20831 -1.56217 0
M  V30 19906 C 1857.74 0.932104 -1.8011 0
M  V30 19907 C 1858.07 1.83453 -0.637061 0
M  V30 19908 O 1857.35 1.91081 0.363066 0
M  V30 19909 C 1857.63 1.7597 -3.14176 0
M  V30 19910 C 1857.48 0.882874 -4.4105 0
M  V30 19911 C 1858.8 2.7349 -3.44806 0
M  V30 19912 H 1855.92 0.337428 -0.655218 0
M  V30 19913 H 1858.56 0.2002 -1.88942 0
M  V30 19914 H 1856.71 2.38369 -3.06778 0
M  V30 19915 H 1858.39 0.274607 -4.60482 0
M  V30 19916 H 1856.63 0.188921 -4.33388 0
M  V30 19917 H 1857.3 1.49662 -5.31324 0
M  V30 19918 H 1859.78 2.21225 -3.52418 0
M  V30 19919 H 1858.65 3.28489 -4.39757 0
M  V30 19920 H 1858.91 3.51887 -2.67635 0
M  V30 19921 N 1857.97 1.50255 0.475528 0
M  V30 19922 C 1859.39 1.37582 0.808907 0
M  V30 19923 C 1859.59 0.428494 1.96891 0
M  V30 19924 O 1858.64 -0.130513 2.52162 0
M  V30 19925 C 1859.96 2.78856 1.12515 0
M  V30 19926 C 1861.5 2.8774 1.23186 0
M  V30 19927 C 1861.98 4.29838 1.58126 0
M  V30 19928 N 1863.47 4.32767 1.65126 0
M  V30 19929 C 1864.21 5.39708 1.93656 0
M  V30 19930 N 1863.7 6.56862 2.20237 0
M  V30 19931 N 1865.49 5.27147 1.95121 0
M  V30 19932 H 1857.65 2.10425 -0.28901 0
M  V30 19933 H 1859.91 0.945646 -0.0667713 0
M  V30 19934 H 1859.61 3.49995 0.345892 0
M  V30 19935 H 1859.49 3.15822 2.06244 0
M  V30 19936 H 1861.88 2.16823 2.0018 0
M  V30 19937 H 1861.96 2.54323 0.274475 0
M  V30 19938 H 1861.6 5.0129 0.816737 0
M  V30 19939 H 1861.53 4.60737 2.55007 0
M  V30 19940 H 1864.02 3.48288 1.46642 0
M  V30 19941 H 1864.33 7.34173 2.41268 0
M  V30 19942 H 1862.68 6.60044 2.17639 0
M  V30 19943 H 1865.87 4.3462 1.73849 0
M  V30 19944 H 1866.04 6.10578 2.17021 0
M  V30 19945 N 1859.45 -0.728395 1.39758 0
M  V30 19946 C 1860.38 -1.85554 1.41747 0
M  V30 19947 C 1861.36 -1.6778 0.279972 0
M  V30 19948 O 1862.55 -1.88001 0.48675 0
M  V30 19949 C 1859.68 -3.23375 1.26671 0
M  V30 19950 C 1858.63 -3.55799 2.37889 0
M  V30 19951 C 1857.96 -4.92628 2.07899 0
M  V30 19952 C 1859.26 -3.58098 3.80215 0
M  V30 19953 H 1860.95 -1.84146 2.36073 0
M  V30 19954 H 1858.5 -0.884539 1.13631 0
M  V30 19955 H 1860.45 -4.01907 1.26682 0
M  V30 19956 H 1859.17 -3.25326 0.288159 0
M  V30 19957 H 1857.83 -2.796 2.37107 0
M  V30 19958 H 1857.48 -4.91166 1.08466 0
M  V30 19959 H 1857.18 -5.15288 2.82404 0
M  V30 19960 H 1858.7 -5.73509 2.09571 0
M  V30 19961 H 1860.12 -4.26694 3.82891 0
M  V30 19962 H 1858.51 -3.9228 4.54133 0
M  V30 19963 H 1859.58 -2.57758 4.10718 0
M  V30 19964 N 1860.93 -1.25042 -0.959279 0
M  V30 19965 C 1862.34 -1.08692 -1.51799 0
M  V30 19966 C 1862.69 0.338893 -1.93251 0
M  V30 19967 O 1861.81 1.22831 -1.78162 0
M  V30 19968 C 1862.41 -1.9669 -2.7586 0
M  V30 19969 C 1860.97 -1.84538 -3.28059 0
M  V30 19970 C 1860.12 -1.91119 -2.0092 0
M  V30 19971 H 1863.07 -1.38396 -0.776669 0
M  V30 19972 H 1863.09 -1.50414 -3.49508 0
M  V30 19973 H 1862.6 -3.00455 -2.45659 0
M  V30 19974 H 1860.7 -0.836383 -3.63091 0
M  V30 19975 H 1860.81 -2.69095 -3.96389 0
M  V30 19976 H 1859.18 -1.34948 -2.16012 0
M  V30 19977 H 1859.96 -2.9648 -1.73074 0
M  V30 19978 N 1862.41 1.16121 -1.06553 0
M  V30 19979 C 1863.32 2.24229 -0.689833 0
M  V30 19980 C 1864.33 1.71476 0.295308 0
M  V30 19981 O 1865.51 2.00885 0.143964 0
M  V30 19982 C 1862.57 3.46596 -0.0847857 0
M  V30 19983 C 1861.63 4.14375 -1.12213 0
M  V30 19984 C 1860.87 5.30901 -0.54586 0
M  V30 19985 O 1861.09 5.66792 0.640588 0
M  V30 19986 O 1860.02 5.87983 -1.28683 0
M  V30 19987 H 1863.85 2.5868 -1.59117 0
M  V30 19988 H 1861.44 1.23687 -0.837966 0
M  V30 19989 H 1863.32 4.20653 0.250764 0
M  V30 19990 H 1861.99 3.13912 0.789998 0
M  V30 19991 H 1860.9 3.42276 -1.5099 0
M  V30 19992 H 1862.23 4.5112 -1.96853 0
M  V30 19993 N 1863.88 0.848487 1.3281 0
M  V30 19994 C 1865.13 0.44797 1.97073 0
M  V30 19995 C 1865.45 -0.998358 1.67505 0
M  V30 19996 O 1864.72 -1.69683 0.97901 0
M  V30 19997 H 1863.3 0.162663 0.729075 0
M  V30 19998 H 1865.97 1.08356 1.62003 0
M  V30 19999 H 1865.06 0.587939 3.06512 0
M  V30 20000 N 1865.36 -1.4549 0.605832 0
M  V30 20001 C 1866.27 -2.34313 -0.115915 0
M  V30 20002 C 1867.29 -1.51136 -0.862199 0
M  V30 20003 O 1868.46 -1.83943 -0.820181 0
M  V30 20004 C 1865.53 -3.28724 -1.10188 0
M  V30 20005 C 1864.59 -4.27807 -0.357749 0
M  V30 20006 C 1863.82 -5.17707 -1.29675 0
M  V30 20007 O 1864.05 -5.10999 -2.53448 0
M  V30 20008 O 1862.98 -5.9663 -0.794767 0
M  V30 20009 H 1866.81 -2.97429 0.613981 0
M  V30 20010 H 1864.39 -1.44845 0.366103 0
M  V30 20011 H 1866.27 -3.86905 -1.6698 0
M  V30 20012 H 1864.95 -2.68175 -1.81284 0
M  V30 20013 H 1863.86 -3.73246 0.252588 0
M  V30 20014 H 1865.19 -4.91206 0.312682 0
M  V30 20015 N 1866.84 -0.344893 -1.5378 0
M  V30 20016 C 1867.8 0.498781 -2.23707 0
M  V30 20017 C 1868.8 1.02649 -1.23773 0
M  V30 20018 O 1869.99 0.915526 -1.48202 0
M  V30 20019 C 1867.13 1.69497 -2.95776 0
M  V30 20020 H 1868.32 -0.112815 -2.99688 0
M  V30 20021 H 1865.87 -0.0962613 -1.56003 0
M  V30 20022 H 1866.61 2.34522 -2.23986 0
M  V30 20023 H 1866.39 1.32376 -3.69079 0
M  V30 20024 H 1867.88 2.29334 -3.48992 0
M  V30 20025 N 1868.32 1.57428 -0.0735454 0
M  V30 20026 C 1869.25 2.15849 0.890584 0
M  V30 20027 C 1870.23 1.086 1.3092 0
M  V30 20028 O 1871.41 1.36643 1.37994 0
M  V30 20029 C 1868.54 2.72153 2.15755 0
M  V30 20030 C 1867.5 3.84584 1.87827 0
M  V30 20031 C 1866.82 4.27498 3.21169 0
M  V30 20032 C 1868.12 5.08746 1.18217 0
M  V30 20033 H 1869.82 2.96663 0.403904 0
M  V30 20034 H 1867.36 1.42703 0.192836 0
M  V30 20035 H 1869.32 3.11668 2.83621 0
M  V30 20036 H 1868.04 1.88562 2.66668 0
M  V30 20037 H 1866.7 3.45575 1.22366 0
M  V30 20038 H 1866.35 3.40827 3.69927 0
M  V30 20039 H 1866.05 5.03288 3.03273 0
M  V30 20040 H 1867.57 4.69631 3.9023 0
M  V30 20041 H 1868.99 5.45566 1.76155 0
M  V30 20042 H 1867.38 5.89825 1.10573 0
M  V30 20043 H 1868.45 4.84631 0.161525 0
M  V30 20044 N 1869.8 -0.200022 1.56326 0
M  V30 20045 C 1870.73 -1.27187 1.90673 0
M  V30 20046 C 1871.74 -1.41961 0.796933 0
M  V30 20047 O 1872.93 -1.42474 1.07533 0
M  V30 20048 C 1870.03 -2.64468 2.11919 0
M  V30 20049 C 1869.2 -2.71366 3.43044 0
M  V30 20050 C 1868.26 -3.89809 3.53462 0
M  V30 20051 O 1867.29 -3.77142 4.26325 0
M  V30 20052 N 1868.49 -5.05052 2.86187 0
M  V30 20053 H 1871.26 -0.980397 2.83211 0
M  V30 20054 H 1868.82 -0.389967 1.57133 0
M  V30 20055 H 1870.81 -3.42122 2.16182 0
M  V30 20056 H 1869.38 -2.86124 1.25904 0
M  V30 20057 H 1868.6 -1.80024 3.50692 0
M  V30 20058 H 1869.89 -2.72961 4.29383 0
M  V30 20059 H 1869.28 -5.18242 2.26808 0
M  V30 20060 H 1867.84 -5.8067 2.96083 0
M  V30 20061 N 1871.27 -1.50505 -0.467553 0
M  V30 20062 C 1872.51 -1.63311 -1.22918 0
M  V30 20063 C 1872.88 -0.327842 -1.8918 0
M  V30 20064 O 1874.08 -0.33137 -2.6675 0
M  V30 20065 C 1872.35 -2.78308 -2.24231 0
M  V30 20066 S 1873.91 -3.11268 -3.09286 0
M  V30 20067 H 1870.73 -0.575676 -0.417274 0
M  V30 20068 H 1873.33 -1.88302 -0.525612 0
M  V30 20069 H 1872.03 -3.71623 -1.74139 0
M  V30 20070 H 1871.56 -2.55413 -2.99212 0
M  V30 20071 H 1873.58 -2.55366 -4.25444 0
M  V30 20072 N 1872.75 0.720973 -1.40142 0
M  V30 20073 C 1873.68 1.84799 -1.42729 0
M  V30 20074 C 1874.66 1.67629 -0.288866 0
M  V30 20075 O 1875.85 1.8774 -0.496713 0
M  V30 20076 C 1872.98 3.22699 -1.28385 0
M  V30 20077 C 1871.93 3.54532 -2.39773 0
M  V30 20078 C 1871.26 4.91518 -2.10509 0
M  V30 20079 C 1872.56 3.56077 -3.82108 0
M  V30 20080 H 1874.25 1.82892 -2.37046 0
M  V30 20081 H 1871.8 0.8785 -1.14098 0
M  V30 20082 H 1873.75 4.0123 -1.28812 0
M  V30 20083 H 1872.48 3.25169 -0.305408 0
M  V30 20084 H 1871.13 2.78338 -2.38586 0
M  V30 20085 H 1870.78 4.90584 -1.11069 0
M  V30 20086 H 1870.48 5.13783 -2.85132 0
M  V30 20087 H 1872.01 5.72389 -2.1261 0
M  V30 20088 H 1873.42 4.24657 -3.85148 0
M  V30 20089 H 1871.82 3.89866 -4.56207 0
M  V30 20090 H 1872.89 2.55576 -4.12079 0
M  V30 20091 N 1874.23 1.25549 0.952634 0
M  V30 20092 C 1875.46 1.13162 1.73211 0
M  V30 20093 C 1875.87 -0.314383 1.86164 0
M  V30 20094 O 1875.23 -1.21608 1.3608 0
M  V30 20095 C 1875.28 1.78273 3.14485 0
M  V30 20096 O 1875 3.17221 3.02163 0
M  V30 20097 C 1876.5 1.71691 4.08702 0
M  V30 20098 H 1873.72 0.394613 0.542698 0
M  V30 20099 H 1876.27 1.65951 1.19502 0
M  V30 20100 H 1874.42 1.2945 3.65132 0
M  V30 20101 H 1874.84 3.49266 3.91297 0
M  V30 20102 H 1876.31 2.21906 5.05432 0
M  V30 20103 H 1876.79 0.681094 4.33887 0
M  V30 20104 H 1877.39 2.20012 3.63971 0
M  V30 20105 N 1875.71 -1.15554 1.07168 0
M  V30 20106 C 1876.62 -2.2386 0.701714 0
M  V30 20107 C 1877.63 -1.7163 -0.28621 0
M  V30 20108 O 1878.81 -2.00958 -0.133308 0
M  V30 20109 C 1875.88 -3.46546 0.103165 0
M  V30 20110 C 1874.94 -4.13774 1.14409 0
M  V30 20111 C 1874.17 -5.30604 0.574007 0
M  V30 20112 O 1874.39 -5.67123 -0.610521 0
M  V30 20113 O 1873.33 -5.87293 1.31799 0
M  V30 20114 H 1877.15 -2.57833 1.60487 0
M  V30 20115 H 1874.74 -1.23241 0.844514 0
M  V30 20116 H 1876.62 -4.2078 -0.228452 0
M  V30 20117 H 1875.29 -3.14327 -0.773339 0
M  V30 20118 H 1874.2 -3.4147 1.52803 0
M  V30 20119 H 1875.53 -4.5007 1.99243 0
M  V30 20120 N 1877.19 -0.855519 -1.32358 0
M  V30 20121 C 1878.6 -0.545491 -1.49989 0
M  V30 20122 C 1878.8 0.923656 -1.79083 0
M  V30 20123 O 1877.86 1.70664 -1.86091 0
M  V30 20124 C 1879.17 -1.43323 -2.64347 0
M  V30 20125 C 1880.72 -1.43374 -2.78232 0
M  V30 20126 C 1881.2 -2.30671 -3.9567 0
M  V30 20127 N 1882.69 -2.28471 -4.02933 0
M  V30 20128 C 1883.42 -2.92746 -4.93039 0
M  V30 20129 N 1882.92 -3.66136 -5.88147 0
M  V30 20130 N 1884.71 -2.82129 -4.86168 0
M  V30 20131 H 1876.86 -1.80633 -1.11738 0
M  V30 20132 H 1879.12 -0.771568 -0.550805 0
M  V30 20133 H 1878.83 -2.47797 -2.49578 0
M  V30 20134 H 1878.7 -1.12125 -3.6015 0
M  V30 20135 H 1881.09 -0.396641 -2.92422 0
M  V30 20136 H 1881.17 -1.78588 -1.83139 0
M  V30 20137 H 1880.82 -3.3445 -3.82238 0
M  V30 20138 H 1880.75 -1.92789 -4.90041 0
M  V30 20139 H 1883.24 -1.75115 -3.34878 0
M  V30 20140 H 1883.55 -4.12344 -6.536 0
M  V30 20141 H 1881.9 -3.70244 -5.88171 0
M  V30 20142 H 1885.09 -2.24344 -4.10837 0
M  V30 20143 H 1885.26 -3.32502 -5.56189 0
M  V30 20144 N 1878.67 1.45167 -0.61354 0
M  V30 20145 C 1879.63 2.29016 0.0919454 0
M  V30 20146 C 1880.63 1.40091 0.789373 0
M  V30 20147 O 1881.82 1.6215 0.636631 0
M  V30 20148 C 1878.95 3.21257 1.14048 0
M  V30 20149 H 1880.14 2.92875 -0.645317 0
M  V30 20150 H 1877.7 1.51788 -0.372855 0
M  V30 20151 H 1878.43 2.6221 1.90831 0
M  V30 20152 H 1878.22 3.86766 0.644523 0
M  V30 20153 H 1879.71 3.84288 1.63439 0
M  V30 20154 N 1880.14 0.353044 1.53595 0
M  V30 20155 C 1881.39 -0.2416 2.00248 0
M  V30 20156 C 1881.71 -1.5089 1.24465 0
M  V30 20157 O 1882.91 -2.18137 1.61643 0
M  V30 20158 C 1881.37 -0.481075 3.5667 0
M  V30 20159 C 1880.98 0.77087 4.41318 0
M  V30 20160 C 1882.72 -1.03406 4.11713 0
M  V30 20161 C 1880.63 0.501671 5.89268 0
M  V30 20162 H 1879.56 -0.0940573 0.74811 0
M  V30 20163 H 1882.21 0.469845 1.77383 0
M  V30 20164 H 1880.59 -1.25346 3.75639 0
M  V30 20165 H 1881.76 1.54509 4.34124 0
M  V30 20166 H 1880.08 1.24617 3.97315 0
M  V30 20167 H 1882.68 -1.25058 5.1987 0
M  V30 20168 H 1883.02 -1.99245 3.65523 0
M  V30 20169 H 1883.55 -0.322144 3.96493 0
M  V30 20170 H 1880.29 1.43005 6.39711 0
M  V30 20171 H 1879.81 -0.234284 5.99342 0
M  V30 20172 H 1881.49 0.122468 6.46884 0
M  V30 20173 N 1881.62 -1.57387 0.0818932 0
M  V30 20174 C 1882.87 -1.93486 -0.583744 0
M  V30 20175 C 1883.19 -0.963466 -1.69536 0
M  V30 20176 O 1882.46 -0.0132866 -1.95895 0
M  V30 20177 H 1881.04 -0.714292 -0.218622 0
M  V30 20178 H 1883.7 -1.94381 0.142124 0
M  V30 20179 H 1882.8 -2.9556 -1.00252 0
M  V30 20180 N 1883.1 0.191729 -1.56429 0
M  V30 20181 C 1884.35 0.908377 -1.81989 0
M  V30 20182 C 1884.7 1.80746 -0.659444 0
M  V30 20183 O 1883.99 1.88464 0.345209 0
M  V30 20184 C 1884.19 1.75708 -3.11226 0
M  V30 20185 C 1884.02 0.941655 -4.39731 0
M  V30 20186 C 1882.79 0.624755 -5.01423 0
M  V30 20187 C 1884.98 0.292774 -5.13466 0
M  V30 20188 N 1882.97 -0.208946 -6.13544 0
M  V30 20189 C 1884.34 -0.402979 -6.18689 0
M  V30 20190 C 1886.39 0.208846 -4.97462 0
M  V30 20191 C 1885.1 -1.17467 -7.09644 0
M  V30 20192 C 1887.12 -0.549459 -5.88842 0
M  V30 20193 C 1886.48 -1.23365 -6.93513 0
M  V30 20194 H 1882.58 0.311682 -0.717202 0
M  V30 20195 H 1885.17 0.17685 -1.93895 0
M  V30 20196 H 1883.34 2.46018 -3.00549 0
M  V30 20197 H 1885.07 2.41346 -3.2486 0
M  V30 20198 H 1881.82 0.949982 -4.63974 0
M  V30 20199 H 1882.25 -0.615506 -6.74196 0
M  V30 20200 H 1886.89 0.723459 -4.16564 0
M  V30 20201 H 1884.61 -1.7007 -7.90001 0
M  V30 20202 H 1888.19 -0.615799 -5.78532 0
M  V30 20203 H 1887.07 -1.81102 -7.63002 0
M  V30 20204 N 1884.58 1.50751 0.459565 0
M  V30 20205 C 1885.51 1.66621 1.57385 0
M  V30 20206 C 1886.52 0.547358 1.53323 0
M  V30 20207 O 1887.71 0.820941 1.58502 0
M  V30 20208 C 1884.81 1.64524 2.96285 0
M  V30 20209 C 1883.98 2.92631 3.25093 0
M  V30 20210 C 1883.04 2.83021 4.43605 0
M  V30 20211 O 1882.07 3.56977 4.43347 0
M  V30 20212 N 1883.27 1.97358 5.45921 0
M  V30 20213 H 1886.04 2.62738 1.44184 0
M  V30 20214 H 1883.6 1.48359 0.64817 0
M  V30 20215 H 1885.59 1.55693 3.73553 0
M  V30 20216 H 1884.16 0.760945 3.03197 0
M  V30 20217 H 1883.38 3.15502 2.36331 0
M  V30 20218 H 1884.67 3.77477 3.41157 0
M  V30 20219 H 1884.07 1.36608 5.48958 0
M  V30 20220 H 1882.62 1.94422 6.22128 0
M  V30 20221 N 1886.06 -0.713531 1.40522 0
M  V30 20222 C 1887.33 -1.46672 1.29409 0
M  V30 20223 C 1887.71 -2.10922 -0.0866293 0
M  V30 20224 O 1887.06 -2.00303 -1.09959 0
M  V30 20225 C 1887.27 -2.50076 2.4344 0
M  V30 20226 C 1888.62 -3.15848 2.8377 0
M  V30 20227 O 1889.64 -2.60396 2.43048 0
M  V30 20228 O 1888.5 -4.16238 3.5413 0
M  V30 20229 H 1885.6 -0.652333 0.508322 0
M  V30 20230 H 1888.14 -0.745531 1.52446 0
M  V30 20231 H 1886.91 -2.01129 3.35653 0
M  V30 20232 H 1886.54 -3.29728 2.22183 0
M  V30 20233 N 1887.53 -1.26053 -0.945962 0
M  V30 20234 C 1888.95 -1.03062 -1.21862 0
M  V30 20235 C 1889.15 0.247205 -1.99978 0
M  V30 20236 O 1888.21 0.957622 -2.33636 0
M  V30 20237 C 1889.52 -2.25912 -1.98455 0
M  V30 20238 C 1891.07 -2.30763 -2.11465 0
M  V30 20239 C 1891.54 -3.53292 -2.91459 0
M  V30 20240 N 1893.03 -3.53741 -2.99035 0
M  V30 20241 C 1893.77 -4.45215 -3.61347 0
M  V30 20242 N 1893.26 -5.46971 -4.25199 0
M  V30 20243 N 1895.06 -4.32877 -3.58572 0
M  V30 20244 H 1887.21 -2.08133 -0.423615 0
M  V30 20245 H 1889.47 -0.914462 -0.249926 0
M  V30 20246 H 1889.18 -3.18829 -1.48462 0
M  V30 20247 H 1889.05 -2.29777 -2.99136 0
M  V30 20248 H 1891.44 -1.38363 -2.60653 0
M  V30 20249 H 1891.52 -2.30911 -1.10062 0
M  V30 20250 H 1891.16 -4.46019 -2.4296 0
M  V30 20251 H 1891.09 -3.50391 -3.93108 0
M  V30 20252 H 1893.58 -2.80138 -2.53636 0
M  V30 20253 H 1893.9 -6.12967 -4.70629 0
M  V30 20254 H 1892.24 -5.50834 -4.238 0
M  V30 20255 H 1895.43 -3.52602 -3.07879 0
M  V30 20256 H 1895.61 -5.0436 -4.06847 0
M  V30 20257 N 1889.01 1.14984 -1.07779 0
M  V30 20258 C 1889.97 2.1806 -0.705879 0
M  V30 20259 C 1890.97 1.58748 0.256082 0
M  V30 20260 O 1892.16 1.74162 0.0364678 0
M  V30 20261 C 1889.3 3.40875 -0.0411253 0
M  V30 20262 H 1890.49 2.52476 -1.61852 0
M  V30 20263 H 1888.04 1.29522 -0.874863 0
M  V30 20264 H 1888.78 3.12032 0.883548 0
M  V30 20265 H 1888.56 3.85186 -0.73306 0
M  V30 20266 H 1890.05 4.171 0.204275 0
M  V30 20267 N 1890.49 0.862526 1.31902 0
M  V30 20268 C 1891.91 0.553438 1.49697 0
M  V30 20269 C 1892.11 -0.914146 1.79571 0
M  V30 20270 O 1891.16 -1.69675 1.86994 0
M  V30 20271 C 1892.47 1.44722 2.63583 0
M  V30 20272 C 1894.02 1.44848 2.77467 0
M  V30 20273 C 1894.5 2.32766 3.94441 0
M  V30 20274 N 1895.99 2.30605 4.01716 0
M  V30 20275 C 1896.72 2.95356 4.9148 0
M  V30 20276 N 1896.22 3.6925 5.86197 0
M  V30 20277 N 1898.01 2.84703 4.84665 0
M  V30 20278 H 1890.16 1.81223 1.10779 0
M  V30 20279 H 1892.43 0.774478 0.546706 0
M  V30 20280 H 1892.13 2.49117 2.48261 0
M  V30 20281 H 1892.01 1.14033 3.5955 0
M  V30 20282 H 1894.39 0.412143 2.92208 0
M  V30 20283 H 1894.47 1.79557 1.8219 0
M  V30 20284 H 1894.12 3.36472 3.80459 0
M  V30 20285 H 1894.05 1.95386 4.89011 0
M  V30 20286 H 1896.54 1.76889 3.33944 0
M  V30 20287 H 1896.85 4.15804 6.51404 0
M  V30 20288 H 1895.2 3.73358 5.86199 0
M  V30 20289 H 1898.39 2.2652 4.09642 0
M  V30 20290 H 1898.56 3.35447 5.54418 0
M  V30 20291 N 1891.97 -1.4484 0.62123 0
M  V30 20292 C 1892.92 -2.30626 -0.0895817 0
M  V30 20293 C 1893.89 -1.42906 -0.846593 0
M  V30 20294 O 1895.07 -1.7182 -0.829611 0
M  V30 20295 C 1892.21 -3.28032 -1.07188 0
M  V30 20296 C 1891.32 -4.30855 -0.314319 0
M  V30 20297 C 1890.46 -5.1536 -1.28755 0
M  V30 20298 C 1889.5 -6.09899 -0.518581 0
M  V30 20299 N 1888.63 -6.87137 -1.44178 0
M  V30 20300 H 1893.47 -2.90871 0.64793 0
M  V30 20301 H 1891.01 -1.4332 0.33131 0
M  V30 20302 H 1892.97 -3.82984 -1.65467 0
M  V30 20303 H 1891.6 -2.6951 -1.77664 0
M  V30 20304 H 1890.65 -3.78455 0.38422 0
M  V30 20305 H 1891.96 -4.97985 0.285042 0
M  V30 20306 H 1891.12 -5.7478 -1.94198 0
M  V30 20307 H 1889.86 -4.4828 -1.92084 0
M  V30 20308 H 1888.86 -5.49597 0.149399 0
M  V30 20309 H 1890.09 -6.79011 0.109851 0
M  V30 20310 H 1888.03 -6.22735 -2.06246 0
M  V30 20311 H 1887.95 -7.50669 -0.896192 0
M  V30 20312 H 1889.22 -7.51088 -2.08536 0
M  V30 20313 N 1893.45 -0.361184 -1.53405 0
M  V30 20314 C 1894.41 0.475026 -2.24223 0
M  V30 20315 C 1895.41 1.01331 -1.24855 0
M  V30 20316 O 1896.6 0.899756 -1.49164 0
M  V30 20317 C 1893.73 1.6635 -2.97557 0
M  V30 20318 H 1894.92 -0.144595 -2.99551 0
M  V30 20319 H 1892.48 -0.112802 -1.55892 0
M  V30 20320 H 1893.21 2.32133 -2.26461 0
M  V30 20321 H 1893 1.28454 -3.70462 0
M  V30 20322 H 1894.49 2.2562 -3.51405 0
M  V30 20323 N 1894.92 1.57341 -0.0902386 0
M  V30 20324 C 1895.85 2.16782 0.86764 0
M  V30 20325 C 1896.84 1.09982 1.29761 0
M  V30 20326 O 1898.02 1.38099 1.36537 0
M  V30 20327 C 1895.15 2.74426 2.12856 0
M  V30 20328 C 1894.1 3.86555 1.83738 0
M  V30 20329 C 1893.43 4.3088 3.16617 0
M  V30 20330 C 1894.73 5.09971 1.12814 0
M  V30 20331 H 1896.42 2.97075 0.372417 0
M  V30 20332 H 1893.97 1.42899 0.177689 0
M  V30 20333 H 1895.92 3.14659 2.80299 0
M  V30 20334 H 1894.65 1.9138 2.64653 0
M  V30 20335 H 1893.31 3.46853 1.18694 0
M  V30 20336 H 1892.95 3.44732 3.66291 0
M  V30 20337 H 1892.65 5.06477 2.97918 0
M  V30 20338 H 1894.18 4.73743 3.85227 0
M  V30 20339 H 1895.59 5.47404 1.70358 0
M  V30 20340 H 1893.99 5.90965 1.04311 0
M  V30 20341 H 1895.06 4.84775 0.110114 0
M  V30 20342 N 1896.4 -0.183431 1.56529 0
M  V30 20343 C 1897.37 -1.21097 1.94597 0
M  V30 20344 C 1898.37 -1.37825 0.828305 0
M  V30 20345 O 1899.56 -1.35438 1.09555 0
M  V30 20346 C 1896.69 -2.57826 2.23021 0
M  V30 20347 H 1897.88 -0.885275 2.86536 0
M  V30 20348 H 1895.43 -0.425412 1.50399 0
M  V30 20349 H 1896.17 -2.95431 1.33758 0
M  V30 20350 H 1895.95 -2.47054 3.04478 0
M  V30 20351 H 1897.44 -3.31902 2.53437 0
M  V30 20352 N 1897.88 -1.50992 -0.451564 0
M  V30 20353 C 1899.11 -1.67021 -1.22958 0
M  V30 20354 C 1899.53 -0.36115 -1.846 0
M  V30 20355 O 1898.89 0.677193 -1.68178 0
M  V30 20356 C 1898.94 -2.77744 -2.29979 0
M  V30 20357 O 1898.04 -2.40356 -3.35116 0
M  V30 20358 H 1897.38 -0.557369 -0.360882 0
M  V30 20359 H 1899.91 -1.97479 -0.535073 0
M  V30 20360 H 1899.92 -3.01406 -2.74988 0
M  V30 20361 H 1898.6 -3.72742 -1.84488 0
M  V30 20362 H 1897.17 -2.27214 -2.95683 0
M  V30 20363 N 1899.36 0.706069 -1.40899 0
M  V30 20364 C 1900.27 1.85007 -1.44255 0
M  V30 20365 C 1901.28 1.70761 -0.334174 0
M  V30 20366 O 1902.46 1.9286 -0.580258 0
M  V30 20367 C 1899.53 3.20896 -1.31251 0
M  V30 20368 C 1898.59 3.47327 -2.52314 0
M  V30 20369 C 1897.82 4.76732 -2.39922 0
M  V30 20370 O 1898.04 5.5249 -1.41813 0
M  V30 20371 O 1896.98 5.03713 -3.2948 0
M  V30 20372 H 1900.8 1.85132 -2.40748 0
M  V30 20373 H 1898.39 0.857751 -1.22323 0
M  V30 20374 H 1900.27 4.02045 -1.26244 0
M  V30 20375 H 1898.94 3.21477 -0.378684 0
M  V30 20376 H 1897.85 2.66149 -2.62899 0
M  V30 20377 H 1899.18 3.5155 -3.4449 0
M  V30 20378 N 1900.84 1.26553 0.939264 0
M  V30 20379 C 1902.11 1.02956 1.66312 0
M  V30 20380 C 1902.49 -0.439417 2.06476 0
M  V30 20381 O 1901.84 -1.42019 1.79005 0
M  V30 20382 C 1902.05 1.98013 2.87388 0
M  V30 20383 C 1903.4 2.26732 3.58996 0
M  V30 20384 O 1904.42 1.95894 2.97496 0
M  V30 20385 O 1903.28 2.79244 4.69771 0
M  V30 20386 H 1900.38 0.391621 0.728397 0
M  V30 20387 H 1902.92 1.37771 0.990824 0
M  V30 20388 H 1901.69 2.97133 2.54613 0
M  V30 20389 H 1901.32 1.63689 3.62342 0
M  V30 20390 N 1902.31 -1.14411 1.08387 0
M  V30 20391 C 1903.56 -1.85719 0.814638 0
M  V30 20392 C 1903.89 -1.82715 -0.657934 0
M  V30 20393 O 1903.17 -1.2577 -1.48365 0
M  V30 20394 C 1903.45 -3.34363 1.33691 0
M  V30 20395 C 1903.3 -3.4594 2.87481 0
M  V30 20396 C 1904.62 -4.29457 0.962006 0
M  V30 20397 H 1901.74 -0.674332 0.297399 0
M  V30 20398 H 1904.38 -1.34354 1.34346 0
M  V30 20399 H 1902.53 -3.78237 0.887082 0
M  V30 20400 H 1904.21 -3.10854 3.40833 0
M  V30 20401 H 1902.45 -2.87158 3.25151 0
M  V30 20402 H 1903.12 -4.50423 3.19097 0
M  V30 20403 H 1905.6 -3.93599 1.34979 0
M  V30 20404 H 1904.47 -5.31922 1.35464 0
M  V30 20405 H 1904.73 -4.41906 -0.130987 0
M  V30 20406 N 1903.79 -0.869509 -1.31443 0
M  V30 20407 C 1905.02 -0.494667 -2.009 0
M  V30 20408 C 1905.44 0.912728 -1.65272 0
M  V30 20409 O 1904.79 1.59788 -0.881702 0
M  V30 20410 C 1904.84 -0.641585 -3.55761 0
M  V30 20411 O 1904.56 -1.99356 -3.90114 0
M  V30 20412 C 1906.07 -0.267695 -4.42491 0
M  V30 20413 H 1903.29 -0.192789 -0.642708 0
M  V30 20414 H 1905.83 -1.17055 -1.67686 0
M  V30 20415 H 1903.98 -0.0132632 -3.87398 0
M  V30 20416 H 1904.4 -2.00099 -4.8483 0
M  V30 20417 H 1905.87 -0.421448 -5.50389 0
M  V30 20418 H 1906.35 0.793108 -4.3198 0
M  V30 20419 H 1906.96 -0.871698 -4.16271 0
M  V30 20420 N 1905.27 1.44508 -0.628902 0
M  V30 20421 C 1906.23 2.291 0.0676501 0
M  V30 20422 C 1907.23 1.40921 0.77447 0
M  V30 20423 O 1908.42 1.62816 0.619397 0
M  V30 20424 C 1905.56 3.22448 1.10634 0
M  V30 20425 H 1906.75 2.92174 -0.676344 0
M  V30 20426 H 1904.3 1.51384 -0.388933 0
M  V30 20427 H 1905.04 2.64219 1.88039 0
M  V30 20428 H 1904.82 3.87428 0.603465 0
M  V30 20429 H 1906.31 3.86 1.59354 0
M  V30 20430 N 1906.75 0.369315 1.53212 0
M  V30 20431 C 1907.68 -0.467242 2.28777 0
M  V30 20432 C 1908.66 -1.08073 1.31355 0
M  V30 20433 O 1909.85 -1.09728 1.60229 0
M  V30 20434 C 1906.98 -1.60519 3.07979 0
M  V30 20435 C 1905.93 -1.11876 4.1312 0
M  V30 20436 C 1905.26 -2.34723 4.80426 0
M  V30 20437 C 1906.56 -0.200846 5.21914 0
M  V30 20438 H 1908.25 0.163201 2.98955 0
M  V30 20439 H 1905.8 0.0799312 1.43778 0
M  V30 20440 H 1907.75 -2.19708 3.59592 0
M  V30 20441 H 1906.47 -2.26292 2.35499 0
M  V30 20442 H 1905.13 -0.549521 3.62458 0
M  V30 20443 H 1904.78 -2.98961 4.04514 0
M  V30 20444 H 1904.48 -2.02846 5.51477 0
M  V30 20445 H 1906 -2.94592 5.34835 0
M  V30 20446 H 1907.42 -0.700331 5.69006 0
M  V30 20447 H 1905.81 0.0272222 6.00094 0
M  V30 20448 H 1906.88 0.755948 4.78971 0
M  V30 20449 N 1908.23 -1.57291 0.0985816 0
M  V30 20450 C 1909.16 -2.17239 -0.856131 0
M  V30 20451 C 1910.14 -1.10669 -1.29176 0
M  V30 20452 O 1911.32 -1.38821 -1.35803 0
M  V30 20453 C 1908.45 -2.75551 -2.11398 0
M  V30 20454 C 1907.41 -3.87524 -1.81685 0
M  V30 20455 C 1906.73 -4.32553 -3.14327 0
M  V30 20456 C 1908.03 -5.10562 -1.10108 0
M  V30 20457 H 1909.73 -2.97268 -0.356657 0
M  V30 20458 H 1907.27 -1.42992 -0.170108 0
M  V30 20459 H 1909.23 -3.16141 -2.78627 0
M  V30 20460 H 1907.95 -1.92781 -2.63634 0
M  V30 20461 H 1906.61 -3.47478 -1.16853 0
M  V30 20462 H 1906.26 -3.46669 -3.64458 0
M  V30 20463 H 1905.96 -5.08049 -2.95228 0
M  V30 20464 H 1907.48 -4.7578 -3.82709 0
M  V30 20465 H 1908.9 -5.483 -1.67453 0
M  V30 20466 H 1907.29 -5.91509 -1.01176 0
M  V30 20467 H 1908.36 -4.84827 -0.0844041 0
M  V30 20468 N 1909.71 0.175127 -1.56624 0
M  V30 20469 C 1911.12 0.526752 -1.50657 0
M  V30 20470 C 1911.32 1.84844 -0.802173 0
M  V30 20471 O 1910.38 2.49907 -0.360958 0
M  V30 20472 C 1911.69 0.563029 -2.95382 0
M  V30 20473 C 1913.24 0.650493 -3.06166 0
M  V30 20474 C 1913.71 0.717698 -4.52342 0
M  V30 20475 N 1915.2 0.78069 -4.56574 0
M  V30 20476 C 1915.94 0.853199 -5.67017 0
M  V30 20477 N 1915.44 0.886777 -6.87101 0
M  V30 20478 N 1917.23 0.891926 -5.54978 0
M  V30 20479 H 1909.38 -0.69158 -2.00826 0
M  V30 20480 H 1911.64 -0.248884 -0.914746 0
M  V30 20481 H 1911.35 -0.339385 -3.50059 0
M  V30 20482 H 1911.22 1.41084 -3.49821 0
M  V30 20483 H 1913.61 1.54333 -2.51526 0
M  V30 20484 H 1913.69 -0.223919 -2.54818 0
M  V30 20485 H 1913.33 -0.170871 -5.07612 0
M  V30 20486 H 1913.26 1.6082 -5.01442 0
M  V30 20487 H 1915.76 0.763178 -3.70113 0
M  V30 20488 H 1916.07 0.943172 -7.67023 0
M  V30 20489 H 1914.41 0.855117 -6.89719 0
M  V30 20490 H 1917.6 0.862669 -4.60082 0
M  V30 20491 H 1917.78 0.944973 -6.41073 0
M  V30 20492 N 1911.18 1.5123 0.44355 0
M  V30 20493 C 1912.12 1.68281 1.55609 0
M  V30 20494 C 1913.13 0.563589 1.52733 0
M  V30 20495 O 1914.32 0.837706 1.57622 0
M  V30 20496 C 1911.42 1.67657 2.94524 0
M  V30 20497 C 1910.59 2.96063 3.21971 0
M  V30 20498 C 1909.65 2.8771 4.40578 0
M  V30 20499 O 1908.68 3.61659 4.39536 0
M  V30 20500 N 1909.88 2.03137 5.43797 0
M  V30 20501 H 1912.64 2.64252 1.41389 0
M  V30 20502 H 1910.2 1.49038 0.632398 0
M  V30 20503 H 1912.2 1.59646 3.71881 0
M  V30 20504 H 1910.77 0.79306 3.02373 0
M  V30 20505 H 1909.99 3.17991 2.32971 0
M  V30 20506 H 1911.27 3.81074 3.37135 0
M  V30 20507 H 1910.67 1.42422 5.47478 0
M  V30 20508 H 1909.23 2.0101 6.20031 0
M  V30 20509 N 1912.66 -0.698586 1.41271 0
M  V30 20510 C 1913.59 -1.82505 1.4565 0
M  V30 20511 C 1914.57 -1.67149 0.315497 0
M  V30 20512 O 1915.76 -1.86926 0.526518 0
M  V30 20513 C 1912.89 -3.20616 1.33502 0
M  V30 20514 C 1911.84 -3.50672 2.45383 0
M  V30 20515 C 1911.17 -4.88107 2.18302 0
M  V30 20516 C 1912.47 -3.49952 3.87725 0
M  V30 20517 H 1914.16 -1.79098 2.39926 0
M  V30 20518 H 1911.71 -0.860237 1.15481 0
M  V30 20519 H 1913.66 -3.9913 1.35179 0
M  V30 20520 H 1912.38 -3.24642 0.357101 0
M  V30 20521 H 1911.04 -2.74507 2.42984 0
M  V30 20522 H 1910.69 -4.88755 1.1886 0
M  V30 20523 H 1910.39 -5.09182 2.9327 0
M  V30 20524 H 1911.92 -5.68934 2.21689 0
M  V30 20525 H 1913.33 -4.18476 3.91855 0
M  V30 20526 H 1911.73 -3.82559 4.62351 0
M  V30 20527 H 1912.8 -2.48988 4.16093 0
M  V30 20528 N 1914.14 -1.27049 -0.93254 0
M  V30 20529 C 1915.1 -1.09404 -2.01404 0
M  V30 20530 C 1916.1 -0.0395757 -1.60751 0
M  V30 20531 O 1917.29 -0.283746 -1.71874 0
M  V30 20532 C 1914.42 -0.665948 -3.34332 0
M  V30 20533 H 1915.62 -2.05434 -2.18488 0
M  V30 20534 H 1913.17 -1.09768 -1.11268 0
M  V30 20535 H 1913.91 0.295952 -3.22947 0
M  V30 20536 H 1913.69 -1.42745 -3.65194 0
M  V30 20537 H 1915.18 -0.564591 -4.13766 0
M  V30 20538 N 1915.62 1.13835 -1.08993 0
M  V30 20539 C 1916.53 2.22715 -0.73724 0
M  V30 20540 C 1917.54 1.72064 0.258869 0
M  V30 20541 O 1918.72 2.01145 0.101321 0
M  V30 20542 C 1915.78 3.46338 -0.158285 0
M  V30 20543 C 1914.85 4.11902 -1.20977 0
M  V30 20544 C 1914.08 5.29624 -0.658349 0
M  V30 20545 O 1914.3 5.68023 0.520219 0
M  V30 20546 O 1913.24 5.85121 -1.41126 0
M  V30 20547 H 1917.06 2.55247 -1.64568 0
M  V30 20548 H 1914.65 1.21882 -0.864013 0
M  V30 20549 H 1916.53 4.2109 0.161481 0
M  V30 20550 H 1915.2 3.15517 0.723235 0
M  V30 20551 H 1914.11 3.38996 -1.58216 0
M  V30 20552 H 1915.44 4.46843 -2.06378 0
M  V30 20553 N 1917.1 0.876467 1.3098 0
M  V30 20554 C 1918.03 0.352925 2.30817 0
M  V30 20555 C 1919.01 -0.559675 1.60629 0
M  V30 20556 O 1920.19 -0.475326 1.88293 0
M  V30 20557 C 1917.32 -0.440827 3.44491 0
M  V30 20558 C 1916.28 0.379253 4.26316 0
M  V30 20559 C 1915.6 -0.540582 5.3196 0
M  V30 20560 C 1916.9 1.61682 4.96645 0
M  V30 20561 H 1918.6 1.18719 2.74857 0
M  V30 20562 H 1916.14 0.572316 1.32138 0
M  V30 20563 H 1918.09 -0.817661 4.13391 0
M  V30 20564 H 1916.82 -1.30866 2.99235 0
M  V30 20565 H 1915.48 0.738117 3.59092 0
M  V30 20566 H 1915.13 -1.40588 4.82953 0
M  V30 20567 H 1914.83 0.00427133 5.876 0
M  V30 20568 H 1916.35 -0.914118 6.03719 0
M  V30 20569 H 1917.76 1.31105 5.58108 0
M  V30 20570 H 1916.16 2.10123 5.62111 0
M  V30 20571 H 1917.23 2.36602 4.23258 0
M  V30 20572 N 1918.57 -1.44173 0.636557 0
M  V30 20573 C 1919.99 -1.56704 0.302646 0
M  V30 20574 C 1920.19 -1.62316 -1.19398 0
M  V30 20575 O 1919.25 -1.56914 -1.97824 0
M  V30 20576 C 1920.56 -2.83608 0.999346 0
M  V30 20577 C 1922.11 -2.97328 0.978005 0
M  V30 20578 C 1922.58 -4.27042 1.65527 0
M  V30 20579 N 1924.07 -4.33868 1.62212 0
M  V30 20580 C 1924.81 -5.32966 2.11505 0
M  V30 20581 N 1924.3 -6.38439 2.69012 0
M  V30 20582 N 1926.1 -5.24511 2.02102 0
M  V30 20583 H 1918.25 -1.38773 1.60797 0
M  V30 20584 H 1920.51 -0.665369 0.675269 0
M  V30 20585 H 1920.22 -2.85466 2.05432 0
M  V30 20586 H 1920.09 -3.73308 0.540484 0
M  V30 20587 H 1922.48 -2.9502 -0.0685065 0
M  V30 20588 H 1922.56 -2.08963 1.47541 0
M  V30 20589 H 1922.2 -4.30109 2.70126 0
M  V30 20590 H 1922.13 -5.14275 1.13266 0
M  V30 20591 H 1924.62 -3.58264 1.20231 0
M  V30 20592 H 1924.94 -7.10348 3.04344 0
M  V30 20593 H 1923.28 -6.39109 2.73066 0
M  V30 20594 H 1926.47 -4.41024 1.56892 0
M  V30 20595 H 1926.65 -6.01586 2.40828 0
M  V30 20596 N 1920.05 -0.377435 -1.53014 0
M  V30 20597 C 1920.98 0.498304 -2.23718 0
M  V30 20598 C 1922 1.03648 -1.25542 0
M  V30 20599 O 1923.19 0.940837 -1.51692 0
M  V30 20600 C 1920.29 1.70201 -2.93061 0
M  V30 20601 C 1919.46 1.29328 -4.17843 0
M  V30 20602 C 1918.52 2.36036 -4.70291 0
M  V30 20603 O 1917.54 1.97934 -5.33677 0
M  V30 20604 N 1918.75 3.67788 -4.49124 0
M  V30 20605 H 1921.51 -0.107388 -2.99508 0
M  V30 20606 H 1919.07 -0.203197 -1.6062 0
M  V30 20607 H 1921.06 2.41087 -3.25052 0
M  V30 20608 H 1919.63 2.21431 -2.20652 0
M  V30 20609 H 1918.85 0.413779 -3.92022 0
M  V30 20610 H 1920.14 0.996666 -4.98943 0
M  V30 20611 H 1919.54 4.01512 -3.98503 0
M  V30 20612 H 1918.1 4.34744 -4.85635 0
M  V30 20613 N 1921.53 1.57237 -0.106922 0
M  V30 20614 C 1922.46 2.11718 0.877968 0
M  V30 20615 C 1923.48 1.0571 1.23812 0
M  V30 20616 O 1924.66 1.3312 1.18917 0
M  V30 20617 C 1921.76 2.59182 2.18352 0
M  V30 20618 C 1920.94 3.89156 1.99691 0
M  V30 20619 C 1920 4.22344 3.13866 0
M  V30 20620 O 1919.02 4.91367 2.87309 0
M  V30 20621 N 1920.22 3.78694 4.39967 0
M  V30 20622 H 1922.99 2.96846 0.412584 0
M  V30 20623 H 1920.55 1.61713 0.0778505 0
M  V30 20624 H 1922.54 2.78423 2.93706 0
M  V30 20625 H 1921.11 1.78999 2.56277 0
M  V30 20626 H 1920.33 3.78945 1.086 0
M  V30 20627 H 1921.62 4.74165 1.84514 0
M  V30 20628 H 1921.02 3.23 4.64422 0
M  V30 20629 H 1919.58 4.03067 5.12231 0
M  V30 20630 N 1923.01 -0.166818 1.56715 0
M  V30 20631 C 1923.94 -1.2086 1.99787 0
M  V30 20632 C 1924.92 -1.45918 0.874178 0
M  V30 20633 O 1926.1 -1.57176 1.14058 0
M  V30 20634 C 1923.23 -2.54648 2.3616 0
M  V30 20635 C 1922.19 -2.44151 3.51532 0
M  V30 20636 C 1921.51 -3.82469 3.7366 0
M  V30 20637 C 1922.81 -1.9424 4.84838 0
M  V30 20638 H 1924.51 -0.850538 2.87065 0
M  V30 20639 H 1922.05 -0.407696 1.38108 0
M  V30 20640 H 1924.01 -3.27736 2.64891 0
M  V30 20641 H 1922.73 -2.92251 1.45797 0
M  V30 20642 H 1921.39 -1.73516 3.22936 0
M  V30 20643 H 1921.04 -4.17473 2.8058 0
M  V30 20644 H 1920.74 -3.76312 4.5129 0
M  V30 20645 H 1922.26 -4.57136 4.04796 0
M  V30 20646 H 1923.68 -2.57105 5.12416 0
M  V30 20647 H 1922.07 -1.99021 5.66137 0
M  V30 20648 H 1923.14 -0.89695 4.76532 0
M  V30 20649 N 1924.49 -1.51463 -0.435524 0
M  V30 20650 C 1925.42 -1.69104 -1.54715 0
M  V30 20651 C 1926.43 -0.571681 -1.52432 0
M  V30 20652 O 1927.62 -0.846054 -1.57176 0
M  V30 20653 C 1924.72 -1.69217 -2.9363 0
M  V30 20654 C 1923.89 -2.97766 -3.20397 0
M  V30 20655 C 1922.95 -2.90043 -4.39046 0
M  V30 20656 O 1921.98 -3.63985 -4.37611 0
M  V30 20657 N 1923.18 -2.06018 -5.42712 0
M  V30 20658 H 1925.95 -2.64998 -1.39985 0
M  V30 20659 H 1923.51 -1.49371 -0.624486 0
M  V30 20660 H 1925.5 -1.61616 -3.71029 0
M  V30 20661 H 1924.07 -0.809085 -3.01948 0
M  V30 20662 H 1923.29 -3.19222 -2.31282 0
M  V30 20663 H 1924.58 -3.82857 -3.35109 0
M  V30 20664 H 1923.97 -1.45324 -5.46715 0
M  V30 20665 H 1922.53 -2.04295 -6.18956 0
M  V30 20666 N 1925.96 0.691085 -1.4164 0
M  V30 20667 C 1926.93 1.78671 -1.43559 0
M  V30 20668 C 1927.93 1.5747 -0.325543 0
M  V30 20669 O 1929.12 1.64061 -0.585631 0
M  V30 20670 C 1926.25 3.17102 -1.25135 0
M  V30 20671 H 1927.44 1.78361 -2.41096 0
M  V30 20672 H 1925 0.899148 -1.27848 0
M  V30 20673 H 1925.73 3.23049 -0.284567 0
M  V30 20674 H 1925.52 3.33893 -2.05567 0
M  V30 20675 H 1927.01 3.97071 -1.29324 0
M  V30 20676 N 1927.44 1.27542 0.925789 0
M  V30 20677 C 1928.39 1.10432 2.02666 0
M  V30 20678 C 1929.36 0.004846 1.66099 0
M  V30 20679 O 1930.54 0.167531 1.90063 0
M  V30 20680 C 1927.68 0.759567 3.36637 0
M  V30 20681 C 1926.8 1.93687 3.86147 0
M  V30 20682 C 1925.93 1.53382 5.08574 0
M  V30 20683 C 1924.97 2.67849 5.50385 0
M  V30 20684 N 1924.11 2.2812 6.64007 0
M  V30 20685 H 1928.95 2.04632 2.16633 0
M  V30 20686 H 1926.49 1.01863 1.06124 0
M  V30 20687 H 1928.44 0.540492 4.13684 0
M  V30 20688 H 1927.07 -0.145477 3.22472 0
M  V30 20689 H 1926.13 2.26843 3.05363 0
M  V30 20690 H 1927.44 2.79548 4.13104 0
M  V30 20691 H 1926.59 1.2761 5.93128 0
M  V30 20692 H 1925.33 0.646332 4.83398 0
M  V30 20693 H 1924.34 2.94333 4.64379 0
M  V30 20694 H 1925.56 3.57222 5.77554 0
M  V30 20695 H 1923.51 1.41825 6.40485 0
M  V30 20696 H 1923.42 3.07519 6.90629 0
M  V30 20697 H 1924.69 2.056 7.51897 0
M  V30 20698 N 1928.92 -1.13255 1.09595 0
M  V30 20699 C 1930.33 -1.66118 0.852147 0
M  V30 20700 C 1930.68 -1.86177 -0.61909 0
M  V30 20701 O 1929.81 -1.58186 -1.47669 0
M  V30 20702 C 1930.4 -3.0176 1.54034 0
M  V30 20703 C 1928.96 -3.51608 1.34347 0
M  V30 20704 C 1928.11 -2.26815 1.59531 0
M  V30 20705 H 1931.06 -0.971539 1.25486 0
M  V30 20706 H 1931.08 -3.67812 0.974418 0
M  V30 20707 H 1930.59 -2.87129 2.6111 0
M  V30 20708 H 1928.69 -3.71439 0.293951 0
M  V30 20709 H 1928.81 -4.31618 2.07949 0
M  V30 20710 H 1927.17 -2.33492 1.01753 0
M  V30 20711 H 1927.95 -2.14748 2.6784 0
M  V30 20712 N 1930.4 -0.883401 -1.30514 0
M  V30 20713 C 1931.81 -0.577183 -1.48798 0
M  V30 20714 C 1932.01 0.885462 -1.81002 0
M  V30 20715 O 1931.07 1.66679 -1.89669 0
M  V30 20716 C 1932.38 -1.48898 -2.61247 0
M  V30 20717 C 1933.93 -1.49244 -2.75128 0
M  V30 20718 C 1934.41 -2.39012 -3.90688 0
M  V30 20719 N 1935.9 -2.36967 -3.97996 0
M  V30 20720 C 1936.63 -3.03138 -4.86718 0
M  V30 20721 N 1936.13 -3.78529 -5.80248 0
M  V30 20722 N 1937.92 -2.92378 -4.80074 0
M  V30 20723 H 1930.07 -1.82963 -1.07882 0
M  V30 20724 H 1932.34 -0.783078 -0.534315 0
M  V30 20725 H 1932.04 -2.53035 -2.44266 0
M  V30 20726 H 1931.92 -1.19739 -3.5769 0
M  V30 20727 H 1934.3 -0.458579 -2.91515 0
M  V30 20728 H 1934.38 -1.82432 -1.7931 0
M  V30 20729 H 1934.03 -3.42482 -3.75058 0
M  V30 20730 H 1933.96 -2.03141 -4.85841 0
M  V30 20731 H 1936.45 -1.82179 -3.31088 0
M  V30 20732 H 1936.76 -4.26115 -6.44706 0
M  V30 20733 H 1935.11 -3.82636 -5.80185 0
M  V30 20734 H 1938.3 -2.33008 -4.05986 0
M  V30 20735 H 1938.47 -3.44225 -5.49011 0
M  V30 20736 N 1931.88 1.43833 -0.644194 0
M  V30 20737 C 1933.29 1.85218 -0.23478 0
M  V30 20738 C 1933.64 1.53918 1.2167 0
M  V30 20739 O 1932.76 0.983677 1.92751 0
M  V30 20740 C 1933.36 3.36195 -0.419327 0
M  V30 20741 C 1931.92 3.76345 -0.0643105 0
M  V30 20742 C 1931.06 2.67614 -0.726506 0
M  V30 20743 H 1934.02 1.34114 -0.84848 0
M  V30 20744 H 1934.04 3.78997 0.33787 0
M  V30 20745 H 1933.55 3.58944 -1.47582 0
M  V30 20746 H 1931.65 3.59209 0.989939 0
M  V30 20747 H 1931.76 4.76654 -0.483481 0
M  V30 20748 H 1930.13 2.54193 -0.160575 0
M  V30 20749 H 1930.91 2.93193 -1.78585 0
M  V30 20750 N 1933.35 0.385544 1.52811 0
M  V30 20751 C 1934.26 -0.45885 2.30069 0
M  V30 20752 C 1935.28 -1.07486 1.36831 0
M  V30 20753 O 1936.46 -1.08148 1.699 0
M  V30 20754 C 1933.52 -1.57281 3.08972 0
M  V30 20755 C 1932.58 -0.98229 4.17911 0
M  V30 20756 C 1931.82 -2.04316 4.93042 0
M  V30 20757 O 1932.04 -3.25761 4.68226 0
M  V30 20758 O 1930.97 -1.66256 5.78483 0
M  V30 20759 H 1934.8 0.170416 3.03221 0
M  V30 20760 H 1932.38 0.149363 1.48651 0
M  V30 20761 H 1934.27 -2.22003 3.5818 0
M  V30 20762 H 1932.94 -2.18711 2.38637 0
M  V30 20763 H 1931.85 -0.298428 3.72908 0
M  V30 20764 H 1933.18 -0.412261 4.9047 0
M  V30 20765 N 1934.83 -1.57178 0.115259 0
M  V30 20766 C 1935.74 -2.18656 -0.850101 0
M  V30 20767 C 1936.76 -1.16164 -1.29545 0
M  V30 20768 O 1937.93 -1.48619 -1.35921 0
M  V30 20769 C 1935 -2.77089 -2.0838 0
M  V30 20770 C 1934.06 -3.94604 -1.69074 0
M  V30 20771 C 1933.29 -4.50242 -2.86563 0
M  V30 20772 O 1933.52 -4.04782 -4.0188 0
M  V30 20773 O 1932.45 -5.4098 -2.63864 0
M  V30 20774 H 1936.28 -3.01595 -0.356934 0
M  V30 20775 H 1933.86 -1.48993 -0.110158 0
M  V30 20776 H 1935.74 -3.14353 -2.80642 0
M  V30 20777 H 1934.42 -1.97184 -2.56711 0
M  V30 20778 H 1933.33 -3.62116 -0.939308 0
M  V30 20779 H 1934.66 -4.75934 -1.25489 0
M  V30 20780 N 1936.31 0.158505 -1.56801 0
M  V30 20781 C 1937.27 1.17986 -1.96499 0
M  V30 20782 C 1938.27 1.3649 -0.850127 0
M  V30 20783 O 1939.46 1.33678 -1.11696 0
M  V30 20784 C 1936.6 2.54245 -2.27095 0
M  V30 20785 H 1937.79 0.839577 -2.87908 0
M  V30 20786 H 1935.34 0.401431 -1.51057 0
M  V30 20787 H 1936.08 2.93266 -1.38441 0
M  V30 20788 H 1935.86 2.42179 -3.0837 0
M  V30 20789 H 1937.35 3.27829 -2.58686 0
M  V30 20790 N 1937.79 1.51692 0.427485 0
M  V30 20791 C 1939.01 1.68956 1.20285 0
M  V30 20792 C 1939.44 0.390472 1.84003 0
M  V30 20793 O 1938.8 -0.650352 1.69234 0
M  V30 20794 C 1938.85 2.81368 2.25532 0
M  V30 20795 O 1937.95 2.45657 3.3125 0
M  V30 20796 H 1937.29 0.56304 0.351969 0
M  V30 20797 H 1939.82 1.98306 0.503588 0
M  V30 20798 H 1939.83 3.05742 2.70158 0
M  V30 20799 H 1938.51 3.7563 1.78535 0
M  V30 20800 H 1937.08 2.31889 2.9203 0
M  V30 20801 N 1939.27 -0.683564 1.42004 0
M  V30 20802 C 1940.51 -1.44577 1.42216 0
M  V30 20803 C 1940.85 -1.94168 0.0352735 0
M  V30 20804 O 1940.12 -1.70331 -0.939023 0
M  V30 20805 C 1940.4 -2.64909 2.43916 0
M  V30 20806 C 1940.26 -2.21006 3.9176 0
M  V30 20807 C 1941.58 -3.6712 2.42716 0
M  V30 20808 H 1938.7 -0.524376 0.517879 0
M  V30 20809 H 1941.34 -0.777575 1.7336 0
M  V30 20810 H 1939.49 -3.21918 2.17489 0
M  V30 20811 H 1941.16 -1.69233 4.29136 0
M  V30 20812 H 1939.4 -1.52667 4.06048 0
M  V30 20813 H 1940.07 -3.07401 4.58485 0
M  V30 20814 H 1942.55 -3.1981 2.66197 0
M  V30 20815 H 1941.43 -4.48907 3.15869 0
M  V30 20816 H 1941.69 -4.17645 1.45 0
M  V30 20817 N 1940.75 -1.28031 -0.919012 0
M  V30 20818 C 1941.98 -1.17544 -1.69903 0
M  V30 20819 C 1942.38 0.269221 -1.87275 0
M  V30 20820 O 1941.73 1.19432 -1.39577 0
M  V30 20821 C 1941.79 -1.79632 -3.11404 0
M  V30 20822 C 1941.45 -3.28856 -3.17337 0
M  V30 20823 C 1942.45 -4.25367 -2.9893 0
M  V30 20824 C 1940.13 -3.69719 -3.40019 0
M  V30 20825 C 1942.13 -5.60718 -3.03108 0
M  V30 20826 C 1939.82 -5.05198 -3.43829 0
M  V30 20827 C 1940.81 -6.00507 -3.25393 0
M  V30 20828 O 1940.5 -7.33515 -3.28955 0
M  V30 20829 H 1940.23 -0.409225 -0.538062 0
M  V30 20830 H 1942.79 -1.69573 -1.15906 0
M  V30 20831 H 1941.02 -1.22091 -3.66921 0
M  V30 20832 H 1942.71 -1.63737 -3.7141 0
M  V30 20833 H 1943.47 -3.95132 -2.81239 0
M  V30 20834 H 1939.35 -2.96003 -3.53416 0
M  V30 20835 H 1942.9 -6.35087 -2.88636 0
M  V30 20836 H 1938.79 -5.35085 -3.61047 0
M  V30 20837 H 1939.56 -7.42074 -3.45352 0
M  V30 20838 N 1942.22 1.12672 -1.10194 0
M  V30 20839 C 1943.45 1.87955 -0.864907 0
M  V30 20840 C 1943.87 1.79527 0.584436 0
M  V30 20841 O 1943.22 1.1674 1.40278 0
M  V30 20842 C 1943.27 3.37261 -1.30143 0
M  V30 20843 O 1943 3.45483 -2.69394 0
M  V30 20844 C 1944.5 4.29488 -1.09793 0
M  V30 20845 H 1941.72 0.594777 -0.310614 0
M  V30 20846 H 1944.26 1.42583 -1.46596 0
M  V30 20847 H 1942.42 3.80187 -0.744103 0
M  V30 20848 H 1942.83 4.38357 -2.87999 0
M  V30 20849 H 1944.3 5.32546 -1.45254 0
M  V30 20850 H 1944.78 4.39185 -0.0363527 0
M  V30 20851 H 1945.39 3.92341 -1.6416 0
M  V30 20852 N 1943.7 0.89031 1.30043 0
M  V30 20853 C 1944.93 0.525833 2.00623 0
M  V30 20854 C 1945.35 -0.87971 1.66261 0
M  V30 20855 O 1944.71 -1.58394 0.882105 0
M  V30 20856 C 1944.76 0.714046 3.5346 0
M  V30 20857 O 1943.86 -0.237685 4.11714 0
M  V30 20858 H 1943.2 0.20656 0.631054 0
M  V30 20859 H 1945.73 1.19932 1.65763 0
M  V30 20860 H 1945.74 0.615086 4.03337 0
M  V30 20861 H 1944.42 1.73881 3.77807 0
M  V30 20862 H 1942.99 -0.0919722 3.72787 0
M  V30 20863 N 1945.18 -1.43489 0.651812 0
M  V30 20864 C 1946.14 -2.29179 -0.0311937 0
M  V30 20865 C 1947.14 -1.42135 -0.751953 0
M  V30 20866 O 1948.33 -1.63781 -0.593416 0
M  V30 20867 C 1945.46 -3.24168 -1.0549 0
M  V30 20868 H 1946.66 -2.91061 0.722741 0
M  V30 20869 H 1944.21 -1.50746 0.412968 0
M  V30 20870 H 1944.95 -2.67177 -1.83812 0
M  V30 20871 H 1944.73 -3.88339 -0.541752 0
M  V30 20872 H 1946.22 -3.88487 -1.53193 0
M  V30 20873 N 1946.66 -0.393643 -1.52605 0
M  V30 20874 C 1947.89 0.1871 -2.06052 0
M  V30 20875 C 1948.3 1.40154 -1.26501 0
M  V30 20876 O 1947.66 1.798 -0.31279 0
M  V30 20877 C 1947.71 0.552918 -3.57246 0
M  V30 20878 O 1947.43 -0.613274 -4.33786 0
M  V30 20879 C 1948.93 1.18906 -4.27055 0
M  V30 20880 H 1946.15 0.0272042 -0.670448 0
M  V30 20881 H 1948.69 -0.560126 -1.9668 0
M  V30 20882 H 1946.85 1.25004 -3.66678 0
M  V30 20883 H 1947.26 -0.311611 -5.23574 0
M  V30 20884 H 1948.74 1.39535 -5.34073 0
M  V30 20885 H 1949.21 2.15768 -3.82545 0
M  V30 20886 H 1949.82 0.532579 -4.21952 0
M  V30 20887 N 1948.14 1.57115 -0.123593 0
M  V30 20888 C 1949.1 2.14386 0.810624 0
M  V30 20889 C 1950.1 1.07985 1.19146 0
M  V30 20890 O 1951.29 1.33739 1.11622 0
M  V30 20891 C 1948.42 2.68785 2.09683 0
M  V30 20892 H 1949.61 2.98264 0.312818 0
M  V30 20893 H 1947.17 1.55794 0.125682 0
M  V30 20894 H 1947.9 1.88509 2.63884 0
M  V30 20895 H 1947.69 3.46607 1.8332 0
M  V30 20896 H 1949.18 3.12989 2.76455 0
M  V30 20897 N 1949.61 -0.150187 1.56883 0
M  V30 20898 C 1950.85 -0.869587 1.8498 0
M  V30 20899 C 1951.22 -1.78491 0.707449 0
M  V30 20900 O 1952.42 -2.54352 0.869387 0
M  V30 20901 C 1950.69 -1.62639 3.1825 0
M  V30 20902 S 1952.25 -2.39165 3.67893 0
M  V30 20903 H 1949.07 -0.290853 0.648788 0
M  V30 20904 H 1951.67 -0.129797 1.95069 0
M  V30 20905 H 1950.37 -0.945372 3.99363 0
M  V30 20906 H 1949.9 -2.40715 3.11159 0
M  V30 20907 H 1951.92 -3.64294 3.36904 0
M  V30 20908 N 1951.09 -1.51916 -0.419434 0
M  V30 20909 C 1952.37 -1.56023 -1.17967 0
M  V30 20910 C 1952.75 -0.335094 -2.08423 0
M  V30 20911 O 1952.1 0.678731 -2.18187 0
M  V30 20912 C 1952.31 -2.8836 -1.96595 0
M  V30 20913 C 1953.66 -3.40979 -2.53019 0
M  V30 20914 O 1954.68 -2.90031 -2.06786 0
M  V30 20915 O 1953.54 -4.2992 -3.37388 0
M  V30 20916 H 1950.63 -0.628035 -0.538053 0
M  V30 20917 H 1953.18 -1.64239 -0.42705 0
M  V30 20918 H 1951.95 -3.6898 -1.30267 0
M  V30 20919 H 1951.57 -2.83389 -2.78884 0
M  V30 20920 N 1952.57 0.676023 -1.42365 0
M  V30 20921 C 1953.98 1.25659 -1.38082 0
M  V30 20922 C 1954.33 1.96062 -0.0734945 0
M  V30 20923 O 1953.46 1.99941 0.827793 0
M  V30 20924 C 1954.05 2.28531 -2.50118 0
M  V30 20925 C 1952.61 2.82117 -2.49172 0
M  V30 20926 C 1951.76 1.56422 -2.28971 0
M  V30 20927 H 1954.71 0.469489 -1.51596 0
M  V30 20928 H 1954.73 3.1024 -2.20299 0
M  V30 20929 H 1954.24 1.77261 -3.45254 0
M  V30 20930 H 1952.34 3.37511 -1.57851 0
M  V30 20931 H 1952.46 3.31216 -3.46168 0
M  V30 20932 H 1950.82 1.82946 -1.77208 0
M  V30 20933 H 1951.6 1.0712 -3.2616 0
M  V30 20934 N 1954.05 1.28517 0.912209 0
M  V30 20935 C 1955.3 1.15138 1.65609 0
M  V30 20936 C 1955.61 -0.299022 1.93301 0
M  V30 20937 O 1956.82 -0.55395 2.65789 0
M  V30 20938 C 1955.27 2.01287 2.98348 0
M  V30 20939 C 1954.88 3.51076 2.78297 0
M  V30 20940 C 1956.62 1.96599 3.7623 0
M  V30 20941 C 1954.53 4.29371 4.06687 0
M  V30 20942 H 1953.46 0.42731 0.621226 0
M  V30 20943 H 1956.11 1.5306 1.01217 0
M  V30 20944 H 1954.49 1.56222 3.63883 0
M  V30 20945 H 1955.67 4.04109 2.21434 0
M  V30 20946 H 1953.98 3.57306 2.13826 0
M  V30 20947 H 1956.58 2.52362 4.71399 0
M  V30 20948 H 1956.92 0.943087 4.05477 0
M  V30 20949 H 1957.46 2.39641 3.17517 0
M  V30 20950 H 1954.2 5.32248 3.82612 0
M  V30 20951 H 1953.72 3.81112 4.63156 0
M  V30 20952 H 1955.39 4.39372 4.74933 0
M  V30 20953 N 1955.53 -1.12086 1.1079 0
M  V30 20954 C 1956.94 -1.35679 0.840432 0
M  V30 20955 C 1957.14 -1.94177 -0.538279 0
M  V30 20956 O 1956.2 -2.17035 -1.29043 0
M  V30 20957 C 1957.51 -2.29487 1.94309 0
M  V30 20958 C 1959.06 -2.43069 1.97197 0
M  V30 20959 C 1959.53 -3.40194 3.06646 0
M  V30 20960 N 1961.03 -3.47753 3.05977 0
M  V30 20961 C 1961.76 -4.22826 3.87305 0
M  V30 20962 N 1961.26 -5.00933 4.78579 0
M  V30 20963 N 1963.05 -4.1827 3.75509 0
M  V30 20964 H 1955.2 -0.724754 1.99652 0
M  V30 20965 H 1957.46 -0.381544 0.86783 0
M  V30 20966 H 1957.17 -1.93685 2.93563 0
M  V30 20967 H 1957.04 -3.29644 1.83343 0
M  V30 20968 H 1959.43 -2.7815 0.985735 0
M  V30 20969 H 1959.51 -1.42788 2.12239 0
M  V30 20970 H 1959.16 -3.05842 4.05491 0
M  V30 20971 H 1959.09 -4.40314 2.88845 0
M  V30 20972 H 1961.58 -2.92035 2.39841 0
M  V30 20973 H 1961.89 -5.55565 5.37185 0
M  V30 20974 H 1960.23 -5.00117 4.82605 0
M  V30 20975 H 1963.43 -3.56334 3.03551 0
M  V30 20976 H 1963.6 -4.76521 4.39126 0
M  V30 20977 N 1957 -0.897194 -1.29569 0
M  V30 20978 C 1957.91 -0.377551 -2.31542 0
M  V30 20979 C 1958.93 0.526431 -1.65845 0
M  V30 20980 O 1960.11 0.416614 -1.97044 0
M  V30 20981 C 1957.17 0.388744 -3.44514 0
M  V30 20982 C 1956.23 -0.546458 -4.25808 0
M  V30 20983 C 1955.47 0.183361 -5.33385 0
M  V30 20984 O 1955.69 1.40767 -5.52757 0
M  V30 20985 O 1954.62 -0.472827 -6.0004 0
M  V30 20986 H 1958.45 -1.22348 -2.77965 0
M  V30 20987 H 1956.03 -0.661433 -1.33961 0
M  V30 20988 H 1957.92 0.822167 -4.13302 0
M  V30 20989 H 1956.59 1.21077 -3.00203 0
M  V30 20990 H 1955.5 -1.02894 -3.59671 0
M  V30 20991 H 1956.83 -1.33483 -4.73754 0
M  V30 20992 N 1958.48 1.43142 -0.659413 0
M  V30 20993 C 1959.73 2.01341 -0.174987 0
M  V30 20994 C 1960.05 1.52322 1.21749 0
M  V30 20995 O 1959.32 0.738424 1.8145 0
M  V30 20996 H 1957.9 0.744447 -0.0617013 0
M  V30 20997 H 1960.56 1.75268 -0.852471 0
M  V30 20998 H 1959.66 3.11667 -0.164379 0
M  V30 20999 N 1959.96 0.40173 1.52394 0
M  V30 21000 C 1961.19 -0.178662 2.06629 0
M  V30 21001 C 1961.61 -1.3871 1.27048 0
M  V30 21002 O 1960.97 -1.78821 0.298765 0
M  V30 21003 C 1961.02 -0.514797 3.56906 0
M  V30 21004 O 1960.12 -1.60691 3.79805 0
M  V30 21005 H 1959.46 -0.0174284 0.663771 0
M  V30 21006 H 1961.99 0.572792 1.96419 0
M  V30 21007 H 1962 -0.775554 4.00561 0
M  V30 21008 H 1960.68 0.368624 4.14263 0
M  V30 21009 H 1959.25 -1.3389 3.48034 0
M  V30 21010 N 1961.44 -1.57047 0.131923 0
M  V30 21011 C 1962.69 -1.95245 -0.521892 0
M  V30 21012 C 1963.01 -1.01692 -1.66385 0
M  V30 21013 O 1962.28 -0.0756026 -1.95754 0
M  V30 21014 H 1960.86 -0.720886 -0.195786 0
M  V30 21015 H 1963.52 -1.93831 0.203893 0
M  V30 21016 H 1962.62 -2.986 -0.907979 0
M  V30 21017 N 1962.92 0.141865 -1.5696 0
M  V30 21018 C 1963.86 1.19416 -1.99606 0
M  V30 21019 C 1964.86 1.44182 -0.889268 0
M  V30 21020 O 1966.06 1.44414 -1.07446 0
M  V30 21021 H 1962.44 0.402085 -0.635477 0
M  V30 21022 H 1964.41 0.80782 -2.87257 0
M  V30 21023 C 1963.16 2.51868 -2.39704 0
M  V30 21024 H 1962.48 2.33642 -3.24425 0
M  V30 21025 H 1963.92 3.24113 -2.73362 0
M  V30 21026 C 1962.38 3.12785 -1.25169 0
M  V30 21027 O 1962.91 3.97845 -0.555208 0
M  V30 21028 N 1961.12 2.72312 -1.01461 0
M  V30 21029 H 1960.66 2.0324 -1.58276 0
M  V30 21030 H 1960.62 3.13403 -0.250181 0
M  V30 21031 N 1964.39 1.52136 0.411372 0
M  V30 21032 C 1965.34 1.75927 1.52159 0
M  V30 21033 C 1966.34 0.626317 1.57396 0
M  V30 21034 O 1967.54 0.808311 1.6083 0
M  V30 21035 H 1963.92 0.5563 0.505998 0
M  V30 21036 H 1965.89 2.68942 1.29278 0
M  V30 21037 C 1964.64 1.92496 2.89552 0
M  V30 21038 H 1963.96 2.79093 2.86264 0
M  V30 21039 H 1965.4 2.13143 3.66532 0
M  V30 21040 C 1963.86 0.691473 3.29728 0
M  V30 21041 O 1964.39 -0.141712 4.0145 0
M  V30 21042 N 1962.6 0.528019 2.85763 0
M  V30 21043 H 1962.14 1.20713 2.27565 0
M  V30 21044 H 1962.1 -0.295994 3.13004 0
M  V30 21045 N 1965.87 -0.668464 1.42721 0
M  V30 21046 C 1967.12 -1.42428 1.42819 0
M  V30 21047 C 1967.44 -1.95535 0.0504025 0
M  V30 21048 O 1968.64 -2.71407 -0.0712036 0
M  V30 21049 C 1967.1 -2.57681 2.51254 0
M  V30 21050 C 1966.71 -2.11246 3.95069 0
M  V30 21051 C 1968.45 -3.35151 2.60527 0
M  V30 21052 C 1966.36 -3.23619 4.95 0
M  V30 21053 H 1965.29 -0.535089 0.531221 0
M  V30 21054 H 1967.94 -0.723067 1.68653 0
M  V30 21055 H 1966.32 -3.302 2.18595 0
M  V30 21056 H 1967.49 -1.45838 4.37113 0
M  V30 21057 H 1965.81 -1.46697 3.89704 0
M  V30 21058 H 1968.41 -4.18853 3.32364 0
M  V30 21059 H 1968.75 -3.82166 1.6509 0
M  V30 21060 H 1969.28 -2.69705 2.92411 0
M  V30 21061 H 1966.02 -2.81588 5.91936 0
M  V30 21062 H 1965.54 -3.87788 4.57581 0
M  V30 21063 H 1967.22 -3.88988 5.17008 0
M  V30 21064 N 1967.35 -1.28999 -0.905381 0
M  V30 21065 C 1968.58 -1.19632 -1.69419 0
M  V30 21066 C 1969 0.240433 -1.86557 0
M  V30 21067 O 1968.36 1.17374 -1.38177 0
M  V30 21068 C 1968.41 -1.90881 -3.05936 0
M  V30 21069 O 1967.51 -1.22198 -3.9388 0
M  V30 21070 H 1966.85 -0.414842 -0.518461 0
M  V30 21071 H 1969.38 -1.70468 -1.13145 0
M  V30 21072 H 1969.39 -1.99115 -3.56114 0
M  V30 21073 H 1968.07 -2.95385 -2.9278 0
M  V30 21074 H 1966.64 -1.22185 -3.52314 0
M  V30 21075 N 1968.83 1.11497 -1.11383 0
M  V30 21076 C 1969.78 2.1752 -0.771611 0
M  V30 21077 C 1970.75 1.64106 0.256616 0
M  V30 21078 O 1971.93 1.90331 0.133672 0
M  V30 21079 C 1969.07 3.44396 -0.220313 0
M  V30 21080 C 1968.18 4.11817 -1.30503 0
M  V30 21081 C 1967.32 5.26375 -0.714331 0
M  V30 21082 C 1966.36 5.85679 -1.77894 0
M  V30 21083 N 1965.5 6.91634 -1.20778 0
M  V30 21084 H 1970.34 2.46138 -1.67989 0
M  V30 21085 H 1967.87 1.20832 -0.838927 0
M  V30 21086 H 1969.83 4.17035 0.117286 0
M  V30 21087 H 1968.46 3.16164 0.651161 0
M  V30 21088 H 1967.51 3.37258 -1.75959 0
M  V30 21089 H 1968.82 4.5195 -2.11051 0
M  V30 21090 H 1967.98 6.05819 -0.326754 0
M  V30 21091 H 1966.72 4.87546 0.12248 0
M  V30 21092 H 1965.72 5.04914 -2.17583 0
M  V30 21093 H 1966.95 6.26576 -2.61877 0
M  V30 21094 H 1964.89 6.54824 -0.392602 0
M  V30 21095 H 1964.81 7.30419 -1.94998 0
M  V30 21096 H 1966.08 7.74884 -0.847072 0
M  V30 21097 N 1970.31 0.904053 1.29092 0
M  V30 21098 C 1971.55 0.532992 1.95671 0
M  V30 21099 C 1971.89 -0.919194 1.71069 0
M  V30 21100 O 1971.16 -1.6523 1.02612 0
M  V30 21101 C 1971.44 0.831252 3.50374 0
M  V30 21102 C 1971.3 2.33546 3.84417 0
M  V30 21103 C 1972.62 0.320724 4.3893 0
M  V30 21104 H 1969.74 0.195117 0.710703 0
M  V30 21105 H 1972.38 1.13153 1.52632 0
M  V30 21106 H 1970.53 0.321853 3.87165 0
M  V30 21107 H 1972.2 2.91473 3.57549 0
M  V30 21108 H 1970.44 2.79442 3.31805 0
M  V30 21109 H 1971.11 2.49471 4.9241 0
M  V30 21110 H 1973.59 0.756974 4.09157 0
M  V30 21111 H 1972.47 0.55858 5.4605 0
M  V30 21112 H 1972.73 -0.778699 4.35188 0
M  V30 21113 N 1971.79 -1.4279 0.666995 0
M  V30 21114 C 1972.72 -2.29134 -0.0550112 0
M  V30 21115 C 1973.73 -1.43259 -0.773357 0
M  V30 21116 O 1974.92 -1.67057 -0.628816 0
M  V30 21117 C 1972.02 -3.20503 -1.1014 0
M  V30 21118 C 1971.19 -4.34991 -0.458443 0
M  V30 21119 C 1970.25 -5.07136 -1.40356 0
M  V30 21120 O 1969.28 -5.61929 -0.90686 0
M  V30 21121 N 1970.48 -5.1192 -2.73712 0
M  V30 21122 H 1973.24 -2.9174 0.686156 0
M  V30 21123 H 1970.81 -1.5363 0.510814 0
M  V30 21124 H 1972.8 -3.65634 -1.73477 0
M  V30 21125 H 1971.37 -2.59403 -1.74439 0
M  V30 21126 H 1970.59 -3.92605 0.354287 0
M  V30 21127 H 1971.88 -5.08799 -0.0101948 0
M  V30 21128 H 1971.27 -4.68799 -3.16613 0
M  V30 21129 H 1969.83 -5.60722 -3.32316 0
M  V30 21130 N 1973.26 -0.409806 -1.52179 0
M  V30 21131 C 1974.51 0.16543 -2.01422 0
M  V30 21132 C 1974.83 1.45588 -1.29727 0
M  V30 21133 O 1974.1 1.9127 -0.423399 0
M  V30 21134 H 1972.68 0.0641237 -0.744243 0
M  V30 21135 H 1975.34 -0.546204 -1.8709 0
M  V30 21136 H 1974.44 0.361061 -3.10004 0
M  V30 21137 N 1974.74 1.56975 -0.14025 0
M  V30 21138 C 1975.67 2.19432 0.798233 0
M  V30 21139 C 1976.65 1.14055 1.26196 0
M  V30 21140 O 1977.84 1.42373 1.32074 0
M  V30 21141 C 1974.97 2.81059 2.04018 0
M  V30 21142 C 1973.92 3.92204 1.71347 0
M  V30 21143 C 1973.25 4.40735 3.02748 0
M  V30 21144 C 1974.55 5.13302 0.965327 0
M  V30 21145 H 1976.24 2.98109 0.277716 0
M  V30 21146 H 1973.79 1.43392 0.132137 0
M  V30 21147 H 1975.74 3.23417 2.70147 0
M  V30 21148 H 1974.46 1.99703 2.5843 0
M  V30 21149 H 1973.12 3.50454 1.07599 0
M  V30 21150 H 1972.77 3.5621 3.55138 0
M  V30 21151 H 1972.47 5.15698 2.81654 0
M  V30 21152 H 1974 4.85759 3.6996 0
M  V30 21153 H 1975.41 5.52547 1.52857 0
M  V30 21154 H 1973.81 5.93984 0.854574 0
M  V30 21155 H 1974.88 4.8488 -0.0441688 0
M  V30 21156 N 1976.22 -0.133539 1.57033 0
M  V30 21157 C 1977.15 -1.16595 2.02306 0
M  V30 21158 C 1978.13 -1.44031 0.904933 0
M  V30 21159 O 1979.32 -1.54721 1.17367 0
M  V30 21160 C 1976.45 -2.49581 2.41509 0
M  V30 21161 C 1975.4 -2.36639 3.56631 0
M  V30 21162 C 1974.73 -3.74457 3.81688 0
M  V30 21163 C 1976.03 -1.83912 4.88849 0
M  V30 21164 H 1977.72 -0.789456 2.88804 0
M  V30 21165 H 1975.27 -0.378309 1.38942 0
M  V30 21166 H 1977.22 -3.22043 2.71783 0
M  V30 21167 H 1975.94 -2.89093 1.51964 0
M  V30 21168 H 1974.6 -1.66628 3.26544 0
M  V30 21169 H 1974.25 -4.11428 2.89372 0
M  V30 21170 H 1973.95 -3.66655 4.59171 0
M  V30 21171 H 1975.47 -4.48446 4.14401 0
M  V30 21172 H 1976.89 -2.46178 5.17754 0
M  V30 21173 H 1975.28 -1.86967 5.70231 0
M  V30 21174 H 1976.35 -0.795669 4.78327 0
M  V30 21175 N 1977.7 -1.52352 -0.403298 0
M  V30 21176 C 1978.61 -1.79011 -1.51631 0
M  V30 21177 C 1979.62 -0.676014 -1.60331 0
M  V30 21178 O 1980.8 -0.962058 -1.76936 0
M  V30 21179 C 1977.86 -1.94046 -2.8731 0
M  V30 21180 C 1976.93 -3.17955 -2.88449 0
M  V30 21181 C 1976.16 -3.32264 -4.17656 0
M  V30 21182 O 1976.38 -2.51703 -5.11861 0
M  V30 21183 O 1975.32 -4.25446 -4.25769 0
M  V30 21184 H 1979.14 -2.73495 -1.32038 0
M  V30 21185 H 1976.73 -1.37268 -0.589733 0
M  V30 21186 H 1978.61 -2.05724 -3.67771 0
M  V30 21187 H 1977.28 -1.02752 -3.06959 0
M  V30 21188 H 1976.19 -3.11731 -2.0682 0
M  V30 21189 H 1977.52 -4.0905 -2.7375 0
M  V30 21190 N 1979.18 0.660885 -1.43074 0
M  V30 21191 C 1980.12 1.79529 -1.47892 0
M  V30 21192 C 1981.12 1.65676 -0.353254 0
M  V30 21193 O 1982.32 1.72115 -0.526903 0
M  V30 21194 H 1978.7 0.592191 -0.46348 0
M  V30 21195 H 1980.67 1.72584 -2.43428 0
M  V30 21196 C 1979.42 3.17753 -1.41167 0
M  V30 21197 H 1978.74 3.29047 -2.27087 0
M  V30 21198 H 1980.18 3.97107 -1.486 0
M  V30 21199 C 1978.64 3.36656 -0.128241 0
M  V30 21200 O 1979.17 3.93376 0.813504 0
M  V30 21201 N 1977.38 2.90571 -0.0408985 0
M  V30 21202 H 1976.92 2.44598 -0.808059 0
M  V30 21203 H 1976.88 3.03595 0.817147 0
M  V30 21204 N 1980.65 1.29477 0.898527 0
M  V30 21205 C 1981.9 1.17284 1.64587 0
M  V30 21206 C 1982.22 -0.275718 1.93041 0
M  V30 21207 O 1981.49 -1.18847 1.55731 0
M  V30 21208 H 1980.07 0.431068 0.610073 0
M  V30 21209 H 1982.74 1.62419 1.07732 0
M  V30 21210 H 1981.83 1.72375 2.60179 0
M  V30 21211 N 1982.13 -1.10905 1.11972 0
M  V30 21212 C 1983.41 -1.79218 0.783601 0
M  V30 21213 C 1983.79 -1.9817 -0.727451 0
M  V30 21214 O 1983.14 -1.57084 -1.65942 0
M  V30 21215 C 1983.35 -3.12538 1.55309 0
M  V30 21216 C 1984.7 -3.87492 1.73595 0
M  V30 21217 O 1985.72 -3.22244 1.5178 0
M  V30 21218 O 1984.58 -5.04588 2.09887 0
M  V30 21219 H 1981.67 -0.776524 0.284498 0
M  V30 21220 H 1984.22 -1.17598 1.22347 0
M  V30 21221 H 1982.99 -2.94133 2.58072 0
M  V30 21222 H 1982.61 -3.81874 1.10714 0
M  V30 21223 N 1983.61 -0.910886 -1.2861 0
M  V30 21224 C 1984.84 -0.557684 -1.99761 0
M  V30 21225 C 1985.26 0.853148 -1.67639 0
M  V30 21226 O 1984.62 1.5697 -0.907192 0
M  V30 21227 C 1984.67 -0.770188 -3.52279 0
M  V30 21228 O 1983.77 0.172155 -4.12041 0
M  V30 21229 H 1983.11 -0.216573 -0.627688 0
M  V30 21230 H 1985.64 -1.22554 -1.63834 0
M  V30 21231 H 1985.65 -0.679176 -4.02307 0
M  V30 21232 H 1984.33 -1.79869 -3.74993 0
M  V30 21233 H 1982.9 0.0326535 -3.72886 0
M  V30 21234 N 1985.09 1.42434 -0.674558 0
M  V30 21235 C 1986.33 2.01841 -0.197012 0
M  V30 21236 C 1986.67 1.53214 1.19328 0
M  V30 21237 O 1985.94 0.734239 1.80109 0
M  V30 21238 C 1986.23 3.59356 -0.231383 0
M  V30 21239 C 1986.08 4.18162 -1.65711 0
M  V30 21240 C 1987.4 4.38086 0.420535 0
M  V30 21241 H 1984.52 0.733369 -0.0730636 0
M  V30 21242 H 1987.16 1.69458 -0.859297 0
M  V30 21243 H 1985.31 3.87074 0.332539 0
M  V30 21244 H 1986.98 4.01398 -2.27327 0
M  V30 21245 H 1985.22 3.74 -2.19787 0
M  V30 21246 H 1985.89 5.27297 -1.63285 0
M  V30 21247 H 1988.37 4.16057 -0.0594985 0
M  V30 21248 H 1987.25 5.47679 0.365847 0
M  V30 21249 H 1987.51 4.15945 1.49808 0
M  V30 21250 N 1986.57 0.417871 1.51959 0
M  V30 21251 C 1987.79 -0.154295 2.06324 0
M  V30 21252 C 1988.21 -1.38123 1.28714 0
M  V30 21253 O 1987.57 -1.79279 0.341355 0
M  V30 21254 C 1987.62 -0.496014 3.58081 0
M  V30 21255 O 1987.34 0.682208 4.32756 0
M  V30 21256 C 1988.84 -1.12097 4.28893 0
M  V30 21257 H 1986.06 -0.0165345 0.670796 0
M  V30 21258 H 1988.6 0.591345 1.95764 0
M  V30 21259 H 1986.76 -1.19155 3.6862 0
M  V30 21260 H 1987.17 0.394868 5.23012 0
M  V30 21261 H 1988.65 -1.31021 5.36225 0
M  V30 21262 H 1989.12 -2.09655 3.85929 0
M  V30 21263 H 1989.73 -0.465383 4.22746 0
M  V30 21264 N 1988.04 -1.56898 0.148573 0
M  V30 21265 C 1989.27 -2.00974 -0.512287 0
M  V30 21266 C 1989.69 -1.02801 -1.57523 0
M  V30 21267 O 1989.05 -0.00400411 -1.813 0
M  V30 21268 C 1989.1 -3.43785 -1.08832 0
M  V30 21269 O 1988.2 -3.4862 -2.20313 0
M  V30 21270 H 1987.55 -0.652102 -0.125133 0
M  V30 21271 H 1990.08 -2.03119 0.245769 0
M  V30 21272 H 1990.09 -3.82618 -1.41659 0
M  V30 21273 H 1988.76 -4.14744 -0.309923 0
M  V30 21274 H 1987.34 -3.2163 -1.88702 0
M  V30 21275 N 1989.52 0.125209 -1.57102 0
M  V30 21276 C 1990.93 0.683017 -1.73758 0
M  V30 21277 C 1991.28 1.80615 -0.766324 0
M  V30 21278 O 1990.41 2.16311 0.0621742 0
M  V30 21279 C 1991 1.24576 -3.15066 0
M  V30 21280 C 1989.56 1.74992 -3.33249 0
M  V30 21281 C 1988.71 0.647107 -2.69644 0
M  V30 21282 H 1991.66 -0.100657 -1.5838 0
M  V30 21283 H 1991.68 2.11547 -3.16272 0
M  V30 21284 H 1991.19 0.4281 -3.85732 0
M  V30 21285 H 1989.3 2.59255 -2.67615 0
M  V30 21286 H 1989.41 1.86364 -4.41368 0
M  V30 21287 H 1987.77 1.07918 -2.30707 0
M  V30 21288 H 1988.56 -0.159469 -3.42929 0
M  V30 21289 N 1991 1.52564 0.395213 0
M  V30 21290 C 1991.91 1.79813 1.5068 0
M  V30 21291 C 1992.93 0.684507 1.5997 0
M  V30 21292 O 1994.1 0.971428 1.76423 0
M  V30 21293 C 1991.17 1.95567 2.86277 0
M  V30 21294 C 1990.23 3.19481 2.86759 0
M  V30 21295 C 1989.46 3.34474 4.15888 0
M  V30 21296 O 1989.68 2.54414 5.10519 0
M  V30 21297 O 1988.62 4.27698 4.23507 0
M  V30 21298 H 1992.44 2.74191 1.30586 0
M  V30 21299 H 1990.03 1.37579 0.582445 0
M  V30 21300 H 1991.91 2.07672 3.66675 0
M  V30 21301 H 1990.59 1.04378 3.0641 0
M  V30 21302 H 1989.49 3.12823 2.05164 0
M  V30 21303 H 1990.83 4.10496 2.71577 0
M  V30 21304 N 1992.48 -0.653289 1.43422 0
M  V30 21305 C 1993.43 -1.78742 1.48842 0
M  V30 21306 C 1994.42 -1.65486 0.362035 0
M  V30 21307 O 1995.63 -1.71834 0.536023 0
M  V30 21308 H 1992 -0.589724 0.466614 0
M  V30 21309 H 1993.97 -1.7129 2.4434 0
M  V30 21310 C 1992.72 -3.17 1.4285 0
M  V30 21311 H 1992.04 -3.27838 2.28828 0
M  V30 21312 H 1993.48 -3.96314 1.50704 0
M  V30 21313 C 1991.94 -3.36583 0.146093 0
M  V30 21314 O 1992.47 -3.93802 -0.792631 0
M  V30 21315 N 1990.68 -2.90545 0.0563076 0
M  V30 21316 H 1990.23 -2.44166 0.82102 0
M  V30 21317 H 1990.18 -3.04024 -0.801035 0
M  V30 21318 N 1993.96 -1.29952 -0.891648 0
M  V30 21319 C 1994.89 -1.10092 -1.99887 0
M  V30 21320 C 1995.87 -0.0104614 -1.62597 0
M  V30 21321 O 1997.05 -0.162725 -1.87796 0
M  V30 21322 C 1994.18 -0.677652 -3.31852 0
M  V30 21323 C 1993.22 -1.768 -3.88129 0
M  V30 21324 S 1994.06 -3.36899 -4.16244 0
M  V30 21325 C 1995.21 -2.96459 -5.51237 0
M  V30 21326 H 1995.45 -2.0383 -2.16427 0
M  V30 21327 H 1992.98 -1.1419 -1.03923 0
M  V30 21328 H 1994.94 -0.440168 -4.08133 0
M  V30 21329 H 1993.6 0.240259 -3.1318 0
M  V30 21330 H 1992.79 -1.42397 -4.83466 0
M  V30 21331 H 1992.39 -1.95942 -3.18564 0
M  V30 21332 H 1994.69 -2.44005 -6.32035 0
M  V30 21333 H 1995.63 -3.90678 -5.90573 0
M  V30 21334 H 1996.04 -2.3452 -5.13479 0
M  V30 21335 N 1995.44 1.1031 -1.12559 0
M  V30 21336 C 1996.4 2.14869 -0.79773 0
M  V30 21337 C 1997.4 1.59691 0.188521 0
M  V30 21338 O 1998.59 1.7416 -0.037433 0
M  V30 21339 C 1995.72 3.40394 -0.185665 0
M  V30 21340 H 1996.91 2.45384 -1.72415 0
M  V30 21341 H 1994.47 1.25694 -0.929011 0
M  V30 21342 H 1995.2 3.15499 0.750409 0
M  V30 21343 H 1994.99 3.81731 -0.895771 0
M  V30 21344 H 1996.48 4.17591 0.0271848 0
M  V30 21345 N 1996.91 0.917694 1.28125 0
M  V30 21346 C 1998.32 0.598885 1.76834 0
M  V30 21347 C 1998.68 -0.885857 1.75063 0
M  V30 21348 O 1997.8 -1.69304 1.34778 0
M  V30 21349 C 1998.4 1.08036 3.21113 0
M  V30 21350 C 1996.95 0.812402 3.67528 0
M  V30 21351 C 1996.1 1.24483 2.47789 0
M  V30 21352 H 1999.05 1.09854 1.14533 0
M  V30 21353 H 1999.07 0.423555 3.78135 0
M  V30 21354 H 1998.59 2.161 3.2237 0
M  V30 21355 H 1996.69 -0.254859 3.71727 0
M  V30 21356 H 1996.8 1.42291 4.57482 0
M  V30 21357 H 1995.16 0.663509 2.45906 0
M  V30 21358 H 1995.95 2.3339 2.51762 0
M  V30 21359 N 1998.39 -1.42074 0.682102 0
M  V30 21360 C 1999.64 -2.01037 0.206997 0
M  V30 21361 C 1999.96 -1.5424 -1.19311 0
M  V30 21362 O 1999.23 -0.767197 -1.80252 0
M  V30 21363 H 1997.81 -0.743372 0.073537 0
M  V30 21364 H 2000.47 -1.7389 0.880247 0
M  V30 21365 H 1999.57 -3.11366 0.213942 0
M  V30 21366 N 1999.87 -0.425924 -1.51735 0
M  V30 21367 C 2000.82 0.391248 -2.2746 0
M  V30 21368 C 2001.79 1.02669 -1.30569 0
M  V30 21369 O 2002.97 1.04777 -1.59457 0
M  V30 21370 C 2000.11 1.4928 -3.11142 0
M  V30 21371 C 1999.22 0.876622 -4.23012 0
M  V30 21372 C 1998.36 1.95227 -4.94024 0
M  V30 21373 C 1997.4 1.31392 -5.97832 0
M  V30 21374 N 1996.54 2.33043 -6.62296 0
M  V30 21375 H 2001.38 -0.26089 -2.96856 0
M  V30 21376 H 1998.91 -0.1405 -1.46427 0
M  V30 21377 H 2000.87 2.14262 -3.57977 0
M  V30 21378 H 1999.5 2.11473 -2.43884 0
M  V30 21379 H 1998.55 0.115399 -3.80225 0
M  V30 21380 H 1999.86 0.370471 -4.97422 0
M  V30 21381 H 1999.02 2.67897 -5.44349 0
M  V30 21382 H 1997.76 2.49212 -4.19219 0
M  V30 21383 H 1996.76 0.572626 -5.4681 0
M  V30 21384 H 1997.99 0.781544 -6.74588 0
M  V30 21385 H 1995.93 2.86129 -5.9031 0
M  V30 21386 H 1995.85 1.87287 -7.32434 0
M  V30 21387 H 1997.12 3.05231 -7.17255 0
M  V30 21388 N 2001.35 1.56817 -0.156891 0
M  V30 21389 C 2002.6 1.96051 0.490764 0
M  V30 21390 C 2002.92 1.04326 1.64746 0
M  V30 21391 O 2002.19 0.106736 1.95609 0
M  V30 21392 H 2000.77 0.72391 0.184293 0
M  V30 21393 H 2003.43 1.93482 -0.234704 0
M  V30 21394 H 2002.52 3.00007 0.86036 0
M  V30 21395 N 2002.83 -0.116876 1.57166 0
M  V30 21396 C 2004.05 -0.842338 1.89524 0
M  V30 21397 C 2004.48 -1.72543 0.749039 0
M  V30 21398 O 2003.83 -1.78795 -0.30035 0
M  V30 21399 C 2003.88 -1.64989 3.20641 0
M  V30 21400 O 2002.99 -2.75701 3.06696 0
M  V30 21401 H 2002.33 -0.232809 0.621849 0
M  V30 21402 H 2004.86 -0.0986366 2.04362 0
M  V30 21403 H 2004.87 -2.03869 3.53414 0
M  V30 21404 H 2003.54 -1.00164 4.03658 0
M  V30 21405 H 2002.12 -2.40009 2.85395 0
M  V30 21406 N 2004.3 -1.52772 -0.387116 0
M  V30 21407 C 2005.58 -1.5849 -1.14631 0
M  V30 21408 C 2005.96 -0.379228 -2.07666 0
M  V30 21409 O 2005.31 0.632297 -2.19577 0
M  V30 21410 C 2005.52 -2.92465 -1.90434 0
M  V30 21411 C 2006.87 -3.46269 -2.45729 0
M  V30 21412 O 2007.89 -2.94352 -2.00588 0
M  V30 21413 O 2006.75 -4.3698 -3.28193 0
M  V30 21414 H 2003.84 -0.639307 -0.52461 0
M  V30 21415 H 2006.39 -1.65108 -0.392117 0
M  V30 21416 H 2005.16 -3.7166 -1.22411 0
M  V30 21417 H 2004.78 -2.89241 -2.7281 0
M  V30 21418 N 2005.78 0.645673 -1.43767 0
M  V30 21419 C 2006.71 1.76974 -1.52324 0
M  V30 21420 C 2007.69 1.65862 -0.377316 0
M  V30 21421 O 2008.88 1.84843 -0.595532 0
M  V30 21422 C 2006.01 3.1544 -1.4531 0
M  V30 21423 C 2004.96 3.41324 -2.58229 0
M  V30 21424 C 2004.29 4.79669 -2.36267 0
M  V30 21425 C 2005.59 3.35321 -4.00446 0
M  V30 21426 H 2007.28 1.70069 -2.46408 0
M  V30 21427 H 2004.83 0.816784 -1.18594 0
M  V30 21428 H 2006.78 3.93838 -1.49899 0
M  V30 21429 H 2005.5 3.23093 -0.477344 0
M  V30 21430 H 2004.16 2.653 -2.53005 0
M  V30 21431 H 2003.81 4.84007 -1.36918 0
M  V30 21432 H 2003.51 4.97947 -3.11966 0
M  V30 21433 H 2005.04 5.60315 -2.42652 0
M  V30 21434 H 2006.45 4.03644 -4.07117 0
M  V30 21435 H 2004.85 3.65135 -4.76231 0
M  V30 21436 H 2005.92 2.33373 -4.25047 0
M  V30 21437 N 2007.26 1.30423 0.884744 0
M  V30 21438 C 2008.17 1.18747 2.02327 0
M  V30 21439 C 2009.19 0.107354 1.73669 0
M  V30 21440 O 2010.36 0.322332 1.98804 0
M  V30 21441 C 2007.43 0.880361 3.35336 0
M  V30 21442 C 2006.49 2.04587 3.77416 0
M  V30 21443 C 2005.72 1.75332 5.04078 0
M  V30 21444 O 2005.94 0.68135 5.66316 0
M  V30 21445 O 2004.88 2.60579 5.4257 0
M  V30 21446 H 2008.7 2.14391 2.15105 0
M  V30 21447 H 2006.29 1.10019 1.01076 0
M  V30 21448 H 2008.17 0.7243 4.15129 0
M  V30 21449 H 2006.85 -0.0461673 3.23667 0
M  V30 21450 H 2005.75 2.25726 2.98326 0
M  V30 21451 H 2007.09 2.95413 3.9369 0
M  V30 21452 N 2008.74 -1.09711 1.13142 0
M  V30 21453 C 2009.67 -2.18301 0.828662 0
M  V30 21454 C 2010.65 -1.6879 -0.210733 0
M  V30 21455 O 2011.83 -1.94073 -0.0702977 0
M  V30 21456 C 2008.96 -3.46081 0.290674 0
M  V30 21457 C 2007.92 -4.0891 1.26398 0
M  V30 21458 C 2007.24 -5.3148 0.585887 0
M  V30 21459 C 2008.54 -4.51751 2.62142 0
M  V30 21460 H 2010.24 -2.43885 1.73668 0
M  V30 21461 H 2007.78 -1.17216 0.836449 0
M  V30 21462 H 2009.74 -4.21347 0.0665509 0
M  V30 21463 H 2008.46 -3.20011 -0.652716 0
M  V30 21464 H 2007.12 -3.3566 1.47405 0
M  V30 21465 H 2006.77 -5.01689 -0.362883 0
M  V30 21466 H 2006.47 -5.7447 1.23522 0
M  V30 21467 H 2007.99 -6.09472 0.370976 0
M  V30 21468 H 2009.41 -5.18255 2.45121 0
M  V30 21469 H 2007.8 -5.05615 3.23223 0
M  V30 21470 H 2008.87 -3.64297 3.20025 0
M  V30 21471 N 2010.22 -0.924476 -1.27637 0
M  V30 21472 C 2011.15 -0.438348 -2.29349 0
M  V30 21473 C 2012.13 0.499673 -1.62595 0
M  V30 21474 O 2013.31 0.405114 -1.89928 0
M  V30 21475 C 2010.44 0.312668 -3.4589 0
M  V30 21476 C 2009.4 -0.537216 -4.24615 0
M  V30 21477 C 2008.72 0.342776 -5.336 0
M  V30 21478 C 2010.02 -1.80003 -4.90302 0
M  V30 21479 H 2011.72 -1.28838 -2.70261 0
M  V30 21480 H 2009.26 -0.620964 -1.29923 0
M  V30 21481 H 2011.22 0.66367 -4.16141 0
M  V30 21482 H 2009.94 1.1967 -3.03886 0
M  V30 21483 H 2008.6 -0.870883 -3.56106 0
M  V30 21484 H 2008.25 1.22567 -4.87838 0
M  V30 21485 H 2007.95 -0.222352 -5.87179 0
M  V30 21486 H 2009.47 0.689422 -6.06695 0
M  V30 21487 H 2010.88 -1.51729 -5.52857 0
M  V30 21488 H 2009.28 -2.3084 -5.53925 0
M  V30 21489 H 2010.35 -2.52148 -4.14186 0
M  V30 21490 N 2011.69 1.41711 -0.689627 0
M  V30 21491 C 2012.92 2.06171 -0.225425 0
M  V30 21492 C 2013.34 1.51535 1.11439 0
M  V30 21493 O 2012.7 0.639865 1.69633 0
M  V30 21494 C 2012.75 3.60114 -0.187089 0
M  V30 21495 O 2011.85 4.03757 0.83989 0
M  V30 21496 H 2011.2 0.654551 -0.111621 0
M  V30 21497 H 2013.73 1.81582 -0.942814 0
M  V30 21498 H 2013.74 4.07997 -0.0159369 0
M  V30 21499 H 2012.41 3.99251 -1.16497 0
M  V30 21500 H 2010.99 3.67392 0.638575 0
M  V30 21501 N 2013.17 0.433965 1.51507 0
M  V30 21502 C 2014.4 -0.134793 2.06962 0
M  V30 21503 C 2014.82 -1.35984 1.29962 0
M  V30 21504 O 2014.18 -1.78147 0.336629 0
M  V30 21505 C 2014.23 -0.438976 3.57918 0
M  V30 21506 O 2013.33 -1.52599 3.83128 0
M  V30 21507 H 2012.67 -0.00334493 0.663992 0
M  V30 21508 H 2015.2 0.614327 1.95159 0
M  V30 21509 H 2015.21 -0.690415 4.02116 0
M  V30 21510 H 2013.89 0.456413 4.13388 0
M  V30 21511 H 2012.47 -1.26478 3.50796 0
M  V30 21512 N 2014.65 -1.56732 0.165206 0
M  V30 21513 C 2015.58 -2.20674 -0.763223 0
M  V30 21514 C 2016.56 -1.16048 -1.24366 0
M  V30 21515 O 2017.75 -1.44456 -1.29793 0
M  V30 21516 C 2014.88 -2.84269 -1.9952 0
M  V30 21517 C 2013.83 -3.94881 -1.65085 0
M  V30 21518 C 2013.16 -4.45496 -2.95698 0
M  V30 21519 C 2014.46 -5.14773 -0.883543 0
M  V30 21520 H 2016.15 -2.98513 -0.230254 0
M  V30 21521 H 2013.7 -1.43585 -0.109308 0
M  V30 21522 H 2015.65 -3.27674 -2.64967 0
M  V30 21523 H 2014.37 -2.03789 -2.55221 0
M  V30 21524 H 2013.03 -3.52122 -1.0201 0
M  V30 21525 H 2012.68 -3.61815 -3.49426 0
M  V30 21526 H 2012.38 -5.20114 -2.73414 0
M  V30 21527 H 2013.9 -4.91584 -3.62185 0
M  V30 21528 H 2015.32 -5.54908 -1.44047 0
M  V30 21529 H 2013.72 -5.95268 -0.759968 0
M  V30 21530 H 2014.79 -4.84748 0.121303 0
M  V30 21531 N 2016.13 0.10854 -1.57226 0
M  V30 21532 C 2017.06 1.13362 -2.04135 0
M  V30 21533 C 2018.04 1.42573 -0.927733 0
M  V30 21534 O 2019.22 1.52835 -1.19813 0
M  V30 21535 C 2016.35 2.45708 -2.45449 0
M  V30 21536 C 2015.31 2.30935 -3.60351 0
M  V30 21537 C 2014.63 3.68337 -3.87597 0
M  V30 21538 C 2015.93 1.76112 -4.91713 0
M  V30 21539 H 2017.63 0.74341 -2.90024 0
M  V30 21540 H 2015.17 0.356157 -1.39526 0
M  V30 21541 H 2017.13 3.17679 -2.76872 0
M  V30 21542 H 2015.85 2.86639 -1.56544 0
M  V30 21543 H 2014.51 1.61411 -3.29153 0
M  V30 21544 H 2014.16 4.06772 -2.95881 0
M  V30 21545 H 2013.86 3.59303 -4.64946 0
M  V30 21546 H 2015.38 4.41797 -4.21483 0
M  V30 21547 H 2016.8 2.3791 -5.21605 0
M  V30 21548 H 2015.19 1.77872 -5.73133 0
M  V30 21549 H 2016.26 0.71947 -4.79533 0
M  V30 21550 N 2017.61 1.52975 0.379009 0
M  V30 21551 C 2019.02 1.60338 0.956477 0
M  V30 21552 C 2019.37 0.462422 1.90673 0
M  V30 21553 O 2018.49 -0.413093 2.12421 0
M  V30 21554 C 2019.09 2.90615 1.74151 0
M  V30 21555 C 2017.65 3.00358 2.26853 0
M  V30 21556 C 2016.79 2.55532 1.07697 0
M  V30 21557 H 2019.75 1.57909 0.158228 0
M  V30 21558 H 2019.77 2.77662 2.60161 0
M  V30 21559 H 2019.28 3.73636 1.04965 0
M  V30 21560 H 2017.38 2.21895 2.99321 0
M  V30 21561 H 2017.49 4.05188 2.55655 0
M  V30 21562 H 2015.86 2.10088 1.43997 0
M  V30 21563 H 2016.64 3.40958 0.400297 0
M  V30 21564 N 2019.08 -0.63804 1.44107 0
M  V30 21565 C 2020.02 -1.76333 1.46421 0
M  V30 21566 C 2021.03 -1.58805 0.358429 0
M  V30 21567 O 2022.22 -1.67246 0.623768 0
M  V30 21568 C 2019.32 -3.13967 1.27586 0
M  V30 21569 C 2018.49 -3.58016 2.51283 0
M  V30 21570 C 2017.55 -4.74503 2.27449 0
M  V30 21571 O 2016.58 -4.83167 3.00895 0
M  V30 21572 N 2017.78 -5.6574 1.3007 0
M  V30 21573 H 2020.54 -1.74822 2.43429 0
M  V30 21574 H 2018.1 -0.822384 1.39458 0
M  V30 21575 H 2020.1 -3.89605 1.09499 0
M  V30 21576 H 2018.67 -3.10162 0.389684 0
M  V30 21577 H 2017.89 -2.7266 2.84693 0
M  V30 21578 H 2019.17 -3.84197 3.33572 0
M  V30 21579 H 2018.57 -5.61427 0.693968 0
M  V30 21580 H 2017.13 -6.41037 1.17964 0
M  V30 21581 N 2020.56 -1.3089 -0.877815 0
M  V30 21582 C 2021.49 -1.20459 -2.0003 0
M  V30 21583 C 2022.47 -0.0935765 -1.69842 0
M  V30 21584 O 2023.66 -0.276838 -1.92217 0
M  V30 21585 C 2020.79 -0.903041 -3.35354 0
M  V30 21586 C 2019.74 -1.97277 -3.79823 0
M  V30 21587 C 2019.07 -1.52407 -5.12519 0
M  V30 21588 C 2020.37 -3.38484 -3.97776 0
M  V30 21589 H 2022.06 -2.14367 -2.09014 0
M  V30 21590 H 2019.61 -1.03203 -1.00425 0
M  V30 21591 H 2021.56 -0.816699 -4.1341 0
M  V30 21592 H 2020.29 0.0717143 -3.26521 0
M  V30 21593 H 2018.94 -2.04887 -3.04001 0
M  V30 21594 H 2018.59 -0.537386 -5.00121 0
M  V30 21595 H 2018.29 -2.23964 -5.43244 0
M  V30 21596 H 2019.82 -1.45165 -5.93093 0
M  V30 21597 H 2021.23 -3.33593 -4.6625 0
M  V30 21598 H 2019.63 -4.0819 -4.39887 0
M  V30 21599 H 2020.7 -3.79847 -3.01403 0
M  V30 21600 N 2022.04 1.0911 -1.13723 0
M  V30 21601 C 2023.27 1.85108 -0.924265 0
M  V30 21602 C 2023.68 1.81295 0.527025 0
M  V30 21603 O 2023.04 1.21144 1.36493 0
M  V30 21604 C 2023.09 3.3295 -1.40807 0
M  V30 21605 O 2022.81 3.36738 -2.80249 0
M  V30 21606 C 2024.31 4.25778 -1.23401 0
M  V30 21607 H 2021.53 0.584594 -0.329379 0
M  V30 21608 H 2024.08 1.37847 -1.51058 0
M  V30 21609 H 2022.23 3.77627 -0.864679 0
M  V30 21610 H 2022.65 4.28973 -3.01799 0
M  V30 21611 H 2024.12 5.27655 -1.62123 0
M  V30 21612 H 2024.6 4.38847 -0.176058 0
M  V30 21613 H 2025.2 3.8692 -1.76559 0
M  V30 21614 N 2023.52 0.931232 1.27145 0
M  V30 21615 C 2024.77 0.572394 1.93825 0
M  V30 21616 C 2025.09 -0.88981 1.73515 0
M  V30 21617 O 2024.36 -1.63113 1.08494 0
M  V30 21618 H 2022.94 0.2087 0.717254 0
M  V30 21619 H 2025.6 1.18439 1.54784 0
M  V30 21620 H 2024.7 0.781679 3.02153 0
M  V30 21621 N 2025 -1.41343 0.697132 0
M  V30 21622 C 2026.41 -1.84219 0.303361 0
M  V30 21623 C 2026.76 -1.58328 -1.15874 0
M  V30 21624 O 2025.88 -1.05454 -1.88967 0
M  V30 21625 C 2026.48 -3.34407 0.543815 0
M  V30 21626 C 2025.04 -3.75847 0.203944 0
M  V30 21627 C 2024.19 -2.64733 0.825329 0
M  V30 21628 H 2027.14 -1.30872 0.897671 0
M  V30 21629 H 2027.16 -3.7999 -0.196975 0
M  V30 21630 H 2026.67 -3.5322 1.60802 0
M  V30 21631 H 2024.77 -3.62635 -0.855939 0
M  V30 21632 H 2024.88 -4.74531 0.660055 0
M  V30 21633 H 2023.25 -2.53422 0.254806 0
M  V30 21634 H 2024.03 -2.86363 1.89344 0
M  V30 21635 N 2026.48 -0.441993 -1.51275 0
M  V30 21636 C 2027.72 0.123093 -2.02426 0
M  V30 21637 C 2028.05 1.41953 -1.32525 0
M  V30 21638 O 2027.33 1.8942 -0.44164 0
M  V30 21639 C 2027.61 0.337043 -3.58519 0
M  V30 21640 C 2027.47 -0.978373 -4.39031 0
M  V30 21641 C 2028.78 1.10474 -4.26009 0
M  V30 21642 H 2025.9 0.0432623 -0.735729 0
M  V30 21643 H 2028.55 -0.581901 -1.8087 0
M  V30 21644 H 2026.7 0.93756 -3.77017 0
M  V30 21645 H 2028.37 -1.61323 -4.32172 0
M  V30 21646 H 2026.61 -1.58189 -4.03929 0
M  V30 21647 H 2027.28 -0.78266 -5.46423 0
M  V30 21648 H 2029.76 0.596021 -4.11809 0
M  V30 21649 H 2028.63 1.22321 -5.35097 0
M  V30 21650 H 2028.89 2.13401 -3.87185 0
M  V30 21651 N 2027.95 1.56642 -0.173515 0
M  V30 21652 C 2028.88 2.21076 0.751509 0
M  V30 21653 C 2029.86 1.16706 1.23749 0
M  V30 21654 O 2031.05 1.45142 1.29025 0
M  V30 21655 C 2028.18 2.85323 1.9801 0
M  V30 21656 C 2027.13 3.95751 1.62989 0
M  V30 21657 C 2026.46 4.47058 2.93332 0
M  V30 21658 C 2027.76 5.15234 0.856231 0
M  V30 21659 H 2029.45 2.98631 0.21442 0
M  V30 21660 H 2027 1.4364 0.101692 0
M  V30 21661 H 2028.95 3.29075 2.63226 0
M  V30 21662 H 2027.68 2.0514 2.54136 0
M  V30 21663 H 2026.34 3.52658 1.00141 0
M  V30 21664 H 2025.98 3.63663 3.47503 0
M  V30 21665 H 2025.68 5.21556 2.70652 0
M  V30 21666 H 2027.21 4.93497 3.59573 0
M  V30 21667 H 2028.62 5.55665 1.41102 0
M  V30 21668 H 2027.02 5.95663 0.728389 0
M  V30 21669 H 2028.09 4.84677 -0.147009 0
M  V30 21670 N 2029.43 -0.1002 1.57281 0
M  V30 21671 C 2030.34 -1.14039 2.05018 0
M  V30 21672 C 2031.36 -1.44178 0.974096 0
M  V30 21673 O 2032.53 -1.54921 1.28691 0
M  V30 21674 C 2029.6 -2.44226 2.46078 0
M  V30 21675 C 2028.66 -2.21315 3.67856 0
M  V30 21676 C 2027.89 -3.45295 4.06948 0
M  V30 21677 O 2028.12 -4.53334 3.46185 0
M  V30 21678 O 2027.05 -3.35185 4.99935 0
M  V30 21679 H 2030.88 -0.764957 2.93908 0
M  V30 21680 H 2028.46 -0.312347 1.46098 0
M  V30 21681 H 2030.34 -3.20895 2.73138 0
M  V30 21682 H 2029.02 -2.81206 1.60327 0
M  V30 21683 H 2027.92 -1.42444 3.4592 0
M  V30 21684 H 2029.26 -1.89231 4.54371 0
M  V30 21685 N 2030.91 -1.53174 -0.370891 0
M  V30 21686 C 2031.84 -1.82213 -1.46017 0
M  V30 21687 C 2032.82 -0.675274 -1.56122 0
M  V30 21688 O 2034.01 -0.924614 -1.70776 0
M  V30 21689 C 2031.14 -2.00727 -2.83419 0
M  V30 21690 C 2030.09 -3.16478 -2.88141 0
M  V30 21691 C 2029.42 -3.20276 -4.28167 0
M  V30 21692 C 2030.72 -4.55179 -2.56143 0
M  V30 21693 H 2032.41 -2.73432 -1.21965 0
M  V30 21694 H 2029.96 -1.31569 -0.585288 0
M  V30 21695 H 2031.91 -2.19625 -3.59643 0
M  V30 21696 H 2030.63 -1.06213 -3.08847 0
M  V30 21697 H 2029.29 -2.97392 -2.14367 0
M  V30 21698 H 2028.94 -2.2341 -4.50663 0
M  V30 21699 H 2028.64 -3.98044 -4.32244 0
M  V30 21700 H 2030.16 -3.41352 -5.06272 0
M  V30 21701 H 2031.58 -4.74274 -3.22082 0
M  V30 21702 H 2029.97 -5.35148 -2.71544 0
M  V30 21703 H 2031.04 -4.60654 -1.51412 0
M  V30 21704 N 2032.39 0.630389 -1.44443 0
M  V30 21705 C 2033.8 1.21202 -1.4201 0
M  V30 21706 C 2034.15 1.95729 -0.135833 0
M  V30 21707 O 2033.27 2.02474 0.763765 0
M  V30 21708 C 2033.87 2.20458 -2.57262 0
M  V30 21709 C 2032.43 2.74047 -2.58021 0
M  V30 21710 C 2031.58 1.49058 -2.33831 0
M  V30 21711 H 2034.53 0.421022 -1.53013 0
M  V30 21712 H 2034.55 3.03074 -2.30057 0
M  V30 21713 H 2034.06 1.66188 -3.50718 0
M  V30 21714 H 2032.16 3.32319 -1.68509 0
M  V30 21715 H 2032.27 3.20036 -3.56531 0
M  V30 21716 H 2030.64 1.77216 -1.82939 0
M  V30 21717 H 2031.42 0.96689 -3.29403 0
M  V30 21718 N 2033.87 1.31354 0.870861 0
M  V30 21719 C 2034.78 1.20887 2.01056 0
M  V30 21720 C 2035.79 0.125768 1.73545 0
M  V30 21721 O 2036.97 0.3434 1.98451 0
M  V30 21722 C 2034.03 0.915879 3.34384 0
M  V30 21723 C 2033.09 2.08579 3.75225 0
M  V30 21724 C 2032.33 1.80668 5.0219 0
M  V30 21725 O 2032.55 0.741377 5.65561 0
M  V30 21726 O 2031.48 2.66319 5.39776 0
M  V30 21727 H 2035.31 2.16661 2.12819 0
M  V30 21728 H 2032.89 1.11084 0.999031 0
M  V30 21729 H 2034.78 0.768289 4.14337 0
M  V30 21730 H 2033.45 -0.0118355 3.23698 0
M  V30 21731 H 2032.36 2.28877 2.95916 0
M  V30 21732 H 2033.69 2.99572 3.90535 0
M  V30 21733 N 2035.34 -1.08505 1.143 0
M  V30 21734 C 2036.31 -2.13573 0.831813 0
M  V30 21735 C 2037.31 -1.59971 -0.163092 0
M  V30 21736 O 2038.5 -1.74078 0.0651356 0
M  V30 21737 C 2035.63 -3.40056 0.239795 0
M  V30 21738 H 2036.82 -2.4261 1.76297 0
M  V30 21739 H 2034.37 -1.24201 0.94889 0
M  V30 21740 H 2035.11 -3.16652 -0.700121 0
M  V30 21741 H 2034.89 -3.80257 0.956388 0
M  V30 21742 H 2036.38 -4.17582 0.0392538 0
M  V30 21743 N 2036.82 -0.937962 -1.26649 0
M  V30 21744 C 2038.07 -0.57958 -1.93194 0
M  V30 21745 C 2038.38 0.88505 -1.74431 0
M  V30 21746 O 2039.59 1.35267 -2.35404 0
M  V30 21747 C 2038.05 -0.985803 -3.46136 0
M  V30 21748 C 2037.65 -2.47182 -3.73637 0
M  V30 21749 C 2039.4 -0.699162 -4.18703 0
M  V30 21750 C 2037.3 -2.81691 -5.20004 0
M  V30 21751 H 2036.23 -0.213046 -0.723275 0
M  V30 21752 H 2038.89 -1.14017 -1.43779 0
M  V30 21753 H 2037.27 -0.353775 -3.94417 0
M  V30 21754 H 2038.44 -3.15263 -3.36075 0
M  V30 21755 H 2036.76 -2.73143 -3.14296 0
M  V30 21756 H 2039.35 -0.933359 -5.26491 0
M  V30 21757 H 2039.7 0.363979 -4.14706 0
M  V30 21758 H 2040.23 -1.29076 -3.76277 0
M  V30 21759 H 2036.97 -3.86955 -5.29099 0
M  V30 21760 H 2036.49 -2.1827 -5.58675 0
M  V30 21761 H 2038.17 -2.69984 -5.87978 0
M  V30 21762 N 2038.3 1.40971 -0.704618 0
M  V30 21763 C 2039.72 1.55082 -0.377067 0
M  V30 21764 C 2039.92 1.67827 1.11518 0
M  V30 21765 O 2038.97 1.66173 1.90112 0
M  V30 21766 C 2040.28 2.78517 -1.13352 0
M  V30 21767 C 2041.83 2.92323 -1.11875 0
M  V30 21768 C 2042.31 4.18658 -1.85714 0
M  V30 21769 N 2043.8 4.25635 -1.82728 0
M  V30 21770 C 2044.53 5.22268 -2.36693 0
M  V30 21771 N 2044.03 6.24877 -2.99167 0
M  V30 21772 N 2045.82 5.14271 -2.26897 0
M  V30 21773 H 2037.97 1.30944 -1.67235 0
M  V30 21774 H 2040.24 0.632393 -0.706246 0
M  V30 21775 H 2039.94 2.75339 -2.18818 0
M  V30 21776 H 2039.82 3.70304 -0.717978 0
M  V30 21777 H 2042.2 2.95011 -0.0723296 0
M  V30 21778 H 2042.28 2.01685 -1.57343 0
M  V30 21779 H 2041.93 4.16732 -2.9034 0
M  V30 21780 H 2041.86 5.08285 -1.37674 0
M  V30 21781 H 2044.35 3.52119 -1.37187 0
M  V30 21782 H 2044.66 6.95019 -3.37889 0
M  V30 21783 H 2043.01 6.25353 -3.03247 0
M  V30 21784 H 2046.2 4.33037 -1.77755 0
M  V30 21785 H 2046.37 5.89411 -2.69256 0
M  V30 21786 N 2039.78 0.45001 1.51039 0
M  V30 21787 C 2040.74 -0.343489 2.26612 0
M  V30 21788 C 2041.74 -0.938789 1.3055 0
M  V30 21789 O 2042.93 -0.811258 1.54157 0
M  V30 21790 C 2040.06 -1.48719 3.0675 0
M  V30 21791 H 2041.26 0.318996 2.98199 0
M  V30 21792 H 2038.81 0.2035 1.5497 0
M  V30 21793 H 2039.54 -2.18535 2.3961 0
M  V30 21794 H 2039.33 -1.06636 3.77321 0
M  V30 21795 H 2040.82 -2.04748 3.63961 0
M  V30 21796 N 2041.26 -1.56548 0.18182 0
M  V30 21797 C 2042.67 -1.83704 -0.3331 0
M  V30 21798 C 2043.02 -1.10203 -1.62326 0
M  V30 21799 O 2042.14 -0.358476 -2.1341 0
M  V30 21800 C 2042.74 -3.33243 -0.611134 0
M  V30 21801 C 2041.3 -3.60857 -1.07046 0
M  V30 21802 C 2040.44 -2.77074 -0.111929 0
M  V30 21803 H 2043.4 -1.53422 0.405878 0
M  V30 21804 H 2043.42 -3.51292 -1.462 0
M  V30 21805 H 2042.93 -3.86711 0.328039 0
M  V30 21806 H 2041.03 -3.1281 -2.02437 0
M  V30 21807 H 2041.14 -4.69129 -0.972357 0
M  V30 21808 H 2039.51 -2.47255 -0.611302 0
M  V30 21809 H 2040.29 -3.33327 0.821452 0
M  V30 21810 N 2042.73 0.0918577 -1.57332 0
M  V30 21811 C 2043.66 1.11191 -2.05326 0
M  V30 21812 C 2044.65 1.41581 -0.942802 0
M  V30 21813 O 2045.83 1.51555 -1.21428 0
M  V30 21814 C 2042.96 2.4309 -2.48041 0
M  V30 21815 C 2041.91 2.271 -3.6278 0
M  V30 21816 C 2041.24 3.64205 -3.91482 0
M  V30 21817 C 2042.54 1.70886 -4.93554 0
M  V30 21818 H 2044.23 0.712608 -2.90796 0
M  V30 21819 H 2041.78 0.341338 -1.39896 0
M  V30 21820 H 2043.73 3.14724 -2.80226 0
M  V30 21821 H 2042.46 2.84962 -1.59575 0
M  V30 21822 H 2041.12 1.57911 -3.30847 0
M  V30 21823 H 2040.76 4.03611 -3.00179 0
M  V30 21824 H 2040.46 3.54352 -4.68731 0
M  V30 21825 H 2041.99 4.37302 -4.26145 0
M  V30 21826 H 2043.4 2.32364 -5.24099 0
M  V30 21827 H 2041.8 1.71783 -5.74987 0
M  V30 21828 H 2042.87 0.668569 -4.80269 0
M  V30 21829 N 2044.21 1.53368 0.362763 0
M  V30 21830 C 2045.12 1.82969 1.46832 0
M  V30 21831 C 2046.14 0.718285 1.58482 0
M  V30 21832 O 2047.31 1.00863 1.74323 0
M  V30 21833 C 2044.38 2.01596 2.82064 0
M  V30 21834 C 2043.44 3.25491 2.79918 0
M  V30 21835 C 2042.67 3.4322 4.087 0
M  V30 21836 O 2042.9 2.65185 5.05008 0
M  V30 21837 O 2041.83 4.36585 4.1434 0
M  V30 21838 H 2045.66 2.769 1.24741 0
M  V30 21839 H 2043.24 1.38783 0.553131 0
M  V30 21840 H 2045.12 2.15403 3.62187 0
M  V30 21841 H 2043.8 1.10854 3.04127 0
M  V30 21842 H 2042.71 3.17105 1.98483 0
M  V30 21843 H 2044.04 4.16164 2.62809 0
M  V30 21844 N 2045.69 -0.62272 1.44776 0
M  V30 21845 C 2046.6 -1.76282 1.54796 0
M  V30 21846 C 2047.62 -1.68522 0.433164 0
M  V30 21847 O 2048.79 -1.89149 0.691713 0
M  V30 21848 C 2045.86 -3.12697 1.49737 0
M  V30 21849 C 2044.92 -3.32026 2.72135 0
M  V30 21850 C 2044.15 -4.61933 2.67308 0
M  V30 21851 O 2044.37 -5.43282 1.73783 0
M  V30 21852 O 2043.31 -4.83646 3.58288 0
M  V30 21853 H 2047.13 -1.70781 2.51133 0
M  V30 21854 H 2044.72 -0.784974 1.27116 0
M  V30 21855 H 2046.6 -3.94001 1.4947 0
M  V30 21856 H 2045.28 -3.18723 0.565471 0
M  V30 21857 H 2044.18 -2.50368 2.77969 0
M  V30 21858 H 2045.52 -3.30868 3.644 0
M  V30 21859 N 2047.17 -1.31814 -0.863883 0
M  V30 21860 C 2048.1 -1.22574 -1.98741 0
M  V30 21861 C 2049.08 -0.111585 -1.69734 0
M  V30 21862 O 2050.26 -0.29721 -1.91912 0
M  V30 21863 C 2047.39 -0.938559 -3.34378 0
M  V30 21864 C 2046.35 -2.01295 -3.7771 0
M  V30 21865 C 2045.67 -1.57834 -5.10874 0
M  V30 21866 C 2046.97 -3.42684 -3.94164 0
M  V30 21867 H 2048.67 -2.16572 -2.06729 0
M  V30 21868 H 2046.21 -1.04262 -0.993246 0
M  V30 21869 H 2048.17 -0.860501 -4.12521 0
M  V30 21870 H 2046.89 0.0370783 -3.26579 0
M  V30 21871 H 2045.55 -2.081 -3.01811 0
M  V30 21872 H 2045.2 -0.5904 -4.99523 0
M  V30 21873 H 2044.9 -2.29713 -5.40838 0
M  V30 21874 H 2046.42 -1.51448 -5.9152 0
M  V30 21875 H 2047.84 -3.38519 -4.62685 0
M  V30 21876 H 2046.23 -4.12833 -4.35533 0
M  V30 21877 H 2047.3 -3.83023 -2.97358 0
M  V30 21878 N 2048.65 1.07897 -1.14873 0
M  V30 21879 C 2049.58 2.1431 -0.784 0
M  V30 21880 C 2050.56 1.60863 0.237031 0
M  V30 21881 O 2051.74 1.88086 0.124878 0
M  V30 21882 C 2048.87 3.38298 -0.164893 0
M  V30 21883 C 2047.91 4.10509 -1.15693 0
M  V30 21884 S 2048.75 4.62654 -2.69651 0
M  V30 21885 C 2049.9 5.89923 -2.09144 0
M  V30 21886 H 2050.14 2.44918 -1.68531 0
M  V30 21887 H 2047.67 1.20086 -0.9705 0
M  V30 21888 H 2049.63 4.10079 0.18588 0
M  V30 21889 H 2048.29 3.05879 0.713926 0
M  V30 21890 H 2047.48 4.99502 -0.671859 0
M  V30 21891 H 2047.08 3.44665 -1.45196 0
M  V30 21892 H 2049.38 6.618 -1.45008 0
M  V30 21893 H 2050.32 6.43135 -2.96282 0
M  V30 21894 H 2050.73 5.43181 -1.5367 0
M  V30 21895 N 2050.12 0.944665 1.2615 0
M  V30 21896 C 2051.06 0.401268 2.24644 0
M  V30 21897 C 2052.04 -0.511856 1.54333 0
M  V30 21898 O 2053.22 -0.44851 1.83086 0
M  V30 21899 C 2050.35 -0.423081 3.36047 0
M  V30 21900 C 2049.39 0.429013 4.24337 0
M  V30 21901 S 2050.23 1.85512 5.0234 0
M  V30 21902 C 2051.38 1.03892 6.17217 0
M  V30 21903 H 2051.61 1.236 2.70389 0
M  V30 21904 H 2049.15 0.748025 1.3507 0
M  V30 21905 H 2051.11 -0.892789 4.00674 0
M  V30 21906 H 2049.77 -1.23253 2.88907 0
M  V30 21907 H 2048.96 -0.202757 5.03592 0
M  V30 21908 H 2048.56 0.833541 3.64593 0
M  V30 21909 H 2050.85 0.282839 6.76909 0
M  V30 21910 H 2051.8 1.80505 6.84707 0
M  V30 21911 H 2052.2 0.573442 5.6158 0
M  V30 21912 N 2051.6 -1.40596 0.712085 0
M  V30 21913 C 2052.51 -2.34528 0.0582122 0
M  V30 21914 C 2053.53 -1.57115 -0.747715 0
M  V30 21915 O 2054.7 -1.8952 -0.681477 0
M  V30 21916 C 2051.77 -3.35992 -0.855008 0
M  V30 21917 C 2050.83 -4.29282 -0.0394267 0
M  V30 21918 C 2050.06 -5.25899 -0.909154 0
M  V30 21919 O 2050.29 -5.28392 -2.14845 0
M  V30 21920 O 2049.22 -6.00881 -0.350012 0
M  V30 21921 H 2053.05 -2.92055 0.832915 0
M  V30 21922 H 2050.63 -1.4173 0.472537 0
M  V30 21923 H 2052.51 -3.98225 -1.3782 0
M  V30 21924 H 2051.19 -2.80883 -1.60892 0
M  V30 21925 H 2050.1 -3.70344 0.528757 0
M  V30 21926 H 2051.43 -4.87533 0.676185 0
M  V30 21927 N 2053.08 -0.458013 -1.50798 0
M  V30 21928 C 2054.33 0.101266 -2.01846 0
M  V30 21929 C 2054.65 1.41388 -1.34293 0
M  V30 21930 O 2053.92 1.89826 -0.484035 0
M  V30 21931 H 2052.5 0.0404137 -0.745906 0
M  V30 21932 H 2055.16 -0.605448 -1.85257 0
M  V30 21933 H 2054.26 0.262253 -3.10996 0
M  V30 21934 N 2054.56 1.56449 -0.190119 0
M  V30 21935 C 2055.84 1.89172 0.497312 0
M  V30 21936 C 2056.22 1.1029 1.79998 0
M  V30 21937 O 2055.56 0.202471 2.27601 0
M  V30 21938 C 2055.77 3.41472 0.720941 0
M  V30 21939 C 2057.12 4.11602 1.04254 0
M  V30 21940 O 2058.15 3.46895 0.808835 0
M  V30 21941 O 2057.01 5.25955 1.48438 0
M  V30 21942 H 2054.1 0.785518 0.258632 0
M  V30 21943 H 2056.65 1.68135 -0.229961 0
M  V30 21944 H 2055.42 3.90793 -0.199197 0
M  V30 21945 H 2055.04 3.68185 1.50085 0
M  V30 21946 N 2056.04 -0.0835127 1.57379 0
M  V30 21947 C 2056.97 -1.101 2.05913 0
M  V30 21948 C 2057.95 -1.41079 0.950298 0
M  V30 21949 O 2059.13 -1.50909 1.2223 0
M  V30 21950 C 2056.26 -2.41772 2.49327 0
M  V30 21951 C 2055.22 -2.25173 3.63979 0
M  V30 21952 C 2054.54 -3.62124 3.93408 0
M  V30 21953 C 2055.84 -1.68267 4.94453 0
M  V30 21954 H 2057.54 -0.697176 2.9117 0
M  V30 21955 H 2055.08 -0.333914 1.40075 0
M  V30 21956 H 2057.04 -3.13234 2.81891 0
M  V30 21957 H 2055.76 -2.84112 1.61084 0
M  V30 21958 H 2054.42 -1.56154 3.3168 0
M  V30 21959 H 2054.07 -4.02013 3.02315 0
M  V30 21960 H 2053.77 -3.51861 4.70603 0
M  V30 21961 H 2055.29 -4.35036 4.28458 0
M  V30 21962 H 2056.71 -2.29582 5.25324 0
M  V30 21963 H 2055.1 -1.68731 5.7589 0
M  V30 21964 H 2056.17 -0.64309 4.80617 0
M  V30 21965 N 2057.52 -1.53558 -0.354624 0
M  V30 21966 C 2058.45 -1.83751 -1.44076 0
M  V30 21967 C 2059.43 -0.691795 -1.55397 0
M  V30 21968 O 2060.61 -0.942676 -1.69786 0
M  V30 21969 C 2057.74 -2.03721 -2.81274 0
M  V30 21970 C 2056.7 -3.19517 -2.84769 0
M  V30 21971 C 2056.02 -3.248 -4.24746 0
M  V30 21972 C 2057.32 -4.5787 -2.51301 0
M  V30 21973 H 2059.02 -2.7471 -1.19058 0
M  V30 21974 H 2056.56 -1.32182 -0.5713 0
M  V30 21975 H 2058.51 -2.23427 -3.57293 0
M  V30 21976 H 2057.24 -1.09482 -3.07703 0
M  V30 21977 H 2055.9 -2.99649 -2.11201 0
M  V30 21978 H 2055.55 -2.28177 -4.48268 0
M  V30 21979 H 2055.25 -4.02606 -4.27998 0
M  V30 21980 H 2056.77 -3.46702 -5.02623 0
M  V30 21981 H 2058.18 -4.77663 -3.17034 0
M  V30 21982 H 2056.58 -5.37998 -2.65853 0
M  V30 21983 H 2057.65 -4.62234 -1.46518 0
M  V30 21984 N 2058.99 0.615033 -1.45104 0
M  V30 21985 C 2059.9 1.75459 -1.55728 0
M  V30 21986 C 2060.92 1.6829 -0.442095 0
M  V30 21987 O 2062.1 1.88779 -0.701735 0
M  V30 21988 C 2059.16 3.11899 -1.51394 0
M  V30 21989 C 2058.22 3.30578 -2.73892 0
M  V30 21990 C 2057.45 4.60509 -2.69754 0
M  V30 21991 O 2057.68 5.42353 -1.76662 0
M  V30 21992 O 2056.61 4.81739 -3.60848 0
M  V30 21993 H 2060.44 1.69447 -2.52035 0
M  V30 21994 H 2058.02 0.778221 -1.27531 0
M  V30 21995 H 2059.9 3.93203 -1.51557 0
M  V30 21996 H 2058.58 3.18418 -0.582365 0
M  V30 21997 H 2057.49 2.48891 -2.79292 0
M  V30 21998 H 2058.82 3.2893 -3.6615 0
M  V30 21999 N 2060.47 1.3227 0.85688 0
M  V30 22000 C 2061.72 1.22885 1.61329 0
M  V30 22001 C 2062.05 -0.209425 1.93067 0
M  V30 22002 O 2061.33 -1.14596 1.57156 0
M  V30 22003 C 2061.61 2.0863 2.93506 0
M  V30 22004 C 2061.46 3.60824 2.68563 0
M  V30 22005 C 2062.78 1.94573 3.94752 0
M  V30 22006 H 2059.9 0.447751 0.585395 0
M  V30 22007 H 2062.54 1.62193 0.989615 0
M  V30 22008 H 2060.69 1.75236 3.46734 0
M  V30 22009 H 2062.36 4.0442 2.21906 0
M  V30 22010 H 2060.61 3.83601 2.02566 0
M  V30 22011 H 2061.28 4.16143 3.6267 0
M  V30 22012 H 2063.75 2.23822 3.50775 0
M  V30 22013 H 2062.63 2.56848 4.85098 0
M  V30 22014 H 2062.89 0.912736 4.32575 0
M  V30 22015 N 2061.95 -1.07287 1.15444 0
M  V30 22016 C 2063.18 -1.83614 0.953597 0
M  V30 22017 C 2063.59 -1.82111 -0.498116 0
M  V30 22018 O 2062.95 -1.233 -1.34548 0
M  V30 22019 C 2063 -3.30668 1.46086 0
M  V30 22020 O 2062.72 -3.32236 2.85571 0
M  V30 22021 C 2064.22 -4.23761 1.3016 0
M  V30 22022 H 2061.44 -0.57928 0.338638 0
M  V30 22023 H 2063.99 -1.35426 1.53232 0
M  V30 22024 H 2062.14 -3.76203 0.924647 0
M  V30 22025 H 2062.56 -4.24117 3.08585 0
M  V30 22026 H 2064.03 -5.25009 1.70497 0
M  V30 22027 H 2064.51 -4.38511 0.245852 0
M  V30 22028 H 2065.11 -3.84062 1.82692 0
M  V30 22029 N 2063.43 -0.951342 -1.25647 0
M  V30 22030 C 2064.36 -0.486897 -2.28367 0
M  V30 22031 C 2065.34 0.465072 -1.63619 0
M  V30 22032 O 2066.52 0.364737 -1.90744 0
M  V30 22033 C 2063.65 0.239229 -3.46475 0
M  V30 22034 C 2062.61 -0.627163 -4.2338 0
M  V30 22035 C 2061.93 0.229514 -5.34207 0
M  V30 22036 C 2063.23 -1.90362 -4.86374 0
M  V30 22037 H 2064.93 -1.34542 -2.67467 0
M  V30 22038 H 2062.47 -0.648383 -1.28577 0
M  V30 22039 H 2064.43 0.575251 -4.17455 0
M  V30 22040 H 2063.15 1.13197 -3.06356 0
M  V30 22041 H 2061.81 -0.946222 -3.54178 0
M  V30 22042 H 2061.46 1.12192 -4.90328 0
M  V30 22043 H 2061.16 -0.346852 -5.86575 0
M  V30 22044 H 2062.68 0.560578 -6.08021 0
M  V30 22045 H 2064.1 -1.63422 -5.49515 0
M  V30 22046 H 2062.49 -2.42538 -5.48904 0
M  V30 22047 H 2063.56 -2.60876 -4.08744 0
M  V30 22048 N 2064.91 1.40216 -0.719531 0
M  V30 22049 C 2066.18 1.94697 -0.18772 0
M  V30 22050 C 2066.56 1.65742 1.30739 0
M  V30 22051 O 2065.91 0.97723 2.06549 0
M  V30 22052 C 2066.12 3.45332 -0.50469 0
M  V30 22053 C 2067.47 4.22256 -0.445515 0
M  V30 22054 O 2068.49 3.5346 -0.440978 0
M  V30 22055 O 2067.35 5.44833 -0.426487 0
M  V30 22056 H 2064.45 0.82649 -0.0290376 0
M  V30 22057 H 2066.99 1.49802 -0.797333 0
M  V30 22058 H 2065.76 3.5978 -1.53863 0
M  V30 22059 H 2065.39 3.97372 0.134684 0
M  V30 22060 N 2066.38 0.466004 1.50553 0
M  V30 22061 C 2067.29 -0.33625 2.32178 0
M  V30 22062 C 2068.31 -1.00081 1.42337 0
M  V30 22063 O 2069.49 -0.989904 1.75393 0
M  V30 22064 C 2066.55 -1.40682 3.16875 0
M  V30 22065 C 2065.61 -0.759384 4.2253 0
M  V30 22066 C 2064.84 -1.77894 5.03179 0
M  V30 22067 O 2065.07 -3.00483 4.84836 0
M  V30 22068 O 2064 -1.35358 5.86483 0
M  V30 22069 H 2067.83 0.330908 3.01892 0
M  V30 22070 H 2065.41 0.22795 1.47651 0
M  V30 22071 H 2067.29 -2.02704 3.69444 0
M  V30 22072 H 2065.97 -2.05753 2.49894 0
M  V30 22073 H 2064.88 -0.100338 3.73965 0
M  V30 22074 H 2066.21 -0.151694 4.91966 0
M  V30 22075 N 2067.86 -1.56346 0.198413 0
M  V30 22076 C 2068.81 -2.20589 -0.737791 0
M  V30 22077 C 2069.8 -1.17807 -1.21729 0
M  V30 22078 O 2071.01 -1.35944 -1.1798 0
M  V30 22079 H 2067.38 -0.706982 -0.256282 0
M  V30 22080 H 2069.36 -2.97902 -0.172284 0
M  V30 22081 C 2068.1 -2.88187 -1.94534 0
M  V30 22082 H 2067.43 -3.6702 -1.58545 0
M  V30 22083 H 2068.87 -3.3657 -2.57869 0
M  V30 22084 C 2067.33 -1.89401 -2.7862 0
M  V30 22085 O 2067.86 -1.39638 -3.76649 0
M  V30 22086 N 2066.06 -1.57557 -2.4418 0
M  V30 22087 H 2065.61 -1.98218 -1.64521 0
M  V30 22088 H 2065.57 -0.917179 -3.00724 0
M  V30 22089 N 2069.34 0.0751653 -1.57421 0
M  V30 22090 C 2070.29 1.09651 -1.99901 0
M  V30 22091 C 2071.27 1.34668 -0.880538 0
M  V30 22092 O 2072.47 1.35025 -1.14444 0
M  V30 22093 C 2069.6 2.41121 -2.44367 0
M  V30 22094 C 2068.68 2.19394 -3.62942 0
M  V30 22095 N 2069.07 1.67586 -4.7723 0
M  V30 22096 C 2067.37 2.4988 -3.69426 0
M  V30 22097 C 2068.07 1.60595 -5.59092 0
M  V30 22098 N 2067.05 2.06526 -5.0284 0
M  V30 22099 H 2070.85 0.689217 -2.85704 0
M  V30 22100 H 2068.36 0.282291 -1.59928 0
M  V30 22101 H 2070.36 3.15048 -2.73039 0
M  V30 22102 H 2069.02 2.82571 -1.5995 0
M  V30 22103 H 2070.03 1.36498 -4.99588 0
M  V30 22104 H 2066.71 2.94719 -2.95714 0
M  V30 22105 H 2068.1 1.21421 -6.60838 0
M  V30 22106 N 2070.82 1.53744 0.346476 0
M  V30 22107 C 2072.04 1.75095 1.1116 0
M  V30 22108 C 2072.47 0.487459 1.81674 0
M  V30 22109 O 2071.83 -0.55973 1.72443 0
M  V30 22110 C 2071.87 2.92927 2.103 0
M  V30 22111 O 2070.98 2.62871 3.17762 0
M  V30 22112 H 2070.32 0.580905 0.321629 0
M  V30 22113 H 2072.85 2.00696 0.397762 0
M  V30 22114 H 2072.86 3.19633 2.53572 0
M  V30 22115 H 2071.53 3.84566 1.58372 0
M  V30 22116 H 2070.11 2.47043 2.79328 0
M  V30 22117 N 2072.3 -0.607329 1.45428 0
M  V30 22118 C 2073.55 -1.36242 1.48731 0
M  V30 22119 C 2073.86 -1.95145 0.13329 0
M  V30 22120 O 2075.06 -2.71464 0.0439733 0
M  V30 22121 C 2073.52 -2.46792 2.61957 0
M  V30 22122 C 2073.13 -1.94299 4.03673 0
M  V30 22123 C 2074.87 -3.238 2.74507 0
M  V30 22124 C 2072.78 -3.02333 5.0828 0
M  V30 22125 H 2071.71 -0.512076 0.553438 0
M  V30 22126 H 2074.36 -0.650885 1.71568 0
M  V30 22127 H 2072.74 -3.20632 2.32404 0
M  V30 22128 H 2073.92 -1.27167 4.42905 0
M  V30 22129 H 2072.23 -1.30036 3.95575 0
M  V30 22130 H 2074.83 -4.0438 3.4983 0
M  V30 22131 H 2075.17 -3.7482 1.8115 0
M  V30 22132 H 2075.7 -2.5706 3.03587 0
M  V30 22133 H 2072.44 -2.56229 6.03346 0
M  V30 22134 H 2071.96 -3.68031 4.73617 0
M  V30 22135 H 2073.64 -3.6671 5.33041 0
M  V30 22136 N 2073.77 -1.32722 -0.849853 0
M  V30 22137 C 2075.02 -1.24749 -1.60653 0
M  V30 22138 C 2075.38 0.187765 -1.91482 0
M  V30 22139 O 2074.67 1.12686 -1.54959 0
M  V30 22140 C 2074.86 -2.04524 -2.93095 0
M  V30 22141 C 2074.69 -3.55661 -2.75201 0
M  V30 22142 C 2073.46 -4.24991 -2.73332 0
M  V30 22143 C 2075.66 -4.50216 -2.48616 0
M  V30 22144 N 2073.64 -5.6215 -2.46699 0
M  V30 22145 C 2075.01 -5.75185 -2.31434 0
M  V30 22146 C 2077.07 -4.39421 -2.34124 0
M  V30 22147 C 2075.77 -6.90579 -2.0123 0
M  V30 22148 C 2077.8 -5.54618 -2.05311 0
M  V30 22149 C 2077.16 -6.7859 -1.88933 0
M  V30 22150 H 2073.26 -0.511661 -0.591377 0
M  V30 22151 H 2075.84 -1.67142 -0.998588 0
M  V30 22152 H 2074.01 -1.64469 -3.51859 0
M  V30 22153 H 2075.74 -1.88407 -3.58169 0
M  V30 22154 H 2072.5 -3.77156 -2.86444 0
M  V30 22155 H 2072.92 -6.34423 -2.36298 0
M  V30 22156 H 2077.57 -3.4422 -2.45504 0
M  V30 22157 H 2075.28 -7.85787 -1.88587 0
M  V30 22158 H 2078.87 -5.48195 -1.94869 0
M  V30 22159 H 2077.75 -7.66221 -1.66957 0
M  V30 22160 N 2075.25 1.06673 -1.16011 0
M  V30 22161 C 2076.18 2.13994 -0.820931 0
M  V30 22162 C 2077.2 1.61909 0.170124 0
M  V30 22163 O 2078.39 1.78418 -0.0540947 0
M  V30 22164 C 2075.49 3.38304 -0.200883 0
M  V30 22165 C 2074.66 4.19718 -1.23108 0
M  V30 22166 C 2073.72 5.22396 -0.631544 0
M  V30 22167 O 2072.74 5.54171 -1.29936 0
M  V30 22168 N 2073.95 5.7756 0.583519 0
M  V30 22169 H 2076.71 2.43691 -1.74456 0
M  V30 22170 H 2074.27 1.2264 -1.05693 0
M  V30 22171 H 2076.26 4.04138 0.213139 0
M  V30 22172 H 2074.83 3.06263 0.626218 0
M  V30 22173 H 2074.05 3.49597 -1.82142 0
M  V30 22174 H 2075.34 4.7092 -1.92644 0
M  V30 22175 H 2074.74 5.54005 1.14432 0
M  V30 22176 H 2073.3 6.44989 0.939804 0
M  V30 22177 N 2076.73 0.957992 1.25141 0
M  V30 22178 C 2077.66 0.499001 2.28106 0
M  V30 22179 C 2078.64 -0.456388 1.63863 0
M  V30 22180 O 2079.83 -0.354616 1.90935 0
M  V30 22181 C 2076.96 -0.220851 3.46597 0
M  V30 22182 C 2075.91 0.649607 4.23042 0
M  V30 22183 C 2075.24 -0.201181 5.34321 0
M  V30 22184 C 2076.54 1.92939 4.85357 0
M  V30 22185 H 2078.23 1.35959 2.6675 0
M  V30 22186 H 2075.78 0.655192 1.28231 0
M  V30 22187 H 2077.73 -0.553105 4.17754 0
M  V30 22188 H 2076.45 -1.11571 3.06952 0
M  V30 22189 H 2075.11 0.964992 3.53671 0
M  V30 22190 H 2074.76 -1.0959 4.90917 0
M  V30 22191 H 2074.46 0.377954 5.86383 0
M  V30 22192 H 2075.98 -0.528325 6.0831 0
M  V30 22193 H 2077.4 1.66333 5.4864 0
M  V30 22194 H 2075.8 2.45445 5.4761 0
M  V30 22195 H 2076.87 2.6304 4.07355 0
M  V30 22196 N 2078.21 -1.39832 0.726957 0
M  V30 22197 C 2079.14 -2.333 0.0966938 0
M  V30 22198 C 2080.12 -1.53492 -0.733095 0
M  V30 22199 O 2081.3 -1.81916 -0.679712 0
M  V30 22200 C 2078.43 -3.37545 -0.817367 0
M  V30 22201 C 2077.39 -4.279 -0.0923447 0
M  V30 22202 C 2076.71 -5.22777 -1.12288 0
M  V30 22203 C 2078.01 -5.11425 1.06028 0
M  V30 22204 H 2079.71 -2.86255 0.877412 0
M  V30 22205 H 2077.25 -1.37635 0.423378 0
M  V30 22206 H 2079.21 -4.01878 -1.26776 0
M  V30 22207 H 2077.93 -2.83011 -1.63011 0
M  V30 22208 H 2076.59 -3.65035 0.338339 0
M  V30 22209 H 2076.24 -4.64542 -1.92898 0
M  V30 22210 H 2075.94 -5.84076 -0.64259 0
M  V30 22211 H 2077.46 -5.89987 -1.57314 0
M  V30 22212 H 2078.88 -5.69148 0.688715 0
M  V30 22213 H 2077.27 -5.81825 1.46968 0
M  V30 22214 H 2078.34 -4.46731 1.88571 0
M  V30 22215 N 2079.69 -0.473982 -1.50304 0
M  V30 22216 C 2080.62 0.355019 -2.26434 0
M  V30 22217 C 2081.63 0.954546 -1.3188 0
M  V30 22218 O 2082.82 0.842462 -1.57368 0
M  V30 22219 C 2079.92 1.51219 -3.03292 0
M  V30 22220 C 2079.09 1.02492 -4.25222 0
M  V30 22221 C 2078.15 2.05649 -4.8435 0
M  V30 22222 O 2077.18 1.63594 -5.45184 0
M  V30 22223 N 2078.38 3.38481 -4.71605 0
M  V30 22224 H 2081.15 -0.297646 -2.98218 0
M  V30 22225 H 2078.71 -0.304934 -1.59002 0
M  V30 22226 H 2080.7 2.19927 -3.39726 0
M  V30 22227 H 2079.27 2.0695 -2.34287 0
M  V30 22228 H 2078.49 0.16363 -3.9386 0
M  V30 22229 H 2079.78 0.677339 -5.04271 0
M  V30 22230 H 2079.17 3.75356 -4.23231 0
M  V30 22231 H 2077.73 4.02979 -5.123 0
M  V30 22232 N 2081.16 1.56239 -0.206702 0
M  V30 22233 C 2082.13 2.18382 0.695843 0
M  V30 22234 C 2083.13 1.14149 1.13255 0
M  V30 22235 O 2084.32 1.39468 1.04376 0
M  V30 22236 C 2081.45 2.79522 1.95141 0
M  V30 22237 H 2082.64 2.99503 0.154275 0
M  V30 22238 H 2080.2 1.56241 0.0429222 0
M  V30 22239 H 2080.93 2.02231 2.53521 0
M  V30 22240 H 2080.72 3.55837 1.64689 0
M  V30 22241 H 2082.21 3.27203 2.59476 0
M  V30 22242 N 2082.64 -0.0668159 1.57458 0
M  V30 22243 C 2083.89 -0.763514 1.87123 0
M  V30 22244 C 2084.21 -1.77862 0.799382 0
M  V30 22245 O 2083.48 -1.95149 -0.171413 0
M  V30 22246 H 2082.06 -0.284974 0.690506 0
M  V30 22247 H 2084.72 -0.0417221 1.94855 0
M  V30 22248 H 2083.82 -1.27663 2.84796 0
M  V30 22249 N 2084.12 -1.53926 -0.338317 0
M  V30 22250 C 2085.05 -1.78601 -1.43647 0
M  V30 22251 C 2086.07 -0.667465 -1.48488 0
M  V30 22252 O 2087.26 -0.944299 -1.51477 0
M  V30 22253 C 2084.36 -1.87548 -2.82274 0
M  V30 22254 C 2083.53 -3.17539 -3.00811 0
M  V30 22255 C 2082.59 -3.17377 -4.19712 0
M  V30 22256 O 2081.61 -3.91078 -4.13578 0
M  V30 22257 N 2082.82 -2.40116 -5.28512 0
M  V30 22258 H 2085.58 -2.73365 -1.22849 0
M  V30 22259 H 2083.14 -1.5304 -0.528227 0
M  V30 22260 H 2085.13 -1.84885 -3.6 0
M  V30 22261 H 2083.7 -0.999475 -2.96191 0
M  V30 22262 H 2082.92 -3.33284 -2.10512 0
M  V30 22263 H 2084.21 -4.03394 -3.10082 0
M  V30 22264 H 2083.61 -1.79799 -5.36366 0
M  V30 22265 H 2082.17 -2.43245 -6.04711 0
M  V30 22266 N 2085.6 0.599608 -1.45748 0
M  V30 22267 C 2087.01 1.18163 -1.44549 0
M  V30 22268 C 2087.36 1.95397 -0.17732 0
M  V30 22269 O 2086.49 2.04048 0.720645 0
M  V30 22270 C 2087.08 2.14951 -2.6188 0
M  V30 22271 C 2085.64 2.68513 -2.63776 0
M  V30 22272 C 2084.79 1.44065 -2.3694 0
M  V30 22273 H 2087.74 0.388471 -1.53872 0
M  V30 22274 H 2087.76 2.98126 -2.36434 0
M  V30 22275 H 2087.27 1.58711 -3.54164 0
M  V30 22276 H 2085.37 3.28669 -1.7552 0
M  V30 22277 H 2085.49 3.12401 -3.63239 0
M  V30 22278 H 2083.85 1.73296 -1.86657 0
M  V30 22279 H 2084.63 0.896802 -3.31379 0
M  V30 22280 N 2087.08 1.33171 0.842803 0
M  V30 22281 C 2088.49 1.21918 1.41397 0
M  V30 22282 C 2088.84 -0.163526 1.95517 0
M  V30 22283 O 2087.96 -1.06291 1.88497 0
M  V30 22284 C 2088.56 2.20727 2.57031 0
M  V30 22285 C 2087.12 2.13325 3.10112 0
M  V30 22286 C 2086.27 2.08432 1.82897 0
M  V30 22287 H 2089.22 1.44827 0.648912 0
M  V30 22288 H 2089.24 1.81271 3.34546 0
M  V30 22289 H 2088.75 3.21352 2.1761 0
M  V30 22290 H 2086.85 1.15989 3.54087 0
M  V30 22291 H 2086.96 3.03691 3.70552 0
M  V30 22292 H 2085.33 1.53848 2.02985 0
M  V30 22293 H 2086.11 3.10858 1.45678 0
M  V30 22294 N 2088.56 -1.06056 1.16576 0
M  V30 22295 C 2089.83 -1.75733 0.858908 0
M  V30 22296 C 2090.21 -2.01077 -0.642746 0
M  V30 22297 O 2089.56 -1.63981 -1.5913 0
M  V30 22298 C 2089.77 -3.0567 1.68425 0
M  V30 22299 C 2091.12 -3.7978 1.89874 0
M  V30 22300 O 2092.14 -3.15517 1.65311 0
M  V30 22301 O 2091 -4.95232 2.311 0
M  V30 22302 H 2088.1 -0.763759 0.317177 0
M  V30 22303 H 2090.64 -1.12303 1.27225 0
M  V30 22304 H 2089.41 -2.82923 2.70315 0
M  V30 22305 H 2089.04 -3.76835 1.26811 0
M  V30 22306 N 2090.03 -0.964615 -1.24631 0
M  V30 22307 C 2090.96 -0.511091 -2.27838 0
M  V30 22308 C 2091.94 0.447692 -1.64103 0
M  V30 22309 O 2093.13 0.344485 -1.9112 0
M  V30 22310 C 2090.26 0.202467 -3.46709 0
M  V30 22311 C 2089.21 -0.672032 -4.22691 0
M  V30 22312 C 2088.54 0.172842 -5.34421 0
M  V30 22313 C 2089.84 -1.9551 -4.84327 0
M  V30 22314 H 2091.53 -1.37371 -2.66025 0
M  V30 22315 H 2089.08 -0.661983 -1.27882 0
M  V30 22316 H 2091.03 0.530942 -4.18042 0
M  V30 22317 H 2089.76 1.09942 -3.07539 0
M  V30 22318 H 2088.42 -0.983734 -3.53155 0
M  V30 22319 H 2088.06 1.06985 -4.91491 0
M  V30 22320 H 2087.76 -0.409046 -5.86175 0
M  V30 22321 H 2089.29 0.496057 -6.08582 0
M  V30 22322 H 2090.7 -1.69241 -5.4775 0
M  V30 22323 H 2089.1 -2.48346 -5.46301 0
M  V30 22324 H 2090.17 -2.65197 -4.05954 0
M  V30 22325 N 2091.51 1.39445 -0.734362 0
M  V30 22326 C 2092.79 1.94487 -0.208359 0
M  V30 22327 C 2093.17 1.6712 1.28974 0
M  V30 22328 O 2092.52 0.999082 2.05501 0
M  V30 22329 C 2092.73 3.44777 -0.541289 0
M  V30 22330 C 2094.07 4.2176 -0.490275 0
M  V30 22331 O 2095.1 3.52972 -0.478443 0
M  V30 22332 O 2093.96 5.4435 -0.48425 0
M  V30 22333 H 2091.05 0.826136 -0.037802 0
M  V30 22334 H 2093.6 1.48948 -0.813177 0
M  V30 22335 H 2092.37 3.58128 -1.5767 0
M  V30 22336 H 2091.99 3.97492 0.0925302 0
M  V30 22337 N 2092.99 0.481946 1.5005 0
M  V30 22338 C 2094.41 0.13674 1.59013 0
M  V30 22339 C 2094.61 -1.35753 1.48908 0
M  V30 22340 O 2093.66 -2.1318 1.35316 0
M  V30 22341 C 2094.97 0.696597 2.9252 0
M  V30 22342 C 2096.52 0.660993 3.05941 0
M  V30 22343 C 2097 1.19858 4.42038 0
M  V30 22344 N 2098.49 1.15846 4.4848 0
M  V30 22345 C 2099.22 1.54481 5.52199 0
M  V30 22346 N 2098.72 2.00617 6.63117 0
M  V30 22347 N 2100.51 1.46016 5.42804 0
M  V30 22348 H 2092.66 1.45367 1.54862 0
M  V30 22349 H 2094.93 0.601814 0.732478 0
M  V30 22350 H 2094.63 1.74381 3.05425 0
M  V30 22351 H 2094.51 0.146249 3.76916 0
M  V30 22352 H 2096.89 -0.377335 2.92678 0
M  V30 22353 H 2096.97 1.24827 2.23275 0
M  V30 22354 H 2096.62 2.2356 4.56052 0
M  V30 22355 H 2096.55 0.587419 5.23313 0
M  V30 22356 H 2099.04 0.820197 3.68892 0
M  V30 22357 H 2099.35 2.28217 7.38334 0
M  V30 22358 H 2097.7 2.04578 6.64209 0
M  V30 22359 H 2100.89 1.09805 4.55039 0
M  V30 22360 H 2101.06 1.7645 6.23514 0
M  V30 22361 N 2094.47 -1.56127 0.214985 0
M  V30 22362 C 2095.72 -1.97304 -0.41881 0
M  V30 22363 C 2096.03 -1.10547 -1.61366 0
M  V30 22364 O 2097.24 -1.41593 -2.31654 0
M  V30 22365 C 2095.69 -3.50975 -0.796509 0
M  V30 22366 C 2095.3 -4.46426 0.375156 0
M  V30 22367 C 2097.04 -4.0088 -1.39627 0
M  V30 22368 C 2094.95 -5.91395 -0.0246118 0
M  V30 22369 H 2093.88 -0.736775 -0.160246 0
M  V30 22370 H 2096.53 -1.8086 0.310157 0
M  V30 22371 H 2094.91 -3.62996 -1.58271 0
M  V30 22372 H 2096.09 -4.46149 1.15271 0
M  V30 22373 H 2094.4 -4.06827 0.887721 0
M  V30 22374 H 2097 -5.06681 -1.70816 0
M  V30 22375 H 2097.34 -3.46346 -2.30977 0
M  V30 22376 H 2097.88 -3.92055 -0.673641 0
M  V30 22377 H 2094.61 -6.49897 0.855201 0
M  V30 22378 H 2094.13 -5.94881 -0.766611 0
M  V30 22379 H 2095.81 -6.45408 -0.453573 0
M  V30 22380 N 2095.95 0.0584645 -1.57492 0
M  V30 22381 C 2097.36 0.413547 -1.54149 0
M  V30 22382 C 2097.56 1.78385 -0.937076 0
M  V30 22383 O 2096.62 2.46541 -0.545339 0
M  V30 22384 C 2097.93 0.342371 -2.98745 0
M  V30 22385 C 2099.48 0.421594 -3.10148 0
M  V30 22386 C 2099.95 0.380184 -4.56419 0
M  V30 22387 N 2101.44 0.439864 -4.61107 0
M  V30 22388 C 2102.18 0.430249 -5.71784 0
M  V30 22389 N 2101.68 0.374659 -6.91786 0
M  V30 22390 N 2103.47 0.4778 -5.60066 0
M  V30 22391 H 2095.62 -0.838642 -1.95142 0
M  V30 22392 H 2097.88 -0.316052 -0.893765 0
M  V30 22393 H 2097.59 -0.598115 -3.46577 0
M  V30 22394 H 2097.46 1.14747 -3.59323 0
M  V30 22395 H 2099.85 1.35251 -2.62281 0
M  V30 22396 H 2099.93 -0.41232 -2.52455 0
M  V30 22397 H 2099.57 -0.546935 -5.04947 0
M  V30 22398 H 2099.5 1.23181 -5.1199 0
M  V30 22399 H 2102 0.486535 -3.74755 0
M  V30 22400 H 2102.31 0.371614 -7.71906 0
M  V30 22401 H 2100.65 0.341145 -6.94162 0
M  V30 22402 H 2103.84 0.519015 -4.65214 0
M  V30 22403 H 2104.02 0.466838 -6.46316 0
M  V30 22404 N 2097.42 1.54103 0.330149 0
M  V30 22405 C 2098.65 1.75948 1.08857 0
M  V30 22406 C 2099.07 0.504949 1.81922 0
M  V30 22407 O 2098.42 -0.524053 1.74814 0
M  V30 22408 C 2098.47 2.94836 2.09175 0
M  V30 22409 O 2098.2 4.15438 1.39079 0
M  V30 22410 C 2099.7 3.28839 2.97287 0
M  V30 22411 H 2096.92 0.587551 0.324076 0
M  V30 22412 H 2099.46 2.00971 0.378279 0
M  V30 22413 H 2097.62 2.72105 2.75749 0
M  V30 22414 H 2098.03 4.82266 2.06204 0
M  V30 22415 H 2099.5 4.15343 3.63586 0
M  V30 22416 H 2099.98 2.4572 3.64031 0
M  V30 22417 H 2100.59 3.53624 2.36284 0
M  V30 22418 N 2098.9 -0.59187 1.46064 0
M  V30 22419 C 2099.83 -1.71199 1.58787 0
M  V30 22420 C 2100.81 -1.64348 0.438615 0
M  V30 22421 O 2102 -1.82506 0.663725 0
M  V30 22422 C 2099.13 -3.0983 1.56917 0
M  V30 22423 C 2098.08 -3.31505 2.70719 0
M  V30 22424 C 2097.41 -4.70569 2.53907 0
M  V30 22425 C 2098.71 -3.20228 4.12615 0
M  V30 22426 H 2100.4 -1.60807 2.5255 0
M  V30 22427 H 2097.95 -0.772206 1.21544 0
M  V30 22428 H 2099.9 -3.88003 1.64413 0
M  V30 22429 H 2098.63 -3.21099 0.596928 0
M  V30 22430 H 2097.28 -2.55727 2.62677 0
M  V30 22431 H 2096.93 -4.78592 1.54787 0
M  V30 22432 H 2096.63 -4.86025 3.30232 0
M  V30 22433 H 2098.16 -5.50923 2.6328 0
M  V30 22434 H 2099.57 -3.88257 4.21817 0
M  V30 22435 H 2097.97 -3.47209 4.89455 0
M  V30 22436 H 2099.04 -2.17437 4.33416 0
M  V30 22437 N 2100.38 -1.33616 -0.835729 0
M  V30 22438 C 2101.31 -1.26762 -1.96096 0
M  V30 22439 C 2102.29 -0.147563 -1.69459 0
M  V30 22440 O 2103.48 -0.33785 -1.91239 0
M  V30 22441 C 2100.61 -1.00927 -3.32312 0
M  V30 22442 C 2099.56 -2.09261 -3.73355 0
M  V30 22443 C 2098.89 -1.68635 -5.07411 0
M  V30 22444 C 2100.19 -3.50968 -3.86806 0
M  V30 22445 H 2101.88 -2.20908 -2.02089 0
M  V30 22446 H 2099.43 -1.06346 -0.970907 0
M  V30 22447 H 2101.38 -0.947809 -4.10603 0
M  V30 22448 H 2100.1 -0.0322023 -3.26584 0
M  V30 22449 H 2098.76 -2.14455 -2.97329 0
M  V30 22450 H 2098.41 -0.696223 -4.98158 0
M  V30 22451 H 2098.11 -2.41134 -5.35844 0
M  V30 22452 H 2099.63 -1.63961 -5.88175 0
M  V30 22453 H 2101.05 -3.48257 -4.55401 0
M  V30 22454 H 2099.45 -4.21978 -4.26678 0
M  V30 22455 H 2100.52 -3.89244 -2.89166 0
M  V30 22456 N 2101.86 1.05436 -1.17136 0
M  V30 22457 C 2102.77 2.16633 -0.900413 0
M  V30 22458 C 2103.78 1.7351 0.130523 0
M  V30 22459 O 2104.96 2.01342 -0.0481629 0
M  V30 22460 C 2102.03 3.4421 -0.414754 0
M  V30 22461 C 2101.09 4.01793 -1.51198 0
M  V30 22462 C 2100.32 5.23281 -1.0494 0
M  V30 22463 O 2100.54 5.70317 0.0974405 0
M  V30 22464 O 2099.48 5.73041 -1.8414 0
M  V30 22465 H 2103.3 2.42336 -1.83049 0
M  V30 22466 H 2100.89 1.15137 -0.952042 0
M  V30 22467 H 2102.77 4.21128 -0.151319 0
M  V30 22468 H 2101.44 3.20013 0.487199 0
M  V30 22469 H 2100.35 3.26326 -1.82926 0
M  V30 22470 H 2101.68 4.30304 -2.38955 0
M  V30 22471 N 2103.34 0.971211 1.24118 0
M  V30 22472 C 2104.27 0.523167 2.27564 0
M  V30 22473 C 2105.25 -0.438983 1.64338 0
M  V30 22474 O 2106.43 -0.334345 1.913 0
M  V30 22475 C 2103.56 -0.184078 3.46812 0
M  V30 22476 C 2102.52 0.694439 4.22329 0
M  V30 22477 C 2101.84 -0.144498 5.34505 0
M  V30 22478 C 2103.14 1.98076 4.83284 0
M  V30 22479 H 2104.84 1.3878 2.65293 0
M  V30 22480 H 2102.38 0.668756 1.27529 0
M  V30 22481 H 2104.34 -0.508765 4.18318 0
M  V30 22482 H 2103.06 -1.08309 3.08118 0
M  V30 22483 H 2101.72 1.00245 3.52628 0
M  V30 22484 H 2101.37 -1.04377 4.92051 0
M  V30 22485 H 2101.07 0.440127 5.85949 0
M  V30 22486 H 2102.59 -0.463776 6.08836 0
M  V30 22487 H 2104 1.72143 5.46845 0
M  V30 22488 H 2102.4 2.5124 5.44976 0
M  V30 22489 H 2103.47 2.67346 4.04542 0
M  V30 22490 N 2104.81 -1.39054 0.741747 0
M  V30 22491 C 2105.72 -2.34352 0.107946 0
M  V30 22492 C 2106.74 -1.58666 -0.71422 0
M  V30 22493 O 2107.92 -1.90923 -0.641124 0
M  V30 22494 C 2104.98 -3.3773 -0.783547 0
M  V30 22495 C 2104.04 -4.29269 0.0516392 0
M  V30 22496 C 2103.28 -5.27709 -0.797398 0
M  V30 22497 O 2103.5 -5.3283 -2.03588 0
M  V30 22498 O 2102.43 -6.01489 -0.222478 0
M  V30 22499 H 2106.26 -2.90223 0.894677 0
M  V30 22500 H 2103.84 -1.40696 0.502494 0
M  V30 22501 H 2105.73 -4.01059 -1.29342 0
M  V30 22502 H 2104.4 -2.84233 -1.54898 0
M  V30 22503 H 2103.31 -3.6914 0.607193 0
M  V30 22504 H 2104.64 -4.85989 0.779446 0
M  V30 22505 N 2106.29 -0.489897 -1.49792 0
M  V30 22506 C 2107.24 0.294423 -2.28914 0
M  V30 22507 C 2108.21 0.970384 -1.34806 0
M  V30 22508 O 2109.39 0.979195 -1.63757 0
M  V30 22509 C 2106.53 1.35949 -3.17194 0
M  V30 22510 C 2105.65 0.696419 -4.2635 0
M  V30 22511 C 2104.78 1.74098 -5.0186 0
M  V30 22512 C 2103.82 1.05917 -6.02866 0
M  V30 22513 N 2102.96 2.04743 -6.71584 0
M  V30 22514 H 2107.8 -0.386562 -2.95482 0
M  V30 22515 H 2105.34 -0.202479 -1.457 0
M  V30 22516 H 2107.29 1.98886 -3.66743 0
M  V30 22517 H 2105.92 2.00938 -2.52633 0
M  V30 22518 H 2104.98 -0.0459714 -3.80372 0
M  V30 22519 H 2106.29 0.159163 -4.98546 0
M  V30 22520 H 2105.44 2.44568 -5.55222 0
M  V30 22521 H 2104.18 2.31207 -4.29412 0
M  V30 22522 H 2103.19 0.340189 -5.48747 0
M  V30 22523 H 2104.41 0.494725 -6.77296 0
M  V30 22524 H 2102.36 2.60835 -6.01915 0
M  V30 22525 H 2102.27 1.56053 -7.39718 0
M  V30 22526 H 2103.54 2.74536 -7.29555 0
M  V30 22527 N 2107.77 1.56011 -0.223262 0
M  V30 22528 C 2109.02 1.98348 0.407977 0
M  V30 22529 C 2109.35 1.11094 1.59651 0
M  V30 22530 O 2108.6 0.156272 1.95075 0
M  V30 22531 C 2108.9 3.46302 0.883731 0
M  V30 22532 C 2108.57 4.5048 -0.194465 0
M  V30 22533 C 2107.23 4.78692 -0.490651 0
M  V30 22534 C 2109.58 5.12952 -0.923571 0
M  V30 22535 C 2106.91 5.66657 -1.52043 0
M  V30 22536 C 2109.26 6.02032 -1.9427 0
M  V30 22537 C 2107.92 6.28586 -2.24579 0
M  V30 22538 H 2107.19 0.725806 0.149289 0
M  V30 22539 H 2109.84 1.88702 -0.326139 0
M  V30 22540 H 2108.15 3.53159 1.69664 0
M  V30 22541 H 2109.84 3.76432 1.38202 0
M  V30 22542 H 2106.43 4.28575 0.046538 0
M  V30 22543 H 2110.62 4.91224 -0.707988 0
M  V30 22544 H 2105.87 5.85495 -1.76086 0
M  V30 22545 H 2110.05 6.49489 -2.51272 0
M  V30 22546 H 2107.67 6.96545 -3.04515 0
M  V30 22547 N 2109.25 -0.0501116 1.5752 0
M  V30 22548 C 2110.16 -1.07459 2.08542 0
M  V30 22549 C 2111.17 -1.41006 1.01947 0
M  V30 22550 O 2112.35 -1.50749 1.33555 0
M  V30 22551 C 2109.42 -2.36274 2.53723 0
M  V30 22552 C 2108.48 -2.095 3.74711 0
M  V30 22553 C 2107.71 -3.32174 4.17728 0
M  V30 22554 O 2107.93 -4.42091 3.60432 0
M  V30 22555 O 2106.87 -3.1911 5.10346 0
M  V30 22556 H 2110.69 -0.671065 2.96193 0
M  V30 22557 H 2108.28 -0.265709 1.47018 0
M  V30 22558 H 2110.16 -3.12043 2.83208 0
M  V30 22559 H 2108.83 -2.75963 1.69192 0
M  V30 22560 H 2107.74 -1.31366 3.50277 0
M  V30 22561 H 2109.07 -1.74679 4.60161 0
M  V30 22562 N 2110.73 -1.54276 -0.321972 0
M  V30 22563 C 2111.68 -1.80154 -1.39745 0
M  V30 22564 C 2112.66 -0.65763 -1.46847 0
M  V30 22565 O 2113.85 -0.917677 -1.51353 0
M  V30 22566 C 2110.98 -2.03375 -2.76574 0
M  V30 22567 C 2110.07 -3.23892 -2.73779 0
M  V30 22568 N 2110.46 -4.44909 -2.40603 0
M  V30 22569 C 2108.76 -3.25497 -3.04906 0
M  V30 22570 C 2109.46 -5.26851 -2.46582 0
M  V30 22571 N 2108.43 -4.64072 -2.83087 0
M  V30 22572 H 2112.24 -2.71297 -1.13026 0
M  V30 22573 H 2109.75 -1.53492 -0.530462 0
M  V30 22574 H 2111.75 -2.20055 -3.54092 0
M  V30 22575 H 2110.41 -1.13487 -3.04222 0
M  V30 22576 H 2111.42 -4.71881 -2.13421 0
M  V30 22577 H 2108.09 -2.45648 -3.37585 0
M  V30 22578 H 2109.48 -6.33494 -2.23909 0
M  V30 22579 N 2112.2 0.584116 -1.46376 0
M  V30 22580 C 2113.14 1.70778 -1.52865 0
M  V30 22581 C 2114.15 1.57366 -0.417122 0
M  V30 22582 O 2115.34 1.64816 -0.685411 0
M  V30 22583 C 2112.44 3.09015 -1.39151 0
M  V30 22584 C 2111.61 3.48443 -2.64397 0
M  V30 22585 C 2110.67 4.65735 -2.44903 0
M  V30 22586 O 2109.7 4.71667 -3.1862 0
M  V30 22587 N 2110.9 5.60523 -1.50978 0
M  V30 22588 H 2113.66 1.65666 -2.49749 0
M  V30 22589 H 2111.22 0.770058 -1.42414 0
M  V30 22590 H 2113.22 3.85272 -1.23884 0
M  V30 22591 H 2111.79 3.08502 -0.50453 0
M  V30 22592 H 2111.01 2.61906 -2.94616 0
M  V30 22593 H 2112.29 3.71552 -3.47601 0
M  V30 22594 H 2111.69 5.58465 -0.90186 0
M  V30 22595 H 2110.25 6.36217 -1.41674 0
M  V30 22596 N 2113.68 1.34058 0.828631 0
M  V30 22597 C 2114.93 1.25844 1.58138 0
M  V30 22598 C 2115.25 -0.173004 1.94231 0
M  V30 22599 O 2114.52 -1.10425 1.61812 0
M  V30 22600 H 2113.1 0.4628 0.586366 0
M  V30 22601 H 2115.76 1.67901 0.989709 0
M  V30 22602 H 2114.86 1.85925 2.50676 0
M  V30 22603 N 2115.16 -1.04814 1.17694 0
M  V30 22604 C 2116.39 -1.82088 0.992908 0
M  V30 22605 C 2116.81 -1.82538 -0.454023 0
M  V30 22606 O 2116.17 -1.23716 -1.3253 0
M  V30 22607 C 2116.22 -3.25912 1.54318 0
M  V30 22608 O 2115.32 -4.05346 0.759486 0
M  V30 22609 H 2114.66 -0.562852 0.352268 0
M  V30 22610 H 2117.19 -1.32054 1.56279 0
M  V30 22611 H 2117.2 -3.76705 1.56708 0
M  V30 22612 H 2115.88 -3.24899 2.59641 0
M  V30 22613 H 2114.45 -3.64056 0.807298 0
M  V30 22614 N 2116.64 -0.977779 -1.23601 0
M  V30 22615 C 2118.06 -0.685968 -1.44106 0
M  V30 22616 C 2118.26 0.748759 -1.87072 0
M  V30 22617 O 2117.31 1.5215 -2.01511 0
M  V30 22618 C 2118.62 -1.67866 -2.49482 0
M  V30 22619 C 2120.17 -1.69241 -2.63299 0
M  V30 22620 C 2120.65 -2.67334 -3.71883 0
M  V30 22621 N 2122.14 -2.65836 -3.79322 0
M  V30 22622 C 2122.87 -3.38406 -4.62892 0
M  V30 22623 N 2122.37 -4.20527 -5.50571 0
M  V30 22624 N 2124.16 -3.27183 -4.57064 0
M  V30 22625 H 2116.31 -1.90461 -0.940129 0
M  V30 22626 H 2118.58 -0.820555 -0.474756 0
M  V30 22627 H 2118.28 -2.70457 -2.24824 0
M  V30 22628 H 2118.16 -1.45942 -3.47823 0
M  V30 22629 H 2120.54 -0.673554 -2.8731 0
M  V30 22630 H 2120.62 -1.95231 -1.65283 0
M  V30 22631 H 2120.27 -3.6936 -3.4862 0
M  V30 22632 H 2120.2 -2.38619 -4.69434 0
M  V30 22633 H 2122.69 -2.06236 -3.16662 0
M  V30 22634 H 2123 -4.72763 -6.11322 0
M  V30 22635 H 2121.35 -4.24619 -5.50203 0
M  V30 22636 H 2124.54 -2.62481 -3.87584 0
M  V30 22637 H 2124.71 -3.84001 -5.21965 0
M  V30 22638 N 2118.12 1.38658 -0.749111 0
M  V30 22639 C 2119.35 2.04504 -0.313958 0
M  V30 22640 C 2119.76 1.56495 1.05616 0
M  V30 22641 O 2119.12 0.736036 1.66999 0
M  V30 22642 C 2119.17 3.60059 -0.322507 0
M  V30 22643 O 2118.89 4.06304 -1.63855 0
M  V30 22644 C 2120.39 4.43118 0.127067 0
M  V30 22645 H 2117.61 0.657312 -0.134841 0
M  V30 22646 H 2120.15 1.77435 -1.01671 0
M  V30 22647 H 2118.31 3.85979 0.331471 0
M  V30 22648 H 2118.72 5.00711 -1.56169 0
M  V30 22649 H 2120.2 5.51956 0.0699241 0
M  V30 22650 H 2120.67 4.2321 1.17431 0
M  V30 22651 H 2121.28 4.22376 -0.49787 0
M  V30 22652 N 2119.6 0.497834 1.49531 0
M  V30 22653 C 2121.01 0.153598 1.58859 0
M  V30 22654 C 2121.21 -1.34166 1.50339 0
M  V30 22655 O 2120.27 -2.11733 1.37569 0
M  V30 22656 C 2121.58 0.727583 2.91765 0
M  V30 22657 C 2123.13 0.693405 3.05223 0
M  V30 22658 C 2123.6 1.2454 4.40742 0
M  V30 22659 N 2125.09 1.20596 4.47226 0
M  V30 22660 C 2125.83 1.60329 5.50529 0
M  V30 22661 N 2125.33 2.07639 6.60952 0
M  V30 22662 N 2127.12 1.51765 5.41224 0
M  V30 22663 H 2119.27 1.47001 1.53312 0
M  V30 22664 H 2121.53 0.609549 0.726054 0
M  V30 22665 H 2121.24 1.77611 3.03558 0
M  V30 22666 H 2121.11 0.186218 3.7674 0
M  V30 22667 H 2123.5 -0.346272 2.93061 0
M  V30 22668 H 2123.58 1.27188 2.21939 0
M  V30 22669 H 2123.22 2.28384 4.53655 0
M  V30 22670 H 2123.15 0.642891 5.22661 0
M  V30 22671 H 2125.65 0.859277 3.68001 0
M  V30 22672 H 2125.96 2.36035 7.35872 0
M  V30 22673 H 2124.3 2.11611 6.62001 0
M  V30 22674 H 2127.49 1.14625 4.53849 0
M  V30 22675 H 2127.67 1.83053 6.21607 0
M  V30 22676 N 2121.07 -1.5589 0.231532 0
M  V30 22677 C 2122.3 -2.03407 -0.405035 0
M  V30 22678 C 2122.72 -1.11007 -1.51852 0
M  V30 22679 O 2122.08 -0.100101 -1.81023 0
M  V30 22680 C 2122.13 -3.4907 -0.904554 0
M  V30 22681 O 2121.23 -3.59808 -2.01524 0
M  V30 22682 H 2120.57 -0.657819 -0.090391 0
M  V30 22683 H 2123.1 -2.0153 0.353092 0
M  V30 22684 H 2123.11 -3.89589 -1.21178 0
M  V30 22685 H 2121.79 -4.15803 -0.0896407 0
M  V30 22686 H 2120.37 -3.3118 -1.71388 0
M  V30 22687 N 2122.55 0.0417572 -1.57545 0
M  V30 22688 C 2123.97 0.397174 -1.54579 0
M  V30 22689 C 2124.17 1.77381 -0.955943 0
M  V30 22690 O 2123.22 2.45948 -0.571457 0
M  V30 22691 C 2124.54 0.310665 -2.99091 0
M  V30 22692 C 2126.08 0.388675 -3.10577 0
M  V30 22693 C 2126.56 0.331754 -4.56797 0
M  V30 22694 N 2128.05 0.390933 -4.61547 0
M  V30 22695 C 2128.79 0.36958 -5.72208 0
M  V30 22696 N 2128.28 0.301264 -6.92145 0
M  V30 22697 N 2130.07 0.41837 -5.60541 0
M  V30 22698 H 2122.23 -0.859292 -1.94242 0
M  V30 22699 H 2124.49 -0.325513 -0.890362 0
M  V30 22700 H 2124.19 -0.634841 -3.45923 0
M  V30 22701 H 2124.07 1.10929 -3.6052 0
M  V30 22702 H 2126.46 1.32461 -2.63701 0
M  V30 22703 H 2126.54 -0.439073 -2.52004 0
M  V30 22704 H 2126.18 -0.60046 -5.04338 0
M  V30 22705 H 2126.11 1.17744 -5.13268 0
M  V30 22706 H 2128.6 0.44676 -3.7525 0
M  V30 22707 H 2128.91 0.289723 -7.72257 0
M  V30 22708 H 2127.26 0.2675 -6.94485 0
M  V30 22709 H 2130.45 0.469643 -4.65738 0
M  V30 22710 H 2130.62 0.398261 -6.46775 0
M  V30 22711 N 2124.03 1.54445 0.313786 0
M  V30 22712 C 2124.99 1.8378 1.36959 0
M  V30 22713 C 2125.99 0.710053 1.44274 0
M  V30 22714 O 2127.18 0.978359 1.44131 0
M  V30 22715 C 2124.31 2.00661 2.75586 0
M  V30 22716 H 2125.51 2.78122 1.12197 0
M  V30 22717 H 2123.06 1.46311 0.549789 0
M  V30 22718 H 2123.8 1.08564 3.05589 0
M  V30 22719 H 2123.58 2.82734 2.71669 0
M  V30 22720 H 2125.07 2.24771 3.51948 0
M  V30 22721 N 2125.51 -0.576345 1.46683 0
M  V30 22722 C 2126.44 -1.69505 1.60594 0
M  V30 22723 C 2127.42 -1.63873 0.456022 0
M  V30 22724 O 2128.6 -1.81791 0.683045 0
M  V30 22725 C 2125.73 -3.08148 1.60194 0
M  V30 22726 C 2124.69 -3.28615 2.7422 0
M  V30 22727 C 2124.01 -4.6785 2.58884 0
M  V30 22728 C 2125.31 -3.15834 4.15989 0
M  V30 22729 H 2127.01 -1.58119 2.54241 0
M  V30 22730 H 2124.55 -0.759271 1.22356 0
M  V30 22731 H 2126.51 -3.86237 1.68519 0
M  V30 22732 H 2125.23 -3.20447 0.630952 0
M  V30 22733 H 2123.89 -2.52927 2.65375 0
M  V30 22734 H 2123.54 -4.76923 1.59854 0
M  V30 22735 H 2123.24 -4.82495 3.35368 0
M  V30 22736 H 2124.76 -5.48099 2.69109 0
M  V30 22737 H 2126.18 -3.83761 4.25911 0
M  V30 22738 H 2124.57 -3.41998 4.9311 0
M  V30 22739 H 2125.64 -2.12828 4.35698 0
M  V30 22740 N 2126.99 -1.34495 -0.82151 0
M  V30 22741 C 2127.9 -1.28265 -1.96431 0
M  V30 22742 C 2128.91 -0.190092 -1.72959 0
M  V30 22743 O 2130.09 -0.416817 -1.9704 0
M  V30 22744 C 2127.15 -1.03935 -3.30754 0
M  V30 22745 C 2126.21 -2.22361 -3.67225 0
M  V30 22746 C 2125.45 -1.99182 -4.95139 0
M  V30 22747 O 2125.67 -0.950771 -5.6242 0
M  V30 22748 O 2124.6 -2.86169 -5.2952 0
M  V30 22749 H 2128.43 -2.2441 -2.04631 0
M  V30 22750 H 2126.01 -1.14716 -0.957114 0
M  V30 22751 H 2127.9 -0.921538 -4.112 0
M  V30 22752 H 2126.57 -0.108311 -3.23519 0
M  V30 22753 H 2125.48 -2.39702 -2.87217 0
M  V30 22754 H 2126.81 -3.1386 -3.79147 0
M  V30 22755 N 2128.46 1.04188 -1.18248 0
M  V30 22756 C 2129.88 1.29568 -0.931902 0
M  V30 22757 C 2130.08 1.97424 0.403235 0
M  V30 22758 O 2129.14 2.25409 1.13785 0
M  V30 22759 C 2130.45 2.15557 -2.09656 0
M  V30 22760 C 2132 2.28907 -2.13473 0
M  V30 22761 C 2132.47 3.18262 -3.29353 0
M  V30 22762 N 2133.96 3.25849 -3.29206 0
M  V30 22763 C 2134.7 3.95141 -4.15513 0
M  V30 22764 N 2134.19 4.66775 -5.1195 0
M  V30 22765 N 2135.99 3.91408 -4.03431 0
M  V30 22766 H 2128.14 0.585496 -2.04171 0
M  V30 22767 H 2130.4 0.320854 -0.892052 0
M  V30 22768 H 2130.11 1.73002 -3.06208 0
M  V30 22769 H 2129.98 3.16231 -2.05616 0
M  V30 22770 H 2132.37 2.70698 -1.175 0
M  V30 22771 H 2132.45 1.27828 -2.21571 0
M  V30 22772 H 2132.09 2.77182 -4.25597 0
M  V30 22773 H 2132.02 4.1937 -3.18491 0
M  V30 22774 H 2134.51 2.74819 -2.59389 0
M  V30 22775 H 2134.83 5.17239 -5.74181 0
M  V30 22776 H 2133.17 4.65683 -5.15911 0
M  V30 22777 H 2136.36 3.34577 -3.27377 0
M  V30 22778 H 2136.54 4.45139 -4.70909 0
M  V30 22779 N 2129.94 0.98432 1.23081 0
M  V30 22780 C 2131.36 0.6936 1.43741 0
M  V30 22781 C 2131.56 -0.738828 1.87466 0
M  V30 22782 O 2130.61 -1.51079 2.02315 0
M  V30 22783 C 2131.93 1.69187 2.48589 0
M  V30 22784 C 2133.48 1.70635 2.62398 0
M  V30 22785 C 2133.95 2.69302 3.7046 0
M  V30 22786 N 2135.44 2.67844 3.77907 0
M  V30 22787 C 2136.18 3.40857 4.6109 0
M  V30 22788 N 2135.67 4.23441 5.48333 0
M  V30 22789 N 2137.47 3.29603 4.55322 0
M  V30 22790 H 2129.62 1.90957 0.930015 0
M  V30 22791 H 2131.88 0.823061 0.470398 0
M  V30 22792 H 2131.59 2.71646 2.23386 0
M  V30 22793 H 2131.46 1.47784 3.47044 0
M  V30 22794 H 2133.85 0.688782 2.86949 0
M  V30 22795 H 2133.93 1.96104 1.64246 0
M  V30 22796 H 2133.57 3.71203 3.46656 0
M  V30 22797 H 2133.5 2.41106 4.68162 0
M  V30 22798 H 2135.99 2.07913 3.15564 0
M  V30 22799 H 2136.31 4.75999 6.08806 0
M  V30 22800 H 2134.65 4.27531 5.47944 0
M  V30 22801 H 2137.84 2.64533 3.86186 0
M  V30 22802 H 2138.01 3.86764 5.19921 0
M  V30 22803 N 2131.42 -1.38259 0.756453 0
M  V30 22804 C 2132.84 -1.53575 0.434365 0
M  V30 22805 C 2133.04 -1.71851 -1.05212 0
M  V30 22806 O 2132.09 -1.73115 -1.83814 0
M  V30 22807 C 2133.41 -2.74118 1.23611 0
M  V30 22808 C 2134.95 -2.8797 1.22647 0
M  V30 22809 C 2135.43 -4.11477 2.01124 0
M  V30 22810 N 2136.92 -4.1856 1.98399 0
M  V30 22811 C 2137.65 -5.13124 2.55913 0
M  V30 22812 N 2137.15 -6.13343 3.22153 0
M  V30 22813 N 2138.94 -5.05495 2.45827 0
M  V30 22814 H 2131.09 -1.24647 1.7198 0
M  V30 22815 H 2133.36 -0.605745 0.72923 0
M  V30 22816 H 2133.06 -2.67028 2.28886 0
M  V30 22817 H 2132.94 -3.67384 0.854919 0
M  V30 22818 H 2135.32 -2.9454 0.181771 0
M  V30 22819 H 2135.41 -1.95707 1.6472 0
M  V30 22820 H 2135.05 -4.05669 3.05607 0
M  V30 22821 H 2134.98 -5.02825 1.56444 0
M  V30 22822 H 2137.47 -3.46785 1.50161 0
M  V30 22823 H 2137.78 -6.81999 3.63451 0
M  V30 22824 H 2136.13 -6.13667 3.26248 0
M  V30 22825 H 2139.32 -4.26141 1.93705 0
M  V30 22826 H 2139.49 -5.79012 2.90946 0
M  V30 22827 N 2132.9 -0.505757 -1.49264 0
M  V30 22828 C 2134.31 -0.162021 -1.58775 0
M  V30 22829 C 2134.51 1.33366 -1.51048 0
M  V30 22830 O 2133.57 2.11001 -1.3869 0
M  V30 22831 C 2134.88 -0.743046 -2.91375 0
M  V30 22832 C 2136.43 -0.709582 -3.04851 0
M  V30 22833 C 2136.91 -1.26875 -4.40076 0
M  V30 22834 N 2138.4 -1.22966 -4.4658 0
M  V30 22835 C 2139.13 -1.63246 -5.49671 0
M  V30 22836 N 2138.63 -2.11141 -6.59842 0
M  V30 22837 N 2140.42 -1.54633 -5.40412 0
M  V30 22838 H 2132.57 -1.47812 -1.5253 0
M  V30 22839 H 2134.84 -0.613391 -0.722811 0
M  V30 22840 H 2134.54 -1.79218 -3.02612 0
M  V30 22841 H 2134.42 -0.206195 -3.76636 0
M  V30 22842 H 2136.8 0.330725 -2.93241 0
M  V30 22843 H 2136.88 -1.28363 -2.21261 0
M  V30 22844 H 2136.53 -2.30787 -4.52438 0
M  V30 22845 H 2136.46 -0.670599 -5.22313 0
M  V30 22846 H 2138.95 -0.878781 -3.6754 0
M  V30 22847 H 2139.26 -2.39934 -7.3461 0
M  V30 22848 H 2137.61 -2.15119 -6.6087 0
M  V30 22849 H 2140.8 -1.1703 -4.53235 0
M  V30 22850 H 2140.97 -1.86347 -6.20628 0
M  V30 22851 N 2134.38 1.55765 -0.239796 0
M  V30 22852 C 2135.79 1.59184 0.115214 0
M  V30 22853 C 2135.99 1.25688 1.57496 0
M  V30 22854 O 2135.05 1.0008 2.31819 0
M  V30 22855 C 2136.36 2.99838 -0.227557 0
M  V30 22856 C 2137.91 3.12531 -0.171276 0
M  V30 22857 C 2138.38 4.55393 -0.487979 0
M  V30 22858 N 2139.88 4.61122 -0.438217 0
M  V30 22859 C 2140.61 5.69629 -0.656523 0
M  V30 22860 N 2140.11 6.86426 -0.937578 0
M  V30 22861 N 2141.9 5.59019 -0.587713 0
M  V30 22862 H 2134.05 1.7581 -1.19184 0
M  V30 22863 H 2136.31 0.818062 -0.47904 0
M  V30 22864 H 2136.02 3.29062 -1.24141 0
M  V30 22865 H 2135.89 3.74521 0.448752 0
M  V30 22866 H 2138.28 2.83092 0.83324 0
M  V30 22867 H 2138.36 2.40138 -0.881332 0
M  V30 22868 H 2138.01 4.85552 -1.49002 0
M  V30 22869 H 2137.94 5.26037 0.243475 0
M  V30 22870 H 2140.43 3.77203 -0.229426 0
M  V30 22871 H 2140.74 7.65049 -1.09177 0
M  V30 22872 H 2139.08 6.88127 -0.974973 0
M  V30 22873 H 2142.28 4.66649 -0.368239 0
M  V30 22874 H 2142.45 6.43513 -0.761246 0
M  V30 22875 N 2135.85 -0.0334016 1.57565 0
M  V30 22876 C 2136.79 -1.06286 2.03066 0
M  V30 22877 C 2137.8 -1.32726 0.942744 0
M  V30 22878 O 2138.99 -1.3029 1.22012 0
M  V30 22879 C 2136.09 -2.40547 2.38727 0
M  V30 22880 C 2135.26 -2.33524 3.69845 0
M  V30 22881 C 2134.32 -3.50199 3.92743 0
M  V30 22882 O 2133.35 -3.29889 4.63856 0
M  V30 22883 N 2134.55 -4.71916 3.38047 0
M  V30 22884 H 2137.31 -0.675062 2.91998 0
M  V30 22885 H 2134.87 -0.221423 1.60379 0
M  V30 22886 H 2136.87 -3.17313 2.51186 0
M  V30 22887 H 2135.44 -2.71187 1.55488 0
M  V30 22888 H 2134.66 -1.41885 3.6778 0
M  V30 22889 H 2135.94 -2.2597 4.55867 0
M  V30 22890 H 2135.34 -4.91318 2.80398 0
M  V30 22891 H 2133.9 -5.46062 3.55893 0
M  V30 22892 N 2137.33 -1.54609 -0.305591 0
M  V30 22893 C 2138.28 -1.85242 -1.37673 0
M  V30 22894 C 2139.25 -0.700952 -1.50585 0
M  V30 22895 O 2140.43 -0.949135 -1.65518 0
M  V30 22896 C 2137.57 -2.10127 -2.73753 0
M  V30 22897 C 2136.69 -3.37767 -2.69328 0
M  V30 22898 C 2135.82 -3.52519 -3.97371 0
M  V30 22899 C 2134.86 -4.73968 -3.87325 0
M  V30 22900 N 2134 -4.8555 -5.07135 0
M  V30 22901 H 2138.84 -2.76616 -1.10849 0
M  V30 22902 H 2136.38 -1.36978 -0.536239 0
M  V30 22903 H 2138.33 -2.22549 -3.52885 0
M  V30 22904 H 2136.96 -1.22025 -2.98847 0
M  V30 22905 H 2136.02 -3.33989 -1.82086 0
M  V30 22906 H 2137.33 -4.27018 -2.57793 0
M  V30 22907 H 2136.48 -3.64581 -4.84939 0
M  V30 22908 H 2135.22 -2.61393 -4.11734 0
M  V30 22909 H 2134.23 -4.61944 -2.98141 0
M  V30 22910 H 2135.45 -5.66496 -3.74511 0
M  V30 22911 H 2133.4 -3.97345 -5.2197 0
M  V30 22912 H 2133.31 -5.68794 -4.98005 0
M  V30 22913 H 2134.58 -5.01963 -5.96367 0
M  V30 22914 N 2138.81 0.568558 -1.46987 0
M  V30 22915 C 2140.06 1.32819 -1.53255 0
M  V30 22916 C 2140.39 1.93274 -0.189458 0
M  V30 22917 O 2139.66 1.77254 0.800699 0
M  V30 22918 C 2139.95 2.44688 -2.64196 0
M  V30 22919 C 2139.8 1.89176 -4.08084 0
M  V30 22920 C 2141.12 3.46671 -2.71122 0
M  V30 22921 H 2138.24 0.481565 -0.557911 0
M  V30 22922 H 2140.88 0.637355 -1.78991 0
M  V30 22923 H 2139.03 3.03617 -2.42382 0
M  V30 22924 H 2140.7 1.34596 -4.41227 0
M  V30 22925 H 2138.95 1.19918 -4.16896 0
M  V30 22926 H 2139.62 2.69995 -4.81463 0
M  V30 22927 H 2142.09 2.97645 -2.90769 0
M  V30 22928 H 2140.97 4.22387 -3.50543 0
M  V30 22929 H 2141.23 4.04802 -1.7773 0
M  V30 22930 N 2140.29 1.34929 0.814366 0
M  V30 22931 C 2141.57 1.18339 1.55741 0
M  V30 22932 C 2141.95 -0.240616 2.09724 0
M  V30 22933 O 2141.29 -1.2431 1.91727 0
M  V30 22934 C 2141.5 2.24503 2.67206 0
M  V30 22935 C 2142.85 2.59917 3.35751 0
M  V30 22936 O 2143.88 2.23358 2.7747 0
M  V30 22937 O 2142.73 3.22749 4.41017 0
M  V30 22938 H 2139.83 0.459265 0.687753 0
M  V30 22939 H 2142.37 1.46587 0.854999 0
M  V30 22940 H 2141.15 3.20048 2.25133 0
M  V30 22941 H 2140.77 1.9748 3.4509 0
M  V30 22942 N 2141.77 -1.0356 1.18799 0
M  V30 22943 C 2142.7 -2.11742 0.877379 0
M  V30 22944 C 2143.71 -1.62303 -0.127137 0
M  V30 22945 O 2144.9 -1.78212 0.10138 0
M  V30 22946 C 2142 -3.37653 0.290508 0
M  V30 22947 C 2141.17 -4.16306 1.34193 0
M  V30 22948 C 2140.23 -5.20538 0.769826 0
M  V30 22949 O 2139.26 -5.50531 1.44584 0
M  V30 22950 N 2140.46 -5.78904 -0.430185 0
M  V30 22951 H 2143.23 -2.3898 1.80855 0
M  V30 22952 H 2140.79 -1.19795 1.08907 0
M  V30 22953 H 2142.78 -4.04561 -0.105914 0
M  V30 22954 H 2141.35 -3.07816 -0.544797 0
M  V30 22955 H 2140.57 -3.44645 1.91347 0
M  V30 22956 H 2141.86 -4.65647 2.05062 0
M  V30 22957 H 2141.25 -5.56844 -0.997037 0
M  V30 22958 H 2139.81 -6.47254 -0.768466 0
M  V30 22959 N 2143.25 -0.990834 -1.22557 0
M  V30 22960 C 2144.49 -0.664218 -1.90873 0
M  V30 22961 C 2144.81 0.80601 -1.77563 0
M  V30 22962 O 2144.08 1.57751 -1.16153 0
M  V30 22963 H 2142.66 -0.242684 -0.70648 0
M  V30 22964 H 2145.33 -1.2569 -1.48957 0
M  V30 22965 H 2144.42 -0.924949 -2.98079 0
M  V30 22966 N 2144.72 1.37856 -0.763775 0
M  V30 22967 C 2146.14 1.53343 -0.442503 0
M  V30 22968 C 2146.34 1.72406 1.04299 0
M  V30 22969 O 2145.4 1.74087 1.82893 0
M  V30 22970 C 2146.71 2.73459 -1.25063 0
M  V30 22971 C 2148.26 2.87315 -1.24173 0
M  V30 22972 C 2148.73 4.10404 -2.03303 0
M  V30 22973 N 2150.22 4.17501 -2.00616 0
M  V30 22974 C 2150.96 5.11759 -2.58631 0
M  V30 22975 N 2150.45 6.11626 -3.25401 0
M  V30 22976 N 2152.25 5.04184 -2.48505 0
M  V30 22977 H 2144.4 1.23733 -1.72638 0
M  V30 22978 H 2146.66 0.601869 -0.732432 0
M  V30 22979 H 2146.37 2.65811 -2.30299 0
M  V30 22980 H 2146.24 3.66925 -0.87439 0
M  V30 22981 H 2148.63 2.94439 -0.197389 0
M  V30 22982 H 2148.71 1.9483 -1.65755 0
M  V30 22983 H 2148.35 4.04042 -3.07754 0
M  V30 22984 H 2148.28 5.01988 -1.59108 0
M  V30 22985 H 2150.77 3.45984 -1.51998 0
M  V30 22986 H 2151.09 6.80062 -3.67063 0
M  V30 22987 H 2149.43 6.11928 -3.29498 0
M  V30 22988 H 2152.62 4.25108 -1.95962 0
M  V30 22989 H 2152.8 5.7746 -2.94013 0
M  V30 22990 N 2146.2 0.513665 1.48994 0
M  V30 22991 C 2147.15 -0.271533 2.3101 0
M  V30 22992 C 2148.14 -0.950911 1.40193 0
M  V30 22993 O 2149.35 -0.877155 1.57181 0
M  V30 22994 H 2145.72 -0.106429 0.744431 0
M  V30 22995 H 2147.7 0.440007 2.95138 0
M  V30 22996 C 2146.44 -1.3155 3.21854 0
M  V30 22997 H 2145.77 -0.802134 3.91671 0
M  V30 22998 H 2147.21 -1.83663 3.82157 0
M  V30 22999 C 2145.67 -2.34045 2.42332 0
M  V30 23000 O 2146.2 -3.40173 2.13647 0
M  V30 23001 N 2144.4 -2.06838 2.04123 0
M  V30 23002 H 2143.95 -1.20552 2.27651 0
M  V30 23003 H 2143.91 -2.75641 1.51225 0
M  V30 23004 N 2147.68 -1.55636 0.248053 0
M  V30 23005 C 2148.93 -1.99266 -0.376927 0
M  V30 23006 C 2149.26 -1.13602 -1.57506 0
M  V30 23007 O 2148.53 -0.199686 -1.93472 0
M  V30 23008 C 2148.82 -3.51425 -0.785664 0
M  V30 23009 C 2148.67 -4.47854 0.417942 0
M  V30 23010 C 2149.99 -4.08714 -1.63221 0
M  V30 23011 H 2147.11 -0.724431 -0.135531 0
M  V30 23012 H 2149.75 -1.86756 0.349594 0
M  V30 23013 H 2147.9 -3.62216 -1.40469 0
M  V30 23014 H 2149.57 -4.49041 1.05638 0
M  V30 23015 H 2147.81 -4.20629 1.06084 0
M  V30 23016 H 2148.49 -5.51929 0.0886002 0
M  V30 23017 H 2150.96 -4.01031 -1.10966 0
M  V30 23018 H 2149.84 -5.15443 -1.88706 0
M  V30 23019 H 2150.1 -3.57242 -2.60443 0
M  V30 23020 N 2149.16 0.0250451 -1.5758 0
M  V30 23021 C 2150.07 1.04128 -2.10225 0
M  V30 23022 C 2151.08 1.39367 -1.04178 0
M  V30 23023 O 2152.26 1.48605 -1.35936 0
M  V30 23024 C 2149.32 2.32208 -2.5745 0
M  V30 23025 C 2148.39 2.03512 -3.77996 0
M  V30 23026 C 2147.62 3.25486 -4.22959 0
M  V30 23027 O 2147.84 4.36301 -3.6742 0
M  V30 23028 O 2146.78 3.1095 -5.15358 0
M  V30 23029 H 2150.6 0.623859 -2.97223 0
M  V30 23030 H 2148.19 0.242286 -1.47422 0
M  V30 23031 H 2150.07 3.07498 -2.88137 0
M  V30 23032 H 2148.74 2.73237 -1.73561 0
M  V30 23033 H 2147.65 1.25777 -3.52322 0
M  V30 23034 H 2148.98 1.67337 -4.62882 0
M  V30 23035 N 2150.64 1.54769 0.297388 0
M  V30 23036 C 2151.58 1.86729 1.3869 0
M  V30 23037 C 2152.58 0.741344 1.52317 0
M  V30 23038 O 2153.78 0.925384 1.54391 0
M  V30 23039 H 2150.16 0.592301 0.463339 0
M  V30 23040 H 2152.13 2.77791 1.08972 0
M  V30 23041 C 2150.88 2.13444 2.74475 0
M  V30 23042 H 2150.2 2.99558 2.64773 0
M  V30 23043 H 2151.64 2.39744 3.49712 0
M  V30 23044 C 2150.1 0.934151 3.2369 0
M  V30 23045 O 2150.63 0.156464 4.01395 0
M  V30 23046 N 2148.84 0.738537 2.81059 0
M  V30 23047 H 2148.38 1.37261 2.17984 0
M  V30 23048 H 2148.34 -0.0630002 3.14337 0
M  V30 23049 N 2152.11 -0.560755 1.47286 0
M  V30 23050 C 2153.04 -1.67792 1.62383 0
M  V30 23051 C 2154.02 -1.6338 0.473377 0
M  V30 23052 O 2155.21 -1.81057 0.702288 0
M  V30 23053 C 2152.34 -3.06431 1.63454 0
M  V30 23054 C 2151.29 -3.25688 2.7769 0
M  V30 23055 C 2150.62 -4.65078 2.63831 0
M  V30 23056 C 2151.92 -3.11404 4.19315 0
M  V30 23057 H 2153.61 -1.55414 2.55904 0
M  V30 23058 H 2151.16 -0.746251 1.23155 0
M  V30 23059 H 2153.11 -3.84428 1.72606 0
M  V30 23060 H 2151.84 -3.1976 0.664904 0
M  V30 23061 H 2150.5 -2.50098 2.68042 0
M  V30 23062 H 2150.14 -4.75201 1.64904 0
M  V30 23063 H 2149.84 -4.78911 3.40467 0
M  V30 23064 H 2151.37 -5.45214 2.74907 0
M  V30 23065 H 2152.78 -3.79222 4.29958 0
M  V30 23066 H 2151.18 -3.36749 4.9671 0
M  V30 23067 H 2152.25 -2.08195 4.3793 0
M  V30 23068 N 2153.59 -1.35359 -0.807199 0
M  V30 23069 C 2154.84 -1.28788 -1.56657 0
M  V30 23070 C 2155.17 0.137625 -1.93712 0
M  V30 23071 O 2154.45 1.08685 -1.61301 0
M  V30 23072 C 2154.73 -2.19379 -2.85561 0
M  V30 23073 C 2154.58 -3.70543 -2.54986 0
M  V30 23074 C 2155.9 -2.0909 -3.87259 0
M  V30 23075 H 2153.02 -0.469169 -0.568374 0
M  V30 23076 H 2155.66 -1.65754 -0.928736 0
M  V30 23077 H 2153.81 -1.87984 -3.39992 0
M  V30 23078 H 2155.48 -4.12377 -2.06743 0
M  V30 23079 H 2153.73 -3.90855 -1.88189 0
M  V30 23080 H 2154.4 -4.29316 -3.46975 0
M  V30 23081 H 2156.87 -2.36687 -3.42226 0
M  V30 23082 H 2155.75 -2.74675 -4.75231 0
M  V30 23083 H 2156.01 -1.07265 -4.2889 0
M  V30 23084 N 2155.07 1.02928 -1.19346 0
M  V30 23085 C 2156 2.11274 -0.888596 0
M  V30 23086 C 2157.01 1.62368 0.118528 0
M  V30 23087 O 2158.2 1.78156 -0.11083 0
M  V30 23088 C 2155.3 3.37494 -0.30841 0
M  V30 23089 C 2154.48 4.15589 -1.36399 0
M  V30 23090 C 2153.54 5.20123 -0.797421 0
M  V30 23091 O 2152.56 5.49756 -1.47501 0
M  V30 23092 N 2153.76 5.79124 0.399478 0
M  V30 23093 H 2156.53 2.38018 -1.8212 0
M  V30 23094 H 2154.09 1.19216 -1.09541 0
M  V30 23095 H 2156.08 4.04612 0.0844572 0
M  V30 23096 H 2154.65 3.08101 0.528465 0
M  V30 23097 H 2153.87 3.43625 -1.93172 0
M  V30 23098 H 2155.16 4.64553 -2.07529 0
M  V30 23099 H 2154.56 5.57365 0.967492 0
M  V30 23100 H 2153.11 6.47653 0.734129 0
M  V30 23101 N 2156.55 0.997319 1.2203 0
M  V30 23102 C 2157.48 0.50954 2.23464 0
M  V30 23103 C 2158.49 -0.397746 1.57866 0
M  V30 23104 O 2159.68 -0.199173 1.77385 0
M  V30 23105 C 2156.78 -0.280337 3.37739 0
M  V30 23106 C 2155.95 0.624157 4.32924 0
M  V30 23107 C 2155.01 -0.114778 5.26075 0
M  V30 23108 O 2154.04 0.501303 5.66988 0
M  V30 23109 N 2155.24 -1.39573 5.63471 0
M  V30 23110 H 2158.01 1.38179 2.65945 0
M  V30 23111 H 2155.57 0.872554 1.36375 0
M  V30 23112 H 2157.56 -0.783436 3.97045 0
M  V30 23113 H 2156.13 -1.05371 2.94305 0
M  V30 23114 H 2155.35 1.30786 3.71872 0
M  V30 23115 H 2156.64 1.23998 4.93459 0
M  V30 23116 H 2156.04 -1.91751 5.3221 0
M  V30 23117 H 2154.59 -1.84393 6.25174 0
M  V30 23118 N 2158.03 -1.37449 0.771075 0
M  V30 23119 C 2158.94 -2.3407 0.157631 0
M  V30 23120 C 2159.95 -1.60145 -0.680404 0
M  V30 23121 O 2161.13 -1.9224 -0.600482 0
M  V30 23122 C 2158.19 -3.39316 -0.711733 0
M  V30 23123 C 2157.25 -4.29063 0.142682 0
M  V30 23124 C 2156.49 -5.29282 -0.685284 0
M  V30 23125 O 2156.71 -5.37029 -1.92241 0
M  V30 23126 O 2155.64 -6.01825 -0.0948431 0
M  V30 23127 H 2159.47 -2.8826 0.956036 0
M  V30 23128 H 2157.06 -1.39598 0.532224 0
M  V30 23129 H 2158.94 -4.03713 -1.20806 0
M  V30 23130 H 2157.61 -2.87455 -1.48834 0
M  V30 23131 H 2156.52 -3.67769 0.685357 0
M  V30 23132 H 2157.85 -4.84227 0.882356 0
M  V30 23133 N 2159.5 -0.52156 -1.4872 0
M  V30 23134 C 2160.43 0.234741 -2.32317 0
M  V30 23135 C 2161.42 0.943119 -1.4156 0
M  V30 23136 O 2162.6 0.930536 -1.70454 0
M  V30 23137 C 2159.73 1.28724 -3.22564 0
M  V30 23138 C 2158.68 0.697518 -4.22278 0
M  V30 23139 C 2158.01 1.85205 -5.016 0
M  V30 23140 C 2159.31 -0.325174 -5.21287 0
M  V30 23141 H 2161 -0.463097 -2.95797 0
M  V30 23142 H 2158.55 -0.224154 -1.42245 0
M  V30 23143 H 2160.5 1.82422 -3.79869 0
M  V30 23144 H 2159.23 2.01455 -2.57067 0
M  V30 23145 H 2157.89 0.182131 -3.66147 0
M  V30 23146 H 2157.53 2.56754 -4.32535 0
M  V30 23147 H 2157.23 1.46343 -5.69085 0
M  V30 23148 H 2158.76 2.39297 -5.61755 0
M  V30 23149 H 2160.17 0.124406 -5.73165 0
M  V30 23150 H 2158.57 -0.630729 -5.96776 0
M  V30 23151 H 2159.64 -1.23392 -4.68938 0
M  V30 23152 N 2160.98 1.55502 -0.256304 0
M  V30 23153 C 2161.91 2.19122 0.672174 0
M  V30 23154 C 2162.93 1.17029 1.13172 0
M  V30 23155 O 2164.12 1.43849 1.05687 0
M  V30 23156 C 2161.22 2.78814 1.92655 0
M  V30 23157 C 2160.39 4.06417 1.6169 0
M  V30 23158 C 2159.45 4.50337 2.72182 0
M  V30 23159 O 2158.47 5.16515 2.39167 0
M  V30 23160 N 2159.68 4.18905 4.01869 0
M  V30 23161 H 2162.44 2.99428 0.127769 0
M  V30 23162 H 2160 1.61719 -0.0766386 0
M  V30 23163 H 2161.99 3.05149 2.65831 0
M  V30 23164 H 2160.56 2.02611 2.38049 0
M  V30 23165 H 2159.78 3.87571 0.719867 0
M  V30 23166 H 2161.07 4.89593 1.38479 0
M  V30 23167 H 2160.47 3.65795 4.31521 0
M  V30 23168 H 2159.03 4.50054 4.71481 0
M  V30 23169 N 2162.46 -0.0166879 1.57591 0
M  V30 23170 C 2163.69 -0.720103 1.94497 0
M  V30 23171 C 2164.11 -1.6743 0.857254 0
M  V30 23172 O 2163.47 -1.80343 -0.186035 0
M  V30 23173 C 2163.52 -1.44264 3.30485 0
M  V30 23174 O 2162.62 -2.55638 3.23609 0
M  V30 23175 H 2161.96 -0.19279 0.635396 0
M  V30 23176 H 2164.49 0.0315297 2.04576 0
M  V30 23177 H 2164.5 -1.80981 3.65664 0
M  V30 23178 H 2163.18 -0.742902 4.09211 0
M  V30 23179 H 2161.75 -2.21373 3.00081 0
M  V30 23180 N 2163.94 -1.54924 -0.289176 0
M  V30 23181 C 2164.89 -1.86692 -1.35701 0
M  V30 23182 C 2165.86 -0.716885 -1.49833 0
M  V30 23183 O 2167.04 -0.966637 -1.64502 0
M  V30 23184 C 2164.18 -2.13019 -2.71509 0
M  V30 23185 C 2163.29 -3.40605 -2.6573 0
M  V30 23186 C 2162.43 -3.56714 -3.9361 0
M  V30 23187 C 2161.47 -4.78049 -3.82276 0
M  V30 23188 N 2160.6 -4.90901 -5.01957 0
M  V30 23189 H 2165.44 -2.77776 -1.07909 0
M  V30 23190 H 2162.98 -1.37539 -0.52168 0
M  V30 23191 H 2164.94 -2.2628 -3.50504 0
M  V30 23192 H 2163.57 -1.25188 -2.97536 0
M  V30 23193 H 2162.62 -3.35902 -1.78533 0
M  V30 23194 H 2163.93 -4.29728 -2.53249 0
M  V30 23195 H 2163.09 -3.69704 -4.81045 0
M  V30 23196 H 2161.83 -2.65745 -4.08939 0
M  V30 23197 H 2160.83 -4.6508 -2.93225 0
M  V30 23198 H 2162.06 -5.70437 -3.68482 0
M  V30 23199 H 2160 -4.02859 -5.17726 0
M  V30 23200 H 2159.92 -5.74044 -4.91945 0
M  V30 23201 H 2161.19 -5.0826 -5.91009 0
M  V30 23202 N 2165.42 0.552936 -1.47582 0
M  V30 23203 C 2166.83 0.879282 -1.33195 0
M  V30 23204 C 2167.03 1.98851 -0.32564 0
M  V30 23205 O 2166.09 2.51144 0.261323 0
M  V30 23206 C 2167.4 1.26848 -2.72635 0
M  V30 23207 C 2168.95 1.37967 -2.80952 0
M  V30 23208 C 2169.42 1.8024 -4.21043 0
M  V30 23209 N 2170.92 1.87383 -4.23606 0
M  V30 23210 C 2171.65 2.2143 -5.2892 0
M  V30 23211 N 2171.15 2.54061 -6.44535 0
M  V30 23212 N 2172.94 2.2224 -5.163 0
M  V30 23213 H 2165.09 -0.179315 -2.11642 0
M  V30 23214 H 2167.35 -0.0175595 -0.947837 0
M  V30 23215 H 2167.06 0.52723 -3.47726 0
M  V30 23216 H 2166.93 2.22371 -3.04682 0
M  V30 23217 H 2169.32 2.11172 -2.06132 0
M  V30 23218 H 2169.4 0.406213 -2.52554 0
M  V30 23219 H 2169.05 1.07603 -4.96371 0
M  V30 23220 H 2168.98 2.78596 -4.46869 0
M  V30 23221 H 2171.47 1.64536 -3.40201 0
M  V30 23222 H 2171.78 2.79079 -7.20649 0
M  V30 23223 H 2170.12 2.51631 -6.47848 0
M  V30 23224 H 2173.32 1.9619 -4.25002 0
M  V30 23225 H 2173.49 2.48444 -5.98481 0
M  V30 23226 N 2166.89 1.35785 0.800009 0
M  V30 23227 C 2167.86 1.29109 1.89377 0
M  V30 23228 C 2168.86 0.201077 1.59538 0
M  V30 23229 O 2170.05 0.455197 1.68148 0
M  V30 23230 C 2167.18 0.99888 3.25937 0
M  V30 23231 H 2168.37 2.2637 1.96715 0
M  V30 23232 H 2165.93 1.20404 0.996618 0
M  V30 23233 H 2166.66 0.0304071 3.24286 0
M  V30 23234 H 2166.45 1.78756 3.48982 0
M  V30 23235 H 2167.94 0.977941 4.05988 0
M  V30 23236 N 2168.37 -1.02294 1.19891 0
M  V30 23237 C 2169.79 -1.28069 0.952398 0
M  V30 23238 C 2169.99 -1.98041 -0.371776 0
M  V30 23239 O 2169.04 -2.2719 -1.10185 0
M  V30 23240 C 2170.36 -2.12194 2.13059 0
M  V30 23241 C 2171.91 -2.25482 2.17087 0
M  V30 23242 C 2172.38 -3.12982 3.34375 0
M  V30 23243 N 2173.87 -3.2057 3.34348 0
M  V30 23244 C 2174.61 -3.88481 4.21747 0
M  V30 23245 N 2174.1 -4.58571 5.19311 0
M  V30 23246 N 2175.9 -3.8494 4.09606 0
M  V30 23247 H 2168.05 -0.55294 2.05076 0
M  V30 23248 H 2170.31 -0.306622 0.897043 0
M  V30 23249 H 2170.02 -1.68109 3.08921 0
M  V30 23250 H 2169.89 -3.12919 2.10621 0
M  V30 23251 H 2172.28 -2.68795 1.21792 0
M  V30 23252 H 2172.36 -1.24287 2.23576 0
M  V30 23253 H 2172 -2.70376 4.29953 0
M  V30 23254 H 2171.93 -4.1425 3.25123 0
M  V30 23255 H 2174.42 -2.70658 2.63729 0
M  V30 23256 H 2174.74 -5.08039 5.82337 0
M  V30 23257 H 2173.08 -4.57417 5.23254 0
M  V30 23258 H 2176.27 -3.29326 3.32659 0
M  V30 23259 H 2176.44 -4.37591 4.77931 0
M  V30 23260 N 2169.85 -1.00378 -1.21499 0
M  V30 23261 C 2171.08 -0.704325 -1.95074 0
M  V30 23262 C 2171.5 0.726447 -1.73506 0
M  V30 23263 O 2170.86 1.49809 -1.02113 0
M  V30 23264 C 2170.91 -1.02938 -3.45595 0
M  V30 23265 O 2170.01 -0.133961 -4.12182 0
M  V30 23266 H 2169.35 -0.262537 -0.609894 0
M  V30 23267 H 2171.88 -1.34369 -1.54292 0
M  V30 23268 H 2171.89 -0.975727 -3.96161 0
M  V30 23269 H 2170.57 -2.0719 -3.60618 0
M  V30 23270 H 2169.14 -0.244034 -3.72101 0
M  V30 23271 N 2171.33 1.37038 -0.778354 0
M  V30 23272 C 2172.55 2.0432 -0.356086 0
M  V30 23273 C 2172.98 1.58315 1.01577 0
M  V30 23274 O 2172.34 0.74645 1.65221 0
M  V30 23275 C 2172.38 3.58196 -0.41573 0
M  V30 23276 O 2171.49 4.08281 0.581416 0
M  V30 23277 H 2170.83 0.646127 -0.153022 0
M  V30 23278 H 2173.36 1.75219 -1.05639 0
M  V30 23279 H 2173.37 4.0707 -0.275375 0
M  V30 23280 H 2172.04 3.91034 -1.41652 0
M  V30 23281 H 2170.62 3.70709 0.403635 0
M  V30 23282 N 2172.81 0.529439 1.48441 0
M  V30 23283 C 2174.06 -0.00484705 2.02099 0
M  V30 23284 C 2174.38 -1.34819 1.40886 0
M  V30 23285 O 2173.65 -1.873 0.574052 0
M  V30 23286 H 2172.23 -0.00477953 0.746985 0
M  V30 23287 H 2174.89 0.693148 1.82158 0
M  V30 23288 H 2173.98 -0.113574 3.11893 0
M  V30 23289 N 2174.29 -1.55364 0.264547 0
M  V30 23290 C 2175.53 -1.98537 -0.355827 0
M  V30 23291 C 2175.85 -1.15624 -1.57767 0
M  V30 23292 O 2177.05 -1.48892 -2.27032 0
M  V30 23293 C 2175.51 -3.53332 -0.684446 0
M  V30 23294 C 2175.12 -4.45007 0.516993 0
M  V30 23295 C 2176.86 -4.05119 -1.26803 0
M  V30 23296 C 2174.77 -5.91174 0.163548 0
M  V30 23297 H 2173.7 -0.7415 -0.136725 0
M  V30 23298 H 2176.35 -1.79782 0.367539 0
M  V30 23299 H 2174.73 -3.67848 -1.46643 0
M  V30 23300 H 2175.91 -4.42256 1.29406 0
M  V30 23301 H 2174.22 -4.03797 1.0167 0
M  V30 23302 H 2176.82 -5.11859 -1.5461 0
M  V30 23303 H 2177.16 -3.53519 -2.19841 0
M  V30 23304 H 2177.69 -3.93999 -0.548571 0
M  V30 23305 H 2174.43 -6.46848 1.06153 0
M  V30 23306 H 2173.95 -5.97019 -0.576966 0
M  V30 23307 H 2175.63 -6.46524 -0.248012 0
M  V30 23308 N 2175.76 0.00833021 -1.57598 0
M  V30 23309 C 2176.7 1.0361 -2.03323 0
M  V30 23310 C 2177.67 1.33969 -0.921475 0
M  V30 23311 O 2178.86 1.46274 -1.18895 0
M  V30 23312 C 2175.99 2.36579 -2.4238 0
M  V30 23313 C 2175.03 2.21938 -3.64205 0
M  V30 23314 S 2175.86 1.55325 -5.12479 0
M  V30 23315 C 2177.02 2.89741 -5.54798 0
M  V30 23316 H 2177.25 0.646724 -2.90181 0
M  V30 23317 H 2174.79 0.218949 -1.5284 0
M  V30 23318 H 2176.74 3.13037 -2.65552 0
M  V30 23319 H 2175.41 2.72658 -1.55937 0
M  V30 23320 H 2174.6 3.20148 -3.89257 0
M  V30 23321 H 2174.2 1.53624 -3.40992 0
M  V30 23322 H 2176.49 3.86052 -5.56749 0
M  V30 23323 H 2177.44 2.69399 -6.54851 0
M  V30 23324 H 2177.84 2.93267 -4.82343 0
M  V30 23325 N 2177.24 1.55075 0.280956 0
M  V30 23326 C 2178.47 1.79652 1.03634 0
M  V30 23327 C 2178.89 0.564074 1.79443 0
M  V30 23328 O 2178.25 -0.486088 1.74662 0
M  V30 23329 C 2178.3 3.01583 1.97687 0
M  V30 23330 O 2177.4 2.76111 3.06327 0
M  V30 23331 H 2176.74 0.594024 0.296701 0
M  V30 23332 H 2179.27 2.02203 0.312282 0
M  V30 23333 H 2179.28 3.301 2.39787 0
M  V30 23334 H 2177.96 3.90937 1.41919 0
M  V30 23335 H 2176.53 2.58668 2.68598 0
M  V30 23336 N 2178.72 -0.545102 1.47873 0
M  V30 23337 C 2179.65 -1.66665 1.57339 0
M  V30 23338 C 2180.66 -1.56204 0.458698 0
M  V30 23339 O 2181.85 -1.62941 0.728868 0
M  V30 23340 C 2178.95 -3.05217 1.47295 0
M  V30 23341 C 2178.13 -3.41311 2.73543 0
M  V30 23342 C 2177.19 -4.59078 2.57165 0
M  V30 23343 O 2176.21 -4.63053 3.31014 0
M  V30 23344 N 2177.41 -5.56323 1.65786 0
M  V30 23345 H 2180.18 -1.58986 2.54054 0
M  V30 23346 H 2177.74 -0.732029 1.44405 0
M  V30 23347 H 2179.73 -3.81853 1.34055 0
M  V30 23348 H 2178.3 -3.07056 0.586146 0
M  V30 23349 H 2177.52 -2.54003 3.01457 0
M  V30 23350 H 2178.81 -3.62205 3.5733 0
M  V30 23351 H 2178.21 -5.55877 1.04961 0
M  V30 23352 H 2176.76 -6.32237 1.58492 0
M  V30 23353 N 2180.2 -1.36208 -0.792797 0
M  V30 23354 C 2181.44 -1.30442 -1.55282 0
M  V30 23355 C 2181.78 0.117071 -1.93847 0
M  V30 23356 O 2181.05 1.06968 -1.62444 0
M  V30 23357 C 2181.33 -2.22396 -2.83218 0
M  V30 23358 C 2181.19 -3.73227 -2.51042 0
M  V30 23359 C 2182.51 -2.13185 -3.85019 0
M  V30 23360 H 2179.63 -0.475171 -0.563366 0
M  V30 23361 H 2182.27 -1.6673 -0.911103 0
M  V30 23362 H 2180.42 -1.9158 -3.37979 0
M  V30 23363 H 2182.09 -4.14547 -2.02358 0
M  V30 23364 H 2180.33 -3.92829 -1.84033 0
M  V30 23365 H 2181 -4.32972 -3.42402 0
M  V30 23366 H 2183.48 -2.40303 -3.39696 0
M  V30 23367 H 2182.36 -2.797 -4.72291 0
M  V30 23368 H 2182.62 -1.11808 -4.27728 0
M  V30 23369 N 2181.68 1.01656 -1.20431 0
M  V30 23370 C 2182.92 1.74909 -1.01249 0
M  V30 23371 C 2183.24 1.89583 0.456441 0
M  V30 23372 O 2182.51 1.43836 1.32997 0
M  V30 23373 H 2181.09 0.647988 -0.371646 0
M  V30 23374 H 2183.76 1.22561 -1.51542 0
M  V30 23375 H 2182.85 2.75268 -1.47085 0
M  V30 23376 N 2183.15 1.01021 1.20965 0
M  V30 23377 C 2184.57 0.723934 1.42237 0
M  V30 23378 C 2184.77 -0.698897 1.88991 0
M  V30 23379 O 2183.83 -1.46754 2.05474 0
M  V30 23380 C 2185.14 1.74422 2.44944 0
M  V30 23381 C 2186.69 1.76162 2.5872 0
M  V30 23382 C 2187.16 2.771 3.64664 0
M  V30 23383 N 2188.65 2.758 3.72141 0
M  V30 23384 C 2189.39 3.5056 4.53757 0
M  V30 23385 N 2188.88 4.34977 5.39228 0
M  V30 23386 N 2190.68 3.39187 4.48229 0
M  V30 23387 H 2182.83 1.92886 0.889301 0
M  V30 23388 H 2185.09 0.832854 0.452834 0
M  V30 23389 H 2184.8 2.76323 2.17574 0
M  V30 23390 H 2184.67 1.55112 3.43831 0
M  V30 23391 H 2187.06 0.749493 2.85424 0
M  V30 23392 H 2187.14 1.99544 1.60049 0
M  V30 23393 H 2186.78 3.78473 3.38705 0
M  V30 23394 H 2186.71 2.50982 4.62942 0
M  V30 23395 H 2189.2 2.1456 3.11083 0
M  V30 23396 H 2189.52 4.88805 5.98573 0
M  V30 23397 H 2187.86 4.39057 5.38752 0
M  V30 23398 H 2191.05 2.72665 3.80488 0
M  V30 23399 H 2191.23 3.97705 5.116 0
M  V30 23400 N 2184.63 -1.36623 0.78561 0
M  V30 23401 C 2185.54 -2.33889 0.182448 0
M  V30 23402 C 2186.56 -1.60858 -0.66338 0
M  V30 23403 O 2187.73 -1.92866 -0.580058 0
M  V30 23404 C 2184.8 -3.40052 -0.675704 0
M  V30 23405 C 2183.86 -4.28887 0.188182 0
M  V30 23406 C 2183.09 -5.29979 -0.629108 0
M  V30 23407 O 2183.32 -5.39037 -1.86534 0
M  V30 23408 O 2182.25 -6.01892 -0.0310062 0
M  V30 23409 H 2186.08 -2.87229 0.986556 0
M  V30 23410 H 2183.66 -1.39026 0.547001 0
M  V30 23411 H 2185.54 -4.04971 -1.16518 0
M  V30 23412 H 2184.22 -2.89017 -1.45777 0
M  V30 23413 H 2183.12 -3.67021 0.724325 0
M  V30 23414 H 2184.46 -4.83263 0.933665 0
M  V30 23415 N 2186.11 -0.537304 -1.48158 0
M  V30 23416 C 2187.02 0.225092 -2.33518 0
M  V30 23417 C 2188.04 0.931763 -1.4695 0
M  V30 23418 O 2189.21 0.905094 -1.79917 0
M  V30 23419 C 2186.28 1.25403 -3.23226 0
M  V30 23420 C 2185.34 0.556924 -4.25672 0
M  V30 23421 C 2184.57 1.53684 -5.11094 0
M  V30 23422 O 2184.79 2.77009 -4.9862 0
M  V30 23423 O 2183.73 1.07222 -5.92273 0
M  V30 23424 H 2187.55 -0.474567 -2.99969 0
M  V30 23425 H 2185.14 -0.298137 -1.46395 0
M  V30 23426 H 2187.02 1.84847 -3.78695 0
M  V30 23427 H 2185.7 1.93596 -2.59427 0
M  V30 23428 H 2184.6 -0.0781996 -3.74018 0
M  V30 23429 H 2185.94 -0.0832021 -4.9213 0
M  V30 23430 N 2187.59 1.55221 -0.272782 0
M  V30 23431 C 2188.5 2.26098 0.62584 0
M  V30 23432 C 2189.51 1.28606 1.17203 0
M  V30 23433 O 2190.69 1.61537 1.20281 0
M  V30 23434 C 2187.76 2.96645 1.7945 0
M  V30 23435 C 2186.82 4.0961 1.28522 0
M  V30 23436 C 2186.05 4.76784 2.39819 0
M  V30 23437 O 2186.27 4.43155 3.59124 0
M  V30 23438 O 2185.21 5.64779 2.08107 0
M  V30 23439 H 2189.03 3.03656 0.0517442 0
M  V30 23440 H 2186.62 1.49346 -0.0402752 0
M  V30 23441 H 2188.5 3.40989 2.47597 0
M  V30 23442 H 2187.17 2.22006 2.35573 0
M  V30 23443 H 2186.08 3.69728 0.570286 0
M  V30 23444 H 2187.41 4.86143 0.769772 0
M  V30 23445 N 2189.07 2.77022e-05 1.576 0
M  V30 23446 C 2190.02 -0.99989 2.04905 0
M  V30 23447 C 2191 -1.30313 0.943787 0
M  V30 23448 O 2192.19 -1.29411 1.20755 0
M  V30 23449 C 2189.32 -2.29188 2.55593 0
M  V30 23450 C 2188.41 -2.01827 3.72997 0
M  V30 23451 N 2188.8 -1.44626 4.84682 0
M  V30 23452 C 2187.1 -2.3197 3.80928 0
M  V30 23453 C 2187.8 -1.33737 5.66118 0
M  V30 23454 N 2186.77 -1.82299 5.12121 0
M  V30 23455 H 2190.58 -0.552119 2.88667 0
M  V30 23456 H 2188.09 -0.205666 1.61092 0
M  V30 23457 H 2190.09 -3.01663 2.87759 0
M  V30 23458 H 2188.75 -2.74617 1.7325 0
M  V30 23459 H 2189.76 -1.12507 5.05532 0
M  V30 23460 H 2186.43 -2.80274 3.09439 0
M  V30 23461 H 2187.82 -0.897537 6.65878 0
M  V30 23462 N 2190.54 -1.55222 -0.272728 0
M  V30 23463 C 2191.77 -1.79606 -1.02104 0
M  V30 23464 C 2192.18 -0.569725 -1.80418 0
M  V30 23465 O 2191.53 0.470712 -1.77567 0
M  V30 23466 C 2191.59 -2.96926 -2.0267 0
M  V30 23467 C 2191.25 -4.33955 -1.43291 0
M  V30 23468 C 2192.25 -5.1293 -0.84844 0
M  V30 23469 C 2189.93 -4.80613 -1.46003 0
M  V30 23470 C 2191.93 -6.36698 -0.298997 0
M  V30 23471 C 2189.61 -6.04336 -0.906727 0
M  V30 23472 C 2190.61 -6.82216 -0.32721 0
M  V30 23473 O 2190.3 -8.03605 0.217621 0
M  V30 23474 H 2190.03 -0.602109 -0.307311 0
M  V30 23475 H 2192.59 -2.03065 -0.308827 0
M  V30 23476 H 2190.82 -2.69159 -2.77651 0
M  V30 23477 H 2192.51 -3.08631 -2.63632 0
M  V30 23478 H 2193.27 -4.78015 -0.820181 0
M  V30 23479 H 2189.15 -4.20003 -1.90049 0
M  V30 23480 H 2192.69 -6.9743 0.153975 0
M  V30 23481 H 2188.59 -6.38733 -0.932227 0
M  V30 23482 H 2189.36 -8.1843 0.107007 0
M  V30 23483 N 2192.02 0.537252 -1.4816 0
M  V30 23484 C 2192.95 1.65828 -1.58221 0
M  V30 23485 C 2193.97 1.55959 -0.466975 0
M  V30 23486 O 2195.16 1.62552 -0.737499 0
M  V30 23487 C 2192.26 3.04432 -1.48911 0
M  V30 23488 C 2191.43 3.39855 -2.75349 0
M  V30 23489 C 2190.49 4.57708 -2.59596 0
M  V30 23490 O 2189.51 4.61291 -3.33465 0
M  V30 23491 N 2190.72 5.55436 -1.68734 0
M  V30 23492 H 2193.48 1.57637 -2.54893 0
M  V30 23493 H 2191.04 0.72436 -1.44792 0
M  V30 23494 H 2193.03 3.81136 -1.36078 0
M  V30 23495 H 2191.6 3.0674 -0.602422 0
M  V30 23496 H 2190.82 2.52401 -3.028 0
M  V30 23497 H 2192.11 3.60305 -3.59246 0
M  V30 23498 H 2191.51 5.55313 -1.07908 0
M  V30 23499 H 2190.07 6.31387 -1.61843 0
M  V30 23500 N 2193.5 1.36626 0.785562 0
M  V30 23501 C 2194.41 1.33428 1.92961 0
M  V30 23502 C 2195.43 0.235882 1.72394 0
M  V30 23503 O 2196.6 0.468912 1.95865 0
M  V30 23504 C 2193.67 1.12668 3.27882 0
M  V30 23505 C 2192.73 2.32019 3.612 0
M  V30 23506 C 2191.96 2.1224 4.89684 0
M  V30 23507 O 2192.18 1.09955 5.59702 0
M  V30 23508 O 2191.12 3.00107 5.21746 0
M  V30 23509 H 2194.94 2.29757 1.98609 0
M  V30 23510 H 2192.53 1.17213 0.926363 0
M  V30 23511 H 2194.41 1.03024 4.08612 0
M  V30 23512 H 2193.09 0.194048 3.23118 0
M  V30 23513 H 2191.99 2.47233 2.80761 0
M  V30 23514 H 2193.33 3.23802 3.70693 0
M  V30 23515 N 2194.98 -1.01016 1.20969 0
M  V30 23516 C 2195.93 -2.09689 0.964317 0
M  V30 23517 C 2196.9 -1.6575 -0.107824 0
M  V30 23518 O 2198.08 -1.90762 0.0382323 0
M  V30 23519 C 2195.22 -3.41014 0.52949 0
M  V30 23520 C 2194.33 -3.98395 1.6705 0
M  V30 23521 C 2193.47 -5.17806 1.18534 0
M  V30 23522 C 2192.51 -5.67284 2.29902 0
M  V30 23523 N 2191.64 -6.77951 1.82558 0
M  V30 23524 H 2196.48 -2.30013 1.89467 0
M  V30 23525 H 2194.02 -1.12788 0.944309 0
M  V30 23526 H 2195.98 -4.16397 0.258662 0
M  V30 23527 H 2194.61 -3.20743 -0.363862 0
M  V30 23528 H 2193.66 -3.20046 2.05609 0
M  V30 23529 H 2194.97 -4.31113 2.50885 0
M  V30 23530 H 2194.13 -6.00417 0.870867 0
M  V30 23531 H 2192.87 -4.86669 0.316973 0
M  V30 23532 H 2191.87 -4.83273 2.62158 0
M  V30 23533 H 2193.1 -6.00453 3.17226 0
M  V30 23534 H 2191.04 -6.4863 0.980568 0
M  V30 23535 H 2190.96 -7.09896 2.59969 0
M  V30 23536 H 2192.23 -7.6411 1.54129 0
M  V30 23537 N 2196.46 -1.01661 -1.20428 0
M  V30 23538 C 2197.42 -0.591655 -2.21432 0
M  V30 23539 C 2198.42 0.338198 -1.57203 0
M  V30 23540 O 2199.61 0.126887 -1.73737 0
M  V30 23541 C 2196.74 0.135998 -3.40629 0
M  V30 23542 H 2197.93 -1.48518 -2.60542 0
M  V30 23543 H 2195.49 -0.806402 -1.33891 0
M  V30 23544 H 2196.22 1.04444 -3.07021 0
M  V30 23545 H 2196.01 -0.531985 -3.88474 0
M  V30 23546 H 2197.5 0.420662 -4.15476 0
M  V30 23547 N 2197.93 1.36205 -0.792844 0
M  V30 23548 C 2199.21 1.93428 -0.290661 0
M  V30 23549 C 2199.59 1.72439 1.2177 0
M  V30 23550 O 2198.94 1.08534 2.01078 0
M  V30 23551 C 2199.15 3.42171 -0.687033 0
M  V30 23552 C 2200.5 4.19301 -0.668717 0
M  V30 23553 O 2201.52 3.50625 -0.62772 0
M  V30 23554 O 2200.38 5.41807 -0.714692 0
M  V30 23555 H 2197.47 0.823789 -0.0728072 0
M  V30 23556 H 2200.02 1.45365 -0.875619 0
M  V30 23557 H 2198.79 3.51119 -1.72718 0
M  V30 23558 H 2198.42 3.97527 -0.0761432 0
M  V30 23559 N 2199.41 0.545154 1.47871 0
M  V30 23560 C 2200.83 0.20406 1.5829 0
M  V30 23561 C 2201.03 -1.29315 1.54531 0
M  V30 23562 O 2200.08 -2.07249 1.44236 0
M  V30 23563 C 2201.4 0.820038 2.89302 0
M  V30 23564 C 2202.95 0.790159 3.02862 0
M  V30 23565 C 2203.42 1.38499 4.36557 0
M  V30 23566 N 2204.91 1.34763 4.43163 0
M  V30 23567 C 2205.65 1.77762 5.4515 0
M  V30 23568 N 2205.14 2.28562 6.54012 0
M  V30 23569 N 2206.94 1.68906 5.36122 0
M  V30 23570 H 2199.09 1.51804 1.48557 0
M  V30 23571 H 2201.35 0.632339 0.706294 0
M  V30 23572 H 2201.06 1.87178 2.97754 0
M  V30 23573 H 2200.93 0.305981 3.75957 0
M  V30 23574 H 2203.32 -0.252861 2.94015 0
M  V30 23575 H 2203.4 1.34185 2.1778 0
M  V30 23576 H 2203.04 2.42701 4.4616 0
M  V30 23577 H 2202.97 0.808846 5.20351 0
M  V30 23578 H 2205.46 0.975919 3.65081 0
M  V30 23579 H 2205.78 2.59327 7.2799 0
M  V30 23580 H 2204.12 2.32565 6.54934 0
M  V30 23581 H 2207.31 1.29006 4.49972 0
M  V30 23582 H 2207.48 2.02737 6.15469 0
M  V30 23583 N 2200.89 -1.55074 0.28101 0
M  V30 23584 C 2201.8 -2.26427 -0.61384 0
M  V30 23585 C 2202.82 -1.29226 -1.16519 0
M  V30 23586 O 2203.99 -1.62173 -1.19423 0
M  V30 23587 C 2201.06 -2.97593 -1.77875 0
M  V30 23588 C 2200.12 -4.10286 -1.26348 0
M  V30 23589 C 2199.35 -4.78049 -2.37287 0
M  V30 23590 O 2199.57 -4.45053 -3.56769 0
M  V30 23591 O 2198.51 -5.65874 -2.05109 0
M  V30 23592 H 2202.33 -3.03679 -0.0356398 0
M  V30 23593 H 2199.92 -1.49322 0.0481948 0
M  V30 23594 H 2201.8 -3.42297 -2.45785 0
M  V30 23595 H 2200.48 -2.23253 -2.34393 0
M  V30 23596 H 2199.38 -3.70025 -0.55067 0
M  V30 23597 H 2200.72 -4.86545 -0.743979 0
M  V30 23598 N 2202.37 -0.00838561 -1.57598 0
M  V30 23599 C 2203.32 0.998471 -2.10079 0
M  V30 23600 C 2204.31 1.35049 -1.02264 0
M  V30 23601 O 2205.52 1.33515 -1.20721 0
M  V30 23602 H 2201.89 0.339685 -0.670909 0
M  V30 23603 H 2203.86 0.530346 -2.93649 0
M  V30 23604 C 2202.61 2.27874 -2.62619 0
M  V30 23605 H 2201.94 2.01656 -3.45217 0
M  V30 23606 H 2203.38 2.96582 -3.0301 0
M  V30 23607 C 2201.83 2.9943 -1.54412 0
M  V30 23608 O 2202.36 3.90741 -0.931881 0
M  V30 23609 N 2200.57 2.61402 -1.26955 0
M  V30 23610 H 2200.12 1.87229 -1.76927 0
M  V30 23611 H 2200.08 3.09592 -0.547759 0
M  V30 23612 N 2203.85 1.55365 0.264492 0
M  V30 23613 C 2204.78 1.83768 1.35294 0
M  V30 23614 C 2205.76 0.691361 1.4717 0
M  V30 23615 O 2206.94 0.935267 1.63661 0
M  V30 23616 C 2204.07 2.00684 2.72844 0
M  V30 23617 C 2203.12 3.23268 2.78208 0
M  V30 23618 S 2203.95 4.804 2.36593 0
M  V30 23619 C 2205.1 5.00298 3.76101 0
M  V30 23620 H 2205.34 2.75802 1.10998 0
M  V30 23621 H 2202.87 1.47245 0.46457 0
M  V30 23622 H 2204.83 2.11114 3.52053 0
M  V30 23623 H 2203.49 1.09524 2.94386 0
M  V30 23624 H 2202.68 3.32017 3.79185 0
M  V30 23625 H 2202.28 3.11473 2.07028 0
M  V30 23626 H 2204.58 4.86562 4.71448 0
M  V30 23627 H 2205.52 6.02328 3.72299 0
M  V30 23628 H 2205.93 4.28234 3.67799 0
M  V30 23629 N 2205.33 -0.529387 1.48443 0
M  V30 23630 C 2206.57 -1.28518 1.56491 0
M  V30 23631 C 2206.9 -1.93025 0.239076 0
M  V30 23632 O 2206.16 -1.79886 -0.770681 0
M  V30 23633 C 2206.45 -2.39553 2.65234 0
M  V30 23634 C 2206.12 -1.92695 4.07651 0
M  V30 23635 C 2204.78 -1.79633 4.46414 0
M  V30 23636 C 2207.13 -1.57291 4.96899 0
M  V30 23637 C 2204.46 -1.29504 5.72229 0
M  V30 23638 C 2206.81 -1.08625 6.23204 0
M  V30 23639 C 2205.48 -0.941803 6.60822 0
M  V30 23640 H 2204.75 -0.470282 0.572639 0
M  V30 23641 H 2207.4 -0.590688 1.82162 0
M  V30 23642 H 2205.7 -3.14675 2.33425 0
M  V30 23643 H 2207.4 -2.97681 2.68676 0
M  V30 23644 H 2203.99 -2.03812 3.77039 0
M  V30 23645 H 2208.17 -1.66242 4.67629 0
M  V30 23646 H 2203.43 -1.17009 6.00099 0
M  V30 23647 H 2207.6 -0.803015 6.91755 0
M  V30 23648 H 2205.23 -0.551167 7.58199 0
M  V30 23649 N 2206.8 -1.37041 -0.778305 0
M  V30 23650 C 2207.73 -1.34965 -1.90543 0
M  V30 23651 C 2208.71 -0.219304 -1.6868 0
M  V30 23652 O 2209.9 -0.418657 -1.89634 0
M  V30 23653 C 2207.03 -1.14931 -3.27732 0
M  V30 23654 C 2205.98 -2.24908 -3.64143 0
M  V30 23655 C 2205.31 -1.90004 -4.99802 0
M  V30 23656 C 2206.61 -3.67058 -3.71572 0
M  V30 23657 H 2208.3 -2.29281 -1.92537 0
M  V30 23658 H 2205.85 -1.10368 -0.924928 0
M  V30 23659 H 2207.8 -1.12111 -4.06213 0
M  V30 23660 H 2206.53 -0.170689 -3.26154 0
M  V30 23661 H 2205.19 -2.26873 -2.87966 0
M  V30 23662 H 2204.83 -0.906883 -4.94757 0
M  V30 23663 H 2204.53 -2.63644 -5.25134 0
M  V30 23664 H 2206.06 -1.88759 -5.80691 0
M  V30 23665 H 2207.47 -3.67259 -4.4022 0
M  V30 23666 H 2205.87 -4.39695 -4.08397 0
M  V30 23667 H 2206.94 -4.01158 -2.72397 0
M  V30 23668 N 2208.28 1.00373 -1.21503 0
M  V30 23669 C 2209.51 1.77742 -1.05903 0
M  V30 23670 C 2209.92 1.84705 0.391093 0
M  V30 23671 O 2209.28 1.30935 1.27131 0
M  V30 23672 C 2209.33 3.21588 -1.65116 0
M  V30 23673 O 2209.05 3.15022 -3.04455 0
M  V30 23674 C 2210.55 4.15451 -1.54645 0
M  V30 23675 H 2207.77 0.558551 -0.371835 0
M  V30 23676 H 2210.32 1.26262 -1.60867 0
M  V30 23677 H 2208.47 3.70173 -1.14241 0
M  V30 23678 H 2208.89 4.05404 -3.32788 0
M  V30 23679 H 2210.36 5.14176 -2.00817 0
M  V30 23680 H 2210.84 4.36332 -0.501099 0
M  V30 23681 H 2211.44 3.72757 -2.04773 0
M  V30 23682 N 2209.76 1.02298 1.19887 0
M  V30 23683 C 2211.17 0.746598 1.71122 0
M  V30 23684 C 2211.52 -0.734303 1.81941 0
M  V30 23685 O 2210.65 -1.57272 1.48642 0
M  V30 23686 C 2211.24 1.34862 3.10802 0
M  V30 23687 C 2209.8 1.12096 3.59321 0
M  V30 23688 C 2208.95 1.45035 2.36347 0
M  V30 23689 H 2211.9 1.19165 1.04811 0
M  V30 23690 H 2211.92 0.742503 3.73185 0
M  V30 23691 H 2211.43 2.42643 3.02896 0
M  V30 23692 H 2209.53 0.0610992 3.7255 0
M  V30 23693 H 2209.65 1.80551 4.43777 0
M  V30 23694 H 2208.01 0.869529 2.39398 0
M  V30 23695 H 2208.79 2.53887 2.31076 0
M  V30 23696 N 2211.24 -1.35782 0.800057 0
M  V30 23697 C 2212.46 -2.03728 0.388546 0
M  V30 23698 C 2212.89 -1.59911 -0.990453 0
M  V30 23699 O 2212.25 -0.772641 -1.64012 0
M  V30 23700 C 2212.29 -3.57489 0.472663 0
M  V30 23701 O 2211.4 -4.09154 -0.516388 0
M  V30 23702 H 2210.74 -0.643611 0.163282 0
M  V30 23703 H 2213.27 -1.73516 1.08413 0
M  V30 23704 H 2213.28 -4.0658 0.340102 0
M  V30 23705 H 2211.95 -3.88731 1.47855 0
M  V30 23706 H 2210.53 -3.71304 -0.344607 0
M  V30 23707 N 2212.72 -0.552988 -1.4758 0
M  V30 23708 C 2213.94 -0.0320919 -2.06875 0
M  V30 23709 C 2214.36 1.25974 -1.40627 0
M  V30 23710 O 2213.72 1.75478 -0.50138 0
M  V30 23711 C 2213.77 0.171607 -3.61092 0
M  V30 23712 O 2213.49 -1.06906 -4.24856 0
M  V30 23713 C 2214.99 0.730267 -4.37244 0
M  V30 23714 H 2212.21 -0.0439268 -0.669561 0
M  V30 23715 H 2214.75 -0.765196 -1.89644 0
M  V30 23716 H 2212.91 0.854827 -3.77851 0
M  V30 23717 H 2213.32 -0.86415 -5.17332 0
M  V30 23718 H 2214.8 0.822107 -5.45844 0
M  V30 23719 H 2215.27 1.74057 -4.03238 0
M  V30 23720 H 2215.88 0.0828795 -4.25219 0
M  V30 23721 N 2214.19 1.54923 -0.28923 0
M  V30 23722 C 2215.47 1.91952 0.375998 0
M  V30 23723 C 2215.85 1.21514 1.7262 0
M  V30 23724 O 2215.2 0.346807 2.25853 0
M  V30 23725 C 2215.41 3.45366 0.502318 0
M  V30 23726 C 2216.76 4.17399 0.778667 0
M  V30 23727 O 2217.78 3.51337 0.586585 0
M  V30 23728 O 2216.64 5.3433 1.14689 0
M  V30 23729 H 2213.73 0.800376 0.208153 0
M  V30 23730 H 2216.28 1.66332 -0.336423 0
M  V30 23731 H 2215.05 3.88735 -0.447324 0
M  V30 23732 H 2214.67 3.76985 1.26366 0
M  V30 23733 N 2215.67 0.0167433 1.57591 0
M  V30 23734 C 2216.62 -0.9781 2.05954 0
M  V30 23735 C 2217.61 -1.29305 0.957555 0
M  V30 23736 O 2218.8 -1.28123 1.22121 0
M  V30 23737 C 2215.93 -2.26464 2.5801 0
M  V30 23738 C 2215.01 -1.9786 3.75116 0
M  V30 23739 N 2215.4 -1.39477 4.86189 0
M  V30 23740 C 2213.7 -2.27917 3.83367 0
M  V30 23741 C 2214.4 -1.27725 5.67504 0
M  V30 23742 N 2213.38 -1.76857 5.14026 0
M  V30 23743 H 2217.18 -0.521471 2.89237 0
M  V30 23744 H 2214.69 -0.188568 1.61302 0
M  V30 23745 H 2216.69 -2.98594 2.90942 0
M  V30 23746 H 2215.35 -2.72764 1.76153 0
M  V30 23747 H 2216.36 -1.07139 5.06697 0
M  V30 23748 H 2213.04 -2.76976 3.12394 0
M  V30 23749 H 2214.43 -0.826861 6.66793 0
M  V30 23750 N 2217.15 -1.55503 -0.256249 0
M  V30 23751 C 2218.38 -1.81278 -1.00762 0
M  V30 23752 C 2218.8 -0.592551 -1.78523 0
M  V30 23753 O 2218.16 0.458239 -1.75413 0
M  V30 23754 C 2218.21 -3.0469 -1.92864 0
M  V30 23755 O 2217.31 -2.8095 -3.01896 0
M  V30 23756 H 2216.65 -0.598669 -0.287213 0
M  V30 23757 H 2219.18 -2.02674 -0.280074 0
M  V30 23758 H 2219.19 -3.33873 -2.34505 0
M  V30 23759 H 2217.87 -3.93145 -1.35682 0
M  V30 23760 H 2216.44 -2.62909 -2.64449 0
M  V30 23761 N 2218.63 0.521507 -1.48721 0
M  V30 23762 C 2220.04 1.10334 -1.50609 0
M  V30 23763 C 2220.39 1.94182 -0.280646 0
M  V30 23764 O 2219.52 2.07581 0.61147 0
M  V30 23765 C 2220.11 2.00768 -2.72906 0
M  V30 23766 C 2218.67 2.54153 -2.77639 0
M  V30 23767 C 2217.82 1.31302 -2.44244 0
M  V30 23768 H 2220.77 0.30636 -1.55715 0
M  V30 23769 H 2220.79 2.85174 -2.51905 0
M  V30 23770 H 2220.3 1.39714 -3.62079 0
M  V30 23771 H 2218.4 3.18903 -1.92695 0
M  V30 23772 H 2218.51 2.92707 -3.79288 0
M  V30 23773 H 2216.88 1.63158 -1.9558 0
M  V30 23774 H 2217.66 0.719884 -3.35667 0
M  V30 23775 N 2220.11 1.37452 0.771027 0
M  V30 23776 C 2221.35 1.327 1.52961 0
M  V30 23777 C 2221.68 -0.0882932 1.94299 0
M  V30 23778 O 2220.94 -1.06167 1.64399 0
M  V30 23779 C 2221.24 2.21264 2.80672 0
M  V30 23780 C 2220.9 3.69526 2.58382 0
M  V30 23781 C 2219.56 4.09931 2.52012 0
M  V30 23782 C 2221.92 4.6345 2.38461 0
M  V30 23783 C 2219.24 5.42375 2.23711 0
M  V30 23784 C 2221.6 5.96132 2.11684 0
M  V30 23785 C 2220.26 6.35641 2.03758 0
M  V30 23786 H 2219.53 0.485583 0.559724 0
M  V30 23787 H 2222.18 1.69664 0.888054 0
M  V30 23788 H 2220.48 1.77297 3.49389 0
M  V30 23789 H 2222.18 2.14901 3.38553 0
M  V30 23790 H 2218.77 3.37482 2.64204 0
M  V30 23791 H 2222.95 4.33093 2.42372 0
M  V30 23792 H 2218.21 5.71947 2.16071 0
M  V30 23793 H 2222.38 6.68463 1.95268 0
M  V30 23794 H 2220.01 7.38193 1.81593 0
M  V30 23795 N 2221.58 -0.997276 1.22033 0
M  V30 23796 C 2222.51 -2.10493 1.01069 0
M  V30 23797 C 2223.5 -1.69968 -0.0669243 0
M  V30 23798 O 2224.68 -1.9397 0.0944328 0
M  V30 23799 C 2221.81 -3.42373 0.582934 0
M  V30 23800 C 2220.76 -3.96727 1.60599 0
M  V30 23801 C 2220.09 -5.24603 1.03421 0
M  V30 23802 C 2221.39 -4.27909 2.99485 0
M  V30 23803 H 2223.08 -2.28289 1.93712 0
M  V30 23804 H 2220.63 -1.09705 0.93278 0
M  V30 23805 H 2222.58 -4.19268 0.423406 0
M  V30 23806 H 2221.31 -3.24392 -0.379156 0
M  V30 23807 H 2219.97 -3.21959 1.75322 0
M  V30 23808 H 2219.61 -5.0296 0.0636064 0
M  V30 23809 H 2219.31 -5.61935 1.71764 0
M  V30 23810 H 2220.84 -6.04135 0.886172 0
M  V30 23811 H 2222.25 -4.95617 2.88161 0
M  V30 23812 H 2220.65 -4.76403 3.64912 0
M  V30 23813 H 2221.72 -3.35864 3.49748 0
M  V30 23814 N 2223.06 -1.02932 -1.19343 0
M  V30 23815 C 2224.01 -0.610503 -2.22579 0
M  V30 23816 C 2224.98 0.375917 -1.6179 0
M  V30 23817 O 2226.16 0.272478 -1.88844 0
M  V30 23818 C 2223.3 0.0320867 -3.45085 0
M  V30 23819 C 2222.42 -1.00043 -4.20256 0
M  V30 23820 C 2221.55 -0.327553 -5.30189 0
M  V30 23821 C 2220.59 -1.34595 -5.97119 0
M  V30 23822 N 2219.73 -0.698849 -6.98613 0
M  V30 23823 H 2224.57 -1.49542 -2.57762 0
M  V30 23824 H 2222.11 -0.748333 -1.26643 0
M  V30 23825 H 2224.06 0.421893 -4.15061 0
M  V30 23826 H 2222.69 0.880585 -3.10557 0
M  V30 23827 H 2221.75 -1.50829 -3.4922 0
M  V30 23828 H 2223.06 -1.77441 -4.66172 0
M  V30 23829 H 2222.21 0.117073 -6.06587 0
M  V30 23830 H 2220.95 0.478627 -4.85346 0
M  V30 23831 H 2219.96 -1.80083 -5.19471 0
M  V30 23832 H 2221.18 -2.15363 -6.44046 0
M  V30 23833 H 2219.13 0.0872318 -6.55942 0
M  V30 23834 H 2219.04 -1.41071 -7.42721 0
M  V30 23835 H 2220.31 -0.278239 -7.79003 0
M  V30 23836 N 2224.54 1.35356 -0.807246 0
M  V30 23837 C 2225.79 1.98357 -0.387157 0
M  V30 23838 C 2226.11 1.64355 1.04939 0
M  V30 23839 O 2225.38 0.926369 1.72613 0
M  V30 23840 H 2223.96 0.733732 -0.140167 0
M  V30 23841 H 2226.62 1.65258 -1.03323 0
M  V30 23842 H 2225.72 3.08175 -0.493406 0
M  V30 23843 N 2226.02 0.560807 1.47284 0
M  V30 23844 C 2226.97 -0.197901 2.31757 0
M  V30 23845 C 2227.96 -0.905828 1.43147 0
M  V30 23846 O 2229.17 -0.826705 1.59892 0
M  V30 23847 H 2225.54 -0.0826918 0.74744 0
M  V30 23848 H 2227.51 0.53368 2.93589 0
M  V30 23849 C 2226.26 -1.21244 3.25876 0
M  V30 23850 H 2225.58 -0.677121 3.94024 0
M  V30 23851 H 2227.02 -1.71412 3.87806 0
M  V30 23852 C 2225.48 -2.26217 2.49655 0
M  V30 23853 O 2226.01 -3.33204 2.24361 0
M  V30 23854 N 2224.22 -2.0024 2.106 0
M  V30 23855 H 2223.77 -1.13248 2.31371 0
M  V30 23856 H 2223.72 -2.70691 1.59918 0
M  V30 23857 N 2227.5 -1.54768 0.297442 0
M  V30 23858 C 2228.43 -2.20827 -0.613842 0
M  V30 23859 C 2229.44 -1.19989 -1.1003 0
M  V30 23860 O 2230.63 -1.466 -1.01836 0
M  V30 23861 C 2227.73 -2.83824 -1.85195 0
M  V30 23862 C 2226.9 -4.10561 -1.50858 0
M  V30 23863 C 2225.96 -4.57395 -2.60146 0
M  V30 23864 O 2224.99 -5.22674 -2.25389 0
M  V30 23865 N 2226.19 -4.29413 -3.90621 0
M  V30 23866 H 2228.96 -2.99661 -0.0483364 0
M  V30 23867 H 2226.52 -1.61458 0.119488 0
M  V30 23868 H 2228.51 -3.1209 -2.57647 0
M  V30 23869 H 2227.08 -2.08852 -2.32594 0
M  V30 23870 H 2226.3 -3.89344 -0.616857 0
M  V30 23871 H 2227.59 -4.93092 -1.2545 0
M  V30 23872 H 2226.98 -3.77108 -4.21671 0
M  V30 23873 H 2225.54 -4.62396 -4.59383 0
M  V30 23874 N 2228.97 -0.0251005 -1.5758 0
M  V30 23875 C 2229.92 0.976133 -2.11127 0
M  V30 23876 C 2230.92 1.33957 -1.03691 0
M  V30 23877 O 2232.12 1.32227 -1.22131 0
M  V30 23878 H 2228.5 0.33255 -0.674474 0
M  V30 23879 H 2230.47 0.499171 -2.94195 0
M  V30 23880 C 2229.22 2.25076 -2.65021 0
M  V30 23881 H 2228.54 1.97984 -3.47336 0
M  V30 23882 H 2229.98 2.93352 -3.06138 0
M  V30 23883 C 2228.44 2.97776 -1.57579 0
M  V30 23884 O 2228.97 3.89731 -0.973272 0
M  V30 23885 N 2227.18 2.60041 -1.2972 0
M  V30 23886 H 2226.72 1.85342 -1.78903 0
M  V30 23887 H 2226.68 3.08993 -0.580564 0
M  V30 23888 N 2230.45 1.55637 0.247999 0
M  V30 23889 C 2231.68 1.8181 0.997996 0
M  V30 23890 C 2232.1 0.60201 1.78206 0
M  V30 23891 O 2231.46 -0.44893 1.75654 0
M  V30 23892 C 2231.51 3.05708 1.91245 0
M  V30 23893 O 2230.61 2.82547 3.00401 0
M  V30 23894 H 2229.95 0.600184 0.284035 0
M  V30 23895 H 2232.48 2.0282 0.269321 0
M  V30 23896 H 2232.49 3.35112 2.32731 0
M  V30 23897 H 2231.17 3.93859 1.33595 0
M  V30 23898 H 2229.75 2.64307 2.63051 0
M  V30 23899 N 2231.93 -0.513613 1.48996 0
M  V30 23900 C 2232.86 -1.62541 1.67639 0
M  V30 23901 C 2233.84 -1.61792 0.525116 0
M  V30 23902 O 2235.03 -1.78731 0.759534 0
M  V30 23903 C 2232.16 -3.01076 1.7312 0
M  V30 23904 C 2231.11 -3.16688 2.87911 0
M  V30 23905 C 2230.44 -4.56448 2.78494 0
M  V30 23906 C 2231.74 -2.97906 4.2901 0
M  V30 23907 H 2233.43 -1.47194 2.60719 0
M  V30 23908 H 2230.98 -0.706692 1.25467 0
M  V30 23909 H 2232.93 -3.78742 1.84749 0
M  V30 23910 H 2231.65 -3.17483 0.766297 0
M  V30 23911 H 2230.31 -2.41444 2.75863 0
M  V30 23912 H 2229.96 -4.69714 1.79938 0
M  V30 23913 H 2229.66 -4.67837 3.55531 0
M  V30 23914 H 2231.19 -5.36192 2.92113 0
M  V30 23915 H 2232.6 -3.65351 4.41805 0
M  V30 23916 H 2231 -3.20776 5.07172 0
M  V30 23917 H 2232.07 -1.94157 4.44332 0
M  V30 23918 N 2233.41 -1.37859 -0.763727 0
M  V30 23919 C 2234.34 -1.30151 -1.88662 0
M  V30 23920 C 2235.35 -0.215713 -1.61365 0
M  V30 23921 O 2236.54 -0.472489 -1.72133 0
M  V30 23922 C 2233.64 -0.991453 -3.24073 0
M  V30 23923 C 2232.82 -2.18432 -3.78954 0
M  V30 23924 C 2231.88 -1.84329 -4.92858 0
M  V30 23925 O 2230.9 -2.56713 -5.08023 0
M  V30 23926 N 2232.1 -0.792182 -5.75069 0
M  V30 23927 H 2234.87 -2.26909 -1.95787 0
M  V30 23928 H 2232.43 -1.31588 -0.943203 0
M  V30 23929 H 2234.42 -0.744005 -3.97802 0
M  V30 23930 H 2232.99 -0.112176 -3.12399 0
M  V30 23931 H 2232.21 -2.59304 -2.96909 0
M  V30 23932 H 2233.5 -2.98066 -4.12352 0
M  V30 23933 H 2232.9 -0.191694 -5.65375 0
M  V30 23934 H 2231.45 -0.604604 -6.4899 0
M  V30 23935 N 2234.89 0.990791 -1.22561 0
M  V30 23936 C 2235.84 2.06579 -0.964844 0
M  V30 23937 C 2236.82 1.60674 0.085319 0
M  V30 23938 O 2238.01 1.76555 -0.125474 0
M  V30 23939 C 2235.14 3.38918 -0.546767 0
M  V30 23940 C 2234.23 3.91451 -1.63177 0
M  V30 23941 N 2234.62 4.17184 -2.85992 0
M  V30 23942 C 2232.92 4.19878 -1.50395 0
M  V30 23943 C 2233.62 4.59913 -3.56167 0
M  V30 23944 N 2232.59 4.63731 -2.83646 0
M  V30 23945 H 2236.4 2.24418 -1.89773 0
M  V30 23946 H 2233.91 1.17271 -1.12345 0
M  V30 23947 H 2235.91 4.15501 -0.341263 0
M  V30 23948 H 2234.57 3.22478 0.379197 0
M  V30 23949 H 2235.58 4.05314 -3.22399 0
M  V30 23950 H 2232.26 4.12498 -0.644327 0
M  V30 23951 H 2233.65 4.88427 -4.61398 0
M  V30 23952 N 2236.37 1.03564 1.18795 0
M  V30 23953 C 2237.31 0.622298 2.22252 0
M  V30 23954 C 2238.28 -0.367332 1.61987 0
M  V30 23955 O 2239.47 -0.262459 1.88986 0
M  V30 23956 C 2236.61 -0.0137855 3.45097 0
M  V30 23957 C 2235.72 1.0227 4.1972 0
M  V30 23958 C 2234.86 0.355666 5.30008 0
M  V30 23959 C 2233.89 1.3776 5.96396 0
M  V30 23960 N 2233.03 0.735888 6.98233 0
M  V30 23961 H 2237.87 1.50907 2.56965 0
M  V30 23962 H 2235.41 0.755039 1.26244 0
M  V30 23963 H 2237.37 -0.399875 4.15279 0
M  V30 23964 H 2236 -0.864103 3.11019 0
M  V30 23965 H 2235.05 1.52679 3.48415 0
M  V30 23966 H 2236.36 1.79911 4.65224 0
M  V30 23967 H 2235.51 -0.0849028 6.06641 0
M  V30 23968 H 2234.25 -0.452882 4.85593 0
M  V30 23969 H 2233.26 1.82836 5.18509 0
M  V30 23970 H 2234.48 2.18776 6.42895 0
M  V30 23971 H 2232.43 -0.0524444 6.55979 0
M  V30 23972 H 2232.35 1.45008 7.41963 0
M  V30 23973 H 2233.61 0.319547 7.78845 0
M  V30 23974 N 2237.84 -1.34926 0.814413 0
M  V30 23975 C 2239.12 -1.92941 0.321397 0
M  V30 23976 C 2239.5 -1.74355 -1.19011 0
M  V30 23977 O 2238.85 -1.1172 -1.99326 0
M  V30 23978 C 2239.06 -3.41034 0.741383 0
M  V30 23979 C 2240.41 -4.18184 0.73534 0
M  V30 23980 O 2241.43 -3.49582 0.683422 0
M  V30 23981 O 2240.29 -5.40601 0.800798 0
M  V30 23982 H 2237.38 -0.822526 0.0859038 0
M  V30 23983 H 2239.93 -1.43954 0.898634 0
M  V30 23984 H 2238.7 -3.48326 1.78282 0
M  V30 23985 H 2238.32 -3.97356 0.139377 0
M  V30 23986 N 2239.32 -0.56861 -1.46985 0
M  V30 23987 C 2240.55 -0.0520892 -2.07335 0
M  V30 23988 C 2240.97 1.2373 -1.41677 0
M  V30 23989 O 2240.33 1.74393 -0.495654 0
M  V30 23990 C 2240.38 0.114947 -3.60417 0
M  V30 23991 O 2239.48 1.17485 -3.95311 0
M  V30 23992 H 2238.82 -0.0564501 -0.661596 0
M  V30 23993 H 2241.35 -0.78754 -1.88836 0
M  V30 23994 H 2241.36 0.325572 -4.06699 0
M  V30 23995 H 2240.04 -0.826747 -4.076 0
M  V30 23996 H 2238.61 0.943805 -3.60759 0
M  V30 23997 N 2240.8 1.54608 -0.305646 0
M  V30 23998 C 2242.05 1.99836 0.301666 0
M  V30 23999 C 2242.37 1.19553 1.54052 0
M  V30 24000 O 2241.64 0.292692 1.93701 0
M  V30 24001 H 2240.22 0.73818 0.114455 0
M  V30 24002 H 2242.88 1.90364 -0.41805 0
M  V30 24003 H 2241.98 3.06842 0.570494 0
M  V30 24004 N 2242.28 0.033457 1.57564 0
M  V30 24005 C 2243.5 -0.657861 1.9669 0
M  V30 24006 C 2243.93 -1.64618 0.910086 0
M  V30 24007 O 2243.29 -1.80844 -0.128566 0
M  V30 24008 C 2243.33 -1.33677 3.34907 0
M  V30 24009 O 2242.44 -2.45213 3.31578 0
M  V30 24010 H 2241.78 -0.172478 0.641208 0
M  V30 24011 H 2244.31 0.096598 2.04372 0
M  V30 24012 H 2244.32 -1.69256 3.71236 0
M  V30 24013 H 2242.99 -0.612339 4.11368 0
M  V30 24014 H 2241.57 -2.11714 3.06972 0
M  V30 24015 N 2243.76 -1.55766 -0.239741 0
M  V30 24016 C 2244.98 -1.82336 -0.988341 0
M  V30 24017 C 2245.41 -0.611452 -1.77884 0
M  V30 24018 O 2244.76 0.439608 -1.7589 0
M  V30 24019 C 2244.81 -3.06718 -1.89621 0
M  V30 24020 O 2243.92 -2.84136 -2.98899 0
M  V30 24021 H 2243.26 -0.601681 -0.280848 0
M  V30 24022 H 2245.79 -2.0296 -0.258562 0
M  V30 24023 H 2245.8 -3.36342 -2.30951 0
M  V30 24024 H 2244.47 -3.94562 -1.31504 0
M  V30 24025 H 2243.05 -2.65699 -2.61646 0
M  V30 24026 N 2245.23 0.505704 -1.49266 0
M  V30 24027 C 2246.2 1.59003 -1.65078 0
M  V30 24028 C 2247.2 1.52064 -0.522794 0
M  V30 24029 O 2248.39 1.553 -0.789145 0
M  V30 24030 C 2245.52 2.98653 -1.64375 0
M  V30 24031 H 2246.71 1.46314 -2.61786 0
M  V30 24032 H 2244.26 0.729592 -1.38227 0
M  V30 24033 H 2245 3.16824 -0.692328 0
M  V30 24034 H 2244.78 3.05098 -2.46287 0
M  V30 24035 H 2246.27 3.77443 -1.7868 0
M  V30 24036 N 2246.71 1.38262 0.756405 0
M  V30 24037 C 2247.68 1.35068 1.85173 0
M  V30 24038 C 2248.68 0.251731 1.58817 0
M  V30 24039 O 2249.87 0.508462 1.66614 0
M  V30 24040 C 2247 1.10207 3.22595 0
M  V30 24041 H 2248.19 2.32514 1.89413 0
M  V30 24042 H 2245.74 1.23514 0.957808 0
M  V30 24043 H 2246.48 0.133561 3.24025 0
M  V30 24044 H 2246.26 1.89768 3.43119 0
M  V30 24045 H 2247.75 1.10661 4.02671 0
M  V30 24046 N 2248.19 -0.984277 1.23084 0
M  V30 24047 C 2249.43 -1.74015 1.07229 0
M  V30 24048 C 2249.79 -1.88106 -0.384733 0
M  V30 24049 O 2251 -2.6046 -0.664365 0
M  V30 24050 C 2249.27 -3.10291 1.77353 0
M  V30 24051 S 2250.83 -4.01508 1.77021 0
M  V30 24052 H 2247.64 -0.598495 0.383829 0
M  V30 24053 H 2250.25 -1.17619 1.5616 0
M  V30 24054 H 2248.95 -2.97684 2.82511 0
M  V30 24055 H 2248.48 -3.71756 1.28688 0
M  V30 24056 H 2250.5 -4.89276 0.826042 0
M  V30 24057 N 2249.67 -1.04192 -1.18244 0
M  V30 24058 C 2251.08 -0.773728 -1.69913 0
M  V30 24059 C 2251.43 0.705265 -1.83086 0
M  V30 24060 O 2250.56 1.54887 -1.51125 0
M  V30 24061 C 2251.15 -1.3979 -3.08617 0
M  V30 24062 C 2249.71 -1.17798 -3.57492 0
M  V30 24063 C 2248.86 -1.48777 -2.3401 0
M  V30 24064 H 2251.81 -1.20818 -1.02902 0
M  V30 24065 H 2251.83 -0.801779 -3.71957 0
M  V30 24066 H 2251.34 -2.47432 -2.98997 0
M  V30 24067 H 2249.44 -0.120361 -3.72406 0
M  V30 24068 H 2249.55 -1.87589 -4.40848 0
M  V30 24069 H 2247.92 -0.907505 -2.37984 0
M  V30 24070 H 2248.7 -2.57531 -2.27008 0
M  V30 24071 N 2251.15 1.34492 -0.821557 0
M  V30 24072 C 2252.37 2.03084 -0.420909 0
M  V30 24073 C 2252.8 1.61467 0.964887 0
M  V30 24074 O 2252.15 0.798636 1.62762 0
M  V30 24075 C 2252.2 3.56692 -0.529477 0
M  V30 24076 O 2251.31 4.09924 0.45123 0
M  V30 24077 H 2250.65 0.640932 -0.173501 0
M  V30 24078 H 2253.18 1.71769 -1.1116 0
M  V30 24079 H 2253.19 4.05987 -0.404742 0
M  V30 24080 H 2251.86 3.8633 -1.54021 0
M  V30 24081 H 2250.44 3.71806 0.285493 0
M  V30 24082 N 2252.62 0.576397 1.46681 0
M  V30 24083 C 2253.55 -0.148356 2.33028 0
M  V30 24084 C 2254.54 -0.88993 1.44963 0
M  V30 24085 O 2255.72 -0.866632 1.7379 0
M  V30 24086 C 2252.85 -1.16664 3.27119 0
M  V30 24087 C 2251.8 -0.540311 4.24576 0
M  V30 24088 C 2251.13 -1.66461 5.08129 0
M  V30 24089 C 2252.43 0.518422 5.19721 0
M  V30 24090 H 2254.12 0.572561 2.93874 0
M  V30 24091 H 2251.67 0.276793 1.41315 0
M  V30 24092 H 2253.62 -1.68198 3.86377 0
M  V30 24093 H 2252.35 -1.91775 2.64367 0
M  V30 24094 H 2251.01 -0.0461124 3.66571 0
M  V30 24095 H 2250.65 -2.40523 4.41766 0
M  V30 24096 H 2250.35 -1.25121 5.74124 0
M  V30 24097 H 2251.88 -2.18283 5.7025 0
M  V30 24098 H 2253.29 0.0884066 5.73232 0
M  V30 24099 H 2251.69 0.851784 5.94024 0
M  V30 24100 H 2252.76 1.40711 4.64035 0
M  V30 24101 N 2254.1 -1.54444 0.313841 0
M  V30 24102 C 2255.04 -2.20203 -0.598827 0
M  V30 24103 C 2256.01 -1.17575 -1.12316 0
M  V30 24104 O 2257.2 -1.46273 -1.18897 0
M  V30 24105 C 2254.32 -2.85604 -1.82066 0
M  V30 24106 C 2253.37 -4.01868 -1.42844 0
M  V30 24107 S 2254.2 -5.33403 -0.473419 0
M  V30 24108 C 2255.36 -6.02293 -1.70276 0
M  V30 24109 H 2255.59 -2.97273 -0.0402009 0
M  V30 24110 H 2253.13 -1.54089 0.0979436 0
M  V30 24111 H 2255.08 -3.23908 -2.52178 0
M  V30 24112 H 2253.74 -2.08355 -2.35047 0
M  V30 24113 H 2252.94 -4.46457 -2.33864 0
M  V30 24114 H 2252.54 -3.65187 -0.807133 0
M  V30 24115 H 2254.83 -6.23881 -2.64157 0
M  V30 24116 H 2255.77 -6.96079 -1.2992 0
M  V30 24117 H 2256.18 -5.32087 -1.88531 0
M  V30 24118 N 2255.58 -0.0418125 -1.57545 0
M  V30 24119 C 2256.99 0.495227 -1.80012 0
M  V30 24120 C 2257.34 1.71488 -0.953229 0
M  V30 24121 O 2256.47 2.15753 -0.167176 0
M  V30 24122 C 2257.06 0.905208 -3.26483 0
M  V30 24123 C 2255.62 1.38728 -3.49902 0
M  V30 24124 C 2254.77 0.358007 -2.74979 0
M  V30 24125 H 2257.72 -0.267763 -1.56425 0
M  V30 24126 H 2257.74 1.76876 -3.36891 0
M  V30 24127 H 2257.25 0.0173328 -3.88096 0
M  V30 24128 H 2255.35 2.29466 -2.93558 0
M  V30 24129 H 2255.47 1.3859 -4.58617 0
M  V30 24130 H 2253.83 0.828869 -2.40836 0
M  V30 24131 H 2254.61 -0.521621 -3.39314 0
M  V30 24132 N 2257.06 1.55891 0.231477 0
M  V30 24133 C 2257.99 1.94619 1.29018 0
M  V30 24134 C 2258.97 0.813093 1.49408 0
M  V30 24135 O 2260.15 1.07462 1.61758 0
M  V30 24136 C 2257.28 2.25429 2.64195 0
M  V30 24137 C 2256.24 3.41135 2.58478 0
M  V30 24138 C 2255.56 3.57525 3.97593 0
M  V30 24139 C 2256.86 4.76392 2.14122 0
M  V30 24140 H 2258.56 2.83302 0.968513 0
M  V30 24141 H 2256.1 1.36304 0.464455 0
M  V30 24142 H 2258.06 2.51112 3.38409 0
M  V30 24143 H 2256.78 1.33588 2.9803 0
M  V30 24144 H 2255.44 3.15485 1.86722 0
M  V30 24145 H 2255.09 2.63077 4.28718 0
M  V30 24146 H 2254.79 4.35344 3.94651 0
M  V30 24147 H 2256.31 3.85547 4.73483 0
M  V30 24148 H 2257.73 5.01346 2.78074 0
M  V30 24149 H 2256.12 5.57423 2.2226 0
M  V30 24150 H 2257.19 4.72416 1.09323 0
M  V30 24151 N 2258.54 -0.497781 1.49532 0
M  V30 24152 C 2259.47 -1.60754 1.69353 0
M  V30 24153 C 2260.45 -1.61226 0.542246 0
M  V30 24154 O 2261.63 -1.77915 0.778448 0
M  V30 24155 C 2258.76 -2.99223 1.76303 0
M  V30 24156 C 2257.72 -3.13617 2.91253 0
M  V30 24157 C 2257.04 -4.53469 2.8332 0
M  V30 24158 C 2258.34 -2.93339 4.32145 0
M  V30 24159 H 2260.04 -1.4442 2.62265 0
M  V30 24160 H 2257.58 -0.693345 1.26209 0
M  V30 24161 H 2259.54 -3.76762 1.88756 0
M  V30 24162 H 2258.26 -3.16652 0.799927 0
M  V30 24163 H 2256.92 -2.38504 2.78409 0
M  V30 24164 H 2256.57 -4.67779 1.8491 0
M  V30 24165 H 2256.27 -4.6404 3.60473 0
M  V30 24166 H 2257.79 -5.33064 2.97784 0
M  V30 24167 H 2259.2 -3.60645 4.45655 0
M  V30 24168 H 2257.6 -3.15378 5.10545 0
M  V30 24169 H 2258.67 -1.89433 4.46367 0
M  V30 24170 N 2260.01 -1.38661 -0.749062 0
M  V30 24171 C 2260.95 -1.32145 -1.87271 0
M  V30 24172 C 2261.96 -0.232816 -1.61127 0
M  V30 24173 O 2263.15 -0.49072 -1.71622 0
M  V30 24174 C 2260.25 -1.02577 -3.23003 0
M  V30 24175 C 2259.42 -2.2244 -3.76616 0
M  V30 24176 C 2258.48 -1.89546 -4.90876 0
M  V30 24177 O 2257.51 -2.62087 -5.05271 0
M  V30 24178 N 2258.71 -0.853132 -5.74197 0
M  V30 24179 H 2261.47 -2.28973 -1.93369 0
M  V30 24180 H 2259.03 -1.32581 -0.929193 0
M  V30 24181 H 2261.03 -0.786155 -3.96991 0
M  V30 24182 H 2259.6 -0.145304 -3.12262 0
M  V30 24183 H 2258.82 -2.62439 -2.94142 0
M  V30 24184 H 2260.1 -3.02422 -4.09168 0
M  V30 24185 H 2259.5 -0.251649 -5.6514 0
M  V30 24186 H 2258.06 -0.673404 -6.48312 0
M  V30 24187 N 2261.49 0.977736 -1.23605 0
M  V30 24188 C 2262.42 2.08858 -1.04405 0
M  V30 24189 C 2263.4 1.70053 0.0398754 0
M  V30 24190 O 2264.59 1.93795 -0.12528 0
M  V30 24191 C 2261.72 3.41402 -0.637329 0
M  V30 24192 C 2260.67 3.94121 -1.6689 0
M  V30 24193 C 2260 5.22891 -1.11754 0
M  V30 24194 C 2261.3 4.2309 -3.06255 0
M  V30 24195 H 2262.99 2.25178 -1.9732 0
M  V30 24196 H 2260.54 1.08207 -0.950115 0
M  V30 24197 H 2262.49 4.18541 -0.490054 0
M  V30 24198 H 2261.22 3.24954 0.3275 0
M  V30 24199 H 2259.88 3.1913 -1.80421 0
M  V30 24200 H 2259.52 5.02795 -0.143615 0
M  V30 24201 H 2259.22 5.59131 -1.80682 0
M  V30 24202 H 2260.75 6.02649 -0.982173 0
M  V30 24203 H 2262.16 4.9097 -2.9601 0
M  V30 24204 H 2260.56 4.70537 -3.72445 0
M  V30 24205 H 2261.63 3.30257 -3.55047 0
M  V30 24206 N 2262.97 1.04818 1.1769 0
M  V30 24207 C 2264.2 0.776241 1.92326 0
M  V30 24208 C 2264.62 -0.661551 1.76083 0
M  V30 24209 O 2263.98 -1.45916 1.07603 0
M  V30 24210 C 2264.03 1.15693 3.41537 0
M  V30 24211 O 2263.13 0.286848 4.11401 0
M  V30 24212 H 2262.47 0.284992 0.59973 0
M  V30 24213 H 2265 1.40003 1.49199 0
M  V30 24214 H 2265.01 1.12209 3.92267 0
M  V30 24215 H 2263.69 2.20431 3.5268 0
M  V30 24216 H 2262.26 0.381969 3.70939 0
M  V30 24217 N 2264.45 -1.34055 0.828678 0
M  V30 24218 C 2265.68 -2.02032 0.432028 0
M  V30 24219 C 2266.09 -1.62537 -0.968412 0
M  V30 24220 O 2265.43 -0.829436 -1.63909 0
M  V30 24221 C 2265.49 -3.56528 0.461287 0
M  V30 24222 C 2265.16 -4.19366 1.81606 0
M  V30 24223 C 2266.15 -4.39472 2.77778 0
M  V30 24224 C 2263.84 -4.56013 2.10612 0
M  V30 24225 C 2265.83 -4.95357 4.01124 0
M  V30 24226 C 2263.52 -5.11608 3.34216 0
M  V30 24227 C 2264.52 -5.31225 4.29289 0
M  V30 24228 O 2264.21 -5.8564 5.50709 0
M  V30 24229 H 2263.94 -0.654026 0.170955 0
M  V30 24230 H 2266.49 -1.72184 1.11991 0
M  V30 24231 H 2264.72 -3.85661 -0.28332 0
M  V30 24232 H 2266.41 -4.05813 0.0838863 0
M  V30 24233 H 2267.18 -4.11518 2.56666 0
M  V30 24234 H 2263.06 -4.40045 1.37409 0
M  V30 24235 H 2266.6 -5.10584 4.75342 0
M  V30 24236 H 2262.5 -5.38991 3.55189 0
M  V30 24237 H 2263.26 -6.04068 5.52308 0
M  V30 24238 N 2265.93 -0.584167 -1.46374 0
M  V30 24239 C 2267.15 -0.0740769 -2.07268 0
M  V30 24240 C 2267.58 1.22221 -1.42981 0
M  V30 24241 O 2266.94 1.73858 -0.514123 0
M  V30 24242 C 2266.98 0.0767136 -3.60518 0
M  V30 24243 O 2266.09 1.13285 -3.96535 0
M  V30 24244 H 2265.43 -0.0634641 -0.66096 0
M  V30 24245 H 2267.96 -0.807525 -1.8799 0
M  V30 24246 H 2267.97 0.282418 -4.07021 0
M  V30 24247 H 2266.64 -0.869932 -4.067 0
M  V30 24248 H 2265.22 0.905489 -3.61739 0
M  V30 24249 N 2267.41 1.54275 -0.322027 0
M  V30 24250 C 2268.68 1.92706 0.335198 0
M  V30 24251 C 2269.06 1.25148 1.70004 0
M  V30 24252 O 2268.41 0.394635 2.25066 0
M  V30 24253 C 2268.62 3.46354 0.428947 0
M  V30 24254 C 2269.97 4.18957 0.689955 0
M  V30 24255 O 2270.99 3.52502 0.51193 0
M  V30 24256 O 2269.85 5.36643 1.03329 0
M  V30 24257 H 2266.95 0.804611 0.191129 0
M  V30 24258 H 2269.49 1.65581 -0.371629 0
M  V30 24259 H 2268.26 3.87698 -0.529679 0
M  V30 24260 H 2267.89 3.7958 1.18341 0
M  V30 24261 N 2268.88 0.0501669 1.5752 0
M  V30 24262 C 2269.79 -0.939789 2.14954 0
M  V30 24263 C 2270.81 -1.34237 1.10708 0
M  V30 24264 O 2271.99 -1.4195 1.42871 0
M  V30 24265 C 2269.05 -2.1966 2.68236 0
M  V30 24266 C 2268.11 -1.85246 3.87276 0
M  V30 24267 C 2267.34 -3.04935 4.38007 0
M  V30 24268 O 2267.57 -4.18274 3.87818 0
M  V30 24269 O 2266.5 -2.86008 5.29607 0
M  V30 24270 H 2270.33 -0.481339 2.99861 0
M  V30 24271 H 2267.91 -0.171673 1.4841 0
M  V30 24272 H 2269.79 -2.93401 3.0248 0
M  V30 24273 H 2268.47 -2.64645 1.864 0
M  V30 24274 H 2267.38 -1.08824 3.57922 0
M  V30 24275 H 2268.71 -1.45061 4.70338 0
M  V30 24276 N 2270.36 -1.56011 -0.223207 0
M  V30 24277 C 2271.29 -1.88764 -1.30003 0
M  V30 24278 C 2272.31 -0.775771 -1.43128 0
M  V30 24279 O 2273.5 -1.05406 -1.44055 0
M  V30 24280 C 2270.6 -2.0797 -2.67585 0
M  V30 24281 C 2269.77 -3.38978 -2.76428 0
M  V30 24282 C 2268.83 -3.47636 -3.95013 0
M  V30 24283 O 2267.85 -4.20679 -3.83429 0
M  V30 24284 N 2269.06 -2.78658 -5.09245 0
M  V30 24285 H 2271.82 -2.81724 -1.02233 0
M  V30 24286 H 2269.38 -1.56537 -0.41325 0
M  V30 24287 H 2271.37 -2.11079 -3.45294 0
M  V30 24288 H 2269.94 -1.21643 -2.87961 0
M  V30 24289 H 2269.16 -3.47981 -1.8521 0
M  V30 24290 H 2270.45 -4.25283 -2.79305 0
M  V30 24291 H 2269.85 -2.1909 -5.21552 0
M  V30 24292 H 2268.41 -2.87431 -5.85002 0
M  V30 24293 N 2271.84 0.489844 -1.49794 0
M  V30 24294 C 2272.77 1.6071 -1.63416 0
M  V30 24295 C 2273.78 1.54394 -0.516356 0
M  V30 24296 O 2274.97 1.60124 -0.78884 0
M  V30 24297 C 2272.07 2.9954 -1.58521 0
M  V30 24298 C 2271.25 3.30923 -2.86022 0
M  V30 24299 C 2270.31 4.49217 -2.74026 0
M  V30 24300 O 2269.33 4.50449 -3.47972 0
M  V30 24301 N 2270.53 5.49787 -1.86319 0
M  V30 24302 H 2273.3 1.49448 -2.5978 0
M  V30 24303 H 2270.86 0.677929 -1.47023 0
M  V30 24304 H 2272.85 3.76614 -1.48135 0
M  V30 24305 H 2271.42 3.04669 -0.699704 0
M  V30 24306 H 2270.64 2.42639 -3.10676 0
M  V30 24307 H 2271.93 3.48693 -3.70527 0
M  V30 24308 H 2271.33 5.51599 -1.2552 0
M  V30 24309 H 2269.88 6.25919 -1.81848 0
M  V30 24310 N 2273.32 1.39056 0.741698 0
M  V30 24311 C 2274.25 1.39969 1.86898 0
M  V30 24312 C 2275.23 0.263949 1.6804 0
M  V30 24313 O 2276.41 0.468788 1.88457 0
M  V30 24314 C 2273.54 1.2358 3.24569 0
M  V30 24315 C 2272.5 2.34484 3.58052 0
M  V30 24316 C 2271.82 2.03189 4.94589 0
M  V30 24317 C 2273.12 3.7678 3.6171 0
M  V30 24318 H 2274.82 2.34305 1.86391 0
M  V30 24319 H 2272.36 1.12781 0.895341 0
M  V30 24320 H 2274.32 1.22841 4.03098 0
M  V30 24321 H 2273.04 0.257103 3.25586 0
M  V30 24322 H 2271.7 2.34428 2.81849 0
M  V30 24323 H 2271.35 1.03774 4.92179 0
M  V30 24324 H 2271.05 2.77474 5.17959 0
M  V30 24325 H 2272.57 2.04089 5.75482 0
M  V30 24326 H 2273.99 3.78802 4.30328 0
M  V30 24327 H 2272.38 4.50369 3.96595 0
M  V30 24328 H 2273.45 4.08239 2.61665 0
M  V30 24329 O 2274.83 -0.882622 1.35248 0
M  V30 24330 H 2275.53 -1.51995 1.20072 0
M  V30 END ATOM
M  V30 BEGIN BOND
M  V30 END BOND
M  V30 END CTAB
M  END
$$$$
