drugbank_target|Q14721 Potassium voltage-gated channel subfamily B member 1 (DB00228; DB01069; DB01110)
 OpenBabel12092120583D

  0  0  0     0  0            999 V3000
M  V30 BEGIN CTAB
M  V30 COUNTS 13467 13612 0 0 0
M  V30 BEGIN ATOM
M  V30 1 H -0.908 1.98254 -0.117106 0
M  V30 2 N 0 1.576 0 0
M  V30 3 C 0.933 2.03868 1.02534 0
M  V30 4 C 1.911 0.928543 1.3348 0
M  V30 5 O 3.095 1.19667 1.45644 0
M  V30 6 C 0.222 2.43627 2.35294 0
M  V30 7 C -0.732 3.65373 2.2001 0
M  V30 8 S 0.101 5.13292 1.52614 0
M  V30 9 C 1.257 5.56322 2.86805 0
M  V30 10 H 1.49 2.90518 0.631377 0
M  V30 11 H -0.977 1.52953 0.210867 0
M  V30 12 H 0.981 2.67203 3.11629 0
M  V30 13 H -0.358 1.57376 2.7183 0
M  V30 14 H -1.165 3.90944 3.18086 0
M  V30 15 H -1.563 3.418 1.51819 0
M  V30 16 H 0.729 5.58782 3.83104 0
M  V30 17 H 1.672 6.56266 2.65933 0
M  V30 18 H 2.08 4.83886 2.90714 0
M  V30 19 N 1.4781 -0.272755 1.55222 0
M  V30 20 C 2.8891 -0.84378 1.66545 0
M  V30 21 C 3.2401 -1.87035 0.592641 0
M  V30 22 O 2.3651 -2.14761 -0.265818 0
M  V30 23 C 2.9601 -1.53723 3.01918 0
M  V30 24 C 1.5191 -2.05628 3.15268 0
M  V30 25 C 0.6661 -0.898424 2.62343 0
M  V30 26 H 3.6171 -0.0490998 1.58624 0
M  V30 27 H 3.6381 -2.40421 2.94921 0
M  V30 28 H 3.1501 -0.78983 3.79978 0
M  V30 29 H 1.2511 -2.83329 2.41983 0
M  V30 30 H 1.3641 -2.27142 4.21833 0
M  V30 31 H -0.2719 -1.29186 2.19506 0
M  V30 32 H 0.5111 -0.164528 3.42906 0
M  V30 33 N 2.9562 -1.48159 -0.537278 0
M  V30 34 C 3.9192 -1.61665 -1.62472 0
M  V30 35 C 4.9192 -0.490395 -1.5314 0
M  V30 36 O 6.1092 -0.755998 -1.5694 0
M  V30 37 C 3.2412 -1.57997 -3.02076 0
M  V30 38 H 4.4342 -2.58621 -1.51839 0
M  V30 39 H 1.9872 -1.36647 -0.758771 0
M  V30 40 H 2.7222 -0.624913 -3.18222 0
M  V30 41 H 2.5072 -2.39755 -3.10258 0
M  V30 42 H 3.9972 -1.70627 -3.81151 0
M  V30 43 N 4.4343 0.785586 -1.36625 0
M  V30 44 C 5.6823 1.54057 -1.30808 0
M  V30 45 C 6.0033 1.94683 0.111157 0
M  V30 46 O 5.2733 1.65241 1.05224 0
M  V30 47 H 3.8533 0.571354 -0.481211 0
M  V30 48 H 6.5153 0.935821 -1.70963 0
M  V30 49 H 5.6113 2.44637 -1.93801 0
M  V30 50 N 5.9124 1.20967 1.01018 0
M  V30 51 C 6.8454 0.907578 2.09376 0
M  V30 52 C 7.8234 -0.142868 1.61971 0
M  V30 53 O 9.0074 -0.0150391 1.88494 0
M  V30 54 C 6.1344 0.361791 3.36762 0
M  V30 55 C 5.1804 1.39423 4.03068 0
M  V30 56 S 6.0134 2.96159 4.4615 0
M  V30 57 C 7.1694 2.43173 5.7673 0
M  V30 58 H 7.4024 1.82519 2.34678 0
M  V30 59 H 4.9354 1.03884 1.14225 0
M  V30 60 H 6.8934 0.0534523 4.10465 0
M  V30 61 H 5.5544 -0.53443 3.0952 0
M  V30 62 H 4.7474 0.961853 4.94737 0
M  V30 63 H 4.3494 1.65038 3.35617 0
M  V30 64 H 6.6414 1.83335 6.52223 0
M  V30 65 H 7.5844 3.33264 6.24773 0
M  V30 66 H 7.9924 1.85069 5.33301 0
M  V30 67 N 7.3905 -1.2043 1.01659 0
M  V30 68 C 8.6185 -1.93777 0.725132 0
M  V30 69 C 9.0335 -1.74772 -0.714166 0
M  V30 70 O 8.3905 -1.06169 -1.4844 0
M  V30 71 C 8.4415 -3.45876 1.05129 0
M  V30 72 O 8.1625 -3.6426 2.43406 0
M  V30 73 C 9.6635 -4.36368 0.780891 0
M  V30 74 H 6.8835 -0.615901 0.266284 0
M  V30 75 H 9.4275 -1.52922 1.35776 0
M  V30 76 H 7.5825 -3.8461 0.464065 0
M  V30 77 H 7.9965 -4.58246 2.55169 0
M  V30 78 H 9.4705 -5.41743 1.05918 0
M  V30 79 H 9.9475 -4.38275 -0.284937 0
M  V30 80 H 10.5535 -4.03296 1.35027 0
M  V30 81 N 8.8686 -0.792821 -1.36206 0
M  V30 82 C 9.8156 -0.191653 -2.30003 0
M  V30 83 C 10.7856 0.666453 -1.52143 0
M  V30 84 O 11.9706 0.61442 -1.80636 0
M  V30 85 C 9.1106 0.664848 -3.38635 0
M  V30 86 C 8.2236 -0.212175 -4.31479 0
M  V30 87 C 7.3586 0.651022 -5.27196 0
M  V30 88 C 6.3976 -0.227247 -6.11678 0
M  V30 89 N 5.5346 0.595127 -6.99573 0
M  V30 90 H 10.3746 -0.996978 -2.80828 0
M  V30 91 H 7.9116 -0.503206 -1.38225 0
M  V30 92 H 9.8696 1.17645 -4.00269 0
M  V30 93 H 8.4996 1.43557 -2.89122 0
M  V30 94 H 7.5516 -0.841777 -3.70969 0
M  V30 95 H 8.8636 -0.888751 -4.90818 0
M  V30 96 H 8.0176 1.2283 -5.94136 0
M  V30 97 H 6.7566 1.36121 -4.68319 0
M  V30 98 H 5.7616 -0.816904 -5.43697 0
M  V30 99 H 6.9866 -0.93509 -6.72631 0
M  V30 100 H 4.9326 1.28955 -6.432 0
M  V30 101 H 4.8496 -0.0236952 -7.55996 0
M  V30 102 H 6.1176 1.15613 -7.70879 0
M  V30 103 N 10.3467 1.47872 -0.545128 0
M  V30 104 C 11.2967 2.26842 0.229456 0
M  V30 105 C 12.2807 1.33626 0.896267 0
M  V30 106 O 13.4727 1.58063 0.79657 0
M  V30 107 C 10.6017 3.19089 1.26638 0
M  V30 108 C 9.6877 4.19783 0.603598 0
M  V30 109 N 10.0787 5.0479 -0.319405 0
M  V30 110 C 8.3767 4.3765 0.858989 0
M  V30 111 C 9.0777 5.77433 -0.703241 0
M  V30 112 N 8.0537 5.43566 -0.0608309 0
M  V30 113 H 11.8557 2.89947 -0.480391 0
M  V30 114 H 9.3697 1.58263 -0.364209 0
M  V30 115 H 11.3667 3.74337 1.83515 0
M  V30 116 H 10.0267 2.5754 1.97745 0
M  V30 117 H 11.0377 5.13244 -0.692889 0
M  V30 118 H 7.7147 3.87281 1.55948 0
M  V30 119 H 9.1047 6.55824 -1.46098 0
M  V30 120 N 11.8248 0.280983 1.55075 0
M  V30 121 C 13.0728 -0.333455 1.9933 0
M  V30 122 C 13.3938 -1.55937 1.17085 0
M  V30 123 O 12.6638 -1.94143 0.261805 0
M  V30 124 H 11.2438 -0.126197 0.736263 0
M  V30 125 H 13.9058 0.387678 1.91005 0
M  V30 126 H 13.0018 -0.619292 3.05894 0
M  V30 127 N 13.3029 -1.57598 0.00835791 0
M  V30 128 C 14.5279 -1.95617 -0.689103 0
M  V30 129 C 14.9529 -0.883753 -1.66046 0
M  V30 130 O 14.3109 0.157352 -1.80616 0
M  V30 131 C 14.3589 -3.32736 -1.38994 0
M  V30 132 O 13.4629 -3.27631 -2.50463 0
M  V30 133 H 12.8039 -0.638379 -0.182668 0
M  V30 134 H 15.3339 -2.045 0.064036 0
M  V30 135 H 15.3439 -3.68494 -1.75147 0
M  V30 136 H 14.0189 -4.1034 -0.677778 0
M  V30 137 H 12.5959 -3.03561 -2.16576 0
M  V30 138 N 14.781 0.264519 -1.55364 0
M  V30 139 C 16.197 0.61215 -1.47394 0
M  V30 140 C 16.397 1.89134 -0.695018 0
M  V30 141 O 15.453 2.51563 -0.217275 0
M  V30 142 C 16.766 0.731235 -2.91674 0
M  V30 143 C 18.314 0.82473 -3.01939 0
M  V30 144 C 18.789 0.975522 -4.4749 0
M  V30 145 N 20.28 1.04083 -4.51354 0
M  V30 146 C 21.015 1.17646 -5.61201 0
M  V30 147 N 20.511 1.27874 -6.80896 0
M  V30 148 N 22.304 1.20823 -5.48961 0
M  V30 149 H 14.455 -0.575456 -2.04456 0
M  V30 150 H 16.718 -0.196099 -0.927496 0
M  V30 151 H 16.424 -0.138392 -3.51428 0
M  V30 152 H 16.298 1.60883 -3.41169 0
M  V30 153 H 18.685 1.68482 -2.42276 0
M  V30 154 H 18.766 -0.0776479 -2.55682 0
M  V30 155 H 18.41 0.120058 -5.07758 0
M  V30 156 H 18.34 1.89268 -4.91412 0
M  V30 157 H 20.831 0.973846 -3.65136 0
M  V30 158 H 21.144 1.38081 -7.60364 0
M  V30 159 H 19.489 1.24863 -6.83692 0
M  V30 160 H 22.68 1.12469 -4.54388 0
M  V30 161 H 22.853 1.31049 -6.3461 0
M  V30 162 N 16.2591 1.48442 0.529413 0
M  V30 163 C 17.4841 1.60406 1.31471 0
M  V30 164 C 17.9091 0.264738 1.86228 0
M  V30 165 O 17.2671 -0.763668 1.64432 0
M  V30 166 C 17.3151 2.65419 2.44101 0
M  V30 167 O 16.4191 2.22618 3.47153 0
M  V30 168 H 15.7601 0.537863 0.389357 0
M  V30 169 H 18.2901 1.94432 0.636965 0
M  V30 170 H 18.3001 2.86709 2.90279 0
M  V30 171 H 16.9751 3.62652 2.03608 0
M  V30 172 H 15.5521 2.11543 3.0709 0
M  V30 173 N 17.7372 -0.778329 1.37039 0
M  V30 174 C 18.9652 -1.56734 1.35063 0
M  V30 175 C 19.3802 -1.88686 -0.0655597 0
M  V30 176 O 18.7372 -1.5096 -1.02554 0
M  V30 177 C 18.7882 -2.88163 2.18276 0
M  V30 178 O 18.5092 -2.57583 3.54376 0
M  V30 179 C 20.0102 -3.82422 2.24206 0
M  V30 180 H 17.2302 -0.485778 0.462883 0
M  V30 181 H 19.7742 -0.965185 1.8029 0
M  V30 182 H 17.9292 -3.44818 1.76576 0
M  V30 183 H 18.3432 -3.41699 3.97922 0
M  V30 184 H 19.8172 -4.71667 2.86765 0
M  V30 185 H 20.2942 -4.21078 1.24861 0
M  V30 186 H 20.9002 -3.31697 2.6619 0
M  V30 187 N 19.2153 -1.21501 -1.00376 0
M  V30 188 C 20.4403 -1.05977 -1.78279 0
M  V30 189 C 20.8653 0.385994 -1.84097 0
M  V30 190 O 20.2233 1.27849 -1.28547 0
M  V30 191 C 20.2713 -1.66302 -3.19963 0
M  V30 192 O 19.3753 -0.909333 -4.0225 0
M  V30 193 H 18.7163 -0.372906 -0.549397 0
M  V30 194 H 21.2463 -1.6107 -1.26165 0
M  V30 195 H 21.2563 -1.70574 -3.70632 0
M  V30 196 H 19.9313 -2.71515 -3.15043 0
M  V30 197 H 18.5083 -0.941795 -3.60811 0
M  V30 198 N 20.6934 1.19889 -1.02296 0
M  V30 199 C 21.9184 1.9393 -0.735237 0
M  V30 200 C 22.3434 1.74639 0.698782 0
M  V30 201 O 21.7014 1.04481 1.48167 0
M  V30 202 C 21.7494 3.43916 -1.08417 0
M  V30 203 O 20.8534 4.11917 -0.199446 0
M  V30 204 H 20.1944 0.605645 -0.272196 0
M  V30 205 H 22.7244 1.52137 -1.36804 0
M  V30 206 H 22.7344 3.9456 -1.03856 0
M  V30 207 H 21.4094 3.5728 -2.12894 0
M  V30 208 H 19.9864 3.71666 -0.303136 0
M  V30 209 N 22.1715 0.800033 1.35784 0
M  V30 210 C 23.1015 0.220184 2.3246 0
M  V30 211 C 24.0825 -0.65073 1.57161 0
M  V30 212 O 25.2675 -0.582359 1.85263 0
M  V30 213 C 22.3975 -0.637353 3.41402 0
M  V30 214 C 21.3515 0.134531 4.27789 0
M  V30 215 C 20.6775 -0.844285 5.27992 0
M  V30 216 C 21.9775 1.32979 5.05088 0
M  V30 217 H 23.6715 1.02787 2.81203 0
M  V30 218 H 21.2175 0.495717 1.35199 0
M  V30 219 H 23.1705 -1.05302 4.08031 0
M  V30 220 H 21.8945 -1.47785 2.91251 0
M  V30 221 H 20.5535 0.531296 3.6273 0
M  V30 222 H 20.2015 -1.68011 4.74111 0
M  V30 223 H 19.9015 -0.332184 5.8666 0
M  V30 224 H 21.4255 -1.2583 5.97494 0
M  V30 225 H 22.8395 0.98934 5.64699 0
M  V30 226 H 21.2365 1.77593 5.7322 0
M  V30 227 H 22.3065 2.11978 4.36111 0
M  V30 228 N 23.6496 -1.47581 0.552962 0
M  V30 229 C 25.0606 -1.86324 0.118463 0
M  V30 230 C 25.4116 -1.46006 -1.3106 0
M  V30 231 O 24.5366 -0.861182 -1.98526 0
M  V30 232 C 25.1316 -3.3816 0.20821 0
M  V30 233 C 23.6906 -3.7601 -0.171226 0
M  V30 234 C 22.8376 -2.71634 0.557686 0
M  V30 235 H 25.7886 -1.39159 0.762928 0
M  V30 236 H 25.8096 -3.76141 -0.574278 0
M  V30 237 H 25.3216 -3.67473 1.24841 0
M  V30 238 H 23.4226 -3.52313 -1.21269 0
M  V30 239 H 23.5356 -4.78745 0.184379 0
M  V30 240 H 21.8996 -2.547 0.00125792 0
M  V30 241 H 22.6826 -3.0379 1.59896 0
M  V30 242 N 25.1277 -0.289203 -1.54924 0
M  V30 243 C 26.5387 0.205791 -1.85562 0
M  V30 244 C 26.8897 1.54351 -1.2112 0
M  V30 245 O 26.0147 2.10435 -0.504601 0
M  V30 246 C 26.6097 0.380177 -3.3666 0
M  V30 247 C 25.1687 0.819395 -3.67373 0
M  V30 248 C 24.3157 -0.079159 -2.77187 0
M  V30 249 H 27.2667 -0.510577 -1.50262 0
M  V30 250 H 27.2877 1.21659 -3.60526 0
M  V30 251 H 26.7997 -0.593589 -3.83534 0
M  V30 252 H 24.9007 1.80413 -3.26009 0
M  V30 253 H 25.0137 0.646957 -4.74712 0
M  V30 254 H 23.3777 0.439565 -2.50878 0
M  V30 255 H 24.1607 -1.04906 -3.26878 0
M  V30 256 N 26.6058 1.57591 -0.0167156 0
M  V30 257 C 27.5158 2.1291 0.98521 0
M  V30 258 C 28.5318 1.07834 1.36557 0
M  V30 259 O 29.7078 1.39826 1.44951 0
M  V30 260 C 26.7728 2.63512 2.25305 0
M  V30 261 C 25.8338 3.83256 1.93426 0
M  V30 262 C 25.0668 4.31435 3.14165 0
M  V30 263 O 25.2898 3.78851 4.26413 0
M  V30 264 O 24.2238 5.23416 2.97186 0
M  V30 265 H 28.0498 2.98772 0.544888 0
M  V30 266 H 25.6348 1.48012 0.203141 0
M  V30 267 H 27.5168 2.96183 2.99756 0
M  V30 268 H 26.1918 1.8074 2.68542 0
M  V30 269 H 25.0988 3.55531 1.16398 0
M  V30 270 H 26.4318 4.67153 1.55013 0
M  V30 271 N 28.0839 -0.256276 1.55502 0
M  V30 272 C 29.4949 -0.826068 1.67431 0
M  V30 273 C 29.8459 -1.86396 0.612446 0
M  V30 274 O 28.9709 -2.15031 -0.243025 0
M  V30 275 C 29.5659 -1.50512 3.03532 0
M  V30 276 C 28.1249 -2.02273 3.17431 0
M  V30 277 C 27.2719 -0.870548 2.63281 0
M  V30 278 H 30.2229 -0.0322728 1.58667 0
M  V30 279 H 30.2439 -2.37279 2.97454 0
M  V30 280 H 29.7559 -0.749484 3.80794 0
M  V30 281 H 27.8569 -2.80746 2.44974 0
M  V30 282 H 27.9699 -2.22655 4.24219 0
M  V30 283 H 26.3339 -1.26851 2.20864 0
M  V30 284 H 27.1169 -0.128149 3.43061 0
M  V30 285 N 29.562 -1.4872 -0.521534 0
M  V30 286 C 30.495 -1.58451 -1.64221 0
M  V30 287 C 31.473 -0.434513 -1.56687 0
M  V30 288 O 32.657 -0.647275 -1.77038 0
M  V30 289 C 29.784 -1.52037 -3.02659 0
M  V30 290 C 28.83 -2.71981 -3.28525 0
M  V30 291 S 29.663 -4.33869 -3.13876 0
M  V30 292 C 30.819 -4.30067 -4.54745 0
M  V30 293 H 31.052 -2.53256 -1.55719 0
M  V30 294 H 28.585 -1.37358 -0.705143 0
M  V30 295 H 30.543 -1.49023 -3.82495 0
M  V30 296 H 29.204 -0.585541 -3.08594 0
M  V30 297 H 28.397 -2.63656 -4.29536 0
M  V30 298 H 27.999 -2.72302 -2.56374 0
M  V30 299 H 30.291 -4.00521 -5.46433 0
M  V30 300 H 31.234 -5.31287 -4.68123 0
M  V30 301 H 31.642 -3.60419 -4.34463 0
M  V30 302 N 31.0401 0.771051 -1.3745 0
M  V30 303 C 31.9501 1.91538 -1.35464 0
M  V30 304 C 32.9661 1.72134 -0.254123 0
M  V30 305 O 34.1421 1.95358 -0.489626 0
M  V30 306 C 31.2071 3.26671 -1.16134 0
M  V30 307 C 30.2681 3.58723 -2.35831 0
M  V30 308 C 29.5011 4.87409 -2.17413 0
M  V30 309 O 29.7241 5.58506 -1.15876 0
M  V30 310 O 28.6581 5.18539 -3.05615 0
M  V30 311 H 32.4841 1.96165 -2.31847 0
M  V30 312 H 30.0691 0.9139 -1.18187 0
M  V30 313 H 31.9511 4.07499 -1.07345 0
M  V30 314 H 30.6261 3.22894 -0.228251 0
M  V30 315 H 29.5331 2.78127 -2.50192 0
M  V30 316 H 30.8661 3.67243 -3.27709 0
M  V30 317 N 32.5182 1.22032 0.997298 0
M  V30 318 C 33.7672 1.03637 1.73038 0
M  V30 319 C 34.0802 -0.429475 1.90827 0
M  V30 320 O 35.2862 -0.732995 2.61418 0
M  V30 321 C 33.7422 1.80582 3.11317 0
M  V30 322 C 33.3502 3.31387 3.01474 0
M  V30 323 C 35.0942 1.70621 3.88701 0
M  V30 324 C 33.0012 4.00791 4.3488 0
M  V30 325 H 31.9312 0.384179 0.648785 0
M  V30 326 H 34.5822 1.4584 1.11368 0
M  V30 327 H 32.9642 1.31175 3.73643 0
M  V30 328 H 34.1382 3.88155 2.4834 0
M  V30 329 H 32.4532 3.41976 2.37575 0
M  V30 330 H 35.0502 2.19799 4.87434 0
M  V30 331 H 35.3932 0.665823 4.10941 0
M  V30 332 H 35.9262 2.17547 3.33044 0
M  V30 333 H 32.6652 5.05064 4.1784 0
M  V30 334 H 32.1852 3.48811 4.87945 0
M  V30 335 H 33.8642 4.06139 5.03647 0
M  V30 336 N 33.9963 -1.19345 1.0293 0
M  V30 337 C 35.2423 -1.89318 0.727083 0
M  V30 338 C 35.5753 -1.79446 -0.742483 0
M  V30 339 O 34.8503 -1.1871 -1.54072 0
M  V30 340 C 35.1333 -3.40238 1.17942 0
M  V30 341 C 34.9863 -3.58979 2.71024 0
M  V30 342 C 36.3053 -4.33479 0.760548 0
M  V30 343 H 33.4243 -0.687475 0.265606 0
M  V30 344 H 36.0663 -1.40477 1.2793 0
M  V30 345 H 34.2163 -3.81964 0.709608 0
M  V30 346 H 35.8883 -3.26421 3.25955 0
M  V30 347 H 34.1313 -3.02018 3.11396 0
M  V30 348 H 34.8023 -4.64823 2.9773 0
M  V30 349 H 37.2783 -3.99469 1.16464 0
M  V30 350 H 36.1543 -5.37664 1.10493 0
M  V30 351 H 36.4153 -4.40813 -0.337063 0
M  V30 352 N 35.4744 -0.807222 -1.35358 0
M  V30 353 C 36.8904 -0.491038 -1.51858 0
M  V30 354 C 37.0904 0.987648 -1.75635 0
M  V30 355 O 36.1464 1.77265 -1.79815 0
M  V30 356 C 37.4594 -1.33695 -2.69344 0
M  V30 357 C 39.0074 -1.33246 -2.83222 0
M  V30 358 C 39.4824 -2.1625 -4.03733 0
M  V30 359 N 40.9734 -2.1379 -4.10911 0
M  V30 360 C 41.7084 -2.74772 -5.03277 0
M  V30 361 N 41.2044 -3.44684 -6.0097 0
M  V30 362 N 42.9974 -2.6441 -4.96028 0
M  V30 363 H 35.1484 -1.76485 -1.18181 0
M  V30 364 H 37.4114 -0.751199 -0.578276 0
M  V30 365 H 37.1174 -2.38634 -2.58354 0
M  V30 366 H 36.9914 -0.990618 -3.6396 0
M  V30 367 H 39.3784 -0.290911 -2.93663 0
M  V30 368 H 39.4594 -1.71866 -1.89461 0
M  V30 369 H 39.1034 -3.20445 -3.94052 0
M  V30 370 H 39.0334 -1.74989 -4.96675 0
M  V30 371 H 41.5244 -1.62923 -3.40976 0
M  V30 372 H 41.8374 -3.88501 -6.68047 0
M  V30 373 H 40.1824 -3.48788 -6.01142 0
M  V30 374 H 43.3734 -2.0938 -4.18662 0
M  V30 375 H 43.5464 -3.12225 -5.6782 0
M  V30 376 N 36.9525 1.47285 -0.560781 0
M  V30 377 C 38.1775 2.07359 -0.0410566 0
M  V30 378 C 38.6025 1.41017 1.24483 0
M  V30 379 O 37.9605 0.486368 1.74654 0
M  V30 380 C 38.0085 3.6035 0.134123 0
M  V30 381 O 37.1125 3.94681 1.19587 0
M  V30 382 H 36.4535 0.661887 -0.0529291 0
M  V30 383 H 38.9835 1.89252 -0.777482 0
M  V30 384 H 38.9935 4.0652 0.347207 0
M  V30 385 H 37.6685 4.08034 -0.805047 0
M  V30 386 H 36.2455 3.60251 0.962987 0
M  V30 387 N 38.4306 0.297415 1.54768 0
M  V30 388 C 39.3776 -0.580276 2.23386 0
M  V30 389 C 40.3476 -1.13238 1.21517 0
M  V30 390 O 41.5326 -1.17757 1.50126 0
M  V30 391 C 38.6726 -1.74801 2.97555 0
M  V30 392 C 37.7856 -1.22764 4.1419 0
M  V30 393 C 36.9206 -2.35895 4.75949 0
M  V30 394 C 35.9596 -1.80974 5.84735 0
M  V30 395 N 35.0966 -2.87664 6.40464 0
M  V30 396 H 39.9366 0.0114833 2.97998 0
M  V30 397 H 37.4736 0.0174361 1.4709 0
M  V30 398 H 39.4316 -2.43475 3.38786 0
M  V30 399 H 38.0616 -2.31145 2.25326 0
M  V30 400 H 37.1136 -0.433271 3.77924 0
M  V30 401 H 38.4256 -0.785551 4.92575 0
M  V30 402 H 37.5796 -3.12523 5.20014 0
M  V30 403 H 36.3186 -2.83429 3.96887 0
M  V30 404 H 35.3236 -1.02834 5.40097 0
M  V30 405 H 36.5486 -1.34348 6.65678 0
M  V30 406 H 34.4946 -3.34538 5.64287 0
M  V30 407 H 34.4116 -2.4794 7.14186 0
M  V30 408 H 35.6796 -3.642 6.89187 0
M  V30 409 N 39.9087 -1.5758 0.0250728 0
M  V30 410 C 40.8717 -2.08896 -0.943139 0
M  V30 411 C 41.8717 -1.00321 -1.25668 0
M  V30 412 O 43.0617 -1.26495 -1.19769 0
M  V30 413 C 40.1937 -2.55143 -2.26086 0
M  V30 414 H 41.3867 -2.95723 -0.498775 0
M  V30 415 H 38.9397 -1.54703 -0.222888 0
M  V30 416 H 39.6747 -1.71633 -2.75159 0
M  V30 417 H 39.4597 -3.34461 -2.04641 0
M  V30 418 H 40.9497 -2.95083 -2.95492 0
M  V30 419 N 41.3868 0.248026 -1.55636 0
M  V30 420 C 42.6268 0.983592 -1.79178 0
M  V30 421 C 42.9908 1.82567 -0.594414 0
M  V30 422 O 44.1918 2.59292 -0.708583 0
M  V30 423 C 42.4628 1.82228 -3.07454 0
M  V30 424 S 44.0218 2.61709 -3.52213 0
M  V30 425 H 40.8398 0.330866 -0.629324 0
M  V30 426 H 43.4418 0.251562 -1.93875 0
M  V30 427 H 42.1458 1.19333 -3.92668 0
M  V30 428 H 41.6768 2.59708 -2.95492 0
M  V30 429 H 43.6918 3.84655 -3.13457 0
M  V30 430 N 42.8649 1.48995 0.513639 0
M  V30 431 C 44.0899 1.61792 1.29762 0
M  V30 432 C 44.5149 0.284475 1.85936 0
M  V30 433 O 43.8729 -0.746185 1.65232 0
M  V30 434 C 43.9209 2.67993 2.41272 0
M  V30 435 O 43.0249 2.26287 3.44772 0
M  V30 436 H 42.3659 0.541963 0.38363 0
M  V30 437 H 44.8959 1.95097 0.616307 0
M  V30 438 H 44.9059 2.89772 2.87221 0
M  V30 439 H 43.5809 3.64791 1.9975 0
M  V30 440 H 42.1579 2.14788 3.04829 0
M  V30 441 N 44.343 -0.763751 1.37857 0
M  V30 442 C 45.759 -1.06542 1.18832 0
M  V30 443 C 45.959 -2.01478 0.0299722 0
M  V30 444 O 45.015 -2.4458 -0.627447 0
M  V30 445 C 46.328 -1.65525 2.51042 0
M  V30 446 C 47.876 -1.77745 2.57635 0
M  V30 447 C 48.351 -2.4014 3.89996 0
M  V30 448 N 49.842 -2.47582 3.91481 0
M  V30 449 C 50.577 -2.96732 4.9065 0
M  V30 450 N 50.073 -3.45993 6.00217 0
M  V30 451 N 51.866 -2.95679 4.78048 0
M  V30 452 H 44.017 -0.133556 2.1198 0
M  V30 453 H 46.28 -0.121879 0.940133 0
M  V30 454 H 45.986 -1.03236 3.36207 0
M  V30 455 H 45.86 -2.64719 2.68707 0
M  V30 456 H 48.247 -2.39164 1.72872 0
M  V30 457 H 48.328 -0.772836 2.43846 0
M  V30 458 H 47.972 -1.79358 4.75177 0
M  V30 459 H 47.902 -3.41223 4.01092 0
M  V30 460 H 50.393 -2.1273 3.12337 0
M  V30 461 H 50.706 -3.81922 6.7183 0
M  V30 462 H 49.051 -3.44077 6.03851 0
M  V30 463 H 52.242 -2.56499 3.91568 0
M  V30 464 H 52.415 -3.33672 5.55488 0
M  V30 465 N 45.8211 -1.22559 -0.990812 0
M  V30 466 C 47.2371 -0.985996 -1.255 0
M  V30 467 C 47.4371 0.319173 -1.98956 0
M  V30 468 O 46.4931 1.04127 -2.3003 0
M  V30 469 C 47.8061 -2.18607 -2.06474 0
M  V30 470 C 49.3541 -2.22985 -2.19651 0
M  V30 471 C 49.8291 -3.4255 -3.04012 0
M  V30 472 N 51.3201 -3.42725 -3.11599 0
M  V30 473 C 52.0551 -4.31892 -3.7717 0
M  V30 474 N 51.5511 -5.31279 -4.44651 0
M  V30 475 N 53.3441 -4.19662 -3.73952 0
M  V30 476 H 45.4951 -2.06469 -0.49841 0
M  V30 477 H 47.7581 -0.904853 -0.282747 0
M  V30 478 H 47.4641 -3.13267 -1.59865 0
M  V30 479 H 47.3381 -2.18838 -3.07229 0
M  V30 480 H 49.7251 -1.28871 -2.65474 0
M  V30 481 H 49.8061 -2.26791 -1.18319 0
M  V30 482 H 49.4501 -4.36965 -2.58889 0
M  V30 483 H 49.3801 -3.35984 -4.0549 0
M  V30 484 H 51.8711 -2.70807 -2.63575 0
M  V30 485 H 52.1841 -5.95593 -4.92431 0
M  V30 486 H 50.5291 -5.3519 -4.43392 0
M  V30 487 H 53.7201 -3.41268 -3.20396 0
M  V30 488 H 53.8931 -4.89358 -4.24774 0
M  V30 489 N 47.2992 1.18797 -1.03562 0
M  V30 490 C 48.5452 1.8893 -0.737113 0
M  V30 491 C 48.8782 1.79837 0.732956 0
M  V30 492 O 48.1532 1.19525 1.5344 0
M  V30 493 C 48.4362 3.39607 -1.19745 0
M  V30 494 C 48.2892 3.57537 -2.72924 0
M  V30 495 C 49.6082 4.33069 -0.783526 0
M  V30 496 H 46.7272 0.686057 -0.269249 0
M  V30 497 H 49.3692 1.39797 -1.28673 0
M  V30 498 H 47.5192 3.81583 -0.729855 0
M  V30 499 H 49.1912 3.24688 -3.27682 0
M  V30 500 H 47.4342 3.00363 -3.12993 0
M  V30 501 H 48.1052 4.63238 -3.00191 0
M  V30 502 H 50.5812 3.98846 -1.18581 0
M  V30 503 H 49.4572 5.3707 -1.13343 0
M  V30 504 H 49.7182 4.40986 0.313681 0
M  V30 505 N 48.7773 0.814389 1.34928 0
M  V30 506 C 50.1933 0.499084 1.51596 0
M  V30 507 C 50.3933 -0.978319 1.76157 0
M  V30 508 O 49.4493 -1.76309 1.80752 0
M  V30 509 C 50.7623 1.35121 2.68631 0
M  V30 510 C 52.3103 1.34746 2.82511 0
M  V30 511 C 52.7853 2.18388 4.0258 0
M  V30 512 N 54.2763 2.15966 4.09772 0
M  V30 513 C 55.0113 2.77437 5.01813 0
M  V30 514 N 54.5073 3.47866 5.99134 0
M  V30 515 N 56.3003 2.67037 4.94619 0
M  V30 516 H 48.4513 1.7711 1.17243 0
M  V30 517 H 50.7143 0.754256 0.574284 0
M  V30 518 H 50.4203 2.40001 2.57085 0
M  V30 519 H 50.2943 1.00991 3.63429 0
M  V30 520 H 52.6813 0.30648 2.93504 0
M  V30 521 H 52.7623 1.72869 1.88547 0
M  V30 522 H 52.4063 3.2253 3.92347 0
M  V30 523 H 52.3363 1.77621 4.9574 0
M  V30 524 H 54.8273 1.64729 3.40107 0
M  V30 525 H 55.1403 3.92038 6.65977 0
M  V30 526 H 53.4853 3.51972 5.99284 0
M  V30 527 H 56.6763 2.11597 4.17546 0
M  V30 528 H 56.8493 3.15232 5.66156 0
M  V30 529 N 50.2554 -1.46986 0.568584 0
M  V30 530 C 51.1854 -2.32946 -0.160753 0
M  V30 531 C 52.1664 -1.44487 -0.897631 0
M  V30 532 O 53.3514 -1.73327 -0.875867 0
M  V30 533 C 50.4814 -3.26494 -1.18403 0
M  V30 534 C 49.4354 -4.24282 -0.562895 0
M  V30 535 C 48.7614 -5.07236 -1.69163 0
M  V30 536 C 50.0614 -5.19989 0.490761 0
M  V30 537 H 51.7554 -2.94175 0.556916 0
M  V30 538 H 49.3014 -1.4146 0.26927 0
M  V30 539 H 51.2544 -3.85477 -1.70251 0
M  V30 540 H 49.9784 -2.63343 -1.93179 0
M  V30 541 H 48.6374 -3.66541 -0.0656164 0
M  V30 542 H 48.2854 -4.4048 -2.42871 0
M  V30 543 H 47.9854 -5.7345 -1.28174 0
M  V30 544 H 49.5094 -5.6908 -2.21314 0
M  V30 545 H 50.9234 -5.73271 0.0579047 0
M  V30 546 H 49.3204 -5.94469 0.820165 0
M  V30 547 H 50.3904 -4.64777 1.3824 0
M  V30 548 N 51.7335 -0.305618 -1.54608 0
M  V30 549 C 52.6815 0.584119 -2.25146 0
M  V30 550 C 53.6755 1.13326 -1.25911 0
M  V30 551 O 54.8815 1.08337 -1.43747 0
M  V30 552 H 51.2565 0.206983 -0.722954 0
M  V30 553 H 53.2275 -0.033291 -2.98381 0
M  V30 554 C 51.9765 1.74225 -3.009 0
M  V30 555 H 51.2995 1.32892 -3.77067 0
M  V30 556 H 52.7395 2.34077 -3.53531 0
M  V30 557 C 51.1985 2.64914 -2.0814 0
M  V30 558 O 51.7285 3.66137 -1.65246 0
M  V30 559 N 49.9345 2.3275 -1.74 0
M  V30 560 H 49.4815 1.50479 -2.09078 0
M  V30 561 H 49.4395 2.93694 -1.12211 0
M  V30 562 N 53.2116 1.57565 -0.0334293 0
M  V30 563 C 54.4576 1.92262 0.645226 0
M  V30 564 C 54.7906 0.910543 1.71531 0
M  V30 565 O 54.0656 -0.066099 1.94388 0
M  V30 566 C 54.3486 3.37422 1.2577 0
M  V30 567 C 54.2016 4.49369 0.196891 0
M  V30 568 C 55.5206 3.82628 2.17449 0
M  V30 569 H 52.6396 0.699171 0.233085 0
M  V30 570 H 55.2816 1.89779 -0.0915694 0
M  V30 571 H 53.4316 3.39669 1.88566 0
M  V30 572 H 55.1036 4.59254 -0.433962 0
M  V30 573 H 53.3466 4.31168 -0.477137 0
M  V30 574 H 54.0176 5.47978 0.665124 0
M  V30 575 H 56.4936 3.82145 1.64634 0
M  V30 576 H 55.3696 4.84883 2.57254 0
M  V30 577 H 55.6306 3.18376 3.0674 0
M  V30 578 N 54.6897 -0.239769 1.55765 0
M  V30 579 C 55.9377 -0.964892 1.77579 0
M  V30 580 C 56.2587 -1.85582 0.598699 0
M  V30 581 O 55.5287 -1.92075 -0.385226 0
M  V30 582 H 54.1087 -0.359265 0.654933 0
M  V30 583 H 56.7707 -0.256001 1.93211 0
M  V30 584 H 55.8667 -1.58243 2.69009 0
M  V30 585 N 56.1678 -1.49265 -0.50573 0
M  V30 586 C 57.4158 -1.582 -1.25766 0
M  V30 587 C 57.7368 -0.268482 -1.93143 0
M  V30 588 O 57.0068 0.711833 -1.8251 0
M  V30 589 H 55.5868 -0.582873 -0.467191 0
M  V30 590 H 58.2488 -1.85865 -0.586525 0
M  V30 591 H 57.3448 -2.37563 -2.02412 0
M  V30 592 N 57.6459 0.756429 -1.3826 0
M  V30 593 C 58.5759 1.88374 -1.37976 0
M  V30 594 C 59.5569 1.68311 -0.246082 0
M  V30 595 O 60.7419 1.88944 -0.44874 0
M  V30 596 C 57.8719 3.25864 -1.20125 0
M  V30 597 C 56.8259 3.60523 -2.30666 0
M  V30 598 C 56.1519 4.9672 -1.97923 0
M  V30 599 C 57.4519 3.65692 -3.72916 0
M  V30 600 H 59.1459 1.88869 -2.32312 0
M  V30 601 H 56.6919 0.907272 -1.11824 0
M  V30 602 H 58.6449 4.0438 -1.18552 0
M  V30 603 H 57.3689 3.25841 -0.222498 0
M  V30 604 H 56.0279 2.84324 -2.3142 0
M  V30 605 H 55.6759 4.93253 -0.985393 0
M  V30 606 H 55.3759 5.20878 -2.71955 0
M  V30 607 H 56.8999 5.77618 -1.97964 0
M  V30 608 H 58.3139 4.34328 -3.74208 0
M  V30 609 H 56.7109 4.01358 -4.4613 0
M  V30 610 H 57.7809 2.65987 -4.05436 0
M  V30 611 N 59.124 1.23083 0.984299 0
M  V30 612 C 60.087 1.00979 2.05757 0
M  V30 613 C 61.087 -0.0269573 1.60777 0
M  V30 614 O 62.277 0.212403 1.729 0
M  V30 615 C 59.409 0.527072 3.36801 0
M  V30 616 H 60.602 1.9622 2.26799 0
M  V30 617 H 58.155 1.05072 1.15714 0
M  V30 618 H 58.89 -0.429294 3.21446 0
M  V30 619 H 58.675 1.27515 3.70786 0
M  V30 620 H 60.165 0.392942 4.15747 0
M  V30 621 N 60.6021 -1.18246 1.0419 0
M  V30 622 C 61.5521 -2.19843 0.604392 0
M  V30 623 C 62.5361 -1.56962 -0.353814 0
M  V30 624 O 63.7281 -1.76156 -0.17267 0
M  V30 625 C 60.8571 -3.43287 -0.0298975 0
M  V30 626 C 59.9431 -4.13288 0.951531 0
M  V30 627 N 60.3341 -4.59271 2.11906 0
M  V30 628 C 58.6321 -4.39165 0.7778 0
M  V30 629 C 59.3331 -5.13173 2.73912 0
M  V30 630 N 58.3091 -5.04763 2.01779 0
M  V30 631 H 62.1111 -2.53089 1.4941 0
M  V30 632 H 59.6251 -1.34465 0.910658 0
M  V30 633 H 61.6221 -4.15334 -0.361037 0
M  V30 634 H 60.2821 -3.11537 -0.915127 0
M  V30 635 H 61.2931 -4.5368 2.49789 0
M  V30 636 H 57.9701 -4.17461 -0.0572331 0
M  V30 637 H 59.3601 -5.58947 3.72864 0
M  V30 638 N 62.0802 -0.821533 -1.34494 0
M  V30 639 C 62.9902 -0.244355 -2.33324 0
M  V30 640 C 64.0062 0.620527 -1.62559 0
M  V30 641 O 65.1822 0.528754 -1.94335 0
M  V30 642 C 62.2472 0.585368 -3.41723 0
M  V30 643 C 61.3082 -0.301752 -4.28238 0
M  V30 644 C 60.5412 0.488466 -5.3146 0
M  V30 645 O 60.7642 1.72186 -5.4379 0
M  V30 646 O 59.6982 -0.12848 -6.01763 0
M  V30 647 H 63.5242 -1.06231 -2.84515 0
M  V30 648 H 61.1092 -0.583645 -1.37528 0
M  V30 649 H 62.9912 1.05747 -4.07916 0
M  V30 650 H 61.6662 1.38068 -2.92778 0
M  V30 651 H 60.5732 -0.821315 -3.64973 0
M  V30 652 H 61.9062 -1.06138 -4.8062 0
M  V30 653 N 63.5583 1.46682 -0.576371 0
M  V30 654 C 64.8043 2.02712 -0.0596221 0
M  V30 655 C 65.1373 1.44765 1.29448 0
M  V30 656 O 64.4123 0.610355 1.84675 0
M  V30 657 C 64.6953 3.60098 0.0129503 0
M  V30 658 C 64.5483 4.28441 -1.3696 0
M  V30 659 C 65.8673 4.34224 0.71678 0
M  V30 660 H 62.9863 0.736637 -0.0231407 0
M  V30 661 H 65.6283 1.74898 -0.742351 0
M  V30 662 H 63.7783 3.83926 0.594378 0
M  V30 663 H 65.4503 4.15896 -1.9957 0
M  V30 664 H 63.6933 3.8805 -1.93907 0
M  V30 665 H 64.3643 5.3716 -1.27135 0
M  V30 666 H 66.8403 4.15503 0.222908 0
M  V30 667 H 65.7163 5.43936 0.73657 0
M  V30 668 H 65.9773 4.04823 1.77682 0
M  V30 669 N 65.0364 0.313813 1.54444 0
M  V30 670 C 65.9664 -0.549454 2.26943 0
M  V30 671 C 66.9474 -1.12741 1.27372 0
M  V30 672 O 68.1324 -1.15436 1.56167 0
M  V30 673 C 65.2624 -1.71523 3.01989 0
M  V30 674 C 64.2164 -1.26703 4.08816 0
M  V30 675 C 63.5424 -2.51898 4.71647 0
M  V30 676 C 64.8424 -0.388962 5.2085 0
M  V30 677 H 66.5364 0.0552661 2.99349 0
M  V30 678 H 64.0824 0.0280207 1.43973 0
M  V30 679 H 66.0354 -2.32535 3.51433 0
M  V30 680 H 64.7594 -2.34639 2.27183 0
M  V30 681 H 63.4184 -0.679896 3.6024 0
M  V30 682 H 63.0664 -3.13356 3.93468 0
M  V30 683 H 62.7664 -2.22605 5.43802 0
M  V30 684 H 64.2904 -3.1369 5.23861 0
M  V30 685 H 65.7044 -0.905107 5.6611 0
M  V30 686 H 64.1014 -0.18924 5.99802 0
M  V30 687 H 65.1714 0.582699 4.81386 0
M  V30 688 N 66.5145 -1.57545 0.0417849 0
M  V30 689 C 67.7605 -1.93424 -0.629168 0
M  V30 690 C 68.1155 -0.919564 -1.69002 0
M  V30 691 O 67.4085 0.0626178 -1.91498 0
M  V30 692 C 67.6025 -3.33794 -1.27735 0
M  V30 693 C 67.4315 -4.48822 -0.280806 0
M  V30 694 C 66.2015 -5.05148 0.123869 0
M  V30 695 C 68.3995 -5.12148 0.470012 0
M  V30 696 N 66.3815 -6.03703 1.11426 0
M  V30 697 C 67.7525 -6.05921 1.31377 0
M  V30 698 C 69.8075 -4.95078 0.529343 0
M  V30 699 C 68.5105 -6.84459 2.21152 0
M  V30 700 C 70.5365 -5.74235 1.41448 0
M  V30 701 C 69.8985 -6.67634 2.24598 0
M  V30 702 H 65.9975 -0.755418 -0.202158 0
M  V30 703 H 68.5815 -1.94378 0.111923 0
M  V30 704 H 66.7525 -3.33635 -1.98852 0
M  V30 705 H 68.4845 -3.56988 -1.90635 0
M  V30 706 H 65.2395 -4.72923 -0.253178 0
M  V30 707 H 65.6635 -6.57674 1.60607 0
M  V30 708 H 70.3055 -4.22683 -0.0992798 0
M  V30 709 H 68.0235 -7.56151 2.85063 0
M  V30 710 H 71.6095 -5.63057 1.46484 0
M  V30 711 H 70.4895 -7.27817 2.9198 0
M  V30 712 N 67.9926 0.231505 -1.5589 0
M  V30 713 C 69.4086 0.580748 -1.48659 0
M  V30 714 C 69.6086 1.87617 -0.73498 0
M  V30 715 O 68.6646 2.51046 -0.270586 0
M  V30 716 C 69.9776 0.669202 -2.93159 0
M  V30 717 C 71.5256 0.760499 -3.03621 0
M  V30 718 C 72.0006 0.880383 -4.49459 0
M  V30 719 N 73.4916 0.944861 -4.53461 0
M  V30 720 C 74.2266 1.05716 -5.63571 0
M  V30 721 N 73.7226 1.13403 -6.83456 0
M  V30 722 N 75.5156 1.09152 -5.514 0
M  V30 723 H 67.6666 -0.618695 -2.03189 0
M  V30 724 H 69.9296 -0.215728 -0.923128 0
M  V30 725 H 69.6356 -0.212904 -3.51055 0
M  V30 726 H 69.5096 1.5361 -3.44505 0
M  V30 727 H 71.8966 1.63305 -2.45796 0
M  V30 728 H 71.9776 -0.131864 -2.5546 0
M  V30 729 H 71.6216 0.0123284 -5.07899 0
M  V30 730 H 71.5516 1.78802 -4.95316 0
M  V30 731 H 74.0426 0.896176 -3.6712 0
M  V30 732 H 74.3556 1.21921 -7.63122 0
M  V30 733 H 72.7006 1.10333 -6.86186 0
M  V30 734 H 75.8916 1.02805 -4.56671 0
M  V30 735 H 76.0646 1.17558 -6.37247 0
M  V30 736 N 69.4707 1.49531 0.497807 0
M  V30 737 C 70.6987 1.62893 1.27567 0
M  V30 738 C 71.1137 0.301585 1.86376 0
M  V30 739 O 70.4707 -0.713335 1.67982 0
M  V30 740 C 70.5217 2.70013 2.40364 0
M  V30 741 O 70.2427 3.976 1.83972 0
M  V30 742 C 71.7437 2.94109 3.31685 0
M  V30 743 H 68.9637 0.548298 0.386794 0
M  V30 744 H 71.5077 1.95584 0.597245 0
M  V30 745 H 69.6627 2.40092 3.04031 0
M  V30 746 H 70.0767 4.56631 2.58047 0
M  V30 747 H 71.5507 3.72788 4.07104 0
M  V30 748 H 72.0277 2.04147 3.88871 0
M  V30 749 H 72.6337 3.2546 2.73781 0
M  V30 750 N 70.9488 -0.749086 1.3866 0
M  V30 751 C 71.8788 -1.8764 1.38973 0
M  V30 752 C 72.8598 -1.68178 0.255004 0
M  V30 753 O 74.0448 -1.88704 0.458754 0
M  V30 754 C 71.1748 -3.25222 1.21851 0
M  V30 755 C 70.1288 -3.59295 2.32575 0
M  V30 756 C 69.4548 -4.95663 2.00555 0
M  V30 757 C 70.7548 -3.63709 3.7485 0
M  V30 758 H 72.4488 -1.87635 2.3331 0
M  V30 759 H 69.9948 -0.901329 1.12303 0
M  V30 760 H 71.9478 -4.03746 1.20695 0
M  V30 761 H 70.6718 -3.25719 0.239775 0
M  V30 762 H 69.3308 -2.83093 2.32925 0
M  V30 763 H 68.9788 -4.92724 1.01154 0
M  V30 764 H 68.6788 -5.19429 2.74714 0
M  V30 765 H 70.2028 -5.7656 2.01024 0
M  V30 766 H 71.6168 -4.32338 3.76506 0
M  V30 767 H 70.0138 -3.98986 4.48252 0
M  V30 768 H 71.0838 -2.63834 4.06841 0
M  V30 769 N 72.4269 -1.23603 -0.977757 0
M  V30 770 C 73.7039 -0.977897 -1.69401 0
M  V30 771 C 74.0839 0.502738 -2.05026 0
M  V30 772 O 73.4319 1.47459 -1.74551 0
M  V30 773 C 73.6419 -1.89077 -2.93345 0
M  V30 774 C 74.9899 -2.15579 -3.65802 0
M  V30 775 O 76.0139 -1.86648 -3.03383 0
M  V30 776 O 74.8729 -2.64658 -4.78141 0
M  V30 777 H 71.9669 -0.369025 -0.740101 0
M  V30 778 H 74.5129 -1.34657 -1.03274 0
M  V30 779 H 73.2849 -2.89158 -2.63634 0
M  V30 780 H 72.9079 -1.52463 -3.67207 0
M  V30 781 N 73.905 1.17692 -1.04816 0
M  V30 782 C 75.321 1.39863 -0.768794 0
M  V30 783 C 75.521 1.91118 0.638451 0
M  V30 784 O 74.577 2.10036 1.40146 0
M  V30 785 C 75.89 2.39274 -1.82122 0
M  V30 786 C 77.438 2.52987 -1.843 0
M  V30 787 C 77.913 3.55669 -2.88555 0
M  V30 788 N 79.404 3.63183 -2.87493 0
M  V30 789 C 80.139 4.42381 -3.64811 0
M  V30 790 N 79.635 5.25125 -4.51903 0
M  V30 791 N 81.428 4.37217 -3.53267 0
M  V30 792 H 73.579 0.82752 -1.95617 0
M  V30 793 H 75.842 0.426123 -0.846831 0
M  V30 794 H 75.548 2.08678 -2.83102 0
M  V30 795 H 75.422 3.38725 -1.65967 0
M  V30 796 H 77.809 2.82896 -0.839869 0
M  V30 797 H 77.89 1.53623 -2.04532 0
M  V30 798 H 77.534 3.26499 -3.89051 0
M  V30 799 H 77.464 4.54728 -2.65575 0
M  V30 800 H 79.955 3.04103 -2.24343 0
M  V30 801 H 80.268 5.82728 -5.07591 0
M  V30 802 H 78.613 5.24519 -4.55966 0
M  V30 803 H 81.804 3.71626 -2.84625 0
M  V30 804 H 81.977 4.98696 -4.13771 0
M  V30 805 N 75.3831 0.828654 1.34056 0
M  V30 806 C 76.3131 0.269443 2.3194 0
M  V30 807 C 77.2941 -0.617247 1.58506 0
M  V30 808 O 78.4791 -0.542931 1.86456 0
M  V30 809 C 75.6091 -0.564793 3.42677 0
M  V30 810 C 74.5631 0.225241 4.27407 0
M  V30 811 C 73.8891 -0.7321 5.29664 0
M  V30 812 C 75.1891 1.43663 5.02154 0
M  V30 813 H 76.8831 1.08728 2.7896 0
M  V30 814 H 74.4291 0.524283 1.34117 0
M  V30 815 H 76.3821 -0.966233 4.10173 0
M  V30 816 H 75.1061 -1.41574 2.9432 0
M  V30 817 H 73.7651 0.608117 3.61521 0
M  V30 818 H 73.4131 -1.57916 4.77568 0
M  V30 819 H 73.1131 -0.20767 5.87233 0
M  V30 820 H 74.6371 -1.13128 6.00029 0
M  V30 821 H 76.0511 1.1089 5.62473 0
M  V30 822 H 74.4481 1.89711 5.69324 0
M  V30 823 H 75.5181 2.21181 4.31517 0
M  V30 824 N 76.8612 -1.46375 0.584142 0
M  V30 825 C 78.2722 -1.86031 0.157959 0
M  V30 826 C 78.6232 -1.48753 -1.27933 0
M  V30 827 O 77.7482 -0.903098 -1.96655 0
M  V30 828 C 78.3432 -3.37642 0.279892 0
M  V30 829 C 76.9022 -3.76289 -0.09143 0
M  V30 830 C 76.0492 -2.7039 0.615178 0
M  V30 831 H 79.0002 -1.37509 0.792274 0
M  V30 832 H 79.0212 -3.77275 -0.494364 0
M  V30 833 H 78.5332 -3.64742 1.32607 0
M  V30 834 H 76.6342 -3.54806 -1.13769 0
M  V30 835 H 76.7472 -4.78246 0.285886 0
M  V30 836 H 75.1112 -2.5464 0.0552833 0
M  V30 837 H 75.8942 -3.0033 1.66303 0
M  V30 838 N 78.3393 -0.321999 -1.54275 0
M  V30 839 C 79.7553 0.0306999 -1.5957 0
M  V30 840 C 79.9553 1.50614 -1.33857 0
M  V30 841 O 79.0113 2.2619 -1.12223 0
M  V30 842 C 80.3243 -0.386122 -2.98211 0
M  V30 843 C 81.8723 -0.336647 -3.11184 0
M  V30 844 C 82.3473 -0.728607 -4.52167 0
M  V30 845 N 83.8383 -0.681952 -4.58152 0
M  V30 846 C 84.5733 -0.957449 -5.6535 0
M  V30 847 N 84.0693 -1.3 -6.80494 0
M  V30 848 N 85.8623 -0.883113 -5.55119 0
M  V30 849 H 78.0133 -1.28332 -1.69247 0
M  V30 850 H 80.2763 -0.521716 -0.791528 0
M  V30 851 H 79.9823 -1.41404 -3.22022 0
M  V30 852 H 79.8563 0.249662 -3.76373 0
M  V30 853 H 82.2433 0.682058 -2.8711 0
M  V30 854 H 82.3243 -1.00734 -2.3513 0
M  V30 855 H 81.9683 -1.74522 -4.76974 0
M  V30 856 H 81.8983 -0.0356152 -5.26588 0
M  V30 857 H 84.3893 -0.428985 -3.75457 0
M  V30 858 H 84.7023 -1.49563 -7.58189 0
M  V30 859 H 83.0473 -1.33824 -6.81994 0
M  V30 860 H 86.2383 -0.615001 -4.64042 0
M  V30 861 H 86.4113 -1.10118 -6.38575 0
M  V30 862 N 79.8174 1.5752 -0.0501392 0
M  V30 863 C 81.0454 1.96963 0.633492 0
M  V30 864 C 81.4604 0.927631 1.6444 0
M  V30 865 O 80.8174 -0.0882665 1.82286 0
M  V30 866 C 80.8684 3.36487 1.32132 0
M  V30 867 O 80.5894 4.36693 0.350894 0
M  V30 868 C 82.0904 3.90682 2.09481 0
M  V30 869 H 79.3104 0.648244 0.173266 0
M  V30 870 H 81.8544 2.0417 -0.116134 0
M  V30 871 H 80.0094 3.30434 2.02218 0
M  V30 872 H 80.4234 5.17702 0.841735 0
M  V30 873 H 81.8974 4.90591 2.5303 0
M  V30 874 H 82.3744 3.26053 2.94255 0
M  V30 875 H 82.9804 4.00069 1.44307 0
M  V30 876 N 81.2955 -0.223234 1.56011 0
M  V30 877 C 82.7115 -0.572856 1.48965 0
M  V30 878 C 82.9115 -1.87225 0.74492 0
M  V30 879 O 81.9675 -2.50899 0.283896 0
M  V30 880 C 83.2805 -0.653646 2.9351 0
M  V30 881 C 84.8285 -0.744386 3.0402 0
M  V30 882 C 85.3035 -0.856535 4.49919 0
M  V30 883 N 86.7945 -0.9208 4.53955 0
M  V30 884 C 87.5295 -1.02726 5.64123 0
M  V30 885 N 87.0255 -1.09777 6.84047 0
M  V30 886 N 88.8185 -1.06226 5.51971 0
M  V30 887 H 80.9695 0.629462 2.02858 0
M  V30 888 H 83.2325 0.220621 0.921971 0
M  V30 889 H 82.9385 0.231518 3.50937 0
M  V30 890 H 82.8125 -1.51781 3.45315 0
M  V30 891 H 85.1995 -1.61999 2.46658 0
M  V30 892 H 85.2805 0.14541 2.55386 0
M  V30 893 H 84.9245 0.0146069 5.07898 0
M  V30 894 H 84.8545 -1.76172 4.96257 0
M  V30 895 H 87.3455 -0.876694 3.6759 0
M  V30 896 H 87.6585 -1.17872 7.63758 0
M  V30 897 H 86.0035 -1.06693 6.86762 0
M  V30 898 H 89.1945 -1.00382 4.5721 0
M  V30 899 H 89.3675 -1.14177 6.37862 0
M  V30 900 N 82.7736 -1.49793 -0.48987 0
M  V30 901 C 83.7036 -1.70201 -1.59856 0
M  V30 902 C 84.6846 -0.55076 -1.60937 0
M  V30 903 O 85.8696 -0.787841 -1.77501 0
M  V30 904 C 82.9996 -1.77882 -2.98287 0
M  V30 905 C 81.9536 -2.92907 -3.12073 0
M  V30 906 C 81.2796 -2.85712 -4.51965 0
M  V30 907 C 82.5796 -4.3369 -2.91051 0
M  V30 908 H 84.2736 -2.63025 -1.43032 0
M  V30 909 H 81.8196 -1.26574 -0.686664 0
M  V30 910 H 83.7726 -1.90744 -3.75759 0
M  V30 911 H 82.4966 -0.816653 -3.16225 0
M  V30 912 H 81.1556 -2.79665 -2.37029 0
M  V30 913 H 80.8036 -1.8738 -4.66795 0
M  V30 914 H 80.5036 -3.62921 -4.62128 0
M  V30 915 H 82.0276 -3.00598 -5.31482 0
M  V30 916 H 83.4416 -4.47555 -3.58284 0
M  V30 917 H 81.8386 -5.12205 -3.12675 0
M  V30 918 H 82.9086 -4.47362 -1.87071 0
M  V30 919 N 84.2517 0.741722 -1.39055 0
M  V30 920 C 85.4997 1.49818 -1.35643 0
M  V30 921 C 85.8207 1.94938 0.0491642 0
M  V30 922 O 85.0907 1.68505 0.999141 0
M  V30 923 H 83.6707 0.555755 -0.499144 0
M  V30 924 H 86.3327 0.880957 -1.73854 0
M  V30 925 H 85.4287 2.38348 -2.01486 0
M  V30 926 N 85.7298 1.2412 0.971189 0
M  V30 927 C 86.6768 1.0305 2.06517 0
M  V30 928 C 87.6468 -0.0550666 1.66009 0
M  V30 929 O 88.8318 0.0988688 1.90544 0
M  V30 930 C 85.9718 0.637653 3.39158 0
M  V30 931 C 85.0848 1.79633 3.92882 0
M  V30 932 C 84.2198 1.34939 5.13775 0
M  V30 933 C 83.2588 2.47823 5.59687 0
M  V30 934 N 82.3958 2.04022 6.71803 0
M  V30 935 H 87.2358 1.96685 2.23873 0
M  V30 936 H 84.7728 0.979694 1.09729 0
M  V30 937 H 86.7308 0.390931 4.15364 0
M  V30 938 H 85.3608 -0.261693 3.21737 0
M  V30 939 H 84.4128 2.15681 3.13346 0
M  V30 940 H 85.7248 2.64466 4.22918 0
M  V30 941 H 84.8788 1.06134 5.97345 0
M  V30 942 H 83.6178 0.471557 4.85415 0
M  V30 943 H 82.6228 2.77392 4.74693 0
M  V30 944 H 83.8478 3.36158 5.90063 0
M  V30 945 H 81.7938 1.18632 6.45184 0
M  V30 946 H 81.7108 2.82409 7.01271 0
M  V30 947 H 82.9788 1.78347 7.58823 0
M  V30 948 N 87.2079 -1.17134 1.05439 0
M  V30 949 C 88.1379 -2.2342 0.678649 0
M  V30 950 C 89.1189 -1.66971 -0.32476 0
M  V30 951 O 90.3039 -1.93149 -0.201802 0
M  V30 952 C 87.4339 -3.47256 0.0552099 0
M  V30 953 C 86.3879 -4.16543 0.98365 0
M  V30 954 C 85.7139 -5.34231 0.223961 0
M  V30 955 C 87.0139 -4.68495 2.3089 0
M  V30 956 H 88.7079 -2.55105 1.56722 0
M  V30 957 H 86.2539 -1.2262 0.754998 0
M  V30 958 H 88.2069 -4.20828 -0.21946 0
M  V30 959 H 86.9309 -3.14846 -0.868319 0
M  V30 960 H 85.5899 -3.44887 1.24293 0
M  V30 961 H 85.2379 -4.98071 -0.702412 0
M  V30 962 H 84.9379 -5.81527 0.842627 0
M  V30 963 H 86.4619 -6.10585 -0.0433671 0
M  V30 964 H 87.8759 -5.33691 2.09396 0
M  V30 965 H 86.2729 -5.26379 2.88176 0
M  V30 966 H 87.3429 -3.85169 2.94572 0
M  V30 967 N 88.686 -0.835752 -1.33615 0
M  V30 968 C 90.102 -0.523139 -1.50783 0
M  V30 969 C 90.302 0.950171 -1.77691 0
M  V30 970 O 89.358 1.73411 -1.83534 0
M  V30 971 C 90.671 -1.39378 -2.66448 0
M  V30 972 C 92.219 -1.39223 -2.80332 0
M  V30 973 C 92.694 -2.24765 -3.99055 0
M  V30 974 N 94.185 -2.22458 -4.06284 0
M  V30 975 C 94.92 -2.85386 -4.97336 0
M  V30 976 N 94.416 -3.57354 -5.93523 0
M  V30 977 N 96.209 -2.74872 -4.90308 0
M  V30 978 H 88.36 -1.78952 -1.14411 0
M  V30 979 H 90.623 -0.763297 -0.562212 0
M  V30 980 H 90.329 -2.44061 -2.53234 0
M  V30 981 H 90.203 -1.0676 -3.61776 0
M  V30 982 H 92.59 -0.353136 -2.92979 0
M  V30 983 H 92.671 -1.75846 -1.85773 0
M  V30 984 H 92.315 -3.28732 -3.87167 0
M  V30 985 H 92.245 -1.85485 -4.92852 0
M  V30 986 H 94.736 -1.70119 -3.37443 0
M  V30 987 H 95.049 -4.02584 -6.59656 0
M  V30 988 H 93.394 -3.61461 -5.93608 0
M  V30 989 H 96.585 -2.18213 -4.14126 0
M  V30 990 H 96.758 -3.24199 -5.61069 0
M  V30 991 N 90.1641 1.46063 -0.591896 0
M  V30 992 C 91.4411 1.95595 -0.0137119 0
M  V30 993 C 91.8211 1.5345 1.4497 0
M  V30 994 O 91.1691 0.789543 2.14426 0
M  V30 995 C 91.3791 3.48453 -0.195373 0
M  V30 996 C 92.7271 4.24546 -0.0679765 0
M  V30 997 O 93.7511 3.55982 -0.124681 0
M  V30 998 O 92.6101 5.46467 0.0600579 0
M  V30 999 H 89.7041 0.825795 0.0446279 0
M  V30 1000 H 92.2501 1.56303 -0.660859 0
M  V30 1001 H 91.0221 3.72045 -1.21235 0
M  V30 1002 H 90.6451 3.94597 0.487775 0
M  V30 1003 N 91.6422 0.330177 1.54103 0
M  V30 1004 C 92.8822 -0.270916 2.02597 0
M  V30 1005 C 93.2462 -1.48826 1.21304 0
M  V30 1006 O 94.4472 -2.16266 1.59633 0
M  V30 1007 C 92.7182 -0.590328 3.52491 0
M  V30 1008 S 94.2772 -1.17014 4.2291 0
M  V30 1009 H 91.0952 -0.0815379 0.706309 0
M  V30 1010 H 93.6972 0.464835 1.89893 0
M  V30 1011 H 92.4012 0.303691 4.09275 0
M  V30 1012 H 91.9322 -1.3561 3.69288 0
M  V30 1013 H 93.9472 -2.45662 4.3112 0
M  V30 1014 N 93.1203 -1.57491 0.0584922 0
M  V30 1015 C 94.0683 -2.13148 -0.931168 0
M  V30 1016 C 95.0623 -1.06507 -1.31729 0
M  V30 1017 O 96.2683 -1.24906 -1.29609 0
M  V30 1018 H 92.6433 -0.68137 -0.31818 0
M  V30 1019 H 94.6143 -2.95187 -0.436707 0
M  V30 1020 C 93.3633 -2.69732 -2.19408 0
M  V30 1021 H 92.6863 -3.51454 -1.90578 0
M  V30 1022 H 94.1263 -3.12287 -2.86798 0
M  V30 1023 C 92.5853 -1.63855 -2.94369 0
M  V30 1024 O 93.1153 -1.05565 -3.87581 0
M  V30 1025 N 91.3213 -1.35202 -2.57233 0
M  V30 1026 H 90.8683 -1.82791 -1.81508 0
M  V30 1027 H 90.8263 -0.645922 -3.07693 0
M  V30 1028 N 94.5984 0.214957 -1.56127 0
M  V30 1029 C 95.8264 0.955092 -1.83536 0
M  V30 1030 C 96.2414 1.77677 -0.638472 0
M  V30 1031 O 95.5984 1.78219 0.392968 0
M  V30 1032 C 95.6494 1.86734 -3.09536 0
M  V30 1033 O 95.3704 1.07887 -4.24608 0
M  V30 1034 C 96.8714 2.72082 -3.4998 0
M  V30 1035 H 94.0914 0.279611 -0.609966 0
M  V30 1036 H 96.6354 0.228197 -2.03223 0
M  V30 1037 H 94.7904 2.5481 -2.91806 0
M  V30 1038 H 95.2044 1.69872 -4.9623 0
M  V30 1039 H 96.6784 3.31782 -4.41163 0
M  V30 1040 H 97.1554 3.44806 -2.7204 0
M  V30 1041 H 97.7614 2.09409 -3.70173 0
M  V30 1042 N 96.0765 1.50051 0.48192 0
M  V30 1043 C 97.0265 1.64512 1.5786 0
M  V30 1044 C 98.0105 0.500073 1.52932 0
M  V30 1045 O 99.2025 0.753964 1.60139 0
M  V30 1046 C 96.3315 1.73263 2.9637 0
M  V30 1047 C 95.4175 2.93409 3.06222 0
M  V30 1048 N 95.8085 4.17236 2.85915 0
M  V30 1049 C 94.1065 2.91742 3.37346 0
M  V30 1050 C 94.8075 4.981 3.00451 0
M  V30 1051 N 93.7835 4.3184 3.30174 0
M  V30 1052 H 97.5855 2.57955 1.40842 0
M  V30 1053 H 95.0995 1.47086 0.688439 0
M  V30 1054 H 97.0965 1.81724 3.75209 0
M  V30 1055 H 95.7565 0.809711 3.14442 0
M  V30 1056 H 96.7675 4.46909 2.6171 0
M  V30 1057 H 93.4445 2.08907 3.61475 0
M  V30 1058 H 94.8345 6.06532 2.89082 0
M  V30 1059 N 97.5546 -0.734337 1.39446 0
M  V30 1060 C 98.8316 -1.48579 1.27215 0
M  V30 1061 C 99.2116 -2.1077 -0.117968 0
M  V30 1062 O 98.5596 -1.98646 -1.12924 0
M  V30 1063 C 98.7696 -2.53667 2.39696 0
M  V30 1064 C 100.118 -3.20031 2.79044 0
M  V30 1065 O 101.142 -2.6398 2.39151 0
M  V30 1066 O 100.001 -4.21455 3.47905 0
M  V30 1067 H 97.0946 -0.659816 0.49857 0
M  V30 1068 H 99.6406 -0.768106 1.51322 0
M  V30 1069 H 98.4126 -2.06096 3.32626 0
M  V30 1070 H 98.0356 -3.32994 2.17258 0
M  V30 1071 N 99.0327 -1.24633 -0.964593 0
M  V30 1072 C 100.258 -1.11596 -1.74818 0
M  V30 1073 C 100.683 0.32723 -1.85232 0
M  V30 1074 O 100.041 1.23695 -1.32549 0
M  V30 1075 C 100.089 -1.76397 -3.1451 0
M  V30 1076 O 99.1927 -1.03685 -3.99153 0
M  V30 1077 H 98.5337 -0.390196 -0.537255 0
M  V30 1078 H 101.064 -1.65002 -1.20977 0
M  V30 1079 H 101.074 -1.8228 -3.65018 0
M  V30 1080 H 99.7487 -2.81401 -3.06246 0
M  V30 1081 H 98.3257 -1.05611 -3.57632 0
M  V30 1082 N 100.511 1.16574 -1.06058 0
M  V30 1083 C 101.441 2.23057 -0.690488 0
M  V30 1084 C 102.422 1.67141 0.315901 0
M  V30 1085 O 103.607 1.93253 0.191556 0
M  V30 1086 C 100.737 3.47222 -0.073625 0
M  V30 1087 C 99.6908 4.16016 -1.00573 0
M  V30 1088 C 99.0168 5.34104 -0.252289 0
M  V30 1089 C 100.317 4.67264 -2.33371 0
M  V30 1090 H 102.011 2.54271 -1.58072 0
M  V30 1091 H 99.5568 1.22218 -0.76149 0
M  V30 1092 H 101.51 4.20939 0.19714 0
M  V30 1093 H 100.234 3.15302 0.85161 0
M  V30 1094 H 98.8928 3.44223 -1.2612 0
M  V30 1095 H 98.5408 4.98437 0.675988 0
M  V30 1096 H 98.2408 5.81072 -0.873455 0
M  V30 1097 H 99.7648 6.10599 0.0109857 0
M  V30 1098 H 101.179 5.32573 -2.12223 0
M  V30 1099 H 99.5758 5.24843 -2.90963 0
M  V30 1100 H 100.646 3.83602 -2.96611 0
M  V30 1101 N 101.989 0.842826 1.3317 0
M  V30 1102 C 102.919 0.294028 2.31641 0
M  V30 1103 C 103.9 -0.600401 1.59151 0
M  V30 1104 O 105.085 -0.523124 1.87022 0
M  V30 1105 C 102.215 -0.528416 3.43257 0
M  V30 1106 C 101.169 0.27056 4.27144 0
M  V30 1107 C 100.495 -0.675881 5.30411 0
M  V30 1108 C 101.795 1.48981 5.00602 0
M  V30 1109 H 103.489 1.11681 2.77791 0
M  V30 1110 H 101.035 0.538478 1.33553 0
M  V30 1111 H 102.988 -0.922674 4.11175 0
M  V30 1112 H 101.712 -1.38445 2.95805 0
M  V30 1113 H 100.371 0.646427 3.60856 0
M  V30 1114 H 100.019 -1.52842 4.79216 0
M  V30 1115 H 99.7189 -0.145374 5.8742 0
M  V30 1116 H 101.243 -1.06757 6.01195 0
M  V30 1117 H 102.657 1.16849 5.61266 0
M  V30 1118 H 101.054 1.95739 5.6728 0
M  V30 1119 H 102.124 2.25746 4.29147 0
M  V30 1120 N 103.467 -1.45747 0.599634 0
M  V30 1121 C 104.377 -2.34262 -0.125888 0
M  V30 1122 C 105.393 -1.50768 -0.868625 0
M  V30 1123 O 106.569 -1.83592 -0.828003 0
M  V30 1124 C 103.634 -3.28252 -1.11587 0
M  V30 1125 C 102.695 -4.27651 -0.375956 0
M  V30 1126 C 101.928 -5.1715 -1.31877 0
M  V30 1127 O 102.151 -5.09916 -2.55621 0
M  V30 1128 O 101.085 -5.96286 -0.820157 0
M  V30 1129 H 104.911 -2.97688 0.601315 0
M  V30 1130 H 102.496 -1.44999 0.359934 0
M  V30 1131 H 104.378 -3.86191 -1.68626 0
M  V30 1132 H 103.053 -2.67401 -1.82424 0
M  V30 1133 H 101.96 -3.7335 0.236698 0
M  V30 1134 H 103.293 -4.91334 0.29177 0
M  V30 1135 N 104.945 -0.338344 -1.53925 0
M  V30 1136 C 106.191 0.260143 -2.01125 0
M  V30 1137 C 106.524 1.50617 -1.22589 0
M  V30 1138 O 105.799 1.91979 -0.312113 0
M  V30 1139 C 106.082 0.579499 -3.55407 0
M  V30 1140 C 105.935 -0.678264 -4.44657 0
M  V30 1141 C 107.254 1.39122 -4.17532 0
M  V30 1142 H 104.373 0.0930772 -0.731099 0
M  V30 1143 H 107.015 -0.457852 -1.84401 0
M  V30 1144 H 105.165 1.19118 -3.69788 0
M  V30 1145 H 106.837 -1.31631 -4.42121 0
M  V30 1146 H 105.08 -1.3042 -4.13731 0
M  V30 1147 H 105.751 -0.410143 -5.50474 0
M  V30 1148 H 108.227 0.874035 -4.06817 0
M  V30 1149 H 107.103 1.58342 -5.25565 0
M  V30 1150 H 107.364 2.39178 -3.71815 0
M  V30 1151 N 106.423 1.57458 -0.0668435 0
M  V30 1152 C 107.663 1.95175 0.607116 0
M  V30 1153 C 108.027 0.946039 1.67075 0
M  V30 1154 O 109.228 1.2107 2.39991 0
M  V30 1155 C 107.499 3.37582 1.17358 0
M  V30 1156 S 109.058 3.97271 1.86336 0
M  V30 1157 H 105.876 0.682604 0.19893 0
M  V30 1158 H 108.478 1.95002 -0.139519 0
M  V30 1159 H 107.182 4.08566 0.387553 0
M  V30 1160 H 106.713 3.41288 1.95669 0
M  V30 1161 H 108.728 3.83772 3.14537 0
M  V30 1162 N 107.901 -0.206675 1.56239 0
M  V30 1163 C 109.178 -0.954051 1.70755 0
M  V30 1164 C 109.558 -2.01841 0.618353 0
M  V30 1165 O 108.906 -2.25444 -0.372434 0
M  V30 1166 C 109.116 -1.551 3.12642 0
M  V30 1167 C 110.464 -2.03757 3.72516 0
M  V30 1168 O 111.488 -1.64965 3.15698 0
M  V30 1169 O 110.347 -2.75103 4.72208 0
M  V30 1170 H 107.441 -0.446636 0.696021 0
M  V30 1171 H 109.987 -0.197283 1.68549 0
M  V30 1172 H 108.759 -0.783212 3.83382 0
M  V30 1173 H 108.382 -2.37291 3.19028 0
M  V30 1174 N 109.379 -1.50304 -0.473955 0
M  V30 1175 C 110.656 -1.51667 -1.23518 0
M  V30 1176 C 111.036 -0.259701 -2.09496 0
M  V30 1177 O 110.384 0.756986 -2.15597 0
M  V30 1178 C 110.594 -2.81082 -2.06868 0
M  V30 1179 C 111.942 -3.31631 -2.65153 0
M  V30 1180 O 112.966 -2.82384 -2.17113 0
M  V30 1181 O 111.825 -4.17471 -3.52675 0
M  V30 1182 H 108.919 -0.60822 -0.560355 0
M  V30 1183 H 111.465 -1.62592 -0.486011 0
M  V30 1184 H 110.237 -3.64041 -1.4349 0
M  V30 1185 H 109.86 -2.73146 -2.88924 0
M  V30 1186 N 110.857 0.726932 -1.39834 0
M  V30 1187 C 112.087 1.51393 -1.40583 0
M  V30 1188 C 112.495 1.892 -0.000740625 0
M  V30 1189 O 111.838 1.55189 0.982951 0
M  V30 1190 C 111.9 2.82588 -2.22226 0
M  V30 1191 C 111.564 2.67169 -3.70769 0
M  V30 1192 C 112.561 2.3518 -4.63666 0
M  V30 1193 C 110.246 2.83788 -4.14451 0
M  V30 1194 C 112.24 2.20002 -5.98229 0
M  V30 1195 C 109.927 2.68229 -5.49087 0
M  V30 1196 C 110.925 2.36382 -6.4079 0
M  V30 1197 O 110.613 2.2093 -7.72946 0
M  V30 1198 H 110.345 0.474168 -0.48181 0
M  V30 1199 H 112.899 0.905247 -1.84376 0
M  V30 1200 H 111.129 3.45746 -1.73195 0
M  V30 1201 H 112.818 3.44247 -2.15055 0
M  V30 1202 H 113.584 2.21984 -4.31217 0
M  V30 1203 H 109.463 3.07566 -3.43401 0
M  V30 1204 H 113.007 1.95067 -6.69772 0
M  V30 1205 H 108.904 2.81006 -5.81125 0
M  V30 1206 H 109.672 2.35937 -7.83757 0
M  V30 1207 N 112.336 1.25143 0.95797 0
M  V30 1208 C 113.561 1.12521 1.74223 0
M  V30 1209 C 113.986 -0.317402 1.85403 0
M  V30 1210 O 113.344 -1.2299 1.33204 0
M  V30 1211 C 113.392 1.78062 3.1357 0
M  V30 1212 O 112.496 1.058 3.98598 0
M  V30 1213 H 111.837 0.39304 0.535178 0
M  V30 1214 H 114.367 1.65641 1.201 0
M  V30 1215 H 114.377 1.84213 3.64046 0
M  V30 1216 H 113.052 2.83021 3.04749 0
M  V30 1217 H 111.629 1.07506 3.57067 0
M  V30 1218 N 113.814 -1.1601 1.06675 0
M  V30 1219 C 114.744 -2.22688 0.702307 0
M  V30 1220 C 115.725 -1.67306 -0.307032 0
M  V30 1221 O 116.91 -1.93352 -0.181305 0
M  V30 1222 C 114.04 -3.47178 0.092038 0
M  V30 1223 C 112.994 -4.15477 1.02777 0
M  V30 1224 C 112.32 -5.33963 0.28061 0
M  V30 1225 C 113.62 -4.66019 2.35846 0
M  V30 1226 H 115.314 -2.53429 1.59419 0
M  V30 1227 H 112.86 -1.21813 0.767961 0
M  V30 1228 H 114.813 -4.21037 -0.174814 0
M  V30 1229 H 113.537 -3.15749 -0.834877 0
M  V30 1230 H 112.196 -3.43549 1.27944 0
M  V30 1231 H 111.844 -4.98788 -0.649545 0
M  V30 1232 H 111.544 -5.806 0.904258 0
M  V30 1233 H 113.068 -6.10596 0.021396 0
M  V30 1234 H 114.482 -5.3144 2.15045 0
M  V30 1235 H 112.879 -5.23293 2.93743 0
M  V30 1236 H 113.949 -3.82023 2.98641 0
M  V30 1237 N 115.292 -0.849877 -1.32721 0
M  V30 1238 C 116.569 -0.372405 -1.92022 0
M  V30 1239 C 116.949 1.1435 -1.77447 0
M  V30 1240 O 116.297 1.96296 -1.16962 0
M  V30 1241 C 116.507 -0.831482 -3.3895 0
M  V30 1242 C 117.855 -0.845882 -4.16089 0
M  V30 1243 O 118.879 -0.775806 -3.47649 0
M  V30 1244 O 117.738 -0.943753 -5.38289 0
M  V30 1245 H 114.832 -0.107667 -0.819961 0
M  V30 1246 H 117.378 -0.93646 -1.41522 0
M  V30 1247 H 116.15 -1.87448 -3.4348 0
M  V30 1248 H 115.773 -0.24461 -3.96847 0
M  V30 1249 N 116.77 1.45427 -0.607355 0
M  V30 1250 C 118.047 1.9557 -0.0344566 0
M  V30 1251 C 118.427 1.54979 1.43334 0
M  V30 1252 O 117.775 0.812241 2.13576 0
M  V30 1253 C 117.985 3.48226 -0.232321 0
M  V30 1254 C 119.333 4.2445 -0.113001 0
M  V30 1255 O 120.357 3.55829 -0.162431 0
M  V30 1256 O 119.216 5.465 0.00209442 0
M  V30 1257 H 116.31 0.826222 0.0358667 0
M  V30 1258 H 118.856 1.55594 -0.6774 0
M  V30 1259 H 117.628 3.70739 -1.25174 0
M  V30 1260 H 117.251 3.95092 0.445896 0
M  V30 1261 N 118.248 0.346503 1.53744 0
M  V30 1262 C 119.196 -0.52422 2.26616 0
M  V30 1263 C 120.19 -1.09948 1.28871 0
M  V30 1264 O 121.396 -1.04488 1.46568 0
M  V30 1265 H 117.771 -0.187743 0.728187 0
M  V30 1266 H 119.742 0.11239 2.98188 0
M  V30 1267 C 118.491 -1.66186 3.05414 0
M  V30 1268 H 117.814 -1.22848 3.80458 0
M  V30 1269 H 119.254 -2.24622 3.59612 0
M  V30 1270 C 117.713 -2.59302 2.1509 0
M  V30 1271 O 118.243 -3.61628 1.74895 0
M  V30 1272 N 116.449 -2.28055 1.8011 0
M  V30 1273 H 115.996 -1.44883 2.12994 0
M  V30 1274 H 115.954 -2.90615 1.19958 0
M  V30 1275 N 119.726 -1.57421 0.075193 0
M  V30 1276 C 120.636 -2.1642 -0.905511 0
M  V30 1277 C 121.652 -1.12828 -1.32461 0
M  V30 1278 O 122.828 -1.45109 -1.39661 0
M  V30 1279 C 119.893 -2.71693 -2.15369 0
M  V30 1280 C 118.954 -3.90171 -1.79068 0
M  V30 1281 C 118.187 -4.42798 -2.97936 0
M  V30 1282 O 118.41 -3.94416 -4.12058 0
M  V30 1283 O 117.344 -5.34085 -2.77555 0
M  V30 1284 H 121.17 -3.00588 -0.433626 0
M  V30 1285 H 118.755 -1.48664 -0.148067 0
M  V30 1286 H 120.637 -3.07104 -2.88557 0
M  V30 1287 H 119.312 -1.90582 -2.61649 0
M  V30 1288 H 118.219 -3.59606 -1.03122 0
M  V30 1289 H 119.552 -4.72584 -1.37569 0
M  V30 1290 N 121.204 0.198386 -1.56346 0
M  V30 1291 C 122.434 0.934215 -1.84271 0
M  V30 1292 C 122.842 1.77496 -0.655125 0
M  V30 1293 O 122.185 1.7961 0.385488 0
M  V30 1294 C 122.247 1.88278 -3.06254 0
M  V30 1295 C 121.911 1.22431 -4.40295 0
M  V30 1296 C 122.908 0.602839 -5.16393 0
M  V30 1297 C 120.593 1.22915 -4.87029 0
M  V30 1298 C 122.587 -0.0050083 -6.374 0
M  V30 1299 C 120.274 0.617465 -6.07973 0
M  V30 1300 C 121.272 0.00146341 -6.83 0
M  V30 1301 O 120.96 -0.600642 -8.01653 0
M  V30 1302 H 120.692 0.278245 -0.616081 0
M  V30 1303 H 123.246 0.211626 -2.04307 0
M  V30 1304 H 121.476 2.64498 -2.82095 0
M  V30 1305 H 123.165 2.48612 -3.20853 0
M  V30 1306 H 123.931 0.591265 -4.81382 0
M  V30 1307 H 119.81 1.69801 -4.28589 0
M  V30 1308 H 123.354 -0.48643 -6.95902 0
M  V30 1309 H 119.251 0.62653 -6.42452 0
M  V30 1310 H 120.019 -0.497225 -8.16988 0
M  V30 1311 N 122.682 1.50554 0.465978 0
M  V30 1312 C 123.929 1.61798 1.21768 0
M  V30 1313 C 124.257 0.320696 1.91838 0
M  V30 1314 O 123.512 -0.693724 1.82992 0
M  V30 1315 C 123.811 2.75152 2.28093 0
M  V30 1316 C 123.477 4.15454 1.75239 0
M  V30 1317 C 122.139 4.53628 1.60546 0
M  V30 1318 C 124.491 5.03121 1.36083 0
M  V30 1319 C 121.819 5.77204 1.05128 0
M  V30 1320 C 124.171 6.27249 0.821056 0
M  V30 1321 C 122.835 6.64221 0.660795 0
M  V30 1322 H 122.105 0.592063 0.445582 0
M  V30 1323 H 124.752 1.84503 0.512927 0
M  V30 1324 H 123.057 2.46556 3.04496 0
M  V30 1325 H 124.754 2.81055 2.86023 0
M  V30 1326 H 121.344 3.85341 1.87644 0
M  V30 1327 H 125.528 4.74257 1.46267 0
M  V30 1328 H 120.784 6.0452 0.91462 0
M  V30 1329 H 124.958 6.94537 0.509018 0
M  V30 1330 H 122.585 7.59854 0.229226 0
M  V30 1331 N 124.16 -0.719506 1.40217 0
M  V30 1332 C 125.407 -1.47933 1.38283 0
M  V30 1333 C 125.735 -1.94493 -0.0161536 0
M  V30 1334 O 124.99 -1.68224 -0.999956 0
M  V30 1335 C 125.289 -2.72271 2.31524 0
M  V30 1336 C 124.955 -2.44496 3.78857 0
M  V30 1337 C 123.617 -2.36631 4.18998 0
M  V30 1338 C 125.969 -2.21104 4.71977 0
M  V30 1339 C 123.297 -2.03437 5.503 0
M  V30 1340 C 125.649 -1.89423 6.03574 0
M  V30 1341 C 124.313 -1.80038 6.42762 0
M  V30 1342 H 123.583 -0.541325 0.506012 0
M  V30 1343 H 126.23 -0.824502 1.72842 0
M  V30 1344 H 124.535 -3.42572 1.90137 0
M  V30 1345 H 126.232 -3.30348 2.27313 0
M  V30 1346 H 122.822 -2.51503 3.47051 0
M  V30 1347 H 127.006 -2.26139 4.41786 0
M  V30 1348 H 122.262 -1.94705 5.79569 0
M  V30 1349 H 126.436 -1.70336 6.75247 0
M  V30 1350 H 124.063 -1.54083 7.44421 0
M  V30 1351 N 125.638 -1.25649 -0.95132 0
M  V30 1352 C 126.915 -1.01361 -1.67288 0
M  V30 1353 C 127.295 0.459135 -2.06046 0
M  V30 1354 O 126.643 1.43723 -1.7764 0
M  V30 1355 C 126.853 -1.95256 -2.89268 0
M  V30 1356 C 128.201 -2.23289 -3.61147 0
M  V30 1357 O 129.225 -1.93041 -2.99355 0
M  V30 1358 O 128.084 -2.74741 -4.72419 0
M  V30 1359 H 125.178 -0.38464 -0.732107 0
M  V30 1360 H 127.724 -1.36817 -1.00395 0
M  V30 1361 H 126.496 -2.94685 -2.57442 0
M  V30 1362 H 126.119 -1.60218 -3.6389 0
M  V30 1363 N 127.117 1.15442 -1.07289 0
M  V30 1364 C 128.533 1.38201 -0.798288 0
M  V30 1365 C 128.733 1.92429 0.597769 0
M  V30 1366 O 127.789 2.12962 1.3566 0
M  V30 1367 C 129.102 2.35357 -1.87156 0
M  V30 1368 C 130.65 2.49021 -1.89624 0
M  V30 1369 C 131.125 3.49468 -2.96034 0
M  V30 1370 N 132.616 3.57003 -2.95132 0
M  V30 1371 C 133.351 4.34543 -3.74112 0
M  V30 1372 N 132.847 5.15421 -4.6294 0
M  V30 1373 N 134.64 4.29625 -3.62462 0
M  V30 1374 H 126.791 0.78584 -1.97328 0
M  V30 1375 H 129.054 0.408065 -0.855679 0
M  V30 1376 H 128.76 2.02626 -2.87464 0
M  V30 1377 H 128.634 3.35129 -1.73114 0
M  V30 1378 H 131.021 2.81051 -0.899687 0
M  V30 1379 H 131.102 1.4925 -2.07745 0
M  V30 1380 H 130.746 3.18173 -3.95889 0
M  V30 1381 H 130.676 4.48992 -2.75161 0
M  V30 1382 H 133.167 2.99276 -2.30743 0
M  V30 1383 H 133.48 5.7183 -5.19837 0
M  V30 1384 H 131.825 5.14729 -4.66989 0
M  V30 1385 H 135.016 3.65505 -2.92444 0
M  V30 1386 H 135.189 4.89807 -4.24256 0
M  V30 1387 N 128.595 0.856903 1.32268 0
M  V30 1388 C 129.545 0.274899 2.26337 0
M  V30 1389 C 130.529 -0.580543 1.50062 0
M  V30 1390 O 131.721 -0.429559 1.71708 0
M  V30 1391 C 128.85 -0.533841 3.39124 0
M  V30 1392 C 127.936 0.334114 4.22782 0
M  V30 1393 N 128.327 1.42143 4.85416 0
M  V30 1394 C 126.625 0.124256 4.45827 0
M  V30 1395 C 127.326 1.95559 5.47843 0
M  V30 1396 N 126.302 1.25444 5.28928 0
M  V30 1397 H 130.104 1.10612 2.72291 0
M  V30 1398 H 127.618 0.703258 1.46383 0
M  V30 1399 H 129.615 -0.96722 4.05525 0
M  V30 1400 H 128.275 -1.36283 2.94715 0
M  V30 1401 H 129.286 1.80436 4.85451 0
M  V30 1402 H 125.963 -0.669837 4.12092 0
M  V30 1403 H 127.353 2.86714 6.07655 0
M  V30 1404 N 130.073 -1.45103 0.615059 0
M  V30 1405 C 131.484 -1.85654 0.197383 0
M  V30 1406 C 131.835 -1.51433 -1.24749 0
M  V30 1407 O 130.96 -0.944608 -1.94695 0
M  V30 1408 C 131.555 -3.36972 0.351448 0
M  V30 1409 C 130.114 -3.76398 -0.011593 0
M  V30 1410 C 129.261 -2.69024 0.672394 0
M  V30 1411 H 132.212 -1.35797 0.821263 0
M  V30 1412 H 132.233 -3.78239 -0.414227 0
M  V30 1413 H 131.745 -3.61847 1.40314 0
M  V30 1414 H 129.846 -3.5714 -1.06217 0
M  V30 1415 H 129.959 -4.77532 0.387265 0
M  V30 1416 H 128.323 -2.54465 0.109284 0
M  V30 1417 H 129.106 -2.96735 1.72636 0
M  V30 1418 N 131.551 -0.354651 -1.53558 0
M  V30 1419 C 132.799 0.237972 -2.00694 0
M  V30 1420 C 133.12 1.50173 -1.24391 0
M  V30 1421 O 132.39 1.92673 -0.354135 0
M  V30 1422 H 130.97 0.0909256 -0.741446 0
M  V30 1423 H 133.632 -0.478368 -1.88938 0
M  V30 1424 H 132.728 0.47264 -3.085 0
M  V30 1425 N 133.029 1.57378 -0.0835403 0
M  V30 1426 C 133.992 2.12252 0.864959 0
M  V30 1427 C 134.992 1.04916 1.21858 0
M  V30 1428 O 136.182 1.30853 1.14991 0
M  V30 1429 C 133.314 2.63358 2.16461 0
M  V30 1430 H 134.507 2.97371 0.388676 0
M  V30 1431 H 132.06 1.55423 0.165317 0
M  V30 1432 H 132.795 1.81727 2.686 0
M  V30 1433 H 132.58 3.41826 1.92087 0
M  V30 1434 H 134.07 3.05847 2.84337 0
M  V30 1435 N 134.507 -0.190092 1.56449 0
M  V30 1436 C 135.754 -0.909705 1.80916 0
M  V30 1437 C 136.082 -1.83047 0.657583 0
M  V30 1438 O 135.337 -1.92428 -0.356356 0
M  V30 1439 C 135.636 -1.75382 3.1141 0
M  V30 1440 C 135.302 -0.983606 4.40041 0
M  V30 1441 C 133.964 -0.770967 4.74984 0
M  V30 1442 C 136.316 -0.442024 5.19322 0
M  V30 1443 C 133.644 -0.0053448 5.867 0
M  V30 1444 C 135.996 0.310412 6.31838 0
M  V30 1445 C 134.66 0.534023 6.6536 0
M  V30 1446 H 133.93 -0.332885 0.662019 0
M  V30 1447 H 136.577 -0.175762 1.90692 0
M  V30 1448 H 134.882 -2.55659 2.96893 0
M  V30 1449 H 136.579 -2.31331 3.27547 0
M  V30 1450 H 133.169 -1.15936 4.12622 0
M  V30 1451 H 137.353 -0.593693 4.92736 0
M  V30 1452 H 132.609 0.177825 6.11141 0
M  V30 1453 H 136.783 0.737419 6.92485 0
M  V30 1454 H 134.41 1.12918 7.51767 0
M  V30 1455 N 135.985 -1.50799 -0.457987 0
M  V30 1456 C 137.213 -1.66218 -1.23203 0
M  V30 1457 C 137.628 -0.350894 -1.85511 0
M  V30 1458 O 136.985 0.668546 -1.69814 0
M  V30 1459 C 137.036 -2.76291 -2.33121 0
M  V30 1460 O 136.757 -4.02338 -1.73366 0
M  V30 1461 C 138.258 -3.028 -3.2377 0
M  V30 1462 H 135.478 -0.558361 -0.372121 0
M  V30 1463 H 138.022 -1.97099 -0.545179 0
M  V30 1464 H 136.177 -2.48068 -2.97558 0
M  V30 1465 H 136.591 -4.63312 -2.4585 0
M  V30 1466 H 138.065 -3.8345 -3.97077 0
M  V30 1467 H 138.542 -2.14385 -3.83322 0
M  V30 1468 H 139.148 -3.32604 -2.65056 0
M  V30 1469 N 137.463 0.71206 -1.40597 0
M  V30 1470 C 138.688 1.50617 -1.42581 0
M  V30 1471 C 139.113 1.88079 -0.0282102 0
M  V30 1472 O 138.471 1.53511 0.964579 0
M  V30 1473 C 138.519 2.7557 -2.3258 0
M  V30 1474 O 137.623 3.72414 -1.77148 0
M  V30 1475 H 136.964 0.453966 -0.484573 0
M  V30 1476 H 139.494 0.876649 -1.84868 0
M  V30 1477 H 139.504 3.2406 -2.47889 0
M  V30 1478 H 138.179 2.47639 -3.34138 0
M  V30 1479 H 136.756 3.31276 -1.71204 0
M  V30 1480 N 138.941 1.26152 0.944643 0
M  V30 1481 C 140.19 1.10883 1.68487 0
M  V30 1482 C 140.503 -0.348153 1.92477 0
M  V30 1483 O 141.709 -0.621459 2.64292 0
M  V30 1484 C 140.165 1.93624 3.03377 0
M  V30 1485 C 139.773 3.43875 2.87148 0
M  V30 1486 C 141.517 1.86954 3.81115 0
M  V30 1487 C 139.424 4.18875 4.1749 0
M  V30 1488 H 138.354 0.41135 0.631907 0
M  V30 1489 H 141.005 1.50433 1.05082 0
M  V30 1490 H 139.387 1.46904 3.67743 0
M  V30 1491 H 140.561 3.98338 2.31653 0
M  V30 1492 H 138.876 3.51744 2.22856 0
M  V30 1493 H 141.473 2.40275 4.77673 0
M  V30 1494 H 141.816 0.839518 4.07747 0
M  V30 1495 H 142.349 2.31477 3.23517 0
M  V30 1496 H 139.088 5.22332 3.96043 0
M  V30 1497 H 138.608 3.69193 4.72712 0
M  V30 1498 H 140.287 4.27134 4.85968 0
M  V30 1499 N 140.419 -1.14872 1.07899 0
M  V30 1500 C 141.349 -2.2193 0.725887 0
M  V30 1501 C 142.33 -1.67622 -0.28927 0
M  V30 1502 O 143.515 -1.93533 -0.160787 0
M  V30 1503 C 140.645 -3.47061 0.128856 0
M  V30 1504 C 139.599 -4.14363 1.07178 0
M  V30 1505 C 138.925 -5.33636 0.337229 0
M  V30 1506 C 140.225 -4.63492 2.40775 0
M  V30 1507 H 141.919 -2.51724 1.62097 0
M  V30 1508 H 139.465 -1.20991 0.780838 0
M  V30 1509 H 141.418 -4.21199 -0.130147 0
M  V30 1510 H 140.142 -3.16617 -0.80134 0
M  V30 1511 H 138.801 -3.42173 1.3158 0
M  V30 1512 H 138.449 -4.99449 -0.596606 0
M  V30 1513 H 138.149 -5.79609 0.965788 0
M  V30 1514 H 139.673 -6.10539 0.0861567 0
M  V30 1515 H 141.087 -5.2913 2.20669 0
M  V30 1516 H 139.484 -5.20148 2.99276 0
M  V30 1517 H 140.554 -3.78834 3.02676 0
M  V30 1518 N 141.898 -0.863906 -1.31812 0
M  V30 1519 C 142.846 -0.30422 -2.30602 0
M  V30 1520 C 143.84 0.577419 -1.59255 0
M  V30 1521 O 145.046 0.464194 -1.73912 0
M  V30 1522 H 141.421 -0.0796877 -0.747766 0
M  V30 1523 H 143.392 -1.15148 -2.75288 0
M  V30 1524 C 142.141 0.484617 -3.44306 0
M  V30 1525 H 141.464 -0.18451 -3.99374 0
M  V30 1526 H 142.904 0.841664 -4.15562 0
M  V30 1527 C 141.363 1.6735 -2.92396 0
M  V30 1528 O 141.893 2.77273 -2.90659 0
M  V30 1529 N 140.099 1.50362 -2.48676 0
M  V30 1530 H 139.646 0.609402 -2.50288 0
M  V30 1531 H 139.604 2.30051 -2.14299 0
M  V30 1532 N 143.376 1.44774 -0.622745 0
M  V30 1533 C 144.623 2.02121 -0.1239 0
M  V30 1534 C 144.951 1.48915 1.25118 0
M  V30 1535 O 144.206 0.660045 1.84233 0
M  V30 1536 C 144.505 3.57364 -0.0508323 0
M  V30 1537 C 144.171 4.29787 -1.36358 0
M  V30 1538 C 142.833 4.4929 -1.72314 0
M  V30 1539 C 145.185 4.71062 -2.23048 0
M  V30 1540 C 142.513 5.07325 -2.94682 0
M  V30 1541 C 144.865 5.30452 -3.44679 0
M  V30 1542 C 143.529 5.48175 -3.80868 0
M  V30 1543 H 142.799 0.739612 -0.0453381 0
M  V30 1544 H 145.446 1.73648 -0.807389 0
M  V30 1545 H 143.751 3.85202 0.715991 0
M  V30 1546 H 145.448 3.99456 0.351533 0
M  V30 1547 H 142.038 4.14932 -1.07375 0
M  V30 1548 H 146.222 4.55715 -1.96565 0
M  V30 1549 H 141.478 5.19235 -3.22809 0
M  V30 1550 H 145.652 5.61385 -4.12092 0
M  V30 1551 H 143.279 5.92912 -4.75773 0
M  V30 1552 N 144.854 0.36279 1.53368 0
M  V30 1553 C 146.084 -0.228281 2.05335 0
M  V30 1554 C 146.492 -1.43226 1.23625 0
M  V30 1555 O 145.835 -1.81717 0.269206 0
M  V30 1556 C 145.897 -0.688549 3.52845 0
M  V30 1557 C 145.561 0.398362 4.5526 0
M  V30 1558 C 146.558 1.24732 5.04716 0
M  V30 1559 C 144.243 0.557805 4.99193 0
M  V30 1560 C 146.237 2.2411 5.96702 0
M  V30 1561 C 143.924 1.55495 5.90986 0
M  V30 1562 C 144.922 2.39503 6.39631 0
M  V30 1563 O 144.61 3.37517 7.29615 0
M  V30 1564 H 144.342 -0.044395 0.674541 0
M  V30 1565 H 146.896 0.518668 1.98744 0
M  V30 1566 H 145.126 -1.48706 3.56964 0
M  V30 1567 H 146.815 -1.20231 3.87685 0
M  V30 1568 H 147.581 1.13532 4.71525 0
M  V30 1569 H 143.46 -0.0862959 4.60919 0
M  V30 1570 H 147.004 2.89718 6.34594 0
M  V30 1571 H 142.901 1.66744 6.23592 0
M  V30 1572 H 143.669 3.33213 7.47604 0
M  V30 1573 N 146.332 -1.57332 0.0918853 0
M  V30 1574 C 147.748 -1.57389 -0.264766 0
M  V30 1575 C 147.948 -1.10281 -1.68643 0
M  V30 1576 O 147.004 -0.777801 -2.40222 0
M  V30 1577 C 148.317 -3.00648 -0.0561195 0
M  V30 1578 C 149.865 -3.12754 -0.124116 0
M  V30 1579 C 150.34 -4.57965 0.0564972 0
M  V30 1580 N 151.831 -4.632 0.00155611 0
M  V30 1581 C 152.566 -5.73281 0.116598 0
M  V30 1582 N 152.062 -6.92208 0.286294 0
M  V30 1583 N 153.855 -5.6207 0.0580973 0
M  V30 1584 H 146.006 -1.86262 1.02079 0
M  V30 1585 H 148.269 -0.859579 0.399786 0
M  V30 1586 H 147.975 -3.393 0.925669 0
M  V30 1587 H 147.849 -3.68623 -0.799823 0
M  V30 1588 H 150.236 -2.73976 -1.09641 0
M  V30 1589 H 150.317 -2.47377 0.651024 0
M  V30 1590 H 149.961 -4.97436 1.02564 0
M  V30 1591 H 149.891 -5.21399 -0.738297 0
M  V30 1592 H 152.382 -3.77686 -0.127192 0
M  V30 1593 H 152.695 -7.71934 0.365676 0
M  V30 1594 H 151.04 -6.94254 0.32192 0
M  V30 1595 H 154.231 -4.68043 -0.0733204 0
M  V30 1596 H 154.404 -6.47824 0.151203 0
M  V30 1597 N 147.81 0.181792 -1.56548 0
M  V30 1598 C 149.038 0.915947 -1.85521 0
M  V30 1599 C 149.453 1.76282 -0.676016 0
M  V30 1600 O 148.81 1.79012 0.355077 0
M  V30 1601 C 148.861 1.80126 -3.13427 0
M  V30 1602 O 148.582 0.988562 -4.26801 0
M  V30 1603 C 150.083 2.64597 -3.55673 0
M  V30 1604 H 147.303 0.26661 -0.61576 0
M  V30 1605 H 149.847 0.185039 -2.03661 0
M  V30 1606 H 148.002 2.48563 -2.97145 0
M  V30 1607 H 148.416 1.59308 -4.99721 0
M  V30 1608 H 149.89 3.2235 -4.48101 0
M  V30 1609 H 150.367 3.38958 -2.79292 0
M  V30 1610 H 150.973 2.0151 -3.74532 0
M  V30 1611 N 149.288 1.51039 0.449983 0
M  V30 1612 C 150.536 1.62759 1.19808 0
M  V30 1613 C 150.857 0.339981 1.92013 0
M  V30 1614 O 150.127 -0.643606 1.85026 0
M  V30 1615 H 148.707 0.599811 0.445237 0
M  V30 1616 H 151.369 1.87914 0.517138 0
M  V30 1617 H 150.465 2.44911 1.93455 0
M  V30 1618 N 150.766 -0.704594 1.40972 0
M  V30 1619 C 152.182 -1.01406 1.23244 0
M  V30 1620 C 152.382 -2.01169 0.115399 0
M  V30 1621 O 151.438 -2.47021 -0.523147 0
M  V30 1622 C 152.751 -1.54728 2.57836 0
M  V30 1623 C 154.299 -1.66658 2.64942 0
M  V30 1624 C 154.774 -2.23383 3.9983 0
M  V30 1625 N 156.265 -2.30756 4.01629 0
M  V30 1626 C 157 -2.75655 5.02794 0
M  V30 1627 N 156.496 -3.20225 6.14352 0
M  V30 1628 N 158.289 -2.75138 4.90159 0
M  V30 1629 H 150.44 -0.0435285 2.12355 0
M  V30 1630 H 152.703 -0.0818951 0.944456 0
M  V30 1631 H 152.409 -0.888832 3.40283 0
M  V30 1632 H 152.283 -2.53084 2.79693 0
M  V30 1633 H 154.67 -2.31617 1.8286 0
M  V30 1634 H 154.751 -0.668717 2.46904 0
M  V30 1635 H 154.395 -1.59043 4.82357 0
M  V30 1636 H 154.325 -3.23904 4.15203 0
M  V30 1637 H 156.816 -1.99291 3.21079 0
M  V30 1638 H 157.129 -3.53084 6.87424 0
M  V30 1639 H 155.474 -3.18156 6.17901 0
M  V30 1640 H 158.665 -2.39661 4.02095 0
M  V30 1641 H 158.838 -3.09812 5.6914 0
M  V30 1642 N 152.244 -1.26651 -0.937939 0
M  V30 1643 C 153.174 -1.10993 -2.05433 0
M  V30 1644 C 154.155 -0.0142161 -1.70094 0
M  V30 1645 O 155.34 -0.186837 -1.93299 0
M  V30 1646 C 152.47 -0.745561 -3.39203 0
M  V30 1647 C 151.424 -1.79337 -3.88616 0
M  V30 1648 C 150.75 -1.28324 -5.19073 0
M  V30 1649 C 152.05 -3.19553 -4.13138 0
M  V30 1650 H 153.744 -2.0438 -2.1879 0
M  V30 1651 H 151.29 -0.984041 -1.05131 0
M  V30 1652 H 153.243 -0.622888 -4.16771 0
M  V30 1653 H 151.967 0.22401 -3.25831 0
M  V30 1654 H 150.626 -1.90477 -3.13231 0
M  V30 1655 H 150.274 -0.303414 -5.02084 0
M  V30 1656 H 149.974 -1.98369 -5.53103 0
M  V30 1657 H 151.498 -1.1733 -5.99221 0
M  V30 1658 H 152.912 -3.11471 -4.81309 0
M  V30 1659 H 151.309 -3.87218 -4.58457 0
M  V30 1660 H 152.379 -3.65368 -3.18801 0
M  V30 1661 N 153.722 1.14298 -1.08507 0
M  V30 1662 C 154.672 2.17449 -0.685569 0
M  V30 1663 C 155.656 1.58167 0.295315 0
M  V30 1664 O 156.848 1.76675 0.107172 0
M  V30 1665 C 153.977 3.43161 -0.0975318 0
M  V30 1666 C 153.063 4.09471 -1.10426 0
M  V30 1667 N 153.454 4.51089 -2.28806 0
M  V30 1668 C 151.752 4.35976 -0.940258 0
M  V30 1669 C 152.453 5.02654 -2.9277 0
M  V30 1670 N 151.429 4.96927 -2.20374 0
M  V30 1671 H 155.231 2.47369 -1.587 0
M  V30 1672 H 152.745 1.30992 -0.959936 0
M  V30 1673 H 154.742 4.16388 0.20664 0
M  V30 1674 H 153.402 3.14719 0.798872 0
M  V30 1675 H 154.413 4.44097 -2.66455 0
M  V30 1676 H 151.09 4.17386 -0.0977441 0
M  V30 1677 H 152.48 5.44723 -3.93352 0
M  V30 1678 N 155.201 0.870884 1.31352 0
M  V30 1679 C 156.134 0.271983 2.26573 0
M  V30 1680 C 157.112 -0.599385 1.51149 0
M  V30 1681 O 158.296 -0.552605 1.80218 0
M  V30 1682 C 155.423 -0.614801 3.33073 0
M  V30 1683 C 154.469 0.185342 4.26097 0
M  V30 1684 S 155.302 1.56444 5.12138 0
M  V30 1685 C 156.458 0.683807 6.22153 0
M  V30 1686 H 156.691 1.07916 2.77023 0
M  V30 1687 H 154.224 0.669459 1.39132 0
M  V30 1688 H 156.182 -1.12074 3.94905 0
M  V30 1689 H 154.843 -1.39593 2.81376 0
M  V30 1690 H 154.036 -0.490771 5.01605 0
M  V30 1691 H 153.638 0.623415 3.68768 0
M  V30 1692 H 155.93 -0.10521 6.77418 0
M  V30 1693 H 156.873 1.41004 6.93919 0
M  V30 1694 H 157.281 0.250952 5.63942 0
M  V30 1695 N 156.679 -1.44442 0.630414 0
M  V30 1696 C 157.612 -2.27862 -0.124247 0
M  V30 1697 C 158.59 -1.38495 -0.851931 0
M  V30 1698 O 159.774 -1.67935 -0.856166 0
M  V30 1699 C 156.901 -3.17407 -1.18197 0
M  V30 1700 C 155.947 -4.22875 -0.554892 0
M  V30 1701 S 156.78 -5.31485 0.654489 0
M  V30 1702 C 157.936 -6.246 -0.40326 0
M  V30 1703 H 158.169 -2.91519 0.583435 0
M  V30 1704 H 155.702 -1.48618 0.418565 0
M  V30 1705 H 157.66 -3.69549 -1.78728 0
M  V30 1706 H 156.321 -2.52971 -1.86184 0
M  V30 1707 H 155.514 -4.85542 -1.35148 0
M  V30 1708 H 155.116 -3.73992 -0.0242105 0
M  V30 1709 H 157.408 -6.65375 -1.27602 0
M  V30 1710 H 158.351 -7.07851 0.187813 0
M  V30 1711 H 158.759 -5.59775 -0.728837 0
M  V30 1712 N 158.157 -0.370918 -1.53173 0
M  V30 1713 C 159.067 0.480823 -2.2962 0
M  V30 1714 C 160.083 1.08789 -1.35798 0
M  V30 1715 O 161.259 1.09768 -1.68858 0
M  V30 1716 C 158.324 1.60227 -3.07454 0
M  V30 1717 C 157.385 1.0222 -4.16953 0
M  V30 1718 C 156.618 2.0902 -4.91066 0
M  V30 1719 O 156.841 3.30222 -4.65091 0
M  V30 1720 O 155.775 1.71778 -5.76867 0
M  V30 1721 H 159.601 -0.141421 -3.03371 0
M  V30 1722 H 157.186 -0.135146 -1.48787 0
M  V30 1723 H 159.068 2.25417 -3.56041 0
M  V30 1724 H 157.743 2.20982 -2.36535 0
M  V30 1725 H 156.65 0.334064 -3.72605 0
M  V30 1726 H 157.983 0.459131 -4.90054 0
M  V30 1727 N 159.635 1.57281 -0.100228 0
M  V30 1728 C 160.545 2.17833 0.870965 0
M  V30 1729 C 161.561 1.14921 1.30649 0
M  V30 1730 O 162.737 1.47313 1.37335 0
M  V30 1731 C 159.802 2.75085 2.1102 0
M  V30 1732 C 158.863 3.9297 1.72838 0
M  V30 1733 C 158.096 4.47482 2.90854 0
M  V30 1734 O 158.319 4.00922 4.05731 0
M  V30 1735 O 157.253 5.38433 2.69023 0
M  V30 1736 H 161.079 3.0124 0.38575 0
M  V30 1737 H 158.664 1.48881 0.124397 0
M  V30 1738 H 160.546 3.11656 2.83634 0
M  V30 1739 H 159.221 1.94721 2.58584 0
M  V30 1740 H 158.128 3.61201 0.973883 0
M  V30 1741 H 159.461 4.74713 1.30033 0
M  V30 1742 N 161.113 -0.173488 1.56642 0
M  V30 1743 C 162.046 -1.24353 1.91342 0
M  V30 1744 C 163.024 -1.4289 0.775965 0
M  V30 1745 O 164.208 -1.57932 1.02907 0
M  V30 1746 C 161.335 -2.60683 2.16245 0
M  V30 1747 C 160.381 -2.58894 3.38934 0
M  V30 1748 S 161.214 -2.0819 4.93373 0
M  V30 1749 C 162.37 -3.46302 5.21369 0
M  V30 1750 H 162.603 -0.947345 2.81803 0
M  V30 1751 H 160.136 -0.377958 1.49703 0
M  V30 1752 H 162.094 -3.39149 2.31275 0
M  V30 1753 H 160.755 -2.87502 1.26496 0
M  V30 1754 H 159.948 -3.59188 3.53553 0
M  V30 1755 H 159.55 -1.88522 3.2301 0
M  V30 1756 H 161.842 -4.42287 5.13214 0
M  V30 1757 H 162.785 -3.3656 6.23003 0
M  V30 1758 H 163.193 -3.42214 4.48943 0
M  V30 1759 N 162.591 -1.51276 -0.441967 0
M  V30 1760 C 163.831 -1.65372 -1.20132 0
M  V30 1761 C 164.195 -0.359871 -1.88597 0
M  V30 1762 O 165.396 -0.376551 -2.66149 0
M  V30 1763 C 163.667 -2.8207 -2.1948 0
M  V30 1764 S 165.226 -3.16467 -3.03964 0
M  V30 1765 H 162.044 -0.582669 -0.407453 0
M  V30 1766 H 164.646 -1.89166 -0.493609 0
M  V30 1767 H 163.35 -3.74523 -1.67812 0
M  V30 1768 H 162.881 -2.6045 -2.94838 0
M  V30 1769 H 164.896 -2.62543 -4.21053 0
M  V30 1770 N 164.069 0.697108 -1.41344 0
M  V30 1771 C 165.032 1.79281 -1.42797 0
M  V30 1772 C 166.032 1.57607 -0.318837 0
M  V30 1773 O 167.222 1.64309 -0.578642 0
M  V30 1774 C 164.354 3.17632 -1.23785 0
M  V30 1775 H 165.547 1.79385 -2.40335 0
M  V30 1776 H 163.1 0.904582 -1.27464 0
M  V30 1777 H 163.835 3.23167 -0.270814 0
M  V30 1778 H 163.62 3.34765 -2.04144 0
M  V30 1779 H 165.11 3.97617 -1.27633 0
M  V30 1780 N 165.547 1.27147 0.931209 0
M  V30 1781 C 166.477 1.12081 2.04842 0
M  V30 1782 C 167.458 0.0232364 1.70084 0
M  V30 1783 O 168.643 0.197085 1.93197 0
M  V30 1784 C 165.773 0.76354 3.38803 0
M  V30 1785 C 164.727 1.81396 3.87659 0
M  V30 1786 C 164.053 1.31075 5.18385 0
M  V30 1787 C 165.353 3.21739 4.11438 0
M  V30 1788 H 167.047 2.05537 2.17703 0
M  V30 1789 H 164.593 0.989603 1.04608 0
M  V30 1790 H 166.546 0.644982 4.16435 0
M  V30 1791 H 165.27 -0.206727 3.25945 0
M  V30 1792 H 163.929 1.92136 3.12217 0
M  V30 1793 H 163.577 0.330037 5.01916 0
M  V30 1794 H 163.277 2.013 5.52044 0
M  V30 1795 H 164.801 1.20506 5.98591 0
M  V30 1796 H 166.215 3.14019 4.79651 0
M  V30 1797 H 164.612 3.89644 4.56397 0
M  V30 1798 H 165.682 3.67054 3.16859 0
M  V30 1799 N 167.025 -1.13721 1.09112 0
M  V30 1800 C 168.25 -1.89314 0.847053 0
M  V30 1801 C 168.675 -1.78416 -0.595774 0
M  V30 1802 O 168.033 -1.12942 -1.41823 0
M  V30 1803 C 168.081 -3.3701 1.28284 0
M  V30 1804 O 167.185 -4.10054 0.439267 0
M  V30 1805 H 166.526 -0.588745 0.307044 0
M  V30 1806 H 169.056 -1.43902 1.45442 0
M  V30 1807 H 169.066 -3.87834 1.26683 0
M  V30 1808 H 167.741 -3.4426 2.33363 0
M  V30 1809 H 166.318 -3.69266 0.519312 0
M  V30 1810 N 168.503 -0.877838 -1.30888 0
M  V30 1811 C 169.75 -0.492696 -1.96415 0
M  V30 1812 C 170.078 0.956671 -1.69346 0
M  V30 1813 O 169.333 1.68993 -0.986913 0
M  V30 1814 C 169.632 -0.705748 -3.50363 0
M  V30 1815 C 169.298 -2.1291 -3.97467 0
M  V30 1816 C 167.96 -2.51834 -4.1004 0
M  V30 1817 C 170.312 -3.05702 -4.22132 0
M  V30 1818 C 167.64 -3.82775 -4.44635 0
M  V30 1819 C 169.992 -4.36166 -4.58194 0
M  V30 1820 C 168.656 -4.74993 -4.68975 0
M  V30 1821 H 167.926 -0.18029 -0.718733 0
M  V30 1822 H 170.573 -1.11233 -1.55883 0
M  V30 1823 H 168.878 -0.00303058 -3.918 0
M  V30 1824 H 170.575 -0.387456 -3.99124 0
M  V30 1825 H 167.165 -1.81694 -3.88182 0
M  V30 1826 H 171.349 -2.76853 -4.11906 0
M  V30 1827 H 166.605 -4.12609 -4.51181 0
M  V30 1828 H 170.779 -5.08111 -4.76231 0
M  V30 1829 H 168.406 -5.76495 -4.95537 0
M  V30 1830 N 169.982 1.44106 -0.638065 0
M  V30 1831 C 171.207 2.0685 -0.150916 0
M  V30 1832 C 171.632 1.47417 1.16833 0
M  V30 1833 O 170.99 0.578264 1.71831 0
M  V30 1834 C 171.038 3.60555 -0.05708 0
M  V30 1835 O 170.142 4.00465 0.984972 0
M  V30 1836 H 169.483 0.658151 -0.0879399 0
M  V30 1837 H 172.013 1.84865 -0.876707 0
M  V30 1838 H 172.023 4.07789 0.131232 0
M  V30 1839 H 170.698 4.03193 -1.02021 0
M  V30 1840 H 169.275 3.64849 0.770672 0
M  V30 1841 N 171.46 0.379036 1.52974 0
M  V30 1842 C 172.392 -0.495963 2.2377 0
M  V30 1843 C 173.405 -1.03517 1.25651 0
M  V30 1844 O 174.594 -0.939249 1.51791 0
M  V30 1845 C 171.694 -1.69894 2.93239 0
M  V30 1846 C 170.867 -1.2889 4.17979 0
M  V30 1847 C 169.926 -2.35543 4.70538 0
M  V30 1848 O 168.952 -1.97375 5.33883 0
M  V30 1849 N 170.154 -3.67318 4.49508 0
M  V30 1850 H 172.919 0.110523 2.99496 0
M  V30 1851 H 170.48 0.204878 1.60598 0
M  V30 1852 H 172.472 -2.40747 3.25304 0
M  V30 1853 H 171.042 -2.212 2.20883 0
M  V30 1854 H 170.262 -0.409676 3.92065 0
M  V30 1855 H 171.55 -0.991443 4.99047 0
M  V30 1856 H 170.948 -4.01095 3.98923 0
M  V30 1857 H 169.505 -4.34235 4.8609 0
M  V30 1858 N 172.938 -1.57226 0.108567 0
M  V30 1859 C 173.848 -2.18292 -0.859401 0
M  V30 1860 C 174.864 -1.15612 -1.30038 0
M  V30 1861 O 176.04 -1.48039 -1.36552 0
M  V30 1862 C 173.105 -2.762 -2.09558 0
M  V30 1863 C 172.166 -3.93881 -1.70752 0
M  V30 1864 C 171.399 -4.49018 -2.88477 0
M  V30 1865 O 171.622 -4.03068 -4.036 0
M  V30 1866 O 170.556 -5.39852 -2.66164 0
M  V30 1867 H 174.382 -3.01441 -0.369769 0
M  V30 1868 H 171.967 -1.48945 -0.1165 0
M  V30 1869 H 173.849 -3.13156 -2.81978 0
M  V30 1870 H 172.524 -1.96089 -2.57548 0
M  V30 1871 H 171.431 -3.61713 -0.954714 0
M  V30 1872 H 172.764 -4.75396 -1.27513 0
M  V30 1873 N 174.416 0.165178 -1.56732 0
M  V30 1874 C 175.346 1.20651 -1.99914 0
M  V30 1875 C 176.327 1.45827 -0.875705 0
M  V30 1876 O 177.512 1.57057 -1.14223 0
M  V30 1877 C 174.642 2.54401 -2.36427 0
M  V30 1878 C 173.596 2.43782 -3.51787 0
M  V30 1879 C 172.922 3.82078 -3.7406 0
M  V30 1880 C 174.222 1.93732 -4.85041 0
M  V30 1881 H 175.916 0.847534 -2.87154 0
M  V30 1882 H 173.462 0.40625 -1.38151 0
M  V30 1883 H 175.415 3.27458 -2.65234 0
M  V30 1884 H 174.139 2.92098 -1.46103 0
M  V30 1885 H 172.798 1.73178 -3.23117 0
M  V30 1886 H 172.446 4.17179 -2.81017 0
M  V30 1887 H 172.146 3.7584 -4.51684 0
M  V30 1888 H 173.67 4.56712 -4.05274 0
M  V30 1889 H 175.084 2.56569 -5.12684 0
M  V30 1890 H 173.481 1.98428 -5.66345 0
M  V30 1891 H 174.551 0.891962 -4.76626 0
M  V30 1892 N 175.894 1.51508 0.433938 0
M  V30 1893 C 177.171 1.54888 1.19453 0
M  V30 1894 C 177.551 0.315154 2.08734 0
M  V30 1895 O 176.899 -0.699558 2.17528 0
M  V30 1896 C 177.109 2.86467 1.99342 0
M  V30 1897 C 178.457 3.38545 2.56267 0
M  V30 1898 O 179.481 2.88041 2.0955 0
M  V30 1899 O 178.34 4.26675 3.41483 0
M  V30 1900 H 175.434 0.622863 0.544032 0
M  V30 1901 H 177.98 1.63823 0.442732 0
M  V30 1902 H 176.752 3.67718 1.33788 0
M  V30 1903 H 176.375 2.8071 2.8158 0
M  V30 1904 N 177.372 -0.689602 1.41712 0
M  V30 1905 C 178.602 -1.47613 1.44548 0
M  V30 1906 C 179.01 -1.89132 0.0509034 0
M  V30 1907 O 178.353 -1.57741 -0.94146 0
M  V30 1908 C 178.415 -2.76596 2.2964 0
M  V30 1909 C 178.079 -2.57245 3.77722 0
M  V30 1910 C 179.076 -2.22804 4.69739 0
M  V30 1911 C 176.761 -2.727 4.2183 0
M  V30 1912 C 178.755 -2.04064 6.03851 0
M  V30 1913 C 176.442 -2.53576 5.56006 0
M  V30 1914 C 177.44 -2.1931 6.46832 0
M  V30 1915 O 177.128 -2.00359 7.78532 0
M  V30 1916 H 176.86 -0.461227 0.494212 0
M  V30 1917 H 179.414 -0.856045 1.86711 0
M  V30 1918 H 177.644 -3.41033 1.82301 0
M  V30 1919 H 179.333 -3.38424 2.24107 0
M  V30 1920 H 180.099 -2.10473 4.36951 0
M  V30 1921 H 175.978 -2.98353 3.51435 0
M  V30 1922 H 179.522 -1.77241 6.74708 0
M  V30 1923 H 175.419 -2.65499 5.88371 0
M  V30 1924 H 176.187 -2.15075 7.89737 0
M  V30 1925 N 178.85 -1.27639 -0.924453 0
M  V30 1926 C 180.096 -1.15345 -1.67532 0
M  V30 1927 C 180.451 0.297096 -1.90092 0
M  V30 1928 O 179.744 1.21374 -1.48253 0
M  V30 1929 C 179.938 -1.87407 -3.04325 0
M  V30 1930 C 179.767 -3.3932 -2.95114 0
M  V30 1931 C 178.537 -4.08644 -2.97218 0
M  V30 1932 C 180.735 -4.35242 -2.73987 0
M  V30 1933 N 178.717 -5.47102 -2.78482 0
M  V30 1934 C 180.088 -5.6099 -2.63988 0
M  V30 1935 C 182.143 -4.25294 -2.589 0
M  V30 1936 C 180.846 -6.77924 -2.40442 0
M  V30 1937 C 182.872 -5.41952 -2.36731 0
M  V30 1938 C 182.234 -6.66658 -2.27478 0
M  V30 1939 H 178.333 -0.47696 -0.619704 0
M  V30 1940 H 180.917 -1.6115 -1.09265 0
M  V30 1941 H 179.088 -1.44053 -3.60699 0
M  V30 1942 H 180.82 -1.6759 -3.68369 0
M  V30 1943 H 177.575 -3.60136 -3.07569 0
M  V30 1944 H 177.999 -6.19852 -2.72236 0
M  V30 1945 H 182.641 -3.29598 -2.64811 0
M  V30 1946 H 180.359 -7.73699 -2.3327 0
M  V30 1947 H 183.945 -5.36137 -2.25938 0
M  V30 1948 H 182.825 -7.55405 -2.10555 0
M  V30 1949 N 180.328 1.1314 -1.09713 0
M  V30 1950 C 181.576 1.84119 -0.833338 0
M  V30 1951 C 181.897 1.84097 0.642904 0
M  V30 1952 O 181.167 1.29881 1.46655 0
M  V30 1953 H 179.747 0.681766 -0.305293 0
M  V30 1954 H 182.409 1.37038 -1.38588 0
M  V30 1955 H 181.505 2.88543 -1.18951 0
M  V30 1956 N 181.806 0.884767 1.30421 0
M  V30 1957 C 183.055 0.499164 1.95426 0
M  V30 1958 C 183.368 -0.95645 1.70621 0
M  V30 1959 O 184.574 -1.44889 2.29607 0
M  V30 1960 C 183.03 0.84177 3.49917 0
M  V30 1961 C 182.638 2.31514 3.83543 0
M  V30 1962 C 184.382 0.525355 4.21237 0
M  V30 1963 C 182.289 2.59939 5.31212 0
M  V30 1964 H 181.219 0.182944 0.73147 0
M  V30 1965 H 183.87 1.07971 1.48373 0
M  V30 1966 H 182.252 0.190311 3.95542 0
M  V30 1967 H 183.426 3.0109 3.48829 0
M  V30 1968 H 181.741 2.59907 3.25326 0
M  V30 1969 H 184.338 0.714762 5.29901 0
M  V30 1970 H 184.681 -0.535222 4.12845 0
M  V30 1971 H 185.214 1.134 3.81294 0
M  V30 1972 H 181.953 3.64736 5.44654 0
M  V30 1973 H 181.473 1.94972 5.67227 0
M  V30 1974 H 183.152 2.45429 5.98643 0
M  V30 1975 N 183.284 -1.43765 0.645699 0
M  V30 1976 C 184.561 -1.9541 0.0862963 0
M  V30 1977 C 184.941 -1.58725 -1.39175 0
M  V30 1978 O 184.289 -0.868581 -2.11348 0
M  V30 1979 C 184.499 -3.47488 0.324565 0
M  V30 1980 C 185.847 -4.24001 0.225497 0
M  V30 1981 O 186.871 -3.55274 0.256715 0
M  V30 1982 O 185.73 -5.46313 0.142801 0
M  V30 1983 H 182.824 -0.826882 -0.0139483 0
M  V30 1984 H 185.37 -1.53743 0.718415 0
M  V30 1985 H 184.142 -3.67289 1.3496 0
M  V30 1986 H 183.765 -3.96135 -0.340987 0
M  V30 1987 N 184.763 -0.387143 -1.52771 0
M  V30 1988 C 185.673 0.456442 -2.30117 0
M  V30 1989 C 186.689 1.07342 -1.36944 0
M  V30 1990 O 187.865 1.07971 -1.70013 0
M  V30 1991 C 184.93 1.56957 -3.09136 0
M  V30 1992 C 183.991 0.977916 -4.18014 0
M  V30 1993 C 183.224 2.038 -4.93256 0
M  V30 1994 O 183.447 3.25271 -4.68567 0
M  V30 1995 O 182.381 1.6565 -5.78657 0
M  V30 1996 H 186.207 -0.17359 -3.03203 0
M  V30 1997 H 183.792 -0.150919 -1.48636 0
M  V30 1998 H 185.674 2.21628 -3.58412 0
M  V30 1999 H 184.349 2.18461 -2.38865 0
M  V30 2000 H 183.256 0.294525 -3.72939 0
M  V30 2001 H 184.589 0.407128 -4.90513 0
M  V30 2002 N 186.241 1.57166 -0.116904 0
M  V30 2003 C 187.49 1.94298 0.541407 0
M  V30 2004 C 187.803 1.00236 1.67964 0
M  V30 2005 O 189.009 1.26826 2.40057 0
M  V30 2006 C 187.465 3.45306 1.01449 0
M  V30 2007 C 187.073 4.47899 -0.0951738 0
M  V30 2008 C 188.817 3.91361 1.6443 0
M  V30 2009 C 186.724 5.90083 0.394491 0
M  V30 2010 H 185.654 0.725308 0.206019 0
M  V30 2011 H 188.305 1.82446 -0.196419 0
M  V30 2012 H 186.687 3.52385 1.80667 0
M  V30 2013 H 187.861 4.52486 -0.871374 0
M  V30 2014 H 186.176 4.11583 -0.631505 0
M  V30 2015 H 188.773 4.95004 2.02176 0
M  V30 2016 H 189.116 3.3122 2.52189 0
M  V30 2017 H 189.649 3.87073 0.917559 0
M  V30 2018 H 186.388 6.53974 -0.447004 0
M  V30 2019 H 185.908 5.88921 1.13722 0
M  V30 2020 H 187.587 6.41307 0.856399 0
M  V30 2021 N 187.719 -0.156864 1.56817 0
M  V30 2022 C 188.949 -0.885031 1.86684 0
M  V30 2023 C 189.357 -1.75696 0.701954 0
M  V30 2024 O 188.7 -1.80569 -0.337732 0
M  V30 2025 C 188.762 -1.80092 3.11138 0
M  V30 2026 C 188.426 -1.10714 4.43386 0
M  V30 2027 C 189.423 -0.465714 5.1781 0
M  V30 2028 C 187.108 -1.09959 4.90117 0
M  V30 2029 C 189.102 0.174002 6.37162 0
M  V30 2030 C 186.789 -0.456055 6.09396 0
M  V30 2031 C 187.787 0.179622 6.82764 0
M  V30 2032 O 187.475 0.812975 7.99779 0
M  V30 2033 H 187.207 -0.261813 0.623242 0
M  V30 2034 H 189.761 -0.157383 2.04796 0
M  V30 2035 H 187.991 -2.56926 2.89009 0
M  V30 2036 H 189.68 -2.40018 3.27332 0
M  V30 2037 H 190.446 -0.463427 4.82781 0
M  V30 2038 H 186.325 -1.58378 4.3294 0
M  V30 2039 H 189.869 0.670765 6.94368 0
M  V30 2040 H 185.766 -0.455975 6.43888 0
M  V30 2041 H 186.534 0.71366 8.15383 0
M  V30 2042 N 189.197 -1.51736 -0.425897 0
M  V30 2043 C 190.127 -1.76827 -1.52494 0
M  V30 2044 C 191.108 -0.618524 -1.58456 0
M  V30 2045 O 192.293 -0.862416 -1.74 0
M  V30 2046 C 189.423 -1.90374 -2.90474 0
M  V30 2047 C 188.377 -3.0588 -2.99369 0
M  V30 2048 C 187.703 -3.04625 -4.3944 0
M  V30 2049 C 189.003 -4.45644 -2.72394 0
M  V30 2050 H 190.697 -2.68855 -1.31748 0
M  V30 2051 H 188.243 -1.29372 -0.632362 0
M  V30 2052 H 190.196 -2.0651 -3.6733 0
M  V30 2053 H 188.92 -0.95004 -3.12477 0
M  V30 2054 H 187.579 -2.89467 -2.24954 0
M  V30 2055 H 187.227 -2.0701 -4.58428 0
M  V30 2056 H 186.927 -3.82195 -4.46319 0
M  V30 2057 H 188.451 -3.22869 -5.18255 0
M  V30 2058 H 189.865 -4.62348 -3.38979 0
M  V30 2059 H 188.262 -5.25006 -2.9067 0
M  V30 2060 H 189.332 -4.54893 -1.67929 0
M  V30 2061 N 190.675 0.682077 -1.42076 0
M  V30 2062 C 191.585 1.82535 -1.47371 0
M  V30 2063 C 192.601 1.7017 -0.363079 0
M  V30 2064 O 193.777 1.91848 -0.612875 0
M  V30 2065 C 190.842 3.18624 -1.36674 0
M  V30 2066 C 189.903 3.42999 -2.58167 0
M  V30 2067 C 189.136 4.72595 -2.4797 0
M  V30 2068 O 189.359 5.50006 -1.5116 0
M  V30 2069 O 188.293 4.98054 -3.37974 0
M  V30 2070 H 192.119 1.81023 -2.43853 0
M  V30 2071 H 189.704 0.836887 -1.2376 0
M  V30 2072 H 191.586 3.99847 -1.33043 0
M  V30 2073 H 190.261 3.20789 -0.433138 0
M  V30 2074 H 189.168 2.61653 -2.67373 0
M  V30 2075 H 190.501 3.45659 -3.50401 0
M  V30 2076 N 192.153 1.28127 0.917671 0
M  V30 2077 C 193.378 1.18007 1.70555 0
M  V30 2078 C 193.803 -0.258257 1.86319 0
M  V30 2079 O 193.161 -1.1869 1.37049 0
M  V30 2080 C 193.209 1.87948 3.07746 0
M  V30 2081 O 192.313 1.18427 3.9503 0
M  V30 2082 H 191.654 0.409867 0.522403 0
M  V30 2083 H 194.184 1.69379 1.1477 0
M  V30 2084 H 194.194 1.95701 3.58001 0
M  V30 2085 H 192.869 2.92573 2.95591 0
M  V30 2086 H 191.446 1.18811 3.53466 0
M  V30 2087 N 193.631 -1.12557 1.10312 0
M  V30 2088 C 194.871 -1.8568 0.854543 0
M  V30 2089 C 195.235 -1.82091 -0.608843 0
M  V30 2090 O 196.436 -2.50544 -0.973717 0
M  V30 2091 C 194.707 -3.2942 1.38626 0
M  V30 2092 S 196.266 -4.19931 1.27293 0
M  V30 2093 H 193.084 -0.640427 0.308827 0
M  V30 2094 H 195.686 -1.35599 1.40831 0
M  V30 2095 H 194.39 -3.2959 2.44537 0
M  V30 2096 H 193.921 -3.84566 0.82902 0
M  V30 2097 H 195.936 -4.95668 0.229776 0
M  V30 2098 N 195.109 -0.891671 -1.2995 0
M  V30 2099 C 196.349 -0.520296 -1.97667 0
M  V30 2100 C 196.713 0.914797 -1.68806 0
M  V30 2101 O 197.914 1.39263 -2.29911 0
M  V30 2102 C 196.185 -0.795222 -3.48441 0
M  V30 2103 S 197.744 -0.526953 -4.35624 0
M  V30 2104 H 194.562 -0.19333 -0.684211 0
M  V30 2105 H 197.164 -1.15238 -1.57926 0
M  V30 2106 H 195.868 -1.83805 -3.66938 0
M  V30 2107 H 195.399 -0.15095 -3.9311 0
M  V30 2108 H 197.414 0.631533 -4.92165 0
M  V30 2109 N 196.587 1.43421 -0.653314 0
M  V30 2110 C 197.519 2.29071 0.0769134 0
M  V30 2111 C 198.532 1.42513 0.787017 0
M  V30 2112 O 199.721 1.66449 0.644757 0
M  V30 2113 C 196.821 3.19436 1.13199 0
M  V30 2114 C 195.994 4.34533 0.500006 0
M  V30 2115 C 195.053 5.05771 1.45198 0
M  V30 2116 O 194.079 5.61037 0.960538 0
M  V30 2117 N 195.281 5.0928 2.78594 0
M  V30 2118 H 198.046 2.92382 -0.658235 0
M  V30 2119 H 195.607 1.54112 -0.496104 0
M  V30 2120 H 197.599 3.63958 1.76964 0
M  V30 2121 H 196.169 2.57724 1.7691 0
M  V30 2122 H 195.389 3.92925 -0.316738 0
M  V30 2123 H 196.677 5.08766 0.0588345 0
M  V30 2124 H 196.075 4.65751 3.2108 0
M  V30 2125 H 194.632 5.57519 3.37662 0
M  V30 2126 N 198.065 0.39524 1.52563 0
M  V30 2127 C 199.028 -0.425001 2.25225 0
M  V30 2128 C 200.028 -0.985266 1.27079 0
M  V30 2129 O 201.218 -0.866332 1.5113 0
M  V30 2130 C 198.35 -1.59686 3.01186 0
M  V30 2131 H 199.543 0.211233 2.99155 0
M  V30 2132 H 197.096 0.147472 1.55603 0
M  V30 2133 H 197.831 -2.27035 2.31572 0
M  V30 2134 H 197.616 -1.20176 3.73229 0
M  V30 2135 H 199.106 -2.17743 3.5634 0
M  V30 2136 N 199.544 -1.57102 0.125237 0
M  V30 2137 C 200.96 -1.57915 -0.231322 0
M  V30 2138 C 201.16 -1.13833 -1.66266 0
M  V30 2139 O 200.216 -0.828581 -2.38518 0
M  V30 2140 C 201.529 -3.00699 0.00766489 0
M  V30 2141 C 203.077 -3.12947 -0.0577483 0
M  V30 2142 C 203.552 -4.57742 0.153626 0
M  V30 2143 N 205.043 -4.63092 0.0998073 0
M  V30 2144 C 205.778 -5.72905 0.238174 0
M  V30 2145 N 205.274 -6.91445 0.433057 0
M  V30 2146 N 207.067 -5.6182 0.177308 0
M  V30 2147 H 199.218 -1.84055 1.06007 0
M  V30 2148 H 201.481 -0.850905 0.417929 0
M  V30 2149 H 201.187 -3.3726 0.997431 0
M  V30 2150 H 201.061 -3.70236 -0.721452 0
M  V30 2151 H 203.448 -2.7624 -1.03804 0
M  V30 2152 H 203.529 -2.4594 0.70335 0
M  V30 2153 H 203.173 -4.95149 1.13092 0
M  V30 2154 H 203.103 -5.22848 -0.627534 0
M  V30 2155 H 205.594 -3.77871 -0.047051 0
M  V30 2156 H 205.907 -7.70985 0.529332 0
M  V30 2157 H 204.252 -6.93415 0.469109 0
M  V30 2158 H 207.443 -4.68093 0.0259748 0
M  V30 2159 H 207.616 -6.47357 0.288582 0
M  V30 2160 N 201.022 0.148545 -1.56898 0
M  V30 2161 C 202.252 0.875118 -1.8715 0
M  V30 2162 C 202.66 1.75322 -0.711262 0
M  V30 2163 O 202.003 1.80745 0.328151 0
M  V30 2164 C 202.065 1.7844 -3.12089 0
M  V30 2165 C 201.729 1.08361 -4.43967 0
M  V30 2166 C 202.726 0.438247 -5.1805 0
M  V30 2167 C 200.411 1.07358 -4.90693 0
M  V30 2168 C 202.405 -0.20779 -6.37061 0
M  V30 2169 C 200.092 0.42373 -6.09629 0
M  V30 2170 C 201.09 -0.215829 -6.82659 0
M  V30 2171 O 200.778 -0.855378 -7.99336 0
M  V30 2172 H 200.51 0.258504 -0.624621 0
M  V30 2173 H 203.064 0.14652 -2.04877 0
M  V30 2174 H 201.294 2.55389 -2.90367 0
M  V30 2175 H 202.983 2.38279 -3.286 0
M  V30 2176 H 203.749 0.437817 -4.8302 0
M  V30 2177 H 199.628 1.5608 -4.33774 0
M  V30 2178 H 203.172 -0.70758 -6.94002 0
M  V30 2179 H 199.069 0.421822 -6.4412 0
M  V30 2180 H 199.837 -0.756892 -8.14993 0
M  V30 2181 N 202.5 1.5196 0.417844 0
M  V30 2182 C 203.45 1.7106 1.5074 0
M  V30 2183 C 204.434 0.564487 1.50673 0
M  V30 2184 O 205.626 0.821206 1.56797 0
M  V30 2185 C 202.755 1.85677 2.88754 0
M  V30 2186 C 201.841 3.06133 2.93502 0
M  V30 2187 N 202.232 4.28987 2.67962 0
M  V30 2188 C 200.53 3.05787 3.24669 0
M  V30 2189 C 201.231 5.10395 2.79055 0
M  V30 2190 N 200.207 4.45455 3.11561 0
M  V30 2191 H 204.009 2.63696 1.29775 0
M  V30 2192 H 201.523 1.49873 0.625436 0
M  V30 2193 H 203.52 1.97475 3.67164 0
M  V30 2194 H 202.18 0.942348 3.10725 0
M  V30 2195 H 203.191 4.57607 2.4252 0
M  V30 2196 H 199.868 2.2405 3.52289 0
M  V30 2197 H 201.258 6.18247 2.63097 0
M  V30 2198 N 203.978 -0.674533 1.42435 0
M  V30 2199 C 204.91 -1.80005 1.41883 0
M  V30 2200 C 205.923 -1.59667 0.31787 0
M  V30 2201 O 207.112 -1.68781 0.580973 0
M  V30 2202 C 204.212 -3.17114 1.19549 0
M  V30 2203 C 203.385 -3.64299 2.42084 0
M  V30 2204 C 202.444 -4.80142 2.15291 0
M  V30 2205 O 201.47 -4.90673 2.88493 0
M  V30 2206 N 202.672 -5.68869 1.1562 0
M  V30 2207 H 205.437 -1.80964 2.38898 0
M  V30 2208 H 202.998 -0.857633 1.37318 0
M  V30 2209 H 204.99 -3.92267 0.995417 0
M  V30 2210 H 203.56 -3.11053 0.310569 0
M  V30 2211 H 202.78 -2.79822 2.77657 0
M  V30 2212 H 204.068 -3.92567 3.23679 0
M  V30 2213 H 203.466 -5.63012 0.550765 0
M  V30 2214 H 202.023 -6.43833 1.016 0
M  V30 2215 N 205.456 -1.28612 -0.910864 0
M  V30 2216 C 206.403 -1.12786 -2.01365 0
M  V30 2217 C 207.373 -0.024201 -1.66082 0
M  V30 2218 O 208.558 -0.189667 -1.89855 0
M  V30 2219 C 205.698 -0.798743 -3.35729 0
M  V30 2220 C 204.811 -1.98173 -3.83864 0
M  V30 2221 C 203.946 -1.59298 -5.06752 0
M  V30 2222 C 202.985 -2.74245 -5.47226 0
M  V30 2223 N 202.122 -2.35842 -6.61304 0
M  V30 2224 H 206.962 -2.07142 -2.14234 0
M  V30 2225 H 204.499 -1.03093 -1.0493 0
M  V30 2226 H 206.457 -0.588662 -4.13026 0
M  V30 2227 H 205.087 0.10789 -3.2262 0
M  V30 2228 H 204.139 -2.30386 -3.02699 0
M  V30 2229 H 205.451 -2.84343 -4.09818 0
M  V30 2230 H 204.605 -1.34513 -5.916 0
M  V30 2231 H 203.344 -0.702618 -4.82612 0
M  V30 2232 H 202.349 -2.99725 -4.60918 0
M  V30 2233 H 203.574 -3.63928 -5.73353 0
M  V30 2234 H 201.52 -1.49279 -6.38789 0
M  V30 2235 H 201.437 -3.15546 -6.86998 0
M  V30 2236 H 202.705 -2.14348 -7.4945 0
M  V30 2237 N 206.934 1.1197 -1.10907 0
M  V30 2238 C 207.881 2.17846 -0.762345 0
M  V30 2239 C 208.851 1.63995 0.263599 0
M  V30 2240 O 210.036 1.90273 0.141773 0
M  V30 2241 C 207.176 3.44487 -0.205651 0
M  V30 2242 C 206.289 4.12369 -1.28748 0
M  V30 2243 C 205.424 5.26674 -0.691919 0
M  V30 2244 C 204.463 5.86431 -1.75399 0
M  V30 2245 N 203.6 6.92142 -1.17833 0
M  V30 2246 H 208.44 2.46851 -1.6694 0
M  V30 2247 H 205.977 1.21188 -0.833776 0
M  V30 2248 H 207.935 4.16981 0.135037 0
M  V30 2249 H 206.565 3.15884 0.664613 0
M  V30 2250 H 205.617 3.38003 -1.74522 0
M  V30 2251 H 206.929 4.52844 -2.09125 0
M  V30 2252 H 206.083 6.05953 -0.300963 0
M  V30 2253 H 204.822 4.8749 0.143232 0
M  V30 2254 H 203.827 5.05835 -2.15432 0
M  V30 2255 H 205.052 6.27685 -2.59208 0
M  V30 2256 H 202.998 6.54985 -0.364725 0
M  V30 2257 H 202.915 7.31242 -1.91887 0
M  V30 2258 H 204.183 7.75237 -0.81408 0
M  V30 2259 N 208.412 0.89855 1.29475 0
M  V30 2260 C 209.322 0.379974 2.31502 0
M  V30 2261 C 210.338 -0.524695 1.659 0
M  V30 2262 O 211.514 -0.414551 1.97087 0
M  V30 2263 C 208.579 -0.385138 3.44554 0
M  V30 2264 C 207.64 0.550914 4.2575 0
M  V30 2265 C 206.873 -0.177778 5.33404 0
M  V30 2266 O 207.096 -1.40189 5.52904 0
M  V30 2267 O 206.03 0.479106 5.9999 0
M  V30 2268 H 209.856 1.22639 2.77837 0
M  V30 2269 H 207.441 0.662834 1.33891 0
M  V30 2270 H 209.323 -0.817841 4.13388 0
M  V30 2271 H 207.998 -1.20763 3.0033 0
M  V30 2272 H 206.905 1.03271 3.59564 0
M  V30 2273 H 208.238 1.33979 4.73614 0
M  V30 2274 N 209.89 -1.43072 0.660911 0
M  V30 2275 C 210.822 -2.29108 -0.0647641 0
M  V30 2276 C 211.835 -1.42928 -0.779448 0
M  V30 2277 O 213.024 -1.66788 -0.635921 0
M  V30 2278 C 210.124 -3.20032 -1.11503 0
M  V30 2279 C 209.297 -4.34792 -0.476955 0
M  V30 2280 C 208.356 -5.06534 -1.42513 0
M  V30 2281 O 207.382 -5.61538 -0.930771 0
M  V30 2282 N 208.584 -5.1075 -2.75889 0
M  V30 2283 H 211.349 -2.92029 0.673731 0
M  V30 2284 H 208.91 -1.53846 0.50427 0
M  V30 2285 H 210.902 -3.64892 -1.75032 0
M  V30 2286 H 209.472 -2.58658 -1.75541 0
M  V30 2287 H 208.692 -3.92752 0.337572 0
M  V30 2288 H 209.98 -5.0879 -0.0318525 0
M  V30 2289 H 209.378 -4.67447 -3.18606 0
M  V30 2290 H 207.935 -5.59302 -3.347 0
M  V30 2291 N 211.368 -0.403325 -1.52352 0
M  V30 2292 C 212.301 0.469463 -2.23319 0
M  V30 2293 C 213.279 1.05272 -1.23922 0
M  V30 2294 O 214.463 1.10169 -1.52954 0
M  V30 2295 C 211.59 1.6511 -2.9573 0
M  V30 2296 C 210.636 1.19178 -4.0951 0
M  V30 2297 S 211.469 0.161718 -5.35256 0
M  V30 2298 C 212.625 1.34882 -6.11194 0
M  V30 2299 H 212.858 -0.133134 -2.97002 0
M  V30 2300 H 210.391 -0.187588 -1.53256 0
M  V30 2301 H 212.349 2.3287 -3.38056 0
M  V30 2302 H 211.01 2.22503 -2.21701 0
M  V30 2303 H 210.203 2.07444 -4.59329 0
M  V30 2304 H 209.805 0.592911 -3.6927 0
M  V30 2305 H 212.097 2.27345 -6.38217 0
M  V30 2306 H 213.04 0.89128 -7.02468 0
M  V30 2307 H 213.448 1.57198 -5.42171 0
M  V30 2308 N 212.846 1.57033 -0.133567 0
M  V30 2309 C 213.794 2.17348 0.828412 0
M  V30 2310 C 214.788 1.12671 1.26498 0
M  V30 2311 O 215.994 1.30947 1.23502 0
M  V30 2312 H 212.369 0.695775 0.285309 0
M  V30 2313 H 214.34 2.96935 0.295372 0
M  V30 2314 C 213.089 2.79893 2.06289 0
M  V30 2315 H 212.412 3.60147 1.73592 0
M  V30 2316 H 213.852 3.25615 2.71572 0
M  V30 2317 C 212.311 1.77713 2.86216 0
M  V30 2318 O 212.841 1.23937 3.82103 0
M  V30 2319 N 211.047 1.47321 2.50489 0
M  V30 2320 H 210.594 1.91243 1.7258 0
M  V30 2321 H 210.552 0.79199 3.04261 0
M  V30 2322 N 214.325 -0.140222 1.56975 0
M  V30 2323 C 215.235 -1.19223 2.02047 0
M  V30 2324 C 216.251 -1.46612 0.937062 0
M  V30 2325 O 217.427 -1.58148 1.24704 0
M  V30 2326 C 214.492 -2.50414 2.39778 0
M  V30 2327 C 213.553 -2.30612 3.621 0
M  V30 2328 C 212.786 -3.55547 3.98023 0
M  V30 2329 O 213.009 -4.62004 3.34528 0
M  V30 2330 O 211.943 -3.47808 4.91237 0
M  V30 2331 H 215.769 -0.839559 2.91865 0
M  V30 2332 H 213.354 -0.349453 1.45256 0
M  V30 2333 H 215.236 -3.27747 2.64877 0
M  V30 2334 H 213.911 -2.85198 1.53114 0
M  V30 2335 H 212.818 -1.51207 3.4218 0
M  V30 2336 H 214.151 -2.00741 4.49404 0
M  V30 2337 N 215.803 -1.52179 -0.40978 0
M  V30 2338 C 216.713 -1.78364 -1.52392 0
M  V30 2339 C 217.729 -0.669183 -1.60617 0
M  V30 2340 O 218.905 -0.954518 -1.77344 0
M  V30 2341 C 215.97 -1.92822 -2.88133 0
M  V30 2342 C 215.031 -3.16725 -2.898 0
M  V30 2343 C 214.264 -3.30483 -4.19067 0
M  V30 2344 O 214.487 -2.49522 -5.12928 0
M  V30 2345 O 213.421 -4.2363 -4.27576 0
M  V30 2346 H 217.247 -2.72931 -1.33201 0
M  V30 2347 H 214.832 -1.37016 -0.59557 0
M  V30 2348 H 216.714 -2.04157 -3.68643 0
M  V30 2349 H 215.389 -1.01444 -3.07393 0
M  V30 2350 H 214.296 -3.10848 -2.08146 0
M  V30 2351 H 215.629 -4.07881 -2.75489 0
M  V30 2352 N 217.281 0.66697 -1.42791 0
M  V30 2353 C 218.211 1.79218 -1.49677 0
M  V30 2354 C 219.192 1.66405 -0.352623 0
M  V30 2355 O 220.377 1.85708 -0.567993 0
M  V30 2356 C 217.507 3.17565 -1.40605 0
M  V30 2357 C 216.461 3.45124 -2.53127 0
M  V30 2358 C 215.787 4.83127 -2.29112 0
M  V30 2359 C 217.087 3.41236 -3.95418 0
M  V30 2360 H 218.781 1.73713 -2.43853 0
M  V30 2361 H 216.327 0.83432 -1.17367 0
M  V30 2362 H 218.28 3.96022 -1.44029 0
M  V30 2363 H 217.004 3.23767 -0.429271 0
M  V30 2364 H 215.663 2.69031 -2.49034 0
M  V30 2365 H 215.311 4.85988 -1.29709 0
M  V30 2366 H 215.011 5.02528 -3.04531 0
M  V30 2367 H 216.535 5.63859 -2.34297 0
M  V30 2368 H 217.949 4.09651 -4.01073 0
M  V30 2369 H 216.346 3.72173 -4.70752 0
M  V30 2370 H 217.416 2.39665 -4.21532 0
M  V30 2371 N 218.759 1.29093 0.90403 0
M  V30 2372 C 219.706 1.13853 2.00764 0
M  V30 2373 C 220.676 0.0330084 1.66067 0
M  V30 2374 O 221.861 0.199733 1.89752 0
M  V30 2375 C 219.001 0.816537 3.35301 0
M  V30 2376 C 218.114 2.00206 3.82807 0
M  V30 2377 C 217.249 1.61983 5.059 0
M  V30 2378 C 216.288 2.77143 5.45764 0
M  V30 2379 N 215.425 2.39346 6.60044 0
M  V30 2380 H 220.265 2.08276 2.13132 0
M  V30 2381 H 217.802 1.03648 1.04381 0
M  V30 2382 H 219.76 0.610557 4.12708 0
M  V30 2383 H 218.39 -0.090779 3.22672 0
M  V30 2384 H 217.442 2.31988 3.01473 0
M  V30 2385 H 218.754 2.86512 4.08304 0
M  V30 2386 H 217.908 1.37649 5.90879 0
M  V30 2387 H 216.647 0.728202 4.82233 0
M  V30 2388 H 215.652 3.02165 4.59322 0
M  V30 2389 H 216.877 3.66964 5.71414 0
M  V30 2390 H 214.823 1.52665 6.37989 0
M  V30 2391 H 214.74 3.19185 6.85315 0
M  V30 2392 H 216.008 2.1832 7.48303 0
M  V30 2393 N 220.237 -1.11381 1.11499 0
M  V30 2394 C 221.653 -1.35143 0.849031 0
M  V30 2395 C 221.853 -1.94515 -0.525938 0
M  V30 2396 O 220.909 -2.1785 -1.27662 0
M  V30 2397 C 222.222 -2.28249 1.95762 0
M  V30 2398 C 223.77 -2.41812 1.98736 0
M  V30 2399 C 224.245 -3.3824 3.088 0
M  V30 2400 N 225.736 -3.45803 3.08179 0
M  V30 2401 C 226.471 -4.20358 3.89982 0
M  V30 2402 N 225.967 -4.97884 4.8175 0
M  V30 2403 N 227.76 -4.15877 3.78157 0
M  V30 2404 H 219.911 -0.712062 2.00109 0
M  V30 2405 H 222.174 -0.376025 0.870235 0
M  V30 2406 H 221.88 -1.91817 2.94787 0
M  V30 2407 H 221.754 -3.28473 1.85433 0
M  V30 2408 H 224.141 -2.77518 1.00338 0
M  V30 2409 H 224.222 -1.41437 2.13141 0
M  V30 2410 H 223.866 -3.03261 4.07425 0
M  V30 2411 H 223.796 -4.38471 2.91635 0
M  V30 2412 H 226.287 -2.90506 2.41691 0
M  V30 2413 H 226.6 -5.52142 5.40702 0
M  V30 2414 H 224.945 -4.97043 4.85771 0
M  V30 2415 H 228.136 -3.544 3.05808 0
M  V30 2416 H 228.309 -4.73723 4.42143 0
M  V30 2417 N 221.715 -0.905404 -1.28997 0
M  V30 2418 C 222.625 -0.392246 -2.31298 0
M  V30 2419 C 223.641 0.515889 -1.66176 0
M  V30 2420 O 224.817 0.404093 -1.97304 0
M  V30 2421 C 221.882 0.36686 -3.44754 0
M  V30 2422 C 220.943 -0.573485 -4.25452 0
M  V30 2423 C 220.176 0.149488 -5.33491 0
M  V30 2424 O 220.399 1.37255 -5.5364 0
M  V30 2425 O 219.333 -0.510919 -5.99728 0
M  V30 2426 H 223.159 -1.2411 -2.77183 0
M  V30 2427 H 220.744 -0.669926 -1.33538 0
M  V30 2428 H 222.626 0.795907 -4.13816 0
M  V30 2429 H 221.301 1.19169 -3.00966 0
M  V30 2430 H 220.208 -1.05176 -3.59011 0
M  V30 2431 H 221.541 -1.36489 -4.72897 0
M  V30 2432 N 223.193 1.4272 -0.668489 0
M  V30 2433 C 224.156 2.292 0.00448567 0
M  V30 2434 C 225.156 1.43001 0.735339 0
M  V30 2435 O 226.346 1.64461 0.57429 0
M  V30 2436 C 223.478 3.25375 1.01705 0
M  V30 2437 H 224.671 2.90199 -0.756608 0
M  V30 2438 H 222.224 1.50254 -0.430506 0
M  V30 2439 H 222.959 2.69301 1.80686 0
M  V30 2440 H 222.744 3.88944 0.496463 0
M  V30 2441 H 224.234 3.90245 1.48655 0
M  V30 2442 N 224.671 0.411399 1.52136 0
M  V30 2443 C 225.581 -0.419774 2.30814 0
M  V30 2444 C 226.597 -1.0515 1.38634 0
M  V30 2445 O 227.773 -1.05252 1.71709 0
M  V30 2446 C 224.838 -1.52019 3.11594 0
M  V30 2447 C 223.899 -0.91129 4.19516 0
M  V30 2448 C 223.132 -1.95927 4.96436 0
M  V30 2449 O 223.355 -3.17775 4.73683 0
M  V30 2450 O 222.289 -1.56423 5.81219 0
M  V30 2451 H 226.115 0.221805 3.02889 0
M  V30 2452 H 223.7 0.174547 1.48377 0
M  V30 2453 H 225.582 -2.15898 3.61892 0
M  V30 2454 H 224.257 -2.14633 2.42311 0
M  V30 2455 H 223.164 -0.235157 3.7336 0
M  V30 2456 H 224.497 -0.32904 4.91099 0
M  V30 2457 N 226.149 -1.5696 0.141893 0
M  V30 2458 C 227.377 -2.00322 -0.517579 0
M  V30 2459 C 227.792 -1.02193 -1.58752 0
M  V30 2460 O 227.149 -0.0181619 -1.82491 0
M  V30 2461 C 227.2 -3.43618 -1.12289 0
M  V30 2462 O 226.921 -4.37995 -0.0956929 0
M  V30 2463 C 228.422 -4.02231 -1.86347 0
M  V30 2464 H 225.642 -0.657243 -0.135177 0
M  V30 2465 H 228.186 -2.03146 0.234973 0
M  V30 2466 H 226.341 -3.41662 -1.82609 0
M  V30 2467 H 226.755 -5.21729 -0.538469 0
M  V30 2468 H 228.229 -5.04509 -2.23997 0
M  V30 2469 H 228.706 -3.42655 -2.74744 0
M  V30 2470 H 229.312 -4.07802 -1.20737 0
M  V30 2471 N 227.627 0.131896 -1.57047 0
M  V30 2472 C 228.557 1.16384 -2.02428 0
M  V30 2473 C 229.538 1.43936 -0.90644 0
M  V30 2474 O 230.723 1.54599 -1.17528 0
M  V30 2475 C 227.853 2.49328 -2.4177 0
M  V30 2476 C 226.807 2.36266 -3.56879 0
M  V30 2477 C 226.133 3.74057 -3.8208 0
M  V30 2478 C 227.433 1.834 -4.89042 0
M  V30 2479 H 229.127 0.786433 -2.88887 0
M  V30 2480 H 226.673 0.376855 -1.38981 0
M  V30 2481 H 228.626 3.21759 -2.7212 0
M  V30 2482 H 227.35 2.88934 -1.52266 0
M  V30 2483 H 226.009 1.66286 -3.26718 0
M  V30 2484 H 225.657 4.11125 -2.89803 0
M  V30 2485 H 225.357 3.66174 -4.59554 0
M  V30 2486 H 226.881 4.48012 -4.1487 0
M  V30 2487 H 228.295 2.45636 -5.18011 0
M  V30 2488 H 226.692 1.8637 -5.70426 0
M  V30 2489 H 227.762 0.790662 -4.7841 0
M  V30 2490 N 229.106 1.52395 0.401703 0
M  V30 2491 C 230.522 1.41363 0.740864 0
M  V30 2492 C 230.722 0.523982 1.94568 0
M  V30 2493 O 229.778 -0.00741204 2.52499 0
M  V30 2494 C 231.091 2.84011 0.987847 0
M  V30 2495 C 232.639 2.93404 1.09011 0
M  V30 2496 C 233.114 4.37036 1.3698 0
M  V30 2497 N 234.605 4.40304 1.43829 0
M  V30 2498 C 235.34 5.48508 1.67112 0
M  V30 2499 N 234.836 6.66819 1.87949 0
M  V30 2500 N 236.629 5.36034 1.69187 0
M  V30 2501 H 228.78 2.08765 -0.391262 0
M  V30 2502 H 231.043 0.941265 -0.112798 0
M  V30 2503 H 230.749 3.51265 0.174835 0
M  V30 2504 H 230.623 3.25502 1.906 0
M  V30 2505 H 233.01 2.26325 1.8937 0
M  V30 2506 H 233.091 2.55359 0.15015 0
M  V30 2507 H 232.735 5.04676 0.571353 0
M  V30 2508 H 232.665 4.72623 2.3224 0
M  V30 2509 H 235.156 3.55024 1.29486 0
M  V30 2510 H 235.469 7.45063 2.05185 0
M  V30 2511 H 233.814 6.6987 1.85199 0
M  V30 2512 H 237.005 4.42579 1.52451 0
M  V30 2513 H 237.178 6.20434 1.86993 0
M  V30 2514 N 230.584 -0.659388 1.43143 0
M  V30 2515 C 231.494 -1.80167 1.50256 0
M  V30 2516 C 232.51 -1.69571 0.390106 0
M  V30 2517 O 233.686 -1.90849 0.643319 0
M  V30 2518 C 230.751 -3.16409 1.41725 0
M  V30 2519 C 229.812 -3.38848 2.63591 0
M  V30 2520 C 229.045 -4.68591 2.55458 0
M  V30 2521 O 229.268 -5.47532 1.59891 0
M  V30 2522 O 228.202 -4.92614 3.45854 0
M  V30 2523 H 232.028 -1.77121 2.46702 0
M  V30 2524 H 229.613 -0.817092 1.25076 0
M  V30 2525 H 231.495 -3.9768 1.39387 0
M  V30 2526 H 230.17 -3.20059 0.484118 0
M  V30 2527 H 229.077 -2.57366 2.71502 0
M  V30 2528 H 230.41 -3.4004 3.55856 0
M  V30 2529 N 232.062 -1.29571 -0.897171 0
M  V30 2530 C 233.478 -1.07637 -1.17841 0
M  V30 2531 C 233.678 0.170713 -2.00776 0
M  V30 2532 O 232.734 0.867768 -2.3712 0
M  V30 2533 C 234.047 -2.3332 -1.8969 0
M  V30 2534 C 235.595 -2.38664 -2.02505 0
M  V30 2535 C 236.07 -3.64157 -2.77765 0
M  V30 2536 N 237.561 -3.64894 -2.85318 0
M  V30 2537 C 238.296 -4.58679 -3.44094 0
M  V30 2538 N 237.792 -5.62799 -4.04017 0
M  V30 2539 N 239.585 -4.46245 -3.41793 0
M  V30 2540 H 231.736 -2.09598 -0.343883 0
M  V30 2541 H 233.999 -0.923333 -0.214848 0
M  V30 2542 H 233.705 -3.24262 -1.36187 0
M  V30 2543 H 233.579 -2.41025 -2.9015 0
M  V30 2544 H 235.966 -1.48208 -2.55183 0
M  V30 2545 H 236.047 -2.34943 -1.01171 0
M  V30 2546 H 235.691 -4.54965 -2.25763 0
M  V30 2547 H 235.621 -3.65137 -3.7945 0
M  V30 2548 H 238.112 -2.89613 -2.42761 0
M  V30 2549 H 238.425 -6.3048 -4.46895 0
M  V30 2550 H 236.77 -5.66605 -4.02472 0
M  V30 2551 H 239.961 -3.64094 -2.94199 0
M  V30 2552 H 240.134 -5.19518 -3.87304 0
M  V30 2553 N 233.54 1.10788 -1.12088 0
M  V30 2554 C 234.45 2.20599 -0.798338 0
M  V30 2555 C 235.466 1.72712 0.21135 0
M  V30 2556 O 236.642 2.01348 0.0458477 0
M  V30 2557 C 233.707 3.45771 -0.253674 0
M  V30 2558 C 232.768 4.08411 -1.32283 0
M  V30 2559 C 232.001 5.27608 -0.80406 0
M  V30 2560 O 232.224 5.69241 0.363478 0
M  V30 2561 O 231.158 5.8101 -1.57198 0
M  V30 2562 H 234.984 2.50614 -1.7154 0
M  V30 2563 H 232.569 1.19454 -0.897275 0
M  V30 2564 H 234.451 4.21376 0.0453691 0
M  V30 2565 H 233.126 3.1739 0.636005 0
M  V30 2566 H 232.033 3.34507 -1.67499 0
M  V30 2567 H 233.366 4.40986 -2.18614 0
M  V30 2568 N 235.018 0.912232 1.28515 0
M  V30 2569 C 236.266 0.543523 1.94654 0
M  V30 2570 C 236.587 -0.9155 1.72173 0
M  V30 2571 O 235.857 -1.64708 1.06058 0
M  V30 2572 H 234.437 0.198017 0.720277 0
M  V30 2573 H 237.099 1.16126 1.56527 0
M  V30 2574 H 236.195 0.736684 3.03281 0
M  V30 2575 N 236.496 -1.42363 0.676048 0
M  V30 2576 C 237.406 -2.346 -0.00153389 0
M  V30 2577 C 238.422 -1.5516 -0.787485 0
M  V30 2578 O 239.598 -1.87723 -0.729521 0
M  V30 2579 C 236.663 -3.33705 -0.940298 0
M  V30 2580 C 235.724 -4.29042 -0.148739 0
M  V30 2581 C 234.957 -5.23413 -1.04279 0
M  V30 2582 O 235.18 -5.22749 -2.28232 0
M  V30 2583 O 234.114 -5.99795 -0.502925 0
M  V30 2584 H 237.94 -2.94082 0.758268 0
M  V30 2585 H 235.525 -1.42888 0.436289 0
M  V30 2586 H 237.407 -3.94586 -1.47917 0
M  V30 2587 H 236.082 -2.76695 -1.67993 0
M  V30 2588 H 234.989 -3.71571 0.43427 0
M  V30 2589 H 236.322 -4.89097 0.551805 0
M  V30 2590 N 237.974 -0.419461 -1.51915 0
M  V30 2591 C 238.884 0.407528 -2.31033 0
M  V30 2592 C 239.9 1.04413 -1.3919 0
M  V30 2593 O 241.076 1.0434 -1.72265 0
M  V30 2594 C 238.141 1.50365 -3.12396 0
M  V30 2595 C 237.202 0.889029 -4.19994 0
M  V30 2596 C 236.435 1.93291 -4.97468 0
M  V30 2597 O 236.658 3.15259 -4.75361 0
M  V30 2598 O 235.592 1.53339 -5.8204 0
M  V30 2599 H 239.418 -0.237865 -3.02767 0
M  V30 2600 H 237.003 -0.182413 -1.48282 0
M  V30 2601 H 238.885 2.13975 -3.63032 0
M  V30 2602 H 237.56 2.13345 -2.43445 0
M  V30 2603 H 236.467 0.215353 -3.7348 0
M  V30 2604 H 237.8 0.302991 -4.91267 0
M  V30 2605 N 239.452 1.56882 -0.150215 0
M  V30 2606 C 240.699 1.96228 0.500093 0
M  V30 2607 C 241.027 1.03522 1.64661 0
M  V30 2608 O 240.282 0.0650683 1.95592 0
M  V30 2609 C 240.581 3.41801 1.04437 0
M  V30 2610 C 240.247 4.50897 0.0159671 0
M  V30 2611 C 238.909 4.8046 -0.266731 0
M  V30 2612 C 241.261 5.16703 -0.683192 0
M  V30 2613 C 238.589 5.73135 -1.25434 0
M  V30 2614 C 240.941 6.10441 -1.65964 0
M  V30 2615 C 239.605 6.38382 -1.95 0
M  V30 2616 H 238.875 0.718048 0.182997 0
M  V30 2617 H 241.522 1.90019 -0.237724 0
M  V30 2618 H 239.827 3.44857 1.85959 0
M  V30 2619 H 241.524 3.69573 1.55618 0
M  V30 2620 H 238.114 4.27891 0.246485 0
M  V30 2621 H 242.298 4.93993 -0.477983 0
M  V30 2622 H 237.554 5.93074 -1.48571 0
M  V30 2623 H 241.728 6.60507 -2.20689 0
M  V30 2624 H 239.355 7.09996 -2.71679 0
M  V30 2625 N 240.93 -0.123565 1.57115 0
M  V30 2626 C 242.207 -0.862196 1.75572 0
M  V30 2627 C 242.587 -1.98279 0.724475 0
M  V30 2628 O 241.935 -2.27102 -0.252407 0
M  V30 2629 C 242.145 -1.38309 3.20424 0
M  V30 2630 C 243.493 -1.83724 3.82793 0
M  V30 2631 O 244.517 -1.47999 3.23998 0
M  V30 2632 O 243.376 -2.49685 4.86127 0
M  V30 2633 H 240.47 -0.409113 0.718718 0
M  V30 2634 H 243.016 -0.107661 1.69358 0
M  V30 2635 H 241.788 -0.578889 3.86994 0
M  V30 2636 H 241.411 -2.20046 3.31158 0
M  V30 2637 N 242.408 -1.52605 -0.393616 0
M  V30 2638 C 243.356 -1.77688 -1.50099 0
M  V30 2639 C 244.35 -0.644615 -1.56656 0
M  V30 2640 O 245.556 -0.826997 -1.59877 0
M  V30 2641 H 241.931 -0.562159 -0.499481 0
M  V30 2642 H 243.902 -2.7043 -1.26135 0
M  V30 2643 C 242.651 -1.95858 -2.87289 0
M  V30 2644 H 241.974 -2.8241 -2.82992 0
M  V30 2645 H 243.414 -2.174 -3.64024 0
M  V30 2646 C 241.873 -0.729848 -3.28899 0
M  V30 2647 O 242.403 0.0949217 -4.01588 0
M  V30 2648 N 240.609 -0.561283 -2.85128 0
M  V30 2649 H 240.156 -1.23357 -2.26143 0
M  V30 2650 H 240.114 0.2595 -3.13327 0
M  V30 2651 N 243.887 0.651787 -1.4349 0
M  V30 2652 C 245.115 1.43937 -1.48626 0
M  V30 2653 C 245.53 1.8851 -0.104587 0
M  V30 2654 O 244.887 1.5958 0.885464 0
M  V30 2655 C 244.938 2.6734 -2.43334 0
M  V30 2656 O 244.659 2.24631 -3.76128 0
M  V30 2657 C 246.16 3.60683 -2.57726 0
M  V30 2658 H 243.38 0.44213 -0.504739 0
M  V30 2659 H 245.924 0.798944 -1.88248 0
M  V30 2660 H 244.079 3.2752 -2.06904 0
M  V30 2661 H 244.493 3.04485 -4.2707 0
M  V30 2662 H 245.967 4.43933 -3.28067 0
M  V30 2663 H 246.444 4.08126 -1.62265 0
M  V30 2664 H 247.05 3.06384 -2.94973 0
M  V30 2665 N 245.365 1.30045 0.890287 0
M  V30 2666 C 246.605 1.19839 1.65584 0
M  V30 2667 C 246.969 -0.244175 1.90441 0
M  V30 2668 O 248.17 -0.469378 2.6467 0
M  V30 2669 C 246.441 1.99876 2.96284 0
M  V30 2670 S 248 2.06309 3.87275 0
M  V30 2671 H 244.818 0.427157 0.568382 0
M  V30 2672 H 247.42 1.64453 1.05715 0
M  V30 2673 H 246.124 3.03809 2.75913 0
M  V30 2674 H 245.655 1.55903 3.61189 0
M  V30 2675 H 247.67 1.18661 4.81803 0
M  V30 2676 N 246.843 -1.10192 1.12674 0
M  V30 2677 C 248.083 -1.83825 0.893736 0
M  V30 2678 C 248.447 -1.83341 -0.570082 0
M  V30 2679 O 249.648 -2.52553 -0.920354 0
M  V30 2680 C 247.919 -3.26405 1.45582 0
M  V30 2681 S 249.478 -4.17136 1.36171 0
M  V30 2682 H 246.296 -0.633732 0.322342 0
M  V30 2683 H 248.898 -1.32581 1.43675 0
M  V30 2684 H 247.602 -3.24329 2.51473 0
M  V30 2685 H 247.133 -3.82721 0.910405 0
M  V30 2686 H 249.148 -4.95069 0.334863 0
M  V30 2687 N 248.321 -0.919034 -1.28029 0
M  V30 2688 C 249.284 -0.416182 -2.2539 0
M  V30 2689 C 250.284 0.460438 -1.54067 0
M  V30 2690 O 251.474 0.262744 -1.72207 0
M  V30 2691 C 248.606 0.402707 -3.38513 0
M  V30 2692 H 249.799 -1.27629 -2.71387 0
M  V30 2693 H 247.352 -0.698919 -1.39803 0
M  V30 2694 H 248.087 1.282 -2.97885 0
M  V30 2695 H 247.872 -0.225698 -3.9145 0
M  V30 2696 H 249.362 0.745191 -4.10897 0
M  V30 2697 N 249.799 1.42003 -0.683588 0
M  V30 2698 C 250.709 2.34597 -0.0109075 0
M  V30 2699 C 251.725 1.55576 0.779245 0
M  V30 2700 O 252.901 1.88107 0.719555 0
M  V30 2701 C 249.966 3.34199 0.922588 0
M  V30 2702 C 249.027 4.29115 0.125984 0
M  V30 2703 C 248.26 5.23959 1.01502 0
M  V30 2704 O 248.483 5.23952 2.25456 0
M  V30 2705 O 247.417 6.00053 0.47111 0
M  V30 2706 H 251.243 2.93675 -0.773853 0
M  V30 2707 H 248.828 1.42654 -0.443861 0
M  V30 2708 H 250.71 3.95365 1.45823 0
M  V30 2709 H 249.385 2.77582 1.66523 0
M  V30 2710 H 248.292 3.71335 -0.453969 0
M  V30 2711 H 249.625 4.88798 -0.577736 0
M  V30 2712 N 251.277 0.427512 1.51691 0
M  V30 2713 C 252.224 -0.388867 2.275 0
M  V30 2714 C 253.194 -1.02532 1.30677 0
M  V30 2715 O 254.379 -1.0461 1.59566 0
M  V30 2716 C 251.519 -1.48954 3.11298 0
M  V30 2717 C 250.632 -0.872194 4.23104 0
M  V30 2718 C 249.767 -1.94709 4.94228 0
M  V30 2719 C 248.806 -1.30766 5.97969 0
M  V30 2720 N 247.943 -2.32349 6.62539 0
M  V30 2721 H 252.783 0.263997 2.96828 0
M  V30 2722 H 250.32 0.142033 1.46413 0
M  V30 2723 H 252.278 -2.13887 3.58201 0
M  V30 2724 H 250.908 -2.11217 2.44105 0
M  V30 2725 H 249.96 -0.111419 3.80237 0
M  V30 2726 H 251.272 -0.365264 4.97461 0
M  V30 2727 H 250.426 -2.67327 5.44629 0
M  V30 2728 H 249.165 -2.48773 4.1948 0
M  V30 2729 H 248.17 -0.566902 5.4687 0
M  V30 2730 H 249.395 -0.774483 6.74669 0
M  V30 2731 H 247.341 -2.85511 5.90609 0
M  V30 2732 H 247.258 -1.8652 7.3263 0
M  V30 2733 H 248.526 -3.04481 7.17574 0
M  V30 2734 N 252.755 -1.56801 0.158532 0
M  V30 2735 C 254.171 -1.5837 -0.197774 0
M  V30 2736 C 254.371 -1.17334 -1.63814 0
M  V30 2737 O 253.427 -0.878988 -2.36707 0
M  V30 2738 C 254.74 -3.00615 0.0714459 0
M  V30 2739 C 256.288 -3.12999 0.00864533 0
M  V30 2740 C 256.763 -4.57313 0.250685 0
M  V30 2741 N 258.254 -4.62777 0.198014 0
M  V30 2742 C 258.989 -5.72271 0.359642 0
M  V30 2743 N 258.485 -6.90371 0.579625 0
M  V30 2744 N 260.278 -5.61318 0.296438 0
M  V30 2745 H 252.429 -1.81765 1.09887 0
M  V30 2746 H 254.692 -0.841849 0.435884 0
M  V30 2747 H 254.398 -3.35068 1.06874 0
M  V30 2748 H 254.272 -3.71683 -0.642757 0
M  V30 2749 H 256.659 -2.7838 -0.979217 0
M  V30 2750 H 256.74 -2.44393 0.755359 0
M  V30 2751 H 256.384 -4.92639 1.2357 0
M  V30 2752 H 256.314 -5.24061 -0.516489 0
M  V30 2753 H 258.805 -3.77885 0.0331115 0
M  V30 2754 H 259.118 -7.69689 0.69275 0
M  V30 2755 H 257.463 -6.92264 0.616087 0
M  V30 2756 H 260.654 -4.67932 0.125258 0
M  V30 2757 H 260.827 -6.46599 0.425831 0
M  V30 2758 N 254.233 0.115231 -1.57178 0
M  V30 2759 C 255.18 1.14115 -2.00615 0
M  V30 2760 C 256.15 1.40939 -0.878941 0
M  V30 2761 O 257.335 1.52741 -1.14345 0
M  V30 2762 C 254.475 2.46156 -2.4187 0
M  V30 2763 C 253.588 2.26236 -3.68024 0
M  V30 2764 C 252.723 3.51534 -3.98243 0
M  V30 2765 C 251.762 3.26787 -5.17568 0
M  V30 2766 N 250.899 4.44298 -5.43639 0
M  V30 2767 H 255.739 0.763743 -2.88047 0
M  V30 2768 H 253.276 0.365615 -1.42484 0
M  V30 2769 H 255.234 3.23189 -2.63827 0
M  V30 2770 H 253.864 2.81783 -1.57475 0
M  V30 2771 H 252.916 1.40102 -3.5366 0
M  V30 2772 H 254.228 2.03929 -4.55208 0
M  V30 2773 H 253.382 4.36984 -4.20868 0
M  V30 2774 H 252.121 3.76876 -3.09541 0
M  V30 2775 H 251.126 2.39729 -4.94783 0
M  V30 2776 H 252.351 3.02812 -6.0785 0
M  V30 2777 H 250.297 4.69754 -4.57895 0
M  V30 2778 H 250.214 4.25109 -6.25154 0
M  V30 2779 H 251.482 5.3087 -5.70786 0
M  V30 2780 N 255.711 1.52812 0.385517 0
M  V30 2781 C 256.658 1.77838 1.47113 0
M  V30 2782 C 257.628 0.621757 1.54024 0
M  V30 2783 O 258.813 0.861846 1.70226 0
M  V30 2784 C 255.953 1.95618 2.84302 0
M  V30 2785 C 255.066 3.23316 2.86515 0
M  V30 2786 C 254.201 3.31394 4.15152 0
M  V30 2787 C 253.24 4.53201 4.1143 0
M  V30 2788 N 252.377 4.58542 5.3168 0
M  V30 2789 H 257.217 2.70482 1.25073 0
M  V30 2790 H 254.754 1.34006 0.606692 0
M  V30 2791 H 256.712 2.03912 3.63972 0
M  V30 2792 H 255.342 1.06331 3.04784 0
M  V30 2793 H 254.394 3.24076 1.99195 0
M  V30 2794 H 255.706 4.13045 2.79634 0
M  V30 2795 H 254.86 3.3889 5.03228 0
M  V30 2796 H 253.599 2.39645 4.24761 0
M  V30 2797 H 252.604 4.45827 3.21742 0
M  V30 2798 H 253.829 5.46271 4.03442 0
M  V30 2799 H 251.775 3.69686 5.41912 0
M  V30 2800 H 251.692 5.42148 5.26889 0
M  V30 2801 H 252.96 4.70296 6.21644 0
M  V30 2802 N 257.189 -0.644168 1.43834 0
M  V30 2803 C 258.119 -1.76814 1.52509 0
M  V30 2804 C 259.1 -1.65823 0.379052 0
M  V30 2805 O 260.285 -1.84781 0.597466 0
M  V30 2806 C 257.415 -3.15288 1.4564 0
M  V30 2807 C 256.369 -3.41053 2.58586 0
M  V30 2808 C 255.695 -4.79421 2.36769 0
M  V30 2809 C 256.995 -3.34902 4.00797 0
M  V30 2810 H 258.689 -1.69812 2.46586 0
M  V30 2811 H 256.235 -0.815542 1.1868 0
M  V30 2812 H 258.188 -3.93681 1.50311 0
M  V30 2813 H 256.912 -3.23043 0.480725 0
M  V30 2814 H 255.571 -2.65035 2.53282 0
M  V30 2815 H 255.219 -4.83863 1.37424 0
M  V30 2816 H 254.919 -4.9762 3.12487 0
M  V30 2817 H 256.443 -5.6006 2.43238 0
M  V30 2818 H 257.857 -4.03218 4.07539 0
M  V30 2819 H 256.254 -3.64637 4.76613 0
M  V30 2820 H 257.324 -2.32928 4.25291 0
M  V30 2821 N 258.668 -1.30515 -0.883378 0
M  V30 2822 C 259.914 -1.20617 -1.63778 0
M  V30 2823 C 260.269 0.236469 -1.90941 0
M  V30 2824 O 259.562 1.16596 -1.52039 0
M  V30 2825 C 259.756 -1.96994 -2.98209 0
M  V30 2826 C 259.585 -3.48537 -2.84169 0
M  V30 2827 C 258.355 -4.17893 -2.84067 0
M  V30 2828 C 260.553 -4.43738 -2.60001 0
M  V30 2829 N 258.535 -5.55685 -2.60936 0
M  V30 2830 C 259.906 -5.69105 -2.46007 0
M  V30 2831 C 261.961 -4.33316 -2.45239 0
M  V30 2832 C 260.664 -6.8523 -2.18752 0
M  V30 2833 C 262.69 -5.4921 -2.19369 0
M  V30 2834 C 262.052 -6.73558 -2.06153 0
M  V30 2835 H 258.151 -0.496434 -0.604216 0
M  V30 2836 H 260.735 -1.64544 -1.04083 0
M  V30 2837 H 258.906 -1.55455 -3.55933 0
M  V30 2838 H 260.638 -1.79225 -3.62851 0
M  V30 2839 H 257.393 -3.69739 -2.95956 0
M  V30 2840 H 257.817 -6.28199 -2.52378 0
M  V30 2841 H 262.459 -3.37856 -2.54191 0
M  V30 2842 H 260.177 -7.80729 -2.08537 0
M  V30 2843 H 263.763 -5.43054 -2.08766 0
M  V30 2844 H 262.643 -7.61721 -1.86416 0
M  V30 2845 N 260.146 1.09593 -1.13257 0
M  V30 2846 C 261.423 1.78293 -0.804432 0
M  V30 2847 C 261.803 1.99004 0.70431 0
M  V30 2848 O 261.151 1.59007 1.641 0
M  V30 2849 C 261.361 3.10707 -1.5894 0
M  V30 2850 C 262.709 3.85443 -1.78099 0
M  V30 2851 O 263.733 3.20454 -1.55525 0
M  V30 2852 O 262.592 5.02108 -2.15753 0
M  V30 2853 H 259.686 0.773156 -0.293528 0
M  V30 2854 H 262.232 1.16164 -1.23709 0
M  V30 2855 H 261.004 2.91106 -2.61482 0
M  V30 2856 H 260.627 3.80558 -1.15157 0
M  V30 2857 N 261.624 0.925811 1.2754 0
M  V30 2858 C 262.554 0.440748 2.29303 0
M  V30 2859 C 263.535 -0.497971 1.62648 0
M  V30 2860 O 264.72 -0.403126 1.8997 0
M  V30 2861 C 261.85 -0.309048 3.45922 0
M  V30 2862 C 260.804 0.54166 4.24559 0
M  V30 2863 C 260.13 -0.337191 5.33636 0
M  V30 2864 C 261.43 1.80516 4.90114 0
M  V30 2865 H 263.124 1.29121 2.70126 0
M  V30 2866 H 260.67 0.622323 1.29858 0
M  V30 2867 H 262.623 -0.659315 4.1621 0
M  V30 2868 H 261.347 -1.19352 3.04011 0
M  V30 2869 H 260.006 0.874609 3.56014 0
M  V30 2870 H 259.654 -1.22056 4.87966 0
M  V30 2871 H 259.354 0.228497 5.87156 0
M  V30 2872 H 260.878 -0.683072 6.06767 0
M  V30 2873 H 262.292 1.52307 5.52698 0
M  V30 2874 H 260.689 2.3142 5.53683 0
M  V30 2875 H 261.759 2.52581 4.13921 0
M  V30 2876 N 263.102 -1.41638 0.69111 0
M  V30 2877 C 264.032 -2.3347 0.037248 0
M  V30 2878 C 265.013 -1.51575 -0.771947 0
M  V30 2879 O 266.198 -1.80126 -0.72582 0
M  V30 2880 C 263.328 -3.35354 -0.903064 0
M  V30 2881 C 262.282 -4.27526 -0.201288 0
M  V30 2882 C 261.608 -5.19747 -1.25565 0
M  V30 2883 C 262.908 -5.13959 0.929689 0
M  V30 2884 H 264.602 -2.88397 0.804227 0
M  V30 2885 H 262.148 -1.38669 0.388189 0
M  V30 2886 H 264.101 -3.98519 -1.36969 0
M  V30 2887 H 262.825 -2.78767 -1.70166 0
M  V30 2888 H 261.484 -3.65779 0.245265 0
M  V30 2889 H 261.132 -4.59479 -2.04666 0
M  V30 2890 H 260.832 -5.8225 -0.791128 0
M  V30 2891 H 262.356 -5.85789 -1.72288 0
M  V30 2892 H 263.77 -5.70718 0.543546 0
M  V30 2893 H 262.167 -5.85379 1.32103 0
M  V30 2894 H 263.237 -4.51389 1.77133 0
M  V30 2895 N 264.58 -0.43555 -1.51462 0
M  V30 2896 C 265.49 0.383001 -2.31453 0
M  V30 2897 C 266.506 1.02931 -1.4029 0
M  V30 2898 O 267.682 1.02507 -1.73362 0
M  V30 2899 C 264.747 1.47043 -3.13973 0
M  V30 2900 C 263.808 0.844433 -4.20913 0
M  V30 2901 C 263.041 1.88004 -4.9949 0
M  V30 2902 O 263.264 3.10199 -4.78678 0
M  V30 2903 O 262.198 1.47157 -5.83634 0
M  V30 2904 H 266.024 -0.269964 -3.02498 0
M  V30 2905 H 263.609 -0.19813 -1.4808 0
M  V30 2906 H 265.491 2.10113 -3.65281 0
M  V30 2907 H 264.166 2.10751 -2.45695 0
M  V30 2908 H 263.073 0.175729 -3.73687 0
M  V30 2909 H 264.406 0.250869 -4.9156 0
M  V30 2910 N 266.058 1.56714 -0.166846 0
M  V30 2911 C 267.005 2.17746 0.765193 0
M  V30 2912 C 267.975 1.11614 1.23011 0
M  V30 2913 O 269.16 1.39745 1.29908 0
M  V30 2914 C 266.3 2.81882 1.9909 0
M  V30 2915 C 265.413 4.02462 1.56997 0
M  V30 2916 C 264.548 4.54537 2.749 0
M  V30 2917 C 263.587 5.67538 2.29275 0
M  V30 2918 N 262.724 6.14142 3.40255 0
M  V30 2919 H 267.564 2.97048 0.237952 0
M  V30 2920 H 265.101 1.4672 0.105725 0
M  V30 2921 H 267.059 3.17221 2.70974 0
M  V30 2922 H 265.689 2.05191 2.49192 0
M  V30 2923 H 264.741 3.72973 0.748037 0
M  V30 2924 H 266.053 4.84273 1.19503 0
M  V30 2925 H 265.207 4.92035 3.54946 0
M  V30 2926 H 263.946 3.71774 3.1565 0
M  V30 2927 H 262.951 5.29597 1.47674 0
M  V30 2928 H 264.176 6.52099 1.89588 0
M  V30 2929 H 262.122 5.3431 3.8059 0
M  V30 2930 H 262.039 6.9093 3.06841 0
M  V30 2931 H 263.307 6.56289 4.206 0
M  V30 2932 N 267.536 -0.106894 1.57237 0
M  V30 2933 C 268.947 -0.662723 1.74542 0
M  V30 2934 C 269.298 -1.7971 0.787319 0
M  V30 2935 O 268.423 -2.16368 -0.0369636 0
M  V30 2936 C 269.018 -1.20896 3.16496 0
M  V30 2937 C 267.577 -1.71096 3.35266 0
M  V30 2938 C 266.724 -0.615642 2.7038 0
M  V30 2939 H 269.675 0.119106 1.58252 0
M  V30 2940 H 269.696 -2.07847 3.18716 0
M  V30 2941 H 269.208 -0.383122 3.86204 0
M  V30 2942 H 267.309 -2.56119 2.70618 0
M  V30 2943 H 267.422 -1.81208 4.43509 0
M  V30 2944 H 265.786 -1.05222 2.31949 0
M  V30 2945 H 266.569 0.199419 3.4272 0
M  V30 2946 N 269.014 -1.53014 -0.377408 0
M  V30 2947 C 269.962 -1.7927 -1.48206 0
M  V30 2948 C 270.956 -0.661195 -1.55963 0
M  V30 2949 O 272.162 -0.843908 -1.58991 0
M  V30 2950 H 268.537 -0.567425 -0.493491 0
M  V30 2951 H 270.508 -2.71753 -1.2326 0
M  V30 2952 C 269.257 -1.98894 -2.85196 0
M  V30 2953 H 268.58 -2.85395 -2.79981 0
M  V30 2954 H 270.02 -2.21249 -3.61698 0
M  V30 2955 C 268.479 -0.764691 -3.28107 0
M  V30 2956 O 269.009 0.0523226 -4.01666 0
M  V30 2957 N 267.215 -0.591493 -2.84517 0
M  V30 2958 H 266.762 -1.25749 -2.24822 0
M  V30 2959 H 266.72 0.226253 -3.13585 0
M  V30 2960 N 270.492 0.636531 -1.44174 0
M  V30 2961 C 271.717 1.42847 -1.50364 0
M  V30 2962 C 272.142 1.87665 -0.127867 0
M  V30 2963 O 271.5 1.58408 0.88185 0
M  V30 2964 C 271.548 2.62854 -2.4686 0
M  V30 2965 O 270.652 3.62501 -1.9664 0
M  V30 2966 H 269.993 0.427642 -0.507955 0
M  V30 2967 H 272.523 0.777422 -1.89255 0
M  V30 2968 H 272.533 3.10465 -2.64718 0
M  V30 2969 H 271.208 2.29578 -3.46795 0
M  V30 2970 H 269.785 3.21735 -1.88523 0
M  V30 2971 N 271.97 1.30982 0.876444 0
M  V30 2972 C 273.195 1.23373 1.66715 0
M  V30 2973 C 273.62 -0.19885 1.87046 0
M  V30 2974 O 272.978 -1.1427 1.40756 0
M  V30 2975 C 273.026 1.97644 3.01611 0
M  V30 2976 O 272.13 1.30935 3.91062 0
M  V30 2977 H 271.471 0.426279 0.509099 0
M  V30 2978 H 274.001 1.72944 1.09323 0
M  V30 2979 H 274.011 2.06992 3.51594 0
M  V30 2980 H 272.686 3.01829 2.86133 0
M  V30 2981 H 271.263 1.29996 3.49507 0
M  V30 2982 N 273.449 -1.08991 1.13837 0
M  V30 2983 C 274.695 -1.81526 0.90422 0
M  V30 2984 C 275.028 -1.85706 -0.568066 0
M  V30 2985 O 274.303 -1.32855 -1.42056 0
M  V30 2986 C 274.586 -3.27447 1.49835 0
M  V30 2987 C 274.439 -3.31512 3.04006 0
M  V30 2988 C 275.758 -4.24256 1.17025 0
M  V30 2989 H 272.877 -0.659029 0.329923 0
M  V30 2990 H 275.519 -1.27644 1.40737 0
M  V30 2991 H 273.669 -3.73462 1.07044 0
M  V30 2992 H 275.341 -2.93867 3.55584 0
M  V30 2993 H 273.584 -2.70963 3.38765 0
M  V30 2994 H 274.255 -4.34329 3.40679 0
M  V30 2995 H 276.731 -3.86549 1.54009 0
M  V30 2996 H 275.607 -5.24684 1.61237 0
M  V30 2997 H 275.868 -4.42019 0.0846274 0
M  V30 2998 N 274.927 -0.932562 -1.27047 0
M  V30 2999 C 275.89 -0.440064 -2.24936 0
M  V30 3000 C 276.89 0.444071 -1.54547 0
M  V30 3001 O 278.08 0.244465 -1.72476 0
M  V30 3002 C 275.212 0.36678 -3.38921 0
M  V30 3003 H 276.405 -1.305 -2.70018 0
M  V30 3004 H 273.958 -0.713707 -1.39054 0
M  V30 3005 H 274.693 1.25033 -2.99228 0
M  V30 3006 H 274.478 -0.267204 -3.91188 0
M  V30 3007 H 275.968 0.701567 -4.11665 0
M  V30 3008 N 276.405 1.4127 -0.698611 0
M  V30 3009 C 277.368 2.29158 -0.044132 0
M  V30 3010 C 278.368 1.44529 0.704841 0
M  V30 3011 O 279.558 1.65643 0.539276 0
M  V30 3012 C 276.69 3.27459 0.947809 0
M  V30 3013 H 277.883 2.88529 -0.817994 0
M  V30 3014 H 275.436 1.49307 -0.46228 0
M  V30 3015 H 276.171 2.73073 1.74933 0
M  V30 3016 H 275.956 3.8991 0.41385 0
M  V30 3017 H 277.446 3.93311 1.40344 0
M  V30 3018 N 277.883 0.443576 1.51229 0
M  V30 3019 C 278.83 -0.364716 2.279 0
M  V30 3020 C 279.8 -1.0114 1.31757 0
M  V30 3021 O 280.985 -1.02912 1.60667 0
M  V30 3022 C 278.125 -1.45644 3.12861 0
M  V30 3023 C 277.238 -0.827269 4.24005 0
M  V30 3024 C 276.373 -1.89456 4.96266 0
M  V30 3025 C 275.412 -1.24416 5.99322 0
M  V30 3026 N 274.549 -2.25309 6.64966 0
M  V30 3027 H 279.389 0.295464 2.96532 0
M  V30 3028 H 276.926 0.157554 1.46254 0
M  V30 3029 H 278.884 -2.10076 3.6045 0
M  V30 3030 H 277.514 -2.08616 2.46331 0
M  V30 3031 H 276.566 -0.0710839 3.80334 0
M  V30 3032 H 277.878 -0.312481 4.9782 0
M  V30 3033 H 277.032 -2.61535 5.47434 0
M  V30 3034 H 275.771 -2.4431 4.22095 0
M  V30 3035 H 274.776 -0.508868 5.4744 0
M  V30 3036 H 276.001 -0.702882 6.75453 0
M  V30 3037 H 273.947 -2.79231 5.93604 0
M  V30 3038 H 273.864 -1.78739 7.34567 0
M  V30 3039 H 275.132 -2.96853 7.20763 0
M  V30 3040 N 279.361 -1.56624 0.175154 0
M  V30 3041 C 280.61 -1.96173 -0.468921 0
M  V30 3042 C 280.923 -1.06401 -1.64128 0
M  V30 3043 O 282.129 -1.35648 -2.35185 0
M  V30 3044 C 280.585 -3.48833 -0.885633 0
M  V30 3045 C 280.193 -4.47237 0.261343 0
M  V30 3046 C 281.937 -3.97194 -1.49791 0
M  V30 3047 C 279.844 -5.9114 -0.175214 0
M  V30 3048 H 278.774 -0.732455 -0.178958 0
M  V30 3049 H 281.425 -1.81591 0.263997 0
M  V30 3050 H 279.807 -3.58848 -1.67464 0
M  V30 3051 H 280.981 -4.4894 1.03871 0
M  V30 3052 H 279.296 -4.08956 0.783827 0
M  V30 3053 H 281.893 -5.02167 -1.83665 0
M  V30 3054 H 282.236 -3.40351 -2.39722 0
M  V30 3055 H 282.769 -3.90212 -0.773267 0
M  V30 3056 H 279.508 -6.51865 0.689414 0
M  V30 3057 H 279.028 -5.92735 -0.91786 0
M  V30 3058 H 280.707 -6.44044 -0.617792 0
M  V30 3059 N 280.839 0.0985539 -1.57292 0
M  V30 3060 C 281.769 1.12064 -2.04851 0
M  V30 3061 C 282.75 1.41981 -0.936767 0
M  V30 3062 O 283.935 1.52071 -1.20781 0
M  V30 3063 C 281.065 2.44144 -2.47004 0
M  V30 3064 C 280.019 2.28643 -3.6181 0
M  V30 3065 C 279.345 3.65869 -3.89929 0
M  V30 3066 C 280.645 1.72986 -4.92822 0
M  V30 3067 H 282.339 0.724979 -2.9049 0
M  V30 3068 H 279.885 0.34729 -1.39749 0
M  V30 3069 H 281.838 3.15914 -2.78884 0
M  V30 3070 H 280.562 2.85639 -1.5836 0
M  V30 3071 H 279.221 1.59318 -3.30172 0
M  V30 3072 H 278.869 4.04885 -2.98458 0
M  V30 3073 H 278.569 3.56344 -4.67218 0
M  V30 3074 H 280.093 4.39112 -4.2428 0
M  V30 3075 H 281.507 2.34593 -5.23105 0
M  V30 3076 H 279.904 1.74229 -5.74251 0
M  V30 3077 H 280.974 0.689007 -4.7998 0
M  V30 3078 N 282.317 1.53212 0.369288 0
M  V30 3079 C 283.28 1.7872 1.43498 0
M  V30 3080 C 284.28 0.657554 1.46741 0
M  V30 3081 O 285.47 0.925736 1.47566 0
M  V30 3082 C 282.602 1.90591 2.82645 0
M  V30 3083 H 283.795 2.73894 1.22156 0
M  V30 3084 H 281.348 1.44233 0.602203 0
M  V30 3085 H 282.083 0.974709 3.09306 0
M  V30 3086 H 281.868 2.72751 2.8169 0
M  V30 3087 H 283.358 2.11931 3.59826 0
M  V30 3088 N 283.795 -0.628877 1.44509 0
M  V30 3089 C 285.044 -1.38437 1.4669 0
M  V30 3090 C 285.357 -1.95322 0.104272 0
M  V30 3091 O 286.563 -2.715 0.00362163 0
M  V30 3092 C 285.019 -2.50659 2.5826 0
M  V30 3093 C 284.627 -2.00277 4.0074 0
M  V30 3094 C 286.371 -3.27844 2.69664 0
M  V30 3095 C 284.278 -3.09854 5.0373 0
M  V30 3096 H 283.208 -0.520245 0.545766 0
M  V30 3097 H 285.859 -0.676313 1.70582 0
M  V30 3098 H 284.241 -3.2405 2.27612 0
M  V30 3099 H 285.415 -1.33736 4.40966 0
M  V30 3100 H 283.73 -1.35901 3.93599 0
M  V30 3101 H 286.327 -4.09534 3.43781 0
M  V30 3102 H 286.67 -3.77471 1.75559 0
M  V30 3103 H 287.203 -2.61543 2.99733 0
M  V30 3104 H 283.942 -2.65168 5.99472 0
M  V30 3105 H 283.462 -3.7503 4.68095 0
M  V30 3106 H 285.141 -3.74592 5.27532 0
M  V30 3107 N 285.273 -1.31445 -0.869486 0
M  V30 3108 C 286.522 -1.20517 -1.61736 0
M  V30 3109 C 286.835 0.235341 -1.94179 0
M  V30 3110 O 288.041 0.466312 -2.67465 0
M  V30 3111 C 286.497 -2.10982 -2.91573 0
M  V30 3112 C 286.105 -3.60032 -2.66611 0
M  V30 3113 C 287.849 -2.08856 -3.69567 0
M  V30 3114 C 285.756 -4.42503 -3.92358 0
M  V30 3115 H 284.686 -0.447493 -0.606849 0
M  V30 3116 H 287.337 -1.56303 -0.96133 0
M  V30 3117 H 285.719 -1.68095 -3.58553 0
M  V30 3118 H 286.893 -4.11167 -2.08035 0
M  V30 3119 H 285.208 -3.64139 -2.0197 0
M  V30 3120 H 287.805 -2.67716 -4.62852 0
M  V30 3121 H 288.148 -1.07582 -4.02159 0
M  V30 3122 H 288.681 -2.49945 -3.09471 0
M  V30 3123 H 285.42 -5.44533 -3.64916 0
M  V30 3124 H 284.94 -3.96125 -4.50383 0
M  V30 3125 H 286.619 -4.54741 -4.60238 0
M  V30 3126 N 286.751 1.08385 -1.14413 0
M  V30 3127 C 287.976 1.85057 -0.936413 0
M  V30 3128 C 288.401 1.81055 0.509971 0
M  V30 3129 O 287.759 1.1958 1.36273 0
M  V30 3130 C 287.807 3.30505 -1.44217 0
M  V30 3131 O 286.911 4.07491 -0.634409 0
M  V30 3132 H 286.252 0.573425 -0.334784 0
M  V30 3133 H 288.782 1.36799 -1.52142 0
M  V30 3134 H 288.792 3.81348 -1.45043 0
M  V30 3135 H 287.467 3.32734 -2.49522 0
M  V30 3136 H 286.044 3.66368 -0.694902 0
M  V30 3137 N 288.23 0.939286 1.26551 0
M  V30 3138 C 289.479 0.581601 1.93133 0
M  V30 3139 C 289.792 -0.883224 1.74524 0
M  V30 3140 O 290.998 -1.3502 2.35546 0
M  V30 3141 C 289.454 0.989425 3.46032 0
M  V30 3142 C 289.062 2.47573 3.73379 0
M  V30 3143 C 290.806 0.703544 4.18629 0
M  V30 3144 C 288.713 2.82235 5.19709 0
M  V30 3145 H 287.643 0.213803 0.723052 0
M  V30 3146 H 290.294 1.14167 1.4366 0
M  V30 3147 H 288.676 0.357902 3.94379 0
M  V30 3148 H 289.85 3.15614 3.35744 0
M  V30 3149 H 288.165 2.73471 3.1401 0
M  V30 3150 H 290.762 0.938869 5.26393 0
M  V30 3151 H 291.105 -0.359639 4.14744 0
M  V30 3152 H 291.638 1.2947 3.76141 0
M  V30 3153 H 288.377 3.87509 5.28694 0
M  V30 3154 H 287.897 2.18854 5.58447 0
M  V30 3155 H 289.576 2.70599 5.87695 0
M  V30 3156 N 289.708 -1.40897 0.706093 0
M  V30 3157 C 290.641 -2.282 -0.00328781 0
M  V30 3158 C 291.619 -1.42816 -0.77732 0
M  V30 3159 O 292.803 -1.72237 -0.765944 0
M  V30 3160 C 289.93 -3.23226 -1.01205 0
M  V30 3161 C 288.976 -4.25222 -0.329955 0
M  V30 3162 S 289.809 -5.27269 0.935298 0
M  V30 3163 C 290.965 -6.25859 -0.0716061 0
M  V30 3164 H 291.198 -2.88016 0.737143 0
M  V30 3165 H 288.731 -1.46191 0.496756 0
M  V30 3166 H 290.689 -3.78503 -1.58888 0
M  V30 3167 H 289.35 -2.62485 -1.72513 0
M  V30 3168 H 288.543 -4.92023 -1.09221 0
M  V30 3169 H 288.145 -3.73595 0.174069 0
M  V30 3170 H 290.437 -6.71204 -0.921521 0
M  V30 3171 H 291.38 -7.0586 0.562765 0
M  V30 3172 H 291.788 -5.62852 -0.431088 0
M  V30 3173 N 291.186 -0.45159 -1.50991 0
M  V30 3174 C 292.433 0.110074 -2.02201 0
M  V30 3175 C 292.761 1.4146 -1.33489 0
M  V30 3176 O 292.016 1.90617 -0.443125 0
M  V30 3177 C 292.315 0.361728 -3.55565 0
M  V30 3178 C 291.981 -0.858717 -4.42648 0
M  V30 3179 C 290.643 -1.19338 -4.66167 0
M  V30 3180 C 292.995 -1.67221 -4.93646 0
M  V30 3181 C 290.323 -2.34195 -5.37931 0
M  V30 3182 C 292.675 -2.8119 -5.6667 0
M  V30 3183 C 291.339 -3.15094 -5.88449 0
M  V30 3184 H 290.609 0.040279 -0.739904 0
M  V30 3185 H 293.256 -0.601696 -1.81802 0
M  V30 3186 H 291.561 1.15554 -3.74372 0
M  V30 3187 H 293.258 0.80996 -3.92735 0
M  V30 3188 H 289.848 -0.58796 -4.24548 0
M  V30 3189 H 294.032 -1.42686 -4.75347 0
M  V30 3190 H 289.288 -2.6076 -5.53005 0
M  V30 3191 H 293.462 -3.44585 -6.05173 0
M  V30 3192 H 291.089 -4.04204 -6.43835 0
M  V30 3193 N 292.664 1.56529 -0.183458 0
M  V30 3194 C 293.913 1.96419 0.458511 0
M  V30 3195 C 294.226 1.0727 1.63562 0
M  V30 3196 O 295.432 1.36893 2.34462 0
M  V30 3197 C 293.888 3.49298 0.867122 0
M  V30 3198 C 293.496 4.47092 -0.285057 0
M  V30 3199 C 295.24 3.97983 1.47683 0
M  V30 3200 C 293.147 5.91225 0.143862 0
M  V30 3201 H 292.077 0.733394 0.175071 0
M  V30 3202 H 294.728 1.81448 -0.273624 0
M  V30 3203 H 293.11 3.59731 1.65559 0
M  V30 3204 H 294.284 4.48383 -1.0625 0
M  V30 3205 H 292.599 4.08535 -0.805503 0
M  V30 3206 H 295.196 5.03134 1.80999 0
M  V30 3207 H 295.539 3.41618 2.37914 0
M  V30 3208 H 296.072 3.90617 0.752562 0
M  V30 3209 H 292.811 6.5149 -0.723974 0
M  V30 3210 H 292.331 5.93214 0.886413 0
M  V30 3211 H 294.01 6.44362 0.583628 0
M  V30 3212 N 294.142 -0.090211 1.57342 0
M  V30 3213 C 295.388 -0.793982 1.86611 0
M  V30 3214 C 295.721 -1.78142 0.773252 0
M  V30 3215 O 294.996 -1.93271 -0.218304 0
M  V30 3216 C 295.279 -1.51839 3.26523 0
M  V30 3217 C 295.132 -0.548609 4.46442 0
M  V30 3218 C 296.451 -2.46779 3.64401 0
M  V30 3219 H 293.57 -0.287186 0.678744 0
M  V30 3220 H 296.212 -0.0575076 1.89913 0
M  V30 3221 H 294.362 -2.14617 3.23839 0
M  V30 3222 H 296.034 0.0725513 4.61243 0
M  V30 3223 H 294.277 0.137614 4.33582 0
M  V30 3224 H 294.948 -1.09271 5.41076 0
M  V30 3225 H 297.424 -1.94089 3.68061 0
M  V30 3226 H 296.3 -2.94479 4.63221 0
M  V30 3227 H 296.561 -3.30758 2.93346 0
M  V30 3228 N 295.62 -1.53406 -0.361157 0
M  V30 3229 C 296.55 -1.83136 -1.44857 0
M  V30 3230 C 297.531 -0.685174 -1.5569 0
M  V30 3231 O 298.716 -0.93544 -1.70186 0
M  V30 3232 C 295.846 -2.02522 -2.82138 0
M  V30 3233 C 294.8 -3.18302 -2.86126 0
M  V30 3234 C 294.126 -3.22989 -4.26125 0
M  V30 3235 C 295.426 -4.56796 -2.53248 0
M  V30 3236 H 297.12 -2.74201 -1.20226 0
M  V30 3237 H 294.666 -1.31938 -0.576922 0
M  V30 3238 H 296.619 -2.21904 -3.58241 0
M  V30 3239 H 295.343 -1.08172 -3.08166 0
M  V30 3240 H 294.002 -2.98747 -2.12475 0
M  V30 3241 H 293.65 -2.26267 -4.49235 0
M  V30 3242 H 293.35 -4.00781 -4.29708 0
M  V30 3243 H 294.874 -3.44559 -5.04094 0
M  V30 3244 H 296.288 -4.7631 -3.19064 0
M  V30 3245 H 294.685 -5.36862 -2.68141 0
M  V30 3246 H 295.755 -4.61606 -1.48484 0
M  V30 3247 N 297.098 0.621204 -1.44841 0
M  V30 3248 C 298.323 1.41244 -1.51871 0
M  V30 3249 C 298.748 1.87519 -0.147764 0
M  V30 3250 O 298.106 1.59334 0.865 0
M  V30 3251 C 298.154 2.60221 -2.49634 0
M  V30 3252 O 297.258 3.60395 -2.00473 0
M  V30 3253 H 296.599 0.42223 -0.512463 0
M  V30 3254 H 299.129 0.757305 -1.90069 0
M  V30 3255 H 299.139 3.0764 -2.67996 0
M  V30 3256 H 297.814 2.25887 -3.4921 0
M  V30 3257 H 296.391 3.19717 -1.91925 0
M  V30 3258 N 298.576 1.31904 0.862503 0
M  V30 3259 C 299.804 1.24998 1.64873 0
M  V30 3260 C 300.219 -0.183425 1.87907 0
M  V30 3261 O 299.576 -1.11794 1.44251 0
M  V30 3262 C 299.627 1.99829 3.01248 0
M  V30 3263 O 299.348 3.37575 2.79239 0
M  V30 3264 C 300.849 1.99852 3.95694 0
M  V30 3265 H 298.069 0.431599 0.513773 0
M  V30 3266 H 300.613 1.73901 1.07604 0
M  V30 3267 H 298.768 1.54668 3.55185 0
M  V30 3268 H 299.182 3.75776 3.65914 0
M  V30 3269 H 300.656 2.56709 4.88676 0
M  V30 3270 H 301.133 0.982852 4.28062 0
M  V30 3271 H 301.739 2.44926 3.47694 0
M  V30 3272 N 300.054 -1.07777 1.14986 0
M  V30 3273 C 301.303 -1.79669 0.916617 0
M  V30 3274 C 301.616 -1.87474 -0.557917 0
M  V30 3275 O 302.822 -2.55845 -0.908617 0
M  V30 3276 C 301.278 -3.22848 1.59051 0
M  V30 3277 C 300.886 -3.23257 3.10176 0
M  V30 3278 C 302.63 -3.99379 1.43864 0
M  V30 3279 C 300.537 -4.61063 3.70372 0
M  V30 3280 H 299.467 -0.673349 0.33929 0
M  V30 3281 H 302.118 -1.21003 1.37951 0
M  V30 3282 H 300.5 -3.8168 1.0553 0
M  V30 3283 H 301.674 -2.74095 3.70417 0
M  V30 3284 H 299.989 -2.60222 3.25074 0
M  V30 3285 H 302.586 -5.0122 1.86232 0
M  V30 3286 H 302.929 -4.14511 0.385564 0
M  V30 3287 H 303.462 -3.47032 1.94457 0
M  V30 3288 H 300.201 -4.51135 4.7556 0
M  V30 3289 H 299.721 -5.1048 3.14913 0
M  V30 3290 H 301.4 -5.30034 3.71043 0
M  V30 3291 N 301.532 -0.945985 -1.26051 0
M  V30 3292 C 302.495 -0.463897 -2.24456 0
M  V30 3293 C 303.495 0.427655 -1.55009 0
M  V30 3294 O 304.685 0.226157 -1.72726 0
M  V30 3295 C 301.817 0.330812 -3.39291 0
M  V30 3296 H 303.01 -1.33357 -2.68619 0
M  V30 3297 H 300.563 -0.728416 -1.38289 0
M  V30 3298 H 301.298 1.21852 -3.00537 0
M  V30 3299 H 301.083 -0.308679 -3.90883 0
M  V30 3300 H 302.573 0.657865 -4.12386 0
M  V30 3301 N 303.011 1.40521 -0.713556 0
M  V30 3302 C 303.941 2.33381 -0.0743864 0
M  V30 3303 C 304.922 1.52784 0.747735 0
M  V30 3304 O 306.107 1.81258 0.697071 0
M  V30 3305 C 303.237 3.36748 0.849598 0
M  V30 3306 C 302.191 4.27793 0.133247 0
M  V30 3307 C 301.517 5.21679 1.17281 0
M  V30 3308 C 302.817 5.12415 -1.01134 0
M  V30 3309 H 304.511 2.87081 -0.850007 0
M  V30 3310 H 302.057 1.38034 -0.410201 0
M  V30 3311 H 304.01 4.00648 1.30612 0
M  V30 3312 H 302.734 2.81439 1.65709 0
M  V30 3313 H 301.393 3.65342 -0.303426 0
M  V30 3314 H 301.041 4.62677 1.9733 0
M  V30 3315 H 300.741 5.83435 0.698397 0
M  V30 3316 H 302.265 5.88456 1.62947 0
M  V30 3317 H 303.679 5.69781 -0.634274 0
M  V30 3318 H 302.076 5.83203 -1.41399 0
M  V30 3319 H 303.146 4.48514 -1.84292 0
M  V30 3320 N 304.489 0.459591 1.5075 0
M  V30 3321 C 305.714 -0.0996819 2.0716 0
M  V30 3322 C 306.139 -1.33761 1.32249 0
M  V30 3323 O 305.497 -1.77551 0.366786 0
M  V30 3324 C 305.545 -0.378226 3.58611 0
M  V30 3325 O 304.649 -1.46081 3.85661 0
M  V30 3326 H 303.99 0.00791392 0.663953 0
M  V30 3327 H 306.52 0.647329 1.9409 0
M  V30 3328 H 306.53 -0.622135 4.03229 0
M  V30 3329 H 305.205 0.526439 4.12555 0
M  V30 3330 H 303.782 -1.20511 3.5289 0
M  V30 3331 N 305.967 -1.56429 0.191757 0
M  V30 3332 C 306.897 -2.21937 -0.725696 0
M  V30 3333 C 307.878 -1.1814 -1.2238 0
M  V30 3334 O 309.063 -1.46636 -1.27325 0
M  V30 3335 C 306.193 -2.87611 -1.94672 0
M  V30 3336 C 305.147 -3.97623 -1.58366 0
M  V30 3337 C 304.473 -4.50446 -2.88102 0
M  V30 3338 C 305.773 -5.16197 -0.796133 0
M  V30 3339 H 307.467 -2.98861 -0.179606 0
M  V30 3340 H 305.013 -1.43749 -0.0849464 0
M  V30 3341 H 306.966 -3.3212 -2.59373 0
M  V30 3342 H 305.69 -2.08087 -2.51728 0
M  V30 3343 H 304.349 -3.53801 -0.960247 0
M  V30 3344 H 303.997 -3.67688 -3.43241 0
M  V30 3345 H 303.697 -5.24675 -2.64556 0
M  V30 3346 H 305.221 -4.97654 -3.53798 0
M  V30 3347 H 306.635 -5.57271 -1.34618 0
M  V30 3348 H 305.032 -5.96471 -0.658928 0
M  V30 3349 H 306.102 -4.84473 0.203478 0
M  V30 3350 N 307.445 0.0818655 -1.57387 0
M  V30 3351 C 308.393 1.11712 -2.04018 0
M  V30 3352 C 309.387 1.40683 -0.94364 0
M  V30 3353 O 310.593 1.40209 -1.12878 0
M  V30 3354 H 306.968 0.377542 -0.650358 0
M  V30 3355 H 308.939 0.697614 -2.90131 0
M  V30 3356 C 307.688 2.42537 -2.49141 0
M  V30 3357 H 307.011 2.21092 -3.33104 0
M  V30 3358 H 308.451 3.13446 -2.85531 0
M  V30 3359 C 306.91 3.0778 -1.37014 0
M  V30 3360 O 307.44 3.95436 -0.706621 0
M  V30 3361 N 305.646 2.68242 -1.11779 0
M  V30 3362 H 305.193 1.97052 -1.65917 0
M  V30 3363 H 305.151 3.1222 -0.369594 0
M  V30 3364 N 308.923 1.53595 0.353017 0
M  V30 3365 C 310.151 1.74311 1.1146 0
M  V30 3366 C 310.566 0.477854 1.82653 0
M  V30 3367 O 309.923 -0.549977 1.74016 0
M  V30 3368 C 309.974 2.91694 2.13534 0
M  V30 3369 O 309.695 4.13325 1.45238 0
M  V30 3370 C 311.196 3.24384 3.02142 0
M  V30 3371 H 308.416 0.582669 0.332773 0
M  V30 3372 H 310.96 2.00386 0.408107 0
M  V30 3373 H 309.115 2.67977 2.79763 0
M  V30 3374 H 309.529 4.79148 2.13349 0
M  V30 3375 H 311.003 4.09893 3.69718 0
M  V30 3376 H 311.48 2.40282 3.67643 0
M  V30 3377 H 312.086 3.50073 2.41514 0
M  V30 3378 N 310.401 -0.613514 1.45168 0
M  V30 3379 C 311.331 -1.7354 1.56225 0
M  V30 3380 C 312.312 -1.64981 0.41414 0
M  V30 3381 O 313.497 -1.83472 0.636526 0
M  V30 3382 C 310.627 -3.12128 1.52295 0
M  V30 3383 C 309.581 -3.35491 2.65762 0
M  V30 3384 C 308.907 -4.74291 2.46885 0
M  V30 3385 C 310.207 -3.26325 4.0781 0
M  V30 3386 H 311.901 -1.64543 2.50132 0
M  V30 3387 H 309.447 -0.790185 1.20383 0
M  V30 3388 H 311.4 -3.90404 1.58628 0
M  V30 3389 H 310.124 -3.2195 0.549139 0
M  V30 3390 H 308.783 -2.59603 2.58847 0
M  V30 3391 H 308.431 -4.80839 1.47657 0
M  V30 3392 H 308.131 -4.9088 3.22972 0
M  V30 3393 H 309.655 -5.54775 2.55063 0
M  V30 3394 H 311.069 -3.94483 4.16 0
M  V30 3395 H 309.466 -3.54445 4.8424 0
M  V30 3396 H 310.536 -2.23855 4.30136 0
M  V30 3397 N 311.879 -1.3236 -0.855495 0
M  V30 3398 C 313.29 -1.2056 -1.42556 0
M  V30 3399 C 313.641 0.182209 -1.95352 0
M  V30 3400 O 312.766 1.08088 -1.87472 0
M  V30 3401 C 313.361 -2.1826 -2.59129 0
M  V30 3402 C 311.92 -2.10351 -3.12137 0
M  V30 3403 C 311.067 -2.06674 -1.84882 0
M  V30 3404 H 314.018 -1.442 -0.662727 0
M  V30 3405 H 314.039 -1.78064 -3.36264 0
M  V30 3406 H 313.551 -3.19257 -2.20673 0
M  V30 3407 H 311.652 -1.12599 -3.55179 0
M  V30 3408 H 311.765 -3.00135 -3.73438 0
M  V30 3409 H 310.129 -1.51901 -2.04446 0
M  V30 3410 H 310.912 -3.09451 -1.48643 0
M  V30 3411 N 313.357 1.07166 -1.15556 0
M  V30 3412 C 314.267 2.17947 -0.868116 0
M  V30 3413 C 315.283 1.73297 0.156297 0
M  V30 3414 O 316.459 2.01392 -0.0182327 0
M  V30 3415 C 313.524 3.44789 -0.36355 0
M  V30 3416 C 312.585 4.03996 -1.45209 0
M  V30 3417 C 311.818 5.24783 -0.971508 0
M  V30 3418 O 312.041 5.70109 0.182194 0
M  V30 3419 O 310.975 5.75715 -1.75603 0
M  V30 3420 H 314.801 2.4503 -1.79427 0
M  V30 3421 H 312.386 1.16539 -0.934824 0
M  V30 3422 H 314.268 4.21307 -0.0887113 0
M  V30 3423 H 312.943 3.19253 0.534708 0
M  V30 3424 H 311.85 3.29009 -1.78056 0
M  V30 3425 H 313.183 4.33808 -2.32533 0
M  V30 3426 N 314.835 0.952656 1.25548 0
M  V30 3427 C 315.765 0.489287 2.28316 0
M  V30 3428 C 316.746 -0.463359 1.63667 0
M  V30 3429 O 317.931 -0.36274 1.90782 0
M  V30 3430 C 315.061 -0.235603 3.465 0
M  V30 3431 C 314.015 0.631593 4.23314 0
M  V30 3432 C 313.341 -0.223923 5.34231 0
M  V30 3433 C 314.641 1.90871 4.86174 0
M  V30 3434 H 316.335 1.34822 2.67326 0
M  V30 3435 H 313.881 0.649728 1.28509 0
M  V30 3436 H 315.834 -0.570882 4.17515 0
M  V30 3437 H 314.558 -1.12877 3.06474 0
M  V30 3438 H 313.217 0.949929 3.54079 0
M  V30 3439 H 312.865 -1.11678 4.90446 0
M  V30 3440 H 312.565 0.35299 5.86539 0
M  V30 3441 H 314.089 -0.554214 6.0808 0
M  V30 3442 H 315.503 1.63997 5.49343 0
M  V30 3443 H 313.9 2.43112 5.4865 0
M  V30 3444 H 314.97 2.61304 4.08471 0
M  V30 3445 N 316.313 -1.40141 0.720998 0
M  V30 3446 C 317.245 -2.29177 0.0324669 0
M  V30 3447 C 318.258 -1.46105 -0.718126 0
M  V30 3448 O 319.447 -1.69335 -0.564608 0
M  V30 3449 C 316.547 -3.24473 -0.978292 0
M  V30 3450 C 315.72 -4.36423 -0.292115 0
M  V30 3451 C 314.779 -5.12122 -1.20901 0
M  V30 3452 O 313.805 -5.64981 -0.691766 0
M  V30 3453 N 315.007 -5.21992 -2.53978 0
M  V30 3454 H 317.772 -2.88909 0.796984 0
M  V30 3455 H 315.333 -1.51569 0.569068 0
M  V30 3456 H 317.325 -3.71987 -1.59398 0
M  V30 3457 H 315.895 -2.65871 -1.64413 0
M  V30 3458 H 315.115 -3.90967 0.503847 0
M  V30 3459 H 316.403 -5.08467 0.183971 0
M  V30 3460 H 315.801 -4.8054 -2.98493 0
M  V30 3461 H 314.358 -5.72995 -3.10677 0
M  V30 3462 N 317.792 -0.46758 -1.50504 0
M  V30 3463 C 319.017 0.0886943 -2.0721 0
M  V30 3464 C 319.442 1.33057 -1.32956 0
M  V30 3465 O 318.8 1.77354 -0.376197 0
M  V30 3466 C 318.848 0.359202 -3.58806 0
M  V30 3467 O 317.952 1.44034 -3.8643 0
M  V30 3468 H 317.293 -0.0114349 -0.663902 0
M  V30 3469 H 319.823 -0.657613 -1.93744 0
M  V30 3470 H 319.833 0.600742 -4.03553 0
M  V30 3471 H 318.508 -0.548311 -4.1227 0
M  V30 3472 H 317.085 1.18638 -3.53524 0
M  V30 3473 N 319.27 1.56325 -0.20005 0
M  V30 3474 C 320.2 2.22318 0.713916 0
M  V30 3475 C 321.181 1.18788 1.21752 0
M  V30 3476 O 322.366 1.47309 1.26545 0
M  V30 3477 C 319.496 2.88639 1.93144 0
M  V30 3478 C 318.45 3.98457 1.56255 0
M  V30 3479 C 317.776 4.51967 2.85709 0
M  V30 3480 C 319.076 5.16612 0.768747 0
M  V30 3481 H 320.77 2.98952 0.163755 0
M  V30 3482 H 318.316 1.43792 0.0773219 0
M  V30 3483 H 320.269 3.33491 2.57608 0
M  V30 3484 H 318.993 2.09419 2.50621 0
M  V30 3485 H 317.652 3.54305 0.941471 0
M  V30 3486 H 317.3 3.69503 3.41287 0
M  V30 3487 H 317 5.26071 2.6177 0
M  V30 3488 H 318.524 4.99523 3.51154 0
M  V30 3489 H 319.938 5.57977 1.3166 0
M  V30 3490 H 318.335 5.96812 0.627286 0
M  V30 3491 H 319.405 4.84358 -0.229168 0
M  V30 3492 N 320.748 -0.0735177 1.57428 0
M  V30 3493 C 322.025 -0.805903 1.78226 0
M  V30 3494 C 322.405 -1.95874 0.787189 0
M  V30 3495 O 321.753 -2.2779 -0.180029 0
M  V30 3496 C 321.963 -1.28045 3.24662 0
M  V30 3497 C 323.311 -1.71453 3.88444 0
M  V30 3498 O 324.335 -1.37616 3.28543 0
M  V30 3499 O 323.194 -2.34093 4.93825 0
M  V30 3500 H 320.288 -0.386041 0.73137 0
M  V30 3501 H 322.834 -0.0537269 1.69615 0
M  V30 3502 H 321.606 -0.455476 3.8864 0
M  V30 3503 H 321.229 -2.094 3.37991 0
M  V30 3504 N 322.226 -1.5378 -0.344866 0
M  V30 3505 C 323.136 -1.84667 -1.4469 0
M  V30 3506 C 324.152 -0.736704 -1.57635 0
M  V30 3507 O 325.328 -1.02888 -1.73136 0
M  V30 3508 C 322.393 -2.04869 -2.79696 0
M  V30 3509 C 321.454 -3.28731 -2.76106 0
M  V30 3510 C 320.687 -3.4796 -4.04673 0
M  V30 3511 O 320.91 -2.71052 -5.01883 0
M  V30 3512 O 319.844 -4.41383 -4.09224 0
M  V30 3513 H 323.67 -2.78334 -1.21506 0
M  V30 3514 H 321.255 -1.39418 -0.536921 0
M  V30 3515 H 323.137 -2.19609 -3.59652 0
M  V30 3516 H 321.812 -1.14391 -3.02814 0
M  V30 3517 H 320.719 -3.19396 -1.94774 0
M  V30 3518 H 322.052 -4.19198 -2.57941 0
M  V30 3519 N 323.704 0.605807 -1.45491 0
M  V30 3520 C 324.951 1.36476 -1.49601 0
M  V30 3521 C 325.279 1.94007 -0.138452 0
M  V30 3522 O 324.534 1.75638 0.863114 0
M  V30 3523 C 324.833 2.53012 -2.52428 0
M  V30 3524 C 324.499 2.13617 -3.97087 0
M  V30 3525 C 323.161 2.02587 -4.36477 0
M  V30 3526 C 325.513 1.82899 -4.88055 0
M  V30 3527 C 322.841 1.59064 -5.64726 0
M  V30 3528 C 325.193 1.40861 -6.16718 0
M  V30 3529 C 323.857 1.28391 -6.55036 0
M  V30 3530 H 323.127 0.499402 -0.547429 0
M  V30 3531 H 325.774 0.684546 -1.78847 0
M  V30 3532 H 324.079 3.26379 -2.16758 0
M  V30 3533 H 325.776 3.1124 -2.52845 0
M  V30 3534 H 322.366 2.23129 -3.65939 0
M  V30 3535 H 326.55 1.90317 -4.58359 0
M  V30 3536 H 321.806 1.48034 -5.93208 0
M  V30 3537 H 325.98 1.16138 -6.86648 0
M  V30 3538 H 323.607 0.944403 -7.54311 0
M  V30 3539 N 325.182 1.32811 0.848464 0
M  V30 3540 C 326.43 1.23479 1.59991 0
M  V30 3541 C 326.751 -0.201853 1.93952 0
M  V30 3542 O 326.021 -1.12818 1.60153 0
M  V30 3543 H 324.601 0.454034 0.593179 0
M  V30 3544 H 327.263 1.66412 1.01455 0
M  V30 3545 H 326.359 1.82178 2.53412 0
M  V30 3546 N 326.66 -1.06551 1.16123 0
M  V30 3547 C 327.592 -2.13908 0.823171 0
M  V30 3548 C 328.605 -1.61926 -0.16843 0
M  V30 3549 O 329.794 -1.78412 0.055962 0
M  V30 3550 C 326.894 -3.38283 0.204424 0
M  V30 3551 C 326.067 -4.19589 1.23548 0
M  V30 3552 C 325.126 -5.2233 0.637011 0
M  V30 3553 O 324.152 -5.54034 1.30516 0
M  V30 3554 N 325.354 -5.77621 -0.577474 0
M  V30 3555 H 328.119 -2.43508 1.74711 0
M  V30 3556 H 325.68 -1.2253 1.05821 0
M  V30 3557 H 327.672 -4.0416 -0.208909 0
M  V30 3558 H 326.242 -3.06329 -0.623012 0
M  V30 3559 H 325.462 -3.49406 1.82507 0
M  V30 3560 H 326.75 -4.70718 1.93137 0
M  V30 3561 H 326.148 -5.54125 -1.13853 0
M  V30 3562 H 324.705 -6.45087 -0.933053 0
M  V30 3563 N 328.138 -0.959301 -1.25041 0
M  V30 3564 C 329.363 -0.633507 -1.97488 0
M  V30 3565 C 329.788 0.788555 -1.70773 0
M  V30 3566 O 329.146 1.53394 -0.966431 0
M  V30 3567 C 329.194 -0.904057 -3.49083 0
M  V30 3568 O 328.298 0.0147939 -4.12397 0
M  V30 3569 H 327.639 -0.240368 -0.618966 0
M  V30 3570 H 330.169 -1.28717 -1.59038 0
M  V30 3571 H 330.179 -0.832203 -3.99423 0
M  V30 3572 H 328.854 -1.94048 -3.67856 0
M  V30 3573 H 327.431 -0.109664 -3.72739 0
M  V30 3574 N 329.616 1.39756 -0.72842 0
M  V30 3575 C 330.844 2.04948 -0.283528 0
M  V30 3576 C 331.259 1.54908 1.0793 0
M  V30 3577 O 330.616 0.711135 1.68075 0
M  V30 3578 C 330.667 3.60498 -0.268957 0
M  V30 3579 O 330.388 4.08695 -1.57798 0
M  V30 3580 C 331.889 4.4288 0.192912 0
M  V30 3581 H 329.109 0.659243 -0.125056 0
M  V30 3582 H 331.653 1.78927 -0.990226 0
M  V30 3583 H 329.808 3.85444 0.388801 0
M  V30 3584 H 330.222 5.02977 -1.48709 0
M  V30 3585 H 331.696 5.51791 0.151952 0
M  V30 3586 H 332.173 4.21418 1.23708 0
M  V30 3587 H 332.779 4.23069 -0.435039 0
M  V30 3588 N 331.094 0.475555 1.50254 0
M  V30 3589 C 332.371 -0.139685 1.95101 0
M  V30 3590 C 332.751 -1.56555 1.41611 0
M  V30 3591 O 332.099 -2.19956 0.618993 0
M  V30 3592 C 332.309 -0.0784298 3.48912 0
M  V30 3593 C 333.657 -0.265095 4.23772 0
M  V30 3594 O 334.681 -0.154808 3.55863 0
M  V30 3595 O 333.54 -0.488327 5.44314 0
M  V30 3596 H 330.634 -0.109236 0.819754 0
M  V30 3597 H 333.18 0.536276 1.61004 0
M  V30 3598 H 331.952 0.916918 3.80405 0
M  V30 3599 H 331.575 -0.795655 3.89558 0
M  V30 3600 N 332.573 -1.56217 0.208337 0
M  V30 3601 C 333.521 -2.21053 -0.723769 0
M  V30 3602 C 334.515 -1.18578 -1.20978 0
M  V30 3603 O 335.721 -1.36691 -1.17114 0
M  V30 3604 H 332.096 -0.708595 -0.251788 0
M  V30 3605 H 334.067 -2.98006 -0.153365 0
M  V30 3606 C 332.816 -2.89417 -1.927 0
M  V30 3607 H 332.139 -3.68019 -1.56212 0
M  V30 3608 H 333.579 -3.38201 -2.55727 0
M  V30 3609 C 332.038 -1.91166 -2.77411 0
M  V30 3610 O 332.568 -1.42026 -3.75754 0
M  V30 3611 N 330.774 -1.59105 -2.43175 0
M  V30 3612 H 330.321 -1.99259 -1.63259 0
M  V30 3613 H 330.279 -0.936255 -3.00136 0
M  V30 3614 N 334.051 0.0651679 -1.57465 0
M  V30 3615 C 335.462 0.616213 -1.76238 0
M  V30 3616 C 335.813 1.7756 -0.834689 0
M  V30 3617 O 334.938 2.1639 -0.0204156 0
M  V30 3618 C 335.533 1.12462 -3.1959 0
M  V30 3619 C 334.092 1.62147 -3.39684 0
M  V30 3620 C 333.239 0.543739 -2.71917 0
M  V30 3621 H 336.19 -0.161022 -1.57881 0
M  V30 3622 H 336.211 1.99324 -3.24114 0
M  V30 3623 H 335.723 0.280592 -3.87084 0
M  V30 3624 H 333.824 2.48854 -2.77313 0
M  V30 3625 H 333.937 1.69385 -4.48158 0
M  V30 3626 H 332.301 0.990352 -2.34657 0
M  V30 3627 H 333.084 -0.290216 -3.42071 0
M  V30 3628 N 335.529 1.53961 0.336706 0
M  V30 3629 C 336.461 1.78751 1.4346 0
M  V30 3630 C 337.474 0.669019 1.48418 0
M  V30 3631 O 338.663 0.945884 1.51378 0
M  V30 3632 C 335.763 1.87844 2.82078 0
M  V30 3633 C 334.936 3.17854 3.00479 0
M  V30 3634 C 333.995 3.17816 4.19379 0
M  V30 3635 O 333.021 3.91511 4.13168 0
M  V30 3636 N 334.223 2.40669 5.2826 0
M  V30 3637 H 336.988 2.73493 1.22563 0
M  V30 3638 H 334.549 1.53096 0.526625 0
M  V30 3639 H 336.541 1.85261 3.59806 0
M  V30 3640 H 335.111 1.00257 2.96086 0
M  V30 3641 H 334.331 3.33504 2.10163 0
M  V30 3642 H 335.619 4.03718 3.0966 0
M  V30 3643 H 335.017 1.8036 5.36178 0
M  V30 3644 H 333.574 2.43877 6.04456 0
M  V30 3645 N 337.007 -0.598083 1.45811 0
M  V30 3646 C 337.937 -1.71873 1.58057 0
M  V30 3647 C 338.918 -1.64533 0.431615 0
M  V30 3648 O 340.103 -1.82787 0.65595 0
M  V30 3649 C 337.233 -3.10495 1.55597 0
M  V30 3650 C 336.187 -3.32654 2.69305 0
M  V30 3651 C 335.513 -4.71646 2.51902 0
M  V30 3652 C 336.813 -3.21981 4.11248 0
M  V30 3653 H 338.507 -1.61881 2.51863 0
M  V30 3654 H 336.053 -0.777372 1.21214 0
M  V30 3655 H 338.006 -3.88699 1.6276 0
M  V30 3656 H 336.73 -3.2135 0.583255 0
M  V30 3657 H 335.389 -2.56843 2.61586 0
M  V30 3658 H 335.037 -4.79246 1.52748 0
M  V30 3659 H 334.737 -4.87426 3.2816 0
M  V30 3660 H 336.261 -5.52038 2.60933 0
M  V30 3661 H 337.675 -3.90049 4.20161 0
M  V30 3662 H 336.072 -3.49289 4.87972 0
M  V30 3663 H 337.142 -2.1928 4.32486 0
M  V30 3664 N 338.485 -1.33259 -0.841409 0
M  V30 3665 C 339.448 -1.23221 -1.9326 0
M  V30 3666 C 340.448 -0.151895 -1.60081 0
M  V30 3667 O 341.638 -0.403246 -1.69468 0
M  V30 3668 C 338.77 -0.898123 -3.28856 0
M  V30 3669 H 339.963 -2.2021 -2.03587 0
M  V30 3670 H 337.516 -1.17281 -1.03319 0
M  V30 3671 H 338.251 0.0693841 -3.24226 0
M  V30 3672 H 338.036 -1.67934 -3.54317 0
M  V30 3673 H 339.526 -0.852563 -4.08805 0
M  V30 3674 N 339.963 1.05934 -1.16686 0
M  V30 3675 C 340.913 2.11764 -0.844978 0
M  V30 3676 C 341.897 1.59922 0.177178 0
M  V30 3677 O 343.089 1.76983 -0.0241768 0
M  V30 3678 C 340.218 3.41493 -0.351812 0
M  V30 3679 C 339.304 4.00152 -1.40496 0
M  V30 3680 N 339.695 4.32874 -2.61636 0
M  V30 3681 C 337.993 4.278 -1.26106 0
M  V30 3682 C 338.694 4.79552 -3.29249 0
M  V30 3683 N 337.67 4.79211 -2.56628 0
M  V30 3684 H 341.472 2.34916 -1.76612 0
M  V30 3685 H 338.986 1.23511 -1.05446 0
M  V30 3686 H 340.983 4.16773 -0.102796 0
M  V30 3687 H 339.643 3.19778 0.56322 0
M  V30 3688 H 340.654 4.23109 -2.98663 0
M  V30 3689 H 337.331 4.15511 -0.407081 0
M  V30 3690 H 338.721 5.14045 -4.32675 0
M  V30 3691 N 341.441 0.965919 1.2453 0
M  V30 3692 C 342.687 0.62776 1.92839 0
M  V30 3693 C 343.02 -0.834694 1.75347 0
M  V30 3694 O 342.295 -1.60031 1.10546 0
M  V30 3695 C 342.578 1.00109 3.45905 0
M  V30 3696 C 342.431 2.52011 3.72573 0
M  V30 3697 C 343.75 0.53435 4.36844 0
M  V30 3698 H 340.869 0.229537 0.700344 0
M  V30 3699 H 343.511 1.2046 1.46933 0
M  V30 3700 H 341.661 0.510238 3.85135 0
M  V30 3701 H 343.333 3.08559 3.42912 0
M  V30 3702 H 341.576 2.95287 3.17786 0
M  V30 3703 H 342.247 2.73183 4.79661 0
M  V30 3704 H 344.723 0.955565 4.04979 0
M  V30 3705 H 343.599 0.824152 5.42678 0
M  V30 3706 H 343.86 -0.565589 4.38467 0
M  V30 3707 N 342.919 -1.39368 0.735821 0
M  V30 3708 C 343.829 -2.34395 0.0979693 0
M  V30 3709 C 344.845 -1.58361 -0.720968 0
M  V30 3710 O 346.021 -1.90648 -0.649245 0
M  V30 3711 C 343.086 -3.37393 -0.797916 0
M  V30 3712 C 342.147 -4.29287 0.0333662 0
M  V30 3713 C 341.38 -5.27365 -0.819854 0
M  V30 3714 O 341.603 -5.31959 -2.05855 0
M  V30 3715 O 340.537 -6.01389 -0.248079 0
M  V30 3716 H 344.363 -2.90601 0.882315 0
M  V30 3717 H 341.948 -1.40909 0.4965 0
M  V30 3718 H 343.83 -4.00505 -1.31048 0
M  V30 3719 H 342.505 -2.83571 -1.56106 0
M  V30 3720 H 341.412 -3.69395 0.591475 0
M  V30 3721 H 342.745 -4.86317 0.758752 0
M  V30 3722 N 344.397 -0.483516 -1.5 0
M  V30 3723 C 345.36 0.292965 -2.2732 0
M  V30 3724 C 346.36 0.909499 -1.32608 0
M  V30 3725 O 347.55 0.776745 -1.55924 0
M  V30 3726 C 344.682 1.41854 -3.09984 0
M  V30 3727 H 345.875 -0.385289 -2.97415 0
M  V30 3728 H 343.428 -0.237942 -1.54478 0
M  V30 3729 H 344.163 2.13148 -2.44414 0
M  V30 3730 H 343.948 0.982114 -3.79601 0
M  V30 3731 H 345.438 1.96597 -3.68429 0
M  V30 3732 N 345.875 1.56104 -0.216619 0
M  V30 3733 C 347.121 1.98466 0.417033 0
M  V30 3734 C 347.454 1.10403 1.59765 0
M  V30 3735 O 346.729 0.160632 1.93836 0
M  V30 3736 C 347.012 3.49769 0.85637 0
M  V30 3737 C 346.865 4.48606 -0.327546 0
M  V30 3738 C 348.184 4.05339 1.7143 0
M  V30 3739 H 345.303 0.721551 0.150112 0
M  V30 3740 H 347.945 1.87423 -0.311864 0
M  V30 3741 H 346.095 3.5931 1.47745 0
M  V30 3742 H 347.767 4.5108 -0.965618 0
M  V30 3743 H 346.01 4.22682 -0.975805 0
M  V30 3744 H 346.681 5.51995 0.0227149 0
M  V30 3745 H 349.157 3.98712 1.19031 0
M  V30 3746 H 348.033 5.11533 1.99061 0
M  V30 3747 H 348.294 3.51918 2.67593 0
M  V30 3748 N 347.353 -0.0568162 1.57498 0
M  V30 3749 C 348.593 -0.758273 1.89815 0
M  V30 3750 C 348.957 -1.73978 0.812132 0
M  V30 3751 O 350.158 -2.48744 1.01881 0
M  V30 3752 C 348.429 -1.43465 3.27342 0
M  V30 3753 S 349.988 -2.1691 3.81439 0
M  V30 3754 H 346.806 -0.251836 0.664906 0
M  V30 3755 H 349.408 -0.0137997 1.95495 0
M  V30 3756 H 348.112 -0.706693 4.0427 0
M  V30 3757 H 347.643 -2.21825 3.24896 0
M  V30 3758 H 349.658 -3.43658 3.5793 0
M  V30 3759 N 348.832 -1.54138 -0.328536 0
M  V30 3760 C 350.081 -1.71318 -1.06456 0
M  V30 3761 C 350.394 -0.491109 -1.89334 0
M  V30 3762 O 351.6 -0.54416 -2.65991 0
M  V30 3763 C 350.056 -3.03 -1.94214 0
M  V30 3764 C 349.664 -4.32595 -1.16471 0
M  V30 3765 C 351.408 -3.29544 -2.67583 0
M  V30 3766 C 349.315 -5.55341 -2.03347 0
M  V30 3767 H 348.245 -0.638429 -0.401155 0
M  V30 3768 H 350.896 -1.80633 -0.323106 0
M  V30 3769 H 349.278 -2.87579 -2.72239 0
M  V30 3770 H 350.452 -4.58766 -0.432525 0
M  V30 3771 H 348.767 -4.12777 -0.548063 0
M  V30 3772 H 351.364 -4.18444 -3.3288 0
M  V30 3773 H 351.707 -2.47206 -3.34955 0
M  V30 3774 H 352.24 -3.45809 -1.96623 0
M  V30 3775 H 348.979 -6.40268 -1.40491 0
M  V30 3776 H 348.499 -5.33397 -2.74313 0
M  V30 3777 H 350.178 -5.91557 -2.62049 0
M  V30 3778 N 350.31 0.590341 -1.46126 0
M  V30 3779 C 351.273 1.68194 -1.55703 0
M  V30 3780 C 352.273 1.54808 -0.434868 0
M  V30 3781 O 353.463 1.59564 -0.698928 0
M  V30 3782 C 350.595 3.07575 -1.47005 0
M  V30 3783 H 351.788 1.61064 -2.52979 0
M  V30 3784 H 349.341 0.807541 -1.33823 0
M  V30 3785 H 350.076 3.20268 -0.509785 0
M  V30 3786 H 349.861 3.187 -2.28414 0
M  V30 3787 H 351.351 3.87055 -1.56776 0
M  V30 3788 N 351.788 1.33704 0.83433 0
M  V30 3789 C 353.034 1.26612 1.59188 0
M  V30 3790 C 353.389 -0.165439 1.91687 0
M  V30 3791 O 352.682 -1.10873 1.56262 0
M  V30 3792 C 352.876 2.07926 2.90692 0
M  V30 3793 C 352.705 3.58844 2.71038 0
M  V30 3794 C 351.475 4.28148 2.68361 0
M  V30 3795 C 353.673 4.53082 2.43353 0
M  V30 3796 N 351.655 5.64987 2.40132 0
M  V30 3797 C 353.026 5.77843 2.24716 0
M  V30 3798 C 355.081 4.42119 2.28987 0
M  V30 3799 C 353.784 6.92877 1.9317 0
M  V30 3800 C 355.81 5.56973 1.98835 0
M  V30 3801 C 355.172 6.80745 1.81012 0
M  V30 3802 H 351.271 0.518517 0.585375 0
M  V30 3803 H 353.855 1.68294 0.979044 0
M  V30 3804 H 352.026 1.68558 3.49918 0
M  V30 3805 H 353.758 1.92568 3.55949 0
M  V30 3806 H 350.513 3.80469 2.82029 0
M  V30 3807 H 350.937 6.37133 2.28889 0
M  V30 3808 H 355.579 3.47058 2.41477 0
M  V30 3809 H 353.297 7.87931 1.79418 0
M  V30 3810 H 356.883 5.50428 1.88468 0
M  V30 3811 H 355.763 7.68115 1.58017 0
M  V30 3812 N 353.266 -1.05314 1.17247 0
M  V30 3813 C 354.513 -1.78293 0.960091 0
M  V30 3814 C 354.841 -1.87658 -0.51136 0
M  V30 3815 O 354.096 -1.3718 -1.39571 0
M  V30 3816 C 354.395 -3.2229 1.54479 0
M  V30 3817 C 354.061 -3.32987 3.04024 0
M  V30 3818 C 352.723 -3.35613 3.44844 0
M  V30 3819 C 355.075 -3.34102 4.00031 0
M  V30 3820 C 352.403 -3.36982 4.8027 0
M  V30 3821 C 354.755 -3.3701 5.35357 0
M  V30 3822 C 353.419 -3.37923 5.75642 0
M  V30 3823 H 352.689 -0.652422 0.351322 0
M  V30 3824 H 355.336 -1.23782 1.46117 0
M  V30 3825 H 353.641 -3.7972 0.965391 0
M  V30 3826 H 355.338 -3.77376 1.35603 0
M  V30 3827 H 351.928 -3.31655 2.71483 0
M  V30 3828 H 356.112 -3.31276 3.69554 0
M  V30 3829 H 351.368 -3.35999 5.10798 0
M  V30 3830 H 355.542 -3.36822 6.09528 0
M  V30 3831 H 353.169 -3.38738 6.80559 0
M  V30 3832 N 354.744 -0.972509 -1.24016 0
M  V30 3833 C 355.972 -0.654803 -1.96265 0
M  V30 3834 C 356.387 0.776708 -1.72083 0
M  V30 3835 O 355.744 1.52171 -1.00748 0
M  V30 3836 C 355.795 -0.92592 -3.49441 0
M  V30 3837 O 355.516 -2.30116 -3.72798 0
M  V30 3838 C 357.017 -0.623068 -4.38899 0
M  V30 3839 H 354.237 -0.243907 -0.6251 0
M  V30 3840 H 356.781 -1.30175 -1.57717 0
M  V30 3841 H 354.936 -0.325108 -3.86033 0
M  V30 3842 H 355.35 -2.38483 -4.67147 0
M  V30 3843 H 356.824 -0.863189 -5.45209 0
M  V30 3844 H 357.301 0.442754 -4.36963 0
M  V30 3845 H 357.907 -1.204 -4.07902 0
M  V30 3846 N 356.222 1.38976 -0.743202 0
M  V30 3847 C 357.155 2.28128 -0.0572165 0
M  V30 3848 C 358.133 1.44827 0.739182 0
M  V30 3849 O 359.317 1.74207 0.720009 0
M  V30 3850 C 356.444 3.25796 0.926001 0
M  V30 3851 C 355.49 4.25947 0.217099 0
M  V30 3852 S 356.323 5.24604 -1.07477 0
M  V30 3853 C 357.479 6.25829 -0.0943545 0
M  V30 3854 H 357.712 2.85961 -0.813246 0
M  V30 3855 H 355.245 1.44822 -0.535341 0
M  V30 3856 H 357.203 3.82583 1.48797 0
M  V30 3857 H 355.864 2.66966 1.65493 0
M  V30 3858 H 355.057 4.94746 0.961372 0
M  V30 3859 H 354.659 3.73002 -0.273059 0
M  V30 3860 H 356.951 6.73411 0.743239 0
M  V30 3861 H 357.894 7.0412 -0.749713 0
M  V30 3862 H 358.302 5.63797 0.281706 0
M  V30 3863 N 357.7 0.491464 1.49741 0
M  V30 3864 C 358.61 -0.296835 2.32715 0
M  V30 3865 C 359.626 -0.976536 1.44013 0
M  V30 3866 O 360.802 -0.960023 1.77047 0
M  V30 3867 C 357.867 -1.35288 3.19215 0
M  V30 3868 C 356.928 -0.687632 4.23757 0
M  V30 3869 C 356.161 -1.69336 5.06123 0
M  V30 3870 O 356.384 -2.92219 4.89861 0
M  V30 3871 O 355.318 -1.25394 5.88693 0
M  V30 3872 H 359.144 0.382048 3.01287 0
M  V30 3873 H 356.729 0.252953 1.47243 0
M  V30 3874 H 358.611 -1.96411 3.72828 0
M  V30 3875 H 357.286 -2.01487 2.53347 0
M  V30 3876 H 356.193 -0.0369159 3.74082 0
M  V30 3877 H 357.526 -0.0682566 4.92153 0
M  V30 3878 N 359.178 -1.55987 0.224894 0
M  V30 3879 C 360.408 -2.02489 -0.41007 0
M  V30 3880 C 360.816 -1.10391 -1.53657 0
M  V30 3881 O 360.159 -0.106458 -1.83391 0
M  V30 3882 C 360.221 -3.45319 -0.999757 0
M  V30 3883 C 359.885 -4.56999 -0.00827976 0
M  V30 3884 C 360.882 -5.13812 0.793314 0
M  V30 3885 C 358.567 -5.02176 0.111442 0
M  V30 3886 C 360.561 -6.14276 1.7013 0
M  V30 3887 C 358.248 -6.02477 1.02296 0
M  V30 3888 C 359.246 -6.58403 1.81643 0
M  V30 3889 O 358.934 -7.56751 2.71262 0
M  V30 3890 H 358.666 -0.667915 -0.104235 0
M  V30 3891 H 361.22 -2.0257 0.339782 0
M  V30 3892 H 359.45 -3.42318 -1.79876 0
M  V30 3893 H 361.139 -3.7545 -1.54248 0
M  V30 3894 H 361.905 -4.79756 0.711288 0
M  V30 3895 H 357.784 -4.58323 -0.49605 0
M  V30 3896 H 361.328 -6.57854 2.32107 0
M  V30 3897 H 357.225 -6.35954 1.10599 0
M  V30 3898 H 357.993 -7.74286 2.65375 0
M  V30 3899 N 360.656 0.0484629 -1.57525 0
M  V30 3900 C 361.586 1.0549 -2.08313 0
M  V30 3901 C 362.567 1.38929 -0.981463 0
M  V30 3902 O 363.752 1.48151 -1.25558 0
M  V30 3903 C 360.882 2.36162 -2.54646 0
M  V30 3904 C 359.836 2.17016 -3.68901 0
M  V30 3905 C 359.162 3.53278 -4.01371 0
M  V30 3906 C 360.462 1.57219 -4.98076 0
M  V30 3907 H 362.156 0.632195 -2.92649 0
M  V30 3908 H 359.702 0.302654 -1.40784 0
M  V30 3909 H 361.655 3.06882 -2.88793 0
M  V30 3910 H 360.379 2.80456 -1.67368 0
M  V30 3911 H 359.038 1.48733 -3.35073 0
M  V30 3912 H 358.686 3.95185 -3.11188 0
M  V30 3913 H 358.386 3.41299 -4.78318 0
M  V30 3914 H 359.91 4.25391 -4.38035 0
M  V30 3915 H 361.324 2.17832 -5.30304 0
M  V30 3916 H 359.721 1.55871 -5.79503 0
M  V30 3917 H 360.791 0.535956 -4.81929 0
M  V30 3918 N 362.134 1.5431 0.320358 0
M  V30 3919 C 363.064 1.86912 1.3995 0
M  V30 3920 C 364.045 0.726211 1.53819 0
M  V30 3921 O 365.23 0.980233 1.67646 0
M  V30 3922 C 362.36 2.09932 2.7667 0
M  V30 3923 C 361.314 3.25776 2.77586 0
M  V30 3924 C 360.64 3.34173 4.17412 0
M  V30 3925 C 361.94 4.6335 2.41048 0
M  V30 3926 H 363.634 2.77292 1.12914 0
M  V30 3927 H 361.18 1.33421 0.541738 0
M  V30 3928 H 363.133 2.31324 3.52232 0
M  V30 3929 H 361.857 1.16304 3.0519 0
M  V30 3930 H 360.516 3.04276 2.04479 0
M  V30 3931 H 360.164 2.38098 4.43078 0
M  V30 3932 H 359.864 4.12033 4.18931 0
M  V30 3933 H 361.388 3.57803 4.94782 0
M  V30 3934 H 362.802 4.84602 3.06324 0
M  V30 3935 H 361.199 5.43782 2.53813 0
M  V30 3936 H 362.269 4.65381 1.36193 0
M  V30 3937 N 363.613 -0.582584 1.46437 0
M  V30 3938 C 365.029 -0.905962 1.31394 0
M  V30 3939 C 365.229 -1.99468 0.285476 0
M  V30 3940 O 364.285 -2.50566 -0.311914 0
M  V30 3941 C 365.598 -1.3232 2.70022 0
M  V30 3942 C 367.146 -1.43604 2.78113 0
M  V30 3943 C 367.621 -1.88694 4.17323 0
M  V30 3944 N 369.112 -1.95887 4.19741 0
M  V30 3945 C 369.847 -2.32051 5.24347 0
M  V30 3946 N 369.343 -2.67006 6.39281 0
M  V30 3947 N 371.136 -2.32606 5.11713 0
M  V30 3948 H 363.287 0.1366 2.1196 0
M  V30 3949 H 365.55 -0.00155736 0.947999 0
M  V30 3950 H 365.256 -0.597242 3.46592 0
M  V30 3951 H 365.13 -2.28469 3.00136 0
M  V30 3952 H 367.517 -2.15286 2.01832 0
M  V30 3953 H 367.598 -0.457059 2.51684 0
M  V30 3954 H 367.242 -1.1759 4.941 0
M  V30 3955 H 367.172 -2.8755 4.4116 0
M  V30 3956 H 369.663 -1.71362 3.36814 0
M  V30 3957 H 369.976 -2.93554 7.14875 0
M  V30 3958 H 368.321 -2.64644 6.42642 0
M  V30 3959 H 371.512 -2.04721 4.2096 0
M  V30 3960 H 371.685 -2.60462 5.93349 0
M  V30 3961 N 365.091 -1.34144 -0.827227 0
M  V30 3962 C 366.338 -1.26258 -1.58319 0
M  V30 3963 C 366.666 0.168595 -1.93768 0
M  V30 3964 O 365.921 1.12877 -1.59866 0
M  V30 3965 C 366.22 -2.09464 -2.89585 0
M  V30 3966 C 365.886 -3.58521 -2.73448 0
M  V30 3967 C 364.548 -3.99155 -2.68754 0
M  V30 3968 C 366.9 -4.53189 -2.57428 0
M  V30 3969 C 364.228 -5.32656 -2.45957 0
M  V30 3970 C 366.58 -5.86864 -2.36163 0
M  V30 3971 C 365.244 -6.26667 -2.29879 0
M  V30 3972 H 364.514 -0.462013 -0.579332 0
M  V30 3973 H 367.161 -1.65845 -0.95748 0
M  V30 3974 H 365.466 -1.62692 -3.56425 0
M  V30 3975 H 367.163 -2.00712 -3.47154 0
M  V30 3976 H 363.753 -3.26264 -2.77939 0
M  V30 3977 H 367.937 -4.22696 -2.60081 0
M  V30 3978 H 363.193 -5.62519 -2.39546 0
M  V30 3979 H 367.367 -6.59813 -2.22754 0
M  V30 3980 H 364.994 -7.30049 -2.11975 0
M  V30 3981 N 366.569 1.04691 -1.17803 0
M  V30 3982 C 367.499 2.14494 -0.92275 0
M  V30 3983 C 368.48 1.69546 0.137179 0
M  V30 3984 O 369.665 1.94195 -0.0141108 0
M  V30 3985 C 366.795 3.44491 -0.440803 0
M  V30 3986 C 365.749 4.03031 -1.4405 0
M  V30 3987 C 365.075 5.28432 -0.81631 0
M  V30 3988 C 366.375 4.39932 -2.81527 0
M  V30 3989 H 368.069 2.36107 -1.84103 0
M  V30 3990 H 365.615 1.1347 -0.886599 0
M  V30 3991 H 367.568 4.2066 -0.249602 0
M  V30 3992 H 366.292 3.22546 0.513025 0
M  V30 3993 H 364.951 3.28937 -1.61853 0
M  V30 3994 H 364.599 5.02792 0.144511 0
M  V30 3995 H 364.299 5.68559 -1.48371 0
M  V30 3996 H 365.823 6.07284 -0.635496 0
M  V30 3997 H 367.237 5.07113 -2.67412 0
M  V30 3998 H 365.634 4.9109 -3.44892 0
M  V30 3999 H 366.704 3.50045 -3.35554 0
M  V30 4000 N 368.047 0.979072 1.23499 0
M  V30 4001 C 369.272 0.664845 1.96455 0
M  V30 4002 C 369.697 -0.761287 1.72006 0
M  V30 4003 O 369.055 -1.51837 0.990713 0
M  V30 4004 C 369.103 0.959479 3.47601 0
M  V30 4005 O 368.207 0.0508168 4.12369 0
M  V30 4006 H 367.548 0.250185 0.615064 0
M  V30 4007 H 370.078 1.31231 1.5697 0
M  V30 4008 H 370.088 0.895642 3.98048 0
M  V30 4009 H 368.763 1.99876 3.64723 0
M  V30 4010 H 367.34 0.16895 3.72517 0
M  V30 4011 N 369.525 -1.3858 0.750561 0
M  V30 4012 C 370.75 -2.04997 0.314812 0
M  V30 4013 C 371.175 -1.56235 -1.04749 0
M  V30 4014 O 370.533 -0.712981 -1.66692 0
M  V30 4015 C 370.581 -3.58961 0.343415 0
M  V30 4016 O 369.685 -4.07025 -0.663628 0
M  V30 4017 H 369.026 -0.649081 0.139962 0
M  V30 4018 H 371.556 -1.77313 1.02084 0
M  V30 4019 H 371.566 -4.07542 0.193233 0
M  V30 4020 H 370.241 -3.93811 1.33738 0
M  V30 4021 H 368.818 -3.6982 -0.478307 0
M  V30 4022 N 371.003 -0.499398 -1.49478 0
M  V30 4023 C 372.414 -0.051215 -1.8663 0
M  V30 4024 C 372.765 1.36238 -1.41186 0
M  V30 4025 O 371.89 2.01502 -0.789051 0
M  V30 4026 C 372.485 -0.0861651 -3.3869 0
M  V30 4027 C 371.044 0.30667 -3.75149 0
M  V30 4028 C 370.191 -0.459397 -2.73468 0
M  V30 4029 H 373.142 -0.712264 -1.41818 0
M  V30 4030 H 373.163 0.709507 -3.73826 0
M  V30 4031 H 372.675 -1.11512 -3.71735 0
M  V30 4032 H 370.776 1.33892 -3.47712 0
M  V30 4033 H 370.889 -0.0116669 -4.79099 0
M  V30 4034 H 369.253 0.0905645 -2.54539 0
M  V30 4035 H 370.036 -1.4884 -3.09357 0
M  V30 4036 N 372.481 1.55866 -0.233164 0
M  V30 4037 C 373.428 2.20796 0.67215 0
M  V30 4038 C 374.398 1.16731 1.18166 0
M  V30 4039 O 375.583 1.45129 1.23864 0
M  V30 4040 C 372.723 2.90072 1.86955 0
M  V30 4041 C 371.836 4.08759 1.39786 0
M  V30 4042 C 370.971 4.65787 2.55374 0
M  V30 4043 C 370.01 5.76752 2.04998 0
M  V30 4044 N 369.147 6.28021 3.13901 0
M  V30 4045 H 373.987 2.9779 0.111749 0
M  V30 4046 H 371.524 1.47036 0.0434007 0
M  V30 4047 H 373.482 3.28428 2.57276 0
M  V30 4048 H 372.112 2.15575 2.40265 0
M  V30 4049 H 371.164 3.7581 0.589173 0
M  V30 4050 H 372.476 4.88906 0.98856 0
M  V30 4051 H 371.63 5.06646 3.33758 0
M  V30 4052 H 370.369 3.84828 2.99598 0
M  V30 4053 H 369.374 5.35383 1.25079 0
M  V30 4054 H 370.599 6.59553 1.61759 0
M  V30 4055 H 368.545 5.49971 3.57586 0
M  V30 4056 H 368.462 7.03323 2.7726 0
M  V30 4057 H 369.73 6.73538 3.92386 0
M  V30 4058 N 373.959 -0.0401083 1.57549 0
M  V30 4059 C 374.906 -1.04413 2.05831 0
M  V30 4060 C 375.876 -1.36585 0.945184 0
M  V30 4061 O 377.061 -1.47112 1.21502 0
M  V30 4062 C 374.201 -2.34336 2.53339 0
M  V30 4063 C 373.314 -2.08419 3.78398 0
M  V30 4064 C 372.449 -3.32133 4.14561 0
M  V30 4065 C 371.488 -3.01721 5.3257 0
M  V30 4066 N 370.625 -4.17855 5.64218 0
M  V30 4067 H 375.465 -0.625442 2.91363 0
M  V30 4068 H 373.002 -0.297218 1.44066 0
M  V30 4069 H 374.96 -3.10234 2.78946 0
M  V30 4070 H 373.59 -2.73948 1.7074 0
M  V30 4071 H 372.642 -1.23069 3.59942 0
M  V30 4072 H 373.954 -1.81978 4.64419 0
M  V30 4073 H 373.108 -4.16406 4.41238 0
M  V30 4074 H 371.847 -3.61678 3.2717 0
M  V30 4075 H 370.852 -2.15849 5.05657 0
M  V30 4076 H 372.077 -2.73466 6.21605 0
M  V30 4077 H 370.023 -4.47372 4.79786 0
M  V30 4078 H 369.94 -3.94798 6.44725 0
M  V30 4079 H 371.208 -5.03033 5.95465 0
M  V30 4080 N 375.437 -1.54477 -0.31217 0
M  V30 4081 C 376.683 -1.74417 -1.04644 0
M  V30 4082 C 377.038 -0.517641 -1.85306 0
M  V30 4083 O 376.331 0.489973 -1.85229 0
M  V30 4084 C 376.525 -2.967 -1.99258 0
M  V30 4085 C 376.354 -4.31128 -1.27901 0
M  V30 4086 C 375.124 -4.95087 -1.01079 0
M  V30 4087 C 377.322 -5.09662 -0.689119 0
M  V30 4088 N 375.304 -6.13322 -0.266323 0
M  V30 4089 C 376.675 -6.19952 -0.0768523 0
M  V30 4090 C 378.73 -4.94355 -0.593061 0
M  V30 4091 C 377.433 -7.16604 0.622165 0
M  V30 4092 C 379.459 -5.91328 0.0922792 0
M  V30 4093 C 378.821 -7.00978 0.693443 0
M  V30 4094 H 374.92 -0.69094 -0.366231 0
M  V30 4095 H 377.504 -1.91946 -0.326319 0
M  V30 4096 H 375.675 -2.80616 -2.68532 0
M  V30 4097 H 377.407 -3.05216 -2.65755 0
M  V30 4098 H 374.162 -4.55235 -1.30607 0
M  V30 4099 H 374.586 -6.76937 0.0920973 0
M  V30 4100 H 379.228 -4.09719 -1.04355 0
M  V30 4101 H 376.946 -8.0079 1.08445 0
M  V30 4102 H 380.532 -5.81562 0.166396 0
M  V30 4103 H 379.412 -7.74725 1.21533 0
M  V30 4104 N 376.915 0.57481 -1.46744 0
M  V30 4105 C 377.862 1.68329 -1.57905 0
M  V30 4106 C 378.832 1.60625 -0.422927 0
M  V30 4107 O 380.017 1.79721 -0.640711 0
M  V30 4108 C 377.157 3.06665 -1.58274 0
M  V30 4109 C 376.27 3.24935 -2.84678 0
M  V30 4110 C 375.405 4.53566 -2.76499 0
M  V30 4111 C 374.444 4.65207 -3.97806 0
M  V30 4112 N 373.581 5.85172 -3.87967 0
M  V30 4113 H 378.421 1.58127 -2.52587 0
M  V30 4114 H 375.958 0.770552 -1.25303 0
M  V30 4115 H 377.916 3.86745 -1.56473 0
M  V30 4116 H 376.546 3.15745 -0.671194 0
M  V30 4117 H 375.598 2.38405 -2.96424 0
M  V30 4118 H 376.91 3.29403 -3.7456 0
M  V30 4119 H 376.064 5.41885 -2.72848 0
M  V30 4120 H 374.803 4.51548 -1.8427 0
M  V30 4121 H 373.808 3.75304 -4.0178 0
M  V30 4122 H 375.033 4.68997 -4.9114 0
M  V30 4123 H 372.979 5.84137 -2.98529 0
M  V30 4124 H 372.896 5.90943 -4.71511 0
M  V30 4125 H 374.164 6.759 -3.88303 0
M  V30 4126 N 378.394 1.34581 0.820102 0
M  V30 4127 C 379.641 1.27096 1.57648 0
M  V30 4128 C 379.969 -0.158317 1.93855 0
M  V30 4129 O 379.224 -1.12028 1.60463 0
M  V30 4130 C 379.523 2.10997 2.8847 0
M  V30 4131 C 379.189 3.59966 2.71543 0
M  V30 4132 C 377.851 4.00575 2.66634 0
M  V30 4133 C 380.203 4.54548 2.55021 0
M  V30 4134 C 377.531 5.33953 2.43128 0
M  V30 4135 C 379.883 5.88109 2.33047 0
M  V30 4136 C 378.547 6.27878 2.26552 0
M  V30 4137 H 377.817 0.465078 0.576874 0
M  V30 4138 H 380.464 1.6635 0.948671 0
M  V30 4139 H 378.769 1.6458 3.55557 0
M  V30 4140 H 380.466 2.0255 3.46084 0
M  V30 4141 H 377.056 3.27733 2.76205 0
M  V30 4142 H 381.24 4.24069 2.57835 0
M  V30 4143 H 376.496 5.63781 2.3656 0
M  V30 4144 H 380.67 6.60985 2.19251 0
M  V30 4145 H 378.297 7.31162 2.081 0
M  V30 4146 N 379.872 -1.04064 1.18357 0
M  V30 4147 C 381.119 -1.77265 0.978947 0
M  V30 4148 C 381.447 -1.88189 -0.491428 0
M  V30 4149 O 380.702 -1.38653 -1.38108 0
M  V30 4150 C 381.001 -3.20634 1.57888 0
M  V30 4151 C 380.667 -3.29743 3.07539 0
M  V30 4152 C 379.329 -3.31937 3.48384 0
M  V30 4153 C 381.681 -3.29841 4.03552 0
M  V30 4154 C 379.009 -3.3187 4.83818 0
M  V30 4155 C 381.361 -3.31313 5.38901 0
M  V30 4156 C 380.025 -3.31799 5.79194 0
M  V30 4157 H 379.295 -0.648659 0.358222 0
M  V30 4158 H 381.942 -1.22225 1.47422 0
M  V30 4159 H 380.247 -3.78675 1.00561 0
M  V30 4160 H 381.944 -3.75917 1.39598 0
M  V30 4161 H 378.534 -3.28757 2.74986 0
M  V30 4162 H 382.718 -3.27337 3.73047 0
M  V30 4163 H 377.974 -3.30562 5.14333 0
M  V30 4164 H 382.148 -3.30338 6.13066 0
M  V30 4165 H 379.775 -3.315 6.84114 0
M  V30 4166 N 381.35 -0.985608 -1.22978 0
M  V30 4167 C 382.297 -0.529825 -2.24636 0
M  V30 4168 C 383.267 0.434028 -1.60329 0
M  V30 4169 O 384.452 0.340414 -1.87739 0
M  V30 4170 C 381.592 0.156533 -3.44745 0
M  V30 4171 C 380.705 -0.848197 -4.23591 0
M  V30 4172 C 379.84 -0.136109 -5.31026 0
M  V30 4173 C 378.879 -1.1297 -6.01585 0
M  V30 4174 N 378.016 -0.446415 -7.00679 0
M  V30 4175 H 382.856 -1.40148 -2.62988 0
M  V30 4176 H 380.393 -0.702168 -1.29259 0
M  V30 4177 H 382.351 0.571324 -4.1327 0
M  V30 4178 H 380.981 0.992025 -3.07179 0
M  V30 4179 H 380.033 -1.38135 -3.54433 0
M  V30 4180 H 381.345 -1.60512 -4.72268 0
M  V30 4181 H 380.499 0.335784 -6.0577 0
M  V30 4182 H 379.238 0.653373 -4.83304 0
M  V30 4183 H 378.243 -1.6123 -5.25628 0
M  V30 4184 H 379.468 -1.91993 -6.51395 0
M  V30 4185 H 377.414 0.323763 -6.55201 0
M  V30 4186 H 377.331 -1.1419 -7.47326 0
M  V30 4187 H 378.599 0.00291697 -7.795 0
M  V30 4188 N 382.828 1.3818 -0.7579 0
M  V30 4189 C 384.076 1.99624 -0.315361 0
M  V30 4190 C 384.397 1.60464 1.10799 0
M  V30 4191 O 383.667 0.863507 1.75842 0
M  V30 4192 H 382.247 0.73831 -0.113611 0
M  V30 4193 H 384.909 1.68878 -0.972952 0
M  V30 4194 H 384.005 3.09754 -0.381931 0
M  V30 4195 N 384.306 0.507319 1.49211 0
M  V30 4196 C 385.717 0.0611118 1.866 0
M  V30 4197 C 386.068 -1.35488 1.41907 0
M  V30 4198 O 385.193 -2.0108 0.799726 0
M  V30 4199 C 385.788 0.104125 3.3864 0
M  V30 4200 C 384.347 -0.28677 3.75306 0
M  V30 4201 C 383.494 0.473893 2.73221 0
M  V30 4202 H 386.445 0.719775 1.41439 0
M  V30 4203 H 386.466 -0.689672 3.74198 0
M  V30 4204 H 385.978 1.13482 3.71138 0
M  V30 4205 H 384.079 -1.32046 3.48417 0
M  V30 4206 H 384.192 0.0370745 4.79086 0
M  V30 4207 H 382.556 -0.0770644 2.54583 0
M  V30 4208 H 383.339 1.50478 3.08563 0
M  V30 4209 N 385.784 -1.5574 0.241426 0
M  V30 4210 C 386.714 -2.24133 -0.654722 0
M  V30 4211 C 387.695 -1.21974 -1.1856 0
M  V30 4212 O 388.88 -1.50612 -1.22595 0
M  V30 4213 C 386.01 -2.93659 -1.85423 0
M  V30 4214 C 384.964 -4.0246 -1.45636 0
M  V30 4215 C 384.29 -4.59383 -2.73626 0
M  V30 4216 C 385.59 -5.18468 -0.631506 0
M  V30 4217 H 387.284 -2.99281 -0.0844353 0
M  V30 4218 H 384.83 -1.43947 -0.0391707 0
M  V30 4219 H 386.783 -3.40203 -2.48676 0
M  V30 4220 H 385.507 -2.15991 -2.44981 0
M  V30 4221 H 384.166 -3.56676 -0.847202 0
M  V30 4222 H 383.814 -3.78422 -3.3137 0
M  V30 4223 H 383.514 -5.32826 -2.4773 0
M  V30 4224 H 385.038 -5.08658 -3.37786 0
M  V30 4225 H 386.452 -5.61272 -1.1682 0
M  V30 4226 H 384.849 -5.98266 -0.468831 0
M  V30 4227 H 385.919 -4.8358 0.357506 0
M  V30 4228 N 387.262 0.0317525 -1.57568 0
M  V30 4229 C 388.21 1.05165 -2.07468 0
M  V30 4230 C 389.204 1.3761 -0.98792 0
M  V30 4231 O 390.41 1.36546 -1.17282 0
M  V30 4232 H 386.785 0.35666 -0.66204 0
M  V30 4233 H 388.756 0.604958 -2.92203 0
M  V30 4234 C 387.505 2.34488 -2.56731 0
M  V30 4235 H 386.828 2.10383 -3.39969 0
M  V30 4236 H 388.268 3.04203 -2.95358 0
M  V30 4237 C 386.727 3.03266 -1.46736 0
M  V30 4238 O 387.257 3.92988 -0.832069 0
M  V30 4239 N 385.463 2.6455 -1.20256 0
M  V30 4240 H 385.01 1.91674 -1.72102 0
M  V30 4241 H 384.968 3.10886 -0.468737 0
M  V30 4242 N 388.74 1.54641 0.303973 0
M  V30 4243 C 389.703 1.84646 1.35789 0
M  V30 4244 C 390.703 0.7192 1.4382 0
M  V30 4245 O 391.893 0.987491 1.43507 0
M  V30 4246 C 389.025 2.02407 2.74307 0
M  V30 4247 H 390.218 2.78829 1.10429 0
M  V30 4248 H 387.771 1.46658 0.540487 0
M  V30 4249 H 388.506 1.10502 3.04893 0
M  V30 4250 H 388.291 2.84453 2.69868 0
M  V30 4251 H 389.781 2.27002 3.50514 0
M  V30 4252 N 390.218 -0.567019 1.47046 0
M  V30 4253 C 391.467 -1.32091 1.5243 0
M  V30 4254 C 391.78 -1.94704 0.187021 0
M  V30 4255 O 392.986 -2.7124 0.118771 0
M  V30 4256 C 391.442 -2.39479 2.68659 0
M  V30 4257 C 391.05 -1.831 4.08874 0
M  V30 4258 C 392.794 -3.16111 2.83327 0
M  V30 4259 C 390.701 -2.8821 5.16419 0
M  V30 4260 H 389.631 -0.496629 0.56734 0
M  V30 4261 H 392.282 -0.603354 1.73297 0
M  V30 4262 H 390.664 -3.14105 2.41152 0
M  V30 4263 H 391.838 -1.14913 4.46242 0
M  V30 4264 H 390.153 -1.19085 3.99008 0
M  V30 4265 H 392.75 -3.94585 3.60842 0
M  V30 4266 H 393.093 -3.69686 1.91411 0
M  V30 4267 H 393.626 -2.48595 3.10556 0
M  V30 4268 H 390.365 -2.39504 6.10179 0
M  V30 4269 H 389.885 -3.54839 4.8358 0
M  V30 4270 H 391.564 -3.51881 5.42945 0
M  V30 4271 N 391.696 -1.35014 -0.812953 0
M  V30 4272 C 392.973 -1.18502 -1.55617 0
M  V30 4273 C 393.353 0.238421 -2.09749 0
M  V30 4274 O 392.701 1.2411 -1.91857 0
M  V30 4275 C 392.911 -2.24783 -2.66971 0
M  V30 4276 C 394.259 -2.60268 -3.35478 0
M  V30 4277 O 395.283 -2.23648 -2.77236 0
M  V30 4278 O 394.142 -3.2321 -4.40678 0
M  V30 4279 H 391.236 -0.459984 -0.687272 0
M  V30 4280 H 393.782 -1.46677 -0.853464 0
M  V30 4281 H 392.554 -3.20284 -2.24798 0
M  V30 4282 H 392.177 -1.97841 -3.44884 0
M  V30 4283 N 393.175 1.03435 -1.18907 0
M  V30 4284 C 394.105 2.13503 -0.945448 0
M  V30 4285 C 395.086 1.69682 0.119189 0
M  V30 4286 O 396.271 1.94169 -0.034707 0
M  V30 4287 C 393.401 3.44004 -0.477316 0
M  V30 4288 C 392.355 4.0148 -1.48316 0
M  V30 4289 C 391.681 5.27537 -0.872311 0
M  V30 4290 C 392.981 4.36921 -2.86177 0
M  V30 4291 H 394.675 2.34141 -1.86597 0
M  V30 4292 H 392.221 1.12523 -0.898584 0
M  V30 4293 H 394.174 4.20372 -0.294204 0
M  V30 4294 H 392.898 3.23072 0.478786 0
M  V30 4295 H 391.557 3.27201 -1.65332 0
M  V30 4296 H 391.205 5.02917 0.0911752 0
M  V30 4297 H 390.905 5.66954 -1.54393 0
M  V30 4298 H 392.429 6.06576 -0.699871 0
M  V30 4299 H 393.843 5.04248 -2.72776 0
M  V30 4300 H 392.24 4.87405 -3.50081 0
M  V30 4301 H 393.31 3.46466 -3.39248 0
M  V30 4302 N 394.653 0.992116 1.22453 0
M  V30 4303 C 395.583 0.561677 2.26644 0
M  V30 4304 C 396.564 -0.411055 1.65059 0
M  V30 4305 O 397.749 -0.301861 1.9184 0
M  V30 4306 C 394.879 -0.125247 3.47074 0
M  V30 4307 C 393.833 0.765948 4.21091 0
M  V30 4308 C 393.159 -0.0538484 5.34673 0
M  V30 4309 C 394.459 2.06242 4.79856 0
M  V30 4310 H 396.153 1.43259 2.62902 0
M  V30 4311 H 393.699 0.690283 1.26377 0
M  V30 4312 H 395.652 -0.437764 4.1912 0
M  V30 4313 H 394.376 -1.03069 3.0991 0
M  V30 4314 H 393.035 1.0621 3.50878 0
M  V30 4315 H 392.683 -0.960188 4.9375 0
M  V30 4316 H 392.383 0.539415 5.85119 0
M  V30 4317 H 393.907 -0.360477 6.09535 0
M  V30 4318 H 395.321 1.8139 5.43848 0
M  V30 4319 H 393.718 2.60444 5.40638 0
M  V30 4320 H 394.788 2.74167 3.99951 0
M  V30 4321 N 396.131 -1.37776 0.765217 0
M  V30 4322 C 397.094 -2.28686 0.153416 0
M  V30 4323 C 398.094 -1.47727 -0.635081 0
M  V30 4324 O 399.284 -1.68027 -0.459632 0
M  V30 4325 C 396.416 -3.31608 -0.790495 0
M  V30 4326 H 397.609 -2.84297 0.954723 0
M  V30 4327 H 395.162 -1.46932 0.53299 0
M  V30 4328 H 395.897 -2.81109 -1.61705 0
M  V30 4329 H 395.682 -3.9144 -0.227348 0
M  V30 4330 H 397.172 -3.99559 -1.21419 0
M  V30 4331 N 397.609 -0.515225 -1.4894 0
M  V30 4332 C 398.858 0.0261361 -2.01683 0
M  V30 4333 C 399.171 1.36719 -1.39883 0
M  V30 4334 O 400.377 1.99606 -1.84037 0
M  V30 4335 C 398.833 0.0970111 -3.59769 0
M  V30 4336 C 398.441 -1.23825 -4.30548 0
M  V30 4337 C 400.185 0.587981 -4.20408 0
M  V30 4338 C 398.092 -1.12877 -5.80528 0
M  V30 4339 H 397.022 0.0135398 -0.753878 0
M  V30 4340 H 399.673 -0.656787 -1.71343 0
M  V30 4341 H 398.055 0.844694 -3.86886 0
M  V30 4342 H 399.229 -2.00034 -4.15118 0
M  V30 4343 H 397.544 -1.66379 -3.81716 0
M  V30 4344 H 400.141 0.68763 -5.3026 0
M  V30 4345 H 400.484 1.59026 -3.84729 0
M  V30 4346 H 401.017 -0.103582 -3.97665 0
M  V30 4347 H 397.756 -2.10575 -6.20756 0
M  V30 4348 H 397.276 -0.407799 -5.98412 0
M  V30 4349 H 398.955 -0.813332 -6.41868 0
M  V30 4350 N 399.087 1.5561 -0.249682 0
M  V30 4351 C 400.017 2.24477 0.642826 0
M  V30 4352 C 400.998 1.22601 1.17911 0
M  V30 4353 O 402.183 1.5126 1.21795 0
M  V30 4354 C 399.313 2.94638 1.83863 0
M  V30 4355 C 398.267 4.03227 1.435 0
M  V30 4356 C 397.593 4.60828 2.71186 0
M  V30 4357 C 398.893 5.18796 0.604002 0
M  V30 4358 H 400.587 2.99321 0.0685625 0
M  V30 4359 H 398.133 1.43965 0.0315363 0
M  V30 4360 H 400.086 3.41517 2.46868 0
M  V30 4361 H 398.81 2.17287 2.43832 0
M  V30 4362 H 397.469 3.57121 0.828275 0
M  V30 4363 H 397.117 3.80174 3.29358 0
M  V30 4364 H 396.817 5.34132 2.44901 0
M  V30 4365 H 398.341 5.10442 3.35084 0
M  V30 4366 H 399.755 5.61883 1.13842 0
M  V30 4367 H 398.152 5.98506 0.437097 0
M  V30 4368 H 399.222 4.83384 -0.383147 0
M  V30 4369 N 400.565 -0.0233959 1.57583 0
M  V30 4370 C 401.976 -0.56927 1.77809 0
M  V30 4371 C 402.327 -1.75284 0.881472 0
M  V30 4372 O 401.452 -2.1626 0.0777805 0
M  V30 4373 C 402.047 -1.03949 3.22459 0
M  V30 4374 C 400.606 -1.53084 3.43864 0
M  V30 4375 C 399.753 -0.471454 2.73263 0
M  V30 4376 H 402.704 0.202825 1.57399 0
M  V30 4377 H 402.725 -1.90661 3.29285 0
M  V30 4378 H 402.237 -0.177865 3.87692 0
M  V30 4379 H 400.338 -2.41414 2.83814 0
M  V30 4380 H 400.451 -1.57443 4.52491 0
M  V30 4381 H 398.815 -0.927788 2.37201 0
M  V30 4382 H 399.598 0.380808 3.41181 0
M  V30 4383 N 402.043 -1.548 -0.295768 0
M  V30 4384 C 403.273 -1.78069 -1.04762 0
M  V30 4385 C 403.681 -0.542847 -1.81245 0
M  V30 4386 O 403.024 0.497051 -1.76848 0
M  V30 4387 C 403.086 -2.93881 -2.07061 0
M  V30 4388 C 402.75 -4.31777 -1.49725 0
M  V30 4389 C 403.747 -5.11613 -0.924581 0
M  V30 4390 C 401.432 -4.78389 -1.5313 0
M  V30 4391 C 403.426 -6.36184 -0.393594 0
M  V30 4392 C 401.113 -6.02921 -0.996447 0
M  V30 4393 C 402.111 -6.81654 -0.428569 0
M  V30 4394 O 401.799 -8.0384 0.0981593 0
M  V30 4395 H 401.531 -0.597475 -0.316226 0
M  V30 4396 H 404.085 -2.02584 -0.338973 0
M  V30 4397 H 402.315 -2.65003 -2.81621 0
M  V30 4398 H 404.004 -3.04679 -2.6819 0
M  V30 4399 H 404.77 -4.76743 -0.891136 0
M  V30 4400 H 400.649 -4.17132 -1.9627 0
M  V30 4401 H 404.193 -6.97582 0.0503014 0
M  V30 4402 H 400.09 -6.37277 -1.02706 0
M  V30 4403 H 400.858 -8.18499 -0.0146455 0
M  V30 4404 N 403.521 0.559213 -1.47345 0
M  V30 4405 C 404.751 1.33999 -1.57251 0
M  V30 4406 C 405.159 1.87905 -0.220978 0
M  V30 4407 O 404.502 1.65577 0.795617 0
M  V30 4408 C 404.564 2.54798 -2.53611 0
M  V30 4409 C 404.228 2.22192 -3.99349 0
M  V30 4410 C 405.225 1.79607 -4.87891 0
M  V30 4411 C 402.91 2.33613 -4.44669 0
M  V30 4412 C 404.904 1.48868 -6.19772 0
M  V30 4413 C 402.591 2.02487 -5.76578 0
M  V30 4414 C 403.589 1.60183 -6.63951 0
M  V30 4415 O 403.277 1.29451 -7.93409 0
M  V30 4416 H 403.009 0.414858 -0.533731 0
M  V30 4417 H 405.563 0.684465 -1.9366 0
M  V30 4418 H 403.793 3.23235 -2.12265 0
M  V30 4419 H 405.482 3.16873 -2.53666 0
M  V30 4420 H 406.248 1.70278 -4.54126 0
M  V30 4421 H 402.127 2.65501 -3.76869 0
M  V30 4422 H 405.671 1.15775 -6.87926 0
M  V30 4423 H 401.568 2.11448 -6.09885 0
M  V30 4424 H 402.336 1.43098 -8.05894 0
M  V30 4425 N 404.999 1.35443 0.805782 0
M  V30 4426 C 406.245 1.28952 1.56522 0
M  V30 4427 C 406.578 -0.135597 1.93726 0
M  V30 4428 O 405.853 -1.08516 1.61414 0
M  V30 4429 C 406.136 2.19678 2.85331 0
M  V30 4430 C 405.989 3.7081 2.54598 0
M  V30 4431 C 407.308 2.09495 3.8704 0
M  V30 4432 H 404.427 0.469764 0.567883 0
M  V30 4433 H 407.069 1.65851 0.927001 0
M  V30 4434 H 405.219 1.8834 3.39795 0
M  V30 4435 H 406.891 4.12593 2.06312 0
M  V30 4436 H 405.134 3.91051 1.8778 0
M  V30 4437 H 405.805 4.29679 3.46525 0
M  V30 4438 H 408.281 2.37045 3.41978 0
M  V30 4439 H 407.157 2.75173 4.74943 0
M  V30 4440 H 407.418 1.07714 4.28777 0
M  V30 4441 N 406.477 -1.02803 1.19454 0
M  V30 4442 C 407.705 -1.79841 1.02297 0
M  V30 4443 C 408.12 -1.83879 -0.428259 0
M  V30 4444 O 407.477 -1.28345 -1.29745 0
M  V30 4445 C 407.528 -3.24852 1.58598 0
M  V30 4446 O 407.249 -3.21097 2.98041 0
M  V30 4447 C 408.75 -4.18485 1.46236 0
M  V30 4448 H 405.97 -0.565936 0.360496 0
M  V30 4449 H 408.514 -1.2948 1.58288 0
M  V30 4450 H 406.669 -3.72401 1.06753 0
M  V30 4451 H 407.083 -4.12033 3.24545 0
M  V30 4452 H 408.557 -5.18121 1.90407 0
M  V30 4453 H 409.034 -4.37254 0.41301 0
M  V30 4454 H 409.64 -3.76811 1.97215 0
M  V30 4455 N 407.956 -0.998596 -1.21925 0
M  V30 4456 C 409.205 -0.673085 -1.90138 0
M  V30 4457 C 409.518 0.79895 -1.78539 0
M  V30 4458 O 410.724 1.23628 -2.4172 0
M  V30 4459 C 409.18 -1.15339 -3.40918 0
M  V30 4460 C 408.788 -2.65106 -3.61141 0
M  V30 4461 C 410.532 -0.902476 -4.14796 0
M  V30 4462 C 408.439 -3.0671 -5.05651 0
M  V30 4463 H 407.369 -0.248057 -0.712028 0
M  V30 4464 H 410.02 -1.20891 -1.38049 0
M  V30 4465 H 408.402 -0.545658 -3.92223 0
M  V30 4466 H 409.576 -3.31274 -3.20304 0
M  V30 4467 H 407.891 -2.88142 -3.00605 0
M  V30 4468 H 410.488 -1.18895 -5.21314 0
M  V30 4469 H 410.831 0.161349 -4.15987 0
M  V30 4470 H 411.364 -1.47269 -3.69536 0
M  V30 4471 H 408.103 -4.12292 -5.09603 0
M  V30 4472 H 407.623 -2.45249 -5.47369 0
M  V30 4473 H 409.302 -2.9833 -5.74115 0
M  V30 4474 N 409.434 1.37368 -0.772513 0
M  V30 4475 C 410.681 1.99673 -0.337182 0
M  V30 4476 C 411.009 1.61324 1.0865 0
M  V30 4477 O 410.264 0.851377 1.7621 0
M  V30 4478 C 410.563 3.54817 -0.428876 0
M  V30 4479 C 410.229 4.12936 -1.81092 0
M  V30 4480 C 408.891 4.28523 -2.1891 0
M  V30 4481 C 411.243 4.44801 -2.71664 0
M  V30 4482 C 408.571 4.73277 -3.46735 0
M  V30 4483 C 410.923 4.90981 -3.98899 0
M  V30 4484 C 409.587 5.04773 -4.36761 0
M  V30 4485 H 408.857 0.730656 -0.123384 0
M  V30 4486 H 411.504 1.64124 -0.986686 0
M  V30 4487 H 409.809 3.90618 0.304167 0
M  V30 4488 H 411.506 4.00933 -0.0733334 0
M  V30 4489 H 408.096 4.01233 -1.50699 0
M  V30 4490 H 412.28 4.32344 -2.43706 0
M  V30 4491 H 407.536 4.82142 -3.75964 0
M  V30 4492 H 411.71 5.14603 -4.69208 0
M  V30 4493 H 409.337 5.39211 -5.35868 0
M  V30 4494 N 410.912 0.523116 1.48665 0
M  V30 4495 C 411.842 -0.23231 2.32342 0
M  V30 4496 C 412.823 -0.941637 1.41659 0
M  V30 4497 O 414.008 -0.928751 1.70552 0
M  V30 4498 C 411.138 -1.28387 3.22698 0
M  V30 4499 C 410.092 -0.693098 4.22351 0
M  V30 4500 C 409.418 -1.8468 5.01794 0
M  V30 4501 C 410.718 0.33063 5.21252 0
M  V30 4502 H 412.412 0.466192 2.95748 0
M  V30 4503 H 409.958 0.225643 1.42221 0
M  V30 4504 H 411.911 -1.82024 3.80059 0
M  V30 4505 H 410.635 -2.01186 2.57278 0
M  V30 4506 H 409.294 -0.178299 3.66166 0
M  V30 4507 H 408.942 -2.56301 4.32804 0
M  V30 4508 H 408.642 -1.45747 5.69238 0
M  V30 4509 H 410.166 -2.38709 5.62006 0
M  V30 4510 H 411.58 -0.118407 5.73178 0
M  V30 4511 H 409.977 0.636974 5.9671 0
M  V30 4512 H 411.047 1.23883 4.68808 0
M  V30 4513 N 412.39 -1.55475 0.257931 0
M  V30 4514 C 413.618 -2.03609 -0.367559 0
M  V30 4515 C 414.033 -1.13687 -1.50734 0
M  V30 4516 O 413.39 -0.153479 -1.81853 0
M  V30 4517 C 413.441 -3.51001 -0.864908 0
M  V30 4518 O 413.162 -4.37499 0.229465 0
M  V30 4519 C 414.663 -4.14946 -1.55997 0
M  V30 4520 H 411.883 -0.665459 -0.0860521 0
M  V30 4521 H 414.427 -2.00843 0.385014 0
M  V30 4522 H 412.582 -3.54266 -1.56762 0
M  V30 4523 H 412.996 -5.24286 -0.14998 0
M  V30 4524 H 414.47 -5.19735 -1.85956 0
M  V30 4525 H 414.947 -3.6209 -2.4857 0
M  V30 4526 H 415.553 -4.15635 -0.901543 0
M  V30 4527 N 413.868 0.0150385 -1.57593 0
M  V30 4528 C 414.778 1.02791 -2.10882 0
M  V30 4529 C 415.794 1.38702 -1.0506 0
M  V30 4530 O 416.97 1.47739 -1.36877 0
M  V30 4531 C 414.035 2.30568 -2.58919 0
M  V30 4532 C 413.096 2.01108 -3.79281 0
M  V30 4533 C 412.329 3.22794 -4.25018 0
M  V30 4534 O 412.552 4.33959 -3.70183 0
M  V30 4535 O 411.486 3.07672 -5.17322 0
M  V30 4536 H 415.312 0.604973 -2.97613 0
M  V30 4537 H 412.897 0.23292 -1.47573 0
M  V30 4538 H 414.779 3.05662 -2.90084 0
M  V30 4539 H 413.454 2.72129 -1.75293 0
M  V30 4540 H 412.361 1.23537 -3.53114 0
M  V30 4541 H 413.694 1.64394 -4.63935 0
M  V30 4542 N 415.346 1.54954 0.287554 0
M  V30 4543 C 416.571 1.79209 1.04397 0
M  V30 4544 C 416.996 0.556431 1.79682 0
M  V30 4545 O 416.354 -0.493518 1.74454 0
M  V30 4546 C 416.402 3.00739 1.98969 0
M  V30 4547 O 415.506 2.74805 3.075 0
M  V30 4548 H 414.847 0.592755 0.299227 0
M  V30 4549 H 417.377 2.02068 0.320886 0
M  V30 4550 H 417.387 3.29077 2.4119 0
M  V30 4551 H 416.062 3.90329 1.43582 0
M  V30 4552 H 414.639 2.57523 2.69697 0
M  V30 4553 N 416.824 -0.551391 1.4764 0
M  V30 4554 C 417.772 -1.67896 1.60978 0
M  V30 4555 C 418.766 -1.62549 0.476877 0
M  V30 4556 O 419.972 -1.67664 0.654878 0
M  V30 4557 H 416.347 -0.555649 0.506713 0
M  V30 4558 H 418.318 -1.53784 2.55721 0
M  V30 4559 C 417.067 -3.06234 1.64669 0
M  V30 4560 H 416.39 -3.11033 2.51194 0
M  V30 4561 H 417.83 -3.84804 1.7805 0
M  V30 4562 C 416.289 -3.34737 0.381115 0
M  V30 4563 O 416.819 -3.98381 -0.515297 0
M  V30 4564 N 415.025 -2.8944 0.259354 0
M  V30 4565 H 414.572 -2.37827 0.98976 0
M  V30 4566 H 414.53 -3.08882 -0.586464 0
M  V30 4567 N 418.302 -1.35869 -0.798587 0
M  V30 4568 C 419.249 -1.29446 -1.91082 0
M  V30 4569 C 420.219 -0.16487 -1.6528 0
M  V30 4570 O 421.404 -0.349888 -1.87564 0
M  V30 4571 C 418.544 -1.0804 -3.27752 0
M  V30 4572 C 417.657 -2.29993 -3.65687 0
M  V30 4573 C 416.792 -2.01673 -4.91428 0
M  V30 4574 C 415.831 -3.19636 -5.22015 0
M  V30 4575 N 414.968 -2.91039 -6.38937 0
M  V30 4576 H 419.808 -2.24553 -1.95907 0
M  V30 4577 H 417.345 -1.11615 -0.958148 0
M  V30 4578 H 419.303 -0.936586 -4.06551 0
M  V30 4579 H 417.933 -0.16592 -3.22373 0
M  V30 4580 H 416.985 -2.55211 -2.82085 0
M  V30 4581 H 418.297 -3.18052 -3.84245 0
M  V30 4582 H 417.451 -1.84168 -5.78072 0
M  V30 4583 H 416.19 -1.10911 -4.74921 0
M  V30 4584 H 415.195 -3.37709 -4.33858 0
M  V30 4585 H 416.42 -4.11211 -5.40447 0
M  V30 4586 H 414.366 -2.0288 -6.2384 0
M  V30 4587 H 414.283 -3.72635 -6.57784 0
M  V30 4588 H 415.551 -2.77093 -7.28587 0
M  V30 4589 N 419.78 1.02168 -1.19998 0
M  V30 4590 C 421.005 1.79833 -1.03319 0
M  V30 4591 C 421.43 1.83504 0.413281 0
M  V30 4592 O 420.788 1.26635 1.29743 0
M  V30 4593 C 420.836 3.22396 -1.61533 0
M  V30 4594 O 419.94 4.03555 -0.849519 0
M  V30 4595 H 419.281 0.554872 -0.364709 0
M  V30 4596 H 421.811 1.28542 -1.59179 0
M  V30 4597 H 421.821 3.73124 -1.65054 0
M  V30 4598 H 420.496 3.19039 -2.66809 0
M  V30 4599 H 419.073 3.62169 -0.888129 0
M  V30 4600 N 421.258 1.00505 1.21394 0
M  V30 4601 C 422.504 0.688793 1.90745 0
M  V30 4602 C 422.837 -0.778486 1.77914 0
M  V30 4603 O 422.112 -1.56433 1.15581 0
M  V30 4604 C 422.395 1.11063 3.42545 0
M  V30 4605 C 422.248 2.63737 3.64367 0
M  V30 4606 C 423.567 0.673059 4.34923 0
M  V30 4607 H 420.686 0.251702 0.692687 0
M  V30 4608 H 423.328 1.25074 1.43026 0
M  V30 4609 H 421.478 0.632508 3.83317 0
M  V30 4610 H 423.15 3.19313 3.32922 0
M  V30 4611 H 421.393 3.05248 3.08231 0
M  V30 4612 H 422.064 2.88305 4.70727 0
M  V30 4613 H 424.54 1.08392 4.01734 0
M  V30 4614 H 423.416 0.996383 5.39781 0
M  V30 4615 H 423.677 -0.425808 4.40045 0
M  V30 4616 N 422.737 -1.36956 0.779787 0
M  V30 4617 C 423.667 -2.32761 0.185651 0
M  V30 4618 C 424.648 -1.56177 -0.673989 0
M  V30 4619 O 425.833 -1.84378 -0.609797 0
M  V30 4620 C 422.963 -3.40418 -0.687964 0
M  V30 4621 C 421.917 -4.27941 0.0710102 0
M  V30 4622 C 421.243 -5.26681 -0.922573 0
M  V30 4623 C 422.543 -5.07006 1.25467 0
M  V30 4624 H 424.237 -2.82698 0.986008 0
M  V30 4625 H 421.783 -1.3592 0.475592 0
M  V30 4626 H 423.736 -4.06423 -1.11348 0
M  V30 4627 H 422.46 -2.89025 -1.52093 0
M  V30 4628 H 421.119 -3.63478 0.47739 0
M  V30 4629 H 420.767 -4.71565 -1.7503 0
M  V30 4630 H 420.467 -5.86103 -0.419237 0
M  V30 4631 H 421.991 -5.9556 -1.34686 0
M  V30 4632 H 423.405 -5.66105 0.905401 0
M  V30 4633 H 421.802 -5.75793 1.69063 0
M  V30 4634 H 422.872 -4.3921 2.05481 0
M  V30 4635 N 424.215 -0.530993 -1.48385 0
M  V30 4636 C 425.147 0.268353 -2.27624 0
M  V30 4637 C 426.16 0.903525 -1.35426 0
M  V30 4638 O 427.349 0.781796 -1.60469 0
M  V30 4639 C 424.449 1.39535 -3.08842 0
M  V30 4640 C 423.622 0.861913 -4.28824 0
M  V30 4641 C 422.681 1.87016 -4.91845 0
M  V30 4642 O 421.707 1.4267 -5.5103 0
M  V30 4643 N 422.909 3.20238 -4.84178 0
M  V30 4644 H 425.674 -0.41123 -2.96865 0
M  V30 4645 H 423.235 -0.365387 -1.57723 0
M  V30 4646 H 425.227 2.06803 -3.47871 0
M  V30 4647 H 423.797 1.97859 -2.42014 0
M  V30 4648 H 423.017 0.0132126 -3.94198 0
M  V30 4649 H 424.305 0.484415 -5.06489 0
M  V30 4650 H 423.703 3.58932 -4.37246 0
M  V30 4651 H 422.26 3.83136 -5.27305 0
M  V30 4652 N 425.693 1.55336 -0.266172 0
M  V30 4653 C 426.94 1.99397 0.353158 0
M  V30 4654 C 427.268 1.15451 1.56529 0
M  V30 4655 O 426.523 0.209974 1.9457 0
M  V30 4656 C 426.822 3.48606 0.787957 0
M  V30 4657 C 426.488 4.49773 -0.318541 0
M  V30 4658 C 425.15 4.77158 -0.62239 0
M  V30 4659 C 427.502 5.10212 -1.06459 0
M  V30 4660 C 424.83 5.62251 -1.67602 0
M  V30 4661 C 427.182 5.96449 -2.10788 0
M  V30 4662 C 425.846 6.22158 -2.41817 0
M  V30 4663 H 425.116 0.729644 0.12923 0
M  V30 4664 H 427.763 1.87732 -0.37802 0
M  V30 4665 H 426.068 3.57701 1.59866 0
M  V30 4666 H 427.765 3.80098 1.27775 0
M  V30 4667 H 424.355 4.2854 -0.0715925 0
M  V30 4668 H 428.539 4.89086 -0.843098 0
M  V30 4669 H 423.795 5.80419 -1.92155 0
M  V30 4670 H 427.969 6.42317 -2.69076 0
M  V30 4671 H 425.596 6.87888 -3.23596 0
M  V30 4672 N 427.171 -0.0066808 1.57599 0
M  V30 4673 C 428.103 -1.02827 2.04839 0
M  V30 4674 C 429.116 -1.31108 0.965113 0
M  V30 4675 O 430.305 -1.28202 1.24203 0
M  V30 4676 C 427.405 -2.36464 2.42771 0
M  V30 4677 C 426.578 -2.27219 3.73751 0
M  V30 4678 C 425.637 -3.43489 3.98625 0
M  V30 4679 O 424.663 -3.21976 4.69382 0
M  V30 4680 N 425.865 -4.66116 3.46 0
M  V30 4681 H 428.63 -0.625455 2.93101 0
M  V30 4682 H 426.191 -0.194198 1.60731 0
M  V30 4683 H 428.183 -3.13008 2.56531 0
M  V30 4684 H 426.753 -2.68512 1.60063 0
M  V30 4685 H 425.973 -1.35629 3.70133 0
M  V30 4686 H 427.261 -2.18208 4.59633 0
M  V30 4687 H 426.659 -4.86493 2.88688 0
M  V30 4688 H 425.216 -5.39949 3.65101 0
M  V30 4689 N 428.649 -1.55105 -0.279332 0
M  V30 4690 C 429.597 -1.88333 -1.36505 0
M  V30 4691 C 430.591 -0.759043 -1.51443 0
M  V30 4692 O 431.797 -0.943312 -1.53302 0
M  V30 4693 H 428.172 -0.59766 -0.456406 0
M  V30 4694 H 430.143 -2.79041 -1.05728 0
M  V30 4695 C 428.892 -2.16628 -2.7197 0
M  V30 4696 H 428.215 -3.02624 -2.61264 0
M  V30 4697 H 429.655 -2.43803 -3.46895 0
M  V30 4698 C 428.114 -0.971807 -3.22579 0
M  V30 4699 O 428.644 -0.203228 -4.01186 0
M  V30 4700 N 426.85 -0.771238 -2.80179 0
M  V30 4701 H 426.397 -1.39792 -2.1637 0
M  V30 4702 H 426.355 0.0263667 -3.14389 0
M  V30 4703 N 430.127 0.543554 -1.4793 0
M  V30 4704 C 431.373 1.30201 -1.55485 0
M  V30 4705 C 431.706 1.92925 -0.222201 0
M  V30 4706 O 430.981 1.78586 0.77053 0
M  V30 4707 C 431.264 2.40174 -2.68307 0
M  V30 4708 C 431.117 1.8223 -4.11233 0
M  V30 4709 C 432.436 3.42024 -2.76961 0
M  V30 4710 H 429.555 0.472036 -0.565996 0
M  V30 4711 H 432.197 0.606914 -1.80046 0
M  V30 4712 H 430.347 2.99463 -2.47495 0
M  V30 4713 H 432.019 1.27096 -4.43446 0
M  V30 4714 H 430.262 1.12832 -4.18869 0
M  V30 4715 H 430.933 2.61793 -4.85972 0
M  V30 4716 H 433.409 2.92672 -2.95774 0
M  V30 4717 H 432.285 4.16383 -3.57654 0
M  V30 4718 H 432.546 4.0173 -1.84568 0
M  V30 4719 N 431.605 1.3629 0.791371 0
M  V30 4720 C 433.021 1.16661 1.08914 0
M  V30 4721 C 433.221 -0.0106266 2.01497 0
M  V30 4722 O 432.277 -0.676596 2.43266 0
M  V30 4723 C 433.59 2.47656 1.70549 0
M  V30 4724 C 435.138 2.54002 1.82899 0
M  V30 4725 C 435.613 3.85078 2.47949 0
M  V30 4726 N 437.104 3.86413 2.5542 0
M  V30 4727 C 437.839 4.84572 3.06557 0
M  V30 4728 N 437.335 5.93124 3.58016 0
M  V30 4729 N 439.128 4.71994 3.05251 0
M  V30 4730 H 431.279 2.11668 0.176238 0
M  V30 4731 H 433.542 0.937486 0.140796 0
M  V30 4732 H 433.248 3.34059 1.09989 0
M  V30 4733 H 433.122 2.63319 2.70079 0
M  V30 4734 H 435.509 1.68018 2.42598 0
M  V30 4735 H 435.59 2.42239 0.821808 0
M  V30 4736 H 435.234 4.71467 1.88895 0
M  V30 4737 H 435.164 3.94135 3.49235 0
M  V30 4738 H 437.655 3.07988 2.18979 0
M  V30 4739 H 437.968 6.63999 3.95381 0
M  V30 4740 H 436.313 5.96796 3.56173 0
M  V30 4741 H 439.504 3.86321 2.64336 0
M  V30 4742 H 439.677 5.48653 3.44796 0
M  V30 4743 N 433.083 -1.0153 1.20538 0
M  V30 4744 C 434.499 -1.27461 0.96051 0
M  V30 4745 C 434.699 -1.98273 -0.359193 0
M  V30 4746 O 433.755 -2.27886 -1.0874 0
M  V30 4747 C 435.068 -2.10837 2.14402 0
M  V30 4748 C 436.616 -2.24099 2.18515 0
M  V30 4749 C 437.091 -3.10852 3.36355 0
M  V30 4750 N 438.582 -3.18441 3.36377 0
M  V30 4751 C 439.317 -3.85795 4.24205 0
M  V30 4752 N 438.813 -4.55264 5.22213 0
M  V30 4753 N 440.606 -3.82331 4.12043 0
M  V30 4754 H 432.757 -0.539907 2.05423 0
M  V30 4755 H 435.02 -0.30092 0.898972 0
M  V30 4756 H 434.726 -1.66144 3.09983 0
M  V30 4757 H 434.6 -3.11576 2.12604 0
M  V30 4758 H 436.987 -2.68016 1.23497 0
M  V30 4759 H 437.068 -1.22865 2.24361 0
M  V30 4760 H 436.712 -2.6764 4.31661 0
M  V30 4761 H 436.642 -4.12177 3.27746 0
M  V30 4762 H 439.133 -2.68978 2.65442 0
M  V30 4763 H 439.446 -5.04331 5.85551 0
M  V30 4764 H 437.791 -4.54085 5.26148 0
M  V30 4765 H 440.982 -3.27207 3.34743 0
M  V30 4766 H 441.155 -4.34547 4.807 0
M  V30 4767 N 434.561 -1.01147 -1.20859 0
M  V30 4768 C 435.807 -0.698899 -1.90377 0
M  V30 4769 C 436.14 0.76904 -1.78324 0
M  V30 4770 O 435.415 1.55817 -1.16409 0
M  V30 4771 C 435.698 -1.12878 -3.41951 0
M  V30 4772 C 435.551 -2.65665 -3.62963 0
M  V30 4773 C 436.87 -0.696114 -4.3456 0
M  V30 4774 H 433.989 -0.255372 -0.691342 0
M  V30 4775 H 436.631 -1.25831 -1.42361 0
M  V30 4776 H 434.781 -0.652827 -3.82976 0
M  V30 4777 H 436.453 -3.21074 -3.31224 0
M  V30 4778 H 434.696 -3.06878 -3.06608 0
M  V30 4779 H 435.367 -2.90797 -4.69192 0
M  V30 4780 H 437.843 -1.10521 -4.01154 0
M  V30 4781 H 436.719 -1.025 -5.39245 0
M  V30 4782 H 436.98 0.402465 -4.40264 0
M  V30 4783 N 436.039 1.36541 -0.78704 0
M  V30 4784 C 437.285 1.99599 -0.358872 0
M  V30 4785 C 437.618 1.62323 1.06606 0
M  V30 4786 O 436.893 0.876858 1.73613 0
M  V30 4787 C 437.176 3.56327 -0.519944 0
M  V30 4788 C 437.029 4.03464 -1.98839 0
M  V30 4789 C 438.348 4.4005 0.0664737 0
M  V30 4790 H 435.467 0.725107 -0.131869 0
M  V30 4791 H 438.109 1.6199 -0.992936 0
M  V30 4792 H 436.259 3.88495 0.0198321 0
M  V30 4793 H 437.931 3.81793 -2.58905 0
M  V30 4794 H 436.174 3.55092 -2.49183 0
M  V30 4795 H 436.845 5.12439 -2.05207 0
M  V30 4796 H 439.321 4.14228 -0.394267 0
M  V30 4797 H 438.197 5.48847 -0.0762682 0
M  V30 4798 H 438.458 4.26655 1.15835 0
M  V30 4799 N 437.518 0.538854 1.48102 0
M  V30 4800 C 438.45 -0.256278 2.27763 0
M  V30 4801 C 439.463 -0.89633 1.35904 0
M  V30 4802 O 440.652 -0.773275 1.60881 0
M  V30 4803 C 437.752 -1.37896 3.09577 0
M  V30 4804 C 436.925 -0.839159 4.29275 0
M  V30 4805 C 435.984 -1.84405 4.9283 0
M  V30 4806 O 435.01 -1.39746 5.51779 0
M  V30 4807 N 436.212 -3.17666 4.85869 0
M  V30 4808 H 438.977 0.426968 2.96643 0
M  V30 4809 H 436.538 0.373747 1.57527 0
M  V30 4810 H 438.53 -2.04955 3.48963 0
M  V30 4811 H 437.1 -1.96572 2.4306 0
M  V30 4812 H 436.32 0.00769287 3.94199 0
M  V30 4813 H 437.608 -0.457548 5.06739 0
M  V30 4814 H 437.006 -3.56609 4.39143 0
M  V30 4815 H 435.563 -3.80334 5.29329 0
M  V30 4816 N 438.996 -1.55193 0.274407 0
M  V30 4817 C 440.245 -1.98758 -0.343213 0
M  V30 4818 C 440.558 -1.16624 -1.5703 0
M  V30 4819 O 441.764 -1.5033 -2.26082 0
M  V30 4820 C 440.22 -3.53759 -0.661996 0
M  V30 4821 C 439.828 -4.4467 0.54524 0
M  V30 4822 C 441.572 -4.05916 -1.24228 0
M  V30 4823 C 439.479 -5.91058 0.201084 0
M  V30 4824 H 438.409 -0.742353 -0.132014 0
M  V30 4825 H 441.06 -1.79545 0.378948 0
M  V30 4826 H 439.442 -3.68772 -1.44304 0
M  V30 4827 H 440.616 -4.41426 1.32212 0
M  V30 4828 H 438.931 -4.03143 1.04232 0
M  V30 4829 H 441.528 -5.12831 -1.51357 0
M  V30 4830 H 441.871 -3.54908 -2.17592 0
M  V30 4831 H 442.404 -3.9434 -0.523542 0
M  V30 4832 H 439.143 -6.46161 1.10258 0
M  V30 4833 H 438.663 -5.97373 -0.539045 0
M  V30 4834 H 440.342 -6.46669 -0.206954 0
M  V30 4835 N 440.474 -0.00167713 -1.576 0
M  V30 4836 C 441.721 0.68282 -1.90641 0
M  V30 4837 C 442.049 1.73686 -0.875415 0
M  V30 4838 O 441.304 1.95334 0.119575 0
M  V30 4839 C 441.603 1.36189 -3.30435 0
M  V30 4840 C 441.269 0.440887 -4.48739 0
M  V30 4841 C 439.931 0.187312 -4.80835 0
M  V30 4842 C 442.283 -0.193134 -5.20842 0
M  V30 4843 C 439.611 -0.70855 -5.82406 0
M  V30 4844 C 441.963 -1.07688 -6.23367 0
M  V30 4845 C 440.627 -1.33962 -6.53919 0
M  V30 4846 H 439.897 0.249862 -0.697603 0
M  V30 4847 H 442.544 -0.0575642 -1.91413 0
M  V30 4848 H 440.849 2.17636 -3.25794 0
M  V30 4849 H 442.546 1.89759 -3.5326 0
M  V30 4850 H 439.136 0.648694 -4.23663 0
M  V30 4851 H 443.32 -0.0102445 -4.96299 0
M  V30 4852 H 438.576 -0.920097 -6.04437 0
M  V30 4853 H 442.75 -1.57451 -6.78367 0
M  V30 4854 H 440.377 -2.03549 -7.32442 0
M  V30 4855 N 441.952 1.55251 0.271103 0
M  V30 4856 C 443.368 1.47133 0.618393 0
M  V30 4857 C 443.568 0.686994 1.89427 0
M  V30 4858 O 442.624 0.206609 2.51653 0
M  V30 4859 C 443.937 2.91361 0.743593 0
M  V30 4860 C 445.485 3.01587 0.837522 0
M  V30 4861 C 445.96 4.47073 0.994483 0
M  V30 4862 N 447.451 4.50909 1.05996 0
M  V30 4863 C 448.186 5.60698 1.20024 0
M  V30 4864 N 447.682 6.80348 1.30759 0
M  V30 4865 N 449.475 5.48444 1.23149 0
M  V30 4866 H 441.626 2.04698 -0.566784 0
M  V30 4867 H 443.889 0.928319 -0.192165 0
M  V30 4868 H 443.595 3.51483 -0.123493 0
M  V30 4869 H 443.469 3.40484 1.62328 0
M  V30 4870 H 445.856 2.4156 1.69507 0
M  V30 4871 H 445.937 2.55713 -0.0668086 0
M  V30 4872 H 445.581 5.07703 0.141582 0
M  V30 4873 H 445.511 4.90605 1.91349 0
M  V30 4874 H 448.002 3.6472 0.989316 0
M  V30 4875 H 448.315 7.59772 1.41303 0
M  V30 4876 H 446.66 6.83156 1.27761 0
M  V30 4877 H 449.851 4.53907 1.14394 0
M  V30 4878 H 450.024 6.34049 1.33738 0
M  V30 4879 N 443.43 -0.535701 1.48216 0
M  V30 4880 C 444.679 -1.28828 1.55197 0
M  V30 4881 C 444.992 -1.94263 0.228278 0
M  V30 4882 O 446.198 -2.70927 0.176278 0
M  V30 4883 C 444.654 -2.33727 2.73678 0
M  V30 4884 C 444.262 -1.74386 4.12666 0
M  V30 4885 C 446.006 -3.1003 2.89968 0
M  V30 4886 C 443.913 -2.77192 5.22416 0
M  V30 4887 H 442.843 -0.484484 0.577747 0
M  V30 4888 H 445.494 -0.56646 1.74538 0
M  V30 4889 H 443.876 -3.08919 2.4776 0
M  V30 4890 H 445.05 -1.05421 4.48579 0
M  V30 4891 H 443.365 -1.10595 4.01445 0
M  V30 4892 H 445.962 -3.86842 3.6913 0
M  V30 4893 H 446.305 -3.65542 1.9921 0
M  V30 4894 H 446.838 -2.41952 3.15759 0
M  V30 4895 H 443.577 -2.26507 6.15122 0
M  V30 4896 H 443.097 -3.44502 4.90998 0
M  V30 4897 H 444.776 -3.40285 5.50286 0
M  V30 4898 N 444.908 -1.36708 -0.784132 0
M  V30 4899 C 445.841 -1.25827 -1.90375 0
M  V30 4900 C 446.819 -0.141331 -1.61985 0
M  V30 4901 O 448.003 -0.313389 -1.85877 0
M  V30 4902 C 445.13 -0.942621 -3.25319 0
M  V30 4903 C 444.176 -2.07474 -3.72635 0
M  V30 4904 S 445.009 -3.69317 -3.8777 0
M  V30 4905 C 446.165 -3.39876 -5.25581 0
M  V30 4906 H 446.398 -2.20593 -1.99314 0
M  V30 4907 H 443.931 -1.22186 -0.943926 0
M  V30 4908 H 445.889 -0.767321 -4.03265 0
M  V30 4909 H 444.55 -0.0126566 -3.14097 0
M  V30 4910 H 443.743 -1.80858 -4.70432 0
M  V30 4911 H 443.345 -2.20953 -3.01754 0
M  V30 4912 H 445.637 -2.94097 -6.10339 0
M  V30 4913 H 446.58 -4.36956 -5.57203 0
M  V30 4914 H 446.988 -2.75098 -4.92931 0
M  V30 4915 N 446.386 1.0089 -1.21074 0
M  V30 4916 C 447.802 1.2695 -0.967257 0
M  V30 4917 C 448.002 1.9846 0.348673 0
M  V30 4918 O 447.058 2.28459 1.0753 0
M  V30 4919 C 448.371 2.09697 -2.15517 0
M  V30 4920 C 449.919 2.22937 -2.197 0
M  V30 4921 C 450.394 3.09064 -3.37999 0
M  V30 4922 N 451.885 3.16653 -3.38061 0
M  V30 4923 C 452.62 3.8354 -4.26245 0
M  V30 4924 N 452.116 4.52488 -5.2462 0
M  V30 4925 N 453.909 3.80141 -4.14064 0
M  V30 4926 H 446.06 0.529005 -2.05707 0
M  V30 4927 H 448.323 0.296148 -0.900556 0
M  V30 4928 H 448.029 1.64497 -3.10859 0
M  V30 4929 H 447.903 3.10444 -2.14253 0
M  V30 4930 H 450.29 2.67357 -1.24916 0
M  V30 4931 H 450.371 1.21673 -2.2501 0
M  V30 4932 H 450.015 2.65347 -4.33074 0
M  V30 4933 H 449.945 4.10433 -3.29928 0
M  V30 4934 H 452.436 2.67566 -2.66865 0
M  V30 4935 H 452.749 5.01219 -5.88217 0
M  V30 4936 H 451.094 4.51288 -5.28549 0
M  V30 4937 H 454.285 3.25427 -3.36474 0
M  V30 4938 H 454.458 4.31992 -4.82998 0
M  V30 4939 N 447.864 1.01787 1.20321 0
M  V30 4940 C 449.113 0.703249 1.89043 0
M  V30 4941 C 449.426 -0.770445 1.79787 0
M  V30 4942 O 450.632 -1.19767 2.43656 0
M  V30 4943 C 449.088 1.20749 3.3904 0
M  V30 4944 C 448.696 2.70817 3.56878 0
M  V30 4945 C 450.44 0.968352 4.13308 0
M  V30 4946 C 448.347 3.14716 5.00708 0
M  V30 4947 H 447.277 0.259354 0.707991 0
M  V30 4948 H 449.928 1.23072 1.36108 0
M  V30 4949 H 448.31 0.607989 3.91305 0
M  V30 4950 H 449.484 3.36327 3.14993 0
M  V30 4951 H 447.799 2.92888 2.95983 0
M  V30 4952 H 450.396 1.27173 5.19356 0
M  V30 4953 H 450.739 -0.095149 4.16191 0
M  V30 4954 H 451.272 1.53129 3.67146 0
M  V30 4955 H 448.011 4.20347 5.02979 0
M  V30 4956 H 447.531 2.53927 5.43398 0
M  V30 4957 H 449.21 3.07426 5.69296 0
M  V30 4958 N 449.342 -1.36122 0.79427 0
M  V30 4959 C 450.272 -2.32551 0.210328 0
M  V30 4960 C 451.253 -1.56884 -0.657386 0
M  V30 4961 O 452.438 -1.85014 -0.590207 0
M  V30 4962 C 449.568 -3.41128 -0.651819 0
M  V30 4963 C 448.522 -4.27842 0.116395 0
M  V30 4964 C 447.848 -5.2763 -0.86666 0
M  V30 4965 C 449.148 -5.05647 1.30837 0
M  V30 4966 H 450.842 -2.81636 1.01594 0
M  V30 4967 H 448.388 -1.35407 0.489981 0
M  V30 4968 H 450.341 -4.07581 -1.07031 0
M  V30 4969 H 449.065 -2.90622 -1.49019 0
M  V30 4970 H 447.724 -3.62952 0.515915 0
M  V30 4971 H 447.372 -4.73395 -1.70019 0
M  V30 4972 H 447.072 -5.86514 -0.35705 0
M  V30 4973 H 448.596 -5.96955 -1.28361 0
M  V30 4974 H 450.01 -5.65113 0.965393 0
M  V30 4975 H 448.407 -5.73967 1.75161 0
M  V30 4976 H 449.477 -4.37006 2.10128 0
M  V30 4977 N 450.82 -0.546701 -1.47814 0
M  V30 4978 C 452.236 -0.205717 -1.58269 0
M  V30 4979 C 452.436 1.29153 -1.54667 0
M  V30 4980 O 451.492 2.07098 -1.44453 0
M  V30 4981 C 452.805 -0.823065 -2.89216 0
M  V30 4982 C 454.353 -0.793328 -3.02779 0
M  V30 4983 C 454.828 -1.38955 -4.36412 0
M  V30 4984 N 456.319 -1.35227 -4.43021 0
M  V30 4985 C 457.054 -1.78333 -5.44963 0
M  V30 4986 N 456.55 -2.29246 -6.53772 0
M  V30 4987 N 458.343 -1.69467 -5.35945 0
M  V30 4988 H 450.494 -1.5196 -1.48398 0
M  V30 4989 H 452.757 -0.633078 -0.705632 0
M  V30 4990 H 452.463 -1.8749 -2.97558 0
M  V30 4991 H 452.337 -0.309915 -3.75925 0
M  V30 4992 H 454.724 0.249784 -2.94041 0
M  V30 4993 H 454.805 -1.34412 -2.17639 0
M  V30 4994 H 454.449 -2.43168 -4.45906 0
M  V30 4995 H 454.379 -0.814291 -5.20266 0
M  V30 4996 H 456.87 -0.979739 -3.64979 0
M  V30 4997 H 457.183 -2.60089 -7.27718 0
M  V30 4998 H 455.528 -2.3325 -6.5469 0
M  V30 4999 H 458.719 -1.29477 -4.49837 0
M  V30 5000 H 458.892 -2.03381 -6.15256 0
M  V30 5001 N 452.299 1.55045 -0.282633 0
M  V30 5002 C 453.548 1.98938 0.332667 0
M  V30 5003 C 453.861 1.17455 1.56409 0
M  V30 5004 O 455.067 1.51527 2.25282 0
M  V30 5005 C 453.523 3.54105 0.643226 0
M  V30 5006 C 453.131 4.44374 -0.568814 0
M  V30 5007 C 454.875 4.06569 1.22074 0
M  V30 5008 C 452.782 5.90943 -0.232426 0
M  V30 5009 H 451.712 0.743043 0.128075 0
M  V30 5010 H 454.363 1.79341 -0.388464 0
M  V30 5011 H 452.745 3.69532 1.42346 0
M  V30 5012 H 453.919 4.40718 -1.34551 0
M  V30 5013 H 452.234 4.02585 -1.06369 0
M  V30 5014 H 454.831 5.13626 1.48635 0
M  V30 5015 H 455.174 3.56057 2.15707 0
M  V30 5016 H 455.707 3.94612 0.502621 0
M  V30 5017 H 452.446 6.45567 -1.13683 0
M  V30 5018 H 451.966 5.9765 0.507357 0
M  V30 5019 H 453.645 6.4677 0.172657 0
M  V30 5020 N 453.777 0.010035 1.57597 0
M  V30 5021 C 454.707 -0.976857 2.12084 0
M  V30 5022 C 455.688 -1.35191 1.03235 0
M  V30 5023 O 456.873 -1.43389 1.3097 0
M  V30 5024 C 454.003 -2.26548 2.63236 0
M  V30 5025 C 452.957 -2.03175 3.76701 0
M  V30 5026 C 452.283 -3.38138 4.14206 0
M  V30 5027 C 453.583 -1.38625 5.03568 0
M  V30 5028 H 455.277 -0.523145 2.94794 0
M  V30 5029 H 452.823 -0.250195 1.4181 0
M  V30 5030 H 454.776 -2.95952 2.99984 0
M  V30 5031 H 453.5 -2.74051 1.77661 0
M  V30 5032 H 452.159 -1.36195 3.40362 0
M  V30 5033 H 451.807 -3.83363 3.25641 0
M  V30 5034 H 451.507 -3.23312 4.90656 0
M  V30 5035 H 453.031 -4.08841 4.53521 0
M  V30 5036 H 454.445 -1.98 5.38023 0
M  V30 5037 H 452.842 -1.34256 5.84889 0
M  V30 5038 H 453.912 -0.356722 4.83586 0
M  V30 5039 N 455.255 -1.55392 -0.262866 0
M  V30 5040 C 456.202 -1.88966 -1.32516 0
M  V30 5041 C 457.172 -0.742187 -1.48596 0
M  V30 5042 O 458.357 -0.99439 -1.62839 0
M  V30 5043 C 455.497 -2.17592 -2.67858 0
M  V30 5044 C 454.61 -3.45061 -2.59917 0
M  V30 5045 C 453.745 -3.63336 -3.87505 0
M  V30 5046 C 452.784 -4.84462 -3.74116 0
M  V30 5047 N 451.921 -4.99342 -4.93561 0
M  V30 5048 H 456.761 -2.79566 -1.03184 0
M  V30 5049 H 454.298 -1.38404 -0.498285 0
M  V30 5050 H 456.256 -2.3219 -3.46617 0
M  V30 5051 H 454.886 -1.30215 -2.95371 0
M  V30 5052 H 453.938 -3.38881 -1.72812 0
M  V30 5053 H 455.25 -4.3396 -2.45926 0
M  V30 5054 H 454.404 -3.77807 -4.74707 0
M  V30 5055 H 453.143 -2.72641 -4.04374 0
M  V30 5056 H 452.148 -4.69985 -2.85297 0
M  V30 5057 H 453.373 -5.76603 -3.58757 0
M  V30 5058 H 451.319 -4.1158 -5.10821 0
M  V30 5059 H 451.236 -5.82303 -4.82141 0
M  V30 5060 H 452.504 -5.18208 -5.82306 0
M  V30 5061 N 456.733 0.527833 -1.48498 0
M  V30 5062 C 457.663 1.64136 -1.66077 0
M  V30 5063 C 458.644 1.62286 -0.509625 0
M  V30 5064 O 459.829 1.79449 -0.742413 0
M  V30 5065 C 456.959 3.02717 -1.70234 0
M  V30 5066 C 455.913 3.19426 -2.8487 0
M  V30 5067 C 455.239 4.5909 -2.74118 0
M  V30 5068 C 456.539 3.01993 -4.26142 0
M  V30 5069 H 458.233 1.4968 -2.593 0
M  V30 5070 H 455.779 0.718654 -1.24785 0
M  V30 5071 H 457.732 3.80491 -1.8112 0
M  V30 5072 H 456.456 3.18201 -0.735911 0
M  V30 5073 H 455.115 2.4407 -2.73542 0
M  V30 5074 H 454.763 4.71413 -1.7544 0
M  V30 5075 H 454.463 4.71214 -3.51042 0
M  V30 5076 H 455.987 5.3896 -2.86974 0
M  V30 5077 H 457.401 3.69558 -4.38292 0
M  V30 5078 H 455.798 3.2561 -5.04082 0
M  V30 5079 H 456.868 1.98396 -4.42456 0
M  V30 5080 N 458.211 1.37122 0.776871 0
M  V30 5081 C 459.174 1.32301 1.8716 0
M  V30 5082 C 460.174 0.228099 1.59174 0
M  V30 5083 O 461.364 0.483642 1.67352 0
M  V30 5084 C 458.496 1.054 3.24197 0
M  V30 5085 H 459.689 2.29673 1.92848 0
M  V30 5086 H 457.242 1.22077 0.97606 0
M  V30 5087 H 457.977 0.0853872 3.24188 0
M  V30 5088 H 457.762 1.84648 3.45901 0
M  V30 5089 H 459.252 1.04664 4.04271 0
M  V30 5090 N 459.689 -1.00246 1.21608 0
M  V30 5091 C 461.105 -1.26435 0.973975 0
M  V30 5092 C 461.305 -1.98642 -0.338143 0
M  V30 5093 O 460.361 -2.29026 -1.06317 0
M  V30 5094 C 461.674 -2.08551 2.16626 0
M  V30 5095 C 463.222 -2.21769 2.20879 0
M  V30 5096 C 463.697 -3.07267 3.39633 0
M  V30 5097 N 465.188 -3.14855 3.39736 0
M  V30 5098 C 465.923 -3.81274 4.28273 0
M  V30 5099 N 465.419 -4.497 5.27012 0
M  V30 5100 N 467.212 -3.7794 4.16074 0
M  V30 5101 H 459.363 -0.518089 2.05984 0
M  V30 5102 H 461.626 -0.291368 0.902113 0
M  V30 5103 H 461.332 -1.62847 3.11727 0
M  V30 5104 H 461.206 -3.09303 2.15897 0
M  V30 5105 H 463.593 -2.66691 1.26332 0
M  V30 5106 H 463.674 -1.20478 2.25652 0
M  V30 5107 H 463.318 -2.63047 4.34475 0
M  V30 5108 H 463.248 -4.08678 3.321 0
M  V30 5109 H 465.739 -2.66147 2.6828 0
M  V30 5110 H 466.052 -4.98092 5.90867 0
M  V30 5111 H 464.397 -4.48479 5.30935 0
M  V30 5112 H 467.588 -3.23638 3.38195 0
M  V30 5113 H 467.761 -4.29424 4.85282 0
M  V30 5114 N 461.167 -1.02423 -1.1978 0
M  V30 5115 C 462.117 -0.571689 -2.20716 0
M  V30 5116 C 463.101 0.377077 -1.56419 0
M  V30 5117 O 464.293 0.198801 -1.7588 0
M  V30 5118 C 461.422 0.0808555 -3.43205 0
M  V30 5119 C 460.508 -0.890073 -4.14655 0
M  V30 5120 N 460.899 -2.05065 -4.62366 0
M  V30 5121 C 459.197 -0.71252 -4.40272 0
M  V30 5122 C 459.898 -2.66264 -5.17183 0
M  V30 5123 N 458.874 -1.94264 -5.07703 0
M  V30 5124 H 462.676 -1.45636 -2.55279 0
M  V30 5125 H 460.19 -0.890596 -1.35802 0
M  V30 5126 H 462.187 0.422654 -4.14752 0
M  V30 5127 H 460.847 0.961274 -3.10144 0
M  V30 5128 H 461.858 -2.43026 -4.57339 0
M  V30 5129 H 458.535 0.119199 -4.1733 0
M  V30 5130 H 459.925 -3.64526 -5.64421 0
M  V30 5131 N 462.645 1.35699 -0.801477 0
M  V30 5132 C 463.87 2.03687 -0.390678 0
M  V30 5133 C 464.295 1.60015 0.988778 0
M  V30 5134 O 463.653 0.774357 1.63931 0
M  V30 5135 C 463.701 3.57439 -0.476404 0
M  V30 5136 O 462.805 4.09208 0.512106 0
M  V30 5137 H 462.146 0.64344 -0.163956 0
M  V30 5138 H 464.676 1.73403 -1.08594 0
M  V30 5139 H 464.686 4.06544 -0.344357 0
M  V30 5140 H 463.361 3.88576 -1.48262 0
M  V30 5141 H 461.938 3.7134 0.340721 0
M  V30 5142 N 464.123 0.554532 1.47522 0
M  V30 5143 C 465.351 0.034257 2.06872 0
M  V30 5144 C 465.766 -1.25826 1.40759 0
M  V30 5145 O 465.123 -1.75425 0.503217 0
M  V30 5146 C 465.174 -0.167827 3.6111 0
M  V30 5147 O 464.895 1.07351 4.24744 0
M  V30 5148 C 466.396 -0.72569 4.3732 0
M  V30 5149 H 463.616 0.0446275 0.669514 0
M  V30 5150 H 466.16 0.767181 1.89564 0
M  V30 5151 H 464.315 -0.850872 3.7794 0
M  V30 5152 H 464.729 0.869563 5.17242 0
M  V30 5153 H 466.203 -0.816394 5.45929 0
M  V30 5154 H 466.68 -1.73635 4.0342 0
M  V30 5155 H 467.286 -0.0784292 4.25228 0
M  V30 5156 N 465.601 -1.54893 0.290851 0
M  V30 5157 C 466.849 -1.99538 -0.320756 0
M  V30 5158 C 467.17 -1.18075 -1.55188 0
M  V30 5159 O 466.44 -0.274162 -1.93972 0
M  V30 5160 H 465.02 -0.737052 -0.121507 0
M  V30 5161 H 467.682 -1.90755 0.399832 0
M  V30 5162 H 466.778 -3.06282 -0.599802 0
M  V30 5163 N 467.08 -0.0183926 -1.57589 0
M  V30 5164 C 468.01 0.965596 -2.12599 0
M  V30 5165 C 468.991 1.34641 -1.0395 0
M  V30 5166 O 470.176 1.42693 -1.31729 0
M  V30 5167 C 467.306 2.25149 -2.64434 0
M  V30 5168 C 466.26 2.01175 -3.77773 0
M  V30 5169 C 465.586 3.35937 -4.15994 0
M  V30 5170 C 466.886 1.35953 -5.04296 0
M  V30 5171 H 468.58 0.507504 -2.95067 0
M  V30 5172 H 466.126 0.242671 -1.41941 0
M  V30 5173 H 468.079 2.94357 -3.01549 0
M  V30 5174 H 466.803 2.73105 -1.79112 0
M  V30 5175 H 465.462 1.34388 -3.4108 0
M  V30 5176 H 465.11 3.81631 -3.27669 0
M  V30 5177 H 464.81 3.20705 -4.92364 0
M  V30 5178 H 466.334 4.0643 -4.55683 0
M  V30 5179 H 467.748 1.95144 -5.39065 0
M  V30 5180 H 466.145 1.31152 -5.85593 0
M  V30 5181 H 467.215 0.331071 -4.83768 0
M  V30 5182 N 468.558 1.5553 0.254621 0
M  V30 5183 C 469.49 1.86104 1.33783 0
M  V30 5184 C 470.503 0.746752 1.44663 0
M  V30 5185 O 471.692 1.0248 1.46151 0
M  V30 5186 C 468.792 2.02532 2.71724 0
M  V30 5187 C 467.965 3.33335 2.83208 0
M  V30 5188 C 467.024 3.396 4.01943 0
M  V30 5189 O 466.05 4.12862 3.91834 0
M  V30 5190 N 467.252 2.68332 5.1476 0
M  V30 5191 H 470.017 2.79605 1.07893 0
M  V30 5192 H 467.578 1.55672 0.444732 0
M  V30 5193 H 469.57 2.04074 3.4948 0
M  V30 5194 H 468.14 1.15811 2.90356 0
M  V30 5195 H 467.36 3.44176 1.92189 0
M  V30 5196 H 468.648 4.19565 2.87824 0
M  V30 5197 H 468.046 2.08528 5.25864 0
M  V30 5198 H 466.603 2.75575 5.90679 0
M  V30 5199 N 470.036 -0.519951 1.48776 0
M  V30 5200 C 471.261 -1.30447 1.6124 0
M  V30 5201 C 471.686 -1.86055 0.276591 0
M  V30 5202 O 471.044 -1.64915 -0.753183 0
M  V30 5203 C 471.092 -2.42406 2.66967 0
M  V30 5204 O 470.196 -3.45728 2.24824 0
M  V30 5205 H 469.537 -0.385924 0.540332 0
M  V30 5206 H 472.067 -0.624572 1.94834 0
M  V30 5207 H 472.077 -2.88447 2.88552 0
M  V30 5208 H 470.752 -2.01294 3.63941 0
M  V30 5209 H 469.329 -3.05737 2.13494 0
M  V30 5210 N 471.514 -1.37532 -0.769588 0
M  V30 5211 C 472.444 -1.36172 -1.89682 0
M  V30 5212 C 473.425 -0.23001 -1.68538 0
M  V30 5213 O 474.61 -0.43069 -1.89364 0
M  V30 5214 C 471.74 -1.1701 -3.26995 0
M  V30 5215 C 470.694 -2.27216 -3.62708 0
M  V30 5216 C 470.02 -1.93174 -4.98586 0
M  V30 5217 C 471.32 -3.6941 -3.69234 0
M  V30 5218 H 473.014 -2.30499 -1.91078 0
M  V30 5219 H 470.56 -1.10953 -0.917902 0
M  V30 5220 H 472.513 -1.14688 -4.05493 0
M  V30 5221 H 471.237 -0.191395 -3.26039 0
M  V30 5222 H 469.896 -2.28697 -2.86519 0
M  V30 5223 H 469.544 -0.938281 -4.94171 0
M  V30 5224 H 469.244 -2.66973 -5.23449 0
M  V30 5225 H 470.768 -1.92443 -5.79481 0
M  V30 5226 H 472.182 -3.70047 -4.37879 0
M  V30 5227 H 470.579 -4.4228 -4.05597 0
M  V30 5228 H 471.649 -4.0288 -2.69844 0
M  V30 5229 N 472.992 0.995999 -1.22138 0
M  V30 5230 C 474.24 1.73167 -1.042 0
M  V30 5231 C 474.561 1.90329 0.42423 0
M  V30 5232 O 473.831 1.4607 1.30539 0
M  V30 5233 H 472.411 0.641593 -0.38258 0
M  V30 5234 H 475.073 1.19974 -1.53598 0
M  V30 5235 H 474.169 2.72734 -1.51731 0
M  V30 5236 N 474.47 1.03057 1.19235 0
M  V30 5237 C 475.717 0.728019 1.88961 0
M  V30 5238 C 476.045 -0.743515 1.79728 0
M  V30 5239 O 475.3 -1.55729 1.1852 0
M  V30 5240 C 475.599 1.1268 3.39172 0
M  V30 5241 C 475.265 2.5969 3.68608 0
M  V30 5242 C 473.927 2.99854 3.76352 0
M  V30 5243 C 476.279 3.54793 3.81801 0
M  V30 5244 C 473.607 4.34031 3.94758 0
M  V30 5245 C 475.959 4.88675 4.0172 0
M  V30 5246 C 474.623 5.28526 4.07697 0
M  V30 5247 H 473.893 0.266401 0.691456 0
M  V30 5248 H 476.54 1.29373 1.41191 0
M  V30 5249 H 474.845 0.479722 3.88852 0
M  V30 5250 H 476.542 0.870203 3.91444 0
M  V30 5251 H 473.132 2.27575 3.63191 0
M  V30 5252 H 477.316 3.24914 3.7516 0
M  V30 5253 H 472.572 4.6444 3.97625 0
M  V30 5254 H 476.746 5.6228 4.1087 0
M  V30 5255 H 474.373 6.32506 4.21712 0
M  V30 5256 N 475.948 -1.35272 0.808662 0
M  V30 5257 C 477.176 -2.02946 0.402537 0
M  V30 5258 C 477.591 -1.60937 -0.987147 0
M  V30 5259 O 476.948 -0.807917 -1.63643 0
M  V30 5260 C 476.999 -3.58317 0.47868 0
M  V30 5261 O 476.72 -3.98799 1.81358 0
M  V30 5262 C 478.221 -4.43251 0.0656281 0
M  V30 5263 H 475.441 -0.650831 0.163279 0
M  V30 5264 H 477.985 -1.72849 1.09286 0
M  V30 5265 H 476.14 -3.87055 -0.163415 0
M  V30 5266 H 476.554 -4.93451 1.77781 0
M  V30 5267 H 478.028 -5.51738 0.170017 0
M  V30 5268 H 478.505 -4.27913 -0.989278 0
M  V30 5269 H 479.111 -4.19813 0.68096 0
M  V30 5270 N 477.426 -0.562348 -1.47226 0
M  V30 5271 C 478.356 0.170627 -2.32876 0
M  V30 5272 C 479.337 0.903748 -1.44106 0
M  V30 5273 O 480.522 0.883206 -1.72954 0
M  V30 5274 C 477.652 1.19786 -3.25989 0
M  V30 5275 C 476.606 0.580875 -4.2404 0
M  V30 5276 C 475.932 1.71311 -5.06514 0
M  V30 5277 C 477.232 -0.468714 -5.20193 0
M  V30 5278 H 478.926 -0.544441 -2.94408 0
M  V30 5279 H 476.472 -0.263271 -1.41573 0
M  V30 5280 H 478.425 1.71884 -3.84752 0
M  V30 5281 H 477.149 1.94294 -2.62521 0
M  V30 5282 H 475.808 0.0811538 -3.6651 0
M  V30 5283 H 475.456 2.44736 -4.39447 0
M  V30 5284 H 475.156 1.30604 -5.72902 0
M  V30 5285 H 476.68 2.23725 -5.68137 0
M  V30 5286 H 478.094 -0.0336028 -5.7329 0
M  V30 5287 H 476.491 -0.794957 -5.94811 0
M  V30 5288 H 477.561 -1.36269 -4.65359 0
M  V30 5289 N 478.904 1.54736 -0.299062 0
M  V30 5290 C 480.32 1.59507 0.0543849 0
M  V30 5291 C 480.52 1.31606 1.52585 0
M  V30 5292 O 479.576 1.08853 2.27832 0
M  V30 5293 C 480.889 2.98751 -0.34181 0
M  V30 5294 C 482.437 3.1165 -0.290414 0
M  V30 5295 C 482.912 4.53199 -0.661402 0
M  V30 5296 N 484.403 4.59114 -0.613863 0
M  V30 5297 C 485.138 5.66709 -0.873417 0
M  V30 5298 N 484.634 6.82349 -1.19884 0
M  V30 5299 N 486.427 5.56369 -0.800608 0
M  V30 5300 H 478.578 1.71133 -1.25806 0
M  V30 5301 H 480.841 0.799186 -0.509908 0
M  V30 5302 H 480.547 3.24085 -1.36608 0
M  V30 5303 H 480.421 3.75961 0.305508 0
M  V30 5304 H 482.808 2.86066 0.724605 0
M  V30 5305 H 482.889 2.366 -0.972327 0
M  V30 5306 H 482.533 4.79513 -1.67422 0
M  V30 5307 H 482.463 5.26583 0.0425612 0
M  V30 5308 H 484.954 3.76053 -0.3732 0
M  V30 5309 H 485.267 7.60326 -1.38291 0
M  V30 5310 H 483.612 6.83906 -1.23685 0
M  V30 5311 H 486.803 4.64904 -0.546045 0
M  V30 5312 H 486.976 6.40139 -1.00626 0
M  V30 5313 N 480.382 0.0267497 1.57577 0
M  V30 5314 C 481.798 -0.32962 1.56159 0
M  V30 5315 C 481.998 -1.73059 1.03213 0
M  V30 5316 O 481.054 -2.43233 0.677804 0
M  V30 5317 C 482.367 -0.18039 3.00158 0
M  V30 5318 C 483.915 -0.253334 3.11973 0
M  V30 5319 C 484.39 -0.132921 4.57807 0
M  V30 5320 N 485.881 -0.189979 4.6281 0
M  V30 5321 C 486.616 -0.120554 5.73273 0
M  V30 5322 N 486.112 -0.000180315 6.928 0
M  V30 5323 N 487.905 -0.174369 5.61829 0
M  V30 5324 H 480.056 0.942896 1.90324 0
M  V30 5325 H 482.319 0.3639 0.875375 0
M  V30 5326 H 482.025 0.784576 3.42837 0
M  V30 5327 H 481.899 -0.951565 3.65 0
M  V30 5328 H 484.286 -1.20876 2.69208 0
M  V30 5329 H 484.367 0.548177 2.49857 0
M  V30 5330 H 484.011 0.819073 5.01252 0
M  V30 5331 H 483.941 -0.953264 5.179 0
M  V30 5332 H 486.432 -0.283257 3.76837 0
M  V30 5333 H 486.745 0.0461666 7.72786 0
M  V30 5334 H 485.09 0.034569 6.94991 0
M  V30 5335 H 488.281 -0.266794 4.67339 0
M  V30 5336 H 488.454 -0.116802 6.47895 0
M  V30 5337 N 481.861 -1.55662 -0.24637 0
M  V30 5338 C 483.086 -1.81914 -0.996093 0
M  V30 5339 C 483.511 -0.603875 -1.78143 0
M  V30 5340 O 482.869 0.447091 -1.75701 0
M  V30 5341 C 482.917 -3.05908 -1.90925 0
M  V30 5342 O 482.021 -2.82861 -3.00105 0
M  V30 5343 H 481.362 -0.600481 -0.283406 0
M  V30 5344 H 483.892 -2.02848 -0.267199 0
M  V30 5345 H 483.902 -3.35356 -2.3238 0
M  V30 5346 H 482.577 -3.93999 -1.33183 0
M  V30 5347 H 481.154 -2.64583 -2.62775 0
M  V30 5348 N 483.339 0.512053 -1.4905 0
M  V30 5349 C 484.569 1.28928 -1.61434 0
M  V30 5350 C 484.977 1.87107 -0.280647 0
M  V30 5351 O 484.32 1.68024 0.742537 0
M  V30 5352 C 484.382 2.466 -2.61588 0
M  V30 5353 C 484.046 2.09375 -4.06216 0
M  V30 5354 C 485.043 1.63994 -4.93358 0
M  V30 5355 C 482.728 2.19348 -4.51876 0
M  V30 5356 C 484.722 1.29076 -6.24194 0
M  V30 5357 C 482.409 1.84041 -5.82728 0
M  V30 5358 C 483.407 1.38978 -6.68711 0
M  V30 5359 O 483.095 1.04144 -7.97126 0
M  V30 5360 H 482.827 0.397668 -0.546659 0
M  V30 5361 H 485.381 0.622507 -1.9574 0
M  V30 5362 H 483.611 3.16318 -2.22441 0
M  V30 5363 H 485.3 3.08642 -2.63619 0
M  V30 5364 H 486.066 1.55744 -4.59313 0
M  V30 5365 H 481.945 2.53376 -3.85125 0
M  V30 5366 H 485.489 0.938303 -6.91261 0
M  V30 5367 H 481.386 1.91938 -6.16304 0
M  V30 5368 H 482.154 1.17387 -8.10039 0
M  V30 5369 N 484.817 1.37938 0.762283 0
M  V30 5370 C 485.765 1.34569 1.89721 0
M  V30 5371 C 486.759 0.232929 1.67791 0
M  V30 5372 O 487.965 0.401485 1.75465 0
M  V30 5373 H 484.34 0.419594 0.624055 0
M  V30 5374 H 486.311 2.30357 1.8968 0
M  V30 5375 C 485.06 1.17898 3.27101 0
M  V30 5376 H 484.383 2.02781 3.44558 0
M  V30 5377 H 485.823 1.19593 4.06784 0
M  V30 5378 C 484.282 -0.114728 3.36705 0
M  V30 5379 O 484.812 -1.0949 3.8649 0
M  V30 5380 N 483.018 -0.16863 2.9011 0
M  V30 5381 H 482.565 0.62967 2.49786 0
M  V30 5382 H 482.523 -1.03383 2.96916 0
M  V30 5383 N 486.295 -0.989507 1.22664 0
M  V30 5384 C 487.205 -2.11449 1.01619 0
M  V30 5385 C 488.221 -1.73962 -0.036545 0
M  V30 5386 O 489.397 -2.00788 0.156924 0
M  V30 5387 C 486.462 -3.41465 0.600204 0
M  V30 5388 C 485.523 -3.93033 1.72695 0
M  V30 5389 C 484.756 -5.16844 1.33071 0
M  V30 5390 O 484.979 -5.7001 0.210975 0
M  V30 5391 O 483.913 -5.6225 2.14845 0
M  V30 5392 H 487.739 -2.32088 1.9588 0
M  V30 5393 H 485.324 -1.09823 1.01289 0
M  V30 5394 H 487.206 -4.19695 0.37873 0
M  V30 5395 H 485.881 -3.22178 -0.313511 0
M  V30 5396 H 484.788 -3.15961 2.00298 0
M  V30 5397 H 486.121 -4.16758 2.61865 0
M  V30 5398 N 487.773 -1.03688 -1.18687 0
M  V30 5399 C 488.703 -0.645407 -2.24403 0
M  V30 5400 C 489.684 0.349511 -1.66471 0
M  V30 5401 O 490.869 0.230453 -1.92828 0
M  V30 5402 C 487.999 -0.00365337 -3.473 0
M  V30 5403 C 486.953 -0.921705 -4.17958 0
M  V30 5404 C 486.279 -0.144629 -5.34504 0
M  V30 5405 C 487.579 -2.23909 -4.71871 0
M  V30 5406 H 489.273 -1.52917 -2.57404 0
M  V30 5407 H 486.819 -0.736711 -1.23728 0
M  V30 5408 H 488.772 0.281908 -4.20456 0
M  V30 5409 H 487.496 0.914963 -3.13522 0
M  V30 5410 H 486.155 -1.19159 -3.46694 0
M  V30 5411 H 485.803 0.776274 -4.96974 0
M  V30 5412 H 485.503 -0.756206 -5.82714 0
M  V30 5413 H 487.027 0.134004 -6.10453 0
M  V30 5414 H 488.441 -2.0145 -5.36741 0
M  V30 5415 H 486.838 -2.8033 -5.30599 0
M  V30 5416 H 487.908 -2.88822 -3.895 0
M  V30 5417 N 489.251 1.34841 -0.815825 0
M  V30 5418 C 490.499 1.98107 -0.399744 0
M  V30 5419 C 490.82 1.65019 1.03894 0
M  V30 5420 O 490.09 0.937311 1.72021 0
M  V30 5421 H 488.67 0.732827 -0.144823 0
M  V30 5422 H 491.332 1.64599 -1.0437 0
M  V30 5423 H 490.428 3.07856 -0.512965 0
M  V30 5424 N 490.729 0.570148 1.46925 0
M  V30 5425 C 491.659 -0.158274 2.32963 0
M  V30 5426 C 492.64 -0.896093 1.44583 0
M  V30 5427 O 493.825 -0.874022 1.7342 0
M  V30 5428 C 490.955 -1.18055 3.26619 0
M  V30 5429 C 489.909 -0.558379 4.24342 0
M  V30 5430 C 489.235 -1.68623 5.07415 0
M  V30 5431 C 490.535 0.496295 5.19937 0
M  V30 5432 H 492.229 0.560046 2.94115 0
M  V30 5433 H 489.775 0.270775 1.41431 0
M  V30 5434 H 491.728 -1.69841 3.85658 0
M  V30 5435 H 490.452 -1.92899 2.63548 0
M  V30 5436 H 489.111 -0.0617157 3.66548 0
M  V30 5437 H 488.759 -2.42402 4.40738 0
M  V30 5438 H 488.459 -1.27564 5.73586 0
M  V30 5439 H 489.983 -2.20709 5.69315 0
M  V30 5440 H 491.397 0.0640052 5.73264 0
M  V30 5441 H 489.794 0.82649 5.94381 0
M  V30 5442 H 490.864 1.38735 4.6463 0
M  V30 5443 N 492.207 -1.54576 0.307264 0
M  V30 5444 C 493.137 -2.26708 -0.55907 0
M  V30 5445 C 494.118 -1.26893 -1.1328 0
M  V30 5446 O 495.303 -1.55677 -1.16097 0
M  V30 5447 C 492.433 -3.01259 -1.72801 0
M  V30 5448 C 491.387 -4.08275 -1.28435 0
M  V30 5449 C 490.713 -4.70575 -2.53895 0
M  V30 5450 C 492.013 -5.2068 -0.411038 0
M  V30 5451 H 493.707 -2.9937 0.042576 0
M  V30 5452 H 491.253 -1.43983 0.0219173 0
M  V30 5453 H 493.206 -3.50444 -2.34023 0
M  V30 5454 H 491.93 -2.26187 -2.356 0
M  V30 5455 H 490.589 -3.59949 -0.695161 0
M  V30 5456 H 490.237 -3.92136 -3.15021 0
M  V30 5457 H 489.937 -5.42854 -2.24908 0
M  V30 5458 H 491.461 -5.22527 -3.15908 0
M  V30 5459 H 492.875 -5.65721 -0.929097 0
M  V30 5460 H 491.272 -5.99716 -0.214664 0
M  V30 5461 H 492.342 -4.81629 0.562287 0
M  V30 5462 N 493.685 -0.035106 -1.57561 0
M  V30 5463 C 494.934 0.641604 -1.91223 0
M  V30 5464 C 495.247 1.72944 -0.913761 0
M  V30 5465 O 496.453 2.46321 -1.14185 0
M  V30 5466 C 494.909 1.19249 -3.3957 0
M  V30 5467 C 494.517 0.137616 -4.47789 0
M  V30 5468 C 496.261 1.84537 -3.82291 0
M  V30 5469 C 494.168 0.700478 -5.87237 0
M  V30 5470 H 493.098 0.243417 -0.713627 0
M  V30 5471 H 495.749 -0.101382 -1.8322 0
M  V30 5472 H 494.131 1.98728 -3.42525 0
M  V30 5473 H 495.305 -0.635153 -4.56402 0
M  V30 5474 H 493.62 -0.416855 -4.14308 0
M  V30 5475 H 496.217 2.27616 -4.83834 0
M  V30 5476 H 496.56 2.69054 -3.17672 0
M  V30 5477 H 497.093 1.11739 -3.81784 0
M  V30 5478 H 493.832 -0.106693 -6.55413 0
M  V30 5479 H 493.352 1.4416 -5.82218 0
M  V30 5480 H 495.031 1.18837 -6.35993 0
M  V30 5481 N 495.163 1.55791 0.238111 0
M  V30 5482 C 496.093 1.94068 1.29846 0
M  V30 5483 C 497.074 0.806726 1.49753 0
M  V30 5484 O 498.259 1.06772 1.62214 0
M  V30 5485 C 495.389 2.24302 2.65153 0
M  V30 5486 C 494.343 3.40032 2.59927 0
M  V30 5487 C 493.669 3.55829 3.99111 0
M  V30 5488 C 494.969 4.75476 2.16148 0
M  V30 5489 H 496.663 2.82887 0.980563 0
M  V30 5490 H 494.209 1.36105 0.470253 0
M  V30 5491 H 496.162 2.4967 3.39475 0
M  V30 5492 H 494.886 1.32318 2.98596 0
M  V30 5493 H 493.545 3.14687 1.88063 0
M  V30 5494 H 493.193 2.6125 4.29834 0
M  V30 5495 H 492.893 4.3366 3.96501 0
M  V30 5496 H 494.417 3.83528 4.7512 0
M  V30 5497 H 495.831 5.00158 2.80205 0
M  V30 5498 H 494.228 5.56472 2.24631 0
M  V30 5499 H 495.298 4.71946 1.11333 0
M  V30 5500 N 496.642 -0.504142 1.49319 0
M  V30 5501 C 497.889 -1.25846 1.58647 0
M  V30 5502 C 498.217 -1.92592 0.27177 0
M  V30 5503 O 497.472 -1.81167 -0.74007 0
M  V30 5504 C 497.771 -2.35021 2.69258 0
M  V30 5505 C 497.437 -1.85755 4.1086 0
M  V30 5506 C 496.099 -1.72038 4.49395 0
M  V30 5507 C 498.451 -1.48844 4.99495 0
M  V30 5508 C 495.779 -1.19783 5.74342 0
M  V30 5509 C 498.131 -0.980422 6.24956 0
M  V30 5510 C 496.795 -0.829622 6.62324 0
M  V30 5511 H 496.065 -0.460505 0.580531 0
M  V30 5512 H 498.712 -0.559716 1.83138 0
M  V30 5513 H 497.017 -3.10672 2.38726 0
M  V30 5514 H 498.714 -2.93083 2.73685 0
M  V30 5515 H 495.304 -1.9739 3.80441 0
M  V30 5516 H 499.488 -1.5829 4.70381 0
M  V30 5517 H 494.744 -1.06817 6.01997 0
M  V30 5518 H 498.918 -0.685608 6.93017 0
M  V30 5519 H 496.545 -0.42253 7.59025 0
M  V30 5520 N 498.12 -1.38341 -0.754957 0
M  V30 5521 C 499.05 -1.38176 -1.88227 0
M  V30 5522 C 500.031 -0.247873 -1.68284 0
M  V30 5523 O 501.216 -0.45075 -1.88896 0
M  V30 5524 C 498.346 -1.20471 -3.25736 0
M  V30 5525 C 497.3 -2.3105 -3.60278 0
M  V30 5526 C 496.626 -1.98452 -4.96509 0
M  V30 5527 C 497.926 -3.73305 -3.65295 0
M  V30 5528 H 499.62 -2.32512 -1.88622 0
M  V30 5529 H 497.166 -1.1192 -0.906082 0
M  V30 5530 H 499.119 -1.18982 -4.04254 0
M  V30 5531 H 497.843 -0.225965 -3.25817 0
M  V30 5532 H 496.502 -2.31723 -2.84078 0
M  V30 5533 H 496.15 -0.990641 -4.93148 0
M  V30 5534 H 495.85 -2.7251 -5.20588 0
M  V30 5535 H 497.374 -1.98578 -5.77407 0
M  V30 5536 H 498.788 -3.7467 -4.3393 0
M  V30 5537 H 497.185 -4.46557 -4.00883 0
M  V30 5538 H 498.255 -4.05719 -2.65556 0
M  V30 5539 N 499.598 0.982988 -1.23187 0
M  V30 5540 C 500.561 2.05649 -1.01198 0
M  V30 5541 C 501.561 1.6078 0.0252464 0
M  V30 5542 O 502.751 1.72878 -0.214243 0
M  V30 5543 C 499.883 3.36744 -0.530656 0
M  V30 5544 H 501.076 2.2659 -1.96461 0
M  V30 5545 H 498.629 1.15602 -1.05195 0
M  V30 5546 H 499.364 3.21492 0.425873 0
M  V30 5547 H 499.149 3.7065 -1.2791 0
M  V30 5548 H 500.639 4.15705 -0.397366 0
M  V30 5549 N 501.076 1.04316 1.18135 0
M  V30 5550 C 502.009 0.580823 2.20685 0
M  V30 5551 C 502.987 -0.385943 1.57953 0
M  V30 5552 O 504.171 -0.299654 1.86103 0
M  V30 5553 C 501.298 -0.151162 3.38363 0
M  V30 5554 C 500.344 0.769247 4.19505 0
M  V30 5555 S 501.177 2.25352 4.85774 0
M  V30 5556 C 502.333 1.53246 6.0685 0
M  V30 5557 H 502.566 1.44968 2.5956 0
M  V30 5558 H 500.099 0.85434 1.28609 0
M  V30 5559 H 502.057 -0.567315 4.06561 0
M  V30 5560 H 500.718 -0.995936 2.97892 0
M  V30 5561 H 499.911 0.203335 5.0359 0
M  V30 5562 H 499.513 1.12436 3.56699 0
M  V30 5563 H 501.805 0.82689 6.72435 0
M  V30 5564 H 502.748 2.35044 6.67952 0
M  V30 5565 H 503.156 1.0237 5.5514 0
M  V30 5566 N 502.554 -1.34406 0.822964 0
M  V30 5567 C 503.802 -1.97892 0.410245 0
M  V30 5568 C 504.123 -1.65567 -1.03017 0
M  V30 5569 O 503.393 -0.94642 -1.71522 0
M  V30 5570 H 501.973 -0.732049 0.148707 0
M  V30 5571 H 504.635 -1.64043 1.05242 0
M  V30 5572 H 503.731 -3.07579 0.529284 0
M  V30 5573 N 504.032 -0.577932 -1.46621 0
M  V30 5574 C 505.281 -0.0594281 -2.01612 0
M  V30 5575 C 505.594 1.30663 -1.45556 0
M  V30 5576 O 506.8 1.91621 -1.92337 0
M  V30 5577 C 505.256 -0.0556666 -3.59857 0
M  V30 5578 C 504.864 -1.41975 -4.24908 0
M  V30 5579 C 506.608 0.409143 -4.22524 0
M  V30 5580 C 504.515 -1.37397 -5.75218 0
M  V30 5581 H 503.445 -0.0184469 -0.753774 0
M  V30 5582 H 506.096 -0.728869 -1.68404 0
M  V30 5583 H 504.478 0.679843 -3.90121 0
M  V30 5584 H 505.652 -2.17461 -4.0626 0
M  V30 5585 H 503.967 -1.82419 -3.74316 0
M  V30 5586 H 506.564 0.46211 -5.32699 0
M  V30 5587 H 506.907 1.42565 -3.91128 0
M  V30 5588 H 507.44 -0.272152 -3.96868 0
M  V30 5589 H 504.179 -2.36714 -6.11267 0
M  V30 5590 H 503.699 -0.661239 -5.96144 0
M  V30 5591 H 505.378 -1.08484 -6.3784 0
M  V30 5592 N 505.51 1.54411 -0.315457 0
M  V30 5593 C 506.443 2.20265 0.596522 0
M  V30 5594 C 507.421 1.17693 1.12192 0
M  V30 5595 O 508.605 1.46397 1.18744 0
M  V30 5596 C 505.732 2.85794 1.81767 0
M  V30 5597 C 504.778 4.02017 1.42424 0
M  V30 5598 S 505.611 5.33452 0.467836 0
M  V30 5599 C 506.767 6.02471 1.69645 0
M  V30 5600 H 507 2.97277 0.0370896 0
M  V30 5601 H 504.533 1.54079 -0.0995562 0
M  V30 5602 H 506.491 3.24172 2.51839 0
M  V30 5603 H 505.152 2.08601 2.34828 0
M  V30 5604 H 504.345 4.46701 2.33396 0
M  V30 5605 H 503.947 3.65271 0.803311 0
M  V30 5606 H 506.239 6.24157 2.63504 0
M  V30 5607 H 507.182 6.96215 1.29192 0
M  V30 5608 H 507.59 5.32284 1.87974 0
M  V30 5609 N 506.988 0.0434614 1.5754 0
M  V30 5610 C 508.237 -0.631454 1.91561 0
M  V30 5611 C 508.55 -1.72457 0.92292 0
M  V30 5612 O 509.756 -2.45712 1.15489 0
M  V30 5613 C 508.212 -1.17447 3.40197 0
M  V30 5614 C 507.82 -0.113867 4.47855 0
M  V30 5615 C 509.564 -1.82507 3.83264 0
M  V30 5616 C 507.471 -0.669326 5.876 0
M  V30 5617 H 506.401 -0.239629 0.714908 0
M  V30 5618 H 509.052 0.111097 1.83163 0
M  V30 5619 H 507.434 -1.96909 3.43574 0
M  V30 5620 H 508.608 0.659348 4.56058 0
M  V30 5621 H 506.923 0.438821 4.14081 0
M  V30 5622 H 509.52 -2.25047 4.85034 0
M  V30 5623 H 509.863 -2.67365 3.19095 0
M  V30 5624 H 510.396 -1.09712 3.82372 0
M  V30 5625 H 507.135 0.141449 6.55347 0
M  V30 5626 H 506.655 -1.4107 5.82974 0
M  V30 5627 H 508.334 -1.15463 6.36614 0
M  V30 5628 N 508.466 -1.55915 -0.229846 0
M  V30 5629 C 509.713 -1.78542 -0.955452 0
M  V30 5630 C 510.041 -0.610785 -1.84661 0
M  V30 5631 O 509.296 0.405213 -1.91459 0
M  V30 5632 C 509.595 -3.06845 -1.8325 0
M  V30 5633 C 509.261 -4.37395 -1.09528 0
M  V30 5634 C 507.923 -4.72868 -0.891598 0
M  V30 5635 C 510.275 -5.18029 -0.574046 0
M  V30 5636 C 507.603 -5.86496 -0.154655 0
M  V30 5637 C 509.955 -6.32423 0.149513 0
M  V30 5638 C 508.619 -6.66504 0.364519 0
M  V30 5639 H 507.889 -0.653333 -0.349625 0
M  V30 5640 H 510.536 -1.90183 -0.224235 0
M  V30 5641 H 508.841 -2.90291 -2.63132 0
M  V30 5642 H 510.538 -3.21553 -2.39592 0
M  V30 5643 H 507.128 -4.09538 -1.26399 0
M  V30 5644 H 511.312 -4.91066 -0.718899 0
M  V30 5645 H 506.568 -6.11396 0.0222356 0
M  V30 5646 H 510.742 -6.94137 0.560947 0
M  V30 5647 H 508.369 -7.54397 0.937495 0
M  V30 5648 N 509.944 0.496216 -1.49584 0
M  V30 5649 C 511.169 1.27865 -1.63295 0
M  V30 5650 C 511.594 1.85592 -0.306156 0
M  V30 5651 O 510.952 1.66092 0.726851 0
M  V30 5652 C 511 2.38128 -2.7079 0
M  V30 5653 O 510.104 3.42108 -2.30296 0
M  V30 5654 H 509.445 0.377279 -0.546403 0
M  V30 5655 H 511.975 0.593497 -1.95803 0
M  V30 5656 H 511.985 2.8382 -2.93104 0
M  V30 5657 H 510.66 1.95479 -3.67098 0
M  V30 5658 H 509.237 3.02301 -2.18331 0
M  V30 5659 N 511.423 1.38739 0.74761 0
M  V30 5660 C 512.648 1.38702 1.54197 0
M  V30 5661 C 513.073 -0.019664 1.8809 0
M  V30 5662 O 512.431 -1.00333 1.51006 0
M  V30 5663 C 512.479 2.25492 2.814 0
M  V30 5664 O 511.583 1.67613 3.76802 0
M  V30 5665 H 510.924 0.472863 0.466151 0
M  V30 5666 H 513.454 1.82577 0.923413 0
M  V30 5667 H 513.464 2.39561 3.30264 0
M  V30 5668 H 512.139 3.27727 2.56062 0
M  V30 5669 H 510.716 1.62718 3.35526 0
M  V30 5670 N 512.901 -0.976442 1.23707 0
M  V30 5671 C 513.831 -2.08749 1.04624 0
M  V30 5672 C 514.812 -1.70057 -0.0380956 0
M  V30 5673 O 515.997 -1.93782 0.127308 0
M  V30 5674 C 513.127 -3.41335 0.640902 0
M  V30 5675 C 512.081 -3.93947 1.67302 0
M  V30 5676 C 511.407 -5.22774 1.12301 0
M  V30 5677 C 512.707 -4.22769 3.06697 0
M  V30 5678 H 514.401 -2.24972 1.97555 0
M  V30 5679 H 511.947 -1.08108 0.951247 0
M  V30 5680 H 513.9 -4.18489 0.494434 0
M  V30 5681 H 512.624 -3.24988 -0.324099 0
M  V30 5682 H 511.283 -3.18941 1.80755 0
M  V30 5683 H 510.931 -5.0278 0.148877 0
M  V30 5684 H 510.631 -5.58942 1.81267 0
M  V30 5685 H 512.155 -6.02546 0.988479 0
M  V30 5686 H 513.569 -4.90659 2.96524 0
M  V30 5687 H 511.966 -4.70147 3.72937 0
M  V30 5688 H 513.036 -3.29885 3.55392 0
M  V30 5689 N 514.379 -1.04941 -1.1758 0
M  V30 5690 C 515.625 -0.759112 -1.88057 0
M  V30 5691 C 515.958 0.711918 -1.8068 0
M  V30 5692 O 515.233 1.52035 -1.21308 0
M  V30 5693 C 515.516 -1.237 -3.38187 0
M  V30 5694 C 515.369 -2.77078 -3.54327 0
M  V30 5695 C 516.688 -0.834014 -4.32125 0
M  V30 5696 H 513.807 -0.277237 -0.682868 0
M  V30 5697 H 516.449 -1.30296 -1.38286 0
M  V30 5698 H 514.599 -0.774337 -3.80705 0
M  V30 5699 H 516.271 -3.31449 -3.20842 0
M  V30 5700 H 514.514 -3.16477 -2.96689 0
M  V30 5701 H 515.185 -3.05577 -4.59703 0
M  V30 5702 H 517.661 -1.23228 -3.97434 0
M  V30 5703 H 516.537 -1.19603 -5.35711 0
M  V30 5704 H 516.798 0.262195 -4.41322 0
M  V30 5705 N 515.857 1.33968 -0.830081 0
M  V30 5706 C 517.104 1.98063 -0.421566 0
M  V30 5707 C 517.432 1.65787 1.0171 0
M  V30 5708 O 516.687 0.925348 1.72441 0
M  V30 5709 C 516.986 3.52679 -0.57898 0
M  V30 5710 C 516.652 4.04884 -1.98443 0
M  V30 5711 C 515.314 4.18852 -2.36888 0
M  V30 5712 C 517.666 4.32879 -2.90285 0
M  V30 5713 C 514.994 4.58145 -3.66497 0
M  V30 5714 C 517.346 4.7362 -4.19364 0
M  V30 5715 C 516.01 4.85794 -4.57778 0
M  V30 5716 H 515.28 0.724765 -0.154262 0
M  V30 5717 H 517.927 1.59792 -1.05541 0
M  V30 5718 H 516.232 3.91556 0.138219 0
M  V30 5719 H 517.929 4.00261 -0.243317 0
M  V30 5720 H 514.519 3.9448 -1.67581 0
M  V30 5721 H 518.703 4.21619 -2.61823 0
M  V30 5722 H 513.959 4.65762 -3.96075 0
M  V30 5723 H 518.133 4.9424 -4.90612 0
M  V30 5724 H 515.76 5.15998 -5.58256 0
M  V30 5725 N 517.335 0.585699 1.46312 0
M  V30 5726 C 518.582 0.0724211 2.0237 0
M  V30 5727 C 518.91 -1.28868 1.45683 0
M  V30 5728 O 518.165 -1.85853 0.612945 0
M  V30 5729 C 518.464 -0.0401312 3.57377 0
M  V30 5730 C 518.13 1.25376 4.33119 0
M  V30 5731 C 516.792 1.60824 4.5353 0
M  V30 5732 C 519.144 2.10987 4.76586 0
M  V30 5733 C 516.472 2.81676 5.14661 0
M  V30 5734 C 518.824 3.31068 5.39052 0
M  V30 5735 C 517.488 3.66794 5.5769 0
M  V30 5736 H 516.758 0.0265007 0.740526 0
M  V30 5737 H 519.405 0.762935 1.75646 0
M  V30 5738 H 517.71 -0.813791 3.83255 0
M  V30 5739 H 519.407 -0.453078 3.98432 0
M  V30 5740 H 515.997 0.967808 4.1753 0
M  V30 5741 H 520.181 1.84904 4.60569 0
M  V30 5742 H 515.437 3.0949 5.27282 0
M  V30 5743 H 519.611 3.97672 5.71691 0
M  V30 5744 H 517.238 4.60529 6.04828 0
M  V30 5745 N 518.813 -1.54241 0.323641 0
M  V30 5746 C 519.776 -2.22997 -0.529602 0
M  V30 5747 C 520.776 -1.22345 -1.04347 0
M  V30 5748 O 521.966 -1.46924 -0.935889 0
M  V30 5749 C 519.098 -2.93409 -1.73562 0
M  V30 5750 H 520.291 -2.99815 0.0714518 0
M  V30 5751 H 517.844 -1.56121 0.0747258 0
M  V30 5752 H 518.579 -2.20729 -2.37591 0
M  V30 5753 H 518.364 -3.67217 -1.37456 0
M  V30 5754 H 519.854 -3.45794 -2.34128 0
M  V30 5755 N 520.291 -0.0518155 -1.57515 0
M  V30 5756 C 521.201 0.937539 -2.15052 0
M  V30 5757 C 522.217 1.34121 -1.10849 0
M  V30 5758 O 523.393 1.418 -1.4302 0
M  V30 5759 C 520.458 2.19379 -2.68466 0
M  V30 5760 C 519.519 1.84841 -3.87469 0
M  V30 5761 C 518.752 3.04477 -4.38326 0
M  V30 5762 O 518.975 4.17868 -3.88256 0
M  V30 5763 O 517.909 2.85453 -5.29906 0
M  V30 5764 H 521.735 0.478201 -2.99912 0
M  V30 5765 H 519.32 0.17012 -1.48428 0
M  V30 5766 H 521.202 2.93084 -3.02787 0
M  V30 5767 H 519.877 2.64449 -1.86677 0
M  V30 5768 H 518.784 1.08449 -3.58036 0
M  V30 5769 H 520.117 1.44569 -4.7049 0
M  V30 5770 N 521.769 1.56035 0.221574 0
M  V30 5771 C 522.716 1.92413 1.27459 0
M  V30 5772 C 523.686 0.781323 1.46576 0
M  V30 5773 O 524.871 1.03721 1.60145 0
M  V30 5774 C 522.011 2.24617 2.61995 0
M  V30 5775 C 521.124 3.51831 2.50677 0
M  V30 5776 C 520.259 3.73482 3.77736 0
M  V30 5777 C 519.298 4.94211 3.6114 0
M  V30 5778 N 518.435 5.12252 4.80148 0
M  V30 5779 H 523.275 2.82203 0.957355 0
M  V30 5780 H 520.812 1.39676 0.461415 0
M  V30 5781 H 522.77 2.41298 3.40339 0
M  V30 5782 H 521.4 1.38 2.91815 0
M  V30 5783 H 520.452 3.43343 1.63767 0
M  V30 5784 H 521.764 4.40328 2.34334 0
M  V30 5785 H 520.918 3.9026 4.64523 0
M  V30 5786 H 519.657 2.83266 3.97003 0
M  V30 5787 H 518.662 4.77384 2.72736 0
M  V30 5788 H 519.887 5.85912 3.43343 0
M  V30 5789 H 517.833 4.24978 4.99729 0
M  V30 5790 H 517.75 5.94881 4.66532 0
M  V30 5791 H 519.018 5.33465 5.68362 0
M  V30 5792 N 523.247 -0.488276 1.49845 0
M  V30 5793 C 524.524 -1.24959 1.50481 0
M  V30 5794 C 524.904 -2.09735 0.239698 0
M  V30 5795 O 524.252 -2.14865 -0.777524 0
M  V30 5796 C 524.462 -2.0954 2.79095 0
M  V30 5797 C 525.81 -2.68305 3.29086 0
M  V30 5798 O 526.834 -2.19797 2.80299 0
M  V30 5799 O 525.693 -3.56643 4.14087 0
M  V30 5800 H 522.787 -0.566133 0.602845 0
M  V30 5801 H 525.333 -0.501504 1.6212 0
M  V30 5802 H 524.105 -1.46958 3.62656 0
M  V30 5803 H 523.728 -2.91517 2.70377 0
M  V30 5804 N 524.725 -1.39134 -0.740242 0
M  V30 5805 C 525.635 -1.39697 -1.88473 0
M  V30 5806 C 526.651 -0.292403 -1.71526 0
M  V30 5807 O 527.827 -0.533021 -1.94219 0
M  V30 5808 C 524.892 -1.23382 -3.24003 0
M  V30 5809 C 523.953 -2.43763 -3.53381 0
M  V30 5810 C 523.186 -2.28216 -4.82445 0
M  V30 5811 O 523.409 -1.28288 -5.55786 0
M  V30 5812 O 522.343 -3.1709 -5.11603 0
M  V30 5813 H 526.169 -2.36159 -1.90952 0
M  V30 5814 H 523.754 -1.20194 -0.887346 0
M  V30 5815 H 525.636 -1.16395 -4.05006 0
M  V30 5816 H 524.311 -0.300121 -3.22306 0
M  V30 5817 H 523.218 -2.56325 -2.72485 0
M  V30 5818 H 524.551 -3.35808 -3.59852 0
M  V30 5819 N 526.204 0.969867 -1.24223 0
M  V30 5820 C 527.481 1.68774 -0.988664 0
M  V30 5821 C 527.861 2.05342 0.489673 0
M  V30 5822 O 527.209 1.75486 1.46345 0
M  V30 5823 C 527.419 2.92135 -1.90941 0
M  V30 5824 C 528.767 3.64422 -2.17903 0
M  V30 5825 O 529.791 3.02188 -1.88576 0
M  V30 5826 O 528.65 4.76446 -2.67697 0
M  V30 5827 H 525.744 0.737736 -0.37373 0
M  V30 5828 H 528.29 1.02415 -1.35312 0
M  V30 5829 H 527.062 2.61788 -2.90831 0
M  V30 5830 H 526.685 3.66228 -1.54798 0
M  V30 5831 N 527.682 1.05563 1.17022 0
M  V30 5832 C 528.959 0.68165 1.83338 0
M  V30 5833 C 529.339 -0.837665 1.93769 0
M  V30 5834 O 528.687 -1.74507 1.47511 0
M  V30 5835 C 528.897 1.375 3.20772 0
M  V30 5836 C 530.245 1.51545 3.96635 0
M  V30 5837 O 531.269 1.33431 3.30264 0
M  V30 5838 O 530.128 1.812 5.15586 0
M  V30 5839 H 527.222 0.240412 0.791285 0
M  V30 5840 H 529.768 1.15545 1.24288 0
M  V30 5841 H 528.54 2.41135 3.08171 0
M  V30 5842 H 528.163 0.890798 3.87493 0
M  V30 5843 N 529.16 -1.33526 0.837174 0
M  V30 5844 C 530.388 -2.02047 0.445494 0
M  V30 5845 C 530.803 -1.62995 -0.952788 0
M  V30 5846 O 530.16 -0.842447 -1.61892 0
M  V30 5847 C 530.211 -3.57221 0.554577 0
M  V30 5848 O 529.932 -3.94863 1.89776 0
M  V30 5849 C 531.433 -4.43012 0.159634 0
M  V30 5850 H 528.653 -0.647221 0.177048 0
M  V30 5851 H 531.197 -1.70492 1.12928 0
M  V30 5852 H 529.352 -3.87315 -0.0812781 0
M  V30 5853 H 529.766 -4.89569 1.88208 0
M  V30 5854 H 531.24 -5.51253 0.28701 0
M  V30 5855 H 531.717 -4.29916 -0.898289 0
M  V30 5856 H 532.323 -4.18274 0.769855 0
M  V30 5857 N 530.638 -0.59345 -1.46 0
M  V30 5858 C 531.585 0.133618 -2.30413 0
M  V30 5859 C 532.555 0.873736 -1.41262 0
M  V30 5860 O 533.74 0.862279 -1.70204 0
M  V30 5861 C 530.88 1.13434 -3.25924 0
M  V30 5862 C 529.993 0.39656 -4.30176 0
M  V30 5863 C 529.128 1.38575 -5.12806 0
M  V30 5864 C 528.167 0.634984 -6.08797 0
M  V30 5865 N 527.304 1.57276 -6.84258 0
M  V30 5866 H 532.144 -0.592252 -2.92055 0
M  V30 5867 H 529.681 -0.303874 -1.43927 0
M  V30 5868 H 531.639 1.72752 -3.79753 0
M  V30 5869 H 530.269 1.82779 -2.66067 0
M  V30 5870 H 529.321 -0.311861 -3.79119 0
M  V30 5871 H 530.633 -0.189869 -4.98438 0
M  V30 5872 H 529.787 2.05141 -5.70966 0
M  V30 5873 H 528.526 2.00611 -4.44529 0
M  V30 5874 H 527.531 -0.0443925 -5.49782 0
M  V30 5875 H 528.756 0.0198678 -6.79097 0
M  V30 5876 H 526.702 2.18103 -6.18682 0
M  V30 5877 H 526.619 1.03941 -7.48821 0
M  V30 5878 H 527.887 2.22844 -7.46968 0
M  V30 5879 N 532.116 1.54067 -0.331816 0
M  V30 5880 C 533.363 2.00715 0.268269 0
M  V30 5881 C 533.691 1.21986 1.51491 0
M  V30 5882 O 532.946 0.292309 1.93505 0
M  V30 5883 C 533.245 3.51634 0.639392 0
M  V30 5884 C 532.911 4.48018 -0.509019 0
M  V30 5885 C 531.573 4.74089 -0.824209 0
M  V30 5886 C 533.925 5.05237 -1.28003 0
M  V30 5887 C 531.253 5.54637 -1.91298 0
M  V30 5888 C 533.605 5.86972 -2.35895 0
M  V30 5889 C 532.269 6.11342 -2.67987 0
M  V30 5890 H 531.539 0.734469 0.0981667 0
M  V30 5891 H 534.186 1.8596 -0.457304 0
M  V30 5892 H 532.491 3.6416 1.44551 0
M  V30 5893 H 534.188 3.85175 1.11539 0
M  V30 5894 H 530.778 4.27851 -0.253287 0
M  V30 5895 H 534.962 4.8507 -1.04978 0
M  V30 5896 H 530.218 5.71747 -2.16599 0
M  V30 5897 H 534.392 6.30327 -2.96076 0
M  V30 5898 H 532.019 6.73544 -3.5248 0
M  V30 5899 N 533.594 0.0601682 1.57485 0
M  V30 5900 C 534.541 -0.91112 2.12055 0
M  V30 5901 C 535.511 -1.30298 1.03013 0
M  V30 5902 O 536.696 -1.39087 1.30612 0
M  V30 5903 C 533.836 -2.1775 2.67729 0
M  V30 5904 C 532.949 -1.83933 3.90887 0
M  V30 5905 C 532.084 -3.05096 4.34845 0
M  V30 5906 C 531.123 -2.67241 5.5068 0
M  V30 5907 N 530.26 -3.81127 5.8965 0
M  V30 5908 H 535.1 -0.43888 2.9475 0
M  V30 5909 H 532.637 -0.204995 1.45665 0
M  V30 5910 H 534.595 -2.91866 2.98111 0
M  V30 5911 H 533.225 -2.62535 1.87816 0
M  V30 5912 H 532.277 -0.999287 3.6704 0
M  V30 5913 H 533.589 -1.52074 4.75052 0
M  V30 5914 H 532.743 -3.87502 4.66827 0
M  V30 5915 H 531.482 -3.40139 3.49509 0
M  V30 5916 H 530.487 -1.83254 5.18361 0
M  V30 5917 H 531.712 -2.3338 6.37738 0
M  V30 5918 H 529.658 -4.15954 5.07266 0
M  V30 5919 H 529.575 -3.52997 6.68528 0
M  V30 5920 H 530.843 -4.64145 6.2625 0
M  V30 5921 N 535.072 -1.5615 -0.213296 0
M  V30 5922 C 536.297 -1.83986 -0.957282 0
M  V30 5923 C 536.722 -0.641526 -1.76822 0
M  V30 5924 O 536.08 0.409722 -1.7661 0
M  V30 5925 C 536.128 -3.09889 -1.84393 0
M  V30 5926 O 535.232 -2.89163 -2.94038 0
M  V30 5927 H 534.573 -0.606357 -0.270605 0
M  V30 5928 H 537.103 -2.03369 -0.224111 0
M  V30 5929 H 537.113 -3.40209 -2.25215 0
M  V30 5930 H 535.788 -3.96735 -1.24795 0
M  V30 5931 H 534.365 -2.70097 -2.57103 0
M  V30 5932 N 536.55 0.480323 -1.50102 0
M  V30 5933 C 537.799 1.22979 -1.59872 0
M  V30 5934 C 538.112 1.93282 -0.30022 0
M  V30 5935 O 539.318 2.70086 -0.276709 0
M  V30 5936 C 537.774 2.23408 -2.82164 0
M  V30 5937 C 537.382 1.5895 -4.18854 0
M  V30 5938 C 539.126 2.99055 -3.01275 0
M  V30 5939 C 537.033 2.57611 -5.32344 0
M  V30 5940 H 535.963 0.462707 -0.59533 0
M  V30 5941 H 538.614 0.501291 -1.7652 0
M  V30 5942 H 536.996 2.99511 -2.59055 0
M  V30 5943 H 538.17 0.887 -4.52182 0
M  V30 5944 H 536.485 0.956191 -4.05273 0
M  V30 5945 H 539.082 3.72876 -3.83233 0
M  V30 5946 H 539.425 3.57897 -2.12639 0
M  V30 5947 H 539.958 2.30066 -3.24522 0
M  V30 5948 H 536.697 2.03521 -6.23105 0
M  V30 5949 H 536.217 3.26041 -5.03445 0
M  V30 5950 H 537.896 3.19627 -5.62537 0
M  V30 5951 N 538.028 1.39524 0.732853 0
M  V30 5952 C 539.439 1.32905 1.31122 0
M  V30 5953 C 539.79 -0.00558708 1.96199 0
M  V30 5954 O 538.915 -0.907706 1.96443 0
M  V30 5955 C 539.51 2.40704 2.38426 0
M  V30 5956 C 538.069 2.37599 2.91931 0
M  V30 5957 C 537.216 2.2248 1.65523 0
M  V30 5958 H 540.167 1.49581 0.530207 0
M  V30 5959 H 540.188 2.07616 3.18867 0
M  V30 5960 H 539.7 3.37829 1.91033 0
M  V30 5961 H 537.801 1.44119 3.43599 0
M  V30 5962 H 537.914 3.32538 3.44899 0
M  V30 5963 H 536.278 1.69691 1.8994 0
M  V30 5964 H 537.061 3.21577 1.20178 0
M  V30 5965 N 539.506 -0.963266 1.24736 0
M  V30 5966 C 540.469 -2.04013 1.04457 0
M  V30 5967 C 541.469 -1.608 0.000335555 0
M  V30 5968 O 542.659 -1.72515 0.241719 0
M  V30 5969 C 539.791 -3.35858 0.584162 0
M  V30 5970 H 540.984 -2.23436 2.00041 0
M  V30 5971 H 538.537 -1.13914 1.07021 0
M  V30 5972 H 539.272 -3.22128 -0.374673 0
M  V30 5973 H 539.057 -3.68568 1.3379 0
M  V30 5974 H 540.547 -4.1502 0.463451 0
M  V30 5975 N 540.985 -1.06182 -1.16461 0
M  V30 5976 C 542.21 -0.798599 -1.91408 0
M  V30 5977 C 542.635 0.640987 -1.76842 0
M  V30 5978 O 541.993 1.44652 -1.09296 0
M  V30 5979 C 542.041 -1.19665 -3.40165 0
M  V30 5980 O 541.145 -0.334768 -4.11039 0
M  V30 5981 H 540.486 -0.291961 -0.596368 0
M  V30 5982 H 543.016 -1.41732 -1.47557 0
M  V30 5983 H 543.026 -1.16772 -3.90933 0
M  V30 5984 H 541.701 -2.24526 -3.50087 0
M  V30 5985 H 540.278 -0.425168 -3.70468 0
M  V30 5986 N 542.463 1.3308 -0.844243 0
M  V30 5987 C 543.71 1.97605 -0.44255 0
M  V30 5988 C 544.038 1.66856 0.999458 0
M  V30 5989 O 543.293 0.943586 1.7145 0
M  V30 5990 C 543.592 3.52045 -0.616354 0
M  V30 5991 C 543.258 4.02757 -2.02726 0
M  V30 5992 C 541.92 4.16316 -2.41317 0
M  V30 5993 C 544.272 4.29776 -2.9486 0
M  V30 5994 C 541.6 4.54232 -3.71335 0
M  V30 5995 C 543.952 4.69146 -4.24364 0
M  V30 5996 C 542.616 4.80911 -4.62904 0
M  V30 5997 H 541.886 0.723088 -0.161941 0
M  V30 5998 H 544.533 1.58663 -1.0723 0
M  V30 5999 H 542.838 3.91681 0.0966812 0
M  V30 6000 H 544.535 3.99981 -0.285756 0
M  V30 6001 H 541.125 3.9268 -1.71756 0
M  V30 6002 H 545.309 4.18818 -2.6628 0
M  V30 6003 H 540.565 4.61535 -4.00993 0
M  V30 6004 H 544.739 4.89008 -4.95827 0
M  V30 6005 H 542.366 5.10048 -5.63698 0
M  V30 6006 N 543.941 0.601185 1.45683 0
M  V30 6007 C 545.187 0.102425 2.03142 0
M  V30 6008 C 545.542 -1.25066 1.46207 0
M  V30 6009 O 544.835 -1.81126 0.624806 0
M  V30 6010 C 545.029 -0.00222425 3.574 0
M  V30 6011 C 544.858 1.33917 4.29298 0
M  V30 6012 C 543.628 1.91818 4.67476 0
M  V30 6013 C 545.826 2.26652 4.61664 0
M  V30 6014 N 543.808 3.19504 5.24204 0
M  V30 6015 C 545.179 3.38933 5.19157 0
M  V30 6016 C 547.234 2.26103 4.43601 0
M  V30 6017 C 545.937 4.50823 5.60492 0
M  V30 6018 C 547.963 3.37036 4.85964 0
M  V30 6019 C 547.325 4.48039 5.43545 0
M  V30 6020 H 543.424 0.0806974 0.777825 0
M  V30 6021 H 546.008 0.798134 1.77589 0
M  V30 6022 H 544.179 -0.66714 3.82627 0
M  V30 6023 H 545.911 -0.507058 4.01511 0
M  V30 6024 H 542.666 1.45097 4.50826 0
M  V30 6025 H 543.09 3.84705 5.57073 0
M  V30 6026 H 547.732 1.41547 3.98402 0
M  V30 6027 H 545.45 5.36108 6.0466 0
M  V30 6028 H 549.036 3.37752 4.73725 0
M  V30 6029 H 547.916 5.32459 5.75723 0
M  V30 6030 N 545.419 -1.53889 0.339982 0
M  V30 6031 C 546.665 -2.01849 -0.250694 0
M  V30 6032 C 547.02 -1.22356 -1.48482 0
M  V30 6033 O 546.313 -0.301906 -1.89206 0
M  V30 6034 C 546.507 -3.51968 -0.620735 0
M  V30 6035 C 546.336 -4.45996 0.575981 0
M  V30 6036 C 545.106 -4.93619 1.08019 0
M  V30 6037 C 547.304 -4.93923 1.43332 0
M  V30 6038 N 545.286 -5.7159 2.2396 0
M  V30 6039 C 546.657 -5.69982 2.43969 0
M  V30 6040 C 548.712 -4.76038 1.45918 0
M  V30 6041 C 547.415 -6.30057 3.47016 0
M  V30 6042 C 549.441 -5.36961 2.47845 0
M  V30 6043 C 548.803 -6.12884 3.47208 0
M  V30 6044 H 544.902 -0.780054 -0.0551368 0
M  V30 6045 H 547.486 -1.88722 0.478741 0
M  V30 6046 H 545.657 -3.65308 -1.31928 0
M  V30 6047 H 547.389 -3.86677 -1.19429 0
M  V30 6048 H 544.144 -4.69134 0.64884 0
M  V30 6049 H 544.568 -6.15247 2.82489 0
M  V30 6050 H 549.21 -4.16887 0.704608 0
M  V30 6051 H 546.928 -6.88319 4.23371 0
M  V30 6052 H 550.514 -5.2503 2.50668 0
M  V30 6053 H 549.394 -6.59187 4.24785 0
M  V30 6054 N 546.897 -0.0685191 -1.57451 0
M  V30 6055 C 547.86 0.885173 -2.11417 0
M  V30 6056 C 548.86 1.22853 -1.03748 0
M  V30 6057 O 550.05 1.16235 -1.2975 0
M  V30 6058 C 547.182 2.18964 -2.61281 0
M  V30 6059 H 548.375 0.417034 -2.96986 0
M  V30 6060 H 545.928 0.18014 -1.55258 0
M  V30 6061 H 546.663 2.70321 -1.79156 0
M  V30 6062 H 546.448 1.9534 -3.39977 0
M  V30 6063 H 547.938 2.87242 -3.0312 0
M  V30 6064 N 548.375 1.56261 0.205012 0
M  V30 6065 C 549.603 1.84141 0.943386 0
M  V30 6066 C 550.018 0.649772 1.77266 0
M  V30 6067 O 549.375 -0.381612 1.78466 0
M  V30 6068 C 549.426 3.10719 1.84759 0
M  V30 6069 O 549.147 4.25286 1.05181 0
M  V30 6070 C 550.648 3.51706 2.69848 0
M  V30 6071 H 547.868 0.611734 0.275721 0
M  V30 6072 H 550.412 2.03364 0.215253 0
M  V30 6073 H 548.567 2.93422 2.52947 0
M  V30 6074 H 548.981 4.97301 1.66709 0
M  V30 6075 H 550.455 4.43266 3.28967 0
M  V30 6076 H 550.932 2.7423 3.43067 0
M  V30 6077 H 551.538 3.71499 2.07047 0
M  V30 6078 N 549.853 -0.472356 1.50355 0
M  V30 6079 C 551.102 -1.2213 1.60522 0
M  V30 6080 C 551.415 -1.9312 0.310466 0
M  V30 6081 O 552.621 -2.69936 0.291029 0
M  V30 6082 C 551.077 -2.21909 2.83345 0
M  V30 6083 C 550.685 -1.56727 4.19691 0
M  V30 6084 C 552.429 -2.97453 3.02856 0
M  V30 6085 C 550.336 -2.54785 5.33703 0
M  V30 6086 H 549.266 -0.459543 0.597776 0
M  V30 6087 H 551.917 -0.491922 1.76783 0
M  V30 6088 H 550.299 -2.98133 2.60639 0
M  V30 6089 H 551.473 -0.863007 4.52646 0
M  V30 6090 H 549.788 -0.934685 4.05774 0
M  V30 6091 H 552.385 -3.70838 3.85205 0
M  V30 6092 H 552.728 -3.56764 2.14534 0
M  V30 6093 H 553.261 -2.28342 3.25737 0
M  V30 6094 H 550 -2.00214 6.24175 0
M  V30 6095 H 549.52 -3.23367 5.05167 0
M  V30 6096 H 551.199 -3.16639 5.64224 0
M  V30 6097 N 551.331 -1.39911 -0.725443 0
M  V30 6098 C 552.559 -1.40949 -1.51463 0
M  V30 6099 C 552.974 -0.0065242 -1.88799 0
M  V30 6100 O 552.331 0.967163 -1.54765 0
M  V30 6101 C 552.382 -2.29119 -2.79619 0
M  V30 6102 O 552.103 -3.63952 -2.43866 0
M  V30 6103 C 553.604 -2.38642 -3.73584 0
M  V30 6104 H 550.824 -0.481091 -0.467752 0
M  V30 6105 H 553.368 -1.83843 -0.895651 0
M  V30 6106 H 551.523 -1.89612 -3.37826 0
M  V30 6107 H 551.937 -4.10677 -3.26258 0
M  V30 6108 H 553.411 -3.04563 -4.60375 0
M  V30 6109 H 553.888 -1.40846 -4.16004 0
M  V30 6110 H 554.494 -2.78659 -3.21293 0
M  V30 6111 N 552.809 0.956637 -1.25245 0
M  V30 6112 C 553.742 2.05232 -0.99775 0
M  V30 6113 C 554.72 1.62439 0.0723137 0
M  V30 6114 O 555.904 1.88381 -0.066926 0
M  V30 6115 C 553.031 3.34871 -0.507861 0
M  V30 6116 C 552.077 3.96625 -1.56815 0
M  V30 6117 S 552.91 4.32853 -3.15276 0
M  V30 6118 C 554.066 5.65613 -2.68017 0
M  V30 6119 H 554.299 2.26521 -1.9255 0
M  V30 6120 H 551.832 1.09601 -1.08752 0
M  V30 6121 H 553.79 4.09845 -0.231858 0
M  V30 6122 H 552.451 3.11551 0.399356 0
M  V30 6123 H 551.644 4.90087 -1.17604 0
M  V30 6124 H 551.246 3.28124 -1.79473 0
M  V30 6125 H 553.538 6.43635 -2.11518 0
M  V30 6126 H 554.481 6.09693 -3.60112 0
M  V30 6127 H 554.889 5.24751 -2.0808 0
M  V30 6128 N 554.287 1.06798 1.15896 0
M  V30 6129 C 555.515 0.808694 1.90441 0
M  V30 6130 C 555.93 -0.637506 1.77711 0
M  V30 6131 O 555.287 -1.43684 1.12522 0
M  V30 6132 C 555.338 1.20068 3.40978 0
M  V30 6133 O 555.059 2.59013 3.53333 0
M  V30 6134 C 556.56 0.96987 4.3256 0
M  V30 6135 H 553.78 0.292809 0.603742 0
M  V30 6136 H 556.324 1.42296 1.46874 0
M  V30 6137 H 554.479 0.630842 3.82229 0
M  V30 6138 H 554.893 2.7485 4.46719 0
M  V30 6139 H 556.367 1.29371 5.36626 0
M  V30 6140 H 556.844 -0.0941209 4.39099 0
M  V30 6141 H 557.45 1.52433 3.97044 0
M  V30 6142 N 555.766 -1.3263 0.851289 0
M  V30 6143 C 556.994 -2.01563 0.466899 0
M  V30 6144 C 557.409 -1.63996 -0.935447 0
M  V30 6145 O 556.766 -0.85957 -1.6099 0
M  V30 6146 C 556.817 -3.56613 0.592433 0
M  V30 6147 O 556.538 -3.92828 1.93954 0
M  V30 6148 C 558.039 -4.42818 0.206612 0
M  V30 6149 H 555.259 -0.645307 0.183902 0
M  V30 6150 H 557.803 -1.69285 1.1473 0
M  V30 6151 H 555.958 -3.87379 -0.0401936 0
M  V30 6152 H 556.372 -4.87545 1.9339 0
M  V30 6153 H 557.846 -5.50918 0.345462 0
M  V30 6154 H 558.323 -4.30844 -0.85264 0
M  V30 6155 H 558.929 -4.17434 0.814176 0
M  V30 6156 N 557.244 -0.608902 -1.45362 0
M  V30 6157 C 558.49 -0.104762 -2.02529 0
M  V30 6158 C 558.823 1.26191 -1.47613 0
M  V30 6159 O 558.098 1.8327 -0.65134 0
M  V30 6160 C 558.381 -0.0672661 -3.60037 0
M  V30 6161 C 558.234 -1.4647 -4.25284 0
M  V30 6162 C 559.553 0.619877 -4.35713 0
M  V30 6163 H 556.672 -0.0395438 -0.735938 0
M  V30 6164 H 559.314 -0.781126 -1.73201 0
M  V30 6165 H 557.464 0.50871 -3.85155 0
M  V30 6166 H 559.136 -2.08785 -4.11347 0
M  V30 6167 H 557.379 -2.02502 -3.83634 0
M  V30 6168 H 558.05 -1.39069 -5.34195 0
M  V30 6169 H 560.526 0.130297 -4.15896 0
M  V30 6170 H 559.402 0.615224 -5.45441 0
M  V30 6171 H 559.663 1.68621 -4.0868 0
M  V30 6172 N 558.722 1.53707 -0.348139 0
M  V30 6173 C 559.97 2.00591 0.246478 0
M  V30 6174 C 560.291 1.23753 1.50699 0
M  V30 6175 O 559.561 0.345964 1.92821 0
M  V30 6176 H 558.141 0.741053 0.0940679 0
M  V30 6177 H 560.803 1.89139 -0.470354 0
M  V30 6178 H 559.899 3.08297 0.485714 0
M  V30 6179 N 560.2 0.0768682 1.57412 0
M  V30 6180 C 561.43 -0.5991 1.97723 0
M  V30 6181 C 561.838 -1.63378 0.954166 0
M  V30 6182 O 561.181 -1.83578 -0.0668706 0
M  V30 6183 C 561.243 -1.32078 3.34358 0
M  V30 6184 C 560.907 -0.438985 4.54887 0
M  V30 6185 C 561.904 0.305492 5.19002 0
M  V30 6186 C 559.589 -0.362378 5.00991 0
M  V30 6187 C 561.583 1.11475 6.27576 0
M  V30 6188 C 559.27 0.450543 6.09437 0
M  V30 6189 C 560.268 1.18777 6.72593 0
M  V30 6190 O 559.956 1.98727 7.7895 0
M  V30 6191 H 559.688 -0.166725 0.655117 0
M  V30 6192 H 562.242 0.147337 2.04871 0
M  V30 6193 H 560.472 -2.1134 3.2384 0
M  V30 6194 H 562.161 -1.88949 3.5924 0
M  V30 6195 H 562.927 0.25593 4.84324 0
M  V30 6196 H 558.806 -0.925832 4.51608 0
M  V30 6197 H 562.35 1.69068 6.76803 0
M  V30 6198 H 558.247 0.501651 6.43548 0
M  V30 6199 H 559.015 1.91214 7.95851 0
M  V30 6200 N 561.678 -1.56367 -0.196722 0
M  V30 6201 C 562.926 -1.80172 -0.915554 0
M  V30 6202 C 563.247 -0.649649 -1.8386 0
M  V30 6203 O 562.517 0.332111 -1.93064 0
M  V30 6204 H 561.097 -0.664592 -0.341067 0
M  V30 6205 H 563.759 -1.93844 -0.202622 0
M  V30 6206 H 562.855 -2.7327 -1.50764 0
M  V30 6207 N 563.156 0.464375 -1.50603 0
M  V30 6208 C 564.433 1.22549 -1.5245 0
M  V30 6209 C 564.813 2.09327 -0.273035 0
M  V30 6210 O 564.161 2.16074 0.743242 0
M  V30 6211 C 564.371 2.05074 -2.82393 0
M  V30 6212 C 565.719 2.63036 -3.33313 0
M  V30 6213 O 566.743 2.1531 -2.8376 0
M  V30 6214 O 565.602 3.5001 -4.19709 0
M  V30 6215 H 562.696 0.556471 -0.611775 0
M  V30 6216 H 565.242 0.475648 -1.62898 0
M  V30 6217 H 564.014 1.41169 -3.64948 0
M  V30 6218 H 563.637 2.87179 -2.7498 0
M  V30 6219 N 564.634 1.40294 0.718013 0
M  V30 6220 C 565.883 1.37746 1.4734 0
M  V30 6221 C 566.196 -0.0180754 1.95592 0
M  V30 6222 O 567.402 -0.166166 2.70991 0
M  V30 6223 C 565.858 2.4208 2.66318 0
M  V30 6224 C 565.466 3.87432 2.24945 0
M  V30 6225 C 567.21 2.48635 3.44065 0
M  V30 6226 C 565.117 4.83368 3.40748 0
M  V30 6227 H 564.047 0.512165 0.553356 0
M  V30 6228 H 566.698 1.66019 0.781661 0
M  V30 6229 H 565.08 2.06903 3.3765 0
M  V30 6230 H 566.254 4.3174 1.6105 0
M  V30 6231 H 564.569 3.8433 1.60249 0
M  V30 6232 H 567.166 3.17499 4.30231 0
M  V30 6233 H 567.509 1.51611 3.87711 0
M  V30 6234 H 568.042 2.82791 2.79775 0
M  V30 6235 H 564.781 5.81716 3.02136 0
M  V30 6236 H 564.301 4.43726 4.03568 0
M  V30 6237 H 565.98 5.03074 4.06848 0
M  V30 6238 N 566.112 -0.949982 1.2575 0
M  V30 6239 C 567.342 -1.72721 1.13363 0
M  V30 6240 C 567.75 -1.86562 -0.314842 0
M  V30 6241 O 567.093 -1.36621 -1.22803 0
M  V30 6242 C 567.155 -3.15695 1.7198 0
M  V30 6243 C 566.819 -3.25268 3.21014 0
M  V30 6244 C 567.816 -3.09222 4.17945 0
M  V30 6245 C 565.501 -3.4894 3.61312 0
M  V30 6246 C 567.495 -3.16701 5.53154 0
M  V30 6247 C 565.182 -3.56055 4.96657 0
M  V30 6248 C 566.18 -3.3995 5.92387 0
M  V30 6249 O 565.868 -3.46757 7.25269 0
M  V30 6250 H 565.6 -0.547888 0.395973 0
M  V30 6251 H 568.154 -1.20009 1.66694 0
M  V30 6252 H 566.384 -3.69791 1.13101 0
M  V30 6253 H 568.073 -3.75295 1.54624 0
M  V30 6254 H 568.839 -2.90798 3.88151 0
M  V30 6255 H 564.718 -3.60534 2.87291 0
M  V30 6256 H 568.262 -3.04048 6.27854 0
M  V30 6257 H 564.159 -3.73997 5.26115 0
M  V30 6258 H 564.927 -3.63358 7.33426 0
M  V30 6259 N 567.59 -1.07411 -1.15328 0
M  V30 6260 C 569.001 -0.820261 -1.67716 0
M  V30 6261 C 569.352 0.654539 -1.8496 0
M  V30 6262 O 568.477 1.50664 -1.55337 0
M  V30 6263 C 569.072 -1.48242 -3.04647 0
M  V30 6264 C 567.631 -1.27606 -3.5411 0
M  V30 6265 C 566.778 -1.5517 -2.29821 0
M  V30 6266 H 569.729 -1.23608 -0.995332 0
M  V30 6267 H 569.75 -0.903984 -3.69606 0
M  V30 6268 H 569.262 -2.55578 -2.92064 0
M  V30 6269 H 567.363 -0.222948 -3.71932 0
M  V30 6270 H 567.476 -1.99667 -4.35511 0
M  V30 6271 H 565.84 -0.972747 -2.35393 0
M  V30 6272 H 566.623 -2.63689 -2.19824 0
M  V30 6273 N 569.068 1.32177 -0.85831 0
M  V30 6274 C 570.015 2.28794 -0.303607 0
M  V30 6275 C 570.985 1.55213 0.591453 0
M  V30 6276 O 572.17 1.83418 0.525585 0
M  V30 6277 C 569.31 3.41475 0.49889 0
M  V30 6278 C 568.423 4.2993 -0.422373 0
M  V30 6279 C 567.558 5.29743 0.393111 0
M  V30 6280 C 566.597 6.09842 -0.525317 0
M  V30 6281 N 565.734 7.01643 0.253208 0
M  V30 6282 H 570.574 2.75631 -1.13276 0
M  V30 6283 H 568.111 1.35606 -0.570026 0
M  V30 6284 H 570.069 4.05531 0.979826 0
M  V30 6285 H 568.699 2.95779 1.29284 0
M  V30 6286 H 567.751 3.66422 -1.02171 0
M  V30 6287 H 569.063 4.85899 -1.12709 0
M  V30 6288 H 568.217 5.9942 0.937056 0
M  V30 6289 H 566.956 4.744 1.13117 0
M  V30 6290 H 565.961 5.39066 -1.08112 0
M  V30 6291 H 567.186 6.6727 -1.26205 0
M  V30 6292 H 565.132 6.48725 0.974295 0
M  V30 6293 H 565.049 7.54981 -0.392398 0
M  V30 6294 H 566.317 7.756 0.778761 0
M  V30 6295 N 570.547 0.616602 1.45037 0
M  V30 6296 C 571.775 0.121968 2.0654 0
M  V30 6297 C 572.19 -1.19743 1.45969 0
M  V30 6298 O 571.547 -1.73133 0.577168 0
M  V30 6299 C 571.598 -0.0145171 3.61497 0
M  V30 6300 O 571.319 1.25269 4.19809 0
M  V30 6301 C 572.82 -0.539555 4.40004 0
M  V30 6302 H 570.04 0.0729837 0.667019 0
M  V30 6303 H 572.584 0.846891 1.8614 0
M  V30 6304 H 570.739 -0.689809 3.81209 0
M  V30 6305 H 571.153 1.08816 5.13088 0
M  V30 6306 H 572.627 -0.584112 5.48901 0
M  V30 6307 H 573.104 -1.56368 4.10421 0
M  V30 6308 H 573.71 0.101995 4.25178 0
M  V30 6309 N 572.025 -1.5352 0.356285 0
M  V30 6310 C 572.955 -2.28372 -0.486661 0
M  V30 6311 C 573.936 -1.30432 -1.09185 0
M  V30 6312 O 575.121 -1.59291 -1.11085 0
M  V30 6313 C 572.251 -3.06604 -1.63129 0
M  V30 6314 C 571.205 -4.12154 -1.15381 0
M  V30 6315 C 570.531 -4.78415 -2.38796 0
M  V30 6316 C 571.831 -5.21724 -0.245179 0
M  V30 6317 H 573.525 -2.99083 0.137797 0
M  V30 6318 H 571.071 -1.43841 0.0677134 0
M  V30 6319 H 573.024 -3.57712 -2.22755 0
M  V30 6320 H 571.748 -2.33568 -2.28284 0
M  V30 6321 H 570.407 -3.61978 -0.580294 0
M  V30 6322 H 570.055 -4.01959 -3.02387 0
M  V30 6323 H 569.755 -5.49734 -2.07524 0
M  V30 6324 H 571.279 -5.32313 -2.99125 0
M  V30 6325 H 572.693 -5.68391 -0.748646 0
M  V30 6326 H 571.09 -6.00095 -0.0237608 0
M  V30 6327 H 572.16 -4.79596 0.715229 0
M  V30 6328 N 573.503 -0.0852151 -1.57369 0
M  V30 6329 C 574.433 0.874556 -2.16503 0
M  V30 6330 C 575.414 1.30111 -1.09568 0
M  V30 6331 O 576.599 1.36977 -1.37662 0
M  V30 6332 C 573.729 2.13731 -2.73745 0
M  V30 6333 C 572.683 1.84971 -3.85966 0
M  V30 6334 C 572.009 3.17991 -4.29867 0
M  V30 6335 C 573.309 1.14442 -5.09608 0
M  V30 6336 H 575.003 0.381899 -2.96954 0
M  V30 6337 H 572.549 0.18225 -1.42842 0
M  V30 6338 H 574.502 2.81302 -3.13763 0
M  V30 6339 H 573.226 2.65263 -1.90534 0
M  V30 6340 H 571.885 1.19801 -3.46473 0
M  V30 6341 H 571.533 3.6739 -3.4356 0
M  V30 6342 H 571.233 2.99534 -5.05523 0
M  V30 6343 H 572.757 3.86737 -4.72511 0
M  V30 6344 H 574.171 1.72105 -5.46857 0
M  V30 6345 H 572.568 1.06197 -5.90629 0
M  V30 6346 H 573.638 0.12559 -4.84737 0
M  V30 6347 N 574.981 1.5647 0.188427 0
M  V30 6348 C 576.229 1.80655 0.905986 0
M  V30 6349 C 576.55 0.659391 1.83513 0
M  V30 6350 O 575.82 -0.321868 1.93238 0
M  V30 6351 H 574.4 0.666391 0.337538 0
M  V30 6352 H 577.062 1.93949 0.192339 0
M  V30 6353 H 576.158 2.74066 1.49313 0
M  V30 6354 N 576.459 -0.456382 1.50847 0
M  V30 6355 C 577.406 -1.55249 1.70782 0
M  V30 6356 C 578.376 -1.56757 0.549231 0
M  V30 6357 O 579.561 -1.74061 0.7815 0
M  V30 6358 C 576.701 -2.93118 1.82143 0
M  V30 6359 C 575.814 -3.01285 3.09598 0
M  V30 6360 C 574.949 -4.30159 3.11667 0
M  V30 6361 C 573.988 -4.32124 4.33515 0
M  V30 6362 N 573.125 -5.52492 4.3324 0
M  V30 6363 H 577.965 -1.37555 2.64353 0
M  V30 6364 H 575.502 -0.668543 1.3103 0
M  V30 6365 H 577.46 -3.73088 1.86711 0
M  V30 6366 H 576.09 -3.09413 0.919978 0
M  V30 6367 H 575.142 -2.14096 3.14431 0
M  V30 6368 H 576.454 -2.98597 3.99551 0
M  V30 6369 H 575.608 -5.18489 3.15046 0
M  V30 6370 H 574.347 -4.35477 2.1957 0
M  V30 6371 H 573.352 -3.42189 4.30333 0
M  V30 6372 H 574.577 -4.28485 5.26856 0
M  V30 6373 H 572.523 -5.58567 3.44004 0
M  V30 6374 H 572.44 -5.51605 5.16979 0
M  V30 6375 H 573.708 -6.42906 4.40786 0
M  V30 6376 N 577.937 -1.40673 -0.710563 0
M  V30 6377 C 579.186 -1.38525 -1.46607 0
M  V30 6378 C 579.499 0.0077024 -1.95598 0
M  V30 6379 O 580.705 0.151792 -2.71075 0
M  V30 6380 C 579.161 -2.43489 -2.6503 0
M  V30 6381 C 578.769 -3.88619 -2.22888 0
M  V30 6382 C 580.513 -2.50456 -3.42742 0
M  V30 6383 C 578.42 -4.85168 -3.3818 0
M  V30 6384 H 577.35 -0.515092 -0.550632 0
M  V30 6385 H 580.001 -1.66431 -0.772846 0
M  V30 6386 H 578.383 -2.0869 -3.36548 0
M  V30 6387 H 579.557 -4.32588 -1.58758 0
M  V30 6388 H 577.872 -3.85174 -1.58208 0
M  V30 6389 H 580.469 -3.19776 -4.28541 0
M  V30 6390 H 580.812 -1.53665 -3.86902 0
M  V30 6391 H 581.345 -2.84271 -2.78271 0
M  V30 6392 H 578.084 -5.8331 -2.99047 0
M  V30 6393 H 577.604 -4.4586 -4.01209 0
M  V30 6394 H 579.283 -5.05225 -4.04174 0
M  V30 6395 N 579.415 0.9433 -1.26252 0
M  V30 6396 C 580.661 1.69175 -1.11837 0
M  V30 6397 C 580.994 1.91238 0.337891 0
M  V30 6398 O 580.269 1.49152 1.24836 0
M  V30 6399 C 580.552 3.06783 -1.88563 0
M  V30 6400 C 580.405 2.9206 -3.42083 0
M  V30 6401 C 581.724 4.06865 -1.67776 0
M  V30 6402 H 578.843 0.61399 -0.407658 0
M  V30 6403 H 581.485 1.09572 -1.55222 0
M  V30 6404 H 579.635 3.57663 -1.51689 0
M  V30 6405 H 581.307 2.48419 -3.88698 0
M  V30 6406 H 579.55 2.27731 -3.69217 0
M  V30 6407 H 580.221 3.89651 -3.90994 0
M  V30 6408 H 582.697 3.64939 -1.99897 0
M  V30 6409 H 581.573 5.01168 -2.23879 0
M  V30 6410 H 581.834 4.37705 -0.621816 0
M  V30 6411 N 580.893 1.08022 1.14757 0
M  V30 6412 C 582.141 0.805913 1.85336 0
M  V30 6413 C 582.462 -0.670162 1.83122 0
M  V30 6414 O 581.732 -1.48567 1.2769 0
M  V30 6415 H 580.312 0.295138 0.686223 0
M  V30 6416 H 582.974 1.36538 1.3908 0
M  V30 6417 H 582.07 1.14655 2.90277 0
M  V30 6418 N 582.371 -1.3172 0.865308 0
M  V30 6419 C 583.619 -1.96487 0.472995 0
M  V30 6420 C 583.94 -1.68761 -0.976975 0
M  V30 6421 O 583.21 -1.00051 -1.68424 0
M  V30 6422 H 581.79 -0.726947 0.171922 0
M  V30 6423 H 584.452 -1.60612 1.10407 0
M  V30 6424 H 583.548 -3.0574 0.62687 0
M  V30 6425 N 583.85 -0.624285 -1.44708 0
M  V30 6426 C 584.779 0.0717025 -2.3339 0
M  V30 6427 C 585.76 0.841814 -1.47809 0
M  V30 6428 O 586.946 0.809056 -1.76544 0
M  V30 6429 C 584.076 1.05852 -3.30776 0
M  V30 6430 C 583.029 0.400503 -4.26122 0
M  V30 6431 C 582.356 1.49674 -5.13324 0
M  V30 6432 C 583.656 -0.688924 -5.17737 0
M  V30 6433 H 585.35 -0.668819 -2.91834 0
M  V30 6434 H 582.896 -0.32308 -1.40329 0
M  V30 6435 H 584.849 1.5541 -3.91696 0
M  V30 6436 H 583.572 1.82984 -2.70526 0
M  V30 6437 H 582.231 -0.0743687 -3.66525 0
M  V30 6438 H 581.88 2.25877 -4.49431 0
M  V30 6439 H 581.58 1.06188 -5.77926 0
M  V30 6440 H 583.104 1.99427 -5.77115 0
M  V30 6441 H 584.518 -0.276724 -5.72632 0
M  V30 6442 H 582.915 -1.04652 -5.90904 0
M  V30 6443 H 583.985 -1.55884 -4.5916 0
M  V30 6444 N 585.328 1.53329 -0.364422 0
M  V30 6445 C 586.568 2.0315 0.22572 0
M  V30 6446 C 586.932 1.24589 1.46087 0
M  V30 6447 O 588.133 1.64411 2.12656 0
M  V30 6448 C 586.404 3.53718 0.511663 0
M  V30 6449 S 587.963 4.25412 1.07564 0
M  V30 6450 H 584.781 0.70795 0.0657843 0
M  V30 6451 H 587.383 1.88811 -0.507019 0
M  V30 6452 H 586.087 4.08497 -0.394784 0
M  V30 6453 H 585.618 3.72217 1.27351 0
M  V30 6454 H 587.633 4.36486 2.35997 0
M  V30 6455 N 586.806 0.0935595 1.57322 0
M  V30 6456 C 588.046 -0.573901 1.96178 0
M  V30 6457 C 588.41 -1.65445 0.97426 0
M  V30 6458 O 589.611 -2.37901 1.25126 0
M  V30 6459 C 587.882 -1.11612 3.39526 0
M  V30 6460 S 589.441 -1.79566 4.00377 0
M  V30 6461 H 586.259 -0.187315 0.685882 0
M  V30 6462 H 588.861 0.172597 1.94737 0
M  V30 6463 H 587.565 -0.31815 4.09165 0
M  V30 6464 H 587.096 -1.89848 3.4456 0
M  V30 6465 H 589.111 -3.07978 3.89056 0
M  V30 6466 N 588.284 -1.56567 -0.180126 0
M  V30 6467 C 589.533 -1.80685 -0.896426 0
M  V30 6468 C 589.846 -0.669335 -1.83791 0
M  V30 6469 O 591.052 -0.795209 -2.59593 0
M  V30 6470 C 589.508 -3.20132 -1.6445 0
M  V30 6471 C 589.116 -4.41727 -0.747088 0
M  V30 6472 C 590.86 -3.53549 -2.34955 0
M  V30 6473 C 588.767 -5.72195 -1.49489 0
M  V30 6474 H 587.697 -0.673758 -0.338477 0
M  V30 6475 H 590.348 -1.8289 -0.149467 0
M  V30 6476 H 588.73 -3.12218 -2.43589 0
M  V30 6477 H 589.904 -4.608 0.00671129 0
M  V30 6478 H 588.219 -4.16122 -0.152134 0
M  V30 6479 H 590.816 -4.48267 -2.91481 0
M  V30 6480 H 591.159 -2.78006 -3.09868 0
M  V30 6481 H 591.692 -3.62976 -1.62768 0
M  V30 6482 H 588.431 -6.50743 -0.788251 0
M  V30 6483 H 587.951 -5.57115 -2.22224 0
M  V30 6484 H 589.63 -6.1384 -2.04472 0
M  V30 6485 N 589.762 0.448376 -1.51087 0
M  V30 6486 C 590.725 1.52588 -1.71025 0
M  V30 6487 C 591.725 1.49958 -0.580442 0
M  V30 6488 O 592.915 1.52176 -0.847833 0
M  V30 6489 C 590.047 2.92163 -1.75652 0
M  V30 6490 H 591.24 1.36218 -2.67179 0
M  V30 6491 H 588.793 0.676313 -1.4091 0
M  V30 6492 H 589.528 3.13951 -0.812724 0
M  V30 6493 H 589.313 2.95478 -2.57751 0
M  V30 6494 H 590.803 3.70349 -1.92953 0
M  V30 6495 N 591.24 1.41047 0.703093 0
M  V30 6496 C 592.488 1.39723 1.4602 0
M  V30 6497 C 592.809 0.00461257 1.94999 0
M  V30 6498 O 592.079 -0.952292 1.71196 0
M  V30 6499 H 590.659 0.514281 0.541779 0
M  V30 6500 H 593.321 1.76217 0.832678 0
M  V30 6501 H 592.417 2.07982 2.32701 0
M  V30 6502 N 592.718 -0.936591 1.26751 0
M  V30 6503 C 593.964 -1.6858 1.12733 0
M  V30 6504 C 594.297 -1.91414 -0.327745 0
M  V30 6505 O 593.572 -1.49812 -1.24043 0
M  V30 6506 C 593.855 -3.05779 1.90187 0
M  V30 6507 C 593.708 -2.90242 3.43627 0
M  V30 6508 C 595.027 -4.0597 1.69931 0
M  V30 6509 H 592.146 -0.61182 0.410908 0
M  V30 6510 H 594.788 -1.08747 1.55801 0
M  V30 6511 H 592.938 -3.56853 1.53584 0
M  V30 6512 H 594.61 -2.46354 3.9001 0
M  V30 6513 H 592.853 -2.2577 3.70419 0
M  V30 6514 H 593.524 -3.87572 3.93055 0
M  V30 6515 H 596 -3.63874 2.0183 0
M  V30 6516 H 594.876 -4.99974 2.26534 0
M  V30 6517 H 595.137 -4.37369 0.64502 0
M  V30 6518 N 594.196 -1.08629 -1.14182 0
M  V30 6519 C 595.126 -0.740003 -2.21464 0
M  V30 6520 C 596.107 0.278591 -1.67803 0
M  V30 6521 O 597.292 0.148461 -1.93632 0
M  V30 6522 C 594.422 -0.150952 -3.46972 0
M  V30 6523 C 593.376 -1.09815 -4.13672 0
M  V30 6524 C 592.702 -0.3712 -5.3341 0
M  V30 6525 C 594.002 -2.43722 -4.61949 0
M  V30 6526 H 595.696 -1.63697 -2.50686 0
M  V30 6527 H 593.242 -0.788526 -1.20492 0
M  V30 6528 H 595.195 0.103325 -4.21273 0
M  V30 6529 H 593.919 0.781164 -3.1712 0
M  V30 6530 H 592.578 -1.33756 -3.41328 0
M  V30 6531 H 592.226 0.564792 -4.99819 0
M  V30 6532 H 591.926 -1.00267 -5.78982 0
M  V30 6533 H 593.45 -0.12503 -6.10472 0
M  V30 6534 H 594.864 -2.24034 -5.27714 0
M  V30 6535 H 593.261 -3.02582 -5.18232 0
M  V30 6536 H 594.331 -3.05082 -3.76899 0
M  V30 6537 N 595.674 1.31259 -0.872281 0
M  V30 6538 C 596.92 1.96913 -0.485083 0
M  V30 6539 C 597.253 1.68774 0.960667 0
M  V30 6540 O 596.528 0.985495 1.67685 0
M  V30 6541 C 596.811 3.52299 -0.745502 0
M  V30 6542 C 596.664 3.90002 -2.24095 0
M  V30 6543 C 597.983 4.39582 -0.213516 0
M  V30 6544 H 595.102 0.715252 -0.177716 0
M  V30 6545 H 597.744 1.55347 -1.09395 0
M  V30 6546 H 595.894 3.87835 -0.227276 0
M  V30 6547 H 597.566 3.64555 -2.82661 0
M  V30 6548 H 595.809 3.38526 -2.71261 0
M  V30 6549 H 596.48 4.98352 -2.37381 0
M  V30 6550 H 598.956 4.10882 -0.656902 0
M  V30 6551 H 597.832 5.47251 -0.42516 0
M  V30 6552 H 598.093 4.33158 0.884666 0
M  V30 6553 N 597.152 0.631951 1.44375 0
M  V30 6554 C 598.401 0.134214 2.01253 0
M  V30 6555 C 598.714 -1.25171 1.50305 0
M  V30 6556 O 599.92 -1.8435 1.99317 0
M  V30 6557 C 598.376 0.189187 3.59402 0
M  V30 6558 C 597.984 1.57647 4.19346 0
M  V30 6559 C 599.728 -0.252044 4.23751 0
M  V30 6560 C 597.635 1.58651 5.69722 0
M  V30 6561 H 596.565 0.0464101 0.75257 0
M  V30 6562 H 599.216 0.790868 1.65582 0
M  V30 6563 H 597.598 -0.534584 3.92375 0
M  V30 6564 H 598.772 2.32389 3.97909 0
M  V30 6565 H 597.087 1.96186 3.67288 0
M  V30 6566 H 599.684 -0.264084 5.34047 0
M  V30 6567 H 600.027 -1.27951 3.96149 0
M  V30 6568 H 600.56 0.41926 3.95584 0
M  V30 6569 H 597.299 2.59237 6.0206 0
M  V30 6570 H 596.819 0.882039 5.93279 0
M  V30 6571 H 598.498 1.32082 6.33375 0
M  V30 6572 N 598.631 -1.53133 0.372548 0
M  V30 6573 C 599.594 -2.24569 -0.458389 0
M  V30 6574 C 600.594 -1.25603 -1.00402 0
M  V30 6575 O 601.784 -1.49827 -0.888672 0
M  V30 6576 C 598.916 -2.98783 -1.6414 0
M  V30 6577 H 600.109 -2.99436 0.166799 0
M  V30 6578 H 597.662 -1.55805 0.124357 0
M  V30 6579 H 598.397 -2.28176 -2.30448 0
M  V30 6580 H 598.182 -3.71404 -1.25704 0
M  V30 6581 H 599.672 -3.53068 -2.23008 0
M  V30 6582 N 600.109 -0.101901 -1.5727 0
M  V30 6583 C 601.039 0.851544 -2.17419 0
M  V30 6584 C 602.02 1.28942 -1.10941 0
M  V30 6585 O 603.205 1.35509 -1.39107 0
M  V30 6586 C 600.335 2.10816 -2.75996 0
M  V30 6587 C 599.289 1.80867 -3.87906 0
M  V30 6588 C 598.615 3.13413 -4.33216 0
M  V30 6589 C 599.915 1.0903 -5.10793 0
M  V30 6590 H 601.609 0.350381 -2.97343 0
M  V30 6591 H 599.155 0.16709 -1.43027 0
M  V30 6592 H 601.108 2.77959 -3.16729 0
M  V30 6593 H 599.832 2.63227 -1.93337 0
M  V30 6594 H 598.491 1.16119 -3.47724 0
M  V30 6595 H 598.139 3.63725 -3.47438 0
M  V30 6596 H 597.839 2.94155 -5.08671 0
M  V30 6597 H 599.363 3.81704 -4.76586 0
M  V30 6598 H 600.777 1.66295 -5.48652 0
M  V30 6599 H 599.174 0.99927 -5.91722 0
M  V30 6600 H 600.244 0.0741704 -4.84843 0
M  V30 6601 N 601.587 1.56661 0.17182 0
M  V30 6602 C 602.998 1.71652 0.734329 0
M  V30 6603 C 603.349 0.712335 1.82812 0
M  V30 6604 O 602.474 -0.126401 2.16031 0
M  V30 6605 C 603.069 3.11226 1.3388 0
M  V30 6606 C 601.628 3.27904 1.84813 0
M  V30 6607 C 600.775 2.67603 0.726917 0
M  V30 6608 H 603.726 1.5861 -0.0535665 0
M  V30 6609 H 603.747 3.09849 2.20849 0
M  V30 6610 H 603.259 3.8429 0.54249 0
M  V30 6611 H 601.36 2.59796 2.6709 0
M  V30 6612 H 601.473 4.35637 1.99392 0
M  V30 6613 H 599.837 2.274 1.14723 0
M  V30 6614 H 600.62 3.43252 -0.0575334 0
M  V30 6615 N 603.065 -0.440357 1.51323 0
M  V30 6616 C 604.314 -1.18697 1.63076 0
M  V30 6617 C 604.627 -1.92418 0.35136 0
M  V30 6618 O 605.833 -2.69258 0.348221 0
M  V30 6619 C 604.289 -2.15849 2.87988 0
M  V30 6620 C 603.897 -1.47789 4.22921 0
M  V30 6621 C 605.641 -2.90962 3.09098 0
M  V30 6622 C 603.548 -2.43407 5.38987 0
M  V30 6623 H 602.478 -0.44676 0.607389 0
M  V30 6624 H 605.129 -0.454313 1.77787 0
M  V30 6625 H 603.511 -2.92537 2.66905 0
M  V30 6626 H 604.685 -0.7668 4.54375 0
M  V30 6627 H 603 -0.848404 4.07665 0
M  V30 6628 H 605.597 -3.62584 3.92985 0
M  V30 6629 H 605.94 -3.52133 2.22053 0
M  V30 6630 H 606.473 -2.21381 3.30507 0
M  V30 6631 H 603.212 -1.86929 6.28282 0
M  V30 6632 H 602.732 -3.12579 5.11913 0
M  V30 6633 H 604.411 -3.046 5.70813 0
M  V30 6634 N 604.543 -1.41418 -0.695603 0
M  V30 6635 C 605.954 -1.36335 -1.27552 0
M  V30 6636 C 606.305 -0.0464336 -1.96145 0
M  V30 6637 O 605.43 0.855304 -1.9878 0
M  V30 6638 C 606.025 -2.46941 -2.3196 0
M  V30 6639 C 604.584 -2.45256 -2.85529 0
M  V30 6640 C 603.731 -2.2679 -1.59566 0
M  V30 6641 H 606.682 -1.50934 -0.490362 0
M  V30 6642 H 606.703 -2.15997 -3.1325 0
M  V30 6643 H 606.215 -3.42775 -1.82008 0
M  V30 6644 H 604.316 -1.53179 -3.39657 0
M  V30 6645 H 604.429 -3.41565 -3.35961 0
M  V30 6646 H 602.793 -1.74667 -1.85374 0
M  V30 6647 H 603.576 -3.24651 -1.1161 0
M  V30 6648 N 606.021 0.929856 -1.27246 0
M  V30 6649 C 607.27 1.67182 -1.12842 0
M  V30 6650 C 607.583 1.9287 0.325666 0
M  V30 6651 O 608.789 2.64999 0.590572 0
M  V30 6652 C 607.245 3.01097 -1.97151 0
M  V30 6653 C 606.853 2.83115 -3.47203 0
M  V30 6654 C 608.597 3.78907 -1.91389 0
M  V30 6655 C 606.504 4.12573 -4.23719 0
M  V30 6656 H 605.434 0.627064 -0.418697 0
M  V30 6657 H 608.085 1.0332 -1.51649 0
M  V30 6658 H 606.467 3.66004 -1.51186 0
M  V30 6659 H 607.641 2.26989 -4.01015 0
M  V30 6660 H 605.956 2.18736 -3.54321 0
M  V30 6661 H 608.553 4.74837 -2.45834 0
M  V30 6662 H 608.896 4.0674 -0.887047 0
M  V30 6663 H 609.429 3.20794 -2.35237 0
M  V30 6664 H 606.168 3.8992 -5.26918 0
M  V30 6665 H 605.688 4.68371 -3.74685 0
M  V30 6666 H 607.367 4.8095 -4.32777 0
M  V30 6667 N 607.499 1.09233 1.13605 0
M  V30 6668 C 608.748 0.82205 1.84188 0
M  V30 6669 C 609.061 -0.654548 1.84323 0
M  V30 6670 O 610.267 -1.04029 2.50779 0
M  V30 6671 C 608.723 1.42066 3.30674 0
M  V30 6672 C 608.331 2.92965 3.38933 0
M  V30 6673 C 610.075 1.22924 4.06313 0
M  V30 6674 C 607.982 3.45922 4.79679 0
M  V30 6675 H 606.912 0.303854 0.690064 0
M  V30 6676 H 609.563 1.31479 1.28006 0
M  V30 6677 H 607.945 0.855613 3.86646 0
M  V30 6678 H 609.119 3.55679 2.92966 0
M  V30 6679 H 607.434 3.11118 2.76757 0
M  V30 6680 H 610.031 1.59945 5.10217 0
M  V30 6681 H 610.374 0.169726 4.15954 0
M  V30 6682 H 610.907 1.76168 3.56665 0
M  V30 6683 H 607.646 4.51484 4.75229 0
M  V30 6684 H 607.166 2.87971 5.26149 0
M  V30 6685 H 608.845 3.43009 5.48592 0
M  V30 6686 N 608.977 -1.30795 0.87923 0
M  V30 6687 C 610.223 -1.96653 0.495519 0
M  V30 6688 C 610.556 -1.69282 -0.951703 0
M  V30 6689 O 609.831 -0.994374 -1.6716 0
M  V30 6690 C 610.114 -3.51898 0.764174 0
M  V30 6691 C 609.967 -3.88808 2.2616 0
M  V30 6692 C 611.286 -4.39462 0.236825 0
M  V30 6693 H 608.405 -0.7143 0.181507 0
M  V30 6694 H 611.047 -1.54765 1.10217 0
M  V30 6695 H 609.197 -3.87709 0.247841 0
M  V30 6696 H 610.869 -3.63051 2.8459 0
M  V30 6697 H 609.112 -3.37082 2.73053 0
M  V30 6698 H 609.783 -4.97086 2.4002 0
M  V30 6699 H 612.259 -4.10528 0.678683 0
M  V30 6700 H 611.135 -5.47018 0.454176 0
M  V30 6701 H 611.396 -4.33621 -0.861683 0
M  V30 6702 N 610.455 -0.639598 -1.44038 0
M  V30 6703 C 611.403 0.0723409 -2.32487 0
M  V30 6704 C 612.397 0.827129 -1.47834 0
M  V30 6705 O 613.603 0.73907 -1.64127 0
M  V30 6706 H 609.978 0.0421696 -0.750817 0
M  V30 6707 H 611.949 -0.691593 -2.90275 0
M  V30 6708 C 610.698 1.03452 -3.31953 0
M  V30 6709 H 610.021 0.46315 -3.97108 0
M  V30 6710 H 611.461 1.502 -3.96505 0
M  V30 6711 C 609.92 2.12392 -2.61518 0
M  V30 6712 O 610.45 3.2059 -2.42044 0
M  V30 6713 N 608.656 1.88563 -2.21116 0
M  V30 6714 H 608.203 1.00577 -2.37154 0
M  V30 6715 H 608.161 2.61651 -1.74316 0
M  V30 6716 N 611.933 1.52934 -0.380664 0
M  V30 6717 C 612.881 2.27727 0.47361 0
M  V30 6718 C 613.875 1.31288 1.0705 0
M  V30 6719 O 615.081 1.4886 1.01197 0
M  V30 6720 H 611.456 0.732189 0.171475 0
M  V30 6721 H 613.427 2.97864 -0.178785 0
M  V30 6722 C 612.176 3.0904 1.59341 0
M  V30 6723 H 611.499 3.831 1.14343 0
M  V30 6724 H 612.939 3.64527 2.16555 0
M  V30 6725 C 611.398 2.20813 2.54447 0
M  V30 6726 O 611.928 1.82907 3.57642 0
M  V30 6727 N 610.134 1.85145 2.23986 0
M  V30 6728 H 609.681 2.16169 1.40103 0
M  V30 6729 H 609.639 1.26402 2.87871 0
M  V30 6730 N 613.412 0.11024 1.57214 0
M  V30 6731 C 614.659 -0.54987 1.94891 0
M  V30 6732 C 614.987 -1.67243 0.992984 0
M  V30 6733 O 614.242 -1.95694 0.0152703 0
M  V30 6734 C 614.541 -1.13102 3.39032 0
M  V30 6735 C 614.207 -0.130713 4.5071 0
M  V30 6736 C 612.869 0.14437 4.80983 0
M  V30 6737 C 615.221 0.551472 5.18274 0
M  V30 6738 C 612.549 1.10807 5.76141 0
M  V30 6739 C 614.901 1.50375 6.14467 0
M  V30 6740 C 613.565 1.78691 6.43138 0
M  V30 6741 H 612.835 -0.201212 0.713158 0
M  V30 6742 H 615.482 0.189288 1.90562 0
M  V30 6743 H 613.787 -1.94675 3.40013 0
M  V30 6744 H 615.484 -1.64973 3.65493 0
M  V30 6745 H 612.074 -0.355301 4.27125 0
M  V30 6746 H 616.258 0.35211 4.95049 0
M  V30 6747 H 611.514 1.3343 5.96663 0
M  V30 6748 H 615.688 2.03808 6.65909 0
M  V30 6749 H 613.315 2.53522 7.1668 0
M  V30 6750 N 614.89 -1.56749 -0.16351 0
M  V30 6751 C 616.115 -1.86938 -0.898264 0
M  V30 6752 C 616.54 -0.697456 -1.74692 0
M  V30 6753 O 615.898 0.353327 -1.77824 0
M  V30 6754 C 615.946 -3.15599 -1.74441 0
M  V30 6755 O 615.05 -2.98371 -2.8469 0
M  V30 6756 H 614.391 -0.614659 -0.251178 0
M  V30 6757 H 616.921 -2.03979 -0.159298 0
M  V30 6758 H 616.931 -3.47202 -2.14277 0
M  V30 6759 H 615.606 -4.00505 -1.1211 0
M  V30 6760 H 614.183 -2.7814 -2.4838 0
M  V30 6761 N 616.368 0.432326 -1.51554 0
M  V30 6762 C 617.278 1.55023 -1.76082 0
M  V30 6763 C 618.294 1.61593 -0.645265 0
M  V30 6764 O 619.47 1.78742 -0.928086 0
M  V30 6765 C 616.535 2.90964 -1.88523 0
M  V30 6766 C 615.596 2.9447 -3.12388 0
M  V30 6767 C 614.829 4.23926 -3.24225 0
M  V30 6768 O 615.052 5.16576 -2.4188 0
M  V30 6769 O 613.986 4.33818 -4.17235 0
M  V30 6770 H 617.812 1.37238 -2.70923 0
M  V30 6771 H 615.397 0.615845 -1.36117 0
M  V30 6772 H 617.279 3.71633 -1.98662 0
M  V30 6773 H 615.954 3.08865 -0.9687 0
M  V30 6774 H 614.861 2.12737 -3.07723 0
M  V30 6775 H 616.194 2.81514 -4.03746 0
M  V30 6776 N 617.846 1.41785 0.688094 0
M  V30 6777 C 619.093 1.41544 1.44816 0
M  V30 6778 C 619.421 0.0271746 1.94481 0
M  V30 6779 O 618.676 -0.962235 1.7041 0
M  V30 6780 C 618.975 2.37532 2.67046 0
M  V30 6781 C 618.641 3.84209 2.35996 0
M  V30 6782 C 617.303 4.24165 2.27239 0
M  V30 6783 C 619.655 4.76785 2.10536 0
M  V30 6784 C 616.983 5.54695 1.91128 0
M  V30 6785 C 619.335 6.07644 1.75931 0
M  V30 6786 C 617.999 6.46613 1.65675 0
M  V30 6787 H 617.269 0.517945 0.529919 0
M  V30 6788 H 619.916 1.74635 0.785797 0
M  V30 6789 H 618.221 1.9772 3.38251 0
M  V30 6790 H 619.918 2.34615 3.25203 0
M  V30 6791 H 616.508 3.52567 2.4371 0
M  V30 6792 H 620.692 4.46714 2.16242 0
M  V30 6793 H 615.948 5.83762 1.81746 0
M  V30 6794 H 620.122 6.78874 1.55252 0
M  V30 6795 H 617.749 7.47668 1.37463 0
M  V30 6796 N 619.324 -0.923095 1.27737 0
M  V30 6797 C 620.554 -1.70277 1.17001 0
M  V30 6798 C 620.962 -1.87188 -0.275199 0
M  V30 6799 O 620.305 -1.39195 -1.19877 0
M  V30 6800 C 620.367 -3.11976 1.78637 0
M  V30 6801 C 620.031 -3.18386 3.27841 0
M  V30 6802 C 621.028 -3.00287 4.2441 0
M  V30 6803 C 618.713 -3.41198 3.68632 0
M  V30 6804 C 620.707 -3.04896 5.59747 0
M  V30 6805 C 618.394 -3.4544 5.04097 0
M  V30 6806 C 619.392 -3.27309 5.99465 0
M  V30 6807 O 619.08 -3.31295 7.32461 0
M  V30 6808 H 618.812 -0.539366 0.407505 0
M  V30 6809 H 621.366 -1.16446 1.69202 0
M  V30 6810 H 619.596 -3.67308 1.20919 0
M  V30 6811 H 621.285 -3.7193 1.6255 0
M  V30 6812 H 622.051 -2.825 3.94232 0
M  V30 6813 H 617.93 -3.54359 2.94873 0
M  V30 6814 H 621.474 -2.90662 6.34162 0
M  V30 6815 H 617.371 -3.62753 5.33929 0
M  V30 6816 H 618.139 -3.47719 7.40968 0
M  V30 6817 N 620.802 -1.09834 -1.13024 0
M  V30 6818 C 621.749 -0.741522 -2.18564 0
M  V30 6819 C 622.719 0.279236 -1.63736 0
M  V30 6820 O 623.904 0.159923 -1.90129 0
M  V30 6821 C 621.044 -0.17277 -3.44667 0
M  V30 6822 C 620.157 -1.24808 -4.13578 0
M  V30 6823 C 619.292 -0.641631 -5.27311 0
M  V30 6824 C 618.331 -1.69795 -5.88078 0
M  V30 6825 N 617.468 -1.11223 -6.93234 0
M  V30 6826 H 622.308 -1.64576 -2.48432 0
M  V30 6827 H 619.845 -0.822174 -1.21978 0
M  V30 6828 H 621.803 0.17482 -4.16834 0
M  V30 6829 H 620.433 0.694725 -3.15235 0
M  V30 6830 H 619.485 -1.71288 -3.39653 0
M  V30 6831 H 620.797 -2.04795 -4.54819 0
M  V30 6832 H 619.951 -0.243128 -6.06213 0
M  V30 6833 H 618.69 0.189742 -4.87331 0
M  V30 6834 H 617.695 -2.10595 -5.07868 0
M  V30 6835 H 618.92 -2.53206 -6.3013 0
M  V30 6836 H 616.866 -0.302208 -6.55304 0
M  V30 6837 H 616.783 -1.84901 -7.3304 0
M  V30 6838 H 618.051 -0.740068 -7.75979 0
M  V30 6839 N 622.28 1.30327 -0.886154 0
M  V30 6840 C 623.19 2.31854 -0.357866 0
M  V30 6841 C 624.206 1.65392 0.540502 0
M  V30 6842 O 625.382 1.96683 0.433339 0
M  V30 6843 C 622.447 3.44171 0.417999 0
M  V30 6844 C 621.508 4.26257 -0.510263 0
M  V30 6845 C 620.741 5.3321 0.228669 0
M  V30 6846 O 620.964 5.51542 1.45458 0
M  V30 6847 O 619.898 6.0042 -0.421832 0
M  V30 6848 H 623.724 2.78995 -1.19982 0
M  V30 6849 H 621.309 1.34518 -0.650028 0
M  V30 6850 H 623.191 4.12588 0.857251 0
M  V30 6851 H 621.866 2.99164 1.23623 0
M  V30 6852 H 620.773 3.60533 -0.99835 0
M  V30 6853 H 622.106 4.74871 -1.29454 0
M  V30 6854 N 623.758 0.647228 1.43697 0
M  V30 6855 C 624.69 -0.0866232 2.29036 0
M  V30 6856 C 625.703 -0.793051 1.42178 0
M  V30 6857 O 626.892 -0.651807 1.66174 0
M  V30 6858 C 623.992 -1.14552 3.18953 0
M  V30 6859 C 623.165 -0.518422 4.34317 0
M  V30 6860 C 622.224 -1.4734 5.05151 0
M  V30 6861 O 621.25 -0.984312 5.60625 0
M  V30 6862 N 622.452 -2.8075 5.08094 0
M  V30 6863 H 625.217 0.645834 2.92659 0
M  V30 6864 H 622.778 0.489567 1.54321 0
M  V30 6865 H 624.77 -1.78505 3.63205 0
M  V30 6866 H 623.34 -1.78001 2.56971 0
M  V30 6867 H 622.56 0.300079 3.93056 0
M  V30 6868 H 623.848 -0.080401 5.08736 0
M  V30 6869 H 623.246 -3.23052 4.64386 0
M  V30 6870 H 621.803 -3.40022 5.56083 0
M  V30 6871 N 625.236 -1.5273 0.388769 0
M  V30 6872 C 626.183 -2.26437 -0.446639 0
M  V30 6873 C 627.153 -1.28025 -1.05824 0
M  V30 6874 O 628.338 -1.56852 -1.08637 0
M  V30 6875 C 625.478 -3.07407 -1.56828 0
M  V30 6876 C 624.591 -4.20747 -0.979589 0
M  V30 6877 C 623.726 -4.89113 -2.07224 0
M  V30 6878 C 622.765 -5.94447 -1.45942 0
M  V30 6879 N 621.902 -6.56411 -2.49135 0
M  V30 6880 H 626.742 -2.97404 0.18837 0
M  V30 6881 H 624.279 -1.46727 0.104725 0
M  V30 6882 H 626.237 -3.52642 -2.22934 0
M  V30 6883 H 624.867 -2.3865 -2.17361 0
M  V30 6884 H 623.919 -3.7983 -0.208151 0
M  V30 6885 H 625.231 -4.9637 -0.491747 0
M  V30 6886 H 624.385 -5.3765 -2.81101 0
M  V30 6887 H 623.124 -4.13013 -2.59368 0
M  V30 6888 H 622.129 -5.4525 -0.705894 0
M  V30 6889 H 623.354 -6.7248 -0.945932 0
M  V30 6890 H 621.3 -5.83152 -3.00449 0
M  V30 6891 H 621.217 -7.27645 -2.05105 0
M  V30 6892 H 622.485 -7.09592 -3.22644 0
M  V30 6893 N 626.714 -0.118576 -1.57153 0
M  V30 6894 C 628.13 0.238014 -1.57815 0
M  V30 6895 C 628.33 1.66747 -1.13127 0
M  V30 6896 O 627.386 2.38867 -0.818462 0
M  V30 6897 C 628.699 0.00508207 -3.007 0
M  V30 6898 C 630.247 0.0710139 -3.12919 0
M  V30 6899 C 630.722 -0.13422 -4.57803 0
M  V30 6900 N 632.213 -0.0801755 -4.63131 0
M  V30 6901 C 632.948 -0.213885 -5.73001 0
M  V30 6902 N 632.444 -0.403742 -6.91623 0
M  V30 6903 N 634.237 -0.15349 -5.6189 0
M  V30 6904 H 626.388 -1.05226 -1.84503 0
M  V30 6905 H 628.651 -0.414318 -0.852669 0
M  V30 6906 H 628.357 -0.983125 -3.3768 0
M  V30 6907 H 628.231 0.73714 -3.69927 0
M  V30 6908 H 630.618 1.04975 -2.75798 0
M  V30 6909 H 630.699 -0.692918 -2.46236 0
M  V30 6910 H 630.343 -1.10992 -4.95624 0
M  V30 6911 H 630.273 0.649692 -5.22577 0
M  V30 6912 H 632.764 0.0630689 -3.77847 0
M  V30 6913 H 633.077 -0.496645 -7.71202 0
M  V30 6914 H 631.422 -0.43971 -6.93608 0
M  V30 6915 H 634.613 -0.00613174 -4.681 0
M  V30 6916 H 634.786 -0.261138 -6.47474 0
M  V30 6917 N 628.193 1.56834 0.155195 0
M  V30 6918 C 629.125 1.94235 1.21677 0
M  V30 6919 C 630.138 0.83724 1.39621 0
M  V30 6920 O 631.327 1.11567 1.39338 0
M  V30 6921 C 628.427 2.19402 2.58294 0
M  V30 6922 C 627.6 3.50671 2.61436 0
M  V30 6923 C 626.659 3.64475 3.79532 0
M  V30 6924 O 625.685 4.36945 3.64784 0
M  V30 6925 N 626.887 3.00526 4.96653 0
M  V30 6926 H 629.652 2.85901 0.898932 0
M  V30 6927 H 627.213 1.58185 0.34483 0
M  V30 6928 H 629.205 2.25886 3.35794 0
M  V30 6929 H 627.775 1.34042 2.82403 0
M  V30 6930 H 626.995 3.55702 1.69912 0
M  V30 6931 H 628.283 4.3702 2.60559 0
M  V30 6932 H 627.681 2.41549 5.11538 0
M  V30 6933 H 626.238 3.12583 5.71958 0
M  V30 6934 N 629.671 -0.424282 1.51781 0
M  V30 6935 C 630.581 -1.54087 1.76902 0
M  V30 6936 C 631.597 -1.61249 0.653826 0
M  V30 6937 O 632.773 -1.78247 0.937552 0
M  V30 6938 C 629.838 -2.8996 1.90063 0
M  V30 6939 C 628.899 -2.92809 3.13945 0
M  V30 6940 C 628.132 -4.22201 3.26469 0
M  V30 6941 O 628.355 -5.15286 2.44616 0
M  V30 6942 O 627.289 -4.31599 4.1953 0
M  V30 6943 H 631.115 -1.358 2.71647 0
M  V30 6944 H 628.7 -0.608618 1.36441 0
M  V30 6945 H 630.582 -3.70575 2.0063 0
M  V30 6946 H 629.257 -3.08347 0.985067 0
M  V30 6947 H 628.164 -2.11102 3.08847 0
M  V30 6948 H 629.497 -2.79369 4.05233 0
M  V30 6949 N 631.149 -1.42148 -0.680565 0
M  V30 6950 C 632.096 -1.45175 -1.79424 0
M  V30 6951 C 633.066 -0.304352 -1.63288 0
M  V30 6952 O 634.251 -0.507591 -1.83924 0
M  V30 6953 C 631.391 -1.35429 -3.17416 0
M  V30 6954 C 630.504 -2.60158 -3.4488 0
M  V30 6955 C 629.639 -2.42596 -4.72568 0
M  V30 6956 C 628.678 -3.62727 -4.93047 0
M  V30 6957 N 627.815 -3.44143 -6.11973 0
M  V30 6958 H 632.655 -2.40349 -1.76172 0
M  V30 6959 H 630.192 -1.19334 -0.860107 0
M  V30 6960 H 632.15 -1.27777 -3.97151 0
M  V30 6961 H 630.78 -0.438536 -3.19807 0
M  V30 6962 H 629.832 -2.78199 -2.5944 0
M  V30 6963 H 631.144 -3.49473 -3.55908 0
M  V30 6964 H 630.298 -2.32497 -5.60384 0
M  V30 6965 H 629.037 -1.50761 -4.63813 0
M  V30 6966 H 628.042 -3.73264 -4.03676 0
M  V30 6967 H 629.267 -4.55534 -5.03652 0
M  V30 6968 H 627.213 -2.5502 -6.04401 0
M  V30 6969 H 627.13 -4.27041 -6.23836 0
M  V30 6970 H 628.398 -3.37845 -7.02482 0
M  V30 6971 N 632.627 0.916307 -1.28225 0
M  V30 6972 C 633.59 1.99996 -1.11957 0
M  V30 6973 C 634.59 1.60688 -0.0600152 0
M  V30 6974 O 635.78 1.71499 -0.30558 0
M  V30 6975 C 632.912 3.33458 -0.708411 0
M  V30 6976 H 634.105 2.15858 -2.08196 0
M  V30 6977 H 631.658 1.09863 -1.11175 0
M  V30 6978 H 632.393 3.23297 0.254859 0
M  V30 6979 H 632.178 3.63349 -1.47377 0
M  V30 6980 H 633.668 4.13014 -0.617164 0
M  V30 6981 N 634.105 1.10431 1.1244 0
M  V30 6982 C 635.354 0.841539 1.83306 0
M  V30 6983 C 635.667 -0.634961 1.85007 0
M  V30 6984 O 636.873 -1.01363 2.51869 0
M  V30 6985 C 635.329 1.45565 3.29149 0
M  V30 6986 C 634.937 2.96544 3.35806 0
M  V30 6987 C 636.681 1.27227 4.04986 0
M  V30 6988 C 634.588 3.5099 4.75983 0
M  V30 6989 H 633.518 0.311156 0.686803 0
M  V30 6990 H 636.169 1.32829 1.26604 0
M  V30 6991 H 634.551 0.896574 3.85717 0
M  V30 6992 H 635.725 3.58766 2.89177 0
M  V30 6993 H 634.04 3.14036 2.73442 0
M  V30 6994 H 636.637 1.65348 5.08492 0
M  V30 6995 H 636.98 0.213834 4.1575 0
M  V30 6996 H 637.513 1.79941 3.54776 0
M  V30 6997 H 634.252 4.56499 4.70413 0
M  V30 6998 H 633.772 2.93535 5.23065 0
M  V30 6999 H 635.451 3.48808 5.44924 0
M  V30 7000 N 635.583 -1.29855 0.893053 0
M  V30 7001 C 636.53 -2.27909 0.364161 0
M  V30 7002 C 637.5 -1.56726 -0.550093 0
M  V30 7003 O 638.685 -1.84747 -0.47677 0
M  V30 7004 C 635.825 -3.42678 -0.408178 0
M  V30 7005 C 634.938 -4.28659 0.536212 0
M  V30 7006 C 634.073 -5.30599 -0.252521 0
M  V30 7007 C 633.112 -6.08234 0.686822 0
M  V30 7008 N 632.249 -7.02068 -0.0670902 0
M  V30 7009 H 637.089 -2.72531 1.20544 0
M  V30 7010 H 634.626 -1.34047 0.605779 0
M  V30 7011 H 636.584 -4.07986 -0.871962 0
M  V30 7012 H 635.214 -2.99103 -1.21397 0
M  V30 7013 H 634.266 -3.63584 1.1185 0
M  V30 7014 H 635.578 -4.8274 1.25552 0
M  V30 7015 H 634.732 -6.01694 -0.777801 0
M  V30 7016 H 633.471 -4.77233 -1.005 0
M  V30 7017 H 632.476 -5.3601 1.22366 0
M  V30 7018 H 633.701 -6.63689 1.43852 0
M  V30 7019 H 631.647 -6.5108 -0.801955 0
M  V30 7020 H 631.564 -7.53675 0.59243 0
M  V30 7021 H 632.832 -7.77392 -0.572851 0
M  V30 7022 N 637.061 -0.65484 -1.43351 0
M  V30 7023 C 638.477 -0.32255 -1.56307 0
M  V30 7024 C 638.677 1.17324 -1.63821 0
M  V30 7025 O 637.733 1.95813 -1.59417 0
M  V30 7026 C 639.046 -1.03533 -2.82314 0
M  V30 7027 C 640.594 -1.01574 -2.9606 0
M  V30 7028 C 641.069 -1.70945 -4.24902 0
M  V30 7029 N 642.56 -1.67716 -4.3177 0
M  V30 7030 C 643.295 -2.18265 -5.30234 0
M  V30 7031 N 642.791 -2.7711 -6.34966 0
M  V30 7032 N 644.584 -2.08756 -5.21898 0
M  V30 7033 H 636.735 -1.62549 -1.36717 0
M  V30 7034 H 638.998 -0.683676 -0.656727 0
M  V30 7035 H 638.704 -2.09045 -2.8283 0
M  V30 7036 H 638.578 -0.587913 -3.7259 0
M  V30 7037 H 640.965 0.0309834 -2.95084 0
M  V30 7038 H 641.046 -1.50186 -2.07069 0
M  V30 7039 H 640.69 -2.75574 -4.26639 0
M  V30 7040 H 640.62 -1.19797 -5.12793 0
M  V30 7041 H 643.111 -1.24777 -3.56706 0
M  V30 7042 H 643.424 -3.13353 -7.06421 0
M  V30 7043 H 641.769 -2.81171 -6.35585 0
M  V30 7044 H 644.96 -1.62488 -4.38994 0
M  V30 7045 H 645.133 -2.48459 -5.98475 0
M  V30 7046 N 638.539 1.52521 -0.396863 0
M  V30 7047 C 639.955 1.5953 -0.0471659 0
M  V30 7048 C 640.155 1.41044 1.43906 0
M  V30 7049 O 639.211 1.23122 2.20448 0
M  V30 7050 C 640.524 2.95972 -0.531113 0
M  V30 7051 C 642.072 3.09172 -0.488024 0
M  V30 7052 C 642.547 4.48075 -0.948281 0
M  V30 7053 N 644.038 4.54281 -0.9046 0
M  V30 7054 C 644.773 5.60007 -1.23205 0
M  V30 7055 N 644.269 6.73343 -1.63036 0
M  V30 7056 N 646.062 5.50151 -1.15282 0
M  V30 7057 H 638.213 1.62786 -1.36435 0
M  V30 7058 H 640.476 0.76514 -0.559701 0
M  V30 7059 H 640.182 3.14741 -1.56942 0
M  V30 7060 H 640.056 3.77143 0.0657922 0
M  V30 7061 H 642.443 2.90095 0.541211 0
M  V30 7062 H 642.524 2.29937 -1.12083 0
M  V30 7063 H 642.168 4.67894 -1.97578 0
M  V30 7064 H 642.098 5.25788 -0.292412 0
M  V30 7065 H 644.589 3.72918 -0.6116 0
M  V30 7066 H 644.902 7.49992 -1.86365 0
M  V30 7067 H 643.247 6.74655 -1.66929 0
M  V30 7068 H 646.438 4.6049 -0.840602 0
M  V30 7069 H 646.611 6.32444 -1.41133 0
M  V30 7070 N 640.017 0.126909 1.57088 0
M  V30 7071 C 640.927 -0.833867 2.1928 0
M  V30 7072 C 641.943 -1.2868 1.17122 0
M  V30 7073 O 643.119 -1.34815 1.49622 0
M  V30 7074 C 640.184 -2.0632 2.78627 0
M  V30 7075 C 639.245 -1.66143 3.95847 0
M  V30 7076 C 638.478 -2.83217 4.52354 0
M  V30 7077 O 638.701 -3.98868 4.0775 0
M  V30 7078 O 637.635 -2.59846 5.42922 0
M  V30 7079 H 641.461 -0.334564 3.01852 0
M  V30 7080 H 639.046 -0.0991091 1.49071 0
M  V30 7081 H 640.928 -2.78304 3.16425 0
M  V30 7082 H 639.603 -2.55242 1.99082 0
M  V30 7083 H 638.51 -0.912435 3.62802 0
M  V30 7084 H 639.843 -1.21957 4.76852 0
M  V30 7085 N 641.495 -1.56914 -0.146875 0
M  V30 7086 C 642.458 -1.97368 -1.16526 0
M  V30 7087 C 643.458 -0.860223 -1.35856 0
M  V30 7088 O 644.648 -1.12684 -1.32846 0
M  V30 7089 C 641.78 -2.28974 -2.52555 0
M  V30 7090 H 642.973 -2.88523 -0.818209 0
M  V30 7091 H 640.526 -1.5135 -0.390221 0
M  V30 7092 H 641.261 -1.40611 -2.92231 0
M  V30 7093 H 641.046 -3.10157 -2.39886 0
M  V30 7094 H 642.536 -2.61109 -3.25902 0
M  V30 7095 N 642.974 0.416227 -1.52004 0
M  V30 7096 C 643.904 1.51365 -1.77795 0
M  V30 7097 C 644.885 1.58059 -0.628601 0
M  V30 7098 O 646.07 1.73447 -0.873478 0
M  V30 7099 C 643.2 2.89256 -1.92219 0
M  V30 7100 C 642.154 2.97415 -3.0778 0
M  V30 7101 C 641.48 4.37492 -3.07417 0
M  V30 7102 C 642.78 2.69551 -4.47369 0
M  V30 7103 H 644.474 1.30033 -2.69688 0
M  V30 7104 H 642.02 0.624112 -1.29772 0
M  V30 7105 H 643.973 3.66008 -2.08845 0
M  V30 7106 H 642.697 3.11866 -0.969917 0
M  V30 7107 H 641.356 2.23107 -2.90893 0
M  V30 7108 H 641.004 4.571 -2.09925 0
M  V30 7109 H 640.704 4.43877 -3.85029 0
M  V30 7110 H 642.228 5.16188 -3.26162 0
M  V30 7111 H 643.642 3.36028 -4.64497 0
M  V30 7112 H 642.039 2.87321 -5.26846 0
M  V30 7113 H 643.109 1.65029 -4.55953 0
M  V30 7114 N 644.452 1.42507 0.673017 0
M  V30 7115 C 645.362 1.4853 1.81593 0
M  V30 7116 C 646.378 0.373907 1.69935 0
M  V30 7117 O 647.554 0.625078 1.91454 0
M  V30 7118 C 644.619 1.387 3.17747 0
M  V30 7119 C 643.68 2.60346 3.41348 0
M  V30 7120 C 642.913 2.50975 4.71007 0
M  V30 7121 O 643.136 1.54659 5.49033 0
M  V30 7122 O 642.07 3.41138 4.95892 0
M  V30 7123 H 645.896 2.45001 1.79467 0
M  V30 7124 H 643.481 1.2429 0.82899 0
M  V30 7125 H 645.363 1.35586 3.98992 0
M  V30 7126 H 644.038 0.453555 3.20507 0
M  V30 7127 H 642.945 2.69034 2.59945 0
M  V30 7128 H 644.278 3.52595 3.43421 0
M  V30 7129 N 645.93 -0.909495 1.28709 0
M  V30 7130 C 647.346 -1.18862 1.06508 0
M  V30 7131 C 647.546 -2.00604 -0.189864 0
M  V30 7132 O 646.602 -2.36281 -0.890355 0
M  V30 7133 C 647.915 -1.91908 2.31499 0
M  V30 7134 C 649.463 -2.04773 2.36721 0
M  V30 7135 C 649.938 -2.81228 3.6149 0
M  V30 7136 N 651.429 -2.88787 3.62155 0
M  V30 7137 C 652.164 -3.48455 4.55375 0
M  V30 7138 N 651.66 -4.09369 5.58918 0
M  V30 7139 N 653.453 -3.46035 4.42963 0
M  V30 7140 H 645.604 -0.363867 2.0926 0
M  V30 7141 H 647.867 -0.223649 0.921241 0
M  V30 7142 H 647.573 -1.39275 3.22948 0
M  V30 7143 H 647.447 -2.92436 2.38245 0
M  V30 7144 H 649.834 -2.56585 1.45767 0
M  V30 7145 H 649.915 -1.03408 2.33967 0
M  V30 7146 H 649.559 -2.30094 4.5279 0
M  V30 7147 H 649.489 -3.82917 3.61499 0
M  V30 7148 H 651.98 -2.45514 2.87283 0
M  V30 7149 H 652.293 -4.52891 6.26187 0
M  V30 7150 H 650.638 -4.0786 5.62739 0
M  V30 7151 H 653.829 -2.9766 3.6127 0
M  V30 7152 H 654.002 -3.92244 5.15799 0
M  V30 7153 N 647.408 -1.11026 -1.11852 0
M  V30 7154 C 648.371 -0.768006 -2.1595 0
M  V30 7155 C 649.371 0.210538 -1.59416 0
M  V30 7156 O 650.561 -0.0133978 -1.74195 0
M  V30 7157 C 647.693 -0.138678 -3.40618 0
M  V30 7158 H 648.886 -1.69012 -2.4774 0
M  V30 7159 H 646.439 -0.911578 -1.26964 0
M  V30 7160 H 647.174 0.793872 -3.14433 0
M  V30 7161 H 646.959 -0.843012 -3.8293 0
M  V30 7162 H 648.449 0.0848039 -4.17514 0
M  V30 7163 N 648.886 1.2938 -0.899927 0
M  V30 7164 C 649.833 2.27713 -0.376243 0
M  V30 7165 C 650.803 1.57016 0.541774 0
M  V30 7166 O 651.988 1.84997 0.466966 0
M  V30 7167 C 649.128 3.42889 0.39 0
M  V30 7168 C 648.241 4.28369 -0.558938 0
M  V30 7169 C 647.376 5.30726 0.224379 0
M  V30 7170 C 646.415 6.07862 -0.719068 0
M  V30 7171 N 645.552 7.02094 0.0298569 0
M  V30 7172 H 650.392 2.71888 -1.21988 0
M  V30 7173 H 647.929 1.33724 -0.612879 0
M  V30 7174 H 649.887 4.08443 0.850314 0
M  V30 7175 H 648.517 2.99743 1.19809 0
M  V30 7176 H 647.569 3.62986 -1.13777 0
M  V30 7177 H 648.881 4.82068 -1.2811 0
M  V30 7178 H 648.035 6.02098 0.745881 0
M  V30 7179 H 646.774 4.77759 0.979674 0
M  V30 7180 H 645.779 5.35353 -1.25207 0
M  V30 7181 H 647.004 6.62917 -1.4737 0
M  V30 7182 H 644.95 6.51496 0.767415 0
M  V30 7183 H 644.867 7.5335 -0.632391 0
M  V30 7184 H 646.135 7.77685 0.531615 0
M  V30 7185 N 650.364 0.662433 1.43002 0
M  V30 7186 C 651.78 0.330835 1.56133 0
M  V30 7187 C 651.98 -1.16454 1.64441 0
M  V30 7188 O 651.036 -1.94964 1.60453 0
M  V30 7189 C 652.349 1.05029 2.81761 0
M  V30 7190 C 653.897 1.03142 2.95518 0
M  V30 7191 C 654.372 1.73196 4.2399 0
M  V30 7192 N 655.863 1.70004 4.30875 0
M  V30 7193 C 656.598 2.21074 5.29069 0
M  V30 7194 N 656.094 2.80473 6.33488 0
M  V30 7195 N 657.887 2.1152 5.20784 0
M  V30 7196 H 650.038 1.63272 1.35853 0
M  V30 7197 H 652.301 0.687149 0.653092 0
M  V30 7198 H 652.007 2.10542 2.81718 0
M  V30 7199 H 651.881 0.607664 3.72273 0
M  V30 7200 H 654.268 -0.0153339 2.95096 0
M  V30 7201 H 654.349 1.51282 2.0627 0
M  V30 7202 H 653.993 2.77833 4.25172 0
M  V30 7203 H 653.923 1.22515 5.1215 0
M  V30 7204 H 656.414 1.26667 3.56039 0
M  V30 7205 H 656.727 3.17094 7.04749 0
M  V30 7206 H 655.072 2.84538 6.34085 0
M  V30 7207 H 658.263 1.64814 4.38126 0
M  V30 7208 H 658.436 2.51629 5.97149 0
M  V30 7209 N 651.842 -1.52309 0.404946 0
M  V30 7210 C 652.79 -2.28452 -0.437321 0
M  V30 7211 C 653.784 -1.32975 -1.04948 0
M  V30 7212 O 654.99 -1.50451 -0.988159 0
M  V30 7213 H 651.365 -0.734824 -0.159805 0
M  V30 7214 H 653.336 -2.97542 0.22615 0
M  V30 7215 C 652.085 -3.11536 -1.54404 0
M  V30 7216 H 651.408 -3.84871 -1.08233 0
M  V30 7217 H 652.848 -3.67926 -2.10729 0
M  V30 7218 C 651.307 -2.24833 -2.50902 0
M  V30 7219 O 651.837 -1.88574 -3.54687 0
M  V30 7220 N 650.043 -1.88685 -2.21012 0
M  V30 7221 H 649.59 -2.18371 -1.36646 0
M  V30 7222 H 649.548 -1.30966 -2.85824 0
M  V30 7223 N 653.32 -0.135238 -1.57019 0
M  V30 7224 C 654.568 0.51777 -1.95355 0
M  V30 7225 C 654.889 1.6617 -1.02042 0
M  V30 7226 O 654.159 1.95738 -0.0797343 0
M  V30 7227 H 652.739 0.194264 -0.721298 0
M  V30 7228 H 655.401 -0.207983 -1.93787 0
M  V30 7229 H 654.497 0.901675 -2.98791 0
M  V30 7230 N 654.798 1.5699 0.138552 0
M  V30 7231 C 656.023 1.88344 0.86841 0
M  V30 7232 C 656.448 0.725159 1.7356 0
M  V30 7233 O 655.806 -0.324992 1.78363 0
M  V30 7234 C 655.854 3.18334 1.69398 0
M  V30 7235 O 654.958 3.02863 2.79907 0
M  V30 7236 H 654.299 0.618577 0.241367 0
M  V30 7237 H 656.829 2.04207 0.126826 0
M  V30 7238 H 656.839 3.50567 2.08726 0
M  V30 7239 H 655.514 4.02238 1.05725 0
M  V30 7240 H 654.091 2.82056 2.43924 0
M  V30 7241 N 656.276 -0.40816 1.52223 0
M  V30 7242 C 657.525 -1.15212 1.65557 0
M  V30 7243 C 657.838 -1.9163 0.392096 0
M  V30 7244 O 659.044 -2.68458 0.405256 0
M  V30 7245 C 657.5 -2.09691 2.92502 0
M  V30 7246 C 657.108 -1.38785 4.25961 0
M  V30 7247 C 658.852 -2.8434 3.152 0
M  V30 7248 C 656.759 -2.31919 5.44029 0
M  V30 7249 H 655.689 -0.433776 0.616729 0
M  V30 7250 H 658.34 -0.4165 1.78711 0
M  V30 7251 H 656.722 -2.8681 2.7305 0
M  V30 7252 H 657.896 -0.670248 4.55899 0
M  V30 7253 H 656.211 -0.761741 4.09373 0
M  V30 7254 H 658.808 -3.54166 4.00587 0
M  V30 7255 H 659.151 -3.47344 2.29473 0
M  V30 7256 H 659.684 -2.14321 3.35129 0
M  V30 7257 H 656.423 -1.7356 6.32105 0
M  V30 7258 H 655.943 -3.0165 5.18428 0
M  V30 7259 H 657.622 -2.92424 5.77146 0
M  V30 7260 N 657.755 -1.42862 -0.66545 0
M  V30 7261 C 659.001 -1.44043 -1.42757 0
M  V30 7262 C 659.334 -0.0599629 -1.94107 0
M  V30 7263 O 658.609 0.917286 -1.71511 0
M  V30 7264 C 658.892 -2.47266 -2.61786 0
M  V30 7265 C 658.745 -3.94539 -2.16007 0
M  V30 7266 C 660.064 -2.47365 -3.64003 0
M  V30 7267 H 657.183 -0.524506 -0.517748 0
M  V30 7268 H 659.825 -1.74335 -0.755466 0
M  V30 7269 H 657.975 -2.21565 -3.19126 0
M  V30 7270 H 659.647 -4.31254 -1.63762 0
M  V30 7271 H 657.89 -4.07957 -1.47491 0
M  V30 7272 H 658.561 -4.62357 -3.01546 0
M  V30 7273 H 661.037 -2.70243 -3.16399 0
M  V30 7274 H 659.913 -3.21552 -4.44854 0
M  V30 7275 H 660.174 -1.50299 -4.15767 0
M  V30 7276 N 659.233 0.902656 -1.29189 0
M  V30 7277 C 660.458 1.69167 -1.19989 0
M  V30 7278 C 660.883 1.86607 0.236495 0
M  V30 7279 O 660.241 1.38425 1.17082 0
M  V30 7280 C 660.289 3.05532 -1.91527 0
M  V30 7281 O 659.393 3.93621 -1.2303 0
M  V30 7282 H 658.734 0.517584 -0.415936 0
M  V30 7283 H 661.264 1.12785 -1.70706 0
M  V30 7284 H 661.274 3.55693 -1.99866 0
M  V30 7285 H 659.949 2.92156 -2.96003 0
M  V30 7286 H 658.526 3.52055 -1.22928 0
M  V30 7287 N 660.711 1.11618 1.11262 0
M  V30 7288 C 661.644 0.719995 2.16544 0
M  V30 7289 C 662.622 -0.28471 1.60088 0
M  V30 7290 O 663.806 -0.180693 1.87632 0
M  V30 7291 C 660.933 0.0643302 3.38639 0
M  V30 7292 C 659.979 1.03448 4.13764 0
M  V30 7293 S 660.812 2.55789 4.70459 0
M  V30 7294 C 661.968 1.91529 5.95875 0
M  V30 7295 H 662.201 1.61181 2.49816 0
M  V30 7296 H 659.734 0.934401 1.22916 0
M  V30 7297 H 661.692 -0.307609 4.09346 0
M  V30 7298 H 660.353 -0.804471 3.03623 0
M  V30 7299 H 659.546 0.523188 5.01277 0
M  V30 7300 H 659.148 1.34893 3.48826 0
M  V30 7301 H 661.44 1.25286 6.65815 0
M  V30 7302 H 662.383 2.77047 6.51652 0
M  V30 7303 H 662.791 1.37468 5.47506 0
M  V30 7304 N 662.189 -1.289 0.906776 0
M  V30 7305 C 663.137 -2.29477 0.379873 0
M  V30 7306 C 664.131 -1.61068 -0.524747 0
M  V30 7307 O 665.337 -1.75344 -0.406765 0
M  V30 7308 H 661.712 -0.744742 0.10423 0
M  V30 7309 H 663.683 -2.71353 1.24137 0
M  V30 7310 C 662.432 -3.45713 -0.371154 0
M  V30 7311 H 661.755 -3.98551 0.315716 0
M  V30 7312 H 663.195 -4.18105 -0.704581 0
M  V30 7313 C 661.654 -2.9774 -1.57646 0
M  V30 7314 O 662.184 -2.99618 -2.67567 0
M  V30 7315 N 660.39 -2.53485 -1.42105 0
M  V30 7316 H 659.937 -2.52156 -0.526783 0
M  V30 7317 H 659.895 -2.21747 -2.22881 0
M  V30 7318 N 663.667 -0.670007 -1.42649 0
M  V30 7319 C 664.6 0.0613623 -2.28117 0
M  V30 7320 C 665.578 0.813414 -1.40792 0
M  V30 7321 O 666.762 0.809529 -1.70232 0
M  V30 7322 C 663.889 1.09399 -3.20546 0
M  V30 7323 C 662.935 0.438064 -4.24244 0
M  V30 7324 S 663.768 -0.800808 -5.29478 0
M  V30 7325 C 664.924 0.23086 -6.25474 0
M  V30 7326 H 665.157 -0.663606 -2.89799 0
M  V30 7327 H 662.69 -0.45939 -1.47407 0
M  V30 7328 H 664.648 1.68469 -3.74337 0
M  V30 7329 H 663.309 1.79137 -2.58009 0
M  V30 7330 H 662.502 1.21707 -4.89084 0
M  V30 7331 H 662.104 -0.0789346 -3.73917 0
M  V30 7332 H 664.396 1.09204 -6.68641 0
M  V30 7333 H 665.339 -0.382945 -7.07064 0
M  V30 7334 H 665.747 0.574191 -5.61572 0
M  V30 7335 N 665.145 1.52092 -0.413018 0
M  V30 7336 C 666.092 2.27119 0.410558 0
M  V30 7337 C 667.062 1.29692 1.03774 0
M  V30 7338 O 668.247 1.58561 1.06128 0
M  V30 7339 C 665.387 3.09863 1.51918 0
M  V30 7340 C 664.5 4.22252 0.912528 0
M  V30 7341 C 663.635 4.92348 1.99417 0
M  V30 7342 C 662.674 5.96694 1.36466 0
M  V30 7343 N 661.811 6.60292 2.38661 0
M  V30 7344 H 666.651 2.97067 -0.235661 0
M  V30 7345 H 664.188 1.46542 -0.128055 0
M  V30 7346 H 666.146 3.56144 2.17295 0
M  V30 7347 H 664.776 2.42078 2.13537 0
M  V30 7348 H 663.828 3.80113 0.147697 0
M  V30 7349 H 665.14 4.9709 0.412717 0
M  V30 7350 H 664.294 5.42054 2.72512 0
M  V30 7351 H 663.033 4.17087 2.52764 0
M  V30 7352 H 662.038 5.46304 0.61906 0
M  V30 7353 H 663.263 6.73899 0.838827 0
M  V30 7354 H 661.209 5.87858 2.91134 0
M  V30 7355 H 661.126 7.30816 1.93503 0
M  V30 7356 H 662.394 7.14635 3.11314 0
M  V30 7357 N 666.623 0.143563 1.56945 0
M  V30 7358 C 667.9 -0.553285 1.87612 0
M  V30 7359 C 668.28 -1.83195 1.04894 0
M  V30 7360 O 667.628 -2.28102 0.134773 0
M  V30 7361 C 667.838 -0.822055 3.3918 0
M  V30 7362 C 669.186 -1.16435 4.08324 0
M  V30 7363 O 670.21 -0.911522 3.4434 0
M  V30 7364 O 669.069 -1.63996 5.21313 0
M  V30 7365 H 666.163 -0.281851 0.777489 0
M  V30 7366 H 668.709 0.179916 1.68744 0
M  V30 7367 H 667.481 0.0830265 3.91212 0
M  V30 7368 H 667.104 -1.60956 3.63564 0
M  V30 7369 N 668.101 -1.57061 -0.130224 0
M  V30 7370 C 669.064 -1.98593 -1.14426 0
M  V30 7371 C 670.064 -0.874584 -1.34936 0
M  V30 7372 O 671.254 -1.14086 -1.31643 0
M  V30 7373 C 668.386 -2.31639 -2.50112 0
M  V30 7374 H 669.579 -2.89374 -0.787561 0
M  V30 7375 H 667.132 -1.51756 -0.374146 0
M  V30 7376 H 667.867 -1.43703 -2.90723 0
M  V30 7377 H 667.652 -3.12684 -2.36583 0
M  V30 7378 H 669.142 -2.64551 -3.23114 0
M  V30 7379 N 669.579 0.400081 -1.52437 0
M  V30 7380 C 670.826 1.14619 -1.6694 0
M  V30 7381 C 671.154 1.90262 -0.403797 0
M  V30 7382 O 670.409 1.85835 0.61351 0
M  V30 7383 C 670.708 2.15914 -2.84808 0
M  V30 7384 C 670.374 1.57011 -4.2268 0
M  V30 7385 C 669.036 1.40672 -4.60179 0
M  V30 7386 C 671.388 1.14081 -5.08562 0
M  V30 7387 C 668.716 0.799335 -5.81229 0
M  V30 7388 C 671.068 0.547573 -6.30226 0
M  V30 7389 C 669.732 0.371389 -6.66466 0
M  V30 7390 H 669.002 0.419419 -0.610875 0
M  V30 7391 H 671.649 0.432227 -1.86558 0
M  V30 7392 H 669.954 2.93488 -2.59561 0
M  V30 7393 H 671.651 2.73533 -2.93225 0
M  V30 7394 H 668.241 1.70713 -3.93135 0
M  V30 7395 H 672.425 1.2551 -4.80168 0
M  V30 7396 H 667.681 0.65093 -6.07925 0
M  V30 7397 H 671.855 0.206575 -6.96094 0
M  V30 7398 H 669.482 -0.10135 -7.60132 0
M  V30 7399 N 671.057 1.43213 0.657864 0
M  V30 7400 C 672.02 1.47687 1.75275 0
M  V30 7401 C 673.02 0.362179 1.56668 0
M  V30 7402 O 674.21 0.623734 1.62651 0
M  V30 7403 C 671.342 1.32497 3.14098 0
M  V30 7404 H 672.535 2.4519 1.7269 0
M  V30 7405 H 670.088 1.2991 0.869087 0
M  V30 7406 H 670.823 0.359831 3.22298 0
M  V30 7407 H 670.608 2.13299 3.29008 0
M  V30 7408 H 672.098 1.38549 3.93946 0
M  V30 7409 N 672.536 -0.895792 1.29666 0
M  V30 7410 C 673.952 -1.17726 1.07763 0
M  V30 7411 C 674.152 -2.00794 -0.168576 0
M  V30 7412 O 673.208 -2.37213 -0.865244 0
M  V30 7413 C 674.521 -1.89441 2.33522 0
M  V30 7414 C 676.069 -2.02251 2.3888 0
M  V30 7415 C 676.544 -2.77378 3.64452 0
M  V30 7416 N 678.035 -2.8493 3.65198 0
M  V30 7417 C 678.77 -3.43606 4.59045 0
M  V30 7418 N 678.266 -4.03417 5.63228 0
M  V30 7419 N 680.059 -3.41317 4.46608 0
M  V30 7420 H 672.21 -0.341652 2.09634 0
M  V30 7421 H 674.473 -0.213865 0.923561 0
M  V30 7422 H 674.179 -1.35842 3.24407 0
M  V30 7423 H 674.053 -2.89893 2.41334 0
M  V30 7424 H 676.44 -2.55025 1.4848 0
M  V30 7425 H 676.521 -1.0092 2.3505 0
M  V30 7426 H 676.165 -2.25279 4.55205 0
M  V30 7427 H 676.095 -3.79062 3.65541 0
M  V30 7428 H 678.586 -2.42453 2.89871 0
M  V30 7429 H 678.899 -4.46224 6.30955 0
M  V30 7430 H 677.244 -4.01868 5.67033 0
M  V30 7431 H 680.435 -2.93812 3.64407 0
M  V30 7432 H 680.608 -3.86751 5.1993 0
M  V30 7433 N 674.014 -1.12206 -1.10668 0
M  V30 7434 C 675.239 -0.898938 -1.86906 0
M  V30 7435 C 675.664 0.546346 -1.79991 0
M  V30 7436 O 675.022 1.38655 -1.1681 0
M  V30 7437 C 675.07 -1.37529 -3.33344 0
M  V30 7438 O 674.174 -0.55218 -4.08687 0
M  V30 7439 H 673.515 -0.323163 -0.580053 0
M  V30 7440 H 676.045 -1.49355 -1.39837 0
M  V30 7441 H 676.055 -1.3733 -3.84193 0
M  V30 7442 H 674.73 -2.42767 -3.37693 0
M  V30 7443 H 673.307 -0.620947 -3.67694 0
M  V30 7444 N 675.492 1.28418 -0.913599 0
M  V30 7445 C 676.741 1.94265 -0.542572 0
M  V30 7446 C 677.054 1.72709 0.918207 0
M  V30 7447 O 678.26 2.32778 1.39738 0
M  V30 7448 C 676.716 3.47956 -0.919507 0
M  V30 7449 C 676.324 3.78291 -2.4 0
M  V30 7450 C 678.068 4.19962 -0.619057 0
M  V30 7451 C 675.975 5.2529 -2.71707 0
M  V30 7452 H 674.905 0.727213 -0.199192 0
M  V30 7453 H 677.556 1.45931 -1.11249 0
M  V30 7454 H 675.938 3.9502 -0.278372 0
M  V30 7455 H 677.112 3.42035 -3.08786 0
M  V30 7456 H 675.427 3.19456 -2.67089 0
M  V30 7457 H 678.024 5.28178 -0.832623 0
M  V30 7458 H 678.367 4.13935 0.443126 0
M  V30 7459 H 678.9 3.78674 -1.21865 0
M  V30 7460 H 675.639 5.36394 -3.76778 0
M  V30 7461 H 675.159 5.62743 -2.07559 0
M  V30 7462 H 676.838 5.93027 -2.58703 0
M  V30 7463 N 676.97 0.677563 1.42291 0
M  V30 7464 C 677.88 0.000962654 2.346 0
M  V30 7465 C 678.896 -0.785833 1.55244 0
M  V30 7466 O 680.072 -0.727523 1.87801 0
M  V30 7467 C 677.137 -0.936746 3.33805 0
M  V30 7468 C 676.198 -0.144173 4.29058 0
M  V30 7469 C 675.431 -1.03722 5.23524 0
M  V30 7470 O 675.654 -2.27675 5.22992 0
M  V30 7471 O 674.588 -0.496542 5.99848 0
M  V30 7472 H 678.414 0.761397 2.94001 0
M  V30 7473 H 675.999 0.43781 1.42841 0
M  V30 7474 H 677.881 -1.47497 3.94744 0
M  V30 7475 H 676.556 -1.67698 2.76874 0
M  V30 7476 H 675.463 0.438224 3.71524 0
M  V30 7477 H 676.796 0.55701 4.89038 0
M  V30 7478 N 678.448 -1.51871 0.421078 0
M  V30 7479 C 679.381 -2.23851 -0.443369 0
M  V30 7480 C 680.359 -1.25142 -1.03818 0
M  V30 7481 O 681.543 -1.5423 -1.08377 0
M  V30 7482 C 678.67 -2.97637 -1.61648 0
M  V30 7483 C 677.716 -4.10873 -1.14391 0
M  V30 7484 S 678.549 -5.35408 -0.0992403 0
M  V30 7485 C 679.705 -6.12726 -1.27739 0
M  V30 7486 H 679.938 -2.96826 0.167786 0
M  V30 7487 H 677.471 -1.53027 0.205461 0
M  V30 7488 H 679.429 -3.40751 -2.28909 0
M  V30 7489 H 678.09 -2.24282 -2.199 0
M  V30 7490 H 677.283 -4.61718 -2.02069 0
M  V30 7491 H 676.885 -3.69937 -0.549775 0
M  V30 7492 H 679.177 -6.40827 -2.19881 0
M  V30 7493 H 680.12 -7.03461 -0.809239 0
M  V30 7494 H 680.528 -5.43968 -1.5086 0
M  V30 7495 N 679.926 -0.151884 -1.56866 0
M  V30 7496 C 680.859 0.824094 -2.128 0
M  V30 7497 C 681.837 1.2391 -1.05286 0
M  V30 7498 O 683.021 1.33433 -1.33146 0
M  V30 7499 C 680.148 2.1072 -2.65169 0
M  V30 7500 C 679.194 1.83774 -3.84876 0
M  V30 7501 S 680.027 1.02436 -5.25611 0
M  V30 7502 C 681.183 2.31855 -5.81373 0
M  V30 7503 H 681.416 0.348456 -2.95251 0
M  V30 7504 H 678.949 0.0624794 -1.54274 0
M  V30 7505 H 680.907 2.84428 -2.95992 0
M  V30 7506 H 679.568 2.55398 -1.8284 0
M  V30 7507 H 678.761 2.78929 -4.19779 0
M  V30 7508 H 678.363 1.18172 -3.5484 0
M  V30 7509 H 680.655 3.27469 -5.93102 0
M  V30 7510 H 681.598 2.01449 -6.7884 0
M  V30 7511 H 682.006 2.42727 -5.09651 0
M  V30 7512 N 681.404 1.57128 0.121893 0
M  V30 7513 C 682.681 1.75664 0.860327 0
M  V30 7514 C 683.061 0.726585 1.98202 0
M  V30 7515 O 682.409 -0.24999 2.27128 0
M  V30 7516 C 682.619 3.20571 1.37968 0
M  V30 7517 C 683.967 3.82988 1.83317 0
M  V30 7518 O 684.991 3.24156 1.47654 0
M  V30 7519 O 683.85 4.86393 2.49168 0
M  V30 7520 H 680.944 0.719153 0.408348 0
M  V30 7521 H 683.49 1.6937 0.105859 0
M  V30 7522 H 682.262 3.87056 0.57477 0
M  V30 7523 H 681.885 3.31392 2.19694 0
M  V30 7524 N 682.882 -0.391992 1.52647 0
M  V30 7525 C 684.131 -1.13449 1.6677 0
M  V30 7526 C 684.444 -1.91203 0.412399 0
M  V30 7527 O 685.65 -2.68013 0.433707 0
M  V30 7528 C 684.106 -2.06577 2.9471 0
M  V30 7529 C 683.714 -1.3426 4.27409 0
M  V30 7530 C 685.458 -2.80981 3.18198 0
M  V30 7531 C 683.365 -2.26136 5.46458 0
M  V30 7532 H 682.295 -0.427211 0.621295 0
M  V30 7533 H 684.946 -0.397522 1.79142 0
M  V30 7534 H 683.328 -2.83898 2.76076 0
M  V30 7535 H 684.502 -0.621856 4.56585 0
M  V30 7536 H 682.817 -0.718279 4.10158 0
M  V30 7537 H 685.414 -3.49898 4.04321 0
M  V30 7538 H 685.757 -3.44891 2.33144 0
M  V30 7539 H 686.29 -2.10754 3.37383 0
M  V30 7540 H 683.029 -1.66846 6.33911 0
M  V30 7541 H 682.549 -2.96134 5.21598 0
M  V30 7542 H 684.228 -2.86286 5.80215 0
M  V30 7543 N 684.36 -1.4356 -0.65026 0
M  V30 7544 C 685.606 -1.45549 -1.41221 0
M  V30 7545 C 685.939 -0.0805472 -1.94033 0
M  V30 7546 O 685.214 0.899043 -1.72475 0
M  V30 7547 C 685.497 -2.50028 -2.59148 0
M  V30 7548 C 685.35 -3.96808 -2.1181 0
M  V30 7549 C 686.669 -2.51212 -3.61359 0
M  V30 7550 H 683.788 -0.529967 -0.512156 0
M  V30 7551 H 686.43 -1.75127 -0.736933 0
M  V30 7552 H 684.58 -2.24937 -3.16758 0
M  V30 7553 H 686.252 -4.32966 -1.59178 0
M  V30 7554 H 684.495 -4.09498 -1.43156 0
M  V30 7555 H 685.166 -4.6553 -2.96625 0
M  V30 7556 H 687.642 -2.73583 -3.13515 0
M  V30 7557 H 686.518 -3.26252 -4.41419 0
M  V30 7558 H 686.779 -1.54701 -4.1415 0
M  V30 7559 N 685.838 0.888903 -1.30139 0
M  V30 7560 C 687.084 1.6428 -1.18912 0
M  V30 7561 C 687.417 1.92499 0.256477 0
M  V30 7562 O 686.692 1.54312 1.18397 0
M  V30 7563 C 686.975 2.9851 -2.01405 0
M  V30 7564 C 686.828 2.77288 -3.54163 0
M  V30 7565 C 688.147 3.99383 -1.84882 0
M  V30 7566 H 685.266 0.596148 -0.433333 0
M  V30 7567 H 687.908 1.0289 -1.5973 0
M  V30 7568 H 686.058 3.50907 -1.66722 0
M  V30 7569 H 687.73 2.31709 -3.98884 0
M  V30 7570 H 685.973 2.11867 -3.78543 0
M  V30 7571 H 686.644 3.72717 -4.07168 0
M  V30 7572 H 689.12 3.56132 -2.15196 0
M  V30 7573 H 687.996 4.91222 -2.44934 0
M  V30 7574 H 688.257 4.34674 -0.806902 0
M  V30 7575 N 687.317 1.12792 1.10072 0
M  V30 7576 C 688.227 0.812369 2.20086 0
M  V30 7577 C 689.243 -0.200349 1.72843 0
M  V30 7578 O 690.419 -0.0330262 2.01373 0
M  V30 7579 C 687.484 0.275685 3.45602 0
M  V30 7580 C 686.545 1.34881 4.07561 0
M  V30 7581 C 685.778 0.837639 5.27086 0
M  V30 7582 O 686.001 -0.327224 5.69461 0
M  V30 7583 O 684.935 1.60894 5.79997 0
M  V30 7584 H 688.761 1.73133 2.49517 0
M  V30 7585 H 686.346 0.904863 1.18881 0
M  V30 7586 H 688.228 -0.0185375 4.21396 0
M  V30 7587 H 686.903 -0.615783 3.17789 0
M  V30 7588 H 685.81 1.69625 3.33434 0
M  V30 7589 H 687.143 2.21418 4.39585 0
M  V30 7590 N 688.795 -1.27931 0.920396 0
M  V30 7591 C 689.742 -2.27085 0.412422 0
M  V30 7592 C 690.712 -1.57858 -0.516725 0
M  V30 7593 O 691.897 -1.85717 -0.437475 0
M  V30 7594 C 689.037 -3.43466 -0.335399 0
M  V30 7595 C 688.15 -4.27425 0.627017 0
M  V30 7596 C 687.285 -5.31016 -0.139916 0
M  V30 7597 C 686.324 -6.06641 0.815683 0
M  V30 7598 N 685.461 -7.02052 0.0818439 0
M  V30 7599 H 690.301 -2.69913 1.26298 0
M  V30 7600 H 687.838 -1.32732 0.634076 0
M  V30 7601 H 689.796 -4.09744 -0.785226 0
M  V30 7602 H 688.426 -3.01611 -1.15025 0
M  V30 7603 H 687.478 -3.6113 1.19537 0
M  V30 7604 H 688.79 -4.79969 1.35763 0
M  V30 7605 H 687.944 -6.03208 -0.649998 0
M  V30 7606 H 686.683 -4.79257 -0.903543 0
M  V30 7607 H 685.688 -5.33294 1.33708 0
M  V30 7608 H 686.913 -6.60489 1.57897 0
M  V30 7609 H 684.859 -6.52634 -0.663671 0
M  V30 7610 H 684.776 -7.52249 0.752163 0
M  V30 7611 H 686.044 -7.78432 -0.407825 0
M  V30 7612 N 690.273 -0.685099 -1.4193 0
M  V30 7613 C 691.221 -0.00165985 -2.326 0
M  V30 7614 C 692.215 0.779678 -1.50391 0
M  V30 7615 O 693.421 0.68648 -1.66395 0
M  V30 7616 H 689.796 0.0182616 -0.751778 0
M  V30 7617 H 691.767 -0.783592 -2.87928 0
M  V30 7618 C 690.516 0.928385 -3.35077 0
M  V30 7619 H 689.839 0.336578 -3.98381 0
M  V30 7620 H 691.279 1.37509 -4.01083 0
M  V30 7621 C 689.738 2.03964 -2.68142 0
M  V30 7622 O 690.268 3.12727 -2.5212 0
M  V30 7623 N 688.474 1.81433 -2.27003 0
M  V30 7624 H 688.021 0.929807 -2.40234 0
M  V30 7625 H 687.979 2.55973 -1.82552 0
M  V30 7626 N 691.751 1.51645 -0.429126 0
M  V30 7627 C 692.999 2.01616 0.139802 0
M  V30 7628 C 693.32 1.31568 1.43927 0
M  V30 7629 O 692.59 0.447688 1.90716 0
M  V30 7630 H 691.17 0.744998 0.054654 0
M  V30 7631 H 693.832 1.8638 -0.569952 0
M  V30 7632 H 692.928 3.10439 0.321609 0
M  V30 7633 N 693.229 0.160201 1.56784 0
M  V30 7634 C 694.139 -0.787167 2.21 0
M  V30 7635 C 695.155 -1.26167 1.19825 0
M  V30 7636 O 696.331 -1.31611 1.52448 0
M  V30 7637 C 693.396 -2.00364 2.8294 0
M  V30 7638 C 692.457 -1.5771 3.99282 0
M  V30 7639 C 691.69 -2.73558 4.58259 0
M  V30 7640 O 691.913 -3.90129 4.16119 0
M  V30 7641 O 690.847 -2.48271 5.48311 0
M  V30 7642 H 694.673 -0.270462 3.02493 0
M  V30 7643 H 692.258 -0.0674666 1.49248 0
M  V30 7644 H 694.14 -2.71529 3.22257 0
M  V30 7645 H 692.815 -2.50961 2.04451 0
M  V30 7646 H 691.722 -0.835274 3.64656 0
M  V30 7647 H 693.055 -1.11815 4.79331 0
M  V30 7648 N 694.707 -1.5719 -0.113559 0
M  V30 7649 C 695.655 -2.01725 -1.158 0
M  V30 7650 C 696.649 -0.915105 -1.42556 0
M  V30 7651 O 697.855 -1.10031 -1.42454 0
M  V30 7652 H 694.23 -0.64262 -0.390569 0
M  V30 7653 H 696.201 -2.88666 -0.755926 0
M  V30 7654 C 694.95 -2.44203 -2.47507 0
M  V30 7655 H 694.273 -3.28582 -2.27758 0
M  V30 7656 H 695.713 -2.79158 -3.19135 0
M  V30 7657 C 694.172 -1.30785 -3.10478 0
M  V30 7658 O 694.702 -0.626807 -3.9678 0
M  V30 7659 N 692.908 -1.06352 -2.7044 0
M  V30 7660 H 692.455 -1.61913 -2.00355 0
M  V30 7661 H 692.413 -0.306614 -3.12901 0
M  V30 7662 N 696.185 0.383891 -1.52853 0
M  V30 7663 C 697.118 1.49105 -1.72751 0
M  V30 7664 C 698.096 1.52077 -0.575438 0
M  V30 7665 O 699.28 1.70406 -0.805854 0
M  V30 7666 C 696.407 2.87551 -1.78975 0
M  V30 7667 C 695.453 3.02383 -3.00777 0
M  V30 7668 S 696.286 2.73048 -4.60657 0
M  V30 7669 C 697.442 4.13678 -4.69704 0
M  V30 7670 H 697.675 1.32002 -2.66388 0
M  V30 7671 H 695.208 0.577088 -1.4321 0
M  V30 7672 H 697.166 3.6733 -1.83246 0
M  V30 7673 H 695.827 3.01977 -0.864215 0
M  V30 7674 H 695.02 4.03733 -3.01688 0
M  V30 7675 H 694.622 2.30504 -2.94523 0
M  V30 7676 H 696.914 5.07676 -4.48633 0
M  V30 7677 H 697.857 4.1778 -5.71721 0
M  V30 7678 H 698.265 3.99825 -3.98497 0
M  V30 7679 N 697.663 1.43903 0.642637 0
M  V30 7680 C 698.911 1.45791 1.39962 0
M  V30 7681 C 699.232 0.0873144 1.94804 0
M  V30 7682 O 698.502 -0.878825 1.75081 0
M  V30 7683 H 697.082 0.536797 0.519479 0
M  V30 7684 H 699.744 1.7959 0.757189 0
M  V30 7685 H 698.84 2.17665 2.2367 0
M  V30 7686 N 699.141 -0.881989 1.30609 0
M  V30 7687 C 700.088 -1.98803 1.17244 0
M  V30 7688 C 701.058 -1.65987 0.0611905 0
M  V30 7689 O 702.243 -1.89385 0.231911 0
M  V30 7690 C 699.383 -3.33867 0.87333 0
M  V30 7691 C 698.496 -3.79354 2.06675 0
M  V30 7692 C 697.631 -5.03078 1.70547 0
M  V30 7693 C 696.67 -5.40981 2.86366 0
M  V30 7694 N 695.807 -6.55886 2.50514 0
M  V30 7695 H 700.647 -2.09566 2.11863 0
M  V30 7696 H 698.184 -1.02607 1.05405 0
M  V30 7697 H 700.142 -4.11612 0.680519 0
M  V30 7698 H 698.772 -3.2278 -0.0359983 0
M  V30 7699 H 697.824 -2.97492 2.37071 0
M  V30 7700 H 699.136 -4.03382 2.93401 0
M  V30 7701 H 698.29 -5.88457 1.47658 0
M  V30 7702 H 697.029 -4.80927 0.809947 0
M  V30 7703 H 696.034 -4.54127 3.09917 0
M  V30 7704 H 697.259 -5.65104 3.76609 0
M  V30 7705 H 695.205 -6.35306 1.63471 0
M  V30 7706 H 695.122 -6.79799 3.30771 0
M  V30 7707 H 696.39 -7.44489 2.30989 0
M  V30 7708 N 700.619 -1.13374 -1.09472 0
M  V30 7709 C 701.566 -0.810682 -2.16094 0
M  V30 7710 C 702.536 0.227003 -1.64541 0
M  V30 7711 O 703.721 0.0993538 -1.90541 0
M  V30 7712 C 700.861 -0.282336 -3.43943 0
M  V30 7713 C 699.974 -1.37902 -4.09398 0
M  V30 7714 C 699.109 -0.809066 -5.25002 0
M  V30 7715 C 698.148 -1.88419 -5.82379 0
M  V30 7716 N 697.285 -1.33221 -6.89345 0
M  V30 7717 H 702.125 -1.72397 -2.43071 0
M  V30 7718 H 699.662 -0.860564 -1.19301 0
M  V30 7719 H 701.62 0.0421189 -4.17179 0
M  V30 7720 H 700.25 0.594083 -3.17286 0
M  V30 7721 H 699.302 -1.82008 -3.34032 0
M  V30 7722 H 700.614 -2.19161 -4.48074 0
M  V30 7723 H 699.768 -0.435867 -6.05132 0
M  V30 7724 H 698.507 0.0346058 -4.87688 0
M  V30 7725 H 697.512 -2.26646 -5.00911 0
M  V30 7726 H 698.737 -2.73125 -6.21755 0
M  V30 7727 H 696.683 -0.510535 -6.5401 0
M  V30 7728 H 696.6 -2.08129 -7.26786 0
M  V30 7729 H 697.868 -0.986565 -7.73232 0
M  V30 7730 N 702.098 1.27442 -0.927168 0
M  V30 7731 C 703.375 1.89473 -0.485742 0
M  V30 7732 C 703.755 1.83922 1.03614 0
M  V30 7733 O 703.103 1.28409 1.89007 0
M  V30 7734 C 703.313 3.33417 -1.03123 0
M  V30 7735 C 704.661 4.10333 -1.0914 0
M  V30 7736 O 705.685 3.4243 -0.98082 0
M  V30 7737 O 704.544 5.31737 -1.26165 0
M  V30 7738 H 701.638 0.812124 -0.156154 0
M  V30 7739 H 704.184 1.35713 -1.01882 0
M  V30 7740 H 702.956 3.31747 -2.07508 0
M  V30 7741 H 702.579 3.94695 -0.479767 0
M  V30 7742 N 703.576 0.692616 1.41565 0
M  V30 7743 C 704.523 0.0254264 2.30786 0
M  V30 7744 C 705.493 -0.774347 1.46946 0
M  V30 7745 O 706.678 -0.742981 1.7574 0
M  V30 7746 C 703.818 -0.907123 3.32964 0
M  V30 7747 C 702.931 -0.0992784 4.31886 0
M  V30 7748 C 702.066 -1.0292 5.21134 0
M  V30 7749 C 701.105 -0.214088 6.11725 0
M  V30 7750 N 700.242 -1.09766 6.93467 0
M  V30 7751 H 705.082 0.792036 2.87282 0
M  V30 7752 H 702.619 0.4023 1.41492 0
M  V30 7753 H 704.577 -1.46181 3.90752 0
M  V30 7754 H 703.207 -1.64016 2.78026 0
M  V30 7755 H 702.259 0.572287 3.76071 0
M  V30 7756 H 703.571 0.532782 4.95946 0
M  V30 7757 H 702.725 -1.65321 5.83741 0
M  V30 7758 H 701.464 -1.69512 4.57293 0
M  V30 7759 H 700.469 0.42302 5.4817 0
M  V30 7760 H 701.694 0.447995 6.77621 0
M  V30 7761 H 699.64 -1.74965 6.32237 0
M  V30 7762 H 699.557 -0.521099 7.54202 0
M  V30 7763 H 700.825 -1.70858 7.60544 0
M  V30 7764 N 705.054 -1.51416 0.437162 0
M  V30 7765 C 706.3 -2.02386 -0.129555 0
M  V30 7766 C 706.633 -1.32071 -1.42376 0
M  V30 7767 O 705.908 -0.43559 -1.8956 0
M  V30 7768 C 706.191 -3.5841 -0.348487 0
M  V30 7769 C 706.044 -4.39341 0.964352 0
M  V30 7770 C 707.363 -4.25654 -1.11834 0
M  V30 7771 H 704.482 -0.735587 -0.0456109 0
M  V30 7772 H 707.124 -1.81055 0.576124 0
M  V30 7773 H 705.274 -3.76716 -0.949592 0
M  V30 7774 H 706.946 -4.32685 1.59942 0
M  V30 7775 H 705.189 -4.04432 1.56898 0
M  V30 7776 H 705.86 -5.4667 0.765212 0
M  V30 7777 H 708.336 -4.11617 -0.609165 0
M  V30 7778 H 707.212 -5.34704 -1.24029 0
M  V30 7779 H 707.473 -3.86502 -2.14636 0
M  V30 7780 N 706.532 -0.168513 -1.56696 0
M  V30 7781 C 707.464 0.794249 -2.14998 0
M  V30 7782 C 708.477 1.1957 -1.10485 0
M  V30 7783 O 709.666 1.13604 -1.37682 0
M  V30 7784 C 706.766 2.08018 -2.67547 0
M  V30 7785 C 705.939 1.84274 -3.96689 0
M  V30 7786 C 704.998 2.97059 -4.3433 0
M  V30 7787 O 704.024 2.67815 -5.02259 0
M  V30 7788 N 705.226 4.24775 -3.9566 0
M  V30 7789 H 707.991 0.295832 -2.98236 0
M  V30 7790 H 705.552 0.0143611 -1.61894 0
M  V30 7791 H 707.544 2.82559 -2.89729 0
M  V30 7792 H 706.114 2.49059 -1.88914 0
M  V30 7793 H 705.334 0.936528 -3.82914 0
M  V30 7794 H 706.622 1.65773 -4.81037 0
M  V30 7795 H 706.02 4.51395 -3.40968 0
M  V30 7796 H 704.577 4.96027 -4.22848 0
M  V30 7797 N 708.01 1.57248 0.105221 0
M  V30 7798 C 709.287 1.76566 0.841647 0
M  V30 7799 C 709.667 0.747566 1.9742 0
M  V30 7800 O 709.015 -0.225886 2.27381 0
M  V30 7801 C 709.225 3.22016 1.3456 0
M  V30 7802 C 710.573 3.84911 1.79244 0
M  V30 7803 O 711.597 3.25703 1.44207 0
M  V30 7804 O 710.456 4.89008 2.43995 0
M  V30 7805 H 707.55 0.723443 0.400698 0
M  V30 7806 H 710.096 1.69472 0.0878893 0
M  V30 7807 H 708.868 3.87644 0.533685 0
M  V30 7808 H 708.491 3.33703 2.16167 0
M  V30 7809 N 709.488 -0.375779 1.53054 0
M  V30 7810 C 710.436 -1.48015 1.79428 0
M  V30 7811 C 711.43 -1.55893 0.662854 0
M  V30 7812 O 712.636 -1.58901 0.845599 0
M  V30 7813 H 709.011 -0.492887 0.56795 0
M  V30 7814 H 710.982 -1.22971 2.71884 0
M  V30 7815 C 709.731 -2.84984 1.99197 0
M  V30 7816 H 709.054 -2.79677 2.85693 0
M  V30 7817 H 710.494 -3.61462 2.21633 0
M  V30 7818 C 708.953 -3.28025 0.768183 0
M  V30 7819 O 709.483 -4.01671 -0.0480482 0
M  V30 7820 N 707.689 -2.84454 0.594521 0
M  V30 7821 H 707.236 -2.24688 1.25988 0
M  V30 7822 H 707.194 -3.13609 -0.222916 0
M  V30 7823 N 710.966 -1.44241 -0.634997 0
M  V30 7824 C 711.916 -1.47247 -1.74076 0
M  V30 7825 C 712.9 -0.338708 -1.57295 0
M  V30 7826 O 714.092 -0.583751 -1.67097 0
M  V30 7827 C 711.221 -1.41579 -3.12746 0
M  V30 7828 C 710.307 -2.60055 -3.35011 0
M  V30 7829 N 710.698 -3.85321 -3.27661 0
M  V30 7830 C 708.996 -2.55168 -3.65794 0
M  V30 7831 C 709.697 -4.64241 -3.50508 0
M  V30 7832 N 708.673 -3.95254 -3.73196 0
M  V30 7833 H 712.475 -2.4195 -1.66845 0
M  V30 7834 H 709.989 -1.3915 -0.837326 0
M  V30 7835 H 711.986 -1.41816 -3.92038 0
M  V30 7836 H 710.646 -0.479108 -3.21146 0
M  V30 7837 H 711.657 -4.17345 -3.06665 0
M  V30 7838 H 708.334 -1.70276 -3.81198 0
M  V30 7839 H 709.724 -5.73267 -3.50449 0
M  V30 7840 N 712.444 0.87505 -1.31075 0
M  V30 7841 C 713.374 1.99775 -1.20881 0
M  V30 7842 C 714.355 1.69822 -0.0971612 0
M  V30 7843 O 715.54 1.92158 -0.280895 0
M  V30 7844 C 712.67 3.35163 -0.910118 0
M  V30 7845 C 711.624 3.79406 -1.98078 0
M  V30 7846 C 710.95 5.12197 -1.53488 0
M  V30 7847 C 712.25 3.97061 -3.39323 0
M  V30 7848 H 713.944 2.08562 -2.14808 0
M  V30 7849 H 711.49 1.00207 -1.03415 0
M  V30 7850 H 713.443 4.13237 -0.825423 0
M  V30 7851 H 712.167 3.26536 0.064822 0
M  V30 7852 H 710.826 3.03568 -2.05528 0
M  V30 7853 H 710.474 5.00007 -0.547941 0
M  V30 7854 H 710.174 5.4277 -2.2511 0
M  V30 7855 H 711.698 5.92785 -1.46417 0
M  V30 7856 H 713.112 4.65545 -3.34576 0
M  V30 7857 H 711.509 4.39025 -4.09118 0
M  V30 7858 H 712.579 3.00601 -3.80483 0
M  V30 7859 N 713.922 1.13953 1.08869 0
M  V30 7860 C 715.147 0.928559 1.85452 0
M  V30 7861 C 715.572 -0.517642 1.80837 0
M  V30 7862 O 714.93 -1.36779 1.19001 0
M  V30 7863 C 714.978 1.42814 3.31114 0
M  V30 7864 O 714.082 0.617129 4.07756 0
M  V30 7865 H 713.423 0.33235 0.574839 0
M  V30 7866 H 715.953 1.5156 1.37443 0
M  V30 7867 H 715.963 1.43425 3.8196 0
M  V30 7868 H 714.638 2.48109 3.33788 0
M  V30 7869 H 713.215 0.679365 3.66659 0
M  V30 7870 N 715.4 -1.26948 0.933913 0
M  V30 7871 C 716.811 -1.76058 0.621324 0
M  V30 7872 C 717.162 -1.76175 -0.863522 0
M  V30 7873 O 716.287 -1.36921 -1.67576 0
M  V30 7874 C 716.882 -3.19713 1.12111 0
M  V30 7875 C 715.441 -3.66465 0.859074 0
M  V30 7876 C 714.588 -2.46186 1.27624 0
M  V30 7877 H 717.539 -1.13127 1.11301 0
M  V30 7878 H 717.56 -3.77566 0.471608 0
M  V30 7879 H 717.072 -3.19596 2.20182 0
M  V30 7880 H 715.173 -3.72021 -0.207566 0
M  V30 7881 H 715.286 -4.55636 1.48098 0
M  V30 7882 H 713.65 -2.45042 0.694727 0
M  V30 7883 H 714.433 -2.48774 2.36572 0
M  V30 7884 N 716.879 -0.700114 -1.41195 0
M  V30 7885 C 717.827 -0.0263301 -2.32585 0
M  V30 7886 C 718.821 0.763683 -1.51209 0
M  V30 7887 O 720.027 0.668793 -1.67114 0
M  V30 7888 H 716.402 0.0102869 -0.75193 0
M  V30 7889 H 718.373 -0.814087 -2.8708 0
M  V30 7890 C 717.122 0.892793 -3.36042 0
M  V30 7891 H 716.445 0.294306 -3.98715 0
M  V30 7892 H 717.885 1.33247 -4.02518 0
M  V30 7893 C 716.344 2.01109 -2.7029 0
M  V30 7894 O 716.874 3.10035 -2.55423 0
M  V30 7895 N 715.08 1.79015 -2.28915 0
M  V30 7896 H 714.627 0.904275 -2.41207 0
M  V30 7897 H 714.585 2.54022 -1.85257 0
M  V30 7898 N 718.357 1.51182 -0.445186 0
M  V30 7899 C 719.304 2.27939 0.362291 0
M  V30 7900 C 720.274 1.31864 1.01 0
M  V30 7901 O 721.459 1.60776 1.02741 0
M  V30 7902 C 718.599 3.13016 1.45311 0
M  V30 7903 C 717.712 4.24093 0.822757 0
M  V30 7904 C 716.847 4.96467 1.88928 0
M  V30 7905 C 715.886 5.99454 1.23778 0
M  V30 7906 N 715.023 6.65206 2.24602 0
M  V30 7907 H 719.863 2.965 -0.29862 0
M  V30 7908 H 717.4 1.46237 -0.15911 0
M  V30 7909 H 719.358 3.60673 2.09692 0
M  V30 7910 H 717.988 2.46553 2.08354 0
M  V30 7911 H 717.04 3.80341 0.0670364 0
M  V30 7912 H 718.352 4.97853 0.307184 0
M  V30 7913 H 717.506 5.47712 2.60953 0
M  V30 7914 H 716.245 4.22355 2.4386 0
M  V30 7915 H 715.25 5.47494 0.503042 0
M  V30 7916 H 716.475 6.75527 0.695694 0
M  V30 7917 H 714.421 5.93901 2.78599 0
M  V30 7918 H 714.338 7.34756 1.77958 0
M  V30 7919 H 715.606 7.21078 2.96085 0
M  V30 7920 N 719.835 0.176821 1.56605 0
M  V30 7921 C 721.081 -0.460868 1.9811 0
M  V30 7922 C 721.436 -1.60488 1.06119 0
M  V30 7923 O 720.729 -1.91329 0.101939 0
M  V30 7924 C 720.923 -0.986208 3.43524 0
M  V30 7925 C 720.752 0.105368 4.49577 0
M  V30 7926 C 719.522 0.556883 5.02222 0
M  V30 7927 C 721.72 0.907756 5.06226 0
M  V30 7928 N 719.702 1.62819 5.91915 0
M  V30 7929 C 721.073 1.82887 5.92412 0
M  V30 7930 C 723.128 0.952221 4.8871 0
M  V30 7931 C 721.831 2.7907 6.62957 0
M  V30 7932 C 723.857 1.90202 5.5998 0
M  V30 7933 C 723.219 2.8106 6.45898 0
M  V30 7934 H 719.318 -0.136589 0.769979 0
M  V30 7935 H 721.902 0.278307 1.92701 0
M  V30 7936 H 720.073 -1.69489 3.49468 0
M  V30 7937 H 721.805 -1.59298 3.7203 0
M  V30 7938 H 718.56 0.153575 4.73351 0
M  V30 7939 H 718.984 2.1645 6.41466 0
M  V30 7940 H 723.626 0.263794 4.21976 0
M  V30 7941 H 721.344 3.48898 7.28901 0
M  V30 7942 H 724.93 1.9426 5.48411 0
M  V30 7943 H 723.81 3.53357 7.00077 0
M  V30 7944 N 721.313 -1.57302 -0.09688 0
M  V30 7945 C 722.26 -2.01933 -1.11766 0
M  V30 7946 C 723.23 -0.895329 -1.39904 0
M  V30 7947 O 724.415 -1.16119 -1.51397 0
M  V30 7948 C 721.555 -2.44726 -2.43317 0
M  V30 7949 C 720.668 -3.70639 -2.21925 0
M  V30 7950 C 719.803 -4.02318 -3.46862 0
M  V30 7951 C 718.842 -5.21346 -3.20725 0
M  V30 7952 N 717.979 -5.48787 -4.37924 0
M  V30 7953 H 722.819 -2.88919 -0.730075 0
M  V30 7954 H 720.356 -1.42901 -0.348962 0
M  V30 7955 H 722.314 -2.6758 -3.20088 0
M  V30 7956 H 720.944 -1.60753 -2.79926 0
M  V30 7957 H 719.996 -3.55271 -1.35965 0
M  V30 7958 H 721.308 -4.57557 -1.98603 0
M  V30 7959 H 720.462 -4.25939 -4.32042 0
M  V30 7960 H 719.201 -3.13918 -3.73238 0
M  V30 7961 H 718.206 -4.97547 -2.33938 0
M  V30 7962 H 719.431 -6.11343 -2.95697 0
M  V30 7963 H 717.377 -4.63346 -4.64378 0
M  V30 7964 H 717.294 -6.30073 -4.17785 0
M  V30 7965 H 718.562 -5.76943 -5.24173 0
M  V30 7966 N 722.791 0.367657 -1.53252 0
M  V30 7967 C 724.037 1.10864 -1.70531 0
M  V30 7968 C 724.392 1.87051 -0.4505 0
M  V30 7969 O 723.685 1.83342 0.556431 0
M  V30 7970 C 723.879 2.09825 -2.89324 0
M  V30 7971 C 723.708 1.43361 -4.26237 0
M  V30 7972 C 722.478 1.18861 -4.91121 0
M  V30 7973 C 724.676 0.872409 -5.06847 0
M  V30 7974 N 722.658 0.487258 -6.11963 0
M  V30 7975 C 724.029 0.300301 -6.19272 0
M  V30 7976 C 726.084 0.770895 -4.91896 0
M  V30 7977 C 724.787 -0.363419 -7.18381 0
M  V30 7978 C 726.813 0.12096 -5.91276 0
M  V30 7979 C 726.175 -0.440283 -7.03023 0
M  V30 7980 H 722.274 0.390902 -0.677288 0
M  V30 7981 H 724.858 0.395305 -1.90645 0
M  V30 7982 H 723.029 2.78473 -2.70753 0
M  V30 7983 H 724.761 2.76585 -2.95436 0
M  V30 7984 H 721.516 1.46934 -4.5023 0
M  V30 7985 H 721.94 0.152005 -6.76829 0
M  V30 7986 H 726.582 1.19058 -4.05691 0
M  V30 7987 H 724.3 -0.795057 -8.04179 0
M  V30 7988 H 727.886 0.0433702 -5.81784 0
M  V30 7989 H 726.766 -0.935244 -7.78603 0
M  V30 7990 N 724.269 1.44576 0.627338 0
M  V30 7991 C 725.497 1.51048 1.41394 0
M  V30 7992 C 725.912 0.136568 1.88305 0
M  V30 7993 O 725.269 -0.858251 1.6106 0
M  V30 7994 C 725.32 2.47837 2.63172 0
M  V30 7995 O 725.041 3.79887 2.18215 0
M  V30 7996 C 726.542 2.63811 3.56257 0
M  V30 7997 H 723.762 0.512171 0.4335 0
M  V30 7998 H 726.306 1.89576 0.766878 0
M  V30 7999 H 724.461 2.12433 3.23961 0
M  V30 8000 H 724.875 4.32177 2.97192 0
M  V30 8001 H 726.349 3.35554 4.38301 0
M  V30 8002 H 726.826 1.69169 4.05313 0
M  V30 8003 H 727.432 3.0013 3.01333 0
M  V30 8004 N 725.747 -0.868086 1.31537 0
M  V30 8005 C 726.694 -1.97548 1.19346 0
M  V30 8006 C 727.664 -1.65913 0.0787922 0
M  V30 8007 O 728.849 -1.89129 0.251985 0
M  V30 8008 C 725.989 -3.32922 0.908692 0
M  V30 8009 C 725.102 -3.77141 2.10687 0
M  V30 8010 C 724.237 -5.01241 1.75873 0
M  V30 8011 C 723.276 -5.37914 2.92088 0
M  V30 8012 N 722.413 -6.53192 2.57457 0
M  V30 8013 H 727.253 -2.07307 2.14074 0
M  V30 8014 H 724.79 -1.01483 1.06487 0
M  V30 8015 H 726.748 -4.10867 0.724138 0
M  V30 8016 H 725.378 -3.228 -0.0017611 0
M  V30 8017 H 724.43 -2.94961 2.40213 0
M  V30 8018 H 725.742 -4.00248 2.97663 0
M  V30 8019 H 724.896 -5.86858 1.53891 0
M  V30 8020 H 723.635 -4.80041 0.86091 0
M  V30 8021 H 722.64 -4.50814 3.14717 0
M  V30 8022 H 723.865 -5.61077 3.82582 0
M  V30 8023 H 721.811 -6.33536 1.702 0
M  V30 8024 H 721.728 -6.76252 3.37963 0
M  V30 8025 H 722.996 -7.41997 2.38873 0
M  V30 8026 N 727.225 -1.14528 -1.08264 0
M  V30 8027 C 728.641 -0.885976 -1.3275 0
M  V30 8028 C 728.841 0.472096 -1.95892 0
M  V30 8029 O 727.897 1.21606 -2.21288 0
M  V30 8030 C 729.21 -2.01982 -2.22764 0
M  V30 8031 C 730.758 -2.05329 -2.36239 0
M  V30 8032 C 731.233 -3.1801 -3.29596 0
M  V30 8033 N 732.724 -3.17598 -3.37173 0
M  V30 8034 C 733.459 -4.01426 -4.09444 0
M  V30 8035 N 732.955 -4.95297 -4.8441 0
M  V30 8036 N 734.748 -3.89482 -4.0529 0
M  V30 8037 H 726.899 -2.01996 -0.656607 0
M  V30 8038 H 729.162 -0.880274 -0.351884 0
M  V30 8039 H 728.868 -2.99964 -1.83615 0
M  V30 8040 H 728.742 -1.94421 -3.23234 0
M  V30 8041 H 731.129 -1.07953 -2.74646 0
M  V30 8042 H 731.21 -2.1696 -1.35506 0
M  V30 8043 H 730.854 -4.15633 -2.9191 0
M  V30 8044 H 730.784 -3.03616 -4.30261 0
M  V30 8045 H 733.275 -2.4961 -2.83731 0
M  V30 8046 H 733.588 -5.55723 -5.37021 0
M  V30 8047 H 731.933 -4.99293 -4.83457 0
M  V30 8048 H 735.124 -3.15465 -3.45832 0
M  V30 8049 H 735.297 -4.55039 -4.6135 0
M  V30 8050 N 728.703 1.26451 -0.940633 0
M  V30 8051 C 729.931 1.97868 -0.604642 0
M  V30 8052 C 730.346 1.70051 0.820251 0
M  V30 8053 O 729.703 0.96843 1.54686 0
M  V30 8054 C 729.754 3.51684 -0.836689 0
M  V30 8055 O 729.475 3.78533 -2.20554 0
M  V30 8056 C 730.976 4.40343 -0.511169 0
M  V30 8057 H 728.196 0.631105 -0.227919 0
M  V30 8058 H 730.74 1.60979 -1.26119 0
M  V30 8059 H 728.895 3.86736 -0.226759 0
M  V30 8060 H 729.309 4.73065 -2.26517 0
M  V30 8061 H 730.783 5.47229 -0.724157 0
M  V30 8062 H 731.26 4.35694 0.553815 0
M  V30 8063 H 731.866 4.10834 -1.0998 0
M  V30 8064 N 730.181 0.707592 1.40822 0
M  V30 8065 C 731.111 0.0644925 2.33411 0
M  V30 8066 C 732.092 -0.754205 1.52466 0
M  V30 8067 O 733.277 -0.704749 1.80961 0
M  V30 8068 C 730.407 -0.863865 3.36385 0
M  V30 8069 C 729.361 -0.15138 4.27732 0
M  V30 8070 C 728.687 -1.19491 5.21177 0
M  V30 8071 C 729.987 0.989607 5.12839 0
M  V30 8072 H 731.681 0.837829 2.87438 0
M  V30 8073 H 729.227 0.404346 1.38207 0
M  V30 8074 H 731.18 -1.32309 4.0009 0
M  V30 8075 H 729.904 -1.66901 2.80734 0
M  V30 8076 H 728.563 0.287937 3.65467 0
M  V30 8077 H 728.211 -1.9929 4.61836 0
M  V30 8078 H 727.911 -0.723123 5.83134 0
M  V30 8079 H 729.435 -1.6544 5.8776 0
M  V30 8080 H 730.849 0.610114 5.70044 0
M  V30 8081 H 729.246 1.38926 5.83798 0
M  V30 8082 H 730.316 1.82389 4.49291 0
M  V30 8083 N 731.66 -1.50943 0.453197 0
M  V30 8084 C 732.885 -2.07116 -0.108463 0
M  V30 8085 C 733.31 -1.31681 -1.3432 0
M  V30 8086 O 732.668 -0.359256 -1.77705 0
M  V30 8087 C 732.716 -3.58447 -0.393424 0
M  V30 8088 O 731.82 -3.85038 -1.47714 0
M  V30 8089 H 731.161 -0.66398 0.0050993 0
M  V30 8090 H 733.691 -1.94362 0.639095 0
M  V30 8091 H 733.701 -4.02961 -0.639222 0
M  V30 8092 H 732.376 -4.12774 0.508946 0
M  V30 8093 H 730.953 -3.52376 -1.22006 0
M  V30 8094 N 733.138 -0.185124 -1.56509 0
M  V30 8095 C 734.048 0.751908 -2.22224 0
M  V30 8096 C 735.064 1.24244 -1.21817 0
M  V30 8097 O 736.24 1.29169 -1.54523 0
M  V30 8098 C 733.305 1.95837 -2.86092 0
M  V30 8099 C 732.366 1.51337 -4.01741 0
M  V30 8100 C 731.599 2.66233 -4.62554 0
M  V30 8101 O 731.822 3.8346 -4.22273 0
M  V30 8102 O 730.756 2.39517 -5.52191 0
M  V30 8103 H 734.582 0.222304 -3.02885 0
M  V30 8104 H 732.167 0.0437141 -1.49336 0
M  V30 8105 H 734.049 2.66368 -3.26536 0
M  V30 8106 H 732.724 2.47677 -2.08417 0
M  V30 8107 H 731.631 0.777155 -3.65939 0
M  V30 8108 H 732.964 1.04175 -4.81049 0
M  V30 8109 N 734.616 1.57351 0.0885366 0
M  V30 8110 C 735.844 1.90631 0.804196 0
M  V30 8111 C 736.259 0.779474 1.71958 0
M  V30 8112 O 735.616 -0.248179 1.80805 0
M  V30 8113 C 735.667 3.23568 1.61202 0
M  V30 8114 O 735.388 4.31917 0.733447 0
M  V30 8115 C 736.889 3.70753 2.43016 0
M  V30 8116 H 734.109 0.630501 0.229585 0
M  V30 8117 H 736.653 2.044 0.0638092 0
M  V30 8118 H 734.808 3.11377 2.30485 0
M  V30 8119 H 735.222 5.08297 1.29361 0
M  V30 8120 H 736.696 4.66447 2.9518 0
M  V30 8121 H 737.173 2.98922 3.2178 0
M  V30 8122 H 737.779 3.85834 1.7892 0
M  V30 8123 N 736.094 -0.359525 1.53444 0
M  V30 8124 C 737.319 -1.12644 1.74144 0
M  V30 8125 C 737.744 -1.82082 0.472007 0
M  V30 8126 O 737.102 -1.71962 -0.57436 0
M  V30 8127 C 737.15 -2.12781 2.9113 0
M  V30 8128 O 736.254 -3.19984 2.60162 0
M  V30 8129 H 735.595 -0.326553 0.578152 0
M  V30 8130 H 738.125 -0.414798 2.00351 0
M  V30 8131 H 738.135 -2.56278 3.17467 0
M  V30 8132 H 736.81 -1.61634 3.83207 0
M  V30 8133 H 735.387 -2.81417 2.44661 0
M  V30 8134 N 737.572 -1.44907 -0.619662 0
M  V30 8135 C 738.797 -1.52021 -1.41083 0
M  V30 8136 C 739.222 -0.14976 -1.87503 0
M  V30 8137 O 738.58 0.863303 -1.59426 0
M  V30 8138 C 738.628 -2.49911 -2.59955 0
M  V30 8139 O 737.732 -2.00857 -3.60181 0
M  V30 8140 H 737.073 -0.512912 -0.421684 0
M  V30 8141 H 739.603 -1.90149 -0.755282 0
M  V30 8142 H 739.613 -2.68323 -3.07354 0
M  V30 8143 H 738.288 -3.4945 -2.25516 0
M  V30 8144 H 736.865 -1.92265 -3.19513 0
M  V30 8145 N 739.05 0.861098 -1.31996 0
M  V30 8146 C 740.275 1.65264 -1.2531 0
M  V30 8147 C 740.7 1.87265 0.177007 0
M  V30 8148 O 740.058 1.4208 1.12619 0
M  V30 8149 C 740.106 2.99284 -2.0115 0
M  V30 8150 O 739.21 3.89508 -1.3549 0
M  V30 8151 H 738.551 0.50409 -0.432192 0
M  V30 8152 H 741.081 1.07297 -1.74208 0
M  V30 8153 H 741.091 3.49154 -2.11081 0
M  V30 8154 H 739.766 2.82591 -3.05148 0
M  V30 8155 H 738.343 3.47966 -1.34066 0
M  V30 8156 N 740.528 1.15101 1.07655 0
M  V30 8157 C 741.475 0.844958 2.14777 0
M  V30 8158 C 742.445 -0.200798 1.64882 0
M  V30 8159 O 743.63 -0.0690278 1.90675 0
M  V30 8160 C 740.77 0.337018 3.4345 0
M  V30 8161 C 739.883 1.44398 4.07153 0
M  V30 8162 C 739.018 0.892487 5.23649 0
M  V30 8163 C 738.057 1.9766 5.79307 0
M  V30 8164 N 737.194 1.44171 6.87138 0
M  V30 8165 H 742.034 1.76242 2.40297 0
M  V30 8166 H 739.571 0.879435 1.17917 0
M  V30 8167 H 741.529 0.024256 4.17193 0
M  V30 8168 H 740.159 -0.543531 3.18191 0
M  V30 8169 H 739.211 1.87299 3.31094 0
M  V30 8170 H 740.523 2.26262 4.4453 0
M  V30 8171 H 739.677 0.532083 6.04362 0
M  V30 8172 H 738.416 0.0429854 4.87681 0
M  V30 8173 H 737.421 2.34586 4.97242 0
M  V30 8174 H 738.646 2.82982 6.17331 0
M  V30 8175 H 736.592 0.614518 6.53115 0
M  V30 8176 H 736.509 2.19665 7.23383 0
M  V30 8177 H 737.777 1.10945 7.71564 0
M  V30 8178 N 742.006 -1.2595 0.947325 0
M  V30 8179 C 743.231 -1.98083 0.614633 0
M  V30 8180 C 743.656 -1.70013 -0.804815 0
M  V30 8181 O 743.014 -0.95175 -1.54309 0
M  V30 8182 C 743.062 -3.4993 0.870706 0
M  V30 8183 O 742.166 -4.12364 -0.0541451 0
M  V30 8184 H 741.507 -0.621232 0.234451 0
M  V30 8185 H 744.037 -1.60259 1.27193 0
M  V30 8186 H 744.047 -4.00198 0.794051 0
M  V30 8187 H 742.722 -3.69691 1.90529 0
M  V30 8188 H 741.299 -3.72826 0.0740917 0
M  V30 8189 N 743.484 -0.715051 -1.40445 0
M  V30 8190 C 744.731 -0.254328 -2.00897 0
M  V30 8191 C 745.059 1.15228 -1.56693 0
M  V30 8192 O 744.314 1.7958 -0.777786 0
M  V30 8193 C 744.613 -0.281791 -3.56287 0
M  V30 8194 C 744.279 -1.63862 -4.20071 0
M  V30 8195 C 742.941 -2.01003 -4.37208 0
M  V30 8196 C 745.293 -2.53039 -4.55654 0
M  V30 8197 C 742.621 -3.26869 -4.8721 0
M  V30 8198 C 744.973 -3.78256 -5.07055 0
M  V30 8199 C 743.637 -4.15515 -5.22401 0
M  V30 8200 H 742.907 -0.0930652 -0.735133 0
M  V30 8201 H 745.554 -0.917977 -1.68064 0
M  V30 8202 H 743.859 0.465428 -3.89026 0
M  V30 8203 H 745.556 0.0925158 -4.00893 0
M  V30 8204 H 742.146 -1.33979 -4.07121 0
M  V30 8205 H 746.33 -2.2562 -4.42051 0
M  V30 8206 H 741.586 -3.55706 -4.97276 0
M  V30 8207 H 745.76 -4.47528 -5.33565 0
M  V30 8208 H 743.387 -5.13114 -5.60909 0
M  V30 8209 N 744.962 1.50701 -0.461195 0
M  V30 8210 C 745.872 2.32069 0.343661 0
M  V30 8211 C 746.888 1.42016 1.00535 0
M  V30 8212 O 748.064 1.75077 0.995498 0
M  V30 8213 C 745.129 3.16424 1.41692 0
M  V30 8214 C 744.19 4.22286 0.772869 0
M  V30 8215 C 743.423 5.02609 1.79499 0
M  V30 8216 O 743.646 4.83874 3.0203 0
M  V30 8217 O 742.58 5.86047 1.3723 0
M  V30 8218 H 746.406 3.01996 -0.321268 0
M  V30 8219 H 743.991 1.47723 -0.223235 0
M  V30 8220 H 745.873 3.68795 2.03883 0
M  V30 8221 H 744.548 2.49236 2.0655 0
M  V30 8222 H 743.455 3.73931 0.112277 0
M  V30 8223 H 744.788 4.91915 0.167399 0
M  V30 8224 N 746.441 0.193421 1.56409 0
M  V30 8225 C 747.669 -0.451438 2.01915 0
M  V30 8226 C 748.084 -1.55306 1.07357 0
M  V30 8227 O 747.441 -1.82333 0.0781512 0
M  V30 8228 C 747.492 -1.00931 3.47124 0
M  V30 8229 O 747.213 0.0483623 4.38073 0
M  V30 8230 C 748.714 -1.73021 4.0814 0
M  V30 8231 H 745.934 -0.113495 0.661332 0
M  V30 8232 H 748.478 0.301636 2.02263 0
M  V30 8233 H 746.633 -1.71277 3.47481 0
M  V30 8234 H 747.047 -0.366644 5.23217 0
M  V30 8235 H 748.521 -2.07289 5.11601 0
M  V30 8236 H 748.998 -2.6333 3.51502 0
M  V30 8237 H 749.604 -1.07264 4.11551 0
M  V30 8238 N 747.919 -1.57396 -0.0801906 0
M  V30 8239 C 748.866 -2.03107 -1.09618 0
M  V30 8240 C 749.836 -0.910118 -1.38946 0
M  V30 8241 O 751.021 -1.17719 -1.50156 0
M  V30 8242 C 748.161 -2.47293 -2.40708 0
M  V30 8243 C 747.274 -3.72972 -2.17982 0
M  V30 8244 C 746.409 -4.05975 -3.42576 0
M  V30 8245 C 745.448 -5.24719 -3.15177 0
M  V30 8246 N 744.585 -5.53401 -4.32078 0
M  V30 8247 H 749.425 -2.89677 -0.69939 0
M  V30 8248 H 746.962 -1.43263 -0.333785 0
M  V30 8249 H 748.92 -2.7096 -3.17232 0
M  V30 8250 H 747.55 -1.63713 -2.78205 0
M  V30 8251 H 746.602 -3.56693 -1.32189 0
M  V30 8252 H 747.914 -4.59638 -1.93738 0
M  V30 8253 H 747.068 -4.30498 -4.275 0
M  V30 8254 H 745.807 -3.17859 -3.69887 0
M  V30 8255 H 744.812 -5 -2.28648 0
M  V30 8256 H 746.037 -6.14445 -2.89197 0
M  V30 8257 H 743.983 -4.68245 -4.59437 0
M  V30 8258 H 743.9 -6.34469 -4.11078 0
M  V30 8259 H 745.168 -5.8247 -5.18024 0
M  V30 8260 N 749.397 0.351382 -1.53633 0
M  V30 8261 C 750.307 1.45471 -1.84052 0
M  V30 8262 C 751.323 1.57945 -0.730015 0
M  V30 8263 O 752.499 1.73571 -1.02153 0
M  V30 8264 C 749.564 2.80562 -2.03681 0
M  V30 8265 C 748.625 2.77497 -3.27558 0
M  V30 8266 C 747.858 4.06144 -3.46241 0
M  V30 8267 O 748.081 5.03028 -2.68922 0
M  V30 8268 O 747.015 4.11092 -4.39645 0
M  V30 8269 H 750.841 1.22684 -2.77817 0
M  V30 8270 H 748.426 0.542827 -1.3919 0
M  V30 8271 H 750.308 3.6058 -2.18082 0
M  V30 8272 H 748.983 3.03296 -1.13106 0
M  V30 8273 H 747.89 1.96126 -3.18568 0
M  V30 8274 H 749.223 2.59716 -4.18101 0
M  V30 8275 N 750.875 1.45233 0.611969 0
M  V30 8276 C 751.807 1.49575 1.73666 0
M  V30 8277 C 752.82 0.386987 1.58134 0
M  V30 8278 O 754.009 0.653804 1.66095 0
M  V30 8279 C 751.109 1.33223 3.11617 0
M  V30 8280 C 750.282 2.57694 3.5343 0
M  V30 8281 C 749.341 2.35962 4.70328 0
M  V30 8282 O 748.367 3.09553 4.77667 0
M  V30 8283 N 749.569 1.40243 5.63305 0
M  V30 8284 H 752.334 2.46539 1.70407 0
M  V30 8285 H 749.895 1.40917 0.79712 0
M  V30 8286 H 751.887 1.16502 3.87569 0
M  V30 8287 H 750.457 0.44551 3.09409 0
M  V30 8288 H 749.677 2.8956 2.67486 0
M  V30 8289 H 750.965 3.40441 3.78124 0
M  V30 8290 H 750.363 0.795023 5.60086 0
M  V30 8291 H 748.92 1.29496 6.38807 0
M  V30 8292 N 752.353 -0.854086 1.3245 0
M  V30 8293 C 753.601 -1.60513 1.228 0
M  V30 8294 C 753.922 -1.93865 -0.210073 0
M  V30 8295 O 753.192 -1.59673 -1.13496 0
M  V30 8296 H 751.772 -0.595099 0.451516 0
M  V30 8297 H 754.434 -1.0216 1.6598 0
M  V30 8298 H 753.53 -2.54182 1.81102 0
M  V30 8299 N 753.831 -1.1567 -1.07043 0
M  V30 8300 C 755.056 -0.957946 -1.83952 0
M  V30 8301 C 755.481 0.488807 -1.81638 0
M  V30 8302 O 754.839 1.34869 -1.21162 0
M  V30 8303 C 754.887 -1.48064 -3.288 0
M  V30 8304 O 753.991 -0.681921 -4.06723 0
M  V30 8305 H 753.332 -0.341453 -0.569479 0
M  V30 8306 H 755.862 -1.53728 -1.35015 0
M  V30 8307 H 755.872 -1.49484 -3.7963 0
M  V30 8308 H 754.547 -2.53388 -3.29799 0
M  V30 8309 H 753.124 -0.737612 -3.65532 0
M  V30 8310 N 755.309 1.25446 -0.953992 0
M  V30 8311 C 756.72 1.75047 -0.649255 0
M  V30 8312 C 757.071 1.77527 0.835385 0
M  V30 8313 O 756.196 1.39569 1.65377 0
M  V30 8314 C 756.791 3.17889 -1.17183 0
M  V30 8315 C 755.35 3.65052 -0.917267 0
M  V30 8316 C 754.497 2.44124 -1.31525 0
M  V30 8317 H 757.448 1.11342 -1.13087 0
M  V30 8318 H 757.469 3.76768 -0.531616 0
M  V30 8319 H 756.981 3.16052 -2.25239 0
M  V30 8320 H 755.082 3.72305 0.148354 0
M  V30 8321 H 755.195 4.53222 -1.55328 0
M  V30 8322 H 753.559 2.43906 -0.733624 0
M  V30 8323 H 754.342 2.44979 -2.405 0
M  V30 8324 N 756.787 0.722489 1.40064 0
M  V30 8325 C 757.697 0.0755984 2.34478 0
M  V30 8326 C 758.713 -0.736046 1.57665 0
M  V30 8327 O 759.889 -0.667407 1.9002 0
M  V30 8328 C 756.954 -0.830075 3.36616 0
M  V30 8329 C 756.015 -0.00759884 4.29299 0
M  V30 8330 C 755.248 -0.870139 5.26559 0
M  V30 8331 O 755.471 -2.10921 5.2997 0
M  V30 8332 O 754.405 -0.305454 6.01124 0
M  V30 8333 H 758.231 0.854545 2.9143 0
M  V30 8334 H 755.816 0.483032 1.41376 0
M  V30 8335 H 757.698 -1.34864 3.99236 0
M  V30 8336 H 756.373 -1.58805 2.82069 0
M  V30 8337 H 755.28 0.556199 3.69942 0
M  V30 8338 H 756.613 0.712312 4.87018 0
M  V30 8339 N 758.265 -1.50454 0.469181 0
M  V30 8340 C 759.212 -2.28486 -0.325982 0
M  V30 8341 C 760.182 -1.33455 -0.988893 0
M  V30 8342 O 761.367 -1.6239 -1.0017 0
M  V30 8343 C 758.507 -3.15288 -1.40313 0
M  V30 8344 C 757.62 -4.25348 -0.755183 0
M  V30 8345 C 756.755 -4.9941 -1.81006 0
M  V30 8346 C 755.794 -6.01348 -1.14226 0
M  V30 8347 N 754.931 -6.68695 -2.1399 0
M  V30 8348 H 759.771 -2.95987 0.345753 0
M  V30 8349 H 757.308 -1.45965 0.182355 0
M  V30 8350 H 759.266 -3.63964 -2.03927 0
M  V30 8351 H 757.896 -2.49837 -2.04405 0
M  V30 8352 H 756.948 -3.80399 -0.00651901 0
M  V30 8353 H 758.26 -4.98279 -0.227941 0
M  V30 8354 H 757.414 -5.51794 -2.52206 0
M  V30 8355 H 756.153 -4.26181 -2.3711 0
M  V30 8356 H 755.158 -5.48225 -0.415876 0
M  V30 8357 H 756.383 -6.76548 -0.588135 0
M  V30 8358 H 754.329 -5.98258 -2.69115 0
M  V30 8359 H 754.246 -7.37495 -1.66246 0
M  V30 8360 H 755.514 -7.25697 -2.84576 0
M  V30 8361 N 759.743 -0.201713 -1.56304 0
M  V30 8362 C 760.706 0.702811 -2.18159 0
M  V30 8363 C 761.706 1.13619 -1.13787 0
M  V30 8364 O 762.896 1.0482 -1.39134 0
M  V30 8365 C 760.028 1.96032 -2.78898 0
M  V30 8366 H 761.221 0.163836 -2.99452 0
M  V30 8367 H 758.774 0.04791 -1.56227 0
M  V30 8368 H 759.509 2.54165 -2.01421 0
M  V30 8369 H 759.294 1.65824 -3.55309 0
M  V30 8370 H 760.784 2.60519 -3.26373 0
M  V30 8371 N 761.222 1.57436 0.0718424 0
M  V30 8372 C 762.638 1.53792 0.426628 0
M  V30 8373 C 762.838 0.921887 1.79174 0
M  V30 8374 O 761.894 0.524374 2.46995 0
M  V30 8375 C 763.207 2.98443 0.367739 0
M  V30 8376 C 764.755 3.09778 0.447928 0
M  V30 8377 C 765.23 4.5608 0.418946 0
M  V30 8378 N 766.721 4.60716 0.479022 0
M  V30 8379 C 767.456 5.71397 0.47881 0
M  V30 8380 N 766.952 6.91443 0.433417 0
M  V30 8381 N 768.745 5.59639 0.525364 0
M  V30 8382 H 760.896 1.95848 -0.822033 0
M  V30 8383 H 763.159 0.896418 -0.308447 0
M  V30 8384 H 762.865 3.47072 -0.56865 0
M  V30 8385 H 762.739 3.58335 1.17795 0
M  V30 8386 H 765.126 2.61122 1.37474 0
M  V30 8387 H 765.207 2.52796 -0.390857 0
M  V30 8388 H 764.851 5.05393 -0.504016 0
M  V30 8389 H 764.781 5.10925 1.27526 0
M  V30 8390 H 767.272 3.74328 0.518355 0
M  V30 8391 H 767.585 7.71562 0.43718 0
M  V30 8392 H 765.93 6.93847 0.400106 0
M  V30 8393 H 769.121 4.64756 0.558519 0
M  V30 8394 H 769.294 6.45896 0.52173 0
M  V30 8395 N 762.7 -0.34323 1.53817 0
M  V30 8396 C 763.925 -1.1079 1.75329 0
M  V30 8397 C 764.35 -1.81571 0.491293 0
M  V30 8398 O 763.708 -1.72561 -0.556089 0
M  V30 8399 C 763.756 -2.09681 2.9337 0
M  V30 8400 O 762.86 -3.17207 2.63541 0
M  V30 8401 H 762.201 -0.320402 0.581583 0
M  V30 8402 H 764.731 -0.393525 2.0078 0
M  V30 8403 H 764.741 -2.52897 3.20168 0
M  V30 8404 H 763.416 -1.5756 3.84899 0
M  V30 8405 H 761.993 -2.78806 2.47632 0
M  V30 8406 N 764.178 -1.45556 -0.604258 0
M  V30 8407 C 765.403 -1.53509 -1.39462 0
M  V30 8408 C 765.828 -0.169638 -1.87333 0
M  V30 8409 O 765.186 0.846346 -1.60333 0
M  V30 8410 C 765.234 -2.52654 -2.5729 0
M  V30 8411 O 764.338 -2.04666 -3.5803 0
M  V30 8412 H 763.679 -0.517355 -0.416221 0
M  V30 8413 H 766.209 -1.90939 -0.735072 0
M  V30 8414 H 766.219 -2.71568 -3.04491 0
M  V30 8415 H 764.894 -3.51823 -2.21797 0
M  V30 8416 H 763.471 -1.95643 -3.17456 0
M  V30 8417 N 765.656 0.84705 -1.32902 0
M  V30 8418 C 766.881 1.63925 -1.27056 0
M  V30 8419 C 767.306 1.87443 0.157136 0
M  V30 8420 O 766.664 1.43266 1.11106 0
M  V30 8421 C 766.712 2.97134 -2.04313 0
M  V30 8422 O 765.816 3.88049 -1.39614 0
M  V30 8423 H 765.157 0.499477 -0.437514 0
M  V30 8424 H 767.687 1.05443 -1.75336 0
M  V30 8425 H 767.697 3.46896 -2.14772 0
M  V30 8426 H 766.372 2.79339 -3.08128 0
M  V30 8427 H 764.949 3.46525 -1.3775 0
M  V30 8428 N 767.134 1.16236 1.06428 0
M  V30 8429 C 768.359 0.967688 1.83441 0
M  V30 8430 C 768.784 -0.479167 1.81894 0
M  V30 8431 O 768.142 -1.34224 1.21875 0
M  V30 8432 C 768.19 1.49806 3.2801 0
M  V30 8433 O 767.294 0.703481 4.06356 0
M  V30 8434 H 766.635 0.344468 0.56766 0
M  V30 8435 H 769.165 1.54442 1.34197 0
M  V30 8436 H 769.175 1.51495 3.78831 0
M  V30 8437 H 767.85 2.55133 3.2845 0
M  V30 8438 H 766.427 0.756986 3.65136 0
M  V30 8439 N 768.612 -1.24939 0.960631 0
M  V30 8440 C 770.023 -1.74701 0.658529 0
M  V30 8441 C 770.374 -1.77967 -0.825959 0
M  V30 8442 O 769.499 -1.40444 -1.64634 0
M  V30 8443 C 770.094 -3.17263 1.18867 0
M  V30 8444 C 768.653 -3.64561 0.936614 0
M  V30 8445 C 767.8 -2.43423 1.32817 0
M  V30 8446 H 770.751 -1.10741 1.13676 0
M  V30 8447 H 770.772 -3.76481 0.551589 0
M  V30 8448 H 770.284 -3.14854 2.26912 0
M  V30 8449 H 768.385 -3.72378 -0.128608 0
M  V30 8450 H 768.498 -4.52392 1.57729 0
M  V30 8451 H 766.862 -2.43513 0.746548 0
M  V30 8452 H 767.645 -2.437 2.41796 0
M  V30 8453 N 770.09 -0.729906 -1.39679 0
M  V30 8454 C 771.022 -0.0470588 -2.29152 0
M  V30 8455 C 772.035 0.708808 -1.4656 0
M  V30 8456 O 773.224 0.553815 -1.69691 0
M  V30 8457 C 770.324 0.957612 -3.25089 0
M  V30 8458 C 769.497 0.264321 -4.36601 0
M  V30 8459 C 768.556 1.17638 -5.12882 0
M  V30 8460 O 767.582 0.655777 -5.6541 0
M  V30 8461 N 768.784 2.50649 -5.23598 0
M  V30 8462 H 771.549 -0.815364 -2.88395 0
M  V30 8463 H 769.11 -0.578707 -1.51204 0
M  V30 8464 H 771.102 1.57026 -3.72995 0
M  V30 8465 H 769.672 1.62716 -2.66912 0
M  V30 8466 H 768.892 -0.528732 -3.90638 0
M  V30 8467 H 770.18 -0.216344 -5.0834 0
M  V30 8468 H 769.578 2.95427 -4.82431 0
M  V30 8469 H 768.135 3.07022 -5.74961 0
M  V30 8470 N 771.568 1.50203 -0.477153 0
M  V30 8471 C 772.518 2.25561 0.332625 0
M  V30 8472 C 773.502 1.29401 0.956249 0
M  V30 8473 O 774.694 1.54267 0.867795 0
M  V30 8474 C 771.823 3.12984 1.41052 0
M  V30 8475 C 770.909 4.16595 0.79433 0
M  V30 8476 N 771.3 5.05722 -0.0889633 0
M  V30 8477 C 769.598 4.33279 1.0576 0
M  V30 8478 C 770.299 5.80039 -0.439286 0
M  V30 8479 N 769.275 5.43278 0.187018 0
M  V30 8480 H 773.077 2.91836 -0.347718 0
M  V30 8481 H 770.591 1.59759 -0.291686 0
M  V30 8482 H 772.588 3.65582 2.00388 0
M  V30 8483 H 771.248 2.48258 2.09279 0
M  V30 8484 H 772.259 5.15869 -0.458205 0
M  V30 8485 H 768.936 3.79769 1.7344 0
M  V30 8486 H 770.326 6.61802 -1.1605 0
M  V30 8487 N 773.046 0.209999 1.56195 0
M  V30 8488 C 773.976 -0.699746 2.22769 0
M  V30 8489 C 774.957 -1.20993 1.1956 0
M  V30 8490 O 776.142 -1.25605 1.48112 0
M  V30 8491 C 773.272 -1.91302 2.89863 0
M  V30 8492 C 772.226 -1.53715 3.99444 0
M  V30 8493 C 771.552 -2.82826 4.53777 0
M  V30 8494 C 772.852 -0.735836 5.17091 0
M  V30 8495 H 774.546 -0.144716 2.9905 0
M  V30 8496 H 772.092 -0.0681645 1.43839 0
M  V30 8497 H 774.045 -2.5548 3.35124 0
M  V30 8498 H 772.769 -2.49283 2.11011 0
M  V30 8499 H 771.428 -0.918892 3.54897 0
M  V30 8500 H 771.076 -3.38927 3.71669 0
M  V30 8501 H 770.776 -2.58415 5.27727 0
M  V30 8502 H 772.3 -3.47966 5.01749 0
M  V30 8503 H 773.714 -1.28105 5.58804 0
M  V30 8504 H 772.111 -0.589272 5.972 0
M  V30 8505 H 773.181 0.260004 4.84202 0
M  V30 8506 N 774.524 -1.57472 -0.0634922 0
M  V30 8507 C 775.472 -2.05307 -1.09323 0
M  V30 8508 C 776.466 -0.959995 -1.39572 0
M  V30 8509 O 777.672 -1.14507 -1.38882 0
M  V30 8510 H 774.047 -0.65472 -0.369927 0
M  V30 8511 H 776.018 -2.90925 -0.663707 0
M  V30 8512 C 774.767 -2.51954 -2.39613 0
M  V30 8513 H 774.09 -3.35662 -2.1719 0
M  V30 8514 H 775.53 -2.89169 -3.10092 0
M  V30 8515 C 773.989 -1.40596 -3.06161 0
M  V30 8516 O 774.519 -0.752722 -3.94585 0
M  V30 8517 N 772.725 -1.14902 -2.66919 0
M  V30 8518 H 772.272 -1.68205 -1.95102 0
M  V30 8519 H 772.23 -0.406006 -3.11767 0
M  V30 8520 N 776.003 0.335068 -1.53997 0
M  V30 8521 C 777.249 1.07594 -1.71905 0
M  V30 8522 C 777.582 1.88039 -0.485264 0
M  V30 8523 O 776.857 1.87482 0.517752 0
M  V30 8524 C 777.14 2.01016 -2.98772 0
M  V30 8525 C 776.993 1.23977 -4.32377 0
M  V30 8526 C 778.312 3.0071 -3.21343 0
M  V30 8527 H 775.431 0.38976 -0.625505 0
M  V30 8528 H 778.073 0.353684 -1.86679 0
M  V30 8529 H 776.223 2.62603 -2.86307 0
M  V30 8530 H 777.895 0.649383 -4.56706 0
M  V30 8531 H 776.138 0.541878 -4.30402 0
M  V30 8532 H 776.809 1.92512 -5.17342 0
M  V30 8533 H 779.285 2.4924 -3.33194 0
M  V30 8534 H 778.161 3.63272 -4.11491 0
M  V30 8535 H 778.422 3.72549 -2.38033 0
M  V30 8536 N 777.481 1.45874 0.596531 0
M  V30 8537 C 778.413 1.51408 1.7207 0
M  V30 8538 C 779.426 0.403738 1.57714 0
M  V30 8539 O 780.615 0.671384 1.65393 0
M  V30 8540 C 777.715 1.3652 3.10186 0
M  V30 8541 C 776.888 2.61428 3.50677 0
M  V30 8542 C 775.947 2.40937 4.67799 0
M  V30 8543 O 774.973 3.14602 4.74357 0
M  V30 8544 N 776.175 1.4621 5.61785 0
M  V30 8545 H 778.94 2.48333 1.67782 0
M  V30 8546 H 776.501 1.41755 0.782129 0
M  V30 8547 H 778.493 1.20606 3.86311 0
M  V30 8548 H 777.063 0.478302 3.08919 0
M  V30 8549 H 776.283 2.92381 2.644 0
M  V30 8550 H 777.571 3.44432 3.74491 0
M  V30 8551 H 776.969 0.854382 5.59211 0
M  V30 8552 H 775.526 1.36264 6.37397 0
M  V30 8553 N 778.959 -0.83999 1.33349 0
M  V30 8554 C 779.891 -1.95678 1.19344 0
M  V30 8555 C 780.904 -1.62322 0.124692 0
M  V30 8556 O 782.093 -1.74516 0.375012 0
M  V30 8557 C 779.193 -3.29133 0.807771 0
M  V30 8558 C 778.366 -3.9063 1.96792 0
M  V30 8559 C 777.425 -5.02438 1.56341 0
M  V30 8560 O 776.451 -5.21646 2.27759 0
M  V30 8561 N 777.653 -5.78612 0.467767 0
M  V30 8562 H 780.418 -2.08229 2.15548 0
M  V30 8563 H 777.979 -1.01566 1.26079 0
M  V30 8564 H 779.971 -4.01355 0.519282 0
M  V30 8565 H 778.541 -3.12535 -0.063555 0
M  V30 8566 H 777.761 -3.11011 2.4221 0
M  V30 8567 H 779.049 -4.2845 2.74422 0
M  V30 8568 H 778.447 -5.65559 -0.126324 0
M  V30 8569 H 777.004 -6.51362 0.238945 0
M  V30 8570 N 780.437 -1.16799 -1.0581 0
M  V30 8571 C 781.367 -0.902241 -2.15364 0
M  V30 8572 C 782.348 0.153351 -1.69407 0
M  V30 8573 O 783.533 0.00442032 -1.94199 0
M  V30 8574 C 780.663 -0.407911 -3.44896 0
M  V30 8575 C 779.617 -1.40197 -4.04387 0
M  V30 8576 C 778.943 -0.765848 -5.29187 0
M  V30 8577 C 780.243 -2.77316 -4.42598 0
M  V30 8578 H 781.937 -1.81841 -2.37853 0
M  V30 8579 H 779.483 -0.875731 -1.14311 0
M  V30 8580 H 781.436 -0.20945 -4.20879 0
M  V30 8581 H 780.16 0.54378 -3.22041 0
M  V30 8582 H 778.819 -1.58707 -3.30466 0
M  V30 8583 H 778.467 0.192482 -5.02632 0
M  V30 8584 H 778.167 -1.42939 -5.69949 0
M  V30 8585 H 779.691 -0.577519 -6.07863 0
M  V30 8586 H 781.105 -2.62561 -5.09642 0
M  V30 8587 H 779.502 -3.4019 -4.94359 0
M  V30 8588 H 780.572 -3.32199 -3.53231 0
M  V30 8589 N 781.915 1.24427 -0.967243 0
M  V30 8590 C 782.825 2.29109 -0.504592 0
M  V30 8591 C 783.841 1.68495 0.434224 0
M  V30 8592 O 785.017 1.99041 0.307379 0
M  V30 8593 C 782.082 3.46133 0.198273 0
M  V30 8594 C 781.143 4.22149 -0.780313 0
M  V30 8595 C 780.376 5.33585 -0.110896 0
M  V30 8596 O 780.599 5.59676 1.10088 0
M  V30 8597 O 779.533 5.96522 -0.802823 0
M  V30 8598 H 783.359 2.708 -1.37482 0
M  V30 8599 H 780.944 1.30111 -0.73426 0
M  V30 8600 H 782.826 4.17205 0.593124 0
M  V30 8601 H 781.501 3.0642 1.04347 0
M  V30 8602 H 780.408 3.53454 -1.22561 0
M  V30 8603 H 781.741 4.65677 -1.59392 0
M  V30 8604 N 783.393 0.737304 1.3929 0
M  V30 8605 C 784.67 0.212464 1.94443 0
M  V30 8606 C 785.05 -1.28621 1.67391 0
M  V30 8607 O 784.398 -2.0529 1.00342 0
M  V30 8608 C 784.608 0.548565 3.44662 0
M  V30 8609 C 785.956 0.499177 4.21656 0
M  V30 8610 O 786.98 0.485892 3.5287 0
M  V30 8611 O 785.839 0.495739 5.44247 0
M  V30 8612 H 782.933 0.0395457 0.826054 0
M  V30 8613 H 785.479 0.816319 1.48776 0
M  V30 8614 H 784.251 1.58426 3.57795 0
M  V30 8615 H 783.874 -0.0841399 3.97511 0
M  V30 8616 N 784.871 -1.49948 0.485112 0
M  V30 8617 C 785.804 -2.25531 -0.348027 0
M  V30 8618 C 786.782 -1.29433 -0.984172 0
M  V30 8619 O 787.966 -1.58687 -1.01738 0
M  V30 8620 C 785.093 -3.04225 -1.48878 0
M  V30 8621 C 784.139 -4.15355 -0.968616 0
M  V30 8622 S 784.972 -5.35347 0.127934 0
M  V30 8623 C 786.128 -6.17593 -1.01637 0
M  V30 8624 H 786.361 -2.95847 0.293529 0
M  V30 8625 H 783.894 -1.52018 0.27018 0
M  V30 8626 H 785.852 -3.50153 -2.14251 0
M  V30 8627 H 784.513 -2.33407 -2.1019 0
M  V30 8628 H 783.706 -4.69873 -1.82305 0
M  V30 8629 H 783.308 -3.71936 -0.392377 0
M  V30 8630 H 785.6 -6.49576 -1.92503 0
M  V30 8631 H 786.543 -7.0626 -0.510149 0
M  V30 8632 H 786.951 -5.49877 -1.27653 0
M  V30 8633 N 786.349 -0.21828 -1.56081 0
M  V30 8634 C 787.579 0.41865 -2.02314 0
M  V30 8635 C 787.987 1.54124 -1.09739 0
M  V30 8636 O 787.33 1.83435 -0.0986829 0
M  V30 8637 C 787.392 1.01439 -3.44892 0
M  V30 8638 C 787.056 0.0276523 -4.56992 0
M  V30 8639 C 788.053 -0.771526 -5.14143 0
M  V30 8640 C 785.738 -0.0901537 -5.02219 0
M  V30 8641 C 787.732 -1.67525 -6.14991 0
M  V30 8642 C 785.419 -0.997411 -6.02905 0
M  V30 8643 C 786.417 -1.78851 -6.59167 0
M  V30 8644 O 786.105 -2.68052 -7.57894 0
M  V30 8645 H 785.837 0.107066 -0.667468 0
M  V30 8646 H 788.391 -0.331191 -2.02712 0
M  V30 8647 H 786.621 1.81326 -3.41552 0
M  V30 8648 H 788.31 1.55838 -3.74792 0
M  V30 8649 H 789.076 -0.690945 -4.80053 0
M  V30 8650 H 784.955 0.515474 -4.58109 0
M  V30 8651 H 788.499 -2.29316 -6.58832 0
M  V30 8652 H 784.396 -1.07902 -6.36418 0
M  V30 8653 H 785.164 -2.6209 -7.75404 0
M  V30 8654 N 787.827 1.57504 0.0551401 0
M  V30 8655 C 788.775 2.05884 1.08233 0
M  V30 8656 C 789.769 0.967383 1.39061 0
M  V30 8657 O 790.975 1.15242 1.38273 0
M  V30 8658 H 787.35 0.656673 0.366449 0
M  V30 8659 H 789.321 2.91273 0.648269 0
M  V30 8660 C 788.07 2.53221 2.38273 0
M  V30 8661 H 787.393 3.36809 2.15406 0
M  V30 8662 H 788.833 2.9081 3.08554 0
M  V30 8663 C 787.292 1.42218 3.05411 0
M  V30 8664 O 787.822 0.773638 3.9418 0
M  V30 8665 N 786.028 1.16316 2.66306 0
M  V30 8666 H 785.575 1.69237 1.94207 0
M  V30 8667 H 785.533 0.422534 3.11548 0
M  V30 8668 N 789.305 -0.326896 1.54172 0
M  V30 8669 C 790.252 -1.40216 1.83325 0
M  V30 8670 C 791.222 -1.51538 0.680107 0
M  V30 8671 O 792.407 -1.66811 0.926206 0
M  V30 8672 C 789.547 -2.76626 2.0633 0
M  V30 8673 C 788.66 -2.73963 3.34019 0
M  V30 8674 C 787.795 -4.02198 3.47002 0
M  V30 8675 C 786.834 -3.93828 4.68578 0
M  V30 8676 N 785.971 -5.13787 4.78506 0
M  V30 8677 H 790.811 -1.14656 2.7506 0
M  V30 8678 H 788.348 -0.555089 1.36225 0
M  V30 8679 H 790.306 -3.55922 2.17659 0
M  V30 8680 H 788.936 -3.00503 1.1789 0
M  V30 8681 H 787.988 -1.86677 3.31445 0
M  V30 8682 H 789.3 -2.6366 4.2342 0
M  V30 8683 H 788.454 -4.89923 3.57855 0
M  V30 8684 H 787.193 -4.15302 2.55687 0
M  V30 8685 H 786.198 -3.04487 4.57786 0
M  V30 8686 H 787.423 -3.82292 5.61275 0
M  V30 8687 H 785.369 -5.27403 3.90105 0
M  V30 8688 H 785.286 -5.05807 5.61868 0
M  V30 8689 H 786.554 -6.03236 4.93686 0
M  V30 8690 N 790.784 -1.46188 -0.588786 0
M  V30 8691 C 791.717 -1.508 -1.71274 0
M  V30 8692 C 792.695 -0.362635 -1.58505 0
M  V30 8693 O 793.879 -0.565899 -1.79805 0
M  V30 8694 C 791.006 -1.38082 -3.09275 0
M  V30 8695 C 790.052 -2.56723 -3.40581 0
M  V30 8696 S 790.885 -4.1911 -3.33327 0
M  V30 8697 C 792.041 -4.08891 -4.73877 0
M  V30 8698 H 792.274 -2.45895 -1.67102 0
M  V30 8699 H 789.807 -1.34 -0.767025 0
M  V30 8700 H 791.765 -1.31432 -3.88891 0
M  V30 8701 H 790.426 -0.444259 -3.10942 0
M  V30 8702 H 789.619 -2.43801 -4.41109 0
M  V30 8703 H 789.221 -2.60332 -2.68521 0
M  V30 8704 H 791.513 -3.75196 -5.64123 0
M  V30 8705 H 792.456 -5.09395 -4.91856 0
M  V30 8706 H 792.864 -3.40239 -4.50441 0
M  V30 8707 N 792.262 0.832906 -1.33792 0
M  V30 8708 C 793.225 1.92471 -1.24449 0
M  V30 8709 C 794.225 1.59981 -0.162085 0
M  V30 8710 O 795.415 1.69208 -0.414029 0
M  V30 8711 C 792.547 3.28278 -0.919044 0
M  V30 8712 H 793.74 2.0218 -2.21502 0
M  V30 8713 H 791.293 1.0257 -1.17936 0
M  V30 8714 H 792.028 3.24263 0.048738 0
M  V30 8715 H 791.813 3.53241 -1.70187 0
M  V30 8716 H 793.303 4.08253 -0.878576 0
M  V30 8717 N 793.74 1.17359 1.05189 0
M  V30 8718 C 794.687 0.890325 2.12936 0
M  V30 8719 C 795.657 -0.165779 1.65271 0
M  V30 8720 O 796.842 -0.0285672 1.90779 0
M  V30 8721 C 793.982 0.409793 3.42658 0
M  V30 8722 C 793.095 1.53002 4.03998 0
M  V30 8723 C 792.23 1.00336 5.21638 0
M  V30 8724 C 791.269 2.09903 5.74984 0
M  V30 8725 N 790.406 1.58714 6.83926 0
M  V30 8726 H 795.246 1.81299 2.36505 0
M  V30 8727 H 792.783 0.904249 1.16025 0
M  V30 8728 H 794.741 0.112743 4.17048 0
M  V30 8729 H 793.371 -0.475915 3.19272 0
M  V30 8730 H 792.423 1.9428 3.27047 0
M  V30 8731 H 793.735 2.3564 4.39631 0
M  V30 8732 H 792.889 0.660158 6.03098 0
M  V30 8733 H 791.628 0.14642 4.8748 0
M  V30 8734 H 790.633 2.45081 4.92154 0
M  V30 8735 H 791.858 2.96013 6.1119 0
M  V30 8736 H 789.804 0.752915 6.51665 0
M  V30 8737 H 789.721 2.34959 7.18561 0
M  V30 8738 H 790.989 1.27287 7.69037 0
M  V30 8739 N 795.218 -1.23913 0.973828 0
M  V30 8740 C 796.446 -1.96195 0.656891 0
M  V30 8741 C 796.861 -1.72166 -0.774876 0
M  V30 8742 O 796.218 -1.0091 -1.52064 0
M  V30 8743 C 796.269 -3.49342 0.929638 0
M  V30 8744 O 795.99 -3.72553 2.30512 0
M  V30 8745 C 797.491 -4.38833 0.627739 0
M  V30 8746 H 794.711 -0.624841 0.244572 0
M  V30 8747 H 797.255 -1.57579 1.30343 0
M  V30 8748 H 795.41 -3.85999 0.329216 0
M  V30 8749 H 795.824 -4.66893 2.3898 0
M  V30 8750 H 797.298 -5.45117 0.868991 0
M  V30 8751 H 797.775 -4.37009 -0.438104 0
M  V30 8752 H 798.381 -4.07773 1.20834 0
M  V30 8753 N 796.696 -0.74468 -1.38897 0
M  V30 8754 C 797.628 -0.0713608 -2.29089 0
M  V30 8755 C 798.641 0.693224 -1.47303 0
M  V30 8756 O 799.83 0.535785 -1.70269 0
M  V30 8757 C 796.93 0.923078 -3.26087 0
M  V30 8758 C 796.103 0.217998 -4.36856 0
M  V30 8759 C 795.162 1.12192 -5.14101 0
M  V30 8760 O 794.188 0.595771 -5.66073 0
M  V30 8761 N 795.39 2.45082 -5.26227 0
M  V30 8762 H 798.155 -0.845906 -2.87514 0
M  V30 8763 H 795.716 -0.594712 -1.50581 0
M  V30 8764 H 797.708 1.53061 -3.74639 0
M  V30 8765 H 796.278 1.59876 -2.68623 0
M  V30 8766 H 795.498 -0.570134 -3.90055 0
M  V30 8767 H 796.786 -0.270248 -5.08082 0
M  V30 8768 H 796.184 2.90294 -4.85537 0
M  V30 8769 H 794.741 3.00907 -5.78185 0
M  V30 8770 N 798.174 1.49689 -0.493057 0
M  V30 8771 C 799.399 2.07331 0.0535114 0
M  V30 8772 C 799.824 1.35196 1.30781 0
M  V30 8773 O 799.182 0.406246 1.7669 0
M  V30 8774 C 799.23 3.59364 0.29825 0
M  V30 8775 O 798.334 3.88819 1.37454 0
M  V30 8776 H 797.675 0.663612 -0.0227018 0
M  V30 8777 H 800.205 1.926 -0.690402 0
M  V30 8778 H 800.215 4.04515 0.532159 0
M  V30 8779 H 798.89 4.1128 -0.618207 0
M  V30 8780 H 797.467 3.55487 1.12621 0
M  V30 8781 N 799.652 0.226554 1.55963 0
M  V30 8782 C 800.584 -0.713907 2.17798 0
M  V30 8783 C 801.597 -1.15387 1.14846 0
M  V30 8784 O 802.786 -1.08416 1.41804 0
M  V30 8785 C 799.886 -1.97945 2.75084 0
M  V30 8786 C 799.059 -1.69424 4.03255 0
M  V30 8787 C 798.118 -2.80734 4.45056 0
M  V30 8788 O 797.144 -2.4899 5.11852 0
M  V30 8789 N 798.346 -4.09797 4.11152 0
M  V30 8790 H 801.111 -0.18494 2.99129 0
M  V30 8791 H 798.672 0.0457346 1.61835 0
M  V30 8792 H 800.664 -2.71611 3.00016 0
M  V30 8793 H 799.234 -2.41876 1.98027 0
M  V30 8794 H 798.454 -0.793767 3.86126 0
M  V30 8795 H 799.742 -1.47806 4.86858 0
M  V30 8796 H 799.14 -4.38429 3.57486 0
M  V30 8797 H 797.697 -4.79992 4.40966 0
M  V30 8798 N 801.13 -1.57531 -0.0467866 0
M  V30 8799 C 802.541 -1.76945 -0.595603 0
M  V30 8800 C 802.892 -0.855354 -1.76573 0
M  V30 8801 O 802.017 -0.045668 -2.16352 0
M  V30 8802 C 802.612 -3.20881 -1.08725 0
M  V30 8803 C 801.171 -3.41553 -1.58172 0
M  V30 8804 C 800.318 -2.72533 -0.511968 0
M  V30 8805 H 803.269 -1.57682 0.179436 0
M  V30 8806 H 803.29 -3.26419 -1.95528 0
M  V30 8807 H 802.802 -3.87385 -0.235398 0
M  V30 8808 H 800.903 -2.80199 -2.456 0
M  V30 8809 H 801.016 -4.50104 -1.64143 0
M  V30 8810 H 799.38 -2.35797 -0.962899 0
M  V30 8811 H 800.163 -3.41709 0.330117 0
M  V30 8812 N 802.608 0.318715 -1.54344 0
M  V30 8813 C 803.857 1.05363 -1.71993 0
M  V30 8814 C 804.17 1.89018 -0.503155 0
M  V30 8815 O 805.376 2.65639 -0.561085 0
M  V30 8816 C 803.832 1.92281 -3.0423 0
M  V30 8817 C 803.44 1.13715 -4.33328 0
M  V30 8818 C 805.184 2.65479 -3.31242 0
M  V30 8819 C 803.091 1.99806 -5.56625 0
M  V30 8820 H 802.021 0.397081 -0.64097 0
M  V30 8821 H 804.672 0.311598 -1.80835 0
M  V30 8822 H 803.054 2.70402 -2.89307 0
M  V30 8823 H 804.228 0.403305 -4.59032 0
M  V30 8824 H 802.543 0.521769 -4.13118 0
M  V30 8825 H 805.14 3.30209 -4.20555 0
M  V30 8826 H 805.483 3.33374 -2.49334 0
M  V30 8827 H 806.016 1.94417 -3.47054 0
M  V30 8828 H 802.755 1.36411 -6.41149 0
M  V30 8829 H 802.275 2.70911 -5.35133 0
M  V30 8830 H 803.954 2.58277 -5.93213 0
M  V30 8831 N 804.086 1.46499 0.581025 0
M  V30 8832 C 805.016 1.60052 1.70017 0
M  V30 8833 C 805.997 0.450788 1.64018 0
M  V30 8834 O 807.182 0.677237 1.82009 0
M  V30 8835 C 804.312 1.5921 3.08658 0
M  V30 8836 C 803.266 2.73169 3.29488 0
M  V30 8837 C 802.592 2.57389 4.68674 0
M  V30 8838 C 803.892 4.14978 3.1716 0
M  V30 8839 H 805.586 2.53735 1.5893 0
M  V30 8840 H 803.132 1.22113 0.763173 0
M  V30 8841 H 805.085 1.67285 3.86773 0
M  V30 8842 H 803.809 0.620718 3.20647 0
M  V30 8843 H 802.468 2.64566 2.53773 0
M  V30 8844 H 802.116 1.58331 4.77431 0
M  V30 8845 H 801.816 3.33826 4.83564 0
M  V30 8846 H 803.34 2.67358 5.48956 0
M  V30 8847 H 804.754 4.24684 3.85119 0
M  V30 8848 H 803.151 4.92016 3.4357 0
M  V30 8849 H 804.221 4.35016 2.14218 0
M  V30 8850 N 805.565 -0.825799 1.34232 0
M  V30 8851 C 806.513 -1.95792 1.25572 0
M  V30 8852 C 807.507 -1.68695 0.154404 0
M  V30 8853 O 808.713 -1.77147 0.319196 0
M  V30 8854 H 805.088 -0.642949 0.390027 0
M  V30 8855 H 807.059 -2.00219 2.21258 0
M  V30 8856 C 805.808 -3.32245 1.02511 0
M  V30 8857 H 805.131 -3.53642 1.86487 0
M  V30 8858 H 806.571 -4.1192 1.00487 0
M  V30 8859 C 805.03 -3.35803 -0.27167 0
M  V30 8860 O 805.56 -3.80962 -1.274 0
M  V30 8861 N 803.766 -2.89008 -0.303778 0
M  V30 8862 H 803.313 -2.52451 0.512464 0
M  V30 8863 H 803.271 -2.9177 -1.17121 0
M  V30 8864 N 807.043 -1.17915 -1.04565 0
M  V30 8865 C 808.271 -0.99616 -1.8134 0
M  V30 8866 C 808.686 0.455509 -1.83223 0
M  V30 8867 O 808.043 1.31636 -1.26405 0
M  V30 8868 C 808.094 -1.53758 -3.27171 0
M  V30 8869 O 807.815 -2.93241 -3.25486 0
M  V30 8870 C 809.316 -1.40007 -4.2061 0
M  V30 8871 H 806.536 -0.352055 -0.571225 0
M  V30 8872 H 809.08 -1.56349 -1.31815 0
M  V30 8873 H 807.235 -1.01213 -3.73945 0
M  V30 8874 H 807.649 -3.18392 -4.16805 0
M  V30 8875 H 809.123 -1.82695 -5.2089 0
M  V30 8876 H 809.6 -0.348054 -4.37819 0
M  V30 8877 H 810.206 -1.916 -3.79697 0
M  V30 8878 N 808.521 1.23394 -0.980386 0
M  V30 8879 C 809.468 2.24859 -0.520298 0
M  V30 8880 C 810.438 1.60144 0.440821 0
M  V30 8881 O 811.623 1.87593 0.348369 0
M  V30 8882 C 808.763 3.44675 0.171145 0
M  V30 8883 C 807.876 4.23947 -0.830233 0
M  V30 8884 C 807.011 5.31079 -0.113597 0
M  V30 8885 C 806.05 6.02058 -1.10419 0
M  V30 8886 N 805.187 7.00862 -0.416709 0
M  V30 8887 H 810.027 2.63579 -1.39032 0
M  V30 8888 H 807.564 1.29556 -0.696682 0
M  V30 8889 H 809.522 4.13024 0.588838 0
M  V30 8890 H 808.152 3.06755 1.00504 0
M  V30 8891 H 807.204 3.55016 -1.36631 0
M  V30 8892 H 808.516 4.72945 -1.58508 0
M  V30 8893 H 807.67 6.05622 0.36146 0
M  V30 8894 H 806.409 4.83022 0.673854 0
M  V30 8895 H 805.414 5.26307 -1.59 0
M  V30 8896 H 806.639 6.52203 -1.8923 0
M  V30 8897 H 804.585 6.55057 0.351535 0
M  V30 8898 H 804.502 7.47804 -1.11021 0
M  V30 8899 H 805.77 7.79492 0.0359606 0
M  V30 8900 N 809.999 0.752036 1.385 0
M  V30 8901 C 810.909 0.125318 2.34265 0
M  V30 8902 C 811.925 -0.702437 1.59191 0
M  V30 8903 O 813.101 -0.626951 1.91393 0
M  V30 8904 C 810.166 -0.758486 3.38301 0
M  V30 8905 C 809.227 0.0834636 4.29219 0
M  V30 8906 C 808.46 -0.758252 5.28286 0
M  V30 8907 O 808.683 -1.99632 5.34325 0
M  V30 8908 O 807.617 -0.177878 6.01637 0
M  V30 8909 H 811.443 0.91617 2.89551 0
M  V30 8910 H 809.028 0.512911 1.4032 0
M  V30 8911 H 810.91 -1.26365 4.02007 0
M  V30 8912 H 809.585 -1.52786 2.85374 0
M  V30 8913 H 808.492 0.634545 3.68679 0
M  V30 8914 H 809.825 0.815455 4.85398 0
M  V30 8915 N 811.477 -1.49425 0.500989 0
M  V30 8916 C 812.702 -2.07356 -0.0425154 0
M  V30 8917 C 813.127 -1.35887 -1.30063 0
M  V30 8918 O 812.485 -0.41561 -1.76472 0
M  V30 8919 C 812.533 -3.59518 -0.279188 0
M  V30 8920 O 811.637 -3.89542 -1.3539 0
M  V30 8921 H 810.978 -0.663482 0.0262207 0
M  V30 8922 H 813.508 -1.92231 0.700607 0
M  V30 8923 H 813.518 -4.04791 -0.5107 0
M  V30 8924 H 812.193 -4.10946 0.640009 0
M  V30 8925 H 810.77 -3.56079 -1.10734 0
M  V30 8926 N 812.955 -0.234822 -1.55841 0
M  V30 8927 C 813.918 0.656378 -2.196 0
M  V30 8928 C 814.918 1.11179 -1.16171 0
M  V30 8929 O 816.108 1.01845 -1.41326 0
M  V30 8930 C 813.24 1.90072 -2.82993 0
M  V30 8931 H 814.433 0.100281 -2.99732 0
M  V30 8932 H 811.986 0.0147613 -1.56293 0
M  V30 8933 H 812.721 2.49836 -2.06767 0
M  V30 8934 H 812.506 1.5825 -3.58747 0
M  V30 8935 H 813.996 2.53538 -3.31826 0
M  V30 8936 N 814.433 1.57553 0.0384317 0
M  V30 8937 C 815.396 2.04927 1.02653 0
M  V30 8938 C 816.396 0.951768 1.29607 0
M  V30 8939 O 817.586 1.21568 1.24768 0
M  V30 8940 C 814.718 2.45828 2.36181 0
M  V30 8941 H 815.911 2.93474 0.617508 0
M  V30 8942 H 813.464 1.53679 0.285031 0
M  V30 8943 H 814.199 1.60408 2.8185 0
M  V30 8944 H 813.984 3.25945 2.1795 0
M  V30 8945 H 815.474 2.82939 3.0714 0
M  V30 8946 N 815.911 -0.310526 1.54511 0
M  V30 8947 C 816.843 -1.40405 1.8116 0
M  V30 8948 C 817.856 -1.47261 0.694114 0
M  V30 8949 O 819.045 -1.49751 0.971441 0
M  V30 8950 C 816.145 -2.78849 1.92604 0
M  V30 8951 C 815.318 -2.95041 3.22908 0
M  V30 8952 C 814.377 -4.13925 3.24889 0
M  V30 8953 O 813.403 -4.06463 3.98467 0
M  V30 8954 N 814.605 -5.24099 2.496 0
M  V30 8955 H 817.37 -1.17903 2.75534 0
M  V30 8956 H 814.931 -0.500564 1.53967 0
M  V30 8957 H 816.923 -3.5661 1.91342 0
M  V30 8958 H 815.493 -2.94342 1.05268 0
M  V30 8959 H 814.713 -2.04472 3.37023 0
M  V30 8960 H 816.001 -3.02763 4.08916 0
M  V30 8961 H 815.399 -5.33039 1.89435 0
M  V30 8962 H 813.956 -6.0023 2.54102 0
M  V30 8963 N 817.389 -1.46805 -0.573248 0
M  V30 8964 C 818.614 -1.56433 -1.36175 0
M  V30 8965 C 819.039 -0.209336 -1.86932 0
M  V30 8966 O 818.397 0.812146 -1.62092 0
M  V30 8967 C 818.445 -2.58055 -2.51873 0
M  V30 8968 O 817.549 -2.12214 -3.53609 0
M  V30 8969 H 816.89 -0.526068 -0.405153 0
M  V30 8970 H 819.42 -1.92456 -0.694405 0
M  V30 8971 H 819.43 -2.77966 -2.98662 0
M  V30 8972 H 818.105 -3.56448 -2.14284 0
M  V30 8973 H 816.682 -2.02333 -3.13234 0
M  V30 8974 N 818.867 0.818669 -1.34668 0
M  V30 8975 C 819.814 1.92983 -1.26595 0
M  V30 8976 C 820.784 1.65506 -0.140315 0
M  V30 8977 O 821.969 1.88063 -0.322005 0
M  V30 8978 C 819.109 3.2932 -1.03163 0
M  V30 8979 C 818.222 3.69061 -2.24539 0
M  V30 8980 C 817.357 4.94368 -1.94355 0
M  V30 8981 C 816.396 5.26702 -3.11851 0
M  V30 8982 N 815.533 6.43187 -2.81522 0
M  V30 8983 H 820.373 1.99219 -2.2162 0
M  V30 8984 H 817.91 0.974612 -1.1018 0
M  V30 8985 H 819.868 4.07897 -0.87613 0
M  V30 8986 H 818.498 3.22584 -0.118045 0
M  V30 8987 H 817.55 2.85842 -2.50995 0
M  V30 8988 H 818.862 3.88924 -3.12313 0
M  V30 8989 H 818.016 5.80742 -1.75566 0
M  V30 8990 H 816.755 4.76515 -1.03848 0
M  V30 8991 H 815.76 4.38823 -3.31231 0
M  V30 8992 H 816.985 5.46492 -4.03142 0
M  V30 8993 H 814.931 6.26783 -1.93596 0
M  V30 8994 H 814.848 6.63243 -3.62829 0
M  V30 8995 H 816.116 7.32621 -2.66247 0
M  V30 8996 N 820.346 1.18468 1.03938 0
M  V30 8997 C 821.757 0.984808 1.58614 0
M  V30 8998 C 822.108 -0.465165 1.90606 0
M  V30 8999 O 821.233 -1.34274 1.69704 0
M  V30 9000 C 821.828 1.78135 2.8819 0
M  V30 9001 C 820.387 1.62579 3.39478 0
M  V30 9002 C 819.534 1.77501 2.13046 0
M  V30 9003 H 822.485 1.32993 0.865944 0
M  V30 9004 H 822.506 1.27119 3.58638 0
M  V30 9005 H 822.018 2.83661 2.64874 0
M  V30 9006 H 820.119 0.59595 3.67803 0
M  V30 9007 H 820.232 2.42463 4.13217 0
M  V30 9008 H 818.596 1.2046 2.24414 0
M  V30 9009 H 819.379 2.84464 1.92185 0
M  V30 9010 N 821.824 -1.22873 0.986916 0
M  V30 9011 C 822.771 -2.2458 0.532215 0
M  V30 9012 C 823.741 -1.60375 -0.432322 0
M  V30 9013 O 824.926 -1.87775 -0.338416 0
M  V30 9014 C 822.066 -3.44761 -0.152864 0
M  V30 9015 C 821.179 -4.23501 0.852704 0
M  V30 9016 C 820.314 -5.31011 0.14176 0
M  V30 9017 C 819.353 -6.01464 1.1361 0
M  V30 9018 N 818.49 -7.00631 0.453871 0
M  V30 9019 H 823.33 -2.62838 1.40428 0
M  V30 9020 H 820.867 -1.29185 0.703543 0
M  V30 9021 H 822.825 -4.1333 -0.566926 0
M  V30 9022 H 821.455 -3.07284 -0.988756 0
M  V30 9023 H 820.507 -3.54286 1.38512 0
M  V30 9024 H 821.819 -4.72097 1.61014 0
M  V30 9025 H 820.973 -6.05805 -0.329337 0
M  V30 9026 H 819.712 -4.83373 -0.648229 0
M  V30 9027 H 818.717 -5.25456 1.61789 0
M  V30 9028 H 819.942 -6.5119 1.92686 0
M  V30 9029 H 817.888 -6.55235 -0.316791 0
M  V30 9030 H 817.805 -7.47204 1.14986 0
M  V30 9031 H 819.073 -7.795 0.00537823 0
M  V30 9032 N 823.302 -0.75937 -1.38099 0
M  V30 9033 C 824.212 -0.13774 -2.34195 0
M  V30 9034 C 825.228 0.693985 -1.59561 0
M  V30 9035 O 826.404 0.616792 -1.91723 0
M  V30 9036 C 823.469 0.740535 -3.38699 0
M  V30 9037 C 822.53 -0.106225 -4.29169 0
M  V30 9038 C 821.763 0.730225 -5.28681 0
M  V30 9039 O 821.986 1.96796 -5.35376 0
M  V30 9040 O 820.92 0.145969 -6.01723 0
M  V30 9041 H 824.746 -0.931512 -2.89061 0
M  V30 9042 H 822.331 -0.520345 -1.40046 0
M  V30 9043 H 824.213 1.24232 -4.02672 0
M  V30 9044 H 822.888 1.51271 -2.8618 0
M  V30 9045 H 821.795 -0.654088 -3.68337 0
M  V30 9046 H 823.128 -0.841186 -4.84959 0
M  V30 9047 N 824.78 1.49157 -0.508906 0
M  V30 9048 C 825.69 2.33045 0.269656 0
M  V30 9049 C 826.706 1.45143 0.959662 0
M  V30 9050 O 827.882 1.78155 0.939295 0
M  V30 9051 C 824.947 3.20772 1.31554 0
M  V30 9052 C 824.008 4.24531 0.638131 0
M  V30 9053 C 823.241 5.08065 1.63418 0
M  V30 9054 O 823.464 4.93238 2.86483 0
M  V30 9055 O 822.398 5.90117 1.18516 0
M  V30 9056 H 826.224 3.00821 -0.417183 0
M  V30 9057 H 823.809 1.46938 -0.270119 0
M  V30 9058 H 825.691 3.75095 1.92047 0
M  V30 9059 H 824.366 2.55681 1.98516 0
M  V30 9060 H 823.273 3.74099 -0.00674357 0
M  V30 9061 H 824.606 4.92199 0.0108155 0
M  V30 9062 N 826.258 0.243083 1.55714 0
M  V30 9063 C 827.188 -0.652336 2.24203 0
M  V30 9064 C 828.169 -1.1843 1.221 0
M  V30 9065 O 829.354 -1.22435 1.50743 0
M  V30 9066 C 826.484 -1.85111 2.93856 0
M  V30 9067 C 825.438 -1.45208 4.02615 0
M  V30 9068 C 824.764 -2.73137 4.59674 0
M  V30 9069 C 826.064 -0.625988 5.18535 0
M  V30 9070 H 827.758 -0.0812504 2.9929 0
M  V30 9071 H 825.304 -0.0376388 1.43951 0
M  V30 9072 H 827.257 -2.48314 3.40468 0
M  V30 9073 H 825.981 -2.44751 2.16251 0
M  V30 9074 H 824.64 -0.843406 3.56766 0
M  V30 9075 H 824.288 -3.30967 3.78774 0
M  V30 9076 H 823.988 -2.47163 5.33089 0
M  V30 9077 H 825.512 -3.37245 5.09017 0
M  V30 9078 H 826.926 -1.16223 5.61396 0
M  V30 9079 H 825.323 -0.462465 5.98315 0
M  V30 9080 H 826.393 0.362652 4.83542 0
M  V30 9081 N 827.736 -1.57571 -0.0300757 0
M  V30 9082 C 828.646 -2.09892 -1.04798 0
M  V30 9083 C 829.662 -1.03732 -1.39698 0
M  V30 9084 O 830.838 -1.35461 -1.49038 0
M  V30 9085 C 827.903 -2.56707 -2.33028 0
M  V30 9086 C 826.964 -3.77345 -2.04718 0
M  V30 9087 C 826.197 -4.21918 -3.26834 0
M  V30 9088 O 826.42 -3.66025 -4.37472 0
M  V30 9089 O 825.354 -5.14362 -3.12594 0
M  V30 9090 H 829.18 -2.97023 -0.633344 0
M  V30 9091 H 826.765 -1.47344 -0.246991 0
M  V30 9092 H 828.647 -2.87154 -3.08417 0
M  V30 9093 H 827.322 -1.72688 -2.73789 0
M  V30 9094 H 826.229 -3.51919 -1.26901 0
M  V30 9095 H 827.562 -4.62345 -1.68813 0
M  V30 9096 N 829.214 0.302327 -1.54673 0
M  V30 9097 C 830.147 1.39738 -1.80412 0
M  V30 9098 C 831.125 1.48813 -0.655241 0
M  V30 9099 O 832.309 1.65895 -0.89505 0
M  V30 9100 C 829.436 2.7766 -1.93966 0
M  V30 9101 C 828.482 2.86014 -3.16383 0
M  V30 9102 S 829.315 2.48246 -4.74483 0
M  V30 9103 C 830.471 3.88198 -4.90971 0
M  V30 9104 H 830.704 1.17696 -2.73011 0
M  V30 9105 H 828.237 0.500364 -1.46068 0
M  V30 9106 H 830.195 3.571 -2.0246 0
M  V30 9107 H 828.856 2.96971 -1.02307 0
M  V30 9108 H 828.049 3.87174 -3.22664 0
M  V30 9109 H 827.651 2.14568 -3.06328 0
M  V30 9110 H 829.943 4.83181 -4.74913 0
M  V30 9111 H 830.886 3.86887 -5.93063 0
M  V30 9112 H 831.294 3.78139 -4.19131 0
M  V30 9113 N 830.692 1.47107 0.565454 0
M  V30 9114 C 831.602 1.61591 1.70075 0
M  V30 9115 C 832.618 0.498931 1.66693 0
M  V30 9116 O 833.794 0.765372 1.8629 0
M  V30 9117 C 830.859 1.61887 3.06583 0
M  V30 9118 C 829.92 2.84949 3.21096 0
M  V30 9119 C 829.153 2.85221 4.51093 0
M  V30 9120 O 829.376 1.94959 5.36048 0
M  V30 9121 O 828.31 3.76982 4.69221 0
M  V30 9122 H 832.136 2.57638 1.60799 0
M  V30 9123 H 829.721 1.30097 0.73451 0
M  V30 9124 H 831.603 1.64809 3.87835 0
M  V30 9125 H 830.278 0.69005 3.16259 0
M  V30 9126 H 829.185 2.87575 2.39273 0
M  V30 9127 H 830.518 3.77098 3.1632 0
M  V30 9128 N 832.17 -0.811516 1.35101 0
M  V30 9129 C 833.395 -1.60499 1.31358 0
M  V30 9130 C 833.82 -1.87793 -0.107383 0
M  V30 9131 O 833.178 -1.46161 -1.07268 0
M  V30 9132 C 833.226 -2.91612 2.12119 0
M  V30 9133 O 832.33 -3.84211 1.49853 0
M  V30 9134 H 831.671 -0.487702 0.450603 0
M  V30 9135 H 834.201 -1.00758 1.7807 0
M  V30 9136 H 834.211 -3.4108 2.23894 0
M  V30 9137 H 832.886 -2.71071 3.15426 0
M  V30 9138 H 831.463 -3.42751 1.46889 0
M  V30 9139 N 833.648 -1.19017 -1.03309 0
M  V30 9140 C 834.897 -0.984542 -1.76039 0
M  V30 9141 C 835.21 0.485937 -1.89468 0
M  V30 9142 O 836.416 0.810278 -2.59127 0
M  V30 9143 C 834.872 -1.71261 -3.1654 0
M  V30 9144 C 834.48 -3.22291 -3.11179 0
M  V30 9145 C 836.224 -1.59007 -3.93595 0
M  V30 9146 C 834.131 -3.87704 -4.46587 0
M  V30 9147 H 833.061 -0.364749 -0.659905 0
M  V30 9148 H 835.712 -1.4247 -1.15649 0
M  V30 9149 H 834.094 -1.20025 -3.77373 0
M  V30 9150 H 835.268 -3.80611 -2.59753 0
M  V30 9151 H 833.583 -3.34772 -2.47622 0
M  V30 9152 H 836.18 -2.05232 -4.93745 0
M  V30 9153 H 836.523 -0.543534 -4.12736 0
M  V30 9154 H 837.056 -2.07564 -3.39355 0
M  V30 9155 H 833.795 -4.92437 -4.3265 0
M  V30 9156 H 833.315 -3.34172 -4.98085 0
M  V30 9157 H 834.994 -3.91008 -5.15482 0
M  V30 9158 N 835.127 1.22348 -0.993418 0
M  V30 9159 C 836.538 1.72893 -0.704616 0
M  V30 9160 C 836.889 1.80095 0.778483 0
M  V30 9161 O 836.014 1.4476 1.60853 0
M  V30 9162 C 836.609 3.14 -1.27237 0
M  V30 9163 C 835.168 3.61949 -1.03294 0
M  V30 9164 C 834.315 2.39816 -1.39225 0
M  V30 9165 H 837.266 1.07688 -1.16572 0
M  V30 9166 H 837.287 3.74886 -0.651212 0
M  V30 9167 H 836.799 3.08727 -2.3518 0
M  V30 9168 H 834.9 3.72588 0.0298329 0
M  V30 9169 H 835.013 4.48051 -1.69668 0
M  V30 9170 H 833.377 2.41448 -0.810849 0
M  V30 9171 H 834.16 2.37203 -2.48172 0
M  V30 9172 N 836.605 0.766683 1.37694 0
M  V30 9173 C 837.83 0.338715 2.04615 0
M  V30 9174 C 838.255 -1.02918 1.57447 0
M  V30 9175 O 837.613 -1.65849 0.732386 0
M  V30 9176 C 837.661 0.385284 3.58536 0
M  V30 9177 O 836.765 -0.616081 4.07772 0
M  V30 9178 H 836.106 0.147527 0.647404 0
M  V30 9179 H 838.636 1.04146 1.7611 0
M  V30 9180 H 838.646 0.240782 4.07289 0
M  V30 9181 H 837.321 1.38325 3.92223 0
M  V30 9182 H 835.898 -0.435115 3.70353 0
M  V30 9183 N 838.083 -1.48885 0.516809 0
M  V30 9184 C 839.494 -1.86557 0.0729921 0
M  V30 9185 C 839.845 -1.42767 -1.34581 0
M  V30 9186 O 838.97 -0.812514 -2.00567 0
M  V30 9187 C 839.565 -3.38567 0.125686 0
M  V30 9188 C 838.124 -3.75481 -0.262867 0
M  V30 9189 C 837.271 -2.72913 0.491281 0
M  V30 9190 H 840.222 -1.40978 0.728767 0
M  V30 9191 H 840.243 -3.74629 -0.665831 0
M  V30 9192 H 839.755 -3.70408 1.15842 0
M  V30 9193 H 837.856 -3.49251 -1.29824 0
M  V30 9194 H 837.969 -4.79052 0.067579 0
M  V30 9195 H 836.333 -2.54627 -0.0608525 0
M  V30 9196 H 837.116 -3.07599 1.5244 0
M  V30 9197 N 839.561 -0.251338 -1.55583 0
M  V30 9198 C 840.807 0.37272 -1.99346 0
M  V30 9199 C 841.14 1.57266 -1.13934 0
M  V30 9200 O 840.415 1.9343 -0.20377 0
M  V30 9201 C 840.698 0.778245 -3.5159 0
M  V30 9202 C 840.551 -0.427394 -4.47765 0
M  V30 9203 C 841.87 1.62358 -4.09057 0
M  V30 9204 H 838.989 0.134002 -0.724715 0
M  V30 9205 H 841.631 -0.353536 -1.86682 0
M  V30 9206 H 839.781 1.39704 -3.62512 0
M  V30 9207 H 841.453 -1.06586 -4.48818 0
M  V30 9208 H 839.696 -1.06972 -4.20404 0
M  V30 9209 H 840.367 -0.10025 -5.51909 0
M  V30 9210 H 842.843 1.1012 -4.01264 0
M  V30 9211 H 841.719 1.87617 -5.1584 0
M  V30 9212 H 841.98 2.59688 -3.57791 0
M  V30 9213 N 841.039 1.57585 0.0217189 0
M  V30 9214 C 842.002 2.06004 1.00474 0
M  V30 9215 C 843.002 0.965461 1.2859 0
M  V30 9216 O 844.192 1.22884 1.23471 0
M  V30 9217 C 841.324 2.48319 2.33561 0
M  V30 9218 H 842.517 2.94112 0.586346 0
M  V30 9219 H 840.07 1.53973 0.268716 0
M  V30 9220 H 840.805 1.63389 2.80133 0
M  V30 9221 H 840.59 3.28239 2.1448 0
M  V30 9222 H 842.08 2.86181 3.04122 0
M  V30 9223 N 842.517 -0.29412 1.54831 0
M  V30 9224 C 843.928 -0.866651 1.65366 0
M  V30 9225 C 844.279 -1.87834 0.56681 0
M  V30 9226 O 843.404 -2.14374 -0.295389 0
M  V30 9227 C 843.999 -1.57869 2.99771 0
M  V30 9228 C 842.558 -2.09954 3.12404 0
M  V30 9229 C 841.705 -0.934492 2.6108 0
M  V30 9230 H 844.656 -0.0709551 1.58541 0
M  V30 9231 H 844.677 -2.44462 2.91579 0
M  V30 9232 H 844.189 -0.84212 3.78853 0
M  V30 9233 H 842.29 -2.86637 2.38055 0
M  V30 9234 H 842.403 -2.32934 4.18663 0
M  V30 9235 H 840.767 -1.32199 2.17705 0
M  V30 9236 H 841.55 -0.211768 3.42646 0
M  V30 9237 N 843.995 -1.47404 -0.557645 0
M  V30 9238 C 844.925 -1.62736 -1.67449 0
M  V30 9239 C 845.906 -0.476824 -1.6328 0
M  V30 9240 O 847.091 -0.706108 -1.80908 0
M  V30 9241 C 844.221 -1.641 -3.06086 0
M  V30 9242 C 843.175 -2.78377 -3.25101 0
M  V30 9243 C 842.501 -2.64812 -4.6452 0
M  V30 9244 C 843.801 -4.19971 -3.10518 0
M  V30 9245 H 845.495 -2.56232 -1.54873 0
M  V30 9246 H 843.041 -1.23312 -0.743649 0
M  V30 9247 H 844.994 -1.73417 -3.84063 0
M  V30 9248 H 843.718 -0.671652 -3.19619 0
M  V30 9249 H 842.377 -2.6857 -2.49531 0
M  V30 9250 H 842.025 -1.65906 -4.74852 0
M  V30 9251 H 841.725 -3.41477 -4.78191 0
M  V30 9252 H 843.249 -2.76057 -5.44633 0
M  V30 9253 H 844.663 -4.30757 -3.78313 0
M  V30 9254 H 843.06 -4.97419 -3.35699 0
M  V30 9255 H 844.13 -4.38369 -2.0727 0
M  V30 9256 N 845.473 0.80434 -1.35529 0
M  V30 9257 C 846.884 1.37849 -1.25915 0
M  V30 9258 C 847.235 1.95905 0.107495 0
M  V30 9259 O 846.36 1.91462 1.00852 0
M  V30 9260 C 846.955 2.50608 -2.27994 0
M  V30 9261 C 845.514 3.03879 -2.22114 0
M  V30 9262 C 844.661 1.76856 -2.13582 0
M  V30 9263 H 847.612 0.607192 -1.46625 0
M  V30 9264 H 847.633 3.29221 -1.90772 0
M  V30 9265 H 847.145 2.08323 -3.27449 0
M  V30 9266 H 845.246 3.50622 -1.26077 0
M  V30 9267 H 845.359 3.61707 -3.14173 0
M  V30 9268 H 843.723 1.98498 -1.59595 0
M  V30 9269 H 844.506 1.36721 -3.14901 0
M  V30 9270 N 846.951 1.19563 1.02676 0
M  V30 9271 C 848.179 1.02488 1.79732 0
M  V30 9272 C 848.594 -0.426302 1.83924 0
M  V30 9273 O 847.951 -1.29609 1.28483 0
M  V30 9274 C 848.002 1.58944 3.24683 0
M  V30 9275 O 847.723 2.98382 3.2078 0
M  V30 9276 C 849.224 1.46681 4.1833 0
M  V30 9277 H 846.444 0.361098 0.565552 0
M  V30 9278 H 848.988 1.58426 1.29311 0
M  V30 9279 H 847.143 1.0715 3.72287 0
M  V30 9280 H 847.557 3.24983 4.11687 0
M  V30 9281 H 849.031 1.90959 5.17918 0
M  V30 9282 H 849.508 0.417663 4.3721 0
M  V30 9283 H 850.114 1.97616 3.76601 0
M  V30 9284 N 848.429 -1.21819 0.999893 0
M  V30 9285 C 849.845 -1.42847 0.711824 0
M  V30 9286 C 850.045 -1.88391 -0.714928 0
M  V30 9287 O 849.101 -2.0422 -1.48494 0
M  V30 9288 C 850.414 -2.46417 1.72334 0
M  V30 9289 C 851.962 -2.60207 1.73958 0
M  V30 9290 C 852.437 -3.67005 2.73992 0
M  V30 9291 N 853.928 -3.7447 2.72628 0
M  V30 9292 C 854.663 -4.56718 3.46693 0
M  V30 9293 N 854.159 -5.42904 4.3038 0
M  V30 9294 N 855.952 -4.51094 3.35366 0
M  V30 9295 H 848.103 -0.905656 1.92124 0
M  V30 9296 H 850.366 -0.459893 0.828977 0
M  V30 9297 H 850.072 -2.19914 2.74465 0
M  V30 9298 H 849.946 -3.45137 1.52186 0
M  V30 9299 H 852.333 -2.8605 0.725217 0
M  V30 9300 H 852.414 -1.61739 1.98177 0
M  V30 9301 H 852.058 -3.41908 3.75582 0
M  V30 9302 H 851.988 -4.65058 2.4704 0
M  V30 9303 H 854.479 -3.12895 2.11909 0
M  V30 9304 H 854.792 -6.02704 4.83702 0
M  V30 9305 H 853.137 -5.42463 4.34464 0
M  V30 9306 H 856.328 -3.82791 2.69423 0
M  V30 9307 H 856.501 -5.1496 3.93344 0
M  V30 9308 N 849.908 -0.773975 -1.37286 0
M  V30 9309 C 851.136 -0.350758 -2.03905 0
M  V30 9310 C 851.551 1.02779 -1.58373 0
M  V30 9311 O 850.908 1.65646 -0.766009 0
M  V30 9312 C 850.959 -0.387335 -3.59419 0
M  V30 9313 O 850.68 -1.7115 -4.03286 0
M  V30 9314 C 852.181 0.047198 -4.43275 0
M  V30 9315 H 849.401 -0.146663 -0.654775 0
M  V30 9316 H 851.945 -1.04852 -1.75574 0
M  V30 9317 H 850.1 0.261865 -3.86514 0
M  V30 9318 H 850.514 -1.65166 -4.97816 0
M  V30 9319 H 851.988 -0.0295474 -5.51992 0
M  V30 9320 H 852.465 1.09786 -4.25257 0
M  V30 9321 H 853.071 -0.573899 -4.2141 0
M  V30 9322 N 851.386 1.48609 -0.524698 0
M  V30 9323 C 852.296 2.33318 0.244923 0
M  V30 9324 C 853.312 1.46153 0.944214 0
M  V30 9325 O 854.488 1.79141 0.920347 0
M  V30 9326 C 851.553 3.22149 1.28144 0
M  V30 9327 C 850.614 4.25184 0.593068 0
M  V30 9328 C 849.847 5.0977 1.5802 0
M  V30 9329 O 850.07 4.96249 2.81235 0
M  V30 9330 O 849.004 5.9134 1.1225 0
M  V30 9331 H 852.83 3.00362 -0.449066 0
M  V30 9332 H 850.415 1.46643 -0.285689 0
M  V30 9333 H 852.297 3.77111 1.88057 0
M  V30 9334 H 850.972 2.57772 1.95793 0
M  V30 9335 H 849.879 3.74071 -0.0464214 0
M  V30 9336 H 851.212 4.92183 -0.0413893 0
M  V30 9337 N 852.864 0.259585 1.55447 0
M  V30 9338 C 854.112 -0.360893 1.98852 0
M  V30 9339 C 854.433 -1.57535 1.14924 0
M  V30 9340 O 853.703 -1.94485 0.235025 0
M  V30 9341 H 852.283 -0.136332 0.734454 0
M  V30 9342 H 854.945 0.361319 1.91522 0
M  V30 9343 H 854.041 -0.661388 3.05012 0
M  V30 9344 N 854.342 -1.57594 -0.0133615 0
M  V30 9345 C 855.588 -1.90262 -0.702019 0
M  V30 9346 C 855.921 -0.859219 -1.74158 0
M  V30 9347 O 855.196 0.123778 -1.94106 0
M  V30 9348 C 855.479 -3.3354 -1.35732 0
M  V30 9349 C 855.332 -4.48586 -0.330208 0
M  V30 9350 C 856.651 -3.76004 -2.28712 0
M  V30 9351 H 853.77 -0.691943 -0.253739 0
M  V30 9352 H 856.412 -1.89967 0.0351894 0
M  V30 9353 H 854.562 -3.33921 -1.98567 0
M  V30 9354 H 856.234 -4.6034 0.297433 0
M  V30 9355 H 854.477 -4.32394 0.348926 0
M  V30 9356 H 855.148 -5.45762 -0.827508 0
M  V30 9357 H 857.624 -3.77089 -1.75906 0
M  V30 9358 H 856.5 -4.77032 -2.71535 0
M  V30 9359 H 856.761 -3.09129 -3.16056 0
M  V30 9360 N 855.82 0.285905 -1.54985 0
M  V30 9361 C 857.069 1.01691 -1.74189 0
M  V30 9362 C 857.382 1.87908 -0.543135 0
M  V30 9363 O 858.588 2.64389 -0.617305 0
M  V30 9364 C 857.044 1.85785 -3.0824 0
M  V30 9365 C 856.652 1.04497 -4.35642 0
M  V30 9366 C 858.396 2.58393 -3.36798 0
M  V30 9367 C 856.303 1.87955 -5.60738 0
M  V30 9368 H 855.233 0.383396 -0.649248 0
M  V30 9369 H 857.884 0.27317 -1.81455 0
M  V30 9370 H 856.266 2.64205 -2.94978 0
M  V30 9371 H 857.44 0.305847 -4.59784 0
M  V30 9372 H 855.755 0.434023 -4.14132 0
M  V30 9373 H 858.352 3.21214 -4.27464 0
M  V30 9374 H 858.695 3.28011 -2.56349 0
M  V30 9375 H 859.228 1.87012 -3.511 0
M  V30 9376 H 855.967 1.22781 -6.43898 0
M  V30 9377 H 855.487 2.59499 -5.40759 0
M  V30 9378 H 857.166 2.45636 -5.98558 0
M  V30 9379 N 857.298 1.47698 0.54982 0
M  V30 9380 C 858.575 1.45185 1.31075 0
M  V30 9381 C 858.955 0.152768 2.10547 0
M  V30 9382 O 858.303 -0.865706 2.11466 0
M  V30 9383 C 858.513 2.70192 2.20902 0
M  V30 9384 C 859.861 3.1771 2.81683 0
M  V30 9385 O 860.885 2.70971 2.312 0
M  V30 9386 O 859.744 3.98986 3.7346 0
M  V30 9387 H 856.838 0.57892 0.590577 0
M  V30 9388 H 859.384 1.59908 0.568112 0
M  V30 9389 H 858.156 3.56269 1.61828 0
M  V30 9390 H 857.779 2.58091 3.02448 0
M  V30 9391 N 858.776 -0.797141 1.35954 0
M  V30 9392 C 859.709 -1.91567 1.24005 0
M  V30 9393 C 860.687 -1.62112 0.125868 0
M  V30 9394 O 861.871 -1.86167 0.295638 0
M  V30 9395 C 858.998 -3.26204 0.911535 0
M  V30 9396 C 858.044 -3.74598 2.03909 0
M  V30 9397 S 858.877 -3.91276 3.656 0
M  V30 9398 C 860.033 -5.288 3.34846 0
M  V30 9399 H 860.266 -2.0141 2.18681 0
M  V30 9400 H 857.799 -0.955542 1.2128 0
M  V30 9401 H 859.757 -4.03979 0.728805 0
M  V30 9402 H 858.418 -3.14095 -0.0173159 0
M  V30 9403 H 857.611 -4.72137 1.7636 0
M  V30 9404 H 857.213 -3.03849 2.18064 0
M  V30 9405 H 859.505 -6.13117 2.8826 0
M  V30 9406 H 860.448 -5.61347 4.31619 0
M  V30 9407 H 860.856 -4.95534 2.70382 0
M  V30 9408 N 860.254 -1.20106 -1.0204 0
M  V30 9409 C 861.67 -0.955099 -1.27867 0
M  V30 9410 C 861.87 0.367595 -1.98119 0
M  V30 9411 O 860.926 1.09705 -2.27423 0
M  V30 9412 C 862.239 -2.13507 -2.11744 0
M  V30 9413 C 863.787 -2.17563 -2.25023 0
M  V30 9414 C 864.262 -3.35035 -3.12275 0
M  V30 9415 N 865.753 -3.35024 -3.19864 0
M  V30 9416 C 866.488 -4.22566 -3.8759 0
M  V30 9417 N 865.984 -5.20278 -4.57474 0
M  V30 9418 N 867.777 -4.10418 -3.84075 0
M  V30 9419 H 859.928 -2.05193 -0.54861 0
M  V30 9420 H 862.191 -0.897689 -0.304728 0
M  V30 9421 H 861.897 -3.09275 -1.67456 0
M  V30 9422 H 861.771 -2.11281 -3.12474 0
M  V30 9423 H 864.158 -1.22359 -2.68537 0
M  V30 9424 H 864.239 -2.23838 -1.23815 0
M  V30 9425 H 863.883 -4.30522 -2.69468 0
M  V30 9426 H 863.813 -3.25996 -4.13563 0
M  V30 9427 H 866.304 -2.64299 -2.701 0
M  V30 9428 H 866.617 -5.83408 -5.06809 0
M  V30 9429 H 864.962 -5.24219 -4.56311 0
M  V30 9430 H 868.153 -3.33353 -3.28623 0
M  V30 9431 H 868.326 -4.78854 -4.36581 0
M  V30 9432 N 861.732 1.21287 -1.00634 0
M  V30 9433 C 862.957 1.94925 -0.708441 0
M  V30 9434 C 863.382 1.73659 0.722783 0
M  V30 9435 O 862.74 1.02429 1.49593 0
M  V30 9436 C 862.788 3.45377 -1.03667 0
M  V30 9437 O 861.892 4.12153 -0.142661 0
M  V30 9438 H 861.233 0.609338 -0.263824 0
M  V30 9439 H 863.763 1.54008 -1.34695 0
M  V30 9440 H 863.773 3.95954 -0.984086 0
M  V30 9441 H 862.448 3.6018 -2.0795 0
M  V30 9442 H 861.025 3.72048 -0.251888 0
M  V30 9443 N 863.21 0.781244 1.36873 0
M  V30 9444 C 864.143 0.120106 2.27884 0
M  V30 9445 C 865.121 -0.698961 1.4681 0
M  V30 9446 O 866.305 -0.671694 1.76126 0
M  V30 9447 C 863.432 -0.835804 3.28226 0
M  V30 9448 C 862.478 -0.0995527 4.26384 0
M  V30 9449 S 863.311 1.21903 5.2144 0
M  V30 9450 C 864.467 0.266904 6.25331 0
M  V30 9451 H 864.7 0.891796 2.83609 0
M  V30 9452 H 862.233 0.575075 1.43291 0
M  V30 9453 H 864.191 -1.3819 3.86541 0
M  V30 9454 H 862.852 -1.58068 2.71428 0
M  V30 9455 H 862.045 -0.82457 4.97209 0
M  V30 9456 H 861.647 0.375818 3.72107 0
M  V30 9457 H 863.939 -0.55725 6.75204 0
M  V30 9458 H 864.882 0.943603 7.01785 0
M  V30 9459 H 865.29 -0.126121 5.64359 0
M  V30 9460 N 864.689 -1.48329 0.532571 0
M  V30 9461 C 865.914 -2.074 0.00147755 0
M  V30 9462 C 866.339 -1.38615 -1.27151 0
M  V30 9463 O 865.697 -0.452949 -1.75551 0
M  V30 9464 C 865.745 -3.60029 -0.202866 0
M  V30 9465 O 864.849 -3.92327 -1.27097 0
M  V30 9466 H 864.19 -0.662777 0.0402883 0
M  V30 9467 H 866.72 -1.90701 0.741224 0
M  V30 9468 H 866.73 -4.05783 -0.424722 0
M  V30 9469 H 865.405 -4.09496 0.727033 0
M  V30 9470 H 863.982 -3.58348 -1.03156 0
M  V30 9471 N 866.167 -0.267825 -1.55308 0
M  V30 9472 C 867.392 0.357487 -2.04296 0
M  V30 9473 C 867.817 1.49222 -1.14518 0
M  V30 9474 O 867.175 1.80741 -0.142292 0
M  V30 9475 C 867.223 0.822899 -3.51085 0
M  V30 9476 O 866.327 1.93078 -3.6441 0
M  V30 9477 H 865.668 0.075025 -0.659748 0
M  V30 9478 H 868.198 -0.399996 -2.00652 0
M  V30 9479 H 868.208 1.12059 -3.92309 0
M  V30 9480 H 866.883 -0.0073562 -4.15899 0
M  V30 9481 H 865.46 1.63618 -3.35087 0
M  V30 9482 N 867.645 1.57599 0.00500368 0
M  V30 9483 C 868.894 1.89528 0.690061 0
M  V30 9484 C 869.207 0.869451 1.75214 0
M  V30 9485 O 870.413 1.07879 2.49147 0
M  V30 9486 C 868.869 3.36425 1.27852 0
M  V30 9487 C 868.477 4.47293 0.251531 0
M  V30 9488 C 870.221 3.77471 1.94206 0
M  V30 9489 C 868.128 5.85264 0.8497 0
M  V30 9490 H 867.058 0.707201 0.2615 0
M  V30 9491 H 869.709 1.83418 -0.0547209 0
M  V30 9492 H 868.091 3.37356 2.07381 0
M  V30 9493 H 869.265 4.5787 -0.518796 0
M  V30 9494 H 867.58 4.15235 -0.311281 0
M  V30 9495 H 870.177 4.77884 2.39855 0
M  V30 9496 H 870.52 3.10722 2.77051 0
M  V30 9497 H 871.053 3.78817 1.21419 0
M  V30 9498 H 867.792 6.55472 0.0601408 0
M  V30 9499 H 867.312 5.78361 1.5893 0
M  V30 9500 H 868.991 6.32762 1.34984 0
M  V30 9501 N 869.123 -0.277682 1.55134 0
M  V30 9502 C 870.4 -1.0309 1.66228 0
M  V30 9503 C 870.78 -2.0445 0.525701 0
M  V30 9504 O 870.128 -2.23512 -0.474816 0
M  V30 9505 C 870.338 -1.6919 3.05247 0
M  V30 9506 C 871.686 -2.20526 3.62841 0
M  V30 9507 O 872.71 -1.79185 3.07849 0
M  V30 9508 O 871.569 -2.96342 4.59177 0
M  V30 9509 H 868.663 -0.4779 0.674937 0
M  V30 9510 H 871.209 -0.273912 1.67475 0
M  V30 9511 H 869.981 -0.957163 3.79413 0
M  V30 9512 H 869.604 -2.51587 3.07879 0
M  V30 9513 N 870.601 -1.47988 -0.541979 0
M  V30 9514 C 871.826 -1.59286 -1.32826 0
M  V30 9515 C 872.251 -0.24894 -1.86445 0
M  V30 9516 O 871.609 0.777581 -1.63778 0
M  V30 9517 C 871.657 -2.6334 -2.46343 0
M  V30 9518 O 870.761 -2.19667 -3.49028 0
M  V30 9519 H 870.102 -0.534543 -0.393903 0
M  V30 9520 H 872.632 -1.93885 -0.653427 0
M  V30 9521 H 872.642 -2.84238 -2.92699 0
M  V30 9522 H 871.317 -3.60913 -2.06675 0
M  V30 9523 H 869.894 -2.08932 -3.08872 0
M  V30 9524 N 872.079 0.78992 -1.36375 0
M  V30 9525 C 873.326 1.54777 -1.30576 0
M  V30 9526 C 873.654 1.94159 0.115095 0
M  V30 9527 O 872.909 1.62918 1.08426 0
M  V30 9528 C 873.208 2.83698 -2.17371 0
M  V30 9529 C 872.874 2.63457 -3.65925 0
M  V30 9530 C 871.536 2.57645 -4.06415 0
M  V30 9531 C 873.888 2.44833 -4.60115 0
M  V30 9532 C 871.216 2.31174 -5.39236 0
M  V30 9533 C 873.568 2.19889 -5.93154 0
M  V30 9534 C 872.232 2.1251 -6.32768 0
M  V30 9535 H 871.502 0.566371 -0.477813 0
M  V30 9536 H 874.149 0.91138 -1.68422 0
M  V30 9537 H 872.454 3.51802 -1.72459 0
M  V30 9538 H 874.151 3.41487 -2.10209 0
M  V30 9539 H 870.741 2.68836 -3.33804 0
M  V30 9540 H 874.925 2.48325 -4.29707 0
M  V30 9541 H 870.181 2.23942 -5.68911 0
M  V30 9542 H 874.355 2.04473 -6.65705 0
M  V30 9543 H 871.982 1.91761 -7.35616 0
M  V30 9544 N 873.557 1.20646 1.01402 0
M  V30 9545 C 874.806 1.01242 1.7445 0
M  V30 9546 C 875.119 -0.455732 1.90217 0
M  V30 9547 O 876.325 -0.768951 2.60383 0
M  V30 9548 C 874.781 1.76275 3.13776 0
M  V30 9549 C 874.389 3.27201 3.06013 0
M  V30 9550 C 876.133 1.65248 3.91016 0
M  V30 9551 C 874.04 3.9476 4.40362 0
M  V30 9552 H 872.97 0.375202 0.654018 0
M  V30 9553 H 875.621 1.44292 1.13367 0
M  V30 9554 H 874.003 1.26013 3.75415 0
M  V30 9555 H 875.177 3.84695 2.53665 0
M  V30 9556 H 873.492 3.38669 2.42265 0
M  V30 9557 H 876.089 2.13061 4.90417 0
M  V30 9558 H 876.432 0.609128 4.1182 0
M  V30 9559 H 876.965 2.12937 3.3601 0
M  V30 9560 H 873.704 4.99258 4.24761 0
M  V30 9561 H 873.224 3.42054 4.92706 0
M  V30 9562 H 874.903 3.99159 5.09196 0
M  V30 9563 N 875.035 -1.20752 1.01276 0
M  V30 9564 C 876.26 -1.94547 0.718769 0
M  V30 9565 C 876.685 -1.7404 -0.713563 0
M  V30 9566 O 876.043 -1.03221 -1.49047 0
M  V30 9567 C 876.091 -3.44823 1.05497 0
M  V30 9568 O 875.195 -4.12072 0.164516 0
M  V30 9569 H 874.536 -0.607931 0.267051 0
M  V30 9570 H 877.066 -1.53292 1.35509 0
M  V30 9571 H 877.076 -3.95427 1.00507 0
M  V30 9572 H 875.751 -3.59072 2.09858 0
M  V30 9573 H 874.328 -3.71909 0.271615 0
M  V30 9574 N 876.513 -0.788492 -1.36457 0
M  V30 9575 C 877.753 -0.365855 -2.01099 0
M  V30 9576 C 878.117 1.04262 -1.61225 0
M  V30 9577 O 879.318 1.56628 -2.18451 0
M  V30 9578 C 877.589 -0.523344 -3.53548 0
M  V30 9579 S 879.148 -0.188448 -4.38395 0
M  V30 9580 H 875.966 -0.139832 -0.697114 0
M  V30 9581 H 878.568 -1.02678 -1.66365 0
M  V30 9582 H 877.272 -1.54874 -3.80055 0
M  V30 9583 H 876.803 0.153547 -3.931 0
M  V30 9584 H 878.818 1.0103 -4.85806 0
M  V30 9585 N 877.991 1.48044 -0.54043 0
M  V30 9586 C 878.954 2.28273 0.205966 0
M  V30 9587 C 879.954 1.35983 0.858209 0
M  V30 9588 O 881.144 1.58776 0.716651 0
M  V30 9589 C 878.276 3.15174 1.29917 0
M  V30 9590 H 879.469 2.95727 -0.498555 0
M  V30 9591 H 877.022 1.53457 -0.296745 0
M  V30 9592 H 877.757 2.52374 2.03661 0
M  V30 9593 H 877.542 3.83074 0.836475 0
M  V30 9594 H 879.032 3.75666 1.82387 0
M  V30 9595 N 879.47 0.276058 1.55163 0
M  V30 9596 C 880.698 -0.343772 2.04024 0
M  V30 9597 C 881.113 -1.49397 1.15438 0
M  V30 9598 O 880.47 -1.81662 0.174692 0
M  V30 9599 C 880.521 -0.823885 3.51986 0
M  V30 9600 O 880.242 0.280507 4.37201 0
M  V30 9601 C 881.743 -1.51143 4.16738 0
M  V30 9602 H 878.963 -0.07828 0.666418 0
M  V30 9603 H 881.507 0.408427 2.0038 0
M  V30 9604 H 879.662 -1.52617 3.56071 0
M  V30 9605 H 880.076 -0.0887831 5.24425 0
M  V30 9606 H 881.55 -1.79878 5.2187 0
M  V30 9607 H 882.027 -2.44327 3.64967 0
M  V30 9608 H 882.633 -0.852975 4.16659 0
M  V30 9609 N 880.948 -1.576 0.00335426 0
M  V30 9610 C 882.225 -1.81945 -0.718015 0
M  V30 9611 C 882.605 -0.881788 -1.91801 0
M  V30 9612 O 881.953 0.0687118 -2.28397 0
M  V30 9613 C 882.163 -3.30521 -1.12058 0
M  V30 9614 C 883.511 -3.96345 -1.52303 0
M  V30 9615 O 884.535 -3.34864 -1.21428 0
M  V30 9616 O 883.394 -5.04655 -2.09728 0
M  V30 9617 H 880.488 -0.749328 -0.34991 0
M  V30 9618 H 883.034 -1.69675 0.0290654 0
M  V30 9619 H 881.806 -3.90399 -0.265378 0
M  V30 9620 H 881.429 -3.47802 -1.92665 0
M  V30 9621 N 882.426 0.269451 -1.5528 0
M  V30 9622 C 883.673 1.00058 -1.76053 0
M  V30 9623 C 884.001 1.86156 -0.563592 0
M  V30 9624 O 883.256 1.90366 0.453806 0
M  V30 9625 C 883.555 1.91 -3.02082 0
M  V30 9626 C 883.221 1.20623 -4.34466 0
M  V30 9627 C 881.883 1.01165 -4.70446 0
M  V30 9628 C 884.235 0.705695 -5.164 0
M  V30 9629 C 881.563 0.303865 -5.85913 0
M  V30 9630 C 883.915 0.0114838 -6.32599 0
M  V30 9631 C 882.579 -0.19478 -6.67216 0
M  V30 9632 H 881.849 0.366138 -0.644223 0
M  V30 9633 H 884.496 0.272563 -1.8955 0
M  V30 9634 H 882.801 2.70435 -2.835 0
M  V30 9635 H 884.498 2.47698 -3.15352 0
M  V30 9636 H 881.088 1.36781 -4.06188 0
M  V30 9637 H 885.272 0.84364 -4.89077 0
M  V30 9638 H 880.528 0.133368 -6.11255 0
M  V30 9639 H 884.702 -0.384111 -6.9534 0
M  V30 9640 H 882.329 -0.745201 -7.56539 0
M  V30 9641 N 883.904 1.48273 0.534124 0
M  V30 9642 C 885.315 1.49667 1.1161 0
M  V30 9643 C 885.666 0.264139 1.94414 0
M  V30 9644 O 884.791 -0.629084 2.07054 0
M  V30 9645 C 885.386 2.71191 2.03079 0
M  V30 9646 C 883.945 2.7547 2.56502 0
M  V30 9647 C 883.092 2.43119 1.33373 0
M  V30 9648 H 886.043 1.55449 0.319578 0
M  V30 9649 H 886.064 2.49473 2.87304 0
M  V30 9650 H 885.576 3.60879 1.42785 0
M  V30 9651 H 883.677 1.89979 3.20529 0
M  V30 9652 H 883.79 3.76787 2.95919 0
M  V30 9653 H 882.154 1.94187 1.64813 0
M  V30 9654 H 882.937 3.35044 0.748375 0
M  V30 9655 N 885.382 -0.782676 1.36792 0
M  V30 9656 C 886.292 -1.92679 1.33835 0
M  V30 9657 C 887.308 -1.72344 0.23952 0
M  V30 9658 O 888.484 -1.95766 0.473045 0
M  V30 9659 C 885.549 -3.27644 1.1336 0
M  V30 9660 C 884.61 -3.6071 2.32781 0
M  V30 9661 C 883.843 -4.89234 2.13273 0
M  V30 9662 O 884.066 -5.59468 1.11136 0
M  V30 9663 O 883 -5.21112 3.01208 0
M  V30 9664 H 886.826 -1.98124 2.30175 0
M  V30 9665 H 884.411 -0.923887 1.17408 0
M  V30 9666 H 886.293 -4.08394 1.03886 0
M  V30 9667 H 884.968 -3.23076 0.200868 0
M  V30 9668 H 883.875 -2.80238 2.47825 0
M  V30 9669 H 885.208 -3.70008 3.24584 0
M  V30 9670 N 886.86 -1.21182 -1.00761 0
M  V30 9671 C 887.823 -0.970339 -2.07646 0
M  V30 9672 C 888.823 0.0576345 -1.60697 0
M  V30 9673 O 890.013 -0.179369 -1.73274 0
M  V30 9674 C 887.145 -0.462703 -3.37745 0
M  V30 9675 H 888.338 -1.91856 -2.30502 0
M  V30 9676 H 885.891 -1.02844 -1.17698 0
M  V30 9677 H 886.626 0.490559 -3.20568 0
M  V30 9678 H 886.411 -1.20416 -3.73152 0
M  V30 9679 H 887.901 -0.313531 -4.16421 0
M  V30 9680 N 888.338 1.20213 -1.01915 0
M  V30 9681 C 889.566 1.93622 -0.729255 0
M  V30 9682 C 889.981 1.74923 0.710444 0
M  V30 9683 O 889.338 1.06484 1.48214 0
M  V30 9684 C 889.389 3.45651 -1.05865 0
M  V30 9685 O 889.11 3.63741 -2.44181 0
M  V30 9686 C 890.611 4.36201 -0.790176 0
M  V30 9687 H 887.831 0.615333 -0.267594 0
M  V30 9688 H 890.375 1.52633 -1.36101 0
M  V30 9689 H 888.53 3.84511 -0.47225 0
M  V30 9690 H 888.944 4.57702 -2.56143 0
M  V30 9691 H 890.418 5.41516 -1.07071 0
M  V30 9692 H 890.895 4.38334 0.275609 0
M  V30 9693 H 891.501 4.03008 -1.35885 0
M  V30 9694 N 889.816 0.795718 1.36037 0
M  V30 9695 C 891.232 0.478145 1.52269 0
M  V30 9696 C 891.432 -1.0025 1.74792 0
M  V30 9697 O 890.488 -1.78783 1.78305 0
M  V30 9698 C 891.801 1.31406 2.70468 0
M  V30 9699 C 893.349 1.3084 2.84341 0
M  V30 9700 C 893.824 2.12819 4.05551 0
M  V30 9701 N 895.315 2.10298 4.12709 0
M  V30 9702 C 896.05 2.70495 5.05589 0
M  V30 9703 N 895.546 3.39576 6.03871 0
M  V30 9704 N 897.339 2.60195 4.98252 0
M  V30 9705 H 889.49 1.75477 1.19673 0
M  V30 9706 H 891.753 0.74627 0.584624 0
M  V30 9707 H 891.459 2.36435 2.60368 0
M  V30 9708 H 891.333 0.959726 3.64786 0
M  V30 9709 H 893.72 0.266003 2.93899 0
M  V30 9710 H 893.801 1.70254 1.90912 0
M  V30 9711 H 893.445 3.17093 3.96755 0
M  V30 9712 H 893.375 1.70772 4.98141 0
M  V30 9713 H 895.866 1.60026 3.42345 0
M  V30 9714 H 896.179 3.82823 6.71317 0
M  V30 9715 H 894.524 3.43679 6.04077 0
M  V30 9716 H 897.715 2.05823 4.20422 0
M  V30 9717 H 897.888 3.074 5.70447 0
M  V30 9718 N 891.294 -1.47756 0.548274 0
M  V30 9719 C 892.541 -2.02489 0.0208955 0
M  V30 9720 C 892.869 -1.42356 -1.32533 0
M  V30 9721 O 892.124 -0.565448 -1.87353 0
M  V30 9722 C 892.423 -3.5716 -0.131069 0
M  V30 9723 C 892.089 -4.36169 1.14313 0
M  V30 9724 C 890.751 -4.57476 1.4923 0
M  V30 9725 C 893.103 -4.81801 1.9879 0
M  V30 9726 C 890.431 -5.21662 2.68487 0
M  V30 9727 C 892.783 -5.47303 3.17242 0
M  V30 9728 C 891.447 -5.66844 3.52483 0
M  V30 9729 H 890.717 -0.740961 0.00764621 0
M  V30 9730 H 893.364 -1.77531 0.717987 0
M  V30 9731 H 891.669 -3.8106 -0.911063 0
M  V30 9732 H 893.366 -3.9715 -0.55433 0
M  V30 9733 H 889.956 -4.19858 0.861235 0
M  V30 9734 H 894.14 -4.65126 1.73123 0
M  V30 9735 H 889.396 -5.34987 2.95971 0
M  V30 9736 H 893.57 -5.81626 3.82994 0
M  V30 9737 H 891.197 -6.16352 4.44988 0
M  V30 9738 N 892.772 -0.284283 -1.55015 0
M  V30 9739 C 893.997 0.335799 -2.04664 0
M  V30 9740 C 894.422 1.47999 -1.16094 0
M  V30 9741 O 893.78 1.8058 -0.161454 0
M  V30 9742 C 893.828 0.785615 -3.51938 0
M  V30 9743 O 892.932 1.89202 -3.66437 0
M  V30 9744 H 892.273 0.0680233 -0.660506 0
M  V30 9745 H 894.803 -0.421255 -2.00216 0
M  V30 9746 H 894.813 1.07892 -3.93476 0
M  V30 9747 H 893.488 -0.0514675 -4.15868 0
M  V30 9748 H 892.065 1.60055 -3.36804 0
M  V30 9749 N 894.251 1.57596 -0.0117121 0
M  V30 9750 C 895.201 2.05641 0.98467 0
M  V30 9751 C 896.185 0.953422 1.2961 0
M  V30 9752 O 897.377 1.21712 1.28512 0
M  V30 9753 C 894.506 2.57285 2.27286 0
M  V30 9754 C 893.592 3.74483 1.99057 0
M  V30 9755 N 893.983 4.85741 1.41029 0
M  V30 9756 C 892.281 3.82637 2.2914 0
M  V30 9757 C 892.982 5.67094 1.29536 0
M  V30 9758 N 891.958 5.13459 1.78497 0
M  V30 9759 H 895.76 2.89069 0.530702 0
M  V30 9760 H 893.274 1.6124 0.193717 0
M  V30 9761 H 895.271 2.89988 2.99521 0
M  V30 9762 H 893.931 1.75281 2.73325 0
M  V30 9763 H 894.942 5.06352 1.08756 0
M  V30 9764 H 891.619 3.11509 2.77972 0
M  V30 9765 H 893.009 6.66525 0.848144 0
M  V30 9766 N 895.729 -0.261212 1.5542 0
M  V30 9767 C 896.954 -1.01341 1.80955 0
M  V30 9768 C 897.379 -1.78711 0.586849 0
M  V30 9769 O 896.737 -1.75266 -0.463837 0
M  V30 9770 C 896.785 -1.93835 3.04073 0
M  V30 9771 O 895.889 -3.02791 2.79985 0
M  V30 9772 H 895.23 -0.289123 0.597749 0
M  V30 9773 H 897.76 -0.286543 2.02584 0
M  V30 9774 H 897.77 -2.3557 3.33123 0
M  V30 9775 H 896.445 -1.36936 3.9271 0
M  V30 9776 H 895.022 -2.65287 2.62063 0
M  V30 9777 N 897.207 -1.48554 -0.526253 0
M  V30 9778 C 898.618 -1.50256 -1.10815 0
M  V30 9779 C 898.969 -0.274445 -1.94271 0
M  V30 9780 O 898.094 0.618094 -2.07385 0
M  V30 9781 C 898.689 -2.72264 -2.01638 0
M  V30 9782 C 897.248 -2.76826 -2.55038 0
M  V30 9783 C 896.395 -2.43823 -1.32081 0
M  V30 9784 H 899.346 -1.55616 -0.31133 0
M  V30 9785 H 899.367 -2.50993 -2.85977 0
M  V30 9786 H 898.879 -3.61632 -1.4087 0
M  V30 9787 H 896.98 -1.91676 -3.19517 0
M  V30 9788 H 897.093 -3.78351 -2.93917 0
M  V30 9789 H 895.457 -1.95058 -1.63781 0
M  V30 9790 H 896.24 -3.35436 -0.730596 0
M  V30 9791 N 898.685 0.775411 -1.37205 0
M  V30 9792 C 899.615 1.90258 -1.35367 0
M  V30 9793 C 900.596 1.68634 -0.222864 0
M  V30 9794 O 901.781 1.89545 -0.422659 0
M  V30 9795 C 898.911 3.27488 -1.15623 0
M  V30 9796 C 897.865 3.63668 -2.25676 0
M  V30 9797 C 897.191 4.994 -1.91059 0
M  V30 9798 C 898.491 3.70797 -3.67841 0
M  V30 9799 H 900.185 1.92053 -2.29687 0
M  V30 9800 H 897.731 0.922597 -1.10563 0
M  V30 9801 H 899.684 4.05976 -1.12968 0
M  V30 9802 H 898.408 3.26117 -0.177573 0
M  V30 9803 H 897.067 2.87486 -2.2748 0
M  V30 9804 H 896.715 4.94565 -0.917324 0
M  V30 9805 H 896.415 5.24576 -2.64751 0
M  V30 9806 H 897.939 5.80291 -1.89985 0
M  V30 9807 H 899.353 4.39444 -3.68187 0
M  V30 9808 H 897.75 4.07468 -4.40556 0
M  V30 9809 H 898.82 2.71549 -4.01732 0
M  V30 9810 N 900.163 1.21714 1.00117 0
M  V30 9811 C 901.391 1.06278 1.77518 0
M  V30 9812 C 901.806 -0.387193 1.84787 0
M  V30 9813 O 901.163 -1.26854 1.31203 0
M  V30 9814 C 901.214 1.65795 3.21239 0
M  V30 9815 O 900.935 3.05119 3.14378 0
M  V30 9816 C 902.436 1.55521 4.15124 0
M  V30 9817 H 899.656 0.373013 0.557765 0
M  V30 9818 H 902.2 1.61133 1.25922 0
M  V30 9819 H 900.355 1.15022 3.69931 0
M  V30 9820 H 900.769 3.33643 4.04701 0
M  V30 9821 H 902.243 2.01902 5.13751 0
M  V30 9822 H 902.72 0.510307 4.36225 0
M  V30 9823 H 903.326 2.0556 3.72324 0
M  V30 9824 N 901.641 -1.19671 1.02551 0
M  V30 9825 C 902.866 -1.93774 0.739363 0
M  V30 9826 C 903.291 -1.74787 -0.695064 0
M  V30 9827 O 902.649 -1.04796 -1.47944 0
M  V30 9828 C 902.697 -3.43684 1.09149 0
M  V30 9829 O 901.801 -4.11874 0.208213 0
M  V30 9830 H 901.142 -0.605064 0.273484 0
M  V30 9831 H 903.672 -1.51846 1.37128 0
M  V30 9832 H 903.682 -3.94339 1.04695 0
M  V30 9833 H 902.357 -3.56826 2.13654 0
M  V30 9834 H 900.934 -3.716 0.311045 0
M  V30 9835 N 903.119 -0.802921 -1.35613 0
M  V30 9836 C 904.049 -0.225131 -2.32412 0
M  V30 9837 C 905.03 0.647383 -1.57299 0
M  V30 9838 O 906.215 0.578414 -1.85386 0
M  V30 9839 C 903.345 0.630085 -3.41537 0
M  V30 9840 C 902.299 -0.143635 -4.27759 0
M  V30 9841 C 901.625 0.833046 -5.28171 0
M  V30 9842 C 902.925 -1.34054 -5.04804 0
M  V30 9843 H 904.619 -1.03385 -2.80984 0
M  V30 9844 H 902.165 -0.498593 -1.35093 0
M  V30 9845 H 904.118 1.04433 -4.08254 0
M  V30 9846 H 902.842 1.47165 -2.91565 0
M  V30 9847 H 901.501 -0.539015 -3.62616 0
M  V30 9848 H 901.149 1.67001 -4.74468 0
M  V30 9849 H 900.849 0.319697 -5.8673 0
M  V30 9850 H 902.373 1.24558 -5.97761 0
M  V30 9851 H 903.787 -1.00136 -5.64487 0
M  V30 9852 H 902.184 -1.78812 -5.72841 0
M  V30 9853 H 903.254 -2.12906 -4.35659 0
M  V30 9854 N 904.597 1.47463 -0.556102 0
M  V30 9855 C 906.008 1.86298 -0.122429 0
M  V30 9856 C 906.359 1.46285 1.30749 0
M  V30 9857 O 905.484 0.865405 1.98342 0
M  V30 9858 C 906.079 3.38115 -0.215407 0
M  V30 9859 C 904.638 3.76046 0.163223 0
M  V30 9860 C 903.785 2.71515 -0.563466 0
M  V30 9861 H 906.736 1.38996 -0.765888 0
M  V30 9862 H 906.757 3.76263 0.566271 0
M  V30 9863 H 906.269 3.67207 -1.25622 0
M  V30 9864 H 904.37 3.5257 1.20519 0
M  V30 9865 H 904.483 4.78705 -0.194568 0
M  V30 9866 H 902.847 2.54699 -0.00667879 0
M  V30 9867 H 903.63 3.03449 -1.60542 0
M  V30 9868 N 906.075 0.2925 1.54862 0
M  V30 9869 C 907.3 -0.32494 2.04839 0
M  V30 9870 C 907.725 -1.47381 1.16877 0
M  V30 9871 O 907.083 -1.80492 0.171028 0
M  V30 9872 C 907.131 -0.76694 3.5235 0
M  V30 9873 O 906.235 -1.87256 3.67436 0
M  V30 9874 H 905.576 -0.0645195 0.660858 0
M  V30 9875 H 908.106 0.431867 1.9999 0
M  V30 9876 H 908.116 -1.05804 3.94043 0
M  V30 9877 H 906.791 0.0735212 4.15835 0
M  V30 9878 H 905.368 -1.58266 3.37648 0
M  V30 9879 N 907.553 -1.57587 0.0200696 0
M  V30 9880 C 908.5 -2.09667 -0.964791 0
M  V30 9881 C 909.47 -0.99664 -1.32877 0
M  V30 9882 O 910.655 -1.2703 -1.42366 0
M  V30 9883 C 907.795 -2.62101 -2.24493 0
M  V30 9884 C 906.908 -3.8608 -1.93821 0
M  V30 9885 C 906.043 -4.26939 -3.16064 0
M  V30 9886 C 905.082 -5.43701 -2.81169 0
M  V30 9887 N 904.219 -5.79759 -3.9601 0
M  V30 9888 H 909.059 -2.93538 -0.513751 0
M  V30 9889 H 906.596 -1.45096 -0.242 0
M  V30 9890 H 908.554 -2.90587 -2.99358 0
M  V30 9891 H 907.184 -1.81074 -2.6723 0
M  V30 9892 H 906.236 -3.64378 -1.09237 0
M  V30 9893 H 907.548 -4.71028 -1.64115 0
M  V30 9894 H 906.702 -4.56814 -3.99257 0
M  V30 9895 H 905.441 -3.40739 -3.48924 0
M  V30 9896 H 904.446 -5.13529 -1.96387 0
M  V30 9897 H 905.671 -6.31593 -2.49535 0
M  V30 9898 H 903.617 -4.96516 -4.28729 0
M  V30 9899 H 903.534 -6.59327 -3.69896 0
M  V30 9900 H 904.802 -6.14235 -4.79933 0
M  V30 9901 N 909.032 0.252966 -1.55557 0
M  V30 9902 C 910.26 0.999565 -1.81153 0
M  V30 9903 C 910.675 1.79181 -0.594955 0
M  V30 9904 O 910.032 1.77208 0.436311 0
M  V30 9905 C 910.083 1.94227 -3.04891 0
M  V30 9906 O 909.804 1.18209 -4.21851 0
M  V30 9907 C 911.305 2.80536 -3.43241 0
M  V30 9908 H 908.525 0.294402 -0.602966 0
M  V30 9909 H 911.069 0.277686 -2.02606 0
M  V30 9910 H 909.224 2.6185 -2.85505 0
M  V30 9911 H 909.638 1.81922 -4.9194 0
M  V30 9912 H 911.112 3.42442 -4.32941 0
M  V30 9913 H 911.589 3.51337 -2.6355 0
M  V30 9914 H 912.195 2.18373 -3.64956 0
M  V30 9915 N 910.51 1.48831 0.518367 0
M  V30 9916 C 911.758 1.57128 1.27103 0
M  V30 9917 C 912.079 0.252098 1.93364 0
M  V30 9918 O 911.349 -0.727281 1.819 0
M  V30 9919 H 909.929 0.578891 0.472116 0
M  V30 9920 H 912.591 1.85361 0.602262 0
M  V30 9921 H 911.687 2.35838 2.04418 0
M  V30 9922 N 911.988 -0.768124 1.37614 0
M  V30 9923 C 913.236 -1.52379 1.3276 0
M  V30 9924 C 913.557 -1.94809 -0.0863564 0
M  V30 9925 O 912.827 -1.66568 -1.03112 0
M  V30 9926 H 911.407 -0.565179 0.488448 0
M  V30 9927 H 914.069 -0.913974 1.72141 0
M  V30 9928 H 913.165 -2.4215 1.96901 0
M  V30 9929 N 913.466 -1.22244 -0.994698 0
M  V30 9930 C 914.691 -1.07299 -1.77487 0
M  V30 9931 C 915.116 0.372302 -1.84379 0
M  V30 9932 O 914.474 1.2689 -1.29494 0
M  V30 9933 C 914.522 -1.68675 -3.18718 0
M  V30 9934 O 913.626 -0.939202 -4.01563 0
M  V30 9935 H 912.967 -0.376979 -0.546611 0
M  V30 9936 H 915.497 -1.62003 -1.24965 0
M  V30 9937 H 915.507 -1.73324 -3.69354 0
M  V30 9938 H 914.182 -2.73849 -3.13017 0
M  V30 9939 H 912.759 -0.968583 -3.60101 0
M  V30 9940 N 914.944 1.19125 -1.03184 0
M  V30 9941 C 916.172 1.92838 -0.74975 0
M  V30 9942 C 916.587 1.75667 0.691851 0
M  V30 9943 O 915.944 1.0805 1.47076 0
M  V30 9944 C 915.995 3.44509 -1.09525 0
M  V30 9945 O 915.716 3.6113 -2.48025 0
M  V30 9946 C 917.217 4.35338 -0.836397 0
M  V30 9947 H 914.437 0.61246 -0.274105 0
M  V30 9948 H 916.981 1.5118 -1.37712 0
M  V30 9949 H 915.136 3.83988 -0.513006 0
M  V30 9950 H 915.55 4.54959 -2.60984 0
M  V30 9951 H 917.024 5.4035 -1.12808 0
M  V30 9952 H 917.501 4.38602 0.229102 0
M  V30 9953 H 918.107 4.01544 -1.40152 0
M  V30 9954 N 916.422 0.810101 1.35185 0
M  V30 9955 C 917.385 0.22852 2.28058 0
M  V30 9956 C 918.385 -0.586168 1.49735 0
M  V30 9957 O 919.575 -0.40414 1.69447 0
M  V30 9958 C 916.707 -0.681041 3.34028 0
M  V30 9959 H 917.9 1.04768 2.81005 0
M  V30 9960 H 915.453 0.58101 1.451 0
M  V30 9961 H 916.188 -1.52375 2.86273 0
M  V30 9962 H 915.973 -0.0985276 3.91976 0
M  V30 9963 H 917.463 -1.08217 4.03335 0
M  V30 9964 N 917.9 -1.47166 0.563914 0
M  V30 9965 C 919.311 -1.86231 0.132307 0
M  V30 9966 C 919.662 -1.46976 -1.29971 0
M  V30 9967 O 918.787 -0.875911 -1.97881 0
M  V30 9968 C 919.382 -3.37996 0.233335 0
M  V30 9969 C 917.941 -3.76127 -0.143278 0
M  V30 9970 C 917.088 -2.71212 0.577857 0
M  V30 9971 H 920.039 -1.38588 0.773249 0
M  V30 9972 H 920.06 -3.76558 -0.546309 0
M  V30 9973 H 919.572 -3.66535 1.27568 0
M  V30 9974 H 917.673 -3.53205 -1.18648 0
M  V30 9975 H 917.786 -4.78595 0.219952 0
M  V30 9976 H 916.15 -2.54692 0.020186 0
M  V30 9977 H 916.933 -3.02593 1.62149 0
M  V30 9978 N 919.378 -0.300708 -1.54705 0
M  V30 9979 C 920.288 0.584996 -2.27189 0
M  V30 9980 C 921.304 1.14866 -1.30697 0
M  V30 9981 O 922.48 1.17351 -1.63679 0
M  V30 9982 C 919.545 1.74076 -2.99831 0
M  V30 9983 C 918.606 1.2112 -4.1186 0
M  V30 9984 C 917.839 2.31188 -4.81028 0
M  V30 9985 O 918.062 3.5108 -4.49554 0
M  V30 9986 O 916.996 1.97897 -5.68437 0
M  V30 9987 H 920.822 -0.00298177 -3.037 0
M  V30 9988 H 918.407 -0.0671802 -1.49249 0
M  V30 9989 H 920.289 2.41413 -3.45395 0
M  V30 9990 H 918.964 2.31535 -2.26215 0
M  V30 9991 H 917.871 0.50357 -3.70695 0
M  V30 9992 H 919.204 0.682046 -4.87452 0
M  V30 9993 N 920.856 1.57574 -0.0284266 0
M  V30 9994 C 922.102 1.92056 0.651327 0
M  V30 9995 C 922.435 0.905092 1.71819 0
M  V30 9996 O 921.71 -0.0722703 1.94366 0
M  V30 9997 C 921.993 3.37021 1.26841 0
M  V30 9998 C 921.846 4.49304 0.211157 0
M  V30 9999 C 923.165 3.81936 2.18662 0
M  V30 10000 H 920.284 0.698428 0.235304 0
M  V30 10001 H 922.926 1.89807 -0.0855435 0
M  V30 10002 H 921.076 3.39068 1.89644 0
M  V30 10003 H 922.748 4.5939 -0.419379 0
M  V30 10004 H 920.991 4.31317 -0.463445 0
M  V30 10005 H 921.662 5.47764 0.682518 0
M  V30 10006 H 924.138 3.8162 1.65847 0
M  V30 10007 H 923.014 4.84064 2.58792 0
M  V30 10008 H 923.275 3.174 3.07749 0
M  V30 10009 N 922.334 -0.244713 1.55689 0
M  V30 10010 C 923.582 -0.970525 1.77272 0
M  V30 10011 C 923.903 -1.85771 0.592804 0
M  V30 10012 O 923.173 -1.91952 -0.391323 0
M  V30 10013 H 921.753 -0.361342 0.653789 0
M  V30 10014 H 924.415 -0.262134 1.93129 0
M  V30 10015 H 923.511 -1.59096 2.68505 0
M  V30 10016 N 923.813 -1.49104 -0.510467 0
M  V30 10017 C 925.059 -1.59322 -1.26444 0
M  V30 10018 C 925.414 -0.27219 -1.90465 0
M  V30 10019 O 924.707 0.726762 -1.77281 0
M  V30 10020 C 924.901 -2.68259 -2.36161 0
M  V30 10021 C 924.73 -4.10827 -1.82897 0
M  V30 10022 C 923.5 -4.77732 -1.64623 0
M  V30 10023 C 925.698 -4.96367 -1.34625 0
M  V30 10024 N 923.68 -6.04646 -1.06189 0
M  V30 10025 C 925.051 -6.13685 -0.882656 0
M  V30 10026 C 927.106 -4.8244 -1.2311 0
M  V30 10027 C 925.809 -7.18609 -0.315306 0
M  V30 10028 C 927.835 -5.87504 -0.677726 0
M  V30 10029 C 927.197 -7.04043 -0.224308 0
M  V30 10030 H 923.296 -0.637429 -0.453 0
M  V30 10031 H 925.88 -1.8607 -0.573237 0
M  V30 10032 H 924.051 -2.433 -3.02753 0
M  V30 10033 H 925.783 -2.68052 -3.032 0
M  V30 10034 H 922.538 -4.34377 -1.88716 0
M  V30 10035 H 922.962 -6.72383 -0.78927 0
M  V30 10036 H 927.604 -3.92663 -1.56766 0
M  V30 10037 H 925.322 -8.08093 0.0335425 0
M  V30 10038 H 928.908 -5.78785 -0.591535 0
M  V30 10039 H 927.788 -7.83952 0.197212 0
M  V30 10040 N 925.291 0.760815 -1.38019 0
M  V30 10041 C 926.707 1.06289 -1.19058 0
M  V30 10042 C 926.907 2.01471 -0.0342603 0
M  V30 10043 O 925.963 2.44713 0.62224 0
M  V30 10044 C 927.276 1.6499 -2.51394 0
M  V30 10045 C 928.824 1.77196 -2.58013 0
M  V30 10046 C 929.299 2.3931 -3.90506 0
M  V30 10047 N 930.79 2.46749 -3.92007 0
M  V30 10048 C 931.525 2.95687 -4.91281 0
M  V30 10049 N 931.021 3.44715 -6.00952 0
M  V30 10050 N 932.814 2.94661 -4.78677 0
M  V30 10051 H 924.965 0.129045 -2.12008 0
M  V30 10052 H 927.228 0.119878 -0.94039 0
M  V30 10053 H 926.934 1.0252 -3.36426 0
M  V30 10054 H 926.808 2.64146 -2.6927 0
M  V30 10055 H 929.195 2.38796 -1.7338 0
M  V30 10056 H 929.276 0.767645 -2.4401 0
M  V30 10057 H 928.92 1.78346 -4.75558 0
M  V30 10058 H 928.85 3.40369 -4.01817 0
M  V30 10059 H 931.341 2.12064 -3.12789 0
M  V30 10060 H 931.654 3.80492 -6.72641 0
M  V30 10061 H 929.999 3.42791 -6.04582 0
M  V30 10062 H 933.19 2.55665 -3.92113 0
M  V30 10063 H 933.363 3.32489 -5.56197 0
M  V30 10064 N 926.769 1.22769 0.988202 0
M  V30 10065 C 928.017 1.05301 1.725 0
M  V30 10066 C 928.338 -0.412103 1.90596 0
M  V30 10067 O 927.608 -1.29606 1.46898 0
M  V30 10068 H 926.188 0.386658 0.639144 0
M  V30 10069 H 928.85 1.54359 1.18993 0
M  V30 10070 H 927.946 1.53465 2.71763 0
M  V30 10071 N 928.247 -1.18576 1.03814 0
M  V30 10072 C 929.21 -2.2033 0.63146 0
M  V30 10073 C 930.21 -1.57787 -0.309816 0
M  V30 10074 O 931.4 -1.73938 -0.0955598 0
M  V30 10075 C 928.532 -3.40818 -0.0745963 0
M  V30 10076 H 929.725 -2.57824 1.53189 0
M  V30 10077 H 927.278 -1.32416 0.830398 0
M  V30 10078 H 928.013 -3.08853 -0.988947 0
M  V30 10079 H 927.798 -3.87453 0.6019 0
M  V30 10080 H 929.288 -4.16166 -0.345727 0
M  V30 10081 N 929.725 -0.817259 -1.34754 0
M  V30 10082 C 930.655 -0.249769 -2.3216 0
M  V30 10083 C 931.636 0.630663 -1.57977 0
M  V30 10084 O 932.821 0.558719 -1.85989 0
M  V30 10085 C 929.951 0.593825 -3.42186 0
M  V30 10086 C 928.905 -0.188997 -4.27583 0
M  V30 10087 C 928.231 0.776979 -5.29025 0
M  V30 10088 C 929.531 -1.39401 -5.03354 0
M  V30 10089 H 931.225 -1.06359 -2.79872 0
M  V30 10090 H 928.771 -0.512894 -1.34556 0
M  V30 10091 H 930.724 1.00097 -4.09339 0
M  V30 10092 H 929.448 1.44064 -2.93109 0
M  V30 10093 H 928.107 -0.577445 -3.62024 0
M  V30 10094 H 927.755 1.61959 -4.76212 0
M  V30 10095 H 927.455 0.257448 -5.87036 0
M  V30 10096 H 928.979 1.18211 -5.99048 0
M  V30 10097 H 930.393 -1.06117 -5.63393 0
M  V30 10098 H 928.79 -1.84878 -5.70912 0
M  V30 10099 H 929.86 -2.17515 -4.33377 0
M  V30 10100 N 931.203 1.46865 -0.571711 0
M  V30 10101 C 932.451 2.0203 -0.0530022 0
M  V30 10102 C 932.772 1.44687 1.30731 0
M  V30 10103 O 932.042 0.627429 1.85581 0
M  V30 10104 H 930.622 0.746815 -0.0166035 0
M  V30 10105 H 933.284 1.80099 -0.745003 0
M  V30 10106 H 932.38 3.12091 0.0242538 0
M  V30 10107 N 932.681 0.308908 1.54543 0
M  V30 10108 C 933.644 -0.550857 2.22482 0
M  V30 10109 C 934.644 -1.0551 1.21344 0
M  V30 10110 O 935.834 -0.949866 1.46025 0
M  V30 10111 C 932.966 -1.76354 2.9174 0
M  V30 10112 H 934.159 0.0428395 2.99869 0
M  V30 10113 H 931.712 0.059825 1.56185 0
M  V30 10114 H 932.447 -2.39686 2.18451 0
M  V30 10115 H 932.232 -1.40954 3.65889 0
M  V30 10116 H 933.722 -2.37417 3.43545 0
M  V30 10117 N 934.159 -1.57557 0.0367827 0
M  V30 10118 C 935.384 -1.96828 -0.653707 0
M  V30 10119 C 935.809 -0.913559 -1.64425 0
M  V30 10120 O 935.167 0.124749 -1.8087 0
M  V30 10121 C 935.215 -3.35189 -1.32969 0
M  V30 10122 O 934.319 -3.32095 -2.44513 0
M  V30 10123 H 933.66 -0.64157 -0.171124 0
M  V30 10124 H 936.19 -2.04351 0.100912 0
M  V30 10125 H 936.2 -3.71593 -1.68472 0
M  V30 10126 H 934.875 -4.11496 -0.603654 0
M  V30 10127 H 933.452 -3.07418 -2.11065 0
M  V30 10128 N 935.637 0.236453 -1.55816 0
M  V30 10129 C 936.885 0.96111 -1.77784 0
M  V30 10130 C 937.206 1.85454 -0.602648 0
M  V30 10131 O 936.476 1.92157 0.381137 0
M  V30 10132 H 935.056 0.35787 -0.655697 0
M  V30 10133 H 937.718 0.251888 -1.93265 0
M  V30 10134 H 936.814 1.5767 -2.69345 0
M  V30 10135 N 937.115 1.49373 0.502552 0
M  V30 10136 C 938.363 1.58467 1.25429 0
M  V30 10137 C 938.684 0.272593 1.93085 0
M  V30 10138 O 937.954 -0.707947 1.82661 0
M  V30 10139 H 936.534 0.583866 0.46595 0
M  V30 10140 H 939.196 1.8599 0.582568 0
M  V30 10141 H 938.292 2.37993 2.01906 0
M  V30 10142 N 938.594 -0.753485 1.38421 0
M  V30 10143 C 940.01 -1.05656 1.1962 0
M  V30 10144 C 940.21 -2.0145 0.0449443 0
M  V30 10145 O 939.266 -2.45039 -0.609253 0
M  V30 10146 C 940.579 -1.63655 2.52265 0
M  V30 10147 C 942.127 -1.75825 2.58949 0
M  V30 10148 C 942.602 -2.37236 3.91769 0
M  V30 10149 N 944.093 -2.44666 3.9331 0
M  V30 10150 C 944.828 -2.93077 4.92842 0
M  V30 10151 N 944.324 -3.41523 6.02772 0
M  V30 10152 N 946.117 -2.92118 4.80232 0
M  V30 10153 H 938.268 -0.117799 2.12073 0
M  V30 10154 H 940.531 -0.114889 0.941012 0
M  V30 10155 H 940.237 -1.00734 3.36965 0
M  V30 10156 H 940.111 -2.62715 2.70667 0
M  V30 10157 H 942.498 -2.37873 1.74644 0
M  V30 10158 H 942.579 -0.754693 2.44414 0
M  V30 10159 H 942.223 -1.75822 4.76497 0
M  V30 10160 H 942.153 -3.38233 4.03616 0
M  V30 10161 H 944.644 -2.10403 3.1391 0
M  V30 10162 H 944.957 -3.76919 6.74649 0
M  V30 10163 H 943.302 -3.3958 6.06391 0
M  V30 10164 H 946.493 -2.53582 3.93464 0
M  V30 10165 H 946.666 -3.29535 5.57952 0
M  V30 10166 N 940.072 -1.23292 -0.981677 0
M  V30 10167 C 941.319 -1.06424 -1.72279 0
M  V30 10168 C 941.647 0.399055 -1.90362 0
M  V30 10169 O 940.902 1.31181 -1.45224 0
M  V30 10170 C 941.201 -1.73339 -3.12551 0
M  V30 10171 C 940.867 -3.23256 -3.14351 0
M  V30 10172 C 939.529 -3.64159 -3.14549 0
M  V30 10173 C 941.881 -4.1916 -3.09765 0
M  V30 10174 C 939.209 -4.99428 -3.07877 0
M  V30 10175 C 941.561 -5.54419 -3.04635 0
M  V30 10176 C 940.225 -5.94688 -3.03154 0
M  V30 10177 H 939.495 -0.389434 -0.630415 0
M  V30 10178 H 942.142 -1.53208 -1.1489 0
M  V30 10179 H 940.447 -1.18911 -3.73319 0
M  V30 10180 H 942.144 -1.57767 -3.68661 0
M  V30 10181 H 938.734 -2.90693 -3.14953 0
M  V30 10182 H 942.918 -3.88569 -3.08753 0
M  V30 10183 H 938.174 -5.29844 -3.05083 0
M  V30 10184 H 942.348 -6.28448 -3.00043 0
M  V30 10185 H 939.975 -6.99468 -2.97739 0
M  V30 10186 N 941.55 1.18024 -1.04442 0
M  V30 10187 C 942.796 1.88377 -0.751133 0
M  V30 10188 C 943.129 1.80377 0.719571 0
M  V30 10189 O 942.404 1.20662 1.52548 0
M  V30 10190 C 942.687 3.38708 -1.22265 0
M  V30 10191 C 942.54 3.55499 -2.75574 0
M  V30 10192 C 943.859 4.32475 -0.815688 0
M  V30 10193 H 940.978 0.684037 -0.27434 0
M  V30 10194 H 943.62 1.38837 -1.29709 0
M  V30 10195 H 941.77 3.8103 -0.758192 0
M  V30 10196 H 943.442 3.22244 -3.30086 0
M  V30 10197 H 941.685 2.98028 -3.15217 0
M  V30 10198 H 942.356 4.60994 -3.03625 0
M  V30 10199 H 944.832 3.97953 -1.21542 0
M  V30 10200 H 943.708 5.36213 -1.17331 0
M  V30 10201 H 943.969 4.41207 0.280901 0
M  V30 10202 N 943.028 0.824394 1.34319 0
M  V30 10203 C 943.938 0.24932 2.33271 0
M  V30 10204 C 944.954 -0.617066 1.62691 0
M  V30 10205 O 946.13 -0.524616 1.94447 0
M  V30 10206 C 943.195 -0.578094 3.41846 0
M  V30 10207 C 942.256 0.310866 4.28173 0
M  V30 10208 C 941.489 -0.477153 5.31563 0
M  V30 10209 O 941.712 -1.71028 5.44156 0
M  V30 10210 O 940.646 0.141287 6.01734 0
M  V30 10211 H 944.472 1.06837 2.84288 0
M  V30 10212 H 942.057 0.58657 1.37403 0
M  V30 10213 H 943.939 -1.04878 4.0814 0
M  V30 10214 H 942.614 -1.37444 2.93071 0
M  V30 10215 H 941.521 0.829081 3.64797 0
M  V30 10216 H 942.854 1.07161 4.80393 0
M  V30 10217 N 944.506 -1.46559 0.579492 0
M  V30 10218 C 945.469 -2.28739 -0.145371 0
M  V30 10219 C 946.469 -1.38211 -0.821854 0
M  V30 10220 O 947.659 -1.6062 -0.674302 0
M  V30 10221 C 944.791 -3.18507 -1.21515 0
M  V30 10222 H 945.984 -2.94301 0.576786 0
M  V30 10223 H 943.537 -1.52616 0.337327 0
M  V30 10224 H 944.272 -2.57685 -1.96899 0
M  V30 10225 H 944.057 -3.85157 -0.734616 0
M  V30 10226 H 945.547 -3.80369 -1.72363 0
M  V30 10227 N 945.984 -0.3171 -1.54377 0
M  V30 10228 C 946.932 0.567371 -2.25574 0
M  V30 10229 C 947.926 1.12387 -1.2675 0
M  V30 10230 O 949.132 1.07266 -1.44548 0
M  V30 10231 H 945.507 0.201605 -0.724472 0
M  V30 10232 H 947.478 -0.0554644 -2.98348 0
M  V30 10233 C 946.227 1.71984 -3.02187 0
M  V30 10234 H 945.55 1.30086 -3.78044 0
M  V30 10235 H 946.99 2.31443 -3.5526 0
M  V30 10236 C 945.449 2.6336 -2.10103 0
M  V30 10237 O 945.979 3.64899 -1.67962 0
M  V30 10238 N 944.185 2.3145 -1.75725 0
M  V30 10239 H 943.732 1.48921 -2.10191 0
M  V30 10240 H 943.69 2.92852 -1.14391 0
M  V30 10241 N 947.462 1.57535 -0.0451378 0
M  V30 10242 C 948.873 1.80116 0.491426 0
M  V30 10243 C 949.224 0.956846 1.71286 0
M  V30 10244 O 948.349 0.17173 2.15718 0
M  V30 10245 C 948.944 3.26674 0.898315 0
M  V30 10246 C 947.503 3.50194 1.37989 0
M  V30 10247 C 946.65 2.75054 0.352202 0
M  V30 10248 H 949.601 1.56368 -0.271065 0
M  V30 10249 H 949.622 3.37263 1.76164 0
M  V30 10250 H 949.134 3.88099 0.009141 0
M  V30 10251 H 947.235 2.94041 2.28846 0
M  V30 10252 H 947.348 4.58909 1.37622 0
M  V30 10253 H 945.712 2.4101 0.823784 0
M  V30 10254 H 946.495 3.39203 -0.528782 0
M  V30 10255 N 948.94 -0.228186 1.55939 0
M  V30 10256 C 950.165 -0.974795 1.83064 0
M  V30 10257 C 950.59 -1.77426 0.624624 0
M  V30 10258 O 949.948 -1.76211 -0.426556 0
M  V30 10259 C 949.996 -1.87342 3.08116 0
M  V30 10260 O 949.1 -2.96784 2.86344 0
M  V30 10261 H 948.441 -0.276379 0.603747 0
M  V30 10262 H 950.971 -0.243507 2.03146 0
M  V30 10263 H 950.981 -2.28451 3.38045 0
M  V30 10264 H 949.656 -1.28575 3.95526 0
M  V30 10265 H 948.233 -2.59669 2.67631 0
M  V30 10266 N 950.418 -1.49637 -0.494624 0
M  V30 10267 C 951.829 -1.52573 -1.07603 0
M  V30 10268 C 952.18 -0.315591 -1.93645 0
M  V30 10269 O 951.305 0.573966 -2.08649 0
M  V30 10270 C 951.9 -2.7648 -1.95817 0
M  V30 10271 C 950.459 -2.82173 -2.49109 0
M  V30 10272 C 949.606 -2.4657 -1.2688 0
M  V30 10273 H 952.557 -1.56242 -0.278251 0
M  V30 10274 H 952.578 -2.57003 -2.80588 0
M  V30 10275 H 952.09 -3.64538 -1.33167 0
M  V30 10276 H 950.191 -1.9841 -3.15379 0
M  V30 10277 H 950.304 -3.84501 -2.85825 0
M  V30 10278 H 948.668 -1.98489 -1.59607 0
M  V30 10279 H 949.451 -3.3691 -0.659281 0
M  V30 10280 N 951.896 0.746133 -1.38819 0
M  V30 10281 C 953.173 1.49652 -1.25951 0
M  V30 10282 C 953.553 2.10663 0.135833 0
M  V30 10283 O 952.901 1.97682 1.14604 0
M  V30 10284 C 953.111 2.5569 -2.37537 0
M  V30 10285 C 954.459 3.22385 -2.76321 0
M  V30 10286 O 955.483 2.65998 -2.36904 0
M  V30 10287 O 954.342 4.2439 -3.44319 0
M  V30 10288 H 951.436 0.664019 -0.492958 0
M  V30 10289 H 953.982 0.780908 -1.50665 0
M  V30 10290 H 952.754 2.08908 -3.30867 0
M  V30 10291 H 952.377 3.34823 -2.14427 0
M  V30 10292 N 953.375 1.23811 0.975125 0
M  V30 10293 C 954.338 1.02505 2.05001 0
M  V30 10294 C 955.338 -0.0150084 1.60793 0
M  V30 10295 O 956.528 0.225246 1.72738 0
M  V30 10296 C 953.66 0.552087 3.364 0
M  V30 10297 H 954.853 1.979 2.25335 0
M  V30 10298 H 952.406 1.05929 1.1493 0
M  V30 10299 H 953.141 -0.405394 3.21756 0
M  V30 10300 H 952.926 1.30267 3.69828 0
M  V30 10301 H 954.416 0.423828 4.15444 0
M  V30 10302 N 954.853 -1.17469 1.05066 0
M  V30 10303 C 956.078 -1.92162 0.780298 0
M  V30 10304 C 956.503 -1.76222 -0.657832 0
M  V30 10305 O 955.861 -1.0791 -1.45688 0
M  V30 10306 C 955.909 -3.41292 1.16414 0
M  V30 10307 O 955.013 -4.1134 0.295531 0
M  V30 10308 H 954.354 -0.599127 0.286257 0
M  V30 10309 H 956.884 -1.48903 1.40318 0
M  V30 10310 H 956.894 -3.92029 1.13036 0
M  V30 10311 H 955.569 -3.52214 2.21175 0
M  V30 10312 H 954.146 -3.70857 0.389797 0
M  V30 10313 N 956.331 -0.831506 -1.3388 0
M  V30 10314 C 957.263 -0.216908 -2.28171 0
M  V30 10315 C 958.276 0.598141 -1.51414 0
M  V30 10316 O 959.465 0.426416 -1.73332 0
M  V30 10317 C 956.565 0.713831 -3.31297 0
M  V30 10318 C 955.738 -0.0602673 -4.37358 0
M  V30 10319 C 954.797 0.792696 -5.20195 0
M  V30 10320 O 953.823 0.234564 -5.68716 0
M  V30 10321 N 955.025 2.11119 -5.40748 0
M  V30 10322 H 957.79 -1.02704 -2.81553 0
M  V30 10323 H 955.351 -0.689272 -1.46495 0
M  V30 10324 H 957.343 1.28925 -3.83615 0
M  V30 10325 H 955.913 1.42469 -2.78247 0
M  V30 10326 H 955.133 -0.817041 -3.8564 0
M  V30 10327 H 956.421 -0.592822 -5.05335 0
M  V30 10328 H 955.819 2.58828 -5.03016 0
M  V30 10329 H 954.376 2.63527 -5.96151 0
M  V30 10330 N 957.809 1.4625 -0.587256 0
M  V30 10331 C 958.759 2.27407 0.164393 0
M  V30 10332 C 959.743 1.36138 0.857628 0
M  V30 10333 O 960.935 1.60279 0.750973 0
M  V30 10334 C 958.064 3.22585 1.17447 0
M  V30 10335 C 957.15 4.21339 0.483121 0
M  V30 10336 N 957.541 5.03669 -0.46385 0
M  V30 10337 C 955.839 4.39931 0.73329 0
M  V30 10338 C 956.54 5.75182 -0.868334 0
M  V30 10339 N 955.516 5.43169 -0.216487 0
M  V30 10340 H 959.318 2.88453 -0.563237 0
M  V30 10341 H 956.832 1.57155 -0.409388 0
M  V30 10342 H 958.829 3.79439 1.72718 0
M  V30 10343 H 957.489 2.63098 1.90288 0
M  V30 10344 H 958.5 5.11049 -0.839602 0
M  V30 10345 H 955.177 3.91588 1.44792 0
M  V30 10346 H 956.567 6.51371 -1.64821 0
M  V30 10347 N 959.287 0.325282 1.54207 0
M  V30 10348 C 960.512 -0.281418 2.05482 0
M  V30 10349 C 960.937 -1.44869 1.19977 0
M  V30 10350 O 960.295 -1.80088 0.209275 0
M  V30 10351 C 960.343 -0.692029 3.53897 0
M  V30 10352 O 959.447 -1.7942 3.71325 0
M  V30 10353 H 958.788 -0.0504872 0.662078 0
M  V30 10354 H 961.318 0.474191 1.99029 0
M  V30 10355 H 961.328 -0.974219 3.96198 0
M  V30 10356 H 960.003 0.161709 4.15586 0
M  V30 10357 H 958.58 -1.51069 3.40929 0
M  V30 10358 N 960.765 -1.57509 0.0534917 0
M  V30 10359 C 961.99 -1.97511 -0.632794 0
M  V30 10360 C 962.415 -0.930947 -1.63447 0
M  V30 10361 O 961.773 0.105558 -1.80992 0
M  V30 10362 C 961.821 -3.3658 -1.29407 0
M  V30 10363 O 960.925 -3.3467 -2.40977 0
M  V30 10364 H 960.266 -0.643349 -0.16431 0
M  V30 10365 H 962.796 -2.04232 0.12258 0
M  V30 10366 H 962.806 -3.73359 -1.64521 0
M  V30 10367 H 961.481 -4.12113 -0.559976 0
M  V30 10368 H 960.058 -3.09639 -2.07793 0
M  V30 10369 N 962.243 0.219913 -1.56058 0
M  V30 10370 C 963.49 0.944064 -1.79147 0
M  V30 10371 C 963.818 1.84268 -0.622531 0
M  V30 10372 O 963.073 1.91713 0.393013 0
M  V30 10373 C 963.372 1.81293 -3.08006 0
M  V30 10374 C 963.038 1.0674 -4.38084 0
M  V30 10375 C 961.7 0.86147 -4.73426 0
M  V30 10376 C 964.052 0.541049 -5.18384 0
M  V30 10377 C 961.38 0.117307 -5.86583 0
M  V30 10378 C 963.732 -0.189779 -6.32315 0
M  V30 10379 C 962.396 -0.406951 -6.66258 0
M  V30 10380 H 961.666 0.345458 -0.655546 0
M  V30 10381 H 964.313 0.212121 -1.90322 0
M  V30 10382 H 962.618 2.61278 -2.9196 0
M  V30 10383 H 964.315 2.3754 -3.23072 0
M  V30 10384 H 960.905 1.23789 -4.10334 0
M  V30 10385 H 965.089 0.687617 -4.91514 0
M  V30 10386 H 960.345 -0.0611651 -6.11369 0
M  V30 10387 H 964.519 -0.605134 -6.93766 0
M  V30 10388 H 962.146 -0.985511 -7.53785 0
M  V30 10389 N 963.721 1.49897 0.486681 0
M  V30 10390 C 964.968 1.60105 1.23986 0
M  V30 10391 C 965.296 0.294228 1.92262 0
M  V30 10392 O 964.551 -0.718876 1.82018 0
M  V30 10393 C 964.85 2.71982 2.31863 0
M  V30 10394 C 964.516 4.13 1.80948 0
M  V30 10395 C 963.178 4.51373 1.66782 0
M  V30 10396 C 965.53 5.01198 1.43004 0
M  V30 10397 C 962.858 5.75701 1.13072 0
M  V30 10398 C 965.21 6.26058 0.90742 0
M  V30 10399 C 963.874 6.63247 0.752269 0
M  V30 10400 H 963.144 0.585866 0.453698 0
M  V30 10401 H 965.791 1.83778 0.538305 0
M  V30 10402 H 964.096 2.42336 3.07865 0
M  V30 10403 H 965.793 2.77087 2.89869 0
M  V30 10404 H 962.383 3.82718 1.92937 0
M  V30 10405 H 966.567 4.72196 1.52789 0
M  V30 10406 H 961.823 6.03202 0.997842 0
M  V30 10407 H 965.997 6.9377 0.604684 0
M  V30 10408 H 963.624 7.59466 0.33392 0
M  V30 10409 N 965.199 -0.738761 1.39212 0
M  V30 10410 C 966.448 -1.49368 1.35543 0
M  V30 10411 C 966.761 -1.95543 -0.0471091 0
M  V30 10412 O 967.967 -2.70714 -0.206376 0
M  V30 10413 C 966.423 -2.69882 2.381 0
M  V30 10414 C 966.031 -2.30672 3.8405 0
M  V30 10415 C 967.775 -3.47718 2.435 0
M  V30 10416 C 965.682 -3.47886 4.78256 0
M  V30 10417 H 964.612 -0.560898 0.503894 0
M  V30 10418 H 967.263 -0.806221 1.6484 0
M  V30 10419 H 965.645 -3.40684 2.01867 0
M  V30 10420 H 966.819 -1.67441 4.29302 0
M  V30 10421 H 965.134 -1.65936 3.81909 0
M  V30 10422 H 967.731 -4.34897 3.11077 0
M  V30 10423 H 968.074 -3.89919 1.45838 0
M  V30 10424 H 968.607 -2.83942 2.78606 0
M  V30 10425 H 965.346 -3.10739 5.77167 0
M  V30 10426 H 964.866 -4.10111 4.37686 0
M  V30 10427 H 966.545 -4.14271 4.96979 0
M  V30 10428 N 966.677 -1.24326 -0.968545 0
M  V30 10429 C 967.587 -1.05194 -2.09694 0
M  V30 10430 C 968.603 0.00701291 -1.73999 0
M  V30 10431 O 969.779 -0.190981 -2.00492 0
M  V30 10432 C 966.844 -0.658075 -3.40397 0
M  V30 10433 C 965.905 -1.79341 -3.90045 0
M  V30 10434 C 965.138 -1.41824 -5.14511 0
M  V30 10435 O 965.361 -0.307693 -5.69569 0
M  V30 10436 O 964.295 -2.24358 -5.58522 0
M  V30 10437 H 968.121 -1.99791 -2.2873 0
M  V30 10438 H 965.706 -1.03138 -1.08088 0
M  V30 10439 H 967.588 -0.449911 -4.18991 0
M  V30 10440 H 966.263 0.258782 -3.22664 0
M  V30 10441 H 965.17 -2.05632 -3.12516 0
M  V30 10442 H 966.503 -2.68901 -4.12254 0
M  V30 10443 N 968.156 1.1691 -1.05688 0
M  V30 10444 C 969.381 1.91745 -0.790478 0
M  V30 10445 C 969.806 1.76568 0.648478 0
M  V30 10446 O 969.164 1.08682 1.45114 0
M  V30 10447 C 969.212 3.4067 -1.18222 0
M  V30 10448 O 968.316 4.11177 -0.317341 0
M  V30 10449 H 967.657 0.5976 -0.28943 0
M  V30 10450 H 970.187 1.48157 -1.41105 0
M  V30 10451 H 970.197 3.91424 -1.15114 0
M  V30 10452 H 968.872 3.51036 -2.2304 0
M  V30 10453 H 967.449 3.70645 -0.409459 0
M  V30 10454 N 969.634 0.838594 1.33437 0
M  V30 10455 C 971.045 0.490934 1.8013 0
M  V30 10456 C 971.396 -0.990024 1.6939 0
M  V30 10457 O 970.521 -1.77139 1.24302 0
M  V30 10458 C 971.116 0.884347 3.27055 0
M  V30 10459 C 969.675 0.588829 3.71766 0
M  V30 10460 C 968.822 1.09282 2.54858 0
M  V30 10461 H 971.773 1.02732 1.20962 0
M  V30 10462 H 971.794 0.194283 3.80004 0
M  V30 10463 H 971.306 1.96225 3.34839 0
M  V30 10464 H 969.407 -0.479018 3.69508 0
M  V30 10465 H 969.52 1.14387 4.65245 0
M  V30 10466 H 967.884 0.513702 2.49466 0
M  V30 10467 H 968.667 2.1775 2.65405 0
M  V30 10468 N 971.112 -1.45937 0.595003 0
M  V30 10469 C 972.059 -2.30427 -0.131165 0
M  V30 10470 C 973.029 -1.41355 -0.872232 0
M  V30 10471 O 974.214 -1.70296 -0.860467 0
M  V30 10472 C 971.354 -3.26045 -1.13087 0
M  V30 10473 C 970.467 -4.30218 -0.391982 0
M  V30 10474 C 969.602 -5.12953 -1.3803 0
M  V30 10475 C 968.641 -6.08865 -0.628505 0
M  V30 10476 N 967.778 -6.84425 -1.56548 0
M  V30 10477 H 972.618 -2.91992 0.595359 0
M  V30 10478 H 970.155 -1.43895 0.305405 0
M  V30 10479 H 972.113 -3.79937 -1.72348 0
M  V30 10480 H 970.743 -2.66261 -1.82496 0
M  V30 10481 H 969.795 -3.79086 0.315895 0
M  V30 10482 H 971.107 -4.98418 0.195173 0
M  V30 10483 H 970.261 -5.71184 -2.04534 0
M  V30 10484 H 969 -4.44743 -2.00138 0
M  V30 10485 H 968.005 -5.49777 0.0502431 0
M  V30 10486 H 969.23 -6.79099 -0.012641 0
M  V30 10487 H 967.176 -6.18913 -2.17444 0
M  V30 10488 H 967.093 -7.48931 -1.03145 0
M  V30 10489 H 968.361 -7.47204 -2.22049 0
M  V30 10490 N 972.59 -0.333456 -1.54032 0
M  V30 10491 C 973.815 0.270517 -2.05628 0
M  V30 10492 C 974.24 1.44231 -1.20744 0
M  V30 10493 O 973.598 1.79975 -0.218822 0
M  V30 10494 C 973.646 0.673251 -3.54259 0
M  V30 10495 O 972.75 1.77448 -3.72271 0
M  V30 10496 H 972.091 0.0469753 -0.662336 0
M  V30 10497 H 974.621 -0.484739 -1.98775 0
M  V30 10498 H 974.631 0.953194 -3.96709 0
M  V30 10499 H 973.306 -0.183747 -4.15494 0
M  V30 10500 H 971.883 1.49259 -3.41725 0
M  V30 10501 N 974.068 1.57479 -0.061844 0
M  V30 10502 C 975.293 1.97843 0.622311 0
M  V30 10503 C 975.718 0.939602 1.62951 0
M  V30 10504 O 975.076 -0.095958 1.81046 0
M  V30 10505 C 975.124 3.37262 1.2762 0
M  V30 10506 O 974.228 3.35943 2.39199 0
M  V30 10507 H 973.569 0.644212 0.160896 0
M  V30 10508 H 976.099 2.04165 -0.133409 0
M  V30 10509 H 976.109 3.74226 1.62539 0
M  V30 10510 H 974.784 4.12404 0.538112 0
M  V30 10511 H 973.361 3.10737 2.06148 0
M  V30 10512 N 975.546 -0.211634 1.56173 0
M  V30 10513 C 976.479 -1.28982 1.88252 0
M  V30 10514 C 977.457 -1.4474 0.740889 0
M  V30 10515 O 978.641 -1.60394 0.990249 0
M  V30 10516 C 975.768 -2.65879 2.09824 0
M  V30 10517 C 974.814 -2.67082 3.3252 0
M  V30 10518 S 975.647 -2.2016 4.8815 0
M  V30 10519 C 976.803 -3.58913 5.12769 0
M  V30 10520 H 977.036 -1.01578 2.79409 0
M  V30 10521 H 974.569 -0.414351 1.48736 0
M  V30 10522 H 976.527 -3.44688 2.22935 0
M  V30 10523 H 975.188 -2.90502 1.19447 0
M  V30 10524 H 974.381 -3.67703 3.44689 0
M  V30 10525 H 973.983 -1.96343 3.18317 0
M  V30 10526 H 976.275 -4.54671 5.02276 0
M  V30 10527 H 977.218 -3.51652 6.14611 0
M  V30 10528 H 977.626 -3.5306 4.40465 0
M  V30 10529 N 977.024 -1.50153 -0.478725 0
M  V30 10530 C 977.971 -1.68458 -1.57767 0
M  V30 10531 C 978.941 -0.5259 -1.57555 0
M  V30 10532 O 980.126 -0.755574 -1.75202 0
M  V30 10533 C 977.266 -1.77772 -2.95789 0
M  V30 10534 C 976.379 -3.05092 -3.05848 0
M  V30 10535 C 975.514 -3.05247 -4.34739 0
M  V30 10536 C 974.553 -4.27053 -4.38512 0
M  V30 10537 N 973.69 -4.24991 -5.58862 0
M  V30 10538 H 978.53 -2.62282 -1.41464 0
M  V30 10539 H 976.067 -1.30023 -0.687921 0
M  V30 10540 H 978.025 -1.81152 -3.75819 0
M  V30 10541 H 976.655 -0.873944 -3.10744 0
M  V30 10542 H 975.707 -3.11219 -2.1874 0
M  V30 10543 H 977.019 -3.95075 -3.04495 0
M  V30 10544 H 976.173 -3.07314 -5.23109 0
M  V30 10545 H 974.912 -2.13081 -4.38689 0
M  V30 10546 H 973.917 -4.25206 -3.4854 0
M  V30 10547 H 975.142 -5.20437 -4.36259 0
M  V30 10548 H 973.088 -3.35674 -5.63612 0
M  V30 10549 H 973.005 -5.08734 -5.59219 0
M  V30 10550 H 974.273 -4.31193 -6.49379 0
M  V30 10551 N 978.502 0.731368 -1.39602 0
M  V30 10552 C 979.73 1.52059 -1.40305 0
M  V30 10553 C 980.145 1.888 0.00147921 0
M  V30 10554 O 979.502 1.54354 0.973715 0
M  V30 10555 C 979.553 2.80588 -2.27931 0
M  V30 10556 O 979.274 2.45406 -3.62915 0
M  V30 10557 C 980.775 3.74592 -2.37056 0
M  V30 10558 H 977.995 0.469787 -0.479104 0
M  V30 10559 H 980.539 0.903436 -1.83462 0
M  V30 10560 H 978.694 3.38626 -1.88178 0
M  V30 10561 H 979.108 3.27996 -4.09291 0
M  V30 10562 H 980.582 4.61662 -3.02609 0
M  V30 10563 H 981.059 4.16597 -1.39081 0
M  V30 10564 H 981.665 3.22471 -2.77295 0
M  V30 10565 N 979.98 1.24838 0.961938 0
M  V30 10566 C 980.928 1.0436 2.07874 0
M  V30 10567 C 981.922 -0.0232531 1.69384 0
M  V30 10568 O 983.128 0.131773 1.79517 0
M  V30 10569 H 979.503 0.320492 0.680286 0
M  V30 10570 H 981.474 1.99055 2.22306 0
M  V30 10571 C 980.223 0.671246 3.41159 0
M  V30 10572 H 979.546 1.48395 3.7124 0
M  V30 10573 H 980.986 0.567608 4.20184 0
M  V30 10574 C 979.445 -0.622124 3.31106 0
M  V30 10575 O 979.975 -1.66627 3.65511 0
M  V30 10576 N 978.181 -0.605009 2.84232 0
M  V30 10577 H 977.728 0.245052 2.56432 0
M  V30 10578 H 977.686 -1.47056 2.77888 0
M  V30 10579 N 981.458 -1.16348 1.06306 0
M  V30 10580 C 982.406 -2.22799 0.668087 0
M  V30 10581 C 983.4 -1.66426 -0.316051 0
M  V30 10582 O 984.606 -1.79089 -0.180902 0
M  V30 10583 H 980.981 -0.725487 0.19792 0
M  V30 10584 H 982.952 -2.53401 1.57577 0
M  V30 10585 C 981.701 -3.47628 0.0706797 0
M  V30 10586 H 981.024 -3.9132 0.819064 0
M  V30 10587 H 982.464 -4.23666 -0.16816 0
M  V30 10588 C 980.923 -3.15343 -1.18577 0
M  V30 10589 O 981.453 -3.31158 -2.27371 0
M  V30 10590 N 979.659 -2.69472 -1.08779 0
M  V30 10591 H 979.206 -2.56803 -0.202447 0
M  V30 10592 H 979.164 -2.48244 -1.92931 0
M  V30 10593 N 982.937 -0.845659 -1.3299 0
M  V30 10594 C 984.348 -0.50048 -1.79867 0
M  V30 10595 C 984.699 0.981027 -1.69913 0
M  V30 10596 O 983.824 1.76477 -1.25239 0
M  V30 10597 C 984.419 -0.901679 -3.26581 0
M  V30 10598 C 982.978 -0.608536 -3.71448 0
M  V30 10599 C 982.125 -1.10632 -2.54275 0
M  V30 10600 H 985.076 -1.03372 -1.20416 0
M  V30 10601 H 985.097 -0.214433 -3.79895 0
M  V30 10602 H 984.609 -1.97998 -3.33794 0
M  V30 10603 H 982.71 0.459416 -3.69757 0
M  V30 10604 H 982.823 -1.16853 -4.64631 0
M  V30 10605 H 981.187 -0.526925 -2.4919 0
M  V30 10606 H 981.97 -2.19154 -2.64247 0
M  V30 10607 N 984.415 1.45619 -0.602734 0
M  V30 10608 C 985.345 2.33258 0.106342 0
M  V30 10609 C 986.326 1.46543 0.863664 0
M  V30 10610 O 987.511 1.75324 0.835175 0
M  V30 10611 C 984.641 3.29168 1.10751 0
M  V30 10612 C 983.595 4.25481 0.463717 0
M  V30 10613 C 982.921 5.11046 1.57278 0
M  V30 10614 C 984.221 5.18702 -0.61199 0
M  V30 10615 H 985.915 2.92795 -0.625423 0
M  V30 10616 H 983.461 1.40793 -0.302213 0
M  V30 10617 H 985.414 3.89346 1.61208 0
M  V30 10618 H 984.138 2.6778 1.8698 0
M  V30 10619 H 982.797 3.66595 -0.0199496 0
M  V30 10620 H 982.445 4.46029 2.32524 0
M  V30 10621 H 982.145 5.76286 1.14755 0
M  V30 10622 H 983.669 5.74091 2.07972 0
M  V30 10623 H 985.083 5.72979 -0.191686 0
M  V30 10624 H 983.48 5.92393 -0.958686 0
M  V30 10625 H 984.55 4.61424 -1.4905 0
M  V30 10626 N 985.893 0.34162 1.53853 0
M  V30 10627 C 986.84 -0.516058 2.24957 0
M  V30 10628 C 987.81 -1.09711 1.2471 0
M  V30 10629 O 988.995 -1.13409 1.53438 0
M  V30 10630 C 986.135 -1.66207 3.02439 0
M  V30 10631 C 985.248 -1.10851 4.17536 0
M  V30 10632 C 984.383 -2.22167 4.82509 0
M  V30 10633 C 983.422 -1.64152 5.89678 0
M  V30 10634 N 982.559 -2.69203 6.4844 0
M  V30 10635 H 987.399 0.0968275 2.97843 0
M  V30 10636 H 984.936 0.0595565 1.46979 0
M  V30 10637 H 986.894 -2.33672 3.4562 0
M  V30 10638 H 985.524 -2.24597 2.31853 0
M  V30 10639 H 984.576 -0.324853 3.7901 0
M  V30 10640 H 985.888 -0.644151 4.94623 0
M  V30 10641 H 985.042 -2.97501 5.28751 0
M  V30 10642 H 983.781 -2.71946 4.04842 0
M  V30 10643 H 982.786 -0.873228 5.42821 0
M  V30 10644 H 984.011 -1.15228 6.69253 0
M  V30 10645 H 981.957 -3.1824 5.73637 0
M  V30 10646 H 981.874 -2.27383 7.20994 0
M  V30 10647 H 983.142 -3.44312 6.99335 0
M  V30 10648 N 987.371 -1.57444 0.0701946 0
M  V30 10649 C 988.301 -2.15659 -0.895176 0
M  V30 10650 C 989.282 -1.08321 -1.31151 0
M  V30 10651 O 990.467 -1.36349 -1.38284 0
M  V30 10652 C 987.597 -2.71693 -2.16334 0
M  V30 10653 C 986.551 -3.84183 -1.88645 0
M  V30 10654 C 985.877 -4.26814 -3.22078 0
M  V30 10655 C 987.177 -5.08493 -1.19299 0
M  V30 10656 H 988.871 -2.96576 -0.410217 0
M  V30 10657 H 986.417 -1.42662 -0.195872 0
M  V30 10658 H 988.37 -3.11064 -2.84284 0
M  V30 10659 H 987.094 -1.87994 -2.67069 0
M  V30 10660 H 985.753 -3.45314 -1.23101 0
M  V30 10661 H 985.401 -3.40039 -3.70651 0
M  V30 10662 H 985.101 -5.02642 -3.04344 0
M  V30 10663 H 986.625 -4.68799 -3.91228 0
M  V30 10664 H 988.039 -5.4519 -1.77316 0
M  V30 10665 H 986.436 -5.89588 -1.11828 0
M  V30 10666 H 987.506 -4.84595 -0.171839 0
M  V30 10667 N 988.849 0.203349 -1.56283 0
M  V30 10668 C 990.265 0.55384 -1.49682 0
M  V30 10669 C 990.465 1.86261 -0.768701 0
M  V30 10670 O 989.521 2.50517 -0.315824 0
M  V30 10671 C 990.834 0.616216 -2.94318 0
M  V30 10672 C 992.382 0.705611 -3.04943 0
M  V30 10673 C 992.857 0.79917 -4.50974 0
M  V30 10674 N 994.348 0.862916 -4.55091 0
M  V30 10675 C 995.083 0.955334 -5.65386 0
M  V30 10676 N 994.579 1.01057 -6.8539 0
M  V30 10677 N 996.372 0.991884 -5.53279 0
M  V30 10678 H 988.523 -0.655244 -2.0204 0
M  V30 10679 H 990.786 -0.232344 -0.919087 0
M  V30 10680 H 990.492 -0.27619 -3.50614 0
M  V30 10681 H 990.366 1.47371 -3.4722 0
M  V30 10682 H 992.753 1.58845 -2.48701 0
M  V30 10683 H 992.834 -0.177921 -2.5518 0
M  V30 10684 H 992.478 -0.0792841 -5.07838 0
M  V30 10685 H 992.408 1.69838 -4.9846 0
M  V30 10686 H 994.899 0.829812 -3.68677 0
M  V30 10687 H 995.212 1.08137 -7.65197 0
M  V30 10688 H 993.557 0.979384 -6.88065 0
M  V30 10689 H 996.748 0.945514 -4.58451 0
M  V30 10690 H 996.921 1.06045 -6.39264 0
M  V30 10691 N 990.327 1.50405 0.470755 0
M  V30 10692 C 991.29 1.68741 1.5511 0
M  V30 10693 C 992.29 0.558116 1.50804 0
M  V30 10694 O 993.48 0.825149 1.53418 0
M  V30 10695 C 990.612 1.71295 2.94739 0
M  V30 10696 H 991.805 2.65127 1.40169 0
M  V30 10697 H 989.358 1.39891 0.697156 0
M  V30 10698 H 990.093 0.766029 3.15123 0
M  V30 10699 H 989.878 2.53336 2.99271 0
M  V30 10700 H 991.368 1.87434 3.73173 0
M  V30 10701 N 991.805 -0.723954 1.39988 0
M  V30 10702 C 992.735 -1.85103 1.42335 0
M  V30 10703 C 993.716 -1.6769 0.285297 0
M  V30 10704 O 994.901 -1.87846 0.492716 0
M  V30 10705 C 992.031 -3.22972 1.27697 0
M  V30 10706 C 990.985 -3.55041 2.39018 0
M  V30 10707 C 990.311 -4.91965 2.09462 0
M  V30 10708 C 991.611 -3.56889 3.8135 0
M  V30 10709 H 993.305 -1.83396 2.36656 0
M  V30 10710 H 990.851 -0.880926 1.13911 0
M  V30 10711 H 992.804 -4.01503 1.27958 0
M  V30 10712 H 991.528 -3.25233 0.298487 0
M  V30 10713 H 990.187 -2.78845 2.37993 0
M  V30 10714 H 989.835 -4.90819 1.10025 0
M  V30 10715 H 989.535 -5.14389 2.84038 0
M  V30 10716 H 991.059 -5.7284 2.11391 0
M  V30 10717 H 992.473 -4.25476 3.84243 0
M  V30 10718 H 990.87 -3.90836 4.55376 0
M  V30 10719 H 991.94 -2.56452 4.11534 0
M  V30 10720 N 993.283 -1.25346 -0.955304 0
M  V30 10721 C 994.23 -1.05672 -2.05188 0
M  V30 10722 C 995.2 0.0339217 -1.66065 0
M  V30 10723 O 996.385 -0.123126 -1.90402 0
M  V30 10724 C 993.525 -0.680791 -3.38318 0
M  V30 10725 C 992.638 -1.84622 -3.90562 0
M  V30 10726 C 991.773 -1.41471 -5.12015 0
M  V30 10727 C 990.812 -2.54931 -5.56486 0
M  V30 10728 N 989.949 -2.1256 -6.69151 0
M  V30 10729 H 994.789 -1.9952 -2.2135 0
M  V30 10730 H 992.326 -0.993588 -1.08472 0
M  V30 10731 H 994.284 -0.443794 -4.14833 0
M  V30 10732 H 992.914 0.2207 -3.22045 0
M  V30 10733 H 991.966 -2.19654 -3.10574 0
M  V30 10734 H 993.278 -2.6983 -4.19515 0
M  V30 10735 H 992.432 -1.13732 -5.95945 0
M  V30 10736 H 991.171 -0.533334 -4.84775 0
M  V30 10737 H 990.176 -2.83415 -4.71122 0
M  V30 10738 H 991.401 -3.43645 -5.85734 0
M  V30 10739 H 989.347 -1.26838 -6.43621 0
M  V30 10740 H 989.264 -2.91317 -6.97618 0
M  V30 10741 H 990.532 -1.87996 -7.5649 0
M  V30 10742 N 994.761 1.15782 -1.06922 0
M  V30 10743 C 996.007 1.86741 -0.790922 0
M  V30 10744 C 996.34 1.81863 0.681149 0
M  V30 10745 O 995.615 1.23871 1.49954 0
M  V30 10746 C 995.898 3.36038 -1.29422 0
M  V30 10747 C 995.751 3.49573 -2.83052 0
M  V30 10748 C 997.07 4.30647 -0.907239 0
M  V30 10749 H 994.189 0.678064 -0.288787 0
M  V30 10750 H 996.831 1.36054 -1.32624 0
M  V30 10751 H 994.981 3.79336 -0.838843 0
M  V30 10752 H 996.653 3.1517 -3.36847 0
M  V30 10753 H 994.896 2.91275 -3.21467 0
M  V30 10754 H 995.567 4.5445 -3.13335 0
M  V30 10755 H 998.043 3.95286 -1.29956 0
M  V30 10756 H 996.919 5.33604 -1.28679 0
M  V30 10757 H 997.18 4.41703 0.187251 0
M  V30 10758 N 996.239 0.8527 1.3254 0
M  V30 10759 C 997.187 0.284659 2.30852 0
M  V30 10760 C 998.181 -0.5909 1.5876 0
M  V30 10761 O 999.387 -0.478922 1.73512 0
M  V30 10762 H 995.762 0.0733452 0.748415 0
M  V30 10763 H 997.733 1.1281 2.76254 0
M  V30 10764 C 996.482 -0.51379 3.43883 0
M  V30 10765 H 995.805 0.150644 3.99516 0
M  V30 10766 H 997.245 -0.876866 4.14834 0
M  V30 10767 C 995.704 -1.69823 2.90967 0
M  V30 10768 O 996.234 -2.79727 2.88298 0
M  V30 10769 N 994.44 -1.52465 2.47392 0
M  V30 10770 H 993.987 -0.630599 2.49762 0
M  V30 10771 H 993.945 -2.31859 2.12341 0
M  V30 10772 N 997.718 -1.45297 0.610449 0
M  V30 10773 C 998.965 -2.02218 0.106759 0
M  V30 10774 C 999.293 -1.47849 -1.26376 0
M  V30 10775 O 998.548 -0.644402 -1.84786 0
M  V30 10776 C 998.847 -3.57394 0.0205329 0
M  V30 10777 C 998.513 -4.30928 1.32709 0
M  V30 10778 C 997.175 -4.50735 1.68498 0
M  V30 10779 C 999.527 -4.72936 2.19046 0
M  V30 10780 C 996.855 -5.09806 2.90371 0
M  V30 10781 C 999.207 -5.33355 3.40169 0
M  V30 10782 C 997.871 -5.51384 3.76207 0
M  V30 10783 H 997.141 -0.739969 0.039066 0
M  V30 10784 H 999.788 -1.74326 0.792638 0
M  V30 10785 H 998.093 -3.84581 -0.748623 0
M  V30 10786 H 999.79 -3.99144 -0.385386 0
M  V30 10787 H 996.38 -4.15827 1.03854 0
M  V30 10788 H 1000.56 -4.57365 1.92695 0
M  V30 10789 H 995.82 -5.21953 3.18395 0
M  V30 10790 H 999.994 -5.64859 4.07318 0
M  V30 10791 H 997.621 -5.96924 4.70729 0
M  V30 10792 N 999.196 -0.349774 -1.5367 0
M  V30 10793 C 1000.13 0.547309 -2.2154 0
M  V30 10794 C 1001.11 1.09543 -1.20163 0
M  V30 10795 O 1002.29 1.15453 -1.49006 0
M  V30 10796 C 999.418 1.75356 -2.89772 0
M  V30 10797 C 998.464 1.33433 -4.0509 0
M  V30 10798 S 999.297 0.348891 -5.34362 0
M  V30 10799 C 1000.45 1.56183 -6.061 0
M  V30 10800 H 1000.69 -0.0291392 -2.97286 0
M  V30 10801 H 998.219 -0.133853 -1.53819 0
M  V30 10802 H 1000.18 2.44555 -3.29701 0
M  V30 10803 H 998.838 2.30123 -2.1378 0
M  V30 10804 H 998.031 2.23388 -4.5179 0
M  V30 10805 H 997.633 0.721746 -3.6697 0
M  V30 10806 H 999.925 2.49535 -6.29872 0
M  V30 10807 H 1000.87 1.13651 -6.9892 0
M  V30 10808 H 1001.28 1.76071 -5.36339 0
M  V30 10809 N 1000.67 1.57404 -0.0785433 0
M  V30 10810 C 1001.58 2.16612 0.900902 0
M  V30 10811 C 1002.6 1.13109 1.32221 0
M  V30 10812 O 1003.78 1.45406 1.39352 0
M  V30 10813 C 1000.84 2.7215 2.14791 0
M  V30 10814 C 999.902 3.90551 1.78237 0
M  V30 10815 C 999.135 4.43431 2.96993 0
M  V30 10816 O 999.358 3.95292 4.11218 0
M  V30 10817 O 998.292 5.34674 2.76418 0
M  V30 10818 H 1002.12 3.0068 0.427227 0
M  V30 10819 H 999.703 1.48696 0.144902 0
M  V30 10820 H 1001.58 3.07718 2.87902 0
M  V30 10821 H 1000.26 1.91139 2.61243 0
M  V30 10822 H 999.167 3.59825 1.02357 0
M  V30 10823 H 1000.5 4.72876 1.36562 0
M  V30 10824 N 1002.15 -0.195058 1.56388 0
M  V30 10825 C 1003.4 -0.913636 1.8027 0
M  V30 10826 C 1003.72 -1.83791 0.651606 0
M  V30 10827 O 1002.99 -1.931 -0.330057 0
M  V30 10828 H 1001.57 -0.34036 0.664954 0
M  V30 10829 H 1004.23 -0.200559 1.93865 0
M  V30 10830 H 1003.33 -1.50473 2.7343 0
M  V30 10831 N 1003.63 -1.50653 -0.462772 0
M  V30 10832 C 1004.91 -1.5258 -1.22387 0
M  V30 10833 C 1005.29 -0.275263 -2.09298 0
M  V30 10834 O 1004.63 0.740943 -2.16153 0
M  V30 10835 C 1004.84 -2.82611 -2.04773 0
M  V30 10836 C 1006.19 -3.33592 -2.62681 0
M  V30 10837 O 1007.22 -2.83989 -2.15008 0
M  V30 10838 O 1006.08 -4.20081 -3.49563 0
M  V30 10839 H 1003.17 -0.612367 -0.55582 0
M  V30 10840 H 1005.72 -1.62948 -0.473914 0
M  V30 10841 H 1004.49 -3.65098 -1.40781 0
M  V30 10842 H 1004.11 -2.75286 -2.86886 0
M  V30 10843 N 1005.11 0.71652 -1.4037 0
M  V30 10844 C 1006.52 1.29562 -1.34427 0
M  V30 10845 C 1006.87 1.96192 -0.0173106 0
M  V30 10846 O 1006 1.97488 0.884719 0
M  V30 10847 C 1006.59 2.35601 -2.4347 0
M  V30 10848 C 1005.15 2.89138 -2.4099 0
M  V30 10849 C 1004.3 1.62915 -2.24397 0
M  V30 10850 H 1007.25 0.512715 -1.5019 0
M  V30 10851 H 1007.27 3.16422 -2.11323 0
M  V30 10852 H 1006.78 1.87077 -3.40035 0
M  V30 10853 H 1004.88 3.41894 -1.4812 0
M  V30 10854 H 1004.99 3.40995 -3.3654 0
M  V30 10855 H 1003.36 1.87947 -1.71896 0
M  V30 10856 H 1004.14 1.16417 -3.22958 0
M  V30 10857 N 1006.59 1.25851 0.948643 0
M  V30 10858 C 1007.81 1.13813 1.73382 0
M  V30 10859 C 1008.24 -0.303615 1.85633 0
M  V30 10860 O 1007.59 -1.21997 1.34114 0
M  V30 10861 C 1007.64 1.80388 3.12238 0
M  V30 10862 O 1006.75 1.08759 3.978 0
M  V30 10863 H 1006.09 0.397006 0.532243 0
M  V30 10864 H 1008.62 1.66529 1.18866 0
M  V30 10865 H 1008.63 1.86913 3.62667 0
M  V30 10866 H 1007.3 2.85278 3.02637 0
M  V30 10867 H 1005.88 1.10157 3.56258 0
M  V30 10868 N 1008.06 -1.15214 1.07534 0
M  V30 10869 C 1009.48 -1.67628 0.822045 0
M  V30 10870 C 1009.83 -1.8503 -0.652571 0
M  V30 10871 O 1008.95 -1.55497 -1.50498 0
M  V30 10872 C 1009.55 -3.04489 1.48566 0
M  V30 10873 C 1008.11 -3.53974 1.27983 0
M  V30 10874 C 1007.25 -2.29656 1.55414 0
M  V30 10875 H 1010.2 -0.994016 1.23713 0
M  V30 10876 H 1010.22 -3.69509 0.907916 0
M  V30 10877 H 1009.74 -2.91792 2.55888 0
M  V30 10878 H 1007.84 -3.71908 0.226906 0
M  V30 10879 H 1007.95 -4.35298 2.0013 0
M  V30 10880 H 1006.31 -2.35289 0.975251 0
M  V30 10881 H 1007.1 -2.19544 2.63923 0
M  V30 10882 N 1009.54 -0.859717 -1.32086 0
M  V30 10883 C 1010.47 -0.323502 -2.31248 0
M  V30 10884 C 1011.45 0.580085 -1.59903 0
M  V30 10885 O 1012.64 0.499265 -1.87673 0
M  V30 10886 C 1009.77 0.484661 -3.43902 0
M  V30 10887 C 1008.72 -0.324933 -4.26765 0
M  V30 10888 C 1008.05 0.608281 -5.31229 0
M  V30 10889 C 1009.35 -1.55344 -4.98664 0
M  V30 10890 H 1011.04 -1.15209 -2.76346 0
M  V30 10891 H 1008.59 -0.555442 -1.32856 0
M  V30 10892 H 1010.54 0.870238 -4.12316 0
M  V30 10893 H 1009.27 1.34666 -2.97544 0
M  V30 10894 H 1007.92 -0.692328 -3.60003 0
M  V30 10895 H 1007.57 1.46727 -4.81124 0
M  V30 10896 H 1007.27 0.0705571 -5.87558 0
M  V30 10897 H 1008.8 0.990925 -6.02506 0
M  V30 10898 H 1010.21 -1.23987 -5.59732 0
M  V30 10899 H 1008.61 -2.02947 -5.64741 0
M  V30 10900 H 1009.68 -2.31192 -4.26237 0
M  V30 10901 N 1011.02 1.44971 -0.618145 0
M  V30 10902 C 1011.95 2.33357 0.0815955 0
M  V30 10903 C 1012.93 1.47451 0.848072 0
M  V30 10904 O 1014.12 1.762 0.816532 0
M  V30 10905 C 1011.25 3.30324 1.07253 0
M  V30 10906 C 1010.2 4.25948 0.418563 0
M  V30 10907 C 1009.53 5.12685 1.51849 0
M  V30 10908 C 1010.83 5.18024 -0.66697 0
M  V30 10909 H 1012.52 2.92115 -0.656442 0
M  V30 10910 H 1010.07 1.40465 -0.317129 0
M  V30 10911 H 1012.02 3.91033 1.57069 0
M  V30 10912 H 1010.74 2.69748 1.8413 0
M  V30 10913 H 1009.4 3.66553 -0.0588308 0
M  V30 10914 H 1009.05 4.4847 2.2778 0
M  V30 10915 H 1008.75 5.7747 1.08637 0
M  V30 10916 H 1010.27 5.76264 2.01871 0
M  V30 10917 H 1011.69 5.72744 -0.252448 0
M  V30 10918 H 1010.09 5.91343 -1.02146 0
M  V30 10919 H 1011.16 4.59817 -1.53936 0
M  V30 10920 N 1012.5 0.357919 1.53482 0
M  V30 10921 C 1013.91 -0.122938 1.86295 0
M  V30 10922 C 1014.26 -1.48803 1.27875 0
M  V30 10923 O 1013.39 -2.07978 0.597828 0
M  V30 10924 C 1013.98 -0.229853 3.38019 0
M  V30 10925 C 1012.54 -0.654955 3.70658 0
M  V30 10926 C 1011.69 0.202539 2.76559 0
M  V30 10927 H 1014.64 0.576997 1.47839 0
M  V30 10928 H 1014.66 -1.05481 3.65587 0
M  V30 10929 H 1014.17 0.763825 3.80509 0
M  V30 10930 H 1012.27 -1.65714 3.33721 0
M  V30 10931 H 1012.38 -0.43488 4.77122 0
M  V30 10932 H 1010.75 -0.327388 2.52587 0
M  V30 10933 H 1011.53 1.19361 3.21882 0
M  V30 10934 N 1013.98 -1.5736 0.0868897 0
M  V30 10935 C 1015.22 -1.94341 -0.579598 0
M  V30 10936 C 1015.56 -0.968238 -1.68341 0
M  V30 10937 O 1014.83 8.29649e-05 -1.945 0
M  V30 10938 C 1015.11 -3.41497 -1.14245 0
M  V30 10939 C 1014.97 -4.49778 -0.044255 0
M  V30 10940 C 1016.29 -3.89788 -2.04336 0
M  V30 10941 H 1013.4 -0.70668 -0.20922 0
M  V30 10942 H 1016.05 -1.89359 0.15593 0
M  V30 10943 H 1014.2 -3.45873 -1.76929 0
M  V30 10944 H 1015.87 -4.57517 0.58959 0
M  V30 10945 H 1014.11 -4.293 0.623207 0
M  V30 10946 H 1014.78 -5.4992 -0.478749 0
M  V30 10947 H 1017.26 -3.87513 -1.51569 0
M  V30 10948 H 1016.13 -4.93335 -2.40648 0
M  V30 10949 H 1016.4 -3.28603 -2.95757 0
M  V30 10950 N 1015.45 0.186762 -1.56489 0
M  V30 10951 C 1016.38 1.23395 -1.98232 0
M  V30 10952 C 1017.37 1.4702 -0.855526 0
M  V30 10953 O 1018.55 1.58616 -1.12048 0
M  V30 10954 C 1015.68 2.57635 -2.32898 0
M  V30 10955 C 1014.63 2.48607 -3.48394 0
M  V30 10956 C 1013.96 3.87196 -3.68759 0
M  V30 10957 C 1015.26 2.00398 -4.82325 0
M  V30 10958 H 1016.95 0.887026 -2.85958 0
M  V30 10959 H 1014.5 0.42525 -1.37578 0
M  V30 10960 H 1016.45 3.31082 -2.60696 0
M  V30 10961 H 1015.18 2.94084 -1.42064 0
M  V30 10962 H 1013.84 1.77615 -3.207 0
M  V30 10963 H 1013.48 4.21012 -2.75241 0
M  V30 10964 H 1013.18 3.82029 -4.46462 0
M  V30 10965 H 1014.71 4.62253 -3.98941 0
M  V30 10966 H 1016.12 2.6361 -5.091 0
M  V30 10967 H 1014.52 2.06214 -5.63556 0
M  V30 10968 H 1015.59 0.957562 -4.75351 0
M  V30 10969 N 1016.93 1.50896 0.454776 0
M  V30 10970 C 1018.18 1.62378 1.20324 0
M  V30 10971 C 1018.5 0.333883 1.9212 0
M  V30 10972 O 1017.77 -0.649477 1.8482 0
M  V30 10973 H 1016.35 0.598395 0.447139 0
M  V30 10974 H 1019.01 1.87749 0.523102 0
M  V30 10975 H 1018.11 2.44296 1.94232 0
M  V30 10976 N 1018.41 -0.709066 1.40748 0
M  V30 10977 C 1019.34 -1.83293 1.35937 0
M  V30 10978 C 1020.32 -1.60983 0.22871 0
M  V30 10979 O 1021.51 -1.8391 0.413435 0
M  V30 10980 C 1018.63 -3.19746 1.11714 0
M  V30 10981 C 1017.68 -3.60872 2.27319 0
M  V30 10982 S 1018.51 -3.67233 3.89743 0
M  V30 10983 C 1019.67 -5.06434 3.67797 0
M  V30 10984 H 1019.9 -1.87095 2.31047 0
M  V30 10985 H 1017.43 -0.876479 1.27111 0
M  V30 10986 H 1019.39 -3.98526 0.984245 0
M  V30 10987 H 1018.05 -3.1357 0.182472 0
M  V30 10988 H 1017.25 -4.59965 2.06029 0
M  V30 10989 H 1016.85 -2.89366 2.36946 0
M  V30 10990 H 1019.14 -5.93544 3.26668 0
M  V30 10991 H 1020.08 -5.32761 4.66445 0
M  V30 10992 H 1020.49 -4.77336 3.01348 0
M  V30 10993 N 1019.89 -1.26353 -0.941956 0
M  V30 10994 C 1021.12 -1.1446 -1.71996 0
M  V30 10995 C 1021.53 0.302957 -1.86759 0
M  V30 10996 O 1020.87 1.2193 -1.374 0
M  V30 10997 C 1020.93 -1.73986 -3.14593 0
M  V30 10998 C 1020.6 -3.23078 -3.23217 0
M  V30 10999 C 1021.59 -4.19905 -3.06554 0
M  V30 11000 C 1019.28 -3.63526 -3.46632 0
M  V30 11001 C 1021.27 -5.55159 -3.13172 0
M  V30 11002 C 1018.96 -4.98914 -3.52886 0
M  V30 11003 C 1019.96 -5.9454 -3.36172 0
M  V30 11004 O 1019.65 -7.27462 -3.42132 0
M  V30 11005 H 1019.38 -0.399453 -0.545356 0
M  V30 11006 H 1021.93 -1.67455 -1.18945 0
M  V30 11007 H 1020.16 -1.15453 -3.69063 0
M  V30 11008 H 1021.85 -1.57011 -3.74302 0
M  V30 11009 H 1022.62 -3.89995 -2.88321 0
M  V30 11010 H 1018.5 -2.8958 -3.58698 0
M  V30 11011 H 1022.04 -6.29777 -3.00044 0
M  V30 11012 H 1017.94 -5.28485 -3.70639 0
M  V30 11013 H 1018.7 -7.35725 -3.5868 0
M  V30 11014 N 1021.37 1.14642 -1.08144 0
M  V30 11015 C 1022.32 2.17665 -0.678661 0
M  V30 11016 C 1023.3 1.58072 0.300336 0
M  V30 11017 O 1024.49 1.7664 0.112781 0
M  V30 11018 C 1021.62 3.43191 -0.0866362 0
M  V30 11019 C 1020.71 4.0982 -1.09126 0
M  V30 11020 N 1021.1 4.51814 -2.27372 0
M  V30 11021 C 1019.4 4.36272 -0.926411 0
M  V30 11022 C 1020.1 5.03581 -2.91172 0
M  V30 11023 N 1019.07 4.97624 -2.18795 0
M  V30 11024 H 1022.88 2.47872 -1.57914 0
M  V30 11025 H 1020.39 1.31296 -0.955772 0
M  V30 11026 H 1022.39 4.1632 0.219859 0
M  V30 11027 H 1021.05 3.14464 0.80886 0
M  V30 11028 H 1022.06 4.44941 -2.65044 0
M  V30 11029 H 1018.74 4.17414 -0.084492 0
M  V30 11030 H 1020.13 5.45969 -3.91621 0
M  V30 11031 N 1022.85 0.866709 1.31628 0
M  V30 11032 C 1024.12 0.396828 1.91532 0
M  V30 11033 C 1024.5 -1.12081 1.78889 0
M  V30 11034 O 1023.85 -1.94791 1.19452 0
M  V30 11035 C 1024.06 0.874578 3.37864 0
M  V30 11036 C 1025.41 0.8988 4.14978 0
M  V30 11037 O 1026.43 0.820014 3.46633 0
M  V30 11038 O 1025.29 1.01223 5.37044 0
M  V30 11039 H 1022.39 0.1181 0.818524 0
M  V30 11040 H 1024.93 0.954407 1.40318 0
M  V30 11041 H 1023.7 1.91807 3.41066 0
M  V30 11042 H 1023.33 0.295126 3.96503 0
M  V30 11043 N 1024.32 -1.44642 0.625825 0
M  V30 11044 C 1025.73 -1.85502 0.211175 0
M  V30 11045 C 1026.09 -1.52356 -1.2362 0
M  V30 11046 O 1025.21 -0.959051 -1.93988 0
M  V30 11047 C 1025.81 -3.36702 0.37648 0
M  V30 11048 C 1024.36 -3.76396 0.0163795 0
M  V30 11049 C 1023.51 -2.68517 0.692368 0
M  V30 11050 H 1026.46 -1.35183 0.831333 0
M  V30 11051 H 1026.48 -3.78536 -0.386106 0
M  V30 11052 H 1026 -3.60795 1.42999 0
M  V30 11053 H 1024.1 -3.57919 -1.0356 0
M  V30 11054 H 1024.21 -4.77231 0.422742 0
M  V30 11055 H 1022.57 -2.54377 0.128191 0
M  V30 11056 H 1023.36 -2.95444 1.74837 0
M  V30 11057 N 1025.8 -0.366053 -1.5329 0
M  V30 11058 C 1026.73 0.47211 -2.28677 0
M  V30 11059 C 1027.71 1.08353 -1.31125 0
M  V30 11060 O 1028.9 1.10069 -1.59995 0
M  V30 11061 C 1026.03 1.61174 -3.07637 0
M  V30 11062 C 1024.98 1.12755 -4.12881 0
M  V30 11063 C 1024.31 2.35745 -4.79925 0
M  V30 11064 C 1025.61 0.211954 -5.2187 0
M  V30 11065 H 1027.3 -0.156838 -2.98989 0
M  V30 11066 H 1024.85 -0.0768709 -1.43795 0
M  V30 11067 H 1026.8 2.20473 -3.59123 0
M  V30 11068 H 1025.52 2.26793 -2.35016 0
M  V30 11069 H 1024.18 0.557234 -3.6234 0
M  V30 11070 H 1023.83 2.99821 -4.03877 0
M  V30 11071 H 1023.53 2.04019 -5.51044 0
M  V30 11072 H 1025.06 2.95729 -5.34207 0
M  V30 11073 H 1026.47 0.71244 -5.68856 0
M  V30 11074 H 1024.87 -0.0144501 -6.00098 0
M  V30 11075 H 1025.94 -0.745753 -4.79131 0
M  V30 11076 N 1027.28 1.57312 -0.0952337 0
M  V30 11077 C 1028.7 1.57445 0.261416 0
M  V30 11078 C 1028.9 1.10639 1.68408 0
M  V30 11079 O 1027.95 0.782912 2.40056 0
M  V30 11080 C 1029.26 3.00659 0.0497206 0
M  V30 11081 C 1030.81 3.1278 0.117459 0
M  V30 11082 C 1031.29 4.57952 -0.0662441 0
M  V30 11083 N 1032.78 4.63199 -0.0114146 0
M  V30 11084 C 1033.51 5.73255 -0.128799 0
M  V30 11085 N 1033.01 6.92146 -0.301026 0
M  V30 11086 N 1034.8 5.62056 -0.0700599 0
M  V30 11087 H 1026.95 1.86045 -1.02475 0
M  V30 11088 H 1029.22 0.858726 -0.401614 0
M  V30 11089 H 1028.92 3.39102 -0.932888 0
M  V30 11090 H 1028.8 3.68792 0.791975 0
M  V30 11091 H 1031.18 2.74209 1.09057 0
M  V30 11092 H 1031.26 2.47238 -0.656288 0
M  V30 11093 H 1030.91 4.97217 -1.03623 0
M  V30 11094 H 1030.84 5.21555 0.727198 0
M  V30 11095 H 1033.33 3.77712 0.119154 0
M  V30 11096 H 1033.64 7.71855 -0.382104 0
M  V30 11097 H 1031.99 6.94184 -0.336695 0
M  V30 11098 H 1035.18 4.68057 0.0633587 0
M  V30 11099 H 1035.35 6.4779 -0.164991 0
M  V30 11100 N 1028.76 -0.17846 1.56586 0
M  V30 11101 C 1029.71 -1.24042 1.96765 0
M  V30 11102 C 1030.7 -1.46218 0.855375 0
M  V30 11103 O 1031.91 -1.46882 1.04046 0
M  V30 11104 H 1028.28 -0.416807 0.62592 0
M  V30 11105 H 1030.25 -0.874644 2.85294 0
M  V30 11106 C 1029 -2.57394 2.3376 0
M  V30 11107 H 1028.32 -2.41151 3.18883 0
M  V30 11108 H 1029.76 -3.30405 2.65723 0
M  V30 11109 C 1028.22 -3.15621 1.17835 0
M  V30 11110 O 1028.75 -3.99032 0.462202 0
M  V30 11111 N 1026.96 -2.74606 0.950783 0
M  V30 11112 H 1026.51 -2.06878 1.5349 0
M  V30 11113 H 1026.46 -3.13902 0.176967 0
M  V30 11114 N 1030.24 -1.51135 -0.446768 0
M  V30 11115 C 1031.65 -1.39101 -0.782504 0
M  V30 11116 C 1031.85 -0.46599 -1.96038 0
M  V30 11117 O 1030.91 0.0823679 -2.52366 0
M  V30 11118 C 1032.22 -2.80953 -1.07173 0
M  V30 11119 C 1033.77 -2.90038 -1.17673 0
M  V30 11120 C 1034.24 -4.32777 -1.49894 0
M  V30 11121 N 1035.73 -4.3584 -1.56837 0
M  V30 11122 C 1036.47 -5.43305 -1.83322 0
M  V30 11123 N 1035.97 -6.60945 -2.07662 0
M  V30 11124 N 1037.76 -5.30775 -1.85026 0
M  V30 11125 H 1029.91 -2.09835 0.329114 0
M  V30 11126 H 1032.17 -0.944199 0.0848054 0
M  V30 11127 H 1031.88 -3.50591 -0.279037 0
M  V30 11128 H 1031.75 -3.197 -2.00179 0
M  V30 11129 H 1034.14 -2.20603 -1.96005 0
M  V30 11130 H 1034.22 -2.54801 -0.225892 0
M  V30 11131 H 1033.86 -5.02757 -0.720924 0
M  V30 11132 H 1033.79 -4.6552 -2.46168 0
M  V30 11133 H 1036.29 -3.51023 -1.39968 0
M  V30 11134 H 1036.6 -7.38643 -2.27214 0
M  V30 11135 H 1034.94 -6.64077 -2.05003 0
M  V30 11136 H 1038.13 -4.37858 -1.65523 0
M  V30 11137 H 1038.31 -6.14609 -2.05329 0
M  V30 11138 N 1031.71 0.701592 -1.41122 0
M  V30 11139 C 1032.96 1.45871 -1.39879 0
M  V30 11140 C 1033.28 1.94999 -0.00668769 0
M  V30 11141 O 1032.55 1.71298 0.95047 0
M  V30 11142 H 1031.13 0.541231 -0.514857 0
M  V30 11143 H 1033.79 0.830803 -1.76306 0
M  V30 11144 H 1032.89 2.32479 -2.0823 0
M  V30 11145 N 1033.19 1.2685 0.935242 0
M  V30 11146 C 1034.42 1.15645 1.72165 0
M  V30 11147 C 1034.84 -0.283909 1.85945 0
M  V30 11148 O 1034.2 -1.20567 1.354 0
M  V30 11149 C 1034.25 1.83689 3.10307 0
M  V30 11150 O 1033.35 1.12972 3.96625 0
M  V30 11151 H 1032.69 0.402629 0.528002 0
M  V30 11152 H 1035.22 1.67781 1.17093 0
M  V30 11153 H 1035.23 1.90749 3.60664 0
M  V30 11154 H 1033.91 2.88472 2.99595 0
M  V30 11155 H 1032.48 1.13929 3.5507 0
M  V30 11156 N 1034.67 -1.14067 1.0875 0
M  V30 11157 C 1035.63 -2.17453 0.724341 0
M  V30 11158 C 1036.63 -1.58959 -0.242614 0
M  V30 11159 O 1037.82 -1.74186 -0.0217008 0
M  V30 11160 C 1034.96 -3.40828 0.0700236 0
M  V30 11161 H 1036.15 -2.51094 1.63987 0
M  V30 11162 H 1033.7 -1.28775 0.885813 0
M  V30 11163 H 1034.44 -3.1277 -0.857061 0
M  V30 11164 H 1034.22 -3.84551 0.76569 0
M  V30 11165 H 1035.71 -4.17258 -0.168905 0
M  V30 11166 N 1036.15 -0.873678 -1.31166 0
M  V30 11167 C 1037.11 -0.337069 -2.26708 0
M  V30 11168 C 1038.11 0.51406 -1.52362 0
M  V30 11169 O 1039.3 0.322834 -1.71182 0
M  V30 11170 C 1036.43 0.520897 -3.36897 0
M  V30 11171 H 1037.63 -1.18056 -2.75686 0
M  V30 11172 H 1035.18 -0.649577 -1.42163 0
M  V30 11173 H 1035.91 1.38543 -2.93217 0
M  V30 11174 H 1035.7 -0.0886015 -3.92 0
M  V30 11175 H 1037.19 0.888497 -4.08039 0
M  V30 11176 N 1037.63 1.44308 -0.633487 0
M  V30 11177 C 1038.59 2.2912 0.060376 0
M  V30 11178 C 1039.59 1.41166 0.769992 0
M  V30 11179 O 1040.78 1.63012 0.614224 0
M  V30 11180 C 1037.91 3.22798 1.0961 0
M  V30 11181 H 1039.1 2.91958 -0.685617 0
M  V30 11182 H 1036.66 1.51259 -0.393738 0
M  V30 11183 H 1037.39 2.64815 1.87199 0
M  V30 11184 H 1037.18 3.87618 0.591161 0
M  V30 11185 H 1038.67 3.86504 1.58127 0
M  V30 11186 N 1039.1 0.374177 1.53094 0
M  V30 11187 C 1040.07 -0.455999 2.24618 0
M  V30 11188 C 1041.07 -1.00269 1.25709 0
M  V30 11189 O 1042.26 -0.887077 1.49922 0
M  V30 11190 C 1039.39 -1.63822 2.98957 0
M  V30 11191 H 1040.58 0.169986 2.99418 0
M  V30 11192 H 1038.14 0.126015 1.55791 0
M  V30 11193 H 1038.87 -2.30205 2.28421 0
M  V30 11194 H 1038.66 -1.25308 3.71538 0
M  V30 11195 H 1040.15 -2.22633 3.53305 0
M  V30 11196 N 1040.58 -1.57259 0.103575 0
M  V30 11197 C 1041.83 -1.94945 -0.558953 0
M  V30 11198 C 1042.16 -0.986038 -1.67305 0
M  V30 11199 O 1041.44 -0.0205464 -1.94489 0
M  V30 11200 C 1041.72 -3.42689 -1.10617 0
M  V30 11201 C 1041.57 -4.498 0.00345246 0
M  V30 11202 C 1042.89 -3.91933 -2.00191 0
M  V30 11203 H 1040.01 -0.708859 -0.201713 0
M  V30 11204 H 1042.65 -1.89183 0.176006 0
M  V30 11205 H 1040.8 -3.4773 -1.73251 0
M  V30 11206 H 1042.47 -4.56866 0.638082 0
M  V30 11207 H 1040.72 -4.28615 0.668705 0
M  V30 11208 H 1041.39 -5.50397 -0.420396 0
M  V30 11209 H 1043.86 -3.89098 -1.4745 0
M  V30 11210 H 1042.74 -4.9586 -2.35402 0
M  V30 11211 H 1043 -3.31722 -2.92255 0
M  V30 11212 N 1042.06 0.170153 -1.56679 0
M  V30 11213 C 1043.02 1.19443 -1.95617 0
M  V30 11214 C 1044.02 1.37118 -0.83996 0
M  V30 11215 O 1045.21 1.34504 -1.10699 0
M  V30 11216 C 1042.35 2.55926 -2.25199 0
M  V30 11217 H 1043.54 0.86095 -2.87276 0
M  V30 11218 H 1041.09 0.412646 -1.50755 0
M  V30 11219 H 1041.83 2.94286 -1.36257 0
M  V30 11220 H 1041.61 2.44464 -3.06562 0
M  V30 11221 H 1043.1 3.29742 -2.56242 0
M  V30 11222 N 1043.54 1.5137 0.438746 0
M  V30 11223 C 1044.79 1.63645 1.18595 0
M  V30 11224 C 1045.11 0.354241 1.91755 0
M  V30 11225 O 1044.38 -0.629838 1.85499 0
M  V30 11226 H 1042.96 0.603103 0.440767 0
M  V30 11227 H 1045.62 1.88293 0.503159 0
M  V30 11228 H 1044.72 2.46342 1.9163 0
M  V30 11229 N 1045.02 -0.694098 1.41492 0
M  V30 11230 C 1045.95 -1.82042 1.46229 0
M  V30 11231 C 1046.93 -1.67047 0.320803 0
M  V30 11232 O 1048.11 -1.86758 0.53245 0
M  V30 11233 C 1045.24 -3.2019 1.34519 0
M  V30 11234 C 1044.2 -3.49892 2.46495 0
M  V30 11235 C 1043.52 -4.87411 2.1985 0
M  V30 11236 C 1044.82 -3.4872 3.88834 0
M  V30 11237 H 1046.52 -1.78335 2.40493 0
M  V30 11238 H 1044.06 -0.856566 1.15754 0
M  V30 11239 H 1046.02 -3.98699 1.36445 0
M  V30 11240 H 1044.74 -3.24527 0.367406 0
M  V30 11241 H 1043.4 -2.73734 2.43854 0
M  V30 11242 H 1043.05 -4.88375 1.20411 0
M  V30 11243 H 1042.75 -5.08248 2.94885 0
M  V30 11244 H 1044.27 -5.68228 2.23494 0
M  V30 11245 H 1045.68 -4.1723 3.93182 0
M  V30 11246 H 1044.08 -3.81089 4.63564 0
M  V30 11247 H 1045.15 -2.47665 4.16881 0
M  V30 11248 N 1046.49 -1.27344 -0.928501 0
M  V30 11249 C 1047.4 -1.11812 -2.06241 0
M  V30 11250 C 1048.42 -0.048347 -1.73933 0
M  V30 11251 O 1049.6 -0.25467 -1.99783 0
M  V30 11252 C 1046.66 -0.766036 -3.38131 0
M  V30 11253 C 1045.72 -1.91659 -3.84142 0
M  V30 11254 C 1044.96 -1.58121 -5.09738 0
M  V30 11255 O 1045.18 -0.488742 -5.68302 0
M  V30 11256 O 1044.11 -2.42013 -5.51102 0
M  V30 11257 H 1047.94 -2.06967 -2.22258 0
M  V30 11258 H 1045.52 -1.06524 -1.04752 0
M  V30 11259 H 1047.41 -0.582982 -4.17348 0
M  V30 11260 H 1046.08 0.155998 -3.23324 0
M  V30 11261 H 1044.99 -2.1547 -3.05816 0
M  V30 11262 H 1046.32 -2.8188 -4.0349 0
M  V30 11263 N 1047.97 1.13488 -1.09353 0
M  V30 11264 C 1049.21 1.86397 -0.83877 0
M  V30 11265 C 1049.58 1.81568 0.624259 0
M  V30 11266 O 1050.78 2.49709 0.994923 0
M  V30 11267 C 1049.05 3.30583 -1.35828 0
M  V30 11268 S 1050.61 4.20995 -1.23728 0
M  V30 11269 H 1047.43 0.643022 -0.303387 0
M  V30 11270 H 1050.03 1.36788 -1.39676 0
M  V30 11271 H 1048.73 3.31652 -2.41734 0
M  V30 11272 H 1048.26 3.85255 -0.796386 0
M  V30 11273 H 1050.28 4.95845 -0.187745 0
M  V30 11274 N 1049.45 0.880621 1.30701 0
M  V30 11275 C 1050.41 0.349087 2.26526 0
M  V30 11276 C 1051.41 -0.505973 1.52632 0
M  V30 11277 O 1052.6 -0.313751 1.71351 0
M  V30 11278 C 1049.74 -0.503023 3.37168 0
M  V30 11279 H 1050.93 1.19516 2.75056 0
M  V30 11280 H 1048.48 0.657107 1.41816 0
M  V30 11281 H 1049.22 -1.36986 2.93948 0
M  V30 11282 H 1049 0.109389 3.91947 0
M  V30 11283 H 1050.49 -0.866845 4.08504 0
M  V30 11284 N 1050.93 -1.4397 0.641131 0
M  V30 11285 C 1052.16 -2.06303 0.157006 0
M  V30 11286 C 1052.57 -1.47981 -1.17248 0
M  V30 11287 O 1051.93 -0.606471 -1.72128 0
M  V30 11288 C 1051.98 -3.6147 0.0468425 0
M  V30 11289 O 1051.7 -4.17622 1.32376 0
M  V30 11290 C 1053.2 -4.40857 -0.464795 0
M  V30 11291 H 1050.42 -0.665684 0.0842946 0
M  V30 11292 H 1052.97 -1.84675 0.878363 0
M  V30 11293 H 1051.12 -3.82325 -0.625006 0
M  V30 11294 H 1051.54 -5.11167 1.17509 0
M  V30 11295 H 1053.01 -5.49813 -0.490862 0
M  V30 11296 H 1053.49 -4.13016 -1.4938 0
M  V30 11297 H 1054.09 -4.24943 0.174146 0
M  V30 11298 N 1052.41 -0.382291 -1.52893 0
M  V30 11299 C 1053.34 0.447829 -2.29165 0
M  V30 11300 C 1054.32 1.06956 -1.32267 0
M  V30 11301 O 1055.5 1.08365 -1.61154 0
M  V30 11302 C 1052.63 1.57902 -3.09329 0
M  V30 11303 C 1051.59 1.08369 -4.14053 0
M  V30 11304 C 1050.91 2.30641 -4.82399 0
M  V30 11305 C 1052.21 0.156591 -5.22065 0
M  V30 11306 H 1053.91 -0.188541 -2.98806 0
M  V30 11307 H 1051.45 -0.0921179 -1.43705 0
M  V30 11308 H 1053.41 2.16652 -3.61442 0
M  V30 11309 H 1052.13 2.24287 -2.37409 0
M  V30 11310 H 1050.79 0.518772 -3.62911 0
M  V30 11311 H 1050.44 2.9552 -4.07034 0
M  V30 11312 H 1050.14 1.98163 -5.53177 0
M  V30 11313 H 1051.66 2.90047 -5.37313 0
M  V30 11314 H 1053.08 0.652065 -5.6958 0
M  V30 11315 H 1051.47 -0.0780978 -6.00049 0
M  V30 11316 H 1052.54 -0.796529 -4.78313 0
M  V30 11317 N 1053.89 1.57202 -0.111913 0
M  V30 11318 C 1054.82 2.17957 0.837683 0
M  V30 11319 C 1055.8 1.1176 1.28233 0
M  V30 11320 O 1056.98 1.39967 1.34621 0
M  V30 11321 C 1054.11 2.77333 2.09054 0
M  V30 11322 C 1053.07 3.8905 1.78393 0
M  V30 11323 C 1052.39 4.35203 3.10649 0
M  V30 11324 C 1053.69 5.11477 1.05775 0
M  V30 11325 H 1055.39 2.9756 0.331441 0
M  V30 11326 H 1052.93 1.43131 0.157979 0
M  V30 11327 H 1054.88 3.18492 2.75936 0
M  V30 11328 H 1053.61 1.95009 2.6199 0
M  V30 11329 H 1052.27 3.48456 1.13903 0
M  V30 11330 H 1051.92 3.49747 3.61506 0
M  V30 11331 H 1051.62 5.10534 2.9091 0
M  V30 11332 H 1053.14 4.79007 3.78661 0
M  V30 11333 H 1054.55 5.497 1.62798 0
M  V30 11334 H 1052.95 5.92346 0.961573 0
M  V30 11335 H 1054.02 4.84881 0.043297 0
M  V30 11336 N 1055.36 -0.161842 1.56767 0
M  V30 11337 C 1056.64 -0.904754 1.73417 0
M  V30 11338 C 1057.02 -1.99987 0.675908 0
M  V30 11339 O 1056.37 -2.26419 -0.307712 0
M  V30 11340 C 1056.58 -1.46082 3.16956 0
M  V30 11341 C 1057.93 -1.93004 3.78199 0
M  V30 11342 O 1058.95 -1.55856 3.20293 0
M  V30 11343 O 1057.81 -2.61465 4.79894 0
M  V30 11344 H 1054.9 -0.426518 0.708528 0
M  V30 11345 H 1057.45 -0.148928 1.69045 0
M  V30 11346 H 1056.22 -0.673087 3.85468 0
M  V30 11347 H 1055.84 -2.28056 3.25693 0
M  V30 11348 N 1056.84 -1.516 -0.430713 0
M  V30 11349 C 1057.79 -1.73392 -1.52328 0
M  V30 11350 C 1058.76 -0.575758 -1.55802 0
M  V30 11351 O 1059.94 -0.810931 -1.72709 0
M  V30 11352 C 1057.08 -1.87092 -2.89984 0
M  V30 11353 C 1056.2 -3.14668 -2.95987 0
M  V30 11354 C 1055.33 -3.18923 -4.24807 0
M  V30 11355 C 1054.37 -4.40787 -4.24703 0
M  V30 11356 N 1053.51 -4.42556 -5.45059 0
M  V30 11357 H 1058.35 -2.6665 -1.33048 0
M  V30 11358 H 1055.88 -1.32146 -0.646207 0
M  V30 11359 H 1057.84 -1.93017 -3.69865 0
M  V30 11360 H 1056.47 -0.972363 -3.07807 0
M  V30 11361 H 1055.52 -3.1802 -2.08728 0
M  V30 11362 H 1056.84 -4.04562 -2.91772 0
M  V30 11363 H 1055.99 -3.23801 -5.13067 0
M  V30 11364 H 1054.73 -2.2693 -4.31688 0
M  V30 11365 H 1053.73 -4.36079 -3.34836 0
M  V30 11366 H 1054.96 -5.34053 -4.19481 0
M  V30 11367 H 1052.91 -3.53435 -5.52648 0
M  V30 11368 H 1052.82 -5.26267 -5.42751 0
M  V30 11369 H 1054.09 -4.51634 -6.35332 0
M  V30 11370 N 1058.32 0.686584 -1.41858 0
M  V30 11371 C 1059.28 1.78214 -1.44126 0
M  V30 11372 C 1060.28 1.57366 -0.330541 0
M  V30 11373 O 1061.47 1.63874 -0.590837 0
M  V30 11374 C 1058.6 3.16704 -1.26142 0
M  V30 11375 H 1059.8 1.77594 -2.41661 0
M  V30 11376 H 1057.35 0.895085 -1.28132 0
M  V30 11377 H 1058.09 3.22957 -0.294823 0
M  V30 11378 H 1057.87 3.33238 -2.06627 0
M  V30 11379 H 1059.36 3.96658 -1.30584 0
M  V30 11380 N 1059.8 1.27835 0.921735 0
M  V30 11381 C 1061.04 1.14692 1.67253 0
M  V30 11382 C 1061.38 -0.305384 1.91784 0
M  V30 11383 O 1060.65 -1.22286 1.51249 0
M  V30 11384 C 1060.93 1.93743 3.03539 0
M  V30 11385 C 1060.79 3.46991 2.86212 0
M  V30 11386 C 1062.11 1.74658 4.03959 0
M  V30 11387 H 1059.23 0.418021 0.606983 0
M  V30 11388 H 1061.87 1.5706 1.06922 0
M  V30 11389 H 1060.02 1.57738 3.55037 0
M  V30 11390 H 1061.69 3.92858 2.41785 0
M  V30 11391 H 1059.93 3.73029 2.21432 0
M  V30 11392 H 1060.6 3.97551 3.82958 0
M  V30 11393 H 1063.08 2.06063 3.61493 0
M  V30 11394 H 1061.96 2.32353 4.97296 0
M  V30 11395 H 1062.22 0.696019 4.36587 0
M  V30 11396 N 1061.28 -1.12907 1.09954 0
M  V30 11397 C 1062.21 -2.20585 0.765799 0
M  V30 11398 C 1063.19 -1.68117 -0.258989 0
M  V30 11399 O 1064.37 -1.93792 -0.125853 0
M  V30 11400 C 1061.5 -3.46772 0.191435 0
M  V30 11401 C 1060.46 -4.12363 1.14635 0
M  V30 11402 C 1059.78 -5.3294 0.433426 0
M  V30 11403 C 1061.08 -4.59073 2.49096 0
M  V30 11404 H 1062.78 -2.48759 1.66612 0
M  V30 11405 H 1060.32 -1.19563 0.802534 0
M  V30 11406 H 1062.27 -4.21365 -0.0541535 0
M  V30 11407 H 1061 -3.18011 -0.744101 0
M  V30 11408 H 1059.66 -3.39744 1.37731 0
M  V30 11409 H 1059.31 -5.00444 -0.506422 0
M  V30 11410 H 1059.01 -5.77772 1.07018 0
M  V30 11411 H 1060.53 -6.10284 0.196267 0
M  V30 11412 H 1061.94 -5.25063 2.30177 0
M  V30 11413 H 1060.34 -5.14665 3.0861 0
M  V30 11414 H 1061.41 -3.73313 3.0946 0
M  V30 11415 N 1062.75 -0.88754 -1.30232 0
M  V30 11416 C 1063.98 -0.521562 -2.00735 0
M  V30 11417 C 1064.4 0.883247 -1.66073 0
M  V30 11418 O 1063.76 1.58581 -0.878731 0
M  V30 11419 C 1063.81 -0.706521 -3.53611 0
M  V30 11420 O 1062.91 0.246447 -4.11663 0
M  V30 11421 H 1062.25 -0.205216 -0.631492 0
M  V30 11422 H 1064.78 -1.19579 -1.66018 0
M  V30 11423 H 1064.79 -0.606501 -4.03467 0
M  V30 11424 H 1063.47 -1.73076 -3.78177 0
M  V30 11425 H 1062.05 0.0999062 -3.72766 0
M  V30 11426 N 1064.23 1.43628 -0.648757 0
M  V30 11427 C 1065.64 1.85142 -0.24066 0
M  V30 11428 C 1065.99 1.54304 1.21181 0
M  V30 11429 O 1065.12 0.989792 1.92437 0
M  V30 11430 C 1065.71 3.3606 -0.429999 0
M  V30 11431 C 1064.27 3.76323 -0.0762588 0
M  V30 11432 C 1063.42 2.67382 -0.734999 0
M  V30 11433 H 1066.37 1.33844 -0.852734 0
M  V30 11434 H 1066.39 3.79102 0.325836 0
M  V30 11435 H 1065.9 3.58474 -1.48721 0
M  V30 11436 H 1064.01 3.59521 0.978529 0
M  V30 11437 H 1064.12 4.76498 -0.498612 0
M  V30 11438 H 1062.48 2.54141 -0.168644 0
M  V30 11439 H 1063.27 2.92625 -1.79515 0
M  V30 11440 N 1065.71 0.390394 1.52688 0
M  V30 11441 C 1066.62 -0.451543 2.30213 0
M  V30 11442 C 1067.64 -1.07051 1.37172 0
M  V30 11443 O 1068.81 -1.07609 1.70242 0
M  V30 11444 C 1065.88 -1.56299 3.0947 0
M  V30 11445 C 1064.94 -0.969017 4.18221 0
M  V30 11446 C 1064.17 -2.0275 4.93688 0
M  V30 11447 O 1064.39 -3.24273 4.69258 0
M  V30 11448 O 1063.33 -1.64418 5.79008 0
M  V30 11449 H 1067.15 0.180042 3.03166 0
M  V30 11450 H 1064.74 0.154082 1.48603 0
M  V30 11451 H 1066.62 -2.20864 3.58883 0
M  V30 11452 H 1065.3 -2.17952 2.3933 0
M  V30 11453 H 1064.2 -0.286587 3.73001 0
M  V30 11454 H 1065.54 -0.396687 4.90599 0
M  V30 11455 N 1067.19 -1.57141 0.120249 0
M  V30 11456 C 1068.41 -2.00017 -0.548454 0
M  V30 11457 C 1068.84 -0.999433 -1.59352 0
M  V30 11458 O 1068.2 0.0286978 -1.81277 0
M  V30 11459 C 1068.24 -3.41766 -1.15015 0
M  V30 11460 O 1067.35 -3.44589 -2.26566 0
M  V30 11461 H 1066.69 -0.649739 -0.136875 0
M  V30 11462 H 1069.22 -2.03529 0.209092 0
M  V30 11463 H 1069.23 -3.80001 -1.48537 0
M  V30 11464 H 1067.9 -4.14117 -0.384681 0
M  V30 11465 H 1066.48 -3.18174 -1.94473 0
M  V30 11466 N 1068.67 0.153526 -1.5685 0
M  V30 11467 C 1069.89 0.886343 -1.87507 0
M  V30 11468 C 1070.32 1.74244 -0.708565 0
M  V30 11469 O 1069.67 1.78045 0.341997 0
M  V30 11470 C 1069.72 1.72428 -3.16703 0
M  V30 11471 O 1068.83 2.82784 -3.00178 0
M  V30 11472 H 1068.17 0.247259 -0.616246 0
M  V30 11473 H 1070.7 0.146306 -2.04076 0
M  V30 11474 H 1070.71 2.12062 -3.4856 0
M  V30 11475 H 1069.38 1.09558 -4.01211 0
M  V30 11476 H 1067.96 2.46604 -2.79716 0
M  V30 11477 N 1070.14 1.51827 0.422667 0
M  V30 11478 C 1071.39 1.6445 1.16786 0
M  V30 11479 C 1071.71 0.373792 1.91995 0
M  V30 11480 O 1072.91 0.379621 2.68833 0
M  V30 11481 C 1071.37 2.90488 2.12473 0
M  V30 11482 C 1070.98 4.24617 1.42844 0
M  V30 11483 C 1072.72 3.12472 2.87335 0
M  V30 11484 C 1070.63 5.41791 2.371 0
M  V30 11485 H 1069.56 0.612561 0.439641 0
M  V30 11486 H 1072.21 1.78305 0.433534 0
M  V30 11487 H 1070.59 2.703 2.89402 0
M  V30 11488 H 1071.76 4.55239 0.71372 0
M  V30 11489 H 1070.08 4.08628 0.800769 0
M  V30 11490 H 1072.68 3.9719 3.57973 0
M  V30 11491 H 1073.02 2.26148 3.49518 0
M  V30 11492 H 1073.55 3.33069 2.17509 0
M  V30 11493 H 1070.29 6.3042 1.79584 0
M  V30 11494 H 1069.81 5.15526 3.06583 0
M  V30 11495 H 1071.49 5.74329 2.97918 0
M  V30 11496 N 1071.62 -0.679052 1.4222 0
M  V30 11497 C 1072.85 -1.46534 1.45641 0
M  V30 11498 C 1073.26 -1.89088 0.0649574 0
M  V30 11499 O 1072.6 -1.58436 -0.929712 0
M  V30 11500 C 1072.67 -2.74882 2.3169 0
M  V30 11501 C 1072.33 -2.5443 3.79624 0
M  V30 11502 C 1073.33 -2.19307 4.71382 0
M  V30 11503 C 1071.01 -2.69557 4.23845 0
M  V30 11504 C 1073.01 -1.99571 6.05351 0
M  V30 11505 C 1070.69 -2.49437 5.57875 0
M  V30 11506 C 1071.69 -2.14497 6.48444 0
M  V30 11507 O 1071.38 -1.94567 7.79999 0
M  V30 11508 H 1071.11 -0.457542 0.497626 0
M  V30 11509 H 1073.66 -0.842145 1.87342 0
M  V30 11510 H 1071.89 -3.39669 1.8483 0
M  V30 11511 H 1073.58 -3.3675 2.26615 0
M  V30 11512 H 1074.35 -2.0722 4.38503 0
M  V30 11513 H 1070.23 -2.95733 3.53642 0
M  V30 11514 H 1073.77 -1.72222 6.76007 0
M  V30 11515 H 1069.67 -2.61119 5.90328 0
M  V30 11516 H 1070.44 -2.092 7.91314 0
M  V30 11517 N 1073.1 -1.28322 -0.914942 0
M  V30 11518 C 1074.33 -1.18254 -1.69775 0
M  V30 11519 C 1074.74 0.258978 -1.87015 0
M  V30 11520 O 1074.1 1.17514 -1.3963 0
M  V30 11521 C 1074.15 -1.8753 -3.09054 0
M  V30 11522 O 1073.87 -3.26051 -2.92613 0
M  V30 11523 C 1075.37 -1.83749 -4.03424 0
M  V30 11524 H 1072.59 -0.41055 -0.530744 0
M  V30 11525 H 1075.14 -1.69425 -1.14523 0
M  V30 11526 H 1073.29 -1.40233 -3.61128 0
M  V30 11527 H 1073.71 -3.60729 -3.80756 0
M  V30 11528 H 1075.18 -2.36813 -4.98622 0
M  V30 11529 H 1075.66 -0.809601 -4.31674 0
M  V30 11530 H 1076.26 -2.3072 -3.57279 0
M  V30 11531 N 1074.58 1.12322 -1.10551 0
M  V30 11532 C 1075.81 1.87679 -0.87087 0
M  V30 11533 C 1076.22 1.79711 0.578733 0
M  V30 11534 O 1075.58 1.17185 1.39907 0
M  V30 11535 C 1075.63 3.36846 -1.31213 0
M  V30 11536 O 1075.35 3.44626 -2.70489 0
M  V30 11537 C 1076.85 4.29138 -1.11156 0
M  V30 11538 H 1074.07 0.593788 -0.3125 0
M  V30 11539 H 1076.62 1.42116 -1.47048 0
M  V30 11540 H 1074.77 3.79948 -0.756169 0
M  V30 11541 H 1075.18 4.37441 -2.89389 0
M  V30 11542 H 1076.66 5.32082 -1.46944 0
M  V30 11543 H 1077.14 4.39171 -0.0502963 0
M  V30 11544 H 1077.74 3.91818 -1.65405 0
M  V30 11545 N 1076.06 0.894434 1.2976 0
M  V30 11546 C 1077.02 0.373094 2.26143 0
M  V30 11547 C 1078.02 -0.489756 1.5316 0
M  V30 11548 O 1079.21 -0.29556 1.71674 0
M  V30 11549 C 1076.34 -0.467234 3.37683 0
M  V30 11550 H 1077.53 1.22427 2.73773 0
M  V30 11551 H 1075.09 0.672112 1.41111 0
M  V30 11552 H 1075.82 -1.33861 2.95384 0
M  V30 11553 H 1075.61 0.150954 3.91809 0
M  V30 11554 H 1077.1 -0.823469 4.094 0
M  V30 11555 N 1077.53 -1.43282 0.656365 0
M  V30 11556 C 1078.76 -2.06641 0.177245 0
M  V30 11557 C 1079.18 -1.48893 -1.14946 0
M  V30 11558 O 1078.54 -0.600099 -1.7108 0
M  V30 11559 C 1078.59 -3.60453 0.10299 0
M  V30 11560 O 1077.69 -4.01687 -0.933895 0
M  V30 11561 H 1077.04 -0.656978 0.096314 0
M  V30 11562 H 1079.57 -1.83733 0.900178 0
M  V30 11563 H 1079.58 -4.07923 -0.079291 0
M  V30 11564 H 1078.25 -4.01861 1.07147 0
M  V30 11565 H 1076.83 -3.65801 -0.724148 0
M  V30 11566 N 1079.01 -0.398486 -1.52479 0
M  V30 11567 C 1079.98 0.420206 -2.25315 0
M  V30 11568 C 1080.98 0.982559 -1.27289 0
M  V30 11569 O 1082.17 0.863113 -1.51314 0
M  V30 11570 C 1079.3 1.59045 -3.01525 0
M  V30 11571 H 1080.49 -0.217599 -2.9911 0
M  V30 11572 H 1078.04 -0.150784 -1.55571 0
M  V30 11573 H 1078.78 2.26542 -2.32054 0
M  V30 11574 H 1078.56 1.19382 -3.73484 0
M  V30 11575 H 1080.05 2.16984 -3.56802 0
M  V30 11576 N 1080.49 1.57075 -0.12858 0
M  V30 11577 C 1081.44 2.15816 0.818064 0
M  V30 11578 C 1082.41 1.08581 1.25696 0
M  V30 11579 O 1083.59 1.36535 1.33277 0
M  V30 11580 C 1080.73 2.76943 2.05905 0
M  V30 11581 C 1079.85 3.98514 1.66764 0
M  V30 11582 C 1078.98 4.47698 2.85902 0
M  V30 11583 C 1078.02 5.61778 2.43047 0
M  V30 11584 N 1077.16 6.05662 3.5513 0
M  V30 11585 H 1082 2.9638 0.310318 0
M  V30 11586 H 1079.53 1.46418 0.141472 0
M  V30 11587 H 1081.49 3.10519 2.78629 0
M  V30 11588 H 1080.12 1.99053 2.54122 0
M  V30 11589 H 1079.17 3.71038 0.838766 0
M  V30 11590 H 1080.49 4.81215 1.31277 0
M  V30 11591 H 1079.64 4.83233 3.66839 0
M  V30 11592 H 1078.38 3.63967 3.24622 0
M  V30 11593 H 1077.38 5.25838 1.60544 0
M  V30 11594 H 1078.61 6.47282 2.05433 0
M  V30 11595 H 1076.56 5.2487 3.93506 0
M  V30 11596 H 1076.47 6.83242 3.23598 0
M  V30 11597 H 1077.74 6.45838 4.36479 0
M  V30 11598 N 1081.97 -0.145205 1.5693 0
M  V30 11599 C 1083.2 -0.872398 1.87608 0
M  V30 11600 C 1083.61 -1.74657 0.716975 0
M  V30 11601 O 1082.97 -1.79792 -0.3132 0
M  V30 11602 C 1083.02 -1.72762 3.17546 0
M  V30 11603 O 1082.74 -0.888681 4.28992 0
M  V30 11604 C 1084.24 -2.56224 3.61751 0
M  V30 11605 H 1081.46 -0.252166 0.621815 0
M  V30 11606 H 1084.01 -0.137456 2.04038 0
M  V30 11607 H 1082.16 -2.41561 3.02865 0
M  V30 11608 H 1082.58 -1.47601 5.03303 0
M  V30 11609 H 1084.05 -3.11804 4.55502 0
M  V30 11610 H 1084.53 -3.32347 2.87127 0
M  V30 11611 H 1085.13 -1.92714 3.79133 0
M  V30 11612 N 1083.45 -1.52049 -0.414609 0
M  V30 11613 C 1084.86 -1.58062 -0.993638 0
M  V30 11614 C 1085.21 -0.417795 -1.917 0
M  V30 11615 O 1084.33 0.462558 -2.11399 0
M  V30 11616 C 1084.93 -2.86471 -1.80886 0
M  V30 11617 C 1083.49 -2.94981 -2.33801 0
M  V30 11618 C 1082.64 -2.52949 -1.13631 0
M  V30 11619 H 1085.59 -1.57497 -0.19504 0
M  V30 11620 H 1085.61 -2.71515 -2.66571 0
M  V30 11621 H 1085.12 -3.71085 -1.13657 0
M  V30 11622 H 1083.22 -2.14849 -3.04419 0
M  V30 11623 H 1083.33 -3.99111 -2.65042 0
M  V30 11624 H 1081.7 -2.0667 -1.48861 0
M  V30 11625 H 1082.48 -3.39931 -0.479765 0
M  V30 11626 N 1084.93 0.6715 -1.42579 0
M  V30 11627 C 1086.34 1.2522 -1.38481 0
M  V30 11628 C 1086.69 1.96038 -0.079719 0
M  V30 11629 O 1085.81 2.00203 0.821441 0
M  V30 11630 C 1086.41 2.27736 -2.50842 0
M  V30 11631 C 1084.97 2.81325 -2.50067 0
M  V30 11632 C 1084.11 1.55694 -2.29466 0
M  V30 11633 H 1087.06 0.464673 -1.51745 0
M  V30 11634 H 1087.09 3.09539 -2.21283 0
M  V30 11635 H 1086.6 1.76164 -3.45815 0
M  V30 11636 H 1084.7 3.37008 -1.58922 0
M  V30 11637 H 1084.81 3.30116 -3.47218 0
M  V30 11638 H 1083.18 1.82383 -1.77788 0
M  V30 11639 H 1083.96 1.06084 -3.26498 0
M  V30 11640 N 1086.4 1.28806 0.908124 0
M  V30 11641 C 1087.82 1.06634 1.18749 0
M  V30 11642 C 1088.02 -0.187729 2.00624 0
M  V30 11643 O 1087.08 -0.88784 2.36376 0
M  V30 11644 C 1088.39 2.31703 1.91661 0
M  V30 11645 C 1089.94 2.36939 2.04521 0
M  V30 11646 C 1090.41 3.61789 2.80843 0
M  V30 11647 N 1091.9 3.62462 2.88402 0
M  V30 11648 C 1092.64 4.55746 3.47971 0
M  V30 11649 N 1092.13 5.59353 4.08774 0
M  V30 11650 N 1093.93 4.43331 3.45564 0
M  V30 11651 H 1086.08 2.09299 0.36164 0
M  V30 11652 H 1088.34 0.921479 0.222668 0
M  V30 11653 H 1088.05 3.23096 1.38931 0
M  V30 11654 H 1087.92 2.38556 2.92183 0
M  V30 11655 H 1090.31 1.4604 2.5643 0
M  V30 11656 H 1090.39 2.34077 1.03159 0
M  V30 11657 H 1090.03 4.53035 2.29612 0
M  V30 11658 H 1089.96 3.61907 3.82532 0
M  V30 11659 H 1092.45 2.87544 2.45208 0
M  V30 11660 H 1092.77 6.26668 4.52224 0
M  V30 11661 H 1091.11 5.63173 4.07261 0
M  V30 11662 H 1094.3 3.61587 2.97276 0
M  V30 11663 H 1094.48 5.16216 3.91695 0
M  V30 11664 N 1087.88 -1.11734 1.11145 0
M  V30 11665 C 1089.11 -1.87755 0.881062 0
M  V30 11666 C 1089.53 -1.79461 -0.563496 0
M  V30 11667 O 1088.89 -1.15481 -1.39763 0
M  V30 11668 C 1088.94 -3.34641 1.34342 0
M  V30 11669 O 1088.04 -4.09195 0.513157 0
M  V30 11670 H 1087.38 -0.583111 0.317613 0
M  V30 11671 H 1089.91 -1.41256 1.48013 0
M  V30 11672 H 1089.92 -3.85486 1.33658 0
M  V30 11673 H 1088.6 -3.39994 2.39534 0
M  V30 11674 H 1087.17 -3.68269 0.585833 0
M  V30 11675 N 1089.36 -0.901303 -1.29284 0
M  V30 11676 C 1090.77 -0.576317 -1.77582 0
M  V30 11677 C 1091.12 0.908078 -1.73921 0
M  V30 11678 O 1090.25 1.71006 -1.32611 0
M  V30 11679 C 1090.84 -1.03938 -3.22463 0
M  V30 11680 C 1089.4 -0.765533 -3.68533 0
M  V30 11681 C 1088.55 -1.21318 -2.49354 0
M  V30 11682 H 1091.5 -1.08386 -1.15923 0
M  V30 11683 H 1091.52 -0.375367 -3.78644 0
M  V30 11684 H 1091.03 -2.11977 -3.25096 0
M  V30 11685 H 1089.13 0.302176 -3.71373 0
M  V30 11686 H 1089.25 -1.36454 -4.59257 0
M  V30 11687 H 1087.61 -0.632141 -2.46731 0
M  V30 11688 H 1088.39 -2.30165 -2.54714 0
M  V30 11689 N 1090.84 1.42931 -0.663954 0
M  V30 11690 C 1091.75 2.3459 0.0214234 0
M  V30 11691 C 1092.76 1.54487 0.800611 0
M  V30 11692 O 1093.94 1.87098 0.74541 0
M  V30 11693 C 1091 3.32896 0.968556 0
M  V30 11694 C 1090.07 4.28901 0.185108 0
M  V30 11695 C 1089.3 5.2251 1.08713 0
M  V30 11696 O 1089.52 5.20795 2.32655 0
M  V30 11697 O 1088.46 5.99347 0.553758 0
M  V30 11698 H 1092.28 2.94714 -0.733308 0
M  V30 11699 H 1089.87 1.43252 -0.424159 0
M  V30 11700 H 1091.75 3.93318 1.51257 0
M  V30 11701 H 1090.42 2.75261 1.70333 0
M  V30 11702 H 1089.33 3.71926 -0.402752 0
M  V30 11703 H 1090.66 4.89547 -0.510319 0
M  V30 11704 N 1092.32 0.406567 1.52266 0
M  V30 11705 C 1093.26 -0.420182 2.26943 0
M  V30 11706 C 1094.23 -1.04323 1.29251 0
M  V30 11707 O 1095.42 -1.06799 1.5811 0
M  V30 11708 C 1092.56 -1.5323 3.09216 0
M  V30 11709 C 1091.67 -0.930419 4.21862 0
M  V30 11710 C 1090.81 -2.01502 4.91498 0
M  V30 11711 C 1089.84 -1.38994 5.9611 0
M  V30 11712 N 1088.98 -2.41458 6.59274 0
M  V30 11713 H 1093.82 0.223066 2.97164 0
M  V30 11714 H 1091.36 0.121842 1.46595 0
M  V30 11715 H 1093.32 -2.18803 3.5522 0
M  V30 11716 H 1091.95 -2.14561 2.41171 0
M  V30 11717 H 1091 -0.163809 3.80047 0
M  V30 11718 H 1092.31 -0.433785 4.9691 0
M  V30 11719 H 1091.46 -2.74807 5.40894 0
M  V30 11720 H 1090.2 -2.5453 4.16012 0
M  V30 11721 H 1089.21 -0.642213 5.46036 0
M  V30 11722 H 1090.43 -0.867386 6.73538 0
M  V30 11723 H 1088.38 -2.93623 5.86619 0
M  V30 11724 H 1088.3 -1.96599 7.2999 0
M  V30 11725 H 1089.56 -3.14341 7.13309 0
M  V30 11726 N 1093.79 -1.57004 0.136909 0
M  V30 11727 C 1094.74 -2.12815 -0.818144 0
M  V30 11728 C 1095.73 -1.0534 -1.21623 0
M  V30 11729 O 1096.92 -1.31539 -1.18434 0
M  V30 11730 C 1094.05 -2.74533 -2.06122 0
M  V30 11731 C 1093.14 -3.89117 -1.68669 0
M  V30 11732 N 1093.53 -4.95412 -1.01983 0
M  V30 11733 C 1091.82 -3.99636 -1.98009 0
M  V30 11734 C 1092.53 -5.75594 -0.840624 0
M  V30 11735 N 1091.5 -5.26019 -1.37131 0
M  V30 11736 H 1095.3 -2.92372 -0.299315 0
M  V30 11737 H 1092.82 -1.6227 -0.0649741 0
M  V30 11738 H 1094.81 -3.12872 -2.7553 0
M  V30 11739 H 1093.47 -1.96446 -2.58532 0
M  V30 11740 H 1094.49 -5.13393 -0.681744 0
M  V30 11741 H 1091.16 -3.32613 -2.52339 0
M  V30 11742 H 1092.55 -6.71157 -0.315807 0
M  V30 11743 N 1095.27 0.136881 -1.57004 0
M  V30 11744 C 1096.5 0.862436 -1.88068 0
M  V30 11745 C 1096.92 1.74274 -0.726227 0
M  V30 11746 O 1096.27 1.79956 0.30366 0
M  V30 11747 C 1096.32 1.71076 -3.18458 0
M  V30 11748 O 1096.04 0.865918 -4.29457 0
M  V30 11749 C 1097.55 2.54302 -3.63105 0
M  V30 11750 H 1094.77 0.248865 -0.623143 0
M  V30 11751 H 1097.31 0.126633 -2.04108 0
M  V30 11752 H 1095.46 2.39951 -3.04142 0
M  V30 11753 H 1095.88 1.4493 -5.04079 0
M  V30 11754 H 1097.35 3.09384 -4.57149 0
M  V30 11755 H 1097.83 3.3082 -2.88886 0
M  V30 11756 H 1098.44 1.907 -3.80149 0
M  V30 11757 N 1096.75 1.52266 0.40654 0
M  V30 11758 C 1097.71 1.75168 1.47814 0
M  V30 11759 C 1098.71 0.621575 1.48301 0
M  V30 11760 O 1099.9 0.889476 1.4978 0
M  V30 11761 C 1097.04 1.83642 2.87208 0
M  V30 11762 H 1098.23 2.70834 1.28798 0
M  V30 11763 H 1095.78 1.42722 0.637196 0
M  V30 11764 H 1096.52 0.898994 3.1159 0
M  V30 11765 H 1096.3 2.65801 2.88257 0
M  V30 11766 H 1097.79 2.03093 3.64888 0
M  V30 11767 N 1098.23 -0.663929 1.42933 0
M  V30 11768 C 1099.48 -1.41973 1.43271 0
M  V30 11769 C 1099.79 -1.95518 0.0566103 0
M  V30 11770 O 1101 -2.71428 -0.0625862 0
M  V30 11771 C 1099.45 -2.56882 2.52071 0
M  V30 11772 C 1099.06 -2.0999 3.95737 0
M  V30 11773 C 1100.8 -3.34322 2.61589 0
M  V30 11774 C 1098.71 -3.22046 4.96025 0
M  V30 11775 H 1097.64 -0.5334 0.532917 0
M  V30 11776 H 1100.29 -0.717709 1.68882 0
M  V30 11777 H 1098.67 -3.29504 2.19643 0
M  V30 11778 H 1099.85 -1.44449 4.37574 0
M  V30 11779 H 1098.16 -1.45459 3.90168 0
M  V30 11780 H 1100.76 -4.17796 3.33692 0
M  V30 11781 H 1101.1 -3.8164 1.66302 0
M  V30 11782 H 1101.64 -2.68775 2.93266 0
M  V30 11783 H 1098.38 -2.79708 5.92827 0
M  V30 11784 H 1097.9 -3.86333 4.5881 0
M  V30 11785 H 1099.57 -3.87345 5.1824 0
M  V30 11786 N 1099.71 -1.29285 -0.901281 0
M  V30 11787 C 1100.67 -1.14283 -1.98676 0
M  V30 11788 C 1101.67 -0.0787641 -1.60607 0
M  V30 11789 O 1102.86 -0.325574 -1.71131 0
M  V30 11790 C 1099.99 -0.747279 -3.32609 0
M  V30 11791 H 1101.18 -2.10701 -2.13413 0
M  V30 11792 H 1098.74 -1.12449 -1.08558 0
M  V30 11793 H 1099.47 0.217111 -3.23572 0
M  V30 11794 H 1099.26 -1.51608 -3.61604 0
M  V30 11795 H 1100.75 -0.665322 -4.12266 0
M  V30 11796 N 1101.18 1.11143 -1.11736 0
M  V30 11797 C 1102.43 1.82948 -0.868127 0
M  V30 11798 C 1102.76 1.84813 0.606182 0
M  V30 11799 O 1102.01 1.29901 1.4637 0
M  V30 11800 C 1102.31 3.29733 -1.3788 0
M  V30 11801 C 1101.98 3.48025 -2.86687 0
M  V30 11802 C 1100.64 3.52725 -3.2732 0
M  V30 11803 C 1102.99 3.54024 -3.82513 0
M  V30 11804 C 1100.32 3.60983 -4.62502 0
M  V30 11805 C 1102.67 3.63814 -5.17515 0
M  V30 11806 C 1101.34 3.66776 -5.57702 0
M  V30 11807 H 1100.61 0.669452 -0.31767 0
M  V30 11808 H 1103.25 1.31057 -1.3963 0
M  V30 11809 H 1101.56 3.8414 -0.77093 0
M  V30 11810 H 1103.26 3.83787 -1.16225 0
M  V30 11811 H 1099.85 3.45039 -2.54256 0
M  V30 11812 H 1104.03 3.4965 -3.52219 0
M  V30 11813 H 1099.29 3.61554 -4.9304 0
M  V30 11814 H 1103.46 3.674 -5.916 0
M  V30 11815 H 1101.09 3.72927 -6.62442 0
M  V30 11816 N 1102.66 0.908147 1.28804 0
M  V30 11817 C 1103.61 0.382315 2.29437 0
M  V30 11818 C 1104.6 -0.523033 1.61123 0
M  V30 11819 O 1105.81 -0.404898 1.75387 0
M  V30 11820 H 1102.19 0.105022 0.74463 0
M  V30 11821 H 1104.16 1.24425 2.71221 0
M  V30 11822 C 1102.91 -0.367475 3.45753 0
M  V30 11823 H 1102.23 0.319957 3.98518 0
M  V30 11824 H 1103.67 -0.700131 4.1818 0
M  V30 11825 C 1102.13 -1.57329 2.97908 0
M  V30 11826 O 1102.66 -2.67248 2.99902 0
M  V30 11827 N 1100.86 -1.41835 2.53636 0
M  V30 11828 H 1100.41 -0.524099 2.52212 0
M  V30 11829 H 1100.37 -2.22645 2.21984 0
M  V30 11830 N 1104.14 -1.42577 0.671525 0
M  V30 11831 C 1105.39 -2.01584 0.192431 0
M  V30 11832 C 1105.72 -1.53076 -1.19992 0
M  V30 11833 O 1104.97 -0.722196 -1.81887 0
M  V30 11834 C 1105.27 -3.56985 0.172097 0
M  V30 11835 C 1104.94 -4.24912 1.50867 0
M  V30 11836 C 1103.6 -4.43182 1.87464 0
M  V30 11837 C 1105.95 -4.6322 2.38908 0
M  V30 11838 C 1103.28 -4.97031 3.11732 0
M  V30 11839 C 1105.63 -5.18447 3.62485 0
M  V30 11840 C 1104.29 -5.34932 3.99255 0
M  V30 11841 H 1103.56 -0.737647 0.0704155 0
M  V30 11842 H 1106.21 -1.70807 0.865862 0
M  V30 11843 H 1104.52 -3.87411 -0.584835 0
M  V30 11844 H 1106.21 -4.00419 -0.215749 0
M  V30 11845 H 1102.8 -4.11048 1.21397 0
M  V30 11846 H 1106.99 -4.4878 2.1192 0
M  V30 11847 H 1102.24 -5.07979 3.40246 0
M  V30 11848 H 1106.42 -5.47075 4.30909 0
M  V30 11849 H 1104.04 -5.76422 4.95623 0
M  V30 11850 N 1105.62 -0.414636 -1.52048 0
M  V30 11851 C 1106.53 0.414861 -2.30903 0
M  V30 11852 C 1107.54 1.04855 -1.38858 0
M  V30 11853 O 1108.72 1.04886 -1.71933 0
M  V30 11854 C 1105.79 1.51356 -3.11917 0
M  V30 11855 C 1104.85 0.902359 -4.19709 0
M  V30 11856 C 1104.08 1.9487 -4.96852 0
M  V30 11857 O 1104.3 3.16766 -4.74358 0
M  V30 11858 O 1103.24 1.55186 -5.8155 0
M  V30 11859 H 1107.06 -0.228251 -3.02841 0
M  V30 11860 H 1104.65 -0.177704 -1.48339 0
M  V30 11861 H 1106.53 2.15127 -3.62351 0
M  V30 11862 H 1105.2 2.14117 -2.42767 0
M  V30 11863 H 1104.11 0.22721 -3.73409 0
M  V30 11864 H 1105.44 0.318587 -4.91168 0
M  V30 11865 N 1107.1 1.56929 -0.145233 0
M  V30 11866 C 1108.06 2.15483 0.781002 0
M  V30 11867 C 1109.06 1.09617 1.17647 0
M  V30 11868 O 1110.25 1.35265 1.09768 0
M  V30 11869 C 1107.38 2.7165 2.05959 0
M  V30 11870 H 1108.57 2.98667 0.271685 0
M  V30 11871 H 1106.13 1.55952 0.1042 0
M  V30 11872 H 1106.86 1.92127 2.61262 0
M  V30 11873 H 1106.65 3.491 1.78526 0
M  V30 11874 H 1108.14 3.16769 2.72116 0
M  V30 11875 N 1108.58 -0.128553 1.57075 0
M  V30 11876 C 1109.82 -0.836355 1.83982 0
M  V30 11877 C 1110.14 -1.80862 0.728971 0
M  V30 11878 O 1109.41 -1.94326 -0.247859 0
M  V30 11879 H 1107.99 -0.31185 0.678792 0
M  V30 11880 H 1110.66 -0.118153 1.94542 0
M  V30 11881 H 1109.75 -1.38741 2.79567 0
M  V30 11882 N 1110.05 -1.5248 -0.398459 0
M  V30 11883 C 1111.3 -1.67309 -1.1461 0
M  V30 11884 C 1111.63 -0.407095 -1.89885 0
M  V30 11885 O 1110.91 0.594834 -1.85181 0
M  V30 11886 C 1111.19 -2.90204 -2.13198 0
M  V30 11887 C 1111.04 -4.26881 -1.4175 0
M  V30 11888 C 1112.36 -3.08634 -3.13741 0
M  V30 11889 H 1109.48 -0.608853 -0.415292 0
M  V30 11890 H 1112.12 -1.85057 -0.430573 0
M  V30 11891 H 1110.27 -2.75204 -2.74218 0
M  V30 11892 H 1111.95 -4.53631 -0.837676 0
M  V30 11893 H 1110.19 -4.27793 -0.719387 0
M  V30 11894 H 1110.86 -5.08939 -2.1374 0
M  V30 11895 H 1113.34 -3.22603 -2.62805 0
M  V30 11896 H 1112.21 -3.96117 -3.79977 0
M  V30 11897 H 1112.47 -2.22425 -3.82073 0
M  V30 11898 N 1111.53 0.65634 -1.43283 0
M  V30 11899 C 1112.48 1.76243 -1.44646 0
M  V30 11900 C 1113.47 1.5778 -0.31532 0
M  V30 11901 O 1114.66 1.67945 -0.558881 0
M  V30 11902 C 1111.79 3.14813 -1.36921 0
M  V30 11903 C 1110.87 3.38835 -2.55053 0
M  V30 11904 N 1111.26 3.33345 -3.80414 0
M  V30 11905 C 1109.56 3.69542 -2.4971 0
M  V30 11906 C 1110.26 3.57361 -4.58986 0
M  V30 11907 N 1109.24 3.79022 -3.8967 0
M  V30 11908 H 1113.04 1.70419 -2.39447 0
M  V30 11909 H 1110.55 0.85789 -1.37891 0
M  V30 11910 H 1112.55 3.941 -1.3598 0
M  V30 11911 H 1111.21 3.21822 -0.431381 0
M  V30 11912 H 1112.22 3.12827 -4.12747 0
M  V30 11913 H 1108.9 3.83684 -1.64598 0
M  V30 11914 H 1110.29 3.58921 -5.68001 0
M  V30 11915 N 1113.01 1.29761 0.894412 0
M  V30 11916 C 1113.94 1.1115 2.00445 0
M  V30 11917 C 1114.95 0.0574655 1.62699 0
M  V30 11918 O 1116.14 0.302528 1.75918 0
M  V30 11919 C 1113.24 0.670984 3.32191 0
M  V30 11920 C 1112.42 1.80471 3.98433 0
M  V30 11921 C 1111.48 1.35431 5.08473 0
M  V30 11922 O 1110.5 2.05994 5.30618 0
M  V30 11923 N 1111.7 0.22811 5.80052 0
M  V30 11924 H 1114.47 2.06753 2.16964 0
M  V30 11925 H 1112.03 1.21772 1.06692 0
M  V30 11926 H 1114.02 0.352877 4.03159 0
M  V30 11927 H 1112.59 -0.192735 3.12005 0
M  V30 11928 H 1111.81 2.29142 3.20761 0
M  V30 11929 H 1113.1 2.56471 4.39431 0
M  V30 11930 H 1112.5 -0.360076 5.64553 0
M  V30 11931 H 1111.05 -0.0305985 6.51793 0
M  V30 11932 N 1114.49 -1.10549 1.12324 0
M  V30 11933 C 1115.72 -1.86 0.899312 0
M  V30 11934 C 1116.13 -1.80881 -0.554854 0
M  V30 11935 O 1115.47 -1.19485 -1.39531 0
M  V30 11936 C 1115.53 -3.35384 1.29452 0
M  V30 11937 C 1115.19 -3.64263 2.75974 0
M  V30 11938 C 1116.19 -3.60962 3.74169 0
M  V30 11939 C 1113.88 -3.92976 3.1285 0
M  V30 11940 C 1115.87 -3.85966 5.07256 0
M  V30 11941 C 1113.56 -4.17637 4.4612 0
M  V30 11942 C 1114.56 -4.14122 5.43132 0
M  V30 11943 O 1114.24 -4.38156 6.73999 0
M  V30 11944 H 1113.98 -0.594743 0.321337 0
M  V30 11945 H 1116.53 -1.40674 1.49667 0
M  V30 11946 H 1114.76 -3.81361 0.640358 0
M  V30 11947 H 1116.45 -3.9222 1.04491 0
M  V30 11948 H 1117.21 -3.38819 3.47025 0
M  V30 11949 H 1113.09 -3.94843 2.3795 0
M  V30 11950 H 1116.64 -3.83138 5.82967 0
M  V30 11951 H 1112.53 -4.39258 4.72993 0
M  V30 11952 H 1113.3 -4.55677 6.79927 0
M  V30 11953 N 1115.97 -0.914965 -1.28321 0
M  V30 11954 C 1117.21 -0.544639 -1.94208 0
M  V30 11955 C 1117.53 0.916368 -1.72806 0
M  V30 11956 O 1118.73 1.39491 -2.32926 0
M  V30 11957 C 1117.19 -0.923209 -3.47858 0
M  V30 11958 C 1116.8 -2.40403 -3.78035 0
M  V30 11959 C 1118.54 -0.623526 -4.19896 0
M  V30 11960 C 1116.45 -2.72266 -5.25 0
M  V30 11961 H 1115.38 -0.199966 -0.727 0
M  V30 11962 H 1118.03 -1.11405 -1.45812 0
M  V30 11963 H 1116.41 -0.282576 -3.94991 0
M  V30 11964 H 1117.59 -3.09149 -3.41706 0
M  V30 11965 H 1115.9 -2.67429 -3.19172 0
M  V30 11966 H 1118.5 -0.838243 -5.28089 0
M  V30 11967 H 1118.84 0.438721 -4.13982 0
M  V30 11968 H 1119.37 -1.22268 -3.78544 0
M  V30 11969 H 1116.11 -3.77349 -5.35993 0
M  V30 11970 H 1115.63 -2.08157 -5.62522 0
M  V30 11971 H 1117.31 -2.59334 -5.92752 0
M  V30 11972 N 1117.44 1.42219 -0.679077 0
M  V30 11973 C 1118.72 1.95155 -0.13188 0
M  V30 11974 C 1119.1 1.6193 1.35433 0
M  V30 11975 O 1118.45 0.917672 2.09263 0
M  V30 11976 C 1118.66 3.46635 -0.405578 0
M  V30 11977 C 1120.01 4.23359 -0.324394 0
M  V30 11978 O 1121.03 3.54578 -0.339564 0
M  V30 11979 O 1119.89 5.45831 -0.270268 0
M  V30 11980 H 1116.98 0.826983 -0.00535438 0
M  V30 11981 H 1119.53 1.52024 -0.754101 0
M  V30 11982 H 1118.3 3.6404 -1.43495 0
M  V30 11983 H 1117.92 3.96823 0.248439 0
M  V30 11984 N 1118.92 0.422693 1.51826 0
M  V30 11985 C 1119.88 -0.384307 2.25955 0
M  V30 11986 C 1120.88 -0.962184 1.28836 0
M  V30 11987 O 1122.07 -0.838931 1.52668 0
M  V30 11988 C 1119.21 -1.54228 3.04018 0
M  V30 11989 H 1120.4 0.265157 2.98726 0
M  V30 11990 H 1117.95 0.175515 1.55311 0
M  V30 11991 H 1118.69 -2.22822 2.35629 0
M  V30 11992 H 1118.47 -1.13425 3.75336 0
M  V30 11993 H 1119.96 -2.1128 3.60209 0
M  V30 11994 N 1120.4 -1.5685 0.153553 0
M  V30 11995 C 1121.68 -1.8796 -0.541328 0
M  V30 11996 C 1122.06 -1.06059 -1.82523 0
M  V30 11997 O 1121.4 -0.149295 -2.28012 0
M  V30 11998 C 1121.61 -3.39697 -0.800442 0
M  V30 11999 C 1122.96 -4.09057 -1.13832 0
M  V30 12000 O 1123.99 -3.44913 -0.889578 0
M  V30 12001 O 1122.85 -5.22347 -1.60673 0
M  V30 12002 H 1119.94 -0.779268 -0.276895 0
M  V30 12003 H 1122.49 -1.68626 0.190657 0
M  V30 12004 H 1121.26 -3.91151 0.107935 0
M  V30 12005 H 1120.88 -3.64582 -1.58638 0
M  V30 12006 N 1121.88 0.120221 -1.57141 0
M  V30 12007 C 1123.11 0.842441 -1.88972 0
M  V30 12008 C 1123.52 1.73494 -0.744671 0
M  V30 12009 O 1122.88 1.80268 0.284557 0
M  V30 12010 C 1122.93 1.67688 -3.20254 0
M  V30 12011 O 1122.65 0.820319 -4.30351 0
M  V30 12012 C 1124.15 2.50436 -3.65782 0
M  V30 12013 H 1121.37 0.242241 -0.625748 0
M  V30 12014 H 1123.91 0.104978 -2.0423 0
M  V30 12015 H 1122.07 2.36712 -3.0667 0
M  V30 12016 H 1122.48 1.39575 -5.05588 0
M  V30 12017 H 1123.96 3.04518 -4.60405 0
M  V30 12018 H 1124.43 3.27737 -2.92378 0
M  V30 12019 H 1125.04 1.86657 -3.82151 0
M  V30 12020 N 1123.36 1.52689 0.390367 0
M  V30 12021 C 1124.63 1.58246 1.14968 0
M  V30 12022 C 1125.01 0.374808 2.07746 0
M  V30 12023 O 1124.36 -0.636969 2.19442 0
M  V30 12024 C 1124.57 2.92059 1.91056 0
M  V30 12025 C 1125.92 3.45745 2.46466 0
M  V30 12026 O 1126.94 2.93924 2.01214 0
M  V30 12027 O 1125.8 4.3628 3.29122 0
M  V30 12028 H 1122.9 0.638189 0.52597 0
M  V30 12029 H 1125.44 1.65024 0.39563 0
M  V30 12030 H 1124.21 3.71399 1.23201 0
M  V30 12031 H 1123.84 2.8866 2.73425 0
M  V30 12032 N 1124.83 -0.648732 1.43629 0
M  V30 12033 C 1126.11 -1.4062 1.35961 0
M  V30 12034 C 1126.49 -2.11098 0.00961023 0
M  V30 12035 O 1125.84 -2.05107 -1.00714 0
M  V30 12036 C 1126.05 -2.38719 2.54586 0
M  V30 12037 C 1127.4 -3.02584 2.97873 0
M  V30 12038 O 1128.42 -2.49046 2.54665 0
M  V30 12039 O 1127.28 -3.99662 3.72736 0
M  V30 12040 H 1124.37 -0.628483 0.53753 0
M  V30 12041 H 1126.92 -0.675263 1.55687 0
M  V30 12042 H 1125.69 -1.85619 3.44472 0
M  V30 12043 H 1125.32 -3.19257 2.36983 0
M  V30 12044 N 1126.31 -1.30234 -0.887518 0
M  V30 12045 C 1127.22 -1.18316 -2.02579 0
M  V30 12046 C 1128.24 -0.103658 -1.73691 0
M  V30 12047 O 1129.41 -0.3181 -1.98872 0
M  V30 12048 C 1126.48 -0.873222 -3.35523 0
M  V30 12049 C 1125.54 -2.03783 -3.7785 0
M  V30 12050 C 1124.77 -1.74258 -5.0445 0
M  V30 12051 O 1125 -0.669295 -5.6646 0
M  V30 12052 O 1123.93 -2.59423 -5.43124 0
M  V30 12053 H 1127.76 -2.13933 -2.15561 0
M  V30 12054 H 1125.34 -1.09803 -1.0131 0
M  V30 12055 H 1127.22 -0.715463 -4.15282 0
M  V30 12056 H 1125.9 0.053056 -3.23657 0
M  V30 12057 H 1124.81 -2.2509 -2.98806 0
M  V30 12058 H 1126.14 -2.94574 -3.94318 0
M  V30 12059 N 1127.79 1.09952 -1.12909 0
M  V30 12060 C 1129.04 1.81657 -0.885729 0
M  V30 12061 C 1129.36 1.85863 0.589913 0
M  V30 12062 O 1128.63 1.34028 1.42875 0
M  V30 12063 H 1127.21 0.672743 -0.324694 0
M  V30 12064 H 1129.87 1.33013 -1.42456 0
M  V30 12065 H 1128.97 2.85018 -1.27167 0
M  V30 12066 N 1129.27 0.921757 1.27833 0
M  V30 12067 C 1130.2 0.373575 2.26135 0
M  V30 12068 C 1131.21 -0.492414 1.55174 0
M  V30 12069 O 1132.4 -0.305998 1.75858 0
M  V30 12070 C 1129.5 -0.483911 3.35427 0
M  V30 12071 C 1128.68 0.361411 4.35904 0
M  V30 12072 C 1127.73 -0.432461 5.2442 0
M  V30 12073 O 1126.76 0.15777 5.68981 0
M  V30 12074 N 1127.96 -1.73367 5.54007 0
M  V30 12075 H 1130.73 1.21856 2.73809 0
M  V30 12076 H 1128.29 0.788552 1.41398 0
M  V30 12077 H 1130.28 -1.02193 3.91585 0
M  V30 12078 H 1128.85 -1.22963 2.874 0
M  V30 12079 H 1128.07 1.08076 3.79095 0
M  V30 12080 H 1129.36 0.939528 5.0005 0
M  V30 12081 H 1128.76 -2.23561 5.19651 0
M  V30 12082 H 1127.31 -2.21834 6.12889 0
M  V30 12083 N 1130.75 -1.41857 0.686609 0
M  V30 12084 C 1131.68 -2.33481 0.0298353 0
M  V30 12085 C 1132.66 -1.51329 -0.776756 0
M  V30 12086 O 1133.84 -1.79895 -0.731535 0
M  V30 12087 C 1130.97 -3.35065 -0.913707 0
M  V30 12088 C 1129.93 -4.2746 -0.214861 0
M  V30 12089 C 1129.25 -5.19346 -1.27215 0
M  V30 12090 C 1130.55 -5.14252 0.913367 0
M  V30 12091 H 1132.25 -2.8865 0.795067 0
M  V30 12092 H 1129.79 -1.38792 0.383785 0
M  V30 12093 H 1131.75 -3.98082 -1.38234 0
M  V30 12094 H 1130.47 -2.78226 -1.7105 0
M  V30 12095 H 1129.13 -3.65855 0.233651 0
M  V30 12096 H 1128.78 -4.58827 -2.06124 0
M  V30 12097 H 1128.48 -5.81996 -0.80961 0
M  V30 12098 H 1130 -5.85239 -1.74147 0
M  V30 12099 H 1131.41 -5.70887 0.525424 0
M  V30 12100 H 1129.81 -5.85796 1.30244 0
M  V30 12101 H 1130.88 -4.51949 1.75699 0
M  V30 12102 N 1132.22 -0.430739 -1.51599 0
M  V30 12103 C 1133.15 0.374695 -2.30474 0
M  V30 12104 C 1134.14 1.02694 -1.35602 0
M  V30 12105 O 1135.32 1.03184 -1.6452 0
M  V30 12106 C 1132.45 1.47981 -3.14196 0
M  V30 12107 C 1131.4 0.951415 -4.17291 0
M  V30 12108 C 1130.73 2.15177 -4.89492 0
M  V30 12109 C 1132.03 -0.00957951 -5.22299 0
M  V30 12110 H 1133.72 -0.283508 -2.98055 0
M  V30 12111 H 1131.27 -0.13779 -1.43339 0
M  V30 12112 H 1133.22 2.05043 -3.68151 0
M  V30 12113 H 1131.95 2.16621 -2.44424 0
M  V30 12114 H 1130.61 0.403052 -3.64378 0
M  V30 12115 H 1130.25 2.82421 -4.1623 0
M  V30 12116 H 1129.95 1.80464 -5.59202 0
M  V30 12117 H 1131.48 2.72806 -5.46269 0
M  V30 12118 H 1132.89 0.470527 -5.71366 0
M  V30 12119 H 1131.29 -0.268959 -5.99497 0
M  V30 12120 H 1132.36 -0.948297 -4.75537 0
M  V30 12121 N 1133.7 1.56767 -0.161869 0
M  V30 12122 C 1134.93 2.00673 0.491314 0
M  V30 12123 C 1135.34 1.04111 1.5798 0
M  V30 12124 O 1134.68 0.0324889 1.83671 0
M  V30 12125 C 1134.75 3.41011 1.13806 0
M  V30 12126 C 1134.41 4.56595 0.192384 0
M  V30 12127 C 1135.41 5.16591 -0.585671 0
M  V30 12128 C 1133.09 5.02218 0.0909594 0
M  V30 12129 C 1135.09 6.20631 -1.45245 0
M  V30 12130 C 1132.77 6.06109 -0.77941 0
M  V30 12131 C 1133.77 6.65187 -1.54971 0
M  V30 12132 O 1133.46 7.67065 -2.40555 0
M  V30 12133 H 1133.19 0.663174 0.131059 0
M  V30 12134 H 1135.74 2.03775 -0.257896 0
M  V30 12135 H 1133.97 3.34793 1.93521 0
M  V30 12136 H 1135.66 3.68931 1.69248 0
M  V30 12137 H 1136.43 4.82232 -0.517432 0
M  V30 12138 H 1132.31 4.55953 0.680292 0
M  V30 12139 H 1135.85 6.66671 -2.05415 0
M  V30 12140 H 1131.75 6.39894 -0.848887 0
M  V30 12141 H 1132.52 7.84348 -2.33966 0
M  V30 12142 N 1135.18 -0.111886 1.57202 0
M  V30 12143 C 1136.41 -0.836317 1.89791 0
M  V30 12144 C 1136.83 -1.72304 0.754513 0
M  V30 12145 O 1136.19 -1.78889 -0.294672 0
M  V30 12146 C 1136.24 -1.63971 3.21164 0
M  V30 12147 O 1135.34 -2.74726 3.0757 0
M  V30 12148 H 1134.68 -0.230833 0.622585 0
M  V30 12149 H 1137.21 -0.0921478 2.04392 0
M  V30 12150 H 1137.22 -2.02746 3.54059 0
M  V30 12151 H 1135.9 -0.98882 4.03974 0
M  V30 12152 H 1134.47 -2.39101 2.86156 0
M  V30 12153 N 1136.66 -1.52894 -0.382264 0
M  V30 12154 C 1137.9 -1.68515 -1.12829 0
M  V30 12155 C 1138.24 -0.427211 -1.89443 0
M  V30 12156 O 1137.51 0.57516 -1.85801 0
M  V30 12157 C 1137.8 -2.92449 -2.10108 0
M  V30 12158 C 1137.65 -4.2836 -1.37214 0
M  V30 12159 C 1138.97 -3.11944 -3.1045 0
M  V30 12160 H 1136.09 -0.613223 -0.408811 0
M  V30 12161 H 1138.73 -1.85503 -0.410921 0
M  V30 12162 H 1136.88 -2.78097 -2.71283 0
M  V30 12163 H 1138.55 -4.54493 -0.789516 0
M  V30 12164 H 1136.79 -4.28532 -0.673973 0
M  V30 12165 H 1137.46 -5.11178 -2.0833 0
M  V30 12166 H 1139.94 -3.25372 -2.59369 0
M  V30 12167 H 1138.82 -4.00125 -3.75754 0
M  V30 12168 H 1139.08 -2.26465 -3.79692 0
M  V30 12169 N 1138.14 0.641106 -1.43971 0
M  V30 12170 C 1139.41 1.39897 -1.36704 0
M  V30 12171 C 1139.79 2.1109 -0.0208051 0
M  V30 12172 O 1139.14 2.05638 0.99625 0
M  V30 12173 C 1139.35 2.37366 -2.55849 0
M  V30 12174 C 1140.7 3.01 -2.99473 0
M  V30 12175 O 1141.72 2.47692 -2.55982 0
M  V30 12176 O 1140.58 3.9768 -3.74851 0
M  V30 12177 H 1137.68 0.625623 -0.540855 0
M  V30 12178 H 1140.22 0.666997 -1.56042 0
M  V30 12179 H 1139 1.8379 -3.45452 0
M  V30 12180 H 1138.62 3.17995 -2.38673 0
M  V30 12181 N 1139.62 1.30703 0.880598 0
M  V30 12182 C 1140.84 1.22843 1.67106 0
M  V30 12183 C 1141.27 -0.204788 1.86982 0
M  V30 12184 O 1140.62 -1.14716 1.40392 0
M  V30 12185 C 1140.67 1.96685 3.02237 0
M  V30 12186 O 1139.78 1.29693 3.91476 0
M  V30 12187 H 1139.12 0.424661 0.51045 0
M  V30 12188 H 1141.65 1.72596 1.09871 0
M  V30 12189 H 1141.66 2.05874 3.52249 0
M  V30 12190 H 1140.33 3.00919 2.8709 0
M  V30 12191 H 1138.91 1.28886 3.49918 0
M  V30 12192 N 1141.09 -1.09351 1.1349 0
M  V30 12193 C 1142.32 -1.85844 0.92069 0
M  V30 12194 C 1142.74 -1.80616 -0.525303 0
M  V30 12195 O 1142.1 -1.1842 -1.37282 0
M  V30 12196 C 1142.15 -3.31716 1.4141 0
M  V30 12197 O 1141.25 -4.08014 0.599838 0
M  V30 12198 H 1140.59 -0.576242 0.32991 0
M  V30 12199 H 1143.12 -1.38084 1.50976 0
M  V30 12200 H 1143.13 -3.82564 1.41805 0
M  V30 12201 H 1141.81 -3.34837 2.46692 0
M  V30 12202 H 1140.39 -3.66944 0.663816 0
M  V30 12203 N 1142.57 -0.928524 -1.27343 0
M  V30 12204 C 1143.98 -0.613856 -1.7632 0
M  V30 12205 C 1144.33 0.870983 -1.75808 0
M  V30 12206 O 1143.46 1.68155 -1.36209 0
M  V30 12207 C 1144.05 -1.10755 -3.20186 0
M  V30 12208 C 1142.61 -0.843532 -3.66826 0
M  V30 12209 C 1141.76 -1.26579 -2.46724 0
M  V30 12210 H 1144.71 -1.10821 -1.13598 0
M  V30 12211 H 1144.73 -0.455598 -3.77763 0
M  V30 12212 H 1144.24 -2.18825 -3.20526 0
M  V30 12213 H 1142.34 0.223334 -3.7193 0
M  V30 12214 H 1142.46 -1.46165 -4.56259 0
M  V30 12215 H 1140.82 -0.684334 -2.45334 0
M  V30 12216 H 1141.6 -2.35516 -2.49774 0
M  V30 12217 N 1144.05 1.41491 -0.694123 0
M  V30 12218 C 1145.46 1.84283 -0.299439 0
M  V30 12219 C 1145.81 1.58081 1.16211 0
M  V30 12220 O 1144.94 1.05051 1.89191 0
M  V30 12221 C 1145.53 3.34522 -0.536696 0
M  V30 12222 C 1144.09 3.7589 -0.195944 0
M  V30 12223 C 1143.24 2.64908 -0.819692 0
M  V30 12224 H 1146.19 1.31063 -0.894884 0
M  V30 12225 H 1146.21 3.79947 0.205062 0
M  V30 12226 H 1145.72 3.53561 -1.6005 0
M  V30 12227 H 1143.82 3.62452 0.863655 0
M  V30 12228 H 1143.94 4.74671 -0.649954 0
M  V30 12229 H 1142.3 2.53476 -0.249412 0
M  V30 12230 H 1143.08 2.86765 -1.88734 0
M  V30 12231 N 1145.53 0.438773 1.51369 0
M  V30 12232 C 1146.47 -0.37195 2.27783 0
M  V30 12233 C 1147.44 -1.01558 1.31435 0
M  V30 12234 O 1148.63 -1.03421 1.60339 0
M  V30 12235 C 1145.77 -1.46636 3.12397 0
M  V30 12236 C 1144.88 -0.840727 4.2374 0
M  V30 12237 C 1144.02 -1.91031 4.95662 0
M  V30 12238 C 1143.06 -1.26318 5.98924 0
M  V30 12239 N 1142.19 -2.27419 6.64248 0
M  V30 12240 H 1147.03 0.286048 2.96624 0
M  V30 12241 H 1144.57 0.152909 1.46303 0
M  V30 12242 H 1146.53 -2.11219 3.59781 0
M  V30 12243 H 1145.16 -2.09397 2.45668 0
M  V30 12244 H 1144.21 -0.0831588 3.80309 0
M  V30 12245 H 1145.52 -0.328285 4.97719 0
M  V30 12246 H 1144.68 -2.63272 5.46601 0
M  V30 12247 H 1143.42 -2.45649 4.21317 0
M  V30 12248 H 1142.42 -0.526246 5.47276 0
M  V30 12249 H 1143.65 -0.724324 6.75226 0
M  V30 12250 H 1141.59 -2.81114 5.92715 0
M  V30 12251 H 1141.51 -1.81071 7.33996 0
M  V30 12252 H 1142.78 -2.99139 7.19817 0
M  V30 12253 N 1147.01 -1.56678 0.170181 0
M  V30 12254 C 1148.23 -2.0166 -0.484543 0
M  V30 12255 C 1148.66 -1.04962 -1.56091 0
M  V30 12256 O 1148.01 -0.0289887 -1.81277 0
M  V30 12257 C 1148.06 -3.45252 -1.04084 0
M  V30 12258 O 1147.17 -3.51623 -2.15488 0
M  V30 12259 H 1146.51 -0.653765 -0.116135 0
M  V30 12260 H 1149.04 -2.02761 0.273737 0
M  V30 12261 H 1149.05 -3.84534 -1.36373 0
M  V30 12262 H 1147.72 -4.15131 -0.252738 0
M  V30 12263 H 1146.3 -3.242 -1.84252 0
M  V30 12264 N 1148.48 0.103547 -1.57259 0
M  V30 12265 C 1149.41 1.12714 -2.04494 0
M  V30 12266 C 1150.39 1.42278 -0.932255 0
M  V30 12267 O 1151.58 1.52453 -1.20298 0
M  V30 12268 C 1148.71 2.44927 -2.46228 0
M  V30 12269 C 1147.66 2.2979 -3.61082 0
M  V30 12270 C 1146.99 3.67105 -3.88765 0
M  V30 12271 C 1148.29 1.7455 -4.9227 0
M  V30 12272 H 1149.98 0.734198 -2.90258 0
M  V30 12273 H 1147.53 0.351725 -1.39638 0
M  V30 12274 H 1149.48 3.16798 -2.77879 0
M  V30 12275 H 1148.21 2.8614 -1.57453 0
M  V30 12276 H 1146.87 1.60366 -3.29664 0
M  V30 12277 H 1146.51 4.05831 -2.97171 0
M  V30 12278 H 1146.21 3.57825 -4.66084 0
M  V30 12279 H 1147.74 4.40456 -4.22884 0
M  V30 12280 H 1149.15 2.36253 -5.22358 0
M  V30 12281 H 1147.55 1.76051 -5.73695 0
M  V30 12282 H 1148.62 0.704242 -4.79759 0
M  V30 12283 N 1149.96 1.53094 0.37415 0
M  V30 12284 C 1151.37 1.60641 0.951381 0
M  V30 12285 C 1151.72 0.468474 1.90525 0
M  V30 12286 O 1150.85 -0.406347 2.12551 0
M  V30 12287 C 1151.44 2.91166 1.73228 0
M  V30 12288 C 1150 3.01077 2.25898 0
M  V30 12289 C 1149.15 2.55873 1.06885 0
M  V30 12290 H 1152.1 1.57959 0.153214 0
M  V30 12291 H 1152.12 2.78487 2.59278 0
M  V30 12292 H 1151.63 3.73968 1.03778 0
M  V30 12293 H 1149.73 2.22844 2.98615 0
M  V30 12294 H 1149.85 4.05998 2.54367 0
M  V30 12295 H 1148.21 2.10544 1.43329 0
M  V30 12296 H 1148.99 3.41084 0.38947 0
M  V30 12297 N 1151.44 -0.633461 1.44309 0
M  V30 12298 C 1152.69 -1.39031 1.46679 0
M  V30 12299 C 1153.01 -1.94745 0.0997165 0
M  V30 12300 O 1152.28 -1.75637 -0.867659 0
M  V30 12301 H 1150.86 -0.516051 0.540093 0
M  V30 12302 H 1153.52 -0.745739 1.80069 0
M  V30 12303 H 1152.62 -2.2228 2.19085 0
M  V30 12304 N 1152.92 -1.31168 -0.873655 0
M  V30 12305 C 1154.14 -1.23728 -1.66452 0
M  V30 12306 C 1154.57 0.194869 -1.87088 0
M  V30 12307 O 1153.93 1.1397 -1.40998 0
M  V30 12308 C 1153.97 -1.98285 -3.0119 0
M  V30 12309 O 1153.08 -1.31767 -3.90783 0
M  V30 12310 H 1152.42 -0.427362 -0.508191 0
M  V30 12311 H 1154.95 -1.73176 -1.08955 0
M  V30 12312 H 1154.96 -2.0774 -3.51153 0
M  V30 12313 H 1153.63 -3.02437 -2.8549 0
M  V30 12314 H 1152.21 -1.3074 -3.4923 0
M  V30 12315 N 1154.4 1.08748 -1.14068 0
M  V30 12316 C 1155.62 1.84814 -0.930138 0
M  V30 12317 C 1156.04 1.81461 0.521267 0
M  V30 12318 O 1155.4 1.21577 1.36108 0
M  V30 12319 C 1155.45 3.32501 -1.41863 0
M  V30 12320 O 1155.17 3.35846 -2.81317 0
M  V30 12321 C 1156.67 4.25384 -1.24753 0
M  V30 12322 H 1153.89 0.583546 -0.331233 0
M  V30 12323 H 1156.43 1.37366 -1.51495 0
M  V30 12324 H 1154.59 3.7735 -0.876664 0
M  V30 12325 H 1155 4.28013 -3.03159 0
M  V30 12326 H 1156.48 5.27138 -1.63798 0
M  V30 12327 H 1156.95 4.38789 -0.18999 0
M  V30 12328 H 1157.56 3.86357 -1.77787 0
M  V30 12329 N 1155.87 0.935264 1.26849 0
M  V30 12330 C 1157.1 0.595704 1.98661 0
M  V30 12331 C 1157.52 -0.821001 1.69237 0
M  V30 12332 O 1156.88 -1.55211 0.936982 0
M  V30 12333 C 1156.93 0.837275 3.50745 0
M  V30 12334 O 1156.03 -0.0934914 4.12294 0
M  V30 12335 H 1155.38 0.228512 0.623441 0
M  V30 12336 H 1157.91 1.25658 1.61466 0
M  V30 12337 H 1157.92 0.755827 4.00938 0
M  V30 12338 H 1156.59 1.86993 3.71492 0
M  V30 12339 H 1155.17 0.0385124 3.7288 0
M  V30 12340 N 1157.35 -1.41121 0.701616 0
M  V30 12341 C 1158.76 -1.84122 0.309208 0
M  V30 12342 C 1159.11 -1.58695 -1.15371 0
M  V30 12343 O 1158.24 -1.06053 -1.88631 0
M  V30 12344 C 1158.83 -3.34233 0.554429 0
M  V30 12345 C 1157.39 -3.7578 0.215876 0
M  V30 12346 C 1156.54 -2.6447 0.833729 0
M  V30 12347 H 1159.49 -1.30587 0.901822 0
M  V30 12348 H 1159.51 -3.8005 -0.18491 0
M  V30 12349 H 1159.02 -3.52707 1.61923 0
M  V30 12350 H 1157.13 -3.62905 -0.844421 0
M  V30 12351 H 1157.24 -4.74319 0.675118 0
M  V30 12352 H 1155.6 -2.5334 0.262851 0
M  V30 12353 H 1156.39 -2.85761 1.90252 0
M  V30 12354 N 1158.83 -0.446794 -1.51134 0
M  V30 12355 C 1159.78 0.359865 -2.27977 0
M  V30 12356 C 1160.75 1.0086 -1.31972 0
M  V30 12357 O 1161.93 1.02569 -1.60886 0
M  V30 12358 C 1159.07 1.44978 -3.1317 0
M  V30 12359 C 1158.19 0.818243 -4.2418 0
M  V30 12360 C 1157.32 1.884 -4.96668 0
M  V30 12361 C 1156.36 1.2314 -5.99586 0
M  V30 12362 N 1155.5 2.23894 -6.65444 0
M  V30 12363 H 1160.34 -0.301775 -2.96468 0
M  V30 12364 H 1157.87 -0.160666 -1.4622 0
M  V30 12365 H 1159.83 2.09308 -3.60896 0
M  V30 12366 H 1158.46 2.08092 -2.46775 0
M  V30 12367 H 1157.51 0.0629889 -3.80348 0
M  V30 12368 H 1158.83 0.301885 -4.97886 0
M  V30 12369 H 1157.98 2.6037 -5.4799 0
M  V30 12370 H 1156.72 2.43411 -4.22614 0
M  V30 12371 H 1155.72 0.497215 -5.47547 0
M  V30 12372 H 1156.95 0.688505 -6.75601 0
M  V30 12373 H 1154.89 2.77967 -5.94197 0
M  V30 12374 H 1154.81 1.77176 -7.34945 0
M  V30 12375 H 1156.08 2.95318 -7.21393 0
M  V30 12376 N 1160.31 1.56586 -0.178487 0
M  V30 12377 C 1161.56 1.97098 0.464617 0
M  V30 12378 C 1161.88 1.06476 1.62767 0
M  V30 12379 O 1161.14 0.100337 1.95443 0
M  V30 12380 C 1161.44 3.43629 0.982552 0
M  V30 12381 C 1161.1 4.50853 -0.0653645 0
M  V30 12382 C 1159.77 4.79901 -0.353349 0
M  V30 12383 C 1162.12 5.15387 -0.776279 0
M  V30 12384 C 1159.45 5.70779 -1.35751 0
M  V30 12385 C 1161.8 6.07349 -1.76948 0
M  V30 12386 C 1160.46 6.34761 -2.06483 0
M  V30 12387 H 1159.73 0.721232 0.170016 0
M  V30 12388 H 1162.38 1.89559 -0.271959 0
M  V30 12389 H 1160.68 3.48155 1.79709 0
M  V30 12390 H 1162.38 3.7232 1.48926 0
M  V30 12391 H 1158.97 4.28266 0.169266 0
M  V30 12392 H 1163.15 4.9305 -0.567008 0
M  V30 12393 H 1158.41 5.90298 -1.59244 0
M  V30 12394 H 1162.58 6.56419 -2.32567 0
M  V30 12395 H 1160.21 7.0498 -2.84441 0
M  V30 12396 N 1161.79 -0.095206 1.57312 0
M  V30 12397 C 1163.01 -0.81614 1.90667 0
M  V30 12398 C 1163.44 -1.71494 0.772746 0
M  V30 12399 O 1162.79 -1.79192 -0.275682 0
M  V30 12400 C 1162.84 -1.60555 3.22885 0
M  V30 12401 O 1161.95 -2.71448 3.10467 0
M  V30 12402 H 1161.29 -0.224217 0.624998 0
M  V30 12403 H 1163.82 -0.070464 2.04479 0
M  V30 12404 H 1163.83 -1.98979 3.5619 0
M  V30 12405 H 1162.5 -0.945918 4.05 0
M  V30 12406 H 1161.08 -2.36053 2.88675 0
M  V30 12407 N 1163.26 -1.53291 -0.366026 0
M  V30 12408 C 1164.49 -1.73359 -1.12934 0
M  V30 12409 C 1164.91 -0.462352 -1.83051 0
M  V30 12410 O 1164.26 0.564711 -1.73543 0
M  V30 12411 C 1164.32 -2.89873 -2.15999 0
M  V30 12412 O 1164.04 -4.12079 -1.48737 0
M  V30 12413 C 1165.54 -3.21811 -3.04881 0
M  V30 12414 H 1162.76 -0.579827 -0.337701 0
M  V30 12415 H 1165.3 -2.00033 -0.425081 0
M  V30 12416 H 1163.46 -2.65595 -2.82025 0
M  V30 12417 H 1163.87 -4.77322 -2.17404 0
M  V30 12418 H 1165.34 -4.06744 -3.7318 0
M  V30 12419 H 1165.82 -2.37156 -3.69667 0
M  V30 12420 H 1166.43 -3.48013 -2.44473 0
M  V30 12421 N 1164.74 0.6258 -1.44643 0
M  V30 12422 C 1165.99 1.38251 -1.47414 0
M  V30 12423 C 1166.31 1.94689 -0.110043 0
M  V30 12424 O 1165.58 1.76095 0.858333 0
M  V30 12425 H 1164.16 0.513179 -0.542823 0
M  V30 12426 H 1166.82 0.736179 -1.80462 0
M  V30 12427 H 1165.92 2.21115 -2.2026 0
M  V30 12428 N 1166.22 1.31629 0.866686 0
M  V30 12429 C 1167.45 1.24474 1.65269 0
M  V30 12430 C 1167.86 -0.18939 1.87848 0
M  V30 12431 O 1167.22 -1.12251 1.43895 0
M  V30 12432 C 1167.27 1.98872 3.01881 0
M  V30 12433 O 1166.99 3.36687 2.8031 0
M  V30 12434 C 1168.49 1.98595 3.96327 0
M  V30 12435 H 1165.71 0.429966 0.515141 0
M  V30 12436 H 1168.26 1.73559 1.08156 0
M  V30 12437 H 1166.41 1.53539 3.55675 0
M  V30 12438 H 1166.83 3.74612 3.67105 0
M  V30 12439 H 1168.3 2.55156 4.89489 0
M  V30 12440 H 1168.78 0.969257 4.28371 0
M  V30 12441 H 1169.38 2.43821 3.4847 0
M  V30 12442 N 1167.7 -1.08142 1.14644 0
M  V30 12443 C 1169.12 -1.32656 0.887388 0
M  V30 12444 C 1169.32 -1.95942 -0.470012 0
M  V30 12445 O 1168.37 -2.21417 -1.21371 0
M  V30 12446 C 1169.68 -2.22549 2.02219 0
M  V30 12447 C 1171.23 -2.36021 2.0558 0
M  V30 12448 C 1171.71 -3.29257 3.18361 0
M  V30 12449 N 1173.2 -3.36835 3.17957 0
M  V30 12450 C 1173.93 -4.09017 4.01862 0
M  V30 12451 N 1173.43 -4.83882 4.95812 0
M  V30 12452 N 1175.22 -4.04875 3.89913 0
M  V30 12453 H 1167.37 -0.654457 2.02066 0
M  V30 12454 H 1169.64 -0.350947 0.880648 0
M  V30 12455 H 1169.34 -1.83296 3.00159 0
M  V30 12456 H 1169.22 -3.23027 1.94765 0
M  V30 12457 H 1171.6 -2.74531 1.08245 0
M  V30 12458 H 1171.68 -1.35275 2.17105 0
M  V30 12459 H 1171.33 -2.91468 4.15944 0
M  V30 12460 H 1171.26 -4.29938 3.04074 0
M  V30 12461 H 1173.75 -2.83465 2.49912 0
M  V30 12462 H 1174.06 -5.3643 5.56294 0
M  V30 12463 H 1172.41 -4.82926 4.99808 0
M  V30 12464 H 1175.6 -3.45496 3.15833 0
M  V30 12465 H 1175.77 -4.60866 4.55529 0
M  V30 12466 N 1169.18 -0.941978 -1.26351 0
M  V30 12467 C 1170.4 -0.606231 -1.98342 0
M  V30 12468 C 1170.83 0.812014 -1.6967 0
M  V30 12469 O 1170.19 1.54712 -0.9452 0
M  V30 12470 C 1170.23 -0.855864 -3.50296 0
M  V30 12471 O 1169.34 0.0716251 -4.12338 0
M  V30 12472 H 1168.68 -0.231815 -0.62222 0
M  V30 12473 H 1171.21 -1.26513 -1.60797 0
M  V30 12474 H 1171.22 -0.777079 -4.00531 0
M  V30 12475 H 1169.89 -1.8896 -3.70496 0
M  V30 12476 H 1168.47 -0.0582866 -3.72854 0
M  V30 12477 N 1170.66 1.40747 -0.709091 0
M  V30 12478 C 1171.57 2.3454 -0.0532205 0
M  V30 12479 C 1172.58 1.56956 0.751057 0
M  V30 12480 O 1173.76 1.89375 0.685509 0
M  V30 12481 C 1170.82 3.35809 0.862157 0
M  V30 12482 C 1169.88 4.29273 0.0485632 0
M  V30 12483 C 1169.12 5.25705 0.920345 0
M  V30 12484 O 1169.34 5.27933 2.15969 0
M  V30 12485 O 1168.27 6.00806 0.3628 0
M  V30 12486 H 1172.1 2.92232 -0.826698 0
M  V30 12487 H 1169.68 1.4183 -0.469519 0
M  V30 12488 H 1171.57 3.97931 1.38668 0
M  V30 12489 H 1170.24 2.8054 1.61489 0
M  V30 12490 H 1169.15 3.70456 -0.520873 0
M  V30 12491 H 1170.48 4.87676 -0.665807 0
M  V30 12492 N 1172.13 0.454803 1.50895 0
M  V30 12493 C 1173.08 -0.347769 2.28165 0
M  V30 12494 C 1174.05 -1.00158 1.32505 0
M  V30 12495 O 1175.24 -1.01715 1.61427 0
M  V30 12496 C 1172.38 -1.43315 3.13934 0
M  V30 12497 C 1171.49 -0.795736 4.24608 0
M  V30 12498 C 1170.62 -1.85763 4.9766 0
M  V30 12499 C 1169.66 -1.19959 6.0023 0
M  V30 12500 N 1168.8 -2.20361 6.66622 0
M  V30 12501 H 1173.64 0.317493 2.96304 0
M  V30 12502 H 1171.18 0.168418 1.46133 0
M  V30 12503 H 1173.13 -2.07391 3.62001 0
M  V30 12504 H 1171.76 -2.0678 2.47875 0
M  V30 12505 H 1170.82 -0.0428173 3.80376 0
M  V30 12506 H 1172.13 -0.275477 4.98039 0
M  V30 12507 H 1171.28 -2.5746 5.49363 0
M  V30 12508 H 1170.02 -2.41166 4.23899 0
M  V30 12509 H 1169.03 -0.46817 5.47803 0
M  V30 12510 H 1170.25 -0.652666 6.75956 0
M  V30 12511 H 1168.2 -2.74812 5.95663 0
M  V30 12512 H 1168.11 -1.73275 7.35875 0
M  V30 12513 H 1169.38 -2.91488 7.22949 0
M  V30 12514 N 1173.61 -1.56489 0.186789 0
M  V30 12515 C 1174.56 -2.20034 -0.754164 0
M  V30 12516 C 1175.55 -1.16899 -1.22601 0
M  V30 12517 O 1176.76 -1.35064 -1.18987 0
M  V30 12518 H 1173.13 -0.705058 -0.261529 0
M  V30 12519 H 1175.11 -2.97766 -0.194418 0
M  V30 12520 C 1173.85 -2.86733 -1.9667 0
M  V30 12521 H 1173.18 -3.65831 -1.61268 0
M  V30 12522 H 1174.62 -3.34645 -2.60363 0
M  V30 12523 C 1173.08 -1.87325 -2.8002 0
M  V30 12524 O 1173.61 -1.36835 -3.77676 0
M  V30 12525 N 1171.81 -1.55738 -2.45345 0
M  V30 12526 H 1171.36 -1.9699 -1.6599 0
M  V30 12527 H 1171.32 -0.894805 -3.01398 0
M  V30 12528 N 1175.09 0.086862 -1.5736 0
M  V30 12529 C 1176.04 1.11134 -1.99081 0
M  V30 12530 C 1177.02 1.35318 -0.870506 0
M  V30 12531 O 1178.22 1.35871 -1.13437 0
M  V30 12532 C 1175.34 2.42931 -2.42569 0
M  V30 12533 C 1174.43 2.22085 -3.61302 0
M  V30 12534 N 1174.82 1.71128 -4.75971 0
M  V30 12535 C 1173.12 2.52619 -3.67559 0
M  V30 12536 C 1173.82 1.64745 -5.57883 0
M  V30 12537 N 1172.8 2.10257 -5.01291 0
M  V30 12538 H 1176.6 0.710431 -2.85184 0
M  V30 12539 H 1174.11 0.294168 -1.59714 0
M  V30 12540 H 1176.11 3.17069 -2.7069 0
M  V30 12541 H 1174.77 2.83751 -1.57846 0
M  V30 12542 H 1175.78 1.40207 -4.9856 0
M  V30 12543 H 1172.46 2.96908 -2.93516 0
M  V30 12544 H 1173.85 1.26329 -6.59917 0
M  V30 12545 N 1176.57 1.53483 0.357892 0
M  V30 12546 C 1177.81 1.70037 1.09971 0
M  V30 12547 C 1178.14 0.456112 1.89076 0
M  V30 12548 O 1177.4 -0.562029 1.87456 0
M  V30 12549 C 1177.7 2.90654 2.07978 0
M  V30 12550 C 1177.36 4.26849 1.45295 0
M  V30 12551 C 1176.02 4.63884 1.27928 0
M  V30 12552 C 1178.38 5.11514 1.00013 0
M  V30 12553 C 1175.7 5.83213 0.638745 0
M  V30 12554 C 1178.06 6.31496 0.373568 0
M  V30 12555 C 1176.72 6.67237 0.187457 0
M  V30 12556 H 1175.99 0.622209 0.402414 0
M  V30 12557 H 1178.64 1.87679 0.380615 0
M  V30 12558 H 1176.94 2.67556 2.86219 0
M  V30 12559 H 1178.64 3.00656 2.65343 0
M  V30 12560 H 1175.23 3.97693 1.59807 0
M  V30 12561 H 1179.41 4.83446 1.12221 0
M  V30 12562 H 1174.67 6.09489 0.483035 0
M  V30 12563 H 1178.84 6.96398 0.0145346 0
M  V30 12564 H 1176.47 7.59564 -0.310933 0
M  V30 12565 N 1178.05 -0.61812 1.44973 0
M  V30 12566 C 1178.96 -1.7579 1.55355 0
M  V30 12567 C 1179.97 -1.68384 0.438512 0
M  V30 12568 O 1181.15 -1.88928 0.697715 0
M  V30 12569 C 1178.21 -3.1222 1.50729 0
M  V30 12570 C 1177.27 -3.3116 2.73188 0
M  V30 12571 C 1176.51 -4.61082 2.68774 0
M  V30 12572 O 1176.73 -5.42728 1.75507 0
M  V30 12573 O 1175.66 -4.82506 3.59821 0
M  V30 12574 H 1179.49 -1.69983 2.51674 0
M  V30 12575 H 1177.07 -0.780934 1.27365 0
M  V30 12576 H 1178.96 -3.93524 1.5072 0
M  V30 12577 H 1177.63 -3.18541 0.575587 0
M  V30 12578 H 1176.54 -2.49485 2.78762 0
M  V30 12579 H 1177.87 -3.29709 3.65449 0
M  V30 12580 N 1179.52 -1.32087 -0.859693 0
M  V30 12581 C 1180.75 -1.25486 -1.6513 0
M  V30 12582 C 1181.17 0.175015 -1.87284 0
M  V30 12583 O 1180.53 1.12468 -1.42199 0
M  V30 12584 C 1180.58 -2.01469 -2.9907 0
M  V30 12585 O 1179.68 -1.35904 -3.89363 0
M  V30 12586 H 1179.02 -0.432728 -0.503629 0
M  V30 12587 H 1181.55 -1.74322 -1.07112 0
M  V30 12588 H 1181.56 -2.11452 -3.4893 0
M  V30 12589 H 1180.24 -3.05448 -2.82266 0
M  V30 12590 H 1178.82 -1.34437 -3.47823 0
M  V30 12591 N 1181 1.07532 -1.15215 0
M  V30 12592 C 1182.23 1.84356 -0.950139 0
M  V30 12593 C 1182.65 1.81429 0.496502 0
M  V30 12594 O 1182.01 1.20589 1.35381 0
M  V30 12595 C 1182.06 3.29425 -1.46669 0
M  V30 12596 O 1181.16 4.07008 -0.664674 0
M  V30 12597 H 1180.5 0.570921 -0.339036 0
M  V30 12598 H 1183.03 1.35665 -1.53154 0
M  V30 12599 H 1183.04 3.8026 -1.47873 0
M  V30 12600 H 1181.72 3.3087 -2.51988 0
M  V30 12601 H 1180.29 3.65841 -0.72211 0
M  V30 12602 N 1182.48 0.948665 1.2585 0
M  V30 12603 C 1183.89 0.641829 1.75321 0
M  V30 12604 C 1184.24 -0.842903 1.77171 0
M  V30 12605 O 1183.37 -1.65967 1.38867 0
M  V30 12606 C 1183.96 1.15835 3.18383 0
M  V30 12607 C 1182.52 0.901784 3.65438 0
M  V30 12608 C 1181.67 1.30489 2.44679 0
M  V30 12609 H 1184.62 1.12614 1.1182 0
M  V30 12610 H 1184.64 0.515639 3.7699 0
M  V30 12611 H 1184.15 2.23897 3.17004 0
M  V30 12612 H 1182.25 -0.164135 3.72238 0
M  V30 12613 H 1182.37 1.53405 4.53876 0
M  V30 12614 H 1180.73 0.723278 2.44215 0
M  V30 12615 H 1181.51 2.3946 2.45996 0
M  V30 12616 N 1183.96 -1.40369 0.716545 0
M  V30 12617 C 1184.89 -2.33365 0.0793533 0
M  V30 12618 C 1185.87 -1.52943 -0.744482 0
M  V30 12619 O 1187.05 -1.81406 -0.693212 0
M  V30 12620 C 1184.18 -3.36928 -0.842429 0
M  V30 12621 C 1183.14 -4.2782 -0.124142 0
M  V30 12622 C 1182.46 -5.21928 -1.1617 0
M  V30 12623 C 1183.76 -5.12199 1.02224 0
M  V30 12624 H 1185.46 -2.86899 0.856115 0
M  V30 12625 H 1183 -1.37946 0.413138 0
M  V30 12626 H 1184.96 -4.00925 -1.29759 0
M  V30 12627 H 1183.68 -2.81791 -1.6511 0
M  V30 12628 H 1182.34 -3.65277 0.311201 0
M  V30 12629 H 1181.99 -4.63096 -1.96345 0
M  V30 12630 H 1181.69 -5.83582 -0.685978 0
M  V30 12631 H 1183.21 -5.88802 -1.61694 0
M  V30 12632 H 1184.63 -5.69644 0.646399 0
M  V30 12633 H 1183.02 -5.82901 1.4264 0
M  V30 12634 H 1184.09 -4.4812 1.85246 0
M  V30 12635 N 1185.44 -0.462799 -1.50652 0
M  V30 12636 C 1186.85 -0.00568907 -1.86699 0
M  V30 12637 C 1187.2 1.39641 -1.37822 0
M  V30 12638 O 1186.32 2.03366 -0.739679 0
M  V30 12639 C 1186.92 -0.00354783 -3.388 0
M  V30 12640 C 1185.48 0.398061 -3.74289 0
M  V30 12641 C 1184.62 -0.392574 -2.74507 0
M  V30 12642 H 1187.58 -0.677469 -1.43513 0
M  V30 12643 H 1187.6 0.800456 -3.71985 0
M  V30 12644 H 1187.11 -1.02414 -3.74344 0
M  V30 12645 H 1185.21 1.42331 -3.44344 0
M  V30 12646 H 1185.32 0.105168 -4.78985 0
M  V30 12647 H 1183.69 0.152608 -2.54242 0
M  V30 12648 H 1184.47 -1.41252 -3.12894 0
M  V30 12649 N 1186.91 1.56388 -0.195085 0
M  V30 12650 C 1188.14 2.01963 0.449289 0
M  V30 12651 C 1188.56 1.07522 1.55192 0
M  V30 12652 O 1187.91 0.0800915 1.82324 0
M  V30 12653 C 1187.97 3.47231 1.00561 0
M  V30 12654 O 1187.69 4.38068 -0.0530241 0
M  V30 12655 C 1189.19 4.08324 1.72587 0
M  V30 12656 H 1186.41 0.661452 0.112792 0
M  V30 12657 H 1188.95 2.02231 -0.303788 0
M  V30 12658 H 1187.11 3.47663 1.70907 0
M  V30 12659 H 1187.52 5.23256 0.361076 0
M  V30 12660 H 1188.99 5.11821 2.06744 0
M  V30 12661 H 1189.47 3.51782 2.62956 0
M  V30 12662 H 1190.08 4.11665 1.06826 0
M  V30 12663 N 1188.39 -0.0785156 1.57404 0
M  V30 12664 C 1189.62 -0.795871 1.91522 0
M  V30 12665 C 1190.04 -1.70665 0.790892 0
M  V30 12666 O 1189.4 -1.79474 -0.25666 0
M  V30 12667 C 1189.45 -1.57121 3.24569 0
M  V30 12668 O 1188.55 -2.6814 3.13328 0
M  V30 12669 H 1187.89 -0.217575 0.627341 0
M  V30 12670 H 1190.42 -0.0487724 2.04542 0
M  V30 12671 H 1190.43 -1.9519 3.5828 0
M  V30 12672 H 1189.11 -0.902909 4.05981 0
M  V30 12673 H 1187.69 -2.32978 2.91163 0
M  V30 12674 N 1189.87 -1.5367 -0.349747 0
M  V30 12675 C 1191.28 -1.62135 -0.925704 0
M  V30 12676 C 1191.63 -0.498725 -1.89756 0
M  V30 12677 O 1190.76 0.372481 -2.1317 0
M  V30 12678 C 1191.35 -2.93885 -1.68573 0
M  V30 12679 C 1189.91 -3.04632 -2.2108 0
M  V30 12680 C 1189.06 -2.57541 -1.02801 0
M  V30 12681 H 1192.01 -1.58182 -0.128065 0
M  V30 12682 H 1192.03 -2.82577 -2.54815 0
M  V30 12683 H 1191.54 -3.75571 -0.978153 0
M  V30 12684 H 1189.64 -2.27567 -2.95032 0
M  V30 12685 H 1189.76 -4.09993 -2.47876 0
M  V30 12686 H 1188.12 -2.12798 -1.39962 0
M  V30 12687 H 1188.9 -3.4166 -0.335157 0
M  V30 12688 N 1191.35 0.610423 -1.45298 0
M  V30 12689 C 1192.3 1.7213 -1.53753 0
M  V30 12690 C 1193.27 1.61609 -0.383632 0
M  V30 12691 O 1194.45 1.8123 -0.596694 0
M  V30 12692 C 1191.59 3.10433 -1.50749 0
M  V30 12693 C 1190.7 3.3178 -2.76669 0
M  V30 12694 C 1189.84 4.60173 -2.65356 0
M  V30 12695 C 1188.88 4.74769 -3.86343 0
M  V30 12696 N 1188.01 5.94459 -3.73581 0
M  V30 12697 H 1192.85 1.64239 -2.48655 0
M  V30 12698 H 1190.39 0.800879 -1.23387 0
M  V30 12699 H 1192.35 3.90446 -1.46996 0
M  V30 12700 H 1190.98 3.17288 -0.593998 0
M  V30 12701 H 1190.03 2.45563 -2.90522 0
M  V30 12702 H 1191.34 3.38439 -3.66416 0
M  V30 12703 H 1190.5 5.48377 -2.59553 0
M  V30 12704 H 1189.24 4.55907 -1.73204 0
M  V30 12705 H 1188.24 3.8499 -3.92509 0
M  V30 12706 H 1189.47 4.80834 -4.79557 0
M  V30 12707 H 1187.41 5.91243 -2.84196 0
M  V30 12708 H 1187.33 6.02265 -4.5696 0
M  V30 12709 H 1188.6 6.85168 -3.71705 0
M  V30 12710 N 1192.83 1.32541 0.852676 0
M  V30 12711 C 1194.07 1.23214 1.607 0
M  V30 12712 C 1194.4 -0.205542 1.93411 0
M  V30 12713 O 1193.66 -1.15907 1.57683 0
M  V30 12714 C 1193.96 2.039 2.9353 0
M  V30 12715 C 1193.62 3.53237 2.8024 0
M  V30 12716 C 1192.28 3.93953 2.76323 0
M  V30 12717 C 1194.64 4.48194 2.6603 0
M  V30 12718 C 1191.96 5.27865 2.56077 0
M  V30 12719 C 1194.32 5.82251 2.47319 0
M  V30 12720 C 1192.98 6.22166 2.41796 0
M  V30 12721 H 1192.25 0.450873 0.588043 0
M  V30 12722 H 1194.9 1.63988 0.988954 0
M  V30 12723 H 1193.2 1.55861 3.59464 0
M  V30 12724 H 1194.9 1.94051 3.50921 0
M  V30 12725 H 1191.49 3.209 2.84114 0
M  V30 12726 H 1195.67 4.17656 2.681 0
M  V30 12727 H 1190.93 5.57845 2.50237 0
M  V30 12728 H 1195.1 6.55442 2.35305 0
M  V30 12729 H 1192.73 7.2587 2.25868 0
M  V30 12730 N 1194.3 -1.0692 1.15784 0
M  V30 12731 C 1195.23 -2.16216 0.881649 0
M  V30 12732 C 1196.22 -1.69253 -0.16951 0
M  V30 12733 O 1197.4 -1.94186 -0.0229511 0
M  V30 12734 C 1194.53 -3.4527 0.374982 0
M  V30 12735 C 1193.48 -4.05706 1.36332 0
M  V30 12736 C 1192.81 -5.29894 0.715317 0
M  V30 12737 C 1194.11 -4.45224 2.7308 0
M  V30 12738 H 1195.8 -2.39577 1.79563 0
M  V30 12739 H 1193.35 -1.15141 0.864784 0
M  V30 12740 H 1195.3 -4.2106 0.169279 0
M  V30 12741 H 1194.03 -3.21508 -0.574485 0
M  V30 12742 H 1192.69 -3.31965 1.55546 0
M  V30 12743 H 1192.33 -5.02425 -0.240436 0
M  V30 12744 H 1192.03 -5.71287 1.37494 0
M  V30 12745 H 1193.56 -6.08386 0.519489 0
M  V30 12746 H 1194.97 -5.12124 2.57686 0
M  V30 12747 H 1193.37 -4.97583 3.35457 0
M  V30 12748 H 1194.44 -3.56384 3.28813 0
M  V30 12749 N 1195.78 -0.955326 -1.25345 0
M  V30 12750 C 1197.2 -0.659863 -1.4532 0
M  V30 12751 C 1197.4 0.78238 -1.85691 0
M  V30 12752 O 1196.45 1.5576 -1.98734 0
M  V30 12753 C 1197.77 -1.63339 -2.5247 0
M  V30 12754 C 1199.32 -1.64464 -2.66309 0
M  V30 12755 C 1199.79 -2.60583 -3.76644 0
M  V30 12756 N 1201.28 -2.58951 -3.84055 0
M  V30 12757 C 1202.02 -3.30002 -4.6892 0
M  V30 12758 N 1201.51 -4.10528 -5.58067 0
M  V30 12759 N 1203.31 -3.18886 -4.62891 0
M  V30 12760 H 1195.46 -1.88734 -0.97433 0
M  V30 12761 H 1197.72 -0.811858 -0.48948 0
M  V30 12762 H 1197.43 -2.66358 -2.29665 0
M  V30 12763 H 1197.3 -1.39644 -3.50399 0
M  V30 12764 H 1199.69 -0.621622 -2.88479 0
M  V30 12765 H 1199.77 -1.92218 -1.68778 0
M  V30 12766 H 1199.41 -3.63011 -3.55226 0
M  V30 12767 H 1199.34 -2.30113 -4.73662 0
M  V30 12768 H 1201.83 -2.00491 -3.20331 0
M  V30 12769 H 1202.15 -4.6166 -6.1975 0
M  V30 12770 H 1200.49 -4.14626 -5.57773 0
M  V30 12771 H 1203.68 -2.55447 -3.92255 0
M  V30 12772 H 1203.85 -3.74524 -5.28806 0
M  V30 12773 N 1197.26 1.39987 -0.723979 0
M  V30 12774 C 1198.19 2.2917 -0.0373445 0
M  V30 12775 C 1199.21 1.46258 0.715015 0
M  V30 12776 O 1200.4 1.69455 0.561003 0
M  V30 12777 C 1197.5 3.2468 0.971384 0
M  V30 12778 C 1196.67 4.36485 0.282826 0
M  V30 12779 C 1195.73 5.12379 1.19811 0
M  V30 12780 O 1194.75 5.65127 0.67974 0
M  V30 12781 N 1195.96 5.22531 2.52866 0
M  V30 12782 H 1198.72 2.88738 -0.803131 0
M  V30 12783 H 1196.28 1.51448 -0.572292 0
M  V30 12784 H 1198.27 3.72326 1.58606 0
M  V30 12785 H 1196.84 2.6622 1.63846 0
M  V30 12786 H 1196.06 3.90859 -0.512167 0
M  V30 12787 H 1197.35 5.08427 -0.194793 0
M  V30 12788 H 1196.75 4.81174 2.97469 0
M  V30 12789 H 1195.31 5.73655 3.09457 0
M  V30 12790 N 1198.74 0.470782 1.50404 0
M  V30 12791 C 1199.69 -0.337584 2.30137 0
M  V30 12792 C 1200.68 -0.990673 1.37412 0
M  V30 12793 O 1201.89 -0.921813 1.54605 0
M  V30 12794 H 1198.26 -0.127707 0.741077 0
M  V30 12795 H 1200.23 0.355297 2.96277 0
M  V30 12796 C 1198.98 -1.40714 3.17954 0
M  V30 12797 H 1198.31 -0.913982 3.89213 0
M  V30 12798 H 1199.75 -1.94533 3.7674 0
M  V30 12799 C 1198.2 -2.40889 2.35529 0
M  V30 12800 O 1198.73 -3.46153 2.03816 0
M  V30 12801 N 1196.94 -2.126 1.98115 0
M  V30 12802 H 1196.49 -1.27023 2.24105 0
M  V30 12803 H 1196.45 -2.7986 1.43269 0
M  V30 12804 N 1200.22 -1.56282 0.203376 0
M  V30 12805 C 1201.46 -1.99712 -0.43527 0
M  V30 12806 C 1201.82 -1.0876 -1.58225 0
M  V30 12807 O 1203.02 -1.4146 -2.28566 0
M  V30 12808 C 1201.29 -3.46501 -0.875885 0
M  V30 12809 S 1202.85 -4.11957 -1.5112 0
M  V30 12810 H 1199.67 -0.697305 -0.138879 0
M  V30 12811 H 1202.27 -1.93052 0.308392 0
M  V30 12812 H 1200.98 -4.10388 -0.0311623 0
M  V30 12813 H 1200.51 -3.56996 -1.65281 0
M  V30 12814 H 1202.52 -4.09645 -2.80009 0
M  V30 12815 N 1201.7 0.070167 -1.57444 0
M  V30 12816 C 1202.94 0.767842 -1.86513 0
M  V30 12817 C 1203.26 1.78659 -0.796257 0
M  V30 12818 O 1204.46 2.53395 -0.974845 0
M  V30 12819 C 1202.92 1.41654 -3.30851 0
M  V30 12820 C 1202.53 0.436273 -4.45871 0
M  V30 12821 C 1204.27 2.09649 -3.69117 0
M  V30 12822 C 1202.18 1.09098 -5.8125 0
M  V30 12823 H 1201.11 0.290519 -0.695784 0
M  V30 12824 H 1203.76 0.0211697 -1.83488 0
M  V30 12825 H 1202.14 2.21153 -3.28493 0
M  V30 12826 H 1203.32 -0.329022 -4.59624 0
M  V30 12827 H 1201.63 -0.139314 -4.16167 0
M  V30 12828 H 1204.23 2.59411 -4.67558 0
M  V30 12829 H 1204.57 2.89663 -2.99 0
M  V30 12830 H 1205.1 1.36979 -3.73472 0
M  V30 12831 H 1201.84 0.331128 -6.54663 0
M  V30 12832 H 1201.36 1.8271 -5.71294 0
M  V30 12833 H 1203.04 1.61034 -6.2664 0
M  V30 12834 N 1203.17 1.53854 0.341593 0
M  V30 12835 C 1204.4 1.7488 1.10002 0
M  V30 12836 C 1204.81 0.488802 1.82777 0
M  V30 12837 O 1204.15 -0.549333 1.75294 0
M  V30 12838 C 1204.22 2.87604 2.15694 0
M  V30 12839 C 1203.88 4.27142 1.62477 0
M  V30 12840 C 1204.88 5.08642 1.07606 0
M  V30 12841 C 1202.56 4.73633 1.67265 0
M  V30 12842 C 1204.56 6.34735 0.582284 0
M  V30 12843 C 1202.24 5.99697 1.175 0
M  V30 12844 C 1203.24 6.80081 0.630742 0
M  V30 12845 O 1202.93 8.03777 0.140519 0
M  V30 12846 H 1202.66 0.587824 0.333824 0
M  V30 12847 H 1205.22 2.01488 0.398965 0
M  V30 12848 H 1203.45 2.56526 2.89364 0
M  V30 12849 H 1205.13 2.96583 2.77117 0
M  V30 12850 H 1205.9 4.73887 1.03227 0
M  V30 12851 H 1201.78 4.11121 2.08567 0
M  V30 12852 H 1205.32 6.97424 0.156811 0
M  V30 12853 H 1201.22 6.33947 1.21579 0
M  V30 12854 H 1201.99 8.18094 0.257626 0
M  V30 12855 N 1204.65 -0.602709 1.4562 0
M  V30 12856 C 1205.88 -1.39299 1.53657 0
M  V30 12857 C 1206.3 -1.87315 0.171632 0
M  V30 12858 O 1205.66 -1.60423 -0.844639 0
M  V30 12859 C 1205.71 -2.57021 2.52928 0
M  V30 12860 O 1204.81 -3.57812 2.05047 0
M  V30 12861 H 1204.15 -0.41567 0.517798 0
M  V30 12862 H 1206.68 -0.73304 1.91018 0
M  V30 12863 H 1206.69 -3.04202 2.71892 0
M  V30 12864 H 1205.37 -2.21422 3.52058 0
M  V30 12865 H 1203.94 -3.17247 1.95981 0
M  V30 12866 N 1206.13 -1.32992 -0.845635 0
M  V30 12867 C 1207.36 -1.27087 -1.63268 0
M  V30 12868 C 1207.77 0.159481 -1.88125 0
M  V30 12869 O 1207.13 1.09948 -1.45663 0
M  V30 12870 C 1207.18 -2.03649 -2.98679 0
M  V30 12871 O 1206.9 -3.41104 -2.74918 0
M  V30 12872 C 1208.4 -2.04875 -3.93117 0
M  V30 12873 H 1205.62 -0.438107 -0.508236 0
M  V30 12874 H 1208.17 -1.75257 -1.05381 0
M  V30 12875 H 1206.32 -1.59178 -3.53187 0
M  V30 12876 H 1206.74 -3.80405 -3.61099 0
M  V30 12877 H 1208.21 -2.62911 -4.85368 0
M  V30 12878 H 1208.69 -1.03728 -4.26775 0
M  V30 12879 H 1209.29 -2.49334 -3.44547 0
M  V30 12880 N 1207.61 1.06304 -1.1635 0
M  V30 12881 C 1208.52 2.17296 -0.884289 0
M  V30 12882 C 1209.53 1.73408 0.143414 0
M  V30 12883 O 1210.71 2.01373 -0.0331987 0
M  V30 12884 C 1207.77 3.44509 -0.389163 0
M  V30 12885 C 1206.84 4.02906 -1.48208 0
M  V30 12886 C 1206.07 5.24047 -1.01048 0
M  V30 12887 O 1206.29 5.70229 0.139821 0
M  V30 12888 O 1205.23 5.74394 -1.79876 0
M  V30 12889 H 1209.05 2.4369 -1.81243 0
M  V30 12890 H 1206.64 1.15841 -0.943459 0
M  V30 12891 H 1208.52 4.21229 -0.120018 0
M  V30 12892 H 1207.19 3.19642 0.510968 0
M  V30 12893 H 1206.1 3.27677 -1.80496 0
M  V30 12894 H 1207.43 4.32068 -2.35751 0
M  V30 12895 N 1209.09 0.96196 1.24836 0
M  V30 12896 C 1210.05 0.492443 2.23847 0
M  V30 12897 C 1211.05 -0.40788 1.55541 0
M  V30 12898 O 1212.24 -0.204143 1.73 0
M  V30 12899 C 1209.37 -0.287578 3.39685 0
M  V30 12900 H 1210.56 1.36767 2.66899 0
M  V30 12901 H 1208.12 0.745967 1.3735 0
M  V30 12902 H 1208.85 -1.18015 3.02064 0
M  V30 12903 H 1208.64 0.358431 3.90458 0
M  V30 12904 H 1210.13 -0.605297 4.1319 0
M  V30 12905 N 1210.56 -1.39601 0.731392 0
M  V30 12906 C 1211.49 -2.33268 0.1041 0
M  V30 12907 C 1212.47 -1.53724 -0.728219 0
M  V30 12908 O 1213.66 -1.82131 -0.673933 0
M  V30 12909 C 1210.79 -3.37802 -0.806646 0
M  V30 12910 C 1209.74 -4.27928 -0.0787588 0
M  V30 12911 C 1209.07 -5.23131 -1.10628 0
M  V30 12912 C 1210.37 -5.11086 1.07651 0
M  V30 12913 H 1212.06 -2.85975 0.886496 0
M  V30 12914 H 1209.61 -1.375 0.427746 0
M  V30 12915 H 1211.56 -4.02278 -1.25499 0
M  V30 12916 H 1210.29 -2.83527 -1.62112 0
M  V30 12917 H 1208.95 -3.64926 0.349926 0
M  V30 12918 H 1208.59 -4.65152 -1.91422 0
M  V30 12919 H 1208.29 -5.84277 -0.624043 0
M  V30 12920 H 1209.82 -5.90483 -1.5544 0
M  V30 12921 H 1211.23 -5.68927 0.706781 0
M  V30 12922 H 1209.63 -5.81356 1.48814 0
M  V30 12923 H 1210.7 -4.46131 1.89988 0
M  V30 12924 N 1212.04 -0.478751 -1.50152 0
M  V30 12925 C 1213.27 0.0710485 -2.06778 0
M  V30 12926 C 1213.69 1.32826 -1.34174 0
M  V30 12927 O 1213.04 1.77758 -0.413304 0
M  V30 12928 C 1213.09 0.351351 -3.59789 0
M  V30 12929 O 1212.81 -0.855998 -4.29656 0
M  V30 12930 C 1214.32 0.947269 -4.33061 0
M  V30 12931 H 1211.54 -0.0105032 -0.670918 0
M  V30 12932 H 1214.08 -0.669732 -1.93222 0
M  V30 12933 H 1212.23 1.04207 -3.73121 0
M  V30 12934 H 1212.65 -0.605252 -5.20996 0
M  V30 12935 H 1214.12 1.09312 -5.41068 0
M  V30 12936 H 1214.6 1.93937 -3.94062 0
M  V30 12937 H 1215.21 0.294693 -4.24278 0
M  V30 12938 N 1213.52 1.56172 -0.211661 0
M  V30 12939 C 1214.77 1.97648 0.421871 0
M  V30 12940 C 1215.09 1.10026 1.60995 0
M  V30 12941 O 1214.36 0.175109 1.95116 0
M  V30 12942 H 1212.94 0.729914 0.158852 0
M  V30 12943 H 1215.6 1.92542 -0.302254 0
M  V30 12944 H 1214.7 3.02834 0.754868 0
M  V30 12945 N 1215 -0.0618163 1.57479 0
M  V30 12946 C 1215.95 -1.0724 2.04373 0
M  V30 12947 C 1216.92 -1.37875 0.926271 0
M  V30 12948 O 1218.1 -1.48772 1.19463 0
M  V30 12949 C 1215.24 -2.37805 2.50085 0
M  V30 12950 C 1214.35 -2.13614 3.7549 0
M  V30 12951 C 1213.49 -3.37814 4.09945 0
M  V30 12952 C 1212.53 -3.09032 5.28361 0
M  V30 12953 N 1211.66 -4.25591 5.58406 0
M  V30 12954 H 1216.5 -0.665536 2.90473 0
M  V30 12955 H 1214.04 -0.317043 1.43643 0
M  V30 12956 H 1216 -3.14048 2.74644 0
M  V30 12957 H 1214.63 -2.76275 1.66948 0
M  V30 12958 H 1213.68 -1.28017 3.58212 0
M  V30 12959 H 1214.99 -1.88361 4.61867 0
M  V30 12960 H 1214.15 -4.22447 4.35458 0
M  V30 12961 H 1212.89 -3.66153 3.22154 0
M  V30 12962 H 1211.89 -2.22797 5.02635 0
M  V30 12963 H 1213.12 -2.82006 6.17778 0
M  V30 12964 H 1211.06 -4.53941 4.73575 0
M  V30 12965 H 1210.98 -4.03646 6.39223 0
M  V30 12966 H 1212.25 -5.11191 5.88476 0
M  V30 12967 N 1216.48 -1.54033 -0.333429 0
M  V30 12968 C 1217.72 -1.71426 -1.0704 0
M  V30 12969 C 1218.05 -0.485496 -1.8886 0
M  V30 12970 O 1217.32 0.500555 -1.89397 0
M  V30 12971 H 1215.9 -0.632034 -0.398173 0
M  V30 12972 H 1218.56 -1.91312 -0.372252 0
M  V30 12973 H 1217.65 -2.58958 -1.74205 0
M  V30 12974 N 1217.95 0.594978 -1.45938 0
M  V30 12975 C 1219.37 1.17703 -1.44924 0
M  V30 12976 C 1219.72 1.9534 -0.183522 0
M  V30 12977 O 1218.84 2.04276 0.714163 0
M  V30 12978 C 1219.44 2.14119 -2.62561 0
M  V30 12979 C 1218 2.67674 -2.64627 0
M  V30 12980 C 1217.14 1.43312 -2.37397 0
M  V30 12981 H 1220.09 0.383583 -1.53995 0
M  V30 12982 H 1220.11 2.97374 -2.3738 0
M  V30 12983 H 1219.63 1.57586 -3.54667 0
M  V30 12984 H 1217.73 3.28111 -1.76562 0
M  V30 12985 H 1217.84 3.11246 -3.64229 0
M  V30 12986 H 1216.2 1.72702 -1.87206 0
M  V30 12987 H 1216.99 0.886276 -3.31663 0
M  V30 12988 N 1219.43 1.33438 0.838571 0
M  V30 12989 C 1220.66 1.28097 1.63113 0
M  V30 12990 C 1221.08 -0.145197 1.87539 0
M  V30 12991 O 1220.44 -1.10191 1.43971 0
M  V30 12992 C 1220.49 2.06201 2.95827 0
M  V30 12993 O 1219.59 1.42082 3.87152 0
M  V30 12994 H 1218.93 0.440685 0.496681 0
M  V30 12995 H 1221.46 1.76004 1.04325 0
M  V30 12996 H 1221.47 2.16977 3.45521 0
M  V30 12997 H 1220.15 3.099 2.77371 0
M  V30 12998 H 1218.73 1.39953 3.45641 0
M  V30 12999 N 1220.91 -1.05686 1.16912 0
M  V30 13000 C 1222.16 -1.78244 0.95254 0
M  V30 13001 C 1222.48 -1.87924 -0.520525 0
M  V30 13002 O 1221.75 -1.39239 -1.37802 0
M  V30 13003 H 1220.33 -0.660228 0.349439 0
M  V30 13004 H 1222.99 -1.27634 1.47294 0
M  V30 13005 H 1222.09 -2.80102 1.37657 0
M  V30 13006 N 1222.39 -0.968567 -1.24324 0
M  V30 13007 C 1223.32 -0.457247 -2.24593 0
M  V30 13008 C 1224.33 0.434483 -1.56895 0
M  V30 13009 O 1225.52 0.240519 -1.76872 0
M  V30 13010 C 1222.62 0.359086 -3.36992 0
M  V30 13011 C 1221.8 -0.522945 -4.34263 0
M  V30 13012 C 1220.85 0.237528 -5.25664 0
M  V30 13013 O 1219.88 -0.368835 -5.68004 0
M  V30 13014 N 1221.08 1.52686 -5.6006 0
M  V30 13015 H 1223.85 -1.31934 -2.69098 0
M  V30 13016 H 1221.41 -0.840488 -1.38374 0
M  V30 13017 H 1223.4 0.87589 -3.95108 0
M  V30 13018 H 1221.97 1.12212 -2.91766 0
M  V30 13019 H 1221.19 -1.22071 -3.74823 0
M  V30 13020 H 1222.48 -1.12447 -4.96219 0
M  V30 13021 H 1221.88 2.0412 -5.2759 0
M  V30 13022 H 1220.43 1.98934 -6.207 0
M  V30 13023 N 1223.87 1.39211 -0.738786 0
M  V30 13024 C 1224.78 2.34374 -0.102958 0
M  V30 13025 C 1225.79 1.58514 0.717596 0
M  V30 13026 O 1226.97 1.90786 0.645186 0
M  V30 13027 C 1224.03 3.37562 0.790733 0
M  V30 13028 C 1223.09 4.29279 -0.0425028 0
M  V30 13029 C 1222.33 5.27539 0.808628 0
M  V30 13030 O 1222.55 5.32396 2.04722 0
M  V30 13031 O 1221.48 6.0144 0.235279 0
M  V30 13032 H 1225.31 2.90412 -0.888498 0
M  V30 13033 H 1222.9 1.40803 -0.499498 0
M  V30 13034 H 1224.78 4.00783 1.30196 0
M  V30 13035 H 1223.45 2.83903 1.55502 0
M  V30 13036 H 1222.36 3.69268 -0.599335 0
M  V30 13037 H 1223.69 4.86154 -0.7691 0
M  V30 13038 N 1225.34 0.486708 1.49896 0
M  V30 13039 C 1226.29 -0.299294 2.28851 0
M  V30 13040 C 1227.26 -0.973251 1.346 0
M  V30 13041 O 1228.45 -0.982678 1.63548 0
M  V30 13042 C 1225.59 -1.36624 3.16904 0
M  V30 13043 C 1224.7 -0.705492 4.262 0
M  V30 13044 C 1223.83 -1.75165 5.01488 0
M  V30 13045 C 1222.87 -1.072 6.0264 0
M  V30 13046 N 1222.01 -2.06172 6.71147 0
M  V30 13047 H 1226.85 0.380272 2.95564 0
M  V30 13048 H 1224.39 0.199377 1.45743 0
M  V30 13049 H 1226.35 -1.99666 3.66319 0
M  V30 13050 H 1224.98 -2.01476 2.52205 0
M  V30 13051 H 1224.03 0.0378757 3.80381 0
M  V30 13052 H 1225.34 -0.169774 4.98511 0
M  V30 13053 H 1224.49 -2.45749 5.547 0
M  V30 13054 H 1223.23 -2.3212 4.28919 0
M  V30 13055 H 1222.24 -0.351868 5.48673 0
M  V30 13056 H 1223.46 -0.509139 6.77189 0
M  V30 13057 H 1221.41 -2.62115 6.01358 0
M  V30 13058 H 1221.33 -1.57627 7.39385 0
M  V30 13059 H 1222.59 -2.76088 7.28969 0
M  V30 13060 N 1226.82 -1.56058 0.219941 0
M  V30 13061 C 1228.06 -2.00162 -0.414063 0
M  V30 13062 C 1228.43 -1.10432 -1.57063 0
M  V30 13063 O 1229.63 -1.43877 -2.27053 0
M  V30 13064 C 1227.9 -3.47411 -0.839084 0
M  V30 13065 S 1229.46 -4.13536 -1.46742 0
M  V30 13066 H 1226.28 -0.698738 -0.131475 0
M  V30 13067 H 1228.88 -1.92714 0.32885 0
M  V30 13068 H 1227.58 -4.10398 0.0123666 0
M  V30 13069 H 1227.11 -3.58728 -1.61485 0
M  V30 13070 H 1229.13 -4.12592 -2.75648 0
M  V30 13071 N 1228.3 0.053464 -1.57509 0
M  V30 13072 C 1229.25 1.06155 -2.04939 0
M  V30 13073 C 1230.22 1.37382 -0.93357 0
M  V30 13074 O 1231.4 1.48137 -1.2025 0
M  V30 13075 C 1228.54 2.36476 -2.51343 0
M  V30 13076 C 1227.66 2.1162 -3.76618 0
M  V30 13077 C 1226.79 3.35636 -4.11731 0
M  V30 13078 C 1225.83 3.06226 -5.29993 0
M  V30 13079 N 1224.97 4.22623 -5.60655 0
M  V30 13080 H 1229.81 0.650122 -2.90822 0
M  V30 13081 H 1227.34 0.309421 -1.43809 0
M  V30 13082 H 1229.3 3.12588 -2.76306 0
M  V30 13083 H 1227.93 2.75386 -1.68411 0
M  V30 13084 H 1226.98 1.26116 -3.58886 0
M  V30 13085 H 1228.3 1.85909 -4.6286 0
M  V30 13086 H 1227.45 4.20132 -4.37692 0
M  V30 13087 H 1226.19 3.64439 -3.24092 0
M  V30 13088 H 1225.19 2.20128 -5.03809 0
M  V30 13089 H 1226.42 2.78726 -6.19265 0
M  V30 13090 H 1224.37 4.51424 -4.75976 0
M  V30 13091 H 1224.28 4.0025 -6.41355 0
M  V30 13092 H 1225.55 5.08063 -5.91178 0
M  V30 13093 N 1229.78 1.54207 0.325255 0
M  V30 13094 C 1230.71 1.86467 1.40543 0
M  V30 13095 C 1231.69 0.721324 1.54048 0
M  V30 13096 O 1232.88 0.974905 1.67956 0
M  V30 13097 C 1230.01 2.09052 2.77335 0
M  V30 13098 C 1228.96 3.24893 2.78619 0
M  V30 13099 C 1228.29 3.32846 4.1847 0
M  V30 13100 C 1229.59 4.62582 2.42518 0
M  V30 13101 H 1231.28 2.76932 1.13794 0
M  V30 13102 H 1228.83 1.33248 0.545971 0
M  V30 13103 H 1230.78 2.30204 3.52964 0
M  V30 13104 H 1229.5 1.15335 3.05558 0
M  V30 13105 H 1228.16 3.03625 2.05444 0
M  V30 13106 H 1227.81 2.3669 4.43832 0
M  V30 13107 H 1227.51 4.10701 4.20237 0
M  V30 13108 H 1229.03 3.56231 4.95915 0
M  V30 13109 H 1230.45 4.83627 3.07861 0
M  V30 13110 H 1228.84 5.42974 2.55538 0
M  V30 13111 H 1229.91 4.64946 1.3767 0
M  V30 13112 N 1231.26 -0.58723 1.46251 0
M  V30 13113 C 1232.17 -1.72455 1.59048 0
M  V30 13114 C 1233.18 -1.67416 0.47413 0
M  V30 13115 O 1234.36 -1.87406 0.737633 0
M  V30 13116 C 1231.42 -3.08953 1.57318 0
M  V30 13117 C 1230.49 -3.25291 2.80151 0
M  V30 13118 C 1229.72 -4.55277 2.78493 0
M  V30 13119 O 1229.94 -5.38883 1.8698 0
M  V30 13120 O 1228.88 -4.74765 3.69975 0
M  V30 13121 H 1232.7 -1.64606 2.55223 0
M  V30 13122 H 1230.29 -0.753742 1.28993 0
M  V30 13123 H 1232.17 -3.90239 1.59033 0
M  V30 13124 H 1230.84 -3.17249 0.643025 0
M  V30 13125 H 1229.75 -2.43515 2.83991 0
M  V30 13126 H 1231.08 -3.21883 3.7236 0
M  V30 13127 N 1232.74 -1.33881 -0.831482 0
M  V30 13128 C 1233.68 -1.24741 -1.96322 0
M  V30 13129 C 1234.68 -0.147251 -1.68759 0
M  V30 13130 O 1235.88 -0.311684 -1.77281 0
M  V30 13131 H 1232.26 -0.387298 -0.644596 0
M  V30 13132 H 1234.23 -2.20407 -2.01155 0
M  V30 13133 C 1232.98 -1.01102 -3.32677 0
M  V30 13134 H 1232.3 -1.84986 -3.54429 0
M  V30 13135 H 1233.74 -0.987398 -4.12343 0
M  V30 13136 C 1232.2 0.285903 -3.35685 0
M  V30 13137 O 1232.73 1.29014 -3.80419 0
M  V30 13138 N 1230.94 0.316026 -2.88877 0
M  V30 13139 H 1230.48 -0.501758 -2.52666 0
M  V30 13140 H 1230.44 1.18357 -2.91271 0
M  V30 13141 N 1234.21 1.05064 -1.1747 0
M  V30 13142 C 1235.16 2.11131 -0.860692 0
M  V30 13143 C 1236.15 1.60049 0.165288 0
M  V30 13144 O 1237.34 1.76961 -0.0373288 0
M  V30 13145 C 1234.47 3.41222 -0.37718 0
M  V30 13146 C 1233.55 3.99097 -1.43466 0
M  V30 13147 N 1233.95 4.30918 -2.64846 0
M  V30 13148 C 1232.24 4.26851 -1.29282 0
M  V30 13149 C 1232.94 4.77092 -3.32804 0
M  V30 13150 N 1231.92 4.77291 -2.60182 0
M  V30 13151 H 1235.72 2.33597 -1.78353 0
M  V30 13152 H 1233.24 1.22724 -1.06361 0
M  V30 13153 H 1235.23 4.16685 -0.133766 0
M  V30 13154 H 1233.89 3.20188 0.53944 0
M  V30 13155 H 1234.9 4.20877 -3.01799 0
M  V30 13156 H 1231.58 4.15197 -0.437949 0
M  V30 13157 H 1232.97 5.10815 -4.36483 0
M  V30 13158 N 1235.69 0.975146 1.23809 0
M  V30 13159 C 1236.94 0.636678 1.91388 0
M  V30 13160 C 1237.25 -0.832876 1.76982 0
M  V30 13161 O 1238.46 -1.28218 2.39316 0
M  V30 13162 C 1236.92 1.08813 3.43057 0
M  V30 13163 C 1236.52 2.58165 3.66135 0
M  V30 13164 C 1238.27 0.823154 4.16443 0
M  V30 13165 C 1236.17 2.97004 5.11412 0
M  V30 13166 H 1235.1 0.234424 0.716632 0
M  V30 13167 H 1237.76 1.18235 1.40331 0
M  V30 13168 H 1236.14 0.470709 3.93192 0
M  V30 13169 H 1237.31 3.25101 3.26567 0
M  V30 13170 H 1235.63 2.82353 3.06049 0
M  V30 13171 H 1238.22 1.08925 5.23488 0
M  V30 13172 H 1238.57 -0.240705 4.15604 0
M  V30 13173 H 1239.1 1.4019 3.72279 0
M  V30 13174 H 1235.84 4.02492 5.17378 0
M  V30 13175 H 1235.36 2.34759 5.51949 0
M  V30 13176 H 1237.04 2.8732 5.79704 0
M  V30 13177 N 1237.17 -1.38817 0.746158 0
M  V30 13178 C 1238.39 -2.05096 0.308302 0
M  V30 13179 C 1238.82 -1.55902 -1.05244 0
M  V30 13180 O 1238.18 -0.707685 -1.66918 0
M  V30 13181 C 1238.23 -3.59068 0.332016 0
M  V30 13182 O 1237.33 -4.06813 -0.676547 0
M  V30 13183 H 1236.67 -0.649523 0.1379 0
M  V30 13184 H 1239.2 -1.77637 1.0152 0
M  V30 13185 H 1239.21 -4.07601 0.180293 0
M  V30 13186 H 1237.89 -3.94234 1.32487 0
M  V30 13187 H 1236.46 -3.69666 -0.490046 0
M  V30 13188 N 1238.65 -0.49465 -1.49636 0
M  V30 13189 C 1240.06 -0.0452894 -1.86645 0
M  V30 13190 C 1240.41 1.36686 -1.40753 0
M  V30 13191 O 1239.53 2.01751 -0.78265 0
M  V30 13192 C 1240.13 -0.0754115 -3.38716 0
M  V30 13193 C 1238.69 0.318579 -3.75049 0
M  V30 13194 C 1237.84 -0.450712 -2.73613 0
M  V30 13195 H 1240.79 -0.707758 -1.42044 0
M  V30 13196 H 1240.81 0.721372 -3.73599 0
M  V30 13197 H 1240.32 -1.10331 -3.72087 0
M  V30 13198 H 1238.42 1.34995 -3.47285 0
M  V30 13199 H 1238.53 0.00354416 -4.791 0
M  V30 13200 H 1236.9 0.0986455 -2.54509 0
M  V30 13201 H 1237.68 -1.47857 -3.09828 0
M  V30 13202 N 1240.13 1.55939 -0.228214 0
M  V30 13203 C 1241.4 1.90329 0.451033 0
M  V30 13204 C 1241.78 1.14646 1.77255 0
M  V30 13205 O 1241.13 0.257912 2.2704 0
M  V30 13206 C 1241.34 3.43129 0.637456 0
M  V30 13207 C 1242.69 4.14022 0.94186 0
M  V30 13208 O 1243.71 3.48764 0.724002 0
M  V30 13209 O 1242.57 5.29418 1.35568 0
M  V30 13210 H 1239.67 0.791591 0.2394 0
M  V30 13211 H 1242.21 1.67524 -0.270893 0
M  V30 13212 H 1240.98 3.90191 -0.294435 0
M  V30 13213 H 1240.61 3.71735 1.41062 0
M  V30 13214 N 1241.6 -0.0451101 1.57535 0
M  V30 13215 C 1242.85 -0.740209 1.88809 0
M  V30 13216 C 1243.18 -1.75854 0.823956 0
M  V30 13217 O 1242.46 -1.93817 -0.16286 0
M  V30 13218 C 1242.74 -1.42424 3.30737 0
M  V30 13219 C 1242.59 -0.42052 4.4783 0
M  V30 13220 C 1243.91 -2.36241 3.7132 0
M  V30 13221 H 1241.03 -0.267628 0.686691 0
M  V30 13222 H 1243.67 -0.00309149 1.9 0
M  V30 13223 H 1241.82 -2.05254 3.29853 0
M  V30 13224 H 1243.5 0.204625 4.60846 0
M  V30 13225 H 1241.74 0.261739 4.3301 0
M  V30 13226 H 1242.41 -0.937298 5.43984 0
M  V30 13227 H 1244.89 -1.83468 3.73468 0
M  V30 13228 H 1243.76 -2.81091 4.71465 0
M  V30 13229 H 1244.02 -3.2222 3.02699 0
M  V30 13230 N 1243.08 -1.54377 -0.317073 0
M  V30 13231 C 1244.5 -1.45232 -0.6618 0
M  V30 13232 C 1244.7 -0.630457 -1.91383 0
M  V30 13233 O 1243.75 -0.13181 -2.52156 0
M  V30 13234 C 1245.07 -2.89025 -0.829761 0
M  V30 13235 C 1246.62 -2.98967 -0.926685 0
M  V30 13236 C 1247.09 -4.43923 -1.12677 0
M  V30 13237 N 1248.58 -4.47564 -1.19335 0
M  V30 13238 C 1249.32 -5.56887 -1.36617 0
M  V30 13239 N 1248.81 -6.76167 -1.50899 0
M  V30 13240 N 1250.61 -5.44546 -1.39377 0
M  V30 13241 H 1242.76 -2.0629 0.505766 0
M  V30 13242 H 1245.02 -0.933615 0.164522 0
M  V30 13243 H 1244.73 -3.51695 0.0190945 0
M  V30 13244 H 1244.6 -3.35515 -1.72364 0
M  V30 13245 H 1246.99 -2.36421 -1.76604 0
M  V30 13246 H 1247.07 -2.55798 -0.00913402 0
M  V30 13247 H 1246.71 -5.07059 -0.29224 0
M  V30 13248 H 1246.64 -4.84708 -2.05829 0
M  V30 13249 H 1249.13 -3.61623 -1.09715 0
M  V30 13250 H 1249.45 -7.55242 -1.63796 0
M  V30 13251 H 1247.79 -6.79062 -1.47985 0
M  V30 13252 H 1250.98 -4.50311 -1.27819 0
M  V30 13253 H 1251.15 -6.29799 -1.52502 0
M  V30 13254 N 1244.56 0.579466 -1.4656 0
M  V30 13255 C 1245.81 1.33954 -1.52264 0
M  V30 13256 C 1246.14 1.93409 -0.175089 0
M  V30 13257 O 1245.41 1.76654 0.81385 0
M  V30 13258 C 1245.7 2.46645 -2.6237 0
M  V30 13259 C 1245.55 1.92204 -4.06667 0
M  V30 13260 C 1246.87 3.48676 -2.68538 0
M  V30 13261 H 1243.99 0.485697 -0.554317 0
M  V30 13262 H 1246.63 0.650639 -1.78512 0
M  V30 13263 H 1244.78 3.0541 -2.40119 0
M  V30 13264 H 1246.45 1.37871 -4.40215 0
M  V30 13265 H 1244.7 1.23012 -4.15993 0
M  V30 13266 H 1245.37 2.73566 -4.79443 0
M  V30 13267 H 1247.84 2.99798 -2.88549 0
M  V30 13268 H 1246.72 4.24981 -3.47394 0
M  V30 13269 H 1246.98 4.06112 -1.74716 0
M  V30 13270 N 1246.04 1.3432 0.824371 0
M  V30 13271 C 1246.97 1.2842 1.95014 0
M  V30 13272 C 1247.95 0.161925 1.69328 0
M  V30 13273 O 1249.13 0.354052 1.90945 0
M  V30 13274 C 1246.26 1.03741 3.31444 0
M  V30 13275 C 1245.22 2.12419 3.71567 0
M  V30 13276 C 1244.54 1.72931 5.05963 0
M  V30 13277 C 1245.84 3.54235 3.83817 0
M  V30 13278 H 1247.54 2.22614 2.00209 0
M  V30 13279 H 1245.08 1.07165 0.961856 0
M  V30 13280 H 1247.04 0.982586 4.09784 0
M  V30 13281 H 1245.76 0.0598892 3.26545 0
M  V30 13282 H 1244.42 2.16968 2.955 0
M  V30 13283 H 1244.07 0.738433 4.9755 0
M  V30 13284 H 1243.77 2.45668 5.3378 0
M  V30 13285 H 1245.29 1.68941 5.86763 0
M  V30 13286 H 1246.71 3.52106 4.52432 0
M  V30 13287 H 1245.1 4.25581 4.23085 0
M  V30 13288 H 1246.17 3.91682 2.85856 0
M  V30 13289 N 1247.52 -1.0444 1.18026 0
M  V30 13290 C 1248.93 -1.5903 0.978076 0
M  V30 13291 C 1249.28 -1.90407 -0.473241 0
M  V30 13292 O 1248.4 -1.69133 -1.34992 0
M  V30 13293 C 1249 -2.88942 1.76912 0
M  V30 13294 C 1247.56 -3.40164 1.61139 0
M  V30 13295 C 1246.7 -2.13797 1.76596 0
M  V30 13296 H 1249.66 -0.871574 1.32625 0
M  V30 13297 H 1249.68 -3.59173 1.25598 0
M  V30 13298 H 1249.19 -2.66074 2.82535 0
M  V30 13299 H 1247.29 -3.68053 0.580353 0
M  V30 13300 H 1247.4 -4.14241 2.40709 0
M  V30 13301 H 1245.77 -2.24922 1.19507 0
M  V30 13302 H 1246.55 -1.93389 2.83647 0
M  V30 13303 N 1248.99 -0.981699 -1.2329 0
M  V30 13304 C 1250.24 -0.650015 -1.91361 0
M  V30 13305 C 1250.56 0.819184 -1.76959 0
M  V30 13306 O 1249.83 1.5861 -1.14977 0
M  V30 13307 H 1248.41 -0.237427 -0.708264 0
M  V30 13308 H 1251.08 -1.24579 -1.49887 0
M  V30 13309 H 1250.17 -0.902772 -2.98758 0
M  V30 13310 N 1250.47 1.3842 -0.753509 0
M  V30 13311 C 1251.72 1.99723 -0.309021 0
M  V30 13312 C 1252.04 1.60111 1.11308 0
M  V30 13313 O 1251.31 0.85792 1.76115 0
M  V30 13314 H 1249.89 0.738667 -0.111266 0
M  V30 13315 H 1252.55 1.69186 -0.967586 0
M  V30 13316 H 1251.65 3.09874 -0.372095 0
M  V30 13317 N 1251.95 0.502579 1.49372 0
M  V30 13318 C 1253.2 -0.0412993 2.02058 0
M  V30 13319 C 1253.52 -1.37338 1.38431 0
M  V30 13320 O 1252.79 -1.88305 0.540175 0
M  V30 13321 H 1251.37 -0.0182522 0.746777 0
M  V30 13322 H 1254.03 0.660179 1.83378 0
M  V30 13323 H 1253.13 -0.169812 3.11638 0
M  V30 13324 N 1253.43 -1.55816 0.23648 0
M  V30 13325 C 1254.39 -2.1967 -0.654041 0
M  V30 13326 C 1255.39 -1.1629 -1.11056 0
M  V30 13327 O 1256.58 -1.41435 -1.01695 0
M  V30 13328 C 1253.71 -2.83196 -1.89771 0
M  V30 13329 H 1254.91 -2.99743 -0.0970911 0
M  V30 13330 H 1252.46 -1.56295 -0.013098 0
M  V30 13331 H 1253.19 -2.07033 -2.49616 0
M  V30 13332 H 1252.98 -3.58915 -1.57868 0
M  V30 13333 H 1254.47 -3.32095 -2.53184 0
M  V30 13334 N 1254.91 0.036755 -1.57557 0
M  V30 13335 C 1255.86 1.04744 -2.02516 0
M  V30 13336 C 1256.84 1.3248 -0.913116 0
M  V30 13337 O 1258.03 1.32194 -1.17702 0
M  V30 13338 C 1255.16 2.3509 -2.50175 0
M  V30 13339 C 1254.25 2.10478 -3.68185 0
M  V30 13340 N 1254.64 1.55899 -4.81175 0
M  V30 13341 C 1252.94 2.40797 -3.7541 0
M  V30 13342 C 1253.64 1.46913 -5.62842 0
M  V30 13343 N 1252.61 1.94202 -5.07727 0
M  V30 13344 H 1256.42 0.619342 -2.873 0
M  V30 13345 H 1253.93 0.243208 -1.60569 0
M  V30 13346 H 1255.93 3.08297 -2.8064 0
M  V30 13347 H 1254.59 2.78586 -1.66793 0
M  V30 13348 H 1255.6 1.24275 -5.02769 0
M  V30 13349 H 1252.27 2.8742 -3.02813 0
M  V30 13350 H 1253.66 1.0527 -6.63602 0
M  V30 13351 N 1256.39 1.54543 0.308881 0
M  V30 13352 C 1257.63 1.73107 1.043 0
M  V30 13353 C 1257.95 0.515481 1.88063 0
M  V30 13354 O 1257.22 -0.47036 1.90169 0
M  V30 13355 H 1255.8 0.638289 0.388068 0
M  V30 13356 H 1258.47 1.9188 0.341769 0
M  V30 13357 H 1257.56 2.61697 1.70063 0
M  V30 13358 N 1257.86 -0.571685 1.46866 0
M  V30 13359 C 1259.09 -1.36008 1.56578 0
M  V30 13360 C 1259.51 -1.86909 0.211326 0
M  V30 13361 O 1258.87 -1.62179 -0.810421 0
M  V30 13362 C 1258.92 -2.51598 2.58323 0
M  V30 13363 O 1258.02 -3.53383 2.1259 0
M  V30 13364 H 1257.36 -0.404593 0.526498 0
M  V30 13365 H 1259.89 -0.692357 1.92529 0
M  V30 13366 H 1259.9 -2.98366 2.78283 0
M  V30 13367 H 1258.58 -2.13904 3.56676 0
M  V30 13368 H 1257.16 -3.13019 2.02666 0
M  V30 13369 N 1259.34 -1.34755 -0.817236 0
M  V30 13370 C 1260.57 -1.30522 -1.60536 0
M  V30 13371 C 1260.98 0.119541 -1.88421 0
M  V30 13372 O 1260.34 1.06833 -1.47962 0
M  V30 13373 C 1260.39 -2.09939 -2.94292 0
M  V30 13374 O 1260.11 -3.46858 -2.67621 0
M  V30 13375 C 1261.61 -2.13168 -3.88683 0
M  V30 13376 H 1258.83 -0.448789 -0.498828 0
M  V30 13377 H 1261.38 -1.77453 -1.01639 0
M  V30 13378 H 1259.53 -1.66634 -3.49731 0
M  V30 13379 H 1259.95 -3.87979 -3.52949 0
M  V30 13380 H 1261.42 -2.73147 -4.79682 0
M  V30 13381 H 1261.9 -1.12758 -4.24479 0
M  V30 13382 H 1262.5 -2.56587 -3.39181 0
M  V30 13383 N 1260.82 1.03812 -1.18578 0
M  V30 13384 C 1262.24 1.29271 -0.936011 0
M  V30 13385 C 1262.44 1.97551 0.396965 0
M  V30 13386 O 1261.49 2.25769 1.13069 0
M  V30 13387 C 1262.8 2.1489 -2.1034 0
M  V30 13388 C 1264.35 2.28228 -2.14198 0
M  V30 13389 C 1264.83 3.17214 -3.30362 0
M  V30 13390 N 1266.32 3.24802 -3.30239 0
M  V30 13391 C 1267.05 3.9382 -4.16765 0
M  V30 13392 N 1266.55 4.65147 -5.1343 0
M  V30 13393 N 1268.34 3.90125 -4.04671 0
M  V30 13394 H 1260.49 0.579011 -2.04356 0
M  V30 13395 H 1262.76 0.318021 -0.893066 0
M  V30 13396 H 1262.46 1.72029 -3.06755 0
M  V30 13397 H 1262.34 3.15576 -2.06619 0
M  V30 13398 H 1264.72 2.70324 -1.18359 0
M  V30 13399 H 1264.8 1.27124 -2.21976 0
M  V30 13400 H 1264.45 2.75829 -4.26475 0
M  V30 13401 H 1264.38 4.18356 -3.19821 0
M  V30 13402 H 1266.87 2.73994 -2.60261 0
M  V30 13403 H 1267.18 5.15414 -5.7582 0
M  V30 13404 H 1265.53 4.64043 -5.17387 0
M  V30 13405 H 1268.72 3.33536 -3.28438 0
M  V30 13406 H 1268.89 4.43641 -4.7232 0
M  V30 13407 N 1262.3 0.988223 1.22768 0
M  V30 13408 C 1263.57 0.577578 1.86878 0
M  V30 13409 C 1263.95 -0.945197 1.88757 0
M  V30 13410 O 1263.3 -1.82519 1.37474 0
M  V30 13411 C 1263.51 1.19263 3.2799 0
M  V30 13412 C 1264.86 1.29024 4.04522 0
M  V30 13413 O 1265.88 1.14667 3.37239 0
M  V30 13414 O 1264.74 1.51949 5.24951 0
M  V30 13415 H 1261.84 0.195579 0.803541 0
M  V30 13416 H 1264.38 1.0838 1.30582 0
M  V30 13417 H 1263.16 2.23442 3.21231 0
M  V30 13418 H 1262.78 0.671706 3.91885 0
M  V30 13419 N 1263.78 -1.38018 0.760839 0
M  V30 13420 C 1264.71 -2.2899 0.0980916 0
M  V30 13421 C 1265.72 -1.48102 -0.675985 0
M  V30 13422 O 1266.91 -1.70883 -0.515878 0
M  V30 13423 C 1264.01 -3.27142 -0.884959 0
M  V30 13424 C 1263.18 -4.37081 -0.167 0
M  V30 13425 C 1262.24 -5.15375 -1.06184 0
M  V30 13426 O 1261.27 -5.6673 -0.529667 0
M  V30 13427 N 1262.47 -5.29052 -2.38924 0
M  V30 13428 H 1265.23 -2.86508 0.879403 0
M  V30 13429 H 1262.8 -1.49877 0.612245 0
M  V30 13430 H 1264.79 -3.764 -1.48678 0
M  V30 13431 H 1263.36 -2.70471 -1.5673 0
M  V30 13432 H 1262.58 -3.89363 0.615617 0
M  V30 13433 H 1263.87 -5.07732 0.329525 0
M  V30 13434 H 1263.26 -4.88892 -2.84607 0
M  V30 13435 H 1261.82 -5.81658 -2.94139 0
M  V30 13436 N 1265.25 -0.510493 -1.49103 0
M  V30 13437 C 1266.48 0.0293113 -2.07379 0
M  V30 13438 C 1266.9 1.29195 -1.36713 0
M  V30 13439 O 1266.26 1.76204 -0.426838 0
M  V30 13440 C 1266.31 0.25629 -3.59688 0
M  V30 13441 O 1265.41 1.32907 -3.90397 0
M  V30 13442 H 1264.75 -0.0304449 -0.663302 0
M  V30 13443 H 1267.28 -0.712832 -1.91781 0
M  V30 13444 H 1267.29 0.484915 -4.05108 0
M  V30 13445 H 1265.97 -0.666163 -4.1053 0
M  V30 13446 H 1264.55 1.08464 -3.56777 0
M  V30 13447 N 1266.73 1.55688 -0.24474 0
M  V30 13448 C 1267.98 1.98067 0.381081 0
M  V30 13449 C 1268.29 1.13606 1.59227 0
M  V30 13450 O 1269.5 1.45988 2.2891 0
M  V30 13451 C 1267.96 3.52432 0.729385 0
M  V30 13452 C 1267.56 4.45629 -0.460282 0
M  V30 13453 C 1269.31 4.03471 1.31952 0
M  V30 13454 C 1267.21 5.91334 -0.088252 0
M  V30 13455 H 1266.14 0.739699 0.146157 0
M  V30 13456 H 1268.8 1.80235 -0.344615 0
M  V30 13457 H 1267.18 3.65951 1.51315 0
M  V30 13458 H 1268.35 4.43868 -1.23764 0
M  V30 13459 H 1266.67 4.05059 -0.965197 0
M  V30 13460 H 1269.26 5.09849 1.61116 0
M  V30 13461 H 1269.61 3.50691 2.24325 0
M  V30 13462 H 1270.14 3.93269 0.5987 0
M  V30 13463 H 1266.88 6.48147 -0.979069 0
M  V30 13464 H 1266.4 5.96235 0.652947 0
M  V30 13465 H 1268.08 6.46156 0.330324 0
M  V30 13466 O 1268.25 0.109283 1.6113 0
M  V30 13467 H 1268.94 -0.490999 1.87374 0
M  V30 END ATOM
M  V30 BEGIN BOND
M  V30 END BOND
M  V30 END CTAB
M  END
$$$$
